data_POSCAR
  _audit_creation_date              2014-09-24
  _audit_creation_method            'ToBaCCo'
  _symmetry_space_group_name_H-M    'P1'
  _symmetry_Int_Tables_number       1
  _symmetry_cell_setting            triclinic
  loop_
  _symmetry_equiv_pos_as_xyz
 x,y,z
_cell_length_a 37.9712
_cell_length_b 38.5609
_cell_length_c 39.9703
_cell_angle_alpha 90.644500
_cell_angle_beta 88.239900
_cell_angle_gamma 89.032700
loop_
  _atom_site_label
  _atom_site_type_symbol
  _atom_site_fract_x
  _atom_site_fract_y
  _atom_site_fract_z
C1 C 0.60918 0.64954 0.62083
 C2 C 0.64196 0.63829 0.60735
 C3 C 0.65911 0.61002 0.62078
 C4 C 0.64334 0.59222 0.64760
 C5 C 0.61119 0.60356 0.66117
 C6 C 0.59394 0.63241 0.64769
 C7 C 0.58661 0.67617 0.61266
 N8 N 0.55791 0.67533 0.63367
 C9 C 0.56222 0.64890 0.65541
 C10 C 0.60219 0.58136 0.68660
 N11 N 0.62749 0.55602 0.68816
 C12 C 0.65312 0.56302 0.66472
 C13 C 0.69012 0.60487 0.60246
 N14 N 0.69224 0.62950 0.57845
 C15 C 0.66251 0.64959 0.58089
 H16 H 0.59063 0.69481 0.59291
 H17 H 0.54366 0.64232 0.67535
 H18 H 0.57825 0.58281 0.70202
 H19 H 0.67760 0.54850 0.66092
 H20 H 0.70958 0.58453 0.60610
 H21 H 0.65598 0.67048 0.56418
 C22 C 0.88756 0.35403 0.10838
 C23 C 0.85686 0.36816 0.09496
 C24 C 0.84017 0.39652 0.11040
 C25 C 0.85365 0.41077 0.13965
 C26 C 0.88355 0.39646 0.15322
 C27 C 0.90096 0.36824 0.13714
 C28 C 0.90934 0.32662 0.09871
 N29 N 0.93639 0.32445 0.12022
 C30 C 0.93092 0.34950 0.14421
 C31 C 0.88976 0.41479 0.18214
 N32 N 0.86425 0.43975 0.18651
 C33 C 0.84255 0.43790 0.16015
 C34 C 0.81071 0.40423 0.09256
 N35 N 0.80893 0.38095 0.06698
 C36 C 0.83725 0.35908 0.06790
 H37 H 0.90620 0.31005 0.07698
 H38 H 0.94680 0.35312 0.16598
 H39 H 0.91115 0.41022 0.19892
 H40 H 0.82040 0.45522 0.15604
 H41 H 0.79159 0.42483 0.09804
 H42 H 0.84269 0.33778 0.05053
 C43 C 0.39331 0.14259 -0.10994
 C44 C 0.36514 0.12539 -0.09431
 C45 C 0.34816 0.09943 -0.11127
 C46 C 0.35933 0.09002 -0.14393
 C47 C 0.38710 0.10689 -0.15934
 C48 C 0.40433 0.13330 -0.14223
 C49 C 0.41365 0.16985 -0.10007
 N50 N 0.43658 0.17719 -0.12561
 C51 C 0.43137 0.15492 -0.15139
 C52 C 0.39205 0.09245 -0.19080
 N53 N 0.36780 0.06724 -0.19505
 C54 C 0.34806 0.06539 -0.16611
 C55 C 0.32086 0.08857 -0.09079
 N56 N 0.32129 0.10675 -0.06148
 C57 C 0.34810 0.12962 -0.06360
 H58 H 0.41159 0.18379 -0.07641
 H59 H 0.44559 0.15513 -0.17528
 H60 H 0.41304 0.09870 -0.20856
 H61 H 0.32668 0.04764 -0.16156
 H62 H 0.30134 0.06965 -0.09719
 H63 H 0.35424 0.14844 -0.04444
 C64 C 0.11812 0.84488 0.38171
 C65 C 0.14614 0.86193 0.39648
 C66 C 0.15577 0.89451 0.38555
 C67 C 0.13723 0.91055 0.35996
 C68 C 0.10939 0.89387 0.34576
 C69 C 0.09978 0.86084 0.35668
 C70 C 0.10289 0.81323 0.38724
 N71 N 0.07580 0.80942 0.36600
 C72 C 0.07347 0.83887 0.34766
 C73 C 0.09682 0.91501 0.32124
 N74 N 0.11592 0.94463 0.32033
 C75 C 0.14109 0.94165 0.34381
 C76 C 0.18391 0.90461 0.40402
 N77 N 0.19136 0.87899 0.42579
 C78 C 0.16841 0.85286 0.42159
 H79 H 0.10998 0.79513 0.40653
 H80 H 0.05425 0.84386 0.32875
 H81 H 0.07662 0.90812 0.30395
 H82 H 0.16072 0.96083 0.34911
 H83 H 0.19789 0.92878 0.40198
 H84 H 0.16812 0.82906 0.43569
 N85 N 0.08262 0.17939 0.10930
 N86 N 0.06693 0.16777 0.13664
 C87 C 0.03961 0.18912 0.14533
 C88 C 0.03857 0.21556 0.12240
 C89 C 0.06609 0.20867 0.09985
 H90 H 0.02209 0.18607 0.16689
 H91 H 0.07345 0.22386 0.07824
 Cu92 Cu 0.08439 0.12649 0.15873
 Cu93 Cu 0.12316 0.15571 0.08795
 Cu94 Cu 0.15641 0.08351 0.12797
 N95 N 0.10367 0.08618 0.18107
 N96 N 0.13168 0.06938 0.16883
 C97 C 0.13883 0.04227 0.18857
 C98 C 0.11376 0.04182 0.21440
 C99 C 0.09226 0.07046 0.20920
 H100 H 0.16048 0.02399 0.18439
 H101 H 0.07013 0.07925 0.22492
 N102 N 0.17755 0.10171 0.08624
 N103 N 0.16403 0.12835 0.07032
 C104 C 0.18324 0.13340 0.04198
 C105 C 0.21011 0.10873 0.03982
 C106 C 0.20608 0.08952 0.06870
 H107 H 0.17827 0.15366 0.02417
 H108 H 0.22303 0.06854 0.07659
 H109 H 0.11339 0.10682 0.10646
 H110 H 0.14192 0.13538 0.13175
 N111 N 0.40669 0.81415 0.61281
 N112 N 0.41833 0.82831 0.64034
 C113 C 0.44338 0.80741 0.65280
 C114 C 0.44723 0.77842 0.63225
 C115 C 0.42382 0.78376 0.60691
 H116 H 0.45826 0.81299 0.67481
 H117 H 0.42039 0.76727 0.58523
 Cu118 Cu 0.40050 0.87335 0.65613
 Cu119 Cu 0.37135 0.83680 0.58585
 Cu120 Cu 0.33918 0.91707 0.61396
 N121 N 0.38215 0.91817 0.67195
 N122 N 0.35858 0.93542 0.65499
 C123 C 0.35078 0.96565 0.67092
 C124 C 0.37068 0.96747 0.69925
 C125 C 0.38994 0.93678 0.69940
 H126 H 0.33169 0.98469 0.66287
 H127 H 0.40826 0.92879 0.71813
 N128 N 0.32294 0.89410 0.57301
 N129 N 0.33551 0.86375 0.56211
 C130 C 0.31927 0.85502 0.53381
 C131 C 0.29553 0.88118 0.52651
 C132 C 0.29819 0.90532 0.55204
 H133 H 0.32367 0.83108 0.51986
 H134 H 0.28301 0.92918 0.55507
 H135 H 0.38277 0.88709 0.59961
 H136 H 0.34734 0.86530 0.62452
 N137 N 0.92527 0.67690 0.39032
 N138 N 0.93503 0.66410 0.36077
 C139 C 0.96413 0.68048 0.34968
 C140 C 0.97275 0.70481 0.37352
 C141 C 0.94749 0.70213 0.39884
 H142 H 0.97759 0.67579 0.32579
 H143 H 0.94529 0.71764 0.42153
 Cu144 Cu 0.90804 0.62841 0.33882
 Cu145 Cu 0.88403 0.66066 0.41512
 Cu146 Cu 0.83766 0.59422 0.37907
 N147 N 0.88209 0.59022 0.31974
 N148 N 0.85587 0.57587 0.33635
 C149 C 0.84423 0.54885 0.31849
 C150 C 0.86337 0.54673 0.28843
 C151 C 0.88753 0.57317 0.29039
 H152 H 0.82380 0.53160 0.32709
 H153 H 0.90780 0.57920 0.27188
 N154 N 0.82323 0.61632 0.42207
 N155 N 0.84154 0.64089 0.43630
 C156 C 0.82518 0.65057 0.46537
 C157 C 0.79443 0.63203 0.46910
 C158 C 0.79440 0.61017 0.44142
 H159 H 0.83490 0.66970 0.48260
 H160 H 0.77450 0.59147 0.43568
 H161 H 0.88605 0.61140 0.39405
 H162 H 0.85652 0.64399 0.37418
 N163 N 0.58572 0.31496 -0.11156
 N164 N 0.57401 0.32756 -0.13964
 C165 C 0.54612 0.30907 -0.14903
 C166 C 0.53999 0.28376 -0.12544
 C167 C 0.56586 0.28791 -0.10226
 H168 H 0.53107 0.31378 -0.17110
 H169 H 0.56928 0.27293 -0.07984
 Cu170 Cu 0.59547 0.36780 -0.16026
 Cu171 Cu 0.62422 0.33601 -0.08797
 Cu172 Cu 0.66131 0.40923 -0.12327
 N173 N 0.61729 0.40807 -0.18048
 N174 N 0.64219 0.42491 -0.16531
 C175 C 0.65144 0.45253 -0.18373
 C176 C 0.63163 0.45257 -0.21211
 C177 C 0.61014 0.42419 -0.20927
 H178 H 0.67120 0.47109 -0.17716
 H179 H 0.59044 0.41636 -0.22667
 N180 N 0.67711 0.38914 -0.08099
 N181 N 0.66323 0.36104 -0.06782
 C182 C 0.67966 0.35368 -0.03931
 C183 C 0.70474 0.37854 -0.03407
 C184 C 0.70278 0.40032 -0.06119
 H185 H 0.67413 0.33168 -0.02358
 H186 H 0.71892 0.42266 -0.06598
 H187 H 0.61607 0.38563 -0.10561
 H188 H 0.64897 0.35768 -0.12939
 C189 C -0.02100 0.23846 0.11235
 C190 C -0.04578 0.26533 0.11058
 C191 C -0.03736 0.29962 0.11924
 C192 C -0.00193 0.30690 0.12753
 C193 C 0.02318 0.27931 0.12950
 C194 C 0.01332 0.24496 0.12197
 C195 C 0.05768 0.28707 0.13864
 N196 N 0.06689 0.32049 0.14359
 N197 N 0.04403 0.34658 0.13975
 C198 C 0.01019 0.34100 0.13153
 H199 H -0.02870 0.21229 0.10614
 H200 H -0.07234 0.25886 0.10399
 H201 H 0.07748 0.26695 0.14162
 H202 H -0.00636 0.36340 0.12715
 C203 C 0.50903 0.75982 0.63952
 C204 C 0.53607 0.73498 0.63920
 C205 C 0.52905 0.69988 0.63397
 C206 C 0.49399 0.68954 0.62899
 C207 C 0.46630 0.71476 0.62968
 C208 C 0.47413 0.75034 0.63429
 C209 C 0.43161 0.70326 0.62629
 N210 N 0.42551 0.66912 0.62097
 N211 N 0.45169 0.64570 0.61896
 C212 C 0.48570 0.65474 0.62269
 H213 H 0.51559 0.78682 0.64307
 H214 H 0.56282 0.74311 0.64304
 H215 H 0.40922 0.72089 0.62824
 H216 H 0.50586 0.63467 0.62052
 C217 C 0.99106 0.76510 0.36562
 C218 C 1.01634 0.79064 0.36256
 C219 C 1.05241 0.78276 0.36569
 C220 C 1.06295 0.74737 0.36953
 C221 C 1.03696 0.72141 0.37271
 C222 C 1.00087 0.73060 0.37099
 C223 C 1.04803 0.68684 0.37725
 N224 N 1.08287 0.67859 0.37680
 N225 N 1.10728 0.70253 0.37192
 C226 C 1.09857 0.73645 0.36792
 H227 H 0.96349 0.77235 0.36386
 H228 H 1.00734 0.81717 0.35953
 H229 H 1.02933 0.66626 0.38085
 H230 H 1.11961 0.75417 0.36245
 C231 C 0.52224 0.22255 -0.12273
 C232 C 0.49729 0.19647 -0.12330
 C233 C 0.46148 0.20470 -0.12575
 C234 C 0.45050 0.23978 -0.12791
 C235 C 0.47578 0.26640 -0.12728
 C236 C 0.51206 0.25753 -0.12508
 C237 C 0.46360 0.30105 -0.12809
 N238 N 0.42868 0.30816 -0.13062
 N239 N 0.40512 0.28305 -0.13216
 C240 C 0.41482 0.24910 -0.13089
 H241 H 0.54982 0.21533 -0.12094
 H242 H 0.50584 0.16963 -0.12162
 H243 H 0.48130 0.32257 -0.12634
 H244 H 0.39460 0.22977 -0.13226
 C245 C 0.14357 0.00903 0.25829
 C246 C 0.14416 -0.01361 0.28511
 C247 C 0.11325 -0.02938 0.29729
 C248 C 0.08056 -0.01932 0.28325
 C249 C 0.08025 0.00252 0.25482
 C250 C 0.11211 0.01714 0.24257
 C251 C 0.04787 0.00861 0.23947
 N252 N 0.01759 -0.00308 0.25380
 N253 N 0.01751 -0.02051 0.28234
 C254 C 0.04782 -0.02866 0.29771
 H255 H 0.16815 0.02016 0.24954
 H256 H 0.16955 -0.02027 0.29505
 H257 H 0.04619 0.02230 0.21617
 H258 H 0.04583 -0.04153 0.32153
 C259 C 0.61904 0.51184 -0.23120
 C260 C 0.61662 0.53685 -0.25588
 C261 C 0.62783 0.52967 -0.28916
 C262 C 0.63965 0.49529 -0.29776
 C263 C 0.64221 0.46992 -0.27239
 C264 C 0.63180 0.47845 -0.23898
 C265 C 0.65486 0.43649 -0.28139
 N266 N 0.66237 0.42846 -0.31394
 N267 N 0.65788 0.45151 -0.33803
 C268 C 0.64643 0.48439 -0.33115
 H269 H 0.61056 0.51853 -0.20577
 H270 H 0.60731 0.56260 -0.24852
 H271 H 0.65862 0.41661 -0.26291
 H272 H 0.64169 0.50111 -0.35205
 C273 C 0.36171 0.98517 0.75830
 C274 C 0.35960 1.00967 0.78410
 C275 C 0.36612 1.04491 0.77813
 C276 C 0.37237 1.05559 0.74444
 C277 C 0.37504 1.03036 0.71821
 C278 C 0.36958 0.99492 0.72538
 C279 C 0.38330 1.04157 0.68556
 N280 N 0.38597 1.07589 0.67926
 N281 N 0.38086 1.09971 0.70334
 C282 C 0.37380 1.09080 0.73554
 H283 H 0.35717 0.95820 0.76413
 H284 H 0.35470 1.00053 0.80929
 H285 H 0.38763 1.02347 0.66496
 H286 H 0.36835 1.11143 0.75351
 C287 C 0.89306 0.50827 0.24589
 C288 C 0.89353 0.48189 0.22184
 C289 C 0.86248 0.46547 0.21304
 C290 C 0.83020 0.47590 0.22930
 C291 C 0.82933 0.50448 0.25210
 C292 C 0.86137 0.51992 0.26151
 C293 C 0.79615 0.51693 0.26402
 N294 N 0.76657 0.49963 0.25656
 N295 N 0.76784 0.47093 0.23773
 C296 C 0.79862 0.45838 0.22400
 H297 H 0.91791 0.51945 0.25253
 H298 H 0.91844 0.47436 0.20974
 H299 H 0.79319 0.54060 0.27854
 H300 H 0.79803 0.43461 0.20953
 C301 C 0.25250 0.13708 0.00126
 C302 C 0.27991 0.13681 -0.02264
 C303 C 0.29497 0.10557 -0.03476
 C304 C 0.28235 0.07384 -0.02185
 C305 C 0.25314 0.07398 0.00127
 C306 C 0.23870 0.10607 0.01362
 C307 C 0.23897 0.04181 0.01041
 N308 N 0.25497 0.01187 -0.00041
 N309 N 0.28394 0.01185 -0.02001
 C310 C 0.29824 0.04178 -0.03099
 H311 H 0.24207 0.16191 0.01024
 H312 H 0.28913 0.16131 -0.03222
 H313 H 0.21502 0.03996 0.02544
 H314 H 0.32208 0.04013 -0.04640
 C315 C 0.75415 0.60200 0.50850
 C316 C 0.73008 0.60109 0.53542
 C317 C 0.71941 0.63151 0.55258
 C318 C 0.73399 0.66354 0.54258
 C319 C 0.75697 0.66479 0.51390
 C320 C 0.76801 0.63346 0.49732
 C321 C 0.76722 0.69763 0.50246
 N322 N 0.75796 0.72660 0.52039
 N323 N 0.73884 0.72504 0.54878
 C324 C 0.72666 0.69453 0.56054
 H325 H 0.76209 0.57774 0.49633
 H326 H 0.71920 0.57640 0.54264
 H327 H 0.78182 0.70084 0.47916
 H328 H 0.71176 0.69484 0.58400
 C329 C 0.76584 0.38417 -0.01545
 C330 C 0.79133 0.38396 0.00888
 C331 C 0.78188 0.37987 0.04268
 C332 C 0.74601 0.37556 0.05217
 C333 C 0.71990 0.37639 0.02752
 C334 C 0.73012 0.38006 -0.00672
 C335 C 0.68436 0.37423 0.03825
 N336 N 0.67596 0.36963 0.07111
 N337 N 0.70063 0.36721 0.09397
 C338 C 0.73533 0.36994 0.08563
 H339 H 0.77418 0.38701 -0.04143
 H340 H 0.81871 0.38728 0.00141
 H341 H 0.66310 0.37664 0.02107
 H342 H 0.75417 0.36741 0.10522
 C343 C 0.23431 0.88687 0.50792
 C344 C 0.20879 0.88574 0.48364
 C345 C 0.21838 0.87976 0.45001
 C346 C 0.25426 0.87486 0.44053
 C347 C 0.28033 0.87594 0.46516
 C348 C 0.27007 0.88157 0.49925
 C349 C 0.31587 0.87211 0.45452
 N350 N 0.32430 0.86655 0.42164
 N351 N 0.29967 0.86473 0.39870
 C352 C 0.26494 0.86868 0.40702
 H353 H 0.22598 0.89122 0.53382
 H354 H 0.18131 0.88961 0.49101
 H355 H 0.33706 0.87389 0.47184
 H356 H 0.24602 0.86696 0.38740
   
