data_POSCAR
  _audit_creation_date              2014-09-24
  _audit_creation_method            'ToBaCCo'
  _symmetry_space_group_name_H-M    'P1'
  _symmetry_Int_Tables_number       1
  _symmetry_cell_setting            triclinic
  loop_
  _symmetry_equiv_pos_as_xyz
 x,y,z
_cell_length_a 38.9704
_cell_length_b 40.1946
_cell_length_c 21.9968
_cell_angle_alpha 89.603200
_cell_angle_beta 89.388600
_cell_angle_gamma 90.101800
loop_
  _atom_site_label
  _atom_site_type_symbol
  _atom_site_fract_x
  _atom_site_fract_y
  _atom_site_fract_z
C1 C 0.78644 0.18617 0.44635
 C2 C 0.79446 0.17150 0.50250
 C3 C 0.78821 0.18731 0.55826
 C4 C 0.77002 0.21800 0.55806
 C5 C 0.76011 0.23272 0.50193
 C6 C 0.76867 0.21703 0.44598
 C7 C 0.75727 0.23157 0.39146
 C8 C 0.74010 0.26178 0.39118
 C9 C 0.73143 0.27782 0.44564
 C10 C 0.74107 0.26304 0.50175
 C11 C 0.75976 0.23346 0.61246
 C12 C 0.74243 0.26361 0.61219
 C13 C 0.73182 0.27853 0.55760
 C14 C 0.71369 0.30929 0.55692
 C15 C 0.70594 0.32389 0.50055
 C16 C 0.71357 0.30840 0.44544
 H17 H 0.76101 0.21961 0.34807
 H18 H 0.73354 0.27228 0.34745
 H19 H 0.76459 0.22232 0.65636
 H20 H 0.73774 0.27505 0.65576
 H21 H 0.80967 0.14892 0.50232
 H22 H 0.69121 0.34677 0.49930
 C23 C 0.20966 0.80577 0.55889
 C24 C 0.19999 0.82024 0.50374
 C25 C 0.20932 0.80646 0.44782
 C26 C 0.22968 0.77733 0.44665
 C27 C 0.24010 0.76239 0.50225
 C28 C 0.22979 0.77649 0.55856
 C29 C 0.23992 0.76101 0.61284
 C30 C 0.25949 0.73212 0.61211
 C31 C 0.27153 0.71841 0.55715
 C32 C 0.26088 0.73330 0.50150
 C33 C 0.24022 0.76299 0.39152
 C34 C 0.25964 0.73403 0.39075
 C35 C 0.27050 0.71894 0.44505
 C36 C 0.29016 0.68947 0.44442
 C37 C 0.30006 0.67493 0.49933
 C38 C 0.29207 0.68909 0.55597
 H39 H 0.23263 0.77089 0.65669
 H40 H 0.26445 0.72042 0.65547
 H41 H 0.23352 0.77394 0.34822
 H42 H 0.26591 0.72356 0.34688
 H43 H 0.18404 0.84235 0.50440
 H44 H 0.31649 0.65319 0.49727
 C45 C 0.21278 0.19259 -0.43565
 C46 C 0.19958 0.18011 -0.48988
 C47 C 0.20206 0.19728 -0.54559
 C48 C 0.22130 0.22744 -0.54800
 C49 C 0.23688 0.23961 -0.49416
 C50 C 0.23188 0.22265 -0.43770
 C51 C 0.24743 0.23542 -0.38539
 C52 C 0.26555 0.26515 -0.38724
 C53 C 0.27097 0.28236 -0.44225
 C54 C 0.25680 0.26941 -0.49641
 C55 C 0.22330 0.24725 -0.60095
 C56 C 0.24348 0.27580 -0.60343
 C57 C 0.26186 0.28655 -0.55258
 C58 C 0.28276 0.31563 -0.55508
 C59 C 0.29509 0.32854 -0.50024
 C60 C 0.28961 0.31256 -0.44440
 H61 H 0.24596 0.22252 -0.34216
 H62 H 0.27536 0.27432 -0.34475
 H63 H 0.20872 0.24153 -0.64099
 H64 H 0.24352 0.29009 -0.64529
 H65 H 0.18554 0.15678 -0.48817
 H66 H 0.31145 0.35041 -0.50090
 C67 C -0.28576 0.69165 -0.43624
 C68 C -0.29895 0.67917 -0.49048
 C69 C -0.29707 0.69664 -0.54595
 C70 C -0.27844 0.72718 -0.54808
 C71 C -0.26278 0.73933 -0.49429
 C72 C -0.26714 0.72198 -0.43809
 C73 C -0.25146 0.73470 -0.38584
 C74 C -0.23392 0.76475 -0.38739
 C75 C -0.22916 0.78238 -0.44213
 C76 C -0.24344 0.76948 -0.49628
 C77 C -0.27717 0.74734 -0.60063
 C78 C -0.25755 0.77626 -0.60287
 C79 C -0.23902 0.78700 -0.55217
 C80 C -0.21857 0.81636 -0.55454
 C81 C -0.20618 0.82924 -0.49970
 C82 C -0.21108 0.81290 -0.44404
 H83 H -0.25238 0.72150 -0.34287
 H84 H -0.22403 0.77383 -0.34490
 H85 H -0.29188 0.74160 -0.64050
 H86 H -0.25804 0.79081 -0.64442
 H87 H -0.31257 0.65561 -0.48894
 H88 H -0.19017 0.85134 -0.50029
 N89 N 0.03879 1.05924 -0.06152
 N90 N 0.06320 1.08134 -0.07316
 N91 N -0.03307 1.03657 -0.10449
 N92 N -0.05624 1.04261 -0.14635
 N93 N -0.03318 1.06012 -0.06342
 N94 N -0.05616 1.08311 -0.07681
 N95 N 0.03919 1.03562 -0.10244
 N96 N 0.06406 1.04072 -0.14247
 C97 C 0.07903 1.06915 -0.12348
 C98 C -0.07065 1.07155 -0.12831
 N99 N -0.03471 0.94109 -0.06382
 N100 N -0.05770 0.91832 -0.07817
 N101 N 0.03821 0.96426 -0.10242
 N102 N 0.06229 0.95833 -0.14344
 N103 N 0.03708 0.94034 -0.06148
 N104 N 0.06000 0.91715 -0.07426
 N105 N -0.03412 0.96514 -0.10454
 N106 N -0.05708 0.95974 -0.14695
 Mn107 Mn 0.00255 1.00041 -0.10399
 C108 C -0.07180 0.93066 -0.12965
 C109 C 0.07590 0.92907 -0.12504
 N110 N -0.03519 1.05965 0.06835
 N111 N -0.05885 1.08228 0.08065
 N112 N 0.03559 1.03529 0.11174
 N113 N 0.05577 1.04273 0.15738
 N114 N 0.03704 1.05868 0.06974
 N115 N 0.05863 1.08243 0.08560
 N116 N -0.03637 1.03551 0.10884
 N117 N -0.06100 1.04070 0.14904
 Mn118 Mn 0.00187 1.05982 0.00327
 C119 C -0.07503 1.06976 0.13079
 C120 C 0.07057 1.07175 0.13992
 N121 N 0.03505 0.93992 0.07026
 N122 N 0.05808 0.91700 0.08380
 N123 N -0.03723 0.96428 0.10882
 N124 N -0.06216 0.95924 0.14874
 N125 N -0.03694 0.94076 0.06774
 N126 N -0.06152 0.91879 0.07914
 N127 N 0.03505 0.96366 0.11100
 N128 N 0.05837 0.95785 0.15268
 Mn129 Mn 0.00012 0.94013 0.00321
 Mn130 Mn -0.00072 0.99965 0.11053
 Cl131 Cl 0.00098 1.00001 0.00324
 C132 C 0.07273 0.92883 0.13495
 C133 C -0.07731 0.93095 0.12954
 N134 N 0.46433 0.46331 0.10696
 N135 N 0.43954 0.45812 0.14710
 N136 N 0.53675 0.43901 0.06852
 N137 N 0.56003 0.41628 0.08175
 N138 N 0.53662 0.46269 0.10938
 N139 N 0.56016 0.45708 0.15078
 N140 N 0.46477 0.43969 0.06604
 N141 N 0.44039 0.41754 0.07779
 C142 C 0.42459 0.42967 0.12822
 C143 C 0.57471 0.42820 0.13280
 N144 N 0.53978 0.46342 -0.10425
 N145 N 0.56397 0.45789 -0.14516
 N146 N 0.46701 0.44013 -0.06554
 N147 N 0.44388 0.41746 -0.07967
 N148 N 0.46750 0.46424 -0.10613
 N149 N 0.44437 0.45898 -0.14828
 N150 N 0.53888 0.43942 -0.06345
 N151 N 0.56217 0.41653 -0.07633
 Mn152 Mn 0.50187 0.43915 0.00143
 C153 C 0.57796 0.42877 -0.12704
 C154 C 0.42963 0.42990 -0.13093
 N155 N 0.53718 0.53431 0.11026
 N156 N 0.55716 0.54179 0.15615
 N157 N 0.46668 0.55877 0.06638
 N158 N 0.44339 0.58173 0.07857
 N159 N 0.46517 0.53468 0.10694
 N160 N 0.44061 0.54027 0.14717
 N161 N 0.53882 0.55764 0.06819
 N162 N 0.56033 0.58142 0.08429
 Mn163 Mn 0.50082 0.49870 0.10884
 C164 C 0.57203 0.57080 0.13883
 C165 C 0.42703 0.56952 0.12868
 N166 N 0.46865 0.53570 -0.10614
 N167 N 0.44572 0.54196 -0.14829
 N168 N 0.54065 0.55815 -0.06306
 N169 N 0.56529 0.58004 -0.07433
 N170 N 0.54090 0.53463 -0.10415
 N171 N 0.56592 0.53957 -0.14394
 N172 N 0.46867 0.55929 -0.06516
 N173 N 0.44595 0.58248 -0.07884
 Mn174 Mn 0.50418 0.49950 -0.10566
 Mn175 Mn 0.50373 0.55884 0.00157
 Cl176 Cl 0.50266 0.49905 0.00156
 C177 C 0.43151 0.57103 -0.13049
 C178 C 0.58110 0.56782 -0.12461
 C179 C 0.32913 0.36171 0.29011
 C180 C 0.31479 0.38115 0.33732
 C181 C 0.29728 0.36583 0.38598
 C182 C 0.29415 0.33098 0.38992
 C183 C 0.30701 0.31188 0.34135
 C184 C 0.32409 0.32698 0.29209
 C185 C 0.35084 0.37889 0.24246
 C186 C 0.36758 0.36189 0.19467
 C187 C 0.39039 0.37865 0.15544
 C188 C 0.39701 0.41264 0.16304
 C189 C 0.37895 0.43012 0.20799
 C190 C 0.35613 0.41362 0.24762
 C191 C 0.31934 0.41570 0.33748
 C192 C 0.33967 0.43158 0.29371
 H193 H 0.30800 0.43061 0.37330
 H194 H 0.34335 0.45824 0.29706
 H195 H 0.28677 0.38118 0.42201
 H196 H 0.30613 0.28496 0.34326
 H197 H 0.40389 0.36471 0.12071
 H198 H 0.38355 0.45654 0.21357
 H199 H 0.33439 0.31088 0.25742
 H200 H 0.36413 0.33556 0.18781
 C201 C -0.17295 0.86294 0.29059
 C202 C -0.18722 0.88225 0.33805
 C203 C -0.20456 0.86678 0.38672
 C204 C -0.20749 0.83191 0.39047
 C205 C -0.19469 0.81295 0.34167
 C206 C -0.17785 0.82820 0.29236
 C207 C -0.15134 0.88023 0.24299
 C208 C -0.13474 0.86333 0.19495
 C209 C -0.11186 0.88012 0.15595
 C210 C -0.10505 0.91403 0.16401
 C211 C -0.12307 0.93146 0.20909
 C212 C -0.14596 0.91493 0.24851
 C213 C -0.18269 0.91681 0.33846
 C214 C -0.16237 0.93278 0.29479
 H215 H -0.19397 0.93162 0.37447
 H216 H -0.15864 0.95943 0.29839
 H217 H -0.21503 0.88202 0.42294
 H218 H -0.19539 0.78603 0.34344
 H219 H -0.09842 0.86624 0.12106
 H220 H -0.11833 0.95784 0.21496
 H221 H -0.16757 0.81219 0.25754
 H222 H -0.13832 0.83705 0.18774
 C223 C 0.64934 0.64911 0.31050
 C224 C 0.63472 0.65189 0.36932
 C225 C 0.65187 0.66937 0.41454
 C226 C 0.68479 0.68295 0.40431
 C227 C 0.69973 0.67937 0.34615
 C228 C 0.68208 0.66312 0.29963
 C229 C 0.62985 0.62997 0.26363
 C230 C 0.63998 0.62825 0.20189
 C231 C 0.62094 0.60946 0.16059
 C232 C 0.59212 0.59141 0.18049
 C233 C 0.58157 0.59343 0.24128
 C234 C 0.59952 0.61315 0.28237
 C235 C 0.60361 0.63613 0.38380
 C236 C 0.58683 0.61650 0.34169
 H237 H 0.59259 0.63814 0.42909
 H238 H 0.56331 0.60405 0.35564
 H239 H 0.63953 0.67204 0.45869
 H240 H 0.72573 0.68776 0.33720
 H241 H 0.62909 0.60849 0.11340
 H242 H 0.55866 0.58021 0.25630
 H243 H 0.69497 0.66061 0.25624
 H244 H 0.66220 0.64151 0.18475
 C245 C 0.14828 1.14993 0.31100
 C246 C 0.13339 1.15339 0.36948
 C247 C 0.15065 1.17082 0.41460
 C248 C 0.18390 1.18367 0.40466
 C249 C 0.19909 1.17941 0.34686
 C250 C 0.18136 1.16321 0.30040
 C251 C 0.12867 1.13084 0.26424
 C252 C 0.13911 1.12853 0.20273
 C253 C 0.11997 1.10978 0.16155
 C254 C 0.09074 1.09235 0.18139
 C255 C 0.07986 1.09498 0.24190
 C256 C 0.09793 1.11469 0.28283
 C257 C 0.10190 1.13831 0.38377
 C258 C 0.08497 1.11869 0.34183
 H259 H 0.09067 1.14083 0.42881
 H260 H 0.06115 1.10675 0.35563
 H261 H 0.13815 1.17401 0.45849
 H262 H 0.22531 1.18721 0.33821
 H263 H 0.12835 1.10832 0.11453
 H264 H 0.05665 1.08225 0.25679
 H265 H 0.19444 1.16015 0.25731
 H266 H 0.16165 1.14129 0.18567
 C267 C 0.66887 0.36115 -0.29453
 C268 C 0.66595 0.32611 -0.29765
 C269 C 0.68208 0.30869 -0.34529
 C270 C 0.70146 0.32566 -0.39023
 C271 C 0.70505 0.36036 -0.38538
 C272 C 0.68938 0.37778 -0.33820
 C273 C 0.64858 0.37919 -0.24677
 C274 C 0.64761 0.41417 -0.24342
 C275 C 0.62561 0.42995 -0.20254
 C276 C 0.60448 0.41142 -0.16307
 C277 C 0.60658 0.37659 -0.16331
 C278 C 0.62797 0.36035 -0.20569
 C279 C 0.64595 0.30883 -0.25446
 C280 C 0.62759 0.32556 -0.20922
 H281 H 0.64395 0.28196 -0.25633
 H282 H 0.61197 0.31106 -0.17771
 H283 H 0.67768 0.28215 -0.34941
 H284 H 0.72010 0.37423 -0.41867
 H285 H 0.62452 0.45688 -0.20280
 H286 H 0.59004 0.36214 -0.13320
 H287 H 0.69320 0.40433 -0.33765
 H288 H 0.66268 0.42992 -0.27323
 C289 C 0.16573 0.85812 -0.28960
 C290 C 0.15905 0.82374 -0.29671
 C291 C 0.17460 0.80619 -0.34468
 C292 C 0.19750 0.82230 -0.38478
 C293 C 0.20573 0.85578 -0.37524
 C294 C 0.19020 0.87350 -0.32818
 C295 C 0.14542 0.87690 -0.24292
 C296 C 0.14657 0.91185 -0.23844
 C297 C 0.12470 0.92853 -0.19846
 C298 C 0.10176 0.91086 -0.16094
 C299 C 0.10139 0.87601 -0.16285
 C300 C 0.12231 0.85898 -0.20477
 C301 C 0.13626 0.80735 -0.25691
 C302 C 0.11876 0.82449 -0.21120
 H303 H 0.13156 0.78091 -0.26162
 H304 H 0.10109 0.81074 -0.18208
 H305 H 0.16802 0.78033 -0.35221
 H306 H 0.22348 0.86853 -0.40569
 H307 H 0.12524 0.95548 -0.19771
 H308 H 0.08318 0.86229 -0.13467
 H309 H 0.19728 0.89930 -0.32356
 H310 H 0.16311 0.92689 -0.26706
 C311 C 0.34276 0.64270 -0.29532
 C312 C 0.32562 0.62347 -0.33929
 C313 C 0.30746 0.63911 -0.38610
 C314 C 0.30649 0.67402 -0.39160
 C315 C 0.32366 0.69300 -0.34777
 C316 C 0.34121 0.67765 -0.30006
 C317 C 0.36339 0.62486 -0.24792
 C318 C 0.38090 0.64142 -0.20109
 C319 C 0.40194 0.62375 -0.16110
 C320 C 0.40612 0.58931 -0.16712
 C321 C 0.38747 0.57242 -0.21144
 C322 C 0.36605 0.58979 -0.25139
 C323 C 0.32776 0.58871 -0.33794
 C324 C 0.34788 0.57225 -0.29540
 H325 H 0.31454 0.57400 -0.37155
 H326 H 0.34955 0.54536 -0.29746
 H327 H 0.29427 0.62388 -0.41907
 H328 H 0.32516 0.71983 -0.35205
 H329 H 0.41591 0.63725 -0.12680
 H330 H 0.39012 0.54567 -0.21563
 H331 H 0.35449 0.69358 -0.26879
 H332 H 0.37907 0.66797 -0.19514
 C333 C -0.16035 1.14224 -0.29252
 C334 C -0.17923 1.12272 -0.33373
 C335 C -0.19779 1.13801 -0.38045
 C336 C -0.19718 1.17279 -0.38892
 C337 C -0.17799 1.19199 -0.34809
 C338 C -0.16024 1.17706 -0.30025
 C339 C -0.13951 1.12473 -0.24506
 C340 C -0.12087 1.14169 -0.20016
 C341 C -0.09961 1.12425 -0.16025
 C342 C -0.09631 1.08964 -0.16454
 C343 C -0.11616 1.07239 -0.20674
 C344 C -0.13793 1.08956 -0.24639
 C345 C -0.17828 1.08794 -0.32996
 C346 C -0.15763 1.07171 -0.28789
 H347 H -0.19277 1.07299 -0.36152
 H348 H -0.15684 1.04476 -0.28822
 H349 H -0.21239 1.12261 -0.41119
 H350 H -0.17508 1.21856 -0.35495
 H351 H -0.08474 1.13801 -0.12751
 H352 H -0.11422 1.04552 -0.20939
 H353 H -0.14540 1.19311 -0.27147
 H354 H -0.12201 1.16837 -0.19563
 C355 C 0.67538 0.63666 -0.28592
 C356 C 0.67421 0.67185 -0.28537
 C357 C 0.68946 0.69029 -0.33307
 C358 C 0.70578 0.67414 -0.38204
 C359 C 0.70859 0.63928 -0.38006
 C360 C 0.69402 0.62084 -0.33258
 C361 C 0.65475 0.61777 -0.23927
 C362 C 0.65130 0.58287 -0.24027
 C363 C 0.62837 0.56672 -0.20101
 C364 C 0.60879 0.58475 -0.15896
 C365 C 0.61359 0.61923 -0.15461
 C366 C 0.63586 0.63594 -0.19530
 C367 C 0.65631 0.68832 -0.23895
 C368 C 0.63778 0.67074 -0.19457
 H369 H 0.65580 0.71527 -0.23791
 H370 H 0.62357 0.68469 -0.16067
 H371 H 0.68603 0.71705 -0.33448
 H372 H 0.72159 0.62610 -0.41641
 H373 H 0.62526 0.54002 -0.20470
 H374 H 0.59834 0.63332 -0.12234
 H375 H 0.69678 0.59420 -0.33453
 H376 H 0.66497 0.56762 -0.27249
 C377 C 0.17322 1.13793 -0.28540
 C378 C 0.17211 1.17312 -0.28506
 C379 C 0.18761 1.19148 -0.33268
 C380 C 0.20406 1.17522 -0.38139
 C381 C 0.20673 1.14035 -0.37924
 C382 C 0.19196 1.12201 -0.33182
 C383 C 0.15249 1.11913 -0.23873
 C384 C 0.14916 1.08422 -0.23935
 C385 C 0.12626 1.06810 -0.19996
 C386 C 0.10657 1.08618 -0.15813
 C387 C 0.11120 1.12071 -0.15423
 C388 C 0.13347 1.13738 -0.19504
 C389 C 0.15404 1.18969 -0.23895
 C390 C 0.13535 1.17219 -0.19462
 H391 H 0.15353 1.21664 -0.23808
 H392 H 0.12104 1.18620 -0.16096
 H393 H 0.18431 1.21826 -0.33425
 H394 H 0.21978 1.12708 -0.41542
 H395 H 0.12330 1.04137 -0.20333
 H396 H 0.09586 1.13485 -0.12215
 H397 H 0.19463 1.09536 -0.33366
 H398 H 0.16294 1.06890 -0.27132
 C399 C 0.33940 0.36249 -0.29691
 C400 C 0.34669 0.32862 -0.30853
 C401 C 0.32997 0.31207 -0.35588
 C402 C 0.30482 0.32839 -0.39010
 C403 C 0.29630 0.36133 -0.37618
 C404 C 0.31327 0.37823 -0.33021
 C405 C 0.36037 0.38029 -0.25059
 C406 C 0.35879 0.41502 -0.24257
 C407 C 0.38076 0.43086 -0.20230
 C408 C 0.40413 0.41246 -0.16791
 C409 C 0.40525 0.37779 -0.17388
 C410 C 0.38434 0.36173 -0.21634
 C411 C 0.37080 0.31164 -0.27322
 C412 C 0.38865 0.32767 -0.22717
 H413 H 0.37599 0.28556 -0.28135
 H414 H 0.40711 0.31346 -0.20125
 H415 H 0.33688 0.28667 -0.36690
 H416 H 0.27688 0.37426 -0.40208
 H417 H 0.37982 0.45771 -0.19860
 H418 H 0.42395 0.36362 -0.14838
 H419 H 0.30572 0.40359 -0.32178
 H420 H 0.34178 0.43056 -0.26860
 C421 C -0.16136 0.86290 -0.29643
 C422 C -0.15365 0.82917 -0.30862
 C423 C -0.17030 0.81261 -0.35605
 C424 C -0.19583 0.82872 -0.38972
 C425 C -0.20474 0.86149 -0.37522
 C426 C -0.18782 0.87843 -0.32922
 C427 C -0.14052 0.88076 -0.24998
 C428 C -0.14251 0.91543 -0.24145
 C429 C -0.12070 0.93135 -0.20100
 C430 C -0.09709 0.91308 -0.16691
 C431 C -0.09552 0.87846 -0.17345
 C432 C -0.11625 0.86234 -0.21613
 C433 C -0.12921 0.81236 -0.27376
 C434 C -0.11150 0.82839 -0.22754
 H435 H -0.12369 0.78638 -0.28232
 H436 H -0.09280 0.81429 -0.20194
 H437 H -0.16305 0.78736 -0.36752
 H438 H -0.22445 0.87428 -0.40068
 H439 H -0.12197 0.95817 -0.19689
 H440 H -0.07661 0.86440 -0.14823
 H441 H -0.19569 0.90365 -0.32033
 H442 H -0.15974 0.93088 -0.26722
 C443 C 0.33499 0.63845 0.29215
 C444 C 0.34111 0.67289 0.29986
 C445 C 0.32518 0.68996 0.34800
 C446 C 0.30251 0.67332 0.38780
 C447 C 0.29485 0.63977 0.37772
 C448 C 0.31071 0.62251 0.33040
 C449 C 0.35575 0.62021 0.24535
 C450 C 0.35506 0.58529 0.24014
 C451 C 0.37746 0.56910 0.20039
 C452 C 0.40049 0.58726 0.16382
 C453 C 0.40032 0.62209 0.16624
 C454 C 0.37883 0.63862 0.20793
 C455 C 0.36379 0.68980 0.26060
 C456 C 0.38180 0.67313 0.21494
 H457 H 0.36805 0.71628 0.26580
 H458 H 0.39943 0.68726 0.18634
 H459 H 0.33135 0.71587 0.35598
 H460 H 0.27731 0.62660 0.40795
 H461 H 0.37729 0.54216 0.19918
 H462 H 0.41856 0.63617 0.13875
 H463 H 0.30409 0.59663 0.32539
 H464 H 0.33850 0.56988 0.26806
 C465 C -0.16805 1.13548 0.29705
 C466 C -0.16563 1.17053 0.30069
 C467 C -0.18210 1.18753 0.34846
 C468 C -0.20124 1.17012 0.39318
 C469 C -0.20436 1.13540 0.38780
 C470 C -0.18839 1.11840 0.34039
 C471 C -0.14733 1.11793 0.24925
 C472 C -0.14595 1.08299 0.24525
 C473 C -0.12344 1.06768 0.20465
 C474 C -0.10218 1.08665 0.16608
 C475 C -0.10476 1.12144 0.16676
 C476 C -0.12670 1.13721 0.20887
 C477 C -0.14570 1.18827 0.25801
 C478 C -0.12684 1.17198 0.21288
 H479 H -0.14409 1.21515 0.26031
 H480 H -0.11124 1.18682 0.18187
 H481 H -0.17808 1.21410 0.35294
 H482 H -0.21922 1.12120 0.42089
 H483 H -0.12202 1.04076 0.20450
 H484 H -0.08816 1.13622 0.13731
 H485 H -0.19180 1.09180 0.33948
 H486 H -0.16108 1.06692 0.27439
 C487 C 0.66668 0.35949 0.29539
 C488 C 0.66025 0.32518 0.30506
 C489 C 0.67661 0.30816 0.35260
 C490 C 0.70037 0.32458 0.38941
 C491 C 0.70838 0.35796 0.37708
 C492 C 0.69186 0.37525 0.33064
 C493 C 0.64554 0.37773 0.24948
 C494 C 0.64614 0.41266 0.24338
 C495 C 0.62372 0.42880 0.20401
 C496 C 0.60081 0.41059 0.16862
 C497 C 0.60082 0.37577 0.17240
 C498 C 0.62222 0.35930 0.21391
 C499 C 0.63702 0.30830 0.26808
 C500 C 0.61896 0.32487 0.22259
 H501 H 0.63252 0.28190 0.27470
 H502 H 0.60108 0.31073 0.19555
 H503 H 0.67007 0.28242 0.36231
 H504 H 0.72676 0.37099 0.40489
 H505 H 0.62389 0.45574 0.20189
 H506 H 0.58257 0.36166 0.14602
 H507 H 0.69881 0.40099 0.32373
 H508 H 0.66270 0.42806 0.27032
 C509 C 0.16340 0.85917 0.29871
 C510 C 0.15797 0.82451 0.30558
 C511 C 0.17409 0.80696 0.35281
 C512 C 0.19639 0.82335 0.39237
 C513 C 0.20334 0.85722 0.38306
 C514 C 0.18721 0.87495 0.33678
 C515 C 0.14264 0.87774 0.25265
 C516 C 0.14259 0.91274 0.24840
 C517 C 0.12053 0.92908 0.20868
 C518 C 0.09857 0.91105 0.17118
 C519 C 0.09929 0.87618 0.17307
 C520 C 0.12043 0.85945 0.21471
 C521 C 0.13592 0.80779 0.26617
 C522 C 0.11805 0.82480 0.22098
 H523 H 0.13218 0.78116 0.27071
 H524 H 0.10105 0.81076 0.19207
 H525 H 0.16846 0.78080 0.36013
 H526 H 0.22063 0.87022 0.41301
 H527 H 0.12023 0.95604 0.20797
 H528 H 0.08184 0.86216 0.14493
 H529 H 0.19334 0.90102 0.33228
 H530 H 0.15837 0.92803 0.27693
   
