data_POSCAR
  _audit_creation_date              2014-09-24
  _audit_creation_method            'ToBaCCo'
  _symmetry_space_group_name_H-M    'P1'
  _symmetry_Int_Tables_number       1
  _symmetry_cell_setting            triclinic
  loop_
  _symmetry_equiv_pos_as_xyz
 x,y,z
_cell_length_a 30.5987
_cell_length_b 30.5849
_cell_length_c 30.5849
_cell_angle_alpha 90.099800
_cell_angle_beta 90.142400
_cell_angle_gamma 89.881900
loop_
  _atom_site_label
  _atom_site_type_symbol
  _atom_site_fract_x
  _atom_site_fract_y
  _atom_site_fract_z
N1 N 0.18353 0.18556 0.18254
 N2 N -0.18044 0.81747 0.18452
 N3 N -0.18625 0.18105 -0.18322
 N4 N 0.18360 0.81555 -0.18331
 N5 N 0.18400 1.18207 0.82001
 N6 N 0.81642 0.81896 0.81422
 N7 N 0.18136 0.81516 1.18274
 N8 N 0.81688 1.18377 1.18325
 O9 O 0.43807 0.91755 0.92678
 O10 O 0.39019 0.95974 0.96646
 C11 C 0.39900 0.92935 0.93829
 O12 O 0.56166 0.92177 1.08249
 O13 O 0.60924 0.96143 1.04028
 C14 C 0.60066 0.93327 1.07061
 O15 O 0.43865 0.91779 1.07878
 O16 O 0.39047 0.95973 1.03908
 C17 C 0.39946 0.92946 1.06727
 O18 O 0.56090 0.92166 0.92242
 O19 O 0.60892 0.96140 0.96441
 C20 C 0.60002 0.93327 0.93400
 Zr21 Zr 0.49953 0.94213 0.94748
 O22 O 0.50468 0.87308 0.94825
 O23 O 0.49432 0.94160 0.87845
 Zr24 Zr 0.50003 0.94243 1.05801
 O25 O 0.50506 0.87338 1.05781
 O26 O 0.49548 0.94280 1.12707
 O27 O 0.46080 0.93378 1.00282
 O28 O 0.53778 0.93436 1.00264
 O29 O 0.56042 1.07346 0.92246
 O30 O 0.60870 1.03395 0.96446
 C31 C 0.59961 1.06200 0.93409
 O32 O 0.43853 1.07781 1.07892
 O33 O 0.39052 1.03506 1.04003
 C34 C 0.39942 1.06576 1.06783
 O35 O 0.56132 1.07398 1.08239
 O36 O 0.60911 1.03415 1.04027
 C37 C 0.60039 1.06247 1.07055
 O38 O 0.43759 1.07747 0.92675
 O39 O 0.38995 1.03558 0.96664
 C40 C 0.39857 1.06582 0.93839
 Zr41 Zr 0.49919 1.05287 0.94733
 O42 O 0.50396 1.12192 0.94760
 O43 O 0.49393 1.05262 0.87830
 Zr44 Zr 0.49981 1.05308 1.05797
 O45 O 0.50451 1.12213 1.05779
 O46 O 0.49531 1.05284 1.12703
 Zr47 Zr 0.43468 0.99766 1.00277
 Zr48 Zr 0.56456 0.99769 1.00250
 O49 O 0.53740 1.06096 1.00254
 O50 O 0.46049 1.06153 1.00275
 O51 O 0.53821 0.99751 0.93873
 O52 O 0.46204 0.99775 1.06601
 O53 O 0.46144 0.99747 0.93946
 O54 O 0.53892 0.99779 1.06644
 H55 H 0.55770 0.90878 1.00255
 H56 H 0.44242 0.99772 1.09173
 H57 H 0.55715 1.08659 1.00246
 H58 H 0.44152 0.99744 0.91387
 H59 H 0.51999 0.96057 1.13841
 H60 H 0.52006 1.03533 1.13836
 H61 H 0.48001 1.13350 1.03995
 H62 H 0.47942 1.13337 0.96525
 H63 H 0.51833 1.03477 0.86680
 H64 H 0.51802 0.96020 0.86690
 H65 H 0.47974 0.86173 0.96529
 H66 H 0.48056 0.86194 1.04006
 O67 O -0.08234 0.43873 0.07299
 O68 O -0.04054 0.39045 0.03334
 C69 C -0.07069 0.39951 0.06159
 O70 O -0.07918 0.56102 -0.08326
 O71 O -0.03976 0.60896 -0.04091
 C72 C -0.06789 0.60015 -0.07134
 O73 O -0.08294 0.43806 -0.07889
 O74 O -0.04073 0.39011 -0.03917
 C75 C -0.07119 0.39895 -0.06728
 O76 O -0.07806 0.56178 0.07664
 O77 O -0.03857 0.60946 0.03432
 C78 C -0.06652 0.60081 0.06481
 Zr79 Zr -0.05781 0.50008 0.05200
 O80 O -0.12683 0.50522 0.05152
 O81 O -0.05784 0.49554 0.12106
 Zr82 Zr -0.05820 0.49965 -0.05851
 O83 O -0.12722 0.50466 -0.05824
 O84 O -0.05821 0.49449 -0.12755
 O85 O -0.06652 0.46088 -0.00314
 O86 O -0.06589 0.53785 -0.00332
 O87 O 0.07349 0.56129 0.07648
 O88 O 0.03382 0.60923 0.03427
 C89 C 0.06202 0.60041 0.06466
 O90 O 0.07697 0.43763 -0.07938
 O91 O 0.03439 0.39003 -0.04018
 C92 C 0.06492 0.39860 -0.06810
 O93 O 0.07355 0.56037 -0.08331
 O94 O 0.03461 0.60864 -0.04090
 C95 C 0.06251 0.59956 -0.07135
 O96 O 0.07727 0.43845 0.07324
 O97 O 0.03466 0.39043 0.03421
 C98 C 0.06519 0.39933 0.06220
 Zr99 Zr 0.05269 0.49972 0.05206
 O100 O 0.12172 0.50433 0.05186
 O101 O 0.05259 0.49525 0.12113
 Zr102 Zr 0.05244 0.49920 -0.05866
 O103 O 0.12147 0.50370 -0.05864
 O104 O 0.05168 0.49411 -0.12771
 Zr105 Zr -0.00269 0.43465 -0.00310
 Zr106 Zr -0.00258 0.56466 -0.00353
 O107 O 0.06061 0.53731 -0.00339
 O108 O 0.06115 0.46040 -0.00318
 O109 O -0.00248 0.53891 0.06042
 O110 O -0.00298 0.46148 -0.06644
 O111 O -0.00259 0.46202 0.06010
 O112 O -0.00284 0.53843 -0.06732
 H113 H -0.09154 0.55768 -0.00324
 H114 H -0.00317 0.44162 -0.09207
 H115 H 0.08634 0.55691 -0.00333
 H116 H -0.00264 0.44246 0.08590
 H117 H -0.04050 0.51891 -0.13902
 H118 H 0.03432 0.51893 -0.13909
 H119 H 0.13286 0.47945 -0.04052
 H120 H 0.13305 0.47969 0.03421
 H121 H 0.03509 0.52001 0.13246
 H122 H -0.03946 0.51957 0.13245
 H123 H -0.13831 0.48028 0.03441
 H124 H -0.13856 0.48033 -0.04032
 O125 O 1.08318 -0.07331 0.56169
 O126 O 1.04100 -0.03383 0.60974
 C127 C 1.07131 -0.06204 0.60083
 O128 O 1.07920 0.08323 0.43962
 O129 O 1.03960 0.04133 0.39135
 C130 C 1.06776 0.07157 0.40041
 O131 O 1.08298 0.07885 0.56266
 O132 O 1.04102 0.03885 0.61022
 C133 C 1.07126 0.06712 0.60169
 O134 O 1.07939 -0.07676 0.43874
 O135 O 1.03967 -0.03451 0.39090
 C136 C 1.06785 -0.06492 0.39964
 Zr137 Zr 1.05877 -0.05212 0.50027
 O138 O 1.12779 -0.05129 0.49561
 O139 O 1.05929 -0.12118 0.50470
 Zr140 Zr 1.05845 0.05841 0.50091
 O141 O 1.12748 0.05820 0.49630
 O142 O 1.05809 0.12744 0.50613
 O143 O 1.06706 0.00298 0.53964
 O144 O 1.06657 0.00327 0.46262
 O145 O 0.92744 -0.07664 0.43837
 O146 O 0.96704 -0.03443 0.39072
 C147 C 0.93890 -0.06475 0.39936
 O148 O 0.92307 0.07900 0.56187
 O149 O 0.96574 0.03980 0.60976
 C150 C 0.93508 0.06768 0.60096
 O151 O 0.92698 0.08314 0.43908
 O152 O 0.96689 0.04134 0.39107
 C153 C 0.93852 0.07153 0.39994
 O154 O 0.92347 -0.07326 0.56123
 O155 O 0.96526 -0.03363 0.60954
 C156 C 0.93509 -0.06187 0.60045
 Zr157 Zr 0.94808 -0.05224 0.49998
 O158 O 0.87906 -0.05195 0.49490
 O159 O 0.94840 -0.12131 0.50445
 Zr160 Zr 0.94786 0.05840 0.50049
 O161 O 0.87885 0.05833 0.49544
 O162 O 0.94816 0.12744 0.50567
 Zr163 Zr 1.00318 0.00280 0.56540
 Zr164 Zr 1.00330 0.00330 0.43546
 O165 O 0.94003 0.00320 0.46228
 O166 O 0.93937 0.00295 0.53921
 O167 O 1.00346 -0.06062 0.46115
 O168 O 1.00311 0.06619 0.53868
 O169 O 1.00341 -0.06035 0.53798
 O170 O 1.00317 0.06708 0.46176
 H171 H 1.09217 0.00330 0.44286
 H172 H 1.00312 0.09180 0.55856
 H173 H 0.91441 0.00326 0.44241
 H174 H 1.00341 -0.08608 0.55761
 H175 H 1.04032 0.13892 0.48163
 H176 H 0.96558 0.13889 0.48103
 H177 H 0.86746 0.04026 0.51964
 H178 H 0.86761 -0.03444 0.51957
 H179 H 0.96616 -0.13263 0.47993
 H180 H 1.04074 -0.13256 0.48074
 H181 H 1.13908 -0.03450 0.52087
 H182 H 1.13888 0.04031 0.52072
 C183 C 1.12590 0.12918 0.29563
 C184 C 1.12966 0.17465 0.29220
 C185 C 1.14886 0.19318 0.25518
 C186 C 1.16447 0.16642 0.22118
 C187 C 1.16070 0.12078 0.22501
 C188 C 1.14153 0.10231 0.26202
 C189 C 1.10553 0.10992 0.33326
 C190 C 1.08833 0.09294 0.36428
 H191 H 1.11767 0.19573 0.31803
 H192 H 1.15165 0.22840 0.25301
 H193 H 1.17210 0.09954 0.19906
 H194 H 1.13865 0.06708 0.26429
 C195 C 0.88004 -0.12349 0.29515
 C196 C 0.87592 -0.16901 0.29287
 C197 C 0.85583 -0.18841 0.25664
 C198 C 0.83967 -0.16247 0.22228
 C199 C 0.84387 -0.11678 0.22491
 C200 C 0.86393 -0.09743 0.26115
 C201 C 0.90092 -0.10342 0.33222
 C202 C 0.91835 -0.08609 0.36304
 H203 H 0.88824 -0.18946 0.31905
 H204 H 0.85273 -0.22365 0.25538
 H205 H 0.83203 -0.09619 0.19865
 H206 H 0.86704 -0.06217 0.26257
 C207 C 0.87476 0.12444 0.70531
 C208 C 0.90025 0.14038 0.73987
 C209 C 0.88025 0.15913 0.77640
 C210 C 0.83446 0.16217 0.77878
 C211 C 0.80910 0.14620 0.74386
 C212 C 0.82916 0.12743 0.70734
 C213 C 0.89550 0.10463 0.66806
 C214 C 0.91331 0.08785 0.63719
 H215 H 0.93557 0.13810 0.73868
 H216 H 0.90041 0.17085 0.80307
 H217 H 0.77380 0.14844 0.74491
 H218 H 0.80914 0.11519 0.68075
 C219 C 1.12943 -0.12170 0.70490
 C220 C 1.13263 -0.16734 0.70623
 C221 C 1.15065 -0.18796 0.74284
 C222 C 1.16562 -0.16314 0.77856
 C223 C 1.16247 -0.11729 0.77685
 C224 C 1.14446 -0.09672 0.74022
 C225 C 1.10974 -0.10057 0.66777
 C226 C 1.09260 -0.08291 0.63699
 H227 H 1.12102 -0.18697 0.67908
 H228 H 1.15302 -0.22328 0.74336
 H229 H 1.17344 -0.09753 0.80413
 H230 H 1.14194 -0.06138 0.73959
 C231 C 0.29527 1.12649 1.12448
 C232 C 0.29311 1.13158 1.16991
 C233 C 0.25651 1.15119 1.18900
 C234 C 0.22164 1.16588 1.16282
 C235 C 0.22417 1.16076 1.11720
 C236 C 0.26078 1.14118 1.09816
 C237 C 0.33247 1.10553 1.10483
 C238 C 0.36328 1.08759 1.08808
 H239 H 0.31963 1.12029 1.19056
 H240 H 0.25535 1.15503 1.22417
 H241 H 0.19753 1.17146 1.09642
 H242 H 0.26206 1.13724 1.06297
 C243 C 0.29516 0.87024 0.87932
 C244 C 0.29365 0.86694 0.83369
 C245 C 0.25717 0.84863 0.81313
 C246 C 0.22175 0.83346 0.83800
 C247 C 0.22368 0.83661 0.88384
 C248 C 0.26018 0.85492 0.90436
 C249 C 0.33211 0.89035 0.90033
 C250 C 0.36282 0.90781 0.91776
 H251 H 0.32053 0.87876 0.81401
 H252 H 0.25649 0.84628 0.77781
 H253 H 0.19661 0.82548 0.90362
 H254 H 0.26096 0.85749 0.93970
 C255 C 0.70614 0.87532 1.12808
 C256 C 0.73972 0.85971 1.10123
 C257 C 0.77685 0.84050 1.11973
 C258 C 0.78084 0.83666 1.16537
 C259 C 0.74688 0.85227 1.19211
 C260 C 0.70974 0.87151 1.17355
 C261 C 0.66831 0.89565 1.10880
 C262 C 0.63710 0.91279 1.09186
 H263 H 0.73731 0.86261 1.06600
 H264 H 0.80276 0.82909 1.09851
 H265 H 0.74916 0.84943 1.22732
 H266 H 0.68392 0.88349 1.19462
 C267 C 0.70295 1.11999 0.87389
 C268 C 0.70434 1.16553 0.86973
 C269 C 0.74060 1.18559 0.85071
 C270 C 0.77591 1.16028 0.83566
 C271 C 0.77413 1.11453 0.83974
 C272 C 0.73785 1.09452 0.85876
 C273 C 0.66615 1.09947 0.89450
 C274 C 0.63559 1.08232 0.91228
 H275 H 0.67751 1.18554 0.88138
 H276 H 0.74117 1.22084 0.84764
 H277 H 0.80112 1.09442 0.82874
 H278 H 0.73716 1.05925 0.86198
 C279 C 0.12409 0.29576 0.12187
 C280 C 0.16959 0.29363 0.12615
 C281 C 0.18912 0.25756 0.14634
 C282 C 0.16332 0.22321 0.16245
 C283 C 0.11763 0.22570 0.15813
 C284 C 0.09815 0.26178 0.13796
 C285 C 0.10390 0.33261 0.10076
 C286 C 0.08652 0.36324 0.08309
 H287 H 0.18994 0.31979 0.11384
 H288 H 0.22435 0.25640 0.14953
 H289 H 0.09715 0.19944 0.16991
 H290 H 0.06290 0.26308 0.13472
 C291 C -0.13098 0.29427 -0.12411
 C292 C -0.13489 0.29165 -0.16964
 C293 C -0.15338 0.25463 -0.18906
 C294 C -0.16811 0.21976 -0.16312
 C295 C -0.16432 0.22280 -0.11739
 C296 C -0.14585 0.25984 -0.09802
 C297 C -0.11065 0.33172 -0.10419
 C298 C -0.09301 0.36269 -0.08741
 H299 H -0.12342 0.31809 -0.19013
 H300 H -0.15622 0.25308 -0.22432
 H301 H -0.17509 0.19618 -0.09678
 H302 H -0.14279 0.26146 -0.06275
 C303 C 0.12166 0.70347 -0.12957
 C304 C 0.16727 0.70514 -0.13249
 C305 C 0.18762 0.74182 -0.15042
 C306 C 0.16255 0.77727 -0.16561
 C307 C 0.11674 0.77519 -0.16280
 C308 C 0.09644 0.73850 -0.14487
 C309 C 0.10079 0.66635 -0.10984
 C310 C 0.08330 0.63561 -0.09267
 H311 H 0.18710 0.67823 -0.12067
 H312 H 0.22293 0.74261 -0.15252
 H313 H 0.09679 0.80227 -0.17393
 H314 H 0.06112 0.73761 -0.14258
 C315 C -0.12254 0.70542 0.12557
 C316 C -0.16794 0.70780 0.13057
 C317 C -0.18697 0.74450 0.15013
 C318 C -0.16077 0.77926 0.16488
 C319 C -0.11518 0.77651 0.15986
 C320 C -0.09620 0.73980 0.14032
 C321 C -0.10299 0.66810 0.10464
 C322 C -0.08643 0.63716 0.08670
 H323 H -0.18862 0.68137 0.11923
 H324 H -0.22212 0.74583 0.15391
 H325 H -0.09438 0.80306 0.17061
 H326 H -0.06103 0.73835 0.13645
 C327 C 1.12997 0.12408 0.70723
 C328 C 1.14811 0.09793 0.74006
 C329 C 1.16630 0.11710 0.77740
 C330 C 1.16665 0.16305 0.78276
 C331 C 1.14839 0.18892 0.74904
 C332 C 1.13026 0.16957 0.71175
 C333 C 1.11006 0.10416 0.66944
 C334 C 1.09275 0.08733 0.63821
 H335 H 1.14776 0.06262 0.73705
 H336 H 1.17897 0.09586 0.80274
 H337 H 1.14879 0.22426 0.75120
 H338 H 1.11636 0.19015 0.68646
 C339 C 0.87588 -0.12085 0.70401
 C340 C 0.90180 -0.13708 0.73812
 C341 C 0.88232 -0.15703 0.77421
 C342 C 0.83662 -0.16100 0.77662
 C343 C 0.81082 -0.14472 0.74216
 C344 C 0.83036 -0.12476 0.70607
 C345 C 0.89611 -0.10000 0.66711
 C346 C 0.91357 -0.08255 0.63648
 H347 H 0.93706 -0.13414 0.73690
 H348 H 0.90283 -0.16894 0.80053
 H349 H 0.77558 -0.14765 0.74322
 H350 H 0.80999 -0.11234 0.67985
 C351 C 1.12486 -0.12465 0.29488
 C352 C 1.14088 -0.09888 0.26072
 C353 C 1.15964 -0.11861 0.22400
 C354 C 1.16261 -0.16440 0.22100
 C355 C 1.14660 -0.19004 0.25554
 C356 C 1.12782 -0.17026 0.29225
 C357 C 1.10495 -0.10420 0.33232
 C358 C 1.08810 -0.08658 0.36331
 H359 H 1.13864 -0.06356 0.26235
 H360 H 1.17137 -0.09820 0.19765
 H361 H 1.14878 -0.22534 0.25406
 H362 H 1.11554 -0.19052 0.31850
 C363 C 0.87925 0.12984 0.29557
 C364 C 0.90433 0.14498 0.26052
 C365 C 0.88390 0.16293 0.22375
 C366 C 0.83807 0.16595 0.22158
 C367 C 0.81314 0.15091 0.25704
 C368 C 0.83362 0.13294 0.29379
 C369 C 0.90025 0.11012 0.33282
 C370 C 0.91778 0.09293 0.36370
 H371 H 0.93966 0.14255 0.26146
 H372 H 0.90376 0.17395 0.19669
 H373 H 0.77783 0.15316 0.25621
 H374 H 0.81388 0.12127 0.32069
 C375 C 0.12460 0.29349 -0.12478
 C376 C 0.17008 0.28905 -0.12410
 C377 C 0.18989 0.25219 -0.14258
 C378 C 0.16452 0.21884 -0.16218
 C379 C 0.11859 0.22408 -0.16268
 C380 C 0.09895 0.26099 -0.14415
 C381 C 0.10411 0.33105 -0.10506
 C382 C 0.08650 0.36214 -0.08832
 H383 H 0.19027 0.31411 -0.10930
 H384 H 0.22522 0.25011 -0.14225
 H385 H 0.09770 0.19899 -0.17637
 H386 H 0.06366 0.26397 -0.14460
 C387 C -0.12901 0.29556 0.12087
 C388 C -0.13203 0.29405 0.16651
 C389 C -0.15006 0.25747 0.18699
 C390 C -0.16524 0.22193 0.16205
 C391 C -0.16230 0.22383 0.11621
 C392 C -0.14428 0.26043 0.09576
 C393 C -0.10925 0.33266 0.09987
 C394 C -0.09206 0.36341 0.08235
 H395 H -0.12025 0.32102 0.18625
 H396 H -0.15224 0.25684 0.22231
 H397 H -0.17343 0.19670 0.09634
 H398 H -0.14192 0.26117 0.06043
 C399 C -0.12604 0.70547 -0.12905
 C400 C -0.14170 0.73918 -0.10228
 C401 C -0.16079 0.77633 -0.12087
 C402 C -0.16447 0.78024 -0.16653
 C403 C -0.14881 0.74615 -0.19320
 C404 C -0.12969 0.70900 -0.17454
 C405 C -0.10574 0.66765 -0.10966
 C406 C -0.08856 0.63649 -0.09265
 H407 H -0.13892 0.73686 -0.06703
 H408 H -0.17223 0.80231 -0.09968
 H409 H -0.15152 0.74834 -0.22843
 H410 H -0.11767 0.68311 -0.19557
 C411 C 0.12023 0.70429 0.12477
 C412 C 0.09481 0.73919 0.14006
 C413 C 0.11484 0.77550 0.15931
 C414 C 0.16058 0.77734 0.16349
 C415 C 0.18585 0.74205 0.14823
 C416 C 0.16578 0.70576 0.12897
 C417 C 0.09966 0.66735 0.10409
 C418 C 0.08245 0.63663 0.08635
 H419 H 0.05954 0.73846 0.13683
 H420 H 0.09473 0.80245 0.17047
 H421 H 0.22109 0.74264 0.15136
 H422 H 0.18577 0.67895 0.11723
 C423 C 0.29430 1.12560 0.88029
 C424 C 0.29080 1.12619 0.83471
 C425 C 0.25433 1.14513 0.81462
 C426 C 0.22043 1.16393 0.83980
 C427 C 0.22475 1.16325 0.88586
 C428 C 0.26128 1.14425 0.90579
 C429 C 0.33139 1.10512 0.90089
 C430 C 0.36223 1.08747 0.91806
 H431 H 0.31627 1.11194 0.81465
 H432 H 0.25297 1.14573 0.77925
 H433 H 0.19921 1.17633 0.90657
 H434 H 0.26354 1.14371 0.94115
 C435 C 0.29470 0.87027 1.12415
 C436 C 0.29205 0.86647 1.16968
 C437 C 0.25496 0.84813 1.18893
 C438 C 0.22004 0.83341 1.16284
 C439 C 0.22308 0.83715 1.11712
 C440 C 0.26018 0.85547 1.09792
 C441 C 0.33227 0.89036 1.10435
 C442 C 0.36327 0.90781 1.08755
 H443 H 0.31853 0.87787 1.19029
 H444 H 0.25346 0.84532 1.22417
 H445 H 0.19646 0.82641 1.09638
 H446 H 0.26179 0.85844 1.06267
 C447 C 0.70478 1.12157 1.12891
 C448 C 0.73983 1.09640 1.14430
 C449 C 0.77653 1.11679 1.16241
 C450 C 0.77861 1.16264 1.16531
 C451 C 0.74314 1.18764 1.15001
 C452 C 0.70647 1.16722 1.13190
 C453 C 0.66756 1.10062 1.10909
 C454 C 0.63669 1.08315 1.09188
 H455 H 0.73895 1.06106 1.14197
 H456 H 0.80359 1.09686 1.17362
 H457 H 0.74392 1.22297 1.15217
 H458 H 0.67956 1.18702 1.12003
 C459 C 0.70433 0.87705 0.87287
 C460 C 0.70673 0.83161 0.86775
 C461 C 0.74341 0.81253 0.84825
 C462 C 0.77816 0.83871 0.83367
 C463 C 0.77537 0.88434 0.83875
 C464 C 0.73867 0.90337 0.85824
 C465 C 0.66707 0.89665 0.89388
 C466 C 0.63621 0.91326 0.91192
 H467 H 0.68035 0.81093 0.87899
 H468 H 0.74474 0.77736 0.84443
 H469 H 0.80188 0.90513 0.82814
 H470 H 0.73723 0.93855 0.86218
   
