data_POSCAR
  _audit_creation_date              2014-09-24
  _audit_creation_method            'ToBaCCo'
  _symmetry_space_group_name_H-M    'P1'
  _symmetry_Int_Tables_number       1
  _symmetry_cell_setting            triclinic
  loop_
  _symmetry_equiv_pos_as_xyz
 x,y,z
_cell_length_a 33.4955
_cell_length_b 34.1462
_cell_length_c 14.2052
_cell_angle_alpha 89.545500
_cell_angle_beta 89.533800
_cell_angle_gamma 89.131100
loop_
  _atom_site_label
  _atom_site_type_symbol
  _atom_site_fract_x
  _atom_site_fract_y
  _atom_site_fract_z
C1 C 0.72929 0.22682 0.45169
 C2 C 0.73380 0.22727 0.54653
 C3 C 0.70548 0.25056 0.60550
 C4 C 0.76776 0.20555 0.59093
 C5 C 0.74359 0.19284 0.39595
 C6 C 0.71507 0.26251 0.40183
 C7 C 0.71896 0.27548 0.67589
 C8 C 0.69180 0.29867 0.72722
 C9 C 0.65024 0.29717 0.70938
 C10 C 0.63715 0.27068 0.64116
 C11 C 0.66431 0.24781 0.59008
 C12 C 0.80596 0.20733 0.54942
 C13 C 0.83756 0.18493 0.58488
 C14 C 0.83224 0.16146 0.66501
 C15 C 0.79460 0.16108 0.71001
 C16 C 0.76254 0.18300 0.67305
 C17 C 0.73073 0.15503 0.41986
 C18 C 0.74727 0.12224 0.37511
 C19 C 0.77762 0.12682 0.30784
 C20 C 0.78936 0.16470 0.28107
 C21 C 0.77201 0.19755 0.32390
 C22 C 0.68045 0.26233 0.34723
 C23 C 0.66721 0.29678 0.30261
 C24 C 0.68912 0.33148 0.31015
 C25 C 0.72449 0.33110 0.36197
 C26 C 0.73707 0.29704 0.40861
 H27 H 0.75061 0.27774 0.68948
 H28 H 0.70419 0.31779 0.77914
 H29 H 0.60567 0.26805 0.62551
 H30 H 0.65314 0.22805 0.53748
 H31 H 0.81120 0.22566 0.48814
 H32 H 0.86629 0.18582 0.54938
 H33 H 0.73349 0.18144 0.70676
 H34 H 0.70857 0.15093 0.47489
 H35 H 0.73777 0.09326 0.39616
 H36 H 0.81248 0.16875 0.22828
 H37 H 0.78226 0.22646 0.30446
 H38 H 0.66341 0.23580 0.34070
 H39 H 0.64016 0.29627 0.26143
 H40 H 0.74190 0.35743 0.36803
 H41 H 0.76418 0.29746 0.44967
 H42 H 0.78953 0.14273 0.77130
 C43 C 0.25062 0.73251 0.54679
 C44 C 0.24268 0.72818 0.45338
 C45 C 0.25969 0.69502 0.39775
 C46 C 0.21666 0.75677 0.40162
 C47 C 0.22930 0.76251 0.60469
 C48 C 0.28114 0.70810 0.59664
 C49 C 0.27752 0.70248 0.30984
 C50 C 0.29316 0.67183 0.25587
 C51 C 0.29171 0.63292 0.28919
 C52 C 0.27242 0.62532 0.37540
 C53 C 0.25645 0.65605 0.42914
 C54 C 0.22325 0.79727 0.40644
 C55 C 0.19864 0.82375 0.35766
 C56 C 0.16758 0.81012 0.30118
 C57 C 0.16181 0.76966 0.29406
 C58 C 0.18588 0.74324 0.34436
 C59 C 0.18739 0.76477 0.60719
 C60 C 0.16780 0.79350 0.66066
 C61 C 0.18986 0.82017 0.71362
 C62 C 0.23165 0.81690 0.71364
 C63 C 0.25121 0.78847 0.65944
 C64 C 0.27106 0.69029 0.68265
 C65 C 0.29991 0.67025 0.73518
 C66 C 0.33962 0.66742 0.70321
 C67 C 0.34983 0.68501 0.61641
 C68 C 0.32079 0.70529 0.56378
 H69 H 0.27956 0.73219 0.28313
 H70 H 0.30625 0.67884 0.18808
 H71 H 0.27040 0.59560 0.40209
 H72 H 0.24162 0.64943 0.49526
 H73 H 0.24766 0.80839 0.44743
 H74 H 0.20473 0.85472 0.36191
 H75 H 0.18050 0.71215 0.33863
 H76 H 0.16987 0.74427 0.56772
 H77 H 0.13550 0.79424 0.66168
 H78 H 0.24926 0.83678 0.75475
 H79 H 0.28354 0.78698 0.65938
 H80 H 0.24078 0.69231 0.70977
 H81 H 0.29113 0.65705 0.80165
 H82 H 0.38017 0.68414 0.58993
 H83 H 0.32946 0.71964 0.49867
 H84 H 0.13844 0.75850 0.24982
 C85 C 0.24949 0.26347 -0.56128
 C86 C 0.24856 0.26116 -0.46502
 C87 C 0.22672 0.23065 -0.41127
 C88 C 0.27035 0.28984 -0.40732
 C89 C 0.27344 0.29425 -0.60904
 C90 C 0.22801 0.23611 -0.62429
 C91 C 0.18570 0.22483 -0.42291
 C92 C 0.16612 0.19554 -0.37150
 C93 C 0.18723 0.17174 -0.30603
 C94 C 0.22810 0.17872 -0.29332
 C95 C 0.24753 0.20771 -0.34513
 C96 C 0.24884 0.31604 -0.35004
 C97 C 0.26853 0.34568 -0.30258
 C98 C 0.31005 0.34967 -0.31148
 C99 C 0.33180 0.32204 -0.36537
 C100 C 0.31207 0.29239 -0.41273
 C101 C 0.30574 0.28333 -0.66682
 C102 C 0.33093 0.31167 -0.70506
 C103 C 0.32426 0.35181 -0.68594
 C104 C 0.29085 0.36248 -0.63048
 C105 C 0.26543 0.33411 -0.59359
 C106 C 0.22759 0.19546 -0.60814
 C107 C 0.20606 0.17098 -0.66701
 C108 C 0.18628 0.18631 -0.74698
 C109 C 0.18942 0.22646 -0.76692
 C110 C 0.20920 0.25112 -0.70540
 H111 H 0.16891 0.24286 -0.47211
 H112 H 0.13459 0.19232 -0.38363
 H113 H 0.24540 0.16140 -0.24355
 H114 H 0.27914 0.21194 -0.33434
 H115 H 0.21664 0.31428 -0.34456
 H116 H 0.25114 0.36610 -0.26037
 H117 H 0.32919 0.27185 -0.45518
 H118 H 0.31223 0.25265 -0.67971
 H119 H 0.35611 0.30139 -0.74633
 H120 H 0.28444 0.39296 -0.61480
 H121 H 0.24014 0.34314 -0.55055
 H122 H 0.24400 0.18242 -0.55028
 H123 H 0.20652 0.13991 -0.65149
 H124 H 0.17518 0.23920 -0.82845
 H125 H 0.20961 0.28220 -0.72115
 H126 H 0.36397 0.32294 -0.37101
 C127 C -0.25457 0.77319 -0.54463
 C128 C -0.25946 0.77541 -0.44931
 C129 C -0.28342 0.74613 -0.39564
 C130 C -0.24160 0.80750 -0.39424
 C131 C -0.22500 0.79749 -0.59669
 C132 C -0.27757 0.74513 -0.60198
 C133 C -0.31219 0.75878 -0.32993
 C134 C -0.33567 0.73172 -0.28141
 C135 C -0.33157 0.69130 -0.29854
 C136 C -0.30182 0.67861 -0.36284
 C137 C -0.27764 0.70572 -0.40938
 C138 C -0.24864 0.84696 -0.41854
 C139 C -0.23225 0.87688 -0.36509
 C140 C -0.20833 0.86787 -0.28698
 C141 C -0.20241 0.82834 -0.26104
 C142 C -0.21894 0.79851 -0.31414
 C143 C -0.18470 0.79791 -0.57013
 C144 C -0.15644 0.81763 -0.62534
 C145 C -0.16795 0.83710 -0.70922
 C146 C -0.20849 0.83665 -0.73459
 C147 C -0.23656 0.81716 -0.67921
 C148 C -0.25748 0.72102 -0.66682
 C149 C -0.27833 0.69378 -0.71909
 C150 C -0.31975 0.68939 -0.70678
 C151 C -0.34011 0.71455 -0.64355
 C152 C -0.31923 0.74246 -0.59288
 H153 H -0.31692 0.78974 -0.31713
 H154 H -0.35778 0.74262 -0.23161
 H155 H -0.29604 0.64792 -0.37603
 H156 H -0.25456 0.69512 -0.45697
 H157 H -0.26693 0.85456 -0.47870
 H158 H -0.23759 0.90709 -0.38583
 H159 H -0.21378 0.76830 -0.29316
 H160 H -0.17491 0.78208 -0.50792
 H161 H -0.12582 0.81666 -0.60217
 H162 H -0.21867 0.85128 -0.79820
 H163 H -0.26740 0.81694 -0.70157
 H164 H -0.22541 0.72281 -0.67589
 H165 H -0.26168 0.67534 -0.76774
 H166 H -0.37208 0.71363 -0.63368
 H167 H -0.33556 0.76173 -0.54563
 H168 H -0.18521 0.82039 -0.19943
 O169 O -0.01155 0.96478 0.19780
 O170 O 0.03572 0.96562 -0.18109
 O171 O -0.07886 0.98170 -0.05337
 O172 O 0.07906 0.95738 0.08571
 O173 O -0.03070 0.95530 -0.12650
 O174 O 0.05716 0.99110 0.19888
 O175 O 0.08215 0.95721 -0.07892
 O176 O -0.04266 0.94712 0.07454
 C177 C -0.03128 0.93952 0.15559
 C178 C 0.06659 0.94862 -0.15445
 C179 C -0.06678 0.95589 -0.10843
 C180 C 0.07506 0.96138 0.17102
 O181 O 0.03012 1.05989 0.14383
 O182 O -0.04418 1.03508 -0.13702
 O183 O -0.08807 1.00485 0.12163
 O184 O 0.08318 1.03473 -0.09239
 O185 O 0.02790 1.04136 -0.17649
 O186 O -0.03794 1.03970 0.16800
 O187 O 0.08588 1.03770 0.08411
 O188 O -0.05419 1.04923 0.00778
 Co189 Co 0.00943 1.01204 0.16072
 Co190 Co -0.00212 0.99958 -0.14001
 Co191 Co -0.04613 0.99801 0.04183
 Co192 Co 0.07630 0.99744 0.00156
 O193 O 0.01214 1.00065 0.00802
 C194 C 0.06648 1.06387 0.12797
 C195 C -0.05873 1.05773 -0.07620
 C196 C -0.07386 1.02967 0.18168
 C197 C 0.06325 1.05086 -0.15829
 O198 O 0.45983 0.47068 0.14598
 O199 O 0.54929 0.44061 -0.11519
 O200 O 0.42393 0.48669 -0.12342
 O201 O 0.58863 0.48123 0.12246
 O202 O 0.47945 0.45458 -0.15503
 O203 O 0.53126 0.46728 0.19357
 O204 O 0.59860 0.47078 -0.04924
 O205 O 0.45818 0.44968 0.00472
 C206 C 0.45115 0.44425 0.08933
 C207 C 0.58462 0.44059 -0.08665
 C208 C 0.44330 0.46172 -0.17696
 C209 C 0.56838 0.46210 0.18316
 O210 O 0.53473 0.54259 0.19243
 O211 O 0.49928 0.52973 -0.19866
 O212 O 0.42565 0.51882 0.04679
 O213 O 0.58139 0.54955 -0.07639
 O214 O 0.57063 0.50855 -0.18223
 O215 O 0.46850 0.54973 0.12544
 O216 O 0.57716 0.55799 0.08513
 O217 O 0.46114 0.54906 -0.08593
 Co218 Co 0.49976 0.50713 0.14887
 Co219 Co 0.52370 0.48578 -0.14703
 Co220 Co 0.46196 0.49983 -0.04056
 Co221 Co 0.58071 0.51360 0.01784
 O222 O 0.51854 0.50328 0.00237
 C223 C 0.56163 0.56411 0.16266
 C224 C 0.47530 0.55482 -0.16569
 C225 C 0.43374 0.54720 0.09778
 C226 C 0.58361 0.54083 -0.15973
 C227 C 0.34988 0.38166 0.28269
 C228 C 0.38070 0.37684 0.22270
 C229 C 0.40572 0.41035 0.19668
 C230 C 0.42904 0.40955 0.11998
 H231 H 0.38720 0.34906 0.18966
 H232 H 0.40359 0.43679 0.23839
 H233 H 0.34392 0.41109 0.30819
 H234 H 0.42931 0.38412 0.07477
 C235 C -0.14128 0.85715 0.23081
 C236 C -0.10216 0.86240 0.24576
 C237 C -0.07953 0.88788 0.18086
 C238 C -0.04530 0.90442 0.20598
 H239 H -0.08734 0.85097 0.30764
 H240 H -0.09388 0.89734 0.11615
 H241 H -0.15384 0.87065 0.16797
 H242 H -0.03192 0.89689 0.27306
 C243 C 0.66130 0.66021 0.24123
 C244 C 0.62382 0.64800 0.25526
 C245 C 0.60830 0.61640 0.19674
 C246 C 0.57521 0.59701 0.21998
 H247 H 0.60506 0.65948 0.31115
 H248 H 0.62526 0.60792 0.13459
 H249 H 0.67904 0.64525 0.18777
 H250 H 0.55882 0.60439 0.28367
 C251 C 0.16413 1.16288 0.19193
 C252 C 0.14811 1.12878 0.21798
 C253 C 0.12485 1.10540 0.15240
 C254 C 0.08745 1.09576 0.17451
 H255 H 0.14933 1.11873 0.29038
 H256 H 0.13941 1.09381 0.08994
 H257 H 0.15712 1.17427 0.12236
 H258 H 0.07293 1.10928 0.23482
 C259 C 0.62254 0.32057 -0.24826
 C260 C 0.63049 0.34992 -0.18312
 C261 C 0.60073 0.37666 -0.15595
 C262 C 0.61035 0.40877 -0.10108
 H263 H 0.66024 0.35405 -0.15661
 H264 H 0.57080 0.37416 -0.18363
 H265 H 0.59158 0.31776 -0.26914
 H266 H 0.64057 0.41097 -0.07484
 C267 C 0.17045 0.85097 -0.22844
 C268 C 0.13487 0.86710 -0.24855
 C269 C 0.11787 0.89844 -0.18929
 C270 C 0.08397 0.91711 -0.21268
 H271 H 0.11862 0.85809 -0.31011
 H272 H 0.13352 0.90653 -0.12596
 H273 H 0.18704 0.86212 -0.16938
 H274 H 0.06861 0.90923 -0.27655
 C275 C 0.36880 0.64650 -0.23556
 C276 C 0.40521 0.63373 -0.26207
 C277 C 0.42846 0.60877 -0.19658
 C278 C 0.46061 0.58788 -0.22399
 H279 H 0.41644 0.63871 -0.33268
 H280 H 0.41631 0.60416 -0.12639
 H281 H 0.35859 0.63923 -0.16494
 H282 H 0.47248 0.59141 -0.29469
 C283 C -0.13434 1.13570 -0.30496
 C284 C -0.12720 1.12635 -0.21520
 C285 C -0.09498 1.09826 -0.19146
 C286 C -0.08536 1.09065 -0.10211
 H287 H -0.14550 1.13882 -0.15940
 H288 H -0.08039 1.08208 -0.24779
 H289 H -0.11425 1.12468 -0.35923
 H290 H -0.09987 1.10696 -0.04593
 C291 C 0.64352 0.66545 -0.24841
 C292 C 0.63934 0.62725 -0.26708
 C293 C 0.61465 0.60268 -0.20475
 C294 C 0.60473 0.56615 -0.22748
 H295 H 0.65364 0.61371 -0.32734
 H296 H 0.60516 0.61454 -0.13743
 H297 H 0.62570 0.67757 -0.19114
 H298 H 0.61296 0.55443 -0.29573
 C299 C 0.16975 1.14134 -0.25253
 C300 C 0.13195 1.12940 -0.25992
 C301 C 0.11705 1.09670 -0.20144
 C302 C 0.08016 1.08340 -0.21356
 H303 H 0.11161 1.14276 -0.30972
 H304 H 0.13633 1.08335 -0.14889
 H305 H 0.18859 1.12585 -0.20228
 H306 H 0.06132 1.09690 -0.26680
 C307 C 0.32941 0.38235 -0.26194
 C308 C 0.36554 0.39591 -0.28469
 C309 C 0.38377 0.42729 -0.22983
 C310 C 0.42251 0.43511 -0.24010
 H311 H 0.38242 0.38353 -0.34280
 H312 H 0.36611 0.44218 -0.17632
 H313 H 0.31285 0.39629 -0.20512
 H314 H 0.44049 0.41853 -0.29003
 C315 C -0.18926 0.89999 -0.23498
 C316 C -0.15304 0.89547 -0.19732
 C317 C -0.13162 0.92808 -0.15425
 C318 C -0.09206 0.92510 -0.14585
 H319 H -0.13732 0.86765 -0.20423
 H320 H -0.14748 0.95459 -0.13363
 H321 H -0.20357 0.92868 -0.23488
 H322 H -0.07671 0.89915 -0.17214
 C323 C 0.31114 0.60004 0.23751
 C324 C 0.34324 0.60532 0.18252
 C325 C 0.36703 0.57230 0.14461
 C326 C 0.40509 0.57843 0.12146
 H327 H 0.35499 0.63446 0.17282
 H328 H 0.35495 0.54304 0.14340
 H329 H 0.30151 0.57047 0.25265
 H330 H 0.41733 0.60739 0.13054
 C331 C -0.20158 1.09207 0.26954
 C332 C -0.16189 1.08909 0.27367
 C333 C -0.13943 1.05630 0.23112
 C334 C -0.09984 1.05445 0.24056
 H335 H -0.14538 1.11222 0.30711
 H336 H -0.15464 1.03596 0.18603
 H337 H -0.21892 1.06828 0.24189
 H338 H -0.08525 1.07549 0.28500
 C339 C 0.67574 0.36824 0.26421
 C340 C 0.63768 0.38020 0.26830
 C341 C 0.62402 0.41671 0.22218
 C342 C 0.58696 0.43012 0.23790
 H343 H 0.61612 0.36274 0.30679
 H344 H 0.64349 0.43144 0.17237
 H345 H 0.69791 0.38687 0.23157
 H346 H 0.56805 0.41483 0.28803
 C347 C 0.14262 0.83715 0.24402
 C348 C 0.13237 0.87334 0.27149
 C349 C 0.10974 0.89960 0.20812
 C350 C 0.09464 0.93397 0.23718
 H351 H 0.14090 0.88376 0.34021
 H352 H 0.10602 0.89089 0.13548
 H353 H 0.13164 0.82648 0.17748
 H354 H 0.09711 0.94231 0.31033
   
