data_POSCAR
  _audit_creation_date              2014-09-24
  _audit_creation_method            'ToBaCCo'
  _symmetry_space_group_name_H-M    'P1'
  _symmetry_Int_Tables_number       1
  _symmetry_cell_setting            triclinic
  loop_
  _symmetry_equiv_pos_as_xyz
 x,y,z
_cell_length_a 25.5862
_cell_length_b 25.4615
_cell_length_c 25.5674
_cell_angle_alpha 89.625400
_cell_angle_beta 89.801500
_cell_angle_gamma 90.083000
loop_
  _atom_site_label
  _atom_site_type_symbol
  _atom_site_fract_x
  _atom_site_fract_y
  _atom_site_fract_z
N1 N 0.19734 0.19478 0.18614
 N2 N -0.19131 0.80141 0.19516
 N3 N -0.18961 0.19097 -0.19736
 N4 N 0.19605 0.81239 -0.19624
 N5 N 0.19155 1.18484 0.80860
 N6 N 0.80965 0.80849 0.80206
 N7 N 0.19341 0.80636 1.18896
 N8 N 0.79201 1.21098 1.20490
 N9 N 0.55939 0.90502 1.05464
 N10 N 0.59833 0.87186 1.06226
 N11 N 0.44973 0.94054 1.09103
 N12 N 0.40999 0.93350 1.12345
 N13 N 0.44919 0.90500 1.05404
 N14 N 0.40868 0.87332 1.05981
 N15 N 0.55979 0.94196 1.09030
 N16 N 0.59934 0.93539 1.12264
 C17 C 0.62301 0.89154 1.10467
 C18 C 0.38469 0.89151 1.10334
 N19 N 0.44981 1.09076 1.05466
 N20 N 0.40887 1.12166 1.05919
 N21 N 0.55889 1.05538 1.09116
 N22 N 0.59525 1.06556 1.12632
 N23 N 0.55956 1.09104 1.05383
 N24 N 0.59678 1.12590 1.06207
 N25 N 0.44869 1.05357 1.09047
 N26 N 0.40638 1.05772 1.11994
 Mn27 Mn 0.50430 0.99781 1.09143
 C28 C 0.38227 1.10071 1.10006
 C29 C 0.61890 1.10940 1.10727
 N30 N 0.45001 0.90533 0.94147
 N31 N 0.41007 0.87316 0.93482
 N32 N 0.56005 0.94317 0.90573
 N33 N 0.60127 0.93857 0.87490
 N34 N 0.55949 0.90577 0.94137
 N35 N 0.59969 0.87402 0.93508
 N36 N 0.44968 0.94285 0.90603
 N37 N 0.40905 0.93797 0.87493
 Mn38 Mn 0.50454 0.90457 0.99792
 C39 C 0.38493 0.89432 0.89324
 C40 C 0.62529 0.89504 0.89350
 N41 N 0.55947 1.09133 0.94157
 N42 N 0.59990 1.12300 0.93543
 N43 N 0.44964 1.05540 0.90525
 N44 N 0.40861 1.05994 0.87450
 N45 N 0.44850 1.09091 0.94222
 N46 N 0.40588 1.12001 0.93819
 N47 N 0.55881 1.05576 0.90470
 N48 N 0.59798 1.06277 0.87171
 Mn49 Mn 0.50439 1.09167 0.99803
 Mn50 Mn 0.50458 0.99920 0.90486
 Cl51 Cl 0.50454 0.99833 0.99813
 C52 C 0.62319 1.10471 0.89159
 C53 C 0.38175 1.10044 0.89538
 N54 N -0.09076 0.44520 0.04865
 N55 N -0.12579 0.40821 0.05866
 N56 N -0.05407 0.55427 0.08370
 N57 N -0.05970 0.59380 0.11618
 N58 N -0.08936 0.55623 0.04663
 N59 N -0.11967 0.59784 0.05250
 N60 N -0.05337 0.44398 0.08368
 N61 N -0.06150 0.40588 0.11801
 C62 C -0.10667 0.38368 0.10177
 C63 C -0.10067 0.62061 0.09634
 N64 N 0.09461 0.55575 0.04695
 N65 N 0.12706 0.59543 0.05429
 N66 N 0.05918 0.44535 0.08369
 N67 N 0.06674 0.40612 0.11678
 N68 N 0.09497 0.44535 0.04682
 N69 N 0.12728 0.40561 0.05302
 N70 N 0.05758 0.55566 0.08261
 N71 N 0.06304 0.59577 0.11448
 Mn72 Mn 0.00234 0.49966 0.08395
 C73 C 0.10651 0.62012 0.09637
 C74 C 0.10918 0.38169 0.09679
 N75 N -0.08918 0.55479 -0.06629
 N76 N -0.12228 0.59359 -0.07418
 N77 N -0.05315 0.44326 -0.10031
 N78 N -0.05668 0.39996 -0.12823
 N79 N -0.08992 0.44445 -0.06431
 N80 N -0.11971 0.40229 -0.06713
 N81 N -0.05360 0.55383 -0.10344
 N82 N -0.06191 0.59184 -0.13794
 Mn83 Mn -0.09051 0.50031 -0.00891
 C84 C -0.10486 0.61639 -0.11893
 C85 C -0.09866 0.37510 -0.10731
 N86 N 0.09602 0.44505 -0.06503
 N87 N 0.12642 0.40337 -0.06816
 N88 N 0.05942 0.55437 -0.10308
 N89 N 0.06612 0.59447 -0.13554
 N90 N 0.09452 0.55551 -0.06573
 N91 N 0.12561 0.59645 -0.07130
 N92 N 0.05923 0.44330 -0.10062
 N93 N 0.06326 0.39996 -0.12853
 Mn94 Mn 0.09564 0.50055 -0.00931
 Mn95 Mn 0.00299 0.49867 -0.10264
 Cl96 Cl 0.00254 0.49984 -0.00927
 C97 C 0.10573 0.37574 -0.10810
 C98 C 0.10756 0.62031 -0.11501
 N99 N 1.09444 0.06017 0.43914
 N100 N 1.12754 0.06764 0.40013
 N101 N 1.05818 0.09728 0.54864
 N102 N 1.06451 0.12927 0.58874
 N103 N 1.09427 0.06061 0.54895
 N104 N 1.12548 0.06609 0.58945
 N105 N 1.05741 0.09579 0.43830
 N106 N 1.06376 0.12800 0.39816
 C107 C 1.10768 0.10990 0.37484
 C108 C 1.10669 0.10911 0.61381
 N109 N 0.90923 0.05878 0.54865
 N110 N 0.87576 0.06570 0.58726
 N111 N 0.94497 0.09487 0.43872
 N112 N 0.93527 0.12945 0.40130
 N113 N 0.91000 0.05704 0.43845
 N114 N 0.87599 0.06451 0.40041
 N115 N 0.94478 0.09603 0.54831
 N116 N 0.93599 0.12983 0.58630
 Mn117 Mn 1.00140 0.09671 0.49357
 C118 C 0.89290 0.11012 0.61032
 C119 C 0.89245 0.10967 0.37741
 N120 N 1.09605 -0.05197 0.55056
 N121 N 1.12646 -0.05516 0.59199
 N122 N 1.06013 -0.09053 0.44243
 N123 N 1.06453 -0.12172 0.40166
 N124 N 1.09520 -0.05288 0.44013
 N125 N 1.12404 -0.05711 0.39736
 N126 N 1.05941 -0.08802 0.55267
 N127 N 1.06345 -0.11637 0.59589
 Mn128 Mn 1.09563 0.00396 0.49458
 C129 C 1.10574 -0.09559 0.61974
 C130 C 1.10467 -0.10059 0.37403
 N131 N 0.91082 -0.05622 0.44178
 N132 N 0.87775 -0.06527 0.40337
 N133 N 0.94737 -0.08941 0.55301
 N134 N 0.94311 -0.11847 0.59582
 N135 N 0.91024 -0.05392 0.55137
 N136 N 0.87940 -0.05819 0.59263
 N137 N 0.94800 -0.09167 0.44250
 N138 N 0.94194 -0.12526 0.40395
 Mn139 Mn 0.90947 0.00144 0.49495
 Mn140 Mn 1.00375 -0.09058 0.49774
 Cl141 Cl 1.00253 0.00293 0.49519
 C142 C 0.89797 -0.10826 0.38002
 C143 C 0.90027 -0.09873 0.61990
 C144 C 1.12357 0.18347 0.24796
 C145 C 1.17626 0.17565 0.23518
 C146 C 1.20826 0.15206 0.27356
 C147 C 1.18612 0.13088 0.31959
 C148 C 1.13193 0.13459 0.32886
 C149 C 1.10204 0.16415 0.29389
 C150 C 1.05156 0.15120 0.26765
 C151 C 1.07540 0.17265 0.21723
 H152 H 1.24995 0.14843 0.26729
 H153 H 1.21112 0.11075 0.34729
 H154 H 1.01867 0.17546 0.28250
 H155 H 1.04373 0.10824 0.26657
 H156 H 1.05640 0.20936 0.20323
 H157 H 1.08156 0.14219 0.18686
 C158 C 0.88415 -0.17939 0.25273
 C159 C 0.83013 -0.17906 0.24373
 C160 C 0.79780 -0.16151 0.28500
 C161 C 0.81974 -0.13844 0.32982
 C162 C 0.87435 -0.13466 0.33521
 C163 C 0.90572 -0.15877 0.29767
 C164 C 0.95219 -0.13804 0.26854
 C165 C 0.92828 -0.16082 0.21919
 H166 H 0.75569 -0.16381 0.28194
 H167 H 0.79411 -0.12283 0.35970
 H168 H 0.98893 -0.15802 0.28043
 H169 H 0.95405 -0.09439 0.26826
 H170 H 0.95117 -0.19398 0.20281
 H171 H 0.91604 -0.13044 0.19030
 C172 C 0.81613 0.12228 0.73495
 C173 C 0.82734 0.17336 0.75166
 C174 C 0.85285 0.20705 0.71552
 C175 C 0.87362 0.18705 0.66852
 C176 C 0.86724 0.13364 0.65591
 C177 C 0.83489 0.10313 0.68804
 C178 C 0.84326 0.04947 0.71041
 C179 C 0.82306 0.07072 0.76210
 H180 H 0.85868 0.24813 0.72438
 H181 H 0.89586 0.21286 0.64299
 H182 H 0.88520 0.03813 0.71147
 H183 H 0.81677 0.01986 0.69275
 H184 H 0.85364 0.07207 0.79282
 H185 H 0.78516 0.05310 0.77445
 C186 C 1.20032 -0.12802 0.72674
 C187 C 1.17095 -0.15902 0.76157
 C188 C 1.11631 -0.16069 0.75361
 C189 C 1.09420 -0.13884 0.70788
 C190 C 1.12609 -0.11332 0.67045
 C191 C 1.17843 -0.10506 0.68291
 C192 C 1.22652 -0.11398 0.65095
 C193 C 1.25052 -0.13929 0.69922
 H194 H 1.09119 -0.18124 0.78108
 H195 H 1.05274 -0.14356 0.70095
 H196 H 1.24581 -0.07648 0.63947
 H197 H 1.22005 -0.14203 0.61843
 H198 H 1.28366 -0.11635 0.71540
 H199 H 1.25781 -0.18210 0.69491
 C200 C 0.27677 1.19748 1.13071
 C201 C 0.24068 1.16870 1.16063
 C202 C 0.24825 1.11376 1.16391
 C203 C 0.29429 1.09069 1.14387
 C204 C 0.33243 1.12200 1.11873
 C205 C 0.32084 1.17471 1.10956
 C206 C 0.35317 1.22257 1.11917
 C207 C 0.30454 1.24754 1.14248
 H208 H 0.21995 1.08911 1.18389
 H209 H 0.30058 1.04894 1.14913
 H210 H 0.36610 1.24166 1.08209
 H211 H 0.38466 1.21564 1.14827
 H212 H 0.28955 1.28102 1.11881
 H213 H 0.30760 1.25495 1.18518
 C214 C 0.25354 0.88623 0.82929
 C215 C 0.24461 0.83218 0.82497
 C216 C 0.28605 0.79824 0.83891
 C217 C 0.33178 0.81820 0.86203
 C218 C 0.33772 0.87255 0.86964
 C219 C 0.29932 0.90606 0.84995
 C220 C 0.27098 0.94992 0.87627
 C221 C 0.22074 0.92784 0.85350
 H222 H 0.28260 0.75630 0.83323
 H223 H 0.36224 0.79129 0.87410
 H224 H 0.28180 0.98892 0.85960
 H225 H 0.27271 0.94717 0.91967
 H226 H 0.20269 0.95395 0.82365
 H227 H 0.19340 0.91194 0.88360
 C228 C 0.74662 0.87520 1.18274
 C229 C 0.76016 0.82251 1.17501
 C230 C 0.72349 0.79063 1.14878
 C231 C 0.67851 0.81286 1.12586
 C232 C 0.66849 0.86710 1.13006
 C233 C 0.70170 0.89678 1.16157
 C234 C 0.72838 0.94797 1.15063
 C235 C 0.77761 0.92410 1.17404
 H236 H 0.73038 0.74895 1.14446
 H237 H 0.65220 0.78787 1.10414
 H238 H 0.71200 0.98042 1.17449
 H239 H 0.73188 0.95666 1.10807
 H240 H 0.78938 0.94268 1.21143
 H241 H 0.80968 0.91877 1.14511
 C242 C 0.76087 1.15344 0.87694
 C243 C 0.76289 1.16962 0.82455
 C244 C 0.71635 1.16846 0.79526
 C245 C 0.67037 1.14723 0.81703
 C246 C 0.67020 1.12773 0.86858
 C247 C 0.71538 1.13265 0.89845
 C248 C 0.74486 1.09031 0.92622
 C249 C 0.79458 1.11417 0.90404
 H250 H 0.71595 1.18307 0.75541
 H251 H 0.63525 1.14550 0.79357
 H252 H 0.73623 1.05055 0.91060
 H253 H 0.74199 1.09338 0.96922
 H254 H 0.81546 1.08772 0.87671
 H255 H 0.81958 1.13266 0.93427
 C256 C 0.17557 0.25137 0.11013
 C257 C 0.17772 0.24343 0.16431
 C258 C 0.16279 0.28577 0.19654
 C259 C 0.14008 0.33111 0.17470
 C260 C 0.13401 0.33575 0.12023
 C261 C 0.15528 0.29682 0.08852
 C262 C 0.13113 0.26748 0.04427
 C263 C 0.15357 0.21757 0.06825
 H264 H 0.16698 0.28313 0.23858
 H265 H 0.12672 0.36210 0.20028
 H266 H 0.14922 0.27801 0.00601
 H267 H 0.08768 0.26881 0.04509
 H268 H 0.18467 0.19947 0.04385
 H269 H 0.12322 0.18995 0.08323
 C270 C -0.19137 0.26468 -0.13472
 C271 C -0.16341 0.23258 -0.16926
 C272 C -0.10929 0.24263 -0.17458
 C273 C -0.08715 0.28856 -0.15324
 C274 C -0.11832 0.32386 -0.12450
 C275 C -0.16933 0.30867 -0.11241
 C276 C -0.21918 0.33889 -0.11600
 C277 C -0.24339 0.29043 -0.14056
 H278 H -0.08482 0.21686 -0.19754
 H279 H -0.04646 0.29743 -0.16096
 H280 H -0.21640 0.37295 -0.14333
 H281 H -0.23561 0.34794 -0.07678
 H282 H -0.25457 0.29624 -0.18219
 H283 H -0.27375 0.27163 -0.11545
 C284 C 0.18236 0.74715 -0.12540
 C285 C 0.17552 0.76270 -0.17753
 C286 C 0.15098 0.72650 -0.21126
 C287 C 0.12841 0.67991 -0.19121
 C288 C 0.13155 0.66786 -0.13744
 C289 C 0.16164 0.70076 -0.10599
 C290 C 0.14917 0.72515 -0.05439
 C291 C 0.17216 0.77608 -0.07594
 H292 H 0.14786 0.73487 -0.25268
 H293 H 0.10803 0.65381 -0.21751
 H294 H 0.17263 0.70788 -0.02206
 H295 H 0.10643 0.72736 -0.04665
 H296 H 0.20896 0.78795 -0.05626
 H297 H 0.14281 0.80788 -0.08087
 C298 C -0.13818 0.72016 0.19736
 C299 C -0.16496 0.75873 0.16882
 C300 C -0.16361 0.75484 0.11375
 C301 C -0.14214 0.71004 0.08962
 C302 C -0.12065 0.66911 0.11988
 C303 C -0.11587 0.67703 0.17357
 C304 C -0.13019 0.64171 0.21827
 C305 C -0.15465 0.68930 0.24433
 H306 H -0.18084 0.78525 0.08961
 H307 H -0.14305 0.70696 0.04769
 H308 H -0.09515 0.62677 0.23917
 H309 H -0.15917 0.61116 0.20724
 H310 H -0.13362 0.70178 0.28014
 H311 H -0.19786 0.68655 0.24831
 C312 C 1.17767 0.11533 0.74227
 C313 C 1.17234 0.16765 0.75805
 C314 C 1.15009 0.20290 0.72127
 C315 C 1.12822 0.18428 0.67413
 C316 C 1.13001 0.13040 0.66185
 C317 C 1.15811 0.09742 0.69529
 C318 C 1.14385 0.04531 0.71855
 C319 C 1.16547 0.06522 0.77017
 H320 H 1.14811 0.24447 0.72953
 H321 H 1.10949 0.21179 0.64774
 H322 H 1.16732 0.01284 0.70163
 H323 H 1.10092 0.03840 0.71938
 H324 H 1.20144 0.04432 0.78276
 H325 H 1.13513 0.07006 0.80100
 C326 C 0.80623 -0.12962 0.72924
 C327 C 0.83419 -0.16409 0.76201
 C328 C 0.88865 -0.16817 0.75178
 C329 C 0.91088 -0.14592 0.70610
 C330 C 0.87976 -0.11737 0.67058
 C331 C 0.82841 -0.10646 0.68538
 C332 C 0.77883 -0.11060 0.65505
 C333 C 0.75449 -0.13608 0.70330
 H334 H 0.91382 -0.19005 0.77793
 H335 H 0.95186 -0.15251 0.69781
 H336 H 0.78218 -0.13768 0.62126
 H337 H 0.76207 -0.07138 0.64579
 H338 H 0.74384 -0.17802 0.69766
 H339 H 0.72371 -0.11154 0.72172
 C340 C 1.13564 -0.19663 0.26725
 C341 C 1.16668 -0.16787 0.23196
 C342 C 1.16999 -0.11304 0.24018
 C343 C 1.14915 -0.09032 0.28608
 C344 C 1.12307 -0.12168 0.32369
 C345 C 1.11376 -0.17413 0.31127
 C346 C 1.12194 -0.22270 0.34324
 C347 C 1.14604 -0.24733 0.29481
 H348 H 1.19070 -0.08819 0.21253
 H349 H 1.15475 -0.04874 0.29281
 H350 H 1.08434 -0.24128 0.35508
 H351 H 1.15036 -0.21686 0.37551
 H352 H 1.12229 -0.28011 0.27892
 H353 H 1.18851 -0.25562 0.29880
 C354 C 0.80875 0.13305 0.25830
 C355 C 0.81305 0.18747 0.24907
 C356 C 0.83921 0.21680 0.28818
 C357 C 0.86503 0.19158 0.32994
 C358 C 0.86412 0.13651 0.33497
 C359 C 0.83281 0.10841 0.30033
 C360 C 0.84539 0.06092 0.26871
 C361 C 0.81894 0.08801 0.22269
 H362 H 0.84062 0.25925 0.28618
 H363 H 0.88626 0.21517 0.35787
 H364 H 0.82394 0.02553 0.28280
 H365 H 0.88815 0.05538 0.26304
 H366 H 0.78226 0.06821 0.21041
 H367 H 0.84629 0.09837 0.19033
 C368 C 0.19770 0.26366 -0.13509
 C369 C 0.16767 0.22896 -0.16488
 C370 C 0.11347 0.23931 -0.16808
 C371 C 0.09266 0.28681 -0.14886
 C372 C 0.12528 0.32396 -0.12449
 C373 C 0.17700 0.30946 -0.11476
 C374 C 0.22663 0.33902 -0.12434
 C375 C 0.24921 0.28860 -0.14662
 H376 H 0.08778 0.21217 -0.18788
 H377 H 0.05160 0.29515 -0.15456
 H378 H 0.24555 0.35115 -0.08726
 H379 H 0.22215 0.37081 -0.15402
 H380 H 0.28104 0.27170 -0.12231
 H381 H 0.25770 0.29097 -0.18926
 C382 C -0.13026 0.26396 0.18670
 C383 C -0.18451 0.25528 0.18331
 C384 C -0.21362 0.29504 0.15718
 C385 C -0.18848 0.33672 0.13050
 C386 C -0.13364 0.34110 0.13051
 C387 C -0.10570 0.30591 0.16184
 C388 C -0.05868 0.27368 0.14906
 C389 C -0.08568 0.22775 0.17636
 H390 H -0.25589 0.29363 0.15644
 H391 H -0.21194 0.36512 0.10940
 H392 H -0.02326 0.28750 0.16998
 H393 H -0.05347 0.26788 0.10629
 H394 H -0.06577 0.21525 0.21295
 H395 H -0.09634 0.19534 0.14946
 C396 C -0.18201 0.74084 -0.13077
 C397 C -0.17254 0.75952 -0.18178
 C398 C -0.14578 0.72409 -0.21544
 C399 C -0.12378 0.67688 -0.19581
 C400 C -0.13006 0.66267 -0.14275
 C401 C -0.16288 0.69367 -0.11246
 C402 C -0.15606 0.71434 -0.05856
 C403 C -0.17647 0.76664 -0.07883
 H404 H -0.14077 0.73306 -0.25657
 H405 H -0.10123 0.65220 -0.22177
 H406 H -0.11442 0.71562 -0.04630
 H407 H -0.18341 0.69472 -0.03078
 H408 H -0.14647 0.79829 -0.07918
 H409 H -0.21474 0.77756 -0.06135
 C410 C 0.11819 0.74958 0.16522
 C411 C 0.17222 0.75793 0.16814
 C412 C 0.20493 0.71621 0.15211
 C413 C 0.18377 0.67137 0.12799
 C414 C 0.12941 0.66636 0.12142
 C415 C 0.09724 0.70457 0.14354
 C416 C 0.05284 0.73441 0.11992
 C417 C 0.07605 0.78375 0.14387
 H418 H 0.24687 0.71891 0.15666
 H419 H 0.20981 0.64094 0.11417
 H420 H 0.01461 0.72307 0.13750
 H421 H 0.05393 0.73451 0.07642
 H422 H 0.05129 0.80068 0.17533
 H423 H 0.09085 0.81243 0.11434
 C424 C 0.27605 1.13746 0.80026
 C425 C 0.23659 1.15885 0.83167
 C426 C 0.24295 1.15395 0.88650
 C427 C 0.29025 1.13496 0.90784
 C428 C 0.33123 1.11860 0.87480
 C429 C 0.32154 1.11691 0.82116
 C430 C 0.35372 1.13746 0.77664
 C431 C 0.30365 1.15999 0.75385
 H432 H 0.21247 1.16691 0.91285
 H433 H 0.29510 1.13400 0.94990
 H434 H 0.37053 1.10527 0.75274
 H435 H 0.38214 1.16804 0.78892
 H436 H 0.29168 1.14073 0.71687
 H437 H 0.30281 1.20366 0.75311
 C438 C 0.25666 0.81920 1.11627
 C439 C 0.24277 0.82607 1.16886
 C440 C 0.28050 0.84929 1.20172
 C441 C 0.32702 0.87060 1.18060
 C442 C 0.33761 0.86747 1.12655
 C443 C 0.30305 0.83860 1.09577
 C444 C 0.27780 0.85236 1.04486
 C445 C 0.22694 0.83086 1.06756
 H446 H 0.27345 0.85235 1.24334
 H447 H 0.35421 0.89018 1.20636
 H448 H 0.29326 0.82846 1.01203
 H449 H 0.27687 0.89542 1.03734
 H450 H 0.21332 0.79447 1.04803
 H451 H 0.19648 0.86140 1.07337
 C452 C 0.73797 1.19404 1.12859
 C453 C 0.74712 1.19047 1.18267
 C454 C 0.70780 1.16463 1.21278
 C455 C 0.66592 1.13820 1.18858
 C456 C 0.66108 1.13826 1.13379
 C457 C 0.69594 1.16928 1.10497
 C458 C 0.72811 1.15470 1.05856
 C459 C 0.77388 1.18237 1.08415
 H460 H 0.70986 1.16374 1.25505
 H461 H 0.63789 1.11714 1.21266
 H462 H 0.71451 1.17447 1.02218
 H463 H 0.73355 1.11150 1.05596
 H464 H 0.78628 1.21856 1.06294
 H465 H 0.80614 1.15540 1.09545
 C466 C 0.72569 0.79886 0.84650
 C467 C 0.76652 0.83034 0.82667
 C468 C 0.76172 0.88527 0.83513
 C469 C 0.71575 0.90669 0.85687
 C470 C 0.67421 0.87378 0.87248
 C471 C 0.68157 0.81970 0.86981
 C472 C 0.64715 0.77848 0.84685
 C473 C 0.69576 0.75568 0.82130
 H474 H 0.79306 0.91184 0.82431
 H475 H 0.71251 0.94888 0.86101
 H476 H 0.61868 0.79479 0.81828
 H477 H 0.62998 0.75231 0.87736
 H478 H 0.69571 0.75895 0.77790
 H479 H 0.70654 0.71643 0.83716
   
