data_POSCAR
  _audit_creation_date              2014-09-24
  _audit_creation_method            'ToBaCCo'
  _symmetry_space_group_name_H-M    'P1'
  _symmetry_Int_Tables_number       1
  _symmetry_cell_setting            triclinic
  loop_
  _symmetry_equiv_pos_as_xyz
 x,y,z
_cell_length_a 39.0691
_cell_length_b 35.8477
_cell_length_c 21.2634
_cell_angle_alpha 91.377600
_cell_angle_beta 89.229600
_cell_angle_gamma 119.044700
loop_
  _atom_site_label
  _atom_site_type_symbol
  _atom_site_fract_x
  _atom_site_fract_y
  _atom_site_fract_z
C1 C 0.45754 0.88953 0.48831
 C2 C 0.46503 0.91270 0.54576
 C3 C 0.48882 0.95758 0.54458
 C4 C 0.50178 0.97969 0.48779
 C5 C 0.49179 0.95557 0.43139
 C6 C 0.47122 0.91089 0.43136
 C7 C 0.52505 1.02764 0.48723
 C8 C 0.54952 1.04898 0.43578
 C9 C 0.56835 1.09384 0.43161
 C10 C 0.56604 1.11756 0.48364
 C11 C 0.54419 1.09721 0.53702
 C12 C 0.52242 1.05259 0.53740
 H13 H 0.43993 0.85511 0.48693
 H14 H 0.49842 0.97517 0.58859
 H15 H 0.49929 0.97108 0.38646
 H16 H 0.55231 1.03056 0.39721
 H17 H 0.58222 1.15213 0.48381
 H18 H 0.50393 1.03781 0.57763
 C19 C 0.09989 0.53760 0.51272
 C20 C 0.07593 0.51870 0.56555
 C21 C 0.03489 0.49675 0.55677
 C22 C 0.01803 0.49672 0.49856
 C23 C 0.04292 0.51751 0.44778
 C24 C 0.08358 0.53695 0.45437
 C25 C -0.02538 0.47714 0.49182
 C26 C -0.04395 0.45826 0.43432
 C27 C -0.08452 0.44268 0.42593
 C28 C -0.10673 0.44332 0.47845
 C29 C -0.08886 0.46110 0.53622
 C30 C -0.04827 0.47888 0.54218
 H31 H 0.13148 0.55298 0.51622
 H32 H 0.01566 0.48159 0.59601
 H33 H 0.03098 0.51951 0.40311
 H34 H -0.02615 0.45787 0.39528
 H35 H -0.13821 0.42961 0.47521
 H36 H -0.03473 0.49425 0.58636
 C37 C 0.42031 0.52804 0.47948
 C38 C 0.41977 0.50871 0.53662
 C39 C 0.44567 0.49235 0.54422
 C40 C 0.47484 0.49923 0.49933
 C41 C 0.47433 0.51803 0.44229
 C42 C 0.44578 0.53021 0.43049
 C43 C 0.50599 0.48761 0.51328
 C44 C 0.52509 0.47710 0.46487
 C45 C 0.55505 0.46767 0.47902
 C46 C 0.56408 0.46563 0.54190
 C47 C 0.54491 0.47485 0.59096
 C48 C 0.51728 0.48757 0.57606
 H49 H 0.39882 0.53826 0.47159
 H50 H 0.44459 0.47643 0.58733
 H51 H 0.49614 0.52351 0.40658
 H52 H 0.51740 0.47678 0.41611
 H53 H 0.58560 0.45585 0.55224
 H54 H 0.50495 0.49785 0.61405
 O55 O 0.36165 0.62593 -0.08166
 O56 O 0.36624 0.69923 -0.10365
 C57 C 0.35315 0.72520 -0.10575
 O58 O 0.32891 0.72502 -0.06568
 O59 O 0.25994 0.65527 -0.06873
 C60 C 0.23744 0.61502 -0.06851
 O61 O 0.24195 0.59046 -0.03110
 O62 O 0.29885 0.57620 -0.06834
 C63 C 0.33139 0.59111 -0.09720
 O64 O 0.38089 0.65041 0.04058
 O65 O 0.38554 0.72392 0.01875
 C66 C 0.36761 0.73546 0.05876
 O67 O 0.33059 0.72039 0.05885
 O68 O 0.25891 0.65603 0.05696
 C69 C 0.25592 0.62902 0.09688
 O70 O 0.27101 0.60507 0.08760
 O71 O 0.32609 0.58801 0.04954
 C72 C 0.36136 0.61375 0.06390
 Cr73 Cr 0.37157 0.67394 -0.03067
 Cr74 Cr 0.29535 0.68781 -0.00492
 Cr75 Cr 0.28566 0.59215 0.00878
 O76 O 0.31778 0.65114 -0.00912
 O77 O 0.61596 0.36574 -0.01640
 O78 O 0.60980 0.29378 -0.05881
 C79 C 0.62542 0.27591 -0.09124
 O80 O 0.65919 0.28074 -0.07969
 O81 O 0.72231 0.35225 -0.10196
 C82 C 0.74155 0.39252 -0.10419
 O83 O 0.74063 0.41634 -0.06002
 O84 O 0.67444 0.41776 -0.04782
 C85 C 0.63721 0.39893 -0.04819
 O86 O 0.63203 0.34814 0.09904
 O87 O 0.62510 0.27642 0.05737
 C88 C 0.65167 0.26651 0.06742
 O89 O 0.68422 0.28292 0.03870
 O90 O 0.74852 0.35359 0.01624
 C91 C 0.75749 0.38247 0.05882
 O92 O 0.74091 0.40534 0.06429
 O93 O 0.67871 0.41366 0.07761
 C94 C 0.65302 0.38705 0.11394
 Cr95 Cr 0.62287 0.32209 0.01934
 Cr96 Cr 0.70253 0.31860 -0.03054
 Cr97 Cr 0.70751 0.41094 0.00804
 O98 O 0.67746 0.35030 -0.00117
 C99 C 0.42229 0.83076 -0.32837
 C100 C 0.41339 0.85326 -0.28417
 C101 C 0.42108 0.89482 -0.29250
 C102 C 0.43876 0.91432 -0.34893
 C103 C 0.44819 0.89215 -0.39681
 C104 C 0.43930 0.84924 -0.38582
 O105 O 0.41318 0.79178 -0.30977
 C106 C 0.39795 0.78977 -0.25273
 C107 C 0.39722 0.82658 -0.23547
 C108 C 0.38218 0.83179 -0.17857
 C109 C 0.36726 0.79765 -0.13734
 C110 C 0.36802 0.75926 -0.15292
 C111 C 0.38379 0.75532 -0.21163
 H112 H 0.41358 0.91170 -0.25682
 H113 H 0.44331 0.94621 -0.35589
 H114 H 0.44659 0.83112 -0.41957
 H115 H 0.38192 0.86113 -0.16631
 H116 H 0.35576 0.80154 -0.09251
 H117 H 0.38474 0.72649 -0.22488
 C118 C 0.14312 0.56575 -0.29710
 C119 C 0.12314 0.53565 -0.25256
 C120 C 0.08815 0.49878 -0.26523
 C121 C 0.07277 0.49291 -0.32616
 C122 C 0.09251 0.52365 -0.37373
 C123 C 0.12867 0.56050 -0.35805
 O124 O 0.17610 0.59839 -0.27563
 C125 C 0.17703 0.58853 -0.21616
 C126 C 0.14529 0.55040 -0.19975
 C127 C 0.14093 0.53318 -0.14047
 C128 C 0.17093 0.55573 -0.09676
 C129 C 0.20429 0.59491 -0.11271
 C130 C 0.20696 0.61190 -0.17305
 H131 H 0.07324 0.47521 -0.22949
 H132 H 0.04611 0.46355 -0.33615
 H133 H 0.14456 0.58578 -0.39097
 H134 H 0.11580 0.50300 -0.12876
 H135 H 0.16852 0.54229 -0.05077
 H136 H 0.23238 0.64123 -0.18698
 C137 C 0.37378 0.54416 -0.33913
 C138 C 0.35665 0.50843 -0.30264
 C139 C 0.35722 0.47099 -0.31894
 C140 C 0.37721 0.47074 -0.37411
 C141 C 0.39524 0.50718 -0.41304
 C142 C 0.39199 0.54388 -0.39603
 O143 O 0.37405 0.57795 -0.31162
 C144 C 0.35654 0.56315 -0.25680
 C145 C 0.34475 0.52058 -0.24938
 C146 C 0.32699 0.49896 -0.19460
 C147 C 0.32135 0.52224 -0.14533
 C148 C 0.33460 0.56647 -0.15106
 C149 C 0.35222 0.58714 -0.20775
 H150 H 0.34427 0.44356 -0.28882
 H151 H 0.37865 0.44204 -0.38640
 H152 H 0.40659 0.57285 -0.42282
 H153 H 0.31824 0.46553 -0.18968
 H154 H 0.30800 0.50629 -0.10193
 H155 H 0.36270 0.62096 -0.21306
 C156 C 0.58351 0.17314 -0.32400
 C157 C 0.54944 0.16812 -0.29670
 C158 C 0.51264 0.14076 -0.32182
 C159 C 0.51097 0.11756 -0.37708
 C160 C 0.54581 0.12265 -0.40622
 C161 C 0.58255 0.15105 -0.37933
 O162 O 0.61536 0.19935 -0.29171
 C163 C 0.60118 0.21132 -0.24298
 C164 C 0.56106 0.19340 -0.24389
 C165 C 0.54031 0.20172 -0.19707
 C166 C 0.56179 0.22949 -0.14731
 C167 C 0.60318 0.24777 -0.14480
 C168 C 0.62302 0.23847 -0.19366
 H169 H 0.48617 0.13698 -0.29924
 H170 H 0.48272 0.09573 -0.39725
 H171 H 0.60953 0.15491 -0.40004
 H172 H 0.50873 0.18729 -0.19870
 H173 H 0.54611 0.23615 -0.11027
 H174 H 0.65455 0.25201 -0.19345
 C175 C 0.83555 0.42511 -0.33415
 C176 C 0.84515 0.46363 -0.30509
 C177 C 0.87548 0.50223 -0.32577
 C178 C 0.89693 0.50107 -0.37852
 C179 C 0.88746 0.46181 -0.40955
 C180 C 0.85609 0.42332 -0.38733
 O181 O 0.80707 0.39201 -0.30497
 C182 C 0.79848 0.41006 -0.25646
 C183 C 0.82081 0.45381 -0.25471
 C184 C 0.81753 0.47913 -0.20722
 C185 C 0.79046 0.45853 -0.15903
 C186 C 0.76748 0.41327 -0.15865
 C187 C 0.77136 0.38878 -0.20879
 H188 H 0.88276 0.53207 -0.30158
 H189 H 0.92091 0.53064 -0.39529
 H190 H 0.84876 0.39290 -0.40968
 H191 H 0.83558 0.51350 -0.20676
 H192 H 0.78810 0.47800 -0.12132
 H193 H 0.75460 0.35427 -0.20990
 C194 C 0.59380 0.46579 -0.26197
 C195 C 0.56230 0.44807 -0.22169
 C196 C 0.52518 0.44054 -0.23834
 C197 C 0.52015 0.45106 -0.29937
 C198 C 0.55203 0.46880 -0.34245
 C199 C 0.58960 0.47702 -0.32256
 O200 O 0.62572 0.46698 -0.23889
 C201 C 0.61404 0.44938 -0.18298
 C202 C 0.57549 0.43734 -0.17016
 C203 C 0.55629 0.41511 -0.11669
 C204 C 0.57747 0.40414 -0.07529
 C205 C 0.61711 0.41550 -0.08795
 C206 C 0.63584 0.43932 -0.14201
 H207 H 0.50064 0.42563 -0.20631
 H208 H 0.49099 0.44349 -0.31381
 H209 H 0.61460 0.49037 -0.35391
 H210 H 0.52573 0.40531 -0.10820
 H211 H 0.56266 0.38585 -0.03423
 H212 H 0.66567 0.44746 -0.15388
 C213 C 0.84968 0.42200 0.28887
 C214 C 0.86494 0.40479 0.24593
 C215 C 0.89635 0.39843 0.25972
 C216 C 0.91297 0.41071 0.32000
 C217 C 0.89780 0.42864 0.36587
 C218 C 0.86520 0.43378 0.34916
 O219 O 0.82023 0.42613 0.26641
 C220 C 0.81663 0.41097 0.20798
 C221 C 0.84314 0.39728 0.19303
 C222 C 0.84389 0.37949 0.13449
 C223 C 0.81590 0.37526 0.08993
 C224 C 0.78832 0.38930 0.10435
 C225 C 0.78907 0.40774 0.16423
 H226 H 0.90778 0.38459 0.22525
 H227 H 0.93682 0.40477 0.33099
 H228 H 0.85319 0.44867 0.38063
 H229 H 0.86491 0.36876 0.12378
 H230 H 0.81565 0.36096 0.04438
 H231 H 0.76809 0.41816 0.17714
 C232 C 0.60228 0.16902 0.29831
 C233 C 0.62056 0.15210 0.26106
 C234 C 0.62356 0.11664 0.27819
 C235 C 0.60654 0.09749 0.33556
 C236 C 0.58758 0.11445 0.37555
 C237 C 0.58630 0.15146 0.35624
 O238 O 0.60072 0.20142 0.27231
 C239 C 0.61864 0.20526 0.21754
 C240 C 0.63176 0.17618 0.20847
 C241 C 0.65171 0.17502 0.15433
 C242 C 0.65847 0.20517 0.10791
 C243 C 0.64440 0.23478 0.11585
 C244 C 0.62415 0.23466 0.17149
 H245 H 0.63796 0.10372 0.24802
 H246 H 0.60923 0.07014 0.34918
 H247 H 0.57103 0.16482 0.38330
 H248 H 0.66190 0.15197 0.14823
 H249 H 0.67415 0.20512 0.06554
 H250 H 0.61355 0.25729 0.17914
 C251 C 0.58429 0.42652 0.33409
 C252 C 0.62439 0.45090 0.33757
 C253 C 0.64329 0.48110 0.38507
 C254 C 0.61991 0.48622 0.43126
 C255 C 0.57849 0.46170 0.42873
 C256 C 0.56039 0.43156 0.37914
 O257 O 0.57240 0.39972 0.28486
 C258 C 0.60572 0.40755 0.25661
 C259 C 0.63832 0.43876 0.28693
 C260 C 0.67615 0.45326 0.26440
 C261 C 0.68057 0.43526 0.20773
 C262 C 0.64749 0.40297 0.17552
 C263 C 0.60952 0.38848 0.20081
 H264 H 0.67488 0.49995 0.38663
 H265 H 0.63400 0.50952 0.46887
 H266 H 0.52885 0.41234 0.37636
 H267 H 0.70128 0.47812 0.28890
 H268 H 0.70973 0.44658 0.18867
 H269 H 0.58377 0.36443 0.17651
 C270 C 0.15724 0.56761 0.32243
 C271 C 0.15742 0.60390 0.30246
 C272 C 0.13413 0.61952 0.32937
 C273 C 0.10960 0.59681 0.37924
 C274 C 0.10924 0.55968 0.40131
 C275 C 0.13351 0.54491 0.37282
 O276 O 0.18037 0.55737 0.28827
 C277 C 0.19552 0.58798 0.24590
 C278 C 0.18250 0.61728 0.25312
 C279 C 0.19375 0.65153 0.21376
 C280 C 0.21898 0.65552 0.16405
 C281 C 0.23225 0.62522 0.15387
 C282 C 0.22073 0.59121 0.19627
 H283 H 0.13453 0.64790 0.31216
 H284 H 0.09106 0.60816 0.40106
 H285 H 0.13333 0.51636 0.38877
 H286 H 0.18306 0.67411 0.22054
 H287 H 0.22753 0.68201 0.13275
 H288 H 0.23004 0.56744 0.18977
 C289 C 0.42172 0.83664 0.29259
 C290 C 0.45332 0.84832 0.25307
 C291 C 0.49117 0.87868 0.26967
 C292 C 0.49665 0.89832 0.32919
 C293 C 0.46457 0.88723 0.37080
 C294 C 0.42657 0.85550 0.35246
 O295 O 0.38820 0.80740 0.26709
 C296 C 0.39898 0.80053 0.21033
 C297 C 0.43853 0.82478 0.19961
 C298 C 0.45630 0.82254 0.14371
 C299 C 0.43241 0.79363 0.09712
 C300 C 0.39149 0.76788 0.10689
 C301 C 0.37453 0.77182 0.16429
 H302 H 0.51554 0.88727 0.23769
 H303 H 0.52587 0.92242 0.34289
 H304 H 0.40155 0.84679 0.38303
 H305 H 0.48751 0.84200 0.13649
 H306 H 0.44592 0.79113 0.05358
 H307 H 0.34352 0.75233 0.17352
 C308 C 0.42084 0.57833 0.29259
 C309 C 0.42433 0.55459 0.24368
 C310 C 0.43607 0.52420 0.25214
 C311 C 0.44419 0.51761 0.31361
 C312 C 0.44048 0.54121 0.36549
 C313 C 0.42888 0.57237 0.35437
 O314 O 0.40758 0.60423 0.27445
 C315 C 0.40245 0.59644 0.21285
 C316 C 0.41221 0.56621 0.19180
 C317 C 0.40702 0.55130 0.12975
 C318 C 0.39085 0.56802 0.08768
 C319 C 0.38071 0.59927 0.10813
 C320 C 0.38687 0.61403 0.17143
 H321 H 0.43803 0.50547 0.21297
 H322 H 0.45197 0.49287 0.32089
 H323 H 0.42553 0.59085 0.39259
 H324 H 0.41434 0.52698 0.11461
 H325 H 0.38574 0.55636 0.03937
 H326 H 0.37848 0.63722 0.18819
   
