data_POSCAR
  _audit_creation_date              2014-09-24
  _audit_creation_method            'ToBaCCo'
  _symmetry_space_group_name_H-M    'P1'
  _symmetry_Int_Tables_number       1
  _symmetry_cell_setting            triclinic
  loop_
  _symmetry_equiv_pos_as_xyz
 x,y,z
_cell_length_a 47.5410
_cell_length_b 47.7493
_cell_length_c 47.6549
_cell_angle_alpha 90.036100
_cell_angle_beta 89.779700
_cell_angle_gamma 90.007600
loop_
  _atom_site_label
  _atom_site_type_symbol
  _atom_site_fract_x
  _atom_site_fract_y
  _atom_site_fract_z
N1 N 0.24859 0.24950 0.25152
 N2 N 0.74922 -0.25020 0.25066
 N3 N 0.74949 0.24966 0.74914
 N4 N 0.24922 -0.24966 0.75117
 N5 N 0.74943 -0.24954 0.74964
 N6 N 0.24902 0.25007 0.75079
 N7 N 0.24893 -0.25049 0.25215
 N8 N 0.74913 0.24917 0.24981
 O9 O 0.22555 0.02709 0.47409
 O10 O 0.22567 -0.02728 0.52886
 O11 O 0.22563 0.02721 0.52876
 O12 O 0.22560 -0.02742 0.47420
 O13 O 0.27199 -0.02737 0.47395
 O14 O 0.27202 0.02726 0.52850
 O15 O 0.27207 -0.02730 0.52856
 O16 O 0.27195 0.02719 0.47391
 Cu17 Cu 0.22096 -0.00010 0.50150
 Cu18 Cu 0.27665 -0.00005 0.50121
 C19 C 0.24873 0.03648 0.46463
 C20 C 0.24889 -0.03662 0.53809
 C21 C 0.24883 0.03660 0.53798
 C22 C 0.24879 -0.03676 0.46473
 O23 O 0.77284 0.02703 0.52709
 O24 O 0.77281 -0.02728 0.47219
 O25 O 0.77277 0.02718 0.47240
 O26 O 0.77284 -0.02744 0.52689
 O27 O 0.72645 -0.02730 0.52727
 O28 O 0.72637 0.02700 0.47246
 O29 O 0.72641 -0.02758 0.47270
 O30 O 0.72645 0.02729 0.52703
 Cu31 Cu 0.77746 -0.00013 0.49962
 Cu32 Cu 0.72177 -0.00015 0.49989
 C33 C 0.74965 0.03652 0.53641
 C34 C 0.74960 -0.03678 0.46308
 C35 C 0.74956 0.03642 0.46306
 C36 C 0.74965 -0.03671 0.53644
 O37 O 0.47155 0.22610 0.02771
 O38 O 0.52640 0.22599 -0.02706
 O39 O 0.52635 0.22599 0.02754
 O40 O 0.47160 0.22614 -0.02690
 O41 O 0.47177 0.27233 -0.02689
 O42 O 0.52640 0.27218 0.02764
 O43 O 0.52651 0.27218 -0.02702
 O44 O 0.47168 0.27229 0.02778
 Cu45 Cu 0.49896 0.22143 0.00032
 Cu46 Cu 0.49910 0.27687 0.00038
 C47 C 0.46222 0.24921 0.03714
 C48 C 0.53586 0.24907 -0.03642
 C49 C 0.53575 0.24907 0.03693
 C50 C 0.46231 0.24927 -0.03623
 O51 O 0.52660 0.77320 0.02816
 O52 O 0.47178 0.77330 -0.02623
 O53 O 0.47181 0.77316 0.02838
 O54 O 0.52658 0.77333 -0.02645
 O55 O 0.52657 0.72714 -0.02661
 O56 O 0.47183 0.72698 0.02824
 O57 O 0.47185 0.72711 -0.02642
 O58 O 0.52657 0.72701 0.02806
 Cu59 Cu 0.49919 0.77787 0.00098
 Cu60 Cu 0.49921 0.72243 0.00081
 C61 C 0.53596 0.75008 0.03745
 C62 C 0.46243 0.75022 -0.03566
 C63 C 0.46243 0.75004 0.03771
 C64 C 0.53596 0.75026 -0.03593
 O65 O 0.02618 0.47239 0.22839
 O66 O -0.02839 0.52712 0.22825
 O67 O 0.02631 0.52694 0.22855
 O68 O -0.02855 0.47252 0.22807
 O69 O -0.02890 0.47231 0.27435
 O70 O 0.02576 0.52694 0.27483
 O71 O -0.02907 0.52677 0.27454
 O72 O 0.02588 0.47242 0.27467
 Cu73 Cu -0.00107 0.49975 0.22368
 Cu74 Cu -0.00162 0.49960 0.27923
 C75 C 0.03541 0.46305 0.25155
 C76 C -0.03811 0.53628 0.25137
 C77 C 0.03542 0.53628 0.25176
 C78 C -0.03810 0.46306 0.25113
 O79 O 0.02636 0.52743 0.77301
 O80 O -0.02847 0.47295 0.77259
 O81 O 0.02626 0.47287 0.77293
 O82 O -0.02835 0.52751 0.77272
 O83 O -0.02797 0.52753 0.72644
 O84 O 0.02676 0.47297 0.72665
 O85 O -0.02804 0.47302 0.72631
 O86 O 0.02682 0.52747 0.72673
 Cu87 Cu -0.00109 0.50018 0.77745
 Cu88 Cu -0.00056 0.50025 0.72189
 C89 C 0.03599 0.53679 0.74994
 C90 C -0.03766 0.46365 0.74937
 C91 C 0.03588 0.46356 0.74982
 C92 C -0.03753 0.53688 0.74955
 C93 C 0.31208 0.24941 0.18786
 C94 C 0.29943 0.22422 0.19656
 C95 C 0.27865 0.22426 0.21737
 C96 C 0.27009 0.24946 0.22999
 C97 C 0.28272 0.27463 0.22136
 C98 C 0.30346 0.27462 0.20051
 C99 C 0.33415 0.24938 0.16568
 C100 C 0.35771 0.26705 0.16780
 C101 C 0.37844 0.26705 0.14693
 C102 C 0.37613 0.24933 0.12349
 C103 C 0.35262 0.23164 0.12138
 C104 C 0.33185 0.23169 0.14221
 C105 C 0.39818 0.24930 0.10135
 C106 C 0.40754 0.22400 0.08948
 C107 C 0.42835 0.22396 0.06868
 C108 C 0.44019 0.24924 0.05920
 C109 C 0.43077 0.27456 0.07103
 C110 C 0.41004 0.27458 0.09191
 H111 H 0.30584 0.20441 0.18750
 H112 H 0.26911 0.20462 0.22358
 H113 H 0.27656 0.29430 0.23089
 H114 H 0.31252 0.29441 0.19405
 H115 H 0.36036 0.28058 0.18584
 H116 H 0.39653 0.28061 0.14935
 H117 H 0.35005 0.21806 0.10336
 H118 H 0.31374 0.21817 0.13971
 H119 H 0.39903 0.20418 0.09656
 H120 H 0.43517 0.20410 0.06004
 H121 H 0.43942 0.29439 0.06417
 H122 H 0.40302 0.29442 0.10042
 C123 C 0.68594 0.74986 0.18732
 C124 C 0.67904 0.75615 0.21535
 C125 C 0.69976 0.75615 0.23606
 C126 C 0.72781 0.74982 0.22923
 C127 C 0.73474 0.74351 0.20126
 C128 C 0.71405 0.74356 0.18052
 C129 C 0.66391 0.74989 0.16527
 C130 C 0.66392 0.72942 0.14405
 C131 C 0.64321 0.72946 0.12331
 C132 C 0.62198 0.74995 0.12331
 C133 C 0.62197 0.77041 0.14453
 C134 C 0.64269 0.77039 0.16525
 C135 C 0.59994 0.74998 0.10126
 C136 C 0.59045 0.77529 0.08959
 C137 C 0.56969 0.77533 0.06890
 C138 C 0.55797 0.75004 0.05936
 C139 C 0.56748 0.72473 0.07099
 C140 C 0.58820 0.72470 0.09172
 H141 H 0.65753 0.76066 0.22136
 H142 H 0.69388 0.76078 0.25754
 H143 H 0.75628 0.73886 0.19545
 H144 H 0.72013 0.73906 0.15907
 H145 H 0.67978 0.71316 0.14364
 H146 H 0.64401 0.71359 0.10709
 H147 H 0.60573 0.78630 0.14531
 H148 H 0.64226 0.78664 0.18111
 H149 H 0.59935 0.79509 0.09618
 H150 H 0.56292 0.79519 0.06030
 H151 H 0.55881 0.70489 0.06419
 H152 H 0.59475 0.70488 0.10056
 C153 C 0.68634 0.24898 -0.18692
 C154 C 0.67935 0.24319 -0.21498
 C155 C 0.70004 0.24336 -0.23588
 C156 C 0.72814 0.24937 -0.22921
 C157 C 0.73519 0.25510 -0.20120
 C158 C 0.71452 0.25490 -0.18027
 C159 C 0.66431 0.24890 -0.16470
 C160 C 0.66450 0.26915 -0.14328
 C161 C 0.64373 0.26914 -0.12245
 C162 C 0.62226 0.24889 -0.12255
 C163 C 0.62210 0.22862 -0.14395
 C164 C 0.64288 0.22862 -0.16478
 C165 C 0.60012 0.24893 -0.10044
 C166 C 0.59032 0.22364 -0.08890
 C167 C 0.56946 0.22368 -0.06816
 C168 C 0.55795 0.24902 -0.05843
 C169 C 0.56776 0.27431 -0.06994
 C170 C 0.58858 0.27427 -0.09072
 H171 H 0.65779 0.23897 -0.22087
 H172 H 0.69409 0.23914 -0.25738
 H173 H 0.75677 0.25948 -0.19552
 H174 H 0.72066 0.25901 -0.15880
 H175 H 0.68054 0.28524 -0.14280
 H176 H 0.64464 0.28485 -0.10608
 H177 H 0.60569 0.21292 -0.14481
 H178 H 0.64231 0.21254 -0.18080
 H179 H 0.59906 0.20380 -0.09565
 H180 H 0.56246 0.20384 -0.05965
 H181 H 0.55925 0.29419 -0.06299
 H182 H 0.59538 0.29408 -0.09946
 C183 C 0.31249 0.75037 -0.18547
 C184 C 0.30392 0.72517 -0.19808
 C185 C 0.28326 0.72518 -0.21885
 C186 C 0.27065 0.75035 -0.22739
 C187 C 0.27916 0.77554 -0.21477
 C188 C 0.29990 0.77557 -0.19407
 C189 C 0.33448 0.75038 -0.16344
 C190 C 0.35552 0.77105 -0.16321
 C191 C 0.37626 0.77102 -0.14251
 C192 C 0.37639 0.75036 -0.12150
 C193 C 0.35530 0.72972 -0.12171
 C194 C 0.33461 0.72970 -0.14247
 C195 C 0.39844 0.75033 -0.09946
 C196 C 0.41028 0.72503 -0.09014
 C197 C 0.43101 0.72499 -0.06941
 C198 C 0.44043 0.75026 -0.05758
 C199 C 0.42861 0.77557 -0.06691
 C200 C 0.40784 0.77559 -0.08759
 H201 H 0.31351 0.70548 -0.19217
 H202 H 0.27725 0.70554 -0.22849
 H203 H 0.26953 0.79518 -0.22079
 H204 H 0.30580 0.79527 -0.18447
 H205 H 0.35621 0.78701 -0.17934
 H206 H 0.39247 0.78694 -0.14321
 H207 H 0.35452 0.71379 -0.10557
 H208 H 0.31842 0.71376 -0.14186
 H209 H 0.40380 0.70524 -0.09914
 H210 H 0.43976 0.70514 -0.06278
 H211 H 0.43532 0.79539 -0.05814
 H212 H 0.39887 0.79541 -0.09401
 C213 C 0.18516 0.31284 0.25168
 C214 C 0.19771 0.30418 0.27691
 C215 C 0.21847 0.28347 0.27684
 C216 C 0.22710 0.27091 0.25158
 C217 C 0.21456 0.27949 0.22637
 C218 C 0.19385 0.30025 0.22641
 C219 C 0.16312 0.33491 0.25172
 C220 C 0.13964 0.33276 0.23400
 C221 C 0.11896 0.35356 0.23397
 C222 C 0.12124 0.37696 0.25171
 C223 C 0.14466 0.37910 0.26948
 C224 C 0.16539 0.35834 0.26946
 C225 C 0.09927 0.39905 0.25168
 C226 C 0.08977 0.41090 0.27700
 C227 C 0.06902 0.43164 0.27697
 C228 C 0.05739 0.44107 0.25160
 C229 C 0.06695 0.42926 0.22627
 C230 C 0.08762 0.40845 0.22632
 H231 H 0.19125 0.31320 0.29676
 H232 H 0.22794 0.27730 0.29652
 H233 H 0.22077 0.27001 0.20666
 H234 H 0.18487 0.30668 0.20659
 H235 H 0.13701 0.31475 0.22044
 H236 H 0.10094 0.35112 0.22036
 H237 H 0.14720 0.39709 0.28308
 H238 H 0.18343 0.36087 0.28302
 H239 H 0.09813 0.40385 0.29689
 H240 H 0.06210 0.44027 0.29684
 H241 H 0.05846 0.43609 0.20636
 H242 H 0.09475 0.39995 0.20646
 C243 C 0.18598 0.68680 0.75089
 C244 C 0.19448 0.69933 0.77620
 C245 C 0.21515 0.72013 0.77628
 C246 C 0.22782 0.72884 0.75108
 C247 C 0.21939 0.71633 0.72579
 C248 C 0.19868 0.69557 0.72568
 C249 C 0.16396 0.66470 0.75079
 C250 C 0.16638 0.64133 0.73298
 C251 C 0.14564 0.62059 0.73283
 C252 C 0.12204 0.62268 0.75055
 C253 C 0.11963 0.64600 0.76840
 C254 C 0.14032 0.66679 0.76849
 C255 C 0.10002 0.60064 0.75040
 C256 C 0.08802 0.59116 0.77566
 C257 C 0.06730 0.57040 0.77552
 C258 C 0.05802 0.55872 0.75010
 C259 C 0.07000 0.56824 0.72483
 C260 C 0.09080 0.58893 0.72499
 H261 H 0.18538 0.69281 0.79601
 H262 H 0.22121 0.72957 0.79601
 H263 H 0.22896 0.72260 0.70612
 H264 H 0.19236 0.68661 0.70581
 H265 H 0.18455 0.63886 0.71943
 H266 H 0.14829 0.60265 0.71915
 H267 H 0.10147 0.64840 0.78198
 H268 H 0.13759 0.68474 0.78212
 H269 H 0.09494 0.59956 0.79559
 H270 H 0.05854 0.56350 0.79536
 H271 H 0.06329 0.55972 0.70488
 H272 H 0.09941 0.59605 0.70517
 C273 C -0.18779 0.68623 0.25110
 C274 C -0.21621 0.67924 0.24708
 C275 C -0.23684 0.70008 0.24685
 C276 C -0.22948 0.72827 0.25086
 C277 C -0.20113 0.73527 0.25507
 C278 C -0.18046 0.71447 0.25506
 C279 C -0.16585 0.66416 0.25112
 C280 C -0.14043 0.66813 0.23653
 C281 C -0.11979 0.64729 0.23645
 C282 C -0.12405 0.62215 0.25117
 C283 C -0.14942 0.61823 0.26587
 C284 C -0.17017 0.63896 0.26574
 C285 C -0.10208 0.60011 0.25122
 C286 C -0.09491 0.58631 0.27621
 C287 C -0.07407 0.56567 0.27629
 C288 C -0.06012 0.55821 0.25132
 C289 C -0.06741 0.57193 0.22629
 C290 C -0.08808 0.59275 0.22627
 H291 H -0.22242 0.65767 0.24374
 H292 H -0.25861 0.69425 0.24371
 H293 H -0.19502 0.75690 0.25811
 H294 H -0.15875 0.72042 0.25848
 H295 H -0.13665 0.68726 0.22490
 H296 H -0.10034 0.65096 0.22513
 H297 H -0.15334 0.59896 0.27721
 H298 H -0.18948 0.63545 0.27734
 H299 H -0.10517 0.59177 0.29579
 H300 H -0.06894 0.55548 0.29592
 H301 H -0.05706 0.56667 0.20670
 H302 H -0.09339 0.60286 0.20665
 C303 C -0.18767 0.31355 0.74851
 C304 C -0.21591 0.32016 0.75439
 C305 C -0.23648 0.29925 0.75456
 C306 C -0.22928 0.27130 0.74883
 C307 C -0.20111 0.26467 0.74284
 C308 C -0.18052 0.28556 0.74271
 C309 C -0.16575 0.33574 0.74851
 C310 C -0.14417 0.33571 0.72826
 C311 C -0.12347 0.35649 0.72836
 C312 C -0.12386 0.37782 0.74871
 C313 C -0.14547 0.37788 0.76893
 C314 C -0.16616 0.35709 0.76884
 C315 C -0.10179 0.39987 0.74888
 C316 C -0.09046 0.40951 0.77432
 C317 C -0.06969 0.43022 0.77449
 C318 C -0.05972 0.44175 0.74920
 C319 C -0.07103 0.43211 0.72375
 C320 C -0.09184 0.41143 0.72360
 H321 H -0.22219 0.34157 0.75850
 H322 H -0.25812 0.30489 0.75891
 H323 H -0.19503 0.24322 0.73862
 H324 H -0.15891 0.27970 0.73851
 H325 H -0.14343 0.31974 0.71213
 H326 H -0.10695 0.35567 0.71268
 H327 H -0.14655 0.39419 0.78470
 H328 H -0.18231 0.35754 0.78492
 H329 H -0.09739 0.40075 0.79413
 H330 H -0.06134 0.43710 0.79445
 H331 H -0.06389 0.44063 0.70391
 H332 H -0.10040 0.40475 0.70367
 C333 C 0.24856 0.18624 0.31482
 C334 C 0.22323 0.19494 0.30242
 C335 C 0.22326 0.21561 0.28168
 C336 C 0.24857 0.22810 0.27296
 C337 C 0.27388 0.21948 0.28539
 C338 C 0.27388 0.19874 0.30605
 C339 C 0.24855 0.16422 0.33680
 C340 C 0.26926 0.14322 0.33682
 C341 C 0.26925 0.12248 0.35749
 C342 C 0.24858 0.12230 0.37867
 C343 C 0.22789 0.14334 0.37865
 C344 C 0.22786 0.16404 0.35792
 C345 C 0.24861 0.10027 0.40071
 C346 C 0.22323 0.08848 0.41027
 C347 C 0.22326 0.06781 0.43102
 C348 C 0.24869 0.05839 0.44265
 C349 C 0.27407 0.07014 0.43307
 C350 C 0.27403 0.09086 0.41237
 H351 H 0.20344 0.18543 0.30846
 H352 H 0.20353 0.22170 0.27219
 H353 H 0.29361 0.22902 0.27922
 H354 H 0.29367 0.19275 0.31549
 H355 H 0.28522 0.14258 0.32056
 H356 H 0.28519 0.10631 0.35664
 H357 H 0.21196 0.14407 0.39493
 H358 H 0.21188 0.18019 0.35870
 H359 H 0.20332 0.09498 0.40144
 H360 H 0.20335 0.05910 0.43785
 H361 H 0.29402 0.06344 0.44167
 H362 H 0.29391 0.09980 0.40576
 C363 C 0.74972 0.18639 0.68595
 C364 C 0.75322 0.21471 0.67869
 C365 C 0.75327 0.23542 0.69942
 C366 C 0.74960 0.22825 0.72776
 C367 C 0.74600 0.19999 0.73504
 C368 C 0.74617 0.17924 0.71435
 C369 C 0.74975 0.16439 0.66397
 C370 C 0.76472 0.13933 0.66791
 C371 C 0.76481 0.11864 0.64716
 C372 C 0.74973 0.12246 0.62215
 C373 C 0.73467 0.14747 0.61826
 C374 C 0.73478 0.16827 0.63891
 C375 C 0.74971 0.10044 0.60019
 C376 C 0.72461 0.09289 0.58669
 C377 C 0.72456 0.07205 0.56607
 C378 C 0.74967 0.05849 0.55835
 C379 C 0.77480 0.06613 0.57179
 C380 C 0.77479 0.08680 0.59258
 H381 H 0.75626 0.22078 0.65700
 H382 H 0.75597 0.25712 0.69338
 H383 H 0.74325 0.19403 0.75679
 H384 H 0.74317 0.15761 0.72051
 H385 H 0.77662 0.13589 0.68693
 H386 H 0.77642 0.09947 0.65080
 H387 H 0.72306 0.15106 0.59909
 H388 H 0.72287 0.18728 0.63542
 H389 H 0.70493 0.10287 0.59234
 H390 H 0.70486 0.06665 0.55611
 H391 H 0.79449 0.05608 0.56633
 H392 H 0.79449 0.09241 0.60245
 C393 C 0.24915 -0.18628 0.68801
 C394 C 0.22383 -0.19506 0.70055
 C395 C 0.22387 -0.21575 0.72126
 C396 C 0.24920 -0.22818 0.72981
 C397 C 0.27451 -0.21945 0.71728
 C398 C 0.27450 -0.19868 0.69663
 C399 C 0.24912 -0.16428 0.66601
 C400 C 0.26976 -0.14321 0.66583
 C401 C 0.26970 -0.12248 0.64513
 C402 C 0.24905 -0.12239 0.62410
 C403 C 0.22843 -0.14350 0.62428
 C404 C 0.22844 -0.16418 0.64501
 C405 C 0.24901 -0.10037 0.60206
 C406 C 0.22359 -0.08867 0.59269
 C407 C 0.22355 -0.06801 0.57193
 C408 C 0.24894 -0.05852 0.56009
 C409 C 0.27436 -0.07018 0.56947
 C410 C 0.27440 -0.09088 0.59019
 H411 H 0.20402 -0.18562 0.69462
 H412 H 0.20414 -0.22193 0.73084
 H413 H 0.29426 -0.22894 0.72332
 H414 H 0.29429 -0.19262 0.68709
 H415 H 0.28570 -0.14249 0.68198
 H416 H 0.28560 -0.10626 0.64587
 H417 H 0.21251 -0.14430 0.60811
 H418 H 0.21252 -0.18039 0.64436
 H419 H 0.20371 -0.09523 0.60169
 H420 H 0.20360 -0.05938 0.56526
 H421 H 0.29428 -0.06341 0.56069
 H422 H 0.29431 -0.09974 0.59665
 C423 C 0.74958 -0.18668 0.31360
 C424 C 0.75347 -0.21493 0.32088
 C425 C 0.75351 -0.23571 0.30023
 C426 C 0.74939 -0.22869 0.27194
 C427 C 0.74544 -0.20049 0.26463
 C428 C 0.74564 -0.17966 0.28524
 C429 C 0.74957 -0.16463 0.33552
 C430 C 0.76427 -0.13944 0.33129
 C431 C 0.76438 -0.11872 0.35202
 C432 C 0.74956 -0.12265 0.37728
 C433 C 0.73474 -0.14778 0.38145
 C434 C 0.73485 -0.16861 0.36083
 C435 C 0.74957 -0.10062 0.39923
 C436 C 0.72452 -0.09324 0.41312
 C437 C 0.72450 -0.07242 0.43375
 C438 C 0.74959 -0.05872 0.44112
 C439 C 0.77466 -0.06620 0.42729
 C440 C 0.77462 -0.08684 0.40648
 H441 H 0.75682 -0.22090 0.34254
 H442 H 0.75650 -0.25735 0.30630
 H443 H 0.74238 -0.19464 0.24291
 H444 H 0.74235 -0.15809 0.27908
 H445 H 0.77597 -0.13592 0.31207
 H446 H 0.77579 -0.09946 0.34818
 H447 H 0.72333 -0.15145 0.40081
 H448 H 0.72315 -0.18772 0.36453
 H449 H 0.70486 -0.10333 0.40775
 H450 H 0.70484 -0.06715 0.44402
 H451 H 0.79433 -0.05603 0.43247
 H452 H 0.79427 -0.09231 0.39630
 C453 C 0.68591 0.75053 -0.18676
 C454 C 0.69451 0.72532 -0.19944
 C455 C 0.71526 0.72532 -0.22028
 C456 C 0.72792 0.75049 -0.22886
 C457 C 0.71937 0.77568 -0.21621
 C458 C 0.69858 0.77572 -0.19542
 C459 C 0.66384 0.75053 -0.16459
 C460 C 0.66618 0.76816 -0.14107
 C461 C 0.64542 0.76816 -0.12023
 C462 C 0.62190 0.75048 -0.12239
 C463 C 0.61956 0.73284 -0.14587
 C464 C 0.64027 0.73289 -0.16676
 C465 C 0.59989 0.75043 -0.10021
 C466 C 0.58808 0.72511 -0.09083
 C467 C 0.56739 0.72505 -0.06992
 C468 C 0.55795 0.75032 -0.05801
 C469 C 0.56974 0.77564 -0.06744
 C470 C 0.59051 0.77569 -0.08827
 H471 H 0.68544 0.70553 -0.19301
 H472 H 0.72141 0.70566 -0.22983
 H473 H 0.72893 0.79533 -0.22239
 H474 H 0.69219 0.79552 -0.18633
 H475 H 0.68430 0.78165 -0.13854
 H476 H 0.64800 0.78168 -0.10217
 H477 H 0.60146 0.71930 -0.14832
 H478 H 0.63760 0.71941 -0.18483
 H479 H 0.59513 0.70530 -0.09940
 H480 H 0.55878 0.70518 -0.06310
 H481 H 0.56290 0.79547 -0.05874
 H482 H 0.59899 0.79554 -0.09531
 C483 C 0.31225 0.24983 -0.18585
 C484 C 0.29959 0.22467 -0.19450
 C485 C 0.27885 0.22477 -0.21519
 C486 C 0.27040 0.24999 -0.22774
 C487 C 0.28307 0.27514 -0.21915
 C488 C 0.30373 0.27507 -0.19838
 C489 C 0.33427 0.24973 -0.16386
 C490 C 0.33446 0.27035 -0.14281
 C491 C 0.35518 0.27024 -0.12209
 C492 C 0.37623 0.24956 -0.12199
 C493 C 0.37604 0.22897 -0.14309
 C494 C 0.35527 0.22903 -0.16376
 C495 C 0.39830 0.24948 -0.09999
 C496 C 0.40764 0.22416 -0.08822
 C497 C 0.42842 0.22409 -0.06756
 C498 C 0.44031 0.24934 -0.05815
 C499 C 0.43096 0.27466 -0.06988
 C500 C 0.41022 0.27473 -0.09059
 H501 H 0.30544 0.20495 -0.18496
 H502 H 0.26917 0.20517 -0.22126
 H503 H 0.27711 0.29480 -0.22874
 H504 H 0.31338 0.29473 -0.19242
 H505 H 0.31830 0.28632 -0.14211
 H506 H 0.35446 0.28612 -0.10587
 H507 H 0.39222 0.21303 -0.14388
 H508 H 0.35591 0.21312 -0.17996
 H509 H 0.39860 0.20439 -0.09471
 H510 H 0.43507 0.20422 -0.05887
 H511 H 0.43977 0.29447 -0.06318
 H512 H 0.40379 0.29456 -0.09951
 C513 C 0.31232 0.74960 0.18848
 C514 C 0.31931 0.75501 0.21661
 C515 C 0.29855 0.75498 0.23745
 C516 C 0.27038 0.74952 0.23061
 C517 C 0.26334 0.74410 0.20254
 C518 C 0.28408 0.74414 0.18169
 C519 C 0.33438 0.74966 0.16632
 C520 C 0.33401 0.72962 0.14470
 C521 C 0.35476 0.72968 0.12384
 C522 C 0.37636 0.74978 0.12412
 C523 C 0.37673 0.76982 0.14574
 C524 C 0.35598 0.76976 0.16659
 C525 C 0.39842 0.74985 0.10195
 C526 C 0.40826 0.77520 0.09059
 C527 C 0.42903 0.77527 0.06976
 C528 C 0.44042 0.74998 0.05978
 C529 C 0.43057 0.72462 0.07112
 C530 C 0.40983 0.72456 0.09197
 H531 H 0.34092 0.75886 0.22260
 H532 H 0.30448 0.75893 0.25900
 H533 H 0.24171 0.74012 0.19676
 H534 H 0.27795 0.74032 0.16016
 H535 H 0.31783 0.71367 0.14406
 H536 H 0.35370 0.71416 0.10731
 H537 H 0.39325 0.78539 0.14672
 H538 H 0.35669 0.78566 0.18278
 H539 H 0.39962 0.79502 0.09755
 H540 H 0.43608 0.79516 0.06140
 H541 H 0.43898 0.70477 0.06397
 H542 H 0.40298 0.70470 0.10056
 C543 C 0.68584 0.24902 0.18650
 C544 C 0.69439 0.27425 0.19908
 C545 C 0.71506 0.27428 0.21984
 C546 C 0.72771 0.24912 0.22837
 C547 C 0.71923 0.22391 0.21577
 C548 C 0.69847 0.22385 0.19509
 C549 C 0.66384 0.24898 0.16450
 C550 C 0.64279 0.22831 0.16435
 C551 C 0.62202 0.22832 0.14368
 C552 C 0.62187 0.24895 0.12264
 C553 C 0.64298 0.26957 0.12277
 C554 C 0.66370 0.26961 0.14349
 C555 C 0.59978 0.24897 0.10066
 C556 C 0.58793 0.27426 0.09134
 C557 C 0.56719 0.27430 0.07065
 C558 C 0.55775 0.24902 0.05884
 C559 C 0.56955 0.22372 0.06817
 C560 C 0.59034 0.22369 0.08882
 H561 H 0.68476 0.29392 0.19316
 H562 H 0.72104 0.29393 0.22946
 H563 H 0.72889 0.20430 0.22180
 H564 H 0.69259 0.20414 0.18551
 H565 H 0.64212 0.21239 0.18051
 H566 H 0.60579 0.21242 0.14445
 H567 H 0.64374 0.28547 0.10660
 H568 H 0.67989 0.28555 0.14282
 H569 H 0.59444 0.29406 0.10032
 H570 H 0.55845 0.29415 0.06401
 H571 H 0.56283 0.20389 0.05942
 H572 H 0.59932 0.20388 0.09525
 C573 C -0.18729 0.68705 0.74945
 C574 C -0.19976 0.69575 0.72422
 C575 C -0.22050 0.71648 0.72429
 C576 C -0.22912 0.72902 0.74956
 C577 C -0.21661 0.72040 0.77478
 C578 C -0.19595 0.69959 0.77473
 C579 C -0.16533 0.66496 0.74940
 C580 C -0.16537 0.64395 0.77003
 C581 C -0.14470 0.62314 0.77000
 C582 C -0.12347 0.62292 0.74938
 C583 C -0.12344 0.64396 0.72875
 C584 C -0.14416 0.66472 0.72874
 C585 C -0.10143 0.60085 0.74941
 C586 C -0.09187 0.58903 0.72409
 C587 C -0.07111 0.56829 0.72412
 C588 C -0.05950 0.55886 0.74949
 C589 C -0.06908 0.57064 0.77482
 C590 C -0.08978 0.59142 0.77477
 H591 H -0.19378 0.68620 0.70446
 H592 H -0.23005 0.72258 0.70463
 H593 H -0.22270 0.72999 0.79448
 H594 H -0.18645 0.69360 0.79445
 H595 H -0.18166 0.64335 0.78596
 H596 H -0.14560 0.60696 0.78589
 H597 H -0.10713 0.64465 0.71286
 H598 H -0.14336 0.68088 0.71282
 H599 H -0.10070 0.59554 0.70423
 H600 H -0.06428 0.55957 0.70426
 H601 H -0.06048 0.56393 0.79472
 H602 H -0.09639 0.60038 0.79460
 C603 C -0.18775 0.31276 0.25010
 C604 C -0.20040 0.30398 0.27531
 C605 C -0.22110 0.28321 0.27520
 C606 C -0.22951 0.27071 0.24990
 C607 C -0.21686 0.27943 0.22470
 C608 C -0.19623 0.30028 0.22478
 C609 C -0.16578 0.33485 0.25021
 C610 C -0.16564 0.35593 0.22965
 C611 C -0.14498 0.37676 0.22980
 C612 C -0.12396 0.37693 0.25047
 C613 C -0.12410 0.35580 0.27100
 C614 C -0.14480 0.33502 0.27090
 C615 C -0.10198 0.39906 0.25063
 C616 C -0.09275 0.41078 0.27605
 C617 C -0.07202 0.43153 0.27621
 C618 C -0.06009 0.44110 0.25095
 C619 C -0.06935 0.42944 0.22552
 C620 C -0.09003 0.40864 0.22537
 H621 H -0.19457 0.31348 0.29510
 H622 H -0.23077 0.27703 0.29485
 H623 H -0.22280 0.26989 0.20498
 H624 H -0.18660 0.30635 0.20508
 H625 H -0.18178 0.35657 0.21370
 H626 H -0.14574 0.39299 0.21397
 H627 H -0.10794 0.35507 0.28693
 H628 H -0.14413 0.31881 0.28676
 H629 H -0.10182 0.40416 0.29584
 H630 H -0.06545 0.44017 0.29615
 H631 H -0.06050 0.43626 0.20570
 H632 H -0.09639 0.39977 0.20546
 C633 C 0.18581 0.31360 0.75054
 C634 C 0.19855 0.30486 0.72533
 C635 C 0.21926 0.28411 0.72543
 C636 C 0.22765 0.27159 0.75071
 C637 C 0.21495 0.28028 0.77590
 C638 C 0.19428 0.30108 0.77583
 C639 C 0.16378 0.33567 0.75044
 C640 C 0.14010 0.33352 0.76807
 C641 C 0.11939 0.35428 0.76799
 C642 C 0.12184 0.37764 0.75023
 C643 C 0.14548 0.37980 0.73257
 C644 C 0.16623 0.35907 0.73270
 C645 C 0.09982 0.39967 0.75012
 C646 C 0.09064 0.41143 0.72473
 C647 C 0.06985 0.43213 0.72463
 C648 C 0.05787 0.44160 0.74992
 C649 C 0.06711 0.42987 0.77532
 C650 C 0.08781 0.40910 0.77540
 H651 H 0.19226 0.31384 0.70546
 H652 H 0.22886 0.27785 0.70576
 H653 H 0.22098 0.27083 0.79563
 H654 H 0.18514 0.30757 0.79564
 H655 H 0.13735 0.31554 0.78164
 H656 H 0.10121 0.35184 0.78152
 H657 H 0.14815 0.39776 0.71896
 H658 H 0.18444 0.36159 0.71921
 H659 H 0.09927 0.40435 0.70490
 H660 H 0.06317 0.44070 0.70470
 H661 H 0.05834 0.43673 0.79517
 H662 H 0.09471 0.40066 0.79531
 C663 C 0.18567 0.68606 0.25248
 C664 C 0.17860 0.71417 0.25781
 C665 C 0.19932 0.73492 0.25774
 C666 C 0.22753 0.72803 0.25231
 C667 C 0.23465 0.69999 0.24700
 C668 C 0.21395 0.67921 0.24709
 C669 C 0.16364 0.66399 0.25247
 C670 C 0.16418 0.64242 0.23239
 C671 C 0.14343 0.62170 0.23233
 C672 C 0.12163 0.62206 0.25234
 C673 C 0.12110 0.64362 0.27243
 C674 C 0.14186 0.66434 0.27250
 C675 C 0.09952 0.60007 0.25221
 C676 C 0.08938 0.58874 0.27752
 C677 C 0.06857 0.56805 0.27738
 C678 C 0.05745 0.55821 0.25193
 C679 C 0.06759 0.56954 0.22662
 C680 C 0.08837 0.59024 0.22677
 H681 H 0.15696 0.72019 0.26161
 H682 H 0.19332 0.75646 0.26160
 H683 H 0.25632 0.69417 0.24305
 H684 H 0.22015 0.65771 0.24334
 H685 H 0.18050 0.64173 0.21649
 H686 H 0.14461 0.60521 0.21676
 H687 H 0.10443 0.64466 0.28794
 H688 H 0.14102 0.68050 0.28843
 H689 H 0.09781 0.59559 0.29745
 H690 H 0.06129 0.55970 0.29724
 H691 H 0.05939 0.56250 0.20666
 H692 H 0.09544 0.59883 0.20693
 C693 C 0.74958 -0.18632 0.68629
 C694 C 0.72423 -0.19881 0.69504
 C695 C 0.72420 -0.21952 0.71574
 C696 C 0.74948 -0.22814 0.72820
 C697 C 0.77481 -0.21566 0.71952
 C698 C 0.77487 -0.19500 0.69877
 C699 C 0.74963 -0.16433 0.66424
 C700 C 0.76744 -0.14093 0.66641
 C701 C 0.76750 -0.12026 0.64567
 C702 C 0.74968 -0.12247 0.62231
 C703 C 0.73184 -0.14583 0.62013
 C704 C 0.73185 -0.16655 0.64084
 C705 C 0.74968 -0.10048 0.60031
 C706 C 0.72427 -0.09105 0.58869
 C707 C 0.72425 -0.07032 0.56801
 C708 C 0.74967 -0.05863 0.55841
 C709 C 0.77509 -0.06810 0.57001
 C710 C 0.77508 -0.08876 0.59077
 H711 H 0.70436 -0.19236 0.68611
 H712 H 0.70443 -0.22894 0.72200
 H713 H 0.79454 -0.22187 0.72893
 H714 H 0.79478 -0.18606 0.69226
 H715 H 0.78105 -0.13836 0.68440
 H716 H 0.78117 -0.10229 0.64812
 H717 H 0.71819 -0.14832 0.60217
 H718 H 0.71822 -0.18453 0.63829
 H719 H 0.70435 -0.09946 0.59586
 H720 H 0.70431 -0.06345 0.55954
 H721 H 0.79503 -0.05956 0.56305
 H722 H 0.79501 -0.09584 0.59911
 C723 C 0.24877 -0.18700 0.31524
 C724 C 0.24348 -0.21511 0.32232
 C725 C 0.24351 -0.23588 0.30166
 C726 C 0.24885 -0.22901 0.27350
 C727 C 0.25413 -0.20096 0.26637
 C728 C 0.25408 -0.18017 0.28701
 C729 C 0.24876 -0.16491 0.33720
 C730 C 0.26883 -0.14330 0.33662
 C731 C 0.26883 -0.12252 0.35728
 C732 C 0.24875 -0.12286 0.37901
 C733 C 0.22867 -0.14447 0.37959
 C734 C 0.22868 -0.16525 0.35893
 C735 C 0.24876 -0.10077 0.40098
 C736 C 0.22333 -0.08947 0.41098
 C737 C 0.22333 -0.06871 0.43167
 C738 C 0.24878 -0.05875 0.44281
 C739 C 0.27421 -0.07004 0.43280
 C740 C 0.27420 -0.09082 0.41214
 H741 H 0.23973 -0.22111 0.34392
 H742 H 0.23967 -0.25741 0.30766
 H743 H 0.25801 -0.19516 0.24474
 H744 H 0.25780 -0.15867 0.28082
 H745 H 0.28477 -0.14262 0.32034
 H746 H 0.28439 -0.10600 0.35607
 H747 H 0.21312 -0.14549 0.39621
 H748 H 0.21275 -0.18144 0.35980
 H749 H 0.20339 -0.09641 0.40254
 H750 H 0.20337 -0.06038 0.43885
 H751 H 0.29418 -0.06291 0.44101
 H752 H 0.29413 -0.09937 0.40516
 C753 C 0.74923 0.18587 0.31306
 C754 C 0.77454 0.19463 0.30046
 C755 C 0.77449 0.21530 0.27973
 C756 C 0.74916 0.22773 0.27119
 C757 C 0.72386 0.21903 0.28376
 C758 C 0.72388 0.19830 0.30444
 C759 C 0.74928 0.16388 0.33511
 C760 C 0.73145 0.16607 0.35862
 C761 C 0.73148 0.14538 0.37934
 C762 C 0.74938 0.12207 0.37707
 C763 C 0.76722 0.11988 0.35361
 C764 C 0.76715 0.14053 0.33284
 C765 C 0.74943 0.10012 0.39911
 C766 C 0.77486 0.08848 0.40848
 C767 C 0.77491 0.06785 0.42927
 C768 C 0.74951 0.05832 0.44107
 C769 C 0.72407 0.06993 0.43166
 C770 C 0.72404 0.09064 0.41094
 H771 H 0.79445 0.18573 0.30686
 H772 H 0.79423 0.22158 0.27024
 H773 H 0.70409 0.22840 0.27761
 H774 H 0.70400 0.19179 0.31347
 H775 H 0.71778 0.18403 0.36123
 H776 H 0.71780 0.14785 0.39740
 H777 H 0.78094 0.10194 0.35108
 H778 H 0.78079 0.13798 0.31477
 H779 H 0.79477 0.09560 0.39998
 H780 H 0.79487 0.05937 0.43609
 H781 H 0.70414 0.06303 0.44029
 H782 H 0.70410 0.09898 0.40391
 C783 C 0.24895 0.18667 0.68759
 C784 C 0.22363 0.19546 0.70011
 C785 C 0.22366 0.21618 0.72083
 C786 C 0.24900 0.22861 0.72939
 C787 C 0.27431 0.21989 0.71685
 C788 C 0.27430 0.19910 0.69621
 C789 C 0.24893 0.16463 0.66562
 C790 C 0.26955 0.14355 0.66551
 C791 C 0.26951 0.12277 0.64485
 C792 C 0.24889 0.12263 0.62378
 C793 C 0.22829 0.14376 0.62389
 C794 C 0.22829 0.16449 0.64460
 C795 C 0.24888 0.10056 0.60178
 C796 C 0.22346 0.08882 0.59243
 C797 C 0.22344 0.06809 0.57172
 C798 C 0.24885 0.05858 0.55992
 C799 C 0.27426 0.07029 0.56928
 C800 C 0.27427 0.09106 0.58995
 H801 H 0.20382 0.18601 0.69417
 H802 H 0.20393 0.22236 0.73040
 H803 H 0.29406 0.22938 0.72290
 H804 H 0.29409 0.19303 0.68667
 H805 H 0.28547 0.14287 0.68169
 H806 H 0.28539 0.10653 0.64563
 H807 H 0.21240 0.14452 0.60770
 H808 H 0.21238 0.18070 0.64390
 H809 H 0.20357 0.09539 0.60140
 H810 H 0.20351 0.05942 0.56505
 H811 H 0.29419 0.06351 0.56054
 H812 H 0.29418 0.09996 0.59641
   
