data_POSCAR
  _audit_creation_date              2014-09-24
  _audit_creation_method            'ToBaCCo'
  _symmetry_space_group_name_H-M    'P1'
  _symmetry_Int_Tables_number       1
  _symmetry_cell_setting            triclinic
  loop_
  _symmetry_equiv_pos_as_xyz
 x,y,z
_cell_length_a 36.1496
_cell_length_b 34.8816
_cell_length_c 35.1621
_cell_angle_alpha 87.241400
_cell_angle_beta 90.219400
_cell_angle_gamma 90.576800
loop_
  _atom_site_label
  _atom_site_type_symbol
  _atom_site_fract_x
  _atom_site_fract_y
  _atom_site_fract_z
N1 N 0.24911 0.26689 0.24945
 N2 N 0.75458 -0.23414 0.24033
 N3 N 0.74674 0.23506 0.75797
 N4 N 0.25048 -0.26707 0.75223
 N5 N 0.74977 -0.26500 0.75137
 N6 N 0.24460 0.23645 0.75837
 N7 N 0.25651 -0.23795 0.24651
 N8 N 0.75063 0.26527 0.24410
 O9 O 0.22180 0.03786 0.46367
 O10 O 0.22204 -0.04037 0.53755
 O11 O 0.22094 0.03454 0.53788
 O12 O 0.22433 -0.03668 0.46391
 O13 O 0.28531 -0.03330 0.46453
 O14 O 0.28194 0.03553 0.54047
 O15 O 0.28308 -0.03862 0.53888
 O16 O 0.28273 0.04140 0.46653
 Cu17 Cu 0.21615 -0.00131 0.50061
 Cu18 Cu 0.28940 0.00143 0.50267
 C19 C 0.25215 0.05320 0.45265
 C20 C 0.25256 -0.05305 0.55069
 C21 C 0.25091 0.04698 0.55203
 C22 C 0.25544 -0.04708 0.45150
 O23 O 0.77906 0.03679 0.53646
 O24 O 0.78060 -0.03344 0.46155
 O25 O 0.78026 0.04118 0.46243
 O26 O 0.78025 -0.03795 0.53561
 O27 O 0.71922 -0.03895 0.53505
 O28 O 0.71924 0.03977 0.46132
 O29 O 0.71958 -0.03454 0.46065
 O30 O 0.71804 0.03541 0.53569
 Cu31 Cu 0.78616 0.00177 0.49913
 Cu32 Cu 0.71290 0.00029 0.49811
 C33 C 0.74828 0.04804 0.54897
 C34 C 0.75032 -0.04586 0.44814
 C35 C 0.74977 0.05388 0.44919
 C36 C 0.74975 -0.05191 0.54796
 O37 O 0.46000 0.22363 0.04314
 O38 O 0.53175 0.21688 -0.03012
 O39 O 0.53182 0.22384 0.04324
 O40 O 0.45938 0.21696 -0.03004
 O41 O 0.46047 0.28000 -0.03937
 O42 O 0.53263 0.28688 0.03435
 O43 O 0.53203 0.27993 -0.03911
 O44 O 0.46007 0.28665 0.03401
 Cu45 Cu 0.49572 0.21401 0.00740
 Cu46 Cu 0.49638 0.28972 -0.00328
 C47 C 0.44757 0.25625 0.05095
 C48 C 0.54413 0.24726 -0.04719
 C49 C 0.54469 0.25650 0.05130
 C50 C 0.44753 0.24731 -0.04722
 O51 O 0.53761 0.78078 0.02950
 O52 O 0.46495 0.77342 -0.04347
 O53 O 0.46522 0.78072 0.02983
 O54 O 0.53653 0.77411 -0.04380
 O55 O 0.53662 0.71107 -0.03481
 O56 O 0.46548 0.71772 0.03942
 O57 O 0.46410 0.71042 -0.03396
 O58 O 0.53697 0.71774 0.03880
 Cu59 Cu 0.50109 0.78358 -0.00779
 Cu60 Cu 0.50078 0.70788 0.00313
 C61 C 0.54967 0.75050 0.04665
 C62 C 0.45208 0.74067 -0.05117
 C63 C 0.45321 0.75039 0.04728
 C64 C 0.54878 0.74153 -0.05198
 O65 O 0.03830 0.48042 0.21014
 O66 O -0.03274 0.55556 0.20772
 O67 O 0.03915 0.55465 0.20873
 O68 O -0.03400 0.48035 0.20850
 O69 O -0.03511 0.47847 0.27131
 O70 O 0.03753 0.55317 0.27152
 O71 O -0.03437 0.55249 0.27056
 O72 O 0.03715 0.47819 0.27294
 Cu73 Cu 0.00266 0.51787 0.20245
 Cu74 Cu 0.00131 0.51529 0.27788
 C75 C 0.05012 0.46671 0.24199
 C76 C -0.04570 0.56680 0.23879
 C77 C 0.05079 0.56666 0.24018
 C78 C -0.04720 0.46686 0.23987
 O79 O 0.03450 0.52108 0.79059
 O80 O -0.03902 0.44711 0.79195
 O81 O 0.03314 0.44675 0.79244
 O82 O -0.03771 0.52203 0.79037
 O83 O -0.03904 0.52210 0.72762
 O84 O 0.03353 0.44879 0.72961
 O85 O -0.03790 0.44765 0.72918
 O86 O 0.03324 0.52381 0.72776
 Cu87 Cu -0.00234 0.48414 0.79765
 Cu88 Cu -0.00248 0.48590 0.72223
 C89 C 0.04639 0.53512 0.75890
 C90 C -0.05070 0.43440 0.76077
 C91 C 0.04548 0.43495 0.76135
 C92 C -0.05077 0.53463 0.75863
 C93 C 0.33068 0.26432 0.16251
 C94 C 0.30772 0.23218 0.17080
 C95 C 0.28064 0.23323 0.19892
 C96 C 0.27573 0.26648 0.21910
 C97 C 0.29772 0.29898 0.21023
 C98 C 0.32510 0.29788 0.18235
 C99 C 0.36077 0.26249 0.13392
 C100 C 0.36983 0.29461 0.10990
 C101 C 0.39829 0.29278 0.08325
 C102 C 0.41810 0.25868 0.07978
 C103 C 0.40910 0.22660 0.10375
 C104 C 0.38093 0.22854 0.13063
 H105 H 0.26354 0.20806 0.20518
 H106 H 0.29431 0.32480 0.22570
 H107 H 0.40443 0.31790 0.06498
 H108 H 0.42404 0.19999 0.10196
 H109 H 0.34252 0.32298 0.17708
 H110 H 0.35456 0.32105 0.11128
 H111 H 0.31065 0.20618 0.15551
 H112 H 0.37528 0.20351 0.14917
 C113 C 0.66540 0.75993 0.16040
 C114 C 0.68274 0.72630 0.17483
 C115 C 0.71139 0.72816 0.20146
 C116 C 0.72413 0.76374 0.21364
 C117 C 0.70666 0.79733 0.19955
 C118 C 0.67751 0.79545 0.17348
 C119 C 0.63514 0.75794 0.13160
 C120 C 0.63096 0.78723 0.10297
 C121 C 0.60284 0.78512 0.07573
 C122 C 0.57875 0.75332 0.07600
 C123 C 0.58282 0.72401 0.10442
 C124 C 0.61043 0.72647 0.13213
 H125 H 0.72380 0.70173 0.21237
 H126 H 0.71577 0.82513 0.20858
 H127 H 0.60046 0.80798 0.05392
 H128 H 0.56433 0.69936 0.10553
 H129 H 0.66437 0.82191 0.16377
 H130 H 0.64982 0.81153 0.10107
 H131 H 0.67465 0.69844 0.16515
 H132 H 0.61213 0.70378 0.15415
 C133 C 0.65922 0.23911 -0.16067
 C134 C 0.68001 0.27223 -0.17107
 C135 C 0.70829 0.27096 -0.19787
 C136 C 0.71700 0.23640 -0.21465
 C137 C 0.69636 0.20320 -0.20412
 C138 C 0.66769 0.20458 -0.17765
 C139 C 0.62904 0.24069 -0.13210
 C140 C 0.62221 0.20957 -0.10601
 C141 C 0.59430 0.21146 -0.07876
 C142 C 0.57294 0.24469 -0.07664
 C143 C 0.57958 0.27572 -0.10273
 C144 C 0.60709 0.27363 -0.13031
 H145 H 0.72333 0.29717 -0.20550
 H146 H 0.70249 0.17605 -0.21624
 H147 H 0.58993 0.18719 -0.05886
 H148 H 0.56328 0.30155 -0.10204
 H149 H 0.65197 0.17862 -0.17078
 H150 H 0.63891 0.18400 -0.10609
 H151 H 0.67479 0.29919 -0.15815
 H152 H 0.61093 0.29781 -0.15042
 C153 C 0.33705 0.73126 -0.16489
 C154 C 0.34481 0.74010 -0.20341
 C155 C 0.31662 0.73969 -0.23063
 C156 C 0.27995 0.73111 -0.21980
 C157 C 0.27229 0.72186 -0.18125
 C158 C 0.30065 0.72162 -0.15409
 C159 C 0.36670 0.73326 -0.13594
 C160 C 0.37196 0.70295 -0.10878
 C161 C 0.40004 0.70508 -0.08147
 C162 C 0.42285 0.73789 -0.08042
 C163 C 0.41736 0.76828 -0.10748
 C164 C 0.38975 0.76583 -0.13517
 H165 H 0.32332 0.74646 -0.26020
 H166 H 0.24424 0.71553 -0.17211
 H167 H 0.40360 0.68130 -0.06087
 H168 H 0.43459 0.79385 -0.10742
 H169 H 0.29399 0.71501 -0.12447
 H170 H 0.35457 0.67749 -0.10898
 H171 H 0.37276 0.74725 -0.21242
 H172 H 0.38600 0.78968 -0.15566
 C173 C 0.16592 0.35278 0.24605
 C174 C 0.17214 0.33053 0.21438
 C175 C 0.19979 0.30280 0.21537
 C176 C 0.22144 0.29636 0.24817
 C177 C 0.21555 0.31853 0.27976
 C178 C 0.18816 0.34658 0.27869
 C179 C 0.13621 0.38208 0.24507
 C180 C 0.11536 0.38852 0.27782
 C181 C 0.08746 0.41601 0.27686
 C182 C 0.07946 0.43741 0.24301
 C183 C 0.10008 0.43089 0.21021
 C184 C 0.12826 0.40372 0.21128
 H185 H 0.20384 0.28573 0.19084
 H186 H 0.23231 0.31413 0.30515
 H187 H 0.07190 0.42025 0.30255
 H188 H 0.09480 0.44718 0.18379
 H189 H 0.18467 0.36364 0.30331
 H190 H 0.12022 0.37193 0.30415
 H191 H 0.15519 0.33398 0.18903
 H192 H 0.14415 0.40008 0.18570
 C193 C 0.16328 0.64934 0.75591
 C194 C 0.15592 0.68781 0.74530
 C195 C 0.18436 0.71524 0.74457
 C196 C 0.22089 0.70462 0.75369
 C197 C 0.22818 0.66598 0.76409
 C198 C 0.19960 0.63869 0.76553
 C199 C 0.13314 0.62033 0.75680
 C200 C 0.12794 0.59561 0.78906
 C201 C 0.09938 0.56827 0.78994
 C202 C 0.07598 0.56467 0.75827
 C203 C 0.08138 0.58928 0.72590
 C204 C 0.10949 0.61711 0.72532
 H205 H 0.17784 0.74485 0.73697
 H206 H 0.25609 0.65691 0.77085
 H207 H 0.09594 0.54958 0.81520
 H208 H 0.06370 0.58719 0.70114
 H209 H 0.20593 0.60909 0.77350
 H210 H 0.14575 0.59776 0.81372
 H211 H 0.12803 0.69670 0.73811
 H212 H 0.11316 0.63577 0.70007
 C213 C -0.15753 0.68467 0.23841
 C214 C -0.17391 0.69896 0.20429
 C215 C -0.20187 0.72632 0.20481
 C216 C -0.21486 0.73937 0.23949
 C217 C -0.19800 0.72571 0.27351
 C218 C -0.16950 0.69904 0.27295
 C219 C -0.12870 0.65438 0.23819
 C220 C -0.12626 0.62655 0.26843
 C221 C -0.09914 0.59836 0.26863
 C222 C -0.07432 0.59668 0.23821
 C223 C -0.07695 0.62389 0.20763
 C224 C -0.10359 0.65269 0.20779
 H225 H -0.21382 0.73686 0.17809
 H226 H -0.20725 0.73526 0.30069
 H227 H -0.09796 0.57742 0.29237
 H228 H -0.05790 0.62337 0.18396
 H229 H -0.15695 0.68967 0.29975
 H230 H -0.14563 0.62611 0.29184
 H231 H -0.16580 0.68843 0.17713
 H232 H -0.10409 0.67392 0.18432
 C233 C -0.16520 0.31707 0.75994
 C234 C -0.18630 0.31266 0.72667
 C235 C -0.21475 0.28535 0.72595
 C236 C -0.22306 0.26226 0.75856
 C237 C -0.20212 0.26636 0.79179
 C238 C -0.17334 0.29339 0.79246
 C239 C -0.13514 0.34649 0.76067
 C240 C -0.12843 0.36709 0.79348
 C241 C -0.10072 0.39534 0.79374
 C242 C -0.07942 0.40392 0.76105
 C243 C -0.08593 0.38324 0.72835
 C244 C -0.11328 0.35470 0.72824
 H245 H -0.23089 0.28270 0.70019
 H246 H -0.20809 0.24848 0.81709
 H247 H -0.09642 0.41095 0.81930
 H248 H -0.06968 0.38891 0.70285
 H249 H -0.15729 0.29551 0.81834
 H250 H -0.14508 0.36197 0.81877
 H251 H -0.18134 0.33083 0.70134
 H252 H -0.11709 0.33889 0.70275
 C253 C 0.25055 0.17821 0.33798
 C254 C 0.28328 0.18976 0.31900
 C255 C 0.28289 0.21919 0.29065
 C256 C 0.24967 0.23748 0.27998
 C257 C 0.21696 0.22609 0.29909
 C258 C 0.21745 0.19706 0.32789
 C259 C 0.25088 0.14632 0.36772
 C260 C 0.22059 0.12081 0.37184
 C261 C 0.22093 0.09078 0.39959
 C262 C 0.25181 0.08512 0.42347
 C263 C 0.28220 0.11032 0.41933
 C264 C 0.28162 0.14076 0.39200
 H265 H 0.30866 0.22748 0.27685
 H266 H 0.19084 0.23933 0.29149
 H267 H 0.19722 0.07159 0.40196
 H268 H 0.30623 0.10684 0.43761
 H269 H 0.19181 0.18950 0.34231
 H270 H 0.19677 0.12360 0.35321
 H271 H 0.30921 0.17561 0.32550
 H272 H 0.30515 0.16020 0.39024
 C273 C 0.74637 0.15561 0.66955
 C274 C 0.77729 0.15907 0.69364
 C275 C 0.77726 0.18504 0.72265
 C276 C 0.74620 0.20769 0.72856
 C277 C 0.71516 0.20421 0.70489
 C278 C 0.71527 0.17851 0.67557
 C279 C 0.74669 0.12834 0.63827
 C280 C 0.71445 0.10804 0.62862
 C281 C 0.71488 0.08227 0.59939
 C282 C 0.74764 0.07589 0.57938
 C283 C 0.77987 0.09613 0.58895
 C284 C 0.77935 0.12221 0.61788
 H285 H 0.80138 0.18732 0.74078
 H286 H 0.69116 0.22190 0.70878
 H287 H 0.68964 0.06690 0.59284
 H288 H 0.80548 0.09206 0.57384
 H289 H 0.69124 0.17712 0.65721
 H290 H 0.68896 0.11155 0.64408
 H291 H 0.80142 0.14143 0.69035
 H292 H 0.80452 0.13787 0.62399
 C293 C 0.25144 -0.17665 0.66602
 C294 C 0.24068 -0.21398 0.65717
 C295 C 0.24055 -0.24365 0.68534
 C296 C 0.25052 -0.23639 0.72302
 C297 C 0.26086 -0.19888 0.73185
 C298 C 0.26163 -0.16938 0.70356
 C299 C 0.25192 -0.14528 0.63621
 C300 C 0.28311 -0.12122 0.63154
 C301 C 0.28352 -0.09150 0.60343
 C302 C 0.25247 -0.08488 0.57996
 C303 C 0.22120 -0.10887 0.58480
 C304 C 0.22107 -0.13901 0.61245
 H305 H 0.23288 -0.27238 0.67772
 H306 H 0.26826 -0.19243 0.76073
 H307 H 0.30795 -0.07339 0.60037
 H308 H 0.19694 -0.10451 0.56701
 H309 H 0.26966 -0.14071 0.71109
 H310 H 0.30729 -0.12570 0.64943
 H311 H 0.23298 -0.22028 0.62832
 H312 H 0.19663 -0.15709 0.61572
 C313 C 0.75234 -0.15340 0.32755
 C314 C 0.72198 -0.17809 0.32187
 C315 C 0.72256 -0.20417 0.29296
 C316 C 0.75357 -0.20637 0.26937
 C317 C 0.78388 -0.18182 0.27482
 C318 C 0.78323 -0.15546 0.30350
 C319 C 0.75184 -0.12580 0.35852
 C320 C 0.78421 -0.11786 0.37916
 C321 C 0.78375 -0.09188 0.40820
 C322 C 0.75082 -0.07352 0.41754
 C323 C 0.71841 -0.08157 0.39712
 C324 C 0.71895 -0.10725 0.36784
 H325 H 0.69910 -0.22321 0.28934
 H326 H 0.80793 -0.18305 0.25668
 H327 H 0.80913 -0.08644 0.42358
 H328 H 0.69266 -0.06764 0.40345
 H329 H 0.80679 -0.13646 0.30658
 H330 H 0.80988 -0.13211 0.37324
 H331 H 0.69802 -0.17778 0.34022
 H332 H 0.69366 -0.11215 0.35214
 C333 C 0.66400 0.73566 -0.16573
 C334 C 0.68665 0.76822 -0.17302
 C335 C 0.71467 0.76788 -0.20020
 C336 C 0.72103 0.73489 -0.22034
 C337 C 0.69879 0.70219 -0.21304
 C338 C 0.67047 0.70257 -0.18604
 C339 C 0.63372 0.73651 -0.13721
 C340 C 0.62526 0.70405 -0.11339
 C341 C 0.59734 0.70541 -0.08602
 C342 C 0.57751 0.73935 -0.08167
 C343 C 0.58569 0.77163 -0.10570
 C344 C 0.61328 0.77017 -0.13324
 H345 H 0.73175 0.79327 -0.20533
 H346 H 0.70314 0.67662 -0.22865
 H347 H 0.59175 0.68010 -0.06782
 H348 H 0.57065 0.79810 -0.10334
 H349 H 0.65325 0.67720 -0.18158
 H350 H 0.64072 0.67781 -0.11534
 H351 H 0.68302 0.79392 -0.15743
 H352 H 0.61842 0.79544 -0.15162
 C353 C 0.33161 0.23840 -0.15999
 C354 C 0.33923 0.24464 -0.19895
 C355 C 0.31071 0.24333 -0.22581
 C356 C 0.27412 0.23652 -0.21403
 C357 C 0.26641 0.23039 -0.17516
 C358 C 0.29501 0.23094 -0.14832
 C359 C 0.36167 0.24028 -0.13150
 C360 C 0.36624 0.21053 -0.10362
 C361 C 0.39456 0.21250 -0.07656
 C362 C 0.41829 0.24465 -0.07646
 C363 C 0.41356 0.27448 -0.10429
 C364 C 0.38573 0.27214 -0.13180
 H365 H 0.31695 0.24822 -0.25575
 H366 H 0.23825 0.22508 -0.16577
 H367 H 0.39751 0.18917 -0.05534
 H368 H 0.43154 0.29953 -0.10495
 H369 H 0.28850 0.22630 -0.11840
 H370 H 0.34807 0.18563 -0.10300
 H371 H 0.36728 0.25026 -0.20855
 H372 H 0.38254 0.29551 -0.15294
 C373 C 0.34097 0.76023 0.16277
 C374 C 0.34968 0.75406 0.20155
 C375 C 0.32204 0.75548 0.22912
 C376 C 0.28524 0.76233 0.21825
 C377 C 0.27649 0.76850 0.17957
 C378 C 0.30421 0.76783 0.15203
 C379 C 0.37004 0.75804 0.13351
 C380 C 0.37439 0.78761 0.10532
 C381 C 0.40175 0.78537 0.07754
 C382 C 0.42472 0.75313 0.07702
 C383 C 0.42015 0.72345 0.10511
 C384 C 0.39329 0.72606 0.13333
 H385 H 0.32909 0.75055 0.25890
 H386 H 0.24816 0.77381 0.17087
 H387 H 0.40461 0.80860 0.05616
 H388 H 0.43757 0.69835 0.10546
 H389 H 0.29686 0.77242 0.12228
 H390 H 0.35682 0.81259 0.10505
 H391 H 0.37788 0.74834 0.21044
 H392 H 0.39023 0.70282 0.15467
 C393 C 0.66314 0.26372 0.16246
 C394 C 0.68571 0.23146 0.16929
 C395 C 0.71442 0.23216 0.19591
 C396 C 0.72157 0.26524 0.21593
 C397 C 0.69949 0.29768 0.20900
 C398 C 0.67048 0.29693 0.18257
 C399 C 0.63204 0.26244 0.13465
 C400 C 0.62316 0.29481 0.11108
 C401 C 0.59444 0.29312 0.08439
 C402 C 0.57417 0.25894 0.08046
 C403 C 0.58277 0.22673 0.10424
 C404 C 0.61119 0.22852 0.13112
 H405 H 0.73134 0.20694 0.20081
 H406 H 0.70441 0.32329 0.22456
 H407 H 0.58857 0.31838 0.06635
 H408 H 0.56744 0.20007 0.10217
 H409 H 0.65336 0.32208 0.17846
 H410 H 0.63891 0.32125 0.11266
 H411 H 0.68142 0.20569 0.15382
 H412 H 0.61667 0.20330 0.14934
 C413 C -0.16583 0.64945 0.75477
 C414 C -0.17510 0.66945 0.72042
 C415 C -0.20292 0.69699 0.71926
 C416 C -0.22187 0.70586 0.75253
 C417 C -0.21244 0.68603 0.78695
 C418 C -0.18503 0.65801 0.78800
 C419 C -0.13630 0.61987 0.75589
 C420 C -0.11317 0.61460 0.78799
 C421 C -0.08558 0.58675 0.78902
 C422 C -0.08004 0.56397 0.75773
 C423 C -0.10286 0.56930 0.72556
 C424 C -0.13085 0.59666 0.72477
 H425 H -0.20957 0.71138 0.69218
 H426 H -0.22614 0.69228 0.81322
 H427 H -0.06821 0.58345 0.81410
 H428 H -0.09947 0.55186 0.70117
 H429 H -0.17917 0.64284 0.81488
 H430 H -0.11597 0.63236 0.81220
 H431 H -0.16057 0.66422 0.69435
 H432 H -0.14854 0.59921 0.69989
 C433 C -0.16420 0.35178 0.24140
 C434 C -0.18365 0.34324 0.20806
 C435 C -0.21136 0.31494 0.20887
 C436 C -0.22081 0.29479 0.24316
 C437 C -0.20161 0.30366 0.27654
 C438 C -0.17351 0.33145 0.27561
 C439 C -0.13436 0.38164 0.24065
 C440 C -0.12852 0.40448 0.27209
 C441 C -0.10004 0.43185 0.27187
 C442 C -0.07709 0.43762 0.23995
 C443 C -0.08312 0.41535 0.20825
 C444 C -0.11122 0.38745 0.20871
 H445 H -0.22527 0.30872 0.18254
 H446 H -0.20826 0.28905 0.30353
 H447 H -0.09633 0.44894 0.29655
 H448 H -0.06569 0.41904 0.18333
 H449 H -0.15880 0.33661 0.30176
 H450 H -0.14622 0.40159 0.29684
 H451 H -0.17773 0.35864 0.18129
 H452 H -0.11436 0.37002 0.18423
 C453 C 0.15814 0.31859 0.76323
 C454 C 0.15061 0.28161 0.75092
 C455 C 0.17870 0.25442 0.75008
 C456 C 0.21508 0.26396 0.76068
 C457 C 0.22238 0.30092 0.77343
 C458 C 0.19416 0.32785 0.77490
 C459 C 0.12873 0.34777 0.76314
 C460 C 0.12302 0.36941 0.79522
 C461 C 0.09565 0.39745 0.79483
 C462 C 0.07397 0.40484 0.76208
 C463 C 0.07980 0.38323 0.72996
 C464 C 0.10672 0.35473 0.73061
 H465 H 0.17206 0.22595 0.74098
 H466 H 0.25010 0.30920 0.78166
 H467 H 0.09180 0.41372 0.81996
 H468 H 0.06339 0.38820 0.70440
 H469 H 0.20066 0.35628 0.78425
 H470 H 0.13958 0.36439 0.82068
 H471 H 0.12290 0.27370 0.74223
 H472 H 0.11084 0.33859 0.70545
 C473 C 0.16742 0.68113 0.24116
 C474 C 0.16115 0.71812 0.25366
 C475 C 0.19013 0.74489 0.25473
 C476 C 0.22614 0.73491 0.24415
 C477 C 0.23219 0.69793 0.23130
 C478 C 0.20311 0.67140 0.22963
 C479 C 0.13697 0.65249 0.24060
 C480 C 0.11434 0.64579 0.27265
 C481 C 0.08639 0.61779 0.27260
 C482 C 0.08017 0.59644 0.24025
 C483 C 0.10249 0.60361 0.20799
 C484 C 0.13082 0.63114 0.20829
 H485 H 0.18446 0.77341 0.26394
 H486 H 0.25961 0.68935 0.22310
 H487 H 0.06955 0.61297 0.29781
 H488 H 0.09839 0.58754 0.18269
 H489 H 0.20865 0.64295 0.22013
 H490 H 0.11876 0.66172 0.29799
 H491 H 0.13374 0.72640 0.26224
 H492 H 0.14781 0.63598 0.18318
 C493 C 0.75000 -0.17467 0.66522
 C494 C 0.71874 -0.19864 0.67087
 C495 C 0.71868 -0.22807 0.69926
 C496 C 0.75000 -0.23453 0.72220
 C497 C 0.78127 -0.21085 0.71674
 C498 C 0.78125 -0.18110 0.68863
 C499 C 0.74997 -0.14315 0.63509
 C500 C 0.78230 -0.13357 0.61444
 C501 C 0.78226 -0.10389 0.58627
 C502 C 0.74979 -0.08336 0.57775
 C503 C 0.71741 -0.09301 0.59814
 C504 C 0.71755 -0.12237 0.62662
 H505 H 0.69439 -0.24624 0.70309
 H506 H 0.80549 -0.21525 0.73457
 H507 H 0.80760 -0.09729 0.57086
 H508 H 0.69204 -0.07749 0.59245
 H509 H 0.80553 -0.16281 0.68564
 H510 H 0.80759 -0.14936 0.61965
 H511 H 0.69445 -0.19505 0.65302
 H512 H 0.69232 -0.12840 0.64237
 C513 C 0.26024 -0.15851 0.33514
 C514 C 0.24696 -0.19609 0.34250
 C515 C 0.24657 -0.22239 0.31376
 C516 C 0.25872 -0.21142 0.27684
 C517 C 0.27270 -0.17399 0.26977
 C518 C 0.27360 -0.14786 0.29867
 C519 C 0.25930 -0.13022 0.36518
 C520 C 0.29036 -0.10711 0.37233
 C521 C 0.28924 -0.08027 0.40059
 C522 C 0.25684 -0.07562 0.42178
 C523 C 0.22572 -0.09860 0.41441
 C524 C 0.22704 -0.12582 0.38659
 H525 H 0.23651 -0.25128 0.32027
 H526 H 0.28220 -0.16472 0.24162
 H527 H 0.31363 -0.06292 0.40560
 H528 H 0.20041 -0.09576 0.43036
 H529 H 0.28379 -0.11897 0.29226
 H530 H 0.31560 -0.11012 0.35630
 H531 H 0.23703 -0.20513 0.37057
 H532 H 0.20263 -0.14307 0.38135
 C533 C 0.75033 0.17549 0.33079
 C534 C 0.78156 0.18210 0.30748
 C535 C 0.78172 0.21161 0.27912
 C536 C 0.75061 0.23487 0.27334
 C537 C 0.71929 0.22817 0.29615
 C538 C 0.71920 0.19896 0.32476
 C539 C 0.75018 0.14432 0.36126
 C540 C 0.71774 0.12298 0.36962
 C541 C 0.71753 0.09389 0.39839
 C542 C 0.74985 0.08515 0.41921
 C543 C 0.78232 0.10631 0.41083
 C544 C 0.78244 0.13567 0.38234
 H545 H 0.80595 0.21619 0.26141
 H546 H 0.69513 0.24602 0.29209
 H547 H 0.69214 0.07789 0.40396
 H548 H 0.80762 0.10040 0.42655
 H549 H 0.69492 0.19518 0.34252
 H550 H 0.69257 0.12833 0.35355
 H551 H 0.80573 0.16418 0.31080
 H552 H 0.80774 0.15193 0.37719
 C553 C 0.24743 0.15656 0.67014
 C554 C 0.26024 0.14611 0.70690
 C555 C 0.25920 0.17225 0.73573
 C556 C 0.24567 0.20953 0.72835
 C557 C 0.23353 0.22016 0.69131
 C558 C 0.23403 0.19380 0.66260
 C559 C 0.24825 0.12866 0.63975
 C560 C 0.21699 0.12291 0.61678
 C561 C 0.21767 0.09610 0.58847
 C562 C 0.24983 0.07502 0.58222
 C563 C 0.28117 0.08108 0.60502
 C564 C 0.28029 0.10742 0.63369
 H565 H 0.26863 0.16322 0.76399
 H566 H 0.22376 0.24893 0.68456
 H567 H 0.19315 0.09211 0.57126
 H568 H 0.30632 0.06521 0.60093
 H569 H 0.22450 0.20268 0.63432
 H570 H 0.19189 0.13879 0.62112
 H571 H 0.27049 0.11747 0.71345
 H572 H 0.30481 0.11156 0.65087
   
