data_POSCAR
  _audit_creation_date              2014-09-24
  _audit_creation_method            'ToBaCCo'
  _symmetry_space_group_name_H-M    'P1'
  _symmetry_Int_Tables_number       1
  _symmetry_cell_setting            triclinic
  loop_
  _symmetry_equiv_pos_as_xyz
 x,y,z
_cell_length_a 59.5216
_cell_length_b 59.4349
_cell_length_c 52.3893
_cell_angle_alpha 90.051500
_cell_angle_beta 89.996600
_cell_angle_gamma 120.117200
loop_
  _atom_site_label
  _atom_site_type_symbol
  _atom_site_fract_x
  _atom_site_fract_y
  _atom_site_fract_z
O1 O -0.00125 0.51553 -0.03302
 O2 O 0.03118 0.48792 0.00485
 O3 O -0.00240 0.47131 -0.03248
 O4 O 0.03229 0.53220 0.00430
 O5 O 0.00026 0.51693 0.03222
 O6 O -0.03452 0.45619 -0.00473
 O7 O -0.00084 0.47280 0.03279
 O8 O -0.03335 0.50038 -0.00518
 Cu9 Cu 0.01817 0.50325 -0.01686
 Cu10 Cu -0.02032 0.48503 0.01657
 C11 C -0.02297 0.51246 -0.02575
 C12 C 0.02089 0.47591 0.02547
 C13 C -0.02462 0.45342 -0.02515
 C14 C 0.02233 0.53489 0.02470
 O15 O 0.53870 0.50308 -0.00105
 O16 O 0.47906 0.47693 0.03758
 O17 O 0.49470 0.45963 -0.00036
 O18 O 0.52306 0.52025 0.03697
 O19 O 0.50622 0.53634 0.01009
 O20 O 0.47926 0.47627 -0.02813
 O21 O 0.46252 0.49253 0.00979
 O22 O 0.52271 0.52003 -0.02791
 Cu23 Cu 0.51049 0.48833 0.02102
 Cu24 Cu 0.49103 0.50792 -0.01175
 C25 C 0.54085 0.51591 -0.02119
 C26 C 0.46063 0.48040 0.03036
 C27 C 0.48253 0.45768 -0.02094
 C28 C 0.51917 0.53853 0.03016
 O29 O 0.49682 1.03150 -0.00715
 O30 O 0.52358 0.99715 0.02903
 O31 O 0.53962 1.02994 -0.00903
 O32 O 0.48090 0.99872 0.03094
 O33 O 0.46235 0.96634 0.00342
 O34 O 0.52170 0.99690 -0.03581
 O35 O 0.50476 0.96411 0.00227
 O36 O 0.47926 0.99907 -0.03471
 Cu37 Cu 0.51206 1.01762 0.01365
 Cu38 Cu 0.49020 0.97833 -0.01893
 C39 C 0.48379 1.02134 -0.02735
 C40 C 0.51836 0.97454 0.02210
 C41 C 0.54073 1.01889 -0.02940
 C42 C 0.46166 0.97708 0.02415
 O43 O 1.02971 0.53954 0.49306
 O44 O 0.99743 0.47958 0.53124
 O45 O 1.03011 0.49600 0.49318
 O46 O 0.99685 0.52294 0.53101
 O47 O 0.96416 0.50601 0.50379
 O48 O 0.99758 0.47952 0.46584
 O49 O 0.96476 0.46269 0.50400
 O50 O 0.99708 0.52276 0.46577
 Cu51 Cu 1.01680 0.51120 0.51484
 Cu52 Cu 0.97761 0.49105 0.48214
 C53 C 1.01909 0.54131 0.47272
 C54 C 0.97543 0.46098 0.52435
 C55 C 1.01974 0.48345 0.47277
 C56 C 0.97464 0.51878 0.52404
 O57 O 0.46352 0.49840 0.49886
 O58 O 0.52447 0.52499 0.53545
 O59 O 0.50764 0.54174 0.49805
 O60 O 0.48043 0.48169 0.53623
 O61 O 0.49489 0.46449 0.50791
 O62 O 0.52334 0.52503 0.47055
 O63 O 0.53928 0.50745 0.50792
 O64 O 0.47899 0.48213 0.47061
 Cu65 Cu 0.49250 0.51341 0.51994
 Cu66 Cu 0.51065 0.49309 0.48646
 C67 C 0.46099 0.48605 0.47825
 C68 C 0.54214 0.52039 0.52818
 C69 C 0.52000 0.54359 0.47765
 C70 C 0.48314 0.46286 0.52867
 O71 O 0.47547 0.00084 0.46516
 O72 O 0.53574 0.03401 0.50297
 O73 O 0.51916 0.00113 0.46492
 O74 O 0.49201 0.03383 0.50315
 O75 O 0.47657 0.00154 0.53083
 O76 O 0.50245 -0.03186 0.49173
 O77 O 0.51982 0.00097 0.52979
 O78 O 0.45905 -0.03144 0.49287
 Cu79 Cu 0.50721 0.02073 0.48133
 Cu80 Cu 0.48785 -0.01847 0.51402
 C81 C 0.45700 -0.02107 0.47247
 C82 C 0.53804 0.02322 0.52295
 C83 C 0.51513 -0.02118 0.47149
 C84 C 0.48000 0.02349 0.52376
 C85 C 0.14983 0.44120 0.26427
 C86 C 0.14997 0.44027 0.23813
 C87 C 0.16960 0.43533 0.23136
 N88 N 0.18120 0.43290 0.25253
 C89 C 0.16945 0.43689 0.27270
 C90 C 0.17581 0.43238 0.20597
 C91 C 0.19684 0.42885 0.19911
 C92 C 0.20085 0.42217 0.17485
 C93 C 0.22420 0.42268 0.17544
 C94 C 0.23385 0.42963 0.20006
 N95 N 0.21710 0.43347 0.21428
 C96 C 0.25847 0.43413 0.20811
 C97 C 0.26658 0.43731 0.23390
 C98 C 0.29114 0.44321 0.24192
 C99 C 0.29095 0.44393 0.26808
 C100 C 0.26629 0.43848 0.27523
 N101 N 0.25135 0.43408 0.25431
 C102 C 0.25785 0.43681 0.30077
 C103 C 0.23330 0.43315 0.30792
 C104 C 0.22360 0.42819 0.33261
 C105 C 0.20040 0.42798 0.33206
 C106 C 0.19642 0.43273 0.30701
 N107 N 0.21667 0.43603 0.29251
 C108 C 0.17547 0.43582 0.29867
 H109 H 0.13664 0.44453 0.27571
 H110 H 0.13698 0.44281 0.22557
 H111 H 0.22052 0.44310 0.27404
 H112 H 0.18849 0.41784 0.15828
 H113 H 0.23322 0.41881 0.15940
 H114 H 0.30749 0.44654 0.23018
 H115 H 0.30714 0.44794 0.28040
 H116 H 0.18818 0.42513 0.34843
 H117 H 0.22088 0.44203 0.23215
 H118 H 0.23254 0.42551 0.34945
 C119 C 0.58288 0.72305 0.24000
 C120 C 0.58263 0.72351 0.26616
 C121 C 0.57527 0.74142 0.27304
 N122 N 0.57105 0.75192 0.25200
 C123 C 0.57567 0.74069 0.23178
 C124 C 0.57019 0.74594 0.29829
 C125 C 0.56587 0.76649 0.30508
 C126 C 0.55563 0.76842 0.32821
 C127 C 0.55508 0.79126 0.32759
 C128 C 0.56498 0.80267 0.30408
 N129 N 0.57176 0.78757 0.29057
 C130 C 0.56819 0.82682 0.29606
 C131 C 0.57269 0.83526 0.27041
 C132 C 0.57863 0.85983 0.26229
 C133 C 0.57886 0.85936 0.23612
 C134 C 0.57312 0.83454 0.22913
 N135 N 0.56934 0.81983 0.25011
 C136 C 0.56918 0.82522 0.20379
 C137 C 0.56610 0.80082 0.19696
 C138 C 0.55669 0.78865 0.17362
 C139 C 0.55718 0.76579 0.17428
 C140 C 0.56695 0.76463 0.19797
 N141 N 0.57257 0.78619 0.21160
 C142 C 0.57110 0.74433 0.20608
 H143 H 0.58741 0.71080 0.22836
 H144 H 0.58692 0.71168 0.27869
 H145 H 0.58248 0.79174 0.22888
 H146 H 0.54908 0.75474 0.34390
 H147 H 0.54802 0.79854 0.34269
 H148 H 0.58201 0.87626 0.27399
 H149 H 0.58243 0.87533 0.22365
 H150 H 0.55092 0.75158 0.15905
 H151 H 0.58201 0.79253 0.27348
 H152 H 0.54999 0.79545 0.15779
 C153 C 0.28903 0.84910 0.26146
 C154 C 0.28978 0.84899 0.23531
 C155 C 0.26552 0.82960 0.22717
 N156 N 0.24990 0.81822 0.24751
 C157 C 0.26432 0.82982 0.26851
 C158 C 0.25805 0.82345 0.20131
 C159 C 0.23377 0.80257 0.19325
 C160 C 0.22471 0.79850 0.16831
 C161 C 0.20161 0.77528 0.16799
 C162 C 0.19714 0.76570 0.19273
 N163 N 0.21690 0.78239 0.20793
 C164 C 0.17625 0.74115 0.20011
 C165 C 0.16963 0.73302 0.22574
 C166 C 0.15039 0.70841 0.23317
 C167 C 0.14966 0.70856 0.25934
 C168 C 0.16847 0.73326 0.26707
 N169 N 0.18037 0.74825 0.24648
 C170 C 0.17366 0.74169 0.29275
 C171 C 0.19405 0.76637 0.30052
 C172 C 0.19709 0.77633 0.32505
 C173 C 0.22018 0.79956 0.32539
 C174 C 0.23067 0.80321 0.30108
 N175 N 0.21466 0.78284 0.28612
 C176 C 0.25538 0.82395 0.29398
 H177 H 0.30487 0.86200 0.27385
 H178 H 0.30632 0.86184 0.22366
 H179 H 0.21920 0.77875 0.26828
 H180 H 0.23397 0.81070 0.15188
 H181 H 0.18974 0.76626 0.15129
 H182 H 0.13807 0.69204 0.22104
 H183 H 0.13667 0.69233 0.27127
 H184 H 0.22851 0.81207 0.34185
 H185 H 0.22035 0.77859 0.22634
 H186 H 0.18428 0.76756 0.34120
 C187 C 0.85919 0.57857 0.76547
 C188 C 0.85932 0.57925 0.73931
 C189 C 0.83464 0.57343 0.73185
 N190 N 0.81943 0.56916 0.75252
 C191 C 0.83441 0.57228 0.77311
 C192 C 0.82593 0.56985 0.70632
 C193 C 0.80165 0.56666 0.69898
 C194 C 0.79027 0.55784 0.67523
 C195 C 0.76721 0.55789 0.67549
 C196 C 0.76511 0.56675 0.69938
 N197 N 0.78634 0.57235 0.71349
 C198 C 0.74423 0.57007 0.70721
 C199 C 0.73958 0.57370 0.73288
 C200 C 0.72100 0.57973 0.74081
 C201 C 0.72090 0.57908 0.76698
 C202 C 0.73936 0.57260 0.77415
 N203 N 0.75077 0.56933 0.75328
 C204 C 0.74369 0.56752 0.79947
 C205 C 0.76443 0.56365 0.80658
 C206 C 0.76616 0.55329 0.82971
 C207 C 0.78921 0.55321 0.82946
 C208 C 0.80096 0.56352 0.80618
 N209 N 0.78585 0.57009 0.79244
 C210 C 0.82539 0.56722 0.79857
 H211 H 0.87536 0.58187 0.77749
 H212 H 0.87558 0.58315 0.72715
 H213 H 0.79097 0.58054 0.77547
 H214 H 0.79771 0.55183 0.65939
 H215 H 0.75348 0.55193 0.65987
 H216 H 0.70854 0.58376 0.72896
 H217 H 0.70834 0.58255 0.77929
 H218 H 0.79640 0.54617 0.84465
 H219 H 0.79119 0.58171 0.73108
 H220 H 0.75219 0.54632 0.84514
 C221 C 0.44204 0.15216 0.73736
 C222 C 0.44228 0.15208 0.76354
 C223 C 0.43672 0.17103 0.77142
 N224 N 0.43273 0.18239 0.75092
 C225 C 0.43633 0.17116 0.73007
 C226 C 0.43453 0.17681 0.79718
 C227 C 0.43055 0.19736 0.80502
 C228 C 0.42467 0.20096 0.82977
 C229 C 0.42453 0.22402 0.83003
 C230 C 0.43033 0.23395 0.80544
 N231 N 0.43409 0.21762 0.79039
 C232 C 0.43407 0.25853 0.79811
 C233 C 0.43626 0.26692 0.77250
 C234 C 0.44170 0.29155 0.76511
 C235 C 0.44157 0.29168 0.73893
 C236 C 0.43602 0.26711 0.73115
 N237 N 0.43243 0.25194 0.75170
 C238 C 0.43354 0.25896 0.70543
 C239 C 0.42963 0.23444 0.69765
 C240 C 0.42322 0.22463 0.67304
 C241 C 0.42325 0.20151 0.67278
 C242 C 0.42967 0.19777 0.69724
 N243 N 0.43364 0.21800 0.71221
 C244 C 0.43367 0.17711 0.70451
 H245 H 0.44557 0.13958 0.72512
 H246 H 0.44603 0.13941 0.77538
 H247 H 0.44191 0.22203 0.73022
 H248 H 0.42133 0.18855 0.84612
 H249 H 0.42108 0.23271 0.84664
 H250 H 0.44530 0.30775 0.77727
 H251 H 0.44508 0.30799 0.72701
 H252 H 0.41944 0.18912 0.65629
 H253 H 0.44195 0.22175 0.77222
 H254 H 0.41938 0.23344 0.65679
 C255 C 0.72062 0.13798 0.75891
 C256 C 0.72068 0.13890 0.73277
 C257 C 0.73872 0.16420 0.72598
 N258 N 0.74970 0.17875 0.74706
 C259 C 0.73864 0.16275 0.76722
 C260 C 0.74298 0.17401 0.70082
 C261 C 0.76362 0.19888 0.69404
 C262 C 0.76542 0.21124 0.67106
 C263 C 0.78843 0.23453 0.67160
 C264 C 0.80006 0.23579 0.69490
 N265 N 0.78494 0.21386 0.70837
 C266 C 0.82443 0.25658 0.70276
 C267 C 0.83314 0.26046 0.72833
 C268 C 0.85779 0.27909 0.73630
 C269 C 0.85761 0.27830 0.76247
 C270 C 0.83289 0.25914 0.76960
 N271 N 0.81795 0.24827 0.74872
 C272 C 0.82392 0.25359 0.79503
 C273 C 0.79965 0.23218 0.80204
 C274 C 0.78799 0.22921 0.82568
 C275 C 0.76507 0.20584 0.82511
 C276 C 0.76337 0.19513 0.80115
 N277 N 0.78467 0.21119 0.78730
 C278 C 0.74280 0.17076 0.79300
 H279 H 0.70840 0.12112 0.77050
 H280 H 0.70851 0.12288 0.72020
 H281 H 0.78982 0.20697 0.76974
 H282 H 0.75154 0.20430 0.65554
 H283 H 0.79565 0.24896 0.65657
 H284 H 0.87408 0.29220 0.72452
 H285 H 0.87370 0.29068 0.77484
 H286 H 0.75119 0.19775 0.84056
 H287 H 0.79002 0.20839 0.72527
 H288 H 0.79516 0.24256 0.84166
 C289 C 0.06394 0.45229 0.07367
 C290 C 0.04107 0.45110 0.08255
 C291 C 0.02660 0.45791 0.06662
 C292 C 0.03477 0.46627 0.04149
 C293 C 0.05719 0.46673 0.03235
 C294 C 0.07154 0.45972 0.04822
 C295 C 0.08051 0.44721 0.09129
 C296 C 0.10772 0.46253 0.09005
 C297 C 0.12336 0.45903 0.10759
 C298 C 0.11220 0.44025 0.12697
 C299 C 0.08502 0.42448 0.12787
 C300 C 0.06936 0.42789 0.11021
 C301 C 0.12885 0.43789 0.14673
 C302 C 0.12291 0.41343 0.15644
 C303 C 0.13826 0.41151 0.17558
 C304 C 0.15982 0.43399 0.18519
 C305 C 0.16597 0.45836 0.17547
 C306 C 0.15060 0.46032 0.15648
 H307 H 0.03482 0.44582 0.10213
 H308 H 0.00947 0.45746 0.07427
 H309 H 0.06388 0.47289 0.01302
 H310 H 0.08877 0.46036 0.04061
 H311 H 0.11699 0.47781 0.07596
 H312 H 0.14424 0.47122 0.10610
 H313 H 0.07577 0.40997 0.14266
 H314 H 0.04849 0.41552 0.11150
 H315 H 0.10649 0.39578 0.14916
 H316 H 0.13334 0.39257 0.18296
 H317 H 0.18248 0.47588 0.18289
 H318 H 0.15545 0.47948 0.14983
 C319 C 0.54443 0.60513 0.07916
 C320 C 0.53046 0.60274 0.05671
 C321 C 0.52290 0.58151 0.04039
 C322 C 0.52911 0.56218 0.04618
 C323 C 0.54381 0.56501 0.06819
 C324 C 0.55140 0.58626 0.08448
 C325 C 0.55049 0.62644 0.09762
 C326 C 0.54767 0.62131 0.12396
 C327 C 0.55197 0.64085 0.14139
 C328 C 0.55915 0.66600 0.13291
 C329 C 0.56250 0.67132 0.10661
 C330 C 0.55817 0.65172 0.08914
 C331 C 0.56236 0.68630 0.15148
 C332 C 0.58279 0.71215 0.14901
 C333 C 0.58570 0.73108 0.16672
 C334 C 0.56823 0.72446 0.18711
 C335 C 0.54772 0.69878 0.18947
 C336 C 0.54482 0.67988 0.17186
 H337 H 0.52455 0.61680 0.05221
 H338 H 0.51156 0.57988 0.02360
 H339 H 0.54907 0.55056 0.07312
 H340 H 0.56253 0.58778 0.10139
 H341 H 0.54149 0.60198 0.13111
 H342 H 0.54957 0.63624 0.16155
 H343 H 0.56785 0.69047 0.09949
 H344 H 0.56074 0.65634 0.06898
 H345 H 0.59671 0.71762 0.13362
 H346 H 0.60163 0.75084 0.16464
 H347 H 0.53391 0.69342 0.20497
 H348 H 0.52862 0.66028 0.17401
 C349 C 0.39661 0.93606 0.07471
 C350 C 0.41896 0.95881 0.08283
 C351 C 0.43970 0.97265 0.06610
 C352 C 0.43865 0.96387 0.04097
 C353 C 0.41598 0.94150 0.03264
 C354 C 0.39511 0.92781 0.04932
 C355 C 0.37561 0.92023 0.09308
 C356 C 0.34938 0.91001 0.08644
 C357 C 0.32969 0.89441 0.10368
 C358 C 0.33591 0.88845 0.12766
 C359 C 0.36213 0.89878 0.13430
 C360 C 0.38177 0.91460 0.11724
 C361 C 0.31523 0.87120 0.14569
 C362 C 0.31676 0.85110 0.15818
 C363 C 0.29781 0.83528 0.17582
 C364 C 0.27718 0.83947 0.18146
 C365 C 0.27539 0.85934 0.16889
 C366 C 0.29420 0.87500 0.15096
 H367 H 0.42048 0.96572 0.10224
 H368 H 0.45687 0.98980 0.07311
 H369 H 0.41457 0.93427 0.01338
 H370 H 0.37817 0.91023 0.04265
 H371 H 0.34414 0.91416 0.06797
 H372 H 0.30961 0.88657 0.09809
 H373 H 0.36744 0.89466 0.15276
 H374 H 0.40182 0.92201 0.12273
 H375 H 0.33261 0.84760 0.15424
 H376 H 0.29939 0.81999 0.18540
 H377 H 0.25958 0.86281 0.17316
 H378 H 0.29271 0.89047 0.14169
 C379 C 0.93171 0.54188 0.57303
 C380 C 0.92037 0.52755 0.55068
 C381 C 0.93459 0.52079 0.53434
 C382 C 0.96044 0.52809 0.54007
 C383 C 0.97204 0.54311 0.56203
 C384 C 0.95784 0.55000 0.57830
 C385 C 0.91594 0.54709 0.59146
 C386 C 0.92609 0.57147 0.60339
 C387 C 0.91145 0.57582 0.62157
 C388 C 0.88652 0.55577 0.62836
 C389 C 0.87629 0.53150 0.61620
 C390 C 0.89081 0.52723 0.59791
 C391 C 0.87139 0.55980 0.64850
 C392 C 0.85839 0.54069 0.66727
 C393 C 0.84387 0.54417 0.68615
 C394 C 0.84200 0.56675 0.68654
 C395 C 0.85496 0.58594 0.66792
 C396 C 0.86969 0.58255 0.64909
 H397 H 0.90036 0.52132 0.54599
 H398 H 0.92510 0.50928 0.51755
 H399 H 0.99192 0.54905 0.56698
 H400 H 0.96702 0.56088 0.59550
 H401 H 0.94535 0.58716 0.59865
 H402 H 0.91985 0.59466 0.63076
 H403 H 0.85703 0.51579 0.62089
 H404 H 0.88259 0.50816 0.58925
 H405 H 0.85963 0.52312 0.66746
 H406 H 0.83393 0.52919 0.70042
 H407 H 0.85358 0.60343 0.66797
 H408 H 0.87936 0.59748 0.63474
 C409 C 0.45857 0.39551 0.57632
 C410 C 0.45785 0.41739 0.58546
 C411 C 0.46503 0.43894 0.56973
 C412 C 0.47329 0.43917 0.54455
 C413 C 0.47333 0.41704 0.53517
 C414 C 0.46595 0.39542 0.55083
 C415 C 0.45293 0.37348 0.59366
 C416 C 0.46773 0.36107 0.59222
 C417 C 0.46359 0.34142 0.60942
 C418 C 0.44467 0.33377 0.62864
 C419 C 0.42947 0.34576 0.62977
 C420 C 0.43352 0.36535 0.61246
 C421 C 0.44150 0.31405 0.64795
 C422 C 0.41675 0.29567 0.65716
 C423 C 0.41405 0.27760 0.67577
 C424 C 0.43602 0.27757 0.68532
 C425 C 0.46068 0.29568 0.67613
 C426 C 0.46342 0.31381 0.65768
 H427 H 0.45262 0.41829 0.60507
 H428 H 0.46489 0.45573 0.57757
 H429 H 0.47939 0.41654 0.51578
 H430 H 0.46625 0.37870 0.54302
 H431 H 0.48305 0.36702 0.57822
 H432 H 0.47536 0.33231 0.60775
 H433 H 0.41488 0.34051 0.64446
 H434 H 0.42154 0.37425 0.61390
 H435 H 0.39947 0.29514 0.64987
 H436 H 0.39489 0.26366 0.68274
 H437 H 0.47780 0.29594 0.68351
 H438 H 0.48278 0.32797 0.65140
 C439 C 0.60463 0.06467 0.57183
 C440 C 0.60211 0.07640 0.54955
 C441 C 0.58089 0.06269 0.53324
 C442 C 0.56172 0.03696 0.53887
 C443 C 0.56471 0.02497 0.56069
 C444 C 0.58594 0.03865 0.57695
 C445 C 0.62585 0.07992 0.59035
 C446 C 0.62070 0.07728 0.61669
 C447 C 0.64017 0.09240 0.63421
 C448 C 0.66528 0.11060 0.62585
 C449 C 0.67062 0.11297 0.59954
 C450 C 0.65108 0.09782 0.58196
 C451 C 0.68555 0.12737 0.64459
 C452 C 0.71130 0.13269 0.64206
 C453 C 0.73009 0.14801 0.66020
 C454 C 0.72342 0.15826 0.68108
 C455 C 0.69788 0.15336 0.68341
 C456 C 0.67913 0.13806 0.66538
 H457 H 0.61603 0.09649 0.54520
 H458 H 0.57914 0.07250 0.51661
 H459 H 0.55039 0.00512 0.56548
 H460 H 0.58758 0.02893 0.59372
 H461 H 0.60141 0.06391 0.62377
 H462 H 0.63554 0.08987 0.65437
 H463 H 0.68974 0.12694 0.59251
 H464 H 0.65571 0.10013 0.56180
 H465 H 0.71677 0.12458 0.62636
 H466 H 0.74974 0.15165 0.65814
 H467 H 0.69249 0.16135 0.69931
 H468 H 0.65961 0.13474 0.66759
 C469 C 0.46038 0.06561 0.92595
 C470 C 0.45757 0.04199 0.91709
 C471 C 0.46445 0.02725 0.93255
 C472 C 0.47450 0.03587 0.95716
 C473 C 0.47673 0.05915 0.96628
 C474 C 0.46966 0.07380 0.95089
 C475 C 0.45483 0.08218 0.90879
 C476 C 0.47089 0.10938 0.90909
 C477 C 0.46673 0.12492 0.89197
 C478 C 0.44652 0.11367 0.87395
 C479 C 0.43009 0.08651 0.87400
 C480 C 0.43416 0.07097 0.89125
 C481 C 0.44320 0.13012 0.85466
 C482 C 0.41829 0.12453 0.84683
 C483 C 0.41538 0.13973 0.82819
 C484 C 0.43731 0.16082 0.81724
 C485 C 0.46214 0.16660 0.82506
 C486 C 0.46508 0.15136 0.84353
 H487 H 0.45086 0.03527 0.89787
 H488 H 0.46260 0.00946 0.92490
 H489 H 0.48424 0.06622 0.98523
 H490 H 0.47162 0.09164 0.95849
 H491 H 0.48718 0.11868 0.92211
 H492 H 0.47949 0.14580 0.89274
 H493 H 0.41448 0.07717 0.86026
 H494 H 0.42119 0.05012 0.89073
 H495 H 0.40105 0.10853 0.85522
 H496 H 0.39608 0.13510 0.82231
 H497 H 0.47923 0.18277 0.81661
 H498 H 0.48453 0.15593 0.84872
 C499 C 0.60655 0.53979 0.92908
 C500 C 0.58785 0.54701 0.92388
 C501 C 0.56693 0.53989 0.94041
 C502 C 0.56423 0.52541 0.96255
 C503 C 0.58339 0.51895 0.96822
 C504 C 0.60432 0.52605 0.95166
 C505 C 0.62749 0.54540 0.91039
 C506 C 0.65285 0.55309 0.91856
 C507 C 0.67217 0.55728 0.90085
 C508 C 0.66649 0.55374 0.87461
 C509 C 0.64124 0.54641 0.86645
 C510 C 0.62198 0.54227 0.88411
 C511 C 0.68658 0.55716 0.85575
 C512 C 0.68006 0.53967 0.83525
 C513 C 0.69868 0.54300 0.81716
 C514 C 0.72419 0.56390 0.81915
 C515 C 0.73095 0.58124 0.83972
 C516 C 0.71229 0.57789 0.85791
 H517 H 0.58927 0.55798 0.90687
 H518 H 0.55261 0.54533 0.93556
 H519 H 0.58186 0.50777 0.98511
 H520 H 0.61825 0.51998 0.95608
 H521 H 0.65774 0.55588 0.93866
 H522 H 0.69140 0.56276 0.90772
 H523 H 0.63634 0.54386 0.84635
 H524 H 0.60258 0.53605 0.87720
 H525 H 0.66056 0.52324 0.83332
 H526 H 0.69323 0.52930 0.80151
 H527 H 0.75058 0.59746 0.84151
 H528 H 0.71784 0.59178 0.87337
 C529 C 0.93167 0.38755 0.92782
 C530 C 0.95731 0.40609 0.92133
 C531 C 0.97199 0.42752 0.93715
 C532 C 0.96142 0.43085 0.95995
 C533 C 0.93605 0.41162 0.96686
 C534 C 0.92134 0.39032 0.95091
 C535 C 0.91532 0.36620 0.90986
 C536 C 0.88977 0.36025 0.90463
 C537 C 0.87479 0.34132 0.88655
 C538 C 0.88495 0.32778 0.87345
 C539 C 0.91028 0.33325 0.87910
 C540 C 0.92538 0.35239 0.89704
 C541 C 0.86941 0.30862 0.85339
 C542 C 0.86819 0.28440 0.85203
 C543 C 0.85335 0.26641 0.83310
 C544 C 0.83981 0.27253 0.81511
 C545 C 0.84111 0.29671 0.81630
 C546 C 0.85571 0.31458 0.83532
 H547 H 0.96570 0.40453 0.90354
 H548 H 0.99145 0.44175 0.93114
 H549 H 0.92720 0.41329 0.98430
 H550 H 0.90173 0.37612 0.95652
 H551 H 0.88160 0.37076 0.91402
 H552 H 0.85523 0.33731 0.88274
 H553 H 0.91863 0.32320 0.86916
 H554 H 0.94496 0.35648 0.90083
 H555 H 0.87842 0.27927 0.86583
 H556 H 0.85243 0.24775 0.83241
 H557 H 0.83072 0.30167 0.80252
 H558 H 0.85656 0.33321 0.83573
 C559 C 0.53900 0.93776 0.42279
 C560 C 0.54513 0.96328 0.41692
 C561 C 0.53782 0.97706 0.43327
 C562 C 0.52415 0.96567 0.45599
 C563 C 0.51884 0.94041 0.46226
 C564 C 0.52614 0.92664 0.44583
 C565 C 0.54491 0.92239 0.40439
 C566 C 0.55358 0.90560 0.41289
 C567 C 0.55803 0.89038 0.39551
 C568 C 0.55382 0.89155 0.36926
 C569 C 0.54554 0.90863 0.36075
 C570 C 0.54112 0.92383 0.37809
 C571 C 0.55750 0.87471 0.35078
 C572 C 0.53980 0.86275 0.33063
 C573 C 0.54328 0.84715 0.31299
 C574 C 0.56453 0.84321 0.31512
 C575 C 0.58212 0.85482 0.33533
 C576 C 0.57864 0.87045 0.35304
 H577 H 0.55545 0.97256 0.39953
 H578 H 0.54254 0.99652 0.42780
 H579 H 0.50843 0.93092 0.47956
 H580 H 0.52092 0.90692 0.45079
 H581 H 0.55692 0.90424 0.43300
 H582 H 0.56423 0.87727 0.40267
 H583 H 0.54247 0.91025 0.34063
 H584 H 0.53415 0.93631 0.37093
 H585 H 0.52306 0.86524 0.32864
 H586 H 0.52938 0.83810 0.29763
 H587 H 0.59862 0.85193 0.33722
 H588 H 0.59272 0.87957 0.36823
 C589 C 0.39350 0.46280 0.43120
 C590 C 0.39445 0.47184 0.45622
 C591 C 0.41611 0.47887 0.47172
 C592 C 0.43723 0.47684 0.46262
 C593 C 0.43596 0.46707 0.43791
 C594 C 0.41440 0.46021 0.42235
 C595 C 0.37143 0.45721 0.41396
 C596 C 0.36204 0.43657 0.39636
 C597 C 0.34251 0.43249 0.37899
 C598 C 0.33181 0.44887 0.37889
 C599 C 0.34068 0.46904 0.39697
 C600 C 0.36030 0.47321 0.41423
 C601 C 0.31219 0.44557 0.35942
 C602 C 0.31302 0.46748 0.34820
 C603 C 0.29511 0.46453 0.32940
 C604 C 0.27616 0.43966 0.32136
 C605 C 0.27508 0.41770 0.33248
 C606 C 0.29290 0.42062 0.35142
 H607 H 0.37850 0.47364 0.46379
 H608 H 0.41642 0.48618 0.49074
 H609 H 0.45197 0.46539 0.43027
 H610 H 0.41452 0.45370 0.40308
 H611 H 0.36993 0.42365 0.39586
 H612 H 0.33631 0.41691 0.36519
 H613 H 0.33259 0.48178 0.39769
 H614 H 0.36723 0.48946 0.42732
 H615 H 0.32787 0.48695 0.35353
 H616 H 0.29622 0.48164 0.32082
 H617 H 0.26048 0.39837 0.32642
 H618 H 0.29152 0.40336 0.35989
 C619 C 0.06189 0.60784 0.42407
 C620 C 0.06992 0.60805 0.44936
 C621 C 0.05565 0.58673 0.46539
 C622 C 0.03290 0.56480 0.45657
 C623 C 0.02431 0.56497 0.43162
 C624 C 0.03869 0.58620 0.41553
 C625 C 0.07831 0.62942 0.40627
 C626 C 0.06702 0.63774 0.38769
 C627 C 0.08253 0.65685 0.36994
 C628 C 0.10970 0.66815 0.37041
 C629 C 0.12100 0.66032 0.38941
 C630 C 0.10552 0.64114 0.40704
 C631 C 0.12619 0.68737 0.35070
 C632 C 0.14778 0.68681 0.34053
 C633 C 0.16322 0.70461 0.32185
 C634 C 0.15728 0.72319 0.31286
 C635 C 0.13578 0.72391 0.32277
 C636 C 0.12037 0.70617 0.34161
 H637 H 0.08740 0.62461 0.45673
 H638 H 0.06267 0.58729 0.48458
 H639 H 0.00692 0.54831 0.42422
 H640 H 0.03210 0.58521 0.39608
 H641 H 0.04616 0.62937 0.38676
 H642 H 0.07317 0.66227 0.35543
 H643 H 0.14188 0.66891 0.39059
 H644 H 0.11489 0.63502 0.42086
 H645 H 0.15253 0.67230 0.34670
 H646 H 0.17970 0.70379 0.31420
 H647 H 0.13104 0.73822 0.31597
 H648 H 0.10407 0.70732 0.34923
 C649 C 0.93566 0.53750 0.92532
 C650 C 0.92441 0.52426 0.94819
 C651 C 0.93811 0.51678 0.96447
 C652 C 0.96335 0.52233 0.95821
 C653 C 0.97490 0.53628 0.93574
 C654 C 0.96122 0.54380 0.91950
 C655 C 0.92036 0.54354 0.90700
 C656 C 0.92200 0.54005 0.88066
 C657 C 0.90682 0.54452 0.86338
 C658 C 0.88957 0.55253 0.87199
 C659 C 0.88821 0.55645 0.89828
 C660 C 0.90341 0.55196 0.91561
 C661 C 0.87273 0.55621 0.85355
 C662 C 0.86831 0.57726 0.85596
 C663 C 0.85279 0.58081 0.83821
 C664 C 0.84147 0.56338 0.81781
 C665 C 0.84552 0.54218 0.81557
 C666 C 0.86101 0.53863 0.83324
 H667 H 0.90466 0.51887 0.95309
 H668 H 0.92865 0.50602 0.98162
 H669 H 0.99437 0.54102 0.93043
 H670 H 0.97059 0.55438 0.90225
 H671 H 0.93460 0.53327 0.87342
 H672 H 0.90858 0.54167 0.84322
 H673 H 0.87497 0.56245 0.90550
 H674 H 0.90190 0.55505 0.93575
 H675 H 0.87723 0.59123 0.87129
 H676 H 0.84981 0.59727 0.84019
 H677 H 0.83670 0.52841 0.80005
 H678 H 0.86362 0.52196 0.83114
 C679 C 0.45892 0.39197 0.93133
 C680 C 0.46934 0.39298 0.95567
 C681 C 0.47656 0.41436 0.97167
 C682 C 0.47336 0.43525 0.96386
 C683 C 0.46185 0.43365 0.93993
 C684 C 0.45488 0.41237 0.92384
 C685 C 0.45357 0.37044 0.91334
 C686 C 0.43237 0.36064 0.89642
 C687 C 0.42846 0.34161 0.87842
 C688 C 0.44559 0.33183 0.87699
 C689 C 0.46635 0.34112 0.89438
 C690 C 0.47036 0.36025 0.91222
 C691 C 0.44239 0.31266 0.85698
 C692 C 0.46432 0.31433 0.84496
 C693 C 0.46149 0.29656 0.82602
 C694 C 0.43672 0.27694 0.81856
 C695 C 0.41473 0.27515 0.83033
 C696 C 0.41753 0.29282 0.84946
 H697 H 0.47217 0.37733 0.96229
 H698 H 0.48504 0.41461 0.99005
 H699 H 0.45898 0.44925 0.93315
 H700 H 0.44719 0.41241 0.90512
 H701 H 0.41884 0.36778 0.89697
 H702 H 0.41240 0.33506 0.86520
 H703 H 0.47966 0.33371 0.89412
 H704 H 0.48708 0.36754 0.92469
 H705 H 0.48371 0.32964 0.84987
 H706 H 0.47862 0.29824 0.81695
 H707 H 0.39548 0.26004 0.82473
 H708 H 0.40027 0.29079 0.85852
 C709 C 0.60516 0.05811 0.92094
 C710 C 0.58507 0.03281 0.91526
 C711 C 0.56412 0.01958 0.93192
 C712 C 0.56273 0.03133 0.95479
 C713 C 0.58340 0.05630 0.96089
 C714 C 0.60429 0.06952 0.94415
 C715 C 0.62619 0.07308 0.90217
 C716 C 0.65191 0.08968 0.91023
 C717 C 0.67126 0.10491 0.89258
 C718 C 0.66531 0.10390 0.86649
 C719 C 0.63974 0.08685 0.85839
 C720 C 0.62042 0.07167 0.87600
 C721 C 0.68541 0.12109 0.84782
 C722 C 0.67906 0.13312 0.82825
 C723 C 0.69776 0.14924 0.81057
 C724 C 0.72318 0.15368 0.81207
 C725 C 0.72975 0.14195 0.83166
 C726 C 0.71101 0.12577 0.84941
 H727 H 0.58542 0.02329 0.89775
 H728 H 0.54880 0.00031 0.92658
 H729 H 0.58319 0.06605 0.97829
 H730 H 0.61932 0.08909 0.94899
 H731 H 0.65704 0.09099 0.93023
 H732 H 0.69074 0.11797 0.89944
 H733 H 0.63461 0.08534 0.83838
 H734 H 0.60078 0.05934 0.86917
 H735 H 0.65968 0.13034 0.82679
 H736 H 0.69245 0.15836 0.79569
 H737 H 0.74932 0.14521 0.83306
 H738 H 0.71644 0.11662 0.86414
 C739 C 0.06178 0.46059 0.42452
 C740 C 0.03723 0.45622 0.41723
 C741 C 0.02293 0.46289 0.43355
 C742 C 0.03308 0.47456 0.45741
 C743 C 0.05743 0.47820 0.46493
 C744 C 0.07153 0.47113 0.44871
 C745 C 0.07779 0.45554 0.40634
 C746 C 0.09030 0.44193 0.41399
 C747 C 0.10597 0.43793 0.39681
 C748 C 0.10977 0.44792 0.37191
 C749 C 0.09720 0.46146 0.36429
 C750 C 0.08122 0.46507 0.38128
 C751 C 0.12714 0.44474 0.35392
 C752 C 0.14620 0.46633 0.34044
 C753 C 0.16222 0.46341 0.32293
 C754 C 0.15918 0.43879 0.31831
 C755 C 0.14026 0.41717 0.33180
 C756 C 0.12449 0.42017 0.34969
 H757 H 0.02923 0.44788 0.39874
 H758 H 0.00424 0.45960 0.42703
 H759 H 0.06590 0.48697 0.48316
 H760 H 0.09049 0.47479 0.45468
 H761 H 0.08786 0.43435 0.43321
 H762 H 0.11557 0.42752 0.40311
 H763 H 0.09972 0.46919 0.34512
 H764 H 0.07197 0.47582 0.37501
 H765 H 0.14872 0.48549 0.34355
 H766 H 0.17676 0.48026 0.31264
 H767 H 0.13765 0.39804 0.32834
 H768 H 0.10982 0.40324 0.35978
 C769 C 0.54457 0.60967 0.42821
 C770 C 0.53091 0.60752 0.45083
 C771 C 0.52365 0.58650 0.46733
 C772 C 0.52984 0.56714 0.46154
 C773 C 0.54427 0.56977 0.43939
 C774 C 0.55158 0.59082 0.42294
 C775 C 0.55017 0.63063 0.40951
 C776 C 0.54703 0.62507 0.38324
 C777 C 0.55096 0.64427 0.36558
 C778 C 0.55805 0.66951 0.37372
 C779 C 0.56168 0.67527 0.39994
 C780 C 0.55773 0.65601 0.41766
 C781 C 0.56102 0.68947 0.35485
 C782 C 0.58142 0.71538 0.35690
 C783 C 0.58436 0.73386 0.33867
 C784 C 0.56694 0.72672 0.31815
 C785 C 0.54636 0.70102 0.31629
 C786 C 0.54342 0.68258 0.33444
 H787 H 0.52498 0.62157 0.45531
 H788 H 0.51250 0.58502 0.48422
 H789 H 0.54951 0.55530 0.43447
 H790 H 0.56250 0.59217 0.40591
 H791 H 0.54091 0.60566 0.37633
 H792 H 0.54837 0.63932 0.34548
 H793 H 0.56698 0.69450 0.40681
 H794 H 0.56053 0.66096 0.43775
 H795 H 0.59538 0.72122 0.37231
 H796 H 0.60034 0.75365 0.34035
 H797 H 0.53261 0.69527 0.30069
 H798 H 0.52723 0.66293 0.33260
 C799 C 0.38959 0.93574 0.42497
 C800 C 0.41119 0.95872 0.41598
 C801 C 0.43272 0.97321 0.43169
 C802 C 0.43326 0.96497 0.45670
 C803 C 0.41140 0.94244 0.46596
 C804 C 0.38978 0.92806 0.45032
 C805 C 0.36764 0.91919 0.40757
 C806 C 0.35566 0.89193 0.40870
 C807 C 0.33620 0.87631 0.39135
 C808 C 0.32834 0.88752 0.37227
 C809 C 0.33986 0.91475 0.37150
 C810 C 0.35924 0.93039 0.38898
 C811 C 0.30898 0.87090 0.35269
 C812 C 0.29039 0.87689 0.34342
 C813 C 0.27276 0.86154 0.32445
 C814 C 0.27339 0.83994 0.31459
 C815 C 0.29168 0.83375 0.32386
 C816 C 0.30937 0.84911 0.34267
 H817 H 0.41189 0.96503 0.39647
 H818 H 0.44930 0.99043 0.42395
 H819 H 0.41113 0.93569 0.48522
 H820 H 0.37328 0.91076 0.45803
 H821 H 0.36183 0.88262 0.42255
 H822 H 0.32746 0.85540 0.39275
 H823 H 0.33442 0.92404 0.35693
 H824 H 0.36779 0.95130 0.38778
 H825 H 0.28937 0.89333 0.35092
 H826 H 0.25868 0.86650 0.31740
 H827 H 0.29246 0.81721 0.31624
 H828 H 0.32372 0.84423 0.34898
 C829 C 0.54085 0.93048 0.07013
 C830 C 0.52563 0.91913 0.04826
 C831 C 0.51904 0.93369 0.03219
 C832 C 0.52742 0.95988 0.03773
 C833 C 0.54331 0.97144 0.05919
 C834 C 0.55002 0.95690 0.07517
 C835 C 0.54597 0.91447 0.08835
 C836 C 0.57058 0.92415 0.09956
 C837 C 0.57486 0.90943 0.11768
 C838 C 0.55455 0.88486 0.12511
 C839 C 0.53006 0.87506 0.11363
 C840 C 0.52584 0.88966 0.09540
 C841 C 0.55857 0.86974 0.14529
 C842 C 0.53988 0.85744 0.16456
 C843 C 0.54349 0.84316 0.18361
 C844 C 0.56579 0.84083 0.18368
 C845 C 0.58451 0.85301 0.16451
 C846 C 0.58100 0.86750 0.14550
 H847 H 0.51857 0.89889 0.04374
 H848 H 0.50683 0.92421 0.01579
 H849 H 0.55009 0.99157 0.06397
 H850 H 0.56159 0.96610 0.09201
 H851 H 0.58649 0.94314 0.09435
 H852 H 0.59389 0.91751 0.12635
 H853 H 0.51413 0.85607 0.11880
 H854 H 0.50660 0.88181 0.08729
 H855 H 0.52259 0.85912 0.16505
 H856 H 0.52887 0.83382 0.19829
 H857 H 0.60177 0.85128 0.16430
 H858 H 0.59559 0.87661 0.13076
 C859 C 0.39399 0.45715 0.07861
 C860 C 0.41549 0.45559 0.08739
 C861 C 0.43678 0.46234 0.07146
 C862 C 0.43714 0.47099 0.04643
 C863 C 0.41537 0.47187 0.03739
 C864 C 0.39400 0.46493 0.05326
 C865 C 0.37227 0.45196 0.09619
 C866 C 0.36056 0.46743 0.09519
 C867 C 0.34118 0.46363 0.11256
 C868 C 0.33311 0.44440 0.13153
 C869 C 0.34442 0.42857 0.13224
 C870 C 0.36375 0.43227 0.11475
 C871 C 0.31358 0.44149 0.15093
 C872 C 0.29473 0.41675 0.15982
 C873 C 0.27673 0.41426 0.17839
 C874 C 0.27722 0.43643 0.18824
 C875 C 0.29585 0.46108 0.17943
 C876 C 0.31392 0.46362 0.16101
 H877 H 0.41631 0.45003 0.10689
 H878 H 0.45330 0.46155 0.07903
 H879 H 0.41497 0.47826 0.01813
 H880 H 0.37756 0.46586 0.04571
 H881 H 0.36684 0.48298 0.08138
 H882 H 0.33259 0.47590 0.11120
 H883 H 0.33883 0.41372 0.14673
 H884 H 0.37211 0.41979 0.11586
 H885 H 0.29375 0.39933 0.15226
 H886 H 0.26238 0.39510 0.18506
 H887 H 0.29651 0.47836 0.18703
 H888 H 0.32845 0.48296 0.15500
 C889 C 0.06646 0.60300 0.07126
 C890 C 0.04305 0.58199 0.08025
 C891 C 0.02838 0.56020 0.06487
 C892 C 0.03686 0.55881 0.04020
 C893 C 0.05995 0.58002 0.03097
 C894 C 0.07453 0.60190 0.04629
 C895 C 0.08291 0.62537 0.08829
 C896 C 0.11010 0.63685 0.08792
 C897 C 0.12553 0.65682 0.10494
 C898 C 0.11418 0.66570 0.12289
 C899 C 0.08704 0.65464 0.12289
 C900 C 0.07159 0.63475 0.10576
 C901 C 0.13052 0.68572 0.14211
 C902 C 0.12468 0.70490 0.14987
 C903 C 0.13965 0.72310 0.16859
 C904 C 0.16074 0.72250 0.17971
 C905 C 0.16683 0.70365 0.17191
 C906 C 0.15183 0.68537 0.15335
 H907 H 0.03643 0.58198 0.09950
 H908 H 0.01074 0.54413 0.07260
 H909 H 0.06692 0.57962 0.01197
 H910 H 0.09222 0.61792 0.03860
 H911 H 0.11947 0.62994 0.07495
 H912 H 0.14640 0.66519 0.10414
 H913 H 0.07763 0.66085 0.13659
 H914 H 0.05075 0.62660 0.10632
 H915 H 0.10863 0.70591 0.14139
 H916 H 0.13478 0.73762 0.17448
 H917 H 0.18300 0.70290 0.18051
 H918 H 0.15659 0.67061 0.14820
 C919 C 0.45683 0.06659 0.57258
 C920 C 0.46467 0.07461 0.54729
 C921 C 0.47161 0.06029 0.53123
 C922 C 0.47067 0.03750 0.54002
 C923 C 0.46198 0.02898 0.56500
 C924 C 0.45523 0.04340 0.58112
 C925 C 0.45157 0.08294 0.59036
 C926 C 0.43185 0.07152 0.60884
 C927 C 0.42810 0.08695 0.62656
 C928 C 0.44393 0.11418 0.62616
 C929 C 0.46318 0.12561 0.60725
 C930 C 0.46701 0.11020 0.58964
 C931 C 0.44102 0.13056 0.64587
 C932 C 0.46311 0.15226 0.65619
 C933 C 0.46058 0.16746 0.67502
 C934 C 0.43597 0.16119 0.68403
 C935 C 0.41383 0.13965 0.67389
 C936 C 0.41632 0.12447 0.65490
 H937 H 0.46564 0.09209 0.53993
 H938 H 0.47804 0.06727 0.51202
 H939 H 0.46115 0.01157 0.57239
 H940 H 0.44963 0.03683 0.60057
 H941 H 0.41937 0.05061 0.60972
 H942 H 0.41324 0.07748 0.64100
 H943 H 0.47544 0.14654 0.60613
 H944 H 0.48259 0.11967 0.57589
 H945 H 0.48243 0.15722 0.65006
 H946 H 0.47784 0.18397 0.68284
 H947 H 0.39470 0.13465 0.68070
 H948 H 0.39891 0.10810 0.64716
 C949 C 0.60878 0.54282 0.57613
 C950 C 0.59122 0.55141 0.58166
 C951 C 0.56992 0.54471 0.56573
 C952 C 0.56585 0.52942 0.54385
 C953 C 0.58395 0.52162 0.53785
 C954 C 0.60514 0.52818 0.55386
 C955 C 0.63000 0.54789 0.59422
 C956 C 0.63498 0.52786 0.60062
 C957 C 0.65398 0.53203 0.61862
 C958 C 0.66854 0.55637 0.63052
 C959 C 0.66396 0.57660 0.62376
 C960 C 0.64477 0.57236 0.60587
 C961 C 0.68795 0.56032 0.65036
 C962 C 0.71261 0.58289 0.65057
 C963 C 0.73095 0.58619 0.66910
 C964 C 0.72478 0.56710 0.68780
 C965 C 0.70014 0.54471 0.68781
 C966 C 0.68189 0.54131 0.66923
 H967 H 0.59342 0.56253 0.59881
 H968 H 0.55634 0.55105 0.57087
 H969 H 0.58142 0.50988 0.52111
 H970 H 0.61857 0.52158 0.54897
 H971 H 0.62372 0.50873 0.59216
 H972 H 0.65729 0.51617 0.62328
 H973 H 0.67481 0.59551 0.63276
 H974 H 0.64144 0.58819 0.60116
 H975 H 0.71782 0.59773 0.63613
 H976 H 0.74997 0.60353 0.66884
 H977 H 0.69514 0.52980 0.70213
 H978 H 0.66294 0.52389 0.66971
 C979 C 0.93423 0.39514 0.57419
 C980 C 0.96003 0.41429 0.57948
 C981 C 0.97365 0.43526 0.56292
 C982 C 0.96180 0.43755 0.54063
 C983 C 0.93631 0.41795 0.53488
 C984 C 0.92267 0.39698 0.55148
 C985 C 0.91905 0.37410 0.59288
 C986 C 0.90169 0.34859 0.58469
 C987 C 0.88666 0.32916 0.60238
 C988 C 0.88860 0.33485 0.62861
 C989 C 0.90624 0.36026 0.63679
 C990 C 0.92126 0.37964 0.61915
 C991 C 0.87199 0.31458 0.64741
 C992 C 0.86074 0.32080 0.66784
 C993 C 0.84528 0.30193 0.68571
 C994 C 0.84080 0.27648 0.68356
 C995 C 0.85176 0.27007 0.66311
 C996 C 0.86723 0.28896 0.64516
 H997 H 0.96963 0.41318 0.59659
 H998 H 0.99332 0.44993 0.56784
 H999 H 0.92661 0.41917 0.51789
 H1000 H 0.90274 0.38270 0.54698
 H1001 H 0.89972 0.34366 0.56460
 H1002 H 0.87310 0.30981 0.59547
 H1003 H 0.90844 0.36518 0.65689
 H1004 H 0.93420 0.39915 0.62607
 H1005 H 0.86364 0.34022 0.66984
 H1006 H 0.83673 0.30711 0.70125
 H1007 H 0.84844 0.25048 0.66119
 H1008 H 0.87580 0.28364 0.62977
   
