data_POSCAR
  _audit_creation_date              2014-09-24
  _audit_creation_method            'ToBaCCo'
  _symmetry_space_group_name_H-M    'P1'
  _symmetry_Int_Tables_number       1
  _symmetry_cell_setting            triclinic
  loop_
  _symmetry_equiv_pos_as_xyz
 x,y,z
_cell_length_a 11.0555
_cell_length_b 11.0766
_cell_length_c 18.0556
_cell_angle_alpha 77.910900
_cell_angle_beta 102.554000
_cell_angle_gamma 93.003400
loop_
  _atom_site_label
  _atom_site_type_symbol
  _atom_site_fract_x
  _atom_site_fract_y
  _atom_site_fract_z
O1 O -0.07952 0.59722 0.88309
 O2 O -0.17904 0.34316 1.01946
 O3 O -0.16810 0.57429 1.01127
 O4 O -0.05504 0.35680 0.91176
 O5 O 0.13125 0.36487 0.98618
 O6 O 0.01698 0.57146 1.08848
 O7 O 0.00826 0.33039 1.09473
 O8 O 0.10403 0.60436 0.96065
 Cu9 Cu -0.13774 0.46999 0.94799
 Cu10 Cu 0.08303 0.46889 1.04039
 C11 C 0.02749 0.64425 0.89735
 C12 C -0.10309 0.29096 1.07918
 C13 C -0.09491 0.60539 1.06920
 C14 C 0.05761 0.32226 0.93350
 O15 O 0.64197 -0.03894 0.59272
 O16 O 0.36446 -0.13167 0.45755
 O17 O 0.60884 -0.16533 0.48761
 O18 O 0.40538 -0.05449 0.59280
 O19 O 0.39791 0.12945 0.51576
 O20 O 0.61037 0.01935 0.41210
 O21 O 0.37209 0.05125 0.38107
 O22 O 0.63098 0.14699 0.51726
 Cu23 Cu 0.50173 -0.11557 0.53897
 Cu24 Cu 0.49914 0.10307 0.44954
 C25 C 0.68330 0.07138 0.57698
 C26 C 0.32431 -0.05506 0.39451
 C27 C 0.64787 -0.09201 0.43390
 C28 C 0.37024 0.05658 0.57437
 C29 C -0.09586 -0.11257 0.24637
 C30 C 0.08665 0.06110 0.74924
 C31 C -0.14015 -0.32161 0.11636
 C32 C -0.26153 -0.31910 0.12298
 C33 C -0.26099 -0.24671 0.17543
 C34 C -0.13920 -0.20822 0.19610
 O35 O -0.06578 -0.25588 0.16085
 H36 H -0.34025 -0.36650 0.09430
 H37 H -0.34027 -0.22448 0.19597
 C38 C -0.14337 0.18731 0.12579
 C39 C -0.26631 0.15310 0.11967
 C40 C -0.26585 0.04138 0.16789
 C41 C -0.14221 0.01320 0.19880
 O42 O -0.06786 0.10377 0.17436
 H43 H -0.34675 0.20274 0.08316
 H44 H -0.34645 -0.01427 0.17716
 C45 C 0.29974 0.10167 0.62287
 C46 C 0.30083 0.22211 0.63163
 C47 C 0.22802 0.22237 0.68350
 C48 C 0.18572 0.10200 0.70171
 O49 O 0.23131 0.02860 0.66542
 H50 H 0.35029 0.29978 0.60439
 H51 H 0.20717 0.30140 0.70485
 C52 C -0.21134 0.11074 0.62361
 C53 C -0.17448 0.23272 0.61689
 C54 C -0.06305 0.23146 0.66645
 C55 C -0.03765 0.10826 0.69879
 O56 O -0.12961 0.03500 0.67380
 H57 H -0.22242 0.31304 0.57936
 H58 H -0.00582 0.31116 0.67587
 C59 C 0.06147 -0.25758 0.83703
 C60 C 0.04780 -0.27198 0.76178
 C61 C 0.06135 -0.15705 0.71982
 C62 C 0.08155 -0.07951 0.77237
 O63 O 0.08081 -0.14104 0.84390
 H64 H 0.02379 -0.35564 0.73967
 H65 H 0.05043 -0.13152 0.65752
 C66 C 0.10396 0.23110 0.89815
 C67 C 0.21847 0.17578 0.92518
 C68 C 0.22584 0.10116 0.87520
 C69 C 0.11540 0.11690 0.82110
 O70 O 0.04102 0.19523 0.83544
 H71 H 0.28868 0.18950 0.97482
 H72 H 0.30351 0.04474 0.87639
 C73 C -0.26206 -0.13661 0.39707
 C74 C -0.20657 -0.25088 0.42170
 C75 C -0.13356 -0.25602 0.37059
 C76 C -0.15025 -0.14454 0.31838
 O77 O -0.22776 -0.07177 0.33484
 H78 H -0.21921 -0.32238 0.47045
 H79 H -0.07743 -0.33276 0.36989
 C80 C 0.22490 -0.08841 0.33384
 C81 C 0.23791 -0.07415 0.25842
 C82 C 0.12205 -0.08784 0.21652
 C83 C 0.04543 -0.10877 0.26931
 O84 O 0.10841 -0.10831 0.34092
 H85 H 0.32122 -0.04962 0.23619
 H86 H 0.09525 -0.07621 0.15414
   
