data_POSCAR
  _audit_creation_date              2014-09-24
  _audit_creation_method            'ToBaCCo'
  _symmetry_space_group_name_H-M    'P1'
  _symmetry_Int_Tables_number       1
  _symmetry_cell_setting            triclinic
  loop_
  _symmetry_equiv_pos_as_xyz
 x,y,z
_cell_length_a 31.4617
_cell_length_b 31.4905
_cell_length_c 37.3336
_cell_angle_alpha 88.391000
_cell_angle_beta 91.283100
_cell_angle_gamma 88.266600
loop_
  _atom_site_label
  _atom_site_type_symbol
  _atom_site_fract_x
  _atom_site_fract_y
  _atom_site_fract_z
C1 C 0.01405 0.54127 1.01766
 C2 C 0.01480 0.54131 0.97938
 C3 C 0.01199 0.50214 0.96229
 C4 C 0.00761 0.46355 0.98136
 C5 C 0.00726 0.46327 1.01945
 C6 C 0.01004 0.50237 1.03666
 H7 H 0.00961 0.50253 1.06570
 H8 H 0.01150 0.50154 0.93326
 C9 C 0.45972 -0.00569 0.51843
 C10 C 0.45770 -0.00439 0.48058
 C11 C 0.49546 -0.00629 0.46141
 C12 C 0.53575 -0.00844 0.47876
 C13 C 0.53748 -0.00890 0.51697
 C14 C 0.49954 -0.00774 0.53609
 H15 H 0.50104 -0.00893 0.56515
 H16 H 0.49313 -0.00464 0.43238
 C17 C 0.07790 0.00345 0.26259
 H18 H 0.07931 0.01087 0.23418
 C19 C 0.11503 0.00238 0.28383
 H20 H 0.14508 0.00874 0.27149
 C21 C 0.03701 -0.01521 0.31291
 H22 H 0.00651 -0.02233 0.32401
 C23 C 0.07334 -0.01674 0.33511
 H24 H 0.07040 -0.02446 0.36337
 N25 N 0.03998 -0.00557 0.27734
 C26 C -0.04325 -0.06608 0.20072
 H27 H -0.07096 -0.04485 0.20008
 C28 C -0.04416 -0.10407 0.18231
 H29 H -0.07254 -0.11181 0.16721
 C30 C 0.02711 -0.08240 0.22186
 H31 H 0.05460 -0.07433 0.23778
 C32 C 0.02781 -0.12034 0.20339
 H33 H 0.05585 -0.14116 0.20533
 Zn34 Zn -0.00919 -0.00596 0.24742
 N35 N -0.00810 -0.05616 0.22030
 C36 C -0.01970 0.04120 0.18111
 N37 N -0.01001 0.04320 0.21672
 C38 C 0.00001 0.08062 0.23161
 C39 C -0.00092 0.11818 0.21088
 C40 C -0.02073 0.07805 0.15926
 C41 C -0.07983 -0.04099 0.28239
 C42 C -0.11548 -0.04058 0.30403
 C43 C -0.10509 0.03383 0.31408
 C44 C -0.06967 0.03199 0.29230
 N45 N -0.05795 -0.00490 0.27661
 H46 H -0.02670 0.01112 0.16950
 H47 H 0.00890 0.08133 0.25972
 H48 H 0.00607 0.14767 0.22367
 H49 H -0.02823 0.07573 0.13096
 H50 H -0.06934 -0.07037 0.27067
 H51 H -0.13221 -0.06972 0.30857
 H52 H -0.11430 0.06377 0.32568
 H53 H -0.05169 0.06018 0.28795
 C54 C -0.00832 -0.13175 0.18366
 C55 C 0.11305 -0.00812 0.32057
 C56 C -0.12862 -0.00273 0.32010
 C57 C -0.01151 0.11732 0.17415
 C58 C -0.03136 0.08236 0.78331
 H59 H -0.06030 0.07584 0.76863
 C60 C -0.03050 0.11694 0.80591
 H61 H -0.05906 0.13657 0.80832
 C62 C 0.03994 0.06311 0.79964
 H63 H 0.06724 0.04178 0.79707
 C64 C 0.04247 0.09771 0.82205
 H65 H 0.07223 0.10307 0.83605
 N66 N 0.00387 0.05681 0.78003
 C67 C 0.06037 -0.02003 0.69689
 H68 H 0.04107 -0.04786 0.69813
 C69 C 0.09543 -0.01914 0.67456
 H70 H 0.10298 -0.04642 0.65859
 C71 C 0.07372 0.04958 0.71586
 H72 H 0.06486 0.07660 0.73153
 C73 C 0.10869 0.05201 0.69363
 H74 H 0.12704 0.08056 0.69317
 Zn75 Zn 0.00444 0.01010 0.74914
 N76 N 0.05095 0.01356 0.71776
 C77 C -0.05761 0.04521 0.70064
 N78 N -0.04635 0.00980 0.72077
 C79 C -0.07071 -0.02518 0.72057
 C80 C -0.10907 -0.02463 0.70102
 C81 C -0.09589 0.04723 0.68087
 C82 C 0.04304 -0.06693 0.77915
 C83 C 0.04405 -0.10358 0.80121
 C84 C -0.02464 -0.08228 0.82346
 C85 C -0.02409 -0.04590 0.80135
 N86 N 0.00883 -0.03946 0.77907
 H87 H -0.03722 0.07227 0.70064
 H88 H -0.06063 -0.05357 0.73570
 H89 H -0.12859 -0.05236 0.70207
 H90 H -0.10468 0.07592 0.66546
 H91 H 0.06967 -0.06048 0.76230
 H92 H 0.07165 -0.12494 0.80100
 H93 H -0.05211 -0.08748 0.83978
 H94 H -0.05054 -0.02313 0.80120
 C95 C 0.12031 0.01712 0.67303
 C96 C 0.00705 0.12553 0.82522
 C97 C 0.00958 -0.11200 0.82341
 C98 C -0.12243 0.01215 0.68128
 C99 C 0.05414 -0.35485 0.04793
 C100 C 0.02511 -0.34417 0.07496
 C101 C -0.00637 -0.37389 0.08344
 C102 C -0.00817 -0.41256 0.06576
 C103 C 0.01946 -0.42177 0.03781
 C104 C 0.05124 -0.39287 0.02977
 C105 C -0.03672 -0.36453 0.10890
 C106 C -0.03770 -0.32556 0.12532
 C107 C -0.00759 -0.29451 0.11746
 C108 C 0.02556 -0.30476 0.09321
 C109 C 0.05816 -0.27543 0.08827
 C110 C 0.05788 -0.23702 0.10569
 C111 C 0.02460 -0.22565 0.12787
 C112 C -0.00910 -0.25379 0.13355
 C113 C -0.04333 -0.23960 0.15464
 C114 C -0.04318 -0.19986 0.17027
 C115 C -0.00899 -0.17304 0.16568
 C116 C 0.02478 -0.18607 0.14435
 H117 H 0.07866 -0.33400 0.03933
 H118 H -0.03322 -0.43428 0.07214
 H119 H 0.07391 -0.39958 0.00909
 H120 H -0.06059 -0.38732 0.11576
 H121 H -0.06209 -0.32109 0.14476
 H122 H 0.08507 -0.28164 0.07168
 H123 H 0.08382 -0.21572 0.10135
 H124 H -0.07111 -0.25804 0.15906
 H125 H -0.06970 -0.19032 0.18655
 H126 H 0.05099 -0.16503 0.14017
 C127 C 0.03420 0.38161 0.09121
 C128 C 0.00875 0.34728 0.08160
 C129 C -0.02033 0.35391 0.05230
 C130 C -0.02185 0.39258 0.03248
 C131 C 0.00573 0.42540 0.04085
 C132 C 0.03260 0.41973 0.07128
 C133 C -0.04759 0.32181 0.04273
 C134 C -0.04689 0.28318 0.06170
 C135 C -0.01815 0.27471 0.09082
 C136 C 0.01094 0.30690 0.10026
 C137 C 0.04186 0.29739 0.12753
 C138 C 0.04361 0.25841 0.14576
 C139 C 0.01442 0.22741 0.13801
 C140 C -0.01706 0.23496 0.11059
 C141 C -0.04636 0.20247 0.10453
 C142 C -0.04424 0.16443 0.12481
 C143 C -0.01289 0.15721 0.15173
 C144 C 0.01658 0.18885 0.15783
 H145 H 0.05579 0.38025 0.11403
 H146 H -0.04494 0.39720 0.01063
 H147 H 0.05427 0.44416 0.07893
 H148 H -0.06983 0.32660 0.02027
 H149 H -0.06886 0.26018 0.05230
 H150 H 0.06599 0.31916 0.13508
 H151 H 0.06800 0.25263 0.16646
 H152 H -0.07193 0.20571 0.08490
 H153 H -0.06795 0.14093 0.11987
 H154 H 0.04147 0.18351 0.17814
 C155 C 0.37615 -0.04253 0.58238
 C156 C 0.34373 -0.01042 0.57807
 C157 C 0.35176 0.02494 0.55507
 C158 C 0.38998 0.02694 0.53642
 C159 C 0.42081 -0.00594 0.54011
 C160 C 0.41393 -0.04019 0.56364
 C161 C 0.32154 0.05801 0.55055
 C162 C 0.28352 0.05728 0.56869
 C163 C 0.27381 0.02291 0.59191
 C164 C 0.30394 -0.01203 0.59592
 C165 C 0.29305 -0.04765 0.61725
 C166 C 0.25472 -0.04877 0.63486
 C167 C 0.22580 -0.01439 0.63239
 C168 C 0.23484 0.02210 0.61107
 C169 C 0.20467 0.05649 0.61037
 C170 C 0.16750 0.05453 0.63005
 C171 C 0.15882 0.01830 0.65086
 C172 C 0.18800 -0.01620 0.65163
 H173 H 0.37356 -0.06985 0.60009
 H174 H 0.39562 0.05388 0.51860
 H175 H 0.43763 -0.06576 0.56699
 H176 H 0.32740 0.08496 0.53282
 H177 H 0.26202 0.08407 0.56339
 H178 H 0.31326 -0.07574 0.62056
 H179 H 0.24784 -0.07684 0.65092
 H180 H 0.20906 0.08575 0.59550
 H181 H 0.14535 0.08157 0.62894
 H182 H 0.18185 -0.04411 0.66817
 C183 C -0.35512 -0.05149 0.55177
 C184 C -0.34136 -0.01841 0.57388
 C185 C -0.36970 0.01697 0.57794
 C186 C -0.40977 0.01881 0.56056
 C187 C -0.42205 -0.01354 0.53802
 C188 C -0.39482 -0.04894 0.53420
 C189 C -0.35775 0.05076 0.59881
 C190 C -0.31784 0.05092 0.61534
 C191 C -0.28811 0.01685 0.61195
 C192 C -0.30044 -0.01889 0.59162
 C193 C -0.27154 -0.05393 0.58986
 C194 C -0.23192 -0.05405 0.60699
 C195 C -0.21906 -0.01915 0.62615
 C196 C -0.24662 0.01708 0.62859
 C197 C -0.23125 0.05213 0.64746
 C198 C -0.19092 0.05056 0.66390
 C199 C -0.16440 0.01423 0.66220
 C200 C -0.17863 -0.02043 0.64301
 H201 H -0.33575 -0.07935 0.54677
 H202 H -0.43090 0.04632 0.56338
 H203 H -0.40401 -0.07430 0.51688
 H204 H -0.37940 0.07773 0.60215
 H205 H -0.31153 0.07826 0.63105
 H206 H -0.27874 -0.08231 0.57581
 H207 H -0.21099 -0.08185 0.60507
 H208 H -0.24935 0.08140 0.64995
 H209 H -0.18079 0.07774 0.67868
 H210 H -0.15800 -0.04843 0.64098
 C211 C 0.04079 -0.38243 0.90505
 C212 C 0.01818 -0.34491 0.91421
 C213 C -0.00632 -0.34643 0.94557
 C214 C -0.00888 -0.38433 0.96599
 C215 C 0.01506 -0.42099 0.95749
 C216 C 0.03919 -0.41953 0.92625
 C217 C -0.02790 -0.31000 0.95671
 C218 C -0.02480 -0.27156 0.93800
 C219 C -0.00076 -0.26824 0.90660
 C220 C 0.01953 -0.30592 0.89366
 C221 C 0.03982 -0.30351 0.86033
 C222 C 0.04104 -0.26553 0.84066
 C223 C 0.02320 -0.22816 0.85373
 C224 C 0.00279 -0.22870 0.88720
 C225 C -0.01280 -0.18944 0.89999
 C226 C -0.00979 -0.15183 0.87966
 C227 C 0.00869 -0.15180 0.84584
 C228 C 0.02547 -0.19022 0.83326
 H229 H 0.06130 -0.38388 0.88238
 H230 H -0.02981 -0.38512 0.98863
 H231 H 0.05865 -0.44672 0.91883
 H232 H -0.04688 -0.31102 0.98060
 H233 H -0.04265 -0.24510 0.94838
 H234 H 0.05413 -0.33082 0.84808
 H235 H 0.05652 -0.26537 0.81500
 H236 H -0.02677 -0.18650 0.92592
 H237 H -0.02177 -0.12250 0.89071
 H238 H 0.03970 -0.19088 0.80710
 C239 C -0.02985 0.38633 0.91255
 C240 C -0.00191 0.35064 0.91857
 C241 C 0.02910 0.35254 0.94662
 C242 C 0.03324 0.38974 0.96619
 C243 C 0.00502 0.42457 0.95994
 C244 C -0.02641 0.42245 0.93300
 C245 C 0.05550 0.31720 0.95522
 C246 C 0.05146 0.27962 0.93697
 C247 C 0.02164 0.27634 0.90840
 C248 C -0.00415 0.31305 0.89809
 C249 C -0.03051 0.31137 0.86709
 C250 C -0.03241 0.27486 0.84726
 C251 C -0.00913 0.23817 0.85798
 C252 C 0.01755 0.23796 0.88910
 C253 C 0.03867 0.19914 0.89969
 C254 C 0.03460 0.16280 0.87943
 C255 C 0.00966 0.16373 0.84778
 C256 C -0.01228 0.20170 0.83744
 H257 H -0.05559 0.38692 0.89301
 H258 H 0.05778 0.39129 0.98694
 H259 H -0.04886 0.44885 0.92806
 H260 H 0.07922 0.31841 0.97665
 H261 H 0.07325 0.25396 0.94520
 H262 H -0.04913 0.33837 0.85662
 H263 H -0.05267 0.27529 0.82336
 H264 H 0.05784 0.19552 0.92392
 H265 H 0.05087 0.13369 0.88888
 H266 H -0.03144 0.20326 0.81292
 C267 C -0.39027 -0.03687 0.40574
 C268 C -0.35323 -0.01472 0.41477
 C269 C -0.35445 0.01054 0.44557
 C270 C -0.39127 0.01338 0.46605
 C271 C -0.42740 -0.00984 0.45748
 C272 C -0.42645 -0.03429 0.42658
 C273 C -0.31895 0.03300 0.45590
 C274 C -0.28186 0.03081 0.43654
 C275 C -0.27879 0.00613 0.40563
 C276 C -0.31523 -0.01669 0.39435
 C277 C -0.31254 -0.04047 0.36291
 C278 C -0.27576 -0.04204 0.34316
 C279 C -0.23994 -0.02035 0.35390
 C280 C -0.24065 0.00383 0.38539
 C281 C -0.20300 0.02468 0.39517
 C282 C -0.16688 0.02217 0.37420
 C283 C -0.16675 -0.00120 0.34284
 C284 C -0.20341 -0.02260 0.33302
 H285 H -0.39240 -0.05707 0.38304
 H286 H -0.39199 0.03487 0.48817
 H287 H -0.45330 -0.05313 0.41906
 H288 H -0.31972 0.05239 0.47945
 H289 H -0.25618 0.04930 0.44651
 H290 H -0.33853 -0.05817 0.35245
 H291 H -0.27538 -0.06056 0.31911
 H292 H -0.20012 0.04306 0.41892
 H293 H -0.13870 0.03836 0.38281
 H294 H -0.20384 -0.04046 0.30861
 C295 C 0.37139 0.03804 0.41608
 C296 C 0.33879 0.00834 0.42035
 C297 C 0.34643 -0.02600 0.44533
 C298 C 0.38522 -0.03031 0.46467
 C299 C 0.41680 -0.00044 0.46008
 C300 C 0.40961 0.03355 0.43563
 C301 C 0.31545 -0.05599 0.45087
 C302 C 0.27699 -0.05319 0.43189
 C303 C 0.26787 -0.02009 0.40628
 C304 C 0.29919 0.01136 0.40058
 C305 C 0.28999 0.04462 0.37515
 C306 C 0.25200 0.04689 0.35557
 C307 C 0.22146 0.01630 0.36041
 C308 C 0.22862 -0.01751 0.38596
 C309 C 0.19617 -0.04747 0.38977
 C310 C 0.15882 -0.04406 0.36886
 C311 C 0.15231 -0.01084 0.34343
 C312 C 0.18374 0.01937 0.33954
 H313 H 0.36862 0.06518 0.39793
 H314 H 0.39095 -0.05699 0.48333
 H315 H 0.43371 0.05702 0.43183
 H316 H 0.32103 -0.08213 0.47010
 H317 H 0.25509 -0.07784 0.43793
 H318 H 0.31163 0.06960 0.36943
 H319 H 0.24658 0.07289 0.33619
 H320 H 0.19859 -0.07417 0.40842
 H321 H 0.13521 -0.06811 0.37215
 H322 H 0.17873 0.04558 0.32030
   
