data_POSCAR
  _audit_creation_date              2014-09-24
  _audit_creation_method            'ToBaCCo'
  _symmetry_space_group_name_H-M    'P1'
  _symmetry_Int_Tables_number       1
  _symmetry_cell_setting            triclinic
  loop_
  _symmetry_equiv_pos_as_xyz
 x,y,z
_cell_length_a 32.2860
_cell_length_b 28.1716
_cell_length_c 14.1118
_cell_angle_alpha 84.538000
_cell_angle_beta 92.206700
_cell_angle_gamma 88.502800
loop_
  _atom_site_label
  _atom_site_type_symbol
  _atom_site_fract_x
  _atom_site_fract_y
  _atom_site_fract_z
C1 C 1.29150 0.22272 0.18806
 C2 C 1.25119 0.24208 0.19281
 C3 C 1.21778 0.21068 0.19285
 C4 C 1.22499 0.16088 0.19487
 C5 C 1.26654 0.14257 0.19391
 C6 C 1.30015 0.17381 0.18561
 C7 C 1.24649 0.29376 0.21134
 C8 C 1.27846 0.32575 0.18539
 C9 C 1.28521 0.36557 0.23583
 C10 C 1.25443 0.38000 0.29390
 C11 C 1.21980 0.35265 0.31192
 C12 C 1.21600 0.30884 0.27258
 H13 H 1.31736 0.24553 0.19680
 H14 H 1.18633 0.22446 0.19658
 H15 H 1.30136 0.31650 0.13567
 H16 H 1.19147 0.28552 0.29552
 H17 H 1.27237 0.10441 0.19695
 H18 H 1.25769 0.41286 0.32742
 C19 C 0.78763 -0.31250 0.23376
 C20 C 0.75799 -0.27496 0.21795
 C21 C 0.72229 -0.28047 0.16166
 C22 C 0.71395 -0.32406 0.12674
 C23 C 0.74307 -0.36187 0.14398
 C24 C 0.78028 -0.35678 0.19773
 C25 C 0.75948 -0.23272 0.27199
 C26 C 0.79133 -0.20022 0.26150
 C27 C 0.78999 -0.15790 0.30664
 C28 C 0.75479 -0.14790 0.36089
 C29 C 0.72223 -0.18089 0.37117
 C30 C 0.72593 -0.22334 0.32818
 H31 H 0.81473 -0.30811 0.27954
 H32 H 0.69934 -0.25150 0.15255
 H33 H 0.81717 -0.20798 0.21801
 H34 H 0.70128 -0.24876 0.33464
 H35 H 0.73562 -0.39540 0.11726
 H36 H 0.75281 -0.11503 0.39465
 C37 C 0.76725 0.17881 -0.21584
 C38 C 0.73867 0.21761 -0.23380
 C39 C 0.70663 0.21535 -0.30253
 C40 C 0.70201 0.17566 -0.35259
 C41 C 0.73134 0.13714 -0.33598
 C42 C 0.76537 0.13925 -0.26921
 C43 C 0.74647 0.26448 -0.19783
 C44 C 0.78716 0.27987 -0.19460
 C45 C 0.79548 0.32858 -0.20634
 C46 C 0.76248 0.36208 -0.21824
 C47 C 0.72173 0.34704 -0.20981
 C48 C 0.71392 0.29839 -0.19479
 H49 H 0.79222 0.18029 -0.16286
 H50 H 0.68505 0.24527 -0.31928
 H51 H 0.81233 0.25419 -0.19830
 H52 H 0.68210 0.28714 -0.19251
 H53 H 0.72795 0.10663 -0.37640
 H54 H 0.76840 0.39980 -0.23162
 C55 C 1.27918 -0.30689 -0.21966
 C56 C 1.24994 -0.26882 -0.21586
 C57 C 1.20850 -0.27636 -0.24204
 C58 C 1.19593 -0.32071 -0.26532
 C59 C 1.22540 -0.35658 -0.27612
 C60 C 1.26747 -0.35001 -0.25498
 C61 C 1.26223 -0.22018 -0.19312
 C62 C 1.30274 -0.20532 -0.20684
 C63 C 1.31343 -0.15770 -0.20271
 C64 C 1.28140 -0.12302 -0.19511
 C65 C 1.24028 -0.13757 -0.17858
 C66 C 1.23237 -0.18630 -0.16954
 H67 H 1.31116 -0.30314 -0.19698
 H68 H 1.18551 -0.24774 -0.24658
 H69 H 1.32614 -0.23010 -0.22672
 H70 H 1.20144 -0.19686 -0.15200
 H71 H 1.21485 -0.39033 -0.29675
 H72 H 1.28838 -0.08549 -0.20095
 C73 C 0.19433 0.29674 0.65410
 C74 C 0.21993 0.25712 0.64315
 C75 C 0.20500 0.21144 0.66259
 C76 C 0.16641 0.20444 0.70485
 C77 C 0.14315 0.24523 0.72630
 C78 C 0.15793 0.29149 0.70265
 C79 C 0.26500 0.26364 0.64668
 C80 C 0.28083 0.29100 0.71648
 C81 C 0.32313 0.29918 0.72668
 C82 C 0.35023 0.27803 0.66655
 C83 C 0.33495 0.24759 0.60099
 C84 C 0.29229 0.24045 0.59050
 H85 H 0.20675 0.33204 0.64171
 H86 H 0.22560 0.18181 0.65192
 H87 H 0.25921 0.30663 0.76189
 H88 H 0.28054 0.21740 0.53900
 H89 H 0.11504 0.24116 0.76543
 H90 H 0.38330 0.28359 0.67286
 C91 C 0.68915 0.80115 0.73073
 C92 C 0.71622 0.76688 0.69886
 C93 C 0.70339 0.71958 0.69871
 C94 C 0.66411 0.70621 0.72673
 C95 C 0.63846 0.74009 0.76421
 C96 C 0.65056 0.78766 0.76636
 C97 C 0.75984 0.77690 0.67584
 C98 C 0.78476 0.80034 0.73846
 C99 C 0.82739 0.78867 0.75138
 C100 C 0.84349 0.74927 0.70661
 C101 C 0.81781 0.72673 0.64079
 C102 C 0.77904 0.74824 0.61404
 H103 H 0.69858 0.83781 0.73039
 H104 H 0.72464 0.69281 0.67754
 H105 H 0.77040 0.82441 0.78386
 H106 H 0.75968 0.73452 0.55946
 H107 H 0.60803 0.72983 0.78683
 H108 H 0.87426 0.73472 0.72707
 C109 C 0.71881 0.30003 0.31335
 C110 C 0.72755 0.25107 0.33825
 C111 C 0.69548 0.21866 0.32615
 C112 C 0.65784 0.23396 0.27908
 C113 C 0.64988 0.28290 0.25621
 C114 C 0.68027 0.31605 0.27323
 C115 C 0.77177 0.23395 0.35268
 C116 C 0.80290 0.26544 0.37629
 C117 C 0.84317 0.25925 0.34583
 C118 C 0.85404 0.21722 0.30433
 C119 C 0.82443 0.18246 0.29080
 C120 C 0.78375 0.19105 0.31681
 H121 H 0.74254 0.32600 0.31869
 H122 H 0.70038 0.18096 0.34714
 H123 H 0.79497 0.29808 0.40695
 H124 H 0.76069 0.16605 0.30019
 H125 H 0.62048 0.29520 0.22176
 H126 H 0.88491 0.21278 0.27829
 C127 C 0.23149 0.79426 0.35321
 C128 C 0.24228 0.74592 0.37754
 C129 C 0.21062 0.71226 0.38910
 C130 C 0.16973 0.72529 0.35869
 C131 C 0.15970 0.77394 0.33319
 C132 C 0.19016 0.80885 0.33017
 C133 C 0.28537 0.72961 0.36154
 C134 C 0.32020 0.75657 0.38380
 C135 C 0.35954 0.74421 0.35257
 C136 C 0.36372 0.70518 0.29882
 C137 C 0.32935 0.67901 0.27408
 C138 C 0.29061 0.69101 0.30658
 H139 H 0.25589 0.81951 0.34305
 H140 H 0.21886 0.67482 0.40657
 H141 H 0.31674 0.78702 0.42458
 H142 H 0.26384 0.67230 0.28348
 H143 H 0.12789 0.78436 0.31193
 H144 H 0.39388 0.69625 0.27318
 O145 O 1.05735 0.08602 0.16261
 O146 O 1.10425 0.04561 0.07987
 C147 C 1.09525 0.07579 0.13981
 O148 O 0.95397 -0.08766 0.20953
 O149 O 0.90315 -0.05095 0.10792
 C150 C 0.91510 -0.07866 0.18316
 O151 O 1.07015 -0.07883 0.20452
 O152 O 1.11028 -0.03316 0.10251
 C153 C 1.10556 -0.06417 0.17521
 O154 O 0.94013 0.08278 0.15062
 O155 O 0.89712 0.03136 0.07952
 C156 C 0.90388 0.06682 0.13034
 Zr157 Zr 0.99913 0.05935 0.11251
 O158 O 0.99778 0.06605 0.26040
 O159 O 0.99409 0.13407 0.07901
 Zr160 Zr 1.00975 -0.06074 0.14869
 O161 O 1.01270 -0.05234 0.29597
 O162 O 1.01326 -0.13611 0.17356
 O163 O 1.04144 0.00291 0.14802
 O164 O 0.96885 -0.00332 0.14830
 O165 O 0.93167 0.07085 -0.17973
 O166 O 0.89328 0.02207 -0.07971
 C167 C 0.89648 0.05379 -0.15169
 O168 O 1.06825 -0.08264 -0.14113
 O169 O 1.10918 -0.03265 -0.06212
 C170 C 1.10412 -0.06473 -0.12053
 O171 O 0.95336 -0.10444 -0.12302
 O172 O 0.90459 -0.06338 -0.04560
 C173 C 0.91598 -0.09804 -0.09497
 O174 O 1.04828 0.08314 -0.18288
 O175 O 1.09953 0.04524 -0.08303
 C176 C 1.08691 0.07494 -0.15496
 Zr177 Zr 0.99376 0.05336 -0.12472
 O178 O 0.99315 0.05435 -0.27494
 O179 O 0.98504 0.12818 -0.13059
 Zr180 Zr 1.00751 -0.06691 -0.09074
 O181 O 1.00041 -0.06932 -0.23993
 O182 O 1.02059 -0.14124 -0.07063
 Zr183 Zr 1.06373 0.00211 0.00987
 Zr184 Zr 0.94085 -0.01050 0.01333
 O185 O 0.96433 -0.01149 -0.12351
 O186 O 1.03690 -0.00319 -0.12722
 O187 O 0.95845 0.06132 -0.00726
 O188 O 1.04528 -0.06903 0.03063
 O189 O 1.03166 0.06841 -0.00954
 O190 O 0.97315 -0.07691 0.03273
 H191 H 0.95162 -0.00246 0.20474
 H192 H 1.06703 -0.09469 0.03597
 H193 H 0.94448 -0.01628 -0.17677
 H194 H 1.04764 0.09803 -0.01576
 H195 H 1.03698 -0.14782 0.13912
 H196 H 1.00512 -0.15385 -0.01496
 H197 H 1.01879 -0.04519 -0.27000
 H198 H 0.97673 0.02721 -0.29280
 H199 H 0.98351 0.13985 -0.19915
 H200 H 0.99634 0.14809 0.14072
 H201 H 1.01536 0.03956 0.29257
 H202 H 1.01471 -0.08498 0.32922
 O203 O 1.03332 0.60148 0.67826
 O204 O 1.08887 0.56378 0.61699
 C205 C 1.07238 0.59620 0.66456
 O206 O 0.95088 0.41128 0.71635
 O207 O 0.89910 0.44340 0.61179
 C208 C 0.91310 0.41419 0.68384
 O209 O 1.05819 0.43725 0.74733
 O210 O 1.10223 0.47540 0.64355
 C211 C 1.09456 0.44509 0.71639
 O212 O 0.92306 0.58882 0.64203
 O213 O 0.88586 0.53476 0.56409
 C214 C 0.88901 0.57388 0.60735
 Zr215 Zr 0.98341 0.56491 0.62510
 O216 O 0.98065 0.56839 0.77430
 O217 O 0.97350 0.63921 0.58932
 Zr218 Zr 1.00151 0.44960 0.67303
 O219 O 0.99279 0.46719 0.81334
 O220 O 1.01564 0.37720 0.71970
 O221 O 1.02941 0.51470 0.67402
 O222 O 0.95480 0.50124 0.65875
 O223 O 0.93003 0.56900 0.32750
 O224 O 0.88999 0.51679 0.41729
 C225 C 0.89500 0.54932 0.34771
 O226 O 1.07302 0.41988 0.41164
 O227 O 1.10808 0.47555 0.48992
 C228 C 1.10676 0.43837 0.44239
 O229 O 0.96141 0.39690 0.39408
 O230 O 0.90467 0.43337 0.45334
 C231 C 0.92210 0.40079 0.40656
 O232 O 1.04467 0.58741 0.34222
 O233 O 1.09450 0.56075 0.45705
 C234 C 1.08172 0.58803 0.38103
 Zr235 Zr 0.99065 0.55434 0.39046
 O236 O 0.99179 0.54735 0.24250
 O237 O 0.97927 0.62895 0.36858
 Zr238 Zr 1.01042 0.43799 0.43656
 O239 O 1.01094 0.43758 0.28649
 O240 O 1.02580 0.36414 0.45536
 Zr241 Zr 1.05816 0.51249 0.54315
 Zr242 Zr 0.93491 0.48925 0.52010
 O243 O 0.96502 0.48826 0.39036
 O244 O 1.03845 0.50251 0.40222
 O245 O 0.94965 0.56164 0.49709
 O246 O 1.04163 0.44055 0.56527
 O247 O 1.02097 0.57482 0.51108
 O248 O 0.97189 0.42680 0.55208
 H249 H 0.93354 0.50089 0.70757
 H250 H 1.06203 0.41372 0.57936
 H251 H 0.94855 0.48217 0.33226
 H252 H 1.03343 0.60665 0.50431
 H253 H 1.01125 0.35902 0.66386
 H254 H 1.00964 0.35006 0.50854
 H255 H 1.03748 0.45077 0.26499
 H256 H 1.01885 0.53224 0.23057
 H257 H 0.97953 0.63755 0.29885
 H258 H 0.97164 0.65411 0.65003
 H259 H 0.95248 0.56026 0.79439
 H260 H 0.99529 0.43674 0.85479
 O261 O 0.44052 -0.08830 0.34723
 O262 O 0.48051 -0.12471 0.47267
 C263 C 0.45378 -0.12570 0.40254
 O264 O 0.58550 0.05497 0.30598
 O265 O 0.53546 0.11194 0.32597
 C266 C 0.57006 0.09832 0.29319
 O267 O 0.59165 -0.07371 0.38353
 O268 O 0.55495 -0.11744 0.49593
 C269 C 0.58629 -0.11177 0.43932
 O270 O 0.42336 0.04279 0.27189
 O271 O 0.46072 0.10643 0.31406
 C272 C 0.43030 0.08807 0.26748
 Zr273 Zr 0.45655 -0.01501 0.35027
 O274 O 0.46497 -0.02703 0.20637
 O275 O 0.39175 -0.02369 0.33583
 Zr276 Zr 0.55966 -0.00792 0.37382
 O277 O 0.55640 -0.02274 0.22943
 O278 O 0.62494 -0.00854 0.36788
 O279 O 0.51145 -0.05601 0.37541
 O280 O 0.50648 0.02748 0.31589
 O281 O 0.41916 0.08796 0.55802
 O282 O 0.46239 0.12890 0.45596
 C283 C 0.43034 0.12647 0.50781
 O284 O 0.57211 -0.03672 0.70082
 O285 O 0.53893 -0.10007 0.64454
 C286 C 0.56359 -0.08153 0.70408
 O287 O 0.57421 0.08746 0.60164
 O288 O 0.54032 0.12775 0.47097
 C289 C 0.56913 0.12367 0.53956
 O290 O 0.42447 -0.03985 0.66003
 O291 O 0.46882 -0.10115 0.62748
 C292 C 0.43717 -0.08399 0.66998
 Zr293 Zr 0.44687 0.01756 0.57296
 O294 O 0.44004 0.04096 0.70984
 O295 O 0.38233 0.01273 0.54599
 Zr296 Zr 0.54944 0.02073 0.60239
 O297 O 0.53543 0.04513 0.73536
 O298 O 0.61353 0.02143 0.63917
 Zr299 Zr 0.50744 -0.06547 0.52510
 Zr300 Zr 0.50088 0.07272 0.42525
 O301 O 0.49632 0.06261 0.57385
 O302 O 0.49908 -0.02051 0.63472
 O303 O 0.44245 0.04137 0.43067
 O304 O 0.56479 -0.03191 0.51844
 O305 O 0.44660 -0.03935 0.48933
 O306 O 0.56141 0.04628 0.46211
 H307 H 0.50676 0.04311 0.24994
 H308 H 0.59114 -0.04849 0.54198
 H309 H 0.49408 0.09145 0.60870
 H310 H 0.42290 -0.06084 0.49686
 H311 H 0.63547 0.00220 0.42876
 H312 H 0.62819 0.02304 0.57874
 H313 H 0.52969 0.01695 0.77980
 H314 H 0.45659 0.01866 0.75579
 H315 H 0.36883 0.02266 0.60314
 H316 H 0.38595 -0.03279 0.27050
 H317 H 0.47876 -0.05885 0.20670
 H318 H 0.55548 -0.05781 0.22881
 O319 O 0.54929 0.60670 0.07614
 O320 O 0.59753 0.55972 0.01023
 C321 C 0.58665 0.59686 0.05193
 O322 O 0.45260 0.42406 0.16872
 O323 O 0.40101 0.45710 0.06442
 C324 C 0.41400 0.43073 0.14017
 O325 O 0.56716 0.43716 0.16110
 O326 O 0.60614 0.47948 0.05161
 C327 C 0.60214 0.45066 0.12777
 O328 O 0.43450 0.59463 0.08699
 O329 O 0.39215 0.53858 0.03028
 C330 C 0.39863 0.57604 0.07456
 Zr331 Zr 0.49366 0.57167 0.04901
 O332 O 0.49492 0.58351 0.19496
 O333 O 0.48520 0.64520 0.00439
 Zr334 Zr 0.50640 0.45300 0.10727
 O335 O 0.50602 0.46858 0.25118
 O336 O 0.51421 0.37956 0.15416
 O337 O 0.53740 0.51735 0.09331
 O338 O 0.46483 0.51006 0.09853
 O339 O 0.42636 0.57180 -0.23522
 O340 O 0.38890 0.52673 -0.12665
 C341 C 0.39187 0.55656 -0.20135
 O342 O 0.55961 0.41632 -0.17758
 O343 O 0.60219 0.46939 -0.11065
 C344 C 0.59542 0.43473 -0.16254
 O345 O 0.44503 0.39879 -0.14912
 O346 O 0.39777 0.44628 -0.08154
 C347 C 0.40790 0.40922 -0.12375
 O348 O 0.54220 0.57984 -0.24932
 O349 O 0.59377 0.54544 -0.14619
 C350 C 0.58080 0.57244 -0.22107
 Zr351 Zr 0.48793 0.55402 -0.18426
 O352 O 0.48661 0.54537 -0.33188
 O353 O 0.48020 0.62898 -0.20903
 Zr354 Zr 0.50095 0.43507 -0.12719
 O355 O 0.49290 0.42426 -0.27299
 O356 O 0.51378 0.36126 -0.09263
 Zr357 Zr 0.55826 0.50914 -0.04385
 Zr358 Zr 0.43661 0.49725 -0.03284
 O359 O 0.45827 0.48958 -0.16921
 O360 O 0.53047 0.49690 -0.17665
 O361 O 0.45309 0.56828 -0.06832
 O362 O 0.54023 0.43865 -0.00942
 O363 O 0.52545 0.57462 -0.07523
 O364 O 0.46861 0.43110 -0.00192
 H365 H 0.44757 0.51198 0.15468
 H366 H 0.56199 0.41301 -0.00017
 H367 H 0.43788 0.48301 -0.22015
 H368 H 0.54006 0.60459 -0.09172
 H369 H 0.52719 0.36374 0.10275
 H370 H 0.49496 0.35021 -0.04188
 H371 H 0.50742 0.45012 -0.30942
 H372 H 0.46377 0.52409 -0.34603
 H373 H 0.47885 0.63641 -0.27916
 H374 H 0.48531 0.66181 0.06324
 H375 H 0.52117 0.56902 0.22431
 H376 H 0.53113 0.48663 0.26444
 C377 C 1.18938 0.12809 0.20747
 C378 C 1.18871 0.09138 0.27921
 C379 C 1.15143 0.07041 0.26760
 C380 C 1.13146 0.09558 0.18968
 O381 O 1.15474 0.13048 0.15201
 H382 H 1.21288 0.08076 0.33290
 H383 H 1.14100 0.03857 0.30769
 C384 C 1.15189 0.66908 0.72564
 C385 C 1.11993 0.69512 0.76048
 C386 C 1.08534 0.67035 0.74390
 C387 C 1.09908 0.63126 0.70091
 O388 O 1.13918 0.63037 0.68958
 H389 H 1.12147 0.72750 0.79581
 H390 H 1.05389 0.67973 0.76047
 C391 C 0.66417 0.17488 0.58448
 C392 C 0.64725 0.21321 0.52514
 C393 C 0.60826 0.20022 0.49717
 C394 C 0.60395 0.15577 0.54432
 O395 O 0.63770 0.14054 0.59622
 H396 H 0.66127 0.24714 0.50664
 H397 H 0.58577 0.22081 0.45017
 C398 C 0.67230 0.66784 0.08568
 C399 C 0.64379 0.70367 0.05225
 C400 C 0.60776 0.68129 0.03755
 C401 C 0.61701 0.63359 0.06154
 O402 O 0.65616 0.62500 0.08952
 H403 H 0.64824 0.74170 0.04124
 H404 H 0.57826 0.69760 0.01130
 C405 C 0.82669 -0.12650 0.29846
 C406 C 0.84400 -0.10455 0.37312
 C407 C 0.88006 -0.08574 0.34057
 C408 C 0.88231 -0.09688 0.24779
 O409 O 0.84987 -0.12160 0.22182
 H410 H 0.83248 -0.10386 0.44398
 H411 H 0.90183 -0.06542 0.37928
 C412 C 0.83608 0.34267 0.78330
 C413 C 0.87041 0.31525 0.81846
 C414 C 0.90321 0.33953 0.78634
 C415 C 0.88670 0.37974 0.73324
 O416 O 0.84591 0.38230 0.73191
 H417 H 0.87164 0.28160 0.86248
 H418 H 0.93556 0.32877 0.79873
 C419 C 0.35793 -0.14629 0.78595
 C420 C 0.39050 -0.17827 0.81413
 C421 C 0.42504 -0.15894 0.77582
 C422 C 0.41137 -0.11625 0.72840
 O423 O 0.37082 -0.10821 0.73462
 H424 H 0.38896 -0.21274 0.85466
 H425 H 0.45618 -0.17439 0.78028
 C426 C 0.32380 0.38729 0.23833
 C427 C 0.33968 0.40885 0.31581
 C428 C 0.37787 0.42340 0.29153
 C429 C 0.38230 0.41063 0.20091
 O430 O 0.34987 0.38839 0.16826
 H431 H 0.32560 0.41276 0.38312
 H432 H 0.39886 0.44369 0.33240
 C433 C 0.80038 0.10253 -0.25645
 C434 C 0.80283 0.06162 -0.30301
 C435 C 0.83959 0.03919 -0.27168
 C436 C 0.85762 0.06789 -0.20898
 O437 O 0.83381 0.10620 -0.19887
 H438 H 0.78051 0.04907 -0.35324
 H439 H 0.85166 0.00541 -0.29116
 C440 C 0.80807 0.60415 0.22187
 C441 C 0.80133 0.55740 0.20299
 C442 C 0.83377 0.53113 0.24649
 C443 C 0.85842 0.56343 0.28666
 O444 O 0.84314 0.60762 0.27258
 H445 H 0.77536 0.54301 0.16577
 H446 H 0.83856 0.49280 0.25023
 C447 C 0.34245 0.15851 0.18126
 C448 C 0.37348 0.18832 0.14779
 C449 C 0.41003 0.16438 0.17050
 C450 C 0.39951 0.12110 0.21441
 O451 O 0.35851 0.11686 0.22019
 H452 H 0.37026 0.22422 0.11299
 H453 H 0.44084 0.17768 0.16015
 C454 C 0.29724 0.61375 -0.26543
 C455 C 0.29012 0.57151 -0.30602
 C456 C 0.32646 0.54579 -0.29370
 C457 C 0.35314 0.57430 -0.24859
 O458 O 0.33579 0.61529 -0.23119
 H459 H 0.26191 0.55962 -0.33869
 H460 H 0.33227 0.50965 -0.31101
 C461 C 1.20360 -0.10382 -0.18365
 C462 C 1.19683 -0.06689 -0.25439
 C463 C 1.15710 -0.05060 -0.24466
 C464 C 1.14206 -0.07854 -0.16882
 O465 O 1.17034 -0.11086 -0.13127
 H466 H 1.21784 -0.05445 -0.30866
 H467 H 1.14120 -0.02092 -0.28642
 C468 C 1.19210 0.36908 0.38308
 C469 C 1.20796 0.38330 0.46783
 C470 C 1.17819 0.41187 0.49932
 C471 C 1.14599 0.41263 0.43239
 O472 O 1.15412 0.38670 0.36139
 H473 H 1.23907 0.37673 0.49864
 H474 H 1.17997 0.43056 0.56283
 C475 C 0.68283 -0.17258 0.42126
 C476 C 0.66478 -0.20688 0.48212
 C477 C 0.62585 -0.18947 0.49807
 C478 C 0.62214 -0.14627 0.44365
 O479 O 0.65667 -0.13594 0.39750
 H480 H 0.67804 -0.24139 0.50906
 H481 H 0.60295 -0.20644 0.54285
 C482 C 0.68692 0.38145 -0.22597
 C483 C 0.68407 0.41776 -0.29891
 C484 C 0.64724 0.44071 -0.28809
 C485 C 0.63084 0.41668 -0.20943
 O486 O 0.65465 0.38063 -0.17136
 H487 H 0.70630 0.42639 -0.35286
 H488 H 0.63419 0.47183 -0.33069
 C489 C 1.15386 0.15777 -0.26584
 C490 C 1.17922 0.11694 -0.26262
 C491 C 1.15686 0.08099 -0.22214
 C492 C 1.11907 0.10139 -0.20590
 O493 O 1.11700 0.14801 -0.23122
 H494 H 1.21117 0.11317 -0.28137
 H495 H 1.16741 0.04447 -0.20339
 C496 C 1.14119 0.69035 0.33719
 C497 C 1.11350 0.69690 0.25972
 C498 C 1.09233 0.65617 0.26031
 C499 C 1.10719 0.62740 0.33977
 O500 O 1.13781 0.64769 0.38591
 H501 H 1.10948 0.72759 0.20757
 H502 H 1.06655 0.64976 0.21230
 C503 C 0.62840 0.19858 0.24765
 C504 C 0.60065 0.20665 0.17044
 C505 C 0.57800 0.16654 0.17090
 C506 C 0.59400 0.13650 0.24694
 O507 O 0.62448 0.15591 0.29384
 H508 H 0.59631 0.23858 0.12165
 H509 H 0.55093 0.16127 0.12585
 C510 C 0.65036 0.65984 -0.28146
 C511 C 0.67382 0.62147 -0.30733
 C512 C 0.64893 0.58331 -0.29605
 C513 C 0.61189 0.60124 -0.26787
 O514 O 0.61274 0.64723 -0.25820
 H515 H 0.70595 0.61983 -0.32586
 H516 H 0.65781 0.54645 -0.30095
 C517 C 0.85075 -0.18745 -0.17407
 C518 C 0.83516 -0.18393 -0.08506
 C519 C 0.85722 -0.14979 -0.04574
 C520 C 0.88518 -0.13471 -0.11259
 O521 O 0.88156 -0.15756 -0.19098
 H522 H 0.80898 -0.20226 -0.05477
 H523 H 0.85327 -0.13707 0.02343
 C524 C 0.86977 0.30133 0.33585
 C525 C 0.88941 0.31443 0.25296
 C526 C 0.90752 0.35614 0.26708
 C527 C 0.89775 0.36611 0.35763
 O528 O 0.87454 0.33276 0.40012
 H529 H 0.89025 0.29576 0.18948
 H530 H 0.92755 0.37595 0.21887
 C531 C 0.39688 -0.22871 0.37392
 C532 C 0.43513 -0.25041 0.39806
 C533 C 0.46138 -0.21428 0.40855
 C534 C 0.43758 -0.17296 0.38857
 O535 O 0.39813 -0.18143 0.36817
 H536 H 0.44279 -0.28823 0.40808
 H537 H 0.49399 -0.21754 0.42974
 C538 C 0.33753 0.32918 -0.20635
 C539 C 0.31409 0.34609 -0.13541
 C540 C 0.33821 0.37739 -0.09409
 C541 C 0.37459 0.37720 -0.14163
 O542 O 0.37478 0.34760 -0.20865
 H543 H 0.28309 0.33734 -0.11495
 H544 H 0.33003 0.39843 -0.03688
 C545 C 1.17917 -0.14410 0.29295
 C546 C 1.20594 -0.10719 0.27085
 C547 C 1.18175 -0.07084 0.22495
 C548 C 1.14221 -0.08783 0.22420
 O549 O 1.14055 -0.13167 0.26541
 H550 H 1.23922 -0.10687 0.28217
 H551 H 1.19182 -0.03666 0.19394
 C552 C 1.14145 0.33460 0.74199
 C553 C 1.13389 0.33756 0.83649
 C554 C 1.12307 0.38433 0.84258
 C555 C 1.12471 0.40690 0.75121
 O556 O 1.13676 0.37648 0.69086
 H557 H 1.13532 0.30894 0.89353
 H558 H 1.11044 0.39894 0.90395
 C559 C 0.62265 -0.17780 0.79338
 C560 C 0.58842 -0.18683 0.84771
 C561 C 0.56432 -0.14625 0.83415
 C562 C 0.58554 -0.11539 0.77329
 O563 O 0.62123 -0.13409 0.75039
 H564 H 0.58020 -0.22004 0.88642
 H565 H 0.53265 -0.14207 0.85527
 C566 C 0.67243 0.36660 0.23858
 C567 C 0.70168 0.39859 0.20556
 C568 C 0.67934 0.43730 0.16278
 C569 C 0.63852 0.42596 0.17468
 O570 O 0.63443 0.38354 0.22038
 H571 H 0.73497 0.39305 0.20574
 H572 H 0.69122 0.46851 0.12334
 C573 C 0.83443 0.14027 0.23885
 C574 C 0.80575 0.10981 0.20342
 C575 C 0.82803 0.07791 0.15792
 C576 C 0.86851 0.09100 0.16857
 O577 O 0.87260 0.12866 0.21719
 H578 H 0.77240 0.11067 0.20738
 H579 H 0.81618 0.04889 0.12079
 C580 C 0.82634 0.67712 0.61317
 C581 C 0.79870 0.65069 0.56267
 C582 C 0.81710 0.60677 0.55930
 C583 C 0.85440 0.60878 0.60828
 O584 O 0.86009 0.65116 0.64100
 H585 H 0.76847 0.66129 0.53114
 H586 H 0.80551 0.57764 0.52210
 C587 C 0.36403 0.22274 0.54513
 C588 C 0.38508 0.24506 0.47153
 C589 C 0.41210 0.21116 0.44632
 C590 C 0.40564 0.17090 0.50742
 O591 O 0.37628 0.17778 0.56755
 H592 H 0.38173 0.28189 0.44180
 H593 H 0.43450 0.21549 0.39123
 C594 C 0.33449 0.64138 0.20923
 C595 C 0.30447 0.61114 0.17956
 C596 C 0.32407 0.58272 0.12091
 C597 C 0.36423 0.59802 0.11948
 O598 O 0.37051 0.63324 0.17249
 H599 H 0.27245 0.60913 0.19899
 H600 H 0.31102 0.55373 0.08563
   
