data_POSCAR
  _audit_creation_date              2014-09-24
  _audit_creation_method            'ToBaCCo'
  _symmetry_space_group_name_H-M    'P1'
  _symmetry_Int_Tables_number       1
  _symmetry_cell_setting            triclinic
  loop_
  _symmetry_equiv_pos_as_xyz
 x,y,z
_cell_length_a 29.7562
_cell_length_b 29.7760
_cell_length_c 29.7060
_cell_angle_alpha 90.196800
_cell_angle_beta 89.960400
_cell_angle_gamma 89.990800
loop_
  _atom_site_label
  _atom_site_type_symbol
  _atom_site_fract_x
  _atom_site_fract_y
  _atom_site_fract_z
C1 C 0.50397 0.97584 -0.61950
 C2 C 0.46358 0.98736 -0.59797
 C3 C 0.46420 0.99466 -0.55118
 C4 C 0.50440 0.98988 -0.52607
 C5 C 0.54468 0.97944 -0.54937
 C6 C 0.54491 0.97309 -0.59629
 C7 C 0.50420 0.99557 -0.47578
 C8 C 0.54354 1.00874 -0.45237
 C9 C 0.54364 1.01275 -0.40528
 C10 C 0.50386 1.00477 -0.38151
 C11 C 0.46434 0.99200 -0.40354
 C12 C 0.46472 0.98705 -0.45053
 H13 H 0.50381 0.97028 -0.65551
 H14 H 0.43349 1.00495 -0.53463
 H15 H 0.57579 0.97498 -0.53116
 H16 H 0.57408 1.01666 -0.47039
 H17 H 0.50377 1.00809 -0.34519
 H18 H 0.43447 0.97526 -0.46687
 C19 C -0.61903 1.50089 -0.00083
 C20 C -0.59629 1.46050 0.00753
 C21 C -0.54904 1.46099 0.00805
 C22 C -0.52475 1.50109 -0.00029
 C23 C -0.54912 1.54110 -0.00887
 C24 C -0.59637 1.54138 -0.00886
 C25 C -0.47422 1.50121 -0.00003
 C26 C -0.44997 1.54088 0.01033
 C27 C -0.40280 1.54120 0.01013
 C28 C -0.37970 1.50142 0.00045
 C29 C -0.40250 1.46153 -0.00947
 C30 C -0.44967 1.46165 -0.01015
 H31 H -0.65538 1.50081 -0.00105
 H32 H -0.53144 1.43032 0.01623
 H33 H -0.53156 1.57185 -0.01682
 H34 H -0.46735 1.57143 0.01962
 H35 H -0.34330 1.50150 0.00063
 H36 H -0.46681 1.43104 -0.01962
 C37 C -0.01051 0.38163 0.50594
 C38 C -0.00133 0.40218 0.46448
 C39 C -0.00023 0.44945 0.46274
 C40 C -0.00953 0.47587 0.50143
 C41 C -0.01935 0.45371 0.54236
 C42 C -0.01958 0.40673 0.54471
 C43 C -0.00964 0.52625 0.49897
 C44 C -0.00043 0.55270 0.53765
 C45 C -0.00174 0.59996 0.53592
 C46 C -0.01102 0.62049 0.49449
 C47 C -0.01999 0.59536 0.45573
 C48 C -0.01956 0.54838 0.45806
 H49 H -0.01070 0.34534 0.50842
 H50 H 0.00864 0.46546 0.43136
 H51 H -0.02816 0.47255 0.57228
 H52 H 0.00852 0.53672 0.56901
 H53 H -0.01137 0.65677 0.49201
 H54 H -0.02828 0.52951 0.42816
 O55 O -0.11336 1.00485 -0.06066
 O56 O 0.11725 0.99928 -0.06081
 O57 O -0.00066 1.06376 -0.11401
 O58 O 0.00383 0.94187 -0.11640
 O59 O 0.00339 0.88607 -0.06266
 O60 O 0.00059 1.11787 -0.05819
 O61 O 0.06267 1.00086 -0.11596
 O62 O -0.05860 1.00459 -0.11575
 Zr63 Zr 0.00200 1.00224 -0.07893
 O64 O 0.04258 0.96093 -0.04128
 O65 O -0.03851 1.04233 -0.03958
 C66 C -0.10005 1.00638 -0.10228
 C67 C 0.10410 0.99884 -0.10246
 C68 C -0.00159 1.10509 -0.09992
 C69 C 0.00473 0.90013 -0.10393
 H70 H 0.06202 1.06166 -0.05871
 O71 O 0.04280 1.04225 -0.03980
 H72 H -0.05812 0.94227 -0.06074
 O73 O -0.03883 0.96110 -0.04122
 O74 O 0.11715 1.00163 0.06136
 O75 O -0.11319 0.99772 0.06160
 O76 O 0.06343 1.11594 0.00467
 O77 O 0.06290 0.88584 -0.00434
 O78 O -0.05919 0.88592 0.00069
 O79 O -0.05865 1.11647 -0.00008
 O80 O 0.00417 1.06026 0.11685
 O81 O -0.00097 0.93833 0.11448
 O82 O 0.00393 1.11605 0.06312
 O83 O 0.00005 0.88421 0.05867
 O84 O 0.11822 1.06109 0.00309
 O85 O -0.11382 1.06197 -0.00015
 O86 O -0.11412 0.94069 0.00094
 O87 O 0.11791 0.94044 -0.00271
 O88 O 0.06249 1.00069 0.11650
 O89 O -0.05834 0.99768 0.11650
 Zr90 Zr 0.08100 1.00085 0.00024
 Zr91 Zr -0.07712 1.00124 0.00036
 Zr92 Zr 0.00224 1.08006 0.00177
 Zr93 Zr 0.00186 0.92202 -0.00128
 Zr94 Zr 0.00203 0.99987 0.07942
 O95 O -0.03867 0.95995 0.04017
 O96 O 0.04283 1.04102 0.04179
 C97 C 0.10394 1.00194 0.10303
 C98 C -0.09977 0.99598 0.10316
 C99 C 0.10496 1.10251 0.00543
 C100 C 0.10448 0.89908 -0.00512
 C101 C -0.10074 0.89922 0.00203
 C102 C -0.10026 1.10337 -0.00130
 C103 C 0.00522 1.10200 0.10439
 C104 C -0.00207 0.89701 0.10040
 H105 H -0.05783 1.06012 0.06140
 O106 O -0.03863 1.04122 0.04182
 H107 H 0.06166 0.94002 0.05908
 O108 O 0.04258 0.95961 0.04024
 C109 C 0.35010 0.99984 0.32282
 N110 N 0.34669 1.00435 0.36829
 N111 N 0.38315 1.00060 0.39436
 C112 C 0.42421 0.99190 0.37586
 N113 N 0.42690 0.98749 0.33043
 N114 N 0.39087 0.99144 0.30457
 C115 C 0.31136 1.00330 0.29244
 N116 N 0.31884 1.00247 0.24742
 N117 N 0.28488 1.00381 0.21851
 C118 C 0.24191 1.00589 0.23340
 N119 N 0.23412 1.00696 0.27854
 N120 N 0.26833 1.00573 0.30766
 C121 C 0.20527 1.00584 0.20035
 N122 N 0.16143 1.00535 0.21307
 N123 N 0.12892 1.00419 0.18215
 C124 C 0.13918 1.00341 0.13753
 N125 N 0.18298 1.00404 0.12499
 N126 N 0.21535 1.00518 0.15579
 C127 C -0.34030 0.96039 0.32656
 N128 N -0.33682 0.96951 0.37135
 N129 N -0.37364 0.97194 0.39713
 C130 C -0.41523 0.96582 0.37890
 N131 N -0.41795 0.95561 0.33439
 N132 N -0.38148 0.95288 0.30888
 C133 C -0.30166 0.96199 0.29582
 N134 N -0.30875 0.95495 0.25125
 N135 N -0.27560 0.95965 0.22168
 C136 C -0.23390 0.97163 0.23545
 N137 N -0.22639 0.97821 0.28017
 N138 N -0.25978 0.97362 0.30990
 C139 C -0.19853 0.97847 0.20169
 N140 N -0.15528 0.98653 0.21378
 N141 N -0.12376 0.99253 0.18242
 C142 C -0.13447 0.99107 0.13794
 N143 N -0.17773 0.98323 0.12599
 N144 N -0.20912 0.97703 0.15726
 C145 C -0.34125 1.03212 -0.32637
 N146 N -0.38244 1.04405 -0.31099
 N147 N -0.41850 1.03970 -0.33699
 C148 C -0.41501 1.02331 -0.37955
 N149 N -0.37353 1.01246 -0.39551
 N150 N -0.33727 1.01675 -0.36935
 C151 C -0.30301 1.03222 -0.29508
 N152 N -0.26126 1.01919 -0.30831
 N153 N -0.22790 1.01634 -0.27842
 C154 C -0.23526 1.02609 -0.23427
 N155 N -0.27688 1.03941 -0.22128
 N156 N -0.31006 1.04244 -0.25109
 C157 C -0.19966 1.02101 -0.20043
 N158 N -0.20980 1.02451 -0.15600
 N159 N -0.17811 1.01943 -0.12483
 C160 C -0.13498 1.01077 -0.13690
 N161 N -0.12473 1.00737 -0.18138
 N162 N -0.15654 1.01220 -0.21261
 C163 C 0.34968 0.97729 -0.32273
 N164 N 0.34520 0.98589 -0.36744
 N165 N 0.38144 0.98912 -0.39381
 C166 C 0.42338 0.98403 -0.37632
 N167 N 0.42745 0.97464 -0.33184
 N168 N 0.39143 0.97129 -0.30564
 C169 C 0.31099 0.97729 -0.29197
 N170 N 0.31801 0.97116 -0.24731
 N171 N 0.28415 0.97374 -0.21820
 C172 C 0.24185 0.98258 -0.23256
 N173 N 0.23453 0.98834 -0.27735
 N174 N 0.26857 0.98585 -0.30659
 C175 C 0.20541 0.98689 -0.19943
 N176 N 0.16206 0.99323 -0.21228
 N177 N 0.12961 0.99728 -0.18149
 C178 C 0.13944 0.99543 -0.13685
 N179 N 0.18277 0.98920 -0.12417
 N180 N 0.21509 0.98500 -0.15485
 C181 C 0.32600 1.34658 0.02338
 N182 N 0.30745 1.38801 0.02306
 N183 N 0.33291 1.42424 0.01871
 C184 C 0.37826 1.42109 0.01467
 N185 N 0.39718 1.37941 0.01599
 N186 N 0.37147 1.34275 0.02002
 C187 C 0.29575 1.30762 0.02503
 N188 N 0.31049 1.26482 0.01887
 N189 N 0.28120 1.23081 0.01730
 C190 C 0.23633 1.23857 0.02171
 N191 N 0.22195 1.28124 0.02831
 N192 N 0.25104 1.31501 0.02988
 C193 C 0.20295 1.20243 0.01792
 N194 N 0.15854 1.21277 0.01923
 N195 N 0.12750 1.18091 0.01504
 C196 C 0.13965 1.13738 0.00934
 N197 N 0.18412 1.12686 0.00811
 N198 N 0.21527 1.15886 0.01220
 C199 C 0.32565 0.65513 -0.02459
 N200 N 0.30725 0.61364 -0.02478
 N201 N 0.33280 0.57746 -0.02053
 C202 C 0.37810 0.58073 -0.01607
 N203 N 0.39688 0.62248 -0.01691
 N204 N 0.37107 0.65908 -0.02084
 C205 C 0.29530 0.69403 -0.02599
 N206 N 0.30995 0.73681 -0.01953
 N207 N 0.28060 0.77076 -0.01773
 C208 C 0.23575 0.76296 -0.02218
 N209 N 0.22145 0.72032 -0.02907
 N210 N 0.25060 0.68660 -0.03088
 C211 C 0.20235 0.79907 -0.01815
 N212 N 0.15793 0.78877 -0.01942
 N213 N 0.12690 0.82065 -0.01504
 C214 C 0.13909 0.86414 -0.00918
 N215 N 0.18356 0.87460 -0.00798
 N216 N 0.21469 0.84260 -0.01226
 C217 C -0.32305 0.65630 0.02584
 N218 N -0.36683 0.66037 0.01337
 N219 N -0.39308 0.62409 0.01005
 C220 C -0.37640 0.58252 0.01898
 N221 N -0.33295 0.57893 0.03238
 N222 N -0.30688 0.61498 0.03578
 C223 C -0.29200 0.69470 0.02544
 N224 N -0.24772 0.68764 0.03367
 N225 N -0.21826 0.72106 0.03062
 C226 C -0.23186 0.76296 0.01924
 N227 N -0.27627 0.77033 0.01140
 N228 N -0.30584 0.73672 0.01429
 C229 C -0.19836 0.79890 0.01448
 N230 N -0.21077 0.84219 0.00728
 N231 N -0.17975 0.87427 0.00304
 C232 C -0.13528 0.86411 0.00548
 N233 N -0.12301 0.82083 0.01252
 N234 N -0.15394 0.78888 0.01697
 C235 C -0.32220 1.34671 -0.02478
 N236 N -0.30596 1.38813 -0.03415
 N237 N -0.33217 1.42411 -0.03085
 C238 C -0.37582 1.42033 -0.01812
 N239 N -0.39254 1.37866 -0.00974
 N240 N -0.36616 1.34246 -0.01297
 C241 C -0.29111 1.30834 -0.02434
 N242 N -0.30506 1.26622 -0.01370
 N243 N -0.27551 1.23259 -0.01082
 C244 C -0.23102 1.24003 -0.01819
 N245 N -0.21730 1.28203 -0.02906
 N246 N -0.24675 1.31547 -0.03209
 C247 C -0.19759 1.20401 -0.01350
 N248 N -0.15313 1.21394 -0.01582
 N249 N -0.12228 1.18190 -0.01145
 C250 C -0.13467 1.13861 -0.00466
 N251 N -0.17918 1.12855 -0.00237
 N252 N -0.21011 1.16072 -0.00655
 C253 C 0.01416 1.32060 0.35271
 N254 N 0.01380 1.36601 0.34795
 N255 N 0.00974 1.39275 0.38397
 C256 C 0.00559 1.37505 0.42602
 N257 N 0.00649 1.32964 0.43024
 N258 N 0.01075 1.30307 0.39453
 C259 C 0.01627 1.28985 0.31397
 N260 N 0.01746 1.24495 0.32143
 N261 N 0.01708 1.21601 0.28729
 C262 C 0.01539 1.23076 0.24422
 N263 N 0.01450 1.27576 0.23651
 N264 N 0.01491 1.30486 0.27084
 C265 C 0.01336 1.19792 0.20726
 N266 N 0.01102 1.21104 0.16358
 N267 N 0.00840 1.18056 0.13065
 C268 C 0.00790 1.13595 0.14027
 N269 N 0.01030 1.12298 0.18392
 N270 N 0.01295 1.15337 0.21674
 C271 C -0.03494 1.33047 -0.33819
 N272 N -0.01788 1.37278 -0.33556
 N273 N -0.01491 1.39833 -0.37234
 C274 C -0.02879 1.38234 -0.41297
 N275 N -0.04691 1.34057 -0.41503
 N276 N -0.04996 1.31521 -0.37847
 C277 C -0.03347 1.29939 -0.29991
 N278 N -0.04517 1.25582 -0.30642
 N279 N -0.04071 1.22594 -0.27358
 C280 C -0.02444 1.23842 -0.23281
 N281 N -0.01320 1.28217 -0.22590
 N282 N -0.01745 1.31215 -0.25898
 C283 C -0.01797 1.20433 -0.19780
 N284 N -0.00747 1.21591 -0.15481
 N285 N -0.00188 1.18434 -0.12354
 C286 C -0.00613 1.14012 -0.13429
 N287 N -0.01638 1.12868 -0.17730
 N288 N -0.02225 1.16017 -0.20841
 C289 C 0.01355 0.68157 -0.35232
 N290 N 0.01001 0.69910 -0.39413
 N291 N 0.00580 0.67253 -0.42983
 C292 C 0.00510 0.62711 -0.42562
 N293 N 0.00938 0.60941 -0.38360
 N294 N 0.01337 0.63616 -0.34758
 C295 C 0.01561 0.71231 -0.31359
 N296 N 0.01435 0.69730 -0.27045
 N297 N 0.01392 0.72639 -0.23611
 C298 C 0.01469 0.77139 -0.24382
 N299 N 0.01628 0.78616 -0.28688
 N300 N 0.01668 0.75722 -0.32104
 C301 C 0.01269 0.80422 -0.20684
 N302 N 0.01226 0.84877 -0.21632
 N303 N 0.00966 0.87915 -0.18348
 C304 C 0.00730 0.86617 -0.13983
 N305 N 0.00781 0.82156 -0.13022
 N306 N 0.01038 0.79109 -0.16316
 C307 C -0.03555 0.67159 0.33865
 N308 N -0.01837 0.62933 0.33600
 N309 N -0.01534 0.60378 0.37277
 C310 C -0.02928 0.61972 0.41341
 N311 N -0.04752 0.66145 0.41549
 N312 N -0.05063 0.68680 0.37894
 C313 C -0.03412 0.70268 0.30037
 N314 N -0.04589 0.74624 0.30690
 N315 N -0.04145 0.77613 0.27407
 C316 C -0.02514 0.76368 0.23329
 N317 N -0.01385 0.71994 0.22636
 N318 N -0.01808 0.68995 0.25942
 C319 C -0.01867 0.79778 0.19828
 N320 N -0.00815 0.78620 0.15528
 N321 N -0.00251 0.81776 0.12401
 C322 C -0.00674 0.86198 0.13477
 N323 N -0.01701 0.87344 0.17779
 N324 N -0.02293 0.84194 0.20890
   
