data_POSCAR
  _audit_creation_date              2014-09-24
  _audit_creation_method            'ToBaCCo'
  _symmetry_space_group_name_H-M    'P1'
  _symmetry_Int_Tables_number       1
  _symmetry_cell_setting            triclinic
  loop_
  _symmetry_equiv_pos_as_xyz
 x,y,z
_cell_length_a 33.0865
_cell_length_b 33.5926
_cell_length_c 36.4652
_cell_angle_alpha 90.074900
_cell_angle_beta 96.252500
_cell_angle_gamma 91.505400
loop_
  _atom_site_label
  _atom_site_type_symbol
  _atom_site_fract_x
  _atom_site_fract_y
  _atom_site_fract_z
N1 N 0.27973 0.18232 0.15508
 N2 N 0.26478 0.19942 0.12433
 C3 C 0.28740 0.18993 0.09717
 C4 C 0.31795 0.16538 0.11188
 C5 C 0.31229 0.16134 0.14867
 H6 H 0.28160 0.19946 0.06881
 H7 H 0.33014 0.14408 0.16924
 Cu8 Cu 0.21619 0.23092 0.12315
 Cu9 Cu 0.25463 0.18746 0.20071
 Cu10 Cu 0.15178 0.20520 0.18470
 N11 N 0.16848 0.26187 0.12877
 N12 N 0.14150 0.24994 0.15067
 C13 C 0.11189 0.27679 0.14962
 C14 C 0.12152 0.30759 0.12668
 C15 C 0.15770 0.29727 0.11402
 H16 H 0.08734 0.27587 0.16695
 H17 H 0.17566 0.31489 0.09662
 N18 N 0.17654 0.17821 0.22950
 N19 N 0.21635 0.17559 0.23690
 C20 C 0.22495 0.16052 0.27086
 C21 C 0.18885 0.15256 0.28535
 C22 C 0.15857 0.16380 0.25842
 H23 H 0.25522 0.15449 0.28361
 H24 H 0.12614 0.16293 0.26025
 H25 H 0.20299 0.17844 0.16704
 H26 H 0.20885 0.22873 0.18899
 N27 N 0.73472 -0.16747 0.19740
 N28 N 0.74078 -0.19881 0.17724
 C29 C 0.71297 -0.19964 0.14722
 C30 C 0.68823 -0.16706 0.14906
 C31 C 0.70314 -0.14736 0.18120
 H32 H 0.71062 -0.22238 0.12601
 H33 H 0.69187 -0.12048 0.19235
 Cu34 Cu 0.78472 -0.23504 0.19305
 Cu35 Cu 0.76795 -0.15462 0.24340
 Cu36 Cu 0.81036 -0.23828 0.28466
 N37 N 0.82287 -0.27404 0.21527
 N38 N 0.83085 -0.27597 0.25134
 C39 C 0.85621 -0.30583 0.26020
 C40 C 0.86568 -0.32318 0.22798
 C41 C 0.84391 -0.30232 0.19980
 H42 H 0.86796 -0.31320 0.28813
 H43 H 0.84336 -0.30738 0.17045
 N44 N 0.80425 -0.18845 0.31164
 N45 N 0.78866 -0.15619 0.29580
 C46 C 0.79087 -0.12651 0.32085
 C47 C 0.80948 -0.14076 0.35382
 C48 C 0.81759 -0.18003 0.34704
 H49 H 0.78089 -0.09652 0.31520
 H50 H 0.83295 -0.20070 0.36618
 H51 H 0.81531 -0.19574 0.24577
 H52 H 0.76231 -0.21331 0.25140
 N53 N 0.74187 0.15620 0.84855
 N54 N 0.74743 0.18757 0.87031
 C55 C 0.72133 0.18479 0.89621
 C56 C 0.69831 0.14990 0.89001
 C57 C 0.71222 0.13255 0.85964
 H58 H 0.71924 0.20638 0.91791
 H59 H 0.70162 0.10478 0.84649
 Cu60 Cu 0.78870 0.22845 0.86261
 Cu61 Cu 0.77395 0.14721 0.80804
 Cu62 Cu 0.83394 0.22669 0.78446
 N63 N 0.83422 0.26468 0.85506
 N64 N 0.85130 0.26364 0.82417
 C65 C 0.88091 0.29180 0.82503
 C66 C 0.88284 0.31165 0.85838
 C67 C 0.85273 0.29375 0.87688
 H68 H 0.89964 0.29723 0.80294
 H69 H 0.84479 0.30133 0.90397
 N70 N 0.82463 0.17841 0.75421
 N71 N 0.80192 0.14788 0.76326
 C72 C 0.80304 0.11877 0.73804
 C73 C 0.82811 0.13152 0.71228
 C74 C 0.84134 0.16939 0.72331
 H75 H 0.78754 0.09010 0.73881
 H76 H 0.86238 0.18854 0.71039
 H77 H 0.82436 0.18518 0.82388
 H78 H 0.77747 0.20610 0.79854
 N79 N 0.26378 -0.14757 0.79427
 N80 N 0.25004 -0.17297 0.81769
 C81 C 0.27522 -0.17214 0.84931
 C82 C 0.30656 -0.14496 0.84533
 C83 C 0.29830 -0.12983 0.81011
 H84 H 0.27143 -0.19056 0.87307
 H85 H 0.31634 -0.10807 0.79676
 Cu86 Cu 0.20130 -0.20622 0.80438
 Cu87 Cu 0.23523 -0.14041 0.74519
 Cu88 Cu 0.18278 -0.22047 0.70988
 N89 N 0.16781 -0.25103 0.78193
 N90 N 0.16373 -0.25810 0.74608
 C91 C 0.14262 -0.29257 0.73929
 C92 C 0.13241 -0.30766 0.77245
 C93 C 0.14870 -0.28046 0.79895
 H94 H 0.13438 -0.30508 0.71208
 H95 H 0.14786 -0.28251 0.82846
 N96 N 0.18806 -0.17206 0.68112
 N97 N 0.20902 -0.14058 0.69466
 C98 C 0.20748 -0.11185 0.66881
 C99 C 0.18410 -0.12618 0.63752
 C100 C 0.17242 -0.16451 0.64627
 H101 H 0.22153 -0.08249 0.67268
 H102 H 0.15360 -0.18529 0.62881
 H103 H 0.17644 -0.18408 0.75294
 H104 H 0.22504 -0.21140 0.75617
 N105 N 0.73374 -0.17474 0.84580
 N106 N 0.73787 -0.20670 0.86654
 C107 C 0.71032 -0.20631 0.89118
 C108 C 0.68786 -0.17227 0.88539
 C109 C 0.70361 -0.15291 0.85649
 H110 H 0.70661 -0.22916 0.91149
 H111 H 0.69386 -0.12511 0.84398
 Cu112 Cu 0.77873 -0.24557 0.85869
 Cu113 Cu 0.76815 -0.16316 0.80685
 Cu114 Cu 0.81810 -0.24478 0.77808
 N115 N 0.82400 -0.27927 0.85041
 N116 N 0.83850 -0.27908 0.81825
 C117 C 0.86863 -0.30507 0.81872
 C118 C 0.87371 -0.32240 0.85318
 C119 C 0.84478 -0.30546 0.87273
 H120 H 0.88579 -0.31045 0.79568
 H121 H 0.83929 -0.31159 0.90090
 N122 N 0.81075 -0.19622 0.74875
 N123 N 0.79276 -0.16455 0.76003
 C124 C 0.79508 -0.13536 0.73500
 C125 C 0.81602 -0.14938 0.70701
 C126 C 0.82542 -0.18803 0.71655
 H127 H 0.78326 -0.10587 0.73737
 H128 H 0.84264 -0.20838 0.70175
 H129 H 0.76446 -0.22177 0.79524
 H130 H 0.81483 -0.20350 0.81798
 N131 N 0.27316 0.15542 0.79920
 N132 N 0.27888 0.18936 0.81721
 C133 C 0.30822 0.18548 0.84531
 C134 C 0.32184 0.14706 0.84489
 C135 C 0.29905 0.12862 0.81524
 H136 H 0.31848 0.20875 0.86492
 H137 H 0.30057 0.09799 0.80644
 Cu138 Cu 0.24644 0.23516 0.80424
 Cu139 Cu 0.23111 0.14898 0.75758
 Cu140 Cu 0.18438 0.23563 0.72572
 N141 N 0.20240 0.27198 0.79671
 N142 N 0.17683 0.27182 0.76647
 C143 C 0.14944 0.30046 0.76927
 C144 C 0.15896 0.31949 0.80299
 C145 C 0.19267 0.30071 0.81953
 H146 H 0.12524 0.30757 0.74808
 H147 H 0.20886 0.30730 0.84633
 N148 N 0.18484 0.18720 0.69525
 N149 N 0.19998 0.15342 0.70836
 C150 C 0.19723 0.12631 0.68090
 C151 C 0.18029 0.14413 0.64900
 C152 C 0.17310 0.18279 0.65890
 H153 H 0.21017 0.09706 0.68309
 H154 H 0.16182 0.20636 0.64069
 H155 H 0.23962 0.20705 0.74227
 H156 H 0.19387 0.19628 0.76686
 N157 N 0.25631 -0.14958 0.14957
 N158 N 0.24734 -0.17889 0.12589
 C159 C 0.27550 -0.17946 0.10187
 C160 C 0.30363 -0.14897 0.11106
 C161 C 0.29059 -0.13060 0.14147
 H162 H 0.27578 -0.20058 0.07950
 H163 H 0.30492 -0.10534 0.15656
 Cu164 Cu 0.19996 -0.21367 0.12900
 Cu165 Cu 0.22294 -0.13843 0.18918
 Cu166 Cu 0.13685 -0.19881 0.19365
 N167 N 0.15304 -0.24876 0.13324
 N168 N 0.12681 -0.24106 0.15677
 C169 C 0.09807 -0.27035 0.15484
 C170 C 0.10731 -0.29822 0.12934
 C171 C 0.14249 -0.28379 0.11634
 H172 H 0.07453 -0.27321 0.17312
 H173 H 0.16011 -0.29877 0.09744
 N174 N 0.15253 -0.15485 0.22873
 N175 N 0.18532 -0.13189 0.22715
 C176 C 0.18857 -0.10603 0.25571
 C177 C 0.15655 -0.11338 0.27636
 C178 C 0.13432 -0.14442 0.25848
 H179 H 0.21290 -0.08407 0.26164
 H180 H 0.10723 -0.15875 0.26692
 H181 H 0.19948 -0.19579 0.19376
 H182 H 0.16936 -0.16116 0.16224
 N183 N 0.71784 0.18224 0.21357
 N184 N 0.73841 0.19807 0.18810
 C185 C 0.71834 0.19008 0.15461
 C186 C 0.68369 0.16770 0.15973
 C187 C 0.68420 0.16355 0.19738
 H188 H 0.72873 0.19878 0.12860
 H189 H 0.66215 0.14757 0.21201
 Cu190 Cu 0.79029 0.22571 0.20175
 Cu191 Cu 0.73672 0.18562 0.26579
 Cu192 Cu 0.83981 0.20448 0.28434
 N193 N 0.83735 0.25745 0.22244
 N194 N 0.85633 0.24951 0.25512
 C195 C 0.88634 0.27689 0.26346
 C196 C 0.88619 0.30315 0.23434
 C197 C 0.85492 0.28989 0.20866
 H198 H 0.90658 0.27764 0.28885
 H199 H 0.84503 0.30343 0.18242
 N200 N 0.80795 0.17511 0.31831
 N201 N 0.76792 0.17184 0.31273
 C202 C 0.75416 0.15191 0.34098
 C203 C 0.78721 0.14142 0.36498
 C204 C 0.82096 0.15644 0.34989
 H205 H 0.72270 0.14316 0.34260
 H206 H 0.85248 0.15382 0.36090
 H207 H 0.78518 0.22653 0.26817
 H208 H 0.79244 0.17548 0.25015
 C209 C 0.15531 -0.01616 0.38127
 C210 C 0.15783 0.02097 0.36412
 C211 C 0.16143 0.05643 0.38455
 C212 C 0.16000 0.05494 0.42317
 C213 C 0.16012 0.01765 0.44131
 C214 C 0.15843 -0.01808 0.42034
 C215 C 0.16170 -0.05456 0.43909
 C216 C 0.16521 -0.05601 0.47748
 C217 C 0.16456 -0.02112 0.49881
 C218 C 0.16278 0.01619 0.48054
 C219 C 0.15769 0.08978 0.44403
 C220 C 0.15869 0.08828 0.48223
 C221 C 0.16400 0.05212 0.50134
 C222 C 0.16953 0.05067 0.54050
 C223 C 0.17037 0.01346 0.55790
 C224 C 0.16703 -0.02232 0.53788
 H225 H 0.16289 -0.08237 0.42434
 H226 H 0.16942 -0.08486 0.49017
 H227 H 0.15427 0.11853 0.43084
 H228 H 0.15475 0.11591 0.49641
 H229 H 0.15785 0.02218 0.33442
 H230 H 0.17365 0.01221 0.58775
 C231 C 0.83565 0.02832 0.61419
 C232 C 0.83655 -0.00855 0.63192
 C233 C 0.83335 -0.04431 0.61200
 C234 C 0.82882 -0.04334 0.57292
 C235 C 0.82713 -0.00611 0.55457
 C236 C 0.82940 0.02982 0.57525
 C237 C 0.82385 0.06613 0.55646
 C238 C 0.81764 0.06726 0.51819
 C239 C 0.81684 0.03215 0.49714
 C240 C 0.82226 -0.00479 0.51540
 C241 C 0.82391 -0.07840 0.55161
 C242 C 0.82096 -0.07701 0.51329
 C243 C 0.82178 -0.04048 0.49459
 C244 C 0.82019 -0.03858 0.45560
 C245 C 0.81384 -0.00184 0.43799
 C246 C 0.81051 0.03308 0.45826
 H247 H 0.82321 0.09407 0.57108
 H248 H 0.81396 0.09610 0.50524
 H249 H 0.82167 -0.10737 0.56414
 H250 H 0.81651 -0.10498 0.49854
 H251 H 0.84109 -0.00941 0.66182
 H252 H 0.81057 -0.00045 0.40812
 C253 C 0.42005 0.12489 -0.04344
 C254 C 0.39813 0.12812 -0.01287
 C255 C 0.41789 0.13217 0.02285
 C256 C 0.46088 0.13492 0.02821
 C257 C 0.48355 0.13137 -0.00244
 C258 C 0.46309 0.12648 -0.03845
 C259 C 0.48620 0.12501 -0.06856
 C260 C 0.52854 0.12726 -0.06331
 C261 C 0.54955 0.13061 -0.02770
 C262 C 0.52678 0.13337 0.00292
 C263 C 0.48177 0.14286 0.06319
 C264 C 0.52395 0.14458 0.06844
 C265 C 0.54711 0.13847 0.03893
 C266 C 0.59010 0.13871 0.04440
 C267 C 0.61222 0.13703 0.01394
 C268 C 0.59265 0.13255 -0.02188
 H269 H 0.47180 0.12277 -0.09659
 H270 H 0.54451 0.12694 -0.08763
 H271 H 0.46583 0.14873 0.08689
 H272 H 0.53812 0.15173 0.09586
 H273 H 0.36516 0.12635 -0.01688
 H274 H 0.64518 0.13705 0.01833
 C275 C 0.41143 0.85776 -0.04356
 C276 C 0.39050 0.85928 -0.01224
 C277 C 0.41095 0.85730 0.02339
 C278 C 0.45358 0.85210 0.02803
 C279 C 0.47519 0.84994 -0.00341
 C280 C 0.45400 0.85214 -0.03931
 C281 C 0.47581 0.84745 -0.06998
 C282 C 0.51780 0.84342 -0.06560
 C283 C 0.53980 0.84378 -0.03036
 C284 C 0.51816 0.84570 0.00105
 C285 C 0.47504 0.84781 0.06320
 C286 C 0.51705 0.84381 0.06754
 C287 C 0.53943 0.84393 0.03690
 C288 C 0.58242 0.84158 0.04117
 C289 C 0.60328 0.83934 0.00985
 C290 C 0.58274 0.84140 -0.02573
 H291 H 0.46062 0.84622 -0.09777
 H292 H 0.53274 0.83942 -0.09024
 H293 H 0.45955 0.84694 0.08782
 H294 H 0.53172 0.84005 0.09526
 H295 H 0.35804 0.86422 -0.01560
 H296 H 0.63624 0.83902 0.01323
 C297 C 0.02577 0.41565 0.14641
 C298 C 0.00075 0.39393 0.16834
 C299 C -0.02826 0.41227 0.18714
 C300 C -0.03259 0.45382 0.18488
 C301 C -0.00814 0.47647 0.16258
 C302 C 0.01972 0.45720 0.14190
 C303 C 0.03957 0.47999 0.11661
 C304 C 0.03684 0.52134 0.11570
 C305 C 0.01424 0.54149 0.14008
 C306 C -0.01113 0.51860 0.16142
 C307 C -0.06112 0.47319 0.20394
 C308 C -0.06447 0.51433 0.20234
 C309 C -0.03889 0.53773 0.18216
 C310 C -0.04063 0.57971 0.18186
 C311 C -0.01344 0.60196 0.16279
 C312 C 0.01545 0.58370 0.14322
 H313 H 0.05693 0.46607 0.09690
 H314 H 0.05217 0.53737 0.09530
 H315 H -0.08119 0.45668 0.22030
 H316 H -0.08726 0.52755 0.21729
 H317 H 0.00499 0.36238 0.17266
 H318 H -0.01323 0.63402 0.16567
 C319 C 0.04959 0.58579 0.82536
 C320 C 0.01763 0.60543 0.83902
 C321 C -0.01291 0.58445 0.85528
 C322 C -0.01173 0.54240 0.85769
 C323 C 0.02175 0.52235 0.84581
 C324 C 0.05282 0.54422 0.83014
 C325 C 0.08620 0.52395 0.81934
 C326 C 0.08861 0.48287 0.82302
 C327 C 0.05744 0.46036 0.83717
 C328 C 0.02341 0.48017 0.84821
 C329 C -0.04398 0.51968 0.86982
 C330 C -0.04303 0.47829 0.87093
 C331 C -0.00937 0.45786 0.86078
 C332 C -0.00827 0.41571 0.86121
 C333 C 0.02570 0.39669 0.85034
 C334 C 0.05894 0.41843 0.83951
 H335 H 0.11097 0.53974 0.80813
 H336 H 0.11470 0.46884 0.81363
 H337 H -0.07098 0.53350 0.87751
 H338 H -0.06935 0.46259 0.87940
 H339 H 0.01544 0.63737 0.83538
 H340 H 0.02689 0.36447 0.85162
 N341 N 0.39954 0.10865 0.08401
 N342 N 0.37348 0.11764 0.10752
 C343 C 0.34947 0.14660 0.09280
 C344 C 0.36050 0.15636 0.05828
 C345 C 0.39289 0.13203 0.05411
 H346 H 0.34798 0.17899 0.03957
 H347 H 0.42170 0.08711 0.08866
 H348 H 0.37250 0.10418 0.13321
 N349 N 0.60175 0.87750 0.10047
 N350 N 0.63189 0.87555 0.13014
 C351 C 0.65488 0.84398 0.12464
 C352 C 0.64016 0.82533 0.09156
 C353 C 0.60674 0.84706 0.07751
 H354 H 0.65239 0.79969 0.07904
 H355 H 0.58055 0.90001 0.09642
 H356 H 0.63536 0.89564 0.15219
 N357 N 0.61524 0.09644 -0.07566
 N358 N 0.64346 0.10069 -0.09842
 C359 C 0.66522 0.13453 -0.08964
 C360 C 0.65046 0.15242 -0.05975
 C361 C 0.61839 0.12755 -0.05212
 H362 H 0.66112 0.17980 -0.04581
 H363 H 0.59442 0.07247 -0.07617
 H364 H 0.64748 0.08067 -0.11956
 N365 N 0.39939 0.89191 -0.10465
 N366 N 0.37167 0.89149 -0.13362
 C367 C 0.34217 0.86453 -0.12789
 C368 C 0.35146 0.84709 -0.09365
 C369 C 0.38831 0.86496 -0.08003
 H370 H 0.33421 0.82435 -0.08064
 H371 H 0.42517 0.91075 -0.10173
 H372 H 0.37309 0.90952 -0.15677
 N373 N 0.09777 0.41031 0.13043
 N374 N 0.12284 0.38155 0.12449
 C375 C 0.10215 0.34650 0.12345
 C376 C 0.06201 0.35331 0.12791
 C377 C 0.06014 0.39434 0.13237
 H378 H 0.03844 0.33092 0.13064
 H379 H 0.10752 0.43961 0.13651
 H380 H 0.15427 0.38563 0.12461
 N381 N 0.07786 0.59932 0.76611
 N382 N 0.09973 0.62996 0.75088
 C383 C 0.11052 0.65707 0.77768
 C384 C 0.09574 0.64467 0.81021
 C385 C 0.07549 0.60852 0.80174
 H386 H 0.09801 0.66048 0.83626
 H387 H 0.06383 0.57506 0.75146
 H388 H 0.10594 0.63099 0.72342
 N389 N -0.06390 0.59838 0.24199
 N390 N -0.08954 0.62619 0.25485
 C391 C -0.10743 0.64578 0.22541
 C392 C -0.09369 0.63117 0.19342
 C393 C -0.06664 0.60159 0.20505
 H394 H -0.10128 0.64144 0.16545
 H395 H -0.04472 0.57998 0.25864
 H396 H -0.09316 0.63067 0.28263
 N397 N -0.05878 0.39188 0.90360
 N398 N -0.08929 0.36223 0.90270
 C399 C -0.09044 0.34312 0.87005
 C400 C -0.06113 0.35972 0.84980
 C401 C -0.04238 0.39018 0.87141
 H402 H -0.05422 0.35104 0.82263
 H403 H -0.05006 0.41101 0.92582
 H404 H -0.10745 0.35648 0.92387
 N405 N 0.20407 0.11760 0.37799
 N406 N 0.21183 0.14256 0.35157
 C407 C 0.18488 0.13533 0.32180
 C408 C 0.15872 0.10434 0.32952
 C409 C 0.17215 0.09367 0.36555
 H410 H 0.13595 0.08923 0.31050
 H411 H 0.22236 0.11514 0.40306
 H412 H 0.23650 0.16278 0.35337
 N413 N 0.86862 0.09451 0.63212
 N414 N 0.86675 0.12162 0.65811
 C415 C 0.83921 0.10909 0.68048
 C416 C 0.82306 0.07238 0.66844
 C417 C 0.84207 0.06450 0.63739
 H418 H 0.80031 0.05418 0.68021
 H419 H 0.88800 0.09654 0.61138
 H420 H 0.88425 0.14800 0.66043
 N421 N 0.13834 -0.09031 0.55049
 N422 N 0.14286 -0.11748 0.57670
 C423 C 0.17228 -0.10480 0.60288
 C424 C 0.18735 -0.06805 0.59275
 C425 C 0.16531 -0.06004 0.55905
 H426 H 0.21046 -0.04939 0.60808
 H427 H 0.11598 -0.09193 0.52797
 H428 H 0.12502 -0.14356 0.57709
 N429 N 0.85306 -0.10241 0.44131
 N430 N 0.84988 -0.12941 0.41473
 C431 C 0.82088 -0.11840 0.38819
 C432 C 0.80476 -0.08291 0.39827
 C433 C 0.82553 -0.07410 0.43255
 H434 H 0.78098 -0.06618 0.38306
 H435 H 0.87437 -0.10313 0.46462
 H436 H 0.86798 -0.15440 0.41457
 N437 N 0.60329 0.87572 -0.08173
 N438 N 0.63119 0.87247 -0.10471
 C439 C 0.65380 0.84062 -0.09506
 C440 C 0.63973 0.82280 -0.06442
 C441 C 0.60736 0.84584 -0.05710
 H442 H 0.65139 0.79696 -0.04950
 H443 H 0.58235 0.89853 -0.08255
 H444 H 0.63462 0.89199 -0.12650
 N445 N 0.39791 0.08964 -0.10322
 N446 N 0.37135 0.09514 -0.13250
 C447 C 0.35296 0.12993 -0.12838
 C448 C 0.36817 0.14716 -0.09510
 C449 C 0.39664 0.12082 -0.08012
 H450 H 0.35959 0.17482 -0.08321
 H451 H 0.41608 0.06475 -0.09901
 H452 H 0.36613 0.07544 -0.15479
 N453 N 0.39636 0.89098 0.08165
 N454 N 0.36791 0.88968 0.10442
 C455 C 0.33992 0.86136 0.09260
 C456 C 0.35093 0.84397 0.06078
 C457 C 0.38714 0.86337 0.05499
 H458 H 0.33493 0.82061 0.04414
 H459 H 0.42126 0.91095 0.08405
 H460 H 0.36781 0.90806 0.12753
 N461 N 0.60266 0.11249 0.10845
 N462 N 0.62705 0.12036 0.13879
 C463 C 0.65325 0.15001 0.13175
 C464 C 0.64545 0.16148 0.09524
 C465 C 0.61249 0.13741 0.08171
 H466 H 0.66036 0.18499 0.08105
 H467 H 0.57953 0.09057 0.10630
 H468 H 0.62556 0.10556 0.16379
 N469 N -0.06122 0.60622 0.89953
 N470 N -0.09311 0.63276 0.89881
 C471 C -0.09757 0.64940 0.86503
 C472 C -0.06912 0.63427 0.84387
 C473 C -0.04727 0.60736 0.86617
 H474 H -0.06472 0.64164 0.81567
 H475 H -0.05009 0.58939 0.92231
 H476 H -0.10987 0.63827 0.92085
 N477 N -0.04419 0.38657 0.24811
 N478 N -0.06583 0.35693 0.26058
 C479 C -0.08703 0.33828 0.23161
 C480 C -0.07850 0.35663 0.19931
 C481 C -0.05124 0.38709 0.21106
 H482 H -0.08924 0.34809 0.17123
 H483 H -0.02395 0.40518 0.26462
 H484 H -0.06563 0.34949 0.28840
 N485 N 0.13237 0.40446 0.85351
 N486 N 0.15847 0.37821 0.84426
 C487 C 0.13939 0.35351 0.81844
 C488 C 0.09918 0.36429 0.81100
 C489 C 0.09612 0.39687 0.83390
 H490 H 0.07537 0.34990 0.79253
 H491 H 0.13909 0.42653 0.87361
 H492 H 0.18875 0.37721 0.85575
 N493 N 0.08798 0.59714 0.13033
 N494 N 0.11189 0.62843 0.12569
 C495 C 0.08957 0.66133 0.12462
 C496 C 0.04952 0.65045 0.12772
 C497 C 0.04940 0.60917 0.13121
 H498 H 0.02480 0.67042 0.13005
 H499 H 0.09912 0.56885 0.13636
 H500 H 0.14353 0.62749 0.12679
 N501 N 0.85969 -0.11227 0.62766
 N502 N 0.85489 -0.13996 0.65263
 C503 C 0.82798 -0.12728 0.67499
 C504 C 0.81499 -0.09002 0.66375
 C505 C 0.83539 -0.08179 0.63332
 H506 H 0.79387 -0.07138 0.67603
 H507 H 0.88007 -0.11393 0.60779
 H508 H 0.87055 -0.16659 0.65466
 N509 N 0.11999 -0.08033 0.36013
 N510 N 0.11973 -0.10539 0.33212
 C511 C 0.14851 -0.09343 0.31077
 C512 C 0.16797 -0.05926 0.32589
 C513 C 0.14906 -0.05199 0.35729
 H514 H 0.19174 -0.04154 0.31509
 H515 H 0.09959 -0.08193 0.38005
 H516 H 0.09969 -0.12987 0.32759
 N517 N 0.76157 0.08709 0.44356
 N518 N 0.75510 0.11540 0.41873
 C519 C 0.78599 0.11625 0.39758
 C520 C 0.81321 0.08700 0.40908
 C521 C 0.79644 0.06918 0.43833
 H522 H 0.84006 0.07855 0.39677
 H523 H 0.74159 0.07922 0.46280
 H524 H 0.72951 0.13317 0.41591
 N525 N 0.19790 0.11969 0.55690
 N526 N 0.19944 0.14468 0.58508
 C527 C 0.17938 0.12797 0.61153
 C528 C 0.16410 0.09091 0.59967
 C529 C 0.17576 0.08692 0.56439
 H530 H 0.14784 0.06946 0.61509
 H531 H 0.21385 0.12431 0.53402
 H532 H 0.21610 0.17158 0.58698
   
