data_POSCAR
  _audit_creation_date              2014-09-24
  _audit_creation_method            'ToBaCCo'
  _symmetry_space_group_name_H-M    'P1'
  _symmetry_Int_Tables_number       1
  _symmetry_cell_setting            triclinic
  loop_
  _symmetry_equiv_pos_as_xyz
 x,y,z
_cell_length_a 43.9556
_cell_length_b 43.9028
_cell_length_c 43.9367
_cell_angle_alpha 89.973600
_cell_angle_beta 89.976200
_cell_angle_gamma 90.040800
loop_
  _atom_site_label
  _atom_site_type_symbol
  _atom_site_fract_x
  _atom_site_fract_y
  _atom_site_fract_z
N1 N 0.62476 0.62504 0.62536
 N2 N 0.87521 0.37511 0.12538
 N3 N 0.37518 0.12510 -0.12524
 N4 N 0.12453 0.87529 0.37460
 N5 N 0.08859 0.17423 0.11242
 N6 N 0.07665 0.16168 0.13687
 C7 C 0.05201 0.17783 0.14537
 C8 C 0.04858 0.20157 0.12515
 C9 C 0.07200 0.19875 0.10454
 H10 H 0.03765 0.17282 0.16473
 H11 H 0.07657 0.21342 0.08529
 Cu12 Cu 0.09465 0.12551 0.15491
 Cu13 Cu 0.12470 0.15791 0.09257
 Cu14 Cu 0.15691 0.09319 0.12486
 N15 N 0.11267 0.08932 0.17296
 N16 N 0.13710 0.07680 0.16102
 C17 C 0.14496 0.05226 0.17763
 C18 C 0.12437 0.04939 0.20109
 C19 C 0.10415 0.07313 0.19762
 H20 H 0.16417 0.03760 0.17300
 H21 H 0.08481 0.07815 0.21197
 N22 N 0.17352 0.11326 0.08827
 N23 N 0.16127 0.13786 0.07599
 C24 C 0.17773 0.14599 0.05141
 C25 C 0.20126 0.12556 0.04824
 C26 C 0.19808 0.10513 0.07181
 H27 H 0.17302 0.16529 0.03687
 H28 H 0.21258 0.08583 0.07654
 H29 H 0.11880 0.11336 0.10620
 H30 H 0.14326 0.13780 0.13067
 N31 N 0.41096 0.82627 0.61237
 N32 N 0.42289 0.83882 0.63680
 C33 C 0.44754 0.82266 0.64531
 C34 C 0.45102 0.79888 0.62511
 C35 C 0.42757 0.80174 0.60449
 H36 H 0.46185 0.82772 0.66467
 H37 H 0.42301 0.78716 0.58519
 Cu38 Cu 0.40484 0.87504 0.65485
 Cu39 Cu 0.37483 0.84269 0.59258
 Cu40 Cu 0.34258 0.90738 0.62485
 N41 N 0.38679 0.91126 0.67292
 N42 N 0.36235 0.92378 0.66100
 C43 C 0.35448 0.94832 0.67760
 C44 C 0.37507 0.95118 0.70108
 C45 C 0.39529 0.92744 0.69757
 H46 H 0.33531 0.96302 0.67292
 H47 H 0.41465 0.92238 0.71189
 N48 N 0.32599 0.88734 0.58825
 N49 N 0.33824 0.86275 0.57598
 C50 C 0.32179 0.85464 0.55140
 C51 C 0.29825 0.87507 0.54822
 C52 C 0.30144 0.89548 0.57179
 H53 H 0.32651 0.83535 0.53686
 H54 H 0.28693 0.91478 0.57652
 H55 H 0.38078 0.88731 0.60624
 H56 H 0.35630 0.86284 0.63075
 N57 N 0.91132 0.67347 0.38751
 N58 N 0.92369 0.66054 0.36349
 C59 C 0.94825 0.67683 0.35489
 C60 C 0.95124 0.70102 0.37467
 C61 C 0.92757 0.69834 0.39506
 H62 H 0.96281 0.67159 0.33575
 H63 H 0.92256 0.71334 0.41393
 Cu64 Cu 0.90583 0.62397 0.34609
 Cu65 Cu 0.87504 0.65719 0.40729
 Cu66 Cu 0.84287 0.59236 0.37511
 N67 N 0.88775 0.58808 0.32754
 N68 N 0.86292 0.57591 0.33909
 C69 C 0.85480 0.55164 0.32224
 C70 C 0.87563 0.54859 0.29903
 C71 C 0.89624 0.57196 0.30286
 H72 H 0.83524 0.53731 0.32653
 H73 H 0.91580 0.57681 0.28872
 N74 N 0.82617 0.61251 0.41160
 N75 N 0.83840 0.63715 0.42383
 C76 C 0.82194 0.64527 0.44839
 C77 C 0.79842 0.62479 0.45160
 C78 C 0.80162 0.60434 0.42808
 H79 H 0.82666 0.66457 0.46292
 H80 H 0.78715 0.58497 0.42340
 H81 H 0.88065 0.61245 0.39424
 H82 H 0.85691 0.63682 0.36897
 N83 N 0.58925 0.32608 -0.11239
 N84 N 0.57726 0.33869 -0.13676
 C85 C 0.55264 0.32247 -0.14527
 C86 C 0.54919 0.29869 -0.12506
 C87 C 0.57265 0.30154 -0.10449
 H88 H 0.53828 0.32751 -0.16460
 H89 H 0.57723 0.28693 -0.08520
 Cu90 Cu 0.59533 0.37491 -0.15479
 Cu91 Cu 0.62540 0.34244 -0.09259
 Cu92 Cu 0.65772 0.40715 -0.12486
 N93 N 0.61342 0.41110 -0.17287
 N94 N 0.63793 0.42355 -0.16100
 C95 C 0.64585 0.44809 -0.17759
 C96 C 0.62526 0.45099 -0.20104
 C97 C 0.60498 0.42728 -0.19755
 H98 H 0.66506 0.46276 -0.17292
 H99 H 0.58563 0.42229 -0.21188
 N100 N 0.67427 0.38706 -0.08829
 N101 N 0.66198 0.36246 -0.07603
 C102 C 0.67846 0.35426 -0.05151
 C103 C 0.70205 0.37465 -0.04839
 C104 C 0.69889 0.39513 -0.07189
 H105 H 0.67374 0.33493 -0.03700
 H106 H 0.71345 0.41441 -0.07664
 H107 H 0.61949 0.38712 -0.10614
 H108 H 0.64386 0.36266 -0.13075
 C109 C -0.04619 0.26678 0.14537
 C110 C -0.04089 0.30072 0.15343
 C111 C -0.05966 0.30988 0.12541
 C112 C -0.06533 0.27632 0.11734
 C113 C -0.01748 0.26749 0.12544
 C114 C -0.03625 0.27667 0.09741
 C115 C -0.01181 0.30107 0.13350
 C116 C -0.03096 0.31061 0.10548
 C117 C -0.08316 0.33345 0.12539
 C118 C -0.10252 0.35283 0.12538
 C119 C 0.00601 0.24389 0.12547
 C120 C 0.02539 0.22453 0.12540
 H121 H -0.05215 0.24847 0.16176
 H122 H -0.04314 0.31094 0.17643
 H123 H -0.08764 0.26651 0.11071
 H124 H -0.03404 0.26649 0.07439
 H125 H 0.01048 0.31094 0.14013
 H126 H -0.02505 0.32894 0.08909
 C127 C 0.52825 0.71584 0.59686
 C128 C 0.56156 0.72038 0.60747
 C129 C 0.55950 0.69036 0.62535
 C130 C 0.52656 0.68546 0.61474
 C131 C 0.51727 0.73282 0.62540
 C132 C 0.51521 0.70279 0.64328
 C133 C 0.55022 0.73771 0.63601
 C134 C 0.54852 0.70732 0.65390
 C135 C 0.58305 0.66674 0.62534
 C136 C 0.60244 0.64734 0.62534
 C137 C 0.49374 0.75650 0.62541
 C138 C 0.47431 0.77589 0.62534
 H139 H 0.51961 0.71964 0.57343
 H140 H 0.58088 0.72734 0.59274
 H141 H 0.51710 0.66371 0.60598
 H142 H 0.49586 0.69587 0.65798
 H143 H 0.55961 0.75949 0.64475
 H144 H 0.55712 0.70356 0.67736
 C145 C 1.03224 0.78032 0.34572
 C146 C 1.02832 0.81283 0.35885
 C147 C 1.05941 0.80980 0.37454
 C148 C 1.06368 0.77765 0.36142
 C149 C 1.01722 0.76729 0.37450
 C150 C 1.04830 0.76426 0.39020
 C151 C 1.01295 0.79943 0.38764
 C152 C 1.04439 0.79677 0.40333
 C153 C 1.08292 0.83346 0.37455
 C154 C 1.10228 0.85291 0.37457
 C155 C 0.99372 0.74361 0.37438
 C156 C 0.97436 0.72415 0.37439
 H157 H 1.02688 0.77321 0.32209
 H158 H 1.02034 0.83305 0.34595
 H159 H 1.08480 0.76895 0.35063
 H160 H 1.05617 0.74399 0.40309
 H161 H 0.99179 0.80802 0.39842
 H162 H 1.04967 0.80381 0.42702
 C163 C 0.48446 0.20311 -0.10687
 C164 C 0.45100 0.20787 -0.09686
 C165 C 0.44045 0.19044 -0.12529
 C166 C 0.47355 0.18531 -0.13529
 C167 C 0.48278 0.23282 -0.12529
 C168 C 0.47223 0.21539 -0.15371
 C169 C 0.44969 0.23794 -0.11528
 C170 C 0.43877 0.22015 -0.14370
 C171 C 0.41687 0.16685 -0.12529
 C172 C 0.39747 0.14743 -0.12527
 C173 C 0.50640 0.25640 -0.12531
 C174 C 0.52589 0.27573 -0.12525
 H175 H 0.50357 0.19646 -0.09176
 H176 H 0.44202 0.20452 -0.07347
 H177 H 0.48311 0.16341 -0.14352
 H178 H 0.48128 0.21880 -0.17705
 H179 H 0.44023 0.25988 -0.10706
 H180 H 0.41971 0.22689 -0.15885
 C181 C 0.12757 -0.05099 0.26087
 C182 C 0.15074 -0.05321 0.28735
 C183 C 0.12431 -0.05925 0.30945
 C184 C 0.10114 -0.05741 0.28333
 C185 C 0.12418 -0.01675 0.26724
 C186 C 0.09777 -0.02280 0.28933
 C187 C 0.14735 -0.01861 0.29335
 C188 C 0.12093 -0.02501 0.31581
 C189 C 0.12439 -0.08290 0.33298
 C190 C 0.12445 -0.10234 0.35235
 C191 C 0.12409 0.00693 0.24372
 C192 C 0.12412 0.02635 0.22432
 H193 H 0.13031 -0.06131 0.23798
 H194 H 0.17252 -0.06598 0.28679
 H195 H 0.08214 -0.07361 0.27946
 H196 H 0.07602 -0.00997 0.28980
 H197 H 0.16633 -0.00235 0.29712
 H198 H 0.11820 -0.01459 0.33867
 C199 C 0.65203 0.52454 -0.28784
 C200 C 0.63023 0.52556 -0.31553
 C201 C 0.62477 0.55959 -0.30945
 C202 C 0.64657 0.55893 -0.28213
 C203 C 0.62480 0.51715 -0.26717
 C204 C 0.61935 0.55117 -0.26109
 C205 C 0.60301 0.51781 -0.29449
 C206 C 0.59755 0.55220 -0.28878
 C207 C 0.62474 0.58323 -0.33300
 C208 C 0.62473 0.60268 -0.35237
 C209 C 0.62484 0.49350 -0.24362
 C210 C 0.62497 0.47408 -0.22422
 H211 H 0.67439 0.51284 -0.28712
 H212 H 0.63472 0.51530 -0.33818
 H213 H 0.66451 0.57607 -0.27729
 H214 H 0.61488 0.56133 -0.23840
 H215 H 0.58512 0.50061 -0.29924
 H216 H 0.57514 0.56384 -0.28941
 C217 C 0.37081 1.05143 0.76106
 C218 C 0.34835 1.05298 0.78820
 C219 C 0.37521 1.05973 0.80953
 C220 C 0.39767 1.05854 0.78275
 C221 C 0.37532 1.01728 0.76728
 C222 C 0.40217 1.02404 0.78862
 C223 C 0.35285 1.01847 0.79406
 C224 C 0.37970 1.02559 0.81576
 C225 C 0.37518 1.08336 0.83307
 C226 C 0.37517 1.10278 0.85246
 C227 C 0.37541 0.99365 0.74370
 C228 C 0.37536 0.97424 0.72429
 H229 H 0.36714 1.06171 0.73827
 H230 H 0.32622 1.06516 0.78830
 H231 H 0.41610 1.07527 0.77835
 H232 H 0.42426 1.01182 0.78846
 H233 H 0.33442 1.00172 0.79839
 H234 H 0.38336 1.01524 0.83852
 C235 C 0.85333 0.48125 0.20641
 C236 C 0.88010 0.47431 0.18456
 C237 C 0.87570 0.44015 0.19075
 C238 C 0.84894 0.44673 0.21224
 C239 C 0.87591 0.48247 0.23305
 C240 C 0.87153 0.44831 0.23926
 C241 C 0.90269 0.47588 0.21158
 C242 C 0.89830 0.44134 0.21740
 C243 C 0.87545 0.41671 0.16711
 C244 C 0.87528 0.39739 0.14767
 C245 C 0.87594 0.50615 0.25650
 C246 C 0.87587 0.52559 0.27583
 H247 H 0.83484 0.49794 0.20222
 H248 H 0.88365 0.48470 0.16180
 H249 H 0.82686 0.43443 0.21221
 H250 H 0.86800 0.43797 0.26205
 H251 H 0.92475 0.48820 0.21169
 H252 H 0.91681 0.42467 0.22166
 C253 C 0.29920 0.11149 -0.01386
 C254 C 0.29614 0.09651 -0.04563
 C255 C 0.30977 0.12533 -0.06008
 C256 C 0.31321 0.14031 -0.02867
 C257 C 0.26740 0.12543 -0.01779
 C258 C 0.28103 0.15425 -0.03224
 C259 C 0.26396 0.11045 -0.04920
 C260 C 0.27796 0.13927 -0.06401
 C261 C 0.33338 0.12526 -0.08363
 C262 C 0.35281 0.12519 -0.10300
 C263 C 0.24379 0.12550 0.00576
 C264 C 0.22438 0.12554 0.02513
 H265 H 0.30758 0.10010 0.00708
 H266 H 0.30261 0.07276 -0.05139
 H267 H 0.33372 0.15258 -0.02047
 H268 H 0.27448 0.17795 -0.02639
 H269 H 0.24340 0.09820 -0.05728
 H270 H 0.26947 0.15069 -0.08490
 C271 C 0.69802 0.62305 0.51134
 C272 C 0.69489 0.59902 0.53700
 C273 C 0.69001 0.62489 0.56003
 C274 C 0.69277 0.64891 0.53474
 C275 C 0.73234 0.62482 0.51771
 C276 C 0.72746 0.65068 0.54074
 C277 C 0.72958 0.60080 0.54299
 C278 C 0.72434 0.62666 0.56640
 C279 C 0.66642 0.62494 0.58361
 C280 C 0.64703 0.62499 0.60301
 C281 C 0.75592 0.62479 0.49413
 C282 C 0.77531 0.62477 0.47473
 H283 H 0.68756 0.62157 0.48840
 H284 H 0.68125 0.57777 0.53571
 H285 H 0.67737 0.66869 0.53161
 H286 H 0.74118 0.67189 0.54193
 H287 H 0.74505 0.58106 0.54603
 H288 H 0.73491 0.62814 0.58929
 C289 C 0.76182 0.37076 0.05173
 C290 C 0.78860 0.34793 0.05379
 C291 C 0.81030 0.37468 0.05994
 C292 C 0.78389 0.39749 0.05826
 C293 C 0.76814 0.37448 0.01755
 C294 C 0.78985 0.40120 0.02370
 C295 C 0.79455 0.35165 0.01922
 C296 C 0.81664 0.37838 0.02575
 C297 C 0.83370 0.37492 0.08361
 C298 C 0.85298 0.37507 0.10307
 C299 C 0.74459 0.37450 -0.00600
 C300 C 0.72518 0.37456 -0.02535
 H301 H 0.73899 0.36764 0.06208
 H302 H 0.78838 0.32602 0.06641
 H303 H 0.77983 0.41631 0.07462
 H304 H 0.79003 0.42308 0.01103
 H305 H 0.79855 0.33284 0.00282
 H306 H 0.83945 0.38148 0.01534
 C307 C 0.23097 0.85278 0.45530
 C308 C 0.19649 0.84825 0.46109
 C309 C 0.18982 0.87522 0.43982
 C310 C 0.22394 0.87975 0.43366
 C311 C 0.23214 0.87517 0.48214
 C312 C 0.22548 0.90214 0.46088
 C313 C 0.19803 0.87064 0.48830
 C314 C 0.19099 0.89761 0.46667
 C315 C 0.16625 0.87525 0.41625
 C316 C 0.14685 0.87527 0.39687
 C317 C 0.25573 0.87512 0.50572
 C318 C 0.27513 0.87509 0.52511
 H319 H 0.24772 0.83438 0.45096
 H320 H 0.18430 0.82610 0.46092
 H321 H 0.23434 0.88350 0.41093
 H322 H 0.23771 0.92426 0.46112
 H323 H 0.18772 0.86691 0.51107
 H324 H 0.17429 0.91605 0.47109
   
