data_POSCAR
  _audit_creation_date              2014-09-24
  _audit_creation_method            'ToBaCCo'
  _symmetry_space_group_name_H-M    'P1'
  _symmetry_Int_Tables_number       1
  _symmetry_cell_setting            triclinic
  loop_
  _symmetry_equiv_pos_as_xyz
 x,y,z
_cell_length_a 61.3533
_cell_length_b 61.5341
_cell_length_c 29.1353
_cell_angle_alpha 89.899600
_cell_angle_beta 90.062900
_cell_angle_gamma 119.846300
loop_
  _atom_site_label
  _atom_site_type_symbol
  _atom_site_fract_x
  _atom_site_fract_y
  _atom_site_fract_z
C1 C 0.50049 0.99961 0.47795
 C2 C 0.50079 0.99959 0.52472
 C3 C 0.48834 0.97594 0.55165
 C4 C 0.51358 1.02321 0.55155
 C5 C 0.51142 1.02326 0.45106
 C6 C 0.48926 0.97598 0.45107
 C7 C 0.46267 0.95855 0.54584
 C8 C 0.45123 0.93649 0.57184
 C9 C 0.46530 0.93173 0.60417
 C10 C 0.49083 0.94917 0.61037
 C11 C 0.50224 0.97117 0.58439
 C12 C 0.50010 1.02797 0.58512
 C13 C 0.51183 1.04999 0.61090
 C14 C 0.53723 1.06742 0.60367
 C15 C 0.55090 1.06269 0.57060
 C16 C 0.53917 1.04063 0.54477
 C17 C 0.52964 1.02792 0.41746
 C18 C 0.54003 1.04997 0.39163
 C19 C 0.53221 1.06753 0.39887
 C20 C 0.51385 1.06291 0.43197
 C21 C 0.50341 1.04081 0.45783
 C22 C 0.49744 0.95849 0.45691
 C23 C 0.48681 0.93649 0.43087
 C24 C 0.46809 0.93189 0.39856
 C25 C 0.46006 0.94937 0.39232
 C26 C 0.47064 0.97133 0.41830
 H27 H 0.45152 0.96212 0.52138
 H28 H 0.43142 0.92329 0.56680
 H29 H 0.50198 0.94586 0.63535
 H30 H 0.52200 0.98443 0.58955
 H31 H 0.48041 1.01470 0.59105
 H32 H 0.50111 1.05341 0.63653
 H33 H 0.55002 1.03707 0.51967
 H34 H 0.53594 1.01455 0.41153
 H35 H 0.55413 1.05331 0.36598
 H36 H 0.50755 1.07630 0.43762
 H37 H 0.48903 1.03733 0.48296
 H38 H 0.51212 0.96196 0.48138
 H39 H 0.49328 0.92316 0.43575
 H40 H 0.44566 0.94605 0.36727
 H41 H 0.46420 0.98466 0.41310
 H42 H 0.57060 1.07598 0.56494
 C43 C -0.00027 0.50087 0.47489
 C44 C -0.00023 0.50096 0.52165
 C45 C 0.02351 0.51236 0.54849
 C46 C -0.02392 0.48966 0.54860
 C47 C -0.02397 0.48792 0.44808
 C48 C 0.02340 0.51369 0.44795
 C49 C 0.04132 0.50457 0.54238
 C50 C 0.06345 0.51537 0.56832
 C51 C 0.06786 0.53387 0.60082
 C52 C 0.05006 0.54149 0.60733
 C53 C 0.02798 0.53075 0.58143
 C54 C -0.02830 0.47143 0.58193
 C55 C -0.05034 0.46076 0.60792
 C56 C -0.06817 0.46832 0.60112
 C57 C -0.06385 0.48667 0.56825
 C58 C -0.04176 0.49739 0.54221
 C59 C -0.02908 0.50131 0.41478
 C60 C -0.05116 0.48943 0.38895
 C61 C -0.06833 0.46396 0.39588
 C62 C -0.06325 0.45041 0.42874
 C63 C -0.04112 0.46231 0.45460
 C64 C 0.04057 0.53934 0.45400
 C65 C 0.06268 0.55109 0.42808
 C66 C 0.06770 0.53738 0.39566
 C67 C 0.05053 0.51192 0.38916
 C68 C 0.02846 0.50015 0.41503
 H69 H 0.03800 0.49008 0.51776
 H70 H 0.07702 0.50921 0.56324
 H71 H 0.05324 0.55571 0.63251
 H72 H 0.01441 0.53688 0.58684
 H73 H -0.01470 0.46534 0.58756
 H74 H -0.05345 0.44665 0.63339
 H75 H -0.03851 0.51177 0.51728
 H76 H -0.01602 0.52102 0.40906
 H77 H -0.05479 0.50013 0.36353
 H78 H -0.07628 0.43066 0.43427
 H79 H -0.03729 0.45155 0.47950
 H80 H 0.03677 0.55021 0.47860
 H81 H 0.07577 0.57085 0.43317
 H82 H 0.05418 0.50116 0.36403
 H83 H 0.01539 0.48042 0.40966
 H84 H -0.07745 0.49278 0.56293
 C85 C 0.49867 0.49859 0.47840
 C86 C 0.49843 0.49842 0.52515
 C87 C 0.48745 0.51118 0.55187
 C88 C 0.50915 0.48547 0.55221
 C89 C 0.51111 0.48726 0.45169
 C90 C 0.48650 0.51011 0.45130
 C91 C 0.49593 0.53684 0.54587
 C92 C 0.48547 0.54855 0.57162
 C93 C 0.46659 0.53476 0.60386
 C94 C 0.45829 0.50925 0.61028
 C95 C 0.46872 0.49756 0.58455
 C96 C 0.52755 0.49887 0.58553
 C97 C 0.53777 0.48701 0.61151
 C98 C 0.52958 0.46156 0.60471
 C99 C 0.51102 0.44799 0.57185
 C100 C 0.50077 0.45986 0.54584
 C101 C 0.49735 0.46907 0.41834
 C102 C 0.50877 0.45838 0.39254
 C103 C 0.53411 0.46587 0.39955
 C104 C 0.54805 0.48417 0.43245
 C105 C 0.53664 0.49491 0.45830
 C106 C 0.46091 0.50239 0.45704
 C107 C 0.44974 0.51330 0.43083
 C108 C 0.46400 0.53184 0.39844
 C109 C 0.48942 0.53940 0.39230
 C110 C 0.50059 0.52854 0.41846
 H111 H 0.51069 0.54777 0.52144
 H112 H 0.49220 0.56834 0.56651
 H113 H 0.44378 0.49837 0.63522
 H114 H 0.46205 0.47780 0.58986
 H115 H 0.53414 0.51858 0.59113
 H116 H 0.55204 0.49773 0.63692
 H117 H 0.48625 0.44910 0.52091
 H118 H 0.47771 0.46304 0.41254
 H119 H 0.49784 0.44431 0.36704
 H120 H 0.56772 0.49023 0.43793
 H121 H 0.54769 0.50926 0.48325
 H122 H 0.44960 0.48786 0.48157
 H123 H 0.43001 0.50720 0.43563
 H124 H 0.50059 0.55365 0.36721
 H125 H 0.52029 0.53462 0.41334
 H126 H 0.50438 0.42825 0.56642
 O127 O 0.37196 0.66203 -0.04005
 O128 O 0.37091 0.70342 -0.05387
 C129 C 0.35897 0.71484 -0.06219
 O130 O 0.33969 0.71127 -0.03992
 O131 O 0.29825 0.66901 -0.05387
 C132 C 0.28687 0.64576 -0.06231
 O133 O 0.29049 0.63007 -0.04012
 O134 O 0.33296 0.63099 -0.05403
 C135 C 0.35629 0.64285 -0.06235
 O136 O 0.37092 0.66865 0.05128
 O137 O 0.37195 0.71107 0.03745
 C138 C 0.35628 0.71469 0.05975
 O139 O 0.33295 0.70340 0.05140
 O140 O 0.29048 0.66217 0.03745
 C141 C 0.28688 0.64289 0.05965
 O142 O 0.29826 0.63094 0.05120
 O143 O 0.33970 0.62981 0.03729
 C144 C 0.35897 0.64538 0.05960
 Cr145 Cr 0.37002 0.68559 -0.00130
 Cr146 Cr 0.31605 0.68575 -0.00124
 Cr147 Cr 0.31606 0.63187 -0.00141
 O148 O 0.33404 0.66774 -0.00132
 O149 O 0.62811 0.33800 -0.03798
 O150 O 0.62963 0.29689 -0.05186
 C151 C 0.64179 0.28573 -0.06037
 O152 O 0.66121 0.28950 -0.03828
 O153 O 0.70234 0.33204 -0.05236
 C154 C 0.71350 0.35530 -0.06074
 O155 O 0.70970 0.37081 -0.03844
 O156 O 0.66694 0.36935 -0.05211
 C157 C 0.64360 0.35727 -0.06036
 O158 O 0.62943 0.33133 0.05336
 O159 O 0.62889 0.28918 0.03947
 C160 C 0.64477 0.28577 0.06161
 O161 O 0.66808 0.29726 0.05302
 O162 O 0.71024 0.33878 0.03894
 C163 C 0.71363 0.35793 0.06124
 O164 O 0.70202 0.36969 0.05291
 O165 O 0.66031 0.37033 0.03924
 C166 C 0.64117 0.35459 0.06166
 Cr167 Cr 0.63043 0.31457 0.00074
 Cr168 Cr 0.68474 0.31509 0.00034
 Cr169 Cr 0.68405 0.36863 0.00040
 O170 O 0.66641 0.33276 0.00049
 C171 C 0.45471 0.91131 -0.37101
 C172 C 0.44536 0.89270 -0.34750
 C173 C 0.43472 0.87082 -0.31859
 C174 C 0.40867 0.85644 -0.31283
 C175 C 0.39848 0.83574 -0.28333
 C176 C 0.41426 0.82918 -0.25919
 C177 C 0.44041 0.84361 -0.26566
 C178 C 0.45054 0.86429 -0.29513
 C179 C 0.40361 0.80783 -0.22643
 C180 C 0.41363 0.79167 -0.22332
 C181 C 0.40421 0.77220 -0.19116
 C182 C 0.38468 0.76861 -0.16173
 C183 C 0.37440 0.78439 -0.16492
 C184 C 0.38376 0.80385 -0.19705
 C185 C 0.37561 0.74923 -0.12737
 C186 C 0.36803 0.73333 -0.09795
 H187 H 0.39624 0.86133 -0.33086
 H188 H 0.37827 0.82484 -0.27949
 H189 H 0.45308 0.83927 -0.24710
 H190 H 0.47075 0.87537 -0.29918
 H191 H 0.42870 0.79407 -0.24583
 H192 H 0.41229 0.76008 -0.18901
 H193 H 0.35935 0.78184 -0.14215
 H194 H 0.37589 0.81616 -0.19813
 C195 C 0.09039 0.54485 -0.37189
 C196 C 0.10900 0.55424 -0.34829
 C197 C 0.13087 0.56560 -0.31925
 C198 C 0.14619 0.55483 -0.31494
 C199 C 0.16689 0.56542 -0.28536
 C200 C 0.17252 0.58696 -0.25968
 C201 C 0.15715 0.59779 -0.26469
 C202 C 0.13647 0.58716 -0.29424
 C203 C 0.19389 0.59770 -0.22686
 C204 C 0.20919 0.62382 -0.22223
 C205 C 0.22867 0.63387 -0.19001
 C206 C 0.23312 0.61797 -0.16205
 C207 C 0.21820 0.59198 -0.16677
 C208 C 0.19873 0.58189 -0.19896
 C209 C 0.25250 0.62821 -0.12761
 C210 C 0.26838 0.63645 -0.09812
 H211 H 0.14203 0.53815 -0.33418
 H212 H 0.17854 0.55683 -0.28268
 H213 H 0.16076 0.61414 -0.24493
 H214 H 0.12466 0.59559 -0.29716
 H215 H 0.20614 0.63648 -0.24359
 H216 H 0.24013 0.65402 -0.18667
 H217 H 0.22141 0.57950 -0.14515
 H218 H 0.18708 0.56173 -0.20122
 C219 C 0.45649 0.54605 -0.37053
 C220 C 0.44734 0.55561 -0.34721
 C221 C 0.43624 0.56651 -0.31850
 C222 C 0.41300 0.55110 -0.29758
 C223 C 0.40256 0.56141 -0.26818
 C224 C 0.41528 0.58731 -0.25924
 C225 C 0.43851 0.60269 -0.28089
 C226 C 0.44891 0.59233 -0.31031
 C227 C 0.40468 0.59807 -0.22644
 C228 C 0.42039 0.61653 -0.19482
 C229 C 0.41031 0.62596 -0.16272
 C230 C 0.38443 0.61711 -0.16178
 C231 C 0.36867 0.59898 -0.19342
 C232 C 0.37870 0.58951 -0.22557
 C233 C 0.37408 0.62620 -0.12749
 C234 C 0.36575 0.63379 -0.09809
 H235 H 0.40309 0.53107 -0.30350
 H236 H 0.38484 0.54903 -0.25157
 H237 H 0.44860 0.62273 -0.27514
 H238 H 0.46690 0.60443 -0.32637
 H239 H 0.44039 0.62325 -0.19417
 H240 H 0.42268 0.63991 -0.13824
 H241 H 0.34861 0.59203 -0.19303
 H242 H 0.36617 0.57554 -0.24981
 C243 C 0.54916 0.08995 -0.36930
 C244 C 0.55867 0.10858 -0.34596
 C245 C 0.56951 0.13050 -0.31728
 C246 C 0.58928 0.13517 -0.28750
 C247 C 0.59898 0.15579 -0.25799
 C248 C 0.58899 0.17201 -0.25781
 C249 C 0.56934 0.16734 -0.28833
 C250 C 0.55967 0.14671 -0.31784
 C251 C 0.59855 0.19326 -0.22503
 C252 C 0.58179 0.19891 -0.20214
 C253 C 0.59066 0.21830 -0.16997
 C254 C 0.61637 0.23232 -0.16029
 C255 C 0.63323 0.22705 -0.18326
 C256 C 0.62440 0.20766 -0.21543
 C257 C 0.62535 0.25154 -0.12573
 C258 C 0.63284 0.26732 -0.09619
 H259 H 0.59693 0.12265 -0.28660
 H260 H 0.61387 0.15867 -0.23449
 H261 H 0.56146 0.17965 -0.28942
 H262 H 0.54436 0.14327 -0.34075
 H263 H 0.56176 0.18795 -0.20828
 H264 H 0.57743 0.22213 -0.15221
 H265 H 0.65318 0.23780 -0.17602
 H266 H 0.63779 0.20397 -0.23288
 C267 C 0.90933 0.45739 -0.37151
 C268 C 0.89075 0.44803 -0.34784
 C269 C 0.86892 0.43669 -0.31871
 C270 C 0.85514 0.44884 -0.31064
 C271 C 0.83454 0.43822 -0.28086
 C272 C 0.82746 0.41529 -0.25874
 C273 C 0.84127 0.40310 -0.26755
 C274 C 0.86186 0.41376 -0.29730
 C275 C 0.80623 0.40445 -0.22564
 C276 C 0.78945 0.37845 -0.22421
 C277 C 0.77006 0.36822 -0.19184
 C278 C 0.76718 0.38383 -0.16053
 C279 C 0.78359 0.40973 -0.16200
 C280 C 0.80298 0.41999 -0.19432
 C281 C 0.74782 0.37332 -0.12609
 C282 C 0.73196 0.36486 -0.09659
 H283 H 0.86044 0.46660 -0.32706
 H284 H 0.82410 0.44790 -0.27522
 H285 H 0.83654 0.38563 -0.25058
 H286 H 0.87248 0.40426 -0.30313
 H287 H 0.79128 0.36604 -0.24821
 H288 H 0.75744 0.34815 -0.19104
 H289 H 0.78160 0.42197 -0.13777
 H290 H 0.81578 0.44002 -0.19409
 C291 C 0.53954 0.45014 -0.36955
 C292 C 0.54859 0.44047 -0.34613
 C293 C 0.55961 0.42947 -0.31737
 C294 C 0.54481 0.41104 -0.28528
 C295 C 0.55574 0.40125 -0.25573
 C296 C 0.58169 0.40981 -0.25783
 C297 C 0.59636 0.42811 -0.29064
 C298 C 0.58537 0.43786 -0.32018
 C299 C 0.59349 0.40020 -0.22508
 C300 C 0.61683 0.41662 -0.20479
 C301 C 0.62749 0.40777 -0.17261
 C302 C 0.61501 0.38242 -0.16033
 C303 C 0.59194 0.36588 -0.18071
 C304 C 0.58124 0.37468 -0.21289
 C305 C 0.62547 0.37354 -0.12574
 C306 C 0.63394 0.36613 -0.09619
 H307 H 0.52488 0.40452 -0.28262
 H308 H 0.54401 0.38744 -0.23046
 H309 H 0.61631 0.43485 -0.29349
 H310 H 0.59701 0.45213 -0.34488
 H311 H 0.62656 0.43642 -0.21296
 H312 H 0.64529 0.42077 -0.15685
 H313 H 0.58213 0.34621 -0.17146
 H314 H 0.56341 0.36153 -0.22830
 C315 C 0.91030 0.45249 0.37021
 C316 C 0.89161 0.44274 0.34683
 C317 C 0.86962 0.43160 0.31809
 C318 C 0.85203 0.43973 0.32094
 C319 C 0.83130 0.42981 0.29146
 C320 C 0.82790 0.41161 0.25868
 C321 C 0.84552 0.40332 0.25653
 C322 C 0.86624 0.41328 0.28602
 C323 C 0.80649 0.40180 0.22600
 C324 C 0.79353 0.37629 0.21388
 C325 C 0.77403 0.36731 0.18172
 C326 C 0.76723 0.38367 0.16128
 C327 C 0.77979 0.40901 0.17352
 C328 C 0.79927 0.41804 0.20569
 C329 C 0.74794 0.37462 0.12666
 C330 C 0.73210 0.36703 0.09708
 H331 H 0.85448 0.45392 0.34564
 H332 H 0.81791 0.43634 0.29433
 H333 H 0.84363 0.38960 0.23127
 H334 H 0.87982 0.40697 0.28335
 H335 H 0.79843 0.36328 0.22932
 H336 H 0.76442 0.34765 0.17251
 H337 H 0.77476 0.42187 0.15773
 H338 H 0.80910 0.43783 0.21381
 C339 C 0.54292 0.09009 0.37179
 C340 C 0.55211 0.10874 0.34841
 C341 C 0.56327 0.13069 0.31967
 C342 C 0.54804 0.13657 0.29265
 C343 C 0.55892 0.15720 0.26303
 C344 C 0.58523 0.17219 0.25999
 C345 C 0.60036 0.16631 0.28778
 C346 C 0.58943 0.14569 0.31739
 C347 C 0.59679 0.19342 0.22703
 C348 C 0.61798 0.19783 0.20117
 C349 C 0.62829 0.21719 0.16884
 C350 C 0.61763 0.23243 0.16196
 C351 C 0.59675 0.22841 0.18789
 C352 C 0.58639 0.20904 0.22023
 C353 C 0.62759 0.25163 0.12723
 C354 C 0.63562 0.26739 0.09756
 H355 H 0.52777 0.12501 0.29395
 H356 H 0.54677 0.16102 0.24165
 H357 H 0.62064 0.17767 0.28665
 H358 H 0.60140 0.14129 0.33816
 H359 H 0.62620 0.18592 0.20512
 H360 H 0.64437 0.22005 0.14877
 H361 H 0.58835 0.24011 0.18284
 H362 H 0.57028 0.20632 0.23998
 C363 C 0.54575 0.45495 0.37232
 C364 C 0.55501 0.44561 0.34874
 C365 C 0.56553 0.43429 0.31967
 C366 C 0.59161 0.44511 0.31531
 C367 C 0.60172 0.43457 0.28564
 C368 C 0.58584 0.41305 0.25992
 C369 C 0.55966 0.40216 0.26500
 C370 C 0.54960 0.41273 0.29464
 C371 C 0.59646 0.40237 0.22697
 C372 C 0.58572 0.37626 0.22221
 C373 C 0.59512 0.36628 0.18983
 C374 C 0.61537 0.38224 0.16183
 C375 C 0.62636 0.40822 0.16667
 C376 C 0.61701 0.41824 0.19902
 C377 C 0.62444 0.37206 0.12721
 C378 C 0.63205 0.36387 0.09760
 H379 H 0.60411 0.46179 0.33455
 H380 H 0.62194 0.44320 0.28289
 H381 H 0.54694 0.38581 0.24522
 H382 H 0.52939 0.40427 0.29760
 H383 H 0.57009 0.36356 0.24360
 H384 H 0.58649 0.34614 0.18640
 H385 H 0.64197 0.42075 0.14501
 H386 H 0.62546 0.43840 0.20137
 C387 C 0.09027 0.54935 0.36851
 C388 C 0.10894 0.55892 0.34509
 C389 C 0.13092 0.56985 0.31634
 C390 C 0.13501 0.58896 0.28545
 C391 C 0.15572 0.59878 0.25597
 C392 C 0.17261 0.58956 0.25693
 C393 C 0.16850 0.57056 0.28852
 C394 C 0.14778 0.56078 0.31800
 C395 C 0.19400 0.59925 0.22424
 C396 C 0.20040 0.58276 0.20256
 C397 C 0.21989 0.59172 0.17044
 C398 C 0.23328 0.61726 0.15961
 C399 C 0.22728 0.63386 0.18140
 C400 C 0.20778 0.62494 0.21351
 C401 C 0.25258 0.62630 0.12504
 C402 C 0.26842 0.63386 0.09549
 H403 H 0.12199 0.59601 0.28370
 H404 H 0.15817 0.61314 0.23163
 H405 H 0.18132 0.56329 0.29047
 H406 H 0.14478 0.54598 0.34177
 H407 H 0.18993 0.56284 0.20959
 H408 H 0.22428 0.57869 0.15359
 H409 H 0.23753 0.65368 0.17326
 H410 H 0.20352 0.63814 0.23002
 C411 C 0.45728 0.90949 0.37114
 C412 C 0.44803 0.89100 0.34743
 C413 C 0.43683 0.86926 0.31827
 C414 C 0.41341 0.86158 0.29806
 C415 C 0.40288 0.84112 0.26820
 C416 C 0.41569 0.82806 0.25807
 C417 C 0.43910 0.83574 0.27901
 C418 C 0.44959 0.85622 0.30890
 C419 C 0.40497 0.80698 0.22481
 C420 C 0.42055 0.80444 0.19241
 C421 C 0.41038 0.78517 0.16001
 C422 C 0.38454 0.76816 0.15953
 C423 C 0.36890 0.77034 0.19189
 C424 C 0.37903 0.78962 0.22435
 C425 C 0.37410 0.74889 0.12508
 C426 C 0.36573 0.73308 0.09558
 H427 H 0.40343 0.87163 0.30490
 H428 H 0.38501 0.83590 0.25216
 H429 H 0.44926 0.82588 0.27234
 H430 H 0.46772 0.86200 0.32438
 H431 H 0.44052 0.81770 0.19142
 H432 H 0.42264 0.78372 0.13498
 H433 H 0.34887 0.75725 0.19186
 H434 H 0.36660 0.79090 0.24918
 C435 C 0.45263 0.54295 0.37088
 C436 C 0.44356 0.55244 0.34706
 C437 C 0.43323 0.56392 0.31778
 C438 C 0.44931 0.58598 0.29408
 C439 C 0.43946 0.59673 0.26426
 C440 C 0.41334 0.58552 0.25768
 C441 C 0.39731 0.56348 0.28207
 C442 C 0.40721 0.55276 0.31191
 C443 C 0.40296 0.59642 0.22459
 C444 C 0.38300 0.58078 0.19534
 C445 C 0.37383 0.59103 0.16299
 C446 C 0.38443 0.61704 0.15945
 C447 C 0.40410 0.63277 0.18871
 C448 C 0.41331 0.62255 0.22109
 C449 C 0.37550 0.62749 0.12495
 C450 C 0.36800 0.63588 0.09543
 H451 H 0.46949 0.59470 0.29821
 H452 H 0.45231 0.61349 0.24553
 H453 H 0.37711 0.55458 0.27816
 H454 H 0.39460 0.53569 0.33012
 H455 H 0.37486 0.56062 0.19671
 H456 H 0.35867 0.57868 0.14036
 H457 H 0.41242 0.65293 0.18629
 H458 H 0.42848 0.63508 0.24349
   
