data_POSCAR
  _audit_creation_date              2014-09-24
  _audit_creation_method            'ToBaCCo'
  _symmetry_space_group_name_H-M    'P1'
  _symmetry_Int_Tables_number       1
  _symmetry_cell_setting            triclinic
  loop_
  _symmetry_equiv_pos_as_xyz
 x,y,z
_cell_length_a 36.3239
_cell_length_b 36.2507
_cell_length_c 19.5797
_cell_angle_alpha 90.047900
_cell_angle_beta 89.856300
_cell_angle_gamma 90.052000
loop_
  _atom_site_label
  _atom_site_type_symbol
  _atom_site_fract_x
  _atom_site_fract_y
  _atom_site_fract_z
C1 C 0.69891 0.30827 0.56336
 C2 C 0.68652 0.32220 0.50105
 C3 C 0.69901 0.30788 0.43906
 C4 C 0.72474 0.27873 0.43851
 C5 C 0.73764 0.26425 0.50147
 C6 C 0.72468 0.27906 0.56430
 C7 C 0.73783 0.26427 0.62600
 C8 C 0.76321 0.23549 0.62610
 C9 C 0.77640 0.22041 0.56451
 C10 C 0.76350 0.23492 0.50155
 C11 C 0.73787 0.26372 0.37693
 C12 C 0.76326 0.23497 0.37698
 C13 C 0.77643 0.22015 0.43866
 C14 C 0.80219 0.19095 0.43945
 C15 C 0.81462 0.17694 0.50166
 C16 C 0.80216 0.19118 0.56384
 H17 H 0.72854 0.27489 0.67479
 H18 H 0.77245 0.22511 0.67498
 H19 H 0.72859 0.27414 0.32811
 H20 H 0.77252 0.22438 0.32814
 H21 H 0.66670 0.34464 0.50066
 H22 H 0.83444 0.15447 0.50168
 C23 C 0.30127 0.69199 0.43929
 C24 C 0.31362 0.67786 0.50140
 C25 C 0.30108 0.69197 0.56355
 C26 C 0.27534 0.72113 0.56436
 C27 C 0.26251 0.73576 0.50151
 C28 C 0.27553 0.72114 0.43860
 C29 C 0.26251 0.73601 0.37697
 C30 C 0.23711 0.76478 0.37699
 C31 C 0.22387 0.77968 0.43865
 C32 C 0.23666 0.76507 0.50155
 C33 C 0.26212 0.73600 0.62603
 C34 C 0.23672 0.76478 0.62610
 C35 C 0.22363 0.77973 0.56447
 C36 C 0.19785 0.80894 0.56364
 C37 C 0.18556 0.82300 0.50136
 C38 C 0.19815 0.80882 0.43931
 H39 H 0.27188 0.72549 0.32817
 H40 H 0.22790 0.77530 0.32820
 H41 H 0.27135 0.72545 0.67479
 H42 H 0.22738 0.77527 0.67495
 H43 H 0.33345 0.65545 0.50136
 H44 H 0.16574 0.84545 0.50102
 C45 C 0.19810 0.19189 -0.44038
 C46 C 0.18551 0.17778 -0.50238
 C47 C 0.19791 0.19187 -0.56470
 C48 C 0.22379 0.22105 -0.56562
 C49 C 0.23683 0.23563 -0.50275
 C50 C 0.22393 0.22099 -0.43981
 C51 C 0.23717 0.23578 -0.37819
 C52 C 0.26267 0.26449 -0.37823
 C53 C 0.27580 0.27942 -0.43987
 C54 C 0.26280 0.26491 -0.50278
 C55 C 0.23696 0.23603 -0.62728
 C56 C 0.26246 0.26477 -0.62731
 C57 C 0.27573 0.27961 -0.56568
 C58 C 0.30161 0.30878 -0.56484
 C59 C 0.31412 0.32274 -0.50257
 C60 C 0.30164 0.30852 -0.44052
 H61 H 0.22789 0.22523 -0.32937
 H62 H 0.27203 0.27494 -0.32943
 H63 H 0.22761 0.22559 -0.67609
 H64 H 0.27173 0.27531 -0.67615
 H65 H 0.16562 0.15537 -0.50197
 H66 H 0.33403 0.34515 -0.50225
 C67 C -0.30195 0.69083 -0.43910
 C68 C -0.31425 0.67664 -0.50131
 C69 C -0.30175 0.69082 -0.56348
 C70 C -0.27608 0.72016 -0.56418
 C71 C -0.26331 0.73486 -0.50124
 C72 C -0.27628 0.72016 -0.43833
 C73 C -0.26323 0.73518 -0.37666
 C74 C -0.23794 0.76406 -0.37664
 C75 C -0.22477 0.77900 -0.43824
 C76 C -0.23754 0.76432 -0.50118
 C77 C -0.26285 0.73518 -0.62579
 C78 C -0.23755 0.76407 -0.62571
 C79 C -0.22454 0.77906 -0.56403
 C80 C -0.19884 0.80840 -0.56310
 C81 C -0.18659 0.82251 -0.50078
 C82 C -0.19913 0.80826 -0.43880
 H83 H -0.27253 0.72465 -0.32782
 H84 H -0.22875 0.77462 -0.32782
 H85 H -0.27200 0.72464 -0.67466
 H86 H -0.22824 0.77463 -0.67451
 H87 H -0.33401 0.65407 -0.50134
 H88 H -0.16683 0.84505 -0.50036
 N89 N -0.03922 0.93429 -0.07322
 N90 N -0.06400 0.90881 -0.08816
 N91 N 0.03813 0.96057 -0.11988
 N92 N 0.06301 0.95381 -0.16736
 N93 N 0.03808 0.93438 -0.07361
 N94 N 0.06281 0.90890 -0.08885
 N95 N -0.03931 0.96051 -0.11944
 N96 N -0.06426 0.95378 -0.16656
 C97 C -0.07976 0.92167 -0.14615
 C98 C 0.07850 0.92172 -0.14711
 N99 N 0.03801 1.06608 -0.07357
 N100 N 0.06277 1.09155 -0.08876
 N101 N -0.03935 1.03975 -0.11945
 N102 N -0.06416 1.04652 -0.16679
 N103 N -0.03930 1.06599 -0.07318
 N104 N -0.06394 1.09151 -0.08831
 N105 N 0.03808 1.03982 -0.11981
 N106 N 0.06302 1.04652 -0.16719
 Mn107 Mn -0.00061 1.00016 -0.12016
 C108 C 0.07852 1.07865 -0.14693
 C109 C -0.07961 1.07866 -0.14647
 N110 N 0.03811 0.93444 0.07416
 N111 N 0.06290 0.90903 0.08907
 N112 N -0.03927 0.96053 0.12087
 N113 N -0.06413 0.95372 0.16835
 N114 N -0.03920 0.93432 0.07455
 N115 N -0.06389 0.90878 0.08976
 N116 N 0.03818 0.96069 0.12041
 N117 N 0.06313 0.95404 0.16753
 Mn118 Mn -0.00056 0.93393 0.00047
 C119 C 0.07864 0.92196 0.14709
 C120 C -0.07959 0.92157 0.14805
 N121 N -0.03927 1.06602 0.07465
 N122 N -0.06400 1.09147 0.08997
 N123 N 0.03813 1.03995 0.12049
 N124 N 0.06303 1.04678 0.16769
 N125 N 0.03804 1.06615 0.07421
 N126 N 0.06275 1.09169 0.08917
 N127 N -0.03931 1.03979 0.12087
 N128 N -0.06419 1.04648 0.16834
 Mn129 Mn -0.00063 1.06648 0.00053
 Mn130 Mn -0.00057 1.00024 0.12117
 Cl131 Cl -0.00059 1.00021 0.00051
 C132 C -0.07970 1.07858 0.14818
 C133 C 0.07848 1.07891 0.14726
 N134 N 0.53963 0.56560 -0.07415
 N135 N 0.56431 0.59114 -0.08951
 N136 N 0.46222 0.53952 -0.12025
 N137 N 0.43722 0.54623 -0.16727
 N138 N 0.46232 0.56570 -0.07387
 N139 N 0.43750 0.59112 -0.08856
 N140 N 0.53966 0.53937 -0.12043
 N141 N 0.56449 0.54614 -0.16798
 C142 C 0.57997 0.57828 -0.14780
 C143 C 0.42172 0.57829 -0.14661
 N144 N 0.46199 0.43402 -0.07430
 N145 N 0.43724 0.40855 -0.08952
 N146 N 0.53946 0.46012 -0.12058
 N147 N 0.56444 0.45337 -0.16787
 N148 N 0.53930 0.43390 -0.07435
 N149 N 0.56404 0.40842 -0.08943
 N150 N 0.46202 0.46027 -0.12046
 N151 N 0.43719 0.45358 -0.16782
 Mn152 Mn 0.50084 0.49982 -0.12095
 C153 C 0.42162 0.42146 -0.14763
 C154 C 0.57986 0.42126 -0.14755
 N155 N 0.46221 0.56569 0.07385
 N156 N 0.43752 0.59121 0.08903
 N157 N 0.53947 0.53933 0.11991
 N158 N 0.56434 0.54604 0.16720
 N159 N 0.53952 0.56555 0.07367
 N160 N 0.56431 0.59099 0.08875
 N161 N 0.46202 0.53946 0.12005
 N162 N 0.43709 0.54622 0.16740
 Mn163 Mn 0.50093 0.56606 -0.00013
 C164 C 0.42170 0.57837 0.14717
 C165 C 0.57993 0.57812 0.14687
 N166 N 0.53916 0.43386 0.07344
 N167 N 0.56380 0.40832 0.08851
 N168 N 0.46180 0.46019 0.11983
 N169 N 0.43678 0.45351 0.16707
 N170 N 0.46185 0.43400 0.07348
 N171 N 0.43697 0.40859 0.08841
 N172 N 0.53925 0.46008 0.11974
 N173 N 0.56407 0.45329 0.16704
 Mn174 Mn 0.50057 0.43352 -0.00043
 Mn175 Mn 0.50063 0.49976 0.12040
 Cl176 Cl 0.50075 0.49979 -0.00027
 C177 C 0.57949 0.42115 0.14667
 C178 C 0.42119 0.42146 0.14657
 C179 C 0.34832 0.36113 0.27751
 C180 C 0.36337 0.34384 0.21985
 C181 C 0.38586 0.36386 0.17489
 C182 C 0.31558 0.32452 0.37718
 C183 C 0.37733 0.41860 0.24435
 C184 C 0.35478 0.39869 0.28879
 C185 C 0.32957 0.34022 0.32944
 C186 C 0.39376 0.40121 0.18785
 H187 H 0.35878 0.31470 0.21094
 H188 H 0.39825 0.34980 0.13178
 H189 H 0.38279 0.44736 0.25542
 H190 H 0.34347 0.41230 0.33344
 C191 C -0.15203 0.86092 0.27945
 C192 C -0.13709 0.84373 0.22156
 C193 C -0.11472 0.86385 0.17653
 C194 C -0.18482 0.82418 0.37896
 C195 C -0.12311 0.91845 0.24638
 C196 C -0.14554 0.89845 0.29090
 C197 C -0.17079 0.83993 0.33131
 C198 C -0.10683 0.90119 0.18960
 H199 H -0.14171 0.81461 0.21249
 H200 H -0.10245 0.84987 0.13321
 H201 H -0.11765 0.94721 0.25757
 H202 H -0.15676 0.91199 0.33571
 C203 C 0.65216 0.63851 0.27843
 C204 C 0.64580 0.60092 0.28938
 C205 C 0.62348 0.58099 0.24473
 C206 C 0.68447 0.67509 0.37843
 C207 C 0.61498 0.63580 0.17570
 C208 C 0.63724 0.65584 0.22087
 C209 C 0.67067 0.65941 0.33057
 C210 C 0.60717 0.59841 0.18833
 H211 H 0.65702 0.58728 0.33394
 H212 H 0.61808 0.55219 0.25556
 H213 H 0.60268 0.64988 0.13268
 H214 H 0.64176 0.68501 0.21221
 C215 C 0.15104 1.13954 0.27799
 C216 C 0.13601 1.15676 0.22041
 C217 C 0.11360 1.13666 0.17557
 C218 C 0.18387 1.17620 0.37737
 C219 C 0.12215 1.08200 0.24497
 C220 C 0.14461 1.10199 0.28929
 C221 C 0.16982 1.16050 0.32975
 C222 C 0.10576 1.09930 0.18853
 H223 H 0.14057 1.18589 0.21146
 H224 H 0.10125 1.15065 0.13251
 H225 H 0.11673 1.05323 0.25606
 H226 H 0.15591 1.08843 0.33387
 C227 C 0.65236 0.36078 -0.27891
 C228 C 0.64608 0.39835 -0.28999
 C229 C 0.62366 0.41831 -0.24542
 C230 C 0.68496 0.32409 -0.37869
 C231 C 0.61489 0.36357 -0.17621
 C232 C 0.63726 0.34350 -0.22130
 C233 C 0.67102 0.33984 -0.33094
 C234 C 0.60717 0.40094 -0.18897
 H235 H 0.65744 0.41195 -0.33460
 H236 H 0.61833 0.44710 -0.25635
 H237 H 0.60246 0.34952 -0.13314
 H238 H 0.64172 0.31434 -0.21253
 C239 C 0.15099 0.86127 -0.27868
 C240 C 0.14452 0.89880 -0.28995
 C241 C 0.12208 0.91874 -0.24536
 C242 C 0.18381 0.82465 -0.37836
 C243 C 0.11365 0.86408 -0.17580
 C244 C 0.13603 0.84402 -0.22091
 C245 C 0.16976 0.84035 -0.33063
 C246 C 0.10576 0.90141 -0.18869
 H247 H 0.15576 0.91238 -0.33467
 H248 H 0.11662 0.94749 -0.25641
 H249 H 0.10135 0.85005 -0.13257
 H250 H 0.14064 0.81491 -0.21198
 C251 C 0.34876 0.63866 -0.27643
 C252 C 0.35532 0.60117 -0.28812
 C253 C 0.37792 0.58124 -0.24407
 C254 C 0.31579 0.67540 -0.37527
 C255 C 0.38631 0.63583 -0.17421
 C256 C 0.36378 0.65587 -0.21876
 C257 C 0.32989 0.65962 -0.32792
 C258 C 0.39430 0.59855 -0.18755
 H259 H 0.34403 0.58762 -0.33278
 H260 H 0.38344 0.55252 -0.25544
 H261 H 0.39866 0.64983 -0.13107
 H262 H 0.35910 0.68496 -0.20953
 C263 C -0.15158 1.13913 -0.27814
 C264 C -0.14536 1.10151 -0.28906
 C265 C -0.12311 1.08158 -0.24440
 C266 C -0.18398 1.17559 -0.37807
 C267 C -0.11438 1.13644 -0.17542
 C268 C -0.13657 1.15648 -0.22060
 C269 C -0.17012 1.15999 -0.33023
 C270 C -0.10673 1.09901 -0.18800
 H271 H -0.15665 1.08784 -0.33360
 H272 H -0.11784 1.05275 -0.25521
 H273 H -0.10202 1.15053 -0.13240
 H274 H -0.14098 1.18566 -0.21194
 C275 C 0.65180 0.63871 -0.28059
 C276 C 0.63677 0.65614 -0.22304
 C277 C 0.61464 0.63612 -0.17745
 C278 C 0.68412 0.67513 -0.38101
 C279 C 0.62350 0.58113 -0.24607
 C280 C 0.64569 0.60104 -0.29113
 C281 C 0.67027 0.65952 -0.33302
 C282 C 0.60709 0.59863 -0.18966
 H283 H 0.64111 0.68536 -0.21467
 H284 H 0.60225 0.65027 -0.13444
 H285 H 0.61830 0.55225 -0.25658
 H286 H 0.65700 0.58731 -0.33566
 C287 C 0.15083 1.13888 -0.27899
 C288 C 0.13577 1.15631 -0.22148
 C289 C 0.11347 1.13634 -0.17613
 C290 C 0.18342 1.17536 -0.37897
 C291 C 0.12225 1.08138 -0.24488
 C292 C 0.14460 1.10125 -0.28972
 C293 C 0.16945 1.15969 -0.33121
 C294 C 0.10579 1.09890 -0.18853
 H295 H 0.14021 1.18551 -0.21299
 H296 H 0.10106 1.15050 -0.13315
 H297 H 0.11695 1.05254 -0.25553
 H298 H 0.15594 1.08752 -0.33422
 C299 C 0.34930 0.36132 -0.27948
 C300 C 0.35574 0.39891 -0.29028
 C301 C 0.37811 0.41873 -0.24556
 C302 C 0.31646 0.32494 -0.37917
 C303 C 0.38653 0.36383 -0.17677
 C304 C 0.36422 0.34389 -0.22201
 C305 C 0.33055 0.34055 -0.33152
 C306 C 0.39439 0.40123 -0.18922
 H307 H 0.34451 0.41263 -0.33474
 H308 H 0.38354 0.44754 -0.25626
 H309 H 0.39881 0.34968 -0.13381
 H310 H 0.35962 0.31473 -0.21344
 C311 C -0.15207 0.86134 -0.27756
 C312 C -0.14590 0.89898 -0.28825
 C313 C -0.12355 0.91888 -0.24361
 C314 C -0.18455 0.82480 -0.37740
 C315 C -0.11469 0.86394 -0.17508
 C316 C -0.13697 0.84393 -0.22025
 C317 C -0.17065 0.84049 -0.32968
 C318 C -0.10705 0.90139 -0.18748
 H319 H -0.15726 0.91268 -0.33261
 H320 H -0.11829 0.94772 -0.25424
 H321 H -0.10223 0.84981 -0.13228
 H322 H -0.14136 0.81473 -0.21179
 C323 C 0.34914 0.63880 0.27859
 C324 C 0.36421 0.65608 0.22095
 C325 C 0.38662 0.63604 0.17588
 C326 C 0.31614 0.67544 0.37800
 C327 C 0.37799 0.58132 0.24519
 C328 C 0.35553 0.60125 0.28975
 C329 C 0.33030 0.65970 0.33046
 C330 C 0.39442 0.59869 0.18867
 H331 H 0.35966 0.68522 0.21210
 H332 H 0.39901 0.65009 0.13276
 H333 H 0.38338 0.55255 0.25616
 H334 H 0.34419 0.58764 0.33436
 C335 C -0.15167 1.13880 0.28086
 C336 C -0.14558 1.10114 0.29129
 C337 C -0.12335 1.08128 0.24624
 C338 C -0.18393 1.17521 0.38137
 C339 C -0.11445 1.13630 0.17783
 C340 C -0.13661 1.15627 0.22341
 C341 C -0.17012 1.15959 0.33335
 C342 C -0.10689 1.09883 0.18996
 H343 H -0.15692 1.08739 0.33575
 H344 H -0.11815 1.05242 0.25667
 H345 H -0.10201 1.15048 0.13492
 H346 H -0.14094 1.18549 0.21515
 C347 C 0.65163 0.36076 0.27809
 C348 C 0.63659 0.34339 0.22060
 C349 C 0.61433 0.36341 0.17549
 C350 C 0.68431 0.32429 0.37767
 C351 C 0.62306 0.41827 0.24448
 C352 C 0.64538 0.39837 0.28906
 C353 C 0.67030 0.33993 0.33005
 C354 C 0.60666 0.40083 0.18812
 H355 H 0.64104 0.31422 0.21191
 H356 H 0.60196 0.34930 0.13251
 H357 H 0.61778 0.44709 0.25530
 H358 H 0.65670 0.41205 0.33355
 C359 C 0.15100 0.86180 0.27831
 C360 C 0.14474 0.89941 0.28920
 C361 C 0.12237 0.91926 0.24464
 C362 C 0.18354 0.82532 0.37797
 C363 C 0.11365 0.86434 0.17580
 C364 C 0.13596 0.84438 0.22088
 C365 C 0.16961 0.84099 0.33032
 C366 C 0.10593 0.90175 0.18839
 H367 H 0.15606 0.91312 0.33366
 H368 H 0.11705 0.94807 0.25543
 H369 H 0.10125 0.85018 0.13289
 H370 H 0.14041 0.81520 0.21226
   
