data_POSCAR
  _audit_creation_date              2014-09-24
  _audit_creation_method            'ToBaCCo'
  _symmetry_space_group_name_H-M    'P1'
  _symmetry_Int_Tables_number       1
  _symmetry_cell_setting            triclinic
  loop_
  _symmetry_equiv_pos_as_xyz
 x,y,z
_cell_length_a 33.3304
_cell_length_b 32.7530
_cell_length_c 33.2267
_cell_angle_alpha 89.237200
_cell_angle_beta 89.506500
_cell_angle_gamma 90.056200
loop_
  _atom_site_label
  _atom_site_type_symbol
  _atom_site_fract_x
  _atom_site_fract_y
  _atom_site_fract_z
C1 C 0.59209 0.65227 0.62497
 N2 N 0.59232 0.62328 0.65459
 C3 C 0.62133 0.59415 0.65556
 N4 N 0.65041 0.59444 0.62661
 C5 C 0.65048 0.62323 0.59682
 N6 N 0.62133 0.65217 0.59625
 C7 C 0.90734 0.34914 0.12485
 N8 N 0.90701 0.37783 0.15403
 C9 C 0.87803 0.40696 0.15492
 N10 N 0.84902 0.40713 0.12646
 C11 C 0.84896 0.37861 0.09716
 N12 N 0.87807 0.34964 0.09662
 C13 C 0.40512 0.15326 -0.12732
 N14 N 0.40442 0.12459 -0.15646
 C15 C 0.37459 0.09633 -0.15726
 N16 N 0.34529 0.09693 -0.12861
 C17 C 0.34575 0.12536 -0.09922
 N18 N 0.37571 0.15347 -0.09876
 C19 C 0.09988 0.84019 0.36829
 N20 N 0.12830 0.83970 0.39739
 C21 C 0.15778 0.86836 0.39756
 N22 N 0.15852 0.89794 0.36854
 C23 C 0.13034 0.89886 0.33922
 N24 N 0.10101 0.87000 0.33944
 N25 N 0.07897 0.19413 0.11014
 N26 N 0.06337 0.17639 0.14235
 C27 C 0.03095 0.19767 0.15435
 C28 C 0.02596 0.23055 0.12822
 C29 C 0.05694 0.22719 0.10049
 H30 H 0.01209 0.18939 0.17975
 H31 H 0.06271 0.24727 0.07499
 Cu32 Cu 0.08642 0.12665 0.16482
 Cu33 Cu 0.12630 0.17276 0.08287
 Cu34 Cu 0.16790 0.08403 0.12256
 N35 N 0.10995 0.07692 0.18678
 N36 N 0.14195 0.06050 0.17026
 C37 C 0.15228 0.02696 0.19158
 C38 C 0.12520 0.02188 0.22305
 C39 C 0.09877 0.05427 0.21910
 H40 H 0.17771 0.00764 0.18491
 H41 H 0.07361 0.06123 0.23849
 N42 N 0.18976 0.11246 0.07451
 N43 N 0.17417 0.14642 0.05963
 C44 C 0.19578 0.15837 0.02711
 C45 C 0.22647 0.13059 0.02120
 C46 C 0.22158 0.10186 0.05171
 H47 H 0.18927 0.18504 0.00887
 H48 H 0.24002 0.07516 0.05670
 H49 H 0.11744 0.11243 0.09979
 H50 H 0.15040 0.14356 0.13263
 N51 N 0.41866 0.80873 0.60952
 N52 N 0.43284 0.82497 0.64244
 C53 C 0.46515 0.80356 0.65450
 C54 C 0.47156 0.77216 0.62768
 C55 C 0.44151 0.77651 0.59949
 H56 H 0.48285 0.81068 0.68055
 H57 H 0.43683 0.75759 0.57352
 Cu58 Cu 0.40819 0.87292 0.66611
 Cu59 Cu 0.37187 0.83072 0.58203
 Cu60 Cu 0.32823 0.91713 0.62262
 N61 N 0.38398 0.92209 0.68775
 N62 N 0.35252 0.93900 0.67081
 C63 C 0.34179 0.97225 0.69168
 C64 C 0.36798 0.97648 0.72348
 C65 C 0.39445 0.94419 0.71990
 H66 H 0.31703 0.99200 0.68387
 H67 H 0.41947 0.93754 0.73940
 N68 N 0.30795 0.89056 0.57402
 N69 N 0.32435 0.85752 0.55866
 C70 C 0.30341 0.84663 0.52599
 C71 C 0.27252 0.87423 0.52036
 C72 C 0.27629 0.90162 0.55147
 H73 H 0.30994 0.82052 0.50749
 H74 H 0.25723 0.92745 0.55761
 H75 H 0.37995 0.89010 0.60062
 H76 H 0.34572 0.85716 0.63183
 N77 N 0.92350 0.68944 0.39341
 N78 N 0.93910 0.67263 0.36118
 C79 C 0.97226 0.69359 0.35004
 C80 C 0.97784 0.72507 0.37682
 C81 C 0.94620 0.72150 0.40393
 H82 H 0.99102 0.68680 0.32428
 H83 H 0.93968 0.74094 0.42914
 Cu84 Cu 0.91421 0.62522 0.33698
 Cu85 Cu 0.87455 0.66912 0.41906
 Cu86 Cu 0.82967 0.58469 0.37650
 N87 N 0.88870 0.57783 0.31338
 N88 N 0.85555 0.56230 0.32890
 C89 C 0.84423 0.53003 0.30706
 C90 C 0.87179 0.52498 0.27609
 C91 C 0.89963 0.55582 0.28115
 H92 H 0.81806 0.51156 0.31360
 H93 H 0.92589 0.56154 0.26259
 N94 N 0.80806 0.61173 0.42467
 N95 N 0.82494 0.64410 0.44064
 C96 C 0.80325 0.65547 0.47298
 C97 C 0.77112 0.62896 0.47763
 C98 C 0.77528 0.60156 0.44659
 H99 H 0.81071 0.68077 0.49202
 H100 H 0.75574 0.57600 0.44068
 H101 H 0.88092 0.60932 0.40094
 H102 H 0.85034 0.64368 0.36808
 N103 N 0.58011 0.30846 -0.10415
 N104 N 0.56518 0.32471 -0.13714
 C105 C 0.53289 0.30290 -0.14809
 C106 C 0.52715 0.27145 -0.12042
 C107 C 0.55781 0.27590 -0.09294
 H108 H 0.51472 0.30920 -0.17425
 H109 H 0.56386 0.25680 -0.06696
 Cu110 Cu 0.58946 0.37273 -0.16246
 Cu111 Cu 0.62764 0.33025 -0.07842
 Cu112 Cu 0.67069 0.41670 -0.12192
 N113 N 0.61335 0.42190 -0.18587
 N114 N 0.64526 0.43873 -0.17005
 C115 C 0.65571 0.47193 -0.19204
 C116 C 0.62887 0.47622 -0.22340
 C117 C 0.60233 0.44401 -0.21839
 H118 H 0.68077 0.49154 -0.18532
 H119 H 0.57690 0.43737 -0.23722
 N120 N 0.69202 0.38987 -0.07319
 N121 N 0.67581 0.35676 -0.05684
 C122 C 0.69728 0.34557 -0.02436
 C123 C 0.72854 0.37298 -0.02002
 C124 C 0.72411 0.40070 -0.05140
 H125 H 0.69037 0.31960 -0.00519
 H126 H 0.74314 0.42679 -0.05777
 H127 H 0.61944 0.38980 -0.09817
 H128 H 0.65279 0.35691 -0.12946
 C129 C -0.06243 0.31821 0.12507
 C130 C -0.01949 0.33550 0.12481
 C131 C 0.00959 0.30637 0.12649
 C132 C -0.00667 0.26244 0.12798
 C133 C -0.03560 0.26148 0.16438
 C134 C -0.06469 0.29057 0.16277
 C135 C -0.06308 0.28842 0.08947
 C136 C -0.03394 0.25939 0.09112
 H137 H -0.01251 0.36789 0.12343
 H138 H 0.04131 0.31393 0.12670
 H139 H -0.03349 0.24031 0.18961
 H140 H -0.08718 0.29371 0.18637
 H141 H -0.08434 0.28985 0.06492
 H142 H -0.03060 0.23627 0.06821
 C143 C 0.56015 0.68476 0.62511
 C144 C 0.56172 0.71156 0.66263
 C145 C 0.53259 0.74061 0.66406
 C146 C 0.50431 0.74038 0.62762
 C147 C 0.53230 0.74421 0.59078
 C148 C 0.56149 0.71521 0.58938
 C149 C 0.51731 0.66740 0.62495
 C150 C 0.48814 0.69644 0.62638
 H151 H 0.58384 0.70790 0.68620
 H152 H 0.53011 0.76132 0.68911
 H153 H 0.52942 0.76783 0.56775
 H154 H 0.58334 0.71422 0.56501
 H155 H 0.51050 0.63501 0.62386
 H156 H 0.45644 0.68882 0.62663
 C157 C 1.06815 0.81080 0.36971
 C158 C 1.08306 0.76636 0.37090
 C159 C 1.05307 0.73817 0.37384
 C160 C 1.01074 0.75674 0.37506
 C161 C 1.01168 0.78670 0.41038
 C162 C 1.04161 0.81488 0.40750
 C163 C 1.03848 0.81235 0.33431
 C164 C 1.00858 0.78410 0.33724
 H165 H 1.11449 0.75776 0.36953
 H166 H 1.05896 0.70559 0.37511
 H167 H 0.99110 0.78596 0.43580
 H168 H 1.04605 0.83794 0.43023
 H169 H 1.04063 0.83352 0.30897
 H170 H 0.98545 0.78144 0.31461
 C171 C 0.43824 0.18451 -0.12598
 C172 C 0.42278 0.22869 -0.12641
 C173 C 0.45230 0.25728 -0.12396
 C174 C 0.49479 0.23926 -0.12155
 C175 C 0.49307 0.20950 -0.08526
 C176 C 0.46353 0.18093 -0.08769
 C177 C 0.46898 0.18304 -0.16083
 C178 C 0.49846 0.21167 -0.15843
 H179 H 0.39127 0.23679 -0.12840
 H180 H 0.44597 0.28978 -0.12374
 H181 H 0.51285 0.21065 -0.05959
 H182 H 0.45851 0.15794 -0.06434
 H183 H 0.46784 0.16150 -0.18533
 H184 H 0.52233 0.21438 -0.18075
 C185 C 0.12982 -0.06914 0.30955
 C186 C 0.09245 -0.04194 0.31324
 C187 C 0.09039 -0.01177 0.28480
 C188 C 0.12606 -0.01126 0.25501
 C189 C 0.16340 -0.00893 0.28166
 C190 C 0.16549 -0.03907 0.31017
 C191 C 0.12909 -0.08476 0.26611
 C192 C 0.12697 -0.05453 0.23766
 H193 H 0.06938 -0.04614 0.33622
 H194 H 0.06533 0.00924 0.28377
 H195 H 0.18631 0.01449 0.27836
 H196 H 0.19042 -0.04115 0.33091
 H197 H 0.13015 -0.11684 0.25833
 H198 H 0.12608 -0.06086 0.20569
 C199 C 0.62252 0.56414 -0.31283
 C200 C 0.65997 0.56816 -0.28648
 C201 C 0.66259 0.53930 -0.25679
 C202 C 0.62739 0.50878 -0.25591
 C203 C 0.58965 0.53551 -0.25311
 C204 C 0.58698 0.56445 -0.28275
 C205 C 0.62386 0.52010 -0.32829
 C206 C 0.62657 0.49124 -0.29857
 H207 H 0.68262 0.59171 -0.29084
 H208 H 0.68770 0.53846 -0.23630
 H209 H 0.56692 0.53196 -0.22972
 H210 H 0.56176 0.58532 -0.28443
 H211 H 0.62276 0.51222 -0.35991
 H212 H 0.62793 0.45883 -0.30488
 C213 C 0.37335 1.06464 0.81035
 C214 C 0.33626 1.06862 0.78350
 C215 C 0.33392 1.03967 0.75458
 C216 C 0.36906 1.00915 0.75504
 C217 C 0.40689 1.03587 0.75195
 C218 C 0.40921 1.06490 0.78079
 C219 C 0.37166 1.02072 0.82711
 C220 C 0.36928 0.99174 0.79823
 H221 H 0.31364 1.09216 0.78703
 H222 H 0.30903 1.03872 0.73385
 H223 H 0.42989 1.03232 0.72892
 H224 H 0.43433 1.08592 0.78223
 H225 H 0.37221 1.01306 0.85899
 H226 H 0.36767 0.95936 0.80549
 C227 C 0.87693 0.43822 0.18775
 C228 C 0.83904 0.43484 0.21422
 C229 C 0.83677 0.46334 0.24358
 C230 C 0.87278 0.49286 0.24396
 C231 C 0.90974 0.46502 0.24695
 C232 C 0.91198 0.43645 0.21763
 C233 C 0.87693 0.48243 0.17170
 C234 C 0.87466 0.51097 0.20106
 H235 H 0.81588 0.41197 0.21014
 H236 H 0.81143 0.46453 0.26418
 H237 H 0.93222 0.46752 0.27024
 H238 H 0.93653 0.41477 0.21604
 H239 H 0.87855 0.49059 0.13996
 H240 H 0.87421 0.54350 0.19435
 C241 C 0.31334 0.12632 -0.06739
 C242 C 0.32978 0.12417 -0.02436
 C243 C 0.30094 0.12625 0.00480
 C244 C 0.25808 0.13000 -0.01156
 C245 C 0.25951 0.16772 -0.03975
 C246 C 0.28838 0.16569 -0.06888
 C247 C 0.28222 0.09158 -0.06901
 C248 C 0.25342 0.09358 -0.03980
 H249 H 0.36144 0.12135 -0.01740
 H250 H 0.30801 0.12533 0.03664
 H251 H 0.24007 0.19406 -0.03710
 H252 H 0.29317 0.19003 -0.09091
 H253 H 0.28263 0.06742 -0.09104
 H254 H 0.22940 0.07127 -0.03711
 C255 C 0.68312 0.62422 0.56520
 C256 C 0.66706 0.62414 0.52199
 C257 C 0.69628 0.62634 0.49313
 C258 C 0.73906 0.62815 0.50996
 C259 C 0.73853 0.66489 0.53845
 C260 C 0.70930 0.66273 0.56726
 C261 C 0.71308 0.58847 0.56683
 C262 C 0.74224 0.59059 0.53794
 H263 H 0.63542 0.62257 0.51470
 H264 H 0.68953 0.62679 0.46122
 H265 H 0.75874 0.69076 0.53614
 H266 H 0.70503 0.68647 0.58939
 H267 H 0.71161 0.56351 0.58861
 H268 H 0.76552 0.56761 0.53526
 C269 C 0.81633 0.37776 0.06612
 C270 C 0.78622 0.41337 0.06749
 C271 C 0.75709 0.41126 0.03910
 C272 C 0.76047 0.37385 0.01187
 C273 C 0.80327 0.37596 -0.00568
 C274 C 0.83243 0.37815 0.02265
 C275 C 0.79031 0.33913 0.06943
 C276 C 0.76113 0.33698 0.04114
 H277 H 0.78756 0.43821 0.08873
 H278 H 0.73370 0.43414 0.03632
 H279 H 0.81006 0.37573 -0.03769
 H280 H 0.86408 0.37992 0.01482
 H281 H 0.79460 0.31534 0.09205
 H282 H 0.74096 0.31108 0.03982
 C283 C 0.18826 0.86917 0.43073
 C284 C 0.23187 0.86940 0.41532
 C285 C 0.25961 0.87163 0.44507
 C286 C 0.24137 0.87320 0.48769
 C287 C 0.21233 0.90975 0.48628
 C288 C 0.18465 0.90753 0.45655
 C289 C 0.18626 0.83328 0.46112
 C290 C 0.21405 0.83546 0.49082
 H291 H 0.24020 0.86797 0.38371
 H292 H 0.29163 0.87224 0.43883
 H293 H 0.21335 0.93552 0.50635
 H294 H 0.16227 0.93112 0.45172
 H295 H 0.16506 0.80820 0.45952
 H296 H 0.21635 0.81240 0.51446
   
