data_POSCAR
  _audit_creation_date              2014-09-24
  _audit_creation_method            'ToBaCCo'
  _symmetry_space_group_name_H-M    'P1'
  _symmetry_Int_Tables_number       1
  _symmetry_cell_setting            triclinic
  loop_
  _symmetry_equiv_pos_as_xyz
 x,y,z
_cell_length_a 27.4764
_cell_length_b 28.0251
_cell_length_c 27.3465
_cell_angle_alpha 89.964700
_cell_angle_beta 90.029800
_cell_angle_gamma 89.907500
loop_
  _atom_site_label
  _atom_site_type_symbol
  _atom_site_fract_x
  _atom_site_fract_y
  _atom_site_fract_z
C1 C 0.16152 0.16057 0.21191
 N2 N 0.14560 0.20478 0.19878
 C3 C 0.16710 0.22830 0.16103
 N4 N 0.20474 0.20751 0.13702
 C5 C 0.22162 0.16386 0.14959
 N6 N 0.19969 0.14107 0.18748
 C7 C -0.15986 0.82994 0.22933
 N8 N -0.14255 0.78948 0.20842
 C9 C -0.16287 0.77153 0.16717
 N10 N -0.20000 0.79548 0.14520
 C11 C -0.21694 0.83717 0.16425
 N12 N -0.19684 0.85353 0.20652
 C13 C -0.16285 0.16277 -0.22655
 N14 N -0.20409 0.14352 -0.20728
 C15 C -0.22743 0.16544 -0.16929
 N16 N -0.20778 0.20590 -0.15038
 C17 C -0.16759 0.22593 -0.17019
 N18 N -0.14519 0.20419 -0.20815
 C19 C 0.16408 0.83341 -0.22064
 N20 N 0.14810 0.79227 -0.20075
 C21 C 0.16771 0.77398 -0.15936
 N22 N 0.20588 0.79640 -0.13785
 C23 C 0.22331 0.83780 -0.15733
 N24 N 0.20234 0.85537 -0.19870
 C25 C 0.17125 1.16816 0.77269
 N26 N 0.14796 1.20525 0.79442
 C27 C 0.16289 1.22346 0.83800
 N28 N 0.20372 1.20492 0.85921
 C29 C 0.22749 1.16760 0.83804
 N30 N 0.21026 1.14872 0.79571
 C31 C 0.84613 0.84237 0.77759
 N32 N 0.86452 0.80056 0.79542
 C33 C 0.84106 0.77713 0.83205
 N34 N 0.79823 0.79437 0.84914
 C35 C 0.77874 0.83490 0.83075
 N36 N 0.80315 0.85902 0.79553
 C37 C 0.16822 0.82758 1.22400
 N38 N 0.14546 0.78938 1.20388
 C39 C 0.16299 0.76748 1.16330
 N40 N 0.20251 0.78681 1.14061
 C41 C 0.22555 0.82549 1.15969
 N42 N 0.20801 0.84570 1.20121
 C43 C 0.84924 1.15985 1.21637
 N44 N 0.80806 1.13989 1.19790
 C45 C 0.78240 1.16211 1.16192
 N46 N 0.79819 1.20453 1.14377
 C47 C 0.83819 1.22595 1.16315
 N48 N 0.86294 1.20302 1.19903
 O49 O 0.43395 1.08549 1.08446
 O50 O 0.38116 1.03903 1.04013
 C51 C 0.39062 1.07294 1.07075
 O52 O 0.57258 1.08243 0.91534
 O53 O 0.62590 1.03708 0.96058
 C54 C 0.61613 1.06967 0.92818
 O55 O 0.43621 1.08521 0.91668
 O56 O 0.38191 1.03928 0.95955
 C57 C 0.39219 1.07234 0.92794
 O58 O 0.57010 1.08038 1.09187
 O59 O 0.62419 1.03754 1.04529
 C60 C 0.61400 1.06848 1.07914
 Zr61 Zr 0.50242 1.05699 1.06373
 O62 O 0.50835 1.13227 1.06573
 O63 O 0.49573 1.05554 1.14075
 Zr64 Zr 0.50430 1.05738 0.93983
 O65 O 0.50873 1.13271 0.93708
 O66 O 0.50229 1.05402 0.86250
 O67 O 0.46024 1.06690 1.00110
 O68 O 0.54532 1.06566 1.00245
 O69 O 0.57093 0.91245 1.09075
 O70 O 0.62476 0.95717 1.04559
 C71 C 0.61475 0.92560 1.07878
 O72 O 0.43517 0.91108 0.91477
 O73 O 0.38193 0.95765 0.95849
 C74 C 0.39159 0.92487 0.92664
 O75 O 0.57193 0.91207 0.91454
 O76 O 0.62528 0.95565 0.96118
 C77 C 0.61556 0.92355 0.92841
 O78 O 0.43363 0.90763 1.08237
 O79 O 0.38063 0.95539 1.03947
 C80 C 0.39001 0.92042 1.06914
 Zr81 Zr 0.50246 0.93683 1.06365
 O82 O 0.50505 0.86176 1.07072
 O83 O 0.49872 0.94364 1.14047
 Zr84 Zr 0.50362 0.93693 0.93964
 O85 O 0.50559 0.86144 0.93890
 O86 O 0.50037 0.93860 0.86228
 Zr87 Zr 0.43100 0.99742 1.00065
 Zr88 Zr 0.57579 0.99678 1.00247
 O89 O 0.54514 0.92792 1.00217
 O90 O 0.45992 0.92768 1.00103
 O91 O 0.54607 0.99675 1.07360
 O92 O 0.46190 0.99754 0.93027
 O93 O 0.45956 0.99690 1.07204
 O94 O 0.54783 0.99691 0.93071
 H95 H 0.56680 1.09386 1.00324
 H96 H 0.44060 0.99804 0.90111
 H97 H 0.56668 0.89956 1.00272
 H98 H 0.43643 0.99674 1.09984
 H99 H 0.53263 1.03852 0.85118
 H100 H 0.52945 0.95588 0.85047
 H101 H 0.47838 0.84982 0.95940
 H102 H 0.50686 0.84867 1.03728
 H103 H 0.49784 0.91068 1.15353
 H104 H 0.51754 1.03006 1.15278
 H105 H 0.48396 1.14534 1.04274
 H106 H 0.48446 1.14543 0.96037
 O107 O -0.08636 0.56367 0.08819
 O108 O -0.04278 0.61711 0.04200
 C109 C -0.07441 0.60680 0.07560
 O110 O 0.08967 0.43185 0.07745
 O111 O 0.04165 0.37925 0.03486
 C112 C 0.07660 0.38900 0.06519
 O113 O 0.08218 0.56561 0.08472
 O114 O 0.03794 0.61822 0.03796
 C115 C 0.06927 0.60846 0.07186
 O116 O -0.08776 0.43001 0.08419
 O117 O -0.04313 0.37822 0.03686
 C118 C -0.07504 0.38745 0.07056
 Zr119 Zr -0.06272 0.49717 0.05963
 O120 O -0.06027 0.49178 0.13683
 O121 O -0.13966 0.49978 0.06117
 Zr122 Zr 0.06018 0.49844 0.05638
 O123 O 0.06241 0.49143 0.13345
 O124 O 0.13687 0.50397 0.05490
 O125 O -0.00151 0.54021 0.06832
 O126 O -0.00050 0.45629 0.06615
 O127 O -0.09112 0.43225 -0.08997
 O128 O -0.04462 0.37941 -0.04595
 C129 C -0.07756 0.38928 -0.07847
 O130 O 0.08115 0.56788 -0.09250
 O131 O 0.03571 0.61871 -0.04516
 C132 C 0.06761 0.61038 -0.07904
 O133 O 0.08543 0.43267 -0.09120
 O134 O 0.03905 0.37979 -0.04709
 C135 C 0.07229 0.38963 -0.07911
 O136 O -0.09012 0.56589 -0.09128
 O137 O -0.04710 0.61743 -0.04256
 C138 C -0.07898 0.60846 -0.07634
 Zr139 Zr -0.06608 0.49907 -0.06378
 O140 O -0.07436 0.49949 -0.14054
 O141 O -0.14278 0.50254 -0.05622
 Zr142 Zr 0.05738 0.49979 -0.06722
 O143 O 0.05323 0.49727 -0.14455
 O144 O 0.13439 0.49797 -0.07175
 Zr145 Zr -0.00356 0.56946 -0.00267
 Zr146 Zr -0.00229 0.42751 -0.00482
 O147 O -0.00414 0.45835 -0.07512
 O148 O -0.00495 0.54208 -0.07455
 O149 O -0.07358 0.45521 -0.00256
 O150 O 0.06722 0.54064 -0.00494
 O151 O -0.07369 0.53952 -0.00123
 O152 O 0.06847 0.45666 -0.00614
 H153 H 0.00101 0.43454 0.09453
 H154 H 0.09531 0.56271 -0.00461
 H155 H -0.00421 0.43770 -0.10442
 H156 H -0.10248 0.56079 -0.00015
 H157 H 0.14801 0.48665 0.02547
 H158 H 0.14775 0.52451 -0.05213
 H159 H 0.03747 0.52710 -0.15583
 H160 H -0.04132 0.50167 -0.15450
 H161 H -0.15425 0.47114 -0.04440
 H162 H -0.15192 0.47354 0.04039
 H163 H -0.04125 0.51916 0.14925
 H164 H 0.04173 0.51691 0.14735
 O165 O 1.09284 -0.09077 0.43197
 O166 O 1.04759 -0.04752 0.37698
 C167 C 1.07987 -0.07972 0.38785
 O168 O 0.92032 -0.07954 0.57004
 O169 O 0.96766 -0.03457 0.62169
 C170 C 0.93370 -0.06563 0.61325
 O171 O 0.92379 -0.08815 0.43334
 O172 O 0.96542 -0.04294 0.37717
 C173 C 0.93509 -0.07637 0.38886
 O174 O 1.09532 -0.08546 0.56784
 O175 O 1.05195 -0.03820 0.62105
 C176 C 1.08293 -0.07201 0.61148
 Zr177 Zr 1.06898 -0.06190 0.49917
 O178 O 1.06414 -0.13711 0.50571
 O179 O 1.14576 -0.06559 0.49556
 Zr180 Zr 0.94586 -0.05730 0.50043
 O181 O 0.93712 -0.13192 0.50743
 O182 O 0.86932 -0.04932 0.49561
 O183 O 1.00666 -0.07061 0.45660
 O184 O 1.00763 -0.06683 0.54212
 O185 O 1.10095 0.08510 0.56152
 O186 O 1.05639 0.04261 0.61765
 C187 C 1.08900 0.07413 0.60605
 O188 O 0.92644 0.08827 0.42740
 O189 O 0.96865 0.03945 0.37481
 C190 C 0.93843 0.07385 0.38390
 O191 O 0.92466 0.08929 0.56483
 O192 O 0.97088 0.04609 0.61898
 C193 C 0.93833 0.07824 0.60895
 O194 O 1.09549 0.08296 0.42432
 O195 O 1.04991 0.03591 0.37307
 C196 C 1.08238 0.06855 0.38110
 Zr197 Zr 1.07307 0.05859 0.49453
 O198 O 1.07681 0.13403 0.49586
 O199 O 1.14976 0.05346 0.48840
 Zr200 Zr 0.95015 0.06271 0.49657
 O201 O 0.95320 0.13817 0.49902
 O202 O 0.87319 0.06427 0.49267
 Zr203 Zr 1.00873 -0.00212 0.42480
 Zr204 Zr 1.01092 0.00262 0.57071
 O205 O 1.01255 0.07047 0.53767
 O206 O 1.01124 0.06843 0.45155
 O207 O 1.08141 -0.00052 0.54054
 O208 O 0.93868 0.00155 0.45583
 O209 O 1.07939 -0.00335 0.45438
 O210 O 0.93936 0.00432 0.54264
 H211 H 1.00639 -0.09433 0.56446
 H212 H 0.90999 0.00161 0.43385
 H213 H 1.01345 0.09932 0.55845
 H214 H 1.10773 -0.00469 0.43211
 H215 H 0.85772 -0.03615 0.52710
 H216 H 0.86060 0.04656 0.52125
 H217 H 0.97249 0.14896 0.47056
 H218 H 1.05529 0.14628 0.46970
 H219 H 1.16237 0.04021 0.51948
 H220 H 1.15868 -0.04225 0.51928
 H221 H 1.04747 -0.14945 0.47624
 H222 H 0.96638 -0.14677 0.49298
 C223 C 1.10668 0.14028 0.33403
 C224 C 1.12289 0.16259 0.29144
 C225 C 1.14023 0.13591 0.25147
 C226 C 1.13892 0.08503 0.25441
 C227 C 1.12353 0.06274 0.29836
 C228 C 1.10580 0.09053 0.33778
 C229 C 1.12705 0.01286 0.30177
 N230 N 1.14077 -0.01334 0.26256
 N231 N 1.15106 0.00709 0.21994
 C232 C 1.15005 0.05511 0.21430
 H233 H 1.09346 0.16215 0.36387
 H234 H 1.12371 0.20125 0.29076
 H235 H 1.11985 -0.00533 0.33556
 H236 H 1.15665 0.06884 0.17809
 C237 C 0.87859 -0.07849 0.31938
 C238 C 0.85387 -0.10193 0.28218
 C239 C 0.86182 -0.15075 0.27218
 C240 C 0.89332 -0.17691 0.30450
 C241 C 0.91942 -0.15218 0.34164
 C242 C 0.91159 -0.10287 0.34893
 C243 C 0.95273 -0.17772 0.37077
 N244 N 0.95717 -0.22553 0.36551
 N245 N 0.93024 -0.24947 0.33346
 C246 C 0.89820 -0.22714 0.30341
 H247 H 0.87179 -0.04082 0.32522
 H248 H 0.82950 -0.08060 0.26007
 H249 H 0.97521 -0.16015 0.39777
 H250 H 0.87575 -0.24960 0.28092
 C251 C 0.86407 0.11014 0.64947
 C252 C 0.83911 0.12795 0.69007
 C253 C 0.86391 0.13900 0.73337
 C254 C 0.91493 0.13181 0.73583
 C255 C 0.94051 0.11568 0.69397
 C256 C 0.91464 0.10297 0.65088
 C257 C 0.99155 0.11413 0.69640
 N258 N 1.01495 0.12406 0.73881
 N259 N 0.99067 0.13588 0.77909
 C260 C 0.94153 0.14000 0.77913
 H261 H 0.84351 0.10077 0.61707
 H262 H 0.80019 0.13367 0.68746
 H263 H 1.01303 0.10651 0.66467
 H264 H 0.92387 0.14921 0.81313
 C265 C 1.14195 -0.07952 0.67885
 C266 C 1.16103 -0.10263 0.71954
 C267 C 1.14093 -0.14556 0.73784
 C268 C 1.09917 -0.16497 0.71269
 C269 C 1.08309 -0.14301 0.66845
 C270 C 1.10331 -0.09910 0.65300
 C271 C 1.04645 -0.16549 0.64092
 N272 N 1.02415 -0.20499 0.65811
 N273 N 1.03572 -0.22335 0.70130
 C274 C 1.07164 -0.20469 0.72926
 H275 H 1.15812 -0.04629 0.66692
 H276 H 1.19207 -0.08589 0.73684
 H277 H 1.03567 -0.15259 0.60560
 H278 H 1.07581 -0.22106 0.76427
 C279 C 0.32302 1.07864 1.12849
 C280 C 0.28103 1.09999 1.14619
 C281 C 0.26217 1.14251 1.12562
 C282 C 0.28670 1.16203 1.08356
 C283 C 0.33161 1.14148 1.06814
 C284 C 0.34895 1.09931 1.09041
 C285 C 0.35743 1.16291 1.02951
 N286 N 0.33813 1.20064 1.00547
 N287 N 0.29459 1.21792 1.01711
 C288 C 0.26804 1.19973 1.05451
 H289 H 0.33562 1.04566 1.14498
 H290 H 0.26369 1.08267 1.17700
 H291 H 0.39236 1.14944 1.01758
 H292 H 0.23204 1.21402 1.05867
 C293 C 0.33862 0.85556 0.91109
 C294 C 0.29602 0.83519 0.89301
 C295 C 0.26282 0.86192 0.86470
 C296 C 0.27219 0.91168 0.85755
 C297 C 0.31689 0.93135 0.87380
 C298 C 0.34963 0.90327 0.90158
 C299 C 0.32730 0.97916 0.86225
 N300 N 0.29332 1.00679 0.84019
 N301 N 0.24950 0.98985 0.82922
 C302 C 0.23753 0.94368 0.83769
 H303 H 0.36293 0.83405 0.93326
 H304 H 0.28998 0.79763 0.90015
 H305 H 0.36216 0.99475 0.87045
 H306 H 0.20039 0.93358 0.83065
 C307 C 0.66874 0.85617 1.09342
 C308 C 0.71128 0.83558 1.11192
 C309 C 0.74366 0.86168 1.14178
 C310 C 0.73332 0.91106 1.14999
 C311 C 0.68851 0.93076 1.13356
 C312 C 0.65667 0.90346 1.10419
 C313 C 0.67707 0.97788 1.14662
 N314 N 0.71027 1.00509 1.17023
 N315 N 0.75429 0.98842 1.18113
 C316 C 0.76720 0.94277 1.17116
 H317 H 0.64525 0.83509 1.07007
 H318 H 0.71794 0.79831 1.10376
 H319 H 0.64193 0.99313 1.13829
 H320 H 0.80447 0.93281 1.17790
 C321 C 0.68543 1.07191 0.87071
 C322 C 0.72186 1.09580 0.84510
 C323 C 0.73062 1.14485 0.85240
 C324 C 0.69821 1.17060 0.88393
 C325 C 0.66304 1.14536 0.91191
 C326 C 0.65671 1.09571 0.90502
 C327 C 0.63437 1.17099 0.94554
 N328 N 0.63779 1.21908 0.94816
 N329 N 0.66759 1.24332 0.91907
 C330 C 0.69722 1.22100 0.88673
 H331 H 0.67916 1.03459 0.86310
 H332 H 0.74423 1.07497 0.82043
 H333 H 0.60902 1.15342 0.96953
 H334 H 0.71770 1.24342 0.86228
 C335 C 0.07366 0.31368 0.11173
 C336 C 0.09538 0.27641 0.13749
 C337 C 0.14616 0.27319 0.14158
 C338 C 0.17549 0.30957 0.12070
 C339 C 0.15343 0.34652 0.09295
 C340 C 0.10201 0.34883 0.08912
 C341 C 0.18388 0.37934 0.06894
 N342 N 0.23276 0.37723 0.07533
 N343 N 0.25326 0.34437 0.10386
 C344 C 0.22637 0.31063 0.12686
 H345 H 0.03430 0.31514 0.10957
 H346 H 0.07228 0.24896 0.15292
 H347 H 0.16948 0.40614 0.04455
 H348 H 0.24507 0.28553 0.15029
 C349 C -0.11370 0.30864 -0.07695
 C350 C -0.13674 0.26988 -0.09866
 C351 C -0.14677 0.26967 -0.14883
 C352 C -0.13398 0.30974 -0.17764
 C353 C -0.10969 0.34895 -0.15571
 C354 C -0.10061 0.34880 -0.10447
 C355 C -0.09343 0.38590 -0.18651
 N356 N -0.10406 0.38517 -0.23490
 N357 N -0.12942 0.34975 -0.25483
 C358 C -0.14475 0.31206 -0.22793
 H359 H -0.10595 0.30715 -0.03820
 H360 H -0.14581 0.23925 -0.07626
 H361 H -0.07110 0.41458 -0.17318
 H362 H -0.16538 0.28452 -0.24616
 C363 C 0.14231 0.65138 -0.10854
 C364 C 0.16724 0.69158 -0.12552
 C365 C 0.14225 0.73414 -0.13514
 C366 C 0.09141 0.73651 -0.12676
 C367 C 0.06579 0.69493 -0.11290
 C368 C 0.09161 0.65232 -0.10191
 C369 C 0.01477 0.69721 -0.11189
 N370 N -0.00857 0.73927 -0.11910
 N371 N 0.01583 0.77930 -0.12795
 C372 C 0.06498 0.77943 -0.13190
 H373 H 0.16288 0.61940 -0.10009
 H374 H 0.20607 0.68923 -0.13193
 H375 H -0.00661 0.66568 -0.10704
 H376 H 0.08283 0.81308 -0.13889
 C377 C -0.07071 0.68431 0.11836
 C378 C -0.09205 0.72370 0.14080
 C379 C -0.14276 0.72739 0.14538
 C380 C -0.17250 0.68968 0.12813
 C381 C -0.15082 0.64996 0.10431
 C382 C -0.09932 0.64705 0.10015
 C383 C -0.18182 0.61537 0.08385
 N384 N -0.23065 0.61869 0.08998
 N385 N -0.25071 0.65444 0.11485
 C386 C -0.22339 0.68994 0.13420
 H387 H -0.03143 0.68300 0.11502
 H388 H -0.06871 0.75210 0.15387
 H389 H -0.16803 0.58628 0.06221
 H390 H -0.24186 0.71758 0.15451
 C391 C 1.14092 0.07620 0.67994
 C392 C 1.16212 0.09949 0.71959
 C393 C 1.15411 0.14848 0.72818
 C394 C 1.12743 0.17508 0.69242
 C395 C 1.10587 0.15100 0.65203
 C396 C 1.11237 0.10109 0.64624
 C397 C 1.07775 0.17780 0.61882
 N398 N 1.07401 0.22571 0.62386
 N399 N 1.09673 0.24875 0.65966
 C400 C 1.12362 0.22534 0.69362
 H401 H 1.14652 0.03820 0.67577
 H402 H 1.18281 0.07803 0.74523
 H403 H 1.05877 0.16136 0.58880
 H404 H 1.14302 0.24684 0.71978
 C405 C 0.91685 -0.13627 0.66430
 C406 C 0.89811 -0.15824 0.70597
 C407 C 0.87056 -0.13232 0.74029
 C408 C 0.86583 -0.08191 0.73380
 C409 C 0.88360 -0.06021 0.69048
 C410 C 0.90976 -0.08756 0.65597
 C411 C 0.87455 -0.01143 0.68302
 N412 N 0.85343 0.01492 0.71869
 N413 N 0.84086 -0.00431 0.76131
 C414 C 0.84678 -0.05153 0.77029
 H415 H 0.93708 -0.15751 0.63821
 H416 H 0.90332 -0.19639 0.70993
 H417 H 0.88387 0.00576 0.64903
 H418 H 0.83838 -0.06415 0.80653
 C419 C 1.07708 -0.12978 0.31379
 C420 C 1.09889 -0.15368 0.27496
 C421 C 1.14952 -0.15148 0.26705
 C422 C 1.17896 -0.12728 0.30222
 C423 C 1.15641 -0.10275 0.34170
 C424 C 1.10506 -0.10415 0.34725
 C425 C 1.18619 -0.07689 0.37416
 N426 N 1.23522 -0.07839 0.36955
 N427 N 1.25659 -0.10413 0.33482
 C428 C 1.23036 -0.12892 0.30147
 H429 H 1.03787 -0.13132 0.31775
 H430 H 1.07529 -0.17221 0.24954
 H431 H 1.17115 -0.05529 0.40303
 H432 H 1.25040 -0.15082 0.27612
 C433 C 0.87319 0.08020 0.32252
 C434 C 0.85263 0.09984 0.28052
 C435 C 0.87539 0.13753 0.25501
 C436 C 0.92227 0.15316 0.27189
 C437 C 0.94092 0.13527 0.31684
 C438 C 0.91657 0.09808 0.34151
 C439 C 0.98419 0.15471 0.33559
 N440 N 1.00906 0.18761 0.30943
 N441 N 0.99443 0.20113 0.26521
 C442 C 0.95277 0.18432 0.24512
 H443 H 0.85475 0.05100 0.34069
 H444 H 0.81774 0.08591 0.26892
 H445 H 0.99860 0.14387 0.37071
 H446 H 0.94576 0.19425 0.20777
 C447 C 0.14265 0.33532 -0.09106
 C448 C 0.16355 0.29329 -0.10889
 C449 C 0.13778 0.26255 -0.14051
 C450 C 0.08805 0.27390 -0.15126
 C451 C 0.06792 0.31782 -0.13475
 C452 C 0.09522 0.34833 -0.10394
 C453 C 0.02025 0.32968 -0.14901
 N454 N -0.00695 0.29811 -0.17456
 N455 N 0.01014 0.25527 -0.18639
 C456 C 0.05619 0.24184 -0.17511
 H457 H 0.16354 0.35762 -0.06644
 H458 H 0.20092 0.28572 -0.09884
 H459 H 0.00436 0.36372 -0.14004
 H460 H 0.06610 0.20550 -0.18317
 C461 C -0.13285 0.32019 0.07253
 C462 C -0.15576 0.28213 0.09582
 C463 C -0.14416 0.26970 0.14438
 C464 C -0.11194 0.30018 0.17110
 C465 C -0.08725 0.33762 0.14646
 C466 C -0.09756 0.34714 0.09669
 C467 C -0.05323 0.36495 0.17281
 N468 N -0.04692 0.35755 0.22132
 N469 N -0.07269 0.32500 0.24537
 C470 C -0.10533 0.29669 0.22225
 H471 H -0.14276 0.32868 0.03523
 H472 H -0.18104 0.26096 0.07456
 H473 H -0.03196 0.39246 0.15559
 H474 H -0.12694 0.27331 0.24477
 C475 C -0.10425 0.65470 -0.14980
 C476 C -0.12087 0.69667 -0.17195
 C477 C -0.13695 0.73524 -0.14356
 C478 C -0.13576 0.73158 -0.09182
 C479 C -0.12170 0.68810 -0.06966
 C480 C -0.10386 0.65005 -0.09873
 C481 C -0.12665 0.68385 -0.01874
 N482 N -0.14020 0.72200 0.00849
 N483 N -0.14950 0.76412 -0.01194
 C484 C -0.14754 0.77031 -0.06105
 H485 H -0.09047 0.62614 -0.17262
 H486 H -0.12155 0.69892 -0.21149
 H487 H -0.12099 0.65021 -0.00067
 H488 H -0.15454 0.80562 -0.07526
 C489 C 0.12506 0.67691 0.07184
 C490 C 0.14895 0.71450 0.09470
 C491 C 0.14025 0.72599 0.14418
 C492 C 0.10792 0.69574 0.17158
 C493 C 0.08248 0.65846 0.14721
 C494 C 0.09192 0.64883 0.09747
 C495 C 0.04823 0.63142 0.17356
 N496 N 0.04227 0.63877 0.22206
 N497 N 0.06868 0.67089 0.24600
 C498 C 0.10159 0.69893 0.22284
 H499 H 0.13259 0.66961 0.03366
 H500 H 0.17350 0.73561 0.07252
 H501 H 0.02617 0.60445 0.15606
 H502 H 0.12349 0.72149 0.24573
 C503 C 0.30954 1.10835 0.93039
 C504 C 0.27074 1.13329 0.90953
 C505 C 0.27197 1.14711 0.86033
 C506 C 0.31378 1.13646 0.83192
 C507 C 0.35239 1.10946 0.85257
 C508 C 0.35105 1.09678 0.90292
 C509 C 0.39004 1.09441 0.82122
 N510 N 0.39120 1.10933 0.77409
 N511 N 0.35695 1.13784 0.75587
 C512 C 0.31838 1.15198 0.78312
 H513 H 0.30708 1.09801 0.96847
 H514 H 0.23893 1.14073 0.93168
 H515 H 0.41772 1.06980 0.83302
 H516 H 0.29201 1.17551 0.76638
 C517 C 0.30996 0.91984 1.11023
 C518 C 0.27093 0.89690 1.13259
 C519 C 0.26858 0.84692 1.13510
 C520 C 0.30704 0.81958 1.11437
 C521 C 0.34619 0.84309 1.09032
 C522 C 0.34820 0.89370 1.08957
 C523 C 0.38177 0.81492 1.06710
 N524 N 0.37996 0.76673 1.07056
 N525 N 0.34498 0.74478 1.09554
 C526 C 0.30871 0.76944 1.11773
 H527 H 0.31071 0.95850 1.10981
 H528 H 0.24211 0.91857 1.14808
 H529 H 0.41068 0.83057 1.04572
 H530 H 0.28221 0.74939 1.13826
 C531 C 0.69401 1.10791 1.07315
 C532 C 0.73426 1.13121 1.09271
 C533 C 0.73740 1.14025 1.14289
 C534 C 0.69845 1.12678 1.17391
 C535 C 0.65758 1.10249 1.15416
 C536 C 0.65540 1.09308 1.10308
 C537 C 0.62137 1.08684 1.18684
 N538 N 0.62470 1.09717 1.23514
 N539 N 0.66190 1.12188 1.25319
 C540 C 0.69880 1.13708 1.22430
 H541 H 0.69293 1.10157 1.03407
 H542 H 0.76370 1.14143 1.06856
 H543 H 0.59103 1.06558 1.17502
 H544 H 0.72777 1.15735 1.24105
 C545 C 0.69663 0.92531 0.88982
 C546 C 0.73471 0.90442 0.86410
 C547 C 0.73452 0.85554 0.85327
 C548 C 0.69455 0.82724 0.86865
 C549 C 0.65654 0.84832 0.89639
 C550 C 0.65681 0.89824 0.90529
 C551 C 0.62032 0.81821 0.91558
 N552 N 0.62006 0.77114 0.90419
 N553 N 0.65377 0.75205 0.87524
 C554 C 0.69086 0.77843 0.85697
 H555 H 0.69825 0.96306 0.89764
 H556 H 0.76518 0.92660 0.85363
 H557 H 0.59297 0.83123 0.94046
 H558 H 0.71659 0.76099 0.83308
   
