data_POSCAR
  _audit_creation_date              2014-09-24
  _audit_creation_method            'ToBaCCo'
  _symmetry_space_group_name_H-M    'P1'
  _symmetry_Int_Tables_number       1
  _symmetry_cell_setting            triclinic
  loop_
  _symmetry_equiv_pos_as_xyz
 x,y,z
_cell_length_a 34.8510
_cell_length_b 34.1852
_cell_length_c 28.5980
_cell_angle_alpha 89.999100
_cell_angle_beta 90.673100
_cell_angle_gamma 86.675900
loop_
  _atom_site_label
  _atom_site_type_symbol
  _atom_site_fract_x
  _atom_site_fract_y
  _atom_site_fract_z
C1 C 0.08994 0.28267 -0.04755
 C2 C 0.10781 0.28176 -0.00305
 C3 C 0.08677 0.28209 0.03840
 C4 C 0.04632 0.28479 0.03600
 C5 C 0.02728 0.28219 -0.00776
 C6 C 0.04897 0.28102 -0.04978
 C7 C 0.02860 0.28001 -0.09256
 C8 C -0.01105 0.27755 -0.09405
 C9 C -0.03286 0.27699 -0.05295
 C10 C -0.01367 0.28111 -0.00932
 C11 C 0.02445 0.29142 0.07641
 C12 C -0.01541 0.29315 0.07439
 C13 C -0.03521 0.28494 0.03271
 C14 C -0.07600 0.28343 0.03093
 C15 C -0.09409 0.27995 -0.01277
 C16 C -0.07348 0.27491 -0.05466
 H17 H 0.04244 0.28166 -0.12594
 H18 H -0.02441 0.27780 -0.12834
 H19 H 0.03801 0.29691 0.10984
 H20 H -0.03029 0.30179 0.10596
 H21 H 0.13873 0.27754 -0.00022
 H22 H -0.12480 0.27674 -0.01289
 C23 C 0.40446 0.81239 0.46541
 C24 C 0.38379 0.80757 0.50663
 C25 C 0.40219 0.80347 0.55030
 C26 C 0.44271 0.80392 0.55318
 C27 C 0.46420 0.80853 0.51195
 C28 C 0.44500 0.81371 0.46815
 C29 C 0.46693 0.82021 0.42823
 C30 C 0.50687 0.81918 0.43071
 C31 C 0.52664 0.81121 0.47312
 C32 C 0.50507 0.80692 0.51440
 C33 C 0.46233 0.80003 0.59633
 C34 C 0.50224 0.79796 0.59865
 C35 C 0.52423 0.80008 0.55797
 C36 C 0.56484 0.79579 0.55983
 C37 C 0.58559 0.79954 0.51855
 C38 C 0.56732 0.80752 0.47538
 H39 H 0.45349 0.82657 0.39460
 H40 H 0.52196 0.82483 0.39881
 H41 H 0.44714 0.79856 0.62898
 H42 H 0.51556 0.79495 0.63290
 H43 H 0.35314 0.80403 0.50442
 H44 H 0.61644 0.79354 0.51947
 C45 C 0.90113 0.73200 -0.02110
 C46 C 0.88430 0.73391 0.02302
 C47 C 0.90650 0.73610 0.06403
 C48 C 0.94695 0.73519 0.06106
 C49 C 0.96456 0.73555 0.01673
 C50 C 0.94151 0.73499 -0.02462
 C51 C 0.95935 0.73904 -0.06798
 C52 C 0.99892 0.74111 -0.07093
 C53 C 1.02243 0.74023 -0.03056
 C54 C 1.00522 0.73739 0.01380
 C55 C 0.97025 0.73339 0.10144
 C56 C 1.01000 0.73340 0.09857
 C57 C 1.02837 0.73685 0.05519
 C58 C 1.06913 0.73836 0.05193
 C59 C 1.08539 0.74018 0.00710
 C60 C 1.06265 0.74218 -0.03367
 H61 H 0.94303 0.74154 -0.10026
 H62 H 1.01083 0.74316 -0.10554
 H63 H 0.95801 0.73095 0.13585
 H64 H 1.02575 0.73006 0.13115
 H65 H 0.85322 0.73459 0.02531
 H66 H 1.11583 0.74396 0.00350
 C67 C 0.43442 0.21456 0.54420
 C68 C 0.41123 0.21531 0.50368
 C69 C 0.42699 0.21426 0.45893
 C70 C 0.46739 0.21351 0.45407
 C71 C 0.49145 0.21109 0.49450
 C72 C 0.47494 0.21119 0.53965
 C73 C 0.49941 0.20768 0.57900
 C74 C 0.53920 0.20384 0.57423
 C75 C 0.55637 0.20381 0.52986
 C76 C 0.53214 0.20887 0.48972
 C77 C 0.48441 0.21463 0.40978
 C78 C 0.52405 0.21479 0.40529
 C79 C 0.54843 0.21214 0.44475
 C80 C 0.58872 0.21179 0.44014
 C81 C 0.61218 0.20401 0.47961
 C82 C 0.59695 0.19962 0.52447
 H83 H 0.48805 0.20719 0.61402
 H84 H 0.55615 0.20181 0.60609
 H85 H 0.46736 0.21550 0.37793
 H86 H 0.53543 0.21580 0.37029
 H87 H 0.38028 0.21912 0.50676
 H88 H 0.64288 0.20192 0.47500
 C89 C 0.71079 0.06957 -0.03346
 C90 C 0.71933 0.08673 0.00963
 C91 C 0.72213 0.06513 0.05123
 C92 C 0.71455 0.02498 0.05032
 C93 C 0.70520 0.00677 0.00739
 C94 C 0.70233 0.02925 -0.03452
 C95 C 0.68812 0.01139 -0.07498
 C96 C 0.68292 -0.02855 -0.07642
 C97 C 0.68917 -0.05219 -0.03652
 C98 C 0.69780 -0.03386 0.00657
 C99 C 0.71421 0.00306 0.09172
 C100 C 0.70573 -0.03609 0.09114
 C101 C 0.69858 -0.05581 0.04883
 C102 C 0.69040 -0.09617 0.04778
 C103 C 0.68405 -0.11391 0.00423
 C104 C 0.68480 -0.09316 -0.03824
 H105 H 0.67982 0.02809 -0.10589
 H106 H 0.67217 -0.04032 -0.10883
 H107 H 0.71925 0.01628 0.12544
 H108 H 0.70420 -0.05002 0.12485
 H109 H 0.72667 0.11714 0.01033
 H110 H 0.68334 -0.14541 0.00326
 C111 C 0.22127 0.42280 0.52811
 C112 C 0.22904 0.40518 0.48468
 C113 C 0.23326 0.42743 0.44404
 C114 C 0.22894 0.46872 0.44633
 C115 C 0.22197 0.48728 0.48995
 C116 C 0.21825 0.46434 0.53099
 C117 C 0.21108 0.48364 0.57366
 C118 C 0.20922 0.52435 0.57639
 C119 C 0.21374 0.54758 0.53642
 C120 C 0.21904 0.52895 0.49254
 C121 C 0.23078 0.49190 0.40588
 C122 C 0.22704 0.53255 0.40829
 C123 C 0.22199 0.55185 0.45137
 C124 C 0.21934 0.59335 0.45424
 C125 C 0.21484 0.61115 0.49821
 C126 C 0.21273 0.58894 0.53929
 H127 H 0.20665 0.46760 0.60554
 H128 H 0.20349 0.53743 0.61023
 H129 H 0.23454 0.47885 0.37165
 H130 H 0.22803 0.54857 0.37576
 H131 H 0.23388 0.37362 0.48286
 H132 H 0.21558 0.64272 0.50083
 C133 C 0.31046 0.91983 0.03565
 C134 C 0.30518 0.89921 -0.00594
 C135 C 0.30348 0.91766 -0.04996
 C136 C 0.30668 0.95904 -0.05187
 C137 C 0.31142 0.98066 -0.00986
 C138 C 0.31404 0.96077 0.03376
 C139 C 0.32136 0.98215 0.07438
 C140 C 0.32460 1.02241 0.07278
 C141 C 0.31955 1.04358 0.03058
 C142 C 0.31391 1.02225 -0.01148
 C143 C 0.30714 0.97933 -0.09468
 C144 C 0.30918 1.01972 -0.09627
 C145 C 0.31119 1.04218 -0.05518
 C146 C 0.31254 1.08366 -0.05686
 C147 C 0.31763 1.10397 -0.01462
 C148 C 0.32126 1.08513 0.02908
 H149 H 0.32561 0.96784 0.10794
 H150 H 0.33200 1.03616 0.10535
 H151 H 0.30700 0.96447 -0.12796
 H152 H 0.31036 1.03271 -0.13060
 H153 H 0.29929 0.86859 -0.00312
 H154 H 0.31422 1.13554 -0.01525
 C155 C 0.79155 0.40387 0.47026
 C156 C 0.78682 0.38541 0.51338
 C157 C 0.78268 0.40686 0.55506
 C158 C 0.78490 0.44796 0.55411
 C159 C 0.78806 0.46739 0.51074
 C160 C 0.79107 0.44538 0.46862
 C161 C 0.79380 0.46556 0.42607
 C162 C 0.79148 0.50630 0.42463
 C163 C 0.78754 0.52859 0.46582
 C164 C 0.78745 0.50901 0.50945
 C165 C 0.78437 0.47009 0.59559
 C166 C 0.78550 0.51067 0.59444
 C167 C 0.78597 0.53093 0.55170
 C168 C 0.78528 0.57241 0.55004
 C169 C 0.78357 0.59115 0.50643
 C170 C 0.78386 0.56995 0.46440
 H171 H 0.79755 0.45019 0.39325
 H172 H 0.79355 0.52015 0.39080
 H173 H 0.78378 0.45620 0.62954
 H174 H 0.78575 0.52587 0.62758
 H175 H 0.78386 0.35403 0.51403
 H176 H 0.77939 0.62279 0.50539
 O177 O 0.25757 0.28884 0.18261
 O178 O 0.32963 0.25099 0.26664
 O179 O 0.30625 0.22820 0.18399
 O180 O 0.27017 0.30101 0.27160
 O181 O 0.22711 0.25984 0.29341
 O182 O 0.26521 0.18707 0.21105
 O183 O 0.28857 0.21104 0.29594
 O184 O 0.21657 0.24640 0.20656
 Cu185 Cu 0.29499 0.27125 0.22379
 Cu186 Cu 0.24648 0.22171 0.25475
 C187 C 0.22518 0.27415 0.17946
 C188 C 0.32141 0.22567 0.29650
 C189 C 0.29107 0.19513 0.18255
 C190 C 0.24208 0.29250 0.29727
 O191 O 0.77579 0.74657 0.32571
 O192 O 0.73160 0.81561 0.24175
 O193 O 0.71089 0.79076 0.32469
 O194 O 0.78304 0.75836 0.23673
 O195 O 0.74571 0.71142 0.21474
 O196 O 0.67373 0.74508 0.29883
 O197 O 0.69437 0.77037 0.21467
 O198 O 0.73702 0.70118 0.30283
 Cu199 Cu 0.75330 0.78209 0.28502
 Cu200 Cu 0.70869 0.72842 0.25530
 C201 C 0.76423 0.71231 0.32901
 C202 C 0.70655 0.80482 0.21295
 C203 C 0.67980 0.77293 0.32653
 C204 C 0.77629 0.72919 0.21058
 O205 O 0.76260 0.31017 0.27444
 O206 O 0.72948 0.24110 0.18821
 O207 O 0.71461 0.25366 0.27571
 O208 O 0.78552 0.28771 0.19067
 O209 O 0.82831 0.24366 0.21913
 O210 O 0.75819 0.20857 0.30035
 O211 O 0.77235 0.19539 0.21302
 O212 O 0.80411 0.26520 0.30376
 Cu213 Cu 0.74408 0.27777 0.22991
 Cu214 Cu 0.79531 0.22406 0.26136
 C215 C 0.78783 0.29961 0.30469
 C216 C 0.74472 0.20671 0.18565
 C217 C 0.72463 0.22461 0.30206
 C218 C 0.81899 0.27059 0.19004
 O219 O 0.20346 0.75985 0.21113
 O220 O 0.27142 0.79299 0.30074
 O221 O 0.25083 0.81566 0.21666
 O222 O 0.22390 0.73725 0.29676
 O223 O 0.26904 0.69720 0.26669
 O224 O 0.29722 0.77609 0.18839
 O225 O 0.31688 0.75241 0.27217
 O226 O 0.24959 0.72076 0.18147
 Cu227 Cu 0.23267 0.78026 0.25924
 Cu228 Cu 0.28762 0.73251 0.22425
 C229 C 0.21530 0.73543 0.18023
 C230 C 0.30568 0.77805 0.30188
 C231 C 0.27864 0.80921 0.18887
 C232 C 0.24241 0.70409 0.29599
 O233 O 0.78933 0.23365 0.69791
 O234 O 0.75241 0.16363 0.77904
 O235 O 0.73329 0.18818 0.69328
 O236 O 0.79931 0.22118 0.78640
 O237 O 0.75385 0.26512 0.80764
 O238 O 0.68797 0.23000 0.71986
 O239 O 0.70856 0.20751 0.80431
 O240 O 0.74383 0.27785 0.71848
 Cu241 Cu 0.77270 0.19691 0.73737
 Cu242 Cu 0.71912 0.24928 0.76475
 C243 C 0.77293 0.26740 0.69374
 C244 C 0.72512 0.17336 0.80625
 C245 C 0.69944 0.20445 0.69050
 C246 C 0.78747 0.24962 0.81239
 O247 O 0.27648 0.76724 0.70941
 O248 O 0.21824 0.72499 0.80037
 O249 O 0.22765 0.71319 0.71052
 O250 O 0.26488 0.78118 0.79734
 O251 O 0.21748 0.82456 0.77967
 O252 O 0.18002 0.75634 0.69315
 O253 O 0.17076 0.76848 0.78355
 O254 O 0.22911 0.81053 0.69142
 Cu255 Cu 0.25146 0.74218 0.75614
 Cu256 Cu 0.19435 0.79414 0.73522
 C257 C 0.26291 0.79583 0.68482
 C258 C 0.18494 0.74018 0.80833
 C259 C 0.19801 0.72357 0.68624
 C260 C 0.24743 0.81447 0.80335
 O261 O 0.25505 0.30914 0.71566
 O262 O 0.28429 0.22709 0.79274
 O263 O 0.30398 0.24815 0.70983
 O264 O 0.22994 0.28152 0.79586
 O265 O 0.18745 0.24744 0.75823
 O266 O 0.26153 0.21083 0.67709
 O267 O 0.24087 0.19074 0.76045
 O268 O 0.21456 0.27261 0.67818
 Cu269 Cu 0.27225 0.27044 0.75675
 Cu270 Cu 0.22174 0.22706 0.71508
 C271 C 0.23105 0.30474 0.68276
 C272 C 0.26758 0.19516 0.79046
 C273 C 0.29511 0.22306 0.67916
 C274 C 0.19621 0.26916 0.79210
 O275 O 0.73873 0.78113 0.70049
 O276 O 0.80464 0.73936 0.79045
 O277 O 0.78326 0.71776 0.70602
 O278 O 0.75433 0.79887 0.78664
 O279 O 0.70684 0.76453 0.81150
 O280 O 0.73856 0.68253 0.73620
 O281 O 0.75769 0.70733 0.82089
 O282 O 0.69252 0.74539 0.72614
 Cu283 Cu 0.77504 0.76248 0.74322
 Cu284 Cu 0.71952 0.72103 0.77616
 C285 C 0.70456 0.77053 0.69778
 C286 C 0.79218 0.71763 0.82214
 C287 C 0.76524 0.68642 0.70715
 C288 C 0.72522 0.79547 0.81250
 C289 C 0.32212 0.10815 0.07045
 C290 C 0.33274 0.14548 0.07209
 C291 C 0.32708 0.17173 0.11299
 C292 C 0.30162 0.16583 0.14661
 H293 H 0.34652 0.15816 0.04248
 H294 H 0.34182 0.19877 0.11270
 H295 H 0.31306 0.09548 0.10264
 H296 H 0.28525 0.13992 0.14631
 C297 C 0.78218 0.59704 0.59295
 C298 C 0.80149 0.62976 0.59789
 C299 C 0.79664 0.65837 0.63674
 C300 C 0.77367 0.65441 0.67353
 H301 H 0.82120 0.63727 0.57074
 H302 H 0.81167 0.68506 0.63321
 H303 H 0.76272 0.58843 0.61961
 H304 H 0.75825 0.62820 0.67806
 C305 C 0.69249 0.88036 0.08864
 C306 C 0.67408 0.84702 0.09399
 C307 C 0.67968 0.82089 0.13508
 C308 C 0.69335 0.83260 0.17638
 H309 H 0.65504 0.83710 0.06689
 H310 H 0.67367 0.79042 0.13012
 H311 H 0.71083 0.88911 0.11675
 H312 H 0.69862 0.86302 0.18258
 C313 C 0.22025 0.39721 0.57036
 C314 C 0.20343 0.36272 0.56986
 C315 C 0.20538 0.33332 0.60833
 C316 C 0.22426 0.33726 0.64905
 H317 H 0.18821 0.35440 0.53850
 H318 H 0.19223 0.30598 0.60110
 H319 H 0.23481 0.40674 0.60146
 H320 H 0.23805 0.36398 0.65704
 C321 C 0.89939 0.28334 0.07014
 C322 C 0.90832 0.26547 0.11102
 C323 C 0.88064 0.26060 0.14929
 C324 C 0.84670 0.28101 0.15397
 H325 H 0.93569 0.24917 0.11520
 H326 H 0.88892 0.23801 0.17461
 H327 H 0.86960 0.29303 0.06427
 H328 H 0.83809 0.30449 0.13006
 C329 C 0.37911 0.79358 0.59143
 C330 C 0.34416 0.81014 0.59958
 C331 C 0.32178 0.79677 0.63912
 C332 C 0.28623 0.81164 0.64748
 H333 H 0.33188 0.83299 0.57672
 H334 H 0.33432 0.77336 0.66102
 H335 H 0.39096 0.77125 0.61527
 H336 H 0.27359 0.83502 0.62565
 C337 C 0.09280 0.74172 0.09234
 C338 C 0.13062 0.73165 0.09425
 C339 C 0.15355 0.73910 0.13676
 C340 C 0.18997 0.72483 0.14112
 H341 H 0.14494 0.71718 0.06505
 H342 H 0.14085 0.75745 0.16408
 H343 H 0.08014 0.75322 0.12417
 H344 H 0.20231 0.70612 0.11391
 C345 C 0.62357 0.19008 0.56495
 C346 C 0.66041 0.19986 0.56671
 C347 C 0.68604 0.19339 0.60782
 C348 C 0.67328 0.19621 0.65163
 H349 H 0.67286 0.21489 0.53791
 H350 H 0.71669 0.19339 0.60175
 H351 H 0.61278 0.17415 0.59417
 H352 H 0.64276 0.20090 0.65786
 C353 C 0.71262 0.09424 0.92709
 C354 C 0.72561 0.08249 0.88509
 C355 C 0.73186 0.10988 0.84640
 C356 C 0.71357 0.14537 0.84178
 H357 H 0.73695 0.05265 0.88017
 H358 H 0.75315 0.10014 0.82099
 H359 H 0.70873 0.12552 0.93305
 H360 H 0.69096 0.15489 0.86553
 C361 C 0.22520 0.61855 0.41264
 C362 C 0.20421 0.65220 0.40491
 C363 C 0.21046 0.68017 0.36633
 C364 C 0.23429 0.67335 0.33027
 H365 H 0.18167 0.66085 0.42920
 H366 H 0.19483 0.70841 0.36879
 H367 H 0.24787 0.60928 0.38902
 H368 H 0.24990 0.64532 0.32648
 C369 C 0.29542 0.89527 0.90969
 C370 C 0.30323 0.85633 0.90655
 C371 C 0.29139 0.83207 0.86679
 C372 C 0.26114 0.84161 0.83888
 H373 H 0.32048 0.84095 0.93318
 H374 H 0.30651 0.80367 0.86310
 H375 H 0.28245 0.90990 0.87956
 H376 H 0.24444 0.86897 0.84363
 C377 C 0.79233 0.37951 0.42705
 C378 C 0.81246 0.34478 0.42413
 C379 C 0.81071 0.31762 0.38363
 C380 C 0.79636 0.32809 0.34151
 H381 H 0.82953 0.33439 0.45399
 H382 H 0.82035 0.28734 0.38975
 H383 H 0.77441 0.39006 0.39816
 H384 H 0.78703 0.35823 0.33448
 C385 C 0.11318 0.28223 0.91172
 C386 C 0.14910 0.29520 0.91073
 C387 C 0.17561 0.29205 0.87033
 C388 C 0.16686 0.27794 0.82801
 H389 H 0.16086 0.30907 0.94126
 H390 H 0.20471 0.30031 0.87708
 H391 H 0.10173 0.27098 0.87979
 H392 H 0.13822 0.26923 0.82006
 C393 C 0.59112 0.80620 0.43255
 C394 C 0.62668 0.81938 0.43163
 C395 C 0.65371 0.81224 0.39262
 C396 C 0.65048 0.78323 0.36159
 H397 H 0.63711 0.83558 0.46125
 H398 H 0.67880 0.82950 0.39205
 H399 H 0.57947 0.79252 0.40190
 H400 H 0.62656 0.76452 0.36296
 C401 C 0.87452 0.72993 0.93807
 C402 C 0.88044 0.70516 0.90222
 C403 C 0.85550 0.70767 0.86026
 C404 C 0.81722 0.70653 0.86241
 H405 H 0.90633 0.68610 0.90110
 H406 H 0.86917 0.71168 0.82692
 H407 H 0.84836 0.74872 0.93852
 H408 H 0.80386 0.69975 0.89524
 C409 C 0.40057 0.21748 0.41788
 C410 C 0.36963 0.19597 0.41362
 C411 C 0.34177 0.20008 0.37413
 C412 C 0.35048 0.21506 0.33259
 H413 H 0.36321 0.17582 0.44130
 H414 H 0.31290 0.19125 0.38020
 H415 H 0.40659 0.23883 0.39152
 H416 H 0.37944 0.22306 0.32566
 C417 C 0.68620 0.88614 0.91871
 C418 C 0.67385 0.84988 0.91313
 C419 C 0.68255 0.82450 0.87243
 C420 C 0.71357 0.82706 0.84542
 H421 H 0.65620 0.83731 0.93941
 H422 H 0.66488 0.79964 0.86846
 H423 H 0.69900 0.89964 0.88895
 H424 H 0.73244 0.85087 0.84987
 C425 C 0.24513 0.40696 0.40039
 C426 C 0.22883 0.37464 0.38617
 C427 C 0.24301 0.35239 0.34524
 C428 C 0.22672 0.31948 0.33325
 H429 H 0.20524 0.36382 0.40590
 H430 H 0.26783 0.36169 0.32662
 H431 H 0.26789 0.41851 0.37993
 H432 H 0.20222 0.31046 0.35275
 C433 C 0.30549 0.10533 0.90109
 C434 C 0.31813 0.14133 0.89433
 C435 C 0.30813 0.16728 0.85415
 C436 C 0.27860 0.16356 0.82416
 H437 H 0.33813 0.15314 0.91910
 H438 H 0.32478 0.19300 0.85193
 H439 H 0.28941 0.09260 0.87307
 H440 H 0.26098 0.13859 0.82582
 C441 C 0.77495 0.59115 0.41997
 C442 C 0.78722 0.62662 0.41120
 C443 C 0.77215 0.64953 0.37086
 C444 C 0.78221 0.68617 0.36469
 H445 H 0.80701 0.63972 0.43529
 H446 H 0.75107 0.63725 0.34779
 H447 H 0.75597 0.57803 0.39491
 H448 H 0.80329 0.69816 0.38802
 C449 C 0.08093 0.75097 0.92128
 C450 C 0.11317 0.73204 0.90678
 C451 C 0.13107 0.74364 0.86294
 C452 C 0.16366 0.72554 0.84821
 H453 H 0.12664 0.70849 0.92770
 H454 H 0.11834 0.76855 0.84366
 H455 H 0.06732 0.77385 0.89948
 H456 H 0.17656 0.70097 0.86792
 C457 C 0.60691 0.22302 0.39558
 C458 C 0.64056 0.20655 0.38173
 C459 C 0.66246 0.22293 0.34331
 C460 C 0.69829 0.20858 0.33589
 H461 H 0.65340 0.18164 0.40086
 H462 H 0.65041 0.24769 0.32324
 H463 H 0.59346 0.24705 0.37545
 H464 H 0.70975 0.18413 0.35698
 C465 C 0.90704 0.26417 0.90376
 C466 C 0.86932 0.27168 0.89603
 C467 C 0.84896 0.25544 0.85564
 C468 C 0.81164 0.26526 0.84949
 H469 H 0.85259 0.29057 0.91946
 H470 H 0.86389 0.23507 0.83210
 H471 H 0.92290 0.24823 0.87682
 H472 H 0.79759 0.28618 0.87318
 C473 C 0.38389 0.80989 0.41966
 C474 C 0.34743 0.82393 0.41308
 C475 C 0.32345 0.81605 0.37139
 C476 C 0.33283 0.78909 0.33873
 H477 H 0.33352 0.84138 0.44031
 H478 H 0.29536 0.83136 0.36977
 H479 H 0.39888 0.79439 0.39185
 H480 H 0.36027 0.77272 0.33989
 C481 C 0.30802 0.89813 0.08065
 C482 C 0.32403 0.86169 0.08597
 C483 C 0.31721 0.83518 0.12556
 C484 C 0.28817 0.84022 0.15576
 H485 H 0.34251 0.84956 0.05875
 H486 H 0.33515 0.80823 0.12680
 H487 H 0.29152 0.91191 0.10855
 H488 H 0.26919 0.86637 0.15453
 C489 C 0.77174 0.38638 0.59814
 C490 C 0.78721 0.35113 0.60971
 C491 C 0.77272 0.32914 0.64928
 C492 C 0.78807 0.29341 0.65860
 H493 H 0.81010 0.33773 0.58870
 H494 H 0.74858 0.34128 0.66922
 H495 H 0.74971 0.40021 0.62007
 H496 H 0.81213 0.28179 0.63812
 C497 C 0.73584 0.08475 0.09432
 C498 C 0.72431 0.12168 0.10452
 C499 C 0.74099 0.14345 0.14355
 C500 C 0.72942 0.18098 0.14969
 H501 H 0.70259 0.13678 0.08258
 H502 H 0.76301 0.12948 0.16598
 H503 H 0.75658 0.06909 0.11700
 H504 H 0.70729 0.19409 0.12666
 C505 C 0.21495 0.60902 0.58513
 C506 C 0.19585 0.64310 0.59435
 C507 C 0.20380 0.66426 0.63790
 C508 C 0.18531 0.69851 0.64784
 H509 H 0.17572 0.65619 0.56886
 H510 H 0.22692 0.65282 0.66065
 H511 H 0.23415 0.59586 0.61159
 H512 H 0.16211 0.70983 0.62518
 C513 C 0.88680 0.74300 0.10918
 C514 C 0.85598 0.72406 0.12098
 C515 C 0.83418 0.73484 0.16320
 C516 C 0.80286 0.71616 0.17356
 H517 H 0.84590 0.70130 0.09828
 H518 H 0.84240 0.75948 0.18418
 H519 H 0.89754 0.76479 0.13274
 H520 H 0.79490 0.69173 0.15203
 C521 C 0.41550 0.22128 0.59018
 C522 C 0.38173 0.20660 0.59981
 C523 C 0.35850 0.21987 0.64021
 C524 C 0.32287 0.20791 0.64429
 H525 H 0.36965 0.18611 0.57556
 H526 H 0.36934 0.24109 0.66445
 H527 H 0.42819 0.24083 0.61503
 H528 H 0.31257 0.18706 0.61916
 C529 C 0.10738 0.27453 0.08362
 C530 C 0.14144 0.28871 0.09334
 C531 C 0.16397 0.27571 0.13495
 C532 C 0.19858 0.28928 0.14262
 H533 H 0.15367 0.30893 0.06922
 H534 H 0.15323 0.25359 0.15775
 H535 H 0.09476 0.25546 0.10874
 H536 H 0.20883 0.31140 0.11941
 C537 C 0.58596 0.78289 0.60318
 C538 C 0.62076 0.79494 0.61400
 C539 C 0.64323 0.77819 0.65382
 C540 C 0.67944 0.78780 0.66069
 H541 H 0.63343 0.81667 0.59232
 H542 H 0.63071 0.75701 0.67642
 H543 H 0.57331 0.76178 0.62571
 H544 H 0.69164 0.80875 0.63747
   
