data_POSCAR
  _audit_creation_date              2014-09-24
  _audit_creation_method            'ToBaCCo'
  _symmetry_space_group_name_H-M    'P1'
  _symmetry_Int_Tables_number       1
  _symmetry_cell_setting            triclinic
  loop_
  _symmetry_equiv_pos_as_xyz
 x,y,z
_cell_length_a 31.0845
_cell_length_b 30.1852
_cell_length_c 16.4207
_cell_angle_alpha 89.780900
_cell_angle_beta 90.354000
_cell_angle_gamma 89.891500
loop_
  _atom_site_label
  _atom_site_type_symbol
  _atom_site_fract_x
  _atom_site_fract_y
  _atom_site_fract_z
C1 C 0.69560 0.32677 0.57959
 C2 C 0.68574 0.34657 0.50449
 C3 C 0.70260 0.33064 0.43156
 C4 C 0.73162 0.29454 0.43319
 C5 C 0.74364 0.27520 0.50900
 C6 C 0.72575 0.29144 0.58247
 C7 C 0.73886 0.27240 0.65687
 C8 C 0.76708 0.23663 0.65904
 C9 C 0.78468 0.21936 0.58708
 C10 C 0.77305 0.23905 0.51124
 C11 C 0.74893 0.27739 0.36112
 C12 C 0.77710 0.24154 0.36312
 C13 C 0.79012 0.22223 0.43747
 C14 C 0.81856 0.18544 0.43981
 C15 C 0.82714 0.16464 0.51461
 C16 C 0.81162 0.18137 0.58836
 H17 H 0.72682 0.28461 0.71428
 H18 H 0.77429 0.22218 0.71793
 H19 H 0.74069 0.29143 0.30231
 H20 H 0.78849 0.22894 0.30553
 H21 H 0.66240 0.37336 0.50201
 H22 H 0.84896 0.13649 0.51615
 C23 C 0.18293 0.81066 0.58482
 C24 C 0.16973 0.82865 0.51038
 C25 C 0.18571 0.81283 0.43679
 C26 C 0.21714 0.77899 0.43697
 C27 C 0.23082 0.76021 0.51217
 C28 C 0.21346 0.77593 0.58642
 C29 C 0.22626 0.75594 0.65996
 C30 C 0.25522 0.72072 0.66067
 C31 C 0.27353 0.70496 0.58802
 C32 C 0.26098 0.72485 0.51291
 C33 C 0.23450 0.76293 0.36402
 C34 C 0.26447 0.72861 0.36473
 C35 C 0.27794 0.70899 0.43838
 C36 C 0.30775 0.67365 0.43944
 C37 C 0.31859 0.65335 0.51326
 C38 C 0.30215 0.66826 0.58766
 H39 H 0.21332 0.76688 0.71757
 H40 H 0.26253 0.70556 0.71890
 H41 H 0.22488 0.77676 0.30574
 H42 H 0.27667 0.71717 0.30687
 H43 H 0.14522 0.85432 0.50957
 H44 H 0.34180 0.62641 0.51300
 C45 C 0.19054 0.17637 -0.42537
 C46 C 0.17851 0.15794 -0.49991
 C47 C 0.19497 0.17366 -0.57390
 C48 C 0.22477 0.20926 -0.57299
 C49 C 0.23889 0.22678 -0.49712
 C50 C 0.22182 0.21016 -0.42312
 C51 C 0.23651 0.22755 -0.34871
 C52 C 0.26760 0.26062 -0.34675
 C53 C 0.28504 0.27753 -0.41911
 C54 C 0.27052 0.26068 -0.49508
 C55 C 0.24244 0.22635 -0.64523
 C56 C 0.27277 0.26019 -0.64325
 C57 C 0.28801 0.27719 -0.56886
 C58 C 0.31982 0.31083 -0.56607
 C59 C 0.33283 0.32768 -0.49048
 C60 C 0.31693 0.31074 -0.41749
 H61 H 0.22429 0.21542 -0.29122
 H62 H 0.27788 0.27290 -0.28791
 H63 H 0.23333 0.21348 -0.70422
 H64 H 0.28468 0.27255 -0.70081
 H65 H 0.15455 0.13180 -0.50046
 H66 H 0.35772 0.35286 -0.48809
 C67 C -0.31952 0.68740 -0.42040
 C68 C -0.33272 0.67005 -0.49543
 C69 C -0.31928 0.68836 -0.56944
 C70 C -0.28862 0.72299 -0.56908
 C71 C -0.27295 0.73944 -0.49366
 C72 C -0.28854 0.72183 -0.41904
 C73 C -0.27169 0.73802 -0.34523
 C74 C -0.24105 0.77157 -0.34449
 C75 C -0.22550 0.78961 -0.41752
 C76 C -0.24133 0.77334 -0.49286
 C77 C -0.27233 0.74064 -0.64206
 C78 C -0.24157 0.77403 -0.64120
 C79 C -0.22501 0.79034 -0.56735
 C80 C -0.19290 0.82367 -0.56579
 C81 C -0.17910 0.84045 -0.49074
 C82 C -0.19398 0.82318 -0.41726
 H83 H -0.28199 0.72470 -0.28727
 H84 H -0.22942 0.78312 -0.28604
 H85 H -0.28314 0.72856 -0.70068
 H86 H -0.23056 0.78678 -0.69913
 H87 H -0.35667 0.64386 -0.49632
 H88 H -0.15407 0.86549 -0.48920
 N89 N -0.04605 0.95380 0.15337
 N90 N -0.07259 0.94409 0.21314
 N91 N 0.04325 0.92039 0.09737
 N92 N 0.06964 0.88770 0.11707
 N93 N 0.04415 0.95140 0.15318
 N94 N 0.07112 0.94058 0.21231
 N95 N -0.04711 0.92287 0.09743
 N96 N -0.07461 0.89144 0.11771
 C97 C -0.09040 0.90522 0.19001
 C98 C 0.08699 0.90094 0.18870
 N99 N 0.04381 0.95113 -0.13393
 N100 N 0.06995 0.93987 -0.19335
 N101 N -0.04737 0.92268 -0.07800
 N102 N -0.07517 0.89139 -0.09744
 N103 N -0.04653 0.95353 -0.13454
 N104 N -0.07382 0.94411 -0.19374
 N105 N 0.04283 0.92000 -0.07788
 N106 N 0.06825 0.88672 -0.09791
 Mn107 Mn -0.00214 0.92116 0.00976
 C108 C 0.08527 0.89987 -0.16969
 C109 C -0.09169 0.90550 -0.16944
 N110 N 0.04633 1.04653 0.15193
 N111 N 0.07673 1.05253 0.20684
 N112 N -0.04344 1.08049 0.09650
 N113 N -0.06897 1.11353 0.11769
 N114 N -0.04376 1.04926 0.15247
 N115 N -0.06937 1.06029 0.21276
 N116 N 0.04709 1.07810 0.09672
 N117 N 0.07821 1.10666 0.11322
 Mn118 Mn 0.00015 1.00030 0.15318
 C119 C 0.09698 1.08960 0.18144
 C120 C -0.08514 1.10030 0.19027
 N121 N -0.04438 1.04847 -0.13528
 N122 N -0.07460 1.05557 -0.19021
 N123 N 0.04640 1.07814 -0.08001
 N124 N 0.07342 1.10981 -0.10149
 N125 N 0.04582 1.04662 -0.13499
 N126 N 0.07236 1.05600 -0.19489
 N127 N -0.04413 1.08004 -0.08049
 N128 N -0.07433 1.10976 -0.09739
 Mn129 Mn -0.00025 1.00000 -0.13514
 Mn130 Mn 0.00147 1.07977 0.00816
 Cl131 Cl -0.00019 1.00036 0.00899
 C132 C -0.09365 1.09339 -0.16536
 C133 C 0.08962 1.09527 -0.17301
 N134 N 0.54823 0.45336 -0.13576
 N135 N 0.57433 0.44425 -0.19638
 N136 N 0.46056 0.41617 -0.07833
 N137 N 0.43478 0.38283 -0.09670
 N138 N 0.45824 0.44709 -0.13467
 N139 N 0.43087 0.43571 -0.19247
 N140 N 0.55072 0.42251 -0.07926
 N141 N 0.57872 0.39166 -0.10029
 C142 C 0.59340 0.40589 -0.17332
 C143 C 0.41628 0.39571 -0.16795
 N144 N 0.45994 0.44849 0.15288
 N145 N 0.43375 0.43718 0.21218
 N146 N 0.55179 0.42368 0.09705
 N147 N 0.58360 0.39599 0.11446
 N148 N 0.54999 0.45542 0.15136
 N149 N 0.58060 0.45049 0.20651
 N150 N 0.46154 0.41720 0.09769
 N151 N 0.43625 0.38387 0.11810
 Mn152 Mn 0.50618 0.41942 0.00936
 C153 C 0.41900 0.39685 0.18974
 C154 C 0.60185 0.41379 0.18206
 N155 N 0.45175 0.54182 -0.13661
 N156 N 0.42125 0.54666 -0.19183
 N157 N 0.54001 0.57994 -0.08291
 N158 N 0.56532 0.61328 -0.10321
 N159 N 0.54168 0.54866 -0.13813
 N160 N 0.56788 0.56006 -0.19741
 N161 N 0.44968 0.57341 -0.08208
 N162 N 0.41758 0.60079 -0.09919
 Mn163 Mn 0.50002 0.49777 -0.13675
 C164 C 0.39957 0.58299 -0.16707
 C165 C 0.58262 0.60040 -0.17488
 N166 N 0.54300 0.55023 0.14951
 N167 N 0.56975 0.56206 0.20796
 N168 N 0.45078 0.57476 0.09417
 N169 N 0.42311 0.60588 0.11544
 N170 N 0.45303 0.54379 0.15054
 N171 N 0.42689 0.55299 0.21117
 N172 N 0.54088 0.58097 0.09287
 N173 N 0.56630 0.61453 0.11151
 Mn174 Mn 0.50146 0.49943 0.15155
 Mn175 Mn 0.49531 0.57772 0.00542
 Cl176 Cl 0.50074 0.49859 0.00742
 C177 C 0.58425 0.60212 0.18349
 C178 C 0.40809 0.59149 0.18810
 C179 C 0.36030 0.39382 0.28839
 C180 C 0.33623 0.37332 0.34849
 C181 C 0.34039 0.32788 0.36424
 C182 C 0.36980 0.30252 0.31729
 C183 C 0.39482 0.32362 0.25588
 C184 C 0.39025 0.37008 0.24235
 C185 C 0.42527 0.29765 0.21416
 N186 N 0.42994 0.25406 0.23221
 N187 N 0.40686 0.23455 0.29001
 C188 C 0.37739 0.25729 0.33363
 H189 H 0.35640 0.42922 0.27960
 H190 H 0.31452 0.39342 0.38434
 H191 H 0.44604 0.31107 0.16824
 H192 H 0.36064 0.23977 0.38130
 C193 C -0.14960 0.90478 0.28788
 C194 C -0.17471 0.88525 0.34762
 C195 C -0.17203 0.83973 0.36401
 C196 C -0.14302 0.81329 0.31812
 C197 C -0.11691 0.83341 0.25728
 C198 C -0.12014 0.87988 0.24286
 C199 C -0.08659 0.80651 0.21720
 N200 N -0.08317 0.76289 0.23598
 N201 N -0.10737 0.74423 0.29305
 C202 C -0.13674 0.76791 0.33523
 H203 H -0.15229 0.94025 0.27852
 H204 H -0.19595 0.90617 0.38287
 H205 H -0.06485 0.81927 0.17221
 H206 H -0.15434 0.75101 0.38249
 C207 C 0.64424 0.60627 0.28018
 C208 C 0.66768 0.62684 0.34134
 C209 C 0.66154 0.67175 0.35898
 C210 C 0.63117 0.69664 0.31231
 C211 C 0.60672 0.67541 0.25004
 C212 C 0.61301 0.62940 0.23513
 C213 C 0.57505 0.70062 0.20897
 N214 N 0.56879 0.74374 0.22831
 N215 N 0.59147 0.76343 0.28675
 C216 C 0.62204 0.74135 0.32982
 H217 H 0.64937 0.57117 0.27025
 H218 H 0.69019 0.60711 0.37692
 H219 H 0.55462 0.68693 0.16244
 H220 H 0.63844 0.75894 0.37795
 C221 C 0.13022 1.15747 0.23873
 C222 C 0.15432 1.17830 0.29955
 C223 C 0.17983 1.15343 0.35400
 C224 C 0.18437 1.10715 0.34106
 C225 C 0.16061 1.08620 0.27818
 C226 C 0.13116 1.11128 0.23028
 C227 C 0.16739 1.04062 0.26511
 N228 N 0.19534 1.01772 0.31307
 N229 N 0.21727 1.03729 0.37272
 C230 C 0.21293 1.08114 0.38813
 H231 H 0.10823 1.17726 0.20227
 H232 H 0.15019 1.21362 0.30833
 H233 H 0.15170 1.02314 0.21595
 H234 H 0.23244 1.09546 0.43599
 C235 C 0.65269 0.40615 -0.27080
 C236 C 0.67732 0.38729 -0.33181
 C237 C 0.67334 0.34232 -0.35145
 C238 C 0.64311 0.31589 -0.30821
 C239 C 0.61772 0.33531 -0.24578
 C240 C 0.62259 0.38108 -0.22757
 C241 C 0.58641 0.30868 -0.20784
 N242 N 0.58123 0.26589 -0.23043
 N243 N 0.60461 0.24792 -0.28930
 C244 C 0.63491 0.27146 -0.32946
 H245 H 0.65636 0.44123 -0.25874
 H246 H 0.69952 0.40827 -0.36490
 H247 H 0.56531 0.32116 -0.16154
 H248 H 0.65169 0.25528 -0.37846
 C249 C 0.14955 0.89150 -0.25465
 C250 C 0.17380 0.86967 -0.31315
 C251 C 0.16154 0.82787 -0.34135
 C252 C 0.12494 0.80689 -0.30792
 C253 C 0.10009 0.82908 -0.24830
 C254 C 0.11247 0.87209 -0.22234
 C255 C 0.06237 0.80825 -0.22052
 N256 N 0.05127 0.76773 -0.24911
 N257 N 0.07495 0.74678 -0.30424
 C258 C 0.11123 0.76503 -0.33491
 H259 H 0.15908 0.92452 -0.23627
 H260 H 0.20128 0.88637 -0.33941
 H261 H 0.04117 0.82370 -0.17729
 H262 H 0.12892 0.74672 -0.38026
 C263 C 0.36524 0.65051 -0.22355
 C264 C 0.34138 0.67165 -0.28449
 C265 C 0.31712 0.64704 -0.34080
 C266 C 0.31362 0.60046 -0.32981
 C267 C 0.33734 0.57911 -0.26696
 C268 C 0.36548 0.60422 -0.21697
 C269 C 0.33175 0.53318 -0.25592
 N270 N 0.30483 0.51037 -0.30560
 N271 N 0.28281 0.53036 -0.36504
 C272 C 0.28608 0.57454 -0.37859
 H273 H 0.38622 0.67032 -0.18544
 H274 H 0.34479 0.70717 -0.29176
 H275 H 0.34751 0.51532 -0.20698
 H276 H 0.26648 0.58915 -0.42632
 C277 C -0.12476 1.16245 -0.22340
 C278 C -0.14806 1.18421 -0.28461
 C279 C -0.17420 1.16037 -0.33913
 C280 C -0.18022 1.11428 -0.32571
 C281 C -0.15724 1.09240 -0.26244
 C282 C -0.12711 1.11633 -0.21456
 C283 C -0.16546 1.04708 -0.24896
 N284 N -0.19406 1.02529 -0.29680
 N285 N -0.21532 1.04573 -0.35672
 C286 C -0.20957 1.08941 -0.37256
 H287 H -0.10225 1.18140 -0.18698
 H288 H -0.14274 1.21935 -0.29368
 H289 H -0.15039 1.02898 -0.19954
 H290 H -0.22860 1.10451 -0.42058
 C291 C 0.64088 0.60381 -0.27470
 C292 C 0.66473 0.62457 -0.33490
 C293 C 0.66069 0.67012 -0.34986
 C294 C 0.63176 0.69535 -0.30153
 C295 C 0.60702 0.67401 -0.23989
 C296 C 0.61130 0.62739 -0.22753
 C297 C 0.57709 0.69994 -0.19676
 N298 N 0.57253 0.74366 -0.21381
 N299 N 0.59522 0.76335 -0.27194
 C300 C 0.62420 0.74071 -0.31684
 H301 H 0.64463 0.56835 -0.26677
 H302 H 0.68607 0.60454 -0.37165
 H303 H 0.55662 0.68646 -0.15047
 H304 H 0.64052 0.75844 -0.36474
 C305 C 0.15215 1.09767 -0.26368
 C306 C 0.17673 1.11706 -0.32466
 C307 C 0.16801 1.16017 -0.35162
 C308 C 0.13461 1.18479 -0.31459
 C309 C 0.10946 1.16511 -0.25222
 C310 C 0.11818 1.12079 -0.22741
 C311 C 0.07499 1.18988 -0.22048
 N312 N 0.06719 1.23154 -0.24808
 N313 N 0.09105 1.25002 -0.30596
 C314 C 0.12426 1.22803 -0.34047
 H315 H 0.15888 1.06367 -0.24631
 H316 H 0.20180 1.09771 -0.35326
 H317 H 0.05373 1.17677 -0.17485
 H318 H 0.14205 1.24451 -0.38809
 C319 C 0.35214 0.39026 -0.25544
 C320 C 0.32759 0.36979 -0.31557
 C321 C 0.33741 0.32687 -0.34131
 C322 C 0.37146 0.30330 -0.30301
 C323 C 0.39672 0.32415 -0.24176
 C324 C 0.38728 0.36852 -0.21907
 C325 C 0.43204 0.30049 -0.20933
 N326 N 0.44048 0.25876 -0.23509
 N327 N 0.41645 0.23916 -0.29176
 C328 C 0.38244 0.26005 -0.32690
 H329 H 0.34473 0.42422 -0.23953
 H330 H 0.30206 0.38839 -0.34524
 H331 H 0.45342 0.31448 -0.16451
 H332 H 0.36443 0.24267 -0.37333
 C333 C -0.15634 0.90167 -0.25573
 C334 C -0.18178 0.88159 -0.31496
 C335 C -0.17228 0.83886 -0.34223
 C336 C -0.13741 0.81517 -0.30703
 C337 C -0.11132 0.83560 -0.24677
 C338 C -0.12079 0.87957 -0.22192
 C339 C -0.07521 0.81204 -0.21739
 N340 N -0.06682 0.77067 -0.24511
 N341 N -0.09166 0.75139 -0.30088
 C342 C -0.12647 0.77227 -0.33310
 H343 H -0.16358 0.93542 -0.23813
 H344 H -0.20786 0.90030 -0.34261
 H345 H -0.05311 0.82594 -0.17362
 H346 H -0.14512 0.75517 -0.37900
 C347 C 0.34476 0.59520 0.27691
 C348 C 0.32013 0.61510 0.33717
 C349 C 0.33010 0.65756 0.36548
 C350 C 0.36496 0.68098 0.33058
 C351 C 0.39008 0.66078 0.26892
 C352 C 0.37994 0.61721 0.24265
 C353 C 0.42596 0.68416 0.23929
 N354 N 0.43517 0.72508 0.26830
 N355 N 0.41137 0.74407 0.32555
 C356 C 0.37679 0.72337 0.35799
 H357 H 0.33704 0.56169 0.25847
 H358 H 0.29405 0.59655 0.36435
 H359 H 0.44720 0.67041 0.19426
 H360 H 0.35909 0.74019 0.40518
 C361 C -0.14358 1.10360 0.28946
 C362 C -0.16666 1.12379 0.35122
 C363 C -0.16048 1.16857 0.37025
 C364 C -0.12976 1.19344 0.32514
 C365 C -0.10603 1.17268 0.26171
 C366 C -0.11287 1.12700 0.24461
 C367 C -0.07443 1.19792 0.22154
 N368 N -0.06727 1.24055 0.24318
 N369 N -0.08894 1.25968 0.30316
 C370 C -0.11945 1.23754 0.34537
 H371 H -0.14896 1.06868 0.27817
 H372 H -0.18939 1.10396 0.38537
 H373 H -0.05467 1.18453 0.17405
 H374 H -0.13477 1.25458 0.39510
 C375 C 0.63256 0.34651 0.24625
 C376 C 0.65697 0.32622 0.30743
 C377 C 0.68571 0.35092 0.35509
 C378 C 0.69226 0.39624 0.33657
 C379 C 0.66729 0.41698 0.27469
 C380 C 0.63571 0.39220 0.23201
 C381 C 0.67482 0.46205 0.25784
 N382 N 0.70486 0.48463 0.30114
 N383 N 0.72796 0.46521 0.35983
 C384 C 0.72272 0.42182 0.37898
 H385 H 0.60870 0.32699 0.21418
 H386 H 0.65143 0.29156 0.32117
 H387 H 0.65776 0.47936 0.20977
 H388 H 0.74273 0.40757 0.42648
 C389 C 0.15043 0.89476 0.27792
 C390 C 0.17506 0.87334 0.33716
 C391 C 0.16519 0.83013 0.36153
 C392 C 0.13084 0.80733 0.32330
 C393 C 0.10545 0.82915 0.26316
 C394 C 0.11524 0.87362 0.24127
 C395 C 0.06968 0.80633 0.23105
 N396 N 0.06106 0.76440 0.25590
 N397 N 0.08531 0.74383 0.31142
 C398 C 0.11969 0.76390 0.34630
 H399 H 0.15799 0.92880 0.26255
 H400 H 0.20077 0.89134 0.36709
 H401 H 0.04795 0.82116 0.18746
 H402 H 0.13782 0.74575 0.39188
   
