data_POSCAR
  _audit_creation_date              2014-09-24
  _audit_creation_method            'ToBaCCo'
  _symmetry_space_group_name_H-M    'P1'
  _symmetry_Int_Tables_number       1
  _symmetry_cell_setting            triclinic
  loop_
  _symmetry_equiv_pos_as_xyz
 x,y,z
_cell_length_a 24.9727
_cell_length_b 25.0315
_cell_length_c 20.4460
_cell_angle_alpha 90.059500
_cell_angle_beta 90.009400
_cell_angle_gamma 90.050100
loop_
  _atom_site_label
  _atom_site_type_symbol
  _atom_site_fract_x
  _atom_site_fract_y
  _atom_site_fract_z
Si1 Si 1.24127 0.25019 0.24867
 Si2 Si 0.75859 -0.24954 0.25151
 Si3 Si 0.75791 0.24976 -0.24879
 Si4 Si 1.24263 -0.24980 -0.25097
 Si5 Si 0.24090 0.24997 0.75061
 Si6 Si 0.75767 0.75003 0.74721
 Si7 Si 0.75816 0.25040 0.24848
 Si8 Si 0.24155 0.74978 0.25087
 O9 O 1.09835 -0.07296 0.11282
 O10 O 1.05273 -0.13590 0.05286
 C11 C 1.08972 -0.12140 0.09433
 O12 O 0.89948 0.06919 0.10792
 O13 O 0.94783 0.13266 0.05232
 C14 C 0.90884 0.11774 0.09050
 O15 O 0.90890 -0.07377 0.11904
 O16 O 0.95081 -0.13596 0.05402
 C17 C 0.91580 -0.12175 0.09788
 O18 O 1.10946 0.06920 0.09299
 O19 O 1.05054 0.13231 0.05550
 C20 C 1.09359 0.11775 0.08680
 Zr21 Zr 1.06733 -0.00095 0.08093
 O22 O 1.06024 0.00790 0.18359
 O23 O 1.15097 -0.00465 0.09628
 Zr24 Zr 0.93737 -0.00168 0.08493
 O25 O 0.95055 0.00199 0.18690
 O26 O 0.85403 -0.00503 0.10254
 O27 O 1.00282 -0.05140 0.09582
 O28 O 1.00224 0.04791 0.09528
 O29 O 1.10633 0.06880 -0.09765
 O30 O 1.05002 0.13236 -0.05547
 C31 C 1.09173 0.11750 -0.08930
 O32 O 0.90038 -0.07236 -0.10887
 O33 O 0.95221 -0.13541 -0.05762
 C34 C 0.91342 -0.12094 -0.09653
 O35 O 0.89666 0.06968 -0.10282
 O36 O 0.94726 0.13308 -0.05014
 C37 C 0.90730 0.11832 -0.08700
 O38 O 1.09372 -0.07310 -0.11697
 O39 O 1.05124 -0.13583 -0.05362
 C40 C 1.08655 -0.12126 -0.09677
 Zr41 Zr 1.06416 -0.00092 -0.08384
 O42 O 1.05337 0.00812 -0.18598
 O43 O 1.14702 -0.00466 -0.10452
 Zr44 Zr 0.93399 -0.00145 -0.08009
 O45 O 0.94380 -0.00004 -0.18267
 O46 O 0.85002 -0.00382 -0.09326
 Zr47 Zr 1.00108 -0.08334 0.00008
 Zr48 Zr 1.00001 0.08052 0.00043
 O49 O 0.99864 0.04791 -0.09439
 O50 O 0.99905 -0.05103 -0.09538
 O51 O 1.07654 0.04539 -0.00165
 O52 O 0.92488 -0.04730 0.00260
 O53 O 1.07693 -0.04654 -0.00179
 O54 O 0.92386 0.04455 0.00271
 H55 H 1.00242 0.07355 0.13231
 H56 H 0.89110 -0.06806 0.00360
 H57 H 0.99779 0.07353 -0.13135
 H58 H 1.11096 -0.06680 -0.00241
 H59 H 0.83628 -0.00222 0.05949
 H60 H 0.83387 0.00123 -0.04956
 H61 H 0.90735 0.00349 -0.20124
 H62 H 1.04583 -0.02776 -0.20424
 H63 H 1.16568 -0.00652 -0.06183
 H64 H 1.16781 -0.00610 0.05247
 H65 H 1.05254 -0.02787 0.20199
 H66 H 0.91467 0.00474 0.20723
 O67 O 1.09252 0.42936 0.61805
 O68 O 1.04691 0.36624 0.55856
 C69 C 1.08230 0.38081 0.60199
 O70 O 0.88908 0.57137 0.58735
 O71 O 0.94960 0.63436 0.55334
 C72 C 0.90549 0.61990 0.58247
 O73 O 0.90114 0.42905 0.61034
 O74 O 0.94745 0.36605 0.55138
 C75 C 0.91023 0.38055 0.59229
 O76 O 1.10034 0.57112 0.60787
 O77 O 1.05235 0.63470 0.55231
 C78 C 1.09108 0.61966 0.59072
 Zr79 Zr 1.06169 0.50068 0.58613
 O80 O 1.04761 0.50699 0.68801
 O81 O 1.14414 0.49709 0.60919
 Zr82 Zr 0.93174 0.50121 0.57806
 O83 O 0.93852 0.50872 0.68067
 O84 O 0.84779 0.49753 0.59146
 O85 O 0.99589 0.45108 0.59542
 O86 O 0.99659 0.55016 0.59440
 O87 O 1.10672 0.57083 0.39940
 O88 O 1.05461 0.63458 0.44899
 C89 C 1.09555 0.61958 0.41374
 O90 O 0.90913 0.42807 0.37978
 O91 O 0.95023 0.36587 0.44527
 C92 C 0.91570 0.38003 0.40095
 O93 O 0.90089 0.57148 0.39135
 O94 O 0.94956 0.63485 0.44684
 C95 C 0.91034 0.61997 0.40897
 O96 O 1.10178 0.42936 0.39268
 O97 O 1.04940 0.36657 0.44389
 C98 C 1.08835 0.38091 0.40511
 Zr99 Zr 1.06852 0.50021 0.42156
 O100 O 1.06155 0.50207 0.31863
 O101 O 1.15289 0.49720 0.41337
 Zr102 Zr 0.93863 0.50051 0.41312
 O103 O 0.95161 0.50713 0.31106
 O104 O 0.85565 0.49735 0.39319
 Zr105 Zr 0.99958 0.41863 0.50007
 Zr106 Zr 1.00083 0.58243 0.49951
 O107 O 1.00423 0.54956 0.40495
 O108 O 1.00385 0.45043 0.40446
 O109 O 1.07690 0.54660 0.50422
 O110 O 0.92388 0.45536 0.49537
 O111 O 1.07576 0.45447 0.50453
 O112 O 0.92443 0.54696 0.49476
 H113 H 0.99572 0.57603 0.63118
 H114 H 0.88992 0.43493 0.49414
 H115 H 1.00558 0.57510 0.36793
 H116 H 1.10921 0.43324 0.50600
 H117 H 0.83164 0.49391 0.54748
 H118 H 0.83719 0.50064 0.43582
 H119 H 0.96104 0.47117 0.29447
 H120 H 1.09856 0.50472 0.30155
 H121 H 1.16739 0.50417 0.45757
 H122 H 1.16366 0.49616 0.56713
 H123 H 1.03889 0.47079 0.70435
 H124 H 0.90197 0.50362 0.69838
 O125 O 0.57072 0.09777 0.61591
 O126 O 0.63438 0.05047 0.55885
 C127 C 0.61990 0.08717 0.60180
 O128 O 0.42805 -0.10075 0.60932
 O129 O 0.36403 -0.05023 0.55740
 C130 C 0.37885 -0.08904 0.59705
 O131 O 0.57025 -0.09430 0.61907
 O132 O 0.63383 -0.05177 0.55641
 C133 C 0.61920 -0.08701 0.60092
 O134 O 0.42788 0.10045 0.61245
 O135 O 0.36417 0.05448 0.55357
 C136 C 0.37888 0.09195 0.59536
 Zr137 Zr 0.49920 0.06689 0.57931
 O138 O 0.49513 0.06511 0.68283
 O139 O 0.50056 0.15137 0.57322
 Zr140 Zr 0.49903 -0.06414 0.58085
 O141 O 0.49608 -0.05274 0.68324
 O142 O 0.50252 -0.14828 0.58959
 O143 O 0.54901 0.00128 0.59303
 O144 O 0.45025 0.00136 0.59202
 O145 O 0.42835 0.10015 0.38404
 O146 O 0.36447 0.05420 0.44261
 C147 C 0.37934 0.09166 0.40105
 O148 O 0.57068 -0.09863 0.38423
 O149 O 0.63453 -0.04978 0.43903
 C150 C 0.61992 -0.08732 0.39753
 O151 O 0.42838 -0.10573 0.39344
 O152 O 0.36431 -0.05164 0.43949
 C153 C 0.37905 -0.09247 0.40256
 O154 O 0.57053 0.09829 0.38149
 O155 O 0.63422 0.05064 0.43808
 C156 C 0.61972 0.08764 0.39564
 Zr157 Zr 0.49931 0.06553 0.41605
 O158 O 0.49492 0.05805 0.31290
 O159 O 0.50238 0.14990 0.41111
 Zr160 Zr 0.49883 -0.06541 0.41691
 O161 O 0.49257 -0.05482 0.31436
 O162 O 0.50131 -0.14894 0.40149
 Zr163 Zr 0.58284 0.00028 0.49833
 Zr164 Zr 0.41548 0.00064 0.49827
 O165 O 0.45002 0.00001 0.40439
 O166 O 0.54908 -0.00019 0.40333
 O167 O 0.45106 0.07703 0.49762
 O168 O 0.54571 -0.07539 0.49904
 O169 O 0.54655 0.07616 0.49781
 O170 O 0.45096 -0.07584 0.49910
 H171 H 0.42595 0.00167 0.63035
 H172 H 0.56729 -0.10855 0.49982
 H173 H 0.42509 -0.00014 0.36664
 H174 H 0.56883 0.10891 0.49803
 H175 H 0.48604 -0.16350 0.54972
 H176 H 0.50760 -0.16574 0.44451
 H177 H 0.52920 -0.05066 0.29661
 H178 H 0.53012 0.04550 0.29683
 H179 H 0.48689 0.16370 0.45230
 H180 H 0.50082 0.16549 0.61859
 H181 H 0.52592 0.04402 0.69899
 H182 H 0.49471 -0.08888 0.70290
 O183 O 0.57079 0.60116 0.11531
 O184 O 0.63480 0.55254 0.06038
 C185 C 0.62005 0.58992 0.10211
 O186 O 0.42901 0.40230 0.11552
 O187 O 0.36505 0.44761 0.05655
 C188 C 0.37996 0.41040 0.09839
 O189 O 0.57133 0.40557 0.11942
 O190 O 0.63504 0.45198 0.06126
 C191 C 0.62051 0.41556 0.10445
 O192 O 0.42844 0.60550 0.10916
 O193 O 0.36461 0.55330 0.05913
 C194 C 0.37916 0.59316 0.09784
 Zr195 Zr 0.49941 0.56840 0.08095
 O196 O 0.49400 0.56304 0.18421
 O197 O 0.50346 0.65284 0.08474
 Zr198 Zr 0.50003 0.43752 0.08405
 O199 O 0.49957 0.45121 0.18605
 O200 O 0.50000 0.35364 0.09718
 O201 O 0.54966 0.50332 0.09561
 O202 O 0.45070 0.50278 0.09454
 O203 O 0.42901 0.60445 -0.10739
 O204 O 0.36485 0.55184 -0.05875
 C205 C 0.37974 0.59163 -0.09694
 O206 O 0.57121 0.40231 -0.11464
 O207 O 0.63493 0.45106 -0.05918
 C208 C 0.62041 0.41352 -0.10112
 O209 O 0.42926 0.40063 -0.11331
 O210 O 0.36534 0.44664 -0.05495
 C211 C 0.38022 0.40903 -0.09651
 O212 O 0.57118 0.59594 -0.12019
 O213 O 0.63483 0.55361 -0.05749
 C214 C 0.62019 0.58865 -0.10220
 Zr215 Zr 0.49966 0.56550 -0.08266
 O216 O 0.49606 0.55171 -0.18455
 O217 O 0.50122 0.64897 -0.09881
 Zr218 Zr 0.50007 0.43481 -0.07971
 O219 O 0.49615 0.43905 -0.18317
 O220 O 0.50367 0.35028 -0.07977
 Zr221 Zr 0.58356 0.50193 0.00078
 Zr222 Zr 0.41611 0.50108 0.00069
 O223 O 0.45077 0.49997 -0.09319
 O224 O 0.54994 0.50027 -0.09411
 O225 O 0.45144 0.57769 -0.00106
 O226 O 0.54711 0.42609 0.00234
 O227 O 0.54649 0.57752 -0.00100
 O228 O 0.45210 0.42488 0.00233
 H229 H 0.42613 0.50301 0.13263
 H230 H 0.56952 0.39350 0.00259
 H231 H 0.42616 0.49962 -0.13125
 H232 H 0.56833 0.61053 -0.00146
 H233 H 0.51303 0.33728 0.05620
 H234 H 0.47905 0.33729 -0.04536
 H235 H 0.52978 0.45542 -0.19923
 H236 H 0.49394 0.58740 -0.20527
 H237 H 0.51114 0.66612 -0.05701
 H238 H 0.48390 0.66672 0.04627
 H239 H 0.52869 0.54967 0.20093
 H240 H 0.49788 0.41554 0.20692
 C241 C 1.19470 0.21206 0.19179
 C242 C 1.14467 0.24276 0.16628
 C243 C 1.11027 0.21298 0.12985
 C244 C 1.12869 0.15555 0.12212
 C245 C 1.18578 0.15892 0.09363
 C246 C 1.22016 0.18921 0.12973
 C247 C 1.17211 0.16297 0.22696
 C248 C 1.13651 0.13494 0.19199
 H249 H 1.13755 0.28489 0.17119
 H250 H 1.07491 0.22956 0.10663
 H251 H 1.19887 0.13687 0.05124
 H252 H 1.26176 0.19480 0.11613
 H253 H 1.18415 0.14889 0.27450
 H254 H 1.11757 0.09934 0.21171
 C255 C 1.19689 0.71165 0.69110
 C256 C 1.22199 0.66273 0.65876
 C257 C 1.18686 0.63445 0.62177
 C258 C 1.12903 0.65709 0.62175
 C259 C 1.11335 0.66191 0.69308
 C260 C 1.14843 0.68950 0.72904
 C261 C 1.17236 0.74261 0.63244
 C262 C 1.13534 0.71431 0.59728
 H263 H 1.26406 0.65264 0.66081
 H264 H 1.19956 0.60049 0.59256
 H265 H 1.07763 0.64411 0.71433
 H266 H 1.14153 0.69284 0.78062
 H267 H 1.18370 0.78276 0.61855
 H268 H 1.11381 0.73083 0.55612
 C269 C 0.71652 0.19667 0.70177
 C270 C 0.74742 0.14577 0.67960
 C271 C 0.71753 0.10874 0.64598
 C272 C 0.65895 0.12490 0.63739
 C273 C 0.63982 0.13695 0.70792
 C274 C 0.66893 0.17453 0.74037
 C275 C 0.69136 0.21746 0.63815
 C276 C 0.66152 0.18046 0.60497
 H277 H 0.78930 0.13874 0.68926
 H278 H 0.73412 0.07150 0.62788
 H279 H 0.60560 0.11766 0.73063
 H280 H 0.65826 0.18761 0.78921
 H281 H 0.69688 0.25779 0.62009
 H282 H 0.64170 0.18980 0.55919
 C283 C 0.71724 0.69810 0.20192
 C284 C 0.74762 0.64674 0.18044
 C285 C 0.71740 0.61010 0.14675
 C286 C 0.65916 0.62723 0.13751
 C287 C 0.63969 0.63973 0.20773
 C288 C 0.66916 0.67685 0.24027
 C289 C 0.69294 0.71914 0.13792
 C290 C 0.66282 0.68250 0.10458
 H291 H 0.78931 0.63912 0.19065
 H292 H 0.73350 0.57252 0.12904
 H293 H 0.60524 0.62077 0.23035
 H294 H 0.65878 0.68974 0.28928
 H295 H 0.69972 0.75915 0.11940
 H296 H 0.64417 0.69165 0.05795
 C297 C 0.80655 -0.21234 0.19479
 C298 C 0.83110 -0.24361 0.13621
 C299 C 0.86916 -0.21589 0.10178
 C300 C 0.87701 -0.15912 0.12771
 C301 C 0.81976 -0.13505 0.12674
 C302 C 0.78330 -0.16262 0.16246
 C303 C 0.85498 -0.19166 0.23409
 C304 C 0.89152 -0.16508 0.19926
 H305 H 0.81790 -0.28293 0.12098
 H306 H 0.88857 -0.23157 0.05834
 H307 H 0.80814 -0.10122 0.09680
 H308 H 0.74134 -0.15186 0.16294
 H309 H 0.86040 -0.19458 0.28598
 H310 H 0.92719 -0.14810 0.22166
 C311 C 0.80522 0.28719 0.69348
 C312 C 0.85352 0.30963 0.73150
 C313 C 0.88843 0.33770 0.69556
 C314 C 0.87294 0.34231 0.62403
 C315 C 0.86692 0.28477 0.59965
 C316 C 0.83036 0.25603 0.63532
 C317 C 0.78003 0.33579 0.66054
 C318 C 0.81499 0.36425 0.62376
 H319 H 0.86079 0.30528 0.78291
 H320 H 0.92428 0.35533 0.71670
 H321 H 0.88736 0.26877 0.55720
 H322 H 0.81910 0.21574 0.62167
 H323 H 0.73781 0.34526 0.66148
 H324 H 0.80186 0.39755 0.59383
 C325 C 0.28343 -0.19710 0.69929
 C326 C 0.30955 -0.21919 0.63690
 C327 C 0.33905 -0.18266 0.60285
 C328 C 0.34018 -0.12630 0.63315
 C329 C 0.28130 -0.11085 0.64024
 C330 C 0.25181 -0.14735 0.67500
 C331 C 0.33014 -0.17311 0.73787
 C332 C 0.35888 -0.13594 0.70438
 H333 H 0.30521 -0.26014 0.62046
 H334 H 0.36001 -0.19302 0.55820
 H335 H 0.26437 -0.07417 0.62104
 H336 H 0.20995 -0.14034 0.68487
 H337 H 0.34026 -0.18437 0.78752
 H338 H 0.39241 -0.11521 0.72678
 C339 C 0.28341 0.30123 0.19754
 C340 C 0.25509 0.32687 0.13751
 C341 C 0.28492 0.36397 0.10416
 C342 C 0.34129 0.37152 0.13191
 C343 C 0.33263 0.38554 0.20423
 C344 C 0.30289 0.34927 0.23811
 C345 C 0.33460 0.27794 0.16807
 C346 C 0.36431 0.31393 0.13354
 H347 H 0.21572 0.31548 0.12052
 H348 H 0.27028 0.38429 0.06092
 H349 H 0.34866 0.42132 0.22706
 H350 H 0.29443 0.35453 0.28963
 H351 H 0.34600 0.23628 0.17227
 H352 H 0.40055 0.30207 0.10809
 C353 C 0.80381 0.21187 -0.19007
 C354 C 0.77770 0.16386 -0.15675
 C355 C 0.81203 0.13530 -0.11921
 C356 C 0.87031 0.15652 -0.11927
 C357 C 0.88617 0.16020 -0.19082
 C358 C 0.85193 0.18848 -0.22742
 C359 C 0.82909 0.24317 -0.13212
 C360 C 0.86522 0.21439 -0.09605
 H361 H 0.73540 0.15471 -0.15835
 H362 H 0.79838 0.10211 -0.08935
 H363 H 0.92190 0.14198 -0.21143
 H364 H 0.85961 0.19262 -0.27883
 H365 H 0.81890 0.28394 -0.11952
 H366 H 0.88711 0.23113 -0.05525
 C367 C 0.80426 0.71226 0.30985
 C368 C 0.77929 0.66294 0.34143
 C369 C 0.81444 0.63455 0.37813
 C370 C 0.87214 0.65763 0.37891
 C371 C 0.88813 0.66330 0.30782
 C372 C 0.85296 0.69066 0.27200
 C373 C 0.82833 0.74302 0.36914
 C374 C 0.86506 0.71453 0.40466
 H375 H 0.73720 0.65281 0.33939
 H376 H 0.80173 0.60048 0.40708
 H377 H 0.92378 0.64557 0.28635
 H378 H 0.85956 0.69346 0.22033
 H379 H 0.81569 0.78260 0.38400
 H380 H 0.88388 0.72974 0.44877
 C381 C 0.28304 0.19979 0.30073
 C382 C 0.33346 0.22372 0.33149
 C383 C 0.36306 0.18803 0.36652
 C384 C 0.34065 0.13016 0.36735
 C385 C 0.28381 0.13686 0.39392
 C386 C 0.25405 0.17362 0.35995
 C387 C 0.30371 0.15214 0.26044
 C388 C 0.33326 0.11619 0.29484
 H389 H 0.34439 0.26556 0.32776
 H390 H 0.39880 0.20026 0.39281
 H391 H 0.26889 0.11647 0.43701
 H392 H 0.21429 0.18451 0.37603
 H393 H 0.29623 0.14684 0.20873
 H394 H 0.35003 0.08068 0.27223
 C395 C 0.28378 0.69837 -0.20036
 C396 C 0.25276 0.64803 -0.17668
 C397 C 0.28249 0.61203 -0.14154
 C398 C 0.34101 0.62855 -0.13340
 C399 C 0.36037 0.63866 -0.20423
 C400 C 0.33136 0.67532 -0.23815
 C401 C 0.30882 0.72087 -0.13749
 C402 C 0.33859 0.68484 -0.10299
 H403 H 0.21111 0.64029 -0.18700
 H404 H 0.26593 0.57507 -0.12258
 H405 H 0.39459 0.61871 -0.22600
 H406 H 0.34195 0.68695 -0.28753
 H407 H 0.30356 0.76173 -0.12108
 H408 H 0.35891 0.69554 -0.05801
 C409 C 1.19479 -0.21226 -0.19449
 C410 C 1.21848 -0.16258 -0.16232
 C411 C 1.18238 -0.13478 -0.12639
 C412 C 1.12500 -0.15857 -0.12708
 C413 C 1.11015 -0.16448 -0.19851
 C414 C 1.14627 -0.19151 -0.23350
 C415 C 1.17020 -0.24329 -0.13583
 C416 C 1.13241 -0.21537 -0.10138
 H417 H 1.26046 -0.15193 -0.16308
 H418 H 1.19434 -0.10093 -0.09658
 H419 H 1.07436 -0.14759 -0.22058
 H420 H 1.14011 -0.19507 -0.28514
 H421 H 1.18278 -0.28278 -0.12079
 H422 H 1.11218 -0.23130 -0.05876
 C423 C 1.19273 0.28727 0.30407
 C424 C 1.17025 0.33568 0.26776
 C425 C 1.13302 0.36285 0.30080
 C426 C 1.12389 0.34275 0.37084
 C427 C 1.10662 0.28498 0.36299
 C428 C 1.14253 0.25568 0.32797
 C429 C 1.21621 0.31085 0.36689
 C430 C 1.18031 0.34038 0.40166
 H431 H 1.18321 0.34985 0.22063
 H432 H 1.11337 0.39737 0.27936
 H433 H 1.07087 0.26796 0.38484
 H434 H 1.13631 0.21340 0.32277
 H435 H 1.25722 0.30506 0.38281
 H436 H 1.19116 0.36064 0.44652
 C437 C 0.71719 -0.19652 0.29984
 C438 C 0.67023 -0.17438 0.26019
 C439 C 0.64074 -0.13693 0.29209
 C440 C 0.65910 -0.12495 0.36288
 C441 C 0.66120 -0.18035 0.39564
 C442 C 0.69131 -0.21734 0.36303
 C443 C 0.74804 -0.14572 0.32242
 C444 C 0.71781 -0.10870 0.35542
 H445 H 0.66064 -0.18692 0.21080
 H446 H 0.60703 -0.11738 0.26867
 H447 H 0.64155 -0.18935 0.44171
 H448 H 0.69708 -0.25748 0.38162
 H449 H 0.79006 -0.13877 0.31337
 H450 H 0.73422 -0.07142 0.37374
 C451 C 0.71669 0.30330 -0.20000
 C452 C 0.74799 0.35392 -0.17751
 C453 C 0.71825 0.39121 -0.14418
 C454 C 0.65943 0.37558 -0.13626
 C455 C 0.64069 0.36371 -0.20700
 C456 C 0.66962 0.32588 -0.23915
 C457 C 0.69085 0.28274 -0.13667
 C458 C 0.66118 0.32000 -0.10383
 H459 H 0.79000 0.36058 -0.18689
 H460 H 0.73510 0.42833 -0.12598
 H461 H 0.60685 0.38334 -0.23006
 H462 H 0.65922 0.31294 -0.28814
 H463 H 0.69575 0.24236 -0.11855
 H464 H 0.64091 0.31081 -0.05830
 C465 C 1.19434 0.21149 -0.19249
 C466 C 1.17103 0.16313 -0.22861
 C467 C 1.13480 0.13534 -0.19440
 C468 C 1.12742 0.15508 -0.12402
 C469 C 1.18470 0.15701 -0.09567
 C470 C 1.21957 0.18733 -0.13109
 C471 C 1.14481 0.24254 -0.16587
 C472 C 1.10998 0.21282 -0.13019
 H473 H 1.18355 0.14894 -0.27596
 H474 H 1.11561 0.10008 -0.21476
 H475 H 1.19758 0.13360 -0.05430
 H476 H 1.26136 0.19185 -0.11771
 H477 H 1.13871 0.28492 -0.16836
 H478 H 1.07527 0.22974 -0.10588
 C479 C 1.19829 0.71250 0.30727
 C480 C 1.14857 0.68981 0.27185
 C481 C 1.11485 0.66192 0.30966
 C482 C 1.13257 0.65744 0.38039
 C483 C 1.19052 0.63533 0.37765
 C484 C 1.22432 0.66363 0.33899
 C485 C 1.17503 0.74339 0.36705
 C486 C 1.13940 0.71486 0.40413
 H487 H 1.13965 0.69320 0.22067
 H488 H 1.07856 0.64388 0.29021
 H489 H 1.20446 0.60166 0.40642
 H490 H 1.26624 0.65332 0.33542
 H491 H 1.18584 0.78385 0.38019
 H492 H 1.11913 0.73149 0.44618
 C493 C 0.71675 0.19756 0.29781
 C494 C 0.74751 0.14657 0.31985
 C495 C 0.71739 0.10943 0.35280
 C496 C 0.65882 0.12564 0.36097
 C497 C 0.66125 0.18107 0.39397
 C498 C 0.69135 0.21819 0.36139
 C499 C 0.66932 0.17564 0.25865
 C500 C 0.64005 0.13796 0.29046
 H501 H 0.78948 0.13960 0.31091
 H502 H 0.73388 0.07217 0.37089
 H503 H 0.64131 0.19016 0.43976
 H504 H 0.69712 0.25838 0.37995
 H505 H 0.65890 0.18886 0.20983
 H506 H 0.60596 0.11877 0.26727
 C507 C 0.71603 0.69855 -0.20157
 C508 C 0.69526 0.65141 -0.24277
 C509 C 0.66593 0.61476 -0.20893
 C510 C 0.65880 0.62759 -0.13601
 C511 C 0.71580 0.63428 -0.10968
 C512 C 0.74535 0.67163 -0.14312
 C513 C 0.66570 0.72177 -0.16991
 C514 C 0.63633 0.68540 -0.13549
 H515 H 0.70260 0.64707 -0.29470
 H516 H 0.64913 0.57953 -0.23221
 H517 H 0.73092 0.61355 -0.06692
 H518 H 0.78522 0.68247 -0.12724
 H519 H 0.65479 0.76365 -0.17242
 H520 H 0.60086 0.69717 -0.10845
 C521 C 0.80693 -0.21366 -0.19682
 C522 C 0.85781 -0.24540 -0.17561
 C523 C 0.89449 -0.21656 -0.14091
 C524 C 0.87714 -0.15905 -0.13045
 C525 C 0.86612 -0.13764 -0.19955
 C526 C 0.82834 -0.16435 -0.23217
 C527 C 0.78485 -0.19163 -0.13233
 C528 C 0.82155 -0.16280 -0.09752
 H529 H 0.86386 -0.28759 -0.18238
 H530 H 0.93076 -0.23381 -0.12074
 H531 H 0.88553 -0.10297 -0.22104
 H532 H 0.81493 -0.14973 -0.27888
 H533 H 0.74455 -0.19899 -0.11471
 H534 H 0.81248 -0.14562 -0.05000
 C535 C 0.80654 0.28803 0.30485
 C536 C 0.85486 0.30862 0.26522
 C537 C 0.89126 0.33597 0.29957
 C538 C 0.87700 0.34234 0.37109
 C539 C 0.81970 0.36607 0.37213
 C540 C 0.78323 0.33791 0.33703
 C541 C 0.83152 0.25734 0.36342
 C542 C 0.86960 0.28557 0.39730
 H543 H 0.86058 0.30475 0.21353
 H544 H 0.92688 0.35279 0.27694
 H545 H 0.80806 0.40018 0.40170
 H546 H 0.74122 0.34835 0.33714
 H547 H 0.81895 0.21783 0.37866
 H548 H 0.89014 0.26985 0.43981
 C549 C 0.28197 -0.20036 0.29871
 C550 C 0.30587 -0.22179 0.36304
 C551 C 0.33584 -0.18558 0.39738
 C552 C 0.34004 -0.12991 0.36580
 C553 C 0.36020 -0.14195 0.29568
 C554 C 0.33085 -0.17869 0.26178
 C555 C 0.25195 -0.14872 0.32067
 C556 C 0.28197 -0.11264 0.35563
 H557 H 0.30002 -0.26214 0.38072
 H558 H 0.35515 -0.19581 0.44314
 H559 H 0.39525 -0.12313 0.27431
 H560 H 0.34204 -0.19105 0.21285
 H561 H 0.21060 -0.14016 0.30969
 H562 H 0.26582 -0.07511 0.37341
 C563 C 0.28329 0.30063 -0.19744
 C564 C 0.30193 0.34952 -0.23696
 C565 C 0.33178 0.38551 -0.20255
 C566 C 0.34143 0.37037 -0.13075
 C567 C 0.28549 0.36182 -0.10228
 C568 C 0.25556 0.32504 -0.13615
 C569 C 0.33500 0.27729 -0.16951
 C570 C 0.36485 0.31295 -0.13451
 H571 H 0.29280 0.35551 -0.28820
 H572 H 0.34725 0.42180 -0.22464
 H573 H 0.27127 0.38112 -0.05810
 H574 H 0.21661 0.31296 -0.11858
 H575 H 0.34663 0.23580 -0.17500
 H576 H 0.40146 0.30086 -0.11012
 C577 C 1.19601 -0.21374 0.19627
 C578 C 1.22044 -0.16422 0.16420
 C579 C 1.18522 -0.13622 0.12715
 C580 C 1.12760 -0.15930 0.12616
 C581 C 1.13501 -0.21639 0.10120
 C582 C 1.17186 -0.24465 0.13693
 C583 C 1.14668 -0.19227 0.23358
 C584 C 1.11157 -0.16479 0.19731
 H585 H 1.26236 -0.15344 0.16614
 H586 H 1.19801 -0.10237 0.09792
 H587 H 1.11521 -0.23247 0.05832
 H588 H 1.18362 -0.28456 0.12257
 H589 H 1.13898 -0.19599 0.28496
 H590 H 1.07542 -0.14765 0.21820
 C591 C 1.19127 0.28761 0.69677
 C592 C 1.16917 0.33525 0.73506
 C593 C 1.13049 0.36225 0.70451
 C594 C 1.11963 0.34312 0.63440
 C595 C 1.17532 0.34220 0.60129
 C596 C 1.21274 0.31265 0.63380
 C597 C 1.14097 0.25569 0.67364
 C598 C 1.10358 0.28500 0.64123
 H599 H 1.18384 0.34946 0.78146
 H600 H 1.11131 0.39632 0.72766
 H601 H 1.18458 0.36372 0.55684
 H602 H 1.25351 0.30801 0.61642
 H603 H 1.13623 0.21308 0.67571
 H604 H 1.06800 0.26760 0.61935
 C605 C 0.71551 -0.19789 0.69769
 C606 C 0.69701 -0.15004 0.73926
 C607 C 0.66739 -0.11307 0.70634
 C608 C 0.65781 -0.12632 0.63395
 C609 C 0.71376 -0.13432 0.60512
 C610 C 0.74350 -0.17198 0.63758
 C611 C 0.66376 -0.22036 0.66867
 C612 C 0.63415 -0.18371 0.63513
 H613 H 0.70606 -0.14551 0.79078
 H614 H 0.65202 -0.07736 0.72991
 H615 H 0.72794 -0.11429 0.56136
 H616 H 0.78252 -0.18377 0.61979
 H617 H 0.65207 -0.26200 0.67212
 H618 H 0.59773 -0.19509 0.60974
 C619 C 0.71694 0.30417 0.20048
 C620 C 0.68991 0.28394 0.13772
 C621 C 0.66005 0.32156 0.10582
 C622 C 0.65946 0.37712 0.13858
 C623 C 0.64172 0.36539 0.20964
 C624 C 0.67077 0.32722 0.24087
 C625 C 0.74844 0.35444 0.17742
 C626 C 0.71856 0.39211 0.14509
 H627 H 0.69438 0.24359 0.11915
 H628 H 0.63901 0.31272 0.06068
 H629 H 0.60852 0.38543 0.23361
 H630 H 0.66115 0.31449 0.29013
 H631 H 0.79071 0.36056 0.18551
 H632 H 0.73552 0.42903 0.12653
 C633 C 0.80363 0.21148 0.19015
 C634 C 0.85198 0.18919 0.22821
 C635 C 0.88674 0.16094 0.19258
 C636 C 0.87106 0.15573 0.12130
 C637 C 0.81308 0.13359 0.12153
 C638 C 0.77817 0.16251 0.15803
 C639 C 0.82843 0.24190 0.13132
 C640 C 0.86516 0.21298 0.09635
 H641 H 0.85902 0.19301 0.27971
 H642 H 0.92229 0.14303 0.21403
 H643 H 0.80004 0.09967 0.09242
 H644 H 0.73593 0.15307 0.15934
 H645 H 0.81731 0.28210 0.11727
 H646 H 0.88667 0.22905 0.05490
 C647 C 0.80382 0.71293 0.68839
 C648 C 0.85462 0.74374 0.66509
 C649 C 0.88925 0.71454 0.62822
 C650 C 0.87010 0.65763 0.61755
 C651 C 0.86083 0.63533 0.68642
 C652 C 0.82530 0.66277 0.72184
 C653 C 0.77895 0.69214 0.62461
 C654 C 0.81368 0.66296 0.58733
 H655 H 0.86183 0.78577 0.67119
 H656 H 0.92487 0.73147 0.60595
 H657 H 0.87987 0.59973 0.70579
 H658 H 0.81358 0.64827 0.76931
 H659 H 0.73827 0.70059 0.60921
 H660 H 0.80266 0.64658 0.54001
 C661 C 0.28250 0.19974 0.69736
 C662 C 0.25330 0.17374 0.63809
 C663 C 0.28300 0.13713 0.60357
 C664 C 0.34004 0.13035 0.62963
 C665 C 0.36229 0.18830 0.63087
 C666 C 0.33273 0.22384 0.66639
 C667 C 0.30347 0.15192 0.73702
 C668 C 0.33295 0.11615 0.70210
 H669 H 0.21351 0.18477 0.62231
 H670 H 0.26792 0.11696 0.56035
 H671 H 0.39784 0.20071 0.60438
 H672 H 0.34350 0.26572 0.67027
 H673 H 0.29619 0.14635 0.78871
 H674 H 0.34985 0.08057 0.72430
 C675 C 0.28182 0.70050 0.20214
 C676 C 0.25213 0.64842 0.18085
 C677 C 0.28220 0.61252 0.14574
 C678 C 0.33998 0.63043 0.13467
 C679 C 0.33490 0.68597 0.10283
 C680 C 0.30482 0.72199 0.13737
 C681 C 0.33131 0.67963 0.23843
 C682 C 0.36060 0.64304 0.20448
 H683 H 0.21090 0.63952 0.19213
 H684 H 0.26623 0.57479 0.12824
 H685 H 0.35365 0.69623 0.05674
 H686 H 0.29822 0.76222 0.11961
 H687 H 0.34308 0.69253 0.28695
 H688 H 0.39599 0.62476 0.22567
   
