data_POSCAR
  _audit_creation_date              2014-09-24
  _audit_creation_method            'ToBaCCo'
  _symmetry_space_group_name_H-M    'P1'
  _symmetry_Int_Tables_number       1
  _symmetry_cell_setting            triclinic
  loop_
  _symmetry_equiv_pos_as_xyz
 x,y,z
_cell_length_a 31.8852
_cell_length_b 31.8829
_cell_length_c 31.8831
_cell_angle_alpha 89.795300
_cell_angle_beta 90.000200
_cell_angle_gamma 90.001200
loop_
  _atom_site_label
  _atom_site_type_symbol
  _atom_site_fract_x
  _atom_site_fract_y
  _atom_site_fract_z
N1 N 0.19004 0.18890 0.18887
 N2 N -0.18923 0.80961 0.19043
 N3 N -0.18946 0.19046 -0.19042
 N4 N 0.18984 0.81121 -0.18882
 N5 N 0.19010 1.19056 0.80944
 N6 N 0.80959 0.81008 0.81010
 N7 N 0.19011 0.80941 1.19060
 N8 N 0.80960 1.18992 1.18994
 N9 N 0.54504 1.04498 1.07422
 N10 N 0.57688 1.05028 1.10016
 N11 N 0.45673 1.07414 1.04512
 N12 N 0.42482 1.09998 1.05030
 N13 N 0.45676 1.04496 1.07430
 N14 N 0.42488 1.05010 1.10019
 N15 N 0.54500 1.07416 1.04503
 N16 N 0.57682 1.10014 1.05029
 C17 C 0.59626 1.08477 1.08476
 C18 C 0.40544 1.08451 1.08475
 N19 N 0.45647 1.04521 0.92569
 N20 N 0.42460 1.05057 0.89976
 N21 N 0.54477 1.07430 0.95468
 N22 N 0.57660 1.10024 0.94933
 N23 N 0.54474 1.04522 0.92560
 N24 N 0.57655 1.05054 0.89963
 N25 N 0.45650 1.07430 0.95477
 N26 N 0.42466 1.10026 0.94945
 Mn27 Mn 0.50075 1.07473 0.99990
 C28 C 0.40520 1.08498 0.91505
 C29 C 0.59594 1.08494 0.91491
 N30 N 0.45664 0.95461 1.07447
 N31 N 0.42480 0.94926 1.10045
 N32 N 0.54488 0.92555 1.04530
 N33 N 0.57671 0.89960 1.05059
 N34 N 0.54491 0.95462 1.07437
 N35 N 0.57677 0.94930 1.10029
 N36 N 0.45661 0.92553 1.04539
 N37 N 0.42476 0.89958 1.05076
 Mn38 Mn 0.50084 0.99979 1.07485
 C39 C 0.40537 0.91485 1.08518
 C40 C 0.59613 0.91490 1.08497
 N41 N 0.54489 0.95487 0.92576
 N42 N 0.57670 0.94959 0.89977
 N43 N 0.45665 0.92569 0.95505
 N44 N 0.42476 0.89981 0.94991
 N45 N 0.45662 0.95487 0.92586
 N46 N 0.42470 0.94969 0.90003
 N47 N 0.54492 0.92569 0.95495
 N48 N 0.57674 0.89973 0.94965
 Mn49 Mn 0.50068 1.00004 0.92523
 Mn50 Mn 0.50077 0.92511 1.00017
 Cl51 Cl 0.50076 0.99992 1.00004
 C52 C 0.59612 0.91511 0.91514
 C53 C 0.40531 0.91526 0.91551
 N54 N 0.04475 0.45532 0.07405
 N55 N 0.05007 0.42327 0.09982
 N56 N 0.07383 0.54384 0.04527
 N57 N 0.09976 0.57567 0.05065
 N58 N 0.04475 0.54360 0.07445
 N59 N 0.05006 0.57527 0.10050
 N60 N 0.07384 0.45558 0.04488
 N61 N 0.09980 0.42372 0.04997
 C62 C 0.08449 0.40404 0.08431
 C63 C 0.08447 0.59483 0.08519
 N64 N 0.04458 0.54464 -0.07416
 N65 N 0.04985 0.57667 -0.09998
 N66 N 0.07374 0.45616 -0.04543
 N67 N 0.09967 0.42434 -0.05085
 N68 N 0.04458 0.45636 -0.07453
 N69 N 0.04985 0.42468 -0.10059
 N70 N 0.07373 0.54441 -0.04505
 N71 N 0.09968 0.57627 -0.05022
 Mn72 Mn 0.07428 0.50000 -0.00008
 C73 C 0.08430 0.59592 -0.08456
 C74 C 0.08430 0.40516 -0.08534
 N75 N -0.04559 0.54347 0.07455
 N76 N -0.05071 0.57518 0.10055
 N77 N -0.07479 0.45543 0.04508
 N78 N -0.10077 0.42359 0.05035
 N79 N -0.04560 0.45520 0.07417
 N80 N -0.05092 0.42320 0.10005
 N81 N -0.07475 0.54373 0.04546
 N82 N -0.10056 0.57563 0.05083
 Mn83 Mn -0.00043 0.49939 0.07481
 C84 C -0.08510 0.59476 0.08529
 C85 C -0.08541 0.40392 0.08472
 N86 N -0.04577 0.45650 -0.07444
 N87 N -0.05100 0.42482 -0.10045
 N88 N -0.07487 0.54457 -0.04492
 N89 N -0.10085 0.57643 -0.05014
 N90 N -0.04576 0.54477 -0.07409
 N91 N -0.05111 0.57677 -0.09996
 N92 N -0.07487 0.45628 -0.04529
 N93 N -0.10076 0.42443 -0.05063
 Mn94 Mn -0.00059 0.50057 -0.07481
 Mn95 Mn -0.07533 0.50000 0.00008
 Cl96 Cl -0.00052 0.49999 0.00000
 C97 C -0.08539 0.40529 -0.08513
 C98 C -0.08555 0.59608 -0.08455
 N99 N 1.04470 0.07456 0.54359
 N100 N 1.05002 0.10060 0.57527
 N101 N 1.07373 0.04504 0.45552
 N102 N 1.09968 0.05020 0.42367
 N103 N 1.04461 0.07417 0.45531
 N104 N 1.04991 0.10000 0.42330
 N105 N 1.07382 0.04542 0.54378
 N106 N 1.09978 0.05081 0.57558
 C107 C 1.08447 0.08531 0.59478
 C108 C 1.08433 0.08455 0.40404
 N109 N 1.04462 -0.07443 0.45636
 N110 N 1.04990 -0.10049 0.42469
 N111 N 1.07382 -0.04490 0.54436
 N112 N 1.09978 -0.04999 0.57622
 N113 N 1.04470 -0.07404 0.54464
 N114 N 1.05001 -0.09980 0.57671
 N115 N 1.07374 -0.04528 0.45611
 N116 N 1.09965 -0.05069 0.42427
 Mn117 Mn 1.07428 0.00007 0.49994
 C118 C 1.08431 -0.08521 0.40512
 C119 C 1.08445 -0.08431 0.59592
 N120 N 0.95427 0.07419 0.45527
 N121 N 0.94891 0.10005 0.42326
 N122 N 0.92523 0.04543 0.54381
 N123 N 0.89941 0.05079 0.57571
 N124 N 0.95436 0.07456 0.54354
 N125 N 0.94921 0.10057 0.57523
 N126 N 0.92513 0.04506 0.45552
 N127 N 0.89912 0.05028 0.42369
 Mn128 Mn 0.99948 0.07487 0.49942
 C129 C 0.91442 0.08466 0.40400
 C130 C 0.91485 0.08528 0.59482
 N131 N 0.95436 -0.07407 0.54486
 N132 N 0.94904 -0.09994 0.57686
 N133 N 0.92515 -0.04532 0.45637
 N134 N 0.89927 -0.05068 0.42452
 N135 N 0.95428 -0.07444 0.45659
 N136 N 0.94907 -0.10045 0.42490
 N137 N 0.92522 -0.04494 0.54466
 N138 N 0.89925 -0.05018 0.57652
 Mn139 Mn 0.99949 -0.07475 0.50062
 Mn140 Mn 0.92467 0.00006 0.50009
 Cl141 Cl 0.99948 0.00006 0.50002
 C142 C 0.91458 -0.08457 0.59617
 C143 C 0.91467 -0.08516 0.40537
 C144 C 1.13578 0.13547 0.29856
 C145 C 1.13969 0.17904 0.29484
 C146 C 1.15749 0.19661 0.25880
 C147 C 1.17157 0.17075 0.22607
 C148 C 1.16750 0.12702 0.23005
 C149 C 1.14970 0.10949 0.26612
 C150 C 1.11759 0.11746 0.33572
 C151 C 1.10238 0.10243 0.36691
 H152 H 1.12908 0.19940 0.31982
 H153 H 1.16063 0.23035 0.25653
 H154 H 1.17787 0.10656 0.20509
 H155 H 1.14676 0.07572 0.26870
 C156 C 0.86392 -0.13650 0.30009
 C157 C 0.82036 -0.14037 0.29639
 C158 C 0.80289 -0.15805 0.26038
 C159 C 0.82882 -0.17206 0.22763
 C160 C 0.87255 -0.16804 0.23160
 C161 C 0.88999 -0.15035 0.26765
 C162 C 0.88185 -0.11837 0.33721
 C163 C 0.89682 -0.10320 0.36834
 H164 H 0.79993 -0.12980 0.32137
 H165 H 0.76915 -0.16115 0.25813
 H166 H 0.89308 -0.17835 0.20663
 H167 H 0.92375 -0.14744 0.27020
 C168 C 0.86437 0.13671 0.70019
 C169 C 0.86062 0.18030 0.70355
 C170 C 0.84307 0.19799 0.73954
 C171 C 0.82909 0.17224 0.77258
 C172 C 0.83309 0.12849 0.76898
 C173 C 0.85063 0.11083 0.73297
 C174 C 0.88218 0.11853 0.66304
 C175 C 0.89707 0.10333 0.63189
 H176 H 0.87111 0.20058 0.67831
 H177 H 0.83998 0.23174 0.74149
 H178 H 0.82279 0.10809 0.79418
 H179 H 0.85347 0.07705 0.73069
 C180 C 1.13592 -0.13475 0.70162
 C181 C 1.17951 -0.13852 0.70506
 C182 C 1.19726 -0.15612 0.74111
 C183 C 1.17156 -0.17013 0.77413
 C184 C 1.12781 -0.16609 0.77047
 C185 C 1.11010 -0.14850 0.73439
 C186 C 1.11769 -0.11694 0.66438
 C187 C 1.10248 -0.10206 0.63312
 H188 H 1.19975 -0.12803 0.67982
 H189 H 1.23101 -0.15925 0.74312
 H190 H 1.10746 -0.17642 0.79565
 H191 H 1.07632 -0.14565 0.73204
 C192 C 0.29982 1.13518 1.13562
 C193 C 0.29615 1.13890 1.17918
 C194 C 0.26007 1.15647 1.19670
 C195 C 0.22722 1.17049 1.17080
 C196 C 0.23112 1.16656 1.12707
 C197 C 0.26724 1.14900 1.10959
 C198 C 0.33705 1.11729 1.11763
 C199 C 0.36827 1.10232 1.10261
 H200 H 0.32123 1.12836 1.19959
 H201 H 0.25787 1.15950 1.23044
 H202 H 0.20608 1.17689 1.10656
 H203 H 0.26976 1.14620 1.07583
 C204 C 0.29964 0.86443 0.86488
 C205 C 0.29597 0.82086 0.86116
 C206 C 0.25987 0.80336 0.84360
 C207 C 0.22702 0.82927 0.82959
 C208 C 0.23094 0.87300 0.83352
 C209 C 0.26707 0.89047 0.85108
 C210 C 0.33689 0.88240 0.88275
 C211 C 0.36814 0.89740 0.89770
 H212 H 0.32104 0.80045 0.87169
 H213 H 0.25767 0.76962 0.84056
 H214 H 0.20590 0.89351 0.82320
 H215 H 0.26960 0.92423 0.85388
 C216 C 0.70141 0.86350 1.13615
 C217 C 0.73405 0.88935 1.14998
 C218 C 0.77003 0.87166 1.16772
 C219 C 0.77373 0.82790 1.17185
 C220 C 0.74082 0.80218 1.15782
 C221 C 0.70486 0.81991 1.14007
 C222 C 0.66431 0.88169 1.11807
 C223 C 0.63318 0.89687 1.10296
 H224 H 0.73168 0.92313 1.14703
 H225 H 0.79513 0.89202 1.17806
 H226 H 0.74287 0.76843 1.16100
 H227 H 0.67973 0.79965 1.12953
 C228 C 0.70118 1.13617 0.86346
 C229 C 0.73382 1.15000 0.88931
 C230 C 0.76980 1.16775 0.87162
 C231 C 0.77350 1.17188 0.82786
 C232 C 0.74059 1.15785 0.80215
 C233 C 0.70464 1.14009 0.81987
 C234 C 0.66409 1.11808 0.88166
 C235 C 0.63298 1.10294 0.89685
 H236 H 0.73146 1.14704 0.92309
 H237 H 0.79490 1.17809 0.89199
 H238 H 0.74264 1.16103 0.76839
 H239 H 0.67951 1.12954 0.79961
 C240 C 0.13604 0.29840 0.13478
 C241 C 0.17964 0.29500 0.13857
 C242 C 0.19741 0.25897 0.15618
 C243 C 0.17174 0.22593 0.17020
 C244 C 0.12798 0.22955 0.16614
 C245 C 0.11025 0.26561 0.14854
 C246 C 0.11779 0.33563 0.11696
 C247 C 0.10255 0.36686 0.10207
 H248 H 0.19986 0.32025 0.12807
 H249 H 0.23116 0.25698 0.15932
 H250 H 0.10765 0.20436 0.17648
 H251 H 0.07646 0.26793 0.14568
 C252 C -0.13623 0.30006 -0.13648
 C253 C -0.11019 0.26760 -0.15034
 C254 C -0.12765 0.23157 -0.16804
 C255 C -0.17138 0.22764 -0.17207
 C256 C -0.19729 0.26040 -0.15806
 C257 C -0.17979 0.29640 -0.14036
 C258 C -0.11828 0.33716 -0.11835
 C259 C -0.10327 0.36828 -0.10317
 H260 H -0.07643 0.27013 -0.14742
 H261 H -0.10714 0.20659 -0.17836
 H262 H -0.23103 0.25818 -0.16117
 H263 H -0.20021 0.32139 -0.12979
 C264 C 0.13565 0.70146 -0.13543
 C265 C 0.13956 0.70520 -0.17899
 C266 C 0.15733 0.74126 -0.19655
 C267 C 0.17137 0.77400 -0.17069
 C268 C 0.16730 0.77000 -0.12695
 C269 C 0.14953 0.73391 -0.10943
 C270 C 0.11750 0.66428 -0.11743
 C271 C 0.10232 0.63307 -0.10241
 H272 H 0.12897 0.68022 -0.19937
 H273 H 0.16047 0.74354 -0.23029
 H274 H 0.17766 0.79497 -0.10649
 H275 H 0.14660 0.73132 -0.07567
 C276 C -0.13547 0.70018 0.13669
 C277 C -0.14918 0.73298 0.11081
 C278 C -0.16669 0.76900 0.12846
 C279 C -0.17070 0.77260 0.17221
 C280 C -0.15674 0.73955 0.19797
 C281 C -0.13922 0.70355 0.18028
 C282 C -0.11771 0.66301 0.11852
 C283 C -0.10284 0.63184 0.10333
 H284 H -0.14635 0.73069 0.07703
 H285 H -0.17697 0.79420 0.10806
 H286 H -0.15983 0.74152 0.23172
 H287 H -0.12876 0.67831 0.20057
 C288 C 1.13603 0.13661 0.70000
 C289 C 1.17964 0.14030 0.70351
 C290 C 1.19742 0.15793 0.73946
 C291 C 1.17176 0.17209 0.77238
 C292 C 1.12799 0.16821 0.76861
 C293 C 1.11025 0.15058 0.73264
 C294 C 1.11776 0.11855 0.66289
 C295 C 1.10253 0.10341 0.63180
 H296 H 1.19990 0.12965 0.67843
 H297 H 1.23118 0.16090 0.74150
 H298 H 1.10762 0.17862 0.79367
 H299 H 1.07647 0.14782 0.73029
 C300 C 0.86302 -0.13601 0.70173
 C301 C 0.81949 -0.13638 0.70695
 C302 C 0.80168 -0.15419 0.74291
 C303 C 0.82715 -0.17213 0.77457
 C304 C 0.87112 -0.17138 0.76871
 C305 C 0.88877 -0.15351 0.73269
 C306 C 0.88125 -0.11780 0.66454
 C307 C 0.89647 -0.10261 0.63335
 H308 H 0.79923 -0.12310 0.68307
 H309 H 0.76783 -0.15486 0.74549
 H310 H 0.89197 -0.18386 0.79248
 H311 H 0.92255 -0.15322 0.72907
 C312 C 1.13589 -0.13660 0.29996
 C313 C 1.11016 -0.15058 0.26728
 C314 C 1.12794 -0.16823 0.23134
 C315 C 1.17172 -0.17213 0.22764
 C316 C 1.19733 -0.15796 0.26059
 C317 C 1.17951 -0.14031 0.29650
 C318 C 1.11759 -0.11852 0.33703
 C319 C 1.10235 -0.10335 0.36810
 H320 H 1.07637 -0.14781 0.26958
 H321 H 1.10760 -0.17864 0.20625
 H322 H 1.23109 -0.16094 0.25860
 H323 H 1.19973 -0.12966 0.32161
 C324 C 0.86289 0.13603 0.29840
 C325 C 0.88867 0.15354 0.26748
 C326 C 0.87107 0.17139 0.23143
 C327 C 0.82711 0.17213 0.22550
 C328 C 0.80160 0.15418 0.25713
 C329 C 0.81936 0.13638 0.29311
 C330 C 0.88108 0.11784 0.33562
 C331 C 0.89629 0.10267 0.36683
 H332 H 0.92245 0.15327 0.27115
 H333 H 0.89195 0.18388 0.20769
 H334 H 0.76775 0.15483 0.25449
 H335 H 0.79907 0.12310 0.31696
 C336 C 0.13572 0.29997 -0.13684
 C337 C 0.14986 0.26734 -0.11095
 C338 C 0.16767 0.23139 -0.12856
 C339 C 0.17157 0.22764 -0.17232
 C340 C 0.15727 0.26056 -0.19809
 C341 C 0.13945 0.29647 -0.18044
 C342 C 0.11752 0.33705 -0.11869
 C343 C 0.10233 0.36814 -0.10349
 H344 H 0.14709 0.26967 -0.07717
 H345 H 0.17819 0.20633 -0.10811
 H346 H 0.16024 0.25853 -0.23185
 H347 H 0.12869 0.32155 -0.20078
 C348 C -0.13677 0.29833 0.13631
 C349 C -0.15407 0.26738 0.11061
 C350 C -0.17182 0.23133 0.12833
 C351 C -0.17265 0.22544 0.17232
 C352 C -0.15489 0.25709 0.19773
 C353 C -0.13720 0.29308 0.17986
 C354 C -0.11866 0.33554 0.11801
 C355 C -0.10351 0.36674 0.10277
 H356 H -0.15373 0.27102 0.07681
 H357 H -0.18415 0.20757 0.10752
 H358 H -0.15562 0.25449 0.23159
 H359 H -0.12406 0.31695 0.20008
 C360 C -0.13688 0.70167 -0.13616
 C361 C -0.15422 0.73263 -0.11050
 C362 C -0.17193 0.76867 -0.12825
 C363 C -0.17268 0.77456 -0.17224
 C364 C -0.15487 0.74291 -0.19762
 C365 C -0.13722 0.70693 -0.17971
 C366 C -0.11880 0.66446 -0.11783
 C367 C -0.10366 0.63326 -0.10258
 H368 H -0.15394 0.72898 -0.07670
 H369 H -0.18431 0.79243 -0.10746
 H370 H -0.15553 0.74552 -0.23148
 H371 H -0.12404 0.68306 -0.19991
 C372 C 0.13585 0.70001 0.13673
 C373 C 0.15004 0.73265 0.11088
 C374 C 0.16780 0.76860 0.12854
 C375 C 0.17160 0.77234 0.17232
 C376 C 0.15724 0.73942 0.19804
 C377 C 0.13947 0.70350 0.18034
 C378 C 0.11769 0.66293 0.11853
 C379 C 0.10251 0.63184 0.10332
 H380 H 0.14734 0.73033 0.07709
 H381 H 0.17836 0.79367 0.10812
 H382 H 0.16014 0.74143 0.23181
 H383 H 0.12867 0.67841 0.20065
 C384 C 0.29973 1.13655 0.86369
 C385 C 0.26715 1.11074 0.84961
 C386 C 0.23113 1.12845 0.83186
 C387 C 0.22724 1.17223 0.82797
 C388 C 0.26010 1.19792 0.84225
 C389 C 0.29610 1.18017 0.85999
 C390 C 0.33691 1.11831 0.88183
 C391 C 0.36808 1.10309 0.89699
 H392 H 0.26959 1.07695 0.85236
 H393 H 0.20612 1.10805 0.82137
 H394 H 0.25798 1.23169 0.83928
 H395 H 0.32113 1.20045 0.87072
 C396 C 0.29987 0.86336 1.13655
 C397 C 0.29621 0.81974 1.14026
 C398 C 0.26018 0.80201 1.15795
 C399 C 0.22730 0.82772 1.17214
 C400 C 0.23120 0.87150 1.16824
 C401 C 0.26727 0.88918 1.15056
 C402 C 0.33707 0.88157 1.11843
 C403 C 0.36824 0.89678 1.10327
 H404 H 0.32126 0.79944 1.12959
 H405 H 0.25803 0.76824 1.16092
 H406 H 0.20618 0.89190 1.17867
 H407 H 0.26972 0.92297 1.14779
 C408 C 0.70154 1.13638 1.13613
 C409 C 0.70665 1.17993 1.13645
 C410 C 0.74252 1.19777 1.15421
 C411 C 0.77418 1.17233 1.17214
 C412 C 0.76843 1.12834 1.17143
 C413 C 0.73251 1.11066 1.15361
 C414 C 0.66444 1.11812 1.11797
 C415 C 0.63333 1.10288 1.10281
 H416 H 0.68276 1.20017 1.12318
 H417 H 0.74502 1.23163 1.15485
 H418 H 0.79222 1.10751 1.18390
 H419 H 0.72896 1.07686 1.15335
 C420 C 0.70142 0.86356 0.86375
 C421 C 0.70654 0.82001 0.86342
 C422 C 0.74244 0.80219 0.84571
 C423 C 0.77413 0.82765 0.82784
 C424 C 0.76836 0.87164 0.82855
 C425 C 0.73240 0.88930 0.84632
 C426 C 0.66430 0.88181 0.88189
 C427 C 0.63319 0.89703 0.89706
 H428 H 0.68264 0.79976 0.87665
 H429 H 0.74496 0.76833 0.84507
 H430 H 0.79216 0.89247 0.81612
 H431 H 0.72885 0.92310 0.84658
   
