data_POSCAR
  _audit_creation_date              2014-09-24
  _audit_creation_method            'ToBaCCo'
  _symmetry_space_group_name_H-M    'P1'
  _symmetry_Int_Tables_number       1
  _symmetry_cell_setting            triclinic
  loop_
  _symmetry_equiv_pos_as_xyz
 x,y,z
_cell_length_a 64.2985
_cell_length_b 63.9946
_cell_length_c 21.6016
_cell_angle_alpha 90.060500
_cell_angle_beta 90.147500
_cell_angle_gamma 119.634200
loop_
  _atom_site_label
  _atom_site_type_symbol
  _atom_site_fract_x
  _atom_site_fract_y
  _atom_site_fract_z
O1 O 0.26555 0.48921 0.56111
 O2 O 0.22261 0.48745 0.44459
 O3 O 0.26162 0.48462 0.44129
 O4 O 0.22494 0.48943 0.56477
 O5 O 0.24508 0.52897 0.55745
 O6 O 0.28247 0.52417 0.43464
 O7 O 0.24318 0.52697 0.43840
 O8 O 0.28580 0.52876 0.55373
 Cu9 Cu 0.24165 0.48373 0.50377
 Cu10 Cu 0.26620 0.53115 0.49544
 C11 C 0.28330 0.50938 0.57641
 C12 C 0.22535 0.50706 0.42228
 C13 C 0.27848 0.50349 0.41733
 C14 C 0.22830 0.50991 0.58128
 O15 O 0.50537 -0.26858 0.43537
 O16 O 0.50434 -0.22923 0.55797
 O17 O 0.50554 -0.26937 0.55588
 O18 O 0.50519 -0.22797 0.43796
 O19 O 0.46571 -0.24793 0.43730
 O20 O 0.46613 -0.28973 0.55411
 O21 O 0.46486 -0.24933 0.55667
 O22 O 0.46595 -0.28884 0.43482
 Cu23 Cu 0.50906 -0.24680 0.49694
 Cu24 Cu 0.46172 -0.27098 0.49562
 C25 C 0.48583 -0.28577 0.41478
 C26 C 0.48441 -0.23225 0.57735
 C27 C 0.48594 -0.28693 0.57451
 C28 C 0.48540 -0.23058 0.41832
 O29 O 1.26669 0.78175 0.44397
 O30 O 1.22242 0.73756 0.55273
 O31 O 1.26144 0.77883 0.56350
 O32 O 1.22526 0.74249 0.43260
 O33 O 1.24417 0.72162 0.43343
 O34 O 1.28183 0.75943 0.56341
 O35 O 1.24246 0.71786 0.55242
 O36 O 1.28582 0.76109 0.44426
 Cu37 Cu 1.24197 0.76212 0.49801
 Cu38 Cu 1.26553 0.73802 0.49832
 C39 C 1.28412 0.77906 0.42652
 C40 C 1.22484 0.71992 0.57074
 C41 C 1.27805 0.77575 0.58530
 C42 C 1.22805 0.72556 0.41136
 O43 O 0.79241 0.53761 0.44627
 O44 O 0.75224 0.54278 0.55988
 O45 O 0.79243 0.54220 0.56587
 O46 O 0.75345 0.54087 0.43922
 O47 O 0.73226 0.50136 0.44569
 O48 O 0.77178 0.50263 0.57188
 O49 O 0.73140 0.50326 0.56500
 O50 O 0.77115 0.49811 0.45318
 Cu51 Cu 0.77469 0.54483 0.50205
 Cu52 Cu 0.74954 0.49742 0.50960
 C53 C 0.78880 0.51684 0.43130
 C54 C 0.73467 0.52372 0.58139
 C55 C 0.78906 0.52268 0.58988
 C56 C 0.73601 0.52100 0.42127
 O57 O 0.44750 0.20247 0.56052
 O58 O 0.44762 0.24278 0.43837
 O59 O 0.44763 0.20192 0.43970
 O60 O 0.44717 0.24309 0.55909
 O61 O 0.48664 0.26273 0.55982
 O62 O 0.48710 0.22169 0.44094
 O63 O 0.48709 0.26246 0.44012
 O64 O 0.48693 0.22201 0.56028
 Cu65 Cu 0.44351 0.22058 0.49930
 Cu66 Cu 0.49086 0.24420 0.50043
 C67 C 0.46727 0.20511 0.58068
 C68 C 0.46746 0.25974 0.41898
 C69 C 0.46748 0.20462 0.42041
 C70 C 0.46687 0.26012 0.57943
 O71 O 0.74631 0.21289 0.44144
 O72 O 0.79190 0.25279 0.55457
 O73 O 0.75114 0.21317 0.56076
 O74 O 0.78845 0.25162 0.43393
 O75 O 0.77076 0.27355 0.44063
 O76 O 0.73295 0.23467 0.56733
 O77 O 0.77405 0.27458 0.56000
 O78 O 0.72858 0.23479 0.44876
 Cu79 Cu 0.77129 0.23049 0.49675
 Cu80 Cu 0.74985 0.25661 0.50478
 C81 C 0.72931 0.21675 0.42703
 C82 C 0.79084 0.27073 0.57636
 C83 C 0.73544 0.21708 0.58515
 C84 C 0.78631 0.26937 0.41615
 N85 N 1.02821 0.49104 -0.10484
 N86 N 1.04733 0.49793 -0.13954
 N87 N 0.97644 0.45274 -0.06830
 N88 N 0.95797 0.43124 -0.07940
 N89 N 0.97785 0.46821 -0.11024
 N90 N 0.96017 0.45777 -0.15054
 N91 N 1.02665 0.47541 -0.06314
 N92 N 1.04467 0.47110 -0.06885
 C93 C 1.05741 0.48532 -0.11682
 C94 C 0.94796 0.43473 -0.13074
 N95 N 0.97469 0.46677 0.10759
 N96 N 0.95593 0.45614 0.14411
 N97 N 1.02439 0.47413 0.07029
 N98 N 1.04156 0.46887 0.07999
 N99 N 1.02500 0.48921 0.11243
 N100 N 1.04282 0.49491 0.15152
 N101 N 0.97423 0.45172 0.06550
 N102 N 0.95515 0.43025 0.07289
 Mn103 Mn 1.00039 0.46319 0.00106
 C104 C 0.94387 0.43338 0.12212
 C105 C 1.05290 0.48202 0.13078
 N106 N 0.98045 0.51423 -0.10961
 N107 N 0.96189 0.50705 -0.14683
 N108 N 1.03073 0.55191 -0.06248
 N109 N 1.04821 0.57402 -0.07235
 N110 N 1.03077 0.53715 -0.10465
 N111 N 1.04848 0.54878 -0.14400
 N112 N 0.98052 0.52903 -0.06730
 N113 N 0.96200 0.53246 -0.07517
 Mn114 Mn 1.00436 0.50267 -0.10801
 C115 C 0.95060 0.51863 -0.12527
 C116 C 1.05926 0.57173 -0.12297
 N117 N 1.02790 0.53540 0.11296
 N118 N 1.04664 0.54499 0.15010
 N119 N 0.97923 0.52850 0.06627
 N120 N 0.96266 0.53466 0.07479
 N121 N 0.97761 0.51299 0.10833
 N122 N 0.95972 0.50798 0.14634
 N123 N 1.02952 0.55098 0.07101
 N124 N 1.04947 0.57173 0.07895
 Mn125 Mn 1.00128 0.50109 0.11101
 Mn126 Mn 1.00501 0.54039 0.00191
 Cl127 Cl 1.00275 0.50183 0.00148
 C128 C 1.05991 0.56769 0.12877
 C129 C 0.95053 0.52158 0.12472
 N130 N 0.47651 0.45132 0.07185
 N131 N 0.47219 0.42910 0.08072
 N132 N 0.46835 0.49304 0.11491
 N133 N 0.45848 0.50202 0.15191
 N134 N 0.45274 0.47836 0.07423
 N135 N 0.43167 0.47687 0.08292
 N136 N 0.49200 0.46597 0.11275
 N137 N 0.49886 0.45424 0.15012
 C138 C 0.48635 0.43127 0.12969
 C139 C 0.43559 0.49175 0.13181
 N140 N 0.52811 0.55066 0.06811
 N141 N 0.53204 0.57283 0.07472
 N142 N 0.53720 0.50945 0.10921
 N143 N 0.54835 0.50186 0.14628
 N144 N 0.55170 0.52356 0.06614
 N145 N 0.57331 0.52616 0.07334
 N146 N 0.51357 0.53661 0.11116
 N147 N 0.50695 0.54874 0.14781
 Mn148 Mn 0.50279 0.50128 0.11266
 C149 C 0.51871 0.57131 0.12471
 C150 C 0.57085 0.51239 0.12358
 N151 N 0.45096 0.47727 -0.05928
 N152 N 0.42904 0.47366 -0.06670
 N153 N 0.48912 0.46471 -0.10516
 N154 N 0.49523 0.45275 -0.14379
 N155 N 0.47476 0.45042 -0.06211
 N156 N 0.47048 0.42815 -0.07095
 N157 N 0.46518 0.49154 -0.10250
 N158 N 0.45339 0.49822 -0.14023
 Mn159 Mn 0.46345 0.46403 0.00623
 C160 C 0.43088 0.48694 -0.11726
 C161 C 0.48347 0.42998 -0.12215
 N162 N 0.54978 0.52302 -0.06763
 N163 N 0.57142 0.52652 -0.07912
 N164 N 0.51044 0.53533 -0.10589
 N165 N 0.50340 0.54710 -0.14263
 N166 N 0.52616 0.54995 -0.06529
 N167 N 0.53045 0.57219 -0.07388
 N168 N 0.53435 0.50837 -0.10867
 N169 N 0.54499 0.50120 -0.14871
 Mn170 Mn 0.53924 0.53706 0.00033
 Mn171 Mn 0.49975 0.49999 -0.10626
 Cl172 Cl 0.50131 0.50057 0.00319
 C173 C 0.56810 0.51268 -0.12967
 C174 C 0.51605 0.57008 -0.12226
 N175 N 0.45416 -0.02584 0.05827
 N176 N 0.43208 -0.04323 0.06827
 N177 N 0.49353 0.02481 0.10129
 N178 N 0.49978 0.04278 0.14038
 N179 N 0.47858 0.02460 0.05938
 N180 N 0.47406 0.04237 0.06944
 N181 N 0.46875 -0.02583 0.10088
 N182 N 0.45702 -0.04342 0.14071
 C183 C 0.43418 -0.05414 0.11963
 C184 C 0.48754 0.05361 0.12008
 N185 N 0.55298 0.02497 0.05926
 N186 N 0.57514 0.04210 0.06966
 N187 N 0.51355 -0.02561 0.10092
 N188 N 0.50631 -0.04438 0.13760
 N189 N 0.52830 -0.02547 0.05878
 N190 N 0.53170 -0.04407 0.06620
 N191 N 0.53852 0.02514 0.10176
 N192 N 0.55049 0.04261 0.14212
 Mn193 Mn 0.50360 -0.00035 0.10195
 C194 C 0.57333 0.05307 0.12123
 C195 C 0.51782 -0.05571 0.11562
 N196 N 0.47852 0.02457 -0.07448
 N197 N 0.47418 0.04250 -0.08285
 N198 N 0.46917 -0.02553 -0.11760
 N199 N 0.45884 -0.04467 -0.15346
 N200 N 0.45419 -0.02614 -0.07548
 N201 N 0.43309 -0.04582 -0.08206
 N202 N 0.49353 0.02507 -0.11629
 N203 N 0.50006 0.04350 -0.15383
 Mn204 Mn 0.46606 -0.00071 -0.00814
 C205 C 0.48783 0.05417 -0.13244
 C206 C 0.43633 -0.05713 -0.13126
 N207 N 0.52857 -0.02500 -0.07469
 N208 N 0.53190 -0.04362 -0.08162
 N209 N 0.53836 0.02558 -0.11598
 N210 N 0.54922 0.04454 -0.15208
 N211 N 0.55316 0.02560 -0.07400
 N212 N 0.57467 0.04458 -0.08090
 N213 N 0.51391 -0.02509 -0.11720
 N214 N 0.50667 -0.04393 -0.15390
 Mn215 Mn 0.54101 0.00002 -0.00768
 Mn216 Mn 0.50375 0.00004 -0.11744
 Cl217 Cl 0.50360 -0.00024 -0.00775
 C218 C 0.51812 -0.05525 -0.13130
 C219 C 0.57187 0.05621 -0.12996
 C220 C 1.19111 0.52861 0.32924
 C221 C 1.17099 0.50686 0.31014
 C222 C 1.17090 0.48511 0.32316
 C223 C 1.18910 0.48521 0.35950
 C224 C 1.20824 0.50691 0.38149
 C225 C 1.20940 0.52858 0.36389
 C226 C 1.15247 0.46335 0.30063
 C227 C 1.13402 0.46265 0.26544
 C228 C 1.13276 0.48369 0.25365
 C229 C 1.15103 0.50599 0.27861
 C230 C 1.14820 0.52645 0.27390
 C231 C 1.12827 0.52524 0.24541
 C232 C 1.11088 0.50390 0.21837
 C233 C 1.11328 0.48303 0.22000
 C234 C 1.09609 0.46241 0.18753
 C235 C 1.07679 0.46232 0.15745
 C236 C 1.07383 0.48252 0.15974
 C237 C 1.09099 0.50331 0.18981
 H238 H 1.19339 0.54598 0.31747
 H239 H 1.18819 0.46828 0.37093
 H240 H 1.22417 0.54575 0.37851
 H241 H 1.15232 0.44665 0.31019
 H242 H 1.12033 0.44509 0.25056
 H243 H 1.16059 0.54351 0.29450
 H244 H 1.12653 0.54125 0.24425
 H245 H 1.09732 0.44627 0.18345
 H246 H 1.06386 0.44620 0.13337
 H247 H 1.08903 0.51919 0.19014
 C248 C 0.46570 0.65918 0.31953
 C249 C 0.48763 0.66199 0.29750
 C250 C 0.50863 0.68425 0.30869
 C251 C 0.50788 0.70178 0.34619
 C252 C 0.48621 0.69798 0.37169
 C253 C 0.46504 0.67691 0.35568
 C254 C 0.53040 0.68871 0.28362
 C255 C 0.53193 0.67138 0.24836
 C256 C 0.51180 0.64842 0.23884
 C257 C 0.48945 0.64342 0.26545
 C258 C 0.47001 0.61971 0.26212
 C259 C 0.47235 0.60143 0.23435
 C260 C 0.49381 0.60619 0.20676
 C261 C 0.51356 0.62991 0.20625
 C262 C 0.53428 0.63402 0.17334
 C263 C 0.53568 0.61505 0.14547
 C264 C 0.51670 0.59152 0.15028
 C265 C 0.49571 0.58722 0.18018
 H266 H 0.44870 0.64352 0.30938
 H267 H 0.52437 0.71828 0.35624
 H268 H 0.44786 0.67359 0.37295
 H269 H 0.54651 0.70578 0.29163
 H270 H 0.54951 0.67614 0.23176
 H271 H 0.45297 0.61439 0.28341
 H272 H 0.45716 0.58333 0.23456
 H273 H 0.54955 0.65168 0.16755
 H274 H 0.55189 0.61874 0.12138
 H275 H 0.48073 0.56905 0.18234
 C276 C 0.34446 -0.18343 0.35219
 C277 C 0.34157 -0.16598 0.31907
 C278 C 0.31851 -0.16817 0.31822
 C279 C 0.29973 -0.18612 0.35305
 C280 C 0.30324 -0.20269 0.38730
 C281 C 0.32561 -0.20142 0.38548
 C282 C 0.31435 -0.15238 0.28291
 C283 C 0.33253 -0.13451 0.24789
 C284 C 0.35594 -0.13120 0.24845
 C285 C 0.36073 -0.14661 0.28659
 C286 C 0.38463 -0.14165 0.29272
 C287 C 0.40318 -0.12254 0.26199
 C288 C 0.39867 -0.10803 0.22252
 C289 C 0.37493 -0.11250 0.21375
 C290 C 0.37124 -0.09812 0.17019
 C291 C 0.39045 -0.07954 0.13896
 C292 C 0.41389 -0.07452 0.15044
 C293 C 0.41788 -0.08895 0.19190
 H294 H 0.36096 -0.18395 0.35259
 H295 H 0.28233 -0.18724 0.35328
 H296 H 0.32875 -0.21417 0.41098
 H297 H 0.29679 -0.15392 0.28202
 H298 H 0.32784 -0.12294 0.22250
 H299 H 0.38977 -0.15169 0.32297
 H300 H 0.42129 -0.11915 0.26903
 H301 H 0.35372 -0.10101 0.15838
 H302 H 0.38694 -0.06879 0.10635
 H303 H 0.43599 -0.08545 0.19996
 C304 C 0.82237 0.48975 0.35305
 C305 C 0.84031 0.50937 0.31970
 C306 C 0.83956 0.53116 0.31943
 C307 C 0.82259 0.53353 0.35515
 C308 C 0.80566 0.51418 0.39012
 C309 C 0.80541 0.49219 0.38750
 C310 C 0.85591 0.55054 0.28408
 C311 C 0.87307 0.54886 0.24890
 C312 C 0.87508 0.52785 0.24923
 C313 C 0.85891 0.50808 0.28682
 C314 C 0.86240 0.48803 0.29223
 C315 C 0.88093 0.48720 0.26179
 C316 C 0.89634 0.50595 0.22342
 C317 C 0.89327 0.52625 0.21501
 C318 C 0.90858 0.54407 0.17256
 C319 C 0.92678 0.54222 0.14234
 C320 C 0.93043 0.52277 0.15373
 C321 C 0.91499 0.50456 0.19376
 H322 H 0.82073 0.47217 0.35304
 H323 H 0.82264 0.55050 0.35593
 H324 H 0.79232 0.47681 0.41336
 H325 H 0.85542 0.56723 0.28353
 H326 H 0.88517 0.56478 0.22365
 H327 H 0.85164 0.47295 0.32174
 H328 H 0.88321 0.47165 0.26836
 H329 H 0.90680 0.55948 0.16103
 H330 H 0.93833 0.55635 0.11077
 H331 H 0.91744 0.48917 0.20169
 C332 C 0.44734 0.28972 0.30046
 C333 C 0.46838 0.31213 0.29142
 C334 C 0.48926 0.31642 0.32425
 C335 C 0.48898 0.29885 0.36346
 C336 C 0.46788 0.27703 0.37298
 C337 C 0.44713 0.27258 0.34091
 C338 C 0.51026 0.33844 0.31903
 C339 C 0.51075 0.35691 0.28450
 C340 C 0.49026 0.35390 0.25264
 C341 C 0.46921 0.33072 0.25296
 C342 C 0.44977 0.32696 0.21487
 C343 C 0.45035 0.34554 0.18032
 C344 C 0.46995 0.36873 0.18375
 C345 C 0.49013 0.37331 0.22037
 C346 C 0.50897 0.39738 0.22520
 C347 C 0.50769 0.41595 0.19506
 C348 C 0.48788 0.41122 0.15841
 C349 C 0.46922 0.38751 0.15199
 H350 H 0.43052 0.28520 0.27878
 H351 H 0.50510 0.30261 0.38853
 H352 H 0.43056 0.25589 0.34765
 H353 H 0.52639 0.34165 0.34317
 H354 H 0.52770 0.37332 0.28283
 H355 H 0.43391 0.30965 0.20995
 H356 H 0.43498 0.34185 0.15189
 H357 H 0.52453 0.40265 0.25384
 H358 H 0.52227 0.43419 0.20088
 H359 H 0.45368 0.38382 0.12430
 C360 C 0.66806 0.18163 0.35400
 C361 C 0.66993 0.16390 0.31916
 C362 C 0.69268 0.16540 0.31613
 C363 C 0.71210 0.18286 0.35053
 C364 C 0.70958 0.19959 0.38688
 C365 C 0.68758 0.19913 0.38709
 C366 C 0.69587 0.14931 0.27941
 C367 C 0.67702 0.13172 0.24523
 C368 C 0.65387 0.12904 0.24791
 C369 C 0.65009 0.14483 0.28728
 C370 C 0.62648 0.14050 0.29522
 C371 C 0.60724 0.12158 0.26529
 C372 C 0.61077 0.10666 0.22481
 C373 C 0.63420 0.11058 0.21411
 C374 C 0.63695 0.09590 0.16955
 C375 C 0.61718 0.07758 0.13914
 C376 C 0.59404 0.07308 0.15231
 C377 C 0.59093 0.08777 0.19492
 H378 H 0.65185 0.18264 0.35620
 H379 H 0.72920 0.18335 0.34920
 H380 H 0.68520 0.21203 0.41427
 H381 H 0.71320 0.15034 0.27692
 H382 H 0.68100 0.11984 0.21886
 H383 H 0.62210 0.15093 0.32626
 H384 H 0.58939 0.11869 0.27371
 H385 H 0.65415 0.09838 0.15618
 H386 H 0.62004 0.06665 0.10563
 H387 H 0.57306 0.08468 0.20430
 C388 C 0.44637 0.15391 -0.30932
 C389 C 0.46791 0.15407 -0.29463
 C390 C 0.48935 0.17224 -0.32148
 C391 C 0.48911 0.18975 -0.35993
 C392 C 0.46751 0.18894 -0.37574
 C393 C 0.44620 0.17089 -0.34960
 C394 C 0.51090 0.17250 -0.31134
 C395 C 0.51149 0.15428 -0.27803
 C396 C 0.49053 0.13543 -0.25178
 C397 C 0.46878 0.13628 -0.25644
 C398 C 0.44871 0.11938 -0.22266
 C399 C 0.44948 0.10142 -0.18835
 C400 C 0.46989 0.09903 -0.18824
 C401 C 0.49064 0.11580 -0.22068
 C402 C 0.51029 0.11163 -0.22288
 C403 C 0.50929 0.09170 -0.19387
 C404 C 0.48899 0.07563 -0.16072
 C405 C 0.46948 0.07957 -0.15716
 H406 H 0.42919 0.14026 -0.29263
 H407 H 0.50580 0.20340 -0.37988
 H408 H 0.42917 0.16963 -0.36074
 H409 H 0.52742 0.18656 -0.33094
 H410 H 0.52882 0.15574 -0.27241
 H411 H 0.43224 0.11993 -0.22073
 H412 H 0.43365 0.08883 -0.16309
 H413 H 0.52630 0.12284 -0.24881
 H414 H 0.52449 0.08882 -0.19753
 H415 H 0.45355 0.06687 -0.13239
 C416 C 0.70541 0.54834 -0.31595
 C417 C 0.68386 0.52735 -0.29993
 C418 C 0.67990 0.50513 -0.32449
 C419 C 0.69726 0.50405 -0.36126
 C420 C 0.71838 0.52503 -0.37775
 C421 C 0.72220 0.54717 -0.35467
 C422 C 0.65841 0.48408 -0.31339
 C423 C 0.64017 0.48469 -0.28077
 C424 C 0.64308 0.50638 -0.25603
 C425 C 0.66580 0.52772 -0.26223
 C426 C 0.66977 0.54857 -0.22993
 C427 C 0.65181 0.54884 -0.19489
 C428 C 0.62898 0.52873 -0.19273
 C429 C 0.62411 0.50735 -0.22439
 C430 C 0.60023 0.48809 -0.22482
 C431 C 0.58215 0.48995 -0.19415
 C432 C 0.58734 0.51076 -0.16112
 C433 C 0.61081 0.53002 -0.16000
 H434 H 0.70939 0.56604 -0.30128
 H435 H 0.69372 0.48674 -0.37911
 H436 H 0.73819 0.56376 -0.36666
 H437 H 0.65540 0.46699 -0.33144
 H438 H 0.62414 0.46765 -0.27412
 H439 H 0.68688 0.56483 -0.22941
 H440 H 0.65570 0.56518 -0.17043
 H441 H 0.59476 0.47169 -0.25034
 H442 H 0.56402 0.47497 -0.19607
 H443 H 0.61475 0.54638 -0.13547
 C444 C 0.84414 0.29841 -0.31964
 C445 C 0.84532 0.32038 -0.30298
 C446 C 0.82772 0.32523 -0.32775
 C447 C 0.80926 0.30828 -0.36531
 C448 C 0.80848 0.28671 -0.38234
 C449 C 0.82619 0.28204 -0.35910
 C450 C 0.82885 0.34719 -0.31606
 C451 C 0.84777 0.36504 -0.28271
 C452 C 0.86593 0.36124 -0.25781
 C453 C 0.86380 0.33802 -0.26450
 C454 C 0.88001 0.33318 -0.23193
 C455 C 0.89835 0.35078 -0.19632
 C456 C 0.90188 0.37409 -0.19386
 C457 C 0.88601 0.37981 -0.22564
 C458 C 0.89140 0.40410 -0.22581
 C459 C 0.91152 0.42178 -0.19498
 C460 C 0.92654 0.41581 -0.16193
 C461 C 0.92151 0.39190 -0.16084
 H462 H 0.85736 0.29376 -0.30489
 H463 H 0.79598 0.31247 -0.38329
 H464 H 0.82629 0.26568 -0.37148
 H465 H 0.81527 0.35089 -0.33423
 H466 H 0.84733 0.38149 -0.27565
 H467 H 0.87853 0.31565 -0.23169
 H468 H 0.91030 0.34623 -0.17175
 H469 H 0.88099 0.41019 -0.25139
 H470 H 0.91531 0.44025 -0.19688
 H471 H 0.93345 0.38733 -0.13628
 C472 C 0.46419 -0.19384 -0.33827
 C473 C 0.48532 -0.17696 -0.30721
 C474 C 0.50521 -0.18083 -0.30845
 C475 C 0.50452 -0.19947 -0.34428
 C476 C 0.48400 -0.21492 -0.37823
 C477 C 0.46363 -0.21246 -0.37316
 C478 C 0.52591 -0.16571 -0.27531
 C479 C 0.52761 -0.14643 -0.24175
 C480 C 0.50881 -0.14102 -0.24163
 C481 C 0.48751 -0.15625 -0.27599
 C482 C 0.46962 -0.14962 -0.28064
 C483 C 0.47252 -0.12871 -0.25345
 C484 C 0.49296 -0.11393 -0.21898
 C485 C 0.51103 -0.12026 -0.21056
 C486 C 0.53064 -0.10538 -0.17164
 C487 C 0.53267 -0.08454 -0.14511
 C488 C 0.51544 -0.07777 -0.15691
 C489 C 0.49551 -0.09267 -0.19328
 H490 H 0.44779 -0.19315 -0.33671
 H491 H 0.52022 -0.20160 -0.34684
 H492 H 0.44740 -0.22443 -0.39817
 H493 H 0.54111 -0.16869 -0.27575
 H494 H 0.54442 -0.13542 -0.21857
 H495 H 0.45350 -0.15971 -0.30739
 H496 H 0.45860 -0.12400 -0.25968
 H497 H 0.54455 -0.10945 -0.16009
 H498 H 0.54802 -0.07346 -0.11612
 H499 H 0.48185 -0.08775 -0.20137
 C500 C 0.34297 0.53163 -0.34434
 C501 C 0.33950 0.51133 -0.31007
 C502 C 0.31616 0.49105 -0.30898
 C503 C 0.29771 0.49058 -0.34508
 C504 C 0.30187 0.51041 -0.38127
 C505 C 0.32445 0.53110 -0.37920
 C506 C 0.31142 0.47120 -0.27264
 C507 C 0.32938 0.47090 -0.23747
 C508 C 0.35313 0.49024 -0.23886
 C509 C 0.35840 0.51047 -0.27725
 C510 C 0.38250 0.52868 -0.28372
 C511 C 0.40085 0.52724 -0.25379
 C512 C 0.39595 0.50805 -0.21478
 C513 C 0.37199 0.48962 -0.20510
 C514 C 0.36801 0.47134 -0.16202
 C515 C 0.38711 0.47084 -0.13256
 C516 C 0.41071 0.48835 -0.14531
 C517 C 0.41500 0.50708 -0.18584
 H518 H 0.35971 0.54828 -0.34490
 H519 H 0.28014 0.47465 -0.34539
 H520 H 0.32808 0.54683 -0.40600
 H521 H 0.29360 0.45567 -0.27140
 H522 H 0.32424 0.45472 -0.21150
 H523 H 0.38796 0.54391 -0.31380
 H524 H 0.41913 0.54134 -0.26139
 H525 H 0.35036 0.45733 -0.14949
 H526 H 0.38338 0.45639 -0.10054
 H527 H 0.43326 0.52101 -0.19479
 C528 C 1.19120 0.66268 -0.34279
 C529 C 1.17168 0.66441 -0.31888
 C530 C 1.17147 0.68624 -0.32799
 C531 C 1.18905 0.70463 -0.36455
 C532 C 1.20778 0.70220 -0.39031
 C533 C 1.20893 0.68128 -0.37739
 C534 C 1.15366 0.68956 -0.30083
 C535 C 1.13613 0.67175 -0.26423
 C536 C 1.13514 0.64940 -0.25555
 C537 C 1.15254 0.64529 -0.28581
 C538 C 1.14971 0.62196 -0.28416
 C539 C 1.13074 0.60334 -0.25317
 C540 C 1.11437 0.60740 -0.22067
 C541 C 1.11678 0.63067 -0.21956
 C542 C 1.10079 0.63423 -0.18194
 C543 C 1.08256 0.61517 -0.14943
 C544 C 1.07945 0.59200 -0.15411
 C545 C 1.09550 0.58823 -0.18938
 H546 H 1.19355 0.64737 -0.33452
 H547 H 1.18814 0.72089 -0.37253
 H548 H 1.22334 0.67887 -0.39523
 H549 H 1.15337 0.70620 -0.30749
 H550 H 1.12290 0.67564 -0.24548
 H551 H 1.16134 0.61722 -0.30884
 H552 H 1.12897 0.58560 -0.25430
 H553 H 1.10221 0.65160 -0.17571
 H554 H 1.07050 0.61849 -0.12156
 H555 H 1.09345 0.57037 -0.19187
 C556 C 0.83891 0.54617 -0.29094
 C557 C 0.84228 0.52615 -0.28135
 C558 C 0.82672 0.50450 -0.31311
 C559 C 0.80856 0.50313 -0.35216
 C560 C 0.80606 0.52336 -0.36270
 C561 C 0.82125 0.54478 -0.33132
 C562 C 0.82976 0.48449 -0.30728
 C563 C 0.84875 0.48580 -0.27347
 C564 C 0.86529 0.50718 -0.24291
 C565 C 0.86112 0.52715 -0.24360
 C566 C 0.87597 0.54742 -0.20678
 C567 C 0.89508 0.54871 -0.17325
 C568 C 0.90061 0.53023 -0.17643
 C569 C 0.88589 0.50926 -0.21170
 C570 C 0.89299 0.49163 -0.21646
 C571 C 0.91378 0.49481 -0.18769
 C572 C 0.92805 0.51537 -0.15231
 C573 C 0.92117 0.53287 -0.14585
 H574 H 0.85025 0.56346 -0.26999
 H575 H 0.79710 0.48654 -0.37680
 H576 H 0.81974 0.56072 -0.33880
 H577 H 0.81768 0.46777 -0.33053
 H578 H 0.84978 0.46952 -0.27140
 H579 H 0.87306 0.56254 -0.20215
 H580 H 0.90604 0.56468 -0.14586
 H581 H 0.88344 0.47559 -0.24410
 H582 H 0.91880 0.48108 -0.19359
 H583 H 0.93234 0.54899 -0.11919
 C584 C 0.44573 0.28962 -0.30295
 C585 C 0.46654 0.31216 -0.29271
 C586 C 0.48760 0.31685 -0.32497
 C587 C 0.48772 0.29950 -0.36460
 C588 C 0.46688 0.27746 -0.37497
 C589 C 0.44594 0.27270 -0.34366
 C590 C 0.50838 0.33900 -0.31850
 C591 C 0.50857 0.35714 -0.28290
 C592 C 0.48794 0.35370 -0.25115
 C593 C 0.46700 0.33044 -0.25331
 C594 C 0.44733 0.32629 -0.21591
 C595 C 0.44766 0.34449 -0.17991
 C596 C 0.46725 0.36774 -0.18102
 C597 C 0.48760 0.37274 -0.21714
 C598 C 0.50645 0.39685 -0.21958
 C599 C 0.50501 0.41506 -0.18783
 C600 C 0.48504 0.40997 -0.15170
 C601 C 0.46636 0.38618 -0.14749
 H602 H 0.42879 0.28478 -0.28176
 H603 H 0.50399 0.30353 -0.38906
 H604 H 0.42954 0.25587 -0.35100
 H605 H 0.52464 0.34256 -0.34229
 H606 H 0.52542 0.37364 -0.28029
 H607 H 0.43146 0.30893 -0.21263
 H608 H 0.43212 0.34045 -0.15205
 H609 H 0.52217 0.40247 -0.24752
 H610 H 0.51963 0.43335 -0.19203
 H611 H 0.45067 0.38221 -0.12032
 C612 C 0.70952 0.16775 -0.29461
 C613 C 0.68632 0.16452 -0.28536
 C614 C 0.68019 0.18003 -0.31771
 C615 C 0.69678 0.19802 -0.35698
 C616 C 0.71933 0.20036 -0.36718
 C617 C 0.72559 0.18522 -0.33524
 C618 C 0.65729 0.17705 -0.31228
 C619 C 0.63980 0.15816 -0.27830
 C620 C 0.64470 0.14168 -0.24712
 C621 C 0.66870 0.14583 -0.24741
 C622 C 0.67419 0.13109 -0.21004
 C623 C 0.65658 0.11204 -0.17651
 C624 C 0.63272 0.10648 -0.18015
 C625 C 0.62639 0.12114 -0.21577
 C626 C 0.60182 0.11402 -0.22070
 C627 C 0.58442 0.09319 -0.19198
 C628 C 0.59080 0.07893 -0.15653
 C629 C 0.61504 0.08591 -0.14971
 H630 H 0.71549 0.15642 -0.27325
 H631 H 0.69165 0.20944 -0.38211
 H632 H 0.74290 0.18661 -0.34247
 H633 H 0.65261 0.18908 -0.33601
 H634 H 0.62258 0.15714 -0.27665
 H635 H 0.69212 0.13404 -0.20501
 H636 H 0.66162 0.10113 -0.14878
 H637 H 0.59531 0.12356 -0.24845
 H638 H 0.56578 0.08810 -0.19806
 H639 H 0.62006 0.07476 -0.12292
 C640 C 1.19230 0.53290 -0.33316
 C641 C 1.17551 0.51233 -0.30007
 C642 C 1.17843 0.49178 -0.30136
 C643 C 1.19620 0.49138 -0.33834
 C644 C 1.21172 0.51143 -0.37375
 C645 C 1.21003 0.53237 -0.36928
 C646 C 1.16327 0.47149 -0.26693
 C647 C 1.14485 0.47085 -0.23200
 C648 C 1.14041 0.49036 -0.23136
 C649 C 1.15579 0.51132 -0.26672
 C650 C 1.15033 0.53014 -0.26979
 C651 C 1.13039 0.52844 -0.24044
 C652 C 1.11536 0.50826 -0.20551
 C653 C 1.12051 0.48925 -0.19862
 C654 C 1.10528 0.46983 -0.15967
 C655 C 1.08522 0.46888 -0.13177
 C656 C 1.07957 0.48707 -0.14202
 C657 C 1.09495 0.50690 -0.17811
 H658 H 1.19222 0.54969 -0.33236
 H659 H 1.19763 0.47521 -0.34050
 H660 H 1.22197 0.54823 -0.39549
 H661 H 1.16552 0.45578 -0.26738
 H662 H 1.13378 0.45430 -0.20777
 H663 H 1.16065 0.54617 -0.29662
 H664 H 1.12660 0.54308 -0.24551
 H665 H 1.10841 0.45513 -0.14953
 H666 H 1.07377 0.45355 -0.10325
 H667 H 1.09097 0.52134 -0.18513
 C668 C 0.46537 0.65722 -0.33308
 C669 C 0.48712 0.66001 -0.30911
 C670 C 0.50823 0.68220 -0.31971
 C671 C 0.50772 0.69983 -0.35748
 C672 C 0.48617 0.69627 -0.38381
 C673 C 0.46495 0.67506 -0.36937
 C674 C 0.52984 0.68659 -0.29331
 C675 C 0.53108 0.66938 -0.25679
 C676 C 0.51080 0.64659 -0.24700
 C677 C 0.48863 0.64157 -0.27527
 C678 C 0.46900 0.61800 -0.27114
 C679 C 0.47094 0.59992 -0.24077
 C680 C 0.49218 0.60471 -0.21146
 C681 C 0.51218 0.62829 -0.21209
 C682 C 0.53271 0.63246 -0.17776
 C683 C 0.53366 0.61370 -0.14713
 C684 C 0.51441 0.59023 -0.15038
 C685 C 0.49360 0.58591 -0.18195
 H686 H 0.44831 0.64154 -0.32412
 H687 H 0.52427 0.71633 -0.36656
 H688 H 0.44788 0.67180 -0.38757
 H689 H 0.54605 0.70357 -0.30099
 H690 H 0.54854 0.67413 -0.23901
 H691 H 0.45207 0.61263 -0.29337
 H692 H 0.45557 0.58196 -0.24020
 H693 H 0.54821 0.65005 -0.17299
 H694 H 0.54978 0.61749 -0.12210
 H695 H 0.47840 0.56782 -0.18333
 C696 C 0.30125 -0.17711 -0.28828
 C697 C 0.32538 -0.17152 -0.28192
 C698 C 0.33303 -0.18515 -0.31745
 C699 C 0.31708 -0.20343 -0.35759
 C700 C 0.29361 -0.20788 -0.36533
 C701 C 0.28580 -0.19481 -0.32966
 C702 C 0.35678 -0.17991 -0.31450
 C703 C 0.37355 -0.16047 -0.28018
 C704 C 0.36710 -0.14563 -0.24638
 C705 C 0.34240 -0.15218 -0.24397
 C706 C 0.33563 -0.13901 -0.20431
 C707 C 0.35257 -0.11915 -0.17130
 C708 C 0.37693 -0.11123 -0.17757
 C709 C 0.38456 -0.12435 -0.21528
 C710 C 0.40946 -0.11497 -0.22262
 C711 C 0.42589 -0.09345 -0.19444
 C712 C 0.41830 -0.08063 -0.15709
 C713 C 0.39376 -0.08985 -0.14774
 H714 H 0.29401 -0.16742 -0.26412
 H715 H 0.32338 -0.21328 -0.38548
 H716 H 0.26773 -0.19790 -0.33476
 H717 H 0.36266 -0.19053 -0.34053
 H718 H 0.39151 -0.15766 -0.28062
 H719 H 0.31724 -0.14376 -0.19723
 H720 H 0.34653 -0.10947 -0.14192
 H721 H 0.41689 -0.12325 -0.25191
 H722 H 0.44476 -0.08665 -0.20263
 H723 H 0.38774 -0.07988 -0.11940
 C724 C 0.46559 -0.19151 0.33440
 C725 C 0.48663 -0.17485 0.30296
 C726 C 0.50658 -0.17862 0.30532
 C727 C 0.50591 -0.19713 0.34177
 C728 C 0.48532 -0.21266 0.37513
 C729 C 0.46502 -0.21006 0.36969
 C730 C 0.52725 -0.16365 0.27218
 C731 C 0.52876 -0.14477 0.23707
 C732 C 0.50981 -0.13960 0.23515
 C733 C 0.48861 -0.15455 0.26988
 C734 C 0.47053 -0.14815 0.27251
 C735 C 0.47307 -0.12780 0.24280
 C736 C 0.49336 -0.11335 0.20781
 C737 C 0.51170 -0.11941 0.20167
 C738 C 0.53121 -0.10485 0.16239
 C739 C 0.53286 -0.08457 0.13328
 C740 C 0.51535 -0.07800 0.14273
 C741 C 0.49549 -0.09266 0.17939
 H742 H 0.44921 -0.19080 0.33253
 H743 H 0.52159 -0.19928 0.34469
 H744 H 0.44877 -0.22199 0.39435
 H745 H 0.54252 -0.16650 0.27355
 H746 H 0.54552 -0.13391 0.21378
 H747 H 0.45447 -0.15800 0.29931
 H748 H 0.45896 -0.12330 0.24742
 H749 H 0.54536 -0.10875 0.15267
 H750 H 0.54819 -0.07368 0.10431
 H751 H 0.48156 -0.08798 0.18577
 C752 C 0.30169 0.47649 0.29870
 C753 C 0.32554 0.49511 0.28958
 C754 C 0.33316 0.51706 0.32183
 C755 C 0.31735 0.52011 0.36072
 C756 C 0.29406 0.50122 0.37059
 C757 C 0.28638 0.47949 0.33890
 C758 C 0.35671 0.53567 0.31653
 C759 C 0.37333 0.53260 0.28264
 C760 C 0.36689 0.51083 0.25141
 C761 C 0.34232 0.49236 0.25174
 C762 C 0.33542 0.47181 0.21438
 C763 C 0.35213 0.46877 0.18064
 C764 C 0.37643 0.48567 0.18404
 C765 C 0.38420 0.50689 0.21984
 C766 C 0.40912 0.52284 0.22464
 C767 C 0.42546 0.51782 0.19543
 C768 C 0.41769 0.49704 0.15952
 C769 C 0.39310 0.48119 0.15307
 H770 H 0.29458 0.45903 0.27745
 H771 H 0.32359 0.53690 0.38565
 H772 H 0.26848 0.46457 0.34586
 H773 H 0.36256 0.55263 0.34021
 H774 H 0.39112 0.54788 0.28101
 H775 H 0.31705 0.45784 0.20946
 H776 H 0.34599 0.45265 0.15283
 H777 H 0.41667 0.53889 0.25262
 H778 H 0.44437 0.53026 0.20149
 H779 H 0.38698 0.46490 0.12600
 C780 C 1.18132 0.70240 0.28438
 C781 C 1.17488 0.67784 0.28017
 C782 C 1.18774 0.66981 0.31748
 C783 C 1.20620 0.68584 0.35704
 C784 C 1.21154 0.70979 0.36252
 C785 C 1.19916 0.71794 0.32528
 C786 C 1.18157 0.64564 0.31685
 C787 C 1.16200 0.62891 0.28291
 C788 C 1.14800 0.63580 0.24704
 C789 C 1.15545 0.66083 0.24256
 C790 C 1.14308 0.66794 0.20111
 C791 C 1.12320 0.65112 0.16813
 C792 C 1.11447 0.62655 0.17608
 C793 C 1.12671 0.61850 0.21573
 C794 C 1.11653 0.59341 0.22440
 C795 C 1.09511 0.57722 0.19548
 C796 C 1.08320 0.58527 0.15620
 C797 C 1.09321 0.60997 0.14574
 H798 H 1.17222 0.70996 0.25887
 H799 H 1.21547 0.67929 0.38629
 H800 H 1.20292 0.73638 0.32874
 H801 H 1.19157 0.63944 0.34439
 H802 H 1.15843 0.61062 0.28526
 H803 H 1.14851 0.68651 0.19250
 H804 H 1.11418 0.65744 0.13726
 H805 H 1.12415 0.58570 0.25503
 H806 H 1.08772 0.55820 0.20444
 H807 H 1.08397 0.61635 0.11582
 C808 C 0.44737 0.15447 0.30166
 C809 C 0.46833 0.15278 0.29281
 C810 C 0.48910 0.16895 0.32653
 C811 C 0.48884 0.18624 0.36611
 C812 C 0.46787 0.18743 0.37500
 C813 C 0.44719 0.17141 0.34235
 C814 C 0.51000 0.16759 0.32151
 C815 C 0.51057 0.14986 0.28579
 C816 C 0.49026 0.13293 0.25244
 C817 C 0.46921 0.13521 0.25331
 C818 C 0.44987 0.11994 0.21451
 C819 C 0.45062 0.10235 0.17821
 C820 C 0.47032 0.09877 0.18034
 C821 C 0.49035 0.11385 0.21798
 C822 C 0.50932 0.10864 0.22123
 C823 C 0.50833 0.08935 0.18868
 C824 C 0.48868 0.07476 0.15100
 C825 C 0.46987 0.07978 0.14616
 H826 H 0.43061 0.14250 0.27935
 H827 H 0.50490 0.19834 0.39167
 H828 H 0.43069 0.17184 0.34856
 H829 H 0.52603 0.18012 0.34649
 H830 H 0.52748 0.15021 0.28436
 H831 H 0.43394 0.12141 0.21030
 H832 H 0.43532 0.09105 0.14920
 H833 H 0.52481 0.11855 0.25030
 H834 H 0.52303 0.08573 0.19341
 H835 H 0.45443 0.06831 0.11776
 C836 C 0.70930 0.54213 0.29609
 C837 C 0.68606 0.52212 0.28844
 C838 C 0.68010 0.50126 0.32393
 C839 C 0.69683 0.50064 0.36479
 C840 C 0.71948 0.52087 0.37311
 C841 C 0.72558 0.54149 0.33798
 C842 C 0.65726 0.48129 0.31977
 C843 C 0.63968 0.48190 0.28368
 C844 C 0.64438 0.50252 0.24926
 C845 C 0.66828 0.52240 0.24878
 C846 C 0.67353 0.54188 0.20895
 C847 C 0.65579 0.54258 0.17353
 C848 C 0.63203 0.52425 0.17742
 C849 C 0.62595 0.50397 0.21549
 C850 C 0.60146 0.48642 0.22020
 C851 C 0.58391 0.48915 0.18922
 C852 C 0.59003 0.50915 0.15168
 C853 C 0.61419 0.52643 0.14482
 H854 H 0.71521 0.55888 0.27216
 H855 H 0.69180 0.48464 0.39212
 H856 H 0.74295 0.55741 0.34354
 H857 H 0.65271 0.46515 0.34593
 H858 H 0.62255 0.46569 0.28317
 H859 H 0.69135 0.55685 0.20350
 H860 H 0.66065 0.55800 0.14400
 H861 H 0.59509 0.47083 0.24939
 H862 H 0.56533 0.47557 0.19533
 H863 H 0.61901 0.54212 0.11639
 C864 C 0.83374 0.29529 0.29135
 C865 C 0.83760 0.31896 0.28460
 C866 C 0.82320 0.32548 0.32043
 C867 C 0.80574 0.30887 0.36077
 C868 C 0.80271 0.28578 0.36824
 C869 C 0.81672 0.27913 0.33274
 C870 C 0.82669 0.34874 0.31715
 C871 C 0.84499 0.36616 0.28160
 C872 C 0.86040 0.36089 0.24682
 C873 C 0.85579 0.33661 0.24554
 C874 C 0.86959 0.33086 0.20552
 C875 C 0.88813 0.34842 0.17064
 C876 C 0.89408 0.37249 0.17518
 C877 C 0.88035 0.37912 0.21345
 C878 C 0.88777 0.40389 0.21865
 C879 C 0.90805 0.42117 0.18793
 C880 C 0.92148 0.41452 0.15021
 C881 C 0.91413 0.39008 0.14294
 H882 H 0.84415 0.28893 0.26709
 H883 H 0.79517 0.31432 0.38842
 H884 H 0.81481 0.26142 0.33765
 H885 H 0.81550 0.35373 0.34361
 H886 H 0.84640 0.38365 0.28182
 H887 H 0.86632 0.31277 0.19952
 H888 H 0.89833 0.34316 0.14094
 H889 H 0.87889 0.41065 0.24796
 H890 H 0.91339 0.43997 0.19435
 H891 H 0.92461 0.38483 0.11434
   
