data_POSCAR
  _audit_creation_date              2014-09-24
  _audit_creation_method            'ToBaCCo'
  _symmetry_space_group_name_H-M    'P1'
  _symmetry_Int_Tables_number       1
  _symmetry_cell_setting            triclinic
  loop_
  _symmetry_equiv_pos_as_xyz
 x,y,z
_cell_length_a 47.9122
_cell_length_b 55.1497
_cell_length_c 48.9966
_cell_angle_alpha 89.961700
_cell_angle_beta 89.991600
_cell_angle_gamma 90.046800
loop_
  _atom_site_label
  _atom_site_type_symbol
  _atom_site_fract_x
  _atom_site_fract_y
  _atom_site_fract_z
C1 C 1.21180 0.26007 0.29228
 H2 H 1.21012 0.24054 0.29364
 C3 C 1.19564 0.27476 0.30932
 H4 H 1.18148 0.26633 0.32370
 C5 C 1.23256 0.29465 0.27197
 H6 H 1.24725 0.30239 0.25771
 C7 C 1.21687 0.30999 0.28859
 H8 H 1.21957 0.32940 0.28660
 N9 N 1.22949 0.27018 0.27376
 C10 C 1.23988 0.21673 0.20894
 H11 H 1.26242 0.21644 0.20766
 C12 C 1.22403 0.20227 0.19145
 H13 H 1.23464 0.19085 0.17680
 C14 C 1.19891 0.23213 0.22970
 H15 H 1.18917 0.24398 0.24441
 C16 C 1.18222 0.21794 0.21260
 H17 H 1.15975 0.21893 0.21460
 Zn18 Zn 1.25075 0.24946 0.25094
 N19 N 1.22720 0.23095 0.22790
 C20 C 1.26893 0.20421 0.27179
 N21 N 1.27205 0.22864 0.27365
 C22 C 1.28974 0.23866 0.29217
 C23 C 1.30589 0.22392 0.30918
 C24 C 1.28458 0.18877 0.28836
 C25 C 1.26151 0.28235 0.20904
 C26 C 1.27730 0.29691 0.19158
 C27 C 1.31918 0.28126 0.21262
 C28 C 1.30255 0.26697 0.22969
 N29 N 1.27425 0.26809 0.22793
 H30 H 1.25422 0.19654 0.25752
 H31 H 1.29143 0.25818 0.29359
 H32 H 1.31996 0.23256 0.32349
 H33 H 1.28159 0.16940 0.28608
 H34 H 1.23897 0.28260 0.20780
 H35 H 1.26662 0.30837 0.17698
 H36 H 1.34166 0.28032 0.21458
 H37 H 1.31234 0.25508 0.24435
 C38 C 1.19477 0.20258 0.19329
 C39 C 1.19793 0.30012 0.30747
 C40 C 1.30656 0.29667 0.19338
 C41 C 1.30368 0.19843 0.30740
 C42 C 0.71128 -0.23947 0.29151
 H43 H 0.70969 -0.25900 0.29288
 C44 C 0.69508 -0.22483 0.30857
 H45 H 0.68098 -0.23331 0.32297
 C46 C 0.73186 -0.20482 0.27116
 H47 H 0.74650 -0.19704 0.25688
 C48 C 0.71613 -0.18954 0.28781
 H49 H 0.71874 -0.17011 0.28581
 N50 N 0.72889 -0.22930 0.27297
 C51 C 0.73942 -0.28277 0.20829
 H52 H 0.76196 -0.28309 0.20707
 C53 C 0.72359 -0.29720 0.19076
 H54 H 0.73422 -0.30864 0.17614
 C55 C 0.69842 -0.26730 0.22893
 H56 H 0.68867 -0.25541 0.24359
 C57 C 0.68175 -0.28145 0.21179
 H58 H 0.65927 -0.28042 0.21372
 Zn59 Zn 0.75020 -0.24998 0.25022
 N60 N 0.72671 -0.26852 0.22720
 C61 C 0.76847 -0.29518 0.27119
 N62 N 0.77147 -0.27071 0.27299
 C63 C 0.78906 -0.26057 0.29155
 C64 C 0.80520 -0.27523 0.30865
 C65 C 0.78414 -0.31049 0.28788
 C66 C 0.76099 -0.21716 0.20830
 C67 C 0.77682 -0.20269 0.19077
 C68 C 0.81866 -0.21840 0.21184
 C69 C 0.80200 -0.23260 0.22897
 N70 N 0.77370 -0.23141 0.22722
 H71 H 0.75385 -0.30293 0.25689
 H72 H 0.79068 -0.24104 0.29291
 H73 H 0.81927 -0.26678 0.32308
 H74 H 0.78149 -0.32991 0.28589
 H75 H 0.73845 -0.21686 0.20706
 H76 H 0.76618 -0.19125 0.17614
 H77 H 0.84113 -0.21941 0.21379
 H78 H 0.81175 -0.24448 0.24366
 C79 C 0.69433 -0.29683 0.19252
 C80 C 0.69727 -0.19947 0.30672
 C81 C 0.80608 -0.20302 0.19256
 C82 C 0.80296 -0.30059 0.30682
 C83 C 0.71136 0.26108 -0.20953
 H84 H 0.70973 0.24155 -0.20815
 C85 C 0.69524 0.27575 -0.19243
 H86 H 0.68116 0.26729 -0.17798
 C87 C 0.73197 0.29569 -0.22992
 H88 H 0.74659 0.30345 -0.24423
 C89 C 0.71631 0.31100 -0.21323
 H90 H 0.71897 0.33042 -0.21522
 N91 N 0.72896 0.27122 -0.22811
 C92 C 0.73937 0.21766 -0.29286
 H93 H 0.76191 0.21741 -0.29420
 C94 C 0.72351 0.20308 -0.31023
 H95 H 0.73412 0.19162 -0.32485
 C96 C 0.69841 0.23303 -0.27205
 H97 H 0.68869 0.24491 -0.25737
 C98 C 0.68172 0.21873 -0.28903
 H99 H 0.65925 0.21967 -0.28695
 Zn100 Zn 0.75025 0.25050 -0.25093
 N101 N 0.72671 0.23192 -0.27393
 C102 C 0.76853 0.20527 -0.23000
 N103 N 0.77158 0.22974 -0.22818
 C104 C 0.78921 0.23982 -0.20961
 C105 C 0.80532 0.22511 -0.19253
 C106 C 0.78418 0.18991 -0.21334
 C107 C 0.76107 0.28343 -0.29282
 C108 C 0.77685 0.29807 -0.31021
 C109 C 0.81872 0.28238 -0.28910
 C110 C 0.80203 0.26804 -0.27214
 N111 N 0.77375 0.26915 -0.27395
 H112 H 0.75389 0.19754 -0.24430
 H113 H 0.79087 0.25935 -0.20822
 H114 H 0.81943 0.23352 -0.17810
 H115 H 0.78149 0.17050 -0.21534
 H116 H 0.73853 0.28365 -0.29412
 H117 H 0.76590 0.30944 -0.32471
 H118 H 0.84117 0.28122 -0.28685
 H119 H 0.81177 0.25611 -0.25750
 C120 C 0.69425 0.20331 -0.30828
 C121 C 0.69748 0.30111 -0.19426
 C122 C 0.80626 0.29801 -0.30842
 C123 C 0.80304 0.19975 -0.19438
 C124 C 1.21098 -0.23947 -0.20856
 H125 H 1.20939 -0.25900 -0.20717
 C126 C 1.19489 -0.22482 -0.19144
 H127 H 1.18085 -0.23328 -0.17696
 C128 C 1.23151 -0.20485 -0.22903
 H129 H 1.24609 -0.19708 -0.24338
 C130 C 1.21587 -0.18954 -0.21232
 H131 H 1.21849 -0.17012 -0.21433
 N132 N 1.22852 -0.22932 -0.22718
 C133 C 1.23883 -0.28288 -0.29176
 H134 H 1.26137 -0.28322 -0.29302
 C135 C 1.22295 -0.29732 -0.30923
 H136 H 1.23354 -0.30880 -0.32384
 C137 C 1.19789 -0.26734 -0.27107
 H138 H 1.18819 -0.25541 -0.25641
 C139 C 1.18118 -0.28150 -0.28814
 H140 H 1.15870 -0.28044 -0.28617
 Zn141 Zn 1.24973 -0.25005 -0.24993
 N142 N 1.22618 -0.26859 -0.27285
 C143 C 1.26801 -0.29520 -0.22888
 N144 N 1.27101 -0.27073 -0.22715
 C145 C 1.28860 -0.26054 -0.20863
 C146 C 1.30473 -0.27515 -0.19148
 C147 C 1.28368 -0.31047 -0.21214
 C148 C 1.26052 -0.21730 -0.29193
 C149 C 1.27635 -0.20290 -0.30951
 C150 C 1.31819 -0.21867 -0.28848
 C151 C 1.30152 -0.23280 -0.27130
 N152 N 1.27322 -0.23155 -0.27300
 H153 H 1.25339 -0.30299 -0.24316
 H154 H 1.29021 -0.24100 -0.20733
 H155 H 1.31881 -0.26666 -0.17708
 H156 H 1.28105 -0.32989 -0.21407
 H157 H 1.23798 -0.21696 -0.29313
 H158 H 1.26572 -0.19145 -0.32414
 H159 H 1.34066 -0.21973 -0.28656
 H160 H 1.31126 -0.24469 -0.25661
 C161 C 1.19369 -0.29692 -0.30740
 C162 C 1.19710 -0.19946 -0.19331
 C163 C 1.30561 -0.20329 -0.30776
 C164 C 1.30250 -0.30051 -0.19323
 C165 C 0.26066 0.21686 0.70842
 H166 H 0.23811 0.21654 0.70723
 C167 C 0.27643 0.20244 0.69086
 H168 H 0.26576 0.19101 0.67625
 C169 C 0.30171 0.23232 0.72902
 H170 H 0.31149 0.24420 0.74368
 C171 C 0.31833 0.21817 0.71184
 H172 H 0.34081 0.21920 0.71375
 N173 N 0.27341 0.23110 0.72732
 C174 C 0.21116 0.23897 0.79178
 H175 H 0.20958 0.25850 0.79315
 C176 C 0.19501 0.22430 0.80888
 H177 H 0.18101 0.23289 0.82328
 C178 C 0.23168 0.20440 0.77137
 H179 H 0.24628 0.19667 0.75704
 C180 C 0.21600 0.18905 0.78805
 H181 H 0.21875 0.16966 0.78591
 Zn182 Zn 0.24996 0.24961 0.75039
 N183 N 0.22871 0.22886 0.77319
 C184 C 0.19812 0.26692 0.72925
 N185 N 0.22641 0.26816 0.72744
 C186 C 0.23907 0.28245 0.70850
 C187 C 0.22321 0.29691 0.69104
 C188 C 0.18142 0.28111 0.71218
 C189 C 0.28893 0.26021 0.79164
 C190 C 0.30506 0.27489 0.80873
 C191 C 0.28391 0.31013 0.78803
 C192 C 0.26824 0.29480 0.77136
 N193 N 0.27128 0.27034 0.77313
 H194 H 0.18840 0.25500 0.74394
 H195 H 0.26162 0.28278 0.70722
 H196 H 0.23382 0.30839 0.67640
 H197 H 0.15895 0.28007 0.71418
 H198 H 0.29057 0.24068 0.79298
 H199 H 0.31918 0.26644 0.82313
 H200 H 0.28123 0.32954 0.78608
 H201 H 0.25357 0.30255 0.75709
 C202 C 0.19712 0.19888 0.80709
 C203 C 0.30570 0.20280 0.69258
 C204 C 0.30278 0.30024 0.80694
 C205 C 0.19396 0.29654 0.69290
 C206 C 0.76030 0.71697 0.70815
 H207 H 0.73776 0.71668 0.70685
 C208 C 0.77614 0.70244 0.69075
 H209 H 0.76551 0.69096 0.67615
 C210 C 0.80128 0.73242 0.72888
 H211 H 0.81103 0.74432 0.74354
 C212 C 0.81796 0.71816 0.71187
 H213 H 0.84043 0.71914 0.71390
 N214 N 0.77298 0.73125 0.72706
 C215 C 0.71051 0.73912 0.79138
 H216 H 0.70888 0.75865 0.79275
 C217 C 0.69435 0.72442 0.80844
 H218 H 0.68028 0.73298 0.82280
 C219 C 0.73118 0.70460 0.77104
 H220 H 0.74585 0.69689 0.75676
 C221 C 0.71550 0.68922 0.78767
 H222 H 0.71831 0.66983 0.78554
 Zn223 Zn 0.74947 0.74982 0.75005
 N224 N 0.72815 0.72905 0.77284
 C225 C 0.69767 0.76724 0.72884
 N226 N 0.72597 0.76839 0.72703
 C227 C 0.73867 0.78266 0.70810
 C228 C 0.72285 0.79720 0.69066
 C229 C 0.68101 0.78150 0.71179
 C230 C 0.78840 0.76050 0.79138
 C231 C 0.80458 0.77521 0.80841
 C232 C 0.78347 0.81041 0.78758
 C233 C 0.76777 0.79505 0.77096
 N234 N 0.77078 0.77058 0.77282
 H235 H 0.68791 0.75534 0.74352
 H236 H 0.76121 0.78294 0.70681
 H237 H 0.73350 0.80867 0.67604
 H238 H 0.65854 0.78053 0.71381
 H239 H 0.79003 0.74097 0.79279
 H240 H 0.81869 0.76679 0.82283
 H241 H 0.78083 0.82982 0.78554
 H242 H 0.75312 0.80278 0.75667
 C243 C 0.69653 0.69899 0.80666
 C244 C 0.80540 0.70272 0.69263
 C245 C 0.80235 0.80056 0.80651
 C246 C 0.69359 0.79693 0.69253
 C247 C 0.76097 0.21726 0.20768
 H248 H 0.73843 0.21691 0.20642
 C249 C 0.77683 0.20287 0.19016
 H250 H 0.76623 0.19141 0.17552
 C251 C 0.80193 0.23279 0.22839
 H252 H 0.81165 0.24469 0.24307
 C253 C 0.81863 0.21867 0.21127
 H254 H 0.84110 0.21974 0.21324
 N255 N 0.77364 0.23152 0.22661
 C256 C 0.71126 0.23943 0.29090
 H257 H 0.70971 0.25896 0.29227
 C258 C 0.69507 0.22479 0.30799
 H259 H 0.68102 0.23326 0.32243
 C260 C 0.73172 0.20481 0.27051
 H261 H 0.74632 0.19704 0.25620
 C262 C 0.71599 0.18950 0.28720
 H263 H 0.71856 0.17008 0.28520
 Zn264 Zn 0.75012 0.25001 0.24960
 N265 N 0.72881 0.22928 0.27233
 C266 C 0.69836 0.26727 0.22833
 N267 N 0.72665 0.26856 0.22660
 C268 C 0.73935 0.28287 0.20772
 C269 C 0.72352 0.29731 0.19021
 C270 C 0.68169 0.28143 0.21121
 C271 C 0.78890 0.26049 0.29099
 C272 C 0.80503 0.27509 0.30814
 C273 C 0.78413 0.31042 0.28738
 C274 C 0.76845 0.29516 0.27063
 N275 N 0.77138 0.27069 0.27241
 H276 H 0.68862 0.25533 0.24297
 H277 H 0.76190 0.28324 0.20650
 H278 H 0.73415 0.30881 0.17561
 H279 H 0.65921 0.28035 0.21313
 H280 H 0.79045 0.24095 0.29232
 H281 H 0.81905 0.26659 0.32259
 H282 H 0.78155 0.32985 0.28542
 H283 H 0.75389 0.30296 0.25631
 C284 C 0.69720 0.19943 0.30615
 C285 C 0.80609 0.20328 0.19197
 C286 C 0.80288 0.30046 0.30635
 C287 C 0.69426 0.29688 0.19197
 C288 C 0.26139 0.71772 0.20871
 H289 H 0.23885 0.71749 0.20745
 C290 C 0.27715 0.70314 0.19128
 H291 H 0.26645 0.69170 0.17669
 C292 C 0.30246 0.73304 0.22939
 H293 H 0.31227 0.74490 0.24406
 C294 C 0.31906 0.71873 0.21235
 H295 H 0.34154 0.71965 0.21435
 N296 N 0.27416 0.73196 0.22761
 C297 C 0.21174 0.73982 0.29202
 H298 H 0.21006 0.75935 0.29340
 C299 C 0.19560 0.72508 0.30908
 H300 H 0.18147 0.73347 0.32348
 C301 C 0.23247 0.70531 0.27166
 H302 H 0.24714 0.69761 0.25738
 C303 C 0.21681 0.68992 0.28831
 H304 H 0.21950 0.67052 0.28630
 Zn305 Zn 0.25069 0.75055 0.25064
 N306 N 0.22940 0.72977 0.27347
 C307 C 0.19884 0.76795 0.22948
 N308 N 0.22713 0.76911 0.22763
 C309 C 0.23981 0.78338 0.20868
 C310 C 0.22396 0.79791 0.19125
 C311 C 0.18215 0.78221 0.21244
 C312 C 0.28970 0.76135 0.29189
 C313 C 0.30582 0.77609 0.30894
 C314 C 0.28450 0.81124 0.28815
 C315 C 0.26888 0.79580 0.27155
 N316 N 0.27201 0.77136 0.27337
 H317 H 0.18910 0.75606 0.24418
 H318 H 0.26235 0.78366 0.20736
 H319 H 0.23458 0.80937 0.17661
 H320 H 0.15968 0.78123 0.21449
 H321 H 0.29141 0.74182 0.29329
 H322 H 0.31989 0.76744 0.32325
 H323 H 0.28149 0.83060 0.28590
 H324 H 0.25417 0.80346 0.25728
 C325 C 0.19790 0.69973 0.30722
 C326 C 0.30641 0.70334 0.19312
 C327 C 0.30359 0.80157 0.30720
 C328 C 0.19470 0.79763 0.19316
 N329 N 1.04957 0.02573 0.02991
 N330 N 1.06811 0.04294 0.03465
 N331 N 1.03013 -0.02527 0.04886
 N332 N 1.03492 -0.04245 0.06704
 N333 N 1.04954 -0.02527 0.02994
 N334 N 1.06809 -0.04245 0.03472
 N335 N 1.03016 0.02571 0.04883
 N336 N 1.03494 0.04290 0.06697
 C337 C 1.05857 0.05358 0.05772
 C338 C 1.05855 -0.05310 0.05782
 N339 N 0.95063 -0.02529 0.02980
 N340 N 0.93218 -0.04260 0.03443
 N341 N 0.97003 0.02569 0.04873
 N342 N 0.96536 0.04302 0.06672
 N343 N 0.95067 0.02570 0.02976
 N344 N 0.93227 0.04304 0.03433
 N345 N 0.97000 -0.02528 0.04876
 N346 N 0.96528 -0.04258 0.06680
 Mn347 Mn 1.00007 0.00021 0.04908
 C348 C 0.94173 -0.05330 0.05747
 C349 C 0.94185 0.05375 0.05734
 N350 N 1.04958 -0.02525 -0.02889
 N351 N 1.06814 -0.04243 -0.03356
 N352 N 1.03028 0.02573 -0.04791
 N353 N 1.03522 0.04287 -0.06611
 N354 N 1.04963 0.02572 -0.02893
 N355 N 1.06826 0.04286 -0.03368
 N356 N 1.03023 -0.02526 -0.04787
 N357 N 1.03509 -0.04245 -0.06599
 Mn358 Mn 1.04988 0.00023 0.00051
 C359 C 1.05868 -0.05309 -0.05665
 C360 C 1.05885 0.05349 -0.05681
 N361 N 0.95068 0.02571 -0.02907
 N362 N 0.93202 0.04278 -0.03393
 N363 N 0.97004 -0.02528 -0.04797
 N364 N 0.96509 -0.04237 -0.06620
 N365 N 0.95065 -0.02528 -0.02902
 N366 N 0.93198 -0.04237 -0.03383
 N367 N 0.97008 0.02573 -0.04801
 N368 N 0.96515 0.04280 -0.06628
 Mn369 Mn 0.95036 0.00021 0.00037
 Mn370 Mn 1.00016 0.00023 -0.04823
 Cl371 Cl 1.00012 0.00022 0.00042
 C372 C 0.94146 0.05338 -0.05708
 C373 C 0.94141 -0.05298 -0.05696
 N374 N 1.04934 0.52517 0.53045
 N375 N 1.06772 0.54254 0.53506
 N376 N 1.02992 0.47416 0.54933
 N377 N 1.03460 0.45685 0.56738
 N378 N 1.04934 0.47419 0.53042
 N379 N 1.06778 0.45690 0.53507
 N380 N 1.02992 0.52513 0.54937
 N381 N 1.03454 0.54246 0.56738
 C382 C 1.05808 0.55323 0.55806
 C383 C 1.05817 0.44616 0.55808
 N384 N 0.95043 0.47412 0.53030
 N385 N 0.93186 0.45691 0.53500
 N386 N 0.96980 0.52510 0.54931
 N387 N 0.96500 0.54231 0.56742
 N388 N 0.95045 0.52512 0.53033
 N389 N 0.93194 0.54235 0.53501
 N390 N 0.96979 0.47411 0.54927
 N391 N 0.96493 0.45691 0.56741
 Mn392 Mn 0.99986 0.49962 0.54961
 C393 C 0.94132 0.44625 0.55810
 C394 C 0.94143 0.55299 0.55810
 N395 N 1.04950 0.47426 0.47160
 N396 N 1.06814 0.45717 0.46684
 N397 N 1.03018 0.52527 0.45263
 N398 N 1.03518 0.54238 0.43441
 N399 N 1.04952 0.52525 0.47163
 N400 N 1.06820 0.54234 0.46686
 N401 N 1.03017 0.47426 0.45260
 N402 N 1.03514 0.45717 0.43438
 Mn403 Mn 1.04972 0.49972 0.50103
 C404 C 1.05877 0.44656 0.44368
 C405 C 1.05884 0.55298 0.44370
 N406 N 0.95057 0.52518 0.47150
 N407 N 0.93199 0.54233 0.46675
 N408 N 0.96998 0.47424 0.45253
 N409 N 0.96513 0.45709 0.43435
 N410 N 0.95057 0.47421 0.47147
 N411 N 0.93200 0.45704 0.46670
 N412 N 0.96998 0.52523 0.45257
 N413 N 0.96513 0.54241 0.43440
 Mn414 Mn 0.95021 0.49966 0.50090
 Mn415 Mn 1.00007 0.49975 0.45229
 Cl416 Cl 0.99997 0.49969 0.50095
 C417 C 0.94148 0.55301 0.44366
 C418 C 0.94150 0.44643 0.44360
 N419 N 0.54894 0.02550 0.52960
 N420 N 0.56750 0.04271 0.53430
 N421 N 0.52949 -0.02548 0.54862
 N422 N 0.53424 -0.04269 0.56677
 N423 N 0.54889 -0.02550 0.52969
 N424 N 0.56738 -0.04273 0.53443
 N425 N 0.52955 0.02551 0.54854
 N426 N 0.53436 0.04273 0.56665
 C427 C 0.55798 0.05338 0.55737
 C428 C 0.55783 -0.05338 0.55752
 N429 N 0.44999 -0.02549 0.52960
 N430 N 0.43158 -0.04284 0.53420
 N431 N 0.46941 0.02550 0.54848
 N432 N 0.46471 0.04279 0.56652
 N433 N 0.45003 0.02550 0.52954
 N434 N 0.43158 0.04278 0.53417
 N435 N 0.46937 -0.02547 0.54855
 N436 N 0.46470 -0.04280 0.56657
 Mn437 Mn 0.49945 0.00002 0.54884
 C438 C 0.44117 -0.05355 0.55723
 C439 C 0.44115 0.05348 0.55719
 N440 N 0.54890 -0.02553 0.47086
 N441 N 0.56750 -0.04267 0.46616
 N442 N 0.52959 0.02543 0.45181
 N443 N 0.53449 0.04260 0.43363
 N444 N 0.54895 0.02544 0.47078
 N445 N 0.56755 0.04260 0.46604
 N446 N 0.52955 -0.02555 0.45188
 N447 N 0.53445 -0.04272 0.43373
 Mn448 Mn 0.54921 -0.00002 0.50023
 C449 C 0.55806 -0.05333 0.44305
 C450 C 0.55811 0.05324 0.44292
 N451 N 0.45002 0.02546 0.47070
 N452 N 0.43140 0.04256 0.46588
 N453 N 0.46935 -0.02556 0.45182
 N454 N 0.46438 -0.04265 0.43360
 N455 N 0.44996 -0.02554 0.47077
 N456 N 0.43127 -0.04261 0.46596
 N457 N 0.46940 0.02545 0.45174
 N458 N 0.46450 0.04255 0.43350
 Mn459 Mn 0.44970 -0.00002 0.50016
 Mn460 Mn 0.49947 -0.00006 0.45152
 Cl461 Cl 0.49946 -0.00002 0.50018
 C462 C 0.44085 0.05317 0.44274
 C463 C 0.44069 -0.05324 0.44283
 N464 N 0.54957 0.52571 0.02989
 N465 N 0.56801 0.54303 0.03447
 N466 N 0.53028 0.47470 0.04890
 N467 N 0.53500 0.45737 0.06690
 N468 N 0.54962 0.47473 0.02991
 N469 N 0.56804 0.45740 0.03445
 N470 N 0.53023 0.52567 0.04888
 N471 N 0.53497 0.54296 0.06691
 C472 C 0.55849 0.55371 0.05752
 C473 C 0.55851 0.44666 0.05749
 N474 N 0.45072 0.47457 0.03023
 N475 N 0.43225 0.45730 0.03499
 N476 N 0.47010 0.52559 0.04909
 N477 N 0.46536 0.54280 0.06722
 N478 N 0.45066 0.52557 0.03020
 N479 N 0.43213 0.54277 0.03497
 N480 N 0.47016 0.47461 0.04911
 N481 N 0.46547 0.45737 0.06724
 Mn482 Mn 0.50020 0.50015 0.04928
 C483 C 0.44187 0.44664 0.05804
 C484 C 0.44172 0.55344 0.05801
 N485 N 0.54952 0.47473 -0.02892
 N486 N 0.56821 0.45770 -0.03379
 N487 N 0.53004 0.52570 -0.04785
 N488 N 0.53493 0.54279 -0.06612
 N489 N 0.54946 0.52572 -0.02894
 N490 N 0.56809 0.54283 -0.03381
 N491 N 0.53009 0.47469 -0.04783
 N492 N 0.53504 0.45763 -0.06609
 Mn493 Mn 0.54984 0.50022 0.00049
 C494 C 0.55876 0.44709 -0.05692
 C495 C 0.55861 0.55342 -0.05694
 N496 N 0.45052 0.52556 -0.02863
 N497 N 0.43193 0.54271 -0.03330
 N498 N 0.46989 0.47461 -0.04762
 N499 N 0.46498 0.45744 -0.06577
 N500 N 0.45057 0.47458 -0.02861
 N501 N 0.43198 0.45741 -0.03329
 N502 N 0.46985 0.52559 -0.04764
 N503 N 0.46493 0.54278 -0.06578
 Mn504 Mn 0.45032 0.50007 0.00080
 Mn505 Mn 0.49996 0.50015 -0.04803
 Cl506 Cl 0.50008 0.50015 0.00063
 C507 C 0.44133 0.55338 -0.05643
 C508 C 0.44138 0.44678 -0.05642
 N509 N 1.17456 0.15697 0.14163
 C510 C 1.14639 0.15663 0.14406
 N511 N 1.13399 0.17155 0.16238
 N512 N 1.14931 0.18633 0.17783
 C513 C 1.17760 0.18670 0.17555
 N514 N 1.18987 0.17174 0.15707
 C515 C 1.13007 0.14003 0.12813
 C516 C 1.11669 0.12566 0.11499
 C517 C 1.10116 0.10806 0.09968
 N518 N 1.07671 0.09923 0.10947
 N519 N 1.06290 0.08208 0.09586
 C520 C 1.07312 0.07319 0.07204
 N521 N 1.09755 0.08213 0.06223
 N522 N 1.11135 0.09928 0.07584
 N523 N 1.17339 0.65744 0.64104
 C524 C 1.14523 0.65714 0.64351
 N525 N 1.13285 0.67210 0.66180
 N526 N 1.14821 0.68689 0.67719
 C527 C 1.17649 0.68722 0.67489
 N528 N 1.18873 0.67222 0.65643
 C529 C 1.12890 0.64049 0.62769
 C530 C 1.11556 0.62603 0.61466
 C531 C 1.10014 0.60829 0.59949
 N532 N 1.07579 0.59934 0.60939
 N533 N 1.06214 0.58200 0.59594
 C534 C 1.07243 0.57304 0.57219
 N535 N 1.09674 0.58210 0.56226
 N536 N 1.11039 0.59944 0.57570
 N537 N 0.67401 0.15732 0.64048
 C538 C 0.64586 0.15691 0.64303
 N539 N 0.63347 0.17190 0.66128
 N540 N 0.64880 0.18683 0.67655
 C541 C 0.67707 0.18727 0.67416
 N542 N 0.68933 0.17223 0.65575
 C543 C 0.62953 0.14017 0.62727
 C544 C 0.61615 0.12571 0.61426
 C545 C 0.60062 0.10801 0.59907
 N546 N 0.57620 0.09918 0.60895
 N547 N 0.56239 0.08198 0.59543
 C548 C 0.57256 0.07303 0.57162
 N549 N 0.59695 0.08198 0.56172
 N550 N 0.61077 0.09917 0.57523
 N551 N 0.67417 0.65759 0.14083
 C552 C 0.64600 0.65729 0.14321
 N553 N 0.63357 0.67223 0.16149
 N554 N 0.64889 0.68700 0.17696
 C555 C 0.67717 0.68733 0.17474
 N556 N 0.68946 0.67235 0.15629
 C557 C 0.62970 0.64066 0.12732
 C558 C 0.61634 0.62625 0.11424
 C559 C 0.60085 0.60856 0.09904
 N560 N 0.57649 0.59965 0.10895
 N561 N 0.56275 0.58239 0.09548
 C562 C 0.57295 0.57345 0.07168
 N563 N 0.59728 0.58248 0.06173
 N564 N 0.61102 0.59974 0.07521
 N565 N 0.86680 -0.17196 0.16156
 C566 C 0.85437 -0.15703 0.14326
 N567 N 0.82620 -0.15738 0.14085
 N568 N 0.81092 -0.17217 0.15631
 C569 C 0.82322 -0.18714 0.17478
 N570 N 0.85150 -0.18676 0.17703
 C571 C 0.87065 -0.14037 0.12736
 C572 C 0.88398 -0.12593 0.11427
 C573 C 0.89944 -0.10821 0.09905
 N574 N 0.88923 -0.09936 0.07524
 N575 N 0.90294 -0.08207 0.06174
 C576 C 0.92729 -0.07306 0.07165
 N577 N 0.93753 -0.08203 0.09543
 N578 N 0.92382 -0.09932 0.10892
 N579 N 0.86564 0.32779 0.66215
 C580 C 0.85324 0.34296 0.64410
 N581 N 0.82507 0.34278 0.64181
 N582 N 0.80975 0.32793 0.65718
 C583 C 0.82194 0.31267 0.67550
 N584 N 0.85030 0.31293 0.67751
 C585 C 0.86959 0.35963 0.62825
 C586 C 0.88300 0.37405 0.61517
 C587 C 0.89857 0.39171 0.59993
 N588 N 0.88847 0.40052 0.57606
 N589 N 0.90231 0.41769 0.56250
 C590 C 0.92671 0.42662 0.57239
 N591 N 0.93684 0.41770 0.59624
 N592 N 0.92299 0.40053 0.60980
 N593 N 0.36637 -0.17236 0.66116
 C594 C 0.35395 -0.15742 0.64286
 N595 N 0.32578 -0.15773 0.64047
 N596 N 0.31048 -0.17249 0.65595
 C597 C 0.32277 -0.18746 0.67442
 N598 N 0.35106 -0.18713 0.67664
 C599 C 0.37024 -0.14077 0.62697
 C600 C 0.38358 -0.12632 0.61389
 C601 C 0.39902 -0.10859 0.59870
 N602 N 0.38879 -0.09972 0.57490
 N603 N 0.40246 -0.08240 0.56144
 C604 C 0.42678 -0.07335 0.57137
 N605 N 0.43704 -0.08233 0.59514
 N606 N 0.42337 -0.09966 0.60859
 N607 N 0.36719 0.32802 0.16252
 C608 C 0.35470 0.34297 0.14427
 N609 N 0.32653 0.34255 0.14185
 N610 N 0.31130 0.32766 0.15726
 C611 C 0.32365 0.31267 0.17568
 N612 N 0.35194 0.31313 0.17793
 C613 C 0.37093 0.35969 0.12837
 C614 C 0.38422 0.37416 0.11525
 C615 C 0.39963 0.39188 0.09996
 N616 N 0.38935 0.40068 0.07616
 N617 N 0.40304 0.41793 0.06256
 C618 C 0.42743 0.42694 0.07235
 N619 N 0.43774 0.41802 0.09613
 N620 N 0.42405 0.40078 0.10973
 N621 N 0.83316 0.14454 -0.16330
 C622 C 0.85161 0.15389 -0.14519
 N623 N 0.85414 0.17830 -0.14305
 N624 N 0.83867 0.19291 -0.15859
 C625 C 0.82013 0.18362 -0.17683
 N626 N 0.81772 0.15913 -0.17882
 C627 C 0.86830 0.13800 -0.12869
 C628 C 0.88202 0.12413 -0.11521
 C629 C 0.89797 0.10699 -0.09961
 N630 N 0.92252 0.09837 -0.10935
 N631 N 0.93664 0.08154 -0.09556
 C632 C 0.92664 0.07275 -0.07158
 N633 N 0.90212 0.08150 -0.06180
 N634 N 0.88801 0.09833 -0.07560
 N635 N 0.85417 0.67812 0.35811
 C636 C 0.85170 0.65371 0.35598
 N637 N 0.83325 0.64430 0.33791
 N638 N 0.81775 0.65884 0.32240
 C639 C 0.82009 0.68334 0.32437
 N640 N 0.83863 0.69268 0.34257
 C641 C 0.86845 0.63787 0.37246
 C642 C 0.88220 0.62401 0.38590
 C643 C 0.89816 0.60686 0.40145
 N644 N 0.88818 0.59814 0.42542
 N645 N 0.90226 0.58123 0.43913
 C646 C 0.92674 0.57247 0.42929
 N647 N 0.93676 0.58133 0.40535
 N648 N 0.92268 0.59823 0.39164
 N649 N 0.35346 0.17828 0.35717
 C650 C 0.35102 0.15388 0.35495
 N651 N 0.33260 0.14454 0.33683
 N652 N 0.31710 0.15912 0.32136
 C653 C 0.31936 0.18367 0.32335
 N654 N 0.33794 0.19288 0.34168
 C655 C 0.36776 0.13799 0.37140
 C656 C 0.38150 0.12410 0.38483
 C657 C 0.39745 0.10693 0.40038
 N658 N 0.38750 0.09826 0.42439
 N659 N 0.40159 0.08138 0.43814
 C660 C 0.42607 0.07259 0.42829
 N661 N 0.43604 0.08139 0.40431
 N662 N 0.42195 0.09827 0.39057
 N663 N 0.35374 0.67837 -0.14191
 C664 C 0.35128 0.65395 -0.14395
 N665 N 0.33282 0.64448 -0.16197
 N666 N 0.31730 0.65897 -0.17752
 C667 C 0.31964 0.68347 -0.17564
 N668 N 0.33819 0.69287 -0.15748
 C669 C 0.36807 0.63817 -0.12746
 C670 C 0.38187 0.62434 -0.11401
 C671 C 0.39788 0.60723 -0.09850
 N672 N 0.38798 0.59851 -0.07449
 N673 N 0.40210 0.58161 -0.06082
 C674 C 0.42655 0.57285 -0.07074
 N675 N 0.43649 0.58170 -0.09471
 N676 N 0.42236 0.59860 -0.10838
 N677 N 1.16683 -0.14439 -0.16222
 C678 C 1.14843 -0.15382 -0.14410
 N679 N 1.14599 -0.17823 -0.14194
 N680 N 1.16151 -0.19277 -0.15749
 C681 C 1.18000 -0.18341 -0.17574
 N682 N 1.18232 -0.15891 -0.17774
 C683 C 1.13169 -0.13800 -0.12763
 C684 C 1.11793 -0.12415 -0.11420
 C685 C 1.10197 -0.10701 -0.09869
 N686 N 1.11191 -0.09830 -0.07471
 N687 N 1.09784 -0.08138 -0.06105
 C688 C 1.07340 -0.07258 -0.07096
 N689 N 1.06342 -0.08142 -0.09490
 N690 N 1.07749 -0.09834 -0.10856
 N691 N 1.14647 0.32152 0.35846
 C692 C 1.14899 0.34593 0.35630
 N693 N 1.16757 0.35530 0.33831
 N694 N 1.18314 0.34072 0.32291
 C695 C 1.18073 0.31623 0.32492
 N696 N 1.16207 0.30693 0.34304
 C697 C 1.13218 0.36181 0.37267
 C698 C 1.11837 0.37569 0.38604
 C699 C 1.10235 0.39284 0.40152
 N700 N 1.07788 0.40150 0.39162
 N701 N 1.06372 0.41836 0.40530
 C702 C 1.07361 0.42716 0.42930
 N703 N 1.09805 0.41838 0.43923
 N704 N 1.11220 0.40151 0.42555
 N705 N 0.66673 -0.14442 0.33764
 C706 C 0.64825 -0.15387 0.35567
 N707 N 0.64584 -0.17829 0.35782
 N708 N 0.66146 -0.19281 0.34236
 C709 C 0.68004 -0.18344 0.32420
 N710 N 0.68233 -0.15893 0.32220
 C711 C 0.63140 -0.13807 0.37207
 C712 C 0.61758 -0.12423 0.38547
 C713 C 0.60156 -0.10712 0.40096
 N714 N 0.61144 -0.09842 0.42497
 N715 N 0.59731 -0.08154 0.43864
 C716 C 0.57285 -0.07278 0.42872
 N717 N 0.56293 -0.08160 0.40474
 N718 N 0.57707 -0.09848 0.39108
 N719 N 0.66725 0.35623 -0.16317
 C720 C 0.64881 0.34683 -0.14506
 N721 N 0.64633 0.32241 -0.14292
 N722 N 0.66183 0.30785 -0.15847
 C723 C 0.68037 0.31719 -0.17670
 N724 N 0.68273 0.34169 -0.17869
 C725 C 0.63208 0.36267 -0.12856
 C726 C 0.61832 0.37650 -0.11508
 C727 C 0.60234 0.39359 -0.09947
 N728 N 0.61230 0.40226 -0.07547
 N729 N 0.59816 0.41905 -0.06167
 C730 C 0.57361 0.42776 -0.07143
 N731 N 0.56361 0.41897 -0.09539
 N732 N 0.57776 0.40217 -0.10919
 N733 N 1.14679 0.17841 -0.14236
 C734 C 1.14908 0.15400 -0.14457
 N735 N 1.16740 0.14457 -0.16273
 N736 N 1.18294 0.15909 -0.17825
 C737 C 1.18080 0.18362 -0.17625
 N738 N 1.16236 0.19294 -0.15791
 C739 C 1.13227 0.13819 -0.12808
 C740 C 1.11846 0.12435 -0.11462
 C741 C 1.10243 0.10724 -0.09907
 N742 N 1.11231 0.09856 -0.07505
 N743 N 1.09816 0.08169 -0.06133
 C744 C 1.07368 0.07292 -0.07120
 N745 N 1.06376 0.08173 -0.09519
 N746 N 1.07791 0.09860 -0.10891
 N747 N 1.14656 0.67817 0.35833
 C748 C 1.14910 0.65376 0.35617
 N749 N 1.16764 0.64445 0.33813
 N750 N 1.18316 0.65908 0.32270
 C751 C 1.18074 0.68357 0.32471
 N752 N 1.16211 0.69281 0.34287
 C753 C 1.13232 0.63783 0.37257
 C754 C 1.11853 0.62391 0.38596
 C755 C 1.10250 0.60673 0.40146
 N756 N 1.11237 0.59803 0.42548
 N757 N 1.09820 0.58115 0.43919
 C758 C 1.07372 0.57239 0.42929
 N759 N 1.06382 0.58121 0.40530
 N760 N 1.07799 0.59809 0.39160
 N761 N 0.64589 0.17823 0.35741
 C762 C 0.64824 0.15381 0.35527
 N763 N 0.66665 0.14437 0.33720
 N764 N 0.68223 0.15889 0.32169
 C765 C 0.68000 0.18339 0.32368
 N766 N 0.66150 0.19276 0.34189
 C767 C 0.63142 0.13801 0.37174
 C768 C 0.61761 0.12418 0.38518
 C769 C 0.60159 0.10706 0.40072
 N770 N 0.61149 0.09839 0.42474
 N771 N 0.59736 0.08149 0.43844
 C772 C 0.57290 0.07270 0.42855
 N773 N 0.56296 0.08150 0.40457
 N774 N 0.57709 0.09840 0.39087
 N775 N 0.64617 0.67839 -0.14287
 C776 C 0.64855 0.65398 -0.14506
 N777 N 0.66693 0.64460 -0.16319
 N778 N 0.68245 0.65916 -0.17870
 C779 C 0.68022 0.68369 -0.17671
 N780 N 0.66171 0.69296 -0.15840
 C781 C 0.63179 0.63812 -0.12856
 C782 C 0.61803 0.62425 -0.11508
 C783 C 0.60207 0.60712 -0.09947
 N784 N 0.61203 0.59847 -0.07546
 N785 N 0.59792 0.58161 -0.06166
 C786 C 0.57341 0.57283 -0.07144
 N787 N 0.56341 0.58159 -0.09542
 N788 N 0.57752 0.59845 -0.10922
 N789 N 0.83275 -0.14423 -0.16266
 C790 C 0.85125 -0.15359 -0.14460
 N791 N 0.85370 -0.17800 -0.14239
 N792 N 0.83812 -0.19260 -0.15784
 C793 C 0.81954 -0.18331 -0.17603
 N794 N 0.81720 -0.15882 -0.17809
 C795 C 0.86804 -0.13770 -0.12820
 C796 C 0.88183 -0.12382 -0.11479
 C797 C 0.89783 -0.10667 -0.09927
 N798 N 0.92237 -0.09803 -0.10909
 N799 N 0.93652 -0.08117 -0.09536
 C800 C 0.92657 -0.07238 -0.07139
 N801 N 0.90207 -0.08115 -0.06153
 N802 N 0.88793 -0.09800 -0.07526
 N803 N 0.83328 0.35545 0.33759
 C804 C 0.85166 0.34597 0.35569
 N805 N 0.85403 0.32154 0.35777
 N806 N 0.83849 0.30705 0.34218
 C807 C 0.82002 0.31646 0.32396
 N808 N 0.81776 0.34096 0.32203
 C809 C 0.86842 0.36173 0.37222
 C810 C 0.88219 0.37555 0.38571
 C811 C 0.89816 0.39264 0.40130
 N812 N 0.92269 0.40132 0.39151
 N813 N 0.93678 0.41820 0.40525
 C814 C 0.92676 0.42698 0.42920
 N815 N 0.90227 0.41817 0.43903
 N816 N 0.88819 0.40129 0.42529
 N817 N 0.33235 -0.14453 0.33679
 C818 C 0.35076 -0.15387 0.35493
 N819 N 0.35323 -0.17827 0.35711
 N820 N 0.33777 -0.19287 0.34156
 C821 C 0.31921 -0.18367 0.32321
 N822 N 0.31691 -0.15912 0.32127
 C823 C 0.36745 -0.13797 0.37142
 C824 C 0.38118 -0.12408 0.38488
 C825 C 0.39715 -0.10692 0.40045
 N826 N 0.38719 -0.09824 0.42443
 N827 N 0.40131 -0.08138 0.43818
 C828 C 0.42584 -0.07263 0.42838
 N829 N 0.43584 -0.08144 0.40443
 N830 N 0.42171 -0.09830 0.39068
 N831 N 0.33299 0.35538 -0.16193
 C832 C 0.35148 0.34599 -0.14389
 N833 N 0.35401 0.32157 -0.14181
 N834 N 0.33849 0.30700 -0.15734
 C835 C 0.31990 0.31633 -0.17551
 N836 N 0.31749 0.34082 -0.17744
 C837 C 0.36823 0.36184 -0.12743
 C838 C 0.38199 0.37572 -0.11401
 C839 C 0.39797 0.39288 -0.09851
 N840 N 0.38806 0.40156 -0.07450
 N841 N 0.40216 0.41848 -0.06083
 C842 C 0.42661 0.42730 -0.07075
 N843 N 0.43656 0.41850 -0.09472
 N844 N 0.42245 0.40158 -0.10838
 N845 N 1.13395 -0.17117 0.16245
 C846 C 1.14636 -0.15620 0.14416
 N847 N 1.17452 -0.15655 0.14167
 N848 N 1.18982 -0.17139 0.15704
 C849 C 1.17754 -0.18641 0.17550
 N850 N 1.14926 -0.18602 0.17783
 C851 C 1.13004 -0.13955 0.12827
 C852 C 1.11668 -0.12515 0.11516
 C853 C 1.10116 -0.10753 0.09986
 N854 N 1.11134 -0.09874 0.07599
 N855 N 1.09753 -0.08161 0.06236
 C856 C 1.07312 -0.07268 0.07218
 N857 N 1.06291 -0.08159 0.09602
 N858 N 1.07672 -0.09872 0.10965
 N859 N 1.13315 0.32756 0.66211
 C860 C 1.14555 0.34253 0.64380
 N861 N 1.17371 0.34223 0.64132
 N862 N 1.18903 0.32743 0.65672
 C863 C 1.17677 0.31242 0.67519
 N864 N 1.14849 0.31275 0.67751
 C865 C 1.12923 0.35917 0.62795
 C866 C 1.11588 0.37361 0.61489
 C867 C 1.10042 0.39131 0.59968
 N868 N 1.11066 0.40019 0.57588
 N869 N 1.09695 0.41746 0.56238
 C870 C 1.07259 0.42642 0.57227
 N871 N 1.06232 0.41743 0.59604
 N872 N 1.07603 0.40016 0.60954
 N873 N 0.63289 -0.17181 0.66183
 C874 C 0.64533 -0.15683 0.64356
 N875 N 0.67349 -0.15720 0.64109
 N876 N 0.68877 -0.17206 0.65644
 C877 C 0.67646 -0.18709 0.67488
 N878 N 0.64818 -0.18669 0.67719
 C879 C 0.62905 -0.14013 0.62771
 C880 C 0.61572 -0.12569 0.61464
 C881 C 0.60025 -0.10801 0.59938
 N882 N 0.61044 -0.09921 0.57553
 N883 N 0.59670 -0.08201 0.56195
 C884 C 0.57233 -0.07303 0.57182
 N885 N 0.56211 -0.08194 0.59565
 N886 N 0.57585 -0.09914 0.60922
 N887 N 0.63349 0.32781 0.16103
 C888 C 0.64590 0.34282 0.14278
 N889 N 0.67407 0.34257 0.14038
 N890 N 0.68938 0.32779 0.15580
 C891 C 0.67710 0.31274 0.17422
 N892 N 0.64881 0.31302 0.17646
 C893 C 0.62960 0.35948 0.12695
 C894 C 0.61625 0.37393 0.11393
 C895 C 0.60077 0.39166 0.09880
 N896 N 0.57644 0.40054 0.10876
 N897 N 0.56273 0.41786 0.09536
 C898 C 0.57294 0.42688 0.07157
 N899 N 0.59724 0.41788 0.06158
 N900 N 0.61094 0.40056 0.07499
 N901 N 0.82635 0.15774 0.14031
 C902 C 0.85451 0.15746 0.14276
 N903 N 0.86690 0.17241 0.16107
 N904 N 0.85156 0.18716 0.17651
 C905 C 0.82328 0.18747 0.17422
 N906 N 0.81103 0.17248 0.15574
 C907 C 0.87084 0.14084 0.12692
 C908 C 0.88419 0.12642 0.11388
 C909 C 0.89965 0.10871 0.09872
 N910 N 0.92399 0.09981 0.10865
 N911 N 0.93768 0.08251 0.09522
 C912 C 0.92745 0.07353 0.07145
 N913 N 0.90314 0.08254 0.06149
 N914 N 0.88945 0.09984 0.07492
 N915 N 0.86614 0.67146 0.66204
 C916 C 0.85373 0.65646 0.64380
 N917 N 0.82557 0.65682 0.64131
 N918 N 0.81027 0.67169 0.65662
 C919 C 0.82255 0.68674 0.67502
 N920 N 0.85083 0.68634 0.67735
 C921 C 0.87003 0.63976 0.62801
 C922 C 0.88339 0.62531 0.61498
 C923 C 0.89890 0.60762 0.59979
 N924 N 0.88876 0.59882 0.57593
 N925 N 0.90254 0.58161 0.56242
 C926 C 0.92689 0.57264 0.57235
 N927 N 0.93705 0.58156 0.59618
 N928 N 0.92327 0.59876 0.60969
 N929 N 0.32569 0.15725 0.64081
 C930 C 0.35387 0.15694 0.64315
 N931 N 0.36635 0.17186 0.66143
 N932 N 0.35109 0.18663 0.67694
 C933 C 0.32280 0.18697 0.67476
 N934 N 0.31045 0.17201 0.65632
 C935 C 0.37011 0.14033 0.62721
 C936 C 0.38342 0.12592 0.61409
 C937 C 0.39887 0.10826 0.59884
 N938 N 0.42327 0.09940 0.60868
 N939 N 0.43698 0.08216 0.59516
 C940 C 0.42671 0.07320 0.57139
 N941 N 0.40234 0.08217 0.56153
 N942 N 0.38863 0.09941 0.57505
 N943 N 0.36697 0.67190 0.16238
 C944 C 0.35445 0.65695 0.14414
 N945 N 0.32629 0.65741 0.14170
 N946 N 0.31109 0.67232 0.15706
 C947 C 0.32347 0.68731 0.17546
 N948 N 0.35175 0.68681 0.17774
 C949 C 0.37065 0.64022 0.12828
 C950 C 0.38393 0.62575 0.11519
 C951 C 0.39935 0.60805 0.09992
 N952 N 0.38908 0.59922 0.07613
 N953 N 0.40280 0.58202 0.06254
 C954 C 0.42722 0.57308 0.07233
 N955 N 0.43752 0.58203 0.09610
 N956 N 0.42380 0.59922 0.10968
   
