data_POSCAR
  _audit_creation_date              2014-09-24
  _audit_creation_method            'ToBaCCo'
  _symmetry_space_group_name_H-M    'P1'
  _symmetry_Int_Tables_number       1
  _symmetry_cell_setting            triclinic
  loop_
  _symmetry_equiv_pos_as_xyz
 x,y,z
_cell_length_a 35.3938
_cell_length_b 34.2085
_cell_length_c 35.7426
_cell_angle_alpha 90.074900
_cell_angle_beta 90.332300
_cell_angle_gamma 90.068000
loop_
  _atom_site_label
  _atom_site_type_symbol
  _atom_site_fract_x
  _atom_site_fract_y
  _atom_site_fract_z
C1 C 0.67769 0.66878 0.93644
 H2 H 0.69040 0.64836 0.91723
 C3 C 0.64468 0.68814 0.92590
 H4 H 0.63285 0.68196 0.89858
 C5 C 0.67576 0.69785 0.99658
 H6 H 0.68744 0.70036 1.02452
 C7 C 0.64265 0.71790 0.98718
 H8 H 0.62927 0.73637 1.00785
 N9 N 0.69248 0.67379 0.97130
 C10 C 0.80686 0.64927 1.01069
 H11 H 0.80615 0.61780 1.00773
 C12 C 0.83989 0.66770 1.02273
 H13 H 0.86457 0.64998 1.02835
 C14 C 0.77566 0.71023 1.00501
 H15 H 0.75064 0.72665 0.99770
 C16 C 0.80825 0.72996 1.01701
 H17 H 0.80800 0.76154 1.01921
 Zn18 Zn 0.73258 0.64133 0.98745
 N19 N 0.77540 0.67051 1.00282
 C20 C 0.76445 0.62588 0.91816
 N21 N 0.74812 0.60827 0.94803
 C22 C 0.74465 0.56871 0.94990
 C23 C 0.75813 0.54522 0.92083
 C24 C 0.77811 0.60361 0.88849
 C25 C 0.73203 0.60963 1.06115
 C26 C 0.71559 0.59036 1.09141
 C27 C 0.66117 0.57639 1.05245
 C28 C 0.67905 0.59519 1.02283
 N29 N 0.71365 0.61165 1.02772
 H30 H 0.76681 0.65741 0.91746
 H31 H 0.73185 0.55531 0.97410
 H32 H 0.75551 0.51374 0.92280
 H33 H 0.79006 0.61868 0.86477
 H34 H 0.75912 0.62371 1.06478
 H35 H 0.73102 0.59041 1.11755
 H36 H 0.63323 0.56420 1.04781
 H37 H 0.66485 0.59769 0.99605
 C38 C 0.84062 0.70858 1.02686
 C39 C 0.62658 0.71307 0.95150
 C40 C 0.67922 0.57367 1.08755
 C41 C 0.77569 0.56257 0.88990
 C42 C 0.69892 0.33941 0.53641
 H43 H 0.72320 0.32160 0.54333
 C44 C 0.66281 0.32809 0.54817
 H45 H 0.65966 0.30155 0.56430
 C46 C 0.67374 0.39683 0.50897
 H47 H 0.67798 0.42412 0.49446
 C48 C 0.63753 0.38700 0.52060
 H49 H 0.61427 0.40659 0.51448
 N50 N 0.70357 0.37299 0.51658
 C51 C 0.81409 0.36691 0.46306
 H52 H 0.82090 0.39748 0.46708
 C53 C 0.83932 0.34269 0.44452
 H54 H 0.86538 0.35498 0.43399
 C55 C 0.77087 0.31457 0.47076
 H56 H 0.74387 0.30403 0.48044
 C57 C 0.79524 0.28925 0.45170
 H58 H 0.78709 0.25907 0.44722
 Zn59 Zn 0.75145 0.39115 0.50040
 N60 N 0.78106 0.35249 0.47653
 C61 C 0.81079 0.39141 0.55255
 N62 N 0.77890 0.41096 0.54233
 C63 C 0.76640 0.44202 0.56265
 C64 C 0.78692 0.45507 0.59401
 C65 C 0.83224 0.40369 0.58311
 C66 C 0.72706 0.41063 0.43160
 C67 C 0.71491 0.43265 0.40131
 C68 C 0.73407 0.49113 0.43441
 C69 C 0.74636 0.46767 0.46430
 N70 N 0.74205 0.42818 0.46240
 H71 H 0.81963 0.36578 0.53736
 H72 H 0.74054 0.45664 0.55453
 H73 H 0.77701 0.48031 0.60934
 H74 H 0.85777 0.38789 0.59036
 H75 H 0.72333 0.37924 0.43119
 H76 H 0.70149 0.41769 0.37807
 H77 H 0.73645 0.52262 0.43641
 H78 H 0.75810 0.48100 0.48922
 C79 C 0.83025 0.30318 0.43908
 C80 C 0.63158 0.35215 0.54005
 C81 C 0.71815 0.47351 0.40242
 C82 C 0.82047 0.43573 0.60436
 C83 C 0.16698 -0.16865 0.00808
 H84 H 0.15943 -0.14855 -0.01403
 C85 C 0.13885 -0.19094 0.02533
 H86 H 0.10991 -0.18745 0.01611
 C87 C 0.21342 -0.19454 0.04912
 H88 H 0.24241 -0.19483 0.05891
 C89 C 0.18633 -0.21719 0.06713
 H90 H 0.19475 -0.23511 0.09071
 N91 N 0.20330 -0.17045 0.02062
 C92 C 0.31200 -0.14083 -0.02891
 H93 H 0.31221 -0.10953 -0.02453
 C94 C 0.34157 -0.15863 -0.04821
 H95 H 0.36420 -0.14056 -0.05879
 C96 C 0.28041 -0.20159 -0.02285
 H97 H 0.25601 -0.21801 -0.01386
 C98 C 0.30916 -0.22051 -0.04241
 H99 H 0.30683 -0.25155 -0.04802
 Zn100 Zn 0.24088 -0.13527 0.00440
 N101 N 0.28222 -0.16238 -0.01670
 C102 C 0.29128 -0.10896 0.06135
 N103 N 0.25562 -0.10654 0.04722
 C104 C 0.22862 -0.08477 0.06440
 C105 C 0.23755 -0.06260 0.09603
 C106 C 0.30118 -0.08802 0.09349
 C107 C 0.21239 -0.11784 -0.06631
 C108 C 0.19967 -0.09473 -0.09595
 C109 C 0.20640 -0.03785 -0.05630
 C110 C 0.21971 -0.06206 -0.02773
 N111 N 0.22194 -0.10136 -0.03302
 H112 H 0.31203 -0.12726 0.04790
 H113 H 0.20020 -0.08423 0.05310
 H114 H 0.21607 -0.04462 0.10892
 H115 H 0.32988 -0.08964 0.10401
 H116 H 0.21479 -0.14916 -0.06984
 H117 H 0.19173 -0.10963 -0.12144
 H118 H 0.20464 -0.00667 -0.05111
 H119 H 0.22855 -0.04918 -0.00156
 C120 C 0.34017 -0.19903 -0.05545
 C121 C 0.14840 -0.21505 0.05584
 C122 C 0.19642 -0.05380 -0.09129
 C123 C 0.27409 -0.06434 0.11103
 C124 C 0.21605 0.16107 0.44536
 H125 H 0.24435 0.15958 0.43420
 C126 C 0.18833 0.18259 0.42641
 H127 H 0.19580 0.19823 0.40118
 C128 C 0.17106 0.13983 0.48970
 H129 H 0.16386 0.12207 0.51355
 C130 C 0.14260 0.16086 0.47172
 H131 H 0.11424 0.15835 0.48243
 N132 N 0.20679 0.13944 0.47591
 C133 C 0.30396 0.10442 0.54299
 H134 H 0.29348 0.07586 0.55067
 C135 C 0.33535 0.11971 0.56159
 H136 H 0.34889 0.10277 0.58346
 C137 C 0.29798 0.16195 0.50660
 H138 H 0.28281 0.17871 0.48584
 C139 C 0.32997 0.17809 0.52401
 H140 H 0.33893 0.20733 0.51663
 Zn141 Zn 0.24113 0.10229 0.49644
 N142 N 0.28560 0.12570 0.51641
 C143 C 0.28168 0.03868 0.46677
 N144 N 0.25463 0.06572 0.45895
 C145 C 0.23803 0.06745 0.42455
 C146 C 0.25029 0.04314 0.39572
 C147 C 0.29451 0.01348 0.43883
 C148 C 0.21394 0.09533 0.56922
 C149 C 0.19495 0.07825 0.59910
 C150 C 0.18137 0.02229 0.55984
 C151 C 0.20116 0.04021 0.53083
 N152 N 0.21679 0.07615 0.53602
 H153 H 0.29396 0.03723 0.49446
 H154 H 0.21551 0.08794 0.41915
 H155 H 0.23709 0.04540 0.36842
 H156 H 0.31689 -0.00710 0.44514
 H157 H 0.22605 0.12422 0.57227
 H158 H 0.19230 0.09442 0.62499
 H159 H 0.16848 -0.00607 0.55528
 H160 H 0.20334 0.02587 0.50395
 C161 C 0.34871 0.15689 0.55219
 C162 C 0.15086 0.18208 0.43909
 C163 C 0.17836 0.04123 0.59451
 C164 C 0.27966 0.01650 0.40253
 C165 C 0.17587 0.41992 0.21731
 H166 H 0.17874 0.41162 0.24639
 C167 C 0.19604 0.39975 0.18994
 H168 H 0.21423 0.37574 0.19807
 C169 C 0.14858 0.46112 0.17134
 H170 H 0.13008 0.48503 0.16407
 C171 C 0.16845 0.44199 0.14312
 H172 H 0.16407 0.45099 0.11443
 N173 N 0.15208 0.44949 0.20758
 C174 C 0.14254 0.51407 0.31264
 H175 H 0.11247 0.51467 0.31694
 C176 C 0.16624 0.53152 0.33912
 H177 H 0.15369 0.54538 0.36325
 C178 C 0.19489 0.49831 0.27458
 H179 H 0.20598 0.48614 0.24902
 C180 C 0.21965 0.51576 0.30027
 H181 H 0.24963 0.51649 0.29440
 Zn182 Zn 0.12337 0.47478 0.24543
 N183 N 0.15704 0.49750 0.28123
 C184 C 0.06522 0.45168 0.29442
 N185 N 0.09087 0.43799 0.26943
 C186 C 0.09405 0.39893 0.26270
 C187 C 0.07336 0.37197 0.28365
 C188 C 0.04424 0.42579 0.31622
 C189 C 0.10264 0.55295 0.22904
 C190 C 0.08304 0.58236 0.21001
 C191 C 0.04474 0.53255 0.18035
 C192 C 0.06481 0.50415 0.20020
 N193 N 0.09363 0.51470 0.22341
 H194 H 0.06132 0.48275 0.29790
 H195 H 0.11331 0.38829 0.24181
 H196 H 0.07807 0.34110 0.27909
 H197 H 0.02513 0.43726 0.33709
 H198 H 0.12598 0.56068 0.24723
 H199 H 0.09184 0.61241 0.21375
 H200 H 0.02268 0.52359 0.16102
 H201 H 0.05835 0.47351 0.19613
 C202 C 0.20544 0.53222 0.33323
 C203 C 0.19247 0.41071 0.15233
 C204 C 0.05395 0.57219 0.18487
 C205 C 0.04873 0.38539 0.31152
 C206 C -0.17311 0.04953 0.24016
 H207 H -0.16823 0.05907 0.26865
 C208 C -0.18861 0.07548 0.21402
 H209 H -0.19626 0.10463 0.22311
 C210 C -0.16652 0.00099 0.19348
 H211 H -0.15660 -0.02753 0.18511
 C212 C -0.18194 0.02587 0.16644
 H213 H -0.18404 0.01488 0.13820
 N214 N -0.16184 0.01327 0.22942
 C215 C -0.14009 -0.06474 0.32331
 H216 H -0.11419 -0.07642 0.31196
 C217 C -0.15564 -0.08172 0.35498
 H218 H -0.14182 -0.10677 0.36754
 C219 C -0.18960 -0.01824 0.32039
 H220 H -0.20284 0.00626 0.30647
 C221 C -0.20578 -0.03392 0.35295
 H222 H -0.23176 -0.02172 0.36371
 Zn223 Zn -0.13151 -0.01680 0.26275
 N224 N -0.15733 -0.03401 0.30627
 C225 C -0.08489 0.02226 0.31479
 N226 N -0.09078 0.01564 0.27769
 C227 C -0.07148 0.03599 0.25126
 C228 C -0.04667 0.06597 0.26185
 C229 C -0.06039 0.05180 0.32655
 C230 C -0.14141 -0.09011 0.23096
 C231 C -0.13139 -0.12653 0.21658
 C232 C -0.06608 -0.10589 0.21697
 C233 C -0.07738 -0.06978 0.23159
 N234 N -0.11453 -0.06267 0.23827
 H235 H -0.10047 0.00588 0.33541
 H236 H -0.07696 0.03039 0.22193
 H237 H -0.03286 0.08323 0.24052
 H238 H -0.05675 0.05700 0.35623
 H239 H -0.17067 -0.08391 0.23721
 H240 H -0.15319 -0.14815 0.21139
 H241 H -0.03628 -0.11124 0.21292
 H242 H -0.05641 -0.04787 0.23850
 C243 C -0.18875 -0.06639 0.37025
 C244 C -0.19239 0.06431 0.17624
 C245 C -0.09339 -0.13489 0.20938
 C246 C -0.04221 0.07523 0.29985
 C247 C 0.30093 0.52468 0.70759
 H248 H 0.28725 0.51604 0.73326
 C249 C 0.27932 0.53887 0.67770
 H250 H 0.24894 0.54110 0.68055
 C251 C 0.35717 0.53315 0.67283
 H252 H 0.38763 0.53114 0.67141
 C253 C 0.33669 0.54728 0.64226
 H254 H 0.35196 0.55678 0.61777
 N255 N 0.33913 0.52226 0.70463
 C256 C 0.31914 0.44644 0.77262
 H257 H 0.31925 0.43550 0.74434
 C258 C 0.29949 0.42585 0.80004
 H259 H 0.28495 0.39906 0.79251
 C260 C 0.33753 0.49443 0.81688
 H261 H 0.35186 0.52149 0.82337
 C262 C 0.31830 0.47470 0.84521
 H263 H 0.31803 0.48729 0.87297
 Zn264 Zn 0.36939 0.50357 0.74445
 N265 N 0.33861 0.47952 0.78157
 C266 C 0.42015 0.53930 0.79565
 N267 N 0.39664 0.54607 0.76614
 C268 C 0.39046 0.58304 0.75350
 C269 C 0.40794 0.61499 0.77088
 C270 C 0.43820 0.57033 0.81382
 C271 C 0.38632 0.43853 0.70104
 C272 C 0.40746 0.40789 0.68634
 C273 C 0.46246 0.43355 0.71821
 C274 C 0.44009 0.46376 0.73248
 N275 N 0.40250 0.46525 0.72431
 H276 H 0.42398 0.50980 0.80586
 H277 H 0.37112 0.58804 0.73051
 H278 H 0.40147 0.64396 0.76074
 H279 H 0.45632 0.56431 0.83765
 H280 H 0.35675 0.44095 0.69380
 H281 H 0.39298 0.38648 0.66925
 H282 H 0.49220 0.43242 0.72543
 H283 H 0.45286 0.48562 0.75027
 C284 C 0.29984 0.43925 0.83710
 C285 C 0.29712 0.55011 0.64441
 C286 C 0.44621 0.40500 0.69489
 C287 C 0.43213 0.60882 0.80168
 C288 C 0.68070 0.97929 0.72509
 H289 H 0.66233 0.95928 0.73965
 C290 C 0.70295 0.96537 0.69589
 H291 H 0.70230 0.93449 0.68926
 C292 C 0.70242 1.04391 0.71474
 H293 H 0.70085 1.07473 0.72137
 C294 C 0.72535 1.03112 0.68535
 H295 H 0.74183 1.05216 0.66974
 N296 N 0.67999 1.01812 0.73327
 C297 C 0.63270 1.08436 0.82713
 H298 H 0.60326 1.08298 0.81889
 C299 C 0.64303 1.10400 0.85980
 H300 H 0.62125 1.11812 0.87616
 C301 C 0.69624 1.06636 0.81611
 H302 H 0.71672 1.05127 0.79903
 C303 C 0.70770 1.08437 0.84956
 H304 H 0.73734 1.08371 0.85701
 Zn305 Zn 0.64086 1.03744 0.76422
 N306 N 0.65921 1.06653 0.80573
 C307 C 0.63227 0.97386 0.81067
 N308 N 0.61334 0.99508 0.78451
 C309 C 0.57692 0.98653 0.77507
 C310 C 0.55847 0.95482 0.79171
 C311 C 0.61478 0.94250 0.82836
 C312 C 0.60543 1.10759 0.73902
 C313 C 0.58444 1.13030 0.71402
 C314 C 0.57385 1.07267 0.67625
 C315 C 0.59491 1.05106 0.70204
 N316 N 0.60988 1.06861 0.73290
 H317 H 0.66106 0.98154 0.81790
 H318 H 0.56199 1.00432 0.75492
 H319 H 0.52941 0.94863 0.78421
 H320 H 0.63028 0.92606 0.84929
 H321 H 0.61913 1.12154 0.76256
 H322 H 0.58240 1.16140 0.71902
 H323 H 0.56245 1.05829 0.65163
 H324 H 0.59992 1.02029 0.69716
 C325 C 0.68076 1.10344 0.87211
 C326 C 0.72446 0.99169 0.67461
 C327 C 0.56823 1.11275 0.68213
 C328 C 0.57763 0.93240 0.81872
 C329 C 0.01868 0.21428 -0.19370
 H330 H -0.00013 0.23604 -0.20532
 C331 C 0.03439 0.18580 -0.21705
 H332 H 0.02767 0.18578 -0.24665
 C333 C 0.05084 0.18775 -0.14125
 H334 H 0.05746 0.18898 -0.11168
 C335 C 0.06660 0.15853 -0.16334
 H336 H 0.08574 0.13770 -0.15060
 N337 N 0.02664 0.21432 -0.15640
 C338 C -0.05808 0.27952 -0.16516
 H339 H -0.06911 0.25026 -0.16165
 C340 C -0.07945 0.30774 -0.18407
 H341 H -0.10699 0.29991 -0.19515
 C342 C -0.00890 0.32532 -0.15468
 H343 H 0.01876 0.33199 -0.14340
 C344 C -0.02917 0.35430 -0.17353
 H345 H -0.01610 0.38263 -0.17678
 Zn346 Zn 0.00432 0.25109 -0.12333
 N347 N -0.02363 0.28886 -0.15065
 C348 C 0.07938 0.27474 -0.10914
 N349 N 0.04337 0.27703 -0.09620
 C350 C 0.03490 0.29933 -0.06584
 C351 C 0.06336 0.31994 -0.04695
 C352 C 0.10866 0.29454 -0.09096
 C353 C -0.02786 0.18463 -0.08811
 C354 C -0.05325 0.16429 -0.06578
 C355 C -0.08170 0.22571 -0.04837
 C356 C -0.05508 0.24497 -0.07064
 N357 N -0.02897 0.22431 -0.09020
 H358 H 0.08543 0.25840 -0.13426
 H359 H 0.00600 0.30153 -0.05652
 H360 H 0.05619 0.33778 -0.02296
 H361 H 0.13682 0.29293 -0.10247
 H362 H -0.00783 0.16820 -0.10423
 H363 H -0.05156 0.13264 -0.06516
 H364 H -0.10204 0.24349 -0.03376
 H365 H -0.05598 0.27646 -0.07315
 C366 C -0.06535 0.34590 -0.18807
 C367 C 0.05788 0.15694 -0.20165
 C368 C -0.08137 0.18445 -0.04600
 C369 C 0.10084 0.31732 -0.05922
 C370 C 0.48364 0.20566 0.21279
 H371 H 0.50087 0.22752 0.22654
 C372 C 0.46653 0.17625 0.23393
 H373 H 0.47067 0.17573 0.26398
 C374 C 0.45750 0.17928 0.15703
 H375 H 0.45431 0.18058 0.12693
 C376 C 0.43984 0.14958 0.17700
 H377 H 0.42228 0.12901 0.16186
 N378 N 0.47939 0.20620 0.17494
 C379 C 0.51738 0.31766 0.17667
 H380 H 0.49153 0.32531 0.16224
 C381 C 0.53746 0.34642 0.19611
 H382 H 0.52628 0.37583 0.19680
 C383 C 0.56252 0.26977 0.19398
 H384 H 0.57228 0.23985 0.19253
 C385 C 0.58348 0.29765 0.21385
 H386 H 0.60939 0.28902 0.22783
 Zn387 Zn 0.50532 0.24314 0.14498
 N388 N 0.53046 0.28033 0.17544
 C389 C 0.48272 0.29507 0.08691
 N390 N 0.47005 0.26973 0.11338
 C391 C 0.43238 0.26527 0.11964
 C392 C 0.40591 0.28611 0.09858
 C393 C 0.45717 0.31696 0.06554
 C394 C 0.54447 0.17659 0.11775
 C395 C 0.57374 0.15667 0.10012
 C396 C 0.59951 0.21867 0.08061
 C397 C 0.56952 0.23746 0.09848
 N398 N 0.54271 0.21634 0.11667
 H399 H 0.51265 0.29918 0.08298
 H400 H 0.42262 0.24657 0.14187
 H401 H 0.37622 0.28278 0.10491
 H402 H 0.46772 0.33748 0.04503
 H403 H 0.52390 0.15999 0.13310
 H404 H 0.57481 0.12507 0.10176
 H405 H 0.62027 0.23623 0.06625
 H406 H 0.56845 0.26902 0.09892
 C407 C 0.57155 0.33673 0.21424
 C408 C 0.44505 0.14720 0.21596
 C409 C 0.60215 0.17765 0.08191
 C410 C 0.41825 0.31238 0.07107
 C411 C 0.99034 0.67480 0.62442
 H412 H 1.01340 0.66470 0.60735
 C413 C 0.96909 0.64758 0.64449
 H414 H 0.97630 0.61694 0.64236
 C415 C 0.95123 0.72636 0.64547
 H416 H 0.94340 0.75686 0.64458
 C417 C 0.92909 0.70015 0.66566
 H418 H 0.90489 0.71093 0.68095
 N419 N 0.98129 0.71346 0.62539
 C420 C 1.07008 0.79697 0.61296
 H421 H 1.08120 0.78488 0.58739
 C422 C 1.09136 0.82451 0.63255
 H423 H 1.11898 0.83268 0.62223
 C424 C 1.02012 0.80271 0.65642
 H425 H 0.99228 0.79439 0.66556
 C426 C 1.04039 0.83076 0.67677
 H427 H 1.02801 0.84299 0.70177
 Zn428 Zn 1.00749 0.75035 0.59526
 N429 N 1.03525 0.78627 0.62522
 C430 C 0.97891 0.81726 0.55949
 N431 N 0.97151 0.77917 0.56755
 C432 C 0.93695 0.76322 0.56074
 C433 C 0.90743 0.78648 0.54744
 C434 C 0.95030 0.84148 0.54572
 C435 C 1.07179 0.70643 0.58069
 C436 C 1.10035 0.68941 0.55960
 C437 C 1.06685 0.70830 0.50337
 C438 C 1.03896 0.72544 0.52565
 N439 N 1.04210 0.72437 0.56358
 H440 H 1.00661 0.82928 0.56525
 H441 H 0.93184 0.73278 0.56709
 H442 H 0.87993 0.77340 0.54286
 H443 H 0.95622 0.87206 0.54052
 H444 H 1.07359 0.70610 0.61091
 H445 H 1.12344 0.67500 0.57397
 H446 H 1.06420 0.70936 0.47319
 H447 H 1.01513 0.73997 0.51271
 C448 C 1.07646 0.84208 0.66459
 C449 C 0.93795 0.66025 0.66547
 C450 C 1.09840 0.69077 0.52037
 C451 C 0.91372 0.82648 0.54100
 C452 C 0.53419 0.67671 0.35403
 H453 H 0.51278 0.66658 0.37312
 C454 C 0.55521 0.64956 0.33373
 H455 H 0.55001 0.61880 0.33834
 C456 C 0.56765 0.72908 0.32621
 H457 H 0.57236 0.76021 0.32362
 C458 C 0.58936 0.70297 0.30542
 H459 H 0.61085 0.71418 0.28682
 N460 N 0.54117 0.71561 0.35044
 C461 C 0.49883 0.82995 0.35434
 H462 H 0.51271 0.83924 0.37972
 C463 C 0.48372 0.85813 0.33049
 H464 H 0.48697 0.88849 0.33826
 C465 C 0.47985 0.77930 0.31312
 H466 H 0.47832 0.74841 0.30674
 C467 C 0.46519 0.80658 0.28790
 H468 H 0.45213 0.79630 0.26220
 Zn469 Zn 0.51450 0.75289 0.37915
 N470 N 0.49577 0.79133 0.34586
 C471 C 0.58532 0.76987 0.41250
 N472 N 0.54752 0.77651 0.41448
 C473 C 0.53304 0.80182 0.44002
 C474 C 0.55712 0.82411 0.46264
 C475 C 0.61039 0.79129 0.43470
 C476 C 0.48216 0.70428 0.43356
 C477 C 0.45313 0.68616 0.45338
 C478 C 0.40767 0.72018 0.41475
 C479 C 0.43760 0.73767 0.39565
 N480 N 0.47398 0.72911 0.40501
 H481 H 0.59637 0.74906 0.39271
 H482 H 0.50280 0.80610 0.44146
 H483 H 0.54527 0.84551 0.48159
 H484 H 0.64036 0.78699 0.43077
 H485 H 0.51133 0.69846 0.44081
 H486 H 0.46022 0.66620 0.47585
 H487 H 0.37913 0.72799 0.40692
 H488 H 0.43169 0.75813 0.37338
 C489 C 0.46581 0.84656 0.29697
 C490 C 0.58336 0.66266 0.30905
 C491 C 0.41530 0.69360 0.44384
 C492 C 0.59634 0.81950 0.45965
 C493 C 0.36580 -0.01347 0.25362
 C494 C 0.12574 0.99148 0.75639
 C495 C 0.64554 0.50373 0.24311
 C496 C 0.87966 0.51282 0.75455
 C497 C 0.26434 0.36643 -0.00327
 C498 C 0.76621 0.13968 1.02196
 C499 C 0.25699 0.61567 0.48306
 C500 C 0.74627 0.89044 0.52840
 C501 C -0.01359 0.23233 0.38847
 C502 C 0.99134 0.73179 0.12042
 C503 C 0.49173 0.25543 0.60019
 C504 C 0.49071 0.77627 0.85176
 C505 C 0.44794 -0.12677 0.27286
 C506 C 0.43658 -0.08933 0.28378
 C507 C 0.41429 -0.06658 0.26022
 C508 C 0.39441 -0.03447 0.27432
 H509 H 0.44113 -0.07932 0.31216
 H510 H 0.41004 -0.07587 0.23150
 H511 H 0.43876 -0.13722 0.24558
 H512 H 0.40131 -0.02454 0.30243
 C513 C 0.91118 0.37554 0.79211
 C514 C 0.91761 0.41414 0.79373
 C515 C 0.89346 0.44232 0.77350
 C516 C 0.90209 0.48053 0.77387
 H517 H 0.94066 0.42564 0.81040
 H518 H 0.86882 0.43170 0.75857
 H519 H 0.88703 0.36516 0.77612
 H520 H 0.92661 0.48986 0.78995
 C521 C 0.07407 1.12625 0.77414
 C522 C 0.07956 1.08974 0.78637
 C523 C 0.09924 1.06048 0.76347
 C524 C 0.10193 1.02325 0.77502
 H525 H 0.07025 1.08150 0.81412
 H526 H 0.11275 1.07015 0.73803
 H527 H 0.08119 1.13375 0.74557
 H528 H 0.08655 1.01482 0.79995
 C529 C 0.60822 0.63543 0.28834
 C530 C 0.59919 0.59820 0.28119
 C531 C 0.62620 0.57178 0.26294
 C532 C 0.61766 0.53397 0.25778
 H533 H 0.57191 0.58668 0.28915
 H534 H 0.65381 0.58275 0.25519
 H535 H 0.63508 0.64659 0.27852
 H536 H 0.59044 0.52352 0.26745
 C537 C 0.59526 0.36660 0.23326
 C538 C 0.59585 0.40404 0.22246
 C539 C 0.62076 0.43314 0.24052
 C540 C 0.62183 0.46991 0.22742
 H541 H 0.57859 0.41339 0.19902
 H542 H 0.63773 0.42423 0.26428
 H543 H 0.61434 0.35709 0.25527
 H544 H 0.60299 0.47675 0.20433
 C545 C 0.09967 0.87165 0.68422
 C546 C 0.08559 0.89996 0.70584
 C547 C 0.11120 0.92961 0.72156
 C548 C 0.09872 0.96026 0.74135
 H549 H 0.05553 0.90236 0.71069
 H550 H 0.14115 0.92708 0.71581
 H551 H 0.12980 0.87145 0.67874
 H552 H 0.06868 0.96279 0.74676
 C553 C 0.91278 0.63285 0.68550
 C554 C 0.92342 0.59744 0.69737
 C555 C 0.89647 0.57217 0.71715
 C556 C 0.90741 0.53890 0.73369
 H557 H 0.95212 0.58735 0.69351
 H558 H 0.86714 0.58111 0.71886
 H559 H 0.88441 0.64282 0.69172
 H560 H 0.93676 0.53004 0.73159
 C561 C 0.42815 0.11541 0.23852
 C562 C 0.41801 0.08084 0.22400
 C563 C 0.40012 0.05060 0.24712
 C564 C 0.38591 0.01814 0.23138
 H565 H 0.42259 0.07450 0.19472
 H566 H 0.39735 0.05535 0.27698
 H567 H 0.42468 0.12034 0.26828
 H568 H 0.38996 0.01357 0.20162
 C569 C 0.28094 0.41537 -0.13387
 C570 C 0.28963 0.41728 -0.09741
 C571 C 0.27183 0.39066 -0.07032
 C572 C 0.28051 0.39277 -0.03377
 H573 H 0.31093 0.43751 -0.08738
 H574 H 0.25202 0.36904 -0.08072
 H575 H 0.26063 0.39361 -0.14320
 H576 H 0.30060 0.41495 -0.02492
 C577 C 0.79443 0.91268 0.40221
 C578 C 0.77725 0.92972 0.43124
 C579 C 0.76514 0.90483 0.46269
 C580 C 0.75474 0.91865 0.49628
 H581 H 0.77399 0.96117 0.43256
 H582 H 0.76666 0.87340 0.45888
 H583 H 0.79921 0.88135 0.40316
 H584 H 0.75436 0.94992 0.50117
 C585 C 0.79519 0.09238 1.14992
 C586 C 0.79111 0.08591 1.11133
 C587 C 0.78134 0.11627 1.08698
 C588 C 0.77601 0.10933 1.04859
 H589 H 0.79545 0.05723 1.09949
 H590 H 0.77756 0.14557 1.09792
 H591 H 0.78914 0.12158 1.16016
 H592 H 0.78067 0.07970 1.03863
 C593 C 0.27403 0.56685 0.61364
 C594 C 0.28507 0.56744 0.57787
 C595 C 0.26283 0.58831 0.54925
 C596 C 0.27504 0.59078 0.51383
 H597 H 0.31120 0.55354 0.56963
 H598 H 0.23722 0.60295 0.55788
 H599 H 0.24691 0.57944 0.62083
 H600 H 0.29988 0.57408 0.50615
 C601 C 0.23157 0.55221 0.35954
 C602 C 0.22415 0.55628 0.39600
 C603 C 0.24813 0.58071 0.42041
 C604 C 0.23856 0.58649 0.45625
 H605 H 0.19928 0.54273 0.40785
 H606 H 0.27222 0.59540 0.40830
 H607 H 0.25753 0.56428 0.34844
 H608 H 0.21483 0.57006 0.46726
 C609 C 0.68965 0.12165 0.90639
 C610 C 0.72253 0.11483 0.92727
 C611 C 0.72807 0.13336 0.96172
 C612 C 0.75741 0.12198 0.98591
 H613 H 0.74283 0.09324 0.91816
 H614 H 0.70871 0.15631 0.96979
 H615 H 0.66820 0.14001 0.91902
 H616 H 0.77621 0.09923 0.97583
 C617 C 0.74412 0.97878 0.64018
 C618 C 0.72853 0.95214 0.61734
 C619 C 0.74685 0.93796 0.58288
 C620 C 0.72893 0.91127 0.56177
 H621 H 0.70100 0.94028 0.62418
 H622 H 0.77501 0.94773 0.57564
 H623 H 0.77041 0.99281 0.63246
 H624 H 0.70105 0.90201 0.57068
 C625 C 0.21234 0.38768 0.12339
 C626 C 0.22202 0.40227 0.09010
 C627 C 0.23923 0.37722 0.06139
 C628 C 0.25053 0.39207 0.02866
 H629 H 0.21704 0.43276 0.08368
 H630 H 0.24162 0.34608 0.06645
 H631 H 0.21954 0.35764 0.12993
 H632 H 0.24706 0.42317 0.02372
 C633 C -0.14346 0.27693 0.41922
 C634 C -0.10600 0.28023 0.42337
 C635 C -0.07969 0.25618 0.40159
 C636 C -0.04321 0.25364 0.41162
 H637 H -0.09440 0.30103 0.44328
 H638 H -0.09007 0.24093 0.37700
 H639 H -0.15509 0.25413 0.40148
 H640 H -0.03367 0.27009 0.43591
 C641 C 0.36831 0.78132 0.92045
 C642 C 0.40379 0.79406 0.91612
 C643 C 0.42856 0.77640 0.88772
 C644 C 0.46459 0.78799 0.88397
 H645 H 0.41431 0.81839 0.93258
 H646 H 0.41615 0.75544 0.86858
 H647 H 0.35912 0.75560 0.90511
 H648 H 0.47540 0.80935 0.90378
 C649 C 1.11973 0.76547 0.07946
 C650 C 1.08373 0.75918 0.06947
 C651 C 1.05662 0.74580 0.09781
 C652 C 1.02039 0.73791 0.08963
 H653 H 1.07383 0.76538 0.04141
 H654 H 1.06598 0.74467 0.12673
 H655 H 1.12859 0.75719 0.10747
 H656 H 1.01087 0.74033 0.06084
 C657 C 0.59294 0.34348 0.55320
 C658 C 0.57978 0.30735 0.55859
 C659 C 0.54137 0.30133 0.57322
 C660 C 0.52815 0.26526 0.57952
 H661 H 0.59740 0.28222 0.55278
 H662 H 0.52477 0.32681 0.58018
 H663 H 0.57413 0.36806 0.55761
 H664 H 0.54553 0.24077 0.57090
 C665 C 0.37985 0.17379 0.57463
 C666 C 0.40591 0.19808 0.56090
 C667 C 0.43459 0.21495 0.58617
 C668 C 0.46515 0.23387 0.57356
 H669 H 0.40603 0.20548 0.53143
 H670 H 0.43020 0.21261 0.61609
 H671 H 0.38189 0.16494 0.60371
 H672 H 0.46904 0.23696 0.54363
 C673 C 0.87471 0.72927 0.04100
 C674 C 0.89901 0.71235 0.06477
 C675 C 0.93313 0.73237 0.07890
 C676 C 0.95515 0.71437 0.10411
 H677 H 0.89342 0.68306 0.07479
 H678 H 0.94036 0.76129 0.06887
 H679 H 0.87909 0.75946 0.03291
 H680 H 0.94645 0.68568 0.11374
 C681 C 0.58989 0.73212 0.94284
 C682 C 0.57736 0.73788 0.90791
 C683 C 0.53976 0.75449 0.90015
 C684 C 0.52861 0.75972 0.86463
 H685 H 0.59496 0.73039 0.88432
 H686 H 0.52147 0.76184 0.92327
 H687 H 0.57261 0.74173 0.96605
 H688 H 0.54805 0.75174 0.84250
 C689 C 0.12086 0.20036 0.41571
 C690 C 0.08562 0.20687 0.42767
 C691 C 0.05552 0.21953 0.40178
 C692 C 0.01994 0.22347 0.41386
 H693 H 0.07819 0.20186 0.45656
 H694 H 0.06218 0.22406 0.37256
 H695 H 0.12770 0.20731 0.38694
 H696 H 0.01401 0.21692 0.44296
 C697 C 0.54817 0.13564 0.65305
 C698 C 0.53249 0.17060 0.65922
 C699 C 0.51684 0.19336 0.62791
 C700 C 0.50264 0.22924 0.63304
 H701 H 0.53205 0.18311 0.68704
 H702 H 0.51866 0.18150 0.59983
 H703 H 0.54663 0.12323 0.62514
 H704 H 0.50147 0.24077 0.66127
 C705 C 1.03507 0.60139 0.16058
 C706 C 1.03235 0.63951 0.16871
 C707 C 1.01557 0.66660 0.14128
 C708 C 1.00709 0.70374 0.14982
 H709 H 1.04237 0.65082 0.19528
 H710 H 1.01017 0.65604 0.11312
 H711 H 1.02272 0.59083 0.13461
 H712 H 1.01271 0.71439 0.17791
 C713 C 0.91640 0.82555 0.19542
 C714 C 0.94799 0.81744 0.17663
 C715 C 0.95498 0.77784 0.16185
 C716 C 0.98344 0.77140 0.13818
 H717 H 0.96814 0.84035 0.17050
 H718 H 0.93613 0.75411 0.16924
 H719 H 0.89579 0.80243 0.19930
 H720 H 1.00197 0.79569 0.13146
 C721 C 0.46992 0.37213 0.68131
 C722 C 0.46003 0.34918 0.65250
 C723 C 0.48293 0.31525 0.64126
 C724 C 0.47056 0.29153 0.61392
 H725 H 0.43452 0.35503 0.63671
 H726 H 0.50957 0.30948 0.65526
 H727 H 0.49649 0.36660 0.69561
 H728 H 0.44413 0.29896 0.60007
 C729 C 0.45001 0.64119 0.82317
 C730 C 0.45134 0.67860 0.81212
 C731 C 0.46917 0.70828 0.83640
 C732 C 0.47264 0.74579 0.82598
 H733 H 0.43988 0.68760 0.78540
 H734 H 0.47965 0.69938 0.86366
 H735 H 0.46306 0.63362 0.84973
 H736 H 0.46104 0.75477 0.79920
 C737 C -0.02095 0.11084 0.31089
 C738 C -0.03178 0.13274 0.33996
 C739 C -0.01383 0.17041 0.34937
 C740 C -0.02956 0.19328 0.37543
 H741 H -0.05605 0.12384 0.35623
 H742 H 0.01147 0.17958 0.33488
 H743 H 0.00153 0.12115 0.29293
 H744 H -0.05393 0.18192 0.39021
 C745 C 0.03022 0.35863 0.33833
 C746 C 0.02328 0.32076 0.33168
 C747 C 0.00919 0.29564 0.36199
 C748 C -0.00252 0.25886 0.35600
 H749 H 0.02860 0.30806 0.30446
 H750 H 0.00935 0.30716 0.39026
 H751 H 0.02251 0.37073 0.36530
 H752 H -0.00259 0.24747 0.32770
 C753 C 0.55974 0.89945 0.83861
 C754 C 0.53295 0.87640 0.82383
 C755 C 0.51981 0.84230 0.84522
 C756 C 0.49956 0.81324 0.82976
 H757 H 0.52252 0.88119 0.79567
 H758 H 0.52902 0.83960 0.87410
 H759 H 0.57112 0.89221 0.86600
 H760 H 0.49084 0.81570 0.80073
 C761 C 0.66052 0.55634 0.11597
 C762 C 0.67568 0.54816 0.15139
 C763 C 0.65285 0.53274 0.17936
 C764 C 0.66816 0.51972 0.21332
 H765 H 0.70540 0.55219 0.15738
 H766 H 0.62269 0.53056 0.17443
 H767 H 0.63148 0.54730 0.11099
 H768 H 0.69845 0.52297 0.21747
 C769 C 0.15599 1.02295 0.62453
 C770 C 0.16363 1.02823 0.66087
 C771 C 0.13940 1.01055 0.68947
 C772 C 0.15040 1.00843 0.72538
 H773 H 0.18808 1.04509 0.66961
 H774 H 0.11210 0.99928 0.68085
 H775 H 0.13299 1.00369 0.61639
 H776 H 0.17740 1.02117 0.73331
 C777 C 0.18355 0.97048 0.88161
 C778 C 0.17615 0.95944 0.84457
 C779 C 0.15773 0.98454 0.81980
 C780 C 0.15053 0.97247 0.78298
 H781 H 0.18424 0.93093 0.83437
 H782 H 0.14789 1.01261 0.82983
 H783 H 0.17872 1.00093 0.88876
 H784 H 0.16434 0.94577 0.77400
 C785 C 0.70170 0.49764 0.37206
 C786 C 0.69897 0.48450 0.33682
 C787 C 0.67509 0.50404 0.30871
 C788 C 0.67242 0.48945 0.27389
 H789 H 0.71277 0.45747 0.32899
 H790 H 0.65831 0.52876 0.31746
 H791 H 0.68979 0.52582 0.37928
 H792 H 0.69079 0.46526 0.26653
 C793 C 0.84504 0.44850 0.63575
 C794 C 0.83311 0.46801 0.66590
 C795 C 0.86051 0.47900 0.69533
 C796 C 0.85028 0.49792 0.72648
 H797 H 0.80361 0.47561 0.66903
 H798 H 0.89016 0.47246 0.69109
 H799 H 0.87453 0.43998 0.63451
 H800 H 0.82068 0.50470 0.73071
 C801 C 0.28403 -0.03996 0.14369
 C802 C 0.30693 -0.05290 0.17072
 C803 C 0.32130 -0.02650 0.20000
 C804 C 0.34379 -0.04020 0.22716
 H805 H 0.31686 -0.08287 0.17012
 H806 H 0.31636 0.00466 0.19752
 H807 H 0.27235 -0.01073 0.14539
 H808 H 0.34606 -0.07165 0.23027
 C809 C 0.29639 -0.00712 0.37223
 C810 C 0.30014 0.00670 0.33746
 C811 C 0.32325 -0.01412 0.30985
 C812 C 0.33739 0.00485 0.28028
 H813 H 0.28942 0.03543 0.33037
 H814 H 0.33149 -0.04410 0.31534
 H815 H 0.30993 -0.03448 0.37967
 H816 H 0.32823 0.03462 0.27505
 C817 C 0.79096 0.53731 0.85974
 C818 C 0.81860 0.54899 0.83693
 C819 C 0.83382 0.52359 0.80732
 C820 C 0.86117 0.53703 0.78503
 H821 H 0.83110 0.57766 0.84041
 H822 H 0.82295 0.49419 0.80364
 H823 H 0.78015 0.50775 0.85715
 H824 H 0.87187 0.56633 0.79016
 C825 C 0.12801 0.67264 0.49697
 C826 C 0.16417 0.67034 0.50800
 C827 C 0.19195 0.64755 0.48662
 C828 C 0.22767 0.64383 0.49903
 H829 H 0.17316 0.68397 0.53394
 H830 H 0.18226 0.63206 0.46194
 H831 H 0.11973 0.66069 0.47002
 H832 H 0.23650 0.66139 0.52284
 C833 C 0.63399 0.15564 1.06533
 C834 C 0.66813 0.17113 1.05953
 C835 C 0.69926 0.14714 1.04493
 C836 C 0.73287 0.16324 1.03737
 H837 H 0.67373 0.20142 1.06637
 H838 H 0.69477 0.11623 1.03977
 H839 H 0.62975 0.12478 1.05963
 H840 H 0.73642 0.19425 1.04287
 C841 C 0.89283 0.16312 0.97299
 C842 C 0.86062 0.17776 0.99071
 C843 C 0.83331 0.15200 1.00419
 C844 C 0.79813 0.16541 1.01652
 H845 H 0.85489 0.20875 0.99189
 H846 H 0.83820 0.12076 1.00237
 H847 H 0.89599 0.13152 0.97285
 H848 H 0.79382 0.19682 1.01686
 C849 C 0.38516 0.67344 0.46520
 C850 C 0.34915 0.67017 0.45378
 C851 C 0.32188 0.64719 0.47575
 C852 C 0.28634 0.64131 0.46356
 H853 H 0.33988 0.68274 0.42755
 H854 H 0.33158 0.63447 0.50178
 H855 H 0.39349 0.65901 0.49096
 H856 H 0.27733 0.65616 0.43824
 C857 C 0.62163 0.84671 0.48013
 C858 C 0.65783 0.83876 0.48777
 C859 C 0.68283 0.86863 0.50415
 C860 C 0.71825 0.85979 0.51434
 H861 H 0.66948 0.81026 0.48155
 H862 H 0.67264 0.89834 0.50714
 H863 H 0.61012 0.87469 0.48865
 H864 H 0.72803 0.83001 0.51028
 C865 C 0.13071 0.34019 -0.03987
 C866 C 0.16704 0.32935 -0.03937
 C867 C 0.19623 0.35392 -0.02155
 C868 C 0.23192 0.34119 -0.01818
 H869 H 0.17552 0.30200 -0.05209
 H870 H 0.18864 0.38286 -0.01185
 H871 H 0.12239 0.36642 -0.02500
 H872 H 0.23881 0.31265 -0.02952
 C873 C 0.39135 0.33721 0.04993
 C874 C 0.35616 0.32573 0.04152
 C875 C 0.32915 0.35245 0.02328
 C876 C 0.29540 0.33952 0.01133
 H877 H 0.34692 0.29642 0.04844
 H878 H 0.33638 0.38311 0.02086
 H879 H 0.40097 0.36571 0.04073
 H880 H 0.28881 0.30880 0.01517
 C881 C 0.88268 0.85314 0.53008
 C882 C 0.84734 0.84834 0.54235
 C883 C 0.81673 0.87495 0.53091
 C884 C 0.78117 0.86847 0.54217
 H885 H 0.84071 0.82434 0.56096
 H886 H 0.82336 0.89886 0.51229
 H887 H 0.88947 0.87842 0.51312
 H888 H 0.77619 0.84471 0.56164
   
