data_POSCAR
  _audit_creation_date              2014-09-24
  _audit_creation_method            'ToBaCCo'
  _symmetry_space_group_name_H-M    'P1'
  _symmetry_Int_Tables_number       1
  _symmetry_cell_setting            triclinic
  loop_
  _symmetry_equiv_pos_as_xyz
 x,y,z
_cell_length_a 33.1369
_cell_length_b 33.9150
_cell_length_c 31.3144
_cell_angle_alpha 89.220000
_cell_angle_beta 87.490200
_cell_angle_gamma 92.712600
loop_
  _atom_site_label
  _atom_site_type_symbol
  _atom_site_fract_x
  _atom_site_fract_y
  _atom_site_fract_z
C1 C 0.17600 0.52356 1.04154
 H2 H 0.17211 0.54671 1.01818
 C3 C 0.14719 0.51663 1.07497
 H4 H 0.12164 0.53536 1.07741
 C5 C 0.21449 0.47164 1.06647
 H6 H 0.24102 0.45439 1.06313
 C7 C 0.18654 0.46370 1.10048
 H8 H 0.19330 0.44108 1.12335
 N9 N 0.20827 0.50051 1.03736
 C10 C 0.30415 0.56139 0.95875
 H11 H 0.30564 0.54141 0.93213
 C12 C 0.33274 0.59267 0.96082
 H13 H 0.35625 0.59496 0.93587
 C14 C 0.27383 0.57843 1.02532
 H15 H 0.25147 0.57206 1.05097
 C16 C 0.30167 0.61058 1.02847
 H17 H 0.30083 0.62820 1.05705
 Zn18 Zn 0.24279 0.50689 0.98809
 N19 N 0.27615 0.55409 0.99121
 C20 C 0.21395 0.54181 0.91310
 N21 N 0.20970 0.51023 0.94042
 C22 C 0.17959 0.48208 0.93628
 C23 C 0.15328 0.48429 0.90284
 C24 C 0.18833 0.54519 0.87924
 C25 C 0.31624 0.46765 0.98813
 C26 C 0.34132 0.43589 0.98636
 C27 C 0.28310 0.39221 0.97632
 C28 C 0.25902 0.42512 0.97773
 N29 N 0.27580 0.46206 0.98349
 H30 H 0.23644 0.56513 0.91798
 H31 H 0.17491 0.45866 0.95993
 H32 H 0.12872 0.46225 0.90145
 H33 H 0.19164 0.57125 0.85883
 H34 H 0.32925 0.49665 0.99427
 H35 H 0.37343 0.44130 0.99020
 H36 H 0.26865 0.36344 0.97204
 H37 H 0.22679 0.42084 0.97511
 C38 C 0.33234 0.61775 0.99635
 C39 C 0.15091 0.48498 1.10417
 C40 C 0.32502 0.39732 0.98090
 C41 C 0.15806 0.51567 0.87294
 C42 C 0.81675 0.52894 -0.04632
 H43 H 0.81847 0.54552 -0.01713
 C44 C 0.84482 0.53702 -0.07997
 H45 H 0.86824 0.55998 -0.07644
 C46 C 0.78481 0.47793 -0.08543
 H47 H 0.76178 0.45443 -0.08697
 C48 C 0.81249 0.48490 -0.11994
 H49 H 0.80984 0.46616 -0.14728
 N50 N 0.78737 0.50002 -0.04970
 C51 C 0.69151 0.53190 0.04026
 H52 H 0.68746 0.50508 0.05939
 C53 C 0.66560 0.56271 0.04711
 H54 H 0.64118 0.55825 0.07092
 C55 C 0.72585 0.56755 -0.01694
 H56 H 0.74840 0.56892 -0.04290
 C57 C 0.70089 0.59926 -0.01090
 H58 H 0.70450 0.62438 -0.03265
 Zn59 Zn 0.75285 0.49037 -0.00111
 N60 N 0.72093 0.53475 0.00865
 C61 C 0.78525 0.50435 0.08025
 N62 N 0.78666 0.48208 0.04456
 C63 C 0.81489 0.45470 0.03858
 C64 C 0.84346 0.44883 0.06912
 C65 C 0.81318 0.49939 0.11173
 C66 C 0.68926 0.44796 -0.03754
 C67 C 0.66042 0.41720 -0.04205
 C68 C 0.69208 0.38028 0.01264
 C69 C 0.72022 0.41200 0.01635
 N70 N 0.71818 0.44508 -0.00845
 H71 H 0.76307 0.52652 0.08398
 H72 H 0.81565 0.43790 0.00945
 H73 H 0.86552 0.42718 0.06247
 H74 H 0.81195 0.51771 0.13978
 H75 H 0.68770 0.47494 -0.05611
 H76 H 0.63626 0.42169 -0.06345
 H77 H 0.69301 0.35529 0.03435
 H78 H 0.74271 0.41064 0.04019
 C79 C 0.67036 0.59747 0.02175
 C80 C 0.84316 0.51493 -0.11757
 C81 C 0.66152 0.38244 -0.01696
 C82 C 0.84317 0.47156 0.10641
 C83 C -0.04170 0.30630 0.50322
 H84 H -0.05701 0.31309 0.53326
 C85 C -0.04365 0.33182 0.46832
 H86 H -0.05968 0.35854 0.47315
 C87 C 0.00143 0.26524 0.46365
 H88 H 0.02004 0.23997 0.46241
 C89 C -0.00009 0.28973 0.42757
 H90 H 0.01804 0.28295 0.39925
 N91 N -0.01948 0.27377 0.50039
 C92 C -0.06250 0.17888 0.58488
 H93 H -0.03557 0.17339 0.60193
 C94 C -0.09341 0.14954 0.58355
 H95 H -0.08899 0.12164 0.59930
 C96 C -0.09710 0.21986 0.53848
 H97 H -0.09766 0.24646 0.51926
 C98 C -0.12894 0.19158 0.53669
 H99 H -0.15314 0.19683 0.51551
 Zn100 Zn -0.01595 0.24426 0.55157
 N101 N -0.06412 0.21251 0.56117
 C102 C -0.03448 0.28443 0.62911
 N103 N -0.00845 0.28125 0.59471
 C104 C 0.02192 0.30870 0.58572
 C105 C 0.02633 0.34182 0.61085
 C106 C -0.03121 0.31744 0.65531
 C107 C 0.02598 0.18037 0.52094
 C108 C 0.05812 0.15563 0.51552
 C109 C 0.09592 0.19570 0.56441
 C110 C 0.06270 0.21934 0.56948
 N111 N 0.02893 0.21182 0.54713
 H112 H -0.05914 0.26267 0.63469
 H113 H 0.04124 0.30597 0.55726
 H114 H 0.04894 0.36452 0.60081
 H115 H -0.05401 0.32085 0.68057
 H116 H -0.00165 0.17433 0.50453
 H117 H 0.05382 0.12990 0.49597
 H118 H 0.12221 0.20185 0.58300
 H119 H 0.06405 0.24352 0.59147
 C120 C -0.12691 0.15513 0.55820
 C121 C -0.02353 0.32347 0.42896
 C122 C 0.09445 0.16386 0.53622
 C123 C -0.00064 0.34701 0.64601
 C124 C 1.01149 0.69309 0.48260
 H125 H 1.00590 0.67988 0.45209
 C126 C 1.00968 0.66948 0.51928
 H127 H 1.00323 0.63804 0.51647
 C128 C 1.02607 0.74998 0.52334
 H129 H 1.03231 0.78155 0.52439
 C130 C 1.02444 0.72738 0.56107
 H131 H 1.02987 0.74218 0.59067
 N132 N 1.01965 0.73254 0.48521
 C133 C 0.96413 0.81464 0.40070
 H134 H 0.98461 0.81621 0.37279
 C135 C 0.93085 0.83850 0.40287
 H136 H 0.92635 0.85757 0.37585
 C137 C 0.94531 0.78642 0.46853
 H138 H 0.95082 0.76611 0.49422
 C139 C 0.91153 0.80936 0.47184
 H140 H 0.89172 0.80653 0.50027
 Zn141 Zn 1.02097 0.76360 0.43488
 N142 N 0.97192 0.79075 0.43426
 C143 C 0.99304 0.72044 0.36458
 N144 N 1.02565 0.72959 0.38801
 C145 C 1.05985 0.70919 0.38394
 C146 C 1.06084 0.67569 0.35875
 C147 C 0.99287 0.68735 0.33858
 C148 C 1.06358 0.83765 0.42636
 C149 C 1.09472 0.86506 0.43444
 C150 C 1.13334 0.81251 0.46193
 C151 C 1.10129 0.78592 0.45311
 N152 N 1.06694 0.79896 0.43644
 H153 H 0.96590 0.73666 0.36880
 H154 H 1.08523 0.71680 0.40317
 H155 H 1.08754 0.65883 0.35935
 H156 H 0.96548 0.67871 0.32276
 H157 H 1.03597 0.84785 0.41416
 H158 H 1.08993 0.89601 0.42874
 H159 H 1.15894 0.80170 0.47797
 H160 H 1.10283 0.75521 0.46230
 C161 C 0.90518 0.83777 0.44006
 C162 C 1.01599 0.68640 0.55936
 C163 C 1.13005 0.85292 0.45319
 C164 C 1.02619 0.66306 0.33729
 C165 C 0.44866 -0.01891 0.32212
 H166 H 0.47149 -0.04049 0.32469
 C167 C 0.41672 -0.01845 0.35269
 H168 H 0.41565 -0.03964 0.37891
 C169 C 0.42460 0.03674 0.28653
 H170 H 0.42848 0.05899 0.26148
 C171 C 0.39217 0.03828 0.31639
 H172 H 0.37193 0.06221 0.31391
 N173 N 0.45183 0.00820 0.28965
 C174 C 0.52622 -0.04221 0.18782
 H175 H 0.54936 -0.01876 0.18326
 C176 C 0.52708 -0.07543 0.16208
 H177 H 0.55157 -0.07724 0.13821
 C178 C 0.46713 -0.06811 0.22531
 H179 H 0.44377 -0.06513 0.25004
 C180 C 0.46677 -0.10200 0.20026
 H181 H 0.44351 -0.12465 0.20785
 Zn182 Zn 0.49784 0.00764 0.25163
 N183 N 0.49670 -0.03918 0.21888
 C184 C 0.57043 -0.01917 0.28431
 N185 N 0.54389 0.01017 0.28573
 C186 C 0.54764 0.03997 0.31414
 C187 C 0.57915 0.04117 0.34251
 C188 C 0.60233 -0.01911 0.31195
 C189 C 0.46965 0.04952 0.18292
 C190 C 0.46752 0.08012 0.15303
 C191 C 0.52473 0.11348 0.18432
 C192 C 0.52600 0.08191 0.21347
 N193 N 0.49824 0.05109 0.21270
 H194 H 0.56643 -0.04326 0.26248
 H195 H 0.52551 0.06244 0.31538
 H196 H 0.58043 0.06490 0.36504
 H197 H 0.62277 -0.04310 0.31062
 H198 H 0.44837 0.02435 0.18250
 H199 H 0.44451 0.07807 0.12953
 H200 H 0.54747 0.13718 0.18579
 H201 H 0.54919 0.08215 0.23667
 C202 C 0.49670 -0.10606 0.16720
 C203 C 0.38723 0.00987 0.34966
 C204 C 0.49465 0.11328 0.15384
 C205 C 0.60721 0.01123 0.34178
 C206 C 0.55486 -0.04539 0.69709
 H207 H 0.53086 -0.06820 0.69808
 C208 C 0.58681 -0.04683 0.66666
 H209 H 0.58716 -0.07101 0.64442
 C210 C 0.58235 0.01454 0.72375
 H211 H 0.57996 0.03897 0.74534
 C212 C 0.61490 0.01432 0.69371
 H213 H 0.63668 0.03895 0.69331
 N214 N 0.55322 -0.01513 0.72504
 C215 C 0.47337 -0.06108 0.83153
 H216 H 0.45132 -0.03855 0.83309
 C217 C 0.47083 -0.09222 0.86146
 H218 H 0.44699 -0.09231 0.88606
 C219 C 0.53276 -0.08555 0.79912
 H220 H 0.55747 -0.08243 0.77550
 C221 C 0.53129 -0.11724 0.82830
 H222 H 0.55506 -0.13808 0.82665
 Zn223 Zn 0.50643 -0.01413 0.76246
 N224 N 0.50380 -0.05841 0.80092
 C225 C 0.42907 -0.04129 0.73255
 N226 N 0.46134 -0.01514 0.72699
 C227 C 0.46312 0.01233 0.69490
 C228 C 0.43118 0.01512 0.66770
 C229 C 0.39615 -0.03939 0.70608
 C230 C 0.53624 0.04038 0.82313
 C231 C 0.53625 0.07431 0.84820
 C232 C 0.47452 0.09200 0.81644
 C233 C 0.47574 0.05791 0.79197
 N234 N 0.50654 0.03304 0.79525
 H235 H 0.42851 -0.06337 0.75779
 H236 H 0.48931 0.03253 0.69088
 H237 H 0.43311 0.03768 0.64277
 H238 H 0.37092 -0.06029 0.71199
 H239 H 0.55978 0.01962 0.82619
 H240 H 0.55973 0.07845 0.87078
 H241 H 0.44924 0.11084 0.81375
 H242 H 0.45154 0.05110 0.77089
 C243 C 0.49976 -0.12142 0.85986
 C244 C 0.61766 -0.01680 0.66444
 C245 C 0.50542 0.10127 0.84455
 C246 C 0.39662 -0.01047 0.67325
 C247 C 0.21652 0.05173 0.52845
 C248 C 0.24545 0.04892 0.56491
 C249 C 0.27091 0.01819 0.56126
 C250 C 0.26346 -0.00779 0.52163
 C251 C 0.24410 0.05292 0.48756
 C252 C 0.26813 0.02131 0.48324
 C253 C 0.19435 0.01132 0.52847
 C254 C 0.21809 -0.02016 0.52426
 H255 H 0.24517 0.06952 0.59102
 H256 H 0.28322 -0.03319 0.51981
 H257 H 0.24551 0.07759 0.46502
 H258 H 0.16188 0.00851 0.52472
 C259 C 0.78861 -0.04844 0.47931
 C260 C 0.76063 -0.05599 0.51940
 C261 C 0.73588 -0.02553 0.52875
 C262 C 0.74181 0.00964 0.49682
 C263 C 0.75999 -0.03922 0.44389
 C264 C 0.73551 -0.00862 0.45236
 C265 C 0.81109 -0.00916 0.48766
 C266 C 0.78731 0.02145 0.49689
 H267 H 0.76093 -0.08308 0.53801
 H268 H 0.72199 0.03403 0.50479
 H269 H 0.75710 -0.05752 0.41590
 H270 H 0.84376 -0.00663 0.48978
 C271 C 0.44493 0.28299 0.98598
 C272 C 0.45277 0.25659 0.94727
 C273 C 0.48633 0.23443 0.94993
 C274 C 0.50862 0.24092 0.99202
 C275 C 0.44254 0.25439 1.02450
 C276 C 0.47561 0.23180 1.02772
 C277 C 0.48456 0.30697 0.99022
 C278 C 0.51798 0.28582 0.99396
 H279 H 0.43110 0.25245 0.92252
 H280 H 0.53563 0.22341 0.99548
 H281 H 0.41677 0.25304 1.04702
 H282 H 0.48638 0.33901 0.98753
 C283 C 0.54784 0.70966 0.02477
 C284 C 0.54311 0.73385 -0.01643
 C285 C 0.50997 0.75669 -0.01565
 C286 C 0.48457 0.75277 0.02720
 C287 C 0.54824 0.74039 0.06015
 C288 C 0.51497 0.76311 0.06212
 C289 C 0.50752 0.68647 0.03200
 C290 C 0.47401 0.70816 0.03306
 H291 H 0.56610 0.73564 -0.04226
 H292 H 0.45765 0.77077 0.02947
 H293 H 0.57424 0.74488 0.07957
 H294 H 0.50557 0.65449 0.03005
 C295 C 0.99004 0.43565 0.29525
 C296 C 0.95399 0.43596 0.26604
 C297 C 0.95647 0.46547 0.23573
 C298 C 0.99601 0.49126 0.23656
 C299 C 1.02708 0.43303 0.26441
 C300 C 1.03015 0.46186 0.23314
 C301 C 0.99380 0.47758 0.31273
 C302 C 0.99649 0.50691 0.28243
 H303 H 0.92978 0.41320 0.26768
 H304 H 0.99965 0.51457 0.21155
 H305 H 1.04898 0.41066 0.26813
 H306 H 0.99624 0.48339 0.34657
 C307 C 0.00649 0.57389 0.69516
 C308 C -0.02759 0.57751 0.72951
 C309 C -0.03000 0.54738 0.75920
 C310 C 0.00165 0.51622 0.75113
 C311 C 0.04488 0.57015 0.72024
 C312 C 0.04279 0.53943 0.74912
 C313 C -0.00127 0.53294 0.67618
 C314 C -0.00469 0.50264 0.70533
 H315 H -0.04959 0.60008 0.72793
 H316 H -0.00048 0.49178 0.77504
 H317 H 0.07023 0.59160 0.71716
 H318 H -0.00048 0.52825 0.64194
 C319 C 0.12888 0.13577 0.53317
 C320 C 0.17233 0.15440 0.53505
 C321 C 0.20190 0.12746 0.53393
 C322 C 0.18541 0.08447 0.53090
 C323 C 0.15476 0.07900 0.56915
 C324 C 0.12530 0.10542 0.57005
 C325 C 0.13056 0.11138 0.49212
 C326 C 0.15954 0.08460 0.49117
 H327 H 0.17935 0.18594 0.53594
 H328 H 0.23386 0.13597 0.53434
 H329 H 0.15647 0.05644 0.59384
 H330 H 0.10185 0.10524 0.59540
 H331 H 0.11300 0.11663 0.46437
 H332 H 0.16514 0.06656 0.46334
 C333 C 0.63922 0.62917 0.02405
 C334 C 0.61420 0.63096 0.06655
 C335 C 0.58501 0.65768 0.06639
 C336 C 0.58318 0.68111 0.02407
 C337 C 0.62630 0.69940 0.01633
 C338 C 0.65567 0.67228 0.01642
 C339 C 0.60807 0.62249 -0.01025
 C340 C 0.57923 0.64950 -0.01052
 H341 H 0.62070 0.61527 0.09565
 H342 H 0.56636 0.66338 0.09481
 H343 H 0.63315 0.73084 0.01197
 H344 H 0.68759 0.68087 0.01253
 H345 H 0.60906 0.59871 -0.03309
 H346 H 0.55585 0.64877 -0.03377
 C347 C 0.87338 -0.13181 0.44875
 C348 C 0.87764 -0.11302 0.49296
 C349 C 0.84913 -0.08693 0.50324
 C350 C 0.81891 -0.08066 0.46815
 C351 C 0.84553 -0.06975 0.42777
 C352 C 0.87391 -0.09604 0.41775
 C353 C 0.82940 -0.14898 0.44947
 C354 C 0.80095 -0.12226 0.45954
 H355 H 0.90138 -0.11951 0.51446
 H356 H 0.84836 -0.07177 0.53356
 H357 H 0.84297 -0.04279 0.40918
 H358 H 0.89545 -0.09010 0.39122
 H359 H 0.82137 -0.17952 0.44242
 H360 H 0.76876 -0.13000 0.46119
 C361 C 0.35379 0.36353 0.98141
 C362 C 0.33723 0.32018 0.97808
 C363 C 0.36652 0.29292 0.97928
 C364 C 0.40948 0.31128 0.98362
 C365 C 0.41510 0.34103 0.94600
 C366 C 0.38633 0.36813 0.94498
 C367 C 0.37712 0.36364 1.02269
 C368 C 0.40597 0.33678 1.02383
 H369 H 0.30569 0.31115 0.97528
 H370 H 0.35974 0.26139 0.97740
 H371 H 0.43931 0.34023 0.92157
 H372 H 0.38610 0.39033 0.91969
 H373 H 0.37078 0.38276 1.04945
 H374 H 0.42419 0.33331 1.05150
 C375 C 0.84689 0.12001 0.54413
 C376 C 0.84377 0.08378 0.57450
 C377 C 0.82316 0.05203 0.55870
 C378 C 0.80678 0.05897 0.51417
 C379 C 0.78135 0.09559 0.51932
 C380 C 0.80234 0.12756 0.53520
 C381 C 0.86461 0.10492 0.50167
 C382 C 0.84366 0.07364 0.48590
 H383 H 0.85394 0.08367 0.60694
 H384 H 0.81711 0.02495 0.57726
 H385 H 0.74990 0.09666 0.51143
 H386 H 0.78833 0.15531 0.54144
 H387 H 0.89110 0.11853 0.48468
 H388 H 0.85213 0.06098 0.45531
 C389 C 0.36880 0.64521 0.00513
 C390 C 0.36013 0.68605 0.02405
 C391 C 0.39427 0.70805 0.03401
 C392 C 0.43378 0.68712 0.02412
 C393 C 0.42758 0.64753 0.04871
 C394 C 0.39438 0.62569 0.03834
 C395 C 0.39827 0.65534 -0.03339
 C396 C 0.43204 0.67674 -0.02332
 H397 H 0.32996 0.69679 0.02886
 H398 H 0.39304 0.73720 0.04771
 H399 H 0.44682 0.63808 0.07372
 H400 H 0.38602 0.59751 0.05396
 H401 H 0.39173 0.65032 -0.06652
 H402 H 0.45411 0.68808 -0.04764
 C403 C 0.15810 -0.11566 0.47169
 C404 C 0.13763 -0.09950 0.51221
 C405 C 0.15880 -0.06955 0.53010
 C406 C 0.19875 -0.05713 0.50569
 C407 C 0.22197 -0.09538 0.50362
 C408 C 0.20066 -0.12625 0.48563
 C409 C 0.16669 -0.07984 0.44154
 C410 C 0.18759 -0.04945 0.45926
 H411 H 0.10941 -0.11190 0.52680
 H412 H 0.14870 -0.05675 0.56009
 H413 H 0.25232 -0.09803 0.51461
 H414 H 0.21359 -0.15469 0.48073
 H415 H 0.15875 -0.07915 0.40828
 H416 H 0.19707 -0.02282 0.44113
 C417 C 0.62523 0.35308 0.98521
 C418 C 0.63196 0.30986 0.99884
 C419 C 0.59712 0.28619 1.00229
 C420 C 0.55898 0.30790 0.99156
 C421 C 0.55946 0.34338 1.02170
 C422 C 0.59352 0.36692 1.01799
 C423 C 0.60316 0.34871 0.94315
 C424 C 0.56867 0.32545 0.94660
 H425 H 0.66142 0.29854 1.00425
 H426 H 0.59711 0.25523 1.01137
 H427 H 0.53536 0.34886 1.04519
 H428 H 0.59813 0.39254 1.03796
 H429 H 0.61495 0.36051 0.91247
 H430 H 0.55097 0.31829 0.91912
 C431 C 0.49065 0.14665 1.12123
 C432 C 0.44712 0.16042 1.12016
 C433 C 0.44141 0.18796 1.08938
 C434 C 0.48007 0.20043 1.06232
 C435 C 0.51100 0.21315 1.09518
 C436 C 0.51654 0.18535 1.12602
 C437 C 0.50076 0.13355 1.07534
 C438 C 0.49523 0.16142 1.04477
 H439 H 0.42251 0.14897 1.14153
 H440 H 0.41158 0.19844 1.08450
 H441 H 0.52649 0.24210 1.09486
 H442 H 0.53634 0.19166 1.15190
 H443 H 0.51192 0.10481 1.06759
 H444 H 0.50184 0.15619 1.01119
 C445 C 0.01383 0.65914 0.59832
 C446 C 0.04599 0.62807 0.59447
 C447 C 0.04366 0.60071 0.62650
 C448 C 0.00931 0.60650 0.66017
 C449 C 0.01678 0.64901 0.67548
 C450 C 0.01916 0.67670 0.64322
 C451 C -0.02689 0.63541 0.60264
 C452 C -0.02921 0.60798 0.63464
 H453 H 0.06926 0.62805 0.56895
 H454 H 0.06486 0.57735 0.62816
 H455 H 0.01959 0.65667 0.70880
 H456 H 0.02379 0.70776 0.64992
 H457 H -0.05217 0.64036 0.58263
 H458 H -0.05637 0.58947 0.64174
 C459 C 0.50013 0.84515 -0.10684
 C460 C 0.53406 0.85233 -0.07560
 C461 C 0.53689 0.82301 -0.04608
 C462 C 0.50528 0.78875 -0.04947
 C463 C 0.46414 0.80812 -0.04837
 C464 C 0.46143 0.83744 -0.07811
 C465 C 0.50789 0.80428 -0.12581
 C466 C 0.51063 0.77493 -0.09590
 H467 H 0.55476 0.87815 -0.07714
 H468 H 0.56034 0.82368 -0.02291
 H469 H 0.43759 0.79701 -0.02975
 H470 H 0.43263 0.85005 -0.08350
 H471 H 0.50994 0.79867 -0.15986
 H472 H 0.51506 0.74450 -0.10456
 C473 C 0.97851 0.35158 0.39347
 C474 C 0.94501 0.37838 0.39252
 C475 C 0.94943 0.40719 0.35884
 C476 C 0.98590 0.40363 0.33138
 C477 C 1.01944 0.40546 0.36018
 C478 C 1.01527 0.37710 0.39429
 C479 C 0.97935 0.33411 0.35077
 C480 C 0.98366 0.36287 0.31657
 H481 H 0.91630 0.37369 0.41033
 H482 H 0.92553 0.42688 0.35202
 H483 H 1.04563 0.42586 0.35609
 H484 H 1.03803 0.37474 0.41805
 H485 H 0.97414 0.30286 0.34481
 H486 H 0.98306 0.35484 0.28315
 C487 C 0.49921 0.85910 0.14063
 C488 C 0.46422 0.83055 0.14179
 C489 C 0.47024 0.79680 0.11533
 C490 C 0.50957 0.79795 0.09221
 C491 C 0.51188 0.83555 0.06880
 C492 C 0.50598 0.86901 0.09514
 C493 C 0.53337 0.83589 0.15188
 C494 C 0.53904 0.80236 0.12558
 H495 H 0.43445 0.83571 0.15565
 H496 H 0.44640 0.77438 0.11073
 H497 H 0.51352 0.83822 0.03433
 H498 H 0.50315 0.89835 0.08154
 H499 H 0.55062 0.84087 0.18021
 H500 H 0.55963 0.78018 0.13466
 C501 C -0.00205 0.38762 0.66547
 C502 C -0.02287 0.39121 0.71025
 C503 C -0.02457 0.42926 0.72390
 C504 C -0.00491 0.46007 0.69179
 C505 C 0.03813 0.44657 0.68309
 C506 C 0.03974 0.40874 0.66979
 C507 C -0.02520 0.41473 0.63661
 C508 C -0.02704 0.45225 0.65039
 H509 H -0.03440 0.36635 0.73004
 H510 H -0.03868 0.43646 0.75454
 H511 H 0.06518 0.46474 0.68878
 H512 H 0.06825 0.39462 0.66491
 H513 H -0.04060 0.40466 0.60855
 H514 H -0.04468 0.47369 0.63437
 C515 C 0.50254 0.13785 0.87242
 C516 C 0.47014 0.13157 0.90877
 C517 C 0.46521 0.16356 0.93380
 C518 C 0.49316 0.19950 0.92085
 C519 C 0.53619 0.18414 0.91988
 C520 C 0.54112 0.15205 0.89475
 C521 C 0.49037 0.17510 0.84820
 C522 C 0.48541 0.20715 0.87343
 H523 H 0.45240 0.10410 0.91432
 H524 H 0.44316 0.16336 0.96052
 H525 H 0.56175 0.19927 0.93406
 H526 H 0.57085 0.14093 0.88825
 H527 H 0.48738 0.17661 0.81384
 H528 H 0.47817 0.23567 0.86046
 C529 C 1.02045 0.62138 0.32038
 C530 C 0.98765 0.59807 0.34789
 C531 C 0.97908 0.56101 0.33431
 C532 C 1.00461 0.54951 0.29470
 C533 C 0.99701 0.58169 0.26114
 C534 C 1.00547 0.61921 0.27457
 C535 C 1.05715 0.59490 0.31964
 C536 C 1.04862 0.55751 0.30657
 H537 H 0.97186 0.61007 0.37555
 H538 H 0.95559 0.54189 0.35003
 H539 H 0.98505 0.57609 0.23007
 H540 H 1.00141 0.64500 0.25459
 H541 H 1.08780 0.60425 0.32654
 H542 H 1.07150 0.53568 0.30413
 C543 C 1.11973 0.47678 0.13767
 C544 C 1.07850 0.47763 0.12245
 C545 C 1.04768 0.47187 0.15568
 C546 C 1.06350 0.46595 0.19802
 C547 C 1.08949 0.43243 0.19301
 C548 C 1.12032 0.43826 0.15971
 C549 C 1.12171 0.50603 0.17143
 C550 C 1.09084 0.50010 0.20444
 H551 H 1.07128 0.47927 0.08898
 H552 H 1.01581 0.46956 0.14900
 H553 H 1.08203 0.40309 0.20605
 H554 H 1.13554 0.41301 0.14708
 H555 H 1.14444 0.53018 0.17201
 H556 H 1.08840 0.51951 0.23157
 C557 C 0.65109 -0.01837 0.62930
 C558 C 0.63423 -0.01487 0.58448
 C559 C 0.66225 -0.01819 0.55185
 C560 C 0.70517 -0.02457 0.56632
 C561 C 0.71422 0.00987 0.59635
 C562 C 0.68631 0.01319 0.62918
 C563 C 0.67239 -0.05776 0.62900
 C564 C 0.70039 -0.06117 0.59623
 H565 H 0.60276 -0.00988 0.57889
 H566 H 0.65450 -0.01613 0.51862
 H567 H 0.74098 0.02953 0.59271
 H568 H 0.69062 0.03544 0.65320
 H569 H 0.66625 -0.08095 0.65297
 H570 H 0.71743 -0.08749 0.59289
 C571 C -0.12407 0.52317 0.84751
 C572 C -0.12069 0.56680 0.83282
 C573 C -0.08951 0.57577 0.80403
 C574 C -0.06461 0.54009 0.79181
 C575 C -0.05107 0.52399 0.83469
 C576 C -0.08201 0.51489 0.86350
 C577 C -0.12679 0.50005 0.80551
 C578 C -0.09568 0.50892 0.77671
 H579 H -0.14081 0.58895 0.84463
 H580 H -0.08285 0.60570 0.79235
 H581 H -0.01977 0.52047 0.84216
 H582 H -0.07695 0.50318 0.89516
 H583 H -0.15127 0.47964 0.79750
 H584 H -0.09395 0.49570 0.74533
 C585 C 0.35377 0.01226 0.38438
 C586 C 0.31513 0.03203 0.37104
 C587 C 0.28662 0.03484 0.40341
 C588 C 0.29893 0.01757 0.44641
 C589 C 0.30902 -0.02512 0.43569
 C590 C 0.33756 -0.02791 0.40338
 C591 C 0.36814 0.03588 0.42282
 C592 C 0.33962 0.03870 0.45501
 H593 H 0.30901 0.04017 0.33843
 H594 H 0.25695 0.04564 0.39793
 H595 H 0.29291 -0.05110 0.44962
 H596 H 0.34544 -0.05621 0.39048
 H597 H 0.39828 0.04966 0.42436
 H598 H 0.34535 0.05503 0.48387
 C599 C 0.12806 0.52077 0.83819
 C600 C 0.14601 0.54073 0.79657
 C601 C 0.11827 0.54688 0.76666
 C602 C 0.07493 0.53241 0.78080
 C603 C 0.07909 0.48865 0.79265
 C604 C 0.10682 0.48251 0.82255
 C605 C 0.09366 0.54676 0.85316
 C606 C 0.06604 0.55282 0.82330
 H607 H 0.17810 0.54698 0.78989
 H608 H 0.12714 0.55827 0.73492
 H609 H 0.06386 0.46434 0.77670
 H610 H 0.11502 0.45299 0.83129
 H611 H 0.09133 0.55951 0.88474
 H612 H 0.04025 0.57087 0.82930
 C613 C 0.64142 0.00909 0.37275
 C614 C 0.63611 -0.02786 0.40182
 C615 C 0.66701 -0.03285 0.42815
 C616 C 0.70093 -0.00048 0.42368
 C617 C 0.71382 0.00073 0.37584
 C618 C 0.68292 0.00568 0.34942
 C619 C 0.64844 0.04347 0.40400
 C620 C 0.67955 0.03842 0.43047
 H621 H 0.60985 -0.04827 0.40197
 H622 H 0.66714 -0.05756 0.45056
 H623 H 0.74491 -0.00087 0.36377
 H624 H 0.68778 0.00818 0.31496
 H625 H 0.63269 0.07070 0.40404
 H626 H 0.68936 0.06142 0.45190
 C627 C 0.87452 0.46846 0.14030
 C628 C 0.85517 0.45897 0.18506
 C629 C 0.88202 0.45879 0.21670
 C630 C 0.92623 0.46756 0.20096
 C631 C 0.93391 0.43736 0.16590
 C632 C 0.90712 0.43763 0.13425
 C633 C 0.89879 0.50778 0.14544
 C634 C 0.92543 0.50749 0.17723
 H635 H 0.82294 0.45322 0.19138
 H636 H 0.87247 0.45343 0.24996
 H637 H 0.95818 0.41694 0.16629
 H638 H 0.90935 0.41693 0.10841
 H639 H 0.89443 0.53416 0.12648
 H640 H 0.94248 0.53406 0.18565
 C641 C 0.36141 -0.00462 0.64424
 C642 C 0.37382 -0.00863 0.59662
 C643 C 0.34424 -0.00052 0.56945
 C644 C 0.30426 0.01062 0.59194
 C645 C 0.29324 -0.02384 0.62325
 C646 C 0.32283 -0.03190 0.65061
 C647 C 0.34594 0.03729 0.64785
 C648 C 0.31662 0.04543 0.62052
 H649 H 0.40344 -0.01738 0.58521
 H650 H 0.34899 -0.00224 0.53507
 H651 H 0.26446 -0.04057 0.62382
 H652 H 0.31840 -0.05562 0.67402
 H653 H 0.35792 0.05926 0.66944
 H654 H 0.30508 0.07472 0.61859
   
