data_POSCAR
  _audit_creation_date              2014-09-24
  _audit_creation_method            'ToBaCCo'
  _symmetry_space_group_name_H-M    'P1'
  _symmetry_Int_Tables_number       1
  _symmetry_cell_setting            triclinic
  loop_
  _symmetry_equiv_pos_as_xyz
 x,y,z
_cell_length_a 37.0945
_cell_length_b 36.7809
_cell_length_c 36.3557
_cell_angle_alpha 89.561800
_cell_angle_beta 89.681800
_cell_angle_gamma 90.085300
loop_
  _atom_site_label
  _atom_site_type_symbol
  _atom_site_fract_x
  _atom_site_fract_y
  _atom_site_fract_z
O1 O 0.36988 0.32373 -0.03699
 O2 O 0.31375 0.37324 0.02916
 O3 O 0.36592 0.32600 0.03410
 O4 O 0.31914 0.37184 -0.04163
 O5 O 0.27758 0.32945 -0.04086
 O6 O 0.32736 0.28039 0.03192
 O7 O 0.27511 0.32764 0.03017
 O8 O 0.32864 0.28086 -0.04054
 Cu9 Cu 0.34630 0.35302 -0.00363
 Cu10 Cu 0.29830 0.29993 -0.00492
 C11 C 0.35847 0.29449 -0.05110
 C12 C 0.28446 0.35910 0.04058
 C13 C 0.35479 0.29548 0.04607
 C14 C 0.28985 0.35903 -0.05414
 O15 O 0.67881 0.63159 0.02902
 O16 O 0.62253 0.67381 -0.04212
 O17 O 0.67321 0.62449 -0.04186
 O18 O 0.62882 0.68217 0.02752
 O19 O 0.67119 0.72355 0.01948
 O20 O 0.71396 0.66695 -0.05133
 O21 O 0.66402 0.71624 -0.05105
 O22 O 0.72111 0.67303 0.01931
 Cu23 Cu 0.64683 0.64862 -0.00582
 Cu24 Cu 0.69680 0.69914 -0.01663
 C25 C 0.70966 0.64474 0.03579
 C26 C 0.63346 0.70249 -0.05827
 C27 C 0.70101 0.63603 -0.05906
 C28 C 0.64181 0.71336 0.03443
 O29 O 0.68033 0.36468 0.96209
 O30 O 0.62967 0.32613 1.04046
 O31 O 0.68227 0.37255 1.03212
 O32 O 0.62670 0.31805 0.96988
 O33 O 0.66520 0.27249 0.97439
 O34 O 0.72196 0.32853 1.03485
 O35 O 0.66947 0.28200 1.04527
 O36 O 0.71804 0.31867 0.96449
 Cu37 Cu 0.65070 0.34973 1.00059
 Cu38 Cu 0.69751 0.29587 1.00511
 C39 C 0.70869 0.34893 0.95065
 C40 C 0.64101 0.29765 1.05656
 C41 C 0.71243 0.36053 1.04335
 C42 C 0.63594 0.28573 0.96232
 O43 O 0.37227 0.68677 1.03840
 O44 O 0.32399 0.63374 0.96912
 O45 O 0.36940 0.68792 0.96799
 O46 O 0.32634 0.63258 1.04061
 O47 O 0.28067 0.67032 1.04244
 O48 O 0.32421 0.72664 0.97057
 O49 O 0.27898 0.67271 0.97049
 O50 O 0.32639 0.72425 1.04203
 Cu51 Cu 0.35237 0.65618 1.00389
 Cu52 Cu 0.29792 0.70223 1.00672
 C53 C 0.35804 0.71532 1.05147
 C54 C 0.29365 0.64444 0.95730
 C55 C 0.35465 0.71736 0.95756
 C56 C 0.29617 0.64174 1.05427
 O57 O -0.04724 0.36965 0.31809
 O58 O 0.02687 0.32220 0.36328
 O59 O 0.02226 0.37299 0.31396
 O60 O -0.04261 0.31739 0.36677
 O61 O -0.04267 0.27689 0.32291
 O62 O 0.02302 0.33142 0.27034
 O63 O 0.02735 0.28065 0.31981
 O64 O -0.04745 0.32906 0.27380
 Cu65 Cu -0.01038 0.34966 0.34492
 Cu66 Cu -0.01014 0.30039 0.29222
 C67 C -0.06011 0.35773 0.28830
 C68 C 0.04016 0.29370 0.34928
 C69 C 0.03399 0.36132 0.28339
 C70 C -0.05331 0.28698 0.35437
 O71 O 0.03096 0.68081 0.63654
 O72 O -0.04052 0.63194 0.68679
 O73 O -0.03931 0.67887 0.63239
 O74 O 0.02838 0.63366 0.68998
 O75 O 0.02582 0.67892 0.72913
 O76 O -0.04269 0.72411 0.67122
 O77 O -0.04453 0.67732 0.72565
 O78 O 0.02763 0.72632 0.67563
 Cu79 Cu -0.00491 0.65205 0.65720
 Cu80 Cu -0.00889 0.70624 0.70430
 C81 C 0.04203 0.71143 0.64782
 C82 C -0.05405 0.64576 0.71564
 C83 C -0.05315 0.70894 0.64180
 C84 C 0.03834 0.64815 0.71985
 O85 O 0.96384 0.67790 0.37389
 O86 O 1.03062 0.62159 0.32496
 O87 O 1.03245 0.66926 0.37756
 O88 O 0.96061 0.62749 0.32408
 O89 O 0.96762 0.66871 0.28024
 O90 O 1.03646 0.71412 0.33776
 O91 O 1.03862 0.66600 0.28448
 O92 O 0.96764 0.71876 0.32942
 Cu93 Cu 0.99636 0.64456 0.35412
 Cu94 Cu 1.00351 0.69593 0.30345
 C95 C 0.95478 0.70843 0.36012
 C96 C 1.04640 0.63466 0.29671
 C97 C 1.04534 0.69992 0.36853
 C98 C 0.95132 0.64099 0.29340
 O99 O 0.97545 0.32561 0.62160
 O100 O 1.03841 0.37742 0.67883
 O101 O 1.04506 0.32921 0.62632
 O102 O 0.96965 0.37470 0.67321
 O103 O 0.96845 0.33113 0.71537
 O104 O 1.04259 0.28467 0.66672
 O105 O 1.03811 0.33273 0.71958
 O106 O 0.97291 0.28223 0.66393
 Cu107 Cu 1.00732 0.35604 0.64569
 Cu108 Cu 1.00550 0.30327 0.69555
 C109 C 0.96385 0.29495 0.63283
 C110 C 1.04807 0.36436 0.70966
 C111 C 1.05660 0.29870 0.63799
 C112 C 0.95673 0.36112 0.70267
 O113 O 0.36570 0.03514 0.31948
 O114 O 0.31930 -0.03753 0.37046
 O115 O 0.37185 -0.03437 0.32264
 O116 O 0.31313 0.03228 0.36791
 O117 O 0.27410 0.02758 0.32277
 O118 O 0.33213 -0.04118 0.27854
 O119 O 0.27954 -0.04323 0.32605
 O120 O 0.32665 0.02954 0.27414
 Cu121 Cu 0.34635 -0.00048 0.34963
 Cu122 Cu 0.29910 -0.00717 0.29583
 C123 C 0.35447 0.04421 0.28786
 C124 C 0.29184 -0.05314 0.35709
 C125 C 0.36209 -0.04963 0.29313
 C126 C 0.28319 0.04088 0.35351
 O127 O 0.68431 -0.03019 0.62879
 O128 O 0.63130 0.03245 0.68505
 O129 O 0.68456 0.03863 0.63729
 O130 O 0.63311 -0.03800 0.67699
 O131 O 0.67159 -0.04132 0.72271
 O132 O 0.72450 0.03332 0.68167
 O133 O 0.67189 0.02912 0.72922
 O134 O 0.72375 -0.03648 0.67379
 Cu135 Cu 0.65403 0.00137 0.65281
 Cu136 Cu 0.70177 -0.00440 0.70650
 C137 C 0.71340 -0.04330 0.64129
 C138 C 0.64261 0.04168 0.71648
 C139 C 0.71441 0.04770 0.65163
 C140 C 0.64355 -0.05289 0.70674
 O141 O 0.31766 1.04148 0.61987
 O142 O 0.37283 0.97433 0.66940
 O143 O 0.32119 0.97175 0.61982
 O144 O 0.36947 1.04415 0.66790
 O145 O 0.32943 1.04263 0.71286
 O146 O 0.28045 0.96957 0.66435
 O147 O 0.33219 0.97195 0.71405
 O148 O 0.27762 1.03979 0.66493
 Cu149 Cu 0.34941 1.00793 0.63984
 Cu150 Cu 0.30095 1.00558 0.69364
 C151 C 0.28757 1.05117 0.63344
 C152 C 0.36241 0.96265 0.70065
 C153 C 0.29182 0.95947 0.63300
 C154 C 0.35797 1.05589 0.69851
 O155 O 0.62568 0.97190 0.32363
 O156 O 0.67288 1.03826 0.38017
 O157 O 0.62493 1.04228 0.32930
 O158 O 0.67707 0.96843 0.37303
 O159 O 0.71973 0.97542 0.33087
 O160 O 0.66566 1.04609 0.28517
 O161 O 0.71390 1.04560 0.33697
 O162 O 0.66815 0.97591 0.28094
 Cu163 Cu 0.64598 1.00432 0.35579
 Cu164 Cu 0.69618 1.01106 0.30424
 C165 C 0.63812 0.96335 0.29233
 C166 C 0.70093 1.05420 0.36825
 C167 C 0.63638 1.05686 0.29958
 C168 C 0.70776 0.96020 0.35987
 O169 O 0.82564 0.87567 0.53148
 O170 O 0.87220 0.82293 0.46139
 O171 O 0.82473 0.87414 0.46000
 O172 O 0.87214 0.82174 0.53204
 O173 O 0.82804 0.78140 0.53195
 O174 O 0.77993 0.83479 0.46191
 O175 O 0.82774 0.78308 0.46026
 O176 O 0.78128 0.83555 0.53298
 Cu177 Cu 0.85303 0.85269 0.49647
 Cu178 Cu 0.79985 0.80457 0.49718
 C179 C 0.79504 0.86543 0.54327
 C180 C 0.85803 0.79451 0.44828
 C181 C 0.79419 0.86337 0.44851
 C182 C 0.85874 0.79174 0.54305
 O183 O 0.12266 0.18571 0.45751
 O184 O 0.17206 0.13201 0.52590
 O185 O 0.12728 0.18592 0.52863
 O186 O 0.16940 0.13199 0.45506
 O187 O 0.21510 0.17020 0.45308
 O188 O 0.17096 0.22665 0.52359
 O189 O 0.21588 0.17237 0.52534
 O190 O 0.16864 0.22340 0.45250
 Cu191 Cu 0.14334 0.15498 0.49184
 Cu192 Cu 0.19731 0.20195 0.48818
 C193 C 0.13685 0.21419 0.44376
 C194 C 0.20185 0.14336 0.53829
 C195 C 0.14180 0.21562 0.53835
 C196 C 0.19970 0.14155 0.44169
 O197 O 0.12923 0.81549 0.53707
 O198 O 0.17971 0.86375 0.46374
 O199 O 0.13029 0.81265 0.46593
 O200 O 0.17674 0.86907 0.53401
 O201 O 0.22151 0.82958 0.53656
 O202 O 0.17205 0.77029 0.47210
 O203 O 0.22148 0.82128 0.46615
 O204 O 0.17416 0.77732 0.54330
 Cu205 Cu 0.14954 0.84422 0.49986
 Cu206 Cu 0.20150 0.79542 0.50485
 C207 C 0.14286 0.78753 0.55244
 C208 C 0.21010 0.85134 0.45352
 C209 C 0.14252 0.78139 0.45842
 C210 C 0.20777 0.85996 0.54538
 O211 O 0.87654 0.17858 0.53308
 O212 O 0.81661 0.12835 0.47147
 O213 O 0.86672 0.17667 0.46320
 O214 O 0.82461 0.13047 0.54201
 O215 O 0.78463 0.17441 0.54705
 O216 O 0.82714 0.22126 0.46772
 O217 O 0.77643 0.17240 0.47586
 O218 O 0.83620 0.22249 0.53801
 Cu219 Cu 0.85011 0.14902 0.50227
 Cu220 Cu 0.80191 0.20198 0.50767
 C221 C 0.86711 0.20951 0.54501
 C222 C 0.78616 0.14174 0.46339
 C223 C 0.85438 0.20699 0.45218
 C224 C 0.79739 0.14419 0.55801
 O225 O 0.46615 0.87699 0.81663
 O226 O 0.52865 0.81661 0.86536
 O227 O 0.53496 0.86729 0.81601
 O228 O 0.45965 0.82624 0.86731
 O229 O 0.45326 0.78475 0.82440
 O230 O 0.52756 0.82727 0.77156
 O231 O 0.52331 0.77585 0.82137
 O232 O 0.45875 0.83556 0.77361
 Cu233 Cu 0.49778 0.85084 0.84579
 Cu234 Cu 0.48994 0.80151 0.79350
 C235 C 0.45273 0.86706 0.78626
 C236 C 0.53701 0.78622 0.85147
 C237 C 0.54362 0.85468 0.78482
 C238 C 0.44369 0.79839 0.85495
 O239 O 0.53180 0.19096 0.13663
 O240 O 0.46144 0.13439 0.17941
 O241 O 0.46269 0.18932 0.13259
 O242 O 0.53119 0.13830 0.18494
 O243 O 0.52550 0.17701 0.23083
 O244 O 0.45754 0.22782 0.17827
 O245 O 0.45592 0.17371 0.22472
 O246 O 0.52784 0.22981 0.18227
 Cu247 Cu 0.49713 0.15920 0.15393
 Cu248 Cu 0.49121 0.20604 0.20855
 C249 C 0.54153 0.22040 0.15165
 C250 C 0.44679 0.14423 0.20933
 C251 C 0.44911 0.21806 0.14608
 C252 C 0.53976 0.14897 0.21688
 O253 O 0.46051 0.17722 0.87034
 O254 O 0.53152 0.12229 0.82713
 O255 O 0.52883 0.17203 0.87846
 O256 O 0.46262 0.12760 0.81829
 O257 O 0.47051 0.17096 0.77697
 O258 O 0.53749 0.21493 0.83639
 O259 O 0.54009 0.16545 0.78535
 O260 O 0.46879 0.21996 0.82830
 Cu261 Cu 0.49494 0.14532 0.85263
 Cu262 Cu 0.50502 0.19697 0.80238
 C263 C 0.45380 0.20878 0.85773
 C264 C 0.54777 0.13450 0.79882
 C265 C 0.54353 0.20163 0.86808
 C266 C 0.45581 0.14126 0.78687
 O267 O 0.46900 0.82629 0.12630
 O268 O 0.53876 0.87963 0.17207
 O269 O 0.53916 0.82866 0.12139
 O270 O 0.47002 0.87491 0.17692
 O271 O 0.47470 0.83203 0.21944
 O272 O 0.54483 0.78655 0.16428
 O273 O 0.54352 0.83738 0.21530
 O274 O 0.47355 0.78318 0.16854
 Cu275 Cu 0.50412 0.85634 0.14456
 Cu276 Cu 0.50997 0.80509 0.19579
 C277 C 0.45836 0.79641 0.14018
 C278 C 0.55141 0.86868 0.20255
 C279 C 0.55411 0.79988 0.13330
 C280 C 0.46138 0.86191 0.20826
 O281 O 0.86330 0.53097 0.82124
 O282 O 0.81598 0.45513 0.86550
 O283 O 0.86801 0.46120 0.81736
 O284 O 0.81000 0.52565 0.86726
 O285 O 0.77055 0.52440 0.82190
 O286 O 0.82832 0.45953 0.77227
 O287 O 0.77624 0.45359 0.82060
 O288 O 0.82419 0.53064 0.77580
 Cu289 Cu 0.84313 0.49319 0.84747
 Cu290 Cu 0.79589 0.49184 0.79302
 C291 C 0.85173 0.54427 0.79131
 C292 C 0.78837 0.44113 0.85081
 C293 C 0.85802 0.44956 0.78625
 C294 C 0.78067 0.53624 0.85286
 O295 O 0.12894 0.53690 0.17823
 O296 O 0.17526 0.46659 0.12527
 O297 O 0.12337 0.46768 0.17333
 O298 O 0.18129 0.53656 0.12893
 O299 O 0.22129 0.52994 0.17317
 O300 O 0.16324 0.46130 0.21786
 O301 O 0.21497 0.45952 0.16968
 O302 O 0.16917 0.53122 0.22254
 Cu303 Cu 0.14834 0.50284 0.14687
 Cu304 Cu 0.19631 0.49511 0.20025
 C305 C 0.14056 0.54529 0.20979
 C306 C 0.20260 0.45056 0.13851
 C307 C 0.13340 0.45288 0.20322
 C308 C 0.21169 0.54415 0.14283
 O309 O 0.86684 0.47074 0.17836
 O310 O 0.82345 0.54287 0.12369
 O311 O 0.86887 0.54036 0.17881
 O312 O 0.82215 0.47160 0.12350
 O313 O 0.77621 0.47209 0.16233
 O314 O 0.82264 0.54185 0.21676
 O315 O 0.77728 0.54279 0.16215
 O316 O 0.82078 0.47103 0.21685
 Cu317 Cu 0.84975 0.50649 0.14690
 Cu318 Cu 0.79461 0.50715 0.19336
 C319 C 0.85156 0.45909 0.20752
 C320 C 0.79296 0.55522 0.13362
 C321 C 0.85424 0.55212 0.20807
 C322 C 0.79159 0.45958 0.13384
 O323 O 0.12605 0.47271 0.82718
 O324 O 0.18192 0.53760 0.87780
 O325 O 0.12815 0.54301 0.83115
 O326 O 0.17926 0.46763 0.87261
 O327 O 0.21964 0.47173 0.82778
 O328 O 0.16564 0.54395 0.78396
 O329 O 0.21907 0.54174 0.83045
 O330 O 0.16605 0.47231 0.78228
 Cu331 Cu 0.14987 0.50530 0.85676
 Cu332 Cu 0.19626 0.50784 0.80122
 C333 C 0.13710 0.46020 0.79675
 C334 C 0.21057 0.55013 0.86316
 C335 C 0.13789 0.55625 0.80030
 C336 C 0.20839 0.45725 0.85751
 C337 C 0.22304 0.37960 0.06483
 C338 C 0.26138 0.37972 0.06638
 C339 C 0.27865 0.40053 0.09320
 C340 C 0.25902 0.42176 0.11757
 C341 C 0.22131 0.42262 0.11637
 C342 C 0.20292 0.39981 0.09126
 C343 C 0.20402 0.36095 0.03708
 C344 C 0.16648 0.35944 0.03744
 C345 C 0.14706 0.37646 0.06518
 C346 C 0.16495 0.39648 0.09185
 H347 H 0.21751 0.34786 0.01442
 H348 H 0.15238 0.34472 0.01621
 H349 H 0.11794 0.37446 0.06581
 H350 H 0.14869 0.40869 0.11319
 H351 H 0.30781 0.40088 0.09493
 H352 H 0.27360 0.43872 0.13668
 C353 C 0.73029 0.63154 0.10058
 C354 C 0.73293 0.62590 0.06225
 C355 C 0.75725 0.60040 0.04846
 C356 C 0.77774 0.57911 0.07215
 C357 C 0.77457 0.58271 0.11041
 C358 C 0.75179 0.61026 0.12497
 C359 C 0.70683 0.65803 0.11512
 C360 C 0.70521 0.66411 0.15289
 C361 C 0.72705 0.64427 0.17669
 C362 C 0.75028 0.61773 0.16301
 H363 H 0.68988 0.67443 0.09744
 H364 H 0.68724 0.68464 0.16370
 H365 H 0.72616 0.64961 0.20592
 H366 H 0.76749 0.60393 0.18249
 H367 H 0.75949 0.59607 0.01907
 H368 H 0.79505 0.55846 0.06043
 C369 C 0.76935 0.36410 0.91903
 C370 C 0.73097 0.36699 0.92155
 C371 C 0.71297 0.39019 0.89688
 C372 C 0.73184 0.41211 0.87206
 C373 C 0.76946 0.41121 0.87047
 C374 C 0.78829 0.38521 0.89200
 C375 C 0.78989 0.34210 0.94326
 C376 C 0.82709 0.33864 0.93892
 C377 C 0.84486 0.35696 0.91062
 C378 C 0.82580 0.38010 0.88738
 H379 H 0.77832 0.32755 0.96616
 H380 H 0.84219 0.32140 0.95753
 H381 H 0.87363 0.35357 0.90693
 H382 H 0.84066 0.39353 0.86548
 H383 H 0.68388 0.39266 0.89788
 H384 H 0.71695 0.43149 0.85550
 C385 C 0.29232 0.60102 0.90275
 C386 C 0.27432 0.62282 0.92926
 C387 C 0.23663 0.62168 0.93140
 C388 C 0.21682 0.59844 0.90933
 C389 C 0.23388 0.57484 0.88470
 C390 C 0.27221 0.57539 0.88178
 C391 C 0.32983 0.60422 0.89631
 C392 C 0.34762 0.58053 0.87269
 C393 C 0.32858 0.55326 0.85504
 C394 C 0.29133 0.55056 0.85946
 H395 H 0.34577 0.62540 0.90870
 H396 H 0.37641 0.58311 0.86836
 H397 H 0.34270 0.53427 0.83753
 H398 H 0.27826 0.52836 0.84565
 H399 H 0.22224 0.63820 0.95117
 H400 H 0.18770 0.59856 0.91199
 C401 C 0.09619 0.29412 0.38900
 C402 C 0.06980 0.27490 0.36872
 C403 C 0.06874 0.23695 0.37088
 C404 C 0.09149 0.21810 0.39452
 C405 C 0.11571 0.23649 0.41739
 C406 C 0.11801 0.27514 0.41501
 C407 C 0.10124 0.33195 0.38407
 C408 C 0.12487 0.35118 0.40632
 C409 C 0.14369 0.33329 0.43397
 C410 C 0.14032 0.29577 0.43849
 H411 H 0.08745 0.34694 0.36268
 H412 H 0.12821 0.38020 0.40242
 H413 H 0.16121 0.34855 0.45191
 H414 H 0.15494 0.28379 0.46103
 H415 H 0.04898 0.22177 0.35539
 H416 H 0.08939 0.18872 0.39567
 C417 C 0.10262 0.71153 0.61510
 C418 C 0.07156 0.73014 0.62774
 C419 C 0.06719 0.76685 0.61900
 C420 C 0.09152 0.78470 0.59595
 C421 C 0.12115 0.76658 0.58028
 C422 C 0.12726 0.72925 0.59034
 C423 C 0.10975 0.67556 0.62696
 C424 C 0.13909 0.65640 0.61327
 C425 C 0.16193 0.67255 0.58762
 C426 C 0.15629 0.70835 0.57622
 H427 H 0.09311 0.66200 0.64736
 H428 H 0.14401 0.62880 0.62249
 H429 H 0.18439 0.65727 0.57657
 H430 H 0.17509 0.71816 0.55597
 H431 H 0.04384 0.78158 0.62893
 H432 H 0.08631 0.81300 0.58947
 C433 C 0.93008 0.77087 0.37759
 C434 C 0.92907 0.73217 0.38008
 C435 C 0.90236 0.71540 0.40185
 C436 C 0.87778 0.73594 0.42192
 C437 C 0.87846 0.77396 0.42020
 C438 C 0.90297 0.79156 0.39576
 C439 C 0.95788 0.78990 0.35869
 C440 C 0.95650 0.82753 0.35414
 C441 C 0.92779 0.84713 0.36851
 C442 C 0.90130 0.82947 0.38924
 H443 H 0.98150 0.77657 0.34796
 H444 H 0.97775 0.84154 0.33918
 H445 H 0.92636 0.87623 0.36413
 H446 H 0.87930 0.84577 0.39963
 H447 H 0.90095 0.68603 0.40400
 H448 H 0.85903 0.72195 0.44009
 C449 C 0.95081 0.26294 0.57306
 C450 C 0.94024 0.27329 0.60905
 C451 C 0.90668 0.26230 0.62304
 C452 C 0.88319 0.24186 0.60176
 C453 C 0.89291 0.23128 0.56618
 C454 C 0.92674 0.24210 0.55127
 C455 C 0.98503 0.27224 0.55843
 C456 C 0.99468 0.26254 0.52272
 C457 C 0.97061 0.24341 0.50092
 C458 C 0.93700 0.23318 0.51493
 H459 H 1.00474 0.28684 0.57435
 H460 H 1.02093 0.27001 0.51187
 H461 H 0.97807 0.23628 0.47306
 H462 H 0.91925 0.21844 0.49693
 H463 H 0.89846 0.26994 0.65056
 H464 H 0.85734 0.23388 0.61328
 C465 C 0.36345 0.10687 0.25981
 C466 C 0.37538 0.07087 0.26628
 C467 C 0.40898 0.05977 0.25290
 C468 C 0.43104 0.08380 0.23352
 C469 C 0.42044 0.11986 0.22746
 C470 C 0.38618 0.13167 0.24014
 C471 C 0.32968 0.11891 0.27291
 C472 C 0.31824 0.15443 0.26616
 C473 C 0.34008 0.17846 0.24628
 C474 C 0.37372 0.16731 0.23328
 H475 H 0.31192 0.10103 0.28838
 H476 H 0.29223 0.16333 0.27626
 H477 H 0.33087 0.20589 0.24087
 H478 H 0.38957 0.18669 0.21755
 H479 H 0.41835 0.03225 0.25777
 H480 H 0.45717 0.07442 0.22409
 C481 C 0.63321 0.10073 0.75071
 C482 C 0.62058 0.06641 0.73881
 C483 C 0.58562 0.05511 0.74794
 C484 C 0.56301 0.07717 0.76857
 C485 C 0.57447 0.11150 0.78010
 C486 C 0.60991 0.12349 0.77165
 C487 C 0.66813 0.11331 0.74158
 C488 C 0.68012 0.14711 0.75368
 C489 C 0.65768 0.16895 0.77492
 C490 C 0.62289 0.15738 0.78390
 H491 H 0.68636 0.09732 0.72497
 H492 H 0.70701 0.15638 0.74659
 H493 H 0.66727 0.19503 0.78445
 H494 H 0.60646 0.17505 0.80070
 H495 H 0.57572 0.02889 0.73899
 H496 H 0.53590 0.06779 0.77471
 C497 C 0.42090 0.95172 0.73410
 C498 C 0.38655 0.93937 0.72251
 C499 C 0.37474 0.90452 0.73245
 C500 C 0.39667 0.88142 0.75298
 C501 C 0.43071 0.89282 0.76477
 C502 C 0.44335 0.92814 0.75512
 C503 C 0.43326 0.98723 0.72572
 C504 C 0.46732 0.99881 0.73666
 C505 C 0.48978 0.97535 0.75599
 C506 C 0.47807 0.94039 0.76517
 H507 H 0.41683 1.00645 0.71081
 H508 H 0.47639 1.02607 0.72993
 H509 H 0.51640 0.98431 0.76401
 H510 H 0.49671 0.92321 0.77989
 H511 H 0.34846 0.89497 0.72389
 H512 H 0.38684 0.85449 0.76005
 C513 C 0.58063 0.95137 0.25791
 C514 C 0.61587 0.94046 0.26820
 C515 C 0.62933 0.90697 0.25630
 C516 C 0.60811 0.88383 0.23511
 C517 C 0.57321 0.89394 0.22468
 C518 C 0.55905 0.92788 0.23627
 C519 C 0.56643 0.98543 0.26843
 C520 C 0.53147 0.99556 0.25910
 C521 C 0.50997 0.97216 0.23898
 C522 C 0.52353 0.93878 0.22755
 H523 H 0.58214 1.00462 0.28379
 H524 H 0.52098 1.02165 0.26758
 H525 H 0.48269 0.97994 0.23202
 H526 H 0.50573 0.92180 0.21203
 H527 H 0.65615 0.89836 0.26413
 H528 H 0.61905 0.85790 0.22663
 C529 C 0.40824 0.29270 0.89993
 C530 C 0.38088 0.27517 0.92122
 C531 C 0.37690 0.23736 0.91874
 C532 C 0.40019 0.21676 0.89732
 C533 C 0.42907 0.23293 0.87837
 C534 C 0.43408 0.27127 0.88060
 C535 C 0.41064 0.33102 0.89719
 C536 C 0.43995 0.34770 0.87987
 C537 C 0.46735 0.32673 0.86489
 C538 C 0.46461 0.28895 0.86518
 H539 H 0.38970 0.34863 0.90749
 H540 H 0.44161 0.37707 0.87847
 H541 H 0.49067 0.33980 0.85254
 H542 H 0.48714 0.27423 0.85387
 H543 H 0.35611 0.22329 0.93435
 H544 H 0.39601 0.18762 0.89623
 C545 C 0.61860 0.72851 0.87879
 C546 C 0.60929 0.72130 0.91597
 C547 C 0.57648 0.73383 0.93006
 C548 C 0.55343 0.75442 0.90838
 C549 C 0.56207 0.76246 0.87169
 C550 C 0.59469 0.74919 0.85630
 C551 C 0.65098 0.71535 0.86340
 C552 C 0.66011 0.72312 0.82692
 C553 C 0.63710 0.74385 0.80510
 C554 C 0.60463 0.75670 0.81947
 H555 H 0.66928 0.69878 0.87932
 H556 H 0.68514 0.71298 0.81553
 H557 H 0.64441 0.74992 0.77685
 H558 H 0.58764 0.77265 0.80150
 H559 H 0.56916 0.72857 0.95852
 H560 H 0.52859 0.76440 0.92045
 C561 C 0.37440 0.77606 0.08301
 C562 C 0.37936 0.73788 0.07755
 C563 C 0.40744 0.72018 0.09636
 C564 C 0.43161 0.73921 0.11804
 C565 C 0.42843 0.77673 0.12233
 C566 C 0.39848 0.79510 0.10673
 C567 C 0.34702 0.79639 0.06522
 C568 C 0.34210 0.83323 0.07236
 C569 C 0.36402 0.85087 0.09735
 C570 C 0.39188 0.83213 0.11447
 H571 H 0.32893 0.78503 0.04549
 H572 H 0.32084 0.84811 0.05862
 H573 H 0.35954 0.87929 0.10339
 H574 H 0.40771 0.84688 0.13428
 H575 H 0.41162 0.69120 0.09335
 H576 H 0.45398 0.72466 0.13027
 C577 C 0.59547 0.30077 0.10971
 C578 C 0.61941 0.28081 0.08682
 C579 C 0.61995 0.24285 0.08981
 C580 C 0.59561 0.22446 0.11236
 C581 C 0.56929 0.24309 0.13260
 C582 C 0.56928 0.28186 0.13175
 C583 C 0.59701 0.33912 0.11134
 C584 C 0.57180 0.35859 0.13172
 C585 C 0.54476 0.34041 0.15102
 C586 C 0.54345 0.30255 0.15121
 H587 H 0.61807 0.35449 0.09767
 H588 H 0.57319 0.38798 0.13243
 H589 H 0.52487 0.35573 0.16633
 H590 H 0.52187 0.29025 0.16671
 H591 H 0.63821 0.22693 0.07308
 H592 H 0.59659 0.19501 0.11290
 C593 C 0.22549 0.07056 0.61070
 C594 C 0.26358 0.07510 0.61161
 C595 C 0.27957 0.10269 0.59040
 C596 C 0.25892 0.12528 0.56813
 C597 C 0.22129 0.12176 0.56675
 C598 C 0.20405 0.09552 0.59000
 C599 C 0.20809 0.04116 0.62888
 C600 C 0.17065 0.03869 0.63011
 C601 C 0.14973 0.06522 0.61330
 C602 C 0.16606 0.09331 0.59343
 H603 H 0.22284 0.01932 0.64176
 H604 H 0.15781 0.01627 0.64454
 H605 H 0.12063 0.06378 0.61527
 H606 H 0.14834 0.11342 0.58171
 H607 H 0.30855 0.10644 0.59055
 H608 H 0.27279 0.14511 0.55099
 C609 C 0.70276 0.09613 0.42237
 C610 C 0.71872 0.08005 0.39039
 C611 C 0.75505 0.08795 0.38228
 C612 C 0.77614 0.10801 0.40621
 C613 C 0.76188 0.12124 0.43912
 C614 C 0.72508 0.11506 0.44777
 C615 C 0.66513 0.09520 0.42943
 C616 C 0.65081 0.10828 0.46228
 C617 C 0.67331 0.12318 0.48860
 C618 C 0.71003 0.12685 0.48145
 H619 H 0.64596 0.08577 0.40944
 H620 H 0.62205 0.10687 0.46732
 H621 H 0.66215 0.13269 0.51437
 H622 H 0.72633 0.13885 0.50270
 H623 H 0.76809 0.07709 0.35799
 H624 H 0.80418 0.11284 0.39915
 C625 C 0.74928 0.94949 0.58290
 C626 C 0.73610 0.93486 0.61659
 C627 C 0.74287 0.89847 0.62566
 C628 C 0.76172 0.87612 0.60143
 C629 C 0.77465 0.88977 0.56778
 C630 C 0.76820 0.92667 0.55804
 C631 C 0.74422 0.98649 0.57343
 C632 C 0.75635 1.00038 0.53983
 C633 C 0.77350 0.97774 0.51485
 C634 C 0.77933 0.94129 0.52369
 H635 H 0.73103 1.00509 0.59184
 H636 H 0.75216 1.02877 0.53305
 H637 H 0.78238 0.98846 0.48850
 H638 H 0.79230 0.92481 0.50316
 H639 H 0.73280 0.88709 0.65132
 H640 H 0.76645 0.84801 0.60907
 C641 C 0.29144 0.89566 0.40472
 C642 C 0.27314 0.91808 0.37887
 C643 C 0.23550 0.91587 0.37660
 C644 C 0.21585 0.89344 0.40036
 C645 C 0.23298 0.87301 0.42786
 C646 C 0.27123 0.87488 0.43094
 C647 C 0.32948 0.89341 0.40517
 C648 C 0.34727 0.87450 0.43295
 C649 C 0.32764 0.85758 0.46087
 C650 C 0.29009 0.85776 0.46008
 H651 H 0.34587 0.90559 0.38381
 H652 H 0.37643 0.87342 0.43309
 H653 H 0.34158 0.84394 0.48310
 H654 H 0.27653 0.84498 0.48306
 H655 H 0.22095 0.93260 0.35705
 H656 H 0.18677 0.89269 0.39774
 C657 C 0.06647 0.38716 0.77311
 C658 C 0.07080 0.38668 0.73419
 C659 C 0.09716 0.40875 0.71772
 C660 C 0.11880 0.43133 0.73865
 C661 C 0.11550 0.43235 0.77708
 C662 C 0.09030 0.40861 0.79485
 C663 C 0.03841 0.36770 0.79104
 C664 C 0.03608 0.36632 0.82926
 C665 C 0.06136 0.38432 0.85045
 C666 C 0.08813 0.40529 0.83363
 H667 H 0.01750 0.35385 0.77614
 H668 H 0.01469 0.35092 0.84250
 H669 H 0.06000 0.38237 0.88016
 H670 H 0.10724 0.41798 0.85168
 H671 H 0.10080 0.40891 0.68812
 H672 H 0.13785 0.44885 0.72436
 C673 C 0.10856 0.62455 0.26919
 C674 C 0.07292 0.61248 0.27676
 C675 C 0.06112 0.57916 0.26304
 C676 C 0.08357 0.55820 0.24112
 C677 C 0.11873 0.56956 0.23284
 C678 C 0.13174 0.60281 0.24700
 C679 C 0.12185 0.65747 0.28357
 C680 C 0.15687 0.66904 0.27557
 C681 C 0.17924 0.64816 0.25325
 C682 C 0.16691 0.61533 0.23900
 H683 H 0.10549 0.67434 0.30128
 H684 H 0.16671 0.69436 0.28673
 H685 H 0.20631 0.65743 0.24700
 H686 H 0.18504 0.60003 0.22161
 H687 H 0.03390 0.56974 0.26852
 H688 H 0.07342 0.53269 0.23059
 C689 C 0.88686 0.40154 0.28873
 C690 C 0.91149 0.37904 0.26937
 C691 C 0.91268 0.38088 0.23094
 C692 C 0.89215 0.40622 0.21178
 C693 C 0.87014 0.43120 0.23029
 C694 C 0.86744 0.42912 0.26940
 C695 C 0.88121 0.39732 0.32702
 C696 C 0.85962 0.42158 0.34638
 C697 C 0.84331 0.45044 0.32814
 C698 C 0.84710 0.45432 0.29016
 H699 H 0.89284 0.37494 0.34230
 H700 H 0.85587 0.41819 0.37576
 H701 H 0.82735 0.46983 0.34346
 H702 H 0.83431 0.47763 0.27793
 H703 H 0.93102 0.36376 0.21555
 H704 H 0.89439 0.40697 0.18205
 C705 C 0.91544 0.62548 0.77635
 C706 C 0.91907 0.62418 0.73725
 C707 C 0.89755 0.59972 0.71760
 C708 C 0.87444 0.57555 0.73549
 C709 C 0.87154 0.57504 0.77384
 C710 C 0.89048 0.60158 0.79449
 C711 C 0.93655 0.64891 0.79826
 C712 C 0.93149 0.65071 0.83619
 C713 C 0.90545 0.62932 0.85334
 C714 C 0.88515 0.60498 0.83288
 H715 H 0.95740 0.66604 0.78708
 H716 H 0.94774 0.66906 0.85234
 H717 H 0.90112 0.63138 0.88272
 H718 H 0.86491 0.58948 0.84760
 H719 H 0.89943 0.59843 0.68788
 H720 H 0.85992 0.55589 0.71916
 C721 C 0.74334 0.62669 0.88746
 C722 C 0.71829 0.61358 0.91471
 C723 C 0.71199 0.57580 0.91709
 C724 C 0.73206 0.55127 0.89649
 C725 C 0.75857 0.56346 0.87203
 C726 C 0.76376 0.60119 0.86644
 C727 C 0.74754 0.66416 0.87893
 C728 C 0.77239 0.67601 0.85251
 C729 C 0.79308 0.65106 0.83324
 C730 C 0.78855 0.61401 0.83973
 H731 H 0.73110 0.68496 0.89114
 H732 H 0.77521 0.70476 0.84657
 H733 H 0.81216 0.66040 0.81260
 H734 H 0.80414 0.59549 0.82313
 H735 H 0.69278 0.56465 0.93672
 H736 H 0.72746 0.52238 0.90036
 C737 C 0.23808 0.36716 0.90138
 C738 C 0.27072 0.37908 0.91868
 C739 C 0.28358 0.41431 0.91000
 C740 C 0.26367 0.43846 0.88884
 C741 C 0.22995 0.42873 0.87553
 C742 C 0.21722 0.39278 0.88068
 C743 C 0.22583 0.33061 0.90271
 C744 C 0.19331 0.32045 0.88665
 C745 C 0.17258 0.34591 0.86796
 C746 C 0.18458 0.38161 0.86449
 H747 H 0.24143 0.30879 0.91436
 H748 H 0.18446 0.29241 0.88814
 H749 H 0.14755 0.33775 0.85523
 H750 H 0.16856 0.40017 0.84824
 H751 H 0.30871 0.42438 0.92109
 H752 H 0.27399 0.46574 0.88435
 C753 C 0.29547 0.58921 0.09916
 C754 C 0.27870 0.61945 0.08102
 C755 C 0.24175 0.62555 0.08768
 C756 C 0.22103 0.60122 0.10820
 C757 C 0.23610 0.56963 0.12306
 C758 C 0.27357 0.56310 0.11833
 C759 C 0.33337 0.58440 0.09976
 C760 C 0.34871 0.55298 0.11449
 C761 C 0.32693 0.52586 0.12940
 C762 C 0.28979 0.53080 0.13155
 H763 H 0.35191 0.60509 0.09032
 H764 H 0.37770 0.54966 0.11426
 H765 H 0.33893 0.50114 0.14005
 H766 H 0.27420 0.50883 0.14341
 H767 H 0.22794 0.64858 0.07549
 H768 H 0.19256 0.60681 0.11188
 C769 C 0.77209 0.37694 0.07278
 C770 C 0.73453 0.38314 0.06539
 C771 C 0.71804 0.41389 0.08117
 C772 C 0.73679 0.43741 0.10376
 C773 C 0.77300 0.43160 0.11184
 C774 C 0.79073 0.40065 0.09740
 C775 C 0.79246 0.34917 0.05549
 C776 C 0.82831 0.34280 0.06479
 C777 C 0.84511 0.36393 0.09111
 C778 C 0.82670 0.39267 0.10720
 H779 H 0.78214 0.33251 0.03383
 H780 H 0.84317 0.32125 0.05143
 H781 H 0.87277 0.35841 0.09866
 H782 H 0.84094 0.40829 0.12758
 H783 H 0.68985 0.41997 0.07646
 H784 H 0.72284 0.46092 0.11460
 C785 C 0.90305 0.70891 0.58922
 C786 C 0.92118 0.72645 0.61895
 C787 C 0.91526 0.76392 0.62407
 C788 C 0.89494 0.78431 0.59938
 C789 C 0.87948 0.76828 0.56855
 C790 C 0.88392 0.73039 0.56284
 C791 C 0.90215 0.67057 0.58540
 C792 C 0.88713 0.65444 0.55449
 C793 C 0.87210 0.67582 0.52697
 C794 C 0.87022 0.71335 0.53108
 H795 H 0.91162 0.65229 0.60654
 H796 H 0.88717 0.62514 0.55190
 H797 H 0.86113 0.66321 0.50265
 H798 H 0.85812 0.72865 0.50894
 H799 H 0.92774 0.77829 0.64660
 H800 H 0.89161 0.81316 0.60422
 C801 C 0.91462 0.22759 0.36885
 C802 C 0.92279 0.26519 0.37583
 C803 C 0.90577 0.28200 0.40604
 C804 C 0.88202 0.26328 0.42890
 C805 C 0.87383 0.22687 0.42270
 C806 C 0.88870 0.20919 0.39168
 C807 C 0.93231 0.20677 0.34139
 C808 C 0.92216 0.17101 0.33428
 C809 C 0.89475 0.15459 0.35453
 C810 C 0.87830 0.17327 0.38313
 H811 H 0.95494 0.21649 0.32558
 H812 H 0.93580 0.15587 0.31292
 H813 H 0.88666 0.12699 0.34851
 H814 H 0.85713 0.15940 0.39826
 H815 H 0.91088 0.31024 0.41255
 H816 H 0.87103 0.27711 0.45267
 C817 C 0.10080 0.24722 0.62966
 C818 C 0.08317 0.27977 0.61735
 C819 C 0.09035 0.29213 0.58117
 C820 C 0.11043 0.27156 0.55656
 C821 C 0.12418 0.23778 0.56689
 C822 C 0.12042 0.22572 0.60375
 C823 C 0.10101 0.23599 0.66705
 C824 C 0.11747 0.20359 0.67789
 C825 C 0.13499 0.18204 0.65219
 C826 C 0.13694 0.19315 0.61557
 H827 H 0.09020 0.25248 0.68884
 H828 H 0.11716 0.19548 0.70657
 H829 H 0.14798 0.15708 0.66083
 H830 H 0.15226 0.17649 0.59680
 H831 H 0.07863 0.31710 0.57074
 H832 H 0.11384 0.28140 0.52856
 C833 C 0.07451 0.70870 0.43052
 C834 C 0.06933 0.71833 0.39244
 C835 C 0.08901 0.74807 0.37801
 C836 C 0.11348 0.76730 0.39931
 C837 C 0.12039 0.75700 0.43559
 C838 C 0.10157 0.72710 0.45128
 C839 C 0.05225 0.68330 0.44975
 C840 C 0.05889 0.67370 0.48623
 C841 C 0.08698 0.68971 0.50515
 C842 C 0.10780 0.71649 0.48816
 H843 H 0.02828 0.67153 0.43839
 H844 H 0.04170 0.65405 0.50010
 H845 H 0.09195 0.68210 0.53348
 H846 H 0.12856 0.72899 0.50438
 H847 H 0.08556 0.75686 0.34973
 H848 H 0.12712 0.79066 0.38735
 C849 C 0.63383 0.89388 0.75215
 C850 C 0.62120 0.91780 0.72394
 C851 C 0.58469 0.91616 0.71392
 C852 C 0.56049 0.89394 0.73281
 C853 C 0.57161 0.87342 0.76310
 C854 C 0.60843 0.87280 0.77288
 C855 C 0.67090 0.88967 0.75998
 C856 C 0.68227 0.86737 0.78888
 C857 C 0.65720 0.84858 0.81036
 C858 C 0.62059 0.85110 0.80247
 H859 H 0.69164 0.90226 0.74329
 H860 H 0.71076 0.86452 0.79451
 H861 H 0.66619 0.83144 0.83284
 H862 H 0.60197 0.83563 0.81941
 H863 H 0.57423 0.93343 0.69221
 H864 H 0.53237 0.89422 0.72487
 C865 C 0.41550 0.90560 0.29217
 C866 C 0.38653 0.92403 0.27431
 C867 C 0.38242 0.91979 0.23620
 C868 C 0.40655 0.89923 0.21566
 C869 C 0.43625 0.88250 0.23216
 C870 C 0.44160 0.88652 0.27062
 C871 C 0.41930 0.90529 0.33088
 C872 C 0.44956 0.89015 0.34751
 C873 C 0.47665 0.87489 0.32616
 C874 C 0.47284 0.87298 0.28816
 H875 H 0.39889 0.91580 0.34902
 H876 H 0.45213 0.89055 0.37716
 H877 H 0.50056 0.86405 0.33915
 H878 H 0.49499 0.86134 0.27296
 H879 H 0.36070 0.93330 0.22175
 H880 H 0.40219 0.89677 0.18633
 C881 C 0.62804 0.11058 0.25461
 C882 C 0.61397 0.08481 0.28052
 C883 C 0.57654 0.08360 0.28659
 C884 C 0.55310 0.10489 0.26595
 C885 C 0.56617 0.12813 0.23843
 C886 C 0.60375 0.13162 0.23276
 C887 C 0.66545 0.11697 0.25051
 C888 C 0.67850 0.14158 0.22423
 C889 C 0.65475 0.16080 0.20192
 C890 C 0.61769 0.15618 0.20623
 H891 H 0.68508 0.10420 0.26815
 H892 H 0.70724 0.14602 0.22141
 H893 H 0.66507 0.17987 0.18161
 H894 H 0.60010 0.17226 0.18893
 H895 H 0.56499 0.06502 0.30670
 H896 H 0.52434 0.10253 0.27089
 C897 C 0.40505 0.10664 0.70144
 C898 C 0.37974 0.08303 0.71897
 C899 C 0.37870 0.08146 0.75747
 C900 C 0.40309 0.10099 0.77850
 C901 C 0.43028 0.12220 0.76201
 C902 C 0.43198 0.12442 0.72283
 C903 C 0.40428 0.11303 0.66306
 C904 C 0.43135 0.13309 0.64563
 C905 C 0.45971 0.14708 0.66592
 C906 C 0.46022 0.14281 0.70403
 H907 H 0.38245 0.10336 0.64616
 H908 H 0.43057 0.13739 0.61616
 H909 H 0.48132 0.16162 0.65208
 H910 H 0.48350 0.15341 0.71793
 H911 H 0.35963 0.06385 0.77161
 H912 H 0.40107 0.09883 0.80817
 C913 C 0.62072 0.77637 0.05549
 C914 C 0.62214 0.73785 0.06002
 C915 C 0.60357 0.72176 0.08961
 C916 C 0.58315 0.74251 0.11383
 C917 C 0.58101 0.78042 0.11002
 C918 C 0.60180 0.79784 0.08195
 C919 C 0.63663 0.79422 0.02481
 C920 C 0.63722 0.83204 0.02227
 C921 C 0.62202 0.85290 0.04997
 C922 C 0.60448 0.83614 0.07954
 H923 H 0.64818 0.77962 0.00204
 H924 H 0.64989 0.84522 -0.00119
 H925 H 0.62348 0.88227 0.04837
 H926 H 0.59390 0.85363 0.10071
 H927 H 0.60426 0.69255 0.09370
 H928 H 0.56791 0.72848 0.13512
 C929 C 0.39214 0.29622 0.10455
 C930 C 0.37504 0.27690 0.07581
 C931 C 0.38031 0.23940 0.07309
 C932 C 0.40365 0.22125 0.09670
 C933 C 0.42320 0.23986 0.12369
 C934 C 0.41768 0.27813 0.12762
 C935 C 0.38422 0.33324 0.11096
 C936 C 0.40302 0.35292 0.13719
 C937 C 0.42997 0.33625 0.15754
 C938 C 0.43730 0.29941 0.15295
 H939 H 0.36306 0.34727 0.09631
 H940 H 0.39685 0.38133 0.14150
 H941 H 0.44512 0.35189 0.17728
 H942 H 0.45886 0.28870 0.16931
 H943 H 0.36726 0.22412 0.05154
 H944 H 0.40699 0.19222 0.09320
 C945 C 0.57562 0.25594 0.95102
 C946 C 0.61173 0.26303 0.94006
 C947 C 0.62476 0.24894 0.90688
 C948 C 0.60233 0.22896 0.88392
 C949 C 0.56647 0.22190 0.89387
 C950 C 0.55270 0.23550 0.92760
 C951 C 0.56185 0.26839 0.98501
 C952 C 0.52605 0.26206 0.99502
 C953 C 0.50332 0.24320 0.97158
 C954 C 0.51640 0.22993 0.93827
 H955 H 0.57854 0.28288 1.00427
 H956 H 0.51588 0.27191 1.02107
 H957 H 0.47544 0.23863 0.97932
 H958 H 0.49772 0.21544 0.92111
 H959 H 0.65232 0.25416 0.89831
 H960 H 0.61304 0.21892 0.85815
 C961 C 0.37362 0.77929 0.93064
 C962 C 0.37351 0.74055 0.92986
 C963 C 0.39318 0.72279 0.90231
 C964 C 0.41390 0.74217 0.87691
 C965 C 0.41547 0.78020 0.87770
 C966 C 0.39349 0.79916 0.90331
 C967 C 0.35562 0.79898 0.95849
 C968 C 0.35470 0.83685 0.95778
 C969 C 0.37157 0.85600 0.92943
 C970 C 0.39076 0.83748 0.90241
 H971 H 0.34246 0.78581 0.98141
 H972 H 0.34052 0.85141 0.97920
 H973 H 0.37002 0.88538 0.92853
 H974 H 0.40278 0.85354 0.88054
 H975 H 0.39333 0.69336 0.90099
 H976 H 0.43019 0.72707 0.85749
 C977 C 0.72468 0.89565 0.37702
 C978 C 0.73044 0.93356 0.37929
 C979 C 0.75883 0.94688 0.40038
 C980 C 0.78025 0.92342 0.42094
 C981 C 0.77412 0.88573 0.42108
 C982 C 0.74724 0.87135 0.39729
 C983 C 0.69737 0.88141 0.35439
 C984 C 0.69288 0.84398 0.35092
 C985 C 0.71571 0.82018 0.36942
 C986 C 0.74279 0.83355 0.39215
 H987 H 0.67960 0.89904 0.33889
 H988 H 0.67198 0.83340 0.33330
 H989 H 0.71265 0.79115 0.36588
 H990 H 0.76069 0.81387 0.40444
 H991 H 0.76381 0.97589 0.40178
 H992 H 0.80105 0.93516 0.43794
 C993 C 0.25737 0.94610 0.57487
 C994 C 0.26961 0.93507 0.61019
 C995 C 0.26098 0.90026 0.62346
 C996 C 0.24121 0.87604 0.60203
 C997 C 0.22898 0.88621 0.56704
 C998 C 0.23735 0.92138 0.55298
 C999 C 0.26417 0.98147 0.56093
 C1000 C 0.25282 0.99179 0.52592
 C1001 C 0.23457 0.96718 0.50399
 C1002 C 0.22686 0.93238 0.51724
 H1003 H 0.27812 1.00159 0.57682
 H1004 H 0.25839 1.01896 0.51572
 H1005 H 0.22619 0.97512 0.47660
 H1006 H 0.21282 0.91435 0.49904
 H1007 H 0.27010 0.89158 0.65038
 H1008 H 0.23512 0.84922 0.61297
 C1009 C 0.22097 0.06554 0.37249
 C1010 C 0.25936 0.06705 0.37302
 C1011 C 0.27621 0.09431 0.39347
 C1012 C 0.25631 0.11896 0.41398
 C1013 C 0.21853 0.11804 0.41441
 C1014 C 0.20052 0.09248 0.39168
 C1015 C 0.20218 0.03745 0.35435
 C1016 C 0.16470 0.03784 0.35203
 C1017 C 0.14512 0.06600 0.36764
 C1018 C 0.16268 0.09308 0.38725
 H1019 H 0.21574 0.01451 0.34229
 H1020 H 0.15080 0.01633 0.33768
 H1021 H 0.11609 0.06669 0.36483
 H1022 H 0.14624 0.11479 0.39798
 H1023 H 0.30535 0.09621 0.39423
 H1024 H 0.27086 0.13827 0.43069
 C1025 C 0.77626 0.07066 0.63006
 C1026 C 0.73802 0.07422 0.63203
 C1027 C 0.72139 0.10278 0.61287
 C1028 C 0.74137 0.12666 0.59096
 C1029 C 0.77891 0.12338 0.58788
 C1030 C 0.79685 0.09680 0.60964
 C1031 C 0.79470 0.04110 0.64653
 C1032 C 0.83223 0.03948 0.64624
 C1033 C 0.85225 0.06700 0.62955
 C1034 C 0.83489 0.09540 0.61138
 H1035 H 0.78085 0.01846 0.65922
 H1036 H 0.84585 0.01687 0.65936
 H1037 H 0.88141 0.06611 0.63027
 H1038 H 0.85164 0.11648 0.59939
 H1039 H 0.69236 0.10594 0.61386
 H1040 H 0.72702 0.14686 0.57491
 C1041 C 0.89195 0.60652 0.29035
 C1042 C 0.92198 0.62317 0.27257
 C1043 C 0.92618 0.61945 0.23461
 C1044 C 0.90297 0.59753 0.21460
 C1045 C 0.87495 0.57778 0.23174
 C1046 C 0.86917 0.58229 0.27041
 C1047 C 0.88405 0.61360 0.32772
 C1048 C 0.85644 0.59517 0.34601
 C1049 C 0.83613 0.56944 0.32761
 C1050 C 0.84225 0.56298 0.29037
 H1051 H 0.89866 0.63386 0.34307
 H1052 H 0.85098 0.60069 0.37472
 H1053 H 0.81521 0.55457 0.34219
 H1054 H 0.82562 0.54238 0.27843
 H1055 H 0.94863 0.63235 0.22044
 H1056 H 0.90786 0.59515 0.18532
 C1057 C 0.89646 0.36683 0.73621
 C1058 C 0.92953 0.38192 0.72353
 C1059 C 0.93799 0.41805 0.73189
 C1060 C 0.91468 0.43917 0.75281
 C1061 C 0.88187 0.42505 0.76553
 C1062 C 0.87244 0.38863 0.75749
 C1063 C 0.88631 0.33090 0.72764
 C1064 C 0.85380 0.31646 0.74061
 C1065 C 0.83080 0.33745 0.76213
 C1066 C 0.83988 0.37324 0.77053
 H1067 H 0.90312 0.31377 0.71066
 H1068 H 0.84640 0.28882 0.73391
 H1069 H 0.80572 0.32599 0.77226
 H1070 H 0.82131 0.38861 0.78737
 H1071 H 0.96326 0.42989 0.72262
 H1072 H 0.92214 0.46701 0.75878
 C1073 C 0.06693 0.63052 0.78221
 C1074 C 0.06524 0.62856 0.74305
 C1075 C 0.08966 0.60592 0.72457
 C1076 C 0.11399 0.58426 0.74358
 C1077 C 0.11553 0.58463 0.78203
 C1078 C 0.09335 0.60953 0.80156
 C1079 C 0.04267 0.65189 0.80298
 C1080 C 0.04596 0.65475 0.84101
 C1081 C 0.07344 0.63664 0.85929
 C1082 C 0.09700 0.61433 0.83991
 H1083 H 0.02067 0.66645 0.79072
 H1084 H 0.02727 0.67149 0.85633
 H1085 H 0.07643 0.63975 0.88870
 H1086 H 0.11848 0.60167 0.85530
 H1087 H 0.08940 0.60415 0.69483
 H1088 H 0.13087 0.56592 0.72793
 C1089 C 0.09639 0.37079 0.25678
 C1090 C 0.06061 0.38294 0.26266
 C1091 C 0.04958 0.41639 0.24819
 C1092 C 0.07338 0.43797 0.22797
 C1093 C 0.10910 0.42699 0.22214
 C1094 C 0.12084 0.39290 0.23607
 C1095 C 0.10857 0.33739 0.27148
 C1096 C 0.14373 0.32559 0.26509
 C1097 C 0.16729 0.34663 0.24389
 C1098 C 0.15607 0.37993 0.22937
 H1099 H 0.09114 0.32019 0.28807
 H1100 H 0.15269 0.29988 0.27647
 H1101 H 0.19442 0.33710 0.23865
 H1102 H 0.17511 0.39506 0.21259
 H1103 H 0.02222 0.42582 0.25250
 H1104 H 0.06406 0.46395 0.21752
   
