data_POSCAR
  _audit_creation_date              2014-09-24
  _audit_creation_method            'ToBaCCo'
  _symmetry_space_group_name_H-M    'P1'
  _symmetry_Int_Tables_number       1
  _symmetry_cell_setting            triclinic
  loop_
  _symmetry_equiv_pos_as_xyz
 x,y,z
_cell_length_a 46.1475
_cell_length_b 46.1119
_cell_length_c 46.1715
_cell_angle_alpha 89.959000
_cell_angle_beta 90.004100
_cell_angle_gamma 89.929200
loop_
  _atom_site_label
  _atom_site_type_symbol
  _atom_site_fract_x
  _atom_site_fract_y
  _atom_site_fract_z
O1 O 0.27410 1.02846 0.47219
 O2 O 0.27400 0.97201 0.52860
 O3 O 0.27400 0.97196 0.47217
 O4 O 0.27407 1.02851 0.52863
 O5 O 0.22622 1.02864 0.52861
 O6 O 0.22613 0.97209 0.47215
 O7 O 0.22612 0.97214 0.52858
 O8 O 0.22622 1.02859 0.47218
 Cu9 Cu 0.27884 1.00022 0.50040
 Cu10 Cu 0.22137 1.00038 0.50038
 C11 C 0.25018 1.03812 0.46259
 C12 C 0.25004 0.96248 0.53818
 C13 C 0.25006 0.96241 0.46255
 C14 C 0.25015 1.03823 0.53826
 O15 O 0.77397 -0.02871 0.47232
 O16 O 0.77407 0.02768 0.52867
 O17 O 0.77418 -0.02880 0.52873
 O18 O 0.77394 0.02777 0.47227
 O19 O 0.72607 0.02777 0.47240
 O20 O 0.72633 -0.02881 0.52888
 O21 O 0.72619 0.02767 0.52881
 O22 O 0.72609 -0.02870 0.47247
 Cu23 Cu 0.77884 -0.00052 0.50049
 Cu24 Cu 0.72136 -0.00052 0.50066
 C25 C 0.75001 -0.03828 0.46280
 C26 C 0.75015 0.03727 0.53832
 C27 C 0.75030 -0.03846 0.53845
 C28 C 0.74996 0.03739 0.46272
 O29 O 0.22617 0.47099 0.97222
 O30 O 0.22617 0.52744 1.02857
 O31 O 0.22613 0.52746 0.97218
 O32 O 0.22623 0.47096 1.02863
 O33 O 0.27408 0.47094 1.02860
 O34 O 0.27401 0.52744 0.97215
 O35 O 0.27404 0.52742 1.02854
 O36 O 0.27405 0.47097 0.97219
 Cu37 Cu 0.22137 0.49921 1.00041
 Cu38 Cu 0.27885 0.49919 1.00037
 C39 C 0.25011 0.46139 0.96261
 C40 C 0.25010 0.53703 1.03814
 C41 C 0.25005 0.53706 0.96257
 C42 C 0.25017 0.46131 1.03825
 O43 O 0.47248 0.27381 1.02848
 O44 O 0.52887 0.27379 0.97214
 O45 O 0.47242 0.27372 0.97206
 O46 O 0.52893 0.27383 1.02857
 O47 O 0.52902 0.22594 1.02865
 O48 O 0.47252 0.22582 0.97215
 O49 O 0.52897 0.22587 0.97223
 O50 O 0.47257 0.22589 1.02857
 Cu51 Cu 0.50067 0.27859 1.00030
 Cu52 Cu 0.50078 0.22107 1.00041
 C53 C 0.46293 0.24985 1.03809
 C54 C 0.53850 0.24983 0.96260
 C55 C 0.46286 0.24975 0.96249
 C56 C 0.53862 0.24990 1.03826
 O57 O 0.47220 0.77390 -0.02871
 O58 O 0.52859 0.77406 0.02764
 O59 O 0.52866 0.77401 -0.02879
 O60 O 0.47215 0.77394 0.02770
 O61 O 0.47231 0.72604 0.02777
 O62 O 0.52881 0.72612 -0.02872
 O63 O 0.52875 0.72615 0.02771
 O64 O 0.47236 0.72599 -0.02864
 Cu65 Cu 0.50039 0.77879 -0.00055
 Cu66 Cu 0.50058 0.72127 -0.00047
 C67 C 0.46268 0.74992 -0.03824
 C68 C 0.53824 0.75013 0.03726
 C69 C 0.53838 0.75007 -0.03840
 C70 C 0.46261 0.74998 0.03735
 O71 O 1.02866 0.47227 0.27373
 O72 O 0.97224 0.52871 0.27375
 O73 O 0.97221 0.47222 0.27375
 O74 O 1.02869 0.52876 0.27373
 O75 O 1.02867 0.52880 0.22590
 O76 O 0.97220 0.47226 0.22590
 O77 O 0.97222 0.52875 0.22589
 O78 O 1.02864 0.47231 0.22587
 Cu79 Cu 1.00045 0.50049 0.27854
 Cu80 Cu 1.00043 0.50054 0.22109
 C81 C 1.03824 0.46269 0.24980
 C82 C 0.96263 0.53832 0.24982
 C83 C 0.96260 0.46262 0.24983
 C84 C 1.03833 0.53843 0.24981
 O85 O -0.02884 0.47231 0.77359
 O86 O 0.02754 0.52865 0.77370
 O87 O -0.02892 0.52881 0.77348
 O88 O 0.02761 0.47216 0.77370
 O89 O 0.02773 0.47217 0.72585
 O90 O -0.02878 0.52880 0.72566
 O91 O 0.02767 0.52865 0.72584
 O92 O -0.02872 0.47230 0.72573
 Cu93 Cu -0.00067 0.50049 0.77841
 Cu94 Cu -0.00052 0.50048 0.72097
 C95 C -0.03836 0.46272 0.74964
 C96 C 0.03720 0.53823 0.74979
 C97 C -0.03850 0.53848 0.74953
 C98 C 0.03729 0.46253 0.74981
 O99 O 0.47116 0.97233 0.22600
 O100 O 0.52755 1.02874 0.22605
 O101 O 0.52757 0.97229 0.22604
 O102 O 0.47113 1.02879 0.22604
 O103 O 0.47111 1.02874 0.27387
 O104 O 0.52755 0.97224 0.27389
 O105 O 0.52753 1.02869 0.27390
 O106 O 0.47114 0.97227 0.27385
 Cu107 Cu 0.49935 1.00054 0.22122
 Cu108 Cu 0.49933 1.00048 0.27869
 C109 C 0.46157 0.96270 0.24991
 C110 C 0.53713 1.03830 0.24998
 C111 C 0.53717 0.96266 0.24996
 C112 C 0.46149 1.03841 0.24996
 O113 O 1.02843 0.22598 0.52800
 O114 O 0.97200 0.22598 0.47164
 O115 O 1.02842 0.22602 0.47161
 O116 O 0.97201 0.22597 0.52802
 O117 O 0.97193 0.27388 0.52801
 O118 O 1.02833 0.27394 0.47159
 O119 O 0.97191 0.27390 0.47162
 O120 O 1.02835 0.27390 0.52799
 Cu121 Cu 1.00022 0.22117 0.49982
 Cu122 Cu 1.00012 0.27872 0.49980
 C123 C 1.03799 0.24994 0.53758
 C124 C 0.96235 0.24993 0.46205
 C125 C 1.03797 0.24999 0.46201
 C126 C 0.96238 0.24992 0.53761
 O127 O -0.02823 0.77397 0.52814
 O128 O 0.02820 0.77388 0.47177
 O129 O -0.02822 0.77395 0.47175
 O130 O 0.02819 0.77391 0.52816
 O131 O 0.02820 0.72599 0.52822
 O132 O -0.02821 0.72603 0.47181
 O133 O 0.02820 0.72597 0.47183
 O134 O -0.02822 0.72605 0.52819
 Cu135 Cu -0.00001 0.77875 0.49995
 Cu136 Cu -0.00001 0.72119 0.50002
 C137 C -0.03782 0.75003 0.53775
 C138 C 0.03779 0.74991 0.46221
 C139 C -0.03781 0.74999 0.46219
 C140 C 0.03778 0.74994 0.53779
 O141 O 0.72575 0.47192 1.02809
 O142 O 0.72538 0.52840 0.97176
 O143 O 0.72564 0.47195 0.97171
 O144 O 0.72562 0.52836 1.02814
 O145 O 0.77350 0.52845 1.02799
 O146 O 0.77352 0.47206 0.97159
 O147 O 0.77327 0.52851 0.97162
 O148 O 0.77363 0.47201 1.02797
 Cu149 Cu 0.72078 0.50015 0.99994
 Cu150 Cu 0.77830 0.50027 0.99978
 C151 C 0.74974 0.46236 1.03761
 C152 C 0.74926 0.53806 0.96211
 C153 C 0.74959 0.46242 0.96205
 C154 C 0.74956 0.53800 1.03766
 O155 O 0.47139 1.02853 0.72643
 O156 O 0.52782 0.97199 0.72678
 O157 O 0.47140 0.97206 0.72659
 O158 O 0.52782 1.02845 0.72653
 O159 O 0.52771 1.02859 0.77438
 O160 O 0.47128 0.97219 0.77444
 O161 O 0.52769 0.97213 0.77463
 O162 O 0.47128 1.02866 0.77426
 Cu163 Cu 0.49962 1.00025 0.72177
 Cu164 Cu 0.49947 1.00041 0.77924
 C165 C 0.46170 1.03824 0.75029
 C166 C 0.53735 0.96245 0.75077
 C167 C 0.46175 0.96253 0.75052
 C168 C 0.53737 1.03810 0.75044
 C169 C 0.25041 0.22844 0.27156
 C170 C 0.22871 0.25015 0.27152
 C171 C 0.22872 0.27183 0.24980
 C172 C 0.25041 0.27182 0.22813
 C173 C 0.27210 0.25009 0.22820
 C174 C 0.27210 0.22840 0.24990
 C175 C 0.74978 0.77190 0.27168
 C176 C 0.72809 0.77194 0.25002
 C177 C 0.72813 0.75028 0.22832
 C178 C 0.74984 0.72859 0.22829
 C179 C 0.77152 0.72856 0.24996
 C180 C 0.77150 0.75021 0.27166
 C181 C 0.75012 0.22824 0.72830
 C182 C 0.72845 0.22824 0.74998
 C183 C 0.72845 0.24997 0.77161
 C184 C 0.75006 0.27171 0.77153
 C185 C 0.77170 0.27171 0.74983
 C186 C 0.77175 0.24996 0.72821
 C187 C 0.24986 0.77156 0.72862
 C188 C 0.22820 0.74987 0.72859
 C189 C 0.22822 0.72814 0.75026
 C190 C 0.24988 0.72809 0.77195
 C191 C 0.27154 0.74979 0.77196
 C192 C 0.27153 0.77154 0.75031
 C193 C 0.22856 0.24969 0.72816
 C194 C 0.25028 0.22795 0.72811
 C195 C 0.27197 0.22792 0.74982
 C196 C 0.27196 0.24958 0.77155
 C197 C 0.25021 0.27129 0.77156
 C198 C 0.22850 0.27137 0.74988
 C199 C 0.77160 0.75024 0.72834
 C200 C 0.75091 0.77292 0.72940
 C201 C 0.72927 0.77291 0.75110
 C202 C 0.72810 0.75018 0.77168
 C203 C 0.74875 0.72750 0.77050
 C204 C 0.77056 0.72753 0.74897
 C205 C 0.22826 0.74978 0.27159
 C206 C 0.22826 0.72806 0.24991
 C207 C 0.24998 0.72808 0.22824
 C208 C 0.27166 0.74981 0.22819
 C209 C 0.27160 0.77152 0.24988
 C210 C 0.24992 0.77152 0.27160
 C211 C 0.77160 0.25000 0.27165
 C212 C 0.74988 0.22833 0.27168
 C213 C 0.72820 0.22837 0.24996
 C214 C 0.72823 0.25005 0.22821
 C215 C 0.74997 0.27170 0.22823
 C216 C 0.77167 0.27171 0.24994
 N217 N 0.27561 0.09145 0.40902
 C218 C 0.25028 0.10202 0.39848
 N219 N 0.22492 0.09160 0.40902
 N220 N 0.22489 0.07122 0.42948
 C221 C 0.25021 0.06058 0.44008
 N222 N 0.27558 0.07107 0.42948
 C223 C 0.25031 0.12394 0.37645
 C224 C 0.25036 0.14237 0.35794
 C225 C 0.25040 0.16430 0.33592
 N226 N 0.25123 0.19275 0.34324
 N227 N 0.25126 0.21314 0.32279
 C228 C 0.25043 0.20574 0.29433
 N229 N 0.24959 0.17722 0.28708
 N230 N 0.24958 0.15683 0.30754
 N231 N 0.72454 0.90844 0.40930
 C232 C 0.74985 0.89797 0.39868
 N233 N 0.77522 0.90841 0.40914
 N234 N 0.77528 0.92875 0.42962
 C235 C 0.74996 0.93930 0.44030
 N236 N 0.72459 0.92878 0.42978
 C237 C 0.74980 0.87611 0.37663
 C238 C 0.74977 0.85775 0.35809
 C239 C 0.74975 0.83590 0.33604
 N240 N 0.77332 0.83202 0.31896
 N241 N 0.77332 0.81170 0.29848
 C242 C 0.74975 0.79457 0.29442
 N243 N 0.72617 0.79852 0.31157
 N244 N 0.72617 0.81887 0.33204
 N245 N 0.72485 0.09078 0.59173
 C246 C 0.75020 0.10133 0.60214
 N247 N 0.77554 0.09082 0.59159
 N248 N 0.77552 0.07037 0.57122
 C249 C 0.75017 0.05976 0.56075
 N250 N 0.72483 0.07033 0.57137
 C251 C 0.75022 0.12334 0.62404
 C252 C 0.75021 0.14184 0.64243
 C253 C 0.75020 0.16386 0.66432
 N254 N 0.75109 0.15651 0.69273
 N255 N 0.75107 0.17697 0.71308
 C256 C 0.75015 0.20547 0.70566
 N257 N 0.74926 0.21275 0.67717
 N258 N 0.74929 0.19228 0.65683
 N259 N 0.22460 0.90900 0.59161
 C260 C 0.24993 0.89842 0.60213
 N261 N 0.27529 0.90888 0.59164
 N262 N 0.27533 0.92932 0.57123
 C263 C 0.25000 0.93998 0.56065
 N264 N 0.22464 0.92945 0.57120
 C265 C 0.24989 0.87641 0.62408
 C266 C 0.24987 0.85791 0.64252
 C267 C 0.24986 0.83590 0.66447
 N268 N 0.27349 0.81886 0.66848
 N269 N 0.27349 0.79841 0.68886
 C270 C 0.24986 0.79433 0.70592
 N271 N 0.22624 0.81145 0.70184
 N272 N 0.22624 0.83189 0.68144
 N273 N 0.40934 0.27525 0.09137
 C274 C 0.39887 0.24989 0.10191
 N275 N 0.40945 0.22452 0.09149
 N276 N 0.42990 0.22451 0.07112
 C277 C 0.44044 0.24986 0.06052
 N278 N 0.42979 0.27524 0.07101
 C279 C 0.37687 0.24991 0.12381
 C280 C 0.35837 0.24993 0.14222
 C281 C 0.33638 0.24998 0.16413
 N282 N 0.34375 0.25089 0.19253
 N283 N 0.32331 0.25094 0.21290
 C284 C 0.29484 0.25007 0.20553
 N285 N 0.28754 0.24915 0.17705
 N286 N 0.30798 0.24912 0.15668
 N287 N 0.40914 0.72442 0.90854
 C288 C 0.39852 0.74976 0.89805
 N289 N 0.40899 0.77515 0.90846
 N290 N 0.42949 0.77520 0.92879
 C291 C 0.44017 0.74986 0.93935
 N292 N 0.42963 0.72447 0.92887
 C293 C 0.37646 0.74971 0.87620
 C294 C 0.35792 0.74969 0.85784
 C295 C 0.33587 0.74969 0.83599
 N296 N 0.31875 0.77329 0.83213
 N297 N 0.29827 0.77331 0.81179
 C298 C 0.29426 0.74974 0.79464
 N299 N 0.31145 0.72614 0.79858
 N300 N 0.33192 0.72611 0.81893
 N301 N 0.59145 0.77563 0.09082
 C302 C 0.60199 0.75030 0.10139
 N303 N 0.59162 0.72491 0.09088
 N304 N 0.57128 0.72485 0.07040
 C305 C 0.56066 0.75019 0.05976
 N306 N 0.57111 0.77558 0.07034
 C307 C 0.62385 0.75035 0.12344
 C308 C 0.64222 0.75037 0.14197
 C309 C 0.66408 0.75037 0.16402
 N310 N 0.66799 0.72676 0.18108
 N311 N 0.68833 0.72674 0.20155
 C312 C 0.70544 0.75034 0.20561
 N313 N 0.70145 0.77396 0.18847
 N314 N 0.68109 0.77397 0.16801
 N315 N 0.59179 0.27519 0.90904
 C316 C 0.60232 0.24982 0.89854
 N317 N 0.59189 0.22446 0.90910
 N318 N 0.57153 0.22446 0.92956
 C319 C 0.56093 0.24982 0.94012
 N320 N 0.57143 0.27519 0.92949
 C321 C 0.62420 0.24983 0.87652
 C322 C 0.64259 0.24984 0.85801
 C323 C 0.66447 0.24987 0.83599
 N324 N 0.69290 0.24902 0.84330
 N325 N 0.71325 0.24904 0.82283
 C326 C 0.70581 0.24994 0.79438
 N327 N 0.67729 0.25080 0.78714
 N328 N 0.65696 0.25076 0.80762
 N329 N 0.09168 0.40919 0.22443
 C330 C 0.10219 0.39864 0.24975
 N331 N 0.09170 0.40913 0.27508
 N332 N 0.07129 0.42958 0.27511
 C333 C 0.06071 0.44020 0.24978
 N334 N 0.07127 0.42964 0.22444
 C335 C 0.12415 0.37664 0.24973
 C336 C 0.14260 0.35814 0.24972
 C337 C 0.16454 0.33615 0.24974
 N338 N 0.15713 0.30773 0.24885
 N339 N 0.17753 0.28727 0.24886
 C340 C 0.20602 0.29458 0.24977
 N341 N 0.21336 0.32308 0.25067
 N342 N 0.19295 0.34352 0.25065
 N343 N 0.90823 0.40921 0.77492
 C344 C 0.89782 0.39866 0.74958
 N345 N 0.90836 0.40916 0.72426
 N346 N 0.92872 0.42962 0.72427
 C347 C 0.93921 0.44023 0.74962
 N348 N 0.92860 0.42966 0.77494
 C349 C 0.87593 0.37664 0.74957
 C350 C 0.85754 0.35813 0.74957
 C351 C 0.83567 0.33610 0.74961
 N352 N 0.84318 0.30769 0.75055
 N353 N 0.82285 0.28721 0.75062
 C354 C 0.79433 0.29449 0.74973
 N355 N 0.78689 0.32298 0.74878
 N356 N 0.80723 0.34345 0.74873
 N357 N 0.09086 0.59152 0.72460
 C358 C 0.10133 0.60197 0.74995
 N359 N 0.09072 0.59150 0.77526
 N360 N 0.07024 0.57116 0.77521
 C361 C 0.05971 0.56064 0.74985
 N362 N 0.07038 0.57118 0.72454
 C363 C 0.12337 0.62383 0.75001
 C364 C 0.14190 0.64220 0.75008
 C365 C 0.16393 0.66407 0.75015
 N366 N 0.16787 0.68110 0.77373
 N367 N 0.18832 0.70147 0.77378
 C368 C 0.20551 0.70545 0.75024
 N369 N 0.20151 0.68833 0.72665
 N370 N 0.18104 0.66798 0.72661
 N371 N 0.90905 0.59171 0.27515
 C372 C 0.89850 0.60221 0.24982
 N373 N 0.90903 0.59173 0.22449
 N374 N 0.92951 0.57134 0.22449
 C375 C 0.94012 0.56078 0.24982
 N376 N 0.92953 0.57133 0.27515
 C377 C 0.87646 0.62412 0.24981
 C378 C 0.85793 0.64253 0.24982
 C379 C 0.83590 0.66444 0.24985
 N380 N 0.83189 0.68155 0.22630
 N381 N 0.81142 0.70193 0.22633
 C382 C 0.79427 0.70586 0.24991
 N383 N 0.79835 0.68867 0.27346
 N384 N 0.81883 0.66830 0.27343
 N385 N 0.09142 0.27528 0.59103
 C386 C 0.10197 0.24991 0.60153
 N387 N 0.09150 0.22456 0.59102
 N388 N 0.07109 0.22456 0.57061
 C389 C 0.06047 0.24993 0.56004
 N390 N 0.07100 0.27529 0.57062
 C391 C 0.12394 0.24989 0.62350
 C392 C 0.14239 0.24987 0.64197
 C393 C 0.16435 0.24983 0.66395
 N394 N 0.16834 0.22618 0.68096
 N395 N 0.18874 0.22614 0.70137
 C396 C 0.20584 0.24974 0.70544
 N397 N 0.20179 0.27339 0.68835
 N398 N 0.18137 0.27343 0.66795
 N399 N 0.90867 0.77546 0.59112
 C400 C 0.89816 0.75011 0.60165
 N401 N 0.90869 0.72474 0.59118
 N402 N 0.92912 0.72471 0.57079
 C403 C 0.93969 0.75006 0.56020
 N404 N 0.92910 0.77543 0.57073
 C405 C 0.87618 0.75014 0.62360
 C406 C 0.85771 0.75016 0.64205
 C407 C 0.83576 0.75019 0.66402
 N408 N 0.81910 0.72640 0.66839
 N409 N 0.79871 0.72642 0.68881
 C410 C 0.79430 0.75023 0.70556
 N411 N 0.81105 0.77402 0.70111
 N412 N 0.83143 0.77401 0.68067
 N413 N 0.09124 0.77519 0.40872
 C414 C 0.10173 0.74981 0.39823
 N415 N 0.09122 0.72447 0.40877
 N416 N 0.07082 0.72450 0.42919
 C417 C 0.06026 0.74988 0.43974
 N418 N 0.07083 0.77522 0.42914
 C419 C 0.12369 0.74977 0.37625
 C420 C 0.14213 0.74976 0.35778
 C421 C 0.16409 0.74976 0.33581
 N422 N 0.15666 0.75067 0.30742
 N423 N 0.17706 0.75069 0.28700
 C424 C 0.20556 0.74977 0.29431
 N425 N 0.21291 0.74884 0.32278
 N426 N 0.19251 0.74885 0.34319
 N427 N 0.90886 0.22455 0.40868
 C428 C 0.89829 0.24991 0.39817
 N429 N 0.90878 0.27527 0.40864
 N430 N 0.92922 0.27529 0.42902
 C431 C 0.93985 0.24993 0.43960
 N432 N 0.92930 0.22456 0.42906
 C433 C 0.87629 0.24989 0.37623
 C434 C 0.85780 0.24990 0.35780
 C435 C 0.83581 0.24991 0.33585
 N436 N 0.81879 0.27356 0.33185
 N437 N 0.79837 0.27359 0.31146
 C438 C 0.79431 0.24996 0.29438
 N439 N 0.81141 0.22632 0.29845
 N440 N 0.83182 0.22629 0.31886
 N441 N 0.22476 0.40803 0.90908
 C442 C 0.25010 0.39753 0.89853
 N443 N 0.27544 0.40799 0.90905
 N444 N 0.27545 0.42836 0.92951
 C445 C 0.25011 0.43893 0.94012
 N446 N 0.22476 0.42840 0.92954
 C447 C 0.25009 0.37562 0.87650
 C448 C 0.25010 0.35723 0.85798
 C449 C 0.25012 0.33533 0.83594
 N450 N 0.27371 0.33144 0.81887
 N451 N 0.27374 0.31110 0.79840
 C452 C 0.25017 0.29397 0.79432
 N453 N 0.22658 0.29792 0.81146
 N454 N 0.22656 0.31828 0.83192
 N455 N 0.72464 0.40880 0.09109
 C456 C 0.75003 0.39832 0.10156
 N457 N 0.77533 0.40887 0.09101
 N458 N 0.77524 0.42931 0.07060
 C459 C 0.74985 0.43986 0.06007
 N460 N 0.72455 0.42924 0.07068
 C461 C 0.75010 0.37634 0.12353
 C462 C 0.75012 0.35788 0.14200
 C463 C 0.75009 0.33592 0.16398
 N464 N 0.77366 0.31879 0.16796
 N465 N 0.77362 0.29836 0.18838
 C466 C 0.75002 0.29442 0.20550
 N467 N 0.72646 0.31163 0.20145
 N468 N 0.72650 0.33203 0.18102
 N469 N 0.72352 0.59146 0.90870
 C470 C 0.74878 0.60202 0.89809
 N471 N 0.77420 0.59158 0.90851
 N472 N 0.77436 0.57118 0.92896
 C473 C 0.74910 0.56055 0.93964
 N474 N 0.72367 0.57106 0.92915
 C475 C 0.74863 0.62390 0.87601
 C476 C 0.74854 0.64224 0.85743
 C477 C 0.74850 0.66401 0.83526
 N478 N 0.73996 0.65737 0.80796
 N479 N 0.74010 0.67755 0.78731
 C480 C 0.74891 0.70498 0.79327
 N481 N 0.75725 0.71164 0.82066
 N482 N 0.75710 0.69145 0.84132
 N483 N 0.22474 0.59062 0.09149
 C484 C 0.25008 0.60116 0.10195
 N485 N 0.27543 0.59062 0.09145
 N486 N 0.27544 0.57015 0.07109
 C487 C 0.25010 0.55955 0.06057
 N488 N 0.22475 0.57015 0.07114
 C489 C 0.25007 0.62319 0.12385
 C490 C 0.25007 0.64171 0.14226
 C491 C 0.25007 0.66373 0.16417
 N492 N 0.25092 0.65636 0.19259
 N493 N 0.25091 0.67681 0.21295
 C494 C 0.25003 0.70532 0.20557
 N495 N 0.24917 0.71262 0.17707
 N496 N 0.24921 0.69216 0.15672
 N497 N 0.40926 0.09071 0.77533
 C498 C 0.39879 0.10117 0.74996
 N499 N 0.40936 0.09059 0.72469
 N500 N 0.42980 0.07015 0.72478
 C501 C 0.44037 0.05960 0.75017
 N502 N 0.42970 0.07028 0.77545
 C503 C 0.37677 0.12316 0.74986
 C504 C 0.35828 0.14164 0.74981
 C505 C 0.33626 0.16362 0.74980
 N506 N 0.33227 0.18070 0.72622
 N507 N 0.31184 0.20114 0.72622
 C508 C 0.29471 0.20516 0.74980
 N509 N 0.29877 0.18800 0.77339
 N510 N 0.31922 0.16758 0.77338
 N511 N 0.40823 0.90907 0.27518
 C512 C 0.39778 0.89855 0.24984
 N513 N 0.40828 0.90912 0.22452
 N514 N 0.42862 0.92960 0.22454
 C515 C 0.43914 0.94018 0.24989
 N516 N 0.42858 0.92955 0.27521
 C517 C 0.37589 0.87650 0.24981
 C518 C 0.35750 0.85797 0.24980
 C519 C 0.33560 0.83593 0.24980
 N520 N 0.30716 0.84328 0.24896
 N521 N 0.28682 0.82281 0.24896
 C522 C 0.29425 0.79431 0.24983
 N523 N 0.32277 0.78703 0.25069
 N524 N 0.34310 0.80751 0.25066
 N525 N 0.59069 0.09169 0.22469
 C526 C 0.60123 0.10214 0.25002
 N527 N 0.59070 0.09163 0.27534
 N528 N 0.57023 0.07127 0.27533
 C529 C 0.55963 0.06075 0.25000
 N530 N 0.57023 0.07132 0.22467
 C531 C 0.62327 0.12404 0.25002
 C532 C 0.64180 0.14243 0.25002
 C533 C 0.66384 0.16432 0.25002
 N534 N 0.66782 0.18140 0.27357
 N535 N 0.68828 0.20176 0.27355
 C536 C 0.70544 0.20570 0.24999
 N537 N 0.70140 0.18854 0.22643
 N538 N 0.68092 0.16820 0.22645
 N539 N 0.59100 0.90888 0.72580
 C540 C 0.60146 0.89845 0.75119
 N541 N 0.59084 0.90902 0.77645
 N542 N 0.57037 0.92943 0.77632
 C543 C 0.55985 0.93994 0.75092
 N544 N 0.57053 0.92929 0.72566
 C545 C 0.62357 0.87655 0.75133
 C546 C 0.64218 0.85820 0.75140
 C547 C 0.66440 0.83642 0.75140
 N548 N 0.65810 0.80871 0.74394
 N549 N 0.67878 0.78852 0.74376
 C550 C 0.70645 0.79544 0.75094
 N551 N 0.71265 0.82315 0.75863
 N552 N 0.69197 0.84334 0.75879
 N553 N 0.72525 0.90916 0.59103
 C554 C 0.75064 0.89866 0.60149
 N555 N 0.77591 0.90918 0.59085
 N556 N 0.77581 0.92958 0.57037
 C557 C 0.75041 0.94018 0.55982
 N558 N 0.72513 0.92955 0.57055
 C559 C 0.75076 0.87675 0.62363
 C560 C 0.75084 0.85839 0.64226
 C561 C 0.75089 0.83657 0.66450
 N562 N 0.74573 0.80842 0.65781
 N563 N 0.74566 0.78821 0.67847
 C564 C 0.75066 0.79551 0.70652
 N565 N 0.75602 0.82369 0.71312
 N566 N 0.75607 0.84389 0.69246
 N567 N 0.22491 0.40896 0.09068
 C568 C 0.25026 0.39843 0.10119
 N569 N 0.27558 0.40893 0.09065
 N570 N 0.27556 0.42935 0.07021
 C571 C 0.25020 0.43997 0.05960
 N572 N 0.22487 0.42938 0.07024
 C573 C 0.25029 0.37646 0.12322
 C574 C 0.25032 0.35800 0.14173
 C575 C 0.25035 0.33603 0.16376
 N576 N 0.27399 0.33198 0.18072
 N577 N 0.27402 0.31159 0.20118
 C578 C 0.25039 0.29455 0.20535
 N579 N 0.22674 0.29867 0.18831
 N580 N 0.22672 0.31907 0.16786
 N581 N 0.22488 0.09072 0.59063
 C582 C 0.25022 0.10118 0.60117
 N583 N 0.27554 0.09058 0.59066
 N584 N 0.27553 0.07016 0.57024
 C585 C 0.25018 0.05960 0.55961
 N586 N 0.22485 0.07030 0.57021
 C587 C 0.25024 0.12321 0.62319
 C588 C 0.25026 0.14169 0.64169
 C589 C 0.25029 0.16369 0.66373
 N590 N 0.24972 0.15625 0.69214
 N591 N 0.24972 0.17664 0.71258
 C592 C 0.25030 0.20519 0.70531
 N593 N 0.25088 0.21257 0.67682
 N594 N 0.25087 0.19216 0.65638
 N595 N 0.22464 0.90893 0.40902
 C596 C 0.24996 0.89834 0.39849
 N597 N 0.27531 0.90880 0.40902
 N598 N 0.27535 0.92922 0.42944
 C599 C 0.25002 0.93988 0.44003
 N600 N 0.22467 0.92935 0.42944
 C601 C 0.24993 0.87632 0.37646
 C602 C 0.24991 0.85784 0.35796
 C603 C 0.24992 0.83582 0.33593
 N604 N 0.27362 0.81894 0.33172
 N605 N 0.27362 0.79852 0.31131
 C606 C 0.24992 0.79429 0.29438
 N607 N 0.22621 0.81126 0.29865
 N608 N 0.22621 0.83167 0.31909
 N609 N 0.77514 0.09096 0.40913
 C610 C 0.74978 0.10150 0.39864
 N611 N 0.72447 0.09098 0.40922
 N612 N 0.72452 0.07054 0.42966
 C613 C 0.74989 0.05993 0.44020
 N614 N 0.77520 0.07052 0.42956
 C615 C 0.74973 0.12352 0.37661
 C616 C 0.74972 0.14201 0.35810
 C617 C 0.74973 0.16402 0.33607
 N618 N 0.74915 0.19249 0.34340
 N619 N 0.74919 0.21291 0.32296
 C620 C 0.74982 0.20556 0.29448
 N621 N 0.75041 0.17702 0.28721
 N622 N 0.75036 0.15660 0.30766
 N623 N 0.59069 0.77548 0.90915
 C624 C 0.60130 0.75013 0.89867
 N625 N 0.59085 0.72477 0.90924
 N626 N 0.57044 0.72475 0.92966
 C627 C 0.55974 0.75010 0.94024
 N628 N 0.57028 0.77546 0.92958
 C629 C 0.62332 0.75015 0.87664
 C630 C 0.64180 0.75016 0.85814
 C631 C 0.66379 0.75017 0.83610
 N632 N 0.66844 0.72623 0.81970
 N633 N 0.68883 0.72624 0.79926
 C634 C 0.70531 0.75018 0.79451
 N635 N 0.70058 0.77411 0.81101
 N636 N 0.68018 0.77411 0.83144
 N637 N 0.09138 0.27541 0.40853
 C638 C 0.10195 0.25006 0.39803
 N639 N 0.09149 0.22469 0.40855
 N640 N 0.07108 0.22467 0.42896
 C641 C 0.06045 0.25002 0.43953
 N642 N 0.07097 0.27539 0.42894
 C643 C 0.12393 0.25009 0.37606
 C644 C 0.14240 0.25012 0.35760
 C645 C 0.16439 0.25014 0.33565
 N646 N 0.16847 0.22650 0.31868
 N647 N 0.18889 0.22651 0.29829
 C648 C 0.20594 0.25015 0.29420
 N649 N 0.20179 0.27380 0.31125
 N650 N 0.18135 0.27379 0.33162
 N651 N 0.59096 0.27534 0.09064
 C652 C 0.60152 0.25001 0.10121
 N653 N 0.59105 0.22464 0.09073
 N654 N 0.57064 0.22460 0.07030
 C655 C 0.55997 0.24994 0.05962
 N656 N 0.57055 0.27532 0.07020
 C657 C 0.62353 0.25004 0.12325
 C658 C 0.64201 0.25005 0.14176
 C659 C 0.66400 0.25008 0.16381
 N660 N 0.65657 0.25073 0.19222
 N661 N 0.67696 0.25074 0.21267
 C662 C 0.70549 0.25008 0.20541
 N663 N 0.71284 0.24942 0.17692
 N664 N 0.69245 0.24943 0.15648
 N665 N 0.40940 0.22428 0.90897
 C666 C 0.39882 0.24961 0.89840
 N667 N 0.40928 0.27499 0.90889
 N668 N 0.42969 0.27504 0.92932
 C669 C 0.44034 0.24970 0.93996
 N670 N 0.42982 0.22432 0.92940
 C671 C 0.37680 0.24956 0.87637
 C672 C 0.35831 0.24954 0.85788
 C673 C 0.33629 0.24952 0.83586
 N674 N 0.30786 0.24888 0.84323
 N675 N 0.28743 0.24888 0.82282
 C676 C 0.29474 0.24954 0.79432
 N677 N 0.32326 0.25018 0.78702
 N678 N 0.34367 0.25016 0.80744
 N679 N 0.40898 0.77525 0.09084
 C680 C 0.39853 0.74988 0.10139
 N681 N 0.40914 0.72454 0.09089
 N682 N 0.42957 0.72457 0.07048
 C683 C 0.44009 0.74994 0.05986
 N684 N 0.42941 0.77529 0.07043
 C685 C 0.37650 0.74984 0.12340
 C686 C 0.35801 0.74982 0.14189
 C687 C 0.33599 0.74982 0.16390
 N688 N 0.33188 0.72613 0.18081
 N689 N 0.31146 0.72612 0.20123
 C690 C 0.29444 0.74981 0.20542
 N691 N 0.29862 0.77351 0.18843
 N692 N 0.31904 0.77351 0.16802
 N693 N 0.90894 0.59096 0.77462
 C694 C 0.89847 0.60148 0.74926
 N695 N 0.90910 0.59093 0.72398
 N696 N 0.92956 0.57050 0.72407
 C697 C 0.94012 0.55988 0.74944
 N698 N 0.92940 0.57052 0.77472
 C699 C 0.87633 0.62345 0.74916
 C700 C 0.85771 0.64186 0.74909
 C701 C 0.83547 0.66372 0.74904
 N702 N 0.84232 0.69201 0.75322
 N703 N 0.82167 0.71225 0.75327
 C704 C 0.79347 0.70489 0.74921
 N705 N 0.78671 0.67657 0.74487
 N706 N 0.80735 0.65633 0.74483
 N707 N 0.40916 0.09085 0.27528
 C708 C 0.39867 0.10142 0.24995
 N709 N 0.40918 0.09091 0.22463
 N710 N 0.42959 0.07044 0.22463
 C711 C 0.44018 0.05978 0.24996
 N712 N 0.42956 0.07038 0.27529
 C713 C 0.37671 0.12346 0.24995
 C714 C 0.35826 0.14198 0.24994
 C715 C 0.33630 0.16401 0.24994
 N716 N 0.33231 0.18103 0.27353
 N717 N 0.31191 0.20151 0.27352
 C718 C 0.29482 0.20561 0.24992
 N719 N 0.29888 0.18851 0.22632
 N720 N 0.31929 0.16805 0.22634
 N721 N 0.09076 0.59081 0.22449
 C722 C 0.10130 0.60131 0.24981
 N723 N 0.09077 0.59078 0.27513
 N724 N 0.07033 0.57037 0.27514
 C725 C 0.05969 0.55978 0.24981
 N726 N 0.07032 0.57041 0.22448
 C727 C 0.12335 0.62331 0.24980
 C728 C 0.14186 0.64178 0.24981
 C729 C 0.16390 0.66378 0.24984
 N730 N 0.18076 0.66791 0.27353
 N731 N 0.20120 0.68830 0.27356
 C732 C 0.20547 0.70529 0.24989
 N733 N 0.18853 0.70110 0.22619
 N734 N 0.16810 0.68069 0.22617
 N735 N 0.90911 0.40902 0.27517
 C736 C 0.89857 0.39852 0.24985
 N737 N 0.90907 0.40908 0.22452
 N738 N 0.92948 0.42951 0.22451
 C739 C 0.94009 0.44008 0.24984
 N740 N 0.92952 0.42946 0.27516
 C741 C 0.87655 0.37649 0.24985
 C742 C 0.85806 0.35800 0.24987
 C743 C 0.83603 0.33599 0.24989
 N744 N 0.80759 0.34342 0.25044
 N745 N 0.78716 0.32302 0.25047
 C746 C 0.79446 0.29447 0.24993
 N747 N 0.82297 0.28711 0.24937
 N748 N 0.84340 0.30752 0.24936
 N749 N 0.09093 0.40891 0.72461
 C750 C 0.10143 0.39836 0.74996
 N751 N 0.09084 0.40889 0.77526
 N752 N 0.07040 0.42935 0.77522
 C753 C 0.05984 0.43996 0.74987
 N754 N 0.07048 0.42936 0.72456
 C755 C 0.12349 0.37631 0.75000
 C756 C 0.14201 0.35779 0.75000
 C757 C 0.16407 0.33575 0.74999
 N758 N 0.15673 0.30729 0.75049
 N759 N 0.17717 0.28685 0.75046
 C760 C 0.20568 0.29417 0.74992
 N761 N 0.21295 0.32271 0.74941
 N762 N 0.19250 0.34314 0.74946
 N763 N 0.90872 0.72466 0.40876
 C764 C 0.89819 0.75003 0.39823
 N765 N 0.90869 0.77538 0.40872
 N766 N 0.92911 0.77538 0.42912
 C767 C 0.93971 0.75001 0.43972
 N768 N 0.92914 0.72465 0.42917
 C769 C 0.87621 0.75004 0.37627
 C770 C 0.85774 0.75006 0.35781
 C771 C 0.83576 0.75010 0.33585
 N772 N 0.80734 0.74927 0.34325
 N773 N 0.78692 0.74930 0.32286
 C774 C 0.79424 0.75018 0.29438
 N775 N 0.82273 0.75102 0.28705
 N776 N 0.84315 0.75098 0.30745
 N777 N 0.90887 0.27524 0.59107
 C778 C 0.89839 0.24988 0.60158
 N779 N 0.90894 0.22452 0.59107
 N780 N 0.92935 0.22453 0.57067
 C781 C 0.93990 0.24990 0.56009
 N782 N 0.92929 0.27526 0.57066
 C783 C 0.87641 0.24986 0.62355
 C784 C 0.85795 0.24987 0.64201
 C785 C 0.83597 0.24989 0.66398
 N786 N 0.83201 0.22628 0.68103
 N787 N 0.81161 0.22631 0.70145
 C788 C 0.79448 0.24994 0.70548
 N789 N 0.79851 0.27355 0.68834
 N790 N 0.81893 0.27352 0.66794
 N791 N 0.09122 0.77526 0.59126
 C792 C 0.10172 0.74989 0.60181
 N793 N 0.09121 0.72454 0.59132
 N794 N 0.07081 0.72456 0.57089
 C795 C 0.06025 0.74993 0.56027
 N796 N 0.07082 0.77528 0.57083
 C797 C 0.12367 0.74987 0.62380
 C798 C 0.14211 0.74987 0.64229
 C799 C 0.16406 0.74989 0.66429
 N800 N 0.15661 0.75068 0.69268
 N801 N 0.17699 0.75069 0.71312
 C802 C 0.20550 0.74989 0.70583
 N803 N 0.21287 0.74909 0.67736
 N804 N 0.19249 0.74910 0.65693
 N805 N 0.72428 0.59144 0.09122
 C806 C 0.74963 0.60197 0.10164
 N807 N 0.77496 0.59148 0.09105
 N808 N 0.77494 0.57108 0.07063
 C809 C 0.74958 0.56048 0.06014
 N810 N 0.72425 0.57103 0.07080
 C811 C 0.74966 0.62394 0.12362
 C812 C 0.74970 0.64240 0.14209
 C813 C 0.74977 0.66437 0.16406
 N814 N 0.74904 0.65693 0.19246
 N815 N 0.74907 0.67733 0.21288
 C816 C 0.74985 0.70586 0.20556
 N817 N 0.75060 0.71322 0.17708
 N818 N 0.75055 0.69281 0.15667
 N819 N 0.22463 0.59062 0.90909
 C820 C 0.24995 0.60115 0.89857
 N821 N 0.27531 0.59062 0.90907
 N822 N 0.27534 0.57017 0.92948
 C823 C 0.25002 0.55958 0.94007
 N824 N 0.22466 0.57018 0.92950
 C825 C 0.24992 0.62317 0.87658
 C826 C 0.24990 0.64167 0.85812
 C827 C 0.24990 0.66370 0.83616
 N828 N 0.25059 0.65633 0.80774
 N829 N 0.25059 0.67678 0.78734
 C830 C 0.24989 0.70530 0.79468
 N831 N 0.24919 0.71260 0.82317
 N832 N 0.24920 0.69214 0.84356
 N833 N 0.72434 0.40890 0.90862
 C834 C 0.74970 0.39847 0.89805
 N835 N 0.77502 0.40905 0.90850
 N836 N 0.77499 0.42945 0.92893
 C837 C 0.74962 0.43995 0.93957
 N838 N 0.72430 0.42930 0.92904
 C839 C 0.74975 0.37650 0.87607
 C840 C 0.74981 0.35804 0.85760
 C841 C 0.74988 0.33606 0.83564
 N842 N 0.77358 0.31913 0.83160
 N843 N 0.77364 0.29868 0.81123
 C844 C 0.75001 0.29451 0.79420
 N845 N 0.72632 0.31152 0.79830
 N846 N 0.72626 0.33195 0.81869
 N847 N 0.59072 0.90917 0.22464
 C848 C 0.60124 0.89864 0.24997
 N849 N 0.59071 0.90913 0.27530
 N850 N 0.57026 0.92956 0.27530
 C851 C 0.55967 0.94016 0.24997
 N852 N 0.57027 0.92960 0.22464
 C853 C 0.62325 0.87665 0.24997
 C854 C 0.64175 0.85819 0.24999
 C855 C 0.66376 0.83621 0.25002
 N856 N 0.65640 0.80776 0.25075
 N857 N 0.67684 0.78734 0.25077
 C858 C 0.70533 0.79469 0.25004
 N859 N 0.71262 0.82321 0.24930
 N860 N 0.69217 0.84363 0.24930
 N861 N 0.59105 0.09132 0.72502
 C862 C 0.60154 0.10188 0.75032
 N863 N 0.59094 0.09150 0.77567
 N864 N 0.57046 0.07116 0.77572
 C865 C 0.55990 0.06053 0.75041
 N866 N 0.57057 0.07098 0.72506
 C867 C 0.62361 0.12377 0.75027
 C868 C 0.64213 0.14217 0.75022
 C869 C 0.66417 0.16408 0.75014
 N870 N 0.68121 0.16807 0.77372
 N871 N 0.70166 0.18843 0.77367
 C872 C 0.70574 0.20550 0.75003
 N873 N 0.68862 0.20144 0.72645
 N874 N 0.66819 0.18106 0.72650
 N875 N 0.40843 0.90893 0.72519
 C876 C 0.39788 0.89845 0.75052
 N877 N 0.40829 0.90903 0.77584
 N878 N 0.42867 0.92949 0.77585
 C879 C 0.43929 0.94003 0.75052
 N880 N 0.42881 0.92939 0.72519
 C881 C 0.37596 0.87642 0.75050
 C882 C 0.35754 0.85791 0.75048
 C883 C 0.33562 0.83589 0.75045
 N884 N 0.34309 0.80746 0.74962
 N885 N 0.32272 0.78701 0.74957
 C886 C 0.29421 0.79431 0.75037
 N887 N 0.28681 0.82282 0.75121
 N888 N 0.30718 0.84327 0.75124
   
