data_POSCAR
  _audit_creation_date              2014-09-24
  _audit_creation_method            'ToBaCCo'
  _symmetry_space_group_name_H-M    'P1'
  _symmetry_Int_Tables_number       1
  _symmetry_cell_setting            triclinic
  loop_
  _symmetry_equiv_pos_as_xyz
 x,y,z
_cell_length_a 67.8244
_cell_length_b 67.4588
_cell_length_c 67.7330
_cell_angle_alpha 89.950400
_cell_angle_beta 89.991200
_cell_angle_gamma 90.037900
loop_
  _atom_site_label
  _atom_site_type_symbol
  _atom_site_fract_x
  _atom_site_fract_y
  _atom_site_fract_z
N1 N 0.60162 0.65641 0.61721
 N2 N 0.59355 0.64794 0.63270
 C3 C 0.57760 0.65846 0.63819
 C4 C 0.57554 0.67443 0.62545
 C5 C 0.59112 0.67260 0.61233
 H6 H 0.56827 0.65484 0.65060
 H7 H 0.59448 0.68217 0.59998
 Cu8 Cu 0.60468 0.62395 0.64415
 Cu9 Cu 0.62498 0.64572 0.60435
 Cu10 Cu 0.64536 0.60324 0.62469
 N11 N 0.61663 0.60045 0.65575
 N12 N 0.63243 0.59236 0.64798
 C13 C 0.63758 0.57639 0.65871
 C14 C 0.62431 0.57426 0.67422
 C15 C 0.61122 0.58993 0.67176
 H16 H 0.65018 0.56719 0.65543
 H17 H 0.59863 0.59347 0.68086
 N18 N 0.65630 0.61648 0.60116
 N19 N 0.64859 0.63268 0.59346
 C20 C 0.65935 0.63811 0.57765
 C21 C 0.67464 0.62470 0.57521
 C22 C 0.67218 0.61120 0.59045
 H23 H 0.65631 0.65097 0.56864
 H24 H 0.68121 0.59838 0.59349
 H25 H 0.62070 0.61659 0.61276
 H26 H 0.63639 0.63216 0.62927
 N27 N 0.89842 0.34253 0.11717
 N28 N 0.90656 0.35106 0.13255
 C29 C 0.92266 0.34068 0.13789
 C30 C 0.92476 0.32464 0.12518
 C31 C 0.90897 0.32641 0.11221
 H32 H 0.93201 0.34453 0.15020
 H33 H 0.90535 0.31684 0.09996
 Cu34 Cu 0.89517 0.37478 0.14423
 Cu35 Cu 0.87486 0.35304 0.10450
 Cu36 Cu 0.85444 0.39547 0.12486
 N37 N 0.88346 0.39849 0.15561
 N38 N 0.86753 0.40647 0.14798
 C39 C 0.86244 0.42247 0.15866
 C40 C 0.87591 0.42473 0.17390
 C41 C 0.88905 0.40918 0.17144
 H42 H 0.84975 0.43164 0.15559
 H43 H 0.90175 0.40585 0.18046
 N44 N 0.84336 0.38212 0.10149
 N45 N 0.85108 0.36593 0.09379
 C46 C 0.84029 0.36048 0.07802
 C47 C 0.82499 0.37388 0.07560
 C48 C 0.82746 0.38738 0.09081
 H49 H 0.84336 0.34767 0.06899
 H50 H 0.81846 0.40023 0.09381
 H51 H 0.87916 0.38220 0.11287
 H52 H 0.86347 0.36659 0.12936
 N53 N 0.39811 0.15652 -0.11709
 N54 N 0.40606 0.14817 -0.13269
 C55 C 0.42208 0.15865 -0.13812
 C56 C 0.42430 0.17447 -0.12524
 C57 C 0.40876 0.17258 -0.11208
 H58 H 0.43131 0.15514 -0.15063
 H59 H 0.40548 0.18206 -0.09966
 Cu60 Cu 0.39458 0.12448 -0.14438
 Cu61 Cu 0.37459 0.14595 -0.10435
 Cu62 Cu 0.35394 0.10369 -0.12490
 N63 N 0.38283 0.10081 -0.15581
 N64 N 0.36693 0.09278 -0.14812
 C65 C 0.36184 0.07677 -0.15880
 C66 C 0.37526 0.07456 -0.17409
 C67 C 0.38838 0.09015 -0.17166
 H68 H 0.34919 0.06755 -0.15567
 H69 H 0.40106 0.09350 -0.18072
 N70 N 0.34298 0.11694 -0.10140
 N71 N 0.35082 0.13302 -0.09361
 C72 C 0.34007 0.13845 -0.07780
 C73 C 0.32466 0.12515 -0.07546
 C74 C 0.32703 0.11171 -0.09075
 H75 H 0.34322 0.15122 -0.06872
 H76 H 0.31791 0.09897 -0.09386
 H77 H 0.37873 0.11687 -0.11297
 H78 H 0.36299 0.13262 -0.12925
 N79 N 0.10129 0.84239 0.38278
 N80 N 0.09297 0.85110 0.36757
 C81 C 0.07684 0.84075 0.36228
 C82 C 0.07490 0.82453 0.37482
 C83 C 0.09082 0.82617 0.38764
 H84 H 0.06738 0.84471 0.35009
 H85 H 0.09455 0.81646 0.39977
 Cu86 Cu 0.10428 0.87494 0.35597
 Cu87 Cu 0.12488 0.85290 0.39542
 Cu88 Cu 0.14510 0.89558 0.37526
 N89 N 0.11591 0.89877 0.34468
 N90 N 0.13188 0.90672 0.35226
 C91 C 0.13695 0.92277 0.34159
 C92 C 0.12342 0.92508 0.32641
 C93 C 0.11027 0.90952 0.32889
 H94 H 0.14969 0.93190 0.34459
 H95 H 0.09754 0.90622 0.31990
 N96 N 0.15630 0.88209 0.39850
 N97 N 0.14866 0.86581 0.40612
 C98 C 0.15952 0.86030 0.42184
 C99 C 0.17477 0.87376 0.42430
 C100 C 0.17220 0.88737 0.40918
 H101 H 0.15651 0.84741 0.43081
 H102 H 0.18113 0.90030 0.40623
 H103 H 0.12047 0.88212 0.38727
 H104 H 0.13609 0.86671 0.37055
 N105 N 0.10117 0.15694 0.11717
 N106 N 0.09279 0.14817 0.13233
 C107 C 0.07675 0.15861 0.13771
 C108 C 0.07498 0.17485 0.12529
 C109 C 0.09080 0.17327 0.11244
 H110 H 0.06719 0.15480 0.14990
 H111 H 0.09439 0.18311 0.10036
 Cu112 Cu 0.10371 0.12406 0.14372
 Cu113 Cu 0.12467 0.14639 0.10450
 Cu114 Cu 0.14507 0.10398 0.12487
 N115 N 0.11585 0.10069 0.15540
 N116 N 0.13202 0.09297 0.14801
 C117 C 0.13729 0.07715 0.15891
 C118 C 0.12370 0.07475 0.17403
 C119 C 0.11030 0.09003 0.17127
 H120 H 0.15018 0.06820 0.15608
 H121 H 0.09741 0.09315 0.18011
 N122 N 0.15613 0.11731 0.10146
 N123 N 0.14840 0.13348 0.09374
 C124 C 0.15916 0.13893 0.07793
 C125 C 0.17447 0.12555 0.07552
 C126 C 0.17203 0.11205 0.09077
 H127 H 0.15607 0.15174 0.06888
 H128 H 0.18104 0.09921 0.09380
 H129 H 0.12047 0.11714 0.11262
 H130 H 0.13566 0.13273 0.12960
 N131 N 0.39815 0.84269 0.61706
 N132 N 0.40604 0.85098 0.63272
 C133 C 0.42201 0.84047 0.63820
 C134 C 0.42427 0.82470 0.62528
 C135 C 0.40880 0.82663 0.61206
 H136 H 0.43120 0.84395 0.65076
 H137 H 0.40556 0.81720 0.59958
 Cu138 Cu 0.39458 0.87466 0.64441
 Cu139 Cu 0.37473 0.85332 0.60424
 Cu140 Cu 0.35411 0.89558 0.62476
 N141 N 0.38284 0.89834 0.65582
 N142 N 0.36702 0.90642 0.64806
 C143 C 0.36193 0.92244 0.65873
 C144 C 0.37527 0.92459 0.67409
 C145 C 0.38834 0.90896 0.67172
 H146 H 0.34934 0.93170 0.65555
 H147 H 0.40097 0.90558 0.68083
 N148 N 0.34322 0.88239 0.60120
 N149 N 0.35105 0.86630 0.59342
 C150 C 0.34033 0.86091 0.57757
 C151 C 0.32498 0.87425 0.57519
 C152 C 0.32734 0.88766 0.59050
 H153 H 0.34347 0.84815 0.56849
 H154 H 0.31824 0.90042 0.59359
 H155 H 0.37893 0.88239 0.61294
 H156 H 0.36305 0.86663 0.62911
 N157 N 0.89825 0.65681 0.38265
 N158 N 0.90613 0.64857 0.36694
 C159 C 0.92216 0.65905 0.36155
 C160 C 0.92445 0.67475 0.37455
 C161 C 0.90895 0.67281 0.38774
 H162 H 0.93137 0.65564 0.34899
 H163 H 0.90577 0.68219 0.40027
 Cu164 Cu 0.89452 0.62506 0.35502
 Cu165 Cu 0.87485 0.64609 0.39546
 Cu166 Cu 0.85439 0.60370 0.37501
 N167 N 0.88303 0.60112 0.34385
 N168 N 0.86734 0.59288 0.35173
 C169 C 0.86239 0.57674 0.34118
 C170 C 0.87569 0.57466 0.32577
 C171 C 0.88861 0.59046 0.32800
 H172 H 0.84991 0.56734 0.34446
 H173 H 0.90115 0.59396 0.31881
 N174 N 0.84344 0.61688 0.39855
 N175 N 0.85120 0.63303 0.40630
 C176 C 0.84046 0.63841 0.42213
 C177 C 0.82515 0.62501 0.42454
 C178 C 0.82756 0.61156 0.40926
 H179 H 0.84355 0.65121 0.43118
 H180 H 0.81851 0.59876 0.40620
 H181 H 0.87924 0.61708 0.38662
 H182 H 0.86304 0.63273 0.37068
 N183 N 0.60157 0.34305 -0.11719
 N184 N 0.59363 0.35141 -0.13279
 C185 C 0.57762 0.34093 -0.13823
 C186 C 0.57539 0.32510 -0.12534
 C187 C 0.59093 0.32697 -0.11218
 H188 H 0.56839 0.34446 -0.15074
 H189 H 0.59420 0.31748 -0.09975
 Cu190 Cu 0.60512 0.37512 -0.14449
 Cu191 Cu 0.62508 0.35360 -0.10445
 Cu192 Cu 0.64574 0.39590 -0.12499
 N193 N 0.61687 0.39881 -0.15592
 N194 N 0.63276 0.40684 -0.14822
 C195 C 0.63785 0.42287 -0.15891
 C196 C 0.62444 0.42508 -0.17421
 C197 C 0.61133 0.40948 -0.17178
 H198 H 0.65050 0.43209 -0.15580
 H199 H 0.59865 0.40615 -0.18084
 N200 N 0.65669 0.38261 -0.10148
 N201 N 0.64884 0.36651 -0.09369
 C202 C 0.65958 0.36107 -0.07787
 C203 C 0.67498 0.37437 -0.07552
 C204 C 0.67262 0.38783 -0.09082
 H205 H 0.65642 0.34829 -0.06879
 H206 H 0.68174 0.40058 -0.09392
 H207 H 0.62095 0.38271 -0.11307
 H208 H 0.63671 0.36698 -0.12934
 C209 C -0.03078 0.28028 0.12580
 C210 C -0.03027 0.29598 0.13936
 C211 C -0.04491 0.31055 0.13921
 C212 C -0.06045 0.30990 0.12539
 C213 C -0.06081 0.29408 0.11178
 C214 C -0.04622 0.27947 0.11204
 C215 C -0.01523 0.26481 0.12597
 C216 C -0.02019 0.24471 0.12370
 C217 C -0.00554 0.23015 0.12380
 C218 C 0.01439 0.23538 0.12606
 C219 C 0.01934 0.25548 0.12832
 C220 C 0.00469 0.27003 0.12833
 C221 C 0.02996 0.21993 0.12597
 C222 C 0.04765 0.22296 0.11561
 C223 C 0.06224 0.20835 0.11538
 C224 C 0.05952 0.19039 0.12559
 C225 C 0.04184 0.18742 0.13603
 C226 C 0.02721 0.20200 0.13618
 H227 H -0.01865 0.29687 0.15029
 H228 H -0.04381 0.32229 0.15000
 H229 H -0.07233 0.29275 0.10084
 H230 H -0.04687 0.26765 0.10125
 H231 H -0.03544 0.24023 0.12203
 H232 H -0.00979 0.21480 0.12184
 H233 H 0.03456 0.25994 0.13028
 H234 H 0.00896 0.28542 0.12993
 H235 H 0.05010 0.23656 0.10746
 H236 H 0.07569 0.21123 0.10729
 H237 H 0.03915 0.17376 0.14396
 H238 H 0.01381 0.19933 0.14445
 C239 C 0.53035 0.71942 0.62597
 C240 C 0.52835 0.70220 0.63747
 C241 C 0.54301 0.68765 0.63736
 C242 C 0.56001 0.68995 0.62568
 C243 C 0.56199 0.70720 0.61418
 C244 C 0.54735 0.72177 0.61434
 C245 C 0.51475 0.73486 0.62604
 C246 C 0.51976 0.75508 0.62625
 C247 C 0.50508 0.76961 0.62626
 C248 C 0.48505 0.76425 0.62602
 C249 C 0.48004 0.74403 0.62581
 C250 C 0.49472 0.72951 0.62585
 C251 C 0.46945 0.77970 0.62590
 C252 C 0.45266 0.77755 0.61395
 C253 C 0.43803 0.79213 0.61375
 C254 C 0.43981 0.80919 0.62553
 C255 C 0.45660 0.81129 0.63752
 C256 C 0.47125 0.79673 0.63769
 H257 H 0.51552 0.70007 0.64676
 H258 H 0.54087 0.67456 0.64633
 H259 H 0.57488 0.70959 0.60509
 H260 H 0.54922 0.73477 0.60514
 H261 H 0.53506 0.75968 0.62660
 H262 H 0.50941 0.78506 0.62622
 H263 H 0.46474 0.73943 0.62582
 H264 H 0.49039 0.71406 0.62548
 H265 H 0.45095 0.76471 0.60453
 H266 H 0.42530 0.78988 0.60441
 H267 H 0.45859 0.82423 0.64673
 H268 H 0.48392 0.79870 0.64722
 C269 C 1.03045 0.78010 0.37417
 C270 C 1.02957 0.79619 0.36106
 C271 C 1.04422 0.81077 0.36120
 C272 C 1.06012 0.80975 0.37459
 C273 C 1.06084 0.79354 0.38775
 C274 C 1.04625 0.77891 0.38747
 C275 C 1.01489 0.76462 0.37401
 C276 C 1.01991 0.74446 0.37539
 C277 C 1.00525 0.72989 0.37530
 C278 C 0.98525 0.73517 0.37397
 C279 C 0.98024 0.75534 0.37260
 C280 C 0.99491 0.76990 0.37255
 C281 C 0.96968 0.71971 0.37408
 C282 C 0.95240 0.72232 0.38522
 C283 C 0.93776 0.70773 0.38541
 C284 C 0.94002 0.69023 0.37438
 C285 C 0.95730 0.68766 0.36319
 C286 C 0.97198 0.70221 0.36309
 H287 H 1.01764 0.79738 0.35050
 H288 H 1.04283 0.82283 0.35079
 H289 H 1.07267 0.79191 0.39832
 H290 H 1.04720 0.76676 0.39789
 H291 H 1.03520 0.73995 0.37633
 H292 H 1.00954 0.71448 0.37654
 H293 H 0.96497 0.75984 0.37137
 H294 H 0.99061 0.78533 0.37163
 H295 H 0.95031 0.73556 0.39399
 H296 H 0.92463 0.71030 0.39410
 H297 H 0.95963 0.67435 0.35462
 H298 H 0.98506 0.69988 0.35423
 C299 C 0.46948 0.21953 -0.12587
 C300 C 0.45259 0.22173 -0.11406
 C301 C 0.43797 0.20713 -0.11385
 C302 C 0.43985 0.18998 -0.12548
 C303 C 0.45674 0.18781 -0.13732
 C304 C 0.47139 0.20239 -0.13749
 C305 C 0.48504 0.23502 -0.12602
 C306 C 0.50508 0.22974 -0.12606
 C307 C 0.51973 0.24432 -0.12605
 C308 C 0.51467 0.26452 -0.12605
 C309 C 0.49462 0.26981 -0.12608
 C310 C 0.47998 0.25522 -0.12605
 C311 C 0.53023 0.28002 -0.12593
 C312 C 0.52832 0.29716 -0.13757
 C313 C 0.54296 0.31175 -0.13742
 C314 C 0.55985 0.30958 -0.12558
 C315 C 0.56174 0.29242 -0.11393
 C316 C 0.54711 0.27781 -0.11412
 H317 H 0.45080 0.23465 -0.10476
 H318 H 0.42516 0.20943 -0.10463
 H319 H 0.45881 0.17479 -0.14640
 H320 H 0.48413 0.20036 -0.14691
 H321 H 0.50945 0.21430 -0.12583
 H322 H 0.53504 0.23978 -0.12623
 H323 H 0.49025 0.28524 -0.12589
 H324 H 0.46467 0.25976 -0.12622
 H325 H 0.51557 0.29919 -0.14699
 H326 H 0.54089 0.32477 -0.14651
 H327 H 0.57454 0.29012 -0.10470
 H328 H 0.54891 0.26488 -0.10481
 C329 C 0.12316 -0.03008 0.28088
 C330 C 0.10977 -0.04596 0.28024
 C331 C 0.10982 -0.06045 0.29500
 C332 C 0.12326 -0.05942 0.31079
 C333 C 0.13660 -0.04346 0.31143
 C334 C 0.13656 -0.02899 0.29665
 C335 C 0.12320 -0.01475 0.26513
 C336 C 0.14107 -0.00736 0.25761
 C337 C 0.14112 0.00708 0.24281
 C338 C 0.12331 0.01449 0.23522
 C339 C 0.10543 0.00710 0.24273
 C340 C 0.10538 -0.00738 0.25750
 C341 C 0.12337 0.02990 0.21954
 C342 C 0.10998 0.04576 0.22017
 C343 C 0.11008 0.06029 0.20545
 C344 C 0.12357 0.05930 0.18970
 C345 C 0.13695 0.04339 0.18909
 C346 C 0.13686 0.02888 0.20383
 H347 H 0.09943 -0.04735 0.26814
 H348 H 0.09940 -0.07253 0.29383
 H349 H 0.14706 -0.04198 0.32338
 H350 H 0.14688 -0.01678 0.29771
 H351 H 0.15504 -0.01290 0.26303
 H352 H 0.15513 0.01261 0.23745
 H353 H 0.09147 0.01236 0.23703
 H354 H 0.09138 -0.01266 0.26311
 H355 H 0.09959 0.04710 0.23224
 H356 H 0.09966 0.07235 0.20660
 H357 H 0.14746 0.04195 0.17717
 H358 H 0.14718 0.01669 0.20279
 C359 C 0.62410 0.53014 -0.28091
 C360 C 0.63822 0.52972 -0.29606
 C361 C 0.63831 0.54421 -0.31081
 C362 C 0.62421 0.55958 -0.31088
 C363 C 0.61004 0.55987 -0.29564
 C364 C 0.61002 0.54539 -0.28088
 C365 C 0.62408 0.51476 -0.26519
 C366 C 0.60624 0.50687 -0.25808
 C367 C 0.60624 0.49240 -0.24331
 C368 C 0.62406 0.48547 -0.23529
 C369 C 0.64190 0.49335 -0.24240
 C370 C 0.64190 0.50782 -0.25717
 C371 C 0.62408 0.47007 -0.21960
 C372 C 0.63727 0.47130 -0.20366
 C373 C 0.63736 0.45676 -0.18894
 C374 C 0.62426 0.44061 -0.18980
 C375 C 0.61103 0.43943 -0.20575
 C376 C 0.61094 0.45398 -0.22046
 H377 H 0.64909 0.51799 -0.29667
 H378 H 0.64946 0.54310 -0.32215
 H379 H 0.59893 0.57132 -0.29483
 H380 H 0.59911 0.54630 -0.26924
 H381 H 0.59227 0.51174 -0.26410
 H382 H 0.59225 0.48677 -0.23801
 H383 H 0.65588 0.48816 -0.23669
 H384 H 0.65589 0.51374 -0.26216
 H385 H 0.64738 0.48366 -0.20241
 H386 H 0.64765 0.45836 -0.17687
 H387 H 0.60081 0.42721 -0.20709
 H388 H 0.60077 0.45246 -0.23269
 C389 C 0.37563 1.02957 0.78059
 C390 C 0.36200 1.02869 0.79618
 C391 C 0.36191 1.04322 0.81088
 C392 C 0.37544 1.05903 0.81034
 C393 C 0.38910 1.05986 0.79472
 C394 C 0.38920 1.04530 0.78005
 C395 C 0.37565 1.01418 0.76494
 C396 C 0.39349 1.00659 0.75758
 C397 C 0.39348 0.99210 0.74285
 C398 C 0.37563 0.98490 0.73511
 C399 C 0.35780 0.99251 0.74245
 C400 C 0.35780 1.00697 0.75721
 C401 C 0.37561 0.96952 0.71945
 C402 C 0.36236 0.97070 0.70356
 C403 C 0.36228 0.95618 0.68885
 C404 C 0.37544 0.94009 0.68968
 C405 C 0.38872 0.93896 0.70559
 C406 C 0.38881 0.95350 0.72028
 H407 H 0.35154 1.01659 0.79717
 H408 H 0.35126 1.04189 0.82267
 H409 H 0.39968 1.07180 0.79363
 H410 H 0.39972 1.04653 0.76808
 H411 H 0.40747 1.01172 0.76337
 H412 H 0.40746 0.98666 0.73736
 H413 H 0.34381 0.98712 0.73692
 H414 H 0.34382 1.01267 0.76243
 H415 H 0.35220 0.98302 0.70235
 H416 H 0.35194 0.95774 0.67681
 H417 H 0.39898 0.92678 0.70691
 H418 H 0.39902 0.95204 0.73248
 C419 C 0.87624 0.46957 0.21935
 C420 C 0.88982 0.45386 0.21985
 C421 C 0.88974 0.43936 0.20513
 C422 C 0.87609 0.44022 0.18951
 C423 C 0.86255 0.45601 0.18902
 C424 C 0.86262 0.47048 0.20376
 C425 C 0.87624 0.48491 0.23506
 C426 C 0.85840 0.49208 0.24281
 C427 C 0.85839 0.50651 0.25760
 C428 C 0.87623 0.51413 0.26494
 C429 C 0.89407 0.50696 0.25720
 C430 C 0.89408 0.49249 0.24244
 C431 C 0.87620 0.52954 0.28059
 C432 C 0.88939 0.54558 0.27972
 C433 C 0.88925 0.56018 0.29436
 C434 C 0.87594 0.55908 0.31025
 C435 C 0.86281 0.54295 0.31112
 C436 C 0.86293 0.52838 0.29646
 H437 H 0.90033 0.45261 0.23182
 H438 H 0.90032 0.42744 0.20618
 H439 H 0.85190 0.45735 0.17722
 H440 H 0.85215 0.48256 0.20282
 H441 H 0.84442 0.48637 0.23758
 H442 H 0.84440 0.51187 0.26313
 H443 H 0.90806 0.51240 0.26270
 H444 H 0.90807 0.48740 0.23664
 H445 H 0.89962 0.54703 0.26753
 H446 H 0.89951 0.57238 0.29301
 H447 H 0.85243 0.54140 0.32314
 H448 H 0.85277 0.51604 0.29769
 C449 C 0.27957 0.12537 -0.03045
 C450 C 0.27866 0.11190 -0.04622
 C451 C 0.29323 0.11184 -0.06081
 C452 C 0.30911 0.12524 -0.05997
 C453 C 0.30999 0.13871 -0.04415
 C454 C 0.29539 0.13879 -0.02959
 C455 C 0.26410 0.12542 -0.01492
 C456 C 0.25675 0.14338 -0.00744
 C457 C 0.24222 0.14342 0.00719
 C458 C 0.23475 0.12550 0.01471
 C459 C 0.24211 0.10754 0.00724
 C460 C 0.25660 0.10750 -0.00744
 C461 C 0.21935 0.12554 0.03029
 C462 C 0.22025 0.11207 0.04608
 C463 C 0.20575 0.11209 0.06075
 C464 C 0.18995 0.12557 0.05997
 C465 C 0.18910 0.13906 0.04413
 C466 C 0.20362 0.13905 0.02950
 H467 H 0.26650 0.10156 -0.04743
 H468 H 0.29187 0.10134 -0.07278
 H469 H 0.32200 0.14917 -0.04282
 H470 H 0.29665 0.14917 -0.01747
 H471 H 0.26209 0.15742 -0.01306
 H472 H 0.23698 0.15750 0.01278
 H473 H 0.23651 0.09349 0.01259
 H474 H 0.26211 0.09342 -0.01277
 H475 H 0.23234 0.10166 0.04726
 H476 H 0.20710 0.10158 0.07273
 H477 H 0.17715 0.14958 0.04284
 H478 H 0.20238 0.14945 0.01737
 C479 C 0.71975 0.62491 0.53023
 C480 C 0.72061 0.61141 0.54600
 C481 C 0.70603 0.61136 0.56058
 C482 C 0.69018 0.62479 0.55973
 C483 C 0.68936 0.63829 0.54391
 C484 C 0.70397 0.63836 0.52935
 C485 C 0.73524 0.62495 0.51472
 C486 C 0.74267 0.64291 0.50725
 C487 C 0.75724 0.64293 0.49266
 C488 C 0.76468 0.62501 0.48518
 C489 C 0.75725 0.60705 0.49265
 C490 C 0.74271 0.60702 0.50727
 C491 C 0.78014 0.62503 0.46964
 C492 C 0.77925 0.61156 0.45387
 C493 C 0.79380 0.61156 0.43925
 C494 C 0.80963 0.62503 0.44006
 C495 C 0.81048 0.63850 0.45588
 C496 C 0.79590 0.63851 0.47047
 H497 H 0.73274 0.60105 0.54723
 H498 H 0.70735 0.60084 0.57255
 H499 H 0.67738 0.64876 0.54257
 H500 H 0.70275 0.64876 0.51723
 H501 H 0.73735 0.65695 0.51283
 H502 H 0.76254 0.65701 0.48707
 H503 H 0.76283 0.59300 0.48733
 H504 H 0.73715 0.59295 0.51260
 H505 H 0.76714 0.60117 0.45267
 H506 H 0.79246 0.60106 0.42728
 H507 H 0.82245 0.64901 0.45719
 H508 H 0.79714 0.64890 0.48259
 C509 C 0.78013 0.37397 0.03037
 C510 C 0.77923 0.38742 0.04616
 C511 C 0.79372 0.38736 0.06083
 C512 C 0.80951 0.37387 0.06005
 C513 C 0.81038 0.36042 0.04422
 C514 C 0.79586 0.36046 0.02958
 C515 C 0.76473 0.37402 0.01479
 C516 C 0.75729 0.35611 0.00727
 C517 C 0.74277 0.35616 -0.00737
 C518 C 0.73541 0.37412 -0.01486
 C519 C 0.74288 0.39204 -0.00737
 C520 C 0.75736 0.39199 0.00731
 C521 C 0.71997 0.37417 -0.03041
 C522 C 0.72090 0.38766 -0.04619
 C523 C 0.70636 0.38771 -0.06081
 C524 C 0.69049 0.37428 -0.06000
 C525 C 0.68960 0.36079 -0.04417
 C526 C 0.70416 0.36073 -0.02958
 H527 H 0.76714 0.39782 0.04733
 H528 H 0.79236 0.39785 0.07281
 H529 H 0.82232 0.34990 0.04293
 H530 H 0.79711 0.35009 0.01745
 H531 H 0.76253 0.34203 0.01287
 H532 H 0.73745 0.34212 -0.01298
 H533 H 0.73737 0.40612 -0.01271
 H534 H 0.76294 0.40603 0.01267
 H535 H 0.73304 0.39802 -0.04738
 H536 H 0.70774 0.39822 -0.07279
 H537 H 0.67760 0.35032 -0.04286
 H538 H 0.70289 0.35033 -0.01745
 C539 C 0.21971 0.87386 0.46944
 C540 C 0.20398 0.86033 0.47028
 C541 C 0.18943 0.86028 0.45567
 C542 C 0.19028 0.87375 0.43982
 C543 C 0.20608 0.88725 0.43899
 C544 C 0.22060 0.88731 0.45363
 C545 C 0.23514 0.87393 0.48500
 C546 C 0.24253 0.89191 0.49243
 C547 C 0.25704 0.89197 0.50708
 C548 C 0.26453 0.87406 0.51458
 C549 C 0.25715 0.85609 0.50713
 C550 C 0.24260 0.85602 0.49253
 C551 C 0.28000 0.87412 0.53009
 C552 C 0.29578 0.86069 0.52925
 C553 C 0.31035 0.86073 0.54384
 C554 C 0.30948 0.87421 0.55966
 C555 C 0.29364 0.88764 0.56046
 C556 C 0.27910 0.88761 0.54585
 H557 H 0.20274 0.84996 0.48243
 H558 H 0.17747 0.84976 0.45699
 H559 H 0.20742 0.89773 0.42699
 H560 H 0.23269 0.89772 0.45242
 H561 H 0.23694 0.90594 0.48707
 H562 H 0.26257 0.90605 0.51238
 H563 H 0.26248 0.84205 0.51276
 H564 H 0.23734 0.84194 0.48696
 H565 H 0.29703 0.85030 0.51714
 H566 H 0.32233 0.85026 0.54253
 H567 H 0.29229 0.89815 0.57243
 H568 H 0.26697 0.89797 0.54704
   
