data_POSCAR
  _audit_creation_date              2014-09-24
  _audit_creation_method            'ToBaCCo'
  _symmetry_space_group_name_H-M    'P1'
  _symmetry_Int_Tables_number       1
  _symmetry_cell_setting            triclinic
  loop_
  _symmetry_equiv_pos_as_xyz
 x,y,z
_cell_length_a 23.4445
_cell_length_b 23.7181
_cell_length_c 23.7806
_cell_angle_alpha 89.156700
_cell_angle_beta 92.116100
_cell_angle_gamma 91.101600
loop_
  _atom_site_label
  _atom_site_type_symbol
  _atom_site_fract_x
  _atom_site_fract_y
  _atom_site_fract_z
C1 C -0.00334 0.43431 0.21216
 C2 C 0.05319 0.43522 0.24595
 C3 C 0.06236 0.48112 0.27898
 C4 C 0.01229 0.52309 0.27515
 C5 C -0.04909 0.44177 0.25514
 C6 C -0.04105 0.48683 0.28890
 C7 C -0.00369 0.49026 0.17893
 C8 C 0.00429 0.53719 0.21139
 H9 H 0.08498 0.40337 0.24074
 H10 H 0.01803 0.56031 0.30263
 H11 H -0.08784 0.41620 0.25602
 H12 H -0.01005 0.49234 0.13369
 C13 C 0.01867 0.44617 0.78345
 C14 C -0.01579 0.44584 0.73137
 C15 C -0.01219 0.49647 0.69825
 C16 C 0.02915 0.53731 0.72266
 C17 C 0.07647 0.45795 0.76717
 C18 C 0.08314 0.50764 0.73336
 C19 C 0.00148 0.49735 0.81205
 C20 C 0.00835 0.54846 0.77888
 H21 H -0.05093 0.41578 0.72544
 H22 H 0.03362 0.57477 0.69481
 H23 H 0.11114 0.42943 0.77714
 H24 H -0.01251 0.49808 0.85461
 C25 C 0.21840 -0.00110 0.44123
 C26 C 0.25433 0.05266 0.45102
 C27 C 0.28157 0.05611 0.50213
 C28 C 0.27345 0.00207 0.53895
 C29 C 0.26131 -0.04853 0.45075
 C30 C 0.28944 -0.04823 0.50170
 C31 C 0.17964 -0.00570 0.49188
 C32 C 0.20765 -0.00411 0.54349
 H33 H 0.25795 0.08630 0.42005
 H34 H 0.29820 0.00402 0.57947
 H35 H 0.26717 -0.08181 0.42095
 H36 H 0.13395 -0.01165 0.48639
 C37 C 0.78127 0.00438 0.43056
 C38 C 0.73450 -0.03604 0.42416
 C39 C 0.69713 -0.03850 0.47000
 C40 C 0.71143 0.00296 0.51292
 C41 C 0.75133 0.06057 0.43799
 C42 C 0.71481 0.05947 0.48096
 C43 C 0.81001 -0.00823 0.48840
 C44 C 0.77362 -0.00846 0.53203
 H45 H 0.73220 -0.06654 0.39063
 H46 H 0.67991 0.00338 0.54647
 H47 H 0.75609 0.09764 0.41160
 H48 H 0.85584 -0.01143 0.49412
 C49 C 0.43563 0.21983 1.01396
 C50 C 0.44006 0.25903 1.05994
 C51 C 0.49027 0.29414 1.06147
 C52 C 0.52843 0.28248 1.01476
 C53 C 0.44202 0.25369 0.96351
 C54 C 0.49194 0.28928 0.96283
 C55 C 0.48794 0.18742 1.01879
 C56 C 0.53998 0.22127 1.01930
 H57 H 0.41041 0.25757 1.09395
 H58 H 0.56679 0.31051 1.01569
 H59 H 0.41462 0.24696 0.92634
 H60 H 0.48868 0.14265 1.01201
 C61 C 0.41793 0.76297 0.99478
 C62 C 0.42852 0.71547 0.95453
 C63 C 0.48068 0.69232 0.96121
 C64 C 0.51651 0.71662 1.01095
 C65 C 0.42677 0.73705 1.05339
 C66 C 0.47825 0.71269 1.06232
 C67 C 0.46614 0.80245 0.98915
 C68 C 0.52105 0.77714 0.99849
 H69 H 0.40196 0.70912 0.91670
 H70 H 0.55702 0.69377 1.01701
 H71 H 0.39577 0.74010 1.08583
 H72 H 0.46122 0.84765 0.98781
 B73 B 0.98861 1.04755 0.02542
 B74 B 1.02506 0.98667 0.04347
 B75 B 0.95321 0.98761 0.04879
 B76 B 0.92455 1.02794 -0.00667
 B77 B 0.98086 1.05162 -0.04646
 B78 B 1.04316 1.02532 -0.01544
 B79 B 0.97450 0.93431 -0.05189
 B80 B 0.93895 0.99528 -0.06877
 B81 B 1.01171 0.99343 -0.07466
 B82 B 1.03890 0.95274 -0.01979
 B83 B 0.98377 0.92914 0.02039
 B84 B 0.92022 0.95608 -0.00966
 B85 B 0.57796 0.50451 0.47768
 B86 B 0.58073 0.50515 0.54884
 B87 B 0.55772 0.56434 0.51261
 B88 B 0.51910 0.54227 0.45423
 B89 B 0.51559 0.46987 0.45346
 B90 B 0.55254 0.44589 0.51373
 B91 B 0.46111 0.50740 0.54950
 B92 B 0.45835 0.50759 0.47628
 B93 B 0.47907 0.44761 0.51453
 B94 B 0.52026 0.46979 0.57250
 B95 B 0.52323 0.54213 0.57174
 B96 B 0.48461 0.56615 0.51276
 C97 C 0.98647 1.27622 0.12507
 C98 C 1.01175 1.32327 0.09879
 C99 C 1.01335 1.37513 0.12585
 C100 C 0.98927 1.38033 0.17873
 C101 C 0.96502 1.33147 0.20350
 N102 N 0.96377 1.28173 0.17623
 C103 C 0.98808 1.21983 0.10088
 N104 N 0.94272 1.18398 0.10523
 C105 C 0.94301 1.13062 0.08520
 C106 C 0.99158 1.10867 0.05954
 C107 C 1.03928 1.14580 0.05914
 C108 C 1.03767 1.20065 0.07831
 H109 H 1.03491 1.41054 0.10614
 H110 H 0.94902 1.33172 0.24550
 H111 H 0.90529 1.10564 0.09047
 H112 H 1.07933 1.13451 0.04537
 H113 H 1.03076 1.31970 0.05820
 H114 H 1.07570 1.22727 0.07699
 C115 C 1.00598 0.70298 0.13517
 C116 C 1.03821 0.69320 0.18520
 C117 C 1.03666 0.63968 0.21089
 C118 C 1.00392 0.59550 0.18666
 C119 C 0.97133 0.60769 0.13727
 N120 N 0.97306 0.66011 0.11343
 C121 C 1.00421 0.75894 0.10634
 N122 N 0.95895 0.77045 0.07135
 C123 C 0.95278 0.82069 0.04396
 C124 C 0.99184 0.86593 0.05184
 C125 C 1.04289 0.85080 0.08201
 C126 C 1.04849 0.79910 0.11076
 H127 H 1.06172 0.63305 0.24920
 H128 H 0.94389 0.57586 0.11772
 H129 H 0.91776 0.82322 0.01533
 H130 H 1.07984 0.87867 0.08256
 H131 H 1.06356 0.72655 0.20490
 H132 H 1.08778 0.79029 0.13426
 C133 C 1.00286 1.28403 -0.13931
 C134 C 0.99839 1.33190 -0.10570
 C135 C 1.00415 1.38559 -0.12968
 C136 C 1.01467 1.39211 -0.18740
 C137 C 1.02329 1.34243 -0.21804
 N138 N 1.01644 1.29084 -0.19392
 C139 C 0.99347 1.22626 -0.11743
 N140 N 1.01143 1.18175 -0.14700
 C141 C 1.00489 1.12748 -0.12874
 C142 C 0.98040 1.11476 -0.07642
 C143 C 0.95650 1.16088 -0.04977
 C144 C 0.96326 1.21578 -0.06903
 H145 H 1.00088 1.42093 -0.10209
 H146 H 1.03410 1.34476 -0.26192
 H147 H 1.01816 1.09536 -0.15589
 H148 H 0.93057 1.15575 -0.01429
 H149 H 0.99104 1.32846 -0.06116
 H150 H 0.94361 1.24908 -0.04646
 C151 C 0.97745 0.71166 -0.16167
 C152 C 0.95122 0.66463 -0.13632
 C153 C 0.96136 0.61076 -0.15590
 C154 C 0.99744 0.60302 -0.20112
 C155 C 1.02279 0.65173 -0.22516
 N156 N 1.01274 0.70363 -0.20475
 C157 C 0.97143 0.76923 -0.14002
 N158 N 1.01427 0.80761 -0.14723
 C159 C 1.01416 0.85973 -0.12430
 C160 C 0.96985 0.87629 -0.08963
 C161 C 0.92348 0.83784 -0.08622
 C162 C 0.92395 0.78496 -0.11071
 H163 H 0.93945 0.57567 -0.13610
 H164 H 1.05296 0.64919 -0.25819
 H165 H 1.05136 0.88598 -0.13027
 H166 H 0.88587 0.84757 -0.06423
 H167 H 0.92421 0.66893 -0.10079
 H168 H 0.88748 0.75681 -0.10622
 C169 C 1.13478 0.99731 0.27558
 C170 C 1.14312 1.04854 0.30346
 C171 C 1.16716 1.04875 0.35797
 C172 C 1.18546 0.99828 0.38433
 C173 C 1.17199 0.94755 0.35630
 N174 N 1.14775 0.94837 0.30339
 C175 C 1.11027 0.99525 0.21749
 N176 N 1.07294 0.95331 0.20329
 C177 C 1.04787 0.94940 0.15109
 C178 C 1.06106 0.98739 0.10631
 C179 C 1.09741 1.03278 0.12322
 C180 C 1.12265 1.03648 0.17719
 H181 H 1.17167 1.08876 0.37902
 H182 H 1.18111 0.90720 0.37597
 H183 H 1.01418 0.91874 0.14717
 H184 H 1.10622 1.06732 0.09617
 H185 H 1.13043 1.08799 0.28369
 H186 H 1.15124 1.07160 0.18717
 C187 C 1.12112 0.98911 -0.29913
 C188 C 1.17902 0.97540 -0.30045
 C189 C 1.20669 0.97640 -0.35156
 C190 C 1.17738 0.99200 -0.40186
 C191 C 1.11880 1.00433 -0.39859
 N192 N 1.09265 1.00257 -0.34823
 C193 C 1.09239 0.99260 -0.24461
 N194 N 1.03954 0.96958 -0.23738
 C195 C 1.01342 0.97048 -0.18687
 C196 C 1.04039 0.99499 -0.13832
 C197 C 1.09326 1.02204 -0.14829
 C198 C 1.11958 1.02006 -0.19963
 H199 H 1.25097 0.96456 -0.35120
 H200 H 1.09389 1.01698 -0.43559
 H201 H 0.97319 0.94869 -0.18456
 H202 H 1.11568 1.04599 -0.11751
 H203 H 1.20271 0.96392 -0.26214
 H204 H 1.16071 1.04088 -0.20430
 C205 C 0.87598 0.98635 0.28230
 C206 C 0.86816 0.93961 0.31780
 C207 C 0.84215 0.94700 0.36865
 C208 C 0.82198 1.00032 0.38289
 C209 C 0.83667 1.04676 0.34879
 N210 N 0.86231 1.03850 0.29968
 C211 C 0.89801 0.98159 0.22616
 N212 N 0.92997 1.02489 0.20661
 C213 C 0.94860 1.02634 0.15369
 C214 C 0.93181 0.98487 0.11398
 C215 C 0.90637 0.93629 0.13743
 C216 C 0.88726 0.93488 0.19222
 H217 H 0.83425 0.91042 0.39525
 H218 H 0.82679 1.08939 0.35933
 H219 H 0.98168 1.05658 0.14632
 H220 H 0.90926 0.89690 0.11779
 H221 H 0.88108 0.89793 0.30614
 H222 H 0.86584 0.89734 0.20792
 C223 C 0.83255 0.98946 -0.29623
 C224 C 0.86491 0.96308 -0.33604
 C225 C 0.84519 0.96229 -0.39203
 C226 C 0.79314 0.98748 -0.40798
 C227 C 0.76107 1.01103 -0.36561
 N228 N 0.78166 1.01213 -0.31166
 C229 C 0.85275 0.99243 -0.23784
 N230 N 0.87437 1.04155 -0.21714
 C231 C 0.89659 1.04537 -0.16374
 C232 C 0.89951 0.99770 -0.12759
 C233 C 0.87102 0.94887 -0.14819
 C234 C 0.84892 0.94545 -0.20291
 H235 H 0.87076 0.94200 -0.42252
 H236 H 0.72026 1.02968 -0.37466
 H237 H 0.91106 1.08591 -0.15113
 H238 H 0.86421 0.91303 -0.12232
 H239 H 0.90530 0.94412 -0.32396
 H240 H 0.82907 0.90653 -0.21778
 C241 C 1.27182 1.13896 0.00146
 C242 C 1.27713 1.19777 0.00041
 C243 C 1.33082 1.22299 0.00581
 C244 C 1.38051 1.19040 0.01259
 C245 C 1.37266 1.13123 0.01655
 N246 N 1.31938 1.10759 0.01070
 C247 C 1.21541 1.11072 -0.00610
 N248 N 1.20604 1.05957 0.01838
 C249 C 1.15432 1.03273 0.01500
 C250 C 1.10677 1.05688 -0.01437
 C251 C 1.11747 1.10963 -0.04061
 C252 C 1.17087 1.13599 -0.03723
 H253 H 1.33382 1.26865 0.00386
 H254 H 1.40784 1.10319 0.02396
 H255 H 1.15040 0.99244 0.03635
 H256 H 1.08471 1.13307 -0.06131
 H257 H 1.24029 1.22445 -0.00410
 H258 H 1.17665 1.17620 -0.05855
 C259 C 0.70125 1.14254 0.01521
 C260 C 0.65407 1.11307 0.03605
 C261 C 0.60165 1.13957 0.03836
 C262 C 0.59486 1.19604 0.01994
 C263 C 0.64420 1.22458 0.00098
 N264 N 0.69485 1.19728 -0.00174
 C265 C 0.75725 1.11452 0.01099
 N266 N 0.79026 1.12529 -0.03388
 C267 C 0.84102 1.09940 -0.04061
 C268 C 0.86370 1.06132 0.00031
 C269 C 0.82775 1.04814 0.04540
 C270 C 0.77585 1.07482 0.05131
 H271 H 0.56690 1.11537 0.05594
 H272 H 0.64263 1.26770 -0.01384
 H273 H 0.86294 1.10870 -0.07834
 H274 H 0.83838 1.01629 0.07624
 H275 H 0.65715 1.06941 0.04955
 H276 H 0.75061 1.06425 0.08731
 C277 C 1.24790 0.82167 -0.03897
 C278 C 1.25629 0.77050 -0.01001
 C279 C 1.31149 0.75211 0.00049
 C280 C 1.35858 0.78505 -0.01622
 C281 C 1.34809 0.83427 -0.04801
 N282 N 1.29384 0.85142 -0.05760
 C283 C 1.19209 0.84844 -0.04382
 N284 N 1.19117 0.90356 -0.05877
 C285 C 1.14387 0.93466 -0.05575
 C286 C 1.09398 0.91279 -0.03191
 C287 C 1.09226 0.85328 -0.02641
 C288 C 1.14094 0.82125 -0.03056
 H289 H 1.31744 0.71216 0.02236
 H290 H 1.38230 0.85925 -0.06546
 H291 H 1.14784 0.97680 -0.06994
 H292 H 1.05315 0.82995 -0.02085
 H293 H 1.22138 0.74554 0.00616
 H294 H 1.13781 0.77619 -0.02362
 C295 C 0.67909 0.86535 -0.00595
 C296 C 0.63037 0.88942 -0.03177
 C297 C 0.57782 0.86075 -0.02956
 C298 C 0.57335 0.80787 -0.00200
 C299 C 0.62322 0.78652 0.02468
 N300 N 0.67352 0.81527 0.02191
 C301 C 0.73685 0.89150 -0.00715
 N302 N 0.77819 0.86923 0.02698
 C303 C 0.83319 0.88780 0.02796
 C304 C 0.85245 0.93117 -0.00830
 C305 C 0.80794 0.95606 -0.04205
 C306 C 0.75146 0.93647 -0.04238
 H307 H 0.54144 0.87945 -0.05142
 H308 H 0.62286 0.74808 0.04948
 H309 H 0.85952 0.86660 0.05717
 H310 H 0.81511 0.99221 -0.06848
 H311 H 0.63216 0.92970 -0.05349
 H312 H 0.72043 0.95651 -0.07040
 C313 C 0.81105 0.50088 0.38288
 C314 C 0.84569 0.45387 0.39117
 C315 C 0.89804 0.45258 0.36552
 C316 C 0.91588 0.49770 0.33112
 C317 C 0.88221 0.54592 0.32751
 N318 N 0.83092 0.54621 0.35291
 C319 C 0.75290 0.50087 0.40485
 N320 N 0.73593 0.54569 0.43393
 C321 C 0.68392 0.54715 0.45714
 C322 C 0.64218 0.50346 0.44927
 C323 C 0.66308 0.45469 0.42492
 C324 C 0.71677 0.45339 0.40133
 H325 H 0.92285 0.41453 0.36911
 H326 H 0.89438 0.58128 0.30097
 H327 H 0.67927 0.57936 0.48723
 H328 H 0.64250 0.41524 0.43141
 H329 H 0.83165 0.41778 0.41581
 H330 H 0.73072 0.41486 0.38270
 C331 C 0.22865 0.50309 0.35880
 C332 C 0.19728 0.55070 0.34138
 C333 C 0.14203 0.54382 0.31795
 C334 C 0.11787 0.48983 0.31077
 C335 C 0.15017 0.44344 0.33011
 N336 N 0.20380 0.45111 0.35283
 C337 C 0.28775 0.50751 0.38369
 N338 N 0.32207 0.46189 0.38399
 C339 C 0.37540 0.46218 0.40893
 C340 C 0.39775 0.50981 0.43799
 C341 C 0.36283 0.55763 0.43502
 C342 C 0.30871 0.55676 0.40897
 H343 H 0.11936 0.58072 0.30366
 H344 H 0.13309 0.40088 0.32678
 H345 H 0.39971 0.42405 0.40744
 H346 H 0.37497 0.59639 0.45351
 H347 H 0.21535 0.59288 0.34403
 H348 H 0.28320 0.59412 0.41085
 C349 C 0.82774 0.52318 0.62082
 C350 C 0.85761 0.56969 0.64437
 C351 C 0.91415 0.56328 0.66473
 C352 C 0.94011 0.51025 0.66297
 C353 C 0.91068 0.46725 0.63322
 N354 N 0.85615 0.47444 0.61418
 C355 C 0.76595 0.52269 0.60477
 N356 N 0.74522 0.47812 0.57512
 C357 C 0.68932 0.47099 0.56035
 C358 C 0.64749 0.50937 0.57582
 C359 C 0.66955 0.55730 0.60479
 C360 C 0.72764 0.56372 0.62020
 H361 H 0.93497 0.59828 0.68637
 H362 H 0.92977 0.42652 0.62809
 H363 H 0.67985 0.43803 0.53141
 H364 H 0.64259 0.59072 0.61594
 H365 H 0.83742 0.60987 0.64893
 H366 H 0.74166 0.60031 0.64388
 C367 C 0.24476 0.53388 0.66733
 C368 C 0.19661 0.55371 0.63676
 C369 C 0.14283 0.54961 0.66026
 C370 C 0.13696 0.52358 0.71321
 C371 C 0.18721 0.50839 0.74385
 N372 N 0.23888 0.51338 0.72036
 C373 C 0.29971 0.52783 0.64029
 N374 N 0.29937 0.51170 0.58601
 C375 C 0.34782 0.50154 0.55897
 C376 C 0.40230 0.50947 0.58520
 C377 C 0.40247 0.52283 0.64302
 C378 C 0.35180 0.53182 0.67053
 H379 H 0.10587 0.56205 0.63477
 H380 H 0.18557 0.49138 0.78624
 H381 H 0.34185 0.48782 0.51717
 H382 H 0.44115 0.52412 0.66852
 H383 H 0.20031 0.57014 0.59428
 H384 H 0.35338 0.54174 0.71488
 C385 C 0.51613 0.64607 0.22600
 C386 C 0.53555 0.61773 0.17894
 C387 C 0.52567 0.64070 0.12512
 C388 C 0.49632 0.69127 0.11849
 C389 C 0.48005 0.71942 0.16674
 N390 N 0.48950 0.69606 0.21843
 C391 C 0.51995 0.62161 0.28317
 N392 N 0.47922 0.63395 0.31999
 C393 C 0.47852 0.61149 0.37282
 C394 C 0.52125 0.57463 0.39278
 C395 C 0.56299 0.56122 0.35368
 C396 C 0.56307 0.58490 0.30000
 H397 H 0.53838 0.61772 0.08876
 H398 H 0.45854 0.75936 0.16339
 H399 H 0.44359 0.62190 0.39792
 H400 H 0.59445 0.52999 0.36215
 H401 H 0.55563 0.57713 0.18319
 H402 H 0.59624 0.57373 0.27197
 C403 C 0.52354 0.63186 0.80323
 C404 C 0.52028 0.59329 0.84855
 C405 C 0.51081 0.61311 0.90233
 C406 C 0.50604 0.67097 0.91049
 C407 C 0.51341 0.70826 0.86482
 N408 N 0.52062 0.68801 0.81265
 C409 C 0.52680 0.61246 0.74526
 N410 N 0.49560 0.63774 0.70314
 C411 C 0.49538 0.61947 0.64912
 C412 C 0.52773 0.57268 0.63405
 C413 C 0.56379 0.55120 0.67756
 C414 C 0.56265 0.56918 0.73255
 H415 H 0.50401 0.58344 0.93660
 H416 H 0.50921 0.75326 0.86999
 H417 H 0.47168 0.64324 0.61888
 H418 H 0.59552 0.52177 0.66986
 H419 H 0.52171 0.54828 0.84183
 H420 H 0.59071 0.55032 0.76449
 C421 C 0.50855 0.38706 0.21127
 C422 C 0.45598 0.38442 0.18150
 C423 C 0.45151 0.35701 0.13019
 C424 C 0.49919 0.33205 0.10684
 C425 C 0.55232 0.33977 0.13560
 N426 N 0.55527 0.36512 0.18720
 C427 C 0.51185 0.40939 0.26988
 N428 N 0.54701 0.38570 0.30958
 C429 C 0.54869 0.40117 0.36473
 C430 C 0.51273 0.44325 0.38610
 C431 C 0.47754 0.46843 0.34284
 C432 C 0.47653 0.45209 0.28658
 H433 H 0.40976 0.35428 0.10918
 H434 H 0.59033 0.32136 0.11976
 H435 H 0.57796 0.37809 0.38987
 H436 H 0.45156 0.50387 0.35030
 H437 H 0.41767 0.40055 0.19898
 H438 H 0.44895 0.47394 0.25631
 C439 C 0.51400 0.36947 0.80495
 C440 C 0.56291 0.35791 0.83923
 C441 C 0.55678 0.33524 0.89404
 C442 C 0.50203 0.32292 0.91399
 C443 C 0.45491 0.34031 0.87972
 N444 N 0.46201 0.36174 0.82734
 C445 C 0.51637 0.38934 0.74510
 N446 N 0.56673 0.40315 0.72152
 C447 C 0.56970 0.42381 0.66779
 C448 C 0.51991 0.43499 0.63402
 C449 C 0.46831 0.41576 0.65699
 C450 C 0.46614 0.39412 0.71173
 H451 H 0.59460 0.32385 0.91859
 H452 H 0.41174 0.33611 0.89403
 H453 H 0.61124 0.43638 0.65440
 H454 H 0.42860 0.41679 0.63286
 H455 H 0.60522 0.36455 0.82331
 H456 H 0.42508 0.38150 0.72764
 C457 C 0.62432 0.80308 0.48918
 C458 C 0.61967 0.82980 0.43639
 C459 C 0.63893 0.88505 0.43076
 C460 C 0.66186 0.91402 0.47771
 C461 C 0.65716 0.88856 0.53113
 N462 N 0.64032 0.83365 0.53526
 C463 C 0.61512 0.74212 0.49547
 N464 N 0.60114 0.72064 0.54621
 C465 C 0.58972 0.66502 0.55447
 C466 C 0.59021 0.62642 0.50981
 C467 C 0.60997 0.64863 0.45840
 C468 C 0.62280 0.70546 0.45119
 H469 H 0.63818 0.90429 0.38914
 H470 H 0.67306 0.90934 0.56890
 H471 H 0.57854 0.65321 0.59568
 H472 H 0.61487 0.62290 0.42255
 H473 H 0.60355 0.80783 0.39937
 H474 H 0.63770 0.72020 0.41094
 C475 C 0.63206 0.21113 0.51299
 C476 C 0.66078 0.18298 0.55764
 C477 C 0.68606 0.13178 0.54774
 C478 C 0.68157 0.10849 0.49417
 C479 C 0.64959 0.13594 0.45165
 N480 N 0.62624 0.18631 0.46186
 C481 C 0.61131 0.26852 0.51800
 N482 N 0.57087 0.28664 0.48034
 C483 C 0.55325 0.34059 0.47869
 C484 C 0.57819 0.38202 0.51443
 C485 C 0.61613 0.36130 0.55672
 C486 C 0.63418 0.30597 0.55779
 H487 H 0.71166 0.11228 0.58094
 H488 H 0.64506 0.11846 0.40988
 H489 H 0.51643 0.34955 0.45189
 H490 H 0.63319 0.38675 0.58957
 H491 H 0.66510 0.20060 0.59928
 H492 H 0.66642 0.29359 0.58899
 C493 C 0.37849 0.79684 0.52383
 C494 C 0.40949 0.84732 0.51335
 C495 C 0.38141 0.89915 0.51088
 C496 C 0.32280 0.90138 0.51989
 C497 C 0.29407 0.85063 0.53348
 N498 N 0.32199 0.80056 0.53475
 C499 C 0.40495 0.73975 0.52032
 N500 N 0.38074 0.69388 0.54579
 C501 C 0.40239 0.64077 0.54323
 C502 C 0.45291 0.62967 0.51399
 C503 C 0.47489 0.67706 0.48465
 C504 C 0.45247 0.73099 0.48808
 H505 H 0.40484 0.93709 0.49922
 H506 H 0.24857 0.85051 0.53979
 H507 H 0.38021 0.60833 0.56538
 H508 H 0.50864 0.67330 0.45641
 H509 H 0.45469 0.84700 0.50579
 H510 H 0.47148 0.76487 0.46377
 C511 C 0.36149 0.21827 0.53395
 C512 C 0.39114 0.16852 0.54912
 C513 C 0.36431 0.11530 0.54230
 C514 C 0.30831 0.11116 0.51995
 C515 C 0.27959 0.16179 0.50752
 N516 N 0.30647 0.21280 0.51419
 C517 C 0.38876 0.27623 0.53538
 N518 N 0.36148 0.32071 0.51035
 C519 C 0.38531 0.37375 0.50641
 C520 C 0.44225 0.38574 0.52509
 C521 C 0.46654 0.34088 0.55794
 C522 C 0.44156 0.28716 0.56211
 H523 H 0.38820 0.07747 0.55173
 H524 H 0.23608 0.16065 0.49061
 H525 H 0.35808 0.40551 0.49009
 H526 H 0.50668 0.34535 0.58047
 H527 H 0.43522 0.16984 0.56396
 H528 H 0.46406 0.25516 0.58635
   
