data_POSCAR
  _audit_creation_date              2014-09-24
  _audit_creation_method            'ToBaCCo'
  _symmetry_space_group_name_H-M    'P1'
  _symmetry_Int_Tables_number       1
  _symmetry_cell_setting            triclinic
  loop_
  _symmetry_equiv_pos_as_xyz
 x,y,z
_cell_length_a 50.1428
_cell_length_b 48.9308
_cell_length_c 48.8341
_cell_angle_alpha 93.679900
_cell_angle_beta 92.486600
_cell_angle_gamma 92.589400
loop_
  _atom_site_label
  _atom_site_type_symbol
  _atom_site_fract_x
  _atom_site_fract_y
  _atom_site_fract_z
N1 N 0.19530 1.25218 0.18079
 N2 N 0.17648 1.25069 0.19858
 C3 C 0.15913 1.27037 0.19430
 C4 C 0.16745 1.28509 0.17251
 C5 C 0.19062 1.27281 0.16458
 H6 H 0.14164 1.27344 0.20605
 H7 H 0.20310 1.27808 0.14804
 Cu8 Cu 0.17618 1.22268 0.22512
 Cu9 Cu 0.22400 1.22669 0.17924
 Cu10 Cu 0.22438 1.17722 0.22700
 N11 N 0.17679 1.19506 0.25206
 N12 N 0.19580 1.17750 0.25277
 C13 C 0.19128 1.16036 0.27270
 C14 C 0.16798 1.16739 0.28530
 C15 C 0.15945 1.18968 0.27154
 H16 H 0.20387 1.14373 0.27718
 H17 H 0.14180 1.20099 0.27508
 N18 N 0.25150 1.18029 0.19920
 N19 N 0.25133 1.19907 0.18100
 C20 C 0.27162 1.19513 0.16423
 C21 C 0.28527 1.17272 0.17216
 C22 C 0.27191 1.16391 0.19448
 H23 H 0.27565 1.20722 0.14700
 H24 H 0.27641 1.14657 0.20620
 H25 H 0.20345 1.19444 0.19558
 H26 H 0.22399 1.21843 0.22019
 N27 N 0.79679 0.74945 0.16569
 N28 N 0.81121 0.74768 0.18858
 C29 C 0.82965 0.72890 0.18443
 C30 C 0.82661 0.71817 0.15747
 C31 C 0.80545 0.73165 0.14623
 H32 H 0.84437 0.72373 0.19985
 H33 H 0.79762 0.72948 0.12519
 Cu34 Cu 0.80570 0.77090 0.22136
 Cu35 Cu 0.76947 0.77634 0.16229
 Cu36 Cu 0.76815 0.82554 0.21635
 N37 N 0.80787 0.80084 0.24953
 N38 N 0.79376 0.82257 0.24705
 C39 C 0.80020 0.84083 0.26833
 C40 C 0.81946 0.82999 0.28531
 C41 C 0.82366 0.80438 0.27260
 H42 H 0.79142 0.86053 0.27104
 H43 H 0.83782 0.78975 0.27892
 N44 N 0.74370 0.82478 0.18360
 N45 N 0.74380 0.80576 0.16319
 C46 C 0.72477 0.81080 0.14406
 C47 C 0.71216 0.83421 0.15281
 C48 C 0.72470 0.84242 0.17800
 H49 H 0.72077 0.79865 0.12493
 H50 H 0.72020 0.85988 0.19139
 H51 H 0.79129 0.80368 0.18927
 H52 H 0.76246 0.78435 0.20340
 N53 N 0.80403 1.24989 -0.17497
 N54 N 0.82162 1.25022 -0.19413
 C55 C 0.83741 1.27328 -0.19003
 C56 C 0.82938 1.28807 -0.16694
 C57 C 0.80810 1.27257 -0.15796
 H58 H 0.85424 1.27838 -0.20217
 H59 H 0.79668 1.27721 -0.14012
 Cu60 Cu 0.82343 1.21932 -0.22104
 Cu61 Cu 0.77799 1.21952 -0.17259
 Cu62 Cu 0.77992 1.16488 -0.22125
 N63 N 0.82485 1.18821 -0.24774
 N64 N 0.80750 1.16725 -0.24808
 C65 C 0.81339 1.14842 -0.26794
 C66 C 0.83596 1.15787 -0.28070
 C67 C 0.84253 1.18333 -0.26722
 H68 H 0.80252 1.12891 -0.27198
 H69 H 0.85909 1.19725 -0.27100
 N70 N 0.75366 1.16637 -0.19229
 N71 N 0.75325 1.18704 -0.17360
 C72 C 0.73411 1.18159 -0.15599
 C73 C 0.72181 1.15625 -0.16387
 C74 C 0.73468 1.14725 -0.18706
 H75 H 0.72948 1.19507 -0.13862
 H76 H 0.73100 1.12785 -0.19878
 H77 H 0.80051 1.18937 -0.19066
 H78 H 0.77685 1.20654 -0.21379
 N79 N 0.19169 0.74549 -0.18260
 N80 N 0.17219 0.74447 -0.20155
 C81 C 0.15341 0.72543 -0.19568
 C82 C 0.16156 0.71392 -0.17166
 C83 C 0.18601 0.72719 -0.16404
 H84 H 0.13490 0.72088 -0.20761
 H85 H 0.19869 0.72402 -0.14617
 Cu86 Cu 0.17250 0.76886 -0.23148
 Cu87 Cu 0.22234 0.77139 -0.18238
 Cu88 Cu 0.21862 0.82125 -0.22911
 N89 N 0.16886 0.79941 -0.25479
 N90 N 0.18674 0.81995 -0.25338
 C91 C 0.17936 0.83836 -0.27115
 C92 C 0.15545 0.82895 -0.28475
 C93 C 0.14947 0.80398 -0.27370
 H94 H 0.19089 0.85705 -0.27403
 H95 H 0.13225 0.79022 -0.27869
 N96 N 0.24935 0.81902 -0.20303
 N97 N 0.25108 0.79968 -0.18552
 C98 C 0.27398 0.80413 -0.17006
 C99 C 0.28720 0.82754 -0.17812
 C100 C 0.27100 0.83635 -0.19912
 H101 H 0.28004 0.79195 -0.15338
 H102 H 0.27454 0.85430 -0.21048
 H103 H 0.19926 0.80020 -0.19961
 H104 H 0.22030 0.77974 -0.22333
 C105 C 0.48318 1.02810 0.02232
 C106 C 0.50012 1.00812 0.03772
 C107 C 0.51414 0.99099 0.02123
 C108 C 0.51042 0.99597 -0.00955
 C109 C 0.50355 1.04337 0.00552
 C110 C 0.51750 1.02678 -0.01153
 C111 C 0.46602 1.01003 0.00105
 C112 C 0.48008 0.99325 -0.01556
 H113 H 0.50200 1.00861 0.05990
 H114 H 0.52153 0.98225 -0.02346
 H115 H 0.50750 1.06533 0.00771
 H116 H 0.44441 1.01028 -0.00043
 C117 C 0.02982 0.48799 1.02896
 C118 C 0.04520 0.50512 1.00898
 C119 C 0.02946 0.51959 0.99226
 C120 C -0.00055 0.51615 0.99757
 C121 C 0.01358 0.50909 1.04476
 C122 C -0.00266 0.52353 1.02856
 C123 C 0.00905 0.47055 1.01084
 C124 C -0.00678 0.48509 0.99447
 H125 H 0.06676 0.50738 1.00935
 H126 H -0.01380 0.52770 0.98420
 H127 H 0.01487 0.51233 1.06693
 H128 H 0.00722 0.44839 1.01087
 C129 C 1.02577 0.01982 0.48329
 C130 C 1.01004 0.03647 0.50423
 C131 C 0.99324 0.02106 0.51888
 C132 C 0.99416 -0.01003 0.51181
 C133 C 1.04026 -0.00056 0.50069
 C134 C 1.02385 -0.01647 0.51533
 C135 C 1.00443 0.00233 0.46595
 C136 C 0.98796 -0.01324 0.48069
 H137 H 1.01195 0.05861 0.50716
 H138 H 0.98039 -0.02270 0.52357
 H139 H 1.06177 -0.00102 0.50306
 H140 H 1.00268 0.00216 0.44374
 C141 C 0.12877 0.35001 1.13576
 C142 C 0.11797 0.33787 1.15835
 C143 C 0.13081 0.31672 1.17065
 C144 C 0.15484 0.30700 1.16063
 C145 C 0.16574 0.31958 1.13815
 C146 C 0.15288 0.34075 1.12594
 C147 C 0.11464 0.37179 1.12206
 C148 C 0.12896 0.39452 1.11285
 C149 C 0.11570 0.41447 1.09905
 C150 C 0.08784 0.41212 1.09414
 C151 C 0.07349 0.38957 1.10368
 C152 C 0.08674 0.36963 1.11748
 C153 C 0.07385 0.43264 1.07843
 C154 C 0.04876 0.44137 1.08601
 C155 C 0.03505 0.45963 1.07039
 C156 C 0.04627 0.47014 1.04704
 C157 C 0.07129 0.46100 1.03932
 C158 C 0.08499 0.44274 1.05498
 H159 H 0.09958 0.34484 1.16663
 H160 H 0.12156 0.30806 1.18792
 H161 H 0.18411 0.31311 1.12958
 H162 H 0.16155 0.34949 1.10834
 H163 H 0.15042 0.39696 1.11645
 H164 H 0.12724 0.43182 1.09230
 H165 H 0.05208 0.38692 1.09981
 H166 H 0.07520 0.35214 1.12394
 H167 H 0.03960 0.43391 1.10396
 H168 H 0.01534 0.46512 1.07633
 H169 H 0.08008 0.46701 1.02069
 H170 H 0.10393 0.43575 1.04813
 C171 C -0.12455 0.65922 1.11679
 C172 C -0.15037 0.66369 1.10608
 C173 C -0.16621 0.68289 1.11920
 C174 C -0.15668 0.69788 1.14343
 C175 C -0.13089 0.69344 1.15411
 C176 C -0.11498 0.67446 1.14089
 C177 C -0.10763 0.63871 1.10308
 C178 C -0.09107 0.62267 1.11880
 C179 C -0.07475 0.60378 1.10609
 C180 C -0.07473 0.60017 1.07729
 C181 C -0.09144 0.61604 1.06153
 C182 C -0.10767 0.63512 1.07427
 C183 C -0.05715 0.58007 1.06394
 C184 C -0.04426 0.58585 1.03980
 C185 C -0.02692 0.56731 1.02799
 C186 C -0.02184 0.54279 1.04021
 C187 C -0.03514 0.53674 1.06399
 C188 C -0.05264 0.55508 1.07564
 H189 H -0.15852 0.65204 1.08780
 H190 H -0.18608 0.68565 1.11058
 H191 H -0.12272 0.70494 1.17247
 H192 H -0.09500 0.67201 1.14941
 H193 H -0.09081 0.62457 1.14102
 H194 H -0.06186 0.59223 1.11891
 H195 H -0.09216 0.61359 1.03931
 H196 H -0.11996 0.64733 1.06152
 H197 H -0.04701 0.60503 1.03040
 H198 H -0.01695 0.57260 1.00978
 H199 H -0.03217 0.51766 1.07352
 H200 H -0.06273 0.54959 1.09380
 C201 C -0.13096 0.36059 0.87351
 C202 C -0.12869 0.35461 0.84516
 C203 C -0.14182 0.33125 0.83192
 C204 C -0.15772 0.31353 0.84665
 C205 C -0.16054 0.31985 0.87480
 C206 C -0.14721 0.34298 0.88809
 C207 C -0.11542 0.38415 0.88828
 C208 C -0.12596 0.39861 0.91086
 C209 C -0.11016 0.41833 0.92689
 C210 C -0.08363 0.42436 0.92043
 C211 C -0.07352 0.41117 0.89699
 C212 C -0.08919 0.39115 0.88115
 C213 C -0.06574 0.44211 0.93961
 C214 C -0.04881 0.46277 0.93008
 C215 C -0.03033 0.47773 0.94821
 C216 C -0.02813 0.47171 0.97590
 C217 C -0.04547 0.45154 0.98551
 C218 C -0.06424 0.43703 0.96759
 H219 H -0.11671 0.36794 0.83319
 H220 H -0.13953 0.32711 0.81013
 H221 H -0.17234 0.30646 0.88686
 H222 H -0.14898 0.34651 0.91003
 H223 H -0.14627 0.39428 0.91654
 H224 H -0.11847 0.42847 0.94473
 H225 H -0.05301 0.41527 0.89178
 H226 H -0.08027 0.38025 0.86414
 H227 H -0.04966 0.46703 0.90858
 H228 H -0.01704 0.49317 0.94042
 H229 H -0.04420 0.44673 1.00686
 H230 H -0.07688 0.42104 0.97539
 C231 C 0.11956 0.65261 0.87200
 C232 C 0.11187 0.65692 0.84465
 C233 C 0.12543 0.67683 0.83045
 C234 C 0.14700 0.69284 0.84328
 C235 C 0.15455 0.68858 0.87068
 C236 C 0.14098 0.66877 0.88485
 C237 C 0.10543 0.63138 0.88722
 C238 C 0.11986 0.61544 0.90506
 C239 C 0.10666 0.59623 0.92026
 C240 C 0.07868 0.59235 0.91793
 C241 C 0.06425 0.60797 0.89975
 C242 C 0.07748 0.62727 0.88454
 C243 C 0.06476 0.57268 0.93512
 C244 C 0.04073 0.57919 0.94725
 C245 C 0.02881 0.56160 0.96514
 C246 C 0.04075 0.53725 0.97153
 C247 C 0.06420 0.53023 0.95851
 C248 C 0.07604 0.54770 0.94053
 H249 H 0.09564 0.64460 0.83406
 H250 H 0.11918 0.67938 0.80932
 H251 H 0.17074 0.70075 0.88144
 H252 H 0.14707 0.66638 0.90608
 H253 H 0.14143 0.61781 0.90731
 H254 H 0.11838 0.58483 0.93433
 H255 H 0.04271 0.60529 0.89727
 H256 H 0.06577 0.63937 0.87113
 H257 H 0.03161 0.59836 0.94369
 H258 H 0.01078 0.56764 0.97462
 H259 H 0.07352 0.51121 0.96227
 H260 H 0.09415 0.54170 0.93097
 C261 C 1.12923 0.12678 0.34802
 C262 C 1.11816 0.14968 0.33687
 C263 C 1.13102 0.16327 0.31646
 C264 C 1.15538 0.15428 0.30656
 C265 C 1.16660 0.13154 0.31825
 C266 C 1.15369 0.11801 0.33864
 C267 C 1.11505 0.11169 0.36892
 C268 C 1.11410 0.08289 0.36763
 C269 C 1.10040 0.06857 0.38694
 C270 C 1.08733 0.08271 0.40801
 C271 C 1.08833 0.11152 0.40937
 C272 C 1.10205 0.12586 0.39003
 C273 C 1.07235 0.06737 0.42817
 C274 C 1.04729 0.07570 0.43630
 C275 C 1.03271 0.06059 0.45438
 C276 C 1.04300 0.03707 0.46531
 C277 C 1.06797 0.02858 0.45671
 C278 C 1.08253 0.04370 0.43863
 H279 H 1.09917 0.15676 0.34348
 H280 H 1.12146 0.18058 0.30837
 H281 H 1.18534 0.12386 0.31175
 H282 H 1.16296 0.10069 0.34718
 H283 H 1.12349 0.07137 0.35133
 H284 H 1.09956 0.04637 0.38502
 H285 H 1.07874 0.12298 0.42557
 H286 H 1.10273 0.14805 0.39178
 H287 H 1.03858 0.09344 0.42802
 H288 H 1.01303 0.06705 0.45937
 H289 H 1.07617 0.00987 0.46315
 H290 H 1.10176 0.03670 0.43268
 C291 C 1.11250 -0.13224 0.65280
 C292 C 1.13515 -0.11914 0.66663
 C293 C 1.14918 -0.13187 0.68715
 C294 C 1.14088 -0.15813 0.69473
 C295 C 1.11781 -0.17104 0.68115
 C296 C 1.10387 -0.15828 0.66042
 C297 C 1.09815 -0.11860 0.63053
 C298 C 1.07009 -0.12025 0.62764
 C299 C 1.05678 -0.10614 0.60750
 C300 C 1.07123 -0.09002 0.58985
 C301 C 1.09930 -0.08887 0.59246
 C302 C 1.11256 -0.10308 0.61240
 C303 C 1.05735 -0.07348 0.56954
 C304 C 1.06828 -0.06952 0.54398
 C305 C 1.05695 -0.05163 0.52613
 C306 C 1.03427 -0.03736 0.53326
 C307 C 1.02240 -0.04255 0.55803
 C308 C 1.03392 -0.06022 0.57609
 H309 H 1.14199 -0.09877 0.66179
 H310 H 1.16642 -0.12070 0.69705
 H311 H 1.11056 -0.19120 0.68606
 H312 H 1.08660 -0.16906 0.65001
 H313 H 1.05837 -0.13188 0.64137
 H314 H 1.03516 -0.10776 0.60585
 H315 H 1.11113 -0.07639 0.57954
 H316 H 1.13420 -0.10174 0.61371
 H317 H 1.08583 -0.08002 0.53786
 H318 H 1.06611 -0.04882 0.50677
 H319 H 1.00484 -0.03222 0.56407
 H320 H 1.02502 -0.06262 0.59565
 C321 C 0.86089 -0.13104 0.35614
 C322 C 0.84299 -0.11667 0.34016
 C323 C 0.82888 -0.12965 0.31730
 C324 C 0.83260 -0.15736 0.30931
 C325 C 0.85022 -0.17185 0.32565
 C326 C 0.86400 -0.15892 0.34881
 C327 C 0.87712 -0.11653 0.37943
 C328 C 0.90374 -0.12324 0.38502
 C329 C 0.91982 -0.10786 0.40504
 C330 C 0.90977 -0.08522 0.41960
 C331 C 0.88298 -0.07905 0.41485
 C332 C 0.86675 -0.09471 0.39519
 C333 C 0.92792 -0.06654 0.43757
 C334 C 0.92958 -0.03847 0.43312
 C335 C 0.94870 -0.02103 0.44773
 C336 C 0.96615 -0.03124 0.46742
 C337 C 0.96375 -0.05902 0.47287
 C338 C 0.94496 -0.07667 0.45776
 H339 H 0.84041 -0.09504 0.34473
 H340 H 0.81577 -0.11742 0.30552
 H341 H 0.85346 -0.19328 0.32082
 H342 H 0.87715 -0.17085 0.36093
 H343 H 0.91261 -0.13958 0.37310
 H344 H 0.94054 -0.11278 0.40814
 H345 H 0.87478 -0.06178 0.42602
 H346 H 0.84619 -0.08935 0.39202
 H347 H 0.91681 -0.03026 0.41750
 H348 H 0.95020 0.00039 0.44334
 H349 H 0.97716 -0.06724 0.48792
 H350 H 0.94398 -0.09826 0.46150
 C351 C 0.87815 0.11639 0.65672
 C352 C 0.88822 0.14156 0.66937
 C353 C 0.87418 0.15538 0.68963
 C354 C 0.84973 0.14426 0.69822
 C355 C 0.83966 0.11902 0.68541
 C356 C 0.85361 0.10537 0.66489
 C357 C 0.89340 0.10163 0.63534
 C358 C 0.89390 0.07285 0.63373
 C359 C 0.90887 0.05911 0.61414
 C360 C 0.92391 0.07380 0.59583
 C361 C 0.92324 0.10256 0.59734
 C362 C 0.90806 0.11626 0.61670
 C363 C 0.94068 0.05936 0.57559
 C364 C 0.94391 0.06929 0.54949
 C365 C 0.96081 0.05668 0.53107
 C366 C 0.97462 0.03363 0.53815
 C367 C 0.97083 0.02314 0.56380
 C368 C 0.95421 0.03596 0.58243
 H369 H 0.90730 0.15045 0.66402
 H370 H 0.88304 0.17453 0.69881
 H371 H 0.82086 0.10966 0.69087
 H372 H 0.84499 0.08627 0.65524
 H373 H 0.88312 0.06091 0.64794
 H374 H 0.90859 0.03694 0.61335
 H375 H 0.93485 0.11463 0.58388
 H376 H 0.90782 0.13839 0.61700
 H377 H 0.93334 0.08682 0.54320
 H378 H 0.96298 0.06488 0.51116
 H379 H 0.98138 0.00562 0.56988
 H380 H 0.95257 0.02796 0.60248
 C381 C 0.35002 1.13464 0.13134
 C382 C 0.33726 1.12179 0.15245
 C383 C 0.31654 1.13429 0.16594
 C384 C 0.30807 1.15997 0.15865
 C385 C 0.32123 1.17304 0.13785
 C386 C 0.34192 1.16051 0.12434
 C387 C 0.37115 1.12074 0.11614
 C388 C 0.37174 1.12141 0.08745
 C389 C 0.39093 1.10744 0.07294
 C390 C 0.41001 1.09252 0.08679
 C391 C 0.40963 1.09215 0.11553
 C392 C 0.39041 1.10610 0.13005
 C393 C 0.42971 1.07681 0.07120
 C394 C 0.43589 1.05037 0.07825
 C395 C 0.45349 1.03504 0.06285
 C396 C 0.46590 1.04594 0.04034
 C397 C 0.45920 1.07227 0.03305
 C398 C 0.44161 1.08759 0.04847
 H399 H 0.34283 1.10170 0.15808
 H400 H 0.30690 1.12344 0.18169
 H401 H 0.31560 1.19295 0.13186
 H402 H 0.35166 1.17111 0.10844
 H403 H 0.35690 1.13213 0.07610
 H404 H 0.39038 1.10774 0.05077
 H405 H 0.42431 1.08117 0.12682
 H406 H 0.39069 1.10554 0.15219
 H407 H 0.42643 1.04115 0.09514
 H408 H 0.45682 1.01432 0.06824
 H409 H 0.46691 1.08094 0.01501
 H410 H 0.43716 1.10786 0.04242
 C411 C 0.65880 1.11469 -0.12298
 C412 C 0.66415 1.10664 -0.15027
 C413 C 0.68468 1.11999 -0.16356
 C414 C 0.70023 1.14174 -0.14986
 C415 C 0.69500 1.14959 -0.12251
 C416 C 0.67461 1.13620 -0.10923
 C417 C 0.63678 1.10095 -0.10878
 C418 C 0.62092 1.11636 -0.09111
 C419 C 0.60083 1.10354 -0.07694
 C420 C 0.59590 1.07498 -0.08019
 C421 C 0.61149 1.05957 -0.09816
 C422 C 0.63170 1.07241 -0.11231
 C423 C 0.57500 1.06147 -0.06428
 C424 C 0.57931 1.03628 -0.05288
 C425 C 0.56036 1.02461 -0.03633
 C426 C 0.53687 1.03797 -0.03058
 C427 C 0.53217 1.06268 -0.04276
 C428 C 0.55096 1.07425 -0.05943
 H429 H 0.65214 1.09034 -0.16154
 H430 H 0.68804 1.11355 -0.18469
 H431 H 0.70685 1.16589 -0.11112
 H432 H 0.67143 1.14251 -0.08801
 H433 H 0.62402 1.13841 -0.08823
 H434 H 0.58947 1.11601 -0.06300
 H435 H 0.60803 1.03757 -0.10135
 H436 H 0.64370 1.05993 -0.12561
 H437 H 0.59771 1.02600 -0.05598
 H438 H 0.56463 1.00565 -0.02736
 H439 H 0.51390 1.07314 -0.03940
 H440 H 0.54667 1.09330 -0.06847
 C441 C 0.35789 0.86921 -0.13925
 C442 C 0.33972 0.88332 -0.15520
 C443 C 0.31715 0.86965 -0.16823
 C444 C 0.31197 0.84155 -0.16544
 C445 C 0.33022 0.82727 -0.14980
 C446 C 0.35300 0.84092 -0.13695
 C447 C 0.38095 0.88440 -0.12404
 C448 C 0.38888 0.87789 -0.09733
 C449 C 0.40845 0.89417 -0.08186
 C450 C 0.42028 0.91744 -0.09267
 C451 C 0.41331 0.92327 -0.11974
 C452 C 0.39403 0.90681 -0.13534
 C453 C 0.43767 0.93706 -0.07484
 C454 C 0.43213 0.96497 -0.07319
 C455 C 0.44643 0.98333 -0.05437
 C456 C 0.46684 0.97422 -0.03714
 C457 C 0.47327 0.94658 -0.03956
 C458 C 0.45855 0.92803 -0.05807
 H459 H 0.34242 0.90520 -0.15695
 H460 H 0.30335 0.88139 -0.17978
 H461 H 0.32696 0.80553 -0.14752
 H462 H 0.36676 0.82931 -0.12517
 H463 H 0.37906 0.86102 -0.08782
 H464 H 0.41329 0.88944 -0.06091
 H465 H 0.42240 0.94095 -0.12861
 H466 H 0.38894 0.91203 -0.15607
 H467 H 0.41597 0.97239 -0.08570
 H468 H 0.44128 1.00462 -0.05295
 H469 H 0.48889 0.93916 -0.02634
 H470 H 0.46320 0.90660 -0.05905
 C471 C 0.64870 0.87428 0.11125
 C472 C 0.65414 0.84703 0.10336
 C473 C 0.67479 0.83400 0.11674
 C474 C 0.69039 0.84792 0.13835
 C475 C 0.68501 0.87520 0.14609
 C476 C 0.66449 0.88822 0.13269
 C477 C 0.62680 0.88833 0.09723
 C478 C 0.61095 0.90622 0.11237
 C479 C 0.59130 0.92063 0.09918
 C480 C 0.58685 0.91740 0.07051
 C481 C 0.60225 0.89899 0.05541
 C482 C 0.62202 0.88463 0.06862
 C483 C 0.56701 0.93411 0.05650
 C484 C 0.57256 0.94529 0.03144
 C485 C 0.55497 0.96298 0.01950
 C486 C 0.53161 0.97020 0.03246
 C487 C 0.52548 0.95803 0.05690
 C488 C 0.54294 0.94021 0.06875
 H489 H 0.64217 0.83562 0.08712
 H490 H 0.67823 0.81291 0.11037
 H491 H 0.69685 0.88675 0.16230
 H492 H 0.66125 0.90941 0.13888
 H493 H 0.61382 0.90922 0.13448
 H494 H 0.58006 0.93486 0.11143
 H495 H 0.59913 0.89578 0.03334
 H496 H 0.63400 0.87115 0.05634
 H497 H 0.59099 0.94122 0.02153
 H498 H 0.56032 0.97167 0.00067
 H499 H 0.50721 0.96235 0.06702
 H500 H 0.53768 0.93136 0.08766
   
