data_POSCAR
  _audit_creation_date              2014-09-24
  _audit_creation_method            'ToBaCCo'
  _symmetry_space_group_name_H-M    'P1'
  _symmetry_Int_Tables_number       1
  _symmetry_cell_setting            triclinic
  loop_
  _symmetry_equiv_pos_as_xyz
 x,y,z
_cell_length_a 20.8199
_cell_length_b 20.9950
_cell_length_c 49.4957
_cell_angle_alpha 92.359700
_cell_angle_beta 84.477700
_cell_angle_gamma 122.891500
loop_
  _atom_site_label
  _atom_site_type_symbol
  _atom_site_fract_x
  _atom_site_fract_y
  _atom_site_fract_z
C1 C -0.02783 0.01330 0.55346
 H2 H -0.01456 -0.02519 0.56116
 C3 C -0.01993 0.07224 0.56981
 H4 H -0.00260 0.07742 0.59015
 C5 C -0.05973 0.05823 0.51707
 H6 H -0.07213 0.05399 0.49611
 C7 C -0.05244 0.11841 0.53286
 H8 H -0.06046 0.15990 0.52422
 N9 N -0.04649 0.00773 0.52748
 C10 C 0.04782 -0.12362 0.52077
 H11 H 0.09335 -0.08736 0.50558
 C12 C 0.05467 -0.17341 0.53647
 H13 H 0.10597 -0.17503 0.53345
 C14 C -0.07524 -0.16693 0.54314
 H15 H -0.12584 -0.16410 0.54552
 C16 C -0.07018 -0.21602 0.55948
 H17 H -0.11649 -0.24983 0.57486
 Zn18 Zn -0.03562 -0.06026 0.50413
 N19 N -0.01649 -0.12133 0.52453
 C20 C 0.11345 0.05896 0.48533
 N21 N 0.04495 0.00079 0.47745
 C22 C 0.02833 -0.00600 0.45115
 C23 C 0.08023 0.04821 0.43181
 C24 C 0.16713 0.11502 0.46654
 C25 C -0.18759 -0.12546 0.48635
 C26 C -0.24656 -0.17556 0.47025
 C27 C -0.17434 -0.23185 0.45571
 C28 C -0.11775 -0.18157 0.47215
 N29 N -0.12419 -0.12859 0.48648
 H30 H 0.12436 0.06424 0.50650
 H31 H -0.02705 -0.05071 0.44527
 H32 H 0.06492 0.04368 0.41119
 H33 H 0.21996 0.16314 0.47315
 H34 H -0.19189 -0.08336 0.49824
 H35 H -0.29666 -0.17205 0.47095
 H36 H -0.16204 -0.26718 0.44262
 H37 H -0.06597 -0.18185 0.47234
 C38 C -0.00535 -0.22086 0.55595
 C39 C -0.03030 0.12655 0.55928
 C40 C -0.24097 -0.23038 0.45429
 C41 C 0.14958 0.11034 0.43959
 C42 C 1.07633 0.05119 0.11411
 H43 H 1.06049 0.09113 0.11042
 C44 C 1.13033 0.04833 0.09616
 H45 H 1.15509 0.08529 0.07841
 C46 C 1.06501 -0.04392 0.14217
 H47 H 1.04000 -0.07887 0.16035
 C48 C 1.11970 -0.04819 0.12472
 H49 H 1.13660 -0.08671 0.12942
 N50 N 1.04492 0.00567 0.13661
 C51 C 0.89999 0.09037 0.14378
 H52 H 0.92078 0.12638 0.16124
 C53 C 0.85416 0.09778 0.12684
 H54 H 0.83961 0.13963 0.13129
 C55 C 0.89152 -0.00959 0.11685
 H56 H 0.90557 -0.05201 0.11329
 C57 C 0.84704 -0.00320 0.09924
 H58 H 0.82773 -0.04019 0.08190
 Zn59 Zn 0.97819 0.02209 0.16024
 N60 N 0.91787 0.03742 0.13838
 C61 C 1.00762 0.11959 0.20507
 N62 N 1.03961 0.10789 0.18167
 C63 C 1.11698 0.14995 0.17529
 C64 C 1.16560 0.20405 0.19321
 C65 C 1.05442 0.17295 0.22373
 C66 C 0.83439 -0.10054 0.18131
 C67 C 0.78210 -0.15320 0.20110
 C68 C 0.88846 -0.12741 0.22567
 C69 C 0.93900 -0.07522 0.20529
 N70 N 0.91121 -0.06165 0.18395
 H71 H 0.94615 0.08440 0.20997
 H72 H 1.14180 0.13946 0.15688
 H73 H 1.22718 0.23488 0.18832
 H74 H 1.02872 0.17876 0.24299
 H75 H 0.81305 -0.08860 0.16447
 H76 H 0.72105 -0.18183 0.19925
 H77 H 0.91081 -0.13560 0.24316
 H78 H 1.00017 -0.04263 0.20720
 C79 C 0.82857 0.05149 0.10395
 C80 C 1.15268 -0.00159 0.10140
 C81 C 0.80905 -0.16519 0.22396
 C82 C 1.13455 0.21483 0.21801
 C83 C 0.11292 0.98601 0.86630
 H84 H 0.05517 0.93608 0.86802
 C85 C 0.16566 0.99456 0.88363
 H86 H 0.14818 0.95118 0.89885
 C87 C 0.20487 1.10398 0.84459
 H88 H 0.21939 1.14610 0.82927
 C89 C 0.26043 1.11413 0.86130
 H90 H 0.31803 1.16427 0.85881
 N91 N 0.13250 1.04096 0.84774
 C92 C -0.10322 0.97629 0.84482
 H93 H -0.11776 0.94967 0.82525
 C94 C -0.15695 0.98409 0.86145
 H95 H -0.21312 0.96207 0.85459
 C96 C -0.01036 1.04268 0.87645
 H97 H 0.04759 1.06810 0.88192
 C98 C -0.06139 1.05276 0.89333
 H99 H -0.04291 1.08203 0.91231
 Zn100 Zn 0.04974 1.01773 0.82782
 N101 N -0.03131 1.00601 0.85250
 C102 C -0.03705 0.85919 0.81227
 N103 N 0.02751 0.92982 0.80833
 C104 C 0.08640 0.94289 0.78997
 C105 C 0.08124 0.88458 0.77403
 C106 C -0.04388 0.79822 0.79704
 C107 C 0.09478 1.16570 0.81274
 C108 C 0.09421 1.21825 0.79638
 C109 C 0.04749 1.12503 0.76088
 C110 C 0.04890 1.07454 0.77778
 N111 N 0.07144 1.09511 0.80331
 H112 H -0.08254 0.84992 0.82737
 H113 H 0.13728 0.99954 0.78747
 H114 H 0.12770 0.89714 0.75879
 H115 H -0.09524 0.74206 0.80026
 H116 H 0.10985 1.17973 0.83342
 H117 H 0.10999 1.27330 0.80429
 H118 H 0.02661 1.10700 0.74099
 H119 H 0.02711 1.01734 0.77102
 C120 C -0.13493 1.02624 0.88550
 C121 C 0.24004 1.05967 0.88156
 C122 C 0.06854 1.19690 0.77042
 C123 C 0.01636 0.81073 0.77781
 C124 C 0.67349 0.05248 -0.03143
 C125 C 0.70011 0.05224 -0.00663
 C126 C 0.66058 0.05078 0.01806
 C127 C 0.58949 0.04464 0.01810
 C128 C 0.56275 0.04682 -0.00696
 C129 C 0.60584 0.05257 -0.03180
 C130 C 0.58119 0.05995 -0.05625
 C131 C 0.51505 0.06121 -0.05636
 C132 C 0.46953 0.05210 -0.03213
 C133 C 0.49331 0.04427 -0.00719
 C134 C 0.54502 0.03736 0.04241
 C135 C 0.47466 0.03050 0.04208
 C136 C 0.44810 0.03442 0.01754
 C137 C 0.37739 0.02859 0.01694
 C138 C 0.35556 0.03801 -0.00765
 C139 C 0.40135 0.05164 -0.03201
 H140 H 0.61374 0.06631 -0.07549
 H141 H 0.49967 0.06879 -0.07569
 H142 H 0.56369 0.03581 0.06189
 H143 H 0.44176 0.02323 0.06131
 H144 H 0.75340 0.05446 -0.00652
 H145 H 0.30199 0.03520 -0.00781
 C146 C 0.01743 0.34654 0.64055
 C147 C 0.02393 0.31934 0.66475
 C148 C 0.02612 0.35488 0.68942
 C149 C 0.01964 0.41851 0.69025
 C150 C 0.01584 0.44843 0.66570
 C151 C 0.01579 0.41289 0.64068
 C152 C 0.01538 0.44520 0.61647
 C153 C 0.01455 0.51108 0.61682
 C154 C 0.01147 0.54560 0.64146
 C155 C 0.01237 0.51412 0.66615
 C156 C 0.01647 0.45264 0.71492
 C157 C 0.01022 0.51543 0.71546
 C158 C 0.01016 0.54832 0.69127
 C159 C 0.00839 0.61482 0.69147
 C160 C 0.00668 0.64459 0.66698
 C161 C 0.00769 0.61094 0.64211
 H162 H 0.01687 0.42036 0.59700
 H163 H 0.01579 0.53442 0.59755
 H164 H 0.01804 0.43055 0.73406
 H165 H 0.00653 0.53865 0.73504
 H166 H 0.02672 0.26917 0.66440
 H167 H 0.00479 0.69526 0.66727
 C168 C 0.31744 0.36468 0.30793
 C169 C 0.28318 0.31812 0.33108
 C170 C 0.31578 0.34091 0.35584
 C171 C 0.38277 0.41368 0.35799
 C172 C 0.42050 0.45986 0.33440
 C173 C 0.38819 0.43507 0.30916
 C174 C 0.42766 0.48091 0.28590
 C175 C 0.49832 0.54926 0.28736
 C176 C 0.53127 0.57481 0.31221
 C177 C 0.49113 0.53050 0.33604
 C178 C 0.41284 0.44126 0.38311
 C179 C 0.48023 0.51196 0.38492
 C180 C 0.52170 0.55635 0.36152
 C181 C 0.59313 0.62585 0.36292
 C182 C 0.63263 0.66837 0.33921
 C183 C 0.60305 0.64376 0.31397
 H184 H 0.40468 0.46369 0.26632
 H185 H 0.52680 0.58216 0.26883
 H186 H 0.38413 0.40852 0.40165
 H187 H 0.50019 0.53082 0.40485
 H188 H 0.23058 0.26286 0.32973
 H189 H 0.68779 0.72124 0.34038
 C190 C -0.06279 0.25173 0.60721
 C191 C -0.07462 0.19804 0.58741
 C192 C -0.01331 0.19340 0.57577
 C193 C 0.06216 0.24741 0.58272
 C194 C 0.07406 0.30174 0.60288
 C195 C 0.01061 0.30204 0.61575
 C196 C 0.14930 0.35348 0.60981
 N197 N 0.20855 0.35095 0.59710
 N198 N 0.19749 0.30015 0.57802
 C199 C 0.12644 0.24833 0.57040
 H200 H -0.11182 0.25136 0.61702
 H201 H -0.13257 0.15707 0.58228
 H202 H 0.16153 0.39623 0.62503
 H203 H 0.12091 0.20884 0.55463
 C204 C 0.69451 0.67077 0.27352
 C205 C 0.74577 0.71780 0.25227
 C206 C 0.75412 0.78698 0.24680
 C207 C 0.70982 0.80920 0.26314
 C208 C 0.65741 0.76110 0.28462
 C209 C 0.65034 0.69174 0.28990
 C210 C 0.61392 0.78438 0.30035
 N211 N 0.62356 0.85205 0.29508
 N212 N 0.67376 0.89793 0.27522
 C213 C 0.71732 0.87902 0.25914
 H214 H 0.69020 0.61820 0.27758
 H215 H 0.77935 0.70022 0.24000
 H216 H 0.57233 0.74937 0.31673
 H217 H 0.75771 0.91904 0.24357
 C218 C 0.34550 0.00713 -0.07618
 C219 C 0.30693 0.00980 -0.09713
 C220 C 0.29433 0.06868 -0.09898
 C221 C 0.32546 0.12860 -0.08003
 C222 C 0.36699 0.12698 -0.05923
 C223 C 0.37437 0.06425 -0.05677
 C224 C 0.39822 0.18754 -0.04095
 N225 N 0.38624 0.24445 -0.04288
 N226 N 0.34497 0.24469 -0.06177
 C227 C 0.31377 0.18864 -0.08025
 H228 H 0.35000 -0.04155 -0.07440
 H229 H 0.28321 -0.03667 -0.11129
 H230 H 0.43208 0.19015 -0.02517
 H231 H 0.27987 0.19167 -0.09470
 C232 C 0.06751 0.72042 0.61028
 C233 C 0.06518 0.76078 0.58917
 C234 C 0.00092 0.72859 0.57419
 C235 C -0.06010 0.65209 0.57961
 C236 C -0.05916 0.61216 0.60184
 C237 C 0.00532 0.64699 0.61731
 C238 C -0.12374 0.53900 0.60813
 N239 N -0.18284 0.50659 0.59213
 N240 N -0.18200 0.54260 0.57045
 C241 C -0.12268 0.61402 0.56360
 H242 H 0.11710 0.74783 0.62197
 H243 H 0.11235 0.81904 0.58544
 H244 H -0.12772 0.50707 0.62550
 H245 H -0.12470 0.64009 0.54558
 C246 C 0.27985 0.27763 0.26910
 C247 C 0.23511 0.24118 0.24760
 C248 C 0.18611 0.26161 0.23920
 C249 C 0.18511 0.32267 0.25208
 C250 C 0.23057 0.35962 0.27410
 C251 C 0.27737 0.33594 0.28280
 C252 C 0.22669 0.41851 0.28699
 N253 N 0.18163 0.43990 0.27790
 N254 N 0.14015 0.40626 0.25691
 C255 C 0.14042 0.34852 0.24367
 H256 H 0.31493 0.25857 0.27570
 H257 H 0.23664 0.19459 0.23805
 H258 H 0.25934 0.44796 0.30406
 H259 H 0.10625 0.32387 0.22659
 C260 C 0.69153 -0.01375 -0.07117
 C261 C 0.73815 -0.01999 -0.09187
 C262 C 0.81469 0.04026 -0.09801
 C263 C 0.84019 0.11158 -0.08534
 C264 C 0.79273 0.11739 -0.06420
 C265 C 0.71924 0.05325 -0.05644
 C266 C 0.82001 0.18787 -0.05162
 N267 N 0.88923 0.24921 -0.06046
 N268 N 0.93260 0.24482 -0.08108
 C269 C 0.91025 0.17857 -0.09397
 H270 H 0.63483 -0.06298 -0.06557
 H271 H 0.71613 -0.07467 -0.10135
 H272 H 0.78625 0.19513 -0.03526
 H273 H 0.94667 0.17942 -0.11124
 C274 C 0.33964 0.07334 0.05879
 C275 C 0.28472 0.06578 0.07911
 C276 C 0.21221 -0.00197 0.08255
 C277 C 0.19621 -0.06467 0.06591
 C278 C 0.25261 -0.05713 0.04544
 C279 C 0.32384 0.01316 0.04145
 C280 C 0.23510 -0.11995 0.02905
 N281 N 0.16517 -0.18541 0.03273
 N282 N 0.11163 -0.19208 0.05158
 C283 C 0.12454 -0.13396 0.06817
 H284 H 0.39359 0.12761 0.05577
 H285 H 0.29769 0.11436 0.09157
 H286 H 0.27642 -0.11759 0.01341
 H287 H 0.07851 -0.14258 0.08284
 C288 C 0.63371 0.72067 0.39942
 C289 C 0.67122 0.75454 0.42263
 C290 C 0.70680 0.72511 0.43610
 C291 C 0.69280 0.65287 0.42745
 C292 C 0.65838 0.62102 0.40294
 C293 C 0.62929 0.65587 0.38878
 C294 C 0.65290 0.55412 0.39362
 N295 N 0.67267 0.51719 0.40935
 N296 N 0.69765 0.54279 0.43366
 C297 C 0.70720 0.60845 0.44340
 H298 H 0.61041 0.74710 0.38897
 H299 H 0.67834 0.80831 0.42807
 H300 H 0.63151 0.52993 0.37428
 H301 H 0.72502 0.62489 0.46369
 C302 C 0.10916 0.34073 0.71779
 C303 C 0.11983 0.30272 0.73757
 C304 C 0.05697 0.24591 0.75373
 C305 C -0.01750 0.23002 0.75099
 C306 C -0.02833 0.26852 0.73085
 C307 C 0.03546 0.32295 0.71377
 C308 C -0.10323 0.24966 0.72799
 N309 N -0.16293 0.19638 0.74458
 N310 N -0.15273 0.16055 0.76367
 C311 C -0.08217 0.17540 0.76742
 H312 H 0.15830 0.38192 0.70466
 H313 H 0.17693 0.31493 0.73934
 H314 H -0.11478 0.27696 0.71282
 H315 H -0.07719 0.14470 0.78326
 C316 C 0.66956 -0.00669 0.05916
 C317 C 0.71094 -0.00613 0.07977
 C318 C 0.78253 0.05874 0.08464
 C319 C 0.81116 0.12574 0.06911
 C320 C 0.76781 0.12562 0.04866
 C321 C 0.69786 0.05807 0.04311
 C322 C 0.79704 0.19295 0.03374
 N323 N 0.86622 0.25536 0.03849
 N324 N 0.90816 0.25484 0.05705
 C325 C 0.88335 0.19223 0.07237
 H326 H 0.61663 -0.05894 0.05493
 H327 H 0.68839 -0.05790 0.09133
 H328 H 0.76544 0.19653 0.01839
 H329 H 0.92078 0.19523 0.08671
 C330 C 0.20761 0.26842 0.39066
 C331 C 0.16795 0.21306 0.41092
 C332 C 0.19860 0.17335 0.41995
 C333 C 0.27156 0.19088 0.40863
 C334 C 0.31197 0.24722 0.38789
 C335 C 0.27914 0.28576 0.37882
 C336 C 0.38314 0.26157 0.37637
 N337 N 0.41178 0.22243 0.38531
 N338 N 0.37383 0.16958 0.40478
 C339 C 0.30462 0.15223 0.41666
 H340 H 0.18174 0.29716 0.38380
 H341 H 0.11200 0.19997 0.41934
 H342 H 0.41612 0.30318 0.36029
 H343 H 0.27602 0.10819 0.43214
 C344 C -0.05472 0.66144 0.72400
 C345 C -0.05369 0.70771 0.74518
 C346 C 0.01065 0.74923 0.76005
 C347 C 0.07287 0.73921 0.75456
 C348 C 0.07354 0.69529 0.73211
 C349 C 0.00900 0.65622 0.71668
 C350 C 0.13986 0.69356 0.72552
 N351 N 0.19879 0.72886 0.74158
 N352 N 0.19625 0.76640 0.76357
 C353 C 0.13534 0.77260 0.77065
 H354 H -0.10438 0.63211 0.71236
 H355 H -0.10184 0.71438 0.74896
 H356 H 0.14541 0.66429 0.70788
 H357 H 0.13607 0.80314 0.78887
   
