data_POSCAR
  _audit_creation_date              2014-09-24
  _audit_creation_method            'ToBaCCo'
  _symmetry_space_group_name_H-M    'P1'
  _symmetry_Int_Tables_number       1
  _symmetry_cell_setting            triclinic
  loop_
  _symmetry_equiv_pos_as_xyz
 x,y,z
_cell_length_a 25.3655
_cell_length_b 25.2039
_cell_length_c 25.0720
_cell_angle_alpha 89.850100
_cell_angle_beta 90.023400
_cell_angle_gamma 89.861700
loop_
  _atom_site_label
  _atom_site_type_symbol
  _atom_site_fract_x
  _atom_site_fract_y
  _atom_site_fract_z
N1 N 0.17038 1.28090 0.13642
 N2 N 0.13346 1.27989 0.17322
 C3 C 0.09820 1.31872 0.16304
 C4 C 0.11389 1.34513 0.11729
 C5 C 0.15998 1.32030 0.10161
 H6 H 0.06281 1.32605 0.18591
 H7 H 0.18314 1.32902 0.06646
 Cu8 Cu 0.13298 1.22517 0.22814
 Cu9 Cu 0.22677 1.22844 0.13354
 Cu10 Cu 0.22666 1.13059 0.23101
 N11 N 0.13335 1.17007 0.28267
 N12 N 0.17026 1.13335 0.28363
 C13 C 0.15988 1.09863 0.32311
 C14 C 0.11378 1.11427 0.34799
 C15 C 0.09808 1.15988 0.32153
 H16 H 0.18305 1.06357 0.33186
 H17 H 0.06272 1.18275 0.32894
 N18 N 0.28035 1.13458 0.17435
 N19 N 0.28045 1.17191 0.13729
 C20 C 0.31981 1.16203 0.10261
 C21 C 0.34549 1.11632 0.11857
 C22 C 0.31964 1.09999 0.16418
 H23 H 0.32802 1.18509 0.06717
 H24 H 0.32771 1.06441 0.18697
 H25 H 0.18537 1.16790 0.17038
 H26 H 0.22699 1.21072 0.21403
 N27 N 0.83137 0.72203 0.13284
 N28 N 0.87041 0.72538 0.16719
 C29 C 0.90423 0.68499 0.15881
 C30 C 0.88542 0.65502 0.11686
 C31 C 0.83905 0.67950 0.10140
 H32 H 0.94094 0.67911 0.17998
 H33 H 0.81430 0.66873 0.06802
 Cu34 Cu 0.87652 0.78469 0.21646
 Cu35 Cu 0.77787 0.77710 0.12701
 Cu36 Cu 0.77833 0.87435 0.22353
 N37 N 0.87122 0.83489 0.27519
 N38 N 0.83232 0.86933 0.27837
 C39 C 0.84040 0.90129 0.32051
 C40 C 0.88706 0.88620 0.34482
 C41 C 0.90538 0.84366 0.31533
 H42 H 0.81561 0.93460 0.33114
 H43 H 0.94190 0.82220 0.32135
 N44 N 0.72176 0.86807 0.17002
 N45 N 0.72164 0.83088 0.13299
 C46 C 0.68059 0.83933 0.09990
 C47 C 0.65389 0.88403 0.11681
 C48 C 0.68080 0.90112 0.16144
 H49 H 0.67209 0.81626 0.06464
 H50 H 0.67251 0.93648 0.18431
 H51 H 0.81775 0.83946 0.16099
 H52 H 0.78171 0.79421 0.20722
 N53 N 0.82683 1.28022 -0.13482
 N54 N 0.86398 1.27896 -0.17137
 C55 C 0.89900 1.31784 -0.16143
 C56 C 0.88284 1.34464 -0.11625
 C57 C 0.83690 1.31985 -0.10045
 H58 H 0.93456 1.32504 -0.18407
 H59 H 0.81361 1.32884 -0.06549
 Cu60 Cu 0.86449 1.22409 -0.22582
 Cu61 Cu 0.77037 1.22801 -0.13188
 Cu62 Cu 0.77086 1.13033 -0.22917
 N63 N 0.86457 1.16938 -0.28044
 N64 N 0.82759 1.13290 -0.28150
 C65 C 0.83799 1.09838 -0.32101
 C66 C 0.88411 1.11392 -0.34585
 C67 C 0.89984 1.15929 -0.31933
 H68 H 0.81474 1.06357 -0.32986
 H69 H 0.93520 1.18204 -0.32673
 N70 N 0.71688 1.13451 -0.17276
 N71 N 0.71671 1.17167 -0.13571
 C72 C 0.67720 1.16188 -0.10118
 C73 C 0.65146 1.11644 -0.11726
 C74 C 0.67746 1.10016 -0.16275
 H75 H 0.66889 1.18483 -0.06579
 H76 H 0.66940 1.06474 -0.18556
 H77 H 0.81153 1.16722 -0.16827
 H78 H 0.77037 1.21044 -0.21226
 N79 N 0.17147 0.71710 -0.13402
 N80 N 0.13438 0.71837 -0.17070
 C81 C 0.09947 0.67935 -0.16080
 C82 C 0.11566 0.65237 -0.11559
 C83 C 0.16149 0.67724 -0.09967
 H84 H 0.06402 0.67208 -0.18358
 H85 H 0.18474 0.66815 -0.06464
 Cu86 Cu 0.13389 0.77326 -0.22538
 Cu87 Cu 0.22763 0.76969 -0.13094
 Cu88 Cu 0.22692 0.86748 -0.22871
 N89 N 0.13342 0.82818 -0.28006
 N90 N 0.17029 0.86477 -0.28118
 C91 C 0.15973 0.89943 -0.32071
 C92 C 0.11361 0.88387 -0.34551
 C93 C 0.09804 0.83835 -0.31892
 H94 H 0.18286 0.93435 -0.32959
 H95 H 0.06272 0.81553 -0.32626
 N96 N 0.28078 0.86350 -0.17212
 N97 N 0.28095 0.82642 -0.13478
 C98 C 0.32024 0.83652 -0.10010
 C99 C 0.34581 0.88206 -0.11639
 C100 C 0.31997 0.89807 -0.16216
 H101 H 0.32850 0.81368 -0.06449
 H102 H 0.32796 0.93347 -0.18520
 H103 H 0.18625 0.83032 -0.16769
 H104 H 0.22782 0.78735 -0.21125
 C105 C 0.49847 0.99968 0.00050
 C106 C -0.00068 0.49797 1.00133
 C107 C 0.99890 -0.00083 0.50099
 N108 N 0.04051 0.40439 1.10918
 C109 C 0.08706 0.38543 1.09039
 N110 N 0.10597 0.40489 1.04365
 N111 N 0.07921 0.44162 1.01655
 C112 C 0.03282 0.46107 1.03546
 N113 N 0.01378 0.44121 1.08209
 N114 N -0.03912 0.59479 1.10656
 C115 C -0.08734 0.61122 1.08974
 N116 N -0.10840 0.58891 1.04542
 N117 N -0.08208 0.55170 1.01871
 C118 C -0.03391 0.53480 1.03562
 N119 N -0.01281 0.55757 1.07986
 N120 N -0.04267 0.40602 0.89300
 C121 C -0.08890 0.38683 0.91214
 N122 N -0.10733 0.40540 0.95934
 N123 N -0.08047 0.44175 0.98650
 C124 C -0.03448 0.46165 0.96718
 N125 N -0.01584 0.44245 0.92014
 N126 N 0.10693 0.58933 0.95859
 C127 C 0.08746 0.60984 0.91252
 N128 N 0.04025 0.59231 0.89432
 N129 N 0.01341 0.55567 0.92131
 C130 C 0.03303 0.53453 0.96719
 N131 N 0.08010 0.55268 0.98556
 N132 N 1.04014 0.10615 0.40688
 C133 C 1.08696 0.08758 0.38840
 N134 N 1.10610 0.04131 0.40844
 N135 N 1.07930 0.01446 0.44530
 C136 C 1.03262 0.03315 0.46426
 N137 N 1.01334 0.07929 0.44375
 N138 N 1.04014 -0.10800 0.59517
 C139 C 1.08675 -0.08941 0.61400
 N140 N 1.10570 -0.04305 0.59421
 N141 N 1.07892 -0.01612 0.55729
 C142 C 1.03246 -0.03482 0.53798
 N143 N 1.01338 -0.08108 0.55818
 N144 N 0.89175 -0.04402 0.40896
 C145 C 0.91277 -0.08828 0.38661
 N146 N 0.96066 -0.10547 0.40372
 N147 N 0.98676 -0.07910 0.44133
 C148 C 0.96575 -0.03485 0.46395
 N149 N 0.91787 -0.01764 0.44655
 N150 N 0.89192 0.04106 0.59391
 C151 C 0.91088 0.08734 0.61368
 N152 N 0.95748 0.10600 0.59485
 N153 N 0.98421 0.07925 0.55789
 C154 C 0.96510 0.03311 0.53765
 N155 N 0.91868 0.01429 0.55701
 N156 N 0.40616 1.04099 0.10855
 C157 C 0.38755 1.08805 0.08999
 N158 N 0.40655 1.10725 0.04320
 N159 N 0.44281 1.08032 0.01593
 C160 C 0.46206 1.03343 0.03468
 N161 N 0.44242 1.01406 0.08127
 N162 N 0.59039 1.10711 -0.04193
 C163 C 0.60923 1.08830 -0.08887
 N164 N 0.59037 1.04164 -0.10773
 N165 N 0.55407 1.01470 -0.08056
 C166 C 0.53462 1.03368 -0.03377
 N167 N 0.55409 1.08017 -0.01475
 N168 N 0.40653 0.89205 -0.04083
 C169 C 0.38778 0.91054 -0.08806
 N170 N 0.40655 0.95715 -0.10734
 N171 N 0.44274 0.98432 -0.08036
 C172 C 0.46213 0.96564 -0.03333
 N173 N 0.44271 0.91922 -0.01385
 N174 N 0.59165 0.89268 0.04230
 C175 C 0.61074 0.91162 0.08906
 N176 N 0.59162 0.95822 0.10802
 N177 N 0.55483 0.98497 0.08113
 C178 C 0.53519 0.96589 0.03450
 N179 N 0.55487 0.91943 0.01540
   
