data_POSCAR
  _audit_creation_date              2014-09-24
  _audit_creation_method            'ToBaCCo'
  _symmetry_space_group_name_H-M    'P1'
  _symmetry_Int_Tables_number       1
  _symmetry_cell_setting            triclinic
  loop_
  _symmetry_equiv_pos_as_xyz
 x,y,z
_cell_length_a 32.2493
_cell_length_b 32.7013
_cell_length_c 27.0586
_cell_angle_alpha 91.244300
_cell_angle_beta 91.069700
_cell_angle_gamma 88.983300
loop_
  _atom_site_label
  _atom_site_type_symbol
  _atom_site_fract_x
  _atom_site_fract_y
  _atom_site_fract_z
C1 C 1.21695 0.21535 0.22580
 C2 C 1.23990 0.24632 0.19465
 C3 C 1.26904 0.26796 0.22101
 C4 C 1.27211 0.25714 0.27629
 C5 C 1.25159 0.18918 0.24945
 C6 C 1.28052 0.21067 0.27609
 C7 C 1.19920 0.24099 0.26836
 C8 C 1.22753 0.26360 0.29418
 H9 H 1.23453 0.24994 0.15536
 H10 H 1.29511 0.27503 0.29837
 H11 H 1.25307 0.15621 0.24484
 H12 H 1.16609 0.24609 0.27224
 C13 C 0.72395 -0.28162 0.20357
 C14 C 0.75322 -0.25362 0.17661
 C15 C 0.77469 -0.22765 0.20715
 C16 C 0.76503 -0.23214 0.26233
 C17 C 0.75163 -0.30337 0.24156
 C18 C 0.77307 -0.27770 0.27220
 C19 C 0.69632 -0.25303 0.23490
 C20 C 0.71750 -0.22713 0.26573
 H21 H 0.75667 -0.25445 0.13685
 H22 H 0.78300 -0.21167 0.28759
 H23 H 0.75470 -0.33633 0.24374
 H24 H 0.66276 -0.25416 0.23370
 C25 C 0.72908 0.24861 -0.28753
 C26 C 0.74886 0.28236 -0.31133
 C27 C 0.77654 0.30504 -0.27930
 C28 C 0.77749 0.29042 -0.22828
 C29 C 0.76331 0.22444 -0.26618
 C30 C 0.78954 0.24698 -0.23211
 C31 C 0.70825 0.26655 -0.24509
 C32 C 0.73420 0.29107 -0.21325
 H33 H 0.74587 0.28754 -0.35070
 H34 H 0.79736 0.30822 -0.20270
 H35 H 0.76693 0.19171 -0.27200
 H36 H 0.67502 0.26446 -0.24034
 C37 C 1.23402 -0.28108 -0.29386
 C38 C 1.26664 -0.25374 -0.31563
 C39 C 1.28563 -0.22841 -0.28205
 C40 C 1.27001 -0.23300 -0.22878
 C41 C 1.25680 -0.30373 -0.25246
 C42 C 1.27542 -0.27890 -0.21831
 C43 C 1.20394 -0.25204 -0.26668
 C44 C 1.22248 -0.22689 -0.23257
 H45 H 1.27378 -0.25435 -0.35461
 H46 H 1.28542 -0.21310 -0.20055
 H47 H 1.25827 -0.33675 -0.25015
 H48 H 1.17064 -0.25248 -0.27275
 C49 C 0.20460 0.23233 0.77416
 C50 C 0.22813 0.26256 0.80269
 C51 C 0.26232 0.27926 0.77707
 C52 C 0.26630 0.26240 0.72676
 C53 C 0.19170 0.25390 0.72618
 C54 C 0.22381 0.27048 0.70213
 C55 C 0.23695 0.20020 0.75693
 C56 C 0.26964 0.21569 0.73228
 H57 H 0.22013 0.27198 0.84000
 H58 H 0.29120 0.27447 0.70406
 H59 H 0.16002 0.25996 0.71459
 H60 H 0.23292 0.16785 0.76232
 C61 C 0.71755 0.70645 0.79822
 C62 C 0.75160 0.73060 0.81885
 C63 C 0.77502 0.75146 0.78259
 C64 C 0.75991 0.74282 0.73165
 C65 C 0.69267 0.73433 0.76771
 C66 C 0.71565 0.75499 0.73110
 C67 C 0.73658 0.67858 0.76247
 C68 C 0.75974 0.69796 0.72558
 H69 H 0.75727 0.73433 0.85829
 H70 H 0.77832 0.75653 0.70247
 H71 H 0.65935 0.73798 0.77078
 H72 H 0.73587 0.64563 0.76499
 C73 C 0.71375 0.23313 0.28699
 C74 C 0.74050 0.26554 0.31325
 C75 C 0.76973 0.28186 0.28419
 C76 C 0.76959 0.26434 0.23085
 C77 C 0.69588 0.25426 0.24107
 C78 C 0.72488 0.27146 0.21257
 C79 C 0.74490 0.20170 0.26560
 C80 C 0.77429 0.21767 0.23609
 H81 H 0.73631 0.27492 0.35150
 H82 H 0.79261 0.27768 0.20617
 H83 H 0.66307 0.25840 0.23343
 H84 H 0.74178 0.16921 0.27089
 C85 C 0.22470 0.72987 0.29348
 C86 C 0.25643 0.75811 0.31826
 C87 C 0.27666 0.78200 0.28628
 C88 C 0.26298 0.77555 0.23174
 C89 C 0.19565 0.75774 0.26343
 C90 C 0.21536 0.78173 0.23118
 C91 C 0.24897 0.70581 0.25438
 C92 C 0.26896 0.72933 0.22220
 H93 H 0.26285 0.75846 0.35772
 H94 H 0.27952 0.79440 0.20506
 H95 H 0.16221 0.75767 0.26659
 H96 H 0.25149 0.67273 0.25302
 O97 O 1.06553 -0.05462 0.08280
 O98 O 1.02980 -0.10322 0.03758
 C99 C 1.05698 -0.09219 0.07121
 O100 O 0.91323 0.05578 0.07084
 O101 O 0.95040 0.10154 0.02695
 C102 C 0.92224 0.09267 0.05894
 O103 O 0.91992 -0.05668 0.07728
 O104 O 0.95815 -0.10420 0.03298
 C105 C 0.93058 -0.09409 0.06576
 O106 O 1.06426 0.05778 0.07675
 O107 O 1.02633 0.10255 0.02871
 C108 C 1.05461 0.09427 0.06232
 Zr109 Zr 1.04136 0.00052 0.05456
 O110 O 1.03366 0.00589 0.13205
 O111 O 1.10642 0.00275 0.06602
 Zr112 Zr 0.93799 -0.00089 0.04702
 O113 O 0.92974 0.00150 0.12445
 O114 O 0.87317 -0.00273 0.03441
 O115 O 0.99057 -0.03676 0.06173
 O116 O 0.98848 0.03644 0.05874
 O117 O 1.07183 0.05179 -0.08882
 O118 O 1.02896 0.09971 -0.05167
 C119 C 1.06117 0.08920 -0.07773
 O120 O 0.92315 -0.06452 -0.10372
 O121 O 0.95943 -0.10771 -0.05203
 C122 C 0.93253 -0.10075 -0.08753
 O123 O 0.91801 0.04853 -0.10494
 O124 O 0.95335 0.09806 -0.06080
 C125 C 0.92685 0.08634 -0.09512
 O126 O 1.07024 -0.06062 -0.09370
 O127 O 1.03293 -0.10615 -0.04958
 C128 C 1.06133 -0.09735 -0.08114
 Zr129 Zr 1.04552 -0.00405 -0.06974
 O130 O 1.04164 -0.00450 -0.14781
 O131 O 1.11111 -0.00669 -0.07047
 Zr132 Zr 0.94235 -0.00612 -0.07691
 O133 O 0.94714 -0.00605 -0.15487
 O134 O 0.87697 -0.01012 -0.08214
 Zr135 Zr 0.99396 -0.06455 -0.00930
 Zr136 Zr 0.98993 0.05975 -0.01312
 O137 O 0.99329 0.03107 -0.08343
 O138 O 0.99559 -0.04267 -0.08187
 O139 O 1.05056 0.03453 -0.00801
 O140 O 0.93354 -0.03934 -0.01404
 O141 O 1.05251 -0.03721 -0.00613
 O142 O 0.93065 0.03339 -0.01669
 H143 H 0.98779 0.05605 0.08714
 H144 H 0.90932 -0.05758 -0.01460
 H145 H 0.99462 0.04858 -0.11279
 H146 H 1.07787 -0.05466 -0.00451
 H147 H 0.86054 -0.00338 0.06748
 H148 H 0.86523 0.01027 -0.05848
 H149 H 0.96569 -0.02916 -0.16463
 H150 H 1.07057 -0.00323 -0.15928
 H151 H 1.12106 0.00844 -0.04062
 H152 H 1.11971 -0.01257 0.03856
 H153 H 1.02154 -0.01982 0.14336
 H154 H 0.95465 0.01409 0.13960
 O155 O 1.07246 0.56467 0.58310
 O156 O 1.11387 0.52591 0.53126
 C157 C 1.10820 0.55267 0.56662
 O158 O 0.94612 0.42987 0.57306
 O159 O 0.90044 0.47407 0.53436
 C160 C 0.90910 0.44398 0.56355
 O161 O 1.06036 0.41931 0.56706
 O162 O 1.10793 0.45461 0.52314
 C163 C 1.09761 0.42534 0.55194
 O164 O 0.95913 0.58240 0.58188
 O165 O 0.90688 0.54870 0.54002
 C166 C 0.92042 0.57718 0.57032
 Zr167 Zr 1.01227 0.54993 0.55852
 O168 O 1.01255 0.53928 0.63525
 O169 O 1.02100 0.61326 0.57122
 Zr170 Zr 1.00393 0.44874 0.54815
 O171 O 1.00547 0.44810 0.62643
 O172 O 1.00031 0.38424 0.54434
 O173 O 1.04622 0.49532 0.56108
 O174 O 0.97170 0.50251 0.56431
 O175 O 0.94939 0.58819 0.41879
 O176 O 0.90212 0.54971 0.45893
 C177 C 0.91188 0.57983 0.43125
 O178 O 1.05319 0.43403 0.38997
 O179 O 1.10458 0.46145 0.43958
 C180 C 1.09182 0.43892 0.40250
 O181 O 0.93906 0.43813 0.40108
 O182 O 0.89677 0.47632 0.45225
 C183 C 0.90296 0.44899 0.41724
 O184 O 1.06382 0.57520 0.40875
 O185 O 1.10952 0.53060 0.44670
 C186 C 1.10081 0.56146 0.41883
 Zr187 Zr 1.00598 0.55732 0.43450
 O188 O 0.99824 0.56078 0.35677
 O189 O 1.01245 0.62135 0.44296
 Zr190 Zr 0.99841 0.45579 0.42378
 O191 O 0.99020 0.45973 0.34620
 O192 O 0.99595 0.39120 0.42039
 Zr193 Zr 1.06732 0.49712 0.48794
 Zr194 Zr 0.94285 0.50839 0.49444
 O195 O 0.96525 0.51021 0.42205
 O196 O 1.03908 0.50387 0.41751
 O197 O 0.97328 0.56481 0.49915
 O198 O 1.03618 0.44117 0.48297
 O199 O 1.04550 0.55793 0.49537
 O200 O 0.96380 0.44731 0.48699
 H201 H 0.95392 0.50363 0.59383
 H202 H 1.05195 0.41515 0.47829
 H203 H 0.94514 0.51342 0.39420
 H204 H 1.06496 0.58104 0.49720
 H205 H 0.98458 0.37723 0.51367
 H206 H 0.99453 0.38334 0.38481
 H207 H 1.01176 0.47802 0.33424
 H208 H 1.02258 0.54710 0.34148
 H209 H 1.01136 0.63261 0.40922
 H210 H 1.01410 0.62672 0.53964
 H211 H 1.01469 0.56657 0.65162
 H212 H 1.03237 0.45936 0.63787
 O213 O 0.58166 -0.06184 0.59835
 O214 O 0.54057 -0.10511 0.55174
 C215 C 0.56946 -0.09800 0.58485
 O216 O 0.43445 0.05824 0.59992
 O217 O 0.47330 0.10419 0.55827
 C218 C 0.44423 0.09518 0.58910
 O219 O 0.43574 -0.05496 0.59909
 O220 O 0.46943 -0.10158 0.54844
 C221 C 0.44356 -0.09208 0.58343
 O222 O 0.59078 0.04989 0.59618
 O223 O 0.55269 0.10029 0.55771
 C224 C 0.58382 0.08773 0.58538
 Zr225 Zr 0.56015 -0.00362 0.57580
 O226 O 0.55282 0.00008 0.65344
 O227 O 0.62483 -0.00984 0.58804
 Zr228 Zr 0.45739 0.00153 0.57395
 O229 O 0.46236 0.00183 0.65205
 O230 O 0.39176 0.00287 0.57008
 O231 O 0.50763 -0.03843 0.58237
 O232 O 0.51020 0.03580 0.58553
 O233 O 0.58887 0.05384 0.43450
 O234 O 0.55041 0.10218 0.47739
 C235 C 0.58074 0.09119 0.44851
 O236 O 0.43456 -0.05150 0.41783
 O237 O 0.47019 -0.09983 0.46293
 C238 C 0.44317 -0.08907 0.42920
 O239 O 0.43458 0.06109 0.42728
 O240 O 0.47346 0.10564 0.47510
 C241 C 0.44492 0.09762 0.44147
 O242 O 0.58017 -0.05831 0.42205
 O243 O 0.54204 -0.10381 0.46530
 C244 C 0.56966 -0.09508 0.43280
 Zr245 Zr 0.56016 -0.00130 0.45079
 O246 O 0.55334 0.00268 0.37322
 O247 O 0.62532 -0.00778 0.44536
 Zr248 Zr 0.45705 0.00366 0.44925
 O249 O 0.45861 0.00866 0.37139
 O250 O 0.39142 0.00363 0.44790
 Zr251 Zr 0.50701 -0.06151 0.50909
 Zr252 Zr 0.51085 0.06241 0.51549
 O253 O 0.50992 0.03790 0.44293
 O254 O 0.50751 -0.03577 0.43839
 O255 O 0.56969 0.03297 0.51524
 O256 O 0.44830 -0.03260 0.50963
 O257 O 0.56726 -0.03807 0.51157
 O258 O 0.45019 0.03954 0.51332
 H259 H 0.51143 0.05460 0.61474
 H260 H 0.42302 -0.04940 0.50826
 H261 H 0.51090 0.05717 0.41521
 H262 H 0.59166 -0.05689 0.51106
 H263 H 0.38175 0.00170 0.60441
 H264 H 0.38212 0.02057 0.47648
 H265 H 0.47619 -0.01410 0.35844
 H266 H 0.58184 0.00223 0.36017
 H267 H 0.63758 0.00541 0.47530
 H268 H 0.63759 -0.01095 0.55512
 H269 H 0.54263 -0.02664 0.66413
 H270 H 0.43375 0.00277 0.66474
 O271 O 0.55174 0.55865 0.09986
 O272 O 0.59497 0.51986 0.05014
 C273 C 0.58808 0.54740 0.08436
 O274 O 0.42980 0.41741 0.08712
 O275 O 0.38278 0.46030 0.04879
 C276 C 0.39229 0.42962 0.07709
 O277 O 0.54364 0.41160 0.08568
 O278 O 0.59109 0.44802 0.04311
 C279 C 0.58095 0.41834 0.07134
 O280 O 0.43711 0.57259 0.09527
 O281 O 0.38690 0.53555 0.05406
 C282 C 0.39877 0.56510 0.08349
 Zr283 Zr 0.49214 0.54097 0.07543
 O284 O 0.49160 0.52934 0.15189
 O285 O 0.49786 0.60402 0.09270
 Zr286 Zr 0.48688 0.44020 0.06648
 O287 O 0.48681 0.44369 0.14475
 O288 O 0.48518 0.37578 0.07014
 O289 O 0.52791 0.48762 0.07940
 O290 O 0.45243 0.49274 0.08092
 O291 O 0.43202 0.57785 -0.06439
 O292 O 0.38411 0.53867 -0.02618
 C293 C 0.39439 0.56943 -0.05277
 O294 O 0.53763 0.42145 -0.08778
 O295 O 0.58822 0.45161 -0.03943
 C296 C 0.57584 0.42574 -0.07344
 O297 O 0.42405 0.42685 -0.08286
 O298 O 0.38012 0.46416 -0.03289
 C299 C 0.38747 0.43711 -0.06776
 O300 O 0.54619 0.56696 -0.07354
 O301 O 0.59218 0.52381 -0.03357
 C302 C 0.58344 0.55410 -0.06253
 Zr303 Zr 0.48836 0.54691 -0.04930
 O304 O 0.48373 0.54368 -0.12725
 O305 O 0.49428 0.61120 -0.05047
 Zr306 Zr 0.48266 0.44599 -0.05886
 O307 O 0.47699 0.45396 -0.13621
 O308 O 0.48182 0.38167 -0.06932
 Zr309 Zr 0.54996 0.48908 0.00643
 Zr310 Zr 0.42486 0.49712 0.01007
 O311 O 0.44815 0.49942 -0.06191
 O312 O 0.52313 0.49432 -0.06486
 O313 O 0.45432 0.55431 0.01466
 O314 O 0.51945 0.43261 0.00190
 O315 O 0.52625 0.54938 0.01276
 O316 O 0.44792 0.43665 0.00404
 H317 H 0.43374 0.49320 0.10961
 H318 H 0.53483 0.40625 -0.00133
 H319 H 0.42810 0.50231 -0.08989
 H320 H 0.54479 0.57321 0.01431
 H321 H 0.48268 0.36531 0.03572
 H322 H 0.46326 0.37074 -0.04427
 H323 H 0.50284 0.46642 -0.14742
 H324 H 0.48371 0.57236 -0.13830
 H325 H 0.48277 0.62219 -0.01918
 H326 H 0.50120 0.61792 0.06101
 H327 H 0.49120 0.55651 0.16875
 H328 H 0.51547 0.44937 0.15638
 C329 C 1.13824 0.17646 0.13120
 C330 C 1.12138 0.14402 0.15673
 N331 N 1.13493 0.13590 0.20321
 C332 C 1.16508 0.15848 0.22546
 C333 C 1.18348 0.19026 0.19982
 N334 N 1.16912 0.19886 0.15316
 N335 N 1.12398 0.18423 0.08452
 C336 C 1.09436 0.16042 0.06202
 C337 C 1.07890 0.12684 0.08707
 N338 N 1.09283 0.11996 0.13398
 H339 H 1.17490 0.15151 0.26285
 H340 H 1.08476 0.16624 0.02424
 C341 C 1.19522 0.62456 0.64124
 C342 C 1.16793 0.64136 0.60595
 N343 N 1.16509 0.68250 0.60102
 C344 C 1.18756 0.70789 0.63097
 C345 C 1.21311 0.69138 0.66842
 N346 N 1.21689 0.64993 0.67185
 N347 N 1.19726 0.58333 0.64675
 C348 C 1.17208 0.55819 0.61952
 C349 C 1.14319 0.57538 0.58634
 N350 N 1.14222 0.61647 0.57998
 H351 H 1.18430 0.74066 0.62699
 H352 H 1.17275 0.52562 0.62595
 C353 C 0.67781 0.16287 0.64710
 C354 C 0.64054 0.18109 0.63009
 N355 N 0.63488 0.22211 0.63659
 C356 C 0.66416 0.24526 0.66047
 C357 C 0.70057 0.22643 0.68027
 N358 N 0.70634 0.18564 0.67179
 N359 N 0.68431 0.12228 0.64081
 C360 C 0.65487 0.09856 0.61945
 C361 C 0.61631 0.11585 0.60435
 N362 N 0.61027 0.15719 0.60915
 H363 H 0.65837 0.27774 0.66595
 H364 H 0.66157 0.06616 0.61516
 C365 C 0.67920 0.62263 0.14794
 C366 C 0.64703 0.63868 0.11832
 N367 N 0.64287 0.67972 0.11317
 C368 C 0.66882 0.70572 0.13766
 C369 C 0.69946 0.69002 0.16999
 N370 N 0.70434 0.64863 0.17349
 N371 N 0.68323 0.58142 0.15286
 C372 C 0.65574 0.55557 0.13032
 C373 C 0.62231 0.57198 0.10299
 N374 N 0.61910 0.61309 0.09726
 H375 H 0.66441 0.73839 0.13375
 H376 H 0.65879 0.52293 0.13558
 C377 C 0.85740 -0.18330 0.13175
 C378 C 0.85805 -0.14291 0.15015
 N379 N 0.83297 -0.13145 0.18789
 C380 C 0.80685 -0.15849 0.20785
 C381 C 0.80491 -0.19860 0.18847
 N382 N 0.83050 -0.21010 0.15082
 N383 N 0.88315 -0.19479 0.09454
 C384 C 0.90887 -0.16742 0.07415
 C385 C 0.90804 -0.12638 0.09086
 N386 N 0.88280 -0.11543 0.12895
 H387 H 0.78679 -0.14830 0.23733
 H388 H 0.92881 -0.17736 0.04437
 C389 C 0.81916 0.37662 0.63471
 C390 C 0.85605 0.38768 0.65911
 N391 N 0.86470 0.37369 0.70496
 C392 C 0.83847 0.34830 0.72745
 C393 C 0.80226 0.33509 0.70211
 N394 N 0.79359 0.35020 0.65636
 N395 N 0.81044 0.39102 0.58886
 C396 C 0.83765 0.41528 0.56586
 C397 C 0.87570 0.42430 0.58924
 N398 N 0.88370 0.41057 0.63556
 H399 H 0.84774 0.33696 0.76320
 H400 H 0.83063 0.42560 0.52892
 C401 C 0.36807 -0.18215 0.64393
 C402 C 0.37312 -0.14413 0.66792
 N403 N 0.35152 -0.13518 0.70951
 C404 C 0.32451 -0.16232 0.72784
 C405 C 0.31802 -0.19985 0.70280
 N406 N 0.34042 -0.20882 0.66152
 N407 N 0.38986 -0.19123 0.60251
 C408 C 0.41600 -0.16366 0.58341
 C409 C 0.41988 -0.12480 0.60616
 N410 N 0.39843 -0.11624 0.64824
 H411 H 0.30725 -0.15387 0.76043
 H412 H 0.43241 -0.17151 0.54991
 C413 C 0.30668 0.35131 0.14204
 C414 C 0.34790 0.35397 0.15880
 N415 N 0.36235 0.32921 0.19494
 C416 C 0.33738 0.30160 0.21545
 C417 C 0.29608 0.29821 0.19874
 N418 N 0.28158 0.32322 0.16214
 N419 N 0.29280 0.37661 0.10565
 C420 C 0.31860 0.40393 0.08485
 C421 C 0.36030 0.40548 0.10077
 N422 N 0.37340 0.38049 0.13766
 H423 H 0.35007 0.28187 0.24375
 H424 H 0.30705 0.42321 0.05549
 C425 C 0.85717 0.16459 -0.18868
 C426 C 0.87384 0.18055 -0.14421
 N427 N 0.86443 0.21996 -0.13095
 C428 C 0.83865 0.24364 -0.15958
 C429 C 0.82021 0.22674 -0.20316
 N430 N 0.83080 0.18763 -0.21624
 N431 N 0.86626 0.12574 -0.20305
 C432 C 0.89039 0.10141 -0.17432
 C433 C 0.90563 0.11604 -0.12812
 N434 N 0.89757 0.15585 -0.11434
 H435 H 0.83132 0.27432 -0.14664
 H436 H 0.89671 0.07038 -0.18715
 C437 C 0.81879 0.65078 0.36194
 C438 C 0.85927 0.66535 0.36735
 N439 N 0.86944 0.70095 0.34598
 C440 C 0.84115 0.72203 0.31808
 C441 C 0.80144 0.70603 0.31014
 N442 N 0.79112 0.67108 0.33297
 N443 N 0.80857 0.61510 0.38288
 C444 C 0.83743 0.59262 0.40805
 C445 C 0.87859 0.60594 0.41113
 N446 N 0.88834 0.64237 0.39123
 H447 H 0.85038 0.74948 0.29987
 H448 H 0.82870 0.56379 0.42341
 C449 C 0.36418 0.18055 0.36740
 C450 C 0.38044 0.14538 0.34386
 N451 N 0.36644 0.13429 0.29812
 C452 C 0.33591 0.15606 0.27505
 C453 C 0.31762 0.19030 0.29904
 N454 N 0.33290 0.20233 0.34459
 N455 N 0.37842 0.19075 0.41380
 C456 C 0.40724 0.16676 0.43795
 C457 C 0.42180 0.13036 0.41507
 N458 N 0.40814 0.12126 0.36826
 H459 H 0.32549 0.14617 0.23854
 H460 H 0.41678 0.17475 0.47539
 C461 C 0.30840 0.64581 -0.12561
 C462 C 0.34795 0.65974 -0.11234
 N463 N 0.36085 0.69623 -0.12893
 C464 C 0.33642 0.71885 -0.15987
 C465 C 0.29807 0.70350 -0.17608
 N466 N 0.28470 0.66769 -0.15764
 N467 N 0.29583 0.60893 -0.10981
 C468 C 0.32173 0.58458 -0.08262
 C469 C 0.36238 0.59727 -0.07231
 N470 N 0.37411 0.63496 -0.08668
 H471 H 0.34810 0.74694 -0.17430
 H472 H 0.31155 0.55474 -0.07188
 C473 C 1.13573 -0.18468 -0.15707
 C474 C 1.15079 -0.14613 -0.14327
 N475 N 1.18927 -0.13525 -0.15692
 C476 C 1.21344 -0.16111 -0.18439
 C477 C 1.19810 -0.19927 -0.19990
 N478 N 1.15949 -0.21021 -0.18555
 N479 N 1.09725 -0.19546 -0.14270
 C480 C 1.07287 -0.16902 -0.11584
 C481 C 1.08735 -0.12971 -0.10391
 N482 N 1.12618 -0.11958 -0.11777
 H483 H 1.24368 -0.15132 -0.19529
 H484 H 1.04205 -0.17793 -0.10573
 C485 C 1.16620 0.35720 0.32071
 C486 C 1.17629 0.36562 0.37054
 N487 N 1.20612 0.34250 0.39350
 C488 C 1.22539 0.31069 0.36917
 C489 C 1.21338 0.30103 0.32024
 N490 N 1.18460 0.32512 0.29715
 N491 N 1.13590 0.37916 0.29763
 C492 C 1.11394 0.40835 0.32259
 C493 C 1.12213 0.41547 0.37319
 N494 N 1.15377 0.39443 0.39595
 H495 H 1.24825 0.29201 0.38843
 H496 H 1.08890 0.42448 0.30369
 C497 C 0.63621 -0.18318 0.34830
 C498 C 0.65366 -0.14580 0.36272
 N499 N 0.69198 -0.13629 0.34721
 C500 C 0.71369 -0.16234 0.31723
 C501 C 0.69593 -0.19930 0.30105
 N502 N 0.65750 -0.20889 0.31739
 N503 N 0.59790 -0.19262 0.36457
 C504 C 0.57601 -0.16592 0.39400
 C505 C 0.59290 -0.12773 0.40668
 N506 N 0.63151 -0.11897 0.39085
 H507 H 0.74390 -0.15353 0.30520
 H508 H 0.54528 -0.17374 0.40569
 C509 C 0.65354 0.33654 -0.13888
 C510 C 0.67069 0.37368 -0.12255
 N511 N 0.71122 0.38083 -0.13186
 C512 C 0.73467 0.35317 -0.15826
 C513 C 0.71614 0.31722 -0.17762
 N514 N 0.67636 0.30992 -0.16583
 N515 N 0.61338 0.32864 -0.13091
 C516 C 0.58878 0.35685 -0.10857
 C517 C 0.60479 0.39519 -0.09423
 N518 N 0.64589 0.40260 -0.10034
 H519 H 0.76616 0.36090 -0.16663
 H520 H 0.55670 0.34942 -0.10277
 C521 C 1.15087 0.16547 -0.13658
 C522 C 1.10863 0.17326 -0.14673
 N523 N 1.09785 0.20233 -0.17983
 C524 C 1.12718 0.22305 -0.20430
 C525 C 1.16979 0.21362 -0.19645
 N526 N 1.18014 0.18557 -0.16156
 N527 N 1.16204 0.13638 -0.10379
 C528 C 1.13297 0.11386 -0.08173
 C529 C 1.09064 0.12017 -0.09327
 N530 N 1.07929 0.15022 -0.12526
 H531 H 1.11678 0.24631 -0.22947
 H532 H 1.14286 0.08996 -0.05682
 C533 C 1.18729 0.63649 0.35464
 C534 C 1.15524 0.65293 0.38349
 N535 N 1.14903 0.69402 0.38672
 C536 C 1.17266 0.71959 0.36075
 C537 C 1.20277 0.70313 0.32879
 N538 N 1.20997 0.66191 0.32766
 N539 N 1.19329 0.59524 0.35141
 C540 C 1.16762 0.56956 0.37468
 C541 C 1.13398 0.58615 0.40078
 N542 N 1.12908 0.62741 0.40517
 H543 H 1.16671 0.75225 0.36314
 H544 H 1.17202 0.53678 0.37053
 C545 C 0.66759 0.16449 0.38004
 C546 C 0.62553 0.17648 0.37954
 N547 N 0.61314 0.20872 0.35181
 C548 C 0.64049 0.22857 0.32340
 C549 C 0.68221 0.21472 0.32105
 N550 N 0.69464 0.18362 0.35087
 N551 N 0.68041 0.13253 0.40774
 C552 C 0.65290 0.11104 0.43366
 C553 C 0.61034 0.12131 0.43119
 N554 N 0.59758 0.15437 0.40464
 H555 H 0.62939 0.25461 0.30285
 H556 H 0.66386 0.08478 0.45416
 C557 C 0.67519 0.62254 -0.12983
 C558 C 0.64081 0.64187 -0.10819
 N559 N 0.63546 0.68297 -0.11188
 C560 C 0.66190 0.70543 -0.13848
 C561 C 0.69409 0.68557 -0.16495
 N562 N 0.70057 0.64464 -0.15781
 N563 N 0.68100 0.58148 -0.12546
 C564 C 0.65314 0.55863 -0.10146
 C565 C 0.61724 0.57760 -0.08262
 N566 N 0.61232 0.61895 -0.08585
 H567 H 0.65645 0.73808 -0.14106
 H568 H 0.65791 0.52586 -0.09928
 C569 C 0.85250 -0.19423 -0.14063
 C570 C 0.86496 -0.16352 -0.17215
 N571 N 0.84925 -0.16274 -0.21902
 C572 C 0.82129 -0.19087 -0.23574
 C573 C 0.80683 -0.22076 -0.20351
 N574 N 0.82337 -0.22140 -0.15658
 N575 N 0.86915 -0.19589 -0.09422
 C576 C 0.89711 -0.16777 -0.07760
 C577 C 0.90814 -0.13554 -0.10809
 N578 N 0.89169 -0.13437 -0.15497
 H579 H 0.80936 -0.18815 -0.27299
 H580 H 0.90902 -0.16940 -0.04010
 C581 C 0.81215 0.37045 0.35653
 C582 C 0.85141 0.37347 0.33592
 N583 N 0.86303 0.34752 0.29882
 C584 C 0.83712 0.31823 0.28121
 C585 C 0.79782 0.31439 0.30197
 N586 N 0.78619 0.34081 0.33929
 N587 N 0.80132 0.39641 0.39441
 C588 C 0.82856 0.42451 0.41335
 C589 C 0.86860 0.42611 0.39394
 N590 N 0.87841 0.40077 0.35520
 H591 H 0.84788 0.29743 0.25242
 H592 H 0.81961 0.44415 0.44414
 C593 C 0.36348 -0.17584 0.36229
 C594 C 0.36868 -0.13756 0.34119
 N595 N 0.34547 -0.12710 0.30086
 C596 C 0.31674 -0.15301 0.28108
 C597 C 0.31017 -0.19067 0.30341
 N598 N 0.33410 -0.20122 0.34337
 N599 N 0.38691 -0.18645 0.40239
 C600 C 0.41475 -0.16006 0.42307
 C601 C 0.41863 -0.12086 0.40346
 N602 N 0.39562 -0.11081 0.36258
 H603 H 0.29824 -0.14355 0.24952
 H604 H 0.43232 -0.16900 0.45565
 C605 C 0.30084 0.35895 -0.13723
 C606 C 0.33774 0.36931 -0.15977
 N607 N 0.34908 0.35033 -0.20237
 C608 C 0.32520 0.32116 -0.22403
 C609 C 0.28789 0.30984 -0.20181
 N610 N 0.27685 0.32931 -0.15854
 N611 N 0.29040 0.37789 -0.09372
 C612 C 0.31593 0.40596 -0.07134
 C613 C 0.35384 0.41482 -0.09321
 N614 N 0.36319 0.39643 -0.13720
 H615 H 0.33690 0.30641 -0.25701
 H616 H 0.30772 0.41955 -0.03600
 C617 C 1.12987 -0.17713 0.15169
 C618 C 1.14513 -0.13883 0.13980
 N619 N 1.18364 -0.12792 0.15568
 C620 C 1.20756 -0.15348 0.18362
 C621 C 1.19190 -0.19130 0.19727
 N622 N 1.15334 -0.20226 0.18063
 N623 N 1.09152 -0.18815 0.13493
 C624 C 1.06750 -0.16224 0.10729
 C625 C 1.08219 -0.12321 0.09704
 N626 N 1.12084 -0.11273 0.11344
 H627 H 1.23780 -0.14368 0.19639
 H628 H 1.03689 -0.17146 0.09488
 C629 C 1.16928 0.32740 0.60426
 C630 C 1.18232 0.36758 0.61460
 N631 N 1.21366 0.37381 0.64802
 C632 C 1.23123 0.34197 0.67297
 C633 C 1.21563 0.30236 0.66554
 N634 N 1.18557 0.29607 0.63055
 N635 N 1.13756 0.32076 0.57184
 C636 C 1.11697 0.35254 0.55081
 C637 C 1.12768 0.39287 0.56386
 N638 N 1.16076 0.39968 0.59480
 H639 H 1.25471 0.34807 0.70113
 H640 H 1.09067 0.34648 0.52643
 C641 C 0.63239 -0.19031 0.66475
 C642 C 0.65442 -0.16136 0.63902
 N643 N 0.69649 -0.16174 0.64200
 C644 C 0.71770 -0.18946 0.67008
 C645 C 0.69578 -0.21751 0.69822
 N646 N 0.65342 -0.21700 0.69424
 N647 N 0.59030 -0.19074 0.66061
 C648 C 0.56918 -0.16292 0.63251
 C649 C 0.59109 -0.13253 0.60872
 N650 N 0.63333 -0.13264 0.61252
 H651 H 0.75105 -0.18791 0.67173
 H652 H 0.53563 -0.16331 0.63064
 C653 C 0.65842 0.32331 0.12133
 C654 C 0.67211 0.36386 0.12593
 N655 N 0.70717 0.37177 0.15286
 C656 C 0.72800 0.34130 0.17699
 C657 C 0.71220 0.30146 0.17542
 N658 N 0.67828 0.29346 0.14668
 N659 N 0.62307 0.31495 0.09577
 C660 C 0.59966 0.34548 0.07622
 C661 C 0.61147 0.38636 0.08361
 N662 N 0.64808 0.39481 0.10732
 H663 H 0.75456 0.34877 0.20031
 H664 H 0.57091 0.33805 0.05700
 C665 C 0.84935 0.17917 0.14045
 C666 C 0.85903 0.14017 0.15809
 N667 N 0.84337 0.12820 0.20144
 C668 C 0.81747 0.15307 0.22776
 C669 C 0.80579 0.19176 0.20966
 N670 N 0.82274 0.20417 0.16647
 N671 N 0.86581 0.19068 0.09686
 C672 C 0.89092 0.16464 0.07001
 C673 C 0.89930 0.12495 0.08709
 N674 N 0.88318 0.11425 0.13104
 H675 H 0.80611 0.14240 0.26244
 H676 H 0.90298 0.17429 0.03515
 C677 C 0.84050 0.66245 0.64152
 C678 C 0.82717 0.62257 0.62975
 N679 N 0.79003 0.61030 0.64573
 C680 C 0.76635 0.63528 0.67470
 C681 C 0.78042 0.67463 0.68900
 N682 N 0.81672 0.68769 0.67042
 N683 N 0.87842 0.67413 0.62706
 C684 C 0.90395 0.64751 0.60253
 C685 C 0.89114 0.60721 0.59197
 N686 N 0.85260 0.59594 0.60508
 H687 H 0.73676 0.62423 0.68638
 H688 H 0.93432 0.65752 0.59208
 C689 C 0.35995 0.17968 0.65614
 C690 C 0.36687 0.14036 0.67430
 N691 N 0.34379 0.12703 0.71181
 C692 C 0.31327 0.15088 0.73166
 C693 C 0.30466 0.18999 0.71270
 N694 N 0.32892 0.20369 0.67563
 N695 N 0.38353 0.19246 0.61826
 C696 C 0.41301 0.16730 0.59722
 C697 C 0.41870 0.12722 0.61433
 N698 N 0.39552 0.11534 0.65291
 H699 H 0.29611 0.13913 0.76203
 H700 H 0.43055 0.17787 0.56645
 C701 C 0.30996 0.64802 0.14091
 C702 C 0.35165 0.65889 0.13809
 N703 N 0.36397 0.69585 0.15643
 C704 C 0.33662 0.72183 0.17930
 C705 C 0.29556 0.70963 0.18514
 N706 N 0.28317 0.67333 0.16482
 N707 N 0.29758 0.61094 0.12330
 C708 C 0.32531 0.58374 0.10363
 C709 C 0.36743 0.59378 0.10277
 N710 N 0.37947 0.63143 0.11946
 H711 H 0.34756 0.75012 0.19600
 H712 H 0.31472 0.55427 0.09006
   
