data_POSCAR
  _audit_creation_date              2014-09-24
  _audit_creation_method            'ToBaCCo'
  _symmetry_space_group_name_H-M    'P1'
  _symmetry_Int_Tables_number       1
  _symmetry_cell_setting            triclinic
  loop_
  _symmetry_equiv_pos_as_xyz
 x,y,z
_cell_length_a 28.9224
_cell_length_b 28.9612
_cell_length_c 72.3614
_cell_angle_alpha 87.738600
_cell_angle_beta 91.055000
_cell_angle_gamma 120.094200
loop_
  _atom_site_label
  _atom_site_type_symbol
  _atom_site_fract_x
  _atom_site_fract_y
  _atom_site_fract_z
C1 C 0.01635 0.08939 0.52487
 H2 H 0.05444 0.09092 0.52428
 C3 C 0.01020 0.12392 0.53611
 H4 H 0.04360 0.15209 0.54427
 C5 C -0.07360 0.05111 0.51479
 H6 H -0.10587 0.02306 0.50629
 C7 C -0.08148 0.08509 0.52590
 H8 H -0.11997 0.08291 0.52605
 N9 N -0.02532 0.05361 0.51463
 C10 C 0.01138 -0.07283 0.50640
 H11 H 0.01354 -0.07215 0.49147
 C12 C 0.01530 -0.11220 0.51696
 H13 H 0.02091 -0.14174 0.51019
 C14 C -0.00151 -0.03708 0.53349
 H15 H -0.00975 -0.00890 0.53988
 C16 C 0.00226 -0.07564 0.54454
 H17 H -0.00243 -0.07654 0.55939
 Zn18 Zn -0.01055 0.01045 0.49970
 N19 N 0.00288 -0.03645 0.51477
 C20 C 0.09545 0.05541 0.48508
 N21 N 0.04951 0.05759 0.48510
 C22 C 0.04501 0.09582 0.47503
 C23 C 0.08741 0.13334 0.46410
 C24 C 0.13899 0.09235 0.47428
 C25 C -0.11507 -0.07135 0.49242
 C26 C -0.15696 -0.10828 0.48160
 C27 C -0.10351 -0.06458 0.45429
 C28 C -0.06270 -0.02862 0.46561
 N29 N -0.06901 -0.03272 0.48431
 H30 H 0.09851 0.02535 0.49346
 H31 H 0.00825 0.09699 0.47553
 H32 H 0.08330 0.16346 0.45607
 H33 H 0.17544 0.09043 0.47423
 H34 H -0.11856 -0.07441 0.50733
 H35 H -0.19297 -0.13959 0.48825
 H36 H -0.09742 -0.06152 0.43945
 H37 H -0.02537 0.00130 0.45943
 C38 C 0.01016 -0.11386 0.53620
 C39 C -0.03912 0.12173 0.53666
 C40 C -0.15086 -0.10520 0.46236
 C41 C 0.13477 0.13158 0.46369
 C42 C 1.10943 0.04323 0.14181
 H43 H 1.11087 0.08122 0.14225
 C44 C 1.14548 0.03812 0.13077
 H45 H 1.17472 0.07222 0.12261
 C46 C 1.06983 -0.04754 0.15206
 H47 H 1.04064 -0.08055 0.16055
 C48 C 1.10529 -0.05439 0.14116
 H49 H 1.10312 -0.09283 0.14115
 N50 N 1.07228 0.00066 0.15203
 C51 C 0.94453 0.03657 0.15943
 H52 H 0.94322 0.03736 0.17434
 C53 C 0.90652 0.04147 0.14863
 H54 H 0.87605 0.04648 0.15521
 C55 C 0.98391 0.02610 0.13261
 H56 H 1.01295 0.01840 0.12642
 C57 C 0.94677 0.03088 0.12134
 H58 H 0.94783 0.02751 0.10651
 Zn59 Zn 1.02704 0.01394 0.16667
 N60 N 0.98206 0.02879 0.15130
 C61 C 1.06991 0.11825 0.18127
 N62 N 1.07224 0.07245 0.18131
 C63 C 1.10923 0.06693 0.19153
 C64 C 1.14520 0.10803 0.20259
 C65 C 1.10530 0.16052 0.19218
 C66 C 0.94429 -0.09126 0.17392
 C67 C 0.90617 -0.13426 0.18472
 C68 C 0.94639 -0.08357 0.21201
 C69 C 0.98363 -0.04156 0.20073
 N70 N 0.98185 -0.04599 0.18204
 H71 H 1.04086 0.12216 0.17277
 H72 H 1.11057 0.03032 0.19109
 H73 H 1.17428 0.10308 0.21076
 H74 H 1.10322 0.19683 0.19220
 H75 H 0.94305 -0.09329 0.15901
 H76 H 0.87567 -0.16972 0.17815
 H77 H 0.94741 -0.07923 0.22684
 H78 H 1.01270 -0.00485 0.20692
 C79 C 0.90740 0.03805 0.12942
 C80 C 1.14336 -0.01110 0.13041
 C81 C 0.90699 -0.13008 0.20393
 C82 C 1.14319 0.15519 0.20295
 C83 C 0.04833 0.95052 0.85816
 H84 H 0.01158 0.91254 0.85764
 C85 C 0.09054 0.95537 0.86913
 H86 H 0.08631 0.92108 0.87716
 C87 C 0.09891 1.04152 0.84816
 H88 H 0.10209 1.07472 0.83979
 C89 C 0.14227 1.04811 0.85900
 H90 H 0.17871 1.08653 0.85908
 N91 N 0.05298 0.99333 0.84810
 C92 C -0.11152 0.95742 0.84070
 H93 H -0.11488 0.95698 0.82579
 C94 C -0.15351 0.95239 0.85151
 H95 H -0.18951 0.94758 0.84489
 C96 C -0.05936 0.96727 0.86752
 H97 H -0.02206 0.97482 0.87371
 C98 C -0.10029 0.96235 0.87882
 H99 H -0.09442 0.96545 0.89365
 Zn100 Zn -0.00687 0.98040 0.83346
 N101 N -0.06551 0.96498 0.84882
 C102 C -0.06973 0.87665 0.81837
 N103 N -0.02145 0.92249 0.81854
 C104 C 0.02038 0.92848 0.80835
 C105 C 0.01441 0.88783 0.79713
 C106 C -0.07743 0.83482 0.80728
 C107 C 0.01513 1.08566 0.82673
 C108 C 0.01924 1.12902 0.81614
 C109 C 0.00671 1.07955 0.78858
 C110 C 0.00273 1.03715 0.79965
 N111 N 0.00678 1.04081 0.81837
 H112 H -0.10212 0.87236 0.82684
 H113 H 0.05847 0.96510 0.80896
 H114 H 0.04794 0.89314 0.78901
 H115 H -0.11592 0.79845 0.80711
 H116 H 0.01705 1.08707 0.84165
 H117 H 0.02472 1.16413 0.82290
 H118 H 0.00229 1.07583 0.77372
 H119 H -0.00536 1.00076 0.79327
 C120 C -0.14756 0.95547 0.87074
 C121 C 0.13789 1.00457 0.86959
 C122 C 0.01445 1.12564 0.79690
 C123 C -0.03490 0.84063 0.79656
 C124 C 0.36485 -0.00411 -0.00978
 C125 C 0.36598 -0.00360 0.00916
 C126 C 0.41232 -0.00333 0.01466
 N127 N 0.43918 -0.00389 -0.00031
 C128 C 0.41039 -0.00442 -0.01529
 C129 C 0.42802 -0.00383 0.03326
 C130 C 0.47597 -0.00214 0.03898
 C131 C 0.48866 -0.00722 0.05726
 C132 C 0.53784 -0.00366 0.05720
 C133 C 0.55396 0.00310 0.03887
 N134 N 0.51647 0.00498 0.02790
 C135 C 0.60207 0.00664 0.03296
 C136 C 0.61382 0.00195 0.01447
 C137 C 0.65859 0.00014 0.00901
 C138 C 0.65395 -0.00740 -0.00967
 C139 C 0.60677 -0.00938 -0.01512
 N140 N 0.58238 -0.00376 -0.00033
 C141 C 0.58857 -0.01413 -0.03361
 C142 C 0.54339 -0.01073 -0.03952
 C143 C 0.53229 -0.00407 -0.05784
 C144 C 0.48663 -0.00058 -0.05790
 C145 C 0.47059 -0.00561 -0.03961
 N146 N 0.50502 -0.01264 -0.02854
 C147 C 0.42486 -0.00392 -0.03389
 H148 H 0.33394 -0.00425 -0.01848
 H149 H 0.33604 -0.00341 0.01787
 H150 H 0.50057 -0.02218 -0.01451
 H151 H 0.46480 -0.01324 0.06943
 H152 H 0.55881 -0.00681 0.06929
 H153 H 0.69096 0.00318 0.01761
 H154 H 0.68251 -0.01036 -0.01828
 H155 H 0.46765 0.00537 -0.07007
 H156 H 0.52033 0.01461 0.01387
 H157 H 0.55530 -0.00092 -0.06994
 C158 C -0.02477 0.34158 0.67678
 C159 C -0.03124 0.33953 0.65796
 C160 C -0.03288 0.38495 0.65221
 N161 N -0.02813 0.41426 0.66695
 C162 C -0.02323 0.38790 0.68201
 C163 C -0.03626 0.39938 0.63354
 C164 C -0.03254 0.44820 0.62744
 C165 C -0.02429 0.46707 0.60918
 C166 C -0.02077 0.51618 0.60893
 C167 C -0.02736 0.52609 0.62703
 N168 N -0.03543 0.48395 0.63816
 C169 C -0.02595 0.57323 0.63253
 C170 C -0.02787 0.58616 0.65104
 C171 C -0.02791 0.63169 0.65630
 C172 C -0.02851 0.63018 0.67526
 C173 C -0.02852 0.58391 0.68102
 N174 N -0.02823 0.55721 0.66618
 C175 C -0.02977 0.56701 0.69971
 C176 C -0.02830 0.52057 0.70572
 C177 C -0.03388 0.50223 0.72401
 C178 C -0.03031 0.45667 0.72427
 C179 C -0.02305 0.44791 0.70611
 N180 N -0.02089 0.48758 0.69495
 C181 C -0.01927 0.40362 0.70050
 H182 H -0.02214 0.31193 0.68560
 H183 H -0.03365 0.30846 0.64946
 H184 H -0.01091 0.49379 0.68106
 H185 H -0.02005 0.44799 0.59728
 H186 H -0.01371 0.54186 0.59677
 H187 H -0.02749 0.66286 0.64742
 H188 H -0.02876 0.65989 0.68381
 H189 H -0.03375 0.43218 0.73644
 H190 H -0.04617 0.47801 0.65199
 H191 H -0.04021 0.51966 0.73598
 C192 C 0.36471 0.36932 0.32436
 C193 C 0.36344 0.36856 0.34331
 C194 C 0.40897 0.41441 0.34882
 N195 N 0.43789 0.44281 0.33385
 C196 C 0.41112 0.41547 0.31887
 C197 C 0.42332 0.42826 0.36742
 C198 C 0.46905 0.47566 0.37315
 C199 C 0.48497 0.48656 0.39144
 C200 C 0.53067 0.53574 0.39139
 C201 C 0.54193 0.55364 0.37307
 N202 N 0.50361 0.51723 0.36208
 C203 C 0.58721 0.60230 0.36716
 C204 C 0.60554 0.61588 0.34867
 C205 C 0.65280 0.66115 0.34322
 C206 C 0.65756 0.65839 0.32454
 C207 C 0.61277 0.61182 0.31907
 N208 N 0.58121 0.58598 0.33387
 C209 C 0.60112 0.59552 0.30058
 C210 C 0.55300 0.55098 0.29467
 C211 C 0.53700 0.54176 0.27634
 C212 C 0.48779 0.49611 0.27628
 C213 C 0.47498 0.47818 0.29456
 N214 N 0.51542 0.51149 0.30564
 C215 C 0.42696 0.43183 0.30027
 H216 H 0.33481 0.33925 0.31565
 H217 H 0.33244 0.33770 0.35201
 H218 H 0.51918 0.50559 0.31965
 H219 H 0.46588 0.46153 0.40360
 H220 H 0.55360 0.55553 0.40348
 H221 H 0.68134 0.69261 0.35183
 H222 H 0.69002 0.68778 0.31593
 H223 H 0.46400 0.47837 0.26411
 H224 H 0.49928 0.52242 0.34806
 H225 H 0.55807 0.56600 0.26425
 C226 C -0.05013 0.22457 0.57075
 N227 N -0.07505 0.20707 0.58736
 N228 N -0.07360 0.24166 0.59930
 C229 C -0.04709 0.29478 0.59500
 N230 N -0.02227 0.31228 0.57838
 N231 N -0.02371 0.27769 0.56644
 C232 C -0.04864 0.18773 0.55842
 C233 C -0.04549 0.15725 0.54834
 C234 C -0.04360 0.33206 0.60821
 C235 C -0.04029 0.36294 0.61957
 C236 C 0.79005 0.75700 0.23752
 N237 N 0.73845 0.74414 0.23487
 N238 N 0.70070 0.71118 0.24683
 C239 C 0.71344 0.69017 0.26182
 N240 N 0.76502 0.70294 0.26443
 N241 N 0.80276 0.73590 0.25248
 C242 C 0.83115 0.79500 0.22527
 C243 C 0.86577 0.82833 0.21534
 C244 C 0.67329 0.65640 0.27511
 C245 C 0.64016 0.62859 0.28654
 C246 C 0.25641 0.01237 -0.09698
 N247 N 0.27136 0.04205 -0.08167
 N248 N 0.30610 0.03998 -0.06980
 C249 C 0.32688 0.00810 -0.07286
 N250 N 0.31203 -0.02149 -0.08820
 N251 N 0.27728 -0.01941 -0.10007
 C252 C 0.21637 0.01187 -0.10911
 C253 C 0.18135 0.00967 -0.11899
 C254 C 0.36222 0.00400 -0.05960
 C255 C 0.39105 0.00034 -0.04811
 C256 C 0.00358 0.76550 0.56915
 N257 N -0.03897 0.71542 0.56802
 N258 N -0.04430 0.67668 0.57990
 C259 C -0.00726 0.68688 0.59328
 N260 N 0.03534 0.73692 0.59438
 N261 N 0.04067 0.77566 0.58251
 C262 C 0.00753 0.80790 0.55711
 C263 C 0.00959 0.84363 0.54737
 C264 C -0.01417 0.64596 0.60663
 C265 C -0.01979 0.61242 0.61821
 C266 C 0.24942 0.27004 0.23678
 N267 N 0.30260 0.29307 0.23347
 N268 N 0.33796 0.32649 0.24546
 C269 C 0.32118 0.33779 0.26115
 N270 N 0.26800 0.31484 0.26443
 N271 N 0.23266 0.28143 0.25244
 C272 C 0.21150 0.23136 0.22450
 C273 C 0.18002 0.19743 0.21450
 C274 C 0.35909 0.37173 0.27450
 C275 C 0.39032 0.39939 0.28603
 C276 C 0.74461 -0.04087 -0.09642
 N277 N 0.73166 -0.00210 -0.09911
 N278 N 0.69965 0.00252 -0.08723
 C279 C 0.67972 -0.03143 -0.07228
 N280 N 0.69259 -0.07025 -0.06962
 N281 N 0.72459 -0.07487 -0.08150
 C282 C 0.78162 -0.04380 -0.10859
 C283 C 0.81413 -0.04493 -0.11847
 C284 C 0.64708 -0.02518 -0.05905
 C285 C 0.62030 -0.01998 -0.04764
 C286 C 0.24996 -0.01961 0.09667
 N287 N 0.23335 -0.04828 0.08112
 N288 N 0.26881 -0.04633 0.06916
 C289 C 0.32196 -0.01558 0.07236
 N290 N 0.33859 0.01301 0.08792
 N291 N 0.30311 0.01106 0.09988
 C292 C 0.21189 -0.01889 0.10891
 C293 C 0.18030 -0.01648 0.11889
 C294 C 0.35998 -0.01161 0.05902
 C295 C 0.39130 -0.00803 0.04749
 C296 C 0.74294 0.78489 0.42997
 N297 N 0.72325 0.79900 0.41501
 N298 N 0.69130 0.76241 0.40313
 C299 C 0.67815 0.71062 0.40583
 N300 N 0.69775 0.69648 0.42081
 N301 N 0.72971 0.73308 0.43269
 C302 C 0.77993 0.82480 0.44212
 C303 C 0.81245 0.85843 0.45199
 C304 C 0.64557 0.67177 0.39261
 C305 C 0.61885 0.63981 0.38120
 C306 C 0.00852 0.23993 0.76390
 N307 N -0.03437 0.24693 0.76481
 N308 N -0.03939 0.28049 0.75292
 C309 C -0.00170 0.30799 0.73974
 N310 N 0.04123 0.30107 0.73886
 N311 N 0.04625 0.26752 0.75075
 C312 C 0.01222 0.20139 0.77595
 C313 C 0.01409 0.16765 0.78571
 C314 C -0.00823 0.34220 0.72638
 C315 C -0.01353 0.37031 0.71480
 C316 C 0.79066 0.03404 0.09590
 N317 N 0.73908 -0.00490 0.09854
 N318 N 0.70137 -0.00967 0.08661
 C319 C 0.71414 0.02430 0.07167
 N320 N 0.76570 0.06330 0.06906
 N321 N 0.80340 0.06807 0.08098
 C322 C 0.83171 0.03714 0.10811
 C323 C 0.86627 0.03842 0.11803
 C324 C 0.67405 0.01792 0.05841
 C325 C 0.64100 0.01261 0.04699
 C326 C 0.25390 0.24280 0.43040
 N327 N 0.27456 0.29546 0.43347
 N328 N 0.30953 0.33244 0.42163
 C329 C 0.32481 0.31785 0.40635
 N330 N 0.30424 0.26520 0.40330
 N331 N 0.26928 0.22823 0.41513
 C332 C 0.21364 0.20309 0.44248
 C333 C 0.17844 0.17013 0.45232
 C334 C 0.36037 0.35745 0.39311
 C335 C 0.38935 0.39006 0.38164
 C336 C -0.04525 0.72692 0.76255
 N337 N -0.07055 0.71895 0.74602
 N338 N -0.06883 0.68596 0.73409
 C339 C -0.04166 0.66002 0.73830
 N340 N -0.01645 0.66789 0.75484
 N341 N -0.01817 0.70089 0.76678
 C342 C -0.04403 0.76518 0.77485
 C343 C -0.04108 0.79876 0.78491
 C344 C -0.03782 0.62646 0.72508
 C345 C -0.03420 0.59911 0.71370
   
