data_POSCAR
  _audit_creation_date              2014-09-24
  _audit_creation_method            'ToBaCCo'
  _symmetry_space_group_name_H-M    'P1'
  _symmetry_Int_Tables_number       1
  _symmetry_cell_setting            triclinic
  loop_
  _symmetry_equiv_pos_as_xyz
 x,y,z
_cell_length_a 34.6280
_cell_length_b 34.2745
_cell_length_c 12.2431
_cell_angle_alpha 89.571300
_cell_angle_beta 89.919800
_cell_angle_gamma 119.424800
loop_
  _atom_site_label
  _atom_site_type_symbol
  _atom_site_fract_x
  _atom_site_fract_y
  _atom_site_fract_z
C1 C 0.19707 0.45553 0.45203
 C2 C 0.20400 0.46317 0.56647
 C3 C 0.24073 0.46271 0.61481
 C4 C 0.27312 0.45965 0.55253
 C5 C 0.26506 0.44983 0.43961
 C6 C 0.22612 0.44586 0.39250
 H7 H 0.22026 0.43839 0.30649
 H8 H 0.24542 0.46626 0.70222
 C9 C 0.57159 -0.23535 0.44039
 C10 C 0.58009 -0.23199 0.55431
 C11 C 0.57821 -0.19825 0.61472
 C12 C 0.56645 -0.16792 0.56816
 C13 C 0.55990 -0.16990 0.45309
 C14 C 0.56317 -0.20290 0.39162
 H15 H 0.55786 -0.20342 0.30455
 H16 H 0.58470 -0.19683 0.70174
 C17 C 1.26231 0.78388 0.43664
 C18 C 1.26457 0.78627 0.55240
 C19 C 1.22905 0.75451 0.61631
 C20 C 1.19166 0.71879 0.56868
 C21 C 1.18950 0.71545 0.45350
 C22 C 1.22369 0.74916 0.38960
 H23 H 1.21923 0.74872 0.30232
 H24 H 1.23242 0.75567 0.70432
 C25 C 0.79998 0.52263 0.43776
 C26 C 0.79944 0.52456 0.55370
 C27 C 0.76810 0.53360 0.60377
 C28 C 0.73735 0.54083 0.54308
 C29 C 0.73961 0.54040 0.42704
 C30 C 0.77134 0.53219 0.37684
 H31 H 0.77163 0.53015 0.28850
 H32 H 0.76907 0.53607 0.69167
 C33 C 0.44763 0.27172 0.43530
 C34 C 0.44553 0.27295 0.55110
 C35 C 0.44018 0.23499 0.61087
 C36 C 0.43953 0.19778 0.55965
 C37 C 0.44204 0.19774 0.44409
 C38 C 0.44533 0.23417 0.38449
 H39 H 0.44828 0.23421 0.29621
 H40 H 0.43847 0.23513 0.69851
 C41 C 0.73066 0.17372 0.44816
 C42 C 0.72597 0.17240 0.56290
 C43 C 0.76160 0.20256 0.62667
 C44 C 0.80095 0.23698 0.57892
 C45 C 0.80303 0.24165 0.46317
 C46 C 0.76922 0.20861 0.39980
 H47 H 0.77314 0.21073 0.31186
 H48 H 0.75764 0.19830 0.71410
 O49 O 0.95781 0.50107 -0.21407
 O50 O 1.02765 0.51153 0.26872
 O51 O 0.91070 0.46458 0.08845
 O52 O 1.05678 0.57031 -0.06644
 O53 O 0.97239 0.51908 0.15000
 O54 O 1.04076 0.53544 -0.21808
 O55 O 1.05198 0.55448 0.12530
 O56 O 0.90407 0.45068 -0.11087
 C57 C 0.91777 0.48067 -0.18544
 C58 C 1.05687 0.54943 0.22620
 C59 C 0.93174 0.50240 0.13385
 C60 C 1.05734 0.57134 -0.16762
 O61 O 1.03284 0.45627 -0.20370
 O62 O 0.94778 0.44215 0.23587
 O63 O 0.92941 0.38726 -0.07572
 O64 O 1.07737 0.49229 0.09070
 O65 O 1.01667 0.44237 0.16326
 O66 O 0.95056 0.42337 -0.22567
 O67 O 1.08431 0.50947 -0.10512
 O68 O 0.93587 0.39901 0.10684
 Co69 Co 0.99540 0.47888 -0.19561
 Co70 Co 0.99562 0.48153 0.15036
 Co71 Co 0.92550 0.42961 0.00166
 Co72 Co 1.06125 0.52688 0.00893
 O73 O 0.99262 0.47724 -0.01559
 C74 C 1.07207 0.47752 -0.17187
 C75 C 0.92816 0.40300 0.20311
 C76 C 0.93045 0.38723 -0.17603
 C77 C 1.05680 0.45701 0.14581
 O78 O 0.50419 0.47303 -0.21693
 O79 O 0.46161 0.52511 0.21788
 O80 O 0.47416 0.43202 0.12054
 O81 O 0.42162 0.48677 -0.10544
 O82 O 0.50072 0.48409 0.24218
 O83 O 0.46901 0.52136 -0.23018
 O84 O 0.42061 0.48705 0.08694
 O85 O 0.48875 0.42473 -0.08195
 C86 C 0.48938 0.43331 -0.18194
 C87 C 0.42435 0.49610 0.18465
 C88 C 0.47599 0.44366 0.21732
 C89 C 0.43000 0.49412 -0.20337
 O90 O 0.54207 0.59041 -0.15180
 O91 O 0.57619 0.55498 0.15870
 O92 O 0.57116 0.48638 -0.05671
 O93 O 0.47030 0.57865 0.08651
 O94 O 0.53621 0.59464 0.12573
 O95 O 0.57997 0.54230 -0.16258
 O96 O 0.47615 0.57789 -0.10773
 O97 O 0.56078 0.48714 0.14186
 Co98 Co 0.52198 0.53074 -0.17124
 Co99 Co 0.51742 0.53782 0.17069
 Co100 Co 0.52151 0.46317 0.02935
 Co101 Co 0.45187 0.53133 -0.00864
 O102 O 0.50422 0.51624 0.00355
 C103 C 0.51510 0.60428 -0.13973
 C104 C 0.58832 0.52660 0.16489
 C105 C 0.59369 0.51734 -0.12402
 C106 C 0.50832 0.60702 0.11656
 O107 O 0.52392 0.05477 -0.21397
 O108 O 0.49272 -0.03366 0.22903
 O109 O 0.57257 0.05725 0.09963
 O110 O 0.50932 -0.05443 -0.11324
 O111 O 0.53061 0.04895 0.23328
 O112 O 0.48209 -0.02619 -0.22894
 O113 O 0.50336 -0.06959 0.09441
 O114 O 0.56859 0.05743 -0.09196
 C115 C 0.56152 0.06096 -0.18892
 C116 C 0.50656 -0.05903 0.19307
 C117 C 0.56851 0.06015 0.19824
 C118 C 0.50557 -0.04425 -0.20912
 O119 O 0.41076 -0.02627 -0.13430
 O120 O 0.45609 0.04690 0.16418
 O121 O 0.52108 0.10179 -0.08110
 O122 O 0.42047 -0.08869 0.09028
 O123 O 0.41659 -0.03736 0.18802
 O124 O 0.45357 0.05331 -0.10840
 O125 O 0.42349 -0.08095 -0.11329
 O126 O 0.52149 0.09832 0.11411
 Co127 Co 0.46935 0.01345 -0.15614
 Co128 Co 0.47530 0.00666 0.18437
 Co129 Co 0.54113 0.07288 0.00987
 Co130 Co 0.46660 -0.06549 -0.00959
 O131 O 0.48720 0.00632 0.00810
 C132 C 0.39732 -0.06697 -0.13728
 C133 C 0.48377 0.08730 0.15345
 C134 C 0.48252 0.09311 -0.10315
 C135 C 0.40096 -0.07726 0.15993
 C136 C 1.16600 0.46387 0.39596
 C137 C 1.14597 0.44503 0.30161
 C138 C 1.11986 0.46236 0.24471
 C139 C 1.08104 0.43617 0.19585
 H140 H 1.14828 0.41726 0.26698
 H141 H 1.13208 0.49817 0.24818
 H142 H 1.15778 0.48783 0.43117
 H143 H 1.06584 0.40004 0.20074
 C144 C 0.56980 0.72856 0.37939
 C145 C 0.55095 0.71502 0.28058
 C146 C 0.54752 0.67425 0.23031
 C147 C 0.51733 0.65164 0.15342
 H148 H 0.53458 0.73094 0.23990
 H149 H 0.56753 0.66057 0.26288
 H150 H 0.58183 0.70796 0.41689
 H151 H 0.49535 0.66375 0.12584
 C152 C 0.29750 -0.18376 0.37066
 C153 C 0.30364 -0.18884 0.26382
 C154 C 0.34195 -0.15504 0.19931
 C155 C 0.35978 -0.11089 0.21455
 H156 H 0.28319 -0.22030 0.22347
 H157 H 0.35523 -0.16723 0.13632
 H158 H 0.32252 -0.15367 0.40949
 H159 H 0.34504 -0.09874 0.27389
 C160 C 0.82323 0.50266 0.37869
 C161 C 0.84855 0.52219 0.29075
 C162 C 0.87040 0.50060 0.23407
 C163 C 0.90805 0.52444 0.17797
 H164 H 0.85424 0.55472 0.26296
 H165 H 0.85698 0.46476 0.24445
 H166 H 0.82035 0.47175 0.41065
 H167 H 0.92399 0.56068 0.17583
 C168 C 0.45429 0.30856 0.36006
 C169 C 0.43543 0.33427 0.36978
 C170 C 0.44353 0.36692 0.28257
 C171 C 0.45505 0.40940 0.30356
 H172 H 0.41514 0.33185 0.43960
 H173 H 0.44685 0.35748 0.20014
 H174 H 0.47368 0.31246 0.28685
 H175 H 0.45504 0.41985 0.38690
 C176 C 0.69583 0.13797 0.38075
 C177 C 0.68613 0.14516 0.27975
 C178 C 0.64765 0.11155 0.21929
 C179 C 0.60814 0.08444 0.26629
 H180 H 0.70601 0.17708 0.23918
 H181 H 0.65057 0.11387 0.13109
 H182 H 0.67574 0.10526 0.41797
 H183 H 0.60380 0.08473 0.35385
 C184 C 0.43641 0.16109 -0.37903
 C185 C 0.44654 0.16231 -0.27274
 C186 C 0.44672 0.12354 -0.22073
 C187 C 0.47391 0.12919 -0.13768
 H188 H 0.45950 0.19281 -0.22620
 H189 H 0.42828 0.09093 -0.25837
 H190 H 0.42788 0.13033 -0.42172
 H191 H 0.49518 0.16249 -0.10618
 C192 C 0.70395 0.54667 -0.40445
 C193 C 0.69346 0.53956 -0.29771
 C194 C 0.65499 0.54205 -0.25491
 C195 C 0.63675 0.52311 -0.15897
 H196 H 0.71001 0.52815 -0.24200
 H197 H 0.63918 0.55600 -0.30625
 H198 H 0.68322 0.55517 -0.45367
 H199 H 0.65123 0.50697 -0.11065
 C200 C 0.83793 0.26600 -0.35755
 C201 C 0.83792 0.27065 -0.24855
 C202 C 0.87433 0.30788 -0.18914
 C203 C 0.90413 0.34618 -0.23773
 H204 H 0.80940 0.24947 -0.19878
 H205 H 0.87236 0.30592 -0.10076
 H206 H 0.86855 0.28678 -0.40065
 H207 H 0.90539 0.35019 -0.32548
 C208 C 0.56004 -0.14008 -0.35641
 C209 C 0.55330 -0.10519 -0.37617
 C210 C 0.54106 -0.08535 -0.28449
 C211 C 0.52429 -0.05787 -0.30041
 H212 H 0.55604 -0.09093 -0.45622
 H213 H 0.54270 -0.09622 -0.20205
 H214 H 0.55984 -0.14850 -0.27061
 H215 H 0.52111 -0.04799 -0.38275
 C216 C 0.31195 0.46718 -0.39167
 C217 C 0.35308 0.48775 -0.43510
 C218 C 0.39343 0.49888 -0.37100
 C219 C 0.39290 0.47649 -0.28045
 H220 H 0.35850 0.50263 -0.51557
 H221 H 0.42411 0.52778 -0.39729
 H222 H 0.30911 0.46157 -0.30412
 H223 H 0.36257 0.44723 -0.25423
 C224 C 1.15767 0.68235 -0.36116
 C225 C 1.14617 0.68858 -0.26039
 C226 C 1.11475 0.65082 -0.18990
 C227 C 1.08156 0.61318 -0.23096
 H228 H 1.16210 0.72166 -0.22507
 H229 H 1.12047 0.65362 -0.10264
 H230 H 1.14266 0.64874 -0.39314
 H231 H 1.07509 0.61097 -0.31785
 C232 C 0.82804 0.51736 -0.37637
 C233 C 0.86863 0.52488 -0.40471
 C234 C 0.89855 0.51725 -0.33242
 C235 C 0.88595 0.49035 -0.24361
 H236 H 0.88294 0.54055 -0.48232
 H237 H 0.93274 0.53273 -0.35967
 H238 H 0.81805 0.50890 -0.29173
 H239 H 0.85163 0.47278 -0.21754
 C240 C 0.45331 0.31248 -0.39380
 C241 C 0.44006 0.31280 -0.29053
 C242 C 0.45304 0.35319 -0.22400
 C243 C 0.47303 0.39585 -0.26014
 H244 H 0.41923 0.28168 -0.24773
 H245 H 0.44608 0.34659 -0.13745
 H246 H 0.47157 0.34410 -0.43645
 H247 H 0.47875 0.40370 -0.34638
 C248 C 0.68450 0.14036 -0.37912
 C249 C 0.64421 0.13245 -0.41178
 C250 C 0.60267 0.10540 -0.34907
 C251 C 0.59887 0.07818 -0.26592
 H252 H 0.64163 0.14962 -0.48364
 H253 H 0.57489 0.11037 -0.36889
 H254 H 0.68834 0.12749 -0.30148
 H255 H 0.62602 0.07257 -0.24439
 C256 C 1.17318 0.46856 -0.36850
 C257 C 1.18106 0.48604 -0.26750
 C258 C 1.14802 0.49253 -0.20614
 C259 C 1.10432 0.46689 -0.22067
 H260 H 1.21368 0.50064 -0.23181
 H261 H 1.16043 0.51981 -0.14845
 H262 H 1.14135 0.45942 -0.40391
 H263 H 1.09146 0.43815 -0.27383
 C264 C 0.58550 0.73351 -0.38421
 C265 C 0.56032 0.71355 -0.29639
 C266 C 0.55832 0.67362 -0.24586
 C267 C 0.52589 0.64947 -0.17463
 H268 H 0.53738 0.72424 -0.26756
 H269 H 0.58023 0.66164 -0.27458
 H270 H 0.60719 0.72177 -0.41563
 H271 H 0.50303 0.66098 -0.15058
 C272 C 0.30601 -0.18244 -0.39121
 C273 C 0.30647 -0.15932 -0.30346
 C274 C 0.34836 -0.13097 -0.24711
 C275 C 0.35379 -0.09708 -0.18409
 H276 H 0.27614 -0.16087 -0.27439
 H277 H 0.37616 -0.13658 -0.26203
 H278 H 0.33699 -0.17851 -0.42295
 H279 H 0.32736 -0.08898 -0.17560
 C280 C 0.54527 -0.14201 0.39361
 C281 C 0.56667 -0.11913 0.30368
 C282 C 0.55001 -0.09594 0.23290
 C283 C 0.52628 -0.07744 0.26940
 H284 H 0.59546 -0.12077 0.27507
 H285 H 0.55813 -0.09395 0.14680
 H286 H 0.51497 -0.14295 0.42010
 H287 H 0.52088 -0.07607 0.35612
 C288 C 0.29633 0.44289 0.37063
 C289 C 0.30627 0.45918 0.26886
 C290 C 0.34458 0.46325 0.20809
 C291 C 0.38464 0.47882 0.25380
 H292 H 0.28782 0.47320 0.22950
 H293 H 0.34143 0.46139 0.12000
 H294 H 0.31494 0.42846 0.40744
 H295 H 0.38905 0.48462 0.34064
 C296 C 1.15155 0.67715 0.39882
 C297 C 1.15630 0.66142 0.30291
 C298 C 1.11967 0.62467 0.24463
 C299 C 1.08885 0.58692 0.29291
 H300 H 1.18803 0.67693 0.26130
 H301 H 1.12094 0.62764 0.15652
 H302 H 1.11932 0.66126 0.43833
 H303 H 1.08878 0.58253 0.38063
 C304 C 0.44805 0.16357 0.38395
 C305 C 0.42643 0.14505 0.29136
 C306 C 0.43417 0.11241 0.23138
 C307 C 0.47496 0.12150 0.20100
 H308 H 0.40058 0.15166 0.26294
 H309 H 0.40562 0.08074 0.21020
 H310 H 0.47103 0.15361 0.41659
 H311 H 0.50294 0.15447 0.21555
 C312 C 0.70623 0.54345 0.35614
 C313 C 0.68338 0.51166 0.28225
 C314 C 0.64437 0.50672 0.22145
 C315 C 0.63144 0.53768 0.21370
 H316 H 0.69075 0.48457 0.27274
 H317 H 0.62439 0.47447 0.18342
 H318 H 0.69811 0.56960 0.37128
 H319 H 0.65143 0.57081 0.24695
 C320 C 0.83902 0.28085 0.40370
 C321 C 0.85142 0.32352 0.43047
 C322 C 0.88452 0.36409 0.36961
 C323 C 0.89882 0.36297 0.26875
 H324 H 0.83630 0.32951 0.50122
 H325 H 0.89540 0.39626 0.40756
 H326 H 0.85256 0.27357 0.33218
 H327 H 0.88674 0.33141 0.22735
   
