data_POSCAR
  _audit_creation_date              2014-09-24
  _audit_creation_method            'ToBaCCo'
  _symmetry_space_group_name_H-M    'P1'
  _symmetry_Int_Tables_number       1
  _symmetry_cell_setting            triclinic
  loop_
  _symmetry_equiv_pos_as_xyz
 x,y,z
_cell_length_a 29.7143
_cell_length_b 29.3148
_cell_length_c 35.9223
_cell_angle_alpha 88.867600
_cell_angle_beta 89.786600
_cell_angle_gamma 90.136100
loop_
  _atom_site_label
  _atom_site_type_symbol
  _atom_site_fract_x
  _atom_site_fract_y
  _atom_site_fract_z
Si1 Si 1.23760 0.25076 0.25067
 Si2 Si 0.74087 -0.24454 0.25071
 Si3 Si 0.73724 0.24459 -0.25356
 Si4 Si 1.24751 -0.25798 -0.24631
 Si5 Si 0.25905 0.25631 0.74862
 Si6 Si 0.75072 0.75134 0.74926
 Si7 Si 0.76651 0.24683 0.25312
 Si8 Si 0.25626 0.75143 0.24783
 O9 O 1.08747 0.05527 0.01823
 O10 O 0.91494 -0.05403 0.02234
 O11 O 0.95020 0.08545 0.02225
 O12 O 1.05186 -0.08470 0.02871
 O13 O 0.92517 0.02196 0.04326
 O14 O 1.08019 -0.02109 0.04474
 O15 O 0.97576 -0.07508 0.04677
 O16 O 1.02582 0.08052 0.03865
 C17 C 1.06661 0.07573 0.04287
 C18 C 0.93463 -0.07172 0.04939
 C19 C 0.93140 0.06307 0.04798
 C20 C 1.07344 -0.06204 0.05184
 O21 O 1.08821 -0.05434 -0.02441
 O22 O 0.91413 0.05260 -0.02721
 O23 O 1.05063 0.08483 -0.03497
 O24 O 0.95078 -0.08698 -0.02687
 O25 O 0.92584 -0.02402 -0.04911
 O26 O 1.08037 0.02157 -0.05035
 O27 O 1.02665 -0.08078 -0.04443
 O28 O 0.97465 0.07409 -0.05234
 Co29 Co 1.07592 0.00027 -0.00289
 Co30 Co 0.92833 -0.00081 -0.00283
 Co31 Co 1.00031 0.07354 -0.00643
 Co32 Co 1.00116 -0.07415 0.00079
 O33 O 1.00166 -0.00027 -0.00286
 C34 C 1.06751 -0.07562 -0.04864
 C35 C 0.93344 0.07134 -0.05411
 C36 C 1.07327 0.06233 -0.05756
 C37 C 0.93030 -0.06568 -0.05212
 O38 O 1.08545 0.55689 0.52290
 O39 O 0.91147 0.45203 0.52623
 O40 O 0.94870 0.59069 0.52650
 O41 O 1.04870 0.41758 0.52695
 O42 O 0.92311 0.52781 0.54794
 O43 O 1.07695 0.47988 0.54535
 O44 O 0.97284 0.42707 0.54790
 O45 O 1.02403 0.58199 0.54412
 C46 C 1.06475 0.57641 0.54826
 C47 C 0.93179 0.43137 0.55168
 C48 C 0.92998 0.56889 0.55245
 C49 C 1.07047 0.43865 0.55085
 O50 O 1.08300 0.45080 0.47425
 O51 O 0.91219 0.55944 0.47691
 O52 O 1.05006 0.59047 0.47145
 O53 O 0.94510 0.41985 0.47522
 O54 O 0.92036 0.48345 0.45492
 O55 O 1.07547 0.52783 0.45176
 O56 O 1.02045 0.42567 0.45518
 O57 O 0.97358 0.58175 0.45287
 Co58 Co 1.07220 0.50395 0.49869
 Co59 Co 0.92487 0.50557 0.50137
 Co60 Co 0.99895 0.57841 0.49871
 Co61 Co 0.99686 0.43030 0.50132
 O62 O 0.99833 0.50452 0.50003
 C63 C 1.06106 0.43117 0.44975
 C64 C 0.93230 0.57902 0.45069
 C65 C 1.07015 0.56922 0.44664
 C66 C 0.92690 0.44248 0.44964
 O67 O 0.56401 0.01348 0.54695
 O68 O 0.41075 -0.05396 0.52971
 O69 O 0.45716 0.08722 0.52375
 O70 O 0.55124 -0.07183 0.53546
 O71 O 0.41874 0.02907 0.54693
 O72 O 0.61053 -0.03943 0.50966
 O73 O 0.47385 -0.07676 0.55028
 O74 O 0.53827 0.07911 0.52764
 C75 C 0.55767 0.05508 0.55254
 C76 C 0.43281 -0.07330 0.55465
 C77 C 0.43211 0.06955 0.54913
 C78 C 0.59360 -0.07226 0.53028
 O79 O 0.56556 -0.02175 0.45054
 O80 O 0.40592 0.05187 0.47901
 O81 O 0.53958 0.06139 0.45136
 O82 O 0.45126 -0.09048 0.47630
 O83 O 0.41006 -0.03069 0.46064
 O84 O 0.59467 0.04561 0.48474
 O85 O 0.53182 -0.08468 0.46197
 O86 O 0.46367 0.06800 0.44754
 Co87 Co 0.56161 -0.00547 0.49896
 Co88 Co 0.41918 -0.00098 0.50344
 Co89 Co 0.49939 0.06848 0.48844
 Co90 Co 0.50133 -0.07406 0.50508
 O91 O 0.49305 -0.00113 0.49805
 C92 C 0.55567 -0.06073 0.44068
 C93 C 0.42242 0.06752 0.44991
 C94 C 0.58038 0.06602 0.45664
 C95 C 0.42143 -0.07141 0.45573
 O96 O 0.58337 0.51773 0.04837
 O97 O 0.42854 0.47245 0.05145
 O98 O 0.48014 0.57114 0.04925
 O99 O 0.53228 0.41684 0.04983
 O100 O 0.41837 0.54851 0.02747
 O101 O 0.59273 0.44147 0.02584
 O102 O 0.45582 0.40875 0.03421
 O103 O 0.55564 0.58052 0.02890
 C104 C 0.57613 0.55857 0.05368
 C105 C 0.43404 0.43125 0.05745
 C106 C 0.43899 0.56820 0.05263
 C107 C 0.57333 0.42155 0.05234
 O108 O 0.58155 0.47324 -0.04458
 O109 O 0.42736 0.51645 -0.04253
 O110 O 0.52783 0.57275 -0.04356
 O111 O 0.47900 0.41638 -0.04049
 O112 O 0.41859 0.44027 -0.01733
 O113 O 0.59030 0.54971 -0.02295
 O114 O 0.55548 0.40957 -0.02441
 O115 O 0.45296 0.57999 -0.02439
 Co116 Co 0.57893 0.49553 0.00191
 Co117 Co 0.43139 0.49454 0.00455
 Co118 Co 0.50423 0.56844 0.00277
 Co119 Co 0.50553 0.42057 0.00466
 O120 O 0.50507 0.49472 0.00350
 C121 C 0.57461 0.43225 -0.04985
 C122 C 0.43260 0.55770 -0.04846
 C123 C 0.56861 0.56876 -0.04846
 C124 C 0.43812 0.42160 -0.04357
 C125 C 1.16210 0.16557 0.16125
 C126 C 1.13965 0.20168 0.17912
 C127 C 1.16206 0.22708 0.20617
 C128 C 1.20619 0.21613 0.21652
 C129 C 1.22822 0.18037 0.19892
 C130 C 1.20656 0.15521 0.17180
 C131 C 1.13784 0.14058 0.13138
 C132 C 1.15817 0.10587 0.11058
 C133 C 1.13476 0.08476 0.08211
 C134 C 1.09041 0.09728 0.07387
 C135 C 1.06941 0.13108 0.09485
 C136 C 1.09295 0.15320 0.12312
 C137 C 1.09517 0.21245 0.16969
 C138 C 1.07217 0.18844 0.14253
 H139 H 1.07785 0.23990 0.18352
 H140 H 1.03780 0.19811 0.13621
 H141 H 1.14536 0.25597 0.21835
 H142 H 1.26261 0.17197 0.20562
 H143 H 1.15150 0.05851 0.06643
 H144 H 1.03512 0.14106 0.08853
 H145 H 1.22544 0.12806 0.15937
 H146 H 1.19226 0.09485 0.11541
 C147 C 1.15971 0.66296 0.66859
 C148 C 1.20657 0.65496 0.67122
 C149 C 1.23221 0.67789 0.69775
 C150 C 1.21188 0.70886 0.72166
 C151 C 1.16572 0.71722 0.71884
 C152 C 1.13978 0.69437 0.69284
 C153 C 1.13376 0.63904 0.63908
 C154 C 1.08699 0.64437 0.63445
 C155 C 1.06472 0.62333 0.60535
 C156 C 1.08836 0.59638 0.58012
 C157 C 1.13462 0.58938 0.58525
 C158 C 1.15741 0.61043 0.61448
 C159 C 1.22773 0.62505 0.64682
 C160 C 1.20371 0.60344 0.61892
 H161 H 1.26358 0.61886 0.64890
 H162 H 1.22176 0.58121 0.60032
 H163 H 1.26823 0.67233 0.69933
 H164 H 1.14958 0.74235 0.73594
 H165 H 1.02887 0.62876 0.60230
 H166 H 1.15303 0.56800 0.56620
 H167 H 1.10449 0.70264 0.69170
 H168 H 1.06695 0.66486 0.65275
 C169 C 0.64960 0.15122 0.67002
 C170 C 0.64009 0.19834 0.67302
 C171 C 0.66550 0.22551 0.69702
 C172 C 0.70116 0.20682 0.71757
 C173 C 0.70980 0.16001 0.71545
 C174 C 0.68444 0.13247 0.69201
 C175 C 0.62316 0.12392 0.64257
 C176 C 0.63013 0.07692 0.63707
 C177 C 0.60719 0.05402 0.60904
 C178 C 0.57680 0.07729 0.58573
 C179 C 0.56775 0.12343 0.59240
 C180 C 0.59065 0.14680 0.62041
 C181 C 0.60606 0.21835 0.65140
 C182 C 0.58204 0.19322 0.62556
 H183 H 0.59856 0.25434 0.65386
 H184 H 0.55681 0.21063 0.60888
 H185 H 0.65775 0.26143 0.69936
 H186 H 0.73664 0.14451 0.73143
 H187 H 0.61442 0.01832 0.60483
 H188 H 0.54386 0.14169 0.57493
 H189 H 0.69317 0.09683 0.69108
 H190 H 0.65379 0.05742 0.65355
 C191 C 0.66138 0.65857 0.17207
 C192 C 0.64854 0.70477 0.17576
 C193 C 0.67135 0.73285 0.20066
 C194 C 0.70767 0.71602 0.22140
 C195 C 0.71947 0.67002 0.21874
 C196 C 0.69667 0.64153 0.19443
 C197 C 0.63779 0.63042 0.14363
 C198 C 0.64836 0.58430 0.13732
 C199 C 0.62742 0.56054 0.10880
 C200 C 0.59556 0.58215 0.08586
 C201 C 0.58346 0.62740 0.09290
 C202 C 0.60425 0.65160 0.12142
 C203 C 0.61383 0.72305 0.15391
 C204 C 0.59228 0.69709 0.12722
 H205 H 0.60382 0.75833 0.15690
 H206 H 0.56627 0.71312 0.11045
 H207 H 0.66122 0.76810 0.20343
 H208 H 0.74687 0.65591 0.23489
 H209 H 0.63703 0.52548 0.10412
 H210 H 0.55834 0.64419 0.07566
 H211 H 0.70778 0.60662 0.19311
 H212 H 0.67312 0.56613 0.15365
 C213 C 0.83188 -0.15860 0.16869
 C214 C 0.78471 -0.16092 0.16360
 C215 C 0.75786 -0.18574 0.18899
 C216 C 0.77716 -0.20860 0.21947
 C217 C 0.82336 -0.20390 0.22590
 C218 C 0.85056 -0.17945 0.20075
 C219 C 0.85971 -0.13441 0.13951
 C220 C 0.90717 -0.13307 0.14039
 C221 C 0.93155 -0.11205 0.11145
 C222 C 0.90925 -0.09173 0.08111
 C223 C 0.86207 -0.09190 0.08044
 C224 C 0.83728 -0.11348 0.10899
 C225 C 0.76461 -0.13890 0.13303
 C226 C 0.79031 -0.11533 0.10648
 H227 H 0.72843 -0.14026 0.12939
 H228 H 0.77319 -0.09919 0.08312
 H229 H 0.72192 -0.18758 0.18465
 H230 H 0.83879 -0.21900 0.25036
 H231 H 0.96797 -0.11220 0.11260
 H232 H 0.84450 -0.07630 0.05707
 H233 H 0.88599 -0.17737 0.20690
 H234 H 0.92612 -0.14880 0.16270
 C235 C 0.82950 0.33254 0.66582
 C236 C 0.78213 0.33219 0.66158
 C237 C 0.75507 0.30603 0.68605
 C238 C 0.77427 0.28013 0.71500
 C239 C 0.82091 0.28227 0.72034
 C240 C 0.84830 0.30782 0.69598
 C241 C 0.85734 0.35931 0.63798
 C242 C 0.90486 0.35965 0.63812
 C243 C 0.92912 0.38370 0.61057
 C244 C 0.90666 0.40821 0.58237
 C245 C 0.85942 0.40886 0.58251
 C246 C 0.83475 0.38429 0.60961
 C247 C 0.76198 0.35790 0.63297
 C248 C 0.78768 0.38370 0.60777
 H249 H 0.72570 0.35799 0.62993
 H250 H 0.77042 0.40285 0.58603
 H251 H 0.71895 0.30600 0.68249
 H252 H 0.83657 0.26458 0.74352
 H253 H 0.96555 0.38260 0.61107
 H254 H 0.84163 0.42757 0.56079
 H255 H 0.88398 0.30796 0.70137
 H256 H 0.92392 0.34090 0.65879
 C257 C 0.33721 -0.17077 0.67241
 C258 C 0.29009 -0.16383 0.67436
 C259 C 0.26390 -0.18963 0.69956
 C260 C 0.28388 -0.22237 0.72290
 C261 C 0.33035 -0.22937 0.72116
 C262 C 0.35687 -0.20376 0.69633
 C263 C 0.36371 -0.14381 0.64402
 C264 C 0.41065 -0.14835 0.63955
 C265 C 0.43331 -0.12451 0.61113
 C266 C 0.40978 -0.09556 0.58660
 C267 C 0.36342 -0.08933 0.59180
 C268 C 0.34029 -0.11321 0.62011
 C269 C 0.26923 -0.13195 0.65066
 C270 C 0.29379 -0.10725 0.62403
 H271 H 0.23321 -0.12655 0.65230
 H272 H 0.27598 -0.08353 0.60588
 H273 H 0.22776 -0.18471 0.70069
 H274 H 0.34631 -0.25525 0.73839
 H275 H 0.46920 -0.12956 0.60787
 H276 H 0.34503 -0.06653 0.57325
 H277 H 0.39242 -0.21092 0.69592
 H278 H 0.43044 -0.17052 0.65726
 C279 C 0.33252 0.33697 0.17285
 C280 C 0.28549 0.34414 0.17281
 C281 C 0.25777 0.31797 0.19657
 C282 C 0.27650 0.28675 0.22205
 C283 C 0.32334 0.28344 0.22495
 C284 C 0.35118 0.30765 0.20015
 C285 C 0.36043 0.36162 0.14422
 C286 C 0.40541 0.34972 0.13658
 C287 C 0.42940 0.37233 0.10824
 C288 C 0.40966 0.40831 0.08809
 C289 C 0.36500 0.42049 0.09549
 C290 C 0.33973 0.39615 0.12225
 C291 C 0.26663 0.37772 0.14946
 C292 C 0.29349 0.40436 0.12565
 H293 H 0.23070 0.38398 0.15002
 H294 H 0.27749 0.43040 0.10847
 H295 H 0.22153 0.32203 0.19538
 H296 H 0.33884 0.26221 0.24610
 H297 H 0.46337 0.36167 0.10197
 H298 H 0.34916 0.44721 0.07887
 H299 H 0.38711 0.30360 0.20301
 H300 H 0.42189 0.32197 0.15124
 C301 C 0.82689 0.16130 -0.16878
 C302 C 0.78865 0.18546 -0.15640
 C303 C 0.76230 0.21029 -0.18189
 C304 C 0.77189 0.20982 -0.22007
 C305 C 0.80788 0.18336 -0.23266
 C306 C 0.83551 0.15980 -0.20736
 C307 C 0.85580 0.13774 -0.14016
 C308 C 0.89792 0.11817 -0.14856
 C309 C 0.92370 0.09711 -0.12055
 C310 C 0.90749 0.09419 -0.08391
 C311 C 0.86592 0.11382 -0.07527
 C312 C 0.84072 0.13661 -0.10273
 C313 C 0.77645 0.18423 -0.11872
 C314 C 0.80127 0.15933 -0.09262
 H315 H 0.74679 0.20220 -0.10933
 H316 H 0.79003 0.15884 -0.06387
 H317 H 0.73415 0.22968 -0.17165
 H318 H 0.81523 0.18170 -0.26215
 H319 H 0.95601 0.08249 -0.12760
 H320 H 0.85381 0.11260 -0.04674
 H321 H 0.86308 0.14033 -0.21845
 H322 H 0.91174 0.11954 -0.17639
 C323 C 0.82930 0.67318 0.33634
 C324 C 0.78960 0.69539 0.34814
 C325 C 0.76368 0.72048 0.32246
 C326 C 0.77549 0.72211 0.28473
 C327 C 0.81316 0.69780 0.27265
 C328 C 0.84015 0.67402 0.29813
 C329 C 0.85729 0.64879 0.36502
 C330 C 0.90025 0.63076 0.35727
 C331 C 0.92502 0.60849 0.38520
 C332 C 0.90707 0.60293 0.42109
 C333 C 0.86467 0.62113 0.42916
 C334 C 0.84030 0.64499 0.40180
 C335 C 0.77550 0.69168 0.38530
 C336 C 0.79973 0.66606 0.41135
 H337 H 0.74480 0.70817 0.39423
 H338 H 0.78703 0.66356 0.43965
 H339 H 0.73394 0.73808 0.33197
 H340 H 0.82206 0.69764 0.24339
 H341 H 0.95799 0.59505 0.37865
 H342 H 0.85119 0.61788 0.45720
 H343 H 0.86888 0.65603 0.28737
 H344 H 0.91552 0.63420 0.33006
 C345 C 0.31258 0.16057 0.34002
 C346 C 0.32825 0.16218 0.30280
 C347 C 0.30425 0.18692 0.27557
 C348 C 0.26660 0.21287 0.28540
 C349 C 0.25159 0.21162 0.32240
 C350 C 0.27395 0.18562 0.34932
 C351 C 0.33914 0.13429 0.36836
 C352 C 0.32394 0.12712 0.40517
 C353 C 0.35090 0.10461 0.43119
 C354 C 0.39376 0.08903 0.42132
 C355 C 0.40863 0.09431 0.38439
 C356 C 0.38119 0.11600 0.35768
 C357 C 0.36881 0.14089 0.29341
 C358 C 0.39527 0.11923 0.32045
 H359 H 0.38107 0.14236 0.26495
 H360 H 0.42708 0.10456 0.31205
 H361 H 0.31642 0.18769 0.24716
 H362 H 0.22270 0.23104 0.33105
 H363 H 0.33848 0.10024 0.45944
 H364 H 0.44130 0.08118 0.37643
 H365 H 0.26122 0.18686 0.37742
 H366 H 0.29135 0.13844 0.41444
 C367 C 0.33376 0.65283 -0.16474
 C368 C 0.33795 0.70097 -0.16602
 C369 C 0.31192 0.72686 -0.19094
 C370 C 0.28192 0.70564 -0.21498
 C371 C 0.27752 0.65817 -0.21393
 C372 C 0.30323 0.63189 -0.18914
 C373 C 0.36117 0.62659 -0.13673
 C374 C 0.35901 0.57871 -0.13261
 C375 C 0.38326 0.55621 -0.10460
 C376 C 0.41036 0.58082 -0.08019
 C377 C 0.41422 0.62821 -0.08503
 C378 C 0.38974 0.65122 -0.11282
 C379 C 0.36762 0.72311 -0.14217
 C380 C 0.39299 0.69875 -0.11613
 H381 H 0.37091 0.75995 -0.14336
 H382 H 0.41505 0.71751 -0.09793
 H383 H 0.31489 0.76376 -0.19160
 H384 H 0.25384 0.64128 -0.23186
 H385 H 0.38000 0.51950 -0.10158
 H386 H 0.43542 0.64748 -0.06647
 H387 H 0.29833 0.59545 -0.18932
 H388 H 0.33831 0.55806 -0.15023
 C389 C 1.16616 -0.16941 -0.16309
 C390 C 1.15363 -0.21522 -0.16942
 C391 C 1.17851 -0.24148 -0.19431
 C392 C 1.21390 -0.22194 -0.21488
 C393 C 1.22530 -0.17618 -0.20979
 C394 C 1.20183 -0.15012 -0.18410
 C395 C 1.14074 -0.14353 -0.13435
 C396 C 1.15441 -0.10025 -0.12217
 C397 C 1.13040 -0.07820 -0.09436
 C398 C 1.09173 -0.09827 -0.07877
 C399 C 1.07753 -0.14107 -0.09084
 C400 C 1.10247 -0.16440 -0.11762
 C401 C 1.11613 -0.23433 -0.15123
 C402 C 1.09040 -0.20905 -0.12658
 H403 H 1.10616 -0.26920 -0.15651
 H404 H 1.06137 -0.22519 -0.11350
 H405 H 1.17001 -0.27710 -0.19802
 H406 H 1.25304 -0.16066 -0.22502
 H407 H 1.14199 -0.04528 -0.08507
 H408 H 1.04817 -0.15709 -0.07812
 H409 H 1.21194 -0.11500 -0.18126
 H410 H 1.18412 -0.08340 -0.13303
 C411 C 1.15361 0.34404 0.32830
 C412 C 1.13489 0.30265 0.31580
 C413 C 1.15911 0.27560 0.29096
 C414 C 1.20103 0.29011 0.27722
 C415 C 1.21834 0.33225 0.28794
 C416 C 1.19492 0.35910 0.31304
 C417 C 1.12937 0.36914 0.35818
 C418 C 1.14827 0.40688 0.37624
 C419 C 1.12578 0.42713 0.40575
 C420 C 1.08359 0.41093 0.41747
 C421 C 1.06388 0.37417 0.39912
 C422 C 1.08692 0.35245 0.37032
 C423 C 1.09264 0.28806 0.32878
 C424 C 1.06872 0.31299 0.35489
 H425 H 1.07794 0.25677 0.31874
 H426 H 1.03623 0.30020 0.36419
 H427 H 1.14618 0.24239 0.28360
 H428 H 1.25096 0.34383 0.27808
 H429 H 1.14159 0.45542 0.41963
 H430 H 1.03152 0.36105 0.40846
 H431 H 1.21011 0.39103 0.32058
 H432 H 1.18092 0.42044 0.36881
 C433 C 0.64776 -0.15063 0.32103
 C434 C 0.63571 -0.19672 0.31506
 C435 C 0.66269 -0.22410 0.29243
 C436 C 0.70198 -0.20644 0.27608
 C437 C 0.71334 -0.16066 0.28108
 C438 C 0.68652 -0.13292 0.30313
 C439 C 0.62030 -0.12371 0.34796
 C440 C 0.63029 -0.07814 0.35687
 C441 C 0.60728 -0.05654 0.38556
 C442 C 0.57360 -0.07971 0.40583
 C443 C 0.56097 -0.12371 0.39516
 C444 C 0.58418 -0.14593 0.36671
 C445 C 0.59789 -0.21572 0.33285
 C446 C 0.57274 -0.19091 0.35821
 H447 H 0.58840 -0.25082 0.32799
 H448 H 0.54465 -0.20765 0.37219
 H449 H 0.65408 -0.25968 0.28868
 H450 H 0.74374 -0.14646 0.26881
 H451 H 0.61736 -0.02238 0.39300
 H452 H 0.53460 -0.14176 0.41037
 H453 H 0.69747 -0.09818 0.30660
 H454 H 0.65669 -0.05906 0.34296
 C455 C 0.65475 0.33863 -0.17475
 C456 C 0.64108 0.29292 -0.18026
 C457 C 0.66364 0.26601 -0.20637
 C458 C 0.70078 0.28345 -0.22614
 C459 C 0.71345 0.32898 -0.22159
 C460 C 0.69060 0.35642 -0.19644
 C461 C 0.63216 0.36509 -0.14457
 C462 C 0.64335 0.41068 -0.13674
 C463 C 0.62379 0.43269 -0.10658
 C464 C 0.59272 0.40986 -0.08332
 C465 C 0.57987 0.36515 -0.09182
 C466 C 0.59915 0.34276 -0.12223
 C467 C 0.60648 0.27368 -0.15845
 C468 C 0.58619 0.29794 -0.12992
 H469 H 0.59584 0.23880 -0.16276
 H470 H 0.56044 0.28105 -0.11319
 H471 H 0.65408 0.23060 -0.20966
 H472 H 0.74224 0.34309 -0.23636
 H473 H 0.63387 0.46741 -0.10096
 H474 H 0.55525 0.34748 -0.07442
 H475 H 0.70265 0.39086 -0.19347
 H476 H 0.66748 0.42984 -0.15324
 C477 C 1.16907 0.16578 -0.17176
 C478 C 1.21555 0.15641 -0.17577
 C479 C 1.24235 0.18391 -0.19949
 C480 C 1.22304 0.21905 -0.22095
 C481 C 1.17687 0.22751 -0.21780
 C482 C 1.15013 0.20130 -0.19353
 C483 C 1.14225 0.13773 -0.14422
 C484 C 1.09736 0.14799 -0.13474
 C485 C 1.07471 0.12258 -0.10724
 C486 C 1.09576 0.08569 -0.08919
 C487 C 1.13992 0.07420 -0.09911
 C488 C 1.16370 0.10071 -0.12565
 C489 C 1.23486 0.11958 -0.15628
 C490 C 1.20928 0.09176 -0.13235
 H491 H 1.27029 0.11196 -0.15974
 H492 H 1.22580 0.06361 -0.11799
 H493 H 1.27823 0.17772 -0.20151
 H494 H 1.16134 0.25507 -0.23350
 H495 H 1.04070 0.13210 -0.09970
 H496 H 1.15666 0.04631 -0.08455
 H497 H 1.11478 0.20937 -0.19231
 H498 H 1.07962 0.17638 -0.14729
 C499 C 1.16564 0.67151 0.33082
 C500 C 1.19581 0.64739 0.30785
 C501 C 1.22290 0.67118 0.28157
 C502 C 1.22120 0.71901 0.27863
 C503 C 1.19079 0.74247 0.30118
 C504 C 1.16342 0.71929 0.32678
 C505 C 1.13819 0.64530 0.35915
 C506 C 1.10706 0.66638 0.38294
 C507 C 1.08432 0.64115 0.41040
 C508 C 1.09167 0.59416 0.41498
 C509 C 1.12112 0.57231 0.39037
 C510 C 1.14444 0.59755 0.36260
 C511 C 1.19931 0.59984 0.31179
 C512 C 1.17443 0.57552 0.33871
 H513 H 1.22227 0.58119 0.29423
 H514 H 1.17904 0.53891 0.34106
 H515 H 1.24542 0.65223 0.26397
 H516 H 1.18773 0.77918 0.29909
 H517 H 1.06134 0.65882 0.42860
 H518 H 1.12677 0.53592 0.39340
 H519 H 1.14119 0.73967 0.34335
 H520 H 1.10005 0.70240 0.38123
 C521 C 0.68459 0.15923 0.34135
 C522 C 0.72013 0.18775 0.35287
 C523 C 0.74396 0.21441 0.32647
 C524 C 0.73390 0.21215 0.28840
 C525 C 0.69962 0.18287 0.27695
 C526 C 0.67511 0.15684 0.30296
 C527 C 0.65861 0.13296 0.37059
 C528 C 0.62023 0.10698 0.36223
 C529 C 0.59586 0.08490 0.39044
 C530 C 0.60935 0.08729 0.42772
 C531 C 0.64816 0.11200 0.43652
 C532 C 0.67228 0.13570 0.40829
 C533 C 0.73189 0.18926 0.39060
 C534 C 0.70891 0.16332 0.41761
 H535 H 0.75945 0.21075 0.39939
 H536 H 0.71938 0.16572 0.44638
 H537 H 0.77052 0.23659 0.33586
 H538 H 0.69165 0.18020 0.24767
 H539 H 0.56599 0.06588 0.38304
 H540 H 0.65829 0.11445 0.46538
 H541 H 0.64918 0.13490 0.29235
 H542 H 0.60772 0.10413 0.33424
 C543 C 0.66080 0.65979 -0.17211
 C544 C 0.70779 0.65264 -0.17473
 C545 C 0.73357 0.67812 -0.20044
 C546 C 0.71355 0.71131 -0.22352
 C547 C 0.66695 0.71754 -0.22195
 C548 C 0.64071 0.69192 -0.19669
 C549 C 0.63517 0.63446 -0.14204
 C550 C 0.58857 0.63991 -0.13620
 C551 C 0.56692 0.61784 -0.10627
 C552 C 0.59110 0.58980 -0.08138
 C553 C 0.63712 0.58281 -0.08771
 C554 C 0.65924 0.60487 -0.11764
 C555 C 0.72921 0.62154 -0.15065
 C556 C 0.70547 0.59821 -0.12270
 H557 H 0.76515 0.61593 -0.15287
 H558 H 0.72380 0.57524 -0.10428
 H559 H 0.76982 0.67391 -0.20114
 H560 H 0.65097 0.74347 -0.23916
 H561 H 0.53122 0.62346 -0.10222
 H562 H 0.65598 0.56073 -0.06892
 H563 H 0.60509 0.69881 -0.19608
 H564 H 0.56834 0.66152 -0.15405
 C565 C 0.82682 -0.16352 -0.16076
 C566 C 0.83352 -0.15267 -0.19887
 C567 C 0.81077 -0.17773 -0.22615
 C568 C 0.77963 -0.21189 -0.21573
 C569 C 0.77019 -0.21900 -0.17776
 C570 C 0.79369 -0.19569 -0.15067
 C571 C 0.85412 -0.13917 -0.13251
 C572 C 0.85557 -0.15353 -0.09493
 C573 C 0.88119 -0.12978 -0.06938
 C574 C 0.90529 -0.09073 -0.08044
 C575 C 0.90504 -0.07649 -0.11798
 C576 C 0.88079 -0.10154 -0.14436
 C577 C 0.86208 -0.11634 -0.20921
 C578 C 0.88405 -0.09037 -0.18244
 H579 H 0.86674 -0.10724 -0.23835
 H580 H 0.90495 -0.06201 -0.19176
 H581 H 0.81694 -0.17000 -0.25525
 H582 H 0.74469 -0.24280 -0.16833
 H583 H 0.88148 -0.14149 -0.04057
 H584 H 0.92472 -0.04694 -0.12670
 H585 H 0.78489 -0.20279 -0.12196
 H586 H 0.83785 -0.18352 -0.08487
 C587 C 0.84927 0.34542 0.32670
 C588 C 0.86356 0.29979 0.32202
 C589 C 0.84073 0.27144 0.29733
 C590 C 0.80277 0.28741 0.27830
 C591 C 0.78945 0.33281 0.28190
 C592 C 0.81258 0.36170 0.30558
 C593 C 0.87178 0.37326 0.35583
 C594 C 0.85992 0.41887 0.36289
 C595 C 0.87882 0.44185 0.39271
 C596 C 0.90981 0.41990 0.41622
 C597 C 0.92368 0.37545 0.40822
 C598 C 0.90514 0.35213 0.37822
 C599 C 0.89886 0.28197 0.34347
 C600 C 0.91898 0.30747 0.37120
 H601 H 0.91000 0.24718 0.33970
 H602 H 0.94513 0.29164 0.38794
 H603 H 0.85070 0.23609 0.29471
 H604 H 0.75994 0.34569 0.26764
 H605 H 0.86819 0.47645 0.39801
 H606 H 0.94831 0.35856 0.42587
 H607 H 0.80000 0.39597 0.30803
 H608 H 0.83566 0.43720 0.34615
 C609 C 0.33194 -0.16315 0.33426
 C610 C 0.35248 -0.20253 0.31983
 C611 C 0.33121 -0.22695 0.29138
 C612 C 0.28905 -0.21330 0.27742
 C613 C 0.26961 -0.17349 0.29135
 C614 C 0.29070 -0.14862 0.31899
 C615 C 0.35446 -0.13924 0.36575
 C616 C 0.33628 -0.10004 0.38197
 C617 C 0.35804 -0.07906 0.41130
 C618 C 0.39850 -0.09645 0.42571
 C619 C 0.41697 -0.13577 0.41002
 C620 C 0.39538 -0.15705 0.37999
 C621 C 0.39351 -0.21796 0.33460
 C622 C 0.41442 -0.19580 0.36403
 H623 H 0.40945 -0.24805 0.32355
 H624 H 0.44589 -0.20937 0.37458
 H625 H 0.34741 -0.25705 0.28119
 H626 H 0.23713 -0.16172 0.28166
 H627 H 0.34288 -0.04882 0.42278
 H628 H 0.44841 -0.14928 0.42068
 H629 H 0.27339 -0.11877 0.32854
 H630 H 0.30536 -0.08474 0.37244
 C631 C 0.33715 0.34132 -0.16385
 C632 C 0.36103 0.31254 -0.18818
 C633 C 0.33789 0.28848 -0.21564
 C634 C 0.29117 0.29257 -0.21911
 C635 C 0.26762 0.32148 -0.19553
 C636 C 0.29022 0.34584 -0.16835
 C637 C 0.36269 0.36441 -0.13359
 C638 C 0.34184 0.39265 -0.10735
 C639 C 0.36661 0.41146 -0.07853
 C640 C 0.41281 0.40292 -0.07515
 C641 C 0.43427 0.37600 -0.10174
 C642 C 0.40958 0.35651 -0.13069
 C643 C 0.40761 0.30701 -0.18436
 C644 C 0.43137 0.32855 -0.15625
 H645 H 0.42593 0.28516 -0.20308
 H646 H 0.46729 0.32268 -0.15417
 H647 H 0.35615 0.26544 -0.23336
 H648 H 0.23140 0.32457 -0.19769
 H649 H 0.34936 0.43258 -0.05863
 H650 H 0.47007 0.36943 -0.09948
 H651 H 0.27015 0.36723 -0.15080
 H652 H 0.30640 0.40029 -0.10824
 C653 C 1.16603 -0.16279 0.16933
 C654 C 1.20867 -0.14609 0.18011
 C655 C 1.23571 -0.17184 0.20474
 C656 C 1.22025 -0.21351 0.22001
 C657 C 1.17753 -0.22942 0.20995
 C658 C 1.15069 -0.20443 0.18512
 C659 C 1.13963 -0.13590 0.14088
 C660 C 1.09890 -0.15170 0.12574
 C661 C 1.07712 -0.12693 0.09757
 C662 C 1.09474 -0.08534 0.08414
 C663 C 1.13443 -0.06837 0.09987
 C664 C 1.15744 -0.09377 0.12748
 C665 C 1.22428 -0.10404 0.16593
 C666 C 1.19896 -0.07818 0.14061
 H667 H 1.25670 -0.09095 0.17447
 H668 H 1.21270 -0.04601 0.13037
 H669 H 1.26909 -0.15964 0.21157
 H670 H 1.16504 -0.26193 0.22050
 H671 H 1.04654 -0.14072 0.08585
 H672 H 1.14860 -0.03651 0.08931
 H673 H 1.11829 -0.21862 0.17842
 H674 H 1.08390 -0.18369 0.13447
 C675 C 1.16787 0.33643 0.66424
 C676 C 1.19769 0.36084 0.68728
 C677 C 1.22467 0.33724 0.71335
 C678 C 1.22281 0.28956 0.71614
 C679 C 1.19421 0.26548 0.69277
 C680 C 1.16684 0.28845 0.66729
 C681 C 1.13993 0.36259 0.63657
 C682 C 1.10805 0.34148 0.61363
 C683 C 1.08482 0.36668 0.58668
 C684 C 1.09247 0.41364 0.58190
 C685 C 1.12251 0.43556 0.60584
 C686 C 1.14617 0.41039 0.63316
 C687 C 1.20109 0.40840 0.68349
 C688 C 1.17627 0.43258 0.65673
 H689 H 1.22395 0.42716 0.70101
 H690 H 1.18080 0.46923 0.65440
 H691 H 1.24769 0.35588 0.73077
 H692 H 1.19301 0.22854 0.69424
 H693 H 1.06124 0.34905 0.56906
 H694 H 1.12822 0.47199 0.60272
 H695 H 1.14578 0.26787 0.64992
 H696 H 1.10069 0.30550 0.61574
 C697 C 0.67969 -0.17361 0.64948
 C698 C 0.70534 -0.14813 0.67497
 C699 C 0.72378 -0.16971 0.70676
 C700 C 0.71871 -0.21684 0.71262
 C701 C 0.69370 -0.24202 0.68727
 C702 C 0.67404 -0.22080 0.65628
 C703 C 0.66023 -0.14930 0.61608
 C704 C 0.63097 -0.17069 0.59097
 C705 C 0.61147 -0.14591 0.56167
 C706 C 0.62157 -0.09967 0.55592
 C707 C 0.65202 -0.07832 0.57972
 C708 C 0.67041 -0.10244 0.61032
 C709 C 0.71355 -0.10164 0.66797
 C710 C 0.69703 -0.07947 0.63610
 H711 H 0.73352 -0.08216 0.68724
 H712 H 0.70446 -0.04350 0.63197
 H713 H 0.74330 -0.15000 0.72607
 H714 H 0.69018 -0.27863 0.69098
 H715 H 0.58734 -0.16265 0.54397
 H716 H 0.65891 -0.04220 0.57592
 H717 H 0.65569 -0.24220 0.63754
 H718 H 0.62126 -0.20600 0.59427
 C719 C 0.67473 0.32952 0.16968
 C720 C 0.72219 0.33075 0.16642
 C721 C 0.74893 0.30654 0.19207
 C722 C 0.72936 0.28037 0.22089
 C723 C 0.68250 0.28025 0.22493
 C724 C 0.65540 0.30437 0.19963
 C725 C 0.64739 0.35468 0.14084
 C726 C 0.59997 0.35492 0.14098
 C727 C 0.57614 0.37735 0.11264
 C728 C 0.59879 0.40011 0.08340
 C729 C 0.64599 0.40117 0.08352
 C730 C 0.67034 0.37856 0.11178
 C731 C 0.74279 0.35574 0.13740
 C732 C 0.71743 0.37913 0.11068
 H733 H 0.77916 0.35685 0.13505
 H734 H 0.73501 0.39755 0.08856
 H735 H 0.78514 0.30813 0.18941
 H736 H 0.66653 0.26170 0.24768
 H737 H 0.53978 0.37649 0.11348
 H738 H 0.66390 0.41890 0.06119
 H739 H 0.61951 0.30273 0.20397
 H740 H 0.58060 0.33763 0.16244
 C741 C 0.84958 0.15591 0.17220
 C742 C 0.86025 0.20266 0.17611
 C743 C 0.83718 0.22881 0.20233
 C744 C 0.80245 0.20954 0.22394
 C745 C 0.79334 0.16288 0.22135
 C746 C 0.81660 0.13627 0.19589
 C747 C 0.87261 0.12997 0.14203
 C748 C 0.86375 0.08358 0.13540
 C749 C 0.88369 0.06179 0.10537
 C750 C 0.91284 0.08563 0.08109
 C751 C 0.92329 0.13131 0.08824
 C752 C 0.90350 0.15356 0.11845
 C753 C 0.89273 0.22340 0.15299
 C754 C 0.91376 0.19943 0.12468
 H755 H 0.90116 0.25910 0.15618
 H756 H 0.93786 0.21734 0.10697
 H757 H 0.84557 0.26454 0.20520
 H758 H 0.76748 0.14682 0.23826
 H759 H 0.87546 0.02634 0.10071
 H760 H 0.94633 0.14982 0.06994
 H761 H 0.80736 0.10076 0.19462
 H762 H 0.84110 0.06360 0.15267
 C763 C 0.84584 0.66920 0.67104
 C764 C 0.81199 0.64628 0.69201
 C765 C 0.78515 0.67053 0.71699
 C766 C 0.79148 0.71750 0.72157
 C767 C 0.82527 0.73998 0.70113
 C768 C 0.85244 0.71623 0.67645
 C769 C 0.87126 0.64293 0.64246
 C770 C 0.90431 0.66309 0.61919
 C771 C 0.92409 0.63840 0.59075
 C772 C 0.91195 0.59286 0.58498
 C773 C 0.88094 0.57159 0.60922
 C774 C 0.86021 0.59638 0.63761
 C775 C 0.80390 0.59973 0.68688
 C776 C 0.82751 0.57530 0.66028
 H777 H 0.77817 0.58210 0.70313
 H778 H 0.81928 0.53960 0.65681
 H779 H 0.75789 0.65297 0.73126
 H780 H 0.82980 0.77638 0.70300
 H781 H 0.94849 0.65537 0.57273
 H782 H 0.87156 0.53628 0.60509
 H783 H 0.87739 0.73572 0.66113
 H784 H 0.91476 0.69809 0.62188
 C785 C 0.34921 0.17627 0.66515
 C786 C 0.31915 0.15244 0.68938
 C787 C 0.29311 0.17627 0.71515
 C788 C 0.29673 0.22365 0.71752
 C789 C 0.32667 0.24731 0.69395
 C790 C 0.35283 0.22402 0.66815
 C791 C 0.37437 0.14966 0.63649
 C792 C 0.40397 0.16997 0.61010
 C793 C 0.42399 0.14390 0.58232
 C794 C 0.41514 0.09702 0.58034
 C795 C 0.38745 0.07627 0.60757
 C796 C 0.36684 0.10205 0.63520
 C797 C 0.31435 0.10509 0.68720
 C798 C 0.33775 0.08042 0.66075
 H799 H 0.29159 0.08686 0.70590
 H800 H 0.33228 0.04389 0.65981
 H801 H 0.26900 0.15786 0.73237
 H802 H 0.32933 0.28412 0.69513
 H803 H 0.44556 0.16067 0.56187
 H804 H 0.38066 0.03993 0.60669
 H805 H 0.37503 0.24405 0.65049
 H806 H 0.41141 0.20600 0.60995
 C807 C 0.33982 0.66519 0.16587
 C808 C 0.30564 0.69487 0.15292
 C809 C 0.28132 0.72131 0.17807
 C810 C 0.28843 0.71728 0.21670
 C811 C 0.31990 0.68499 0.22962
 C812 C 0.34588 0.65990 0.20461
 C813 C 0.36669 0.63954 0.13762
 C814 C 0.40578 0.61445 0.14662
 C815 C 0.42982 0.59170 0.11894
 C816 C 0.41460 0.59241 0.08205
 C817 C 0.37606 0.61747 0.07280
 C818 C 0.35299 0.64214 0.09991
 C819 C 0.29500 0.69727 0.11497
 C820 C 0.31729 0.67049 0.08922
 H821 H 0.26832 0.71952 0.10511
 H822 H 0.30719 0.67294 0.06028
 H823 H 0.25621 0.74436 0.16691
 H824 H 0.32408 0.67826 0.25910
 H825 H 0.45994 0.57294 0.12642
 H826 H 0.36498 0.61909 0.04406
 H827 H 0.36971 0.63570 0.21603
 H828 H 0.41866 0.61287 0.17468
   
