data_POSCAR
  _audit_creation_date              2014-09-24
  _audit_creation_method            'ToBaCCo'
  _symmetry_space_group_name_H-M    'P1'
  _symmetry_Int_Tables_number       1
  _symmetry_cell_setting            triclinic
  loop_
  _symmetry_equiv_pos_as_xyz
 x,y,z
_cell_length_a 28.2352
_cell_length_b 25.5701
_cell_length_c 14.1290
_cell_angle_alpha 91.068900
_cell_angle_beta 88.693800
_cell_angle_gamma 90.527900
loop_
  _atom_site_label
  _atom_site_type_symbol
  _atom_site_fract_x
  _atom_site_fract_y
  _atom_site_fract_z
C1 C 0.64354 0.30362 0.49359
 C2 C 0.65350 0.28341 0.58255
 C3 C 0.68947 0.24575 0.58871
 C4 C 0.71741 0.23138 0.50822
 C5 C 0.70971 0.25733 0.42236
 C6 C 0.67147 0.29104 0.41367
 C7 C 0.75213 0.18728 0.51138
 C8 C 0.76353 0.15864 0.42776
 C9 C 0.79443 0.11617 0.42751
 C10 C 0.81351 0.10111 0.51409
 C11 C 0.80377 0.12938 0.59854
 C12 C 0.77293 0.17217 0.59676
 H13 H 0.61505 0.33141 0.48676
 H14 H 0.69413 0.22601 0.65464
 H15 H 0.73220 0.25036 0.36053
 H16 H 0.74717 0.16796 0.36178
 H17 H 0.83729 0.06842 0.51646
 H18 H 0.76626 0.19404 0.66188
 C19 C 0.26594 0.95253 0.51236
 C20 C 0.28080 0.93258 0.59825
 C21 C 0.30925 0.88737 0.59658
 C22 C 0.31985 0.86011 0.51033
 C23 C 0.29958 0.87859 0.42694
 C24 C 0.27266 0.92412 0.42765
 C25 C 0.34910 0.81097 0.50669
 C26 C 0.36881 0.79197 0.41965
 C27 C 0.39088 0.74324 0.41271
 C28 C 0.39639 0.71453 0.49512
 C29 C 0.38123 0.73402 0.58444
 C30 C 0.35596 0.78121 0.58863
 H31 H 0.24513 0.98797 0.51238
 H32 H 0.32361 0.87470 0.66231
 H33 H 0.30209 0.85647 0.36118
 H34 H 0.36649 0.81406 0.35554
 H35 H 0.40911 0.67510 0.48779
 H36 H 0.34099 0.79363 0.65626
 C37 C 0.23469 0.44183 -0.46733
 C38 C 0.22816 0.42077 -0.55800
 C39 C 0.19974 0.37601 -0.56916
 C40 C 0.17719 0.35202 -0.49089
 C41 C 0.18643 0.37240 -0.39920
 C42 C 0.21575 0.41682 -0.38758
 C43 C 0.14574 0.30513 -0.50683
 C44 C 0.14030 0.26595 -0.43818
 C45 C 0.11410 0.21974 -0.45672
 C46 C 0.09274 0.21374 -0.54547
 C47 C 0.09818 0.25174 -0.61496
 C48 C 0.12338 0.29756 -0.59453
 H49 H 0.25746 0.47587 -0.45823
 H50 H 0.19580 0.35971 -0.63953
 H51 H 0.17080 0.35462 -0.33691
 H52 H 0.15827 0.27003 -0.37158
 H53 H 0.07296 0.17894 -0.56361
 H54 H 0.12579 0.32676 -0.64883
 C55 C -0.11527 0.76909 -0.52693
 C56 C -0.13079 0.74654 -0.61309
 C57 C -0.17170 0.71463 -0.61111
 C58 C -0.19904 0.70783 -0.52725
 C59 C -0.18422 0.73359 -0.44418
 C60 C -0.14218 0.76298 -0.44277
 C61 C -0.24369 0.67554 -0.52700
 C62 C -0.26073 0.65107 -0.44352
 C63 C -0.30273 0.62120 -0.44331
 C64 C -0.32573 0.61260 -0.52904
 C65 C -0.31056 0.63748 -0.61198
 C66 C -0.26992 0.66909 -0.61042
 H67 H -0.08494 0.79516 -0.52552
 H68 H -0.18215 0.69524 -0.67616
 H69 H -0.20573 0.73189 -0.37992
 H70 H -0.24143 0.65460 -0.37843
 H71 H -0.35463 0.58469 -0.53234
 H72 H -0.25934 0.68874 -0.67474
 O73 O 0.02094 0.91428 0.14672
 O74 O 0.09752 0.92227 -0.12891
 O75 O -0.05087 0.91143 -0.10863
 O76 O 0.11433 0.98273 0.10733
 O77 O 0.01951 0.88880 -0.11844
 O78 O 0.05727 0.99773 0.20540
 O79 O 0.13416 0.98784 -0.06401
 O80 O -0.04122 0.89594 0.06642
 C81 C -0.01070 0.88245 0.12511
 C82 C 0.13504 0.94505 -0.10879
 C83 C -0.02164 0.87884 -0.13717
 C84 C 0.09931 0.98554 0.19055
 O85 O -0.00576 1.05199 0.12344
 O86 O -0.01384 0.98234 -0.19281
 O87 O -0.07127 0.99546 0.09632
 O88 O 0.08530 1.07210 -0.07951
 O89 O 0.06826 1.01461 -0.19266
 O90 O -0.03335 0.97886 0.22559
 O91 O 0.06718 1.07466 0.09631
 O92 O -0.06173 1.01071 -0.07863
 Co93 Co 0.00816 0.98234 0.12860
 Co94 Co 0.04086 0.95371 -0.14645
 Co95 Co -0.04760 0.95548 -0.00539
 Co96 Co 0.09335 1.02493 0.01454
 O97 O 0.02827 0.97966 -0.00721
 C98 C 0.02594 1.08608 0.12528
 C99 C -0.04737 1.01169 -0.16380
 C100 C -0.07368 0.98456 0.18419
 C101 C 0.08054 1.06041 -0.16554
 O102 O 0.41081 0.41202 0.11056
 O103 O 0.49516 0.38045 -0.15067
 O104 O 0.36976 0.47591 -0.07931
 O105 O 0.55942 0.42075 0.09307
 O106 O 0.40818 0.40540 -0.11801
 O107 O 0.49216 0.38515 0.12157
 O108 O 0.55959 0.40971 -0.08236
 O109 O 0.37290 0.48252 0.09155
 C110 C 0.37287 0.43566 0.11544
 C111 C 0.53804 0.37591 -0.13221
 C112 C 0.36980 0.42859 -0.10708
 C113 C 0.53576 0.38292 0.12425
 O114 O 0.51604 0.48196 0.18903
 O115 O 0.42828 0.49762 -0.19428
 O116 O 0.43729 0.56230 0.07757
 O117 O 0.56243 0.51107 -0.10380
 O118 O 0.51275 0.47641 -0.20556
 O119 O 0.43472 0.50694 0.18841
 O120 O 0.55261 0.52391 0.07645
 O121 O 0.43143 0.55911 -0.09142
 Co122 Co 0.46389 0.44831 0.13974
 Co123 Co 0.46158 0.44252 -0.15122
 Co124 Co 0.40848 0.51559 -0.00060
 Co125 Co 0.55005 0.46694 -0.00325
 O126 O 0.47173 0.46876 -0.00451
 C127 C 0.54134 0.51992 0.16184
 C128 C 0.43225 0.54515 -0.17557
 C129 C 0.43913 0.55328 0.16317
 C130 C 0.54773 0.50562 -0.18654
 C131 C 0.25326 0.44506 0.36075
 C132 C 0.27004 0.41708 0.28657
 C133 C 0.30206 0.44125 0.21639
 C134 C 0.33204 0.41187 0.16443
 H135 H 0.26459 0.37512 0.28280
 H136 H 0.30525 0.48356 0.21563
 H137 H 0.26258 0.48622 0.36682
 H138 H 0.33100 0.36966 0.17038
 C139 C -0.11052 0.75931 0.29766
 C140 C -0.06893 0.78418 0.28413
 C141 C -0.05773 0.81079 0.19409
 C142 C -0.01574 0.83455 0.18102
 H143 H -0.04455 0.78945 0.34158
 H144 H -0.08650 0.81878 0.14706
 H145 H -0.13122 0.75059 0.23540
 H146 H 0.01234 0.82674 0.22979
 C147 C 0.66496 0.62691 0.29805
 C148 C 0.61876 0.61509 0.29737
 C149 C 0.59740 0.58760 0.21677
 C150 C 0.56010 0.55632 0.23314
 H151 H 0.59747 0.61959 0.36179
 H152 H 0.61491 0.58804 0.14770
 H153 H 0.68602 0.62424 0.23305
 H154 H 0.54502 0.55397 0.30426
 C155 C 0.08544 1.23907 0.28620
 C156 C 0.04792 1.20906 0.26601
 C157 C 0.04938 1.17331 0.18326
 C158 C 0.01624 1.13606 0.17459
 H159 H 0.02047 1.20312 0.31981
 H160 H 0.08167 1.17121 0.14032
 H161 H 0.11198 1.24683 0.23145
 H162 H -0.01610 1.13851 0.21732
 C163 C 0.62672 0.30235 -0.33919
 C164 C 0.63750 0.29716 -0.24760
 C165 C 0.61077 0.32700 -0.17373
 C166 C 0.56373 0.33219 -0.17776
 H167 H 0.66973 0.27829 -0.22731
 H168 H 0.63076 0.34913 -0.12188
 H169 H 0.59707 0.32730 -0.35457
 H170 H 0.54416 0.30789 -0.22730
 C171 C 0.26243 0.95627 -0.31815
 C172 C 0.25256 0.93025 -0.23847
 C173 C 0.21667 0.95202 -0.17151
 C174 C 0.17992 0.92221 -0.14394
 H175 H 0.26193 0.88947 -0.23259
 H176 H 0.21513 0.99409 -0.16070
 H177 H 0.24689 0.99476 -0.32395
 H178 H 0.17964 0.88098 -0.16349
 C179 C 0.38790 0.70598 -0.33164
 C180 C 0.41643 0.66441 -0.32663
 C181 C 0.41771 0.63153 -0.24261
 C182 C 0.43373 0.58269 -0.25243
 H183 H 0.43881 0.65234 -0.38591
 H184 H 0.40292 0.64555 -0.17545
 H185 H 0.36894 0.71854 -0.26767
 H186 H 0.44532 0.56818 -0.32170
 C187 C -0.17486 1.11342 -0.31099
 C188 C -0.13117 1.09336 -0.30923
 C189 C -0.11112 1.06877 -0.22508
 C190 C -0.06957 1.04422 -0.23526
 H191 H -0.10978 1.09282 -0.37394
 H192 H -0.13108 1.06767 -0.15873
 H193 H -0.19563 1.11724 -0.24584
 H194 H -0.05134 1.04507 -0.30369
 C195 C 0.67842 0.59751 -0.35441
 C196 C 0.63239 0.58492 -0.34297
 C197 C 0.61316 0.55720 -0.25991
 C198 C 0.57019 0.53475 -0.26448
 H199 H 0.60757 0.59436 -0.39724
 H200 H 0.63423 0.55379 -0.19720
 H201 H 0.70262 0.59040 -0.29771
 H202 H 0.55080 0.53654 -0.32974
 C203 C 0.11104 1.18084 -0.38690
 C204 C 0.09313 1.13226 -0.40129
 C205 C 0.08794 1.09197 -0.32822
 C206 C 0.08885 1.10174 -0.23501
 H207 H 0.08276 1.11871 -0.47047
 H208 H 0.08061 1.05253 -0.35355
 H209 H 0.12534 1.19066 -0.31838
 H210 H 0.09475 1.14098 -0.20770
 C211 C 0.23095 0.43624 -0.29391
 C212 C 0.25558 0.40581 -0.23726
 C213 C 0.28914 0.42961 -0.16980
 C214 C 0.32664 0.40261 -0.14238
 H215 H 0.25757 0.36416 -0.25276
 H216 H 0.28759 0.47138 -0.15545
 H217 H 0.23257 0.47831 -0.28290
 H218 H 0.32909 0.36141 -0.16131
 C219 C -0.13040 0.79187 -0.35461
 C220 C -0.08612 0.79908 -0.32532
 C221 C -0.07685 0.83215 -0.24105
 C222 C -0.03334 0.83731 -0.20661
 H223 H -0.05667 0.78184 -0.36492
 H224 H -0.10556 0.85534 -0.21066
 H225 H -0.15959 0.80690 -0.31120
 H226 H -0.00464 0.81411 -0.23688
 C227 C 0.40214 0.71948 0.31789
 C228 C 0.43326 0.68054 0.30611
 C229 C 0.43249 0.64467 0.22338
 C230 C 0.44428 0.59476 0.23550
 H231 H 0.45603 0.67047 0.36356
 H232 H 0.41808 0.65713 0.15711
 H233 H 0.38070 0.73045 0.25888
 H234 H 0.45503 0.58252 0.30486
 C235 C -0.19204 1.09296 0.33970
 C236 C -0.17001 1.04702 0.33055
 C237 C -0.14365 1.03211 0.24309
 C238 C -0.11607 0.99019 0.24458
 H239 H -0.16754 1.02154 0.39047
 H240 H -0.14034 1.05941 0.18544
 H241 H -0.19831 1.11451 0.27578
 H242 H -0.11773 0.96534 0.30598
 C243 C 0.66075 0.31404 0.32143
 C244 C 0.61654 0.31292 0.28934
 C245 C 0.60210 0.34422 0.20853
 C246 C 0.55718 0.34188 0.18049
 H247 H 0.58942 0.29138 0.32834
 H248 H 0.62638 0.37327 0.17988
 H249 H 0.68896 0.33295 0.28121
 H250 H 0.53336 0.31280 0.21070
 C251 C 0.24761 0.93830 0.34121
 C252 C 0.20300 0.95523 0.34626
 C253 C 0.17542 0.96422 0.26138
 C254 C 0.12961 0.97597 0.27100
 H255 H 0.18537 0.96014 0.41479
 H256 H 0.19218 0.96073 0.19177
 H257 H 0.26408 0.92971 0.27268
 H258 H 0.11340 0.97907 0.34122
   
