data_POSCAR
  _audit_creation_date              2014-09-24
  _audit_creation_method            'ToBaCCo'
  _symmetry_space_group_name_H-M    'P1'
  _symmetry_Int_Tables_number       1
  _symmetry_cell_setting            triclinic
  loop_
  _symmetry_equiv_pos_as_xyz
 x,y,z
_cell_length_a 31.5158
_cell_length_b 31.6738
_cell_length_c 23.4009
_cell_angle_alpha 90.236700
_cell_angle_beta 89.774800
_cell_angle_gamma 119.808300
loop_
  _atom_site_label
  _atom_site_type_symbol
  _atom_site_fract_x
  _atom_site_fract_y
  _atom_site_fract_z
C1 C 0.03274 0.50392 0.04563
 C2 C 0.02751 0.54574 0.04541
 C3 C -0.00337 0.54939 0.00515
 C4 C -0.02993 0.51201 -0.03498
 C5 C -0.02677 0.46846 -0.03164
 C6 C 0.00701 0.46680 0.00584
 H7 H 0.00983 0.43405 0.00815
 H8 H -0.00439 0.58298 0.00418
 C9 C 0.51898 0.53314 0.02678
 C10 C 0.47327 0.48983 0.03081
 C11 C 0.46234 0.45188 -0.00780
 C12 C 0.49653 0.45503 -0.04855
 C13 C 0.54387 0.49740 -0.05102
 C14 C 0.55387 0.53593 -0.01257
 H15 H 0.58818 0.56965 -0.01336
 H16 H 0.42740 0.41859 -0.00512
 C17 C 0.46003 0.97454 0.05356
 C18 C 0.50302 0.97139 0.05991
 C19 C 0.54324 0.99875 0.02427
 C20 C 0.54197 1.02977 -0.01718
 C21 C 0.49805 1.03138 -0.02616
 C22 C 0.45816 1.00464 0.01100
 H23 H 0.42421 1.00485 0.00575
 H24 H 0.57664 0.99740 0.03050
 C25 C 0.97457 0.49162 0.54552
 C26 C 0.96704 0.44382 0.54005
 C27 C 0.99415 0.43434 0.50002
 C28 C 1.02852 0.47088 0.46462
 C29 C 1.03616 0.51919 0.46841
 C30 C 1.00903 0.52866 0.50982
 H31 H 1.01460 0.56487 0.51539
 H32 H 0.98852 0.39772 0.49651
 C33 C 0.49460 0.44856 0.52444
 C34 C 0.54076 0.49151 0.53076
 C35 C 0.55132 0.53201 0.49632
 C36 C 0.51784 0.53033 0.45592
 C37 C 0.47318 0.48644 0.44741
 C38 C 0.46178 0.44655 0.48276
 H39 H 0.42760 0.41288 0.47690
 H40 H 0.58483 0.56618 0.50256
 C41 C 0.56701 0.04765 0.50964
 C42 C 0.52198 0.04740 0.50523
 C43 C 0.48325 0.01013 0.47430
 C44 C 0.48896 -0.02583 0.44496
 C45 C 0.53529 -0.02364 0.44750
 C46 C 0.57337 0.01313 0.47921
 H47 H 0.60822 0.01407 0.48145
 H48 H 0.44997 0.01175 0.46996
 O49 O 0.17783 0.44119 0.18665
 O50 O 0.24501 0.41156 0.29373
 O51 O 0.17992 0.43942 0.29752
 O52 O 0.24298 0.41250 0.18175
 O53 O 0.30258 0.48899 0.18463
 O54 O 0.23867 0.51634 0.29721
 O55 O 0.30356 0.48856 0.29371
 O56 O 0.23832 0.51734 0.18478
 Cu57 Cu 0.20541 0.41839 0.23974
 Cu58 Cu 0.27639 0.51055 0.24015
 C59 C 0.19693 0.48426 0.16728
 C60 C 0.28604 0.44525 0.31160
 C61 C 0.19864 0.48251 0.31700
 C62 C 0.28423 0.44623 0.16444
 O63 O 0.51776 0.70620 0.19000
 O64 O 0.52240 0.78963 0.30418
 O65 O 0.51602 0.70421 0.30139
 O66 O 0.52430 0.79238 0.19307
 O67 O 0.44361 0.75555 0.18973
 O68 O 0.43546 0.66971 0.30017
 O69 O 0.44182 0.75430 0.30174
 O70 O 0.43716 0.67107 0.18926
 Cu71 Cu 0.52830 0.75170 0.24719
 Cu72 Cu 0.43153 0.70935 0.24508
 C73 C 0.47644 0.67420 0.17054
 C74 C 0.48261 0.78585 0.32240
 C75 C 0.47419 0.67204 0.31931
 C76 C 0.48522 0.78857 0.17278
 O77 O 0.17273 0.74469 0.31446
 O78 O 0.26937 0.81190 0.20662
 O79 O 0.18626 0.72927 0.20801
 O80 O 0.25499 0.82819 0.31180
 O81 O 0.29544 0.79103 0.33757
 O82 O 0.22678 0.69246 0.23506
 O83 O 0.30766 0.77279 0.23356
 O84 O 0.21218 0.70666 0.34069
 Cu85 Cu 0.21672 0.78220 0.25754
 Cu86 Cu 0.26423 0.73694 0.29049
 C87 C 0.17564 0.71316 0.34493
 C88 C 0.30493 0.80373 0.20194
 C89 C 0.19502 0.69427 0.20371
 C90 C 0.28834 0.82711 0.34080
 O91 O 0.77128 0.61455 0.78992
 O92 O 0.85710 0.61372 0.68277
 O93 O 0.77224 0.60895 0.67868
 O94 O 0.85638 0.61964 0.79438
 O95 O 0.81990 0.53949 0.79912
 O96 O 0.73442 0.52882 0.68538
 O97 O 0.82014 0.53362 0.68899
 O98 O 0.73428 0.53439 0.79530
 Cu99 Cu 0.81796 0.62224 0.73588
 Cu100 Cu 0.77356 0.52605 0.74273
 C101 C 0.73785 0.57462 0.81026
 C102 C 0.85347 0.57342 0.66816
 C103 C 0.73859 0.56720 0.66302
 C104 C 0.85279 0.58128 0.81596
 O105 O 0.45383 0.26060 0.68411
 O106 O 0.41727 0.16698 0.79671
 O107 O 0.45188 0.26146 0.79517
 O108 O 0.42132 0.16613 0.68457
 O109 O 0.49833 0.18354 0.68582
 O110 O 0.52702 0.27327 0.79947
 O111 O 0.49282 0.18004 0.79618
 O112 O 0.53015 0.27582 0.68889
 Cu113 Cu 0.42820 0.21227 0.73974
 Cu114 Cu 0.51904 0.22919 0.74300
 C115 C 0.49829 0.28464 0.66815
 C116 C 0.44933 0.15736 0.81515
 C117 C 0.49487 0.28355 0.81596
 C118 C 0.45539 0.15928 0.66594
 O119 O 0.71025 0.20050 0.71544
 O120 O 0.79558 0.29109 0.81939
 O121 O 0.71428 0.20737 0.82652
 O122 O 0.79079 0.28531 0.70799
 O123 O 0.74581 0.32089 0.70558
 O124 O 0.67284 0.24681 0.82662
 O125 O 0.75236 0.32854 0.81627
 O126 O 0.66601 0.23696 0.71719
 Cu127 Cu 0.75724 0.24235 0.76727
 Cu128 Cu 0.70523 0.28732 0.76593
 C129 C 0.67279 0.20275 0.70003
 C130 C 0.78812 0.32526 0.83539
 C131 C 0.68057 0.21411 0.84676
 C132 C 0.78116 0.31648 0.68676
 C133 C 0.05926 0.49470 0.09139
 C134 C 0.09854 0.49051 0.08000
 C135 C 0.12341 0.47918 0.12544
 C136 C 0.17153 0.49612 0.12317
 H137 H 0.11309 0.49654 0.03687
 H138 H 0.10236 0.45775 0.16177
 H139 H 0.04677 0.49242 0.13508
 H140 H 0.19318 0.52110 0.08954
 C141 C 0.53157 0.57663 0.06277
 C142 C 0.50047 0.59350 0.06956
 C143 C 0.50949 0.63247 0.11064
 C144 C 0.47260 0.63961 0.12593
 H145 H 0.46599 0.57605 0.04674
 H146 H 0.54500 0.65307 0.13074
 H147 H 0.56709 0.59519 0.08320
 H148 H 0.43685 0.61711 0.10700
 C149 C 0.41600 0.94689 0.08983
 C150 C 0.39716 0.89952 0.10076
 C151 C 0.35455 0.87319 0.13860
 C152 C 0.34416 0.83008 0.16003
 H153 H 0.41384 0.87984 0.08235
 H154 H 0.33335 0.89010 0.15137
 H155 H 0.39741 0.96565 0.10564
 H156 H 0.36748 0.81498 0.14950
 C157 C 0.94826 0.50293 0.59051
 C158 C 0.93242 0.53472 0.58376
 C159 C 0.89924 0.53715 0.62649
 C160 C 0.88847 0.57296 0.62668
 H161 H 0.94114 0.55663 0.54548
 H162 H 0.88294 0.50866 0.65841
 H163 H 0.93830 0.48156 0.62935
 H164 H 0.90665 0.60305 0.59713
 C165 C 0.47759 0.40524 0.56131
 C166 C 0.50404 0.38372 0.57117
 C167 C 0.48536 0.34134 0.60930
 C168 C 0.51414 0.32394 0.62595
 H169 H 0.53999 0.39810 0.55209
 H170 H 0.44844 0.32565 0.62598
 H171 H 0.44071 0.38902 0.57825
 H172 H 0.55150 0.34076 0.61046
 C173 C 0.60870 0.08335 0.54508
 C174 C 0.60234 0.09779 0.59659
 C175 C 0.64324 0.13580 0.62952
 C176 C 0.63502 0.16466 0.66401
 H177 H 0.56587 0.08291 0.61426
 H178 H 0.67980 0.14122 0.62421
 H179 H 0.64553 0.09687 0.52901
 H180 H 0.59883 0.16079 0.66536
 C181 C 0.49484 0.05775 0.92701
 C182 C 0.46051 0.07038 0.91846
 C183 C 0.46727 0.10322 0.87053
 C184 C 0.43670 0.11995 0.85944
 H185 H 0.43038 0.06047 0.94767
 H186 H 0.49994 0.11582 0.84455
 H187 H 0.52352 0.07025 0.89515
 H188 H 0.40312 0.10701 0.88362
 C189 C 0.57909 0.50085 0.90830
 C190 C 0.62538 0.53783 0.90392
 C191 C 0.65952 0.53612 0.86198
 C192 C 0.70295 0.57545 0.85155
 H193 H 0.63969 0.56946 0.93117
 H194 H 0.64891 0.50246 0.83914
 H195 H 0.56867 0.47150 0.87801
 H196 H 0.71256 0.60965 0.87246
 C197 C 0.94194 0.42501 0.93871
 C198 C 0.89482 0.41053 0.92912
 C199 C 0.86351 0.36840 0.89298
 C200 C 0.82045 0.36243 0.87624
 H201 H 0.87894 0.43123 0.94689
 H202 H 0.87661 0.34468 0.87727
 H203 H 0.95500 0.40005 0.92812
 H204 H 0.80908 0.38783 0.89102
 C205 C 0.54621 0.94154 0.41719
 C206 C 0.51753 0.89339 0.42187
 C207 C 0.52228 0.86001 0.38189
 C208 C 0.48263 0.81804 0.36783
 H209 H 0.48634 0.87891 0.45058
 H210 H 0.55667 0.87172 0.35987
 H211 H 0.57801 0.95619 0.38949
 H212 H 0.44779 0.80848 0.38754
 C213 C 0.44019 0.48213 0.39980
 C214 C 0.39135 0.45612 0.40232
 C215 C 0.36234 0.46260 0.35761
 C216 C 0.31385 0.43429 0.35364
 H217 H 0.37288 0.43338 0.43884
 H218 H 0.38127 0.49244 0.32777
 H219 H 0.45686 0.50463 0.36248
 H220 H 0.29461 0.40284 0.38108
 C221 C 0.06988 0.55590 0.43110
 C222 C 0.08472 0.60370 0.43298
 C223 C 0.12522 0.63701 0.39529
 C224 C 0.13540 0.68247 0.38424
 H225 H 0.06970 0.61912 0.46252
 H226 H 0.14702 0.62335 0.37488
 H227 H 0.08623 0.54520 0.39757
 H228 H 0.11219 0.69587 0.40100
 C229 C 0.94411 0.51865 0.91969
 C230 C 0.93008 0.55233 0.91710
 C231 C 0.89724 0.54976 0.87065
 C232 C 0.88732 0.58554 0.86099
 H233 H 0.93921 0.57946 0.95007
 H234 H 0.88041 0.51749 0.84387
 H235 H 0.93335 0.49367 0.88392
 H236 H 0.90584 0.61901 0.88544
 C237 C 0.47970 0.41317 0.91176
 C238 C 0.50099 0.38582 0.90882
 C239 C 0.48287 0.34423 0.86904
 C240 C 0.50890 0.32217 0.85913
 H241 H 0.53284 0.39508 0.93490
 H242 H 0.44924 0.33309 0.84576
 H243 H 0.44666 0.40267 0.88752
 H244 H 0.54349 0.33492 0.88092
 C245 C 0.58804 0.06173 0.95142
 C246 C 0.60570 0.10980 0.94896
 C247 C 0.64430 0.14101 0.90823
 C248 C 0.64893 0.18387 0.89354
 H249 H 0.58731 0.12548 0.97292
 H250 H 0.66550 0.12730 0.88661
 H251 H 0.60649 0.04534 0.92918
 H252 H 0.62543 0.19563 0.91357
 C253 C 0.05468 0.45570 0.42400
 C254 C 0.10342 0.47777 0.42141
 C255 C 0.12782 0.46350 0.37809
 C256 C 0.17408 0.49404 0.36295
 H257 H 0.12534 0.50842 0.44927
 H258 H 0.10696 0.42895 0.35617
 H259 H 0.03296 0.42400 0.39751
 H260 H 0.19391 0.52951 0.38315
 C261 C 0.53039 0.57546 0.42398
 C262 C 0.49810 0.59086 0.41790
 C263 C 0.50695 0.63078 0.37899
 C264 C 0.46949 0.63637 0.36244
 H265 H 0.46280 0.57122 0.43891
 H266 H 0.54313 0.65338 0.36110
 H267 H 0.56657 0.59607 0.40535
 H268 H 0.43318 0.61214 0.37913
 C269 C 0.45082 0.93825 0.41122
 C270 C 0.40313 0.92434 0.41527
 C271 C 0.36766 0.88137 0.38255
 C272 C 0.32085 0.86926 0.37642
 H273 H 0.38954 0.94144 0.44446
 H274 H 0.38068 0.85926 0.36167
 H275 H 0.46004 0.91854 0.38046
 H276 H 0.30768 0.89248 0.39356
 C277 C 0.50797 0.94188 0.10521
 C278 C 0.51077 0.90233 0.09192
 C279 C 0.51114 0.87003 0.13653
 C280 C 0.48772 0.82203 0.12824
 H281 H 0.50902 0.89170 0.04748
 H282 H 0.52812 0.88520 0.17739
 H283 H 0.50509 0.95037 0.14947
 H284 H 0.46664 0.80668 0.08960
 C285 C 0.43886 0.48369 0.07772
 C286 C 0.39013 0.45862 0.07314
 C287 C 0.36042 0.46352 0.11848
 C288 C 0.31176 0.43610 0.12082
 H289 H 0.37249 0.43804 0.03493
 H290 H 0.37916 0.49160 0.15054
 H291 H 0.45455 0.50390 0.11683
 H292 H 0.29240 0.40614 0.09126
 C293 C 0.05399 0.58705 0.08555
 C294 C 0.10098 0.60463 0.09899
 C295 C 0.12629 0.64563 0.13891
 C296 C 0.16873 0.65498 0.16209
 H297 H 0.12133 0.58871 0.08041
 H298 H 0.10947 0.66707 0.15088
 H299 H 0.03493 0.60518 0.10186
 H300 H 0.18382 0.63161 0.15210
 C301 C 0.51738 0.08864 0.52824
 C302 C 0.47788 0.08346 0.55608
 C303 C 0.48240 0.12429 0.59104
 C304 C 0.44552 0.12198 0.62201
 H305 H 0.44483 0.04833 0.55851
 H306 H 0.51845 0.15616 0.59499
 H307 H 0.55010 0.12416 0.52794
 H308 H 0.40878 0.09149 0.61733
 C309 C 0.57623 0.49548 0.57546
 C310 C 0.62471 0.52497 0.57088
 C311 C 0.65842 0.52660 0.61548
 C312 C 0.70426 0.56386 0.61840
 H313 H 0.64024 0.54785 0.53369
 H314 H 0.64529 0.49781 0.64704
 H315 H 0.56225 0.47292 0.61318
 H316 H 0.71618 0.59411 0.58908
 C317 C 0.93255 0.40274 0.57650
 C318 C 0.88620 0.39177 0.58454
 C319 C 0.85434 0.35372 0.62523
 C320 C 0.81146 0.34920 0.64075
 H321 H 0.87243 0.41278 0.56305
 H322 H 0.86737 0.33152 0.64532
 H323 H 0.94554 0.38023 0.59586
 H324 H 0.79959 0.37275 0.62172
   
