data_POSCAR
  _audit_creation_date              2014-09-24
  _audit_creation_method            'ToBaCCo'
  _symmetry_space_group_name_H-M    'P1'
  _symmetry_Int_Tables_number       1
  _symmetry_cell_setting            triclinic
  loop_
  _symmetry_equiv_pos_as_xyz
 x,y,z
_cell_length_a 29.3588
_cell_length_b 29.5125
_cell_length_c 35.9740
_cell_angle_alpha 90.141700
_cell_angle_beta 90.068400
_cell_angle_gamma 90.267900
loop_
  _atom_site_label
  _atom_site_type_symbol
  _atom_site_fract_x
  _atom_site_fract_y
  _atom_site_fract_z
Si1 Si 1.24916 0.25283 0.25042
 Si2 Si 0.75225 -0.25250 0.25184
 Si3 Si 0.75147 0.24955 -0.24932
 Si4 Si 1.25203 -0.24711 -0.24847
 Si5 Si 0.24907 0.24606 0.75038
 Si6 Si 0.74664 0.75038 0.74869
 Si7 Si 0.75017 0.25102 0.25076
 Si8 Si 0.24823 0.74985 0.24837
 O9 O 1.07820 0.02327 0.04629
 O10 O 0.92330 -0.02722 0.04697
 O11 O 0.97660 0.07616 0.04753
 O12 O 1.02396 -0.07905 0.04565
 O13 O 0.91359 0.04926 0.02828
 O14 O 1.08669 -0.05271 0.02574
 O15 O 0.94749 -0.08871 0.02420
 O16 O 1.05260 0.08542 0.02594
 C17 C 1.07239 0.06420 0.05112
 C18 C 0.92803 -0.06849 0.05010
 C19 C 0.93554 0.07003 0.05277
 C20 C 1.06517 -0.07305 0.05065
 O21 O 1.07709 -0.02367 -0.04636
 O22 O 0.92087 0.02285 -0.04445
 O23 O 1.02223 0.07713 -0.04545
 O24 O 0.97650 -0.07807 -0.04713
 O25 O 0.91379 -0.05359 -0.02598
 O26 O 1.08542 0.05214 -0.02579
 O27 O 1.05328 -0.08644 -0.02590
 O28 O 0.94593 0.08509 -0.02329
 Co29 Co 1.07404 -0.00037 0.00000
 Co30 Co 0.92578 -0.00208 0.00119
 Co31 Co 0.99943 0.07297 0.00107
 Co32 Co 1.00030 -0.07508 -0.00067
 O33 O 0.99988 -0.00110 0.00044
 C34 C 1.07203 -0.06465 -0.05129
 C35 C 0.92583 0.06400 -0.04854
 C36 C 1.06329 0.07137 -0.05083
 C37 C 0.93518 -0.07260 -0.05161
 O38 O 1.08203 0.52420 0.54750
 O39 O 0.92578 0.47679 0.54798
 O40 O 0.97866 0.57801 0.54786
 O41 O 1.02911 0.42415 0.54694
 O42 O 0.91643 0.55281 0.52640
 O43 O 1.09137 0.44858 0.52529
 O44 O 0.95256 0.41453 0.52803
 O45 O 1.05529 0.58659 0.52819
 C46 C 1.07524 0.56487 0.55305
 C47 C 0.93205 0.43590 0.55286
 C48 C 0.93730 0.57259 0.55195
 C49 C 1.07048 0.42919 0.55091
 O50 O 1.08114 0.47907 0.45430
 O51 O 0.92499 0.52309 0.45531
 O52 O 1.02766 0.57852 0.45552
 O53 O 0.97908 0.42314 0.45531
 O54 O 0.91667 0.44694 0.47696
 O55 O 1.09039 0.55495 0.47659
 O56 O 1.05600 0.41615 0.47415
 O57 O 0.95104 0.58591 0.47526
 Co58 Co 1.07816 0.50159 0.50094
 Co59 Co 0.92910 0.49999 0.50164
 Co60 Co 1.00324 0.57453 0.50167
 Co61 Co 1.00417 0.42724 0.50113
 O62 O 1.00365 0.50084 0.50137
 C63 C 1.07487 0.43823 0.44887
 C64 C 0.93085 0.56408 0.45038
 C65 C 1.06905 0.57406 0.45112
 C66 C 0.93762 0.42742 0.45150
 O67 O 0.57714 0.02434 0.54462
 O68 O 0.42147 -0.02579 0.54384
 O69 O 0.47656 0.07669 0.54560
 O70 O 0.52129 -0.07854 0.54485
 O71 O 0.41349 0.05029 0.52583
 O72 O 0.58460 -0.05202 0.52589
 O73 O 0.44500 -0.08759 0.52179
 O74 O 0.55279 0.08632 0.52331
 C75 C 0.57255 0.06550 0.54865
 C76 C 0.42639 -0.06687 0.54778
 C77 C 0.43551 0.07011 0.55085
 C78 C 0.56230 -0.07190 0.55061
 O79 O 0.57701 -0.02542 0.45290
 O80 O 0.42198 0.02446 0.45237
 O81 O 0.52208 0.07745 0.45259
 O82 O 0.47639 -0.07842 0.45133
 O83 O 0.41337 -0.05196 0.47049
 O84 O 0.58514 0.05102 0.47180
 O85 O 0.55249 -0.08740 0.47443
 O86 O 0.44580 0.08614 0.47504
 Co87 Co 0.57323 -0.00054 0.49875
 Co88 Co 0.42530 -0.00076 0.49814
 Co89 Co 0.49929 0.07352 0.49905
 Co90 Co 0.49882 -0.07492 0.49814
 O91 O 0.49918 -0.00067 0.49851
 C92 C 0.57237 -0.06664 0.44905
 C93 C 0.42663 0.06573 0.44901
 C94 C 0.56315 0.07140 0.44724
 C95 C 0.43536 -0.07213 0.44577
 O96 O 0.57908 0.52428 0.04501
 O97 O 0.42355 0.47587 0.04679
 O98 O 0.47701 0.57729 0.04712
 O99 O 0.52568 0.42293 0.04536
 O100 O 0.41409 0.55177 0.02678
 O101 O 0.58774 0.44814 0.02349
 O102 O 0.44860 0.41372 0.02579
 O103 O 0.55341 0.58649 0.02473
 C104 C 0.57398 0.56538 0.04952
 C105 C 0.42948 0.43493 0.05136
 C106 C 0.43567 0.57174 0.05192
 C107 C 0.56716 0.42810 0.04894
 O108 O 0.57732 0.47720 -0.04772
 O109 O 0.42149 0.52368 -0.04559
 O110 O 0.52269 0.57816 -0.04634
 O111 O 0.47568 0.42276 -0.04649
 O112 O 0.41338 0.44722 -0.02494
 O113 O 0.58600 0.55324 -0.02707
 O114 O 0.55243 0.41447 -0.02731
 O115 O 0.44677 0.58584 -0.02431
 Co116 Co 0.57458 0.50070 -0.00138
 Co117 Co 0.42609 0.49968 0.00061
 Co118 Co 0.50002 0.57408 0.00029
 Co119 Co 0.50057 0.42640 -0.00058
 O120 O 0.50033 0.50020 -0.00029
 C121 C 0.57207 0.43611 -0.05243
 C122 C 0.42718 0.56481 -0.04986
 C123 C 0.56372 0.57249 -0.05196
 C124 C 0.43430 0.42764 -0.05045
 C125 C 1.16068 0.16501 0.16901
 C126 C 1.16729 0.21167 0.16308
 C127 C 1.19270 0.23766 0.18807
 C128 C 1.21293 0.21757 0.21914
 C129 C 1.20583 0.17130 0.22577
 C130 C 1.17984 0.14521 0.20096
 C131 C 1.13526 0.13728 0.14118
 C132 C 1.14900 0.09283 0.13264
 C133 C 1.12757 0.06837 0.10417
 C134 C 1.09247 0.08813 0.08329
 C135 C 1.07772 0.13187 0.09252
 C136 C 1.09855 0.15599 0.12136
 H137 H 1.19711 0.27338 0.18255
 H138 H 1.22018 0.15523 0.25007
 H139 H 1.13957 0.03463 0.09760
 H140 H 1.05028 0.14763 0.07719
 H141 H 1.17471 0.10961 0.20685
 H142 H 1.17742 0.07746 0.14698
 H143 H 1.15381 0.22809 0.13858
 H144 H 1.08617 0.18960 0.12780
 C145 C 1.16282 0.66482 0.67124
 C146 C 1.18190 0.64522 0.70327
 C147 C 1.20823 0.67136 0.72775
 C148 C 1.21582 0.71744 0.72059
 C149 C 1.19570 0.73735 0.68941
 C150 C 1.16986 0.71130 0.66479
 C151 C 1.13719 0.63702 0.64373
 C152 C 1.10016 0.65562 0.62428
 C153 C 1.07943 0.63165 0.59535
 C154 C 1.09471 0.58825 0.58566
 C155 C 1.12999 0.56848 0.60631
 C156 C 1.15126 0.59277 0.63493
 H157 H 1.22239 0.65553 0.75223
 H158 H 1.20049 0.77296 0.68357
 H159 H 1.05178 0.64734 0.58022
 H160 H 1.14235 0.53498 0.59940
 H161 H 1.15638 0.72747 0.64018
 H162 H 1.08762 0.68909 0.63100
 H163 H 1.17642 0.60973 0.70946
 H164 H 1.17991 0.57756 0.64908
 C165 C 0.66342 0.16534 0.66634
 C166 C 0.66735 0.21279 0.66340
 C167 C 0.69243 0.23766 0.68949
 C168 C 0.71479 0.21569 0.71868
 C169 C 0.71099 0.16854 0.72194
 C170 C 0.68508 0.14368 0.69635
 C171 C 0.63832 0.13858 0.63754
 C172 C 0.65275 0.09474 0.62758
 C173 C 0.63051 0.07045 0.59946
 C174 C 0.59401 0.08980 0.58005
 C175 C 0.57909 0.13322 0.59011
 C176 C 0.60062 0.15712 0.61880
 H177 H 0.69536 0.27404 0.68631
 H178 H 0.72821 0.15061 0.74396
 H179 H 0.64283 0.03707 0.59209
 H180 H 0.55068 0.14868 0.57578
 H181 H 0.68224 0.10741 0.70010
 H182 H 0.68209 0.07950 0.64070
 H183 H 0.65217 0.23078 0.64037
 H184 H 0.58767 0.19020 0.62619
 C185 C 0.66596 0.66244 0.16774
 C186 C 0.65558 0.70809 0.17515
 C187 C 0.68125 0.73301 0.20068
 C188 C 0.71659 0.71244 0.22041
 C189 C 0.72669 0.66679 0.21386
 C190 C 0.70169 0.64199 0.18763
 C191 C 0.64110 0.63718 0.13811
 C192 C 0.63292 0.59026 0.14101
 C193 C 0.61100 0.56668 0.11228
 C194 C 0.59618 0.58973 0.08044
 C195 C 0.60359 0.63658 0.07778
 C196 C 0.62621 0.65992 0.10603
 H197 H 0.67352 0.76850 0.20494
 H198 H 0.75477 0.65063 0.22802
 H199 H 0.60540 0.53053 0.11503
 H200 H 0.59289 0.65511 0.05335
 H201 H 0.71140 0.60729 0.18212
 H202 H 0.64324 0.57175 0.16553
 H203 H 0.62782 0.72483 0.16101
 H204 H 0.63287 0.69570 0.10221
 C205 C 0.83771 -0.16747 0.16756
 C206 C 0.80247 -0.14694 0.18800
 C207 C 0.77772 -0.17176 0.21421
 C208 C 0.78755 -0.21753 0.22024
 C209 C 0.82231 -0.23824 0.19988
 C210 C 0.84773 -0.21332 0.17432
 C211 C 0.86250 -0.14197 0.13817
 C212 C 0.87687 -0.16419 0.10562
 C213 C 0.89913 -0.14040 0.07752
 C214 C 0.90671 -0.09362 0.08088
 C215 C 0.89262 -0.07117 0.11330
 C216 C 0.87107 -0.09518 0.14182
 H217 H 0.75003 -0.15547 0.22880
 H218 H 0.82980 -0.27383 0.20372
 H219 H 0.90932 -0.15847 0.05266
 H220 H 0.89838 -0.03510 0.11663
 H221 H 0.87506 -0.23017 0.15971
 H222 H 0.86998 -0.19987 0.10129
 H223 H 0.79298 -0.11210 0.18297
 H224 H 0.86126 -0.07706 0.16673
 C225 C 0.84184 0.33535 0.66970
 C226 C 0.81867 0.35654 0.69920
 C227 C 0.79221 0.33116 0.72389
 C228 C 0.78935 0.28396 0.72025
 C229 C 0.81333 0.26245 0.69166
 C230 C 0.83901 0.28783 0.66644
 C231 C 0.86713 0.36267 0.64156
 C232 C 0.90586 0.34506 0.62368
 C233 C 0.92731 0.36919 0.59522
 C234 C 0.91123 0.41193 0.58456
 C235 C 0.87380 0.43052 0.60329
 C236 C 0.85168 0.40597 0.63118
 H237 H 0.77372 0.34877 0.74541
 H238 H 0.81114 0.22604 0.68818
 H239 H 0.95641 0.35431 0.58140
 H240 H 0.86055 0.46334 0.59544
 H241 H 0.85542 0.27020 0.64375
 H242 H 0.91956 0.31245 0.63145
 H243 H 0.82063 0.39286 0.70316
 H244 H 0.82156 0.42047 0.64367
 C245 C 0.34086 -0.16164 0.66963
 C246 C 0.29745 -0.14688 0.68057
 C247 C 0.27195 -0.17175 0.70614
 C248 C 0.28925 -0.21184 0.72129
 C249 C 0.33303 -0.22610 0.71132
 C250 C 0.35868 -0.20119 0.68571
 C251 C 0.36608 -0.13709 0.64008
 C252 C 0.38910 -0.16118 0.61212
 C253 C 0.40949 -0.13829 0.58249
 C254 C 0.40715 -0.09087 0.58015
 C255 C 0.38543 -0.06665 0.60868
 C256 C 0.36512 -0.08952 0.63834
 H257 H 0.23811 -0.16020 0.71326
 H258 H 0.34722 -0.25682 0.72264
 H259 H 0.42624 -0.15781 0.56099
 H260 H 0.38359 -0.03003 0.60784
 H261 H 0.39227 -0.21310 0.67820
 H262 H 0.39002 -0.19785 0.61242
 H263 H 0.28241 -0.11698 0.66833
 H264 H 0.34832 -0.06997 0.65978
 C265 C 0.34065 0.33962 0.17125
 C266 C 0.29595 0.35287 0.17979
 C267 C 0.26951 0.32745 0.20433
 C268 C 0.28705 0.28820 0.22075
 C269 C 0.33207 0.27556 0.21329
 C270 C 0.35867 0.30102 0.18868
 C271 C 0.36709 0.36461 0.14267
 C272 C 0.39282 0.34089 0.11613
 C273 C 0.41410 0.36392 0.08702
 C274 C 0.41000 0.41115 0.08377
 C275 C 0.38573 0.43512 0.11104
 C276 C 0.36450 0.41208 0.14019
 H277 H 0.23494 0.33810 0.20990
 H278 H 0.34663 0.24574 0.22583
 H279 H 0.43279 0.34459 0.06651
 H280 H 0.38238 0.47160 0.10944
 H281 H 0.39322 0.29033 0.18306
 H282 H 0.39508 0.30430 0.11703
 H283 H 0.28081 0.38206 0.16653
 H284 H 0.34556 0.43136 0.16057
 C285 C 0.83441 0.16118 -0.16584
 C286 C 0.78659 0.15958 -0.16641
 C287 C 0.76215 0.18563 -0.19183
 C288 C 0.78505 0.21294 -0.21762
 C289 C 0.83278 0.21441 -0.21739
 C290 C 0.85731 0.18884 -0.19158
 C291 C 0.85999 0.13533 -0.13748
 C292 C 0.89435 0.15652 -0.11642
 C293 C 0.91616 0.13314 -0.08778
 C294 C 0.90443 0.08794 -0.08000
 C295 C 0.87112 0.06628 -0.10189
 C296 C 0.84885 0.08988 -0.13016
 H297 H 0.72527 0.18481 -0.19110
 H298 H 0.85119 0.23580 -0.23664
 H299 H 0.94193 0.15053 -0.07148
 H300 H 0.86151 0.03141 -0.09659
 H301 H 0.89417 0.19062 -0.19168
 H302 H 0.90335 0.19162 -0.12138
 H303 H 0.76810 0.13913 -0.14648
 H304 H 0.82275 0.07270 -0.14625
 C305 C 0.83871 0.66002 0.33311
 C306 C 0.79175 0.65215 0.32878
 C307 C 0.76633 0.67815 0.30400
 C308 C 0.78749 0.71194 0.28284
 C309 C 0.83430 0.71993 0.28698
 C310 C 0.85977 0.69404 0.31184
 C311 C 0.86497 0.63444 0.36119
 C312 C 0.89600 0.65712 0.38454
 C313 C 0.91824 0.63390 0.41293
 C314 C 0.90996 0.58751 0.41852
 C315 C 0.88015 0.56441 0.39440
 C316 C 0.85773 0.58772 0.36606
 H317 H 0.73001 0.67214 0.30160
 H318 H 0.85114 0.74670 0.27173
 H319 H 0.94125 0.65250 0.43098
 H320 H 0.87335 0.52858 0.39796
 H321 H 0.89590 0.70080 0.31460
 H322 H 0.90192 0.69319 0.38167
 H323 H 0.77444 0.62679 0.34533
 H324 H 0.83444 0.56931 0.34813
 C325 C 0.33350 0.16570 0.33441
 C326 C 0.33436 0.15539 0.29626
 C327 C 0.30912 0.18130 0.27105
 C328 C 0.28239 0.21751 0.28368
 C329 C 0.28073 0.22696 0.32187
 C330 C 0.30620 0.20154 0.34691
 C331 C 0.36065 0.13953 0.36155
 C332 C 0.38539 0.16235 0.38935
 C333 C 0.40785 0.13820 0.41708
 C334 C 0.40581 0.09066 0.41779
 C335 C 0.38241 0.06766 0.38924
 C336 C 0.36014 0.09193 0.36125
 H337 H 0.31040 0.17305 0.24173
 H338 H 0.25999 0.25405 0.33271
 H339 H 0.42599 0.15685 0.43847
 H340 H 0.38052 0.03100 0.38899
 H341 H 0.30422 0.20964 0.37625
 H342 H 0.38687 0.19902 0.38987
 H343 H 0.35509 0.12785 0.28594
 H344 H 0.34117 0.07358 0.34017
 C345 C 0.33647 0.66508 -0.16525
 C346 C 0.31053 0.70182 -0.15262
 C347 C 0.28525 0.72767 -0.17747
 C348 C 0.28581 0.71771 -0.21558
 C349 C 0.31144 0.68080 -0.22836
 C350 C 0.33641 0.65442 -0.20333
 C351 C 0.36327 0.63843 -0.13828
 C352 C 0.36038 0.59091 -0.13750
 C353 C 0.38201 0.56652 -0.10923
 C354 C 0.40709 0.58936 -0.08156
 C355 C 0.41161 0.63670 -0.08352
 C356 C 0.38980 0.66095 -0.11148
 H357 H 0.26546 0.75541 -0.16654
 H358 H 0.31185 0.67218 -0.25763
 H359 H 0.37824 0.53000 -0.10850
 H360 H 0.43115 0.65522 -0.06289
 H361 H 0.35614 0.62618 -0.21369
 H362 H 0.33998 0.57286 -0.15785
 H363 H 0.30941 0.71026 -0.12331
 H364 H 0.39306 0.69753 -0.11184
 C365 C 1.16146 -0.15681 -0.17231
 C366 C 1.14232 -0.19403 -0.19126
 C367 C 1.16880 -0.21994 -0.21546
 C368 C 1.21474 -0.20897 -0.22110
 C369 C 1.23353 -0.17091 -0.20340
 C370 C 1.20712 -0.14498 -0.17922
 C371 C 1.13517 -0.13243 -0.14340
 C372 C 1.13903 -0.08519 -0.13944
 C373 C 1.11755 -0.06293 -0.11002
 C374 C 1.09196 -0.08755 -0.08391
 C375 C 1.08682 -0.13453 -0.08856
 C376 C 1.10822 -0.15675 -0.11800
 H377 H 1.15369 -0.24933 -0.22874
 H378 H 1.26910 -0.16226 -0.20721
 H379 H 1.12177 -0.02659 -0.10728
 H380 H 1.06708 -0.15431 -0.06897
 H381 H 1.22302 -0.11690 -0.16466
 H382 H 1.15909 -0.06552 -0.15888
 H383 H 1.10711 -0.20361 -0.18680
 H384 H 1.10504 -0.19324 -0.12005
 C385 C 1.16043 0.34528 0.32634
 C386 C 1.14037 0.30862 0.30722
 C387 C 1.16627 0.28205 0.28303
 C388 C 1.21251 0.29180 0.27760
 C389 C 1.23219 0.32934 0.29540
 C390 C 1.20639 0.35591 0.31955
 C391 C 1.13484 0.37012 0.35544
 C392 C 1.14029 0.41717 0.35993
 C393 C 1.11982 0.43963 0.38976
 C394 C 1.09365 0.41541 0.41574
 C395 C 1.08682 0.36870 0.41048
 C396 C 1.10721 0.34629 0.38066
 H397 H 1.15048 0.25310 0.26963
 H398 H 1.26800 0.33707 0.29174
 H399 H 1.12532 0.47575 0.39294
 H400 H 1.06656 0.34923 0.42992
 H401 H 1.22302 0.38347 0.33422
 H402 H 1.16089 0.43650 0.34065
 H403 H 1.10491 0.29995 0.31158
 H404 H 1.10278 0.30996 0.37823
 C405 C 0.66620 -0.16527 0.33387
 C406 C 0.64526 -0.19994 0.31305
 C407 C 0.67063 -0.22576 0.28802
 C408 C 0.71722 -0.21710 0.28325
 C409 C 0.73831 -0.18282 0.30412
 C410 C 0.71297 -0.15684 0.32903
 C411 C 0.63992 -0.13929 0.36175
 C412 C 0.64627 -0.09229 0.36564
 C413 C 0.62341 -0.06835 0.39343
 C414 C 0.59404 -0.09106 0.41800
 C415 C 0.58682 -0.13783 0.41352
 C416 C 0.60949 -0.16170 0.38564
 H417 H 0.65389 -0.25296 0.27307
 H418 H 0.77449 -0.17633 0.30130
 H419 H 0.62942 -0.03225 0.39614
 H420 H 0.56420 -0.15615 0.43197
 H421 H 0.73019 -0.13095 0.34524
 H422 H 0.66910 -0.07411 0.34728
 H423 H 0.60928 -0.20716 0.31623
 H424 H 0.60426 -0.19796 0.38351
 C425 C 0.66528 0.33870 -0.16854
 C426 C 0.64338 0.31116 -0.19508
 C427 C 0.66891 0.28515 -0.21998
 C428 C 0.71662 0.28608 -0.21846
 C429 C 0.73849 0.31317 -0.19178
 C430 C 0.71308 0.33966 -0.16729
 C431 C 0.63865 0.36496 -0.14109
 C432 C 0.64988 0.41035 -0.13341
 C433 C 0.62709 0.43408 -0.10545
 C434 C 0.59317 0.41257 -0.08426
 C435 C 0.58110 0.36757 -0.09262
 C436 C 0.60344 0.34406 -0.12096
 H437 H 0.65127 0.26395 -0.23996
 H438 H 0.77531 0.31360 -0.18974
 H439 H 0.63698 0.46880 -0.09966
 H440 H 0.55486 0.35031 -0.07685
 H441 H 0.73076 0.35999 -0.14668
 H442 H 0.67666 0.42727 -0.14881
 H443 H 0.60654 0.30982 -0.19651
 H444 H 0.59434 0.30903 -0.12624
 C445 C 1.15611 0.15779 -0.17334
 C446 C 1.19310 0.13809 -0.19212
 C447 C 1.21963 0.16380 -0.21653
 C448 C 1.20950 0.20951 -0.22264
 C449 C 1.17154 0.22879 -0.20527
 C450 C 1.14502 0.20317 -0.18084
 C451 C 1.13139 0.13244 -0.14395
 C452 C 1.08408 0.13717 -0.13951
 C453 C 1.06169 0.11650 -0.10971
 C454 C 1.08621 0.09082 -0.08370
 C455 C 1.13321 0.08488 -0.08881
 C456 C 1.15556 0.10550 -0.11858
 H457 H 1.24894 0.14832 -0.22953
 H458 H 1.16354 0.26420 -0.20940
 H459 H 1.02533 0.12132 -0.10666
 H460 H 1.15294 0.06506 -0.06933
 H461 H 1.11717 0.21954 -0.16648
 H462 H 1.06445 0.15723 -0.15888
 H463 H 1.20211 0.10306 -0.18729
 H464 H 1.19211 0.10165 -0.12093
 C465 C 1.16386 0.66273 0.32965
 C466 C 1.14859 0.70555 0.31817
 C467 C 1.17340 0.73091 0.29235
 C468 C 1.21427 0.71432 0.27732
 C469 C 1.22892 0.67098 0.28794
 C470 C 1.20398 0.64547 0.31373
 C471 C 1.13918 0.63741 0.35938
 C472 C 1.16344 0.61360 0.38679
 C473 C 1.14059 0.59237 0.41614
 C474 C 1.09292 0.59458 0.41894
 C475 C 1.06848 0.61741 0.39113
 C476 C 1.09133 0.63853 0.36169
 H477 H 1.16109 0.76428 0.28510
 H478 H 1.25996 0.65673 0.27705
 H479 H 1.16039 0.57494 0.43707
 H480 H 1.03167 0.61938 0.39233
 H481 H 1.21637 0.61230 0.32144
 H482 H 1.20029 0.61250 0.38625
 H483 H 1.11827 0.72031 0.33015
 H484 H 1.07147 0.65588 0.34078
 C485 C 0.65944 0.16395 0.32982
 C486 C 0.69065 0.14269 0.30592
 C487 C 0.71703 0.16835 0.28133
 C488 C 0.71269 0.21560 0.28041
 C489 C 0.68140 0.23688 0.30396
 C490 C 0.65474 0.21128 0.32829
 C491 C 0.63355 0.13740 0.35768
 C492 C 0.58732 0.14647 0.36436
 C493 C 0.56395 0.12397 0.39271
 C494 C 0.58654 0.09232 0.41521
 C495 C 0.63237 0.08226 0.40781
 C496 C 0.65560 0.10447 0.37924
 H497 H 0.74140 0.15127 0.26372
 H498 H 0.67804 0.27341 0.30388
 H499 H 0.52856 0.13223 0.39766
 H500 H 0.65053 0.05781 0.42456
 H501 H 0.63151 0.22864 0.34677
 H502 H 0.56940 0.17133 0.34785
 H503 H 0.69482 0.10626 0.30646
 H504 H 0.69129 0.09707 0.37490
 C505 C 0.65605 0.66007 -0.17428
 C506 C 0.69262 0.64068 -0.19386
 C507 C 0.71868 0.66684 -0.21838
 C508 C 0.70867 0.71276 -0.22358
 C509 C 0.67113 0.73169 -0.20532
 C510 C 0.64506 0.70565 -0.18091
 C511 C 0.63143 0.63414 -0.14513
 C512 C 0.58418 0.63913 -0.14031
 C513 C 0.56190 0.61824 -0.11055
 C514 C 0.58646 0.59205 -0.08492
 C515 C 0.63336 0.58575 -0.09046
 C516 C 0.65560 0.60657 -0.12023
 H517 H 0.74731 0.65141 -0.23232
 H518 H 0.66302 0.76718 -0.20884
 H519 H 0.52562 0.62335 -0.10718
 H520 H 0.65312 0.56550 -0.07130
 H521 H 0.61755 0.72180 -0.16596
 H522 H 0.56452 0.65965 -0.15933
 H523 H 0.70152 0.60549 -0.18972
 H524 H 0.69208 0.60246 -0.12290
 C525 C 0.83575 -0.16469 -0.16812
 C526 C 0.84631 -0.16485 -0.20624
 C527 C 0.81978 -0.19025 -0.23129
 C528 C 0.78280 -0.21613 -0.21845
 C529 C 0.77323 -0.21685 -0.18029
 C530 C 0.79917 -0.19122 -0.15547
 C531 C 0.86218 -0.13719 -0.14105
 C532 C 0.83915 -0.11135 -0.11423
 C533 C 0.86315 -0.08921 -0.08601
 C534 C 0.91077 -0.09267 -0.08374
 C535 C 0.93411 -0.11697 -0.11145
 C536 C 0.90998 -0.13892 -0.13999
 H537 H 0.82798 -0.18959 -0.26062
 H538 H 0.74557 -0.23693 -0.16927
 H539 H 0.84421 -0.07033 -0.06536
 H540 H 0.97085 -0.11998 -0.11052
 H541 H 0.79084 -0.19241 -0.12616
 H542 H 0.80235 -0.10895 -0.11476
 H543 H 0.87444 -0.14472 -0.21665
 H544 H 0.92848 -0.15874 -0.16030
 C545 C 0.83740 0.33446 0.33582
 C546 C 0.84107 0.28708 0.33369
 C547 C 0.81486 0.26252 0.30817
 C548 C 0.78538 0.28491 0.28376
 C549 C 0.78127 0.33215 0.28603
 C550 C 0.80710 0.35675 0.31185
 C551 C 0.86396 0.36023 0.36390
 C552 C 0.84272 0.39340 0.38583
 C553 C 0.86695 0.41577 0.41388
 C554 C 0.91302 0.40573 0.42031
 C555 C 0.93469 0.37360 0.39761
 C556 C 0.91028 0.35083 0.36983
 H557 H 0.81757 0.22593 0.30751
 H558 H 0.75768 0.35015 0.26841
 H559 H 0.84949 0.44057 0.43085
 H560 H 0.97021 0.36530 0.40189
 H561 H 0.80349 0.39323 0.31303
 H562 H 0.80699 0.40107 0.38201
 H563 H 0.86345 0.26896 0.35237
 H564 H 0.92754 0.32575 0.35301
 C565 C 0.33485 -0.16233 0.32805
 C566 C 0.28825 -0.17007 0.33454
 C567 C 0.26218 -0.19582 0.30976
 C568 C 0.28204 -0.21548 0.27816
 C569 C 0.32831 -0.20675 0.27091
 C570 C 0.35447 -0.18061 0.29566
 C571 C 0.36262 -0.13630 0.35565
 C572 C 0.40767 -0.14900 0.36398
 C573 C 0.43206 -0.12712 0.39238
 C574 C 0.41174 -0.09241 0.41332
 C575 C 0.36748 -0.07855 0.40412
 C576 C 0.34336 -0.09997 0.37550
 H577 H 0.22650 -0.20065 0.31595
 H578 H 0.34446 -0.21974 0.24610
 H579 H 0.46619 -0.13848 0.39884
 H580 H 0.35121 -0.05142 0.41940
 H581 H 0.38999 -0.17448 0.28929
 H582 H 0.42352 -0.17702 0.34955
 H583 H 0.27192 -0.15711 0.35931
 H584 H 0.30928 -0.08837 0.36924
 C585 C 0.33573 0.33157 -0.16518
 C586 C 0.34723 0.33123 -0.20309
 C587 C 0.32166 0.30539 -0.22838
 C588 C 0.28456 0.27930 -0.21609
 C589 C 0.27398 0.27875 -0.17810
 C590 C 0.29910 0.30478 -0.15296
 C591 C 0.36152 0.35945 -0.13802
 C592 C 0.33811 0.38466 -0.11101
 C593 C 0.36192 0.40792 -0.08327
 C594 C 0.40967 0.40623 -0.08179
 C595 C 0.43326 0.38235 -0.10959
 C596 C 0.40936 0.35928 -0.13756
 H597 H 0.33080 0.30584 -0.25753
 H598 H 0.24615 0.25856 -0.16749
 H599 H 0.34282 0.42637 -0.06247
 H600 H 0.47011 0.38067 -0.10923
 H601 H 0.29009 0.30368 -0.12379
 H602 H 0.30125 0.38590 -0.11110
 H603 H 0.37540 0.35153 -0.21319
 H604 H 0.42818 0.33996 -0.15800
 C605 C 1.16008 -0.16284 0.17109
 C606 C 1.19876 -0.14423 0.18863
 C607 C 1.22450 -0.17000 0.21355
 C608 C 1.21195 -0.21487 0.22165
 C609 C 1.17252 -0.23304 0.20509
 C610 C 1.14686 -0.20733 0.18015
 C611 C 1.13518 -0.13714 0.14184
 C612 C 1.08753 -0.14053 0.13846
 C613 C 1.06466 -0.11901 0.10930
 C614 C 1.08891 -0.09362 0.08280
 C615 C 1.13634 -0.08916 0.08674
 C616 C 1.15920 -0.11071 0.11585
 H617 H 1.25493 -0.15505 0.22548
 H618 H 1.16246 -0.26783 0.21022
 H619 H 1.02802 -0.12279 0.10720
 H620 H 1.15597 -0.06973 0.06685
 H621 H 1.11775 -0.22305 0.16675
 H622 H 1.06789 -0.16003 0.15829
 H623 H 1.20957 -0.10989 0.18267
 H624 H 1.19593 -0.10782 0.11726
 C625 C 1.16528 0.33758 0.66957
 C626 C 1.20494 0.35462 0.68664
 C627 C 1.22942 0.32804 0.71176
 C628 C 1.21471 0.28400 0.72018
 C629 C 1.17456 0.26737 0.70394
 C630 C 1.15007 0.29383 0.67888
 C631 C 1.14085 0.36425 0.64092
 C632 C 1.09302 0.36361 0.63920
 C633 C 1.07015 0.38559 0.61042
 C634 C 1.09460 0.40867 0.58271
 C635 C 1.14232 0.41069 0.58508
 C636 C 1.16522 0.38865 0.61387
 H637 H 1.26009 0.34186 0.72398
 H638 H 1.16250 0.23347 0.71003
 H639 H 1.03331 0.38392 0.60956
 H640 H 1.16203 0.42840 0.56419
 H641 H 1.12001 0.27944 0.66588
 H642 H 1.07327 0.34577 0.65998
 H643 H 1.21717 0.38843 0.68040
 H644 H 1.20209 0.38942 0.61422
 C645 C 0.65572 -0.15979 0.67196
 C646 C 0.69191 -0.14002 0.69204
 C647 C 0.71817 -0.16613 0.71634
 C648 C 0.70878 -0.21239 0.72077
 C649 C 0.67169 -0.23179 0.70191
 C650 C 0.64540 -0.20580 0.67774
 C651 C 0.63074 -0.13372 0.64320
 C652 C 0.58357 -0.13968 0.63819
 C653 C 0.56101 -0.11865 0.60870
 C654 C 0.58521 -0.09134 0.58351
 C655 C 0.63200 -0.08403 0.58930
 C656 C 0.65452 -0.10498 0.61881
 H657 H 0.74643 -0.15035 0.73077
 H658 H 0.66402 -0.26753 0.70488
 H659 H 0.52482 -0.12457 0.60514
 H660 H 0.65149 -0.06292 0.57049
 H661 H 0.61821 -0.22223 0.66238
 H662 H 0.56420 -0.16110 0.65684
 H663 H 0.70030 -0.10453 0.68854
 H664 H 0.69093 -0.10007 0.62165
 C665 C 0.66630 0.33791 0.16658
 C666 C 0.71302 0.34633 0.17253
 C667 C 0.73767 0.32068 0.19810
 C668 C 0.71592 0.28730 0.21927
 C669 C 0.66928 0.27924 0.21412
 C670 C 0.64472 0.30412 0.18792
 C671 C 0.64081 0.36276 0.13714
 C672 C 0.59402 0.37212 0.14100
 C673 C 0.56994 0.39345 0.11241
 C674 C 0.59232 0.40669 0.07972
 C675 C 0.63911 0.39837 0.07613
 C676 C 0.66294 0.37624 0.10426
 H677 H 0.77387 0.32685 0.20126
 H678 H 0.65199 0.25271 0.22935
 H679 H 0.53389 0.39981 0.11594
 H680 H 0.65714 0.40788 0.05106
 H681 H 0.60919 0.29575 0.18359
 H682 H 0.57592 0.36311 0.16612
 H683 H 0.73079 0.37254 0.15729
 H684 H 0.69854 0.36875 0.09968
 C685 C 0.83664 0.16289 0.16894
 C686 C 0.85828 0.18778 0.19743
 C687 C 0.83287 0.21415 0.22213
 C688 C 0.78529 0.21523 0.21945
 C689 C 0.76346 0.19002 0.19158
 C690 C 0.78880 0.16439 0.16642
 C691 C 0.86370 0.13696 0.14110
 C692 C 0.84616 0.09703 0.12488
 C693 C 0.86988 0.07485 0.09658
 C694 C 0.91213 0.09148 0.08443
 C695 C 0.93073 0.13012 0.10157
 C696 C 0.90660 0.15288 0.12931
 H697 H 0.85067 0.23380 0.24299
 H698 H 0.72673 0.19082 0.18884
 H699 H 0.85512 0.04474 0.08407
 H700 H 0.96316 0.14379 0.09252
 H701 H 0.77083 0.14670 0.14443
 H702 H 0.81389 0.08297 0.13384
 H703 H 0.89491 0.18705 0.20069
 H704 H 0.92100 0.18384 0.14054
 C705 C 0.83665 0.66620 0.66636
 C706 C 0.80048 0.69270 0.65332
 C707 C 0.77428 0.71817 0.67787
 C708 C 0.78321 0.71729 0.71616
 C709 C 0.81986 0.69155 0.72938
 C710 C 0.84661 0.66629 0.70461
 C711 C 0.86324 0.63867 0.63962
 C712 C 0.91109 0.63994 0.63944
 C713 C 0.93552 0.61760 0.61144
 C714 C 0.91243 0.59335 0.58339
 C715 C 0.86470 0.59047 0.58472
 C716 C 0.84041 0.61299 0.61240
 H717 H 0.74692 0.73821 0.66657
 H718 H 0.82761 0.69083 0.75881
 H719 H 0.97232 0.62014 0.61127
 H720 H 0.84593 0.57168 0.56377
 H721 H 0.87442 0.64619 0.71535
 H722 H 0.92946 0.65961 0.66007
 H723 H 0.79262 0.69397 0.62391
 H724 H 0.80356 0.61092 0.61224
 C725 C 0.33612 0.15732 0.66944
 C726 C 0.35642 0.17674 0.70123
 C727 C 0.33060 0.20281 0.72594
 C728 C 0.28410 0.20977 0.71934
 C729 C 0.26349 0.18927 0.68845
 C730 C 0.28921 0.16373 0.66358
 C731 C 0.36361 0.13197 0.64161
 C732 C 0.34449 0.09519 0.62200
 C733 C 0.36829 0.07457 0.59301
 C734 C 0.41210 0.08965 0.58340
 C735 C 0.43230 0.12478 0.60412
 C736 C 0.40819 0.14596 0.63276
 H737 H 0.34704 0.21735 0.75013
 H738 H 0.22756 0.19359 0.68301
 H739 H 0.35220 0.04709 0.57782
 H740 H 0.46607 0.13707 0.59727
 H741 H 0.27242 0.15003 0.63919
 H742 H 0.31078 0.08265 0.62868
 H743 H 0.39223 0.17176 0.70705
 H744 H 0.42385 0.17444 0.64693
 C745 C 0.33552 0.66573 0.16692
 C746 C 0.34684 0.66755 0.20487
 C747 C 0.32026 0.69286 0.22974
 C748 C 0.28225 0.71736 0.21708
 C749 C 0.27180 0.71607 0.17893
 C750 C 0.29787 0.69044 0.15432
 C751 C 0.36225 0.63827 0.14006
 C752 C 0.33948 0.61113 0.11378
 C753 C 0.36365 0.58851 0.08605
 C754 C 0.41126 0.59267 0.08366
 C755 C 0.43439 0.61842 0.11079
 C756 C 0.41008 0.64088 0.13886
 H757 H 0.32969 0.69347 0.25885
 H758 H 0.24345 0.73459 0.16751
 H759 H 0.34480 0.56857 0.06588
 H760 H 0.47110 0.62207 0.10978
 H761 H 0.28878 0.69033 0.12512
 H762 H 0.30272 0.60794 0.11439
 H763 H 0.37576 0.64882 0.21534
 H764 H 0.42846 0.66167 0.15874
   
