data_POSCAR
  _audit_creation_date              2014-09-24
  _audit_creation_method            'ToBaCCo'
  _symmetry_space_group_name_H-M    'P1'
  _symmetry_Int_Tables_number       1
  _symmetry_cell_setting            triclinic
  loop_
  _symmetry_equiv_pos_as_xyz
 x,y,z
_cell_length_a 37.1449
_cell_length_b 40.9177
_cell_length_c 38.3673
_cell_angle_alpha 93.195400
_cell_angle_beta 92.522200
_cell_angle_gamma 93.409900
loop_
  _atom_site_label
  _atom_site_type_symbol
  _atom_site_fract_x
  _atom_site_fract_y
  _atom_site_fract_z
N1 N 0.16452 1.27085 0.17937
 N2 N 0.15634 1.28037 0.21113
 C3 C 0.13511 1.30580 0.20960
 C4 C 0.12918 1.31251 0.17472
 C5 C 0.14858 1.28969 0.15641
 H6 H 0.12370 1.31738 0.23221
 H7 H 0.15080 1.28646 0.12847
 Cu8 Cu 0.17071 1.25623 0.25091
 Cu9 Cu 0.19347 1.23350 0.17002
 Cu10 Cu 0.23126 1.19916 0.24251
 N11 N 0.17482 1.22236 0.28407
 N12 N 0.19860 1.20001 0.28106
 C13 C 0.19407 1.17875 0.30628
 C14 C 0.16537 1.18801 0.32605
 C15 C 0.15418 1.21611 0.31109
 H16 H 0.20967 1.15748 0.30883
 H17 H 0.13188 1.23050 0.31818
 N18 N 0.24815 1.19108 0.19509
 N19 N 0.23294 1.20340 0.16744
 C20 C 0.24949 1.19293 0.13880
 C21 C 0.27639 1.17284 0.14876
 C22 C 0.27474 1.17230 0.18479
 H23 H 0.24272 1.19990 0.11268
 H24 H 0.29113 1.15880 0.20222
 H25 H 0.18617 1.20853 0.21505
 H26 H 0.22215 1.24247 0.21646
 N27 N 0.81696 0.76438 0.13169
 N28 N 0.84727 0.76229 0.15014
 C29 C 0.86288 0.73493 0.13955
 C30 C 0.84138 0.71880 0.11274
 C31 C 0.81232 0.73831 0.10850
 H32 H 0.88780 0.72722 0.15111
 H33 H 0.78952 0.73395 0.09000
 Cu34 Cu 0.86408 0.79478 0.18681
 Cu35 Cu 0.78627 0.80089 0.13971
 Cu36 Cu 0.80733 0.85024 0.21501
 N37 N 0.87212 0.81864 0.23178
 N38 N 0.84910 0.83917 0.24367
 C39 C 0.86182 0.85258 0.27500
 C40 C 0.89509 0.84016 0.28298
 C41 C 0.90046 0.81849 0.25477
 H42 H 0.84883 0.87147 0.28968
 H43 H 0.92332 0.80381 0.25083
 N44 N 0.76669 0.85761 0.18212
 N45 N 0.75898 0.83920 0.15313
 C46 C 0.73209 0.85216 0.13484
 C47 C 0.72240 0.88029 0.15309
 C48 C 0.74496 0.88278 0.18303
 H49 H 0.72130 0.84237 0.10954
 H50 H 0.74648 0.90211 0.20346
 H51 H 0.82336 0.83451 0.16596
 H52 H 0.80051 0.80287 0.19244
 N53 N 0.77600 1.25951 -0.21659
 N54 N 0.80196 1.26155 -0.23866
 C55 C 0.81995 1.29105 -0.23365
 C56 C 0.80452 1.30864 -0.20685
 C57 C 0.77648 1.28778 -0.19678
 H58 H 0.84391 1.29824 -0.24705
 H59 H 0.75867 1.29215 -0.17570
 Cu60 Cu 0.81234 1.22427 -0.26915
 Cu61 Cu 0.74562 1.21919 -0.21390
 Cu62 Cu 0.78213 1.14900 -0.24954
 N63 N 0.83349 1.18551 -0.28831
 N64 N 0.82115 1.15593 -0.28146
 C65 C 0.84105 1.13374 -0.29771
 C66 C 0.86796 1.15041 -0.31509
 C67 C 0.86207 1.18333 -0.30839
 H68 H 0.83714 1.10755 -0.29562
 H69 H 0.87721 1.20436 -0.31736
 N70 N 0.74238 1.14770 -0.21688
 N71 N 0.72791 1.17435 -0.20430
 C72 C 0.70220 1.16564 -0.18236
 C73 C 0.70049 1.13188 -0.18078
 C74 C 0.72636 1.12134 -0.20302
 H75 H 0.68706 1.18275 -0.16735
 H76 H 0.73327 1.09632 -0.20836
 H77 H 0.79070 1.19369 -0.22118
 H78 H 0.75694 1.19086 -0.25869
 N79 N 0.18286 0.71070 -0.15072
 N80 N 0.15131 0.71713 -0.16466
 C81 C 0.12623 0.69440 -0.15539
 C82 C 0.14321 0.67264 -0.13448
 C83 C 0.17922 0.68380 -0.13246
 H84 H 0.09768 0.69454 -0.16218
 H85 H 0.20116 0.67394 -0.11783
 Cu86 Cu 0.14583 0.75625 -0.19124
 Cu87 Cu 0.22519 0.73997 -0.15342
 Cu88 Cu 0.22632 0.79693 -0.21190
 N89 N 0.14900 0.78868 -0.22776
 N90 N 0.18008 0.80192 -0.23722
 C91 C 0.17405 0.82124 -0.26375
 C92 C 0.13712 0.82091 -0.27120
 C93 C 0.12211 0.79993 -0.24767
 H94 H 0.19508 0.83590 -0.27523
 H95 H 0.09383 0.79281 -0.24559
 N96 N 0.26129 0.79954 -0.17205
 N97 N 0.25993 0.77736 -0.14860
 C98 C 0.28352 0.78660 -0.12183
 C99 C 0.30081 0.81626 -0.12879
 C100 C 0.28630 0.82360 -0.16115
 H101 H 0.28672 0.77331 -0.09841
 H102 H 0.29153 0.84588 -0.17450
 H103 H 0.19193 0.78491 -0.17475
 H104 H 0.19592 0.75156 -0.20924
 C105 C 0.47608 1.04101 0.03884
 C106 C 0.50657 1.02132 0.05390
 C107 C 0.52536 1.00518 0.02919
 C108 C 0.51184 1.01021 -0.00856
 C109 C 0.49465 1.06345 0.01350
 C110 C 0.51330 1.04760 -0.01139
 C111 C 0.45303 1.01546 0.01545
 C112 C 0.47151 0.99957 -0.00941
 H113 H 0.51076 1.01738 0.08131
 H114 H 0.52655 0.99699 -0.02894
 H115 H 0.49403 1.08989 0.01615
 H116 H 0.42441 1.01035 0.01848
 C117 C -0.01847 0.45561 1.01633
 C118 C 0.00046 0.47276 0.98690
 C119 C -0.01982 0.49432 0.97011
 C120 C -0.05796 0.49623 0.98380
 C121 C -0.03033 0.48426 1.03996
 C122 C -0.05075 0.50562 1.02297
 C123 C -0.05350 0.43977 0.99916
 C124 C -0.07401 0.46068 0.98206
 H125 H 0.02858 0.46985 0.98187
 H126 H -0.07501 0.51330 0.97003
 H127 H -0.02054 0.48955 1.06670
 H128 H -0.06046 0.41365 0.99881
 C129 C 1.07561 0.01536 0.49174
 C130 C 1.04962 0.03195 0.51621
 C131 C 1.02830 0.01081 0.53397
 C132 C 1.03523 -0.02554 0.52526
 C133 C 1.09686 -0.00584 0.51595
 C134 C 1.07615 -0.02784 0.53314
 C135 C 1.05161 -0.00892 0.46808
 C136 C 1.03037 -0.03001 0.48534
 H137 H 1.04861 0.05821 0.51935
 H138 H 1.01805 -0.04357 0.53846
 H139 H 1.12578 -0.00211 0.52050
 H140 H 1.04997 -0.00811 0.43986
 C141 C 0.10100 0.33750 1.12449
 C142 C 0.07829 0.36024 1.11068
 C143 C 0.06157 0.38240 1.13340
 C144 C 0.06775 0.38132 1.16956
 C145 C 0.09012 0.35841 1.18318
 C146 C 0.10709 0.33606 1.16092
 C147 C 0.03892 0.40522 1.11961
 C148 C 0.03273 0.40610 1.08333
 C149 C 0.04920 0.38368 1.06066
 C150 C 0.07192 0.36096 1.07444
 C151 C 0.04256 0.38424 1.02453
 C152 C 0.02035 0.40719 1.01089
 C153 C 0.00462 0.43048 1.03293
 C154 C 0.01036 0.42910 1.06941
 H155 H 0.11333 0.32073 1.10649
 H156 H 0.05517 0.39816 1.18738
 H157 H 0.09404 0.35857 1.21126
 H158 H 0.02620 0.42230 1.13710
 H159 H 0.08459 0.34383 1.05696
 H160 H 0.05461 0.36698 1.00677
 H161 H 0.01566 0.40699 0.98281
 H162 H -0.00257 0.44539 1.08733
 C163 C -0.11805 0.67385 1.09782
 C164 C -0.11143 0.64368 1.08106
 C165 C -0.13871 0.62655 1.05921
 C166 C -0.17221 0.64023 1.05445
 C167 C -0.17871 0.67033 1.07151
 C168 C -0.15179 0.68736 1.09359
 C169 C -0.13205 0.59604 1.04281
 C170 C -0.09852 0.58245 1.04832
 C171 C -0.07136 0.59985 1.07022
 C172 C -0.07791 0.63033 1.08622
 C173 C -0.03800 0.58643 1.07600
 C174 C -0.03157 0.55585 1.06062
 C175 C -0.05834 0.53803 1.03911
 C176 C -0.09168 0.55165 1.03264
 H177 H -0.09669 0.68665 1.11422
 H178 H -0.19350 0.62752 1.03778
 H179 H -0.20499 0.67997 1.06769
 H180 H -0.15297 0.58281 1.02608
 H181 H -0.05701 0.64353 1.10303
 H182 H -0.01686 0.59958 1.09249
 H183 H -0.00530 0.54633 1.06520
 H184 H -0.11239 0.53806 1.01600
 C185 C -0.18979 0.34914 0.84508
 C186 C -0.17151 0.37615 0.86370
 C187 C -0.14469 0.39510 0.84745
 C188 C -0.13785 0.38765 0.81237
 C189 C -0.15566 0.36039 0.79424
 C190 C -0.18094 0.34024 0.81070
 C191 C -0.12381 0.41999 0.86698
 C192 C -0.12839 0.42519 0.90292
 C193 C -0.15617 0.40707 0.91887
 C194 C -0.17807 0.38319 0.89897
 C195 C -0.15992 0.41146 0.95501
 C196 C -0.13451 0.43138 0.97555
 C197 C -0.10579 0.44804 0.96014
 C198 C -0.10380 0.44620 0.92368
 H199 H -0.20920 0.33397 0.85821
 H200 H -0.11768 0.40212 0.79935
 H201 H -0.14886 0.35466 0.76755
 H202 H -0.10255 0.43386 0.85471
 H203 H -0.19868 0.36870 0.91147
 H204 H -0.18108 0.39786 0.96765
 H205 H -0.13604 0.43239 1.00372
 H206 H -0.08113 0.45857 0.91192
 C207 C 0.09129 0.63221 0.87614
 C208 C 0.07609 0.60667 0.89501
 C209 C 0.09666 0.59433 0.92270
 C210 C 0.13181 0.60735 0.93097
 C211 C 0.14665 0.63254 0.91221
 C212 C 0.12673 0.64537 0.88463
 C213 C 0.08181 0.56931 0.94200
 C214 C 0.04654 0.55629 0.93416
 C215 C 0.02576 0.56821 0.90643
 C216 C 0.04070 0.59335 0.88691
 C217 C -0.00971 0.55497 0.89912
 C218 C -0.02445 0.53049 0.91936
 C219 C -0.00389 0.51868 0.94704
 C220 C 0.03165 0.53180 0.95416
 H221 H 0.07561 0.64167 0.85490
 H222 H 0.14783 0.59818 0.95218
 H223 H 0.17370 0.64221 0.91992
 H224 H 0.09768 0.56008 0.96332
 H225 H 0.02477 0.60267 0.86571
 H226 H -0.02613 0.56373 0.87796
 H227 H -0.05190 0.52077 0.91334
 H228 H 0.04754 0.52376 0.97607
 C229 C 1.16250 0.14185 0.36447
 C230 C 1.14470 0.12405 0.38960
 C231 C 1.11333 0.13587 0.40408
 C232 C 1.10085 0.16566 0.39399
 C233 C 1.11856 0.18320 0.36897
 C234 C 1.14923 0.17133 0.35321
 C235 C 1.09454 0.11752 0.42799
 C236 C 1.10666 0.08734 0.43759
 C237 C 1.13844 0.07576 0.42372
 C238 C 1.15736 0.09423 0.39990
 C239 C 1.15013 0.04542 0.43311
 C240 C 1.13034 0.02655 0.45570
 C241 C 1.09878 0.03786 0.47014
 C242 C 1.08689 0.06823 0.46021
 H243 H 1.18622 0.13214 0.35341
 H244 H 1.07700 0.17522 0.40507
 H245 H 1.10747 0.20583 0.36180
 H246 H 1.07020 0.12649 0.43872
 H247 H 1.18148 0.08509 0.38889
 H248 H 1.17418 0.03592 0.42237
 H249 H 1.13936 0.00262 0.46120
 H250 H 1.06156 0.07673 0.46881
 C251 C 1.13876 -0.14612 0.67760
 C252 C 1.12175 -0.12688 0.65349
 C253 C 1.08479 -0.12128 0.65595
 C254 C 1.06506 -0.13651 0.68154
 C255 C 1.08197 -0.15652 0.70490
 C256 C 1.11928 -0.16093 0.70386
 C257 C 1.06830 -0.10056 0.63282
 C258 C 1.08821 -0.08619 0.60667
 C259 C 1.12472 -0.09329 0.60333
 C260 C 1.14135 -0.11320 0.62695
 C261 C 1.14419 -0.08033 0.57641
 C262 C 1.12799 -0.05996 0.55329
 C263 C 1.09219 -0.05118 0.55709
 C264 C 1.07232 -0.06480 0.58384
 H265 H 1.16717 -0.14991 0.67524
 H266 H 1.03657 -0.13283 0.68362
 H267 H 1.06590 -0.16742 0.72458
 H268 H 1.04009 -0.09570 0.63512
 H269 H 1.16958 -0.11804 0.62466
 H270 H 1.17198 -0.08608 0.57308
 H271 H 1.14381 -0.05125 0.53231
 H272 H 1.04485 -0.05841 0.58756
 C273 C 0.90888 -0.13049 0.34013
 C274 C 0.93407 -0.11879 0.36703
 C275 C 0.97052 -0.12659 0.36521
 C276 C 0.98071 -0.14753 0.33782
 C277 C 0.95547 -0.15955 0.31152
 C278 C 0.91944 -0.15038 0.31155
 C279 C 0.99640 -0.11269 0.39026
 C280 C 0.98628 -0.09112 0.41723
 C281 C 0.94950 -0.08484 0.42041
 C282 C 0.92359 -0.09871 0.39524
 C283 C 0.93951 -0.06374 0.44795
 C284 C 0.96592 -0.04755 0.47087
 C285 C 1.00256 -0.05216 0.46643
 C286 C 1.01258 -0.07461 0.44020
 H287 H 0.88121 -0.12379 0.34156
 H288 H 1.00846 -0.15410 0.33630
 H289 H 0.96498 -0.17489 0.29044
 H290 H 1.02455 -0.11791 0.38818
 H291 H 0.89554 -0.09310 0.39705
 H292 H 0.91144 -0.05881 0.45096
 H293 H 0.95790 -0.02994 0.49071
 H294 H 1.04096 -0.07807 0.43680
 C295 C 0.89493 0.10348 0.65541
 C296 C 0.92242 0.09076 0.63556
 C297 C 0.95194 0.11175 0.62705
 C298 C 0.95314 0.14505 0.63767
 C299 C 0.92524 0.15772 0.65631
 C300 C 0.89579 0.13722 0.66571
 C301 C 0.97956 0.09933 0.60751
 C302 C 0.97740 0.06642 0.59500
 C303 C 0.94758 0.04547 0.60263
 C304 C 0.92054 0.05760 0.62343
 C305 C 0.94508 0.01292 0.58878
 C306 C 0.97137 0.00153 0.56686
 C307 C 1.00119 0.02222 0.55889
 C308 C 1.00429 0.05449 0.57412
 H309 H 0.87243 0.08716 0.66169
 H310 H 0.97555 0.16146 0.63123
 H311 H 0.92754 0.18361 0.66395
 H312 H 1.00227 0.11552 0.60123
 H313 H 0.89771 0.04147 0.62949
 H314 H 0.92232 -0.00352 0.59420
 H315 H 0.96756 -0.02329 0.55563
 H316 H 1.02745 0.07076 0.56972
 C317 C 0.33205 1.14184 0.13955
 C318 C 0.35517 1.12538 0.11752
 C319 C 0.34715 1.12252 0.08106
 C320 C 0.31632 1.13616 0.06727
 C321 C 0.29350 1.15246 0.08931
 C322 C 0.30101 1.15550 0.12564
 C323 C 0.36994 1.10596 0.05895
 C324 C 0.40064 1.09205 0.07279
 C325 C 0.40886 1.09497 0.10915
 C326 C 0.38613 1.11170 0.13133
 C327 C 0.43971 1.08108 0.12269
 C328 C 0.46188 1.06393 0.10054
 C329 C 0.45351 1.06009 0.06427
 C330 C 0.42308 1.07501 0.05074
 H331 H 0.33845 1.14414 0.16742
 H332 H 0.30974 1.13411 0.03940
 H333 H 0.26972 1.16232 0.07771
 H334 H 0.36366 1.10372 0.03100
 H335 H 0.39241 1.11390 0.15927
 H336 H 0.44669 1.08342 0.15047
 H337 H 0.48555 1.05417 0.11226
 H338 H 0.41667 1.07295 0.02282
 C339 C 0.64576 1.12370 -0.14563
 C340 C 0.62505 1.10560 -0.12282
 C341 C 0.63669 1.07533 -0.11199
 C342 C 0.66840 1.06334 -0.12487
 C343 C 0.68872 1.08140 -0.14780
 C344 C 0.67788 1.11190 -0.15805
 C345 C 0.61663 1.05771 -0.08827
 C346 C 0.58494 1.06990 -0.07542
 C347 C 0.57292 1.09981 -0.08692
 C348 C 0.59305 1.11748 -0.11047
 C349 C 0.54106 1.11173 -0.07443
 C350 C 0.52151 1.09450 -0.05036
 C351 C 0.53354 1.06510 -0.03804
 C352 C 0.56525 1.05282 -0.05098
 H353 H 0.63681 1.14696 -0.15372
 H354 H 0.67768 1.04013 -0.11696
 H355 H 0.71343 1.07179 -0.15679
 H356 H 0.62579 1.03466 -0.07968
 H357 H 0.58396 1.14059 -0.11896
 H358 H 0.53127 1.13446 -0.08321
 H359 H 0.49680 1.10423 -0.04154
 H360 H 0.57522 1.03046 -0.04146
 C361 C 0.34965 0.86112 -0.11685
 C362 C 0.37106 0.88253 -0.09334
 C363 C 0.36701 0.88083 -0.05697
 C364 C 0.34269 0.85719 -0.04468
 C365 C 0.32194 0.83577 -0.06814
 C366 C 0.32481 0.83778 -0.10437
 C367 C 0.38693 0.90304 -0.03341
 C368 C 0.41114 0.92683 -0.04563
 C369 C 0.41636 0.92788 -0.08185
 C370 C 0.39614 0.90578 -0.10554
 C371 C 0.44139 0.95134 -0.09370
 C372 C 0.46029 0.97407 -0.06996
 C373 C 0.45404 0.97394 -0.03417
 C374 C 0.42985 0.94993 -0.02212
 H375 H 0.35229 0.86263 -0.14474
 H376 H 0.33938 0.85550 -0.01690
 H377 H 0.30282 0.81826 -0.05781
 H378 H 0.38329 0.90204 -0.00558
 H379 H 0.39964 0.90691 -0.13337
 H380 H 0.44598 0.95239 -0.12132
 H381 H 0.47889 0.99245 -0.07965
 H382 H 0.42546 0.94941 0.00560
 C383 C 0.67491 0.89817 0.11041
 C384 C 0.65027 0.92082 0.09972
 C385 C 0.64629 0.94965 0.12089
 C386 C 0.66685 0.95530 0.15233
 C387 C 0.69124 0.93268 0.16278
 C388 C 0.69573 0.90389 0.14201
 C389 C 0.62173 0.97234 0.11043
 C390 C 0.60077 0.96645 0.07919
 C391 C 0.60465 0.93765 0.05794
 C392 C 0.62948 0.91506 0.06826
 C393 C 0.58331 0.93180 0.02689
 C394 C 0.55795 0.95398 0.01728
 C395 C 0.55363 0.98254 0.03838
 C396 C 0.57559 0.98877 0.06913
 H397 H 0.67771 0.87618 0.09399
 H398 H 0.66409 0.97726 0.16889
 H399 H 0.70661 0.93808 0.18720
 H400 H 0.61870 0.99442 0.12677
 H401 H 0.63243 0.89294 0.05197
 H402 H 0.58581 0.90980 0.01032
 H403 H 0.54104 0.94819 -0.00620
 H404 H 0.57303 1.01095 0.08539
   
