data_POSCAR
  _audit_creation_date              2014-09-24
  _audit_creation_method            'ToBaCCo'
  _symmetry_space_group_name_H-M    'P1'
  _symmetry_Int_Tables_number       1
  _symmetry_cell_setting            triclinic
  loop_
  _symmetry_equiv_pos_as_xyz
 x,y,z
_cell_length_a 18.8068
_cell_length_b 18.8073
_cell_length_c 33.3701
_cell_angle_alpha 87.980800
_cell_angle_beta 88.212500
_cell_angle_gamma 88.794900
loop_
  _atom_site_label
  _atom_site_type_symbol
  _atom_site_fract_x
  _atom_site_fract_y
  _atom_site_fract_z
O1 O 0.05736 0.43229 0.95857
 O2 O 0.06366 0.56482 1.03692
 O3 O 0.06268 0.42523 1.03622
 O4 O 0.05646 0.56979 0.95869
 O5 O -0.06076 0.57466 0.96577
 O6 O -0.05447 0.42641 1.04033
 O7 O -0.05344 0.56509 1.04291
 O8 O -0.05993 0.43634 0.96260
 Cu9 Cu 0.07186 0.49793 0.99730
 Cu10 Cu -0.06887 0.50071 1.00350
 C11 C -0.00235 0.41192 0.94699
 C12 C 0.00614 0.58804 1.05318
 C13 C 0.00501 0.39995 1.05104
 C14 C -0.00336 0.59708 0.94933
 O15 O 0.56788 -0.05751 0.54251
 O16 O 0.43491 -0.06368 0.46411
 O17 O 0.57441 -0.06294 0.46488
 O18 O 0.43029 -0.05657 0.54231
 O19 O 0.42544 0.06066 0.53493
 O20 O 0.57347 0.05434 0.46059
 O21 O 0.43486 0.05342 0.45781
 O22 O 0.56385 0.05968 0.53828
 Cu23 Cu 0.50196 -0.07199 0.50381
 Cu24 Cu 0.49931 0.06875 0.49731
 C25 C 0.58854 0.00213 0.55405
 C26 C 0.41181 -0.00613 0.44764
 C27 C 0.59954 -0.00521 0.45004
 C28 C 0.40302 0.00327 0.55147
 C29 C 0.01516 -0.01463 0.24977
 C30 C -0.01586 0.01545 0.74974
 C31 C 0.01096 -0.24780 0.13899
 C32 C -0.05472 -0.27243 0.12692
 C33 C -0.05583 -0.32704 0.09945
 C34 C 0.00815 -0.35668 0.08369
 C35 C 0.07364 -0.33135 0.09623
 C36 C 0.07531 -0.27681 0.12385
 C37 C 0.01232 -0.18975 0.16756
 C38 C 0.07784 -0.16421 0.17916
 C39 C 0.07873 -0.10843 0.20599
 C40 C 0.01464 -0.07945 0.22253
 C41 C -0.05048 -0.10390 0.20849
 C42 C -0.05198 -0.15970 0.18188
 C43 C 0.13995 -0.25002 0.13628
 C44 C 0.14119 -0.19459 0.16339
 C45 C -0.11803 -0.24126 0.14215
 C46 C -0.11668 -0.18565 0.16905
 H47 H 0.19002 -0.27182 0.12481
 H48 H 0.19218 -0.17533 0.17206
 H49 H -0.16906 -0.25967 0.13300
 H50 H -0.16671 -0.16283 0.17992
 H51 H -0.10656 -0.34566 0.08991
 H52 H 0.12322 -0.35349 0.08425
 H53 H 0.12942 -0.08716 0.21364
 H54 H -0.10036 -0.07920 0.21814
 C55 C 0.00955 0.22465 0.13343
 C56 C -0.05610 0.25445 0.12204
 C57 C -0.05726 0.31310 0.09494
 C58 C 0.00675 0.34209 0.07893
 C59 C 0.07225 0.31104 0.09078
 C60 C 0.07386 0.25232 0.11792
 C61 C 0.01095 0.16316 0.16211
 C62 C 0.07649 0.13301 0.17335
 C63 C 0.07748 0.07518 0.20103
 C64 C 0.01363 0.04921 0.21920
 C65 C -0.05168 0.07743 0.20503
 C66 C -0.05330 0.13523 0.17739
 C67 C 0.13851 0.22043 0.12972
 C68 C 0.13979 0.16167 0.15688
 C69 C -0.11940 0.22475 0.13784
 C70 C -0.11802 0.16601 0.16495
 H71 H 0.18855 0.24108 0.11789
 H72 H 0.19079 0.13881 0.16527
 H73 H -0.17045 0.24711 0.12918
 H74 H -0.16804 0.14486 0.17651
 H75 H -0.10822 0.33574 0.08623
 H76 H 0.12207 0.33211 0.07881
 H77 H 0.12817 0.05097 0.20883
 H78 H -0.10153 0.05495 0.21582
 C79 C 0.22977 0.01290 0.63671
 C80 C 0.29125 -0.02684 0.64654
 C81 C 0.34780 -0.03106 0.61818
 C82 C 0.34374 0.00644 0.58107
 C83 C 0.28267 0.04756 0.57212
 C84 C 0.22492 0.05002 0.59959
 C85 C 0.16918 0.01557 0.66578
 C86 C 0.10711 0.05328 0.65547
 C87 C 0.04878 0.05362 0.68257
 C88 C 0.05064 0.01599 0.72018
 C89 C 0.11696 -0.01583 0.73094
 C90 C 0.17481 -0.01887 0.70345
 C91 C 0.16229 0.08848 0.59064
 C92 C 0.10420 0.08975 0.61803
 C93 C 0.29489 -0.06106 0.68456
 C94 C 0.23800 -0.05636 0.71273
 H95 H 0.15788 0.11728 0.56210
 H96 H 0.05654 0.11942 0.60977
 H97 H 0.34220 -0.09141 0.69269
 H98 H 0.24304 -0.08336 0.74176
 H99 H 0.39536 -0.06208 0.62514
 H100 H 0.27966 0.07618 0.54341
 H101 H 0.00249 0.08391 0.67364
 H102 H 0.12395 -0.03857 0.76083
 C103 C -0.25481 0.00810 0.64145
 C104 C -0.27888 -0.05780 0.62957
 C105 C -0.33188 -0.05949 0.60103
 C106 C -0.36057 0.00427 0.58395
 C107 C -0.33610 0.07003 0.59675
 C108 C -0.28314 0.07215 0.62533
 C109 C -0.19753 0.01005 0.67057
 C110 C -0.17211 0.07574 0.68162
 C111 C -0.11566 0.07725 0.70796
 C112 C -0.08387 0.01364 0.72405
 C113 C -0.11102 -0.05181 0.71192
 C114 C -0.16759 -0.05385 0.68565
 C115 C -0.25699 0.13708 0.63761
 C116 C -0.20231 0.13884 0.66523
 C117 C -0.24854 -0.12081 0.64593
 C118 C -0.19372 -0.11886 0.67343
 H119 H -0.27839 0.18695 0.62545
 H120 H -0.18309 0.19003 0.67353
 H121 H -0.26669 -0.17206 0.63705
 H122 H -0.17115 -0.16871 0.68492
 H123 H -0.34982 -0.11063 0.59176
 H124 H -0.35735 0.11967 0.58413
 H125 H -0.09408 0.12846 0.71422
 H126 H -0.08772 -0.10195 0.72184
 C127 C -0.01316 -0.22991 0.86352
 C128 C -0.05032 -0.22500 0.90052
 C129 C -0.04777 -0.28266 0.92820
 C130 C -0.00652 -0.34368 0.91956
 C131 C 0.03102 -0.34780 0.88257
 C132 C 0.02672 -0.29136 0.85400
 C133 C -0.01593 -0.16943 0.83424
 C134 C 0.01855 -0.17513 0.79668
 C135 C 0.01545 -0.11735 0.76898
 C136 C -0.01644 -0.05104 0.77946
 C137 C -0.05419 -0.04914 0.81695
 C138 C -0.05378 -0.10739 0.84424
 C139 C 0.06097 -0.29507 0.81608
 C140 C 0.05618 -0.23828 0.78770
 C141 C -0.08893 -0.16242 0.90916
 C142 C -0.09030 -0.10443 0.88157
 H143 H 0.09142 -0.34235 0.80819
 H144 H 0.08321 -0.24338 0.75876
 H145 H -0.11777 -0.15797 0.93761
 H146 H -0.12008 -0.05679 0.88959
 H147 H -0.07644 -0.27961 0.95682
 H148 H 0.06212 -0.39533 0.87583
 H149 H 0.03822 -0.12439 0.73917
 H150 H -0.08461 -0.00289 0.82563
 C151 C -0.00845 0.25365 0.85799
 C152 C 0.05748 0.27737 0.87019
 C153 C 0.05911 0.33008 0.89879
 C154 C -0.00464 0.35867 0.91544
 C155 C -0.07036 0.33470 0.90252
 C156 C -0.07253 0.28202 0.87388
 C157 C -0.01040 0.19667 0.82881
 C158 C -0.07610 0.17156 0.81748
 C159 C -0.07762 0.11533 0.79112
 C160 C -0.01402 0.08344 0.77530
 C161 C 0.05143 0.11032 0.78769
 C162 C 0.05348 0.16667 0.81398
 C163 C -0.13745 0.25621 0.86132
 C164 C -0.13920 0.20180 0.83364
 C165 C 0.12047 0.24698 0.85407
 C166 C 0.11851 0.19244 0.82652
 H167 H -0.18730 0.27765 0.87331
 H168 H -0.19039 0.18281 0.82512
 H169 H 0.17172 0.26486 0.86321
 H170 H 0.16834 0.16981 0.81522
 H171 H 0.11001 0.34798 0.90848
 H172 H -0.11974 0.35622 0.91511
 H173 H -0.12885 0.09392 0.78469
 H174 H 0.10154 0.08693 0.77798
 C175 C -0.22302 -0.00972 0.36625
 C176 C -0.25169 0.05595 0.37825
 C177 C -0.31011 0.05700 0.40537
 C178 C -0.33975 -0.00703 0.42067
 C179 C -0.30999 -0.07249 0.40840
 C180 C -0.25155 -0.07410 0.38121
 C181 C -0.16184 -0.01106 0.33750
 C182 C -0.13289 -0.07659 0.32563
 C183 C -0.07537 -0.07749 0.29788
 C184 C -0.04849 -0.01345 0.28032
 C185 C -0.07549 0.05170 0.29514
 C186 C -0.13302 0.05324 0.32281
 C187 C -0.22082 -0.13875 0.36879
 C188 C -0.16237 -0.13997 0.34155
 C189 C -0.22113 0.11927 0.36303
 C190 C -0.16264 0.11793 0.33588
 H191 H -0.24214 -0.18883 0.38019
 H192 H -0.14042 -0.19096 0.33266
 H193 H -0.24261 0.17030 0.37217
 H194 H -0.14078 0.16797 0.32478
 H195 H -0.33216 0.10771 0.41471
 H196 H -0.33203 -0.12210 0.42008
 H197 H -0.05202 -0.12825 0.28965
 H198 H -0.05231 0.10151 0.28476
 C199 C 0.24812 -0.01072 0.36119
 C200 C 0.27605 -0.07511 0.37714
 C201 C 0.33043 -0.07353 0.40498
 C202 C 0.35662 -0.00809 0.41695
 C203 C 0.32804 0.05593 0.40040
 C204 C 0.27364 0.05491 0.37268
 C205 C 0.19025 -0.01197 0.33237
 C206 C 0.16130 0.05240 0.31721
 C207 C 0.10561 0.05104 0.29040
 C208 C 0.08013 -0.01411 0.27703
 C209 C 0.10805 -0.07817 0.29439
 C210 C 0.16375 -0.07741 0.32140
 C211 C 0.24356 0.11829 0.35661
 C212 C 0.18815 0.11705 0.32946
 C213 C 0.24835 -0.13968 0.36529
 C214 C 0.19305 -0.14081 0.33797
 H215 H 0.26268 0.16928 0.36530
 H216 H 0.16617 0.16714 0.31795
 H217 H 0.26931 -0.18978 0.37740
 H218 H 0.17305 -0.19174 0.32978
 H219 H 0.35174 -0.12313 0.41758
 H220 H 0.34737 0.10663 0.40948
 H221 H 0.08169 0.10105 0.28018
 H222 H 0.08600 -0.12874 0.28721
   
