data_POSCAR
  _audit_creation_date              2014-09-24
  _audit_creation_method            'ToBaCCo'
  _symmetry_space_group_name_H-M    'P1'
  _symmetry_Int_Tables_number       1
  _symmetry_cell_setting            triclinic
  loop_
  _symmetry_equiv_pos_as_xyz
 x,y,z
_cell_length_a 52.1201
_cell_length_b 52.1635
_cell_length_c 52.0714
_cell_angle_alpha 90.001600
_cell_angle_beta 90.078800
_cell_angle_gamma 89.996000
loop_
  _atom_site_label
  _atom_site_type_symbol
  _atom_site_fract_x
  _atom_site_fract_y
  _atom_site_fract_z
C1 C 0.16916 0.16790 0.20095
 N2 N 0.15857 0.18918 0.19033
 C3 C 0.16920 0.19982 0.16908
 N4 N 0.19046 0.18920 0.15847
 C5 C 0.20106 0.16792 0.16907
 N6 N 0.19042 0.15728 0.19032
 C7 C -0.16862 0.83232 0.20011
 N8 N -0.15800 0.81107 0.18948
 C9 C -0.16869 0.80039 0.16825
 N10 N -0.19001 0.81095 0.15765
 C11 C -0.20064 0.83220 0.16827
 N12 N -0.18995 0.84287 0.18951
 C13 C -0.16914 0.16760 -0.19967
 N14 N -0.15853 0.18886 -0.18904
 C15 C -0.16915 0.19950 -0.16778
 N16 N -0.19042 0.18889 -0.15717
 C17 C -0.20104 0.16763 -0.16780
 N18 N -0.19041 0.15700 -0.18906
 C19 C 0.16838 0.83202 -0.20047
 N20 N 0.15776 0.81080 -0.18978
 C21 C 0.16844 0.80020 -0.16850
 N22 N 0.18976 0.81079 -0.15793
 C23 C 0.20038 0.83201 -0.16860
 N24 N 0.18970 0.84262 -0.18988
 C25 C 0.16710 1.16898 0.79945
 N26 N 0.15655 1.19027 0.81006
 C27 C 0.16718 1.20084 0.83138
 N28 N 0.18839 1.19013 0.84207
 C29 C 0.19894 1.16884 0.83146
 N30 N 0.18830 1.15828 0.81015
 C31 C 0.83200 0.83214 0.79905
 N32 N 0.84265 0.81092 0.80973
 C33 C 0.83206 0.80036 0.83105
 N34 N 0.81082 0.81100 0.84167
 C35 C 0.80017 0.83222 0.83099
 N36 N 0.81076 0.84278 0.80967
 C37 C 0.16772 0.83119 1.20048
 N38 N 0.15714 0.80989 1.18989
 C39 C 0.16772 0.79929 1.16859
 N40 N 0.18890 0.80998 1.15789
 C41 C 0.19949 0.83128 1.16848
 N42 N 0.18891 0.84187 1.18978
 C43 C 0.83259 1.16866 1.20008
 N44 N 0.84323 1.18990 1.18946
 C45 C 0.83255 1.20060 1.16822
 N46 N 0.81120 1.19007 1.15763
 C47 C 0.80056 1.16883 1.16824
 N48 N 0.81124 1.15814 1.18948
 N49 N 0.52681 1.02757 1.04548
 N50 N 0.54639 1.03077 1.06128
 N51 N 0.47270 1.04529 1.02779
 N52 N 0.45317 1.06107 1.03107
 N53 N 0.47281 1.02747 1.04561
 N54 N 0.45335 1.03061 1.06152
 N55 N 0.52671 1.04540 1.02767
 N56 N 0.54621 1.06124 1.03084
 C57 C 0.55820 1.05184 1.05187
 C58 C 0.44139 1.05163 1.05216
 N59 N 0.47248 1.02758 0.95460
 N60 N 0.45289 1.03073 0.93882
 N61 N 0.52651 1.04547 0.97235
 N62 N 0.54602 1.06128 0.96917
 N63 N 0.52648 1.02768 0.95449
 N64 N 0.54598 1.03088 0.93865
 N65 N 0.47250 1.04536 0.97246
 N66 N 0.45292 1.06112 0.96934
 Mn67 Mn 0.49960 1.04569 1.00007
 C68 C 0.44098 1.05171 0.94829
 C69 C 0.55788 1.05190 0.94809
 N70 N 0.47291 0.97224 1.04553
 N71 N 0.45341 0.96904 1.06136
 N72 N 0.52688 0.95456 1.02755
 N73 N 0.54644 0.93877 1.03068
 N74 N 0.52691 0.97234 1.04541
 N75 N 0.54650 0.96916 1.06120
 N76 N 0.47288 0.95447 1.02766
 N77 N 0.45335 0.93866 1.03083
 Mn78 Mn 0.49986 0.99990 1.04582
 C79 C 0.44150 0.94803 1.05191
 C80 C 0.55839 0.94816 1.05173
 N81 N 0.52658 0.97246 0.95442
 N82 N 0.54611 0.96939 0.93859
 N83 N 0.47268 0.95453 0.97235
 N84 N 0.45318 0.93869 0.96917
 N85 N 0.47258 0.97236 0.95453
 N86 N 0.45302 0.96915 0.93872
 N87 N 0.52668 0.95463 0.97223
 N88 N 0.54628 0.93892 0.96904
 Mn89 Mn 0.49953 1.00002 0.95420
 Mn90 Mn 0.49978 0.95424 0.99995
 Cl91 Cl 0.49969 0.99996 1.00001
 C92 C 0.55810 0.94840 0.94799
 C93 C 0.44121 0.94809 0.94813
 N94 N 0.02778 0.47300 0.04581
 N95 N 0.03099 0.45349 0.06165
 N96 N 0.04556 0.52695 0.02794
 N97 N 0.06137 0.54647 0.03112
 N98 N 0.02776 0.52696 0.04578
 N99 N 0.03095 0.54648 0.06159
 N100 N 0.04558 0.47299 0.02797
 N101 N 0.06141 0.45348 0.03117
 C102 C 0.05202 0.44161 0.05224
 C103 C 0.05198 0.55837 0.05217
 N104 N 0.02766 0.52691 -0.04522
 N105 N 0.03080 0.54644 -0.06103
 N106 N 0.04553 0.47296 -0.02736
 N107 N 0.06138 0.45348 -0.03057
 N108 N 0.02769 0.47295 -0.04520
 N109 N 0.03089 0.45347 -0.06106
 N110 N 0.04550 0.52692 -0.02737
 N111 N 0.06128 0.54646 -0.03054
 Mn112 Mn 0.04585 0.49995 0.00030
 C113 C 0.05183 0.55835 -0.05159
 C114 C 0.05196 0.44161 -0.05165
 N115 N -0.02751 0.52694 0.04575
 N116 N -0.03064 0.54653 0.06150
 N117 N -0.04533 0.47295 0.02794
 N118 N -0.06111 0.45341 0.03111
 N119 N -0.02749 0.47297 0.04579
 N120 N -0.03063 0.45345 0.06161
 N121 N -0.04535 0.52691 0.02790
 N122 N -0.06112 0.54647 0.03100
 Mn123 Mn 0.00013 0.49997 0.04609
 C124 C -0.05167 0.55841 0.05202
 C125 C -0.05167 0.44154 0.05218
 N126 N -0.02758 0.47293 -0.04521
 N127 N -0.03078 0.45341 -0.06104
 N128 N -0.04540 0.52689 -0.02740
 N129 N -0.06116 0.54646 -0.03053
 N130 N -0.02760 0.52689 -0.04523
 N131 N -0.03073 0.54646 -0.06100
 N132 N -0.04538 0.47293 -0.02738
 N133 N -0.06120 0.45342 -0.03056
 Mn134 Mn 0.00004 0.49992 -0.04552
 Mn135 Mn -0.04567 0.49992 0.00027
 Cl136 Cl 0.00009 0.49994 0.00028
 C137 C -0.05181 0.44153 -0.05162
 C138 C -0.05173 0.55837 -0.05155
 N139 N 0.95472 -0.02775 0.47260
 N140 N 0.93891 -0.03093 0.45303
 N141 N 0.97248 -0.04555 0.52670
 N142 N 0.96927 -0.06133 0.54626
 N143 N 0.95467 -0.02773 0.52665
 N144 N 0.93883 -0.03088 0.54617
 N145 N 0.97253 -0.04557 0.47265
 N146 N 0.96934 -0.06139 0.45311
 C147 C 0.94832 -0.05197 0.44116
 C148 C 0.94822 -0.05190 0.55811
 N149 N 1.04558 -0.02780 0.52687
 N150 N 1.06138 -0.03099 0.54645
 N151 N 1.02780 -0.04562 0.47278
 N152 N 1.03099 -0.06144 0.45325
 N153 N 1.04563 -0.02783 0.47281
 N154 N 1.06147 -0.03104 0.45330
 N155 N 1.02774 -0.04559 0.52683
 N156 N 1.03090 -0.06140 0.54639
 Mn157 Mn 1.00014 -0.04589 0.49974
 C158 C 1.05194 -0.05201 0.55834
 C159 C 1.05205 -0.05206 0.44139
 N160 N 0.95470 0.02749 0.52663
 N161 N 0.93887 0.03067 0.54614
 N162 N 0.97258 0.04526 0.47261
 N163 N 0.96944 0.06104 0.45303
 N164 N 0.95475 0.02746 0.47257
 N165 N 0.93897 0.03064 0.45297
 N166 N 0.97253 0.04529 0.52667
 N167 N 0.96934 0.06108 0.54622
 Mn168 Mn 0.95440 -0.00013 0.49961
 C169 C 0.94828 0.05169 0.55808
 C170 C 0.94841 0.05164 0.44108
 N171 N 1.04566 0.02739 0.47279
 N172 N 1.06151 0.03055 0.45328
 N173 N 1.02780 0.04524 0.52678
 N174 N 1.03099 0.06108 0.54630
 N175 N 1.04561 0.02743 0.52684
 N176 N 1.06143 0.03065 0.54640
 N177 N 1.02785 0.04521 0.47274
 N178 N 1.03107 0.06100 0.45319
 Mn179 Mn 1.04593 -0.00020 0.49983
 Mn180 Mn 1.00019 0.04556 0.49970
 Cl181 Cl 1.00017 -0.00017 0.49972
 C182 C 1.05212 0.05157 0.44134
 C183 C 1.05203 0.05170 0.55825
 C184 C 1.15860 0.15734 0.22229
 C185 C 1.14926 0.14801 0.24129
 C186 C 1.13815 0.13695 0.26402
 C187 C 1.13852 0.15054 0.28718
 C188 C 1.12772 0.13984 0.30928
 C189 C 1.11640 0.11536 0.30850
 C190 C 1.11615 0.10184 0.28511
 C191 C 1.12694 0.11259 0.26302
 C192 C 1.10492 0.10400 0.33197
 C193 C 1.10830 0.07783 0.33763
 C194 C 1.09756 0.06719 0.35980
 C195 C 1.08329 0.08253 0.37658
 C196 C 1.07978 0.10856 0.37110
 C197 C 1.09051 0.11924 0.34896
 C198 C 1.07230 0.07160 0.39942
 C199 C 1.06309 0.06246 0.41856
 H200 H 1.14722 0.16938 0.28818
 H201 H 1.12853 0.15058 0.32706
 H202 H 1.10729 0.08311 0.28381
 H203 H 1.12649 0.10193 0.24517
 H204 H 1.11956 0.06567 0.32511
 H205 H 1.10046 0.04703 0.36389
 H206 H 1.06870 0.12059 0.38393
 H207 H 1.08727 0.13936 0.34497
 C208 C 0.84202 -0.15708 0.22142
 C209 C 0.85145 -0.14773 0.24039
 C210 C 0.86266 -0.13664 0.26308
 C211 C 0.85102 -0.11556 0.27491
 C212 C 0.86179 -0.10489 0.29707
 C213 C 0.88438 -0.11520 0.30771
 C214 C 0.89598 -0.13636 0.29562
 C215 C 0.88517 -0.14700 0.27347
 C216 C 0.89575 -0.10398 0.33134
 C217 C 0.92250 -0.10117 0.33375
 C218 C 0.93316 -0.09064 0.35603
 C219 C 0.91726 -0.08281 0.37619
 C220 C 0.89064 -0.08552 0.37399
 C221 C 0.87993 -0.09603 0.35173
 C222 C 0.92824 -0.07197 0.39912
 C223 C 0.93741 -0.06286 0.41832
 H224 H 0.83363 -0.10734 0.26699
 H225 H 0.85260 -0.08841 0.30572
 H226 H 0.91319 -0.14493 0.30352
 H227 H 0.89430 -0.16338 0.26451
 H228 H 0.93516 -0.10681 0.31828
 H229 H 0.95379 -0.08855 0.35751
 H230 H 0.87815 -0.07958 0.38952
 H231 H 0.85931 -0.09826 0.35060
 C232 C 0.84201 0.15645 0.77776
 C233 C 0.85136 0.14715 0.75876
 C234 C 0.86250 0.13610 0.73603
 C235 C 0.88699 0.14361 0.72803
 C236 C 0.89777 0.13300 0.70588
 C237 C 0.88415 0.11472 0.69139
 C238 C 0.85954 0.10727 0.69962
 C239 C 0.84881 0.11790 0.72179
 C240 C 0.89553 0.10353 0.66778
 C241 C 0.88034 0.09944 0.64579
 C242 C 0.89109 0.08898 0.62354
 C243 C 0.91712 0.08245 0.62297
 C244 C 0.93239 0.08641 0.64473
 C245 C 0.92170 0.09689 0.66699
 C246 C 0.92814 0.07164 0.60006
 C247 C 0.93735 0.06256 0.58088
 H248 H 0.89772 0.15775 0.73887
 H249 H 0.91660 0.13937 0.69987
 H250 H 0.84872 0.09301 0.68908
 H251 H 0.82986 0.11190 0.72785
 H252 H 0.86024 0.10465 0.64567
 H253 H 0.87910 0.08604 0.60678
 H254 H 0.95255 0.08135 0.64451
 H255 H 0.93381 0.09949 0.68370
 C256 C 1.15777 -0.15745 0.77817
 C257 C 1.14837 -0.14816 0.75916
 C258 C 1.13717 -0.13714 0.73642
 C259 C 1.14255 -0.11171 0.72975
 C260 C 1.13180 -0.10103 0.70759
 C261 C 1.11551 -0.11567 0.69177
 C262 C 1.11020 -0.14121 0.69867
 C263 C 1.12096 -0.15185 0.72085
 C264 C 1.10419 -0.10440 0.66814
 C265 C 1.10250 -0.11891 0.64541
 C266 C 1.09189 -0.10826 0.62316
 C267 C 1.08283 -0.08302 0.62331
 C268 C 1.08440 -0.06843 0.64581
 C269 C 1.09502 -0.07902 0.66808
 C270 C 1.07193 -0.07208 0.60039
 C271 C 1.06282 -0.06292 0.58118
 H272 H 1.15514 -0.10018 0.74163
 H273 H 1.13652 -0.08143 0.70263
 H274 H 1.09747 -0.15287 0.68708
 H275 H 1.11662 -0.17153 0.72587
 H276 H 1.10971 -0.13836 0.64473
 H277 H 1.09083 -0.11970 0.60582
 H278 H 1.07737 -0.04888 0.64616
 H279 H 1.09575 -0.06747 0.68535
 C280 C 0.22241 1.15738 1.15853
 C281 C 0.24141 1.14808 1.14921
 C282 C 0.26415 1.13703 1.13812
 C283 C 0.28741 1.15038 1.13906
 C284 C 0.30953 1.13967 1.12834
 C285 C 0.30866 1.11543 1.11650
 C286 C 0.28516 1.10217 1.11563
 C287 C 0.26306 1.11292 1.12639
 C288 C 0.33216 1.10404 1.10512
 C289 C 0.33101 1.09087 1.08156
 C290 C 0.35316 1.08023 1.07084
 C291 C 0.37674 1.08257 1.08352
 C292 C 0.37808 1.09558 1.10698
 C293 C 0.35596 1.10626 1.11772
 C294 C 0.39954 1.07165 1.07246
 C295 C 0.41865 1.06251 1.06319
 H296 H 0.28845 1.16909 1.14803
 H297 H 0.32725 1.15049 1.12902
 H298 H 0.28393 1.08335 1.10695
 H299 H 0.24516 1.10238 1.12562
 H300 H 0.31304 1.08912 1.07124
 H301 H 0.35192 1.07025 1.05263
 H302 H 0.39623 1.09744 1.11699
 H303 H 0.35742 1.11597 1.13604
 C304 C 0.22179 0.84252 0.84191
 C305 C 0.24084 0.85179 0.85122
 C306 C 0.26362 0.86281 0.86231
 C307 C 0.28691 0.86170 0.84901
 C308 C 0.30907 0.87236 0.85976
 C309 C 0.30822 0.88427 0.88399
 C310 C 0.28471 0.88527 0.89721
 C311 C 0.26257 0.87461 0.88642
 C312 C 0.33176 0.89561 0.89541
 C313 C 0.33703 0.89278 0.92178
 C314 C 0.35923 0.90342 0.93248
 C315 C 0.37643 0.91701 0.91701
 C316 C 0.37136 0.91995 0.89078
 C317 C 0.34919 0.90933 0.88003
 C318 C 0.39928 0.92795 0.92802
 C319 C 0.41843 0.93713 0.93721
 H320 H 0.28796 0.85254 0.83037
 H321 H 0.32693 0.87098 0.84926
 H322 H 0.28336 0.89459 0.91574
 H323 H 0.24462 0.87563 0.89685
 H324 H 0.32417 0.88206 0.93406
 H325 H 0.36301 0.90097 0.95280
 H326 H 0.38451 0.93051 0.87864
 H327 H 0.34551 0.91213 0.85975
 C328 C 0.77796 0.84268 1.15772
 C329 C 0.75892 0.85193 1.14837
 C330 C 0.73615 0.86290 1.13722
 C331 C 0.73764 0.88578 1.12327
 C332 C 0.71551 0.89645 1.11246
 C333 C 0.69157 0.88434 1.11547
 C334 C 0.69029 0.86133 1.12952
 C335 C 0.71244 0.85071 1.14032
 C336 C 0.66803 0.89568 1.10405
 C337 C 0.64945 0.87993 1.09237
 C338 C 0.62725 0.89061 1.08171
 C339 C 0.62331 0.91714 1.08260
 C340 C 0.64168 0.93296 1.09414
 C341 C 0.66390 0.92233 1.10479
 C342 C 0.60041 0.92809 1.07171
 C343 C 0.58122 0.93726 1.06260
 H344 H 0.75591 0.89534 1.12069
 H345 H 0.71717 0.91399 1.10147
 H346 H 0.67211 0.85173 1.13245
 H347 H 0.71106 0.83303 1.15115
 H348 H 0.65222 0.85940 1.09119
 H349 H 0.61319 0.87819 1.07275
 H350 H 0.63879 0.95352 1.09498
 H351 H 0.67768 0.93492 1.11393
 C352 C 0.77758 1.15712 0.84272
 C353 C 0.75854 1.14786 0.85201
 C354 C 0.73574 1.13690 0.86305
 C355 C 0.73674 1.11283 0.87488
 C356 C 0.71457 1.10216 0.88556
 C357 C 0.69110 1.11547 0.88456
 C358 C 0.69032 1.13967 0.87264
 C359 C 0.71250 1.15029 0.86196
 C360 C 0.66753 1.10417 0.89588
 C361 C 0.65015 1.11960 0.90961
 C362 C 0.62793 1.10897 0.92020
 C363 C 0.62276 1.08281 0.91720
 C364 C 0.63993 1.06730 0.90361
 C365 C 0.66218 1.07788 0.89302
 C366 C 0.59986 1.07191 0.92807
 C367 C 0.58068 1.06279 0.93720
 H368 H 0.75465 1.10233 0.87590
 H369 H 0.71587 1.08366 0.89489
 H370 H 0.67249 1.15024 0.87126
 H371 H 0.71151 1.16890 0.85278
 H372 H 0.65390 1.13982 0.91245
 H373 H 0.61481 1.12114 0.93076
 H374 H 0.63608 1.04703 0.90113
 H375 H 0.67500 1.06557 0.88229
 C376 C 0.15809 0.22241 0.15796
 C377 C 0.14879 0.24143 0.14866
 C378 C 0.13774 0.26419 0.13761
 C379 C 0.14332 0.28825 0.14812
 C380 C 0.13262 0.31039 0.13742
 C381 C 0.11616 0.30875 0.11604
 C382 C 0.11066 0.28446 0.10562
 C383 C 0.12140 0.26235 0.11634
 C384 C 0.10478 0.33227 0.10467
 C385 C 0.07907 0.33249 0.09637
 C386 C 0.06837 0.35467 0.08574
 C387 C 0.08319 0.37689 0.08325
 C388 C 0.10878 0.37686 0.09141
 C389 C 0.11952 0.35472 0.10206
 C390 C 0.07217 0.39972 0.07233
 C391 C 0.06296 0.41885 0.06317
 H392 H 0.15589 0.28989 0.16463
 H393 H 0.13695 0.32876 0.14609
 H394 H 0.09834 0.28260 0.08897
 H395 H 0.11702 0.24383 0.10801
 H396 H 0.06714 0.31562 0.09842
 H397 H 0.04851 0.35450 0.07955
 H398 H 0.12045 0.39394 0.08949
 H399 H 0.13945 0.35505 0.10794
 C400 C -0.15802 0.22208 -0.15666
 C401 C -0.14870 0.24110 -0.14739
 C402 C -0.13760 0.26388 -0.13643
 C403 C -0.12598 0.26296 -0.11220
 C404 C -0.11521 0.28510 -0.10156
 C405 C -0.11590 0.30847 -0.11506
 C406 C -0.12762 0.30917 -0.13941
 C407 C -0.13839 0.28702 -0.15000
 C408 C -0.10445 0.33201 -0.10379
 C409 C -0.09046 0.34916 -0.11924
 C410 C -0.07975 0.37135 -0.10864
 C411 C -0.08289 0.37671 -0.08251
 C412 C -0.09676 0.35977 -0.06697
 C413 C -0.10746 0.33756 -0.07752
 C414 C -0.07192 0.39958 -0.07164
 C415 C -0.06274 0.41874 -0.06252
 H416 H -0.12520 0.24513 -0.10156
 H417 H -0.10604 0.28387 -0.08293
 H418 H -0.12877 0.32693 -0.15012
 H419 H -0.14740 0.28796 -0.16874
 H420 H -0.08751 0.34525 -0.13944
 H421 H -0.06899 0.38429 -0.12083
 H422 H -0.09936 0.36378 -0.04672
 H423 H -0.11840 0.32492 -0.06520
 C424 C 0.15732 0.77767 -0.15731
 C425 C 0.14804 0.75868 -0.14794
 C426 C 0.13705 0.73596 -0.13680
 C427 C 0.15066 0.71284 -0.13729
 C428 C 0.14000 0.69072 -0.12653
 C429 C 0.11555 0.69144 -0.11513
 C430 C 0.10202 0.71479 -0.11473
 C431 C 0.11272 0.73689 -0.12549
 C432 C 0.10419 0.66793 -0.10376
 C433 C 0.07799 0.66232 -0.10716
 C434 C 0.06736 0.64011 -0.09656
 C435 C 0.08274 0.62323 -0.08242
 C436 C 0.10880 0.62866 -0.07887
 C437 C 0.11948 0.65085 -0.08947
 C438 C 0.07181 0.60034 -0.07157
 C439 C 0.06269 0.58116 -0.06247
 H440 H 0.16947 0.71189 -0.14606
 H441 H 0.15075 0.67298 -0.12744
 H442 H 0.08330 0.71604 -0.10582
 H443 H 0.10205 0.75471 -0.12495
 H444 H 0.06580 0.67492 -0.11833
 H445 H 0.04718 0.63606 -0.09948
 H446 H 0.12086 0.61577 -0.06788
 H447 H 0.13961 0.65480 -0.08622
 C448 C -0.15752 0.77787 0.15708
 C449 C -0.14815 0.75892 0.14774
 C450 C -0.13700 0.73625 0.13664
 C451 C -0.14571 0.72721 0.11288
 C452 C -0.13497 0.70511 0.10215
 C453 C -0.11534 0.69177 0.11506
 C454 C -0.10669 0.70107 0.13892
 C455 C -0.11747 0.72315 0.14963
 C456 C -0.10401 0.66823 0.10374
 C457 C -0.07743 0.66370 0.10525
 C458 C -0.06680 0.64146 0.09472
 C459 C -0.08258 0.62344 0.08257
 C460 C -0.10903 0.62777 0.08093
 C461 C -0.11969 0.65002 0.09142
 C462 C -0.07165 0.60050 0.07183
 C463 C -0.06252 0.58127 0.06281
 H464 H -0.16077 0.73725 0.10264
 H465 H -0.14181 0.69864 0.08360
 H466 H -0.09186 0.69104 0.14949
 H467 H -0.11064 0.72995 0.16807
 H468 H -0.06481 0.67751 0.11430
 H469 H -0.04629 0.63833 0.09602
 H470 H -0.12142 0.61392 0.07161
 H471 H -0.14025 0.65278 0.09024
 C472 C 1.15657 0.15848 0.77803
 C473 C 1.14732 0.14915 0.75897
 C474 C 1.13640 0.13803 0.73614
 C475 C 1.11649 0.12013 0.73806
 C476 C 1.10594 0.10928 0.71589
 C477 C 1.11519 0.11619 0.69147
 C478 C 1.13521 0.13420 0.68976
 C479 C 1.14572 0.14504 0.71196
 C480 C 1.10403 0.10466 0.66789
 C481 C 1.11992 0.09740 0.64730
 C482 C 1.10939 0.08660 0.62510
 C483 C 1.08286 0.08291 0.62315
 C484 C 1.06689 0.09004 0.64351
 C485 C 1.07738 0.10083 0.66575
 C486 C 1.07203 0.07187 0.60024
 C487 C 1.06293 0.06265 0.58106
 H488 H 1.10919 0.11450 0.75670
 H489 H 1.09078 0.09523 0.71785
 H490 H 1.14252 0.14017 0.67124
 H491 H 1.16109 0.15893 0.71025
 H492 H 1.14052 0.09979 0.64850
 H493 H 1.12193 0.08108 0.60947
 H494 H 1.04632 0.08733 0.64218
 H495 H 1.06462 0.10651 0.68112
 C496 C 0.84253 -0.15735 0.77767
 C497 C 0.85185 -0.14803 0.75866
 C498 C 0.86294 -0.13694 0.73594
 C499 C 0.85378 -0.11353 0.72653
 C500 C 0.86446 -0.10279 0.70439
 C501 C 0.88450 -0.11535 0.69137
 C502 C 0.89360 -0.13886 0.70102
 C503 C 0.88286 -0.14957 0.72315
 C504 C 0.89581 -0.10401 0.66780
 C505 C 0.92246 -0.10491 0.66359
 C506 C 0.93307 -0.09431 0.64135
 C507 C 0.91721 -0.08269 0.62303
 C508 C 0.89069 -0.08168 0.62704
 C509 C 0.88004 -0.09225 0.64927
 C510 C 0.92814 -0.07185 0.60011
 C511 C 0.93730 -0.06276 0.58092
 H512 H 0.83840 -0.10356 0.73633
 H513 H 0.85728 -0.08452 0.69765
 H514 H 0.90876 -0.14915 0.69125
 H515 H 0.89005 -0.16774 0.73023
 H516 H 0.93513 -0.11353 0.67764
 H517 H 0.95364 -0.09513 0.63847
 H518 H 0.87823 -0.07279 0.61294
 H519 H 0.85943 -0.09156 0.65179
 C520 C 1.15722 -0.15828 0.22188
 C521 C 1.14795 -0.14897 0.24092
 C522 C 1.13693 -0.13790 0.26369
 C523 C 1.12574 -0.11353 0.26275
 C524 C 1.11510 -0.10274 0.28489
 C525 C 1.11549 -0.11624 0.30829
 C526 C 1.12677 -0.14074 0.30902
 C527 C 1.13742 -0.15147 0.28686
 C528 C 1.10420 -0.10481 0.33184
 C529 C 1.08991 -0.12000 0.34898
 C530 C 1.07935 -0.10925 0.37117
 C531 C 1.08293 -0.08321 0.37655
 C532 C 1.09709 -0.06793 0.35963
 C533 C 1.10766 -0.07863 0.33742
 C534 C 1.07208 -0.07219 0.39943
 C535 C 1.06296 -0.06299 0.41859
 H536 H 1.12521 -0.10288 0.24489
 H537 H 1.10627 -0.08400 0.28363
 H538 H 1.12768 -0.15146 0.32681
 H539 H 1.14610 -0.17032 0.28783
 H540 H 1.08661 -0.14011 0.34506
 H541 H 1.06835 -0.12123 0.38410
 H542 H 1.10003 -0.04776 0.36365
 H543 H 1.11883 -0.06652 0.32479
 C544 C 0.84319 0.15803 0.22140
 C545 C 0.85254 0.14861 0.24038
 C546 C 0.86364 0.13740 0.26307
 C547 C 0.85718 0.11237 0.27024
 C548 C 0.86783 0.10151 0.29236
 C549 C 0.88513 0.11557 0.30763
 C550 C 0.89153 0.14072 0.30022
 C551 C 0.88084 0.15154 0.27810
 C552 C 0.89637 0.10411 0.33121
 C553 C 0.92233 0.10820 0.33747
 C554 C 0.93286 0.09749 0.35973
 C555 C 0.91762 0.08259 0.37603
 C556 C 0.89180 0.07838 0.36997
 C557 C 0.88123 0.08904 0.34771
 C558 C 0.92846 0.07166 0.39898
 C559 C 0.93755 0.06253 0.41821
 H560 H 0.84393 0.10123 0.25871
 H561 H 0.86277 0.08201 0.29736
 H562 H 0.90451 0.15215 0.31174
 H563 H 0.88592 0.17097 0.27277
 H564 H 0.93457 0.11941 0.32499
 H565 H 0.95290 0.10081 0.36419
 H566 H 0.87981 0.06692 0.38249
 H567 H 0.86111 0.08582 0.34361
 C568 C 0.15672 0.22223 -0.15807
 C569 C 0.14751 0.24125 -0.14871
 C570 C 0.13662 0.26401 -0.13753
 C571 C 0.15262 0.28261 -0.12662
 C572 C 0.14209 0.30477 -0.11583
 C573 C 0.11537 0.30862 -0.11579
 C574 C 0.09944 0.28978 -0.12678
 C575 C 0.11002 0.26764 -0.13758
 C576 C 0.10416 0.33219 -0.10439
 C577 C 0.08157 0.33094 -0.08968
 C578 C 0.07104 0.35315 -0.07896
 C579 C 0.08293 0.37689 -0.08281
 C580 C 0.10540 0.37835 -0.09741
 C581 C 0.11597 0.35617 -0.10813
 C582 C 0.07204 0.39974 -0.07182
 C583 C 0.06290 0.41887 -0.06261
 H584 H 0.17324 0.27996 -0.12642
 H585 H 0.15483 0.31874 -0.10722
 H586 H 0.07883 0.29233 -0.12734
 H587 H 0.09746 0.25339 -0.14604
 H588 H 0.07222 0.31274 -0.08617
 H589 H 0.05367 0.35179 -0.06764
 H590 H 0.11471 0.39665 -0.10057
 H591 H 0.13318 0.35782 -0.11963
 C592 C -0.15689 0.22193 0.15768
 C593 C -0.14756 0.24092 0.14836
 C594 C -0.13647 0.26364 0.13729
 C595 C -0.14423 0.27194 0.11294
 C596 C -0.13357 0.29409 0.10224
 C597 C -0.11499 0.30826 0.11580
 C598 C -0.10729 0.29972 0.14027
 C599 C -0.11797 0.27755 0.15091
 C600 C -0.10374 0.33187 0.10452
 C601 C -0.09926 0.35361 0.11990
 C602 C -0.08871 0.37583 0.10926
 C603 C -0.08248 0.37665 0.08314
 C604 C -0.08684 0.35514 0.06768
 C605 C -0.09740 0.33289 0.07827
 C606 C -0.07163 0.39955 0.07222
 C607 C -0.06253 0.41873 0.06308
 H608 H -0.15860 0.26136 0.10226
 H609 H -0.14014 0.30034 0.08352
 H610 H -0.09279 0.31000 0.15104
 H611 H -0.11177 0.27126 0.16976
 H612 H -0.10424 0.35354 0.14008
 H613 H -0.08547 0.39240 0.12139
 H614 H -0.08201 0.35554 0.04745
 H615 H -0.10031 0.31639 0.06600
 C616 C -0.15675 0.77786 -0.15770
 C617 C -0.14741 0.75893 -0.14827
 C618 C -0.13632 0.73629 -0.13702
 C619 C -0.11558 0.72412 -0.14894
 C620 C -0.10490 0.70203 -0.13812
 C621 C -0.11487 0.69179 -0.11520
 C622 C -0.13570 0.70420 -0.10335
 C623 C -0.14633 0.72630 -0.11420
 C624 C -0.10366 0.66821 -0.10379
 C625 C -0.11961 0.64923 -0.09313
 C626 C -0.10906 0.62699 -0.08251
 C627 C -0.08245 0.62341 -0.08236
 C628 C -0.06641 0.64218 -0.09286
 C629 C -0.07692 0.66444 -0.10352
 C630 C -0.07163 0.60046 -0.07149
 C631 C -0.06256 0.58124 -0.06239
 H632 H -0.10773 0.73165 -0.16666
 H633 H -0.08910 0.69274 -0.14788
 H634 H -0.14358 0.69699 -0.08552
 H635 H -0.16235 0.73561 -0.10477
 H636 H -0.14027 0.65142 -0.09335
 H637 H -0.12166 0.61254 -0.07449
 H638 H -0.04578 0.63964 -0.09278
 H639 H -0.06412 0.67883 -0.11126
 C640 C 0.15722 0.77790 0.15807
 C641 C 0.14797 0.75886 0.14874
 C642 C 0.13701 0.73609 0.13764
 C643 C 0.15091 0.71314 0.13767
 C644 C 0.14030 0.69098 0.12691
 C645 C 0.11560 0.69150 0.11596
 C646 C 0.10179 0.71469 0.11602
 C647 C 0.11244 0.73682 0.12678
 C648 C 0.10430 0.66796 0.10456
 C649 C 0.07824 0.66201 0.10834
 C650 C 0.06766 0.63979 0.09769
 C651 C 0.08294 0.62323 0.08312
 C652 C 0.10887 0.62898 0.07921
 C653 C 0.11950 0.65118 0.08985
 C654 C 0.07204 0.60033 0.07221
 C655 C 0.06289 0.58116 0.06307
 H656 H 0.16991 0.71234 0.14609
 H657 H 0.15128 0.67337 0.12747
 H658 H 0.08288 0.71578 0.10745
 H659 H 0.10155 0.75451 0.12658
 H660 H 0.06612 0.67436 0.11983
 H661 H 0.04758 0.63549 0.10089
 H662 H 0.12086 0.61633 0.06789
 H663 H 0.13953 0.65539 0.08631
 C664 C 0.22143 1.15759 0.84269
 C665 C 0.24037 1.14816 0.85207
 C666 C 0.26302 1.13695 0.86322
 C667 C 0.27658 1.15009 0.88233
 C668 C 0.29867 1.13929 0.89308
 C669 C 0.30751 1.11517 0.88481
 C670 C 0.29371 1.10210 0.86561
 C671 C 0.27161 1.11293 0.85491
 C672 C 0.33108 1.10377 0.89610
 C673 C 0.34892 1.09092 0.88043
 C674 C 0.37119 1.08035 0.89105
 C675 C 0.37592 1.08245 0.91742
 C676 C 0.35827 1.09512 0.93318
 C677 C 0.33600 1.10573 0.92261
 C678 C 0.39888 1.07162 0.92831
 C679 C 0.41811 1.06255 0.93743
 H680 H 0.27014 1.16874 0.88885
 H681 H 0.30905 1.14998 0.90757
 H682 H 0.29983 1.08336 0.85908
 H683 H 0.26121 1.10256 0.84017
 H684 H 0.34584 1.08938 0.85992
 H685 H 0.38475 1.07062 0.87867
 H686 H 0.36171 1.09678 0.95364
 H687 H 0.32248 1.11519 0.93521
 C688 C 0.22198 0.84248 1.15726
 C689 C 0.24091 0.85185 1.14788
 C690 C 0.26358 0.86301 1.13677
 C691 C 0.27366 0.85311 1.11394
 C692 C 0.29579 0.86382 1.10323
 C693 C 0.30816 0.88459 1.11528
 C694 C 0.29782 0.89443 1.13820
 C695 C 0.27568 0.88370 1.14886
 C696 C 0.33177 0.89587 1.10403
 C697 C 0.35235 0.90325 1.11993
 C698 C 0.37460 0.91381 1.10934
 C699 C 0.37659 0.91715 1.08276
 C700 C 0.35625 0.90988 1.06678
 C701 C 0.33398 0.89930 1.07732
 C702 C 0.39951 0.92802 1.07189
 C703 C 0.41869 0.93715 1.06278
 H704 H 0.26449 0.83704 1.10446
 H705 H 0.30346 0.85561 1.08576
 H706 H 0.30669 0.91062 1.14774
 H707 H 0.26800 0.89156 1.16651
 H708 H 0.35138 0.90054 1.14052
 H709 H 0.39027 0.91930 1.12188
 H710 H 0.35757 0.91245 1.04617
 H711 H 0.31836 0.89411 1.06461
 C712 C 0.77791 1.15778 1.15713
 C713 C 0.75883 1.14854 1.14784
 C714 C 0.73601 1.13754 1.13682
 C715 C 0.71184 1.14668 1.14405
 C716 C 0.68964 1.13600 1.13341
 C717 C 0.69134 1.11598 1.11537
 C718 C 0.71575 1.10692 1.10823
 C719 C 0.73792 1.11765 1.11889
 C720 C 0.66777 1.10459 1.10407
 C721 C 0.66586 1.07795 1.10029
 C722 C 0.64363 1.06725 1.08971
 C723 C 0.62304 1.08302 1.08277
 C724 C 0.62475 1.10954 1.08643
 C725 C 0.64695 1.12028 1.09702
 C726 C 0.60016 1.07200 1.07189
 C727 C 0.58099 1.06279 1.06276
 H728 H 0.71014 1.16202 1.15798
 H729 H 0.67114 1.14316 1.13955
 H730 H 0.71771 1.09177 1.09415
 H731 H 0.75655 1.11047 1.11310
 H732 H 0.68141 1.06534 1.10583
 H733 H 0.64248 1.04669 1.08702
 H734 H 0.60894 1.12193 1.08104
 H735 H 0.64795 1.14088 1.09937
 C736 C 0.77766 0.84341 0.84216
 C737 C 0.75870 0.85276 0.85153
 C738 C 0.73603 0.86385 0.86269
 C739 C 0.72361 0.88426 0.85045
 C740 C 0.70150 0.89495 0.86122
 C741 C 0.69151 0.88533 0.88439
 C742 C 0.70418 0.86483 0.89657
 C743 C 0.72630 0.85418 0.88577
 C744 C 0.66793 0.89655 0.89575
 C745 C 0.64913 0.88065 0.90681
 C746 C 0.62688 0.89120 0.91739
 C747 C 0.62311 0.91776 0.91710
 C748 C 0.64169 0.93375 0.90619
 C749 C 0.66396 0.92324 0.89558
 C750 C 0.60017 0.92859 0.92797
 C751 C 0.58095 0.93763 0.93709
 H752 H 0.73094 0.89184 0.83254
 H753 H 0.69200 0.91049 0.85122
 H754 H 0.69717 0.85722 0.91458
 H755 H 0.73581 0.83842 0.89544
 H756 H 0.65147 0.86002 0.90694
 H757 H 0.61258 0.87865 0.92573
 H758 H 0.63900 0.95435 0.90593
 H759 H 0.67821 0.93600 0.88751
   
