data_POSCAR
  _audit_creation_date              2014-09-24
  _audit_creation_method            'ToBaCCo'
  _symmetry_space_group_name_H-M    'P1'
  _symmetry_Int_Tables_number       1
  _symmetry_cell_setting            triclinic
  loop_
  _symmetry_equiv_pos_as_xyz
 x,y,z
_cell_length_a 28.9737
_cell_length_b 26.8874
_cell_length_c 28.4059
_cell_angle_alpha 91.030500
_cell_angle_beta 90.000200
_cell_angle_gamma 89.999600
loop_
  _atom_site_label
  _atom_site_type_symbol
  _atom_site_fract_x
  _atom_site_fract_y
  _atom_site_fract_z
N1 N 0.68356 0.69016 0.68252
 N2 N 0.81658 0.31317 0.17847
 N3 N 0.31659 0.18682 -0.17847
 N4 N 0.18356 0.80984 0.31748
 N5 N 0.04731 0.18396 0.11438
 N6 N 0.04011 0.15726 0.15201
 C7 C 0.00005 0.17142 0.17217
 C8 C -0.01859 0.20904 0.14578
 C9 C 0.01215 0.21618 0.10942
 H10 H -0.01437 0.15575 0.20372
 H11 H 0.00902 0.24279 0.08150
 Cu12 Cu 0.08399 0.10723 0.17164
 Cu13 Cu 0.10143 0.17436 0.07454
 Cu14 Cu 0.17411 0.07666 0.10226
 N15 N 0.12069 0.04818 0.18252
 N16 N 0.15672 0.03706 0.15622
 C17 C 0.17626 -0.00488 0.17210
 C18 C 0.15076 -0.02092 0.20995
 C19 C 0.11576 0.01344 0.21567
 H20 H 0.20628 -0.02287 0.15689
 H21 H 0.08885 0.01320 0.24204
 N22 N 0.18548 0.12111 0.04905
 N23 N 0.15790 0.15845 0.03862
 C24 C 0.17399 0.18068 -0.00021
 C25 C 0.21329 0.15598 -0.01481
 C26 C 0.21972 0.11853 0.01702
 H27 H 0.15776 0.21170 -0.01735
 H28 H 0.24683 0.09090 0.01615
 H29 H 0.10714 0.09954 0.08957
 H30 H 0.14494 0.14343 0.12370
 N31 N 0.45728 0.82081 0.60709
 N32 N 0.45873 0.83931 0.65024
 C33 C 0.49694 0.82282 0.67188
 C34 C 0.52058 0.79245 0.64056
 C35 C 0.49464 0.79187 0.59979
 H36 H 0.50681 0.83207 0.70769
 H37 H 0.50190 0.77117 0.56765
 Cu38 Cu 0.41113 0.88362 0.67404
 Cu39 Cu 0.40541 0.83268 0.56503
 Cu40 Cu 0.31799 0.90864 0.60901
 N41 N 0.37343 0.94201 0.68682
 N42 N 0.33688 0.95180 0.66121
 C43 C 0.31720 0.99410 0.67741
 C44 C 0.34310 1.01171 0.71494
 C45 C 0.37846 0.97787 0.72011
 H46 H 0.28664 1.01092 0.66269
 H47 H 0.40594 0.97948 0.74587
 N48 N 0.31509 0.87560 0.54680
 N49 N 0.34922 0.84867 0.52901
 C50 C 0.33718 0.83246 0.48555
 C51 C 0.29351 0.84999 0.47590
 C52 C 0.28041 0.87704 0.51534
 H53 H 0.35797 0.80857 0.46306
 H54 H 0.24802 0.89633 0.52063
 H55 H 0.38673 0.90101 0.59426
 H56 H 0.35793 0.84428 0.61701
 N57 N 0.95729 0.67919 0.39291
 N58 N 0.95873 0.66068 0.34976
 C59 C 0.99695 0.67717 0.32812
 C60 C 1.02058 0.70754 0.35944
 C61 C 0.99464 0.70812 0.40021
 H62 H 1.00682 0.66792 0.29231
 H63 H 1.00190 0.72883 0.43235
 Cu64 Cu 0.91114 0.61637 0.32596
 Cu65 Cu 0.90541 0.66732 0.43497
 Cu66 Cu 0.81799 0.59136 0.39099
 N67 N 0.87343 0.55798 0.31318
 N68 N 0.83688 0.54820 0.33879
 C69 C 0.81719 0.50590 0.32259
 C70 C 0.84309 0.48829 0.28506
 C71 C 0.87846 0.52212 0.27989
 H72 H 0.78664 0.48909 0.33731
 H73 H 0.90594 0.52051 0.25413
 N74 N 0.81509 0.62440 0.45320
 N75 N 0.84923 0.65133 0.47099
 C76 C 0.83718 0.66754 0.51445
 C77 C 0.79351 0.65001 0.52409
 C78 C 0.78041 0.62297 0.48466
 H79 H 0.85797 0.69143 0.53694
 H80 H 0.74802 0.60367 0.47937
 H81 H 0.88673 0.59898 0.40574
 H82 H 0.85794 0.65571 0.38299
 N83 N 0.54731 0.31605 -0.11438
 N84 N 0.54010 0.34275 -0.15200
 C85 C 0.50004 0.32858 -0.17217
 C86 C 0.48141 0.29097 -0.14578
 C87 C 0.51214 0.28382 -0.10942
 H88 H 0.48563 0.34426 -0.20372
 H89 H 0.50901 0.25722 -0.08149
 Cu90 Cu 0.58398 0.39278 -0.17164
 Cu91 Cu 0.60142 0.32565 -0.07454
 Cu92 Cu 0.67411 0.42334 -0.10226
 N93 N 0.62069 0.45183 -0.18252
 N94 N 0.65672 0.46294 -0.15622
 C95 C 0.67626 0.50488 -0.17210
 C96 C 0.65077 0.52092 -0.20995
 C97 C 0.61576 0.48656 -0.21567
 H98 H 0.70628 0.52287 -0.15689
 H99 H 0.58885 0.48681 -0.24204
 N100 N 0.68547 0.37890 -0.04905
 N101 N 0.65789 0.34155 -0.03862
 C102 C 0.67398 0.31933 0.00021
 C103 C 0.71329 0.34402 0.01482
 C104 C 0.71971 0.38148 -0.01701
 H105 H 0.65775 0.28831 0.01736
 H106 H 0.74683 0.40910 -0.01614
 H107 H 0.60714 0.40047 -0.08957
 H108 H 0.64493 0.35658 -0.12370
 C109 C -0.10230 0.24074 0.11943
 C110 C -0.13700 0.23083 0.15981
 C111 C -0.13910 0.28711 0.17009
 C112 C -0.10507 0.29746 0.12992
 C113 C -0.09934 0.28302 0.20584
 C114 C -0.09651 0.22654 0.19502
 C115 C -0.06242 0.23683 0.15486
 C116 C -0.06468 0.29301 0.16545
 H117 H -0.10316 0.22288 0.08391
 H118 H -0.16704 0.20524 0.15813
 H119 H -0.10815 0.32674 0.10310
 H120 H -0.09628 0.29931 0.24177
 H121 H -0.09288 0.19715 0.22171
 H122 H -0.03449 0.31834 0.16783
 C123 C 0.59108 0.73237 0.61427
 C124 C 0.63668 0.75692 0.63151
 C125 C 0.64078 0.71646 0.66906
 C126 C 0.59588 0.69161 0.65194
 C127 C 0.61416 0.74923 0.70469
 C128 C 0.60916 0.78966 0.66697
 C129 C 0.56424 0.76486 0.64993
 C130 C 0.56860 0.72472 0.68749
 H131 H 0.58145 0.72566 0.57687
 H132 H 0.66319 0.77190 0.60755
 H133 H 0.59011 0.65130 0.64541
 H134 H 0.62422 0.75644 0.74189
 H135 H 0.61412 0.83020 0.67310
 H136 H 0.54019 0.71191 0.71051
 C137 C 1.09108 0.76763 0.38573
 C138 C 1.13668 0.74307 0.36849
 C139 C 1.14078 0.78353 0.33094
 C140 C 1.09587 0.80839 0.34806
 C141 C 1.11416 0.75076 0.29531
 C142 C 1.10916 0.71034 0.33303
 C143 C 1.06424 0.73513 0.35007
 C144 C 1.06860 0.77527 0.31251
 H145 H 1.08145 0.77434 0.42313
 H146 H 1.16319 0.72810 0.39245
 H147 H 1.09010 0.84870 0.35459
 H148 H 1.12422 0.74356 0.25811
 H149 H 1.11412 0.66980 0.32690
 H150 H 1.04019 0.78809 0.28949
 C151 C 0.40349 0.27346 -0.19502
 C152 C 0.40066 0.21698 -0.20583
 C153 C 0.36090 0.21289 -0.17009
 C154 C 0.36300 0.26917 -0.15981
 C155 C 0.39493 0.20254 -0.12992
 C156 C 0.43532 0.20699 -0.16545
 C157 C 0.43758 0.26317 -0.15486
 C158 C 0.39770 0.25927 -0.11943
 H159 H 0.40712 0.30285 -0.22171
 H160 H 0.40372 0.20068 -0.24177
 H161 H 0.33296 0.29476 -0.15813
 H162 H 0.39185 0.17326 -0.10309
 H163 H 0.46552 0.18167 -0.16783
 H164 H 0.39684 0.27712 -0.08391
 C165 C 0.17145 -0.11777 0.21816
 C166 C 0.20930 -0.12277 0.25626
 C167 C 0.17347 -0.14545 0.28956
 C168 C 0.13581 -0.14147 0.25149
 C169 C 0.16107 -0.09379 0.30992
 C170 C 0.19681 -0.07039 0.27623
 C171 C 0.15905 -0.06613 0.23853
 C172 C 0.12328 -0.08918 0.27161
 H173 H 0.17572 -0.12710 0.18019
 H174 H 0.24463 -0.13725 0.24967
 H175 H 0.11006 -0.16937 0.23955
 H176 H 0.15628 -0.08322 0.34750
 H177 H 0.22193 -0.04079 0.28598
 H178 H 0.08766 -0.07534 0.27773
 C179 C 0.62329 0.58918 -0.27161
 C180 C 0.63581 0.64147 -0.25150
 C181 C 0.67348 0.64545 -0.28956
 C182 C 0.66107 0.59379 -0.30992
 C183 C 0.70931 0.62277 -0.25626
 C184 C 0.67145 0.61777 -0.21816
 C185 C 0.65906 0.56613 -0.23853
 C186 C 0.69682 0.57039 -0.27624
 H187 H 0.58767 0.57533 -0.27774
 H188 H 0.61006 0.66937 -0.23955
 H189 H 0.65629 0.58321 -0.34751
 H190 H 0.74464 0.63725 -0.24967
 H191 H 0.67572 0.62710 -0.18019
 H192 H 0.72194 0.54079 -0.28598
 C193 C 0.32584 1.05907 0.79678
 C194 C 0.36174 1.10149 0.80299
 C195 C 0.32309 1.13955 0.79484
 C196 C 0.28698 1.09780 0.78902
 C197 C 0.33225 1.13869 0.74152
 C198 C 0.37108 1.09996 0.74924
 C199 C 0.33531 1.05807 0.74356
 C200 C 0.29666 1.09616 0.73547
 H201 H 0.32312 1.02584 0.81924
 H202 H 0.38855 1.10323 0.83084
 H203 H 0.25193 1.09481 0.80423
 H204 H 0.33430 1.17177 0.71881
 H205 H 0.40565 1.10047 0.73242
 H206 H 0.26996 1.09381 0.70749
 C207 C 0.87108 0.40003 0.25076
 C208 C 0.83224 0.36131 0.25848
 C209 C 0.82309 0.36044 0.20517
 C210 C 0.86173 0.39850 0.19701
 C211 C 0.78698 0.40220 0.21098
 C212 C 0.79665 0.40384 0.26453
 C213 C 0.83530 0.44192 0.25644
 C214 C 0.82583 0.44093 0.20322
 H215 H 0.90565 0.39953 0.26759
 H216 H 0.83429 0.32822 0.28120
 H217 H 0.88854 0.39677 0.16916
 H218 H 0.75193 0.40518 0.19578
 H219 H 0.76996 0.40618 0.29251
 H220 H 0.82311 0.47416 0.18076
 C221 C 0.29363 0.17480 -0.05812
 C222 C 0.29875 0.13685 -0.09960
 C223 C 0.29086 0.17934 -0.13417
 C224 C 0.28615 0.21753 -0.09336
 C225 C 0.23848 0.17027 -0.13401
 C226 C 0.24596 0.12756 -0.09884
 C227 C 0.24133 0.16534 -0.05787
 C228 C 0.23351 0.20786 -0.09247
 H229 H 0.31603 0.17675 -0.02645
 H230 H 0.32564 0.10756 -0.10219
 H231 H 0.30174 0.25497 -0.08943
 H232 H 0.21577 0.16914 -0.16547
 H233 H 0.22899 0.09056 -0.10074
 H234 H 0.20651 0.23702 -0.08937
 C235 C 0.78259 0.68250 0.61389
 C236 C 0.74048 0.71788 0.61527
 C237 C 0.71261 0.67804 0.64105
 C238 C 0.75463 0.64293 0.64068
 C239 C 0.69507 0.65575 0.59418
 C240 C 0.72327 0.69544 0.56771
 C241 C 0.76504 0.66021 0.56699
 C242 C 0.73744 0.62045 0.59313
 H243 H 0.81877 0.69345 0.62167
 H244 H 0.74225 0.75798 0.62506
 H245 H 0.76890 0.62079 0.66978
 H246 H 0.65911 0.64460 0.58576
 H247 H 0.71080 0.71710 0.53735
 H248 H 0.73658 0.58022 0.58373
 C249 C 0.79362 0.32520 0.05812
 C250 C 0.79875 0.36315 0.09960
 C251 C 0.79085 0.32066 0.13417
 C252 C 0.78614 0.28247 0.09336
 C253 C 0.73848 0.32972 0.13401
 C254 C 0.74596 0.37244 0.09884
 C255 C 0.74132 0.33466 0.05787
 C256 C 0.73351 0.29214 0.09247
 H257 H 0.81603 0.32326 0.02645
 H258 H 0.82563 0.39244 0.10220
 H259 H 0.80174 0.24503 0.08943
 H260 H 0.71577 0.33085 0.16548
 H261 H 0.72899 0.40944 0.10075
 H262 H 0.70651 0.26298 0.08936
 C263 C 0.23743 0.87955 0.40686
 C264 C 0.25463 0.85707 0.35932
 C265 C 0.21260 0.82196 0.35895
 C266 C 0.19507 0.84425 0.40582
 C267 C 0.24048 0.78212 0.38473
 C268 C 0.28259 0.81750 0.38610
 C269 C 0.26503 0.83980 0.43300
 C270 C 0.22327 0.80456 0.43228
 H271 H 0.23657 0.91979 0.41626
 H272 H 0.26889 0.87921 0.33022
 H273 H 0.15910 0.85540 0.41424
 H274 H 0.24225 0.74202 0.37494
 H275 H 0.31876 0.80655 0.37833
 H276 H 0.21080 0.78290 0.46265
   
