data_POSCAR
  _audit_creation_date              2014-09-24
  _audit_creation_method            'ToBaCCo'
  _symmetry_space_group_name_H-M    'P1'
  _symmetry_Int_Tables_number       1
  _symmetry_cell_setting            triclinic
  loop_
  _symmetry_equiv_pos_as_xyz
 x,y,z
_cell_length_a 37.2092
_cell_length_b 37.4829
_cell_length_c 12.8524
_cell_angle_alpha 88.895000
_cell_angle_beta 91.391700
_cell_angle_gamma 120.320300
loop_
  _atom_site_label
  _atom_site_type_symbol
  _atom_site_fract_x
  _atom_site_fract_y
  _atom_site_fract_z
O1 O 0.27373 0.49285 0.63197
 O2 O 0.21445 0.49562 0.39735
 O3 O 0.27592 0.47972 0.43619
 O4 O 0.20913 0.50124 0.59529
 O5 O 0.25253 0.56801 0.57271
 O6 O 0.32280 0.54612 0.42283
 O7 O 0.26253 0.56092 0.37486
 O8 O 0.31608 0.56033 0.61608
 Cu9 Cu 0.23885 0.48543 0.51572
 Cu10 Cu 0.29224 0.56502 0.49361
 C11 C 0.30463 0.52658 0.66445
 C12 C 0.22856 0.52963 0.34731
 C13 C 0.31128 0.50842 0.40710
 C14 C 0.21952 0.53849 0.61107
 O15 O 0.50538 -0.19510 0.59482
 O16 O 0.54661 -0.24852 0.44236
 O17 O 0.51428 -0.20056 0.40006
 O18 O 0.53647 -0.24149 0.64022
 O19 O 0.47523 -0.29830 0.62386
 O20 O 0.45092 -0.25513 0.39243
 O21 O 0.48321 -0.30231 0.42549
 O22 O 0.44317 -0.25135 0.59085
 Cu23 Cu 0.53242 -0.21589 0.51925
 Cu24 Cu 0.45752 -0.28191 0.50695
 C25 C 0.46721 -0.21428 0.61936
 C26 C 0.52189 -0.28468 0.40866
 C27 C 0.47816 -0.21995 0.35850
 C28 C 0.50956 -0.27723 0.67238
 O29 O 1.15028 0.75697 0.59267
 O30 O 1.22393 0.82645 0.39969
 O31 O 1.15423 0.75717 0.39288
 O32 O 1.21913 0.82679 0.59949
 O33 O 1.25509 0.79470 0.61414
 O34 O 1.18831 0.72314 0.40428
 O35 O 1.26016 0.79465 0.41160
 O36 O 1.18453 0.72318 0.60822
 Cu37 Cu 1.18353 0.79510 0.49467
 Cu38 Cu 1.22554 0.75544 0.51070
 C39 C 1.15441 0.72811 0.63311
 C40 C 1.25485 0.82328 0.37343
 C41 C 1.15948 0.72803 0.36399
 C42 C 1.24827 0.82316 0.64156
 O43 O 0.79820 0.49118 0.41288
 O44 O 0.74415 0.53129 0.56258
 O45 O 0.78954 0.49677 0.60676
 O46 O 0.75408 0.52400 0.36633
 O47 O 0.69603 0.46338 0.37098
 O48 O 0.73437 0.43392 0.60556
 O49 O 0.68865 0.46899 0.57268
 O50 O 0.74125 0.42957 0.40763
 Cu51 Cu 0.77697 0.51725 0.48848
 Cu52 Cu 0.70918 0.44302 0.48974
 C53 C 0.77903 0.45381 0.38390
 C54 C 0.70730 0.50737 0.59311
 C55 C 0.76955 0.46029 0.64350
 C56 C 0.71899 0.49812 0.32730
 O57 O 0.47124 0.21201 0.61110
 O58 O 0.48316 0.27277 0.37390
 O59 O 0.48902 0.20436 0.41048
 O60 O 0.46339 0.27135 0.55631
 O61 O 0.52950 0.30917 0.60420
 O62 O 0.55626 0.24625 0.43933
 O63 O 0.55104 0.30885 0.40515
 O64 O 0.53933 0.24108 0.62859
 Cu65 Cu 0.47045 0.23458 0.48174
 Cu66 Cu 0.55013 0.28111 0.52718
 C67 C 0.50304 0.21560 0.65963
 C68 C 0.51923 0.30204 0.35078
 C69 C 0.52665 0.21431 0.39696
 C70 C 0.49211 0.30180 0.60512
 O71 O 0.82663 0.22272 0.60156
 O72 O 0.75794 0.15595 0.39492
 O73 O 0.83048 0.22179 0.40390
 O74 O 0.75398 0.15671 0.59719
 O75 O 0.72339 0.19408 0.58550
 O76 O 0.80108 0.26020 0.38740
 O77 O 0.72688 0.19284 0.38090
 O78 O 0.79820 0.26203 0.58914
 Cu79 Cu 0.79477 0.18519 0.50086
 Cu80 Cu 0.75909 0.23098 0.48450
 C81 C 0.82537 0.25442 0.62867
 C82 C 0.73094 0.16280 0.35206
 C83 C 0.82955 0.25253 0.36422
 C84 C 0.72591 0.16404 0.62513
 O85 O 0.91043 0.49314 -0.16718
 O86 O 0.88316 0.43197 -0.07604
 C87 C 0.87977 0.45738 -0.13981
 O88 O 1.07222 0.49021 -0.19999
 O89 O 1.10306 0.54943 -0.10268
 C90 C 1.10368 0.52599 -0.17423
 O91 O 0.96187 0.40054 -0.19721
 O92 O 0.90768 0.38777 -0.09125
 C93 C 0.92392 0.37787 -0.16551
 O94 O 1.01817 0.58443 -0.16662
 O95 O 1.07829 0.59322 -0.08901
 C96 C 1.05789 0.60582 -0.14735
 Zr97 Zr 0.97366 0.52361 -0.12077
 O98 O 0.97362 0.52818 -0.28531
 O99 O 0.94702 0.56174 -0.11137
 Zr100 Zr 1.01039 0.45838 -0.14311
 O101 O 1.00853 0.46520 -0.30679
 O102 O 1.02992 0.41472 -0.16106
 O103 O 0.95641 0.46241 -0.15009
 O104 O 1.02532 0.51932 -0.15316
 O105 O 1.02727 0.58069 0.17978
 O106 O 1.08359 0.59096 0.08604
 C107 C 1.06583 0.60271 0.15190
 O108 O 0.97163 0.39482 0.17252
 O109 O 0.91210 0.38537 0.08935
 C110 C 0.93192 0.37359 0.15235
 O111 O 1.08188 0.48105 0.15358
 O112 O 1.10811 0.54358 0.06916
 C113 C 1.11230 0.51713 0.12715
 O114 O 0.92070 0.48671 0.20333
 O115 O 0.88831 0.42859 0.10217
 C116 C 0.88868 0.45153 0.17670
 Zr117 Zr 0.98145 0.51937 0.14177
 O118 O 0.99321 0.51746 0.30331
 O119 O 0.95618 0.55714 0.17541
 Zr120 Zr 1.01758 0.45415 0.11959
 O121 O 1.02492 0.45830 0.28368
 O122 O 1.03739 0.41033 0.12061
 Zr123 Zr 0.93752 0.44094 0.00297
 Zr124 Zr 1.05384 0.53691 -0.00487
 O125 O 1.03454 0.51492 0.14718
 O126 O 0.96493 0.45749 0.15315
 O127 O 1.00902 0.55512 0.00953
 O128 O 0.98300 0.42367 -0.01097
 O129 O 0.94124 0.49870 0.01456
 O130 O 1.05138 0.47960 -0.01607
 H131 H 1.04098 0.53484 -0.21547
 H132 H 0.97454 0.39406 -0.01436
 H133 H 1.05470 0.52925 0.20489
 H134 H 0.91554 0.50017 0.02096
 H135 H 1.05654 0.42495 -0.12207
 H136 H 1.04569 0.40935 0.04882
 H137 H 0.99681 0.44373 0.31403
 H138 H 0.97123 0.49051 0.33069
 H139 H 0.95119 0.56697 0.10777
 H140 H 0.96444 0.58426 -0.06229
 H141 H 0.95434 0.50025 -0.31279
 H142 H 0.97912 0.45449 -0.32802
 O143 O 0.54021 0.61189 -0.15272
 O144 O 0.49240 0.59962 -0.02642
 C145 C 0.51631 0.62119 -0.10238
 O146 O 0.46156 0.42504 -0.19352
 O147 O 0.52378 0.43225 -0.13616
 C148 C 0.48937 0.41392 -0.19051
 O149 O 0.41317 0.48928 -0.14547
 O150 O 0.43088 0.53990 -0.02415
 C151 C 0.40754 0.51661 -0.09960
 O152 O 0.59787 0.55700 -0.20829
 O153 O 0.58838 0.49520 -0.14493
 C154 C 0.60699 0.52784 -0.20369
 Zr155 Zr 0.55186 0.56273 -0.12897
 O156 O 0.53826 0.56405 -0.28930
 O157 O 0.60901 0.61953 -0.13010
 Zr158 Zr 0.46028 0.47391 -0.11901
 O159 O 0.45354 0.47880 -0.28185
 O160 O 0.40012 0.42088 -0.11305
 O161 O 0.48786 0.53800 -0.12161
 O162 O 0.52163 0.50055 -0.16354
 O163 O 0.62015 0.54455 0.13331
 O164 O 0.59972 0.48908 0.02533
 C165 C 0.62566 0.51679 0.08986
 O166 O 0.43541 0.47276 0.22578
 O167 O 0.44052 0.53177 0.15414
 C168 C 0.42471 0.50075 0.21899
 O169 O 0.48836 0.41388 0.15936
 O170 O 0.53710 0.42776 0.03505
 C171 C 0.51416 0.40614 0.11207
 O172 O 0.56493 0.59961 0.20985
 O173 O 0.50329 0.59268 0.14830
 C174 C 0.53663 0.61016 0.20665
 Zr175 Zr 0.56844 0.55328 0.12641
 O176 O 0.57842 0.54267 0.28418
 O177 O 0.62498 0.61051 0.12762
 Zr178 Zr 0.47694 0.46373 0.13646
 O179 O 0.48854 0.45586 0.29488
 O180 O 0.41770 0.40930 0.14137
 Zr181 Zr 0.48580 0.54469 0.04021
 Zr182 Zr 0.54291 0.48199 -0.03194
 O183 O 0.54078 0.48987 0.12920
 O184 O 0.50683 0.52646 0.17347
 O185 O 0.58413 0.54620 -0.02316
 O186 O 0.44522 0.48042 0.02999
 O187 O 0.55022 0.58260 0.01850
 O188 O 0.47834 0.44303 -0.01166
 H189 H 0.52651 0.49316 -0.23333
 H190 H 0.41508 0.46892 0.04115
 H191 H 0.55387 0.47900 0.17859
 H192 H 0.56388 0.61297 0.02624
 H193 H 0.40252 0.39971 -0.07137
 H194 H 0.41834 0.38877 0.09537
 H195 H 0.49589 0.48177 0.33116
 H196 H 0.55783 0.54508 0.32624
 H197 H 0.63540 0.61567 0.05562
 H198 H 0.61293 0.63091 -0.20180
 H199 H 0.56220 0.58904 -0.31928
 H200 H 0.46037 0.50752 -0.29706
 O201 O 0.50505 -0.08107 0.16198
 O202 O 0.44197 -0.11395 0.07533
 C203 C 0.47007 -0.11382 0.13722
 O204 O 0.48477 0.06954 0.20051
 O205 O 0.54185 0.10458 0.09624
 C206 C 0.51854 0.10278 0.17170
 O207 O 0.40272 -0.04255 0.20409
 O208 O 0.39193 -0.09551 0.09653
 C209 C 0.38123 -0.08041 0.17206
 O210 O 0.59061 0.02953 0.14802
 O211 O 0.59182 0.08641 0.07401
 C212 C 0.60866 0.06882 0.12778
 Zr213 Zr 0.52971 -0.01909 0.11224
 O214 O 0.53381 -0.02316 0.27653
 O215 O 0.57425 -0.03721 0.08853
 Zr216 Zr 0.45757 0.00810 0.14445
 O217 O 0.46843 0.00753 0.30682
 O218 O 0.41019 0.02232 0.16961
 O219 O 0.46754 -0.04182 0.14827
 O220 O 0.52067 0.02931 0.14696
 O221 O 0.57810 0.03417 -0.19470
 O222 O 0.58550 0.08861 -0.09872
 C223 C 0.59852 0.07250 -0.16606
 O224 O 0.38785 -0.03752 -0.16325
 O225 O 0.38580 -0.09364 -0.08208
 C226 C 0.36984 -0.07669 -0.14154
 O227 O 0.46536 0.07404 -0.14364
 O228 O 0.53146 0.10808 -0.07293
 C229 C 0.49983 0.10736 -0.12081
 O230 O 0.49070 -0.07517 -0.20925
 O231 O 0.43439 -0.11094 -0.10301
 C232 C 0.45752 -0.10873 -0.17960
 Zr233 Zr 0.51924 -0.01446 -0.14901
 O234 O 0.51345 -0.00561 -0.31038
 O235 O 0.56184 -0.03445 -0.17920
 Zr236 Zr 0.44697 0.01193 -0.11784
 O237 O 0.44899 0.01828 -0.28208
 O238 O 0.39821 0.02537 -0.11926
 Zr239 Zr 0.44375 -0.06311 -0.00243
 Zr240 Zr 0.53290 0.05674 -0.00223
 O241 O 0.50888 0.03489 -0.15220
 O242 O 0.45536 -0.03710 -0.15366
 O243 O 0.55635 0.01645 -0.02027
 O244 O 0.42119 -0.02222 0.01553
 O245 O 0.50405 -0.05338 -0.02072
 O246 O 0.47257 0.04727 0.01621
 H247 H 0.53676 0.04648 0.20721
 H248 H 0.39097 -0.03295 0.02237
 H249 H 0.52069 0.05511 -0.21032
 H250 H 0.50837 -0.07722 -0.02795
 H251 H 0.41551 0.04570 0.12284
 H252 H 0.39310 0.02846 -0.04578
 H253 H 0.43284 -0.00979 -0.31178
 H254 H 0.48578 -0.02804 -0.33394
 H255 H 0.57814 -0.03044 -0.11405
 H256 H 0.58360 -0.04102 0.15862
 H257 H 0.55118 0.00500 0.30476
 H258 H 0.46493 -0.01981 0.32510
 N259 N 1.18810 0.56613 0.14583
 N260 N 1.22078 0.56936 0.20790
 C261 C 1.20624 0.53425 0.26468
 C262 C 1.16457 0.50772 0.23918
 C263 C 1.15428 0.52927 0.16647
 H264 H 1.14354 0.47839 0.27580
 H265 H 1.18956 0.58968 0.09807
 H266 H 1.25023 0.59584 0.21342
 N267 N 0.58206 0.67415 0.30704
 N268 N 0.57852 0.70268 0.35694
 C269 C 0.53835 0.69282 0.35313
 C270 C 0.51526 0.65650 0.29765
 C271 C 0.54425 0.64570 0.26988
 H272 H 0.48208 0.63998 0.28130
 H273 H 0.61003 0.67441 0.29829
 H274 H 0.60311 0.72790 0.39485
 N275 N 0.31275 -0.08999 0.20843
 N276 N 0.27750 -0.11672 0.26409
 C277 C 0.28302 -0.14715 0.30403
 C278 C 0.32153 -0.14109 0.27274
 C279 C 0.33912 -0.10459 0.21396
 H280 H 0.33592 -0.15903 0.29538
 H281 H 0.31797 -0.06256 0.17256
 H282 H 0.25248 -0.11206 0.27583
 N283 N 0.81419 0.40188 0.21920
 N284 N 0.78487 0.40248 0.27420
 C285 C 0.80161 0.43929 0.32200
 C286 C 0.84317 0.46281 0.29773
 C287 C 0.84991 0.43819 0.23212
 H288 H 0.86502 0.49426 0.32079
 H289 H 0.80943 0.37745 0.17197
 H290 H 0.75387 0.37859 0.27633
 N291 N 0.55471 0.37026 0.13100
 N292 N 0.55691 0.34371 0.19610
 C293 C 0.52440 0.32866 0.26052
 C294 C 0.50037 0.34645 0.23577
 C295 C 0.52104 0.37312 0.15364
 H296 H 0.47393 0.34321 0.27745
 H297 H 0.57741 0.38796 0.07638
 H298 H 0.58106 0.33713 0.19836
 N299 N 0.67875 0.08072 0.17008
 N300 N 0.71079 0.10526 0.23004
 C301 C 0.70427 0.13454 0.26931
 C302 C 0.66651 0.12889 0.23063
 C303 C 0.65125 0.09400 0.16872
 H304 H 0.65059 0.14499 0.25277
 H305 H 0.67497 0.05414 0.13472
 H306 H 0.73572 0.10065 0.24759
 N307 N 0.46388 0.14644 -0.12695
 N308 N 0.46243 0.17448 -0.19659
 C309 C 0.49731 0.19113 -0.25266
 C310 C 0.52200 0.17460 -0.21992
 C311 C 0.49899 0.14542 -0.14374
 H312 H 0.54894 0.17784 -0.25909
 H313 H 0.43854 0.12507 -0.08323
 H314 H 0.43706 0.17897 -0.20716
 N315 N 0.67426 0.57110 -0.29053
 N316 N 0.70304 0.56528 -0.34364
 C317 C 0.68739 0.52425 -0.35281
 C318 C 0.64892 0.50305 -0.30443
 C319 C 0.64205 0.53359 -0.26637
 H320 H 0.62869 0.46991 -0.29753
 H321 H 0.67821 0.59978 -0.27082
 H322 H 0.73105 0.58907 -0.37297
 N323 N 0.91432 0.30999 -0.20752
 N324 N 0.88636 0.27514 -0.26340
 C325 C 0.85567 0.28127 -0.30055
 C326 C 0.86265 0.31951 -0.26691
 C327 C 0.89993 0.33643 -0.20995
 H328 H 0.84469 0.33418 -0.28679
 H329 H 0.94212 0.31476 -0.17319
 H330 H 0.89059 0.25021 -0.27815
 N331 N 0.40974 -0.18235 -0.22858
 N332 N 0.41271 -0.21210 -0.28551
 C333 C 0.45171 -0.19422 -0.32235
 C334 C 0.47395 -0.15322 -0.29200
 C335 C 0.44675 -0.14704 -0.23380
 H336 H 0.50617 -0.13092 -0.30811
 H337 H 0.38347 -0.18735 -0.18854
 H338 H 0.38890 -0.24275 -0.29466
 N339 N 0.36845 0.55426 -0.10604
 N340 N 0.34130 0.55698 -0.16883
 C341 C 0.32812 0.52733 -0.24136
 C342 C 0.34795 0.50474 -0.22444
 C343 C 0.37372 0.52323 -0.13827
 H344 H 0.34711 0.48133 -0.27407
 H345 H 0.38492 0.57504 -0.04623
 H346 H 0.33354 0.58009 -0.16498
 N347 N 1.06308 0.67034 -0.21518
 N348 N 1.08850 0.70244 -0.27261
 C349 C 1.12251 0.69994 -0.29313
 C350 C 1.11892 0.66482 -0.24454
 C351 C 1.08047 0.64687 -0.19647
 H352 H 1.13957 0.65249 -0.25002
 H353 H 1.03369 0.66401 -0.19211
 H354 H 1.08167 0.72471 -0.30088
 N355 N 0.80360 0.40918 -0.17548
 N356 N 0.77382 0.41031 -0.23150
 C357 C 0.78951 0.44834 -0.27425
 C358 C 0.83072 0.47223 -0.24447
 C359 C 0.83865 0.44632 -0.18312
 H360 H 0.85273 0.50338 -0.26980
 H361 H 0.80027 0.38302 -0.13632
 H362 H 0.74399 0.38499 -0.24364
 N363 N 0.44140 0.35247 -0.29307
 N364 N 0.44202 0.32294 -0.34535
 C365 C 0.48068 0.32846 -0.33950
 C366 C 0.50603 0.36316 -0.27978
 C367 C 0.47960 0.37745 -0.25223
 H368 H 0.53883 0.37647 -0.26117
 H369 H 0.41506 0.35535 -0.28604
 H370 H 0.41634 0.29976 -0.38566
 N371 N 0.66937 0.08515 -0.18639
 N372 N 0.70273 0.10895 -0.24126
 C373 C 0.69653 0.13648 -0.29577
 C374 C 0.65730 0.13028 -0.27327
 C375 C 0.64117 0.09704 -0.20383
 H376 H 0.64167 0.14537 -0.30835
 H377 H 0.66548 0.06020 -0.14037
 H378 H 0.72874 0.10530 -0.24384
 N379 N 1.17392 0.58132 -0.22848
 N380 N 1.20441 0.58484 -0.28636
 C381 C 1.19305 0.54743 -0.32514
 C382 C 1.15357 0.51889 -0.29162
 C383 C 1.14262 0.54169 -0.23045
 H384 H 1.13569 0.48615 -0.30797
 H385 H 1.17470 0.60570 -0.18845
 H386 H 1.23263 0.61226 -0.29743
 N387 N 0.55390 0.69689 -0.11322
 N388 N 0.55323 0.72581 -0.18175
 C389 C 0.51820 0.70588 -0.24015
 C390 C 0.49547 0.66474 -0.20904
 C391 C 0.51913 0.66029 -0.13085
 H392 H 0.46822 0.64014 -0.24758
 H393 H 0.57963 0.70189 -0.06757
 H394 H 0.57759 0.75620 -0.19103
 N395 N 0.30003 -0.08957 -0.19194
 N396 N 0.26785 -0.11613 -0.24855
 C397 C 0.27467 -0.14629 -0.27977
 C398 C 0.31273 -0.13907 -0.23925
 C399 C 0.32782 -0.10245 -0.18486
 H400 H 0.32876 -0.15569 -0.25516
 H401 H 0.30351 -0.06226 -0.16208
 H402 H 0.24264 -0.11239 -0.26948
 N403 N 0.42813 -0.19031 0.16285
 N404 N 0.43076 -0.21867 0.21988
 C405 C 0.46696 -0.20022 0.27444
 C406 C 0.48830 -0.15846 0.25132
 C407 C 0.46245 -0.15338 0.18115
 H408 H 0.51730 -0.13472 0.28562
 H409 H 0.40280 -0.19613 0.11450
 H410 H 0.40752 -0.24977 0.22360
 N411 N 0.36549 0.45740 0.33260
 N412 N 0.33494 0.45886 0.37808
 C413 C 0.33945 0.49646 0.36159
 C414 C 0.37466 0.52027 0.30222
 C415 C 0.39009 0.49394 0.28519
 H416 H 0.38682 0.55167 0.27443
 H417 H 0.36875 0.43131 0.33254
 H418 H 0.31163 0.43446 0.42068
 N419 N 1.07411 0.67060 0.18893
 N420 N 1.09891 0.70370 0.24387
 C421 C 1.13017 0.69945 0.28537
 C422 C 1.12545 0.66200 0.25364
 C423 C 1.08920 0.64472 0.19300
 H424 H 1.14358 0.64797 0.27797
 H425 H 1.04652 0.66530 0.15212
 H426 H 1.09330 0.72791 0.25637
 N427 N 0.57192 0.17301 0.23013
 N428 N 0.57430 0.20204 0.29132
 C429 C 0.53632 0.18915 0.33004
 C430 C 0.50854 0.15002 0.29286
 C431 C 0.53247 0.14099 0.22972
 H432 H 0.47566 0.13106 0.30862
 H433 H 0.59706 0.17512 0.19023
 H434 H 0.60138 0.23036 0.30485
 N435 N 0.70158 0.55000 0.11456
 N436 N 0.72659 0.54558 0.18135
 C437 C 0.70441 0.50936 0.23226
 C438 C 0.66387 0.48933 0.19433
 C439 C 0.66331 0.51637 0.12059
 H440 H 0.63733 0.46219 0.22673
 H441 H 0.70975 0.57709 0.07245
 H442 H 0.75734 0.56846 0.19726
 N443 N 0.92518 0.30954 0.22891
 N444 N 0.89789 0.27733 0.28314
 C445 C 0.86349 0.28011 0.29481
 C446 C 0.86879 0.31544 0.24397
 C447 C 0.90855 0.33322 0.20380
 H448 H 0.84809 0.32786 0.24260
 H449 H 0.95507 0.31561 0.21179
 H450 H 0.90365 0.25487 0.31542
   
