data_POSCAR
  _audit_creation_date              2014-09-24
  _audit_creation_method            'ToBaCCo'
  _symmetry_space_group_name_H-M    'P1'
  _symmetry_Int_Tables_number       1
  _symmetry_cell_setting            triclinic
  loop_
  _symmetry_equiv_pos_as_xyz
 x,y,z
_cell_length_a 28.1423
_cell_length_b 28.0530
_cell_length_c 12.0488
_cell_angle_alpha 89.927000
_cell_angle_beta 90.151900
_cell_angle_gamma 119.958900
loop_
  _atom_site_label
  _atom_site_type_symbol
  _atom_site_fract_x
  _atom_site_fract_y
  _atom_site_fract_z
C1 C 0.47880 0.94983 0.56129
 C2 C 0.47005 0.95017 0.44529
 C3 C 0.48922 1.00114 0.39204
 C4 C 0.52189 1.05200 0.44554
 C5 C 0.52992 1.05168 0.56217
 C6 C 0.51158 1.00059 0.61473
 H7 H 0.52254 1.00035 0.70069
 H8 H 0.47884 1.00111 0.30568
 C9 C 0.04976 0.52845 0.55424
 C10 C 0.04995 0.52174 0.43772
 C11 C -0.00056 0.49079 0.38296
 C12 C -0.05148 0.47134 0.43604
 C13 C -0.05165 0.47737 0.55312
 C14 C -0.00103 0.50817 0.60794
 H15 H -0.00117 0.51669 0.69514
 H16 H -0.00011 0.48164 0.29614
 C17 C 0.47325 0.52412 0.56325
 C18 C 0.47659 0.52737 0.44569
 C19 C 0.50646 0.50637 0.39160
 C20 C 0.52964 0.47848 0.44661
 C21 C 0.52052 0.46921 0.56287
 C22 C 0.49331 0.49320 0.61764
 H23 H 0.48795 0.48826 0.70593
 H24 H 0.51122 0.51153 0.30328
 O25 O 0.41689 0.65539 -0.09281
 O26 O 0.41477 0.74633 -0.12738
 C27 C 0.38920 0.77198 -0.14641
 O28 O 0.34628 0.76295 -0.09464
 O29 O 0.25576 0.66995 -0.13088
 C30 C 0.23008 0.61866 -0.14931
 O31 O 0.23898 0.58470 -0.09661
 O32 O 0.33213 0.58722 -0.12997
 C33 C 0.38338 0.61297 -0.14702
 O34 O 0.41367 0.66943 0.12725
 O35 O 0.41593 0.76266 0.09243
 C36 C 0.38186 0.77141 0.14435
 O37 O 0.33080 0.74565 0.12502
 O38 O 0.23835 0.65469 0.08887
 C39 C 0.22958 0.61188 0.14166
 O40 O 0.25522 0.58627 0.12345
 O41 O 0.34596 0.58429 0.09036
 C42 C 0.38807 0.61805 0.14489
 Cr43 Cr 0.41218 0.70687 -0.00019
 Cr44 Cr 0.29437 0.70674 -0.00290
 Cr45 Cr 0.29464 0.58876 -0.00321
 O46 O 0.33373 0.66747 -0.00213
 O47 O 0.58288 0.32828 -0.12035
 O48 O 0.58262 0.23624 -0.08556
 C49 C 0.61604 0.22721 -0.13975
 O50 O 0.66736 0.25273 -0.12313
 O51 O 0.76089 0.34371 -0.09389
 C52 C 0.76910 0.38560 -0.14929
 O53 O 0.74311 0.41092 -0.13301
 O54 O 0.65313 0.41374 -0.09858
 C55 C 0.60869 0.37885 -0.14516
 O56 O 0.58546 0.34576 0.09988
 O57 O 0.58808 0.25540 0.13464
 C58 C 0.61330 0.22934 0.15158
 O59 O 0.65527 0.23776 0.09709
 O60 O 0.74591 0.33170 0.12646
 C61 C 0.77150 0.38324 0.14221
 O62 O 0.76248 0.41663 0.08723
 O63 O 0.67069 0.41630 0.12159
 C64 C 0.62031 0.39029 0.14652
 Cr65 Cr 0.58795 0.29302 0.00690
 Cr66 Cr 0.70576 0.29308 0.00162
 Cr67 Cr 0.70576 0.41120 -0.00543
 O68 O 0.66641 0.33249 0.00104
 C69 C 0.42264 0.81319 -0.35311
 C70 C 0.39665 0.84929 -0.38178
 C71 C 0.45361 0.90124 -0.36990
 C72 C 0.47984 0.86595 -0.34123
 C73 C 0.44223 0.90463 -0.24498
 C74 C 0.38570 0.85246 -0.25717
 C75 C 0.41201 0.81731 -0.22972
 C76 C 0.46844 0.86916 -0.21662
 H77 H 0.41415 0.77486 -0.39662
 H78 H 0.36449 0.84008 -0.44448
 H79 H 0.51893 0.87162 -0.37535
 H80 H 0.44833 0.94102 -0.19692
 H81 H 0.34684 0.84690 -0.22194
 H82 H 0.49774 0.87715 -0.14766
 C83 C 0.18873 0.61025 -0.35663
 C84 C 0.15248 0.54801 -0.38369
 C85 C 0.10082 0.55349 -0.37274
 C86 C 0.13631 0.61520 -0.34561
 C87 C 0.09760 0.53943 -0.24748
 C88 C 0.14945 0.53447 -0.25871
 C89 C 0.18480 0.59610 -0.23279
 C90 C 0.13327 0.60124 -0.22061
 H91 H 0.22685 0.63967 -0.40075
 H92 H 0.16117 0.52467 -0.44639
 H93 H 0.13063 0.64864 -0.38066
 H94 H 0.06141 0.50965 -0.19878
 H95 H 0.15486 0.50109 -0.22239
 H96 H 0.12555 0.62315 -0.15257
 C97 C 0.40317 0.53490 -0.21580
 C98 C 0.38863 0.52260 -0.34036
 C99 C 0.45012 0.54983 -0.36852
 C100 C 0.46478 0.56220 -0.24353
 C101 C 0.45387 0.60631 -0.38205
 C102 C 0.39182 0.57930 -0.35374
 C103 C 0.40651 0.59083 -0.23031
 C104 C 0.46789 0.61822 -0.25737
 H105 H 0.38233 0.50568 -0.14657
 H106 H 0.35573 0.48285 -0.37389
 H107 H 0.49554 0.55782 -0.19344
 H108 H 0.47634 0.63835 -0.44523
 H109 H 0.36149 0.58678 -0.39791
 H110 H 0.50064 0.65775 -0.22262
 C111 C 0.59729 0.12996 -0.21145
 C112 C 0.53608 0.09526 -0.24298
 C113 C 0.55237 0.09969 -0.36725
 C114 C 0.61338 0.13420 -0.33526
 C115 C 0.54777 0.15204 -0.37827
 C116 C 0.53222 0.14789 -0.25425
 C117 C 0.59320 0.18225 -0.22379
 C118 C 0.60940 0.18735 -0.34647
 H119 H 0.61754 0.12104 -0.14174
 H120 H 0.50516 0.05849 -0.19699
 H121 H 0.64704 0.12846 -0.36782
 H122 H 0.52575 0.16218 -0.44158
 H123 H 0.49879 0.15361 -0.22012
 H124 H 0.63983 0.22593 -0.38819
 C125 C 0.84910 0.38179 -0.26130
 C126 C 0.84560 0.39311 -0.38578
 C127 C 0.89735 0.45028 -0.37394
 C128 C 0.90107 0.43858 -0.24924
 C129 C 0.86206 0.47632 -0.34434
 C130 C 0.80956 0.41897 -0.35642
 C131 C 0.81398 0.40793 -0.23319
 C132 C 0.86564 0.46459 -0.22007
 H133 H 0.84369 0.34273 -0.22647
 H134 H 0.83654 0.36130 -0.44935
 H135 H 0.93750 0.44474 -0.20149
 H136 H 0.86764 0.51573 -0.37743
 H137 H 0.77131 0.41055 -0.39989
 H138 H 0.87374 0.49381 -0.15089
 C139 C 0.58205 0.45234 -0.20872
 C140 C 0.60167 0.47085 -0.32901
 C141 C 0.54155 0.44128 -0.36891
 C142 C 0.52186 0.42248 -0.24800
 C143 C 0.54324 0.38779 -0.38888
 C144 C 0.60395 0.41733 -0.34857
 C145 C 0.58426 0.39951 -0.22925
 C146 C 0.52427 0.36948 -0.26794
 H147 H 0.59793 0.47886 -0.13392
 H148 H 0.63387 0.51284 -0.35384
 H149 H 0.48741 0.42132 -0.20112
 H150 H 0.52515 0.35836 -0.45837
 H151 H 0.63801 0.41445 -0.38813
 H152 H 0.49243 0.32753 -0.24202
 C153 C 0.81262 0.39115 0.34889
 C154 C 0.86545 0.38697 0.33707
 C155 C 0.90024 0.44844 0.36655
 C156 C 0.84820 0.45320 0.37839
 C157 C 0.90360 0.46375 0.24177
 C158 C 0.86866 0.40211 0.21269
 C159 C 0.81671 0.40644 0.22565
 C160 C 0.85130 0.46783 0.25385
 H161 H 0.77445 0.36100 0.39193
 H162 H 0.87142 0.35346 0.37062
 H163 H 0.83874 0.47571 0.44161
 H164 H 0.93967 0.49435 0.19383
 H165 H 0.87690 0.38117 0.14351
 H166 H 0.84539 0.50115 0.21890
 C167 C 0.53422 0.13243 0.22151
 C168 C 0.55993 0.09671 0.25166
 C169 C 0.54790 0.10043 0.37610
 C170 C 0.52218 0.13597 0.34551
 C171 C 0.60499 0.15220 0.38857
 C172 C 0.61658 0.14874 0.26435
 C173 C 0.59075 0.18413 0.23525
 C174 C 0.57946 0.18853 0.35813
 H175 H 0.50534 0.12446 0.15173
 H176 H 0.55378 0.06011 0.20433
 H177 H 0.48293 0.13059 0.37802
 H178 H 0.63679 0.16135 0.45212
 H179 H 0.65556 0.15409 0.23026
 H180 H 0.58794 0.22698 0.40111
 C181 C 0.62973 0.47456 0.27031
 C182 C 0.57651 0.47657 0.25243
 C183 C 0.55875 0.45648 0.37348
 C184 C 0.61239 0.45513 0.39135
 C185 C 0.52934 0.39631 0.33300
 C186 C 0.54688 0.41633 0.21262
 C187 C 0.59988 0.41446 0.23131
 C188 C 0.58299 0.39434 0.35080
 H189 H 0.67127 0.50678 0.24368
 H190 H 0.57679 0.51108 0.20678
 H191 H 0.64197 0.47339 0.46058
 H192 H 0.48767 0.36382 0.35823
 H193 H 0.51996 0.40046 0.13838
 H194 H 0.58618 0.36022 0.39005
 C195 C 0.18881 0.57886 0.34888
 C196 C 0.15296 0.60510 0.37667
 C197 C 0.10107 0.54804 0.36543
 C198 C 0.13615 0.52157 0.33754
 C199 C 0.09759 0.55911 0.24031
 C200 C 0.14966 0.61581 0.25186
 C201 C 0.18458 0.58926 0.22520
 C202 C 0.13282 0.53268 0.21273
 H203 H 0.22698 0.58733 0.39278
 H204 H 0.16209 0.63725 0.43946
 H205 H 0.13036 0.48234 0.37218
 H206 H 0.06133 0.55296 0.19194
 H207 H 0.15522 0.65474 0.21598
 H208 H 0.12471 0.50308 0.14432
 C209 C 0.46519 0.85157 0.25660
 C210 C 0.46040 0.90371 0.24624
 C211 C 0.44542 0.89939 0.37109
 C212 C 0.45077 0.84745 0.38111
 C213 C 0.38412 0.86413 0.34154
 C214 C 0.39898 0.86824 0.21702
 C215 C 0.40395 0.81640 0.22849
 C216 C 0.38893 0.81142 0.35184
 H217 H 0.49869 0.84640 0.22100
 H218 H 0.49050 0.94058 0.19938
 H219 H 0.47370 0.83812 0.44382
 H220 H 0.35052 0.86952 0.37573
 H221 H 0.37771 0.87662 0.14850
 H222 H 0.35926 0.77284 0.39462
 C223 C 0.42085 0.61039 0.35303
 C224 C 0.39375 0.54829 0.38277
 C225 C 0.45007 0.55193 0.37183
 C226 C 0.47736 0.61349 0.34193
 C227 C 0.43837 0.53673 0.24701
 C228 C 0.38245 0.53365 0.25827
 C229 C 0.40988 0.59512 0.22974
 C230 C 0.46568 0.59838 0.21758
 H231 H 0.41334 0.64102 0.39588
 H232 H 0.36170 0.52597 0.44585
 H233 H 0.51695 0.64662 0.37538
 H234 H 0.44318 0.50570 0.19889
 H235 H 0.34321 0.50065 0.22321
 H236 H 0.49512 0.61897 0.14876
   
