data_POSCAR
  _audit_creation_date              2014-09-24
  _audit_creation_method            'ToBaCCo'
  _symmetry_space_group_name_H-M    'P1'
  _symmetry_Int_Tables_number       1
  _symmetry_cell_setting            triclinic
  loop_
  _symmetry_equiv_pos_as_xyz
 x,y,z
_cell_length_a 56.0518
_cell_length_b 56.3770
_cell_length_c 56.5080
_cell_angle_alpha 89.986100
_cell_angle_beta 90.020100
_cell_angle_gamma 90.006600
loop_
  _atom_site_label
  _atom_site_type_symbol
  _atom_site_fract_x
  _atom_site_fract_y
  _atom_site_fract_z
N1 N 0.29074 0.24123 0.22525
 N2 N 0.28143 0.26022 0.21538
 C3 C 0.29405 0.26571 0.19584
 C4 C 0.31218 0.24929 0.19342
 C5 C 0.30960 0.23402 0.21238
 H6 H 0.29018 0.28029 0.18401
 H7 H 0.32039 0.21860 0.21625
 Cu8 Cu 0.25319 0.27522 0.22866
 Cu9 Cu 0.27723 0.22675 0.25357
 Cu10 Cu 0.22706 0.25368 0.27758
 N11 N 0.22506 0.29026 0.24214
 N12 N 0.21500 0.28177 0.26138
 C13 C 0.19560 0.29485 0.26658
 C14 C 0.19337 0.31240 0.24965
 C15 C 0.21234 0.30901 0.23441
 H16 H 0.18369 0.29156 0.28127
 H17 H 0.21626 0.31920 0.21867
 N18 N 0.24193 0.22510 0.29133
 N19 N 0.26096 0.21482 0.28214
 C20 C 0.26623 0.19532 0.29491
 C21 C 0.24972 0.19327 0.31292
 C22 C 0.23461 0.21241 0.31018
 H23 H 0.28070 0.18321 0.29118
 H24 H 0.21915 0.21645 0.32089
 H25 H 0.24257 0.23815 0.24825
 H26 H 0.26211 0.25733 0.26692
 N27 N 0.70877 -0.24146 0.22529
 N28 N 0.71764 -0.26084 0.21581
 C29 C 0.70505 -0.26630 0.19624
 C30 C 0.68738 -0.24941 0.19336
 C31 C 0.69022 -0.23393 0.21214
 H32 H 0.70864 -0.28119 0.18472
 H33 H 0.67980 -0.21818 0.21573
 Cu34 Cu 0.74529 -0.27675 0.22936
 Cu35 Cu 0.72242 -0.22700 0.25347
 Cu36 Cu 0.77248 -0.25385 0.27742
 N37 N 0.77409 -0.29084 0.24254
 N38 N 0.78453 -0.28193 0.26139
 C39 C 0.80427 -0.29462 0.26629
 C40 C 0.80637 -0.31236 0.24951
 C41 C 0.78691 -0.30948 0.23473
 H42 H 0.81647 -0.29094 0.28067
 H43 H 0.78269 -0.31993 0.21922
 N44 N 0.75772 -0.22528 0.29114
 N45 N 0.73870 -0.21500 0.28194
 C46 C 0.73345 -0.19550 0.29470
 C47 C 0.74996 -0.19345 0.31272
 C48 C 0.76506 -0.21260 0.31000
 H49 H 0.71895 -0.18341 0.29098
 H50 H 0.78050 -0.21667 0.32073
 H51 H 0.75675 -0.23923 0.24760
 H52 H 0.73725 -0.25755 0.26725
 N53 N 0.70955 0.24141 0.77434
 N54 N 0.71877 0.26045 0.78420
 C55 C 0.70599 0.26601 0.80362
 C56 C 0.68788 0.24955 0.80599
 C57 C 0.69061 0.23422 0.78712
 H58 H 0.70975 0.28065 0.81541
 H59 H 0.67987 0.21877 0.78323
 Cu60 Cu 0.74711 0.27539 0.77106
 Cu61 Cu 0.72323 0.22688 0.74615
 Cu62 Cu 0.77365 0.25366 0.72246
 N63 N 0.77536 0.29036 0.75779
 N64 N 0.78562 0.28175 0.73870
 C65 C 0.80505 0.29480 0.73357
 C66 C 0.80712 0.31248 0.75041
 C67 C 0.78797 0.30920 0.76549
 H68 H 0.81702 0.29144 0.71895
 H69 H 0.78381 0.31954 0.78108
 N70 N 0.75881 0.22510 0.70866
 N71 N 0.73966 0.21490 0.71771
 C72 C 0.73435 0.19547 0.70488
 C73 C 0.75095 0.19337 0.68696
 C74 C 0.76617 0.21241 0.68982
 H75 H 0.71977 0.18345 0.70849
 H76 H 0.78169 0.21641 0.67919
 H77 H 0.75786 0.23826 0.75169
 H78 H 0.73853 0.25740 0.73278
 N79 N 0.29080 -0.24183 0.77495
 N80 N 0.28135 -0.26068 0.78495
 C81 C 0.29402 -0.26621 0.80446
 C82 C 0.31234 -0.24995 0.80672
 C83 C 0.30981 -0.23476 0.78770
 H84 H 0.29006 -0.28068 0.81639
 H85 H 0.32072 -0.21945 0.78370
 Cu86 Cu 0.25285 -0.27545 0.77189
 Cu87 Cu 0.27725 -0.22730 0.74667
 Cu88 Cu 0.22665 -0.25378 0.72303
 N89 N 0.22451 -0.29027 0.75856
 N90 N 0.21442 -0.28172 0.73935
 C91 C 0.19492 -0.29468 0.73420
 C92 C 0.19262 -0.31222 0.75116
 C93 C 0.21172 -0.30896 0.76633
 H94 H 0.18306 -0.29133 0.71947
 H95 H 0.21572 -0.31922 0.78202
 N96 N 0.24169 -0.22537 0.70914
 N97 N 0.26092 -0.21528 0.71817
 C98 C 0.26629 -0.19587 0.70532
 C99 C 0.24966 -0.19366 0.68743
 C100 C 0.23436 -0.21264 0.69031
 H101 H 0.28091 -0.18389 0.70894
 H102 H 0.21877 -0.21653 0.67973
 H103 H 0.24251 -0.23833 0.75223
 H104 H 0.26171 -0.25778 0.73351
 N105 N 0.70927 -0.24183 0.77443
 N106 N 0.71871 -0.26076 0.78431
 C107 C 0.70623 -0.26624 0.80392
 C108 C 0.68804 -0.24990 0.80639
 C109 C 0.69044 -0.23468 0.78737
 H110 H 0.71026 -0.28073 0.81581
 H111 H 0.67962 -0.21927 0.78356
 Cu112 Cu 0.74706 -0.27552 0.77104
 Cu113 Cu 0.72275 -0.22720 0.74616
 Cu114 Cu 0.77340 -0.25356 0.72249
 N115 N 0.77541 -0.29027 0.75778
 N116 N 0.78560 -0.28157 0.73870
 C117 C 0.80514 -0.29445 0.73357
 C118 C 0.80735 -0.31210 0.75042
 C119 C 0.78817 -0.30900 0.76549
 H120 H 0.81710 -0.29095 0.71896
 H121 H 0.78410 -0.31936 0.78108
 N122 N 0.75835 -0.22513 0.70870
 N123 N 0.73907 -0.21512 0.71769
 C124 C 0.73371 -0.19567 0.70490
 C125 C 0.75041 -0.19337 0.68710
 C126 C 0.76575 -0.21230 0.68997
 H127 H 0.71906 -0.18373 0.70850
 H128 H 0.78139 -0.21610 0.67945
 H129 H 0.73829 -0.25755 0.73278
 H130 H 0.75745 -0.23826 0.75171
 N131 N 0.29110 0.24175 0.77422
 N132 N 0.28176 0.26074 0.78406
 C133 C 0.29433 0.26623 0.80364
 C134 C 0.31243 0.24978 0.80613
 C135 C 0.30991 0.23453 0.78717
 H136 H 0.29037 0.28075 0.81550
 H137 H 0.32066 0.21906 0.78338
 Cu138 Cu 0.25346 0.27559 0.77077
 Cu139 Cu 0.27749 0.22707 0.74606
 Cu140 Cu 0.22697 0.25358 0.72228
 N141 N 0.22519 0.29045 0.75742
 N142 N 0.21496 0.28173 0.73836
 C143 C 0.19547 0.29467 0.73320
 C144 C 0.19336 0.31238 0.74994
 C145 C 0.21250 0.30925 0.76504
 H146 H 0.18344 0.29119 0.71863
 H147 H 0.21653 0.31963 0.78062
 N148 N 0.24184 0.22499 0.70863
 N149 N 0.26107 0.21493 0.71767
 C150 C 0.26636 0.19541 0.70496
 C151 C 0.24966 0.19312 0.68715
 C152 C 0.23440 0.21213 0.68994
 H153 H 0.28097 0.18344 0.70862
 H154 H 0.21878 0.21598 0.67938
 H155 H 0.26207 0.25745 0.73258
 H156 H 0.24283 0.23832 0.75160
 N157 N 0.29174 -0.24164 0.22567
 N158 N 0.28218 -0.26044 0.21567
 C159 C 0.29470 -0.26591 0.19606
 C160 C 0.31300 -0.24966 0.19372
 C161 C 0.31065 -0.23453 0.21281
 H162 H 0.29060 -0.28030 0.18409
 H163 H 0.32159 -0.21922 0.21674
 Cu164 Cu 0.25372 -0.27515 0.22879
 Cu165 Cu 0.27824 -0.22704 0.25393
 Cu166 Cu 0.22750 -0.25331 0.27751
 N167 N 0.22537 -0.28990 0.24211
 N168 N 0.21525 -0.28127 0.26125
 C169 C 0.19571 -0.29416 0.26638
 C170 C 0.19346 -0.31176 0.24952
 C171 C 0.21255 -0.30859 0.23439
 H172 H 0.18375 -0.29073 0.28100
 H173 H 0.21649 -0.31890 0.21874
 N174 N 0.24260 -0.22492 0.29134
 N175 N 0.26192 -0.21495 0.28239
 C176 C 0.26731 -0.19552 0.29521
 C177 C 0.25059 -0.19319 0.31299
 C178 C 0.23521 -0.21210 0.31008
 H179 H 0.28200 -0.18362 0.29164
 H180 H 0.21954 -0.21588 0.32056
 H181 H 0.26257 -0.25742 0.26713
 H182 H 0.24349 -0.23794 0.24830
 N183 N 0.70861 0.24132 0.22567
 N184 N 0.71794 0.26033 0.21585
 C185 C 0.70540 0.26580 0.19625
 C186 C 0.68733 0.24934 0.19373
 C187 C 0.68983 0.23408 0.21270
 H188 H 0.70932 0.28036 0.18441
 H189 H 0.67909 0.21860 0.21648
 Cu190 Cu 0.74617 0.27529 0.22918
 Cu191 Cu 0.72213 0.22677 0.25394
 Cu192 Cu 0.77247 0.25350 0.27788
 N193 N 0.77432 0.29027 0.24264
 N194 N 0.78449 0.28163 0.26177
 C195 C 0.80393 0.29465 0.26697
 C196 C 0.80604 0.31234 0.25018
 C197 C 0.78699 0.30909 0.23501
 H198 H 0.81591 0.29124 0.28158
 H199 H 0.78299 0.31941 0.21937
 N200 N 0.75760 0.22492 0.29155
 N201 N 0.73844 0.21476 0.28245
 C202 C 0.73316 0.19527 0.29521
 C203 C 0.74978 0.19309 0.31310
 C204 C 0.76499 0.21215 0.31032
 H205 H 0.71861 0.18323 0.29152
 H206 H 0.78054 0.21607 0.32094
 H207 H 0.73739 0.25726 0.26739
 H208 H 0.75678 0.23812 0.24855
 C209 C 0.23178 -0.02203 0.55035
 C210 C 0.23143 -0.00040 0.56246
 C211 C 0.23174 0.02131 0.55048
 C212 C 0.23161 0.02155 0.52540
 C213 C 0.23186 -0.00022 0.51277
 C214 C 0.23169 -0.02209 0.52527
 C215 C 0.23040 -0.04334 0.51234
 C216 C 0.23041 -0.04325 0.48773
 C217 C 0.23169 -0.02190 0.47494
 C218 C 0.23185 -0.00012 0.48757
 C219 C 0.23021 0.04290 0.51262
 C220 C 0.23017 0.04299 0.48801
 C221 C 0.23156 0.02175 0.47508
 C222 C 0.23165 0.02169 0.44999
 C223 C 0.23138 0.00005 0.43789
 C224 C 0.23180 -0.02165 0.44987
 H225 H 0.22879 -0.06034 0.52104
 H226 H 0.22880 -0.06018 0.47890
 H227 H 0.22853 0.05982 0.52143
 H228 H 0.22845 0.05997 0.47931
 H229 H 0.23187 -0.00046 0.58166
 H230 H 0.23182 0.00011 0.41869
 C231 C 0.76837 -0.02202 0.44980
 C232 C 0.76871 -0.00039 0.43769
 C233 C 0.76835 0.02131 0.44967
 C234 C 0.76843 0.02155 0.47474
 C235 C 0.76822 -0.00023 0.48737
 C236 C 0.76845 -0.02209 0.47488
 C237 C 0.76978 -0.04334 0.48782
 C238 C 0.76978 -0.04326 0.51242
 C239 C 0.76844 -0.02191 0.52521
 C240 C 0.76821 -0.00014 0.51257
 C241 C 0.76974 0.04290 0.48752
 C242 C 0.76972 0.04299 0.51212
 C243 C 0.76842 0.02173 0.52506
 C244 C 0.76835 0.02167 0.55014
 C245 C 0.76870 0.00004 0.56225
 C246 C 0.76835 -0.02167 0.55028
 H247 H 0.77145 -0.06033 0.47912
 H248 H 0.77143 -0.06018 0.52124
 H249 H 0.77138 0.05983 0.47870
 H250 H 0.77134 0.05998 0.52082
 H251 H 0.76829 -0.00043 0.41850
 H252 H 0.76829 0.00010 0.58145
 C253 C 0.44954 0.23236 0.02158
 C254 C 0.43730 0.23201 0.00001
 C255 C 0.44935 0.23237 -0.02165
 C256 C 0.47463 0.23227 -0.02191
 C257 C 0.48739 0.23251 -0.00020
 C258 C 0.47482 0.23229 0.02162
 C259 C 0.48789 0.23098 0.04282
 C260 C 0.51269 0.23102 0.04271
 C261 C 0.52556 0.23238 0.02140
 C262 C 0.51279 0.23256 -0.00031
 C263 C 0.48750 0.23091 -0.04322
 C264 C 0.51230 0.23094 -0.04332
 C265 C 0.52536 0.23236 -0.02213
 C266 C 0.55064 0.23255 -0.02209
 C267 C 0.56289 0.23226 -0.00052
 C268 C 0.55083 0.23255 0.02114
 H269 H 0.47914 0.22933 0.05978
 H270 H 0.52160 0.22938 0.05959
 H271 H 0.47860 0.22921 -0.06010
 H272 H 0.52106 0.22926 -0.06027
 H273 H 0.41795 0.23243 0.00009
 H274 H 0.58224 0.23274 -0.00060
 C275 C 0.44995 0.76729 0.02153
 C276 C 0.43792 0.76763 -0.00015
 C277 C 0.45016 0.76728 -0.02171
 C278 C 0.47545 0.76738 -0.02172
 C279 C 0.48800 0.76715 0.00012
 C280 C 0.47523 0.76739 0.02182
 C281 C 0.48809 0.76872 0.04314
 C282 C 0.51289 0.76865 0.04328
 C283 C 0.52596 0.76728 0.02210
 C284 C 0.51341 0.76710 0.00026
 C285 C 0.48852 0.76873 -0.04290
 C286 C 0.51333 0.76871 -0.04276
 C287 C 0.52618 0.76731 -0.02144
 C288 C 0.55146 0.76713 -0.02114
 C289 C 0.56350 0.76742 0.00054
 C290 C 0.55125 0.76711 0.02210
 H291 H 0.47918 0.77042 0.06001
 H292 H 0.52163 0.77029 0.06024
 H293 H 0.47978 0.77042 -0.05986
 H294 H 0.52224 0.77039 -0.05963
 H295 H 0.41856 0.76719 -0.00024
 H296 H 0.58285 0.76693 0.00064
 C297 C 0.02143 0.45030 0.23007
 C298 C -0.00033 0.43816 0.22988
 C299 C -0.02216 0.45017 0.23025
 C300 C -0.02239 0.47530 0.23002
 C301 C -0.00049 0.48796 0.23011
 C302 C 0.02150 0.47543 0.22987
 C303 C 0.04287 0.48839 0.22844
 C304 C 0.04278 0.51305 0.22839
 C305 C 0.02132 0.52587 0.22976
 C306 C -0.00058 0.51321 0.23003
 C307 C -0.04387 0.48811 0.22870
 C308 C -0.04395 0.51277 0.22861
 C309 C -0.02257 0.52574 0.22983
 C310 C -0.02251 0.55088 0.22985
 C311 C -0.00074 0.56301 0.22948
 C312 C 0.02109 0.55100 0.22985
 H313 H 0.05995 0.47966 0.22678
 H314 H 0.05981 0.52188 0.22667
 H315 H -0.06090 0.47927 0.22714
 H316 H -0.06105 0.52148 0.22699
 H317 H -0.00028 0.41893 0.23042
 H318 H -0.00079 0.58225 0.22991
 C319 C 0.02119 0.44987 0.76930
 C320 C -0.00066 0.43789 0.76963
 C321 C -0.02240 0.45005 0.76936
 C322 C -0.02243 0.47519 0.76954
 C323 C -0.00042 0.48768 0.76937
 C324 C 0.02147 0.47500 0.76951
 C325 C 0.04296 0.48778 0.77086
 C326 C 0.04308 0.51245 0.77097
 C327 C 0.02172 0.52544 0.76973
 C328 C -0.00029 0.51294 0.76947
 C329 C -0.04379 0.48817 0.77091
 C330 C -0.04366 0.51283 0.77100
 C331 C -0.02218 0.52562 0.76972
 C332 C -0.02190 0.55075 0.76967
 C333 C -0.00006 0.56273 0.77008
 C334 C 0.02169 0.55058 0.76973
 H335 H 0.05997 0.47892 0.77244
 H336 H 0.06018 0.52115 0.77263
 H337 H -0.06089 0.47946 0.77250
 H338 H -0.06068 0.52168 0.77267
 H339 H -0.00074 0.41865 0.76913
 H340 H 0.00002 0.58198 0.76969
 N341 N 0.34519 0.26212 0.13856
 C342 C 0.36145 0.24432 0.13816
 N343 N 0.36168 0.22828 0.15604
 N344 N 0.34610 0.22997 0.17377
 C345 C 0.32975 0.24775 0.17419
 N346 N 0.32961 0.26382 0.15628
 C347 C 0.37772 0.24210 0.11869
 C348 C 0.39106 0.24012 0.10208
 C349 C 0.40653 0.23767 0.08199
 N350 N 0.40171 0.22132 0.06508
 N351 N 0.41566 0.21938 0.04610
 C352 C 0.43504 0.23361 0.04345
 N353 N 0.43967 0.25015 0.06033
 N354 N 0.42571 0.25209 0.07932
 N355 N 0.63911 0.77174 0.15658
 C356 C 0.63904 0.75538 0.13900
 N357 N 0.65497 0.73731 0.13972
 N358 N 0.67055 0.73567 0.15745
 C359 C 0.67076 0.75206 0.17507
 N360 N 0.65469 0.77010 0.17433
 C361 C 0.62281 0.75756 0.11947
 C362 C 0.60951 0.75948 0.10280
 C363 C 0.59413 0.76186 0.08264
 N364 N 0.59906 0.77811 0.06566
 N365 N 0.58516 0.78002 0.04663
 C366 C 0.56574 0.76584 0.04399
 N367 N 0.56100 0.74940 0.06094
 N368 N 0.57491 0.74750 0.07998
 N369 N 0.65467 0.26234 -0.13927
 C370 C 0.63849 0.24446 -0.13887
 N371 N 0.63836 0.22840 -0.15672
 N372 N 0.65396 0.23015 -0.17443
 C373 C 0.67023 0.24799 -0.17485
 N374 N 0.67027 0.26408 -0.15697
 C375 C 0.62222 0.24218 -0.11939
 C376 C 0.60891 0.24021 -0.10276
 C377 C 0.59350 0.23780 -0.08262
 N378 N 0.57430 0.25217 -0.07996
 N379 N 0.56040 0.25027 -0.06092
 C380 C 0.56514 0.23382 -0.04397
 N381 N 0.58455 0.21965 -0.04661
 N382 N 0.59844 0.22155 -0.06563
 N383 N 0.36219 0.77092 -0.15623
 C384 C 0.36188 0.75504 -0.13821
 N385 N 0.34546 0.73738 -0.13841
 N386 N 0.32980 0.73566 -0.15608
 C387 C 0.33002 0.75157 -0.17413
 N388 N 0.34653 0.76920 -0.17391
 C389 C 0.37822 0.75732 -0.11877
 C390 C 0.39160 0.75934 -0.10219
 C391 C 0.40710 0.76184 -0.08212
 N392 N 0.40224 0.77816 -0.06519
 N393 N 0.41621 0.78015 -0.04622
 C394 C 0.43565 0.76600 -0.04359
 N395 N 0.44033 0.74950 -0.06049
 N396 N 0.42635 0.74751 -0.07948
 N397 N 0.13852 0.34634 0.26147
 C398 C 0.13823 0.36187 0.24314
 N399 N 0.15618 0.36130 0.22707
 N400 N 0.17387 0.34566 0.22925
 C401 C 0.17419 0.33006 0.24756
 N402 N 0.15621 0.33071 0.26365
 C403 C 0.11880 0.37824 0.24046
 C404 C 0.10222 0.39168 0.23822
 C405 C 0.08213 0.40725 0.23556
 N406 N 0.07965 0.42652 0.24971
 N407 N 0.06059 0.44052 0.24768
 C408 C 0.04345 0.43582 0.23132
 N409 N 0.04593 0.41636 0.21736
 N410 N 0.06497 0.40238 0.21938
 N411 N 0.15656 0.63947 0.77325
 C412 C 0.13858 0.63900 0.75719
 N413 N 0.13882 0.65468 0.73900
 N414 N 0.15645 0.67039 0.73695
 C415 C 0.17447 0.67099 0.75304
 N416 N 0.17421 0.65518 0.77120
 C417 C 0.11918 0.62257 0.75974
 C418 C 0.10259 0.60911 0.76189
 C419 C 0.08248 0.59355 0.76444
 N420 N 0.06544 0.59825 0.78079
 N421 N 0.04636 0.58429 0.78274
 C422 C 0.04374 0.56503 0.76852
 N423 N 0.06076 0.56051 0.75200
 N424 N 0.07985 0.57449 0.75005
 N425 N -0.13935 0.65509 0.26106
 C426 C -0.13935 0.63920 0.24305
 N427 N -0.15762 0.63935 0.22733
 N428 N -0.17533 0.65497 0.22951
 C429 C -0.17536 0.67099 0.24748
 N430 N -0.15705 0.67070 0.26324
 C431 C -0.11991 0.62285 0.24036
 C432 C -0.10331 0.60944 0.23810
 C433 C -0.08322 0.59389 0.23542
 N434 N -0.08059 0.57474 0.24971
 N435 N -0.06153 0.56076 0.24767
 C436 C -0.04453 0.56535 0.23115
 N437 N -0.04714 0.58469 0.21703
 N438 N -0.06619 0.59866 0.21907
 N439 N -0.13922 0.34581 0.73833
 C440 C -0.13920 0.36164 0.75638
 N441 N -0.15727 0.36120 0.77232
 N442 N -0.17481 0.34536 0.77028
 C443 C -0.17485 0.32941 0.75226
 N444 N -0.15675 0.32998 0.73629
 C445 C -0.11987 0.37814 0.75898
 C446 C -0.10331 0.39161 0.76119
 C447 C -0.08322 0.40716 0.76385
 N448 N -0.08061 0.42634 0.74960
 N449 N -0.06151 0.44028 0.75162
 C450 C -0.04445 0.43562 0.76807
 N451 N -0.04705 0.41626 0.78215
 N452 N -0.06614 0.40232 0.78013
 N453 N 0.22817 0.15641 0.36234
 C454 C 0.24396 0.13819 0.36211
 N455 N 0.26177 0.13820 0.34588
 N456 N 0.26372 0.15586 0.33033
 C457 C 0.24790 0.17411 0.33047
 N458 N 0.23011 0.17408 0.34678
 C459 C 0.24150 0.11879 0.37838
 C460 C 0.23941 0.10222 0.39171
 C461 C 0.23691 0.08216 0.40715
 N462 N 0.22058 0.06510 0.40233
 N463 N 0.21864 0.04611 0.41624
 C464 C 0.23286 0.04360 0.43556
 N465 N 0.24937 0.06063 0.44019
 N466 N 0.25130 0.07962 0.42627
 N467 N 0.73848 0.13858 0.65374
 C468 C 0.75644 0.13838 0.63769
 N469 N 0.77248 0.15640 0.63764
 N470 N 0.77061 0.17405 0.65321
 C471 C 0.75268 0.17426 0.66936
 N472 N 0.73662 0.15622 0.66931
 C473 C 0.75884 0.11896 0.62144
 C474 C 0.76087 0.10236 0.60816
 C475 C 0.76329 0.08225 0.59278
 N476 N 0.77975 0.06528 0.59750
 N477 N 0.78160 0.04624 0.58367
 C478 C 0.76716 0.04358 0.56454
 N479 N 0.75052 0.06051 0.56001
 N480 N 0.74867 0.07956 0.57385
 N481 N 0.22807 -0.15659 0.63817
 C482 C 0.24407 -0.13855 0.63826
 N483 N 0.26203 -0.13875 0.65433
 N484 N 0.26393 -0.15643 0.66987
 C485 C 0.24791 -0.17450 0.66988
 N486 N 0.22996 -0.17428 0.65372
 C487 C 0.24166 -0.11912 0.62201
 C488 C 0.23959 -0.10254 0.60868
 C489 C 0.23709 -0.08248 0.59322
 N490 N 0.22066 -0.06550 0.59795
 N491 N 0.21872 -0.04652 0.58403
 C492 C 0.23301 -0.04394 0.56479
 N493 N 0.24962 -0.06090 0.56025
 N494 N 0.25157 -0.07989 0.57418
 N495 N 0.73804 -0.13834 0.34561
 C496 C 0.75580 -0.13841 0.36190
 N497 N 0.77151 -0.15669 0.36219
 N498 N 0.76954 -0.17435 0.34664
 C499 C 0.75179 -0.17431 0.33027
 N500 N 0.73606 -0.15599 0.33006
 C501 C 0.75830 -0.11903 0.37817
 C502 C 0.76043 -0.10248 0.39152
 C503 C 0.76298 -0.08245 0.40697
 N504 N 0.77939 -0.06546 0.40220
 N505 N 0.78137 -0.04648 0.41610
 C506 C 0.76712 -0.04392 0.43537
 N507 N 0.75052 -0.06088 0.43996
 N508 N 0.74855 -0.07987 0.42605
 N509 N 0.63901 0.77127 -0.15574
 C510 C 0.63955 0.75539 -0.13773
 N511 N 0.65586 0.73763 -0.13821
 N512 N 0.67118 0.73583 -0.15613
 C513 C 0.67073 0.75174 -0.17417
 N514 N 0.65434 0.76948 -0.17367
 C515 C 0.62348 0.75765 -0.11811
 C516 C 0.61024 0.75958 -0.10142
 C517 C 0.59479 0.76190 -0.08132
 N518 N 0.59960 0.77815 -0.06431
 N519 N 0.58558 0.78003 -0.04537
 C520 C 0.56615 0.76584 -0.04288
 N521 N 0.56155 0.74939 -0.05985
 N522 N 0.57558 0.74752 -0.07879
 N523 N 0.34497 0.26227 -0.13866
 C524 C 0.36116 0.24442 -0.13818
 N525 N 0.36153 0.22847 -0.15614
 N526 N 0.34612 0.23030 -0.17400
 C527 C 0.32982 0.24812 -0.17450
 N528 N 0.32955 0.26409 -0.15652
 C529 C 0.37730 0.24210 -0.11861
 C530 C 0.39058 0.24010 -0.10195
 C531 C 0.40605 0.23771 -0.08186
 N532 N 0.40124 0.22141 -0.06489
 N533 N 0.41526 0.21948 -0.04595
 C534 C 0.43468 0.23368 -0.04341
 N535 N 0.43928 0.25017 -0.06034
 N536 N 0.42525 0.25209 -0.07929
 N537 N 0.34526 0.73794 0.13835
 C538 C 0.36173 0.75555 0.13803
 N539 N 0.36236 0.77131 0.15613
 N540 N 0.34696 0.76954 0.17401
 C541 C 0.33040 0.75195 0.17435
 N542 N 0.32986 0.73616 0.15621
 C543 C 0.37787 0.75780 0.11846
 C544 C 0.39116 0.75974 0.10180
 C545 C 0.40663 0.76209 0.08172
 N546 N 0.42580 0.74766 0.07917
 N547 N 0.43983 0.74953 0.06023
 C548 C 0.43527 0.76602 0.04327
 N549 N 0.41589 0.78026 0.04579
 N550 N 0.40186 0.77838 0.06473
 N551 N 0.63830 0.22812 0.15585
 C552 C 0.63872 0.24411 0.13793
 N553 N 0.65493 0.26195 0.13847
 N554 N 0.67029 0.26372 0.15638
 C555 C 0.66997 0.24770 0.17432
 N556 N 0.65367 0.22989 0.17376
 C557 C 0.62263 0.24188 0.11831
 C558 C 0.60940 0.23998 0.10160
 C559 C 0.59401 0.23770 0.08144
 N560 N 0.59880 0.22140 0.06447
 N561 N 0.58484 0.21956 0.04549
 C562 C 0.56549 0.23384 0.04290
 N563 N 0.56092 0.25034 0.05982
 N564 N 0.57489 0.25218 0.07881
 N565 N -0.13863 0.65512 0.73852
 C566 C -0.13850 0.63933 0.75661
 N567 N -0.15661 0.63960 0.77250
 N568 N -0.17430 0.65525 0.77039
 C569 C -0.17446 0.67118 0.75233
 N570 N -0.15631 0.67077 0.73640
 C571 C -0.11908 0.62297 0.75923
 C572 C -0.10250 0.60954 0.76144
 C573 C -0.08243 0.59398 0.76406
 N574 N -0.07984 0.57487 0.74973
 N575 N -0.06082 0.56084 0.75177
 C576 C -0.04382 0.56535 0.76832
 N577 N -0.04639 0.58465 0.78248
 N578 N -0.06540 0.59867 0.78043
 N579 N -0.15691 0.36145 0.22789
 C580 C -0.13886 0.36184 0.24387
 N581 N -0.13905 0.34614 0.26204
 N582 N -0.15673 0.33049 0.26417
 C583 C -0.17481 0.33001 0.24817
 N584 N -0.17460 0.34580 0.23002
 C585 C -0.11942 0.37816 0.24122
 C586 C -0.10281 0.39154 0.23895
 C587 C -0.08271 0.40705 0.23623
 N588 N -0.08005 0.42622 0.25047
 N589 N -0.06102 0.44022 0.24831
 C590 C -0.04408 0.43561 0.23174
 N591 N -0.04671 0.41624 0.21769
 N592 N -0.06574 0.40225 0.21985
 N593 N 0.13822 0.34581 0.73816
 C594 C 0.13801 0.36157 0.75626
 N595 N 0.15613 0.36136 0.77217
 N596 N 0.17390 0.34581 0.77005
 C597 C 0.17412 0.32995 0.75196
 N598 N 0.15598 0.33026 0.73604
 C599 C 0.11852 0.37785 0.75887
 C600 C 0.10189 0.39121 0.76106
 C601 C 0.08177 0.40671 0.76367
 N602 N 0.07918 0.42586 0.74938
 N603 N 0.06013 0.43986 0.75141
 C604 C 0.04311 0.43527 0.76791
 N605 N 0.04568 0.41592 0.78201
 N606 N 0.06472 0.40193 0.77998
 N607 N 0.13833 0.65477 0.26131
 C608 C 0.13805 0.63909 0.24314
 N609 N 0.15611 0.63937 0.22718
 N610 N 0.17389 0.65491 0.22932
 C611 C 0.17419 0.67070 0.24747
 N612 N 0.15610 0.67032 0.26345
 C613 C 0.11852 0.62285 0.24049
 C614 C 0.10186 0.60953 0.23825
 C615 C 0.08172 0.59406 0.23561
 N616 N 0.07910 0.57488 0.24985
 N617 N 0.06003 0.56092 0.24777
 C618 C 0.04302 0.56555 0.23126
 N619 N 0.04561 0.58494 0.21721
 N620 N 0.06467 0.59890 0.21929
 N621 N 0.73803 -0.13844 0.65407
 C622 C 0.75615 -0.13809 0.63818
 N623 N 0.77224 -0.15604 0.63819
 N624 N 0.77030 -0.17379 0.65365
 C625 C 0.75222 -0.17415 0.66964
 N626 N 0.73609 -0.15617 0.66953
 C627 C 0.75859 -0.11864 0.62200
 C628 C 0.76065 -0.10204 0.60872
 C629 C 0.76311 -0.08198 0.59329
 N630 N 0.77952 -0.06497 0.59800
 N631 N 0.78143 -0.04601 0.58406
 C632 C 0.76710 -0.04348 0.56483
 N633 N 0.75050 -0.06046 0.56032
 N634 N 0.74859 -0.07943 0.57427
 N635 N 0.22861 -0.15585 0.36180
 C636 C 0.24473 -0.13792 0.36188
 N637 N 0.26291 -0.13828 0.34607
 N638 N 0.26490 -0.15601 0.33061
 C639 C 0.24875 -0.17397 0.33044
 N640 N 0.23059 -0.17359 0.34634
 C641 C 0.24223 -0.11847 0.37807
 C642 C 0.24008 -0.10190 0.39137
 C643 C 0.23748 -0.08188 0.40682
 N644 N 0.25198 -0.07924 0.42585
 N645 N 0.24992 -0.06030 0.43982
 C646 C 0.23319 -0.04345 0.43532
 N647 N 0.21888 -0.04607 0.41609
 N648 N 0.22093 -0.06499 0.40214
 N649 N 0.77173 0.15587 0.36204
 C650 C 0.75578 0.13778 0.36193
 N651 N 0.73773 0.13800 0.34596
 N652 N 0.73570 0.15575 0.33052
 C653 C 0.75167 0.17387 0.33054
 N654 N 0.76969 0.17363 0.34660
 C655 C 0.75831 0.11831 0.37807
 C656 C 0.76042 0.10170 0.39133
 C657 C 0.76291 0.08163 0.40673
 N658 N 0.74832 0.07895 0.42567
 N659 N 0.75028 0.05997 0.43959
 C660 C 0.76702 0.04312 0.43515
 N661 N 0.78143 0.04577 0.41600
 N662 N 0.77946 0.06474 0.40208
 N663 N 0.22787 0.15578 0.63823
 C664 C 0.24391 0.13778 0.63832
 N665 N 0.26195 0.13808 0.65430
 N666 N 0.26389 0.15583 0.66975
 C667 C 0.24783 0.17386 0.66974
 N668 N 0.22981 0.17354 0.65367
 C669 C 0.24148 0.11831 0.62216
 C670 C 0.23943 0.10170 0.60888
 C671 C 0.23699 0.08164 0.59346
 N672 N 0.22060 0.06461 0.59818
 N673 N 0.21869 0.04565 0.58426
 C674 C 0.23300 0.04313 0.56502
 N675 N 0.24958 0.06012 0.56049
 N676 N 0.25148 0.07910 0.57442
   
