data_POSCAR
  _audit_creation_date              2014-09-24
  _audit_creation_method            'ToBaCCo'
  _symmetry_space_group_name_H-M    'P1'
  _symmetry_Int_Tables_number       1
  _symmetry_cell_setting            triclinic
  loop_
  _symmetry_equiv_pos_as_xyz
 x,y,z
_cell_length_a 13.2242
_cell_length_b 18.5447
_cell_length_c 13.4287
_cell_angle_alpha 86.947700
_cell_angle_beta 89.615300
_cell_angle_gamma 89.784100
loop_
  _atom_site_label
  _atom_site_type_symbol
  _atom_site_fract_x
  _atom_site_fract_y
  _atom_site_fract_z
N1 N 0.17684 0.08338 0.08866
 N2 N 0.24525 0.13450 0.09510
 N3 N 0.10611 -0.06139 0.19104
 N4 N 0.10991 -0.11646 0.25738
 N5 N 0.17609 -0.06785 0.12216
 N6 N 0.22880 -0.12775 0.13956
 N7 N 0.10614 0.08946 0.15681
 N8 N 0.12462 0.14478 0.21172
 C9 C 0.21129 0.17256 0.17167
 C10 C 0.18720 -0.15701 0.22479
 N11 N -0.17972 -0.06760 0.12216
 N12 N -0.23134 -0.12782 0.13943
 N13 N -0.11234 0.08984 0.15687
 N14 N -0.13297 0.14478 0.21253
 N15 N -0.18128 0.08389 0.08799
 N16 N -0.25395 0.13791 0.09608
 N17 N -0.11091 -0.06091 0.19112
 N18 N -0.11443 -0.11596 0.25738
 Mn19 Mn -0.00274 0.01456 0.17500
 C20 C -0.19030 -0.15683 0.22470
 C21 C -0.21964 0.17394 0.17408
 N22 N 0.17897 -0.08429 -0.08908
 N23 N 0.25216 -0.13792 -0.09666
 N24 N 0.10860 0.06061 -0.19224
 N25 N 0.11248 0.11612 -0.25797
 N26 N 0.17734 0.06707 -0.12306
 N27 N 0.22919 0.12728 -0.13975
 N28 N 0.11020 -0.09065 -0.15801
 N29 N 0.13161 -0.14558 -0.21344
 Mn30 Mn 0.17848 -0.00039 -0.00042
 C31 C 0.21850 -0.17419 -0.17453
 C32 C 0.18853 0.15685 -0.22481
 N33 N -0.17863 0.06678 -0.12361
 N34 N -0.23059 0.12706 -0.14063
 N35 N -0.10956 -0.09102 -0.15835
 N36 N -0.12997 -0.14586 -0.21407
 N37 N -0.17932 -0.08467 -0.08932
 N38 N -0.25204 -0.13818 -0.09721
 N39 N -0.10883 0.06010 -0.19265
 N40 N -0.11205 0.11536 -0.25867
 Mn41 Mn -0.18099 -0.00039 -0.00072
 Mn42 Mn 0.00013 -0.01562 -0.17649
 Cl43 Cl -0.00133 -0.00047 -0.00071
 C44 C -0.18879 0.15626 -0.22580
 C45 C -0.21724 -0.17446 -0.17528
 N46 N 0.68104 0.58306 0.59106
 N47 N 0.74941 0.63432 0.59726
 N48 N 0.60983 0.43756 0.69102
 N49 N 0.61330 0.38191 0.75635
 N50 N 0.67941 0.43138 0.62163
 N51 N 0.73148 0.37103 0.63772
 N52 N 0.61072 0.58887 0.65975
 N53 N 0.62964 0.64424 0.71477
 C54 C 0.71623 0.67228 0.67435
 C55 C 0.68990 0.34127 0.72268
 N56 N 0.32316 0.43188 0.62274
 N57 N 0.27096 0.37174 0.63882
 N58 N 0.39145 0.58899 0.66046
 N59 N 0.37227 0.64450 0.71540
 N60 N 0.32158 0.58345 0.59231
 N61 N 0.25321 0.63502 0.59868
 N62 N 0.39237 0.43753 0.69166
 N63 N 0.38845 0.38160 0.75664
 Mn64 Mn 0.50108 0.51358 0.67688
 C65 C 0.31196 0.34140 0.72328
 C66 C 0.28598 0.67283 0.67538
 N67 N 0.68131 0.41689 0.40911
 N68 N 0.74921 0.36497 0.40226
 N69 N 0.61056 0.56263 0.30986
 N70 N 0.61415 0.61806 0.24427
 N71 N 0.67982 0.56859 0.37860
 N72 N 0.73180 0.62872 0.36184
 N73 N 0.61120 0.41168 0.34111
 N74 N 0.62962 0.35617 0.28595
 Mn75 Mn 0.68163 0.49997 0.50011
 C76 C 0.71576 0.32735 0.32548
 C77 C 0.69045 0.65842 0.27712
 N78 N 0.32382 0.56956 0.38020
 N79 N 0.27101 0.62956 0.36373
 N80 N 0.39289 0.41254 0.34202
 N81 N 0.37416 0.35766 0.28634
 N82 N 0.32250 0.41808 0.41056
 N83 N 0.25404 0.36706 0.40367
 N84 N 0.39351 0.56357 0.31091
 N85 N 0.38944 0.61902 0.24525
 Mn86 Mn 0.32161 0.50074 0.50149
 Mn87 Mn 0.50205 0.48731 0.32494
 Cl88 Cl 0.50165 0.50043 0.50092
 C89 C 0.31234 0.65935 0.27866
 C90 C 0.28763 0.32962 0.32634
 C91 C 0.26557 0.23436 0.20894
 C92 C 0.23330 0.26798 0.28873
 H93 H 0.33401 0.25194 0.17019
 H94 H 0.16490 0.25034 0.32752
 C95 C 0.78310 0.77259 0.27178
 C96 C 0.71730 0.72904 0.23039
 H97 H 0.82003 0.75579 0.34102
 H98 H 0.68035 0.74591 0.16119
 C99 C 0.78421 0.22702 0.72743
 C100 C 0.71711 0.27042 0.76896
 H101 H 0.82189 0.24407 0.65829
 H102 H 0.67949 0.25332 0.83812
 C103 C 0.26783 0.76910 0.79108
 C104 C 0.23425 0.73219 0.70974
 H105 H 0.33684 0.75159 0.82843
 H106 H 0.16540 0.74916 0.67171
 C107 C 0.21634 0.22771 0.72857
 C108 C 0.28391 0.27049 0.76948
 H109 H 0.17904 0.24528 0.65986
 H110 H 0.32123 0.25284 0.83815
 C111 C 0.73390 0.76887 0.79023
 C112 C 0.76790 0.73155 0.70862
 H113 H 0.66459 0.75166 0.82785
 H114 H 0.83701 0.74819 0.67022
 C115 C 0.21542 0.77264 0.27228
 C116 C 0.28391 0.72978 0.23166
 H117 H 0.17761 0.75546 0.34130
 H118 H 0.32166 0.74700 0.16263
 C119 C 0.73196 0.23099 0.20903
 C120 C 0.76654 0.26765 0.29048
 H121 H 0.66299 0.24903 0.17211
 H122 H 0.83539 0.25015 0.32806
   
