data_POSCAR
  _audit_creation_date              2014-09-24
  _audit_creation_method            'ToBaCCo'
  _symmetry_space_group_name_H-M    'P1'
  _symmetry_Int_Tables_number       1
  _symmetry_cell_setting            triclinic
  loop_
  _symmetry_equiv_pos_as_xyz
 x,y,z
_cell_length_a 62.0383
_cell_length_b 62.0232
_cell_length_c 11.2044
_cell_angle_alpha 90.235300
_cell_angle_beta 90.250900
_cell_angle_gamma 119.187600
loop_
  _atom_site_label
  _atom_site_type_symbol
  _atom_site_fract_x
  _atom_site_fract_y
  _atom_site_fract_z
C1 C 0.24266 0.52645 0.48388
 C2 C 0.24499 0.52559 0.60947
 C3 C 0.26617 0.52663 0.65953
 C4 C 0.28448 0.52706 0.58556
 C5 C 0.28154 0.52639 0.46003
 C6 C 0.26099 0.52678 0.40977
 H7 H 0.25869 0.52606 0.31353
 H8 H 0.26777 0.52572 0.75570
 C9 C 0.47682 -0.27720 0.47044
 C10 C 0.47187 -0.28219 0.59335
 C11 C 0.46877 -0.26555 0.66646
 C12 C 0.47083 -0.24383 0.61787
 C13 C 0.47564 -0.23895 0.49471
 C14 C 0.47846 -0.25573 0.42157
 H15 H 0.48271 -0.25166 0.32779
 H16 H 0.46547 -0.26917 0.76113
 C17 C 1.27767 0.76081 0.42319
 C18 C 1.27859 0.75785 0.54800
 C19 C 1.26011 0.73672 0.60356
 C20 C 1.24089 0.71843 0.53495
 C21 C 1.24058 0.72107 0.40991
 C22 C 1.25884 0.74224 0.35462
 H23 H 1.25802 0.74446 0.25898
 H24 H 1.26041 0.73478 0.69957
 C25 C 0.75624 0.47155 0.37291
 C26 C 0.76032 0.47611 0.49709
 C27 C 0.74327 0.47940 0.56582
 C28 C 0.72246 0.47850 0.51109
 C29 C 0.71854 0.47391 0.38699
 C30 C 0.73532 0.47029 0.31883
 H31 H 0.73255 0.46735 0.22316
 H32 H 0.74661 0.48347 0.66055
 C33 C 0.53784 0.28975 0.46101
 C34 C 0.53828 0.28598 0.58514
 C35 C 0.53884 0.26503 0.62750
 C36 C 0.53777 0.24720 0.54670
 C37 C 0.53640 0.25059 0.42254
 C38 C 0.53698 0.27208 0.38028
 H39 H 0.53527 0.27432 0.28533
 H40 H 0.53874 0.26196 0.72287
 C41 C 0.71449 0.24619 0.44540
 C42 C 0.71704 0.24270 0.56806
 C43 C 0.73796 0.25970 0.63139
 C44 C 0.75662 0.28005 0.57274
 C45 C 0.75420 0.28370 0.44984
 C46 C 0.73301 0.26681 0.38672
 H47 H 0.73133 0.26923 0.29202
 H48 H 0.74011 0.25654 0.72480
 N49 N 0.97573 0.50274 -0.23097
 N50 N 0.95525 0.49222 -0.29626
 N51 N 1.02787 0.54458 -0.15162
 N52 N 1.04833 0.56585 -0.16346
 N53 N 1.02827 0.52756 -0.22019
 N54 N 1.04923 0.53687 -0.28011
 N55 N 0.97609 0.52025 -0.16321
 N56 N 0.95616 0.52229 -0.18141
 C57 C 0.94352 0.50496 -0.26521
 C58 C 1.06132 0.56081 -0.24432
 N59 N 1.02540 0.53874 0.19557
 N60 N 1.04622 0.55092 0.25723
 N61 N 0.97437 0.52705 0.08905
 N62 N 0.95349 0.52733 0.07160
 N63 N 0.97295 0.51397 0.18374
 N64 N 0.95084 0.50485 0.23196
 N65 N 1.02593 0.55135 0.10057
 N66 N 1.04681 0.57236 0.09579
 Mn67 Mn 1.00109 0.53601 -0.03131
 C68 C 1.05903 0.57200 0.19456
 C69 C 0.93925 0.51386 0.16239
 N70 N 1.02687 0.48113 -0.17777
 N71 N 1.04825 0.48886 -0.23191
 N72 N 0.97398 0.44379 -0.09384
 N73 N 0.95349 0.42236 -0.09224
 N74 N 0.97469 0.45642 -0.18903
 N75 N 0.95452 0.44385 -0.25455
 N76 N 1.02569 0.46829 -0.08257
 N77 N 1.04608 0.46685 -0.06985
 Mn78 Mn 1.00139 0.49189 -0.20641
 C79 C 1.05971 0.47943 -0.16425
 C80 C 0.94178 0.42259 -0.19341
 N81 N 0.97155 0.46739 0.22702
 N82 N 0.95063 0.45786 0.28745
 N83 N 1.02386 0.47489 0.17015
 N84 N 1.04364 0.47265 0.18989
 N85 N 1.02404 0.49223 0.23852
 N86 N 1.04419 0.50238 0.30615
 N87 N 0.97211 0.45041 0.15866
 N88 N 0.95183 0.42902 0.17104
 Mn89 Mn 0.99847 0.50319 0.21322
 Mn90 Mn 0.99891 0.45915 0.03818
 Cl91 Cl 0.99996 0.49754 0.00353
 C92 C 0.93877 0.43384 0.25241
 C93 C 1.05591 0.48960 0.27583
 N94 N 0.46532 0.49408 0.20059
 N95 N 0.45295 0.50391 0.25209
 N96 N 0.47993 0.45339 0.14939
 N97 N 0.48007 0.43252 0.16896
 N98 N 0.49435 0.47047 0.22618
 N99 N 0.50479 0.46162 0.29990
 N100 N 0.45096 0.47652 0.12554
 N101 N 0.42854 0.47381 0.12457
 C102 C 0.43000 0.49077 0.20445
 C103 C 0.49535 0.43786 0.26377
 N104 N 0.49288 0.46026 -0.19418
 N105 N 0.50296 0.44828 -0.24748
 N106 N 0.44993 0.47018 -0.12826
 N107 N 0.42795 0.46853 -0.13164
 N108 N 0.46366 0.48384 -0.21633
 N109 N 0.45126 0.49198 -0.28107
 N110 N 0.47900 0.44720 -0.10512
 N111 N 0.47912 0.42608 -0.09589
 Mn112 Mn 0.46480 0.46160 0.01043
 C113 C 0.49383 0.42690 -0.18589
 C114 C 0.42888 0.48175 -0.22832
 N115 N 0.53860 0.51739 0.20588
 N116 N 0.55057 0.50879 0.27064
 N117 N 0.52388 0.55419 0.09379
 N118 N 0.52522 0.57605 0.08953
 N119 N 0.50974 0.54111 0.18198
 N120 N 0.50101 0.55375 0.24018
 N121 N 0.55245 0.53067 0.11718
 N122 N 0.57411 0.53159 0.12016
 Mn123 Mn 0.50199 0.50585 0.20539
 C124 C 0.57284 0.51835 0.21740
 C125 C 0.51097 0.57547 0.18142
 N126 N 0.50793 0.53125 -0.23581
 N127 N 0.49665 0.54035 -0.30297
 N128 N 0.55154 0.52454 -0.13748
 N129 N 0.57414 0.52767 -0.14114
 N130 N 0.53707 0.50748 -0.21425
 N131 N 0.54951 0.49842 -0.27184
 N132 N 0.52308 0.54815 -0.16005
 N133 N 0.52272 0.56902 -0.17431
 Mn134 Mn 0.50034 0.49564 -0.21715
 Mn135 Mn 0.53794 0.53957 -0.02169
 Cl136 Cl 0.50127 0.50066 -0.00586
 C137 C 0.50657 0.56408 -0.26459
 C138 C 0.57261 0.51145 -0.22575
 N139 N 0.44509 -0.02303 0.10354
 N140 N 0.42353 -0.04341 0.10435
 N141 N 0.48405 0.03007 0.18076
 N142 N 0.49281 0.05187 0.23337
 N143 N 0.47063 0.02870 0.08697
 N144 N 0.46983 0.04942 0.07373
 N145 N 0.45845 -0.02211 0.19675
 N146 N 0.44627 -0.04199 0.26320
 C147 C 0.42443 -0.05481 0.20490
 C148 C 0.48344 0.06345 0.16637
 N149 N 0.54648 0.02955 0.14532
 N150 N 0.56793 0.05001 0.15276
 N151 N 0.50480 -0.02166 0.23261
 N152 N 0.49475 -0.04154 0.30068
 N153 N 0.52153 -0.02209 0.16268
 N154 N 0.52346 -0.04202 0.18184
 N155 N 0.53030 0.03065 0.21670
 N156 N 0.54038 0.05209 0.27413
 Mn157 Mn 0.49432 0.00422 0.20859
 C158 C 0.56392 0.06370 0.23434
 C159 C 0.50696 -0.05375 0.26873
 N160 N 0.47473 0.02477 -0.16674
 N161 N 0.47362 0.04520 -0.18482
 N162 N 0.46526 -0.02855 -0.21954
 N163 N 0.45479 -0.04997 -0.27718
 N164 N 0.44920 -0.02691 -0.14942
 N165 N 0.42747 -0.04699 -0.15767
 N166 N 0.49104 0.02374 -0.23759
 N167 N 0.50158 0.04369 -0.30504
 Mn168 Mn 0.45971 0.00090 -0.03148
 C169 C 0.49011 0.05658 -0.27241
 C170 C 0.43116 -0.06100 -0.23847
 N171 N 0.52554 -0.02624 -0.09012
 N172 N 0.52586 -0.04709 -0.07267
 N173 N 0.53712 0.02396 -0.20195
 N174 N 0.54894 0.04374 -0.26927
 N175 N 0.55058 0.02545 -0.10819
 N176 N 0.57186 0.04613 -0.10950
 N177 N 0.51155 -0.02822 -0.18263
 N178 N 0.50190 -0.05064 -0.22957
 Mn179 Mn 0.53627 0.00172 0.02741
 Mn180 Mn 0.50129 -0.00234 -0.21226
 Cl181 Cl 0.49789 0.00112 -0.00193
 C182 C 0.51145 -0.06190 -0.16127
 C183 C 0.57066 0.05708 -0.21102
 C184 C 1.12674 0.50589 0.35404
 C185 C 1.13765 0.49655 0.27266
 C186 C 1.16292 0.50303 0.28598
 C187 C 1.17716 0.51879 0.38061
 C188 C 1.16623 0.52819 0.46174
 C189 C 1.14078 0.52111 0.45045
 C190 C 1.12982 0.52910 0.53804
 C191 C 1.14373 0.54413 0.63286
 C192 C 1.16888 0.55210 0.64057
 C193 C 1.18009 0.54427 0.55625
 C194 C 1.17335 0.49337 0.20397
 C195 C 1.15919 0.47755 0.11191
 C196 C 1.13443 0.47100 0.09952
 C197 C 1.12372 0.48040 0.17839
 C198 C 1.20187 0.52264 0.40477
 C199 C 1.22156 0.52482 0.43528
 C200 C 1.10137 0.50050 0.33528
 C201 C 1.08048 0.49583 0.31296
 H202 H 1.11038 0.52364 0.53477
 H203 H 1.13500 0.54986 0.69966
 H204 H 1.17969 0.56408 0.71337
 H205 H 1.19963 0.55071 0.56680
 H206 H 1.19257 0.49805 0.20972
 H207 H 1.16749 0.47043 0.04953
 H208 H 1.12353 0.45876 0.02763
 H209 H 1.10442 0.47482 0.16468
 C210 C 0.49930 0.63333 0.25862
 C211 C 0.51224 0.64900 0.35599
 C212 C 0.50890 0.66952 0.38345
 C213 C 0.49243 0.67413 0.31403
 C214 C 0.47959 0.65854 0.21631
 C215 C 0.48283 0.63790 0.18924
 C216 C 0.46902 0.62194 0.09424
 C217 C 0.45273 0.62646 0.02682
 C218 C 0.44982 0.64685 0.05230
 C219 C 0.46302 0.66275 0.14609
 C220 C 0.52175 0.68469 0.48266
 C221 C 0.53707 0.67946 0.55373
 C222 C 0.54020 0.65927 0.52725
 C223 C 0.52809 0.64423 0.42928
 C224 C 0.48649 0.69285 0.35442
 C225 C 0.48175 0.70749 0.40181
 C226 C 0.50282 0.61241 0.23125
 C227 C 0.50627 0.59533 0.20927
 H228 H 0.47074 0.60591 0.07082
 H229 H 0.44245 0.61417 -0.04612
 H230 H 0.43728 0.65037 -0.00091
 H231 H 0.46016 0.67836 0.16293
 H232 H 0.51994 0.70062 0.50717
 H233 H 0.54645 0.69106 0.63015
 H234 H 0.55202 0.65519 0.58312
 H235 H 0.53107 0.62869 0.41270
 C236 C 0.36909 -0.12460 0.27469
 C237 C 0.36609 -0.14430 0.19945
 C238 C 0.34575 -0.16836 0.21602
 C239 C 0.32876 -0.17263 0.30880
 C240 C 0.33188 -0.15293 0.38454
 C241 C 0.35219 -0.12890 0.36787
 C242 C 0.35538 -0.10970 0.44703
 C243 C 0.33902 -0.11413 0.54044
 C244 C 0.31904 -0.13759 0.55636
 C245 C 0.31533 -0.15678 0.47914
 C246 C 0.34316 -0.18777 0.14013
 C247 C 0.36031 -0.18358 0.05077
 C248 C 0.38033 -0.16011 0.03516
 C249 C 0.38327 -0.14062 0.10834
 C250 C 0.30971 -0.19756 0.33615
 C251 C 0.29439 -0.21761 0.37071
 C252 C 0.38927 -0.09983 0.25492
 C253 C 0.40560 -0.07920 0.23535
 H254 H 0.37068 -0.09115 0.43850
 H255 H 0.34189 -0.09929 0.60089
 H256 H 0.30641 -0.14097 0.62928
 H257 H 0.29947 -0.17467 0.49516
 H258 H 0.32786 -0.20632 0.14884
 H259 H 0.35801 -0.19861 -0.00692
 H260 H 0.39355 -0.15693 -0.03468
 H261 H 0.39909 -0.12268 0.09244
 C262 C 0.86487 0.48689 0.17263
 C263 C 0.85189 0.47022 0.26502
 C264 C 0.82646 0.46215 0.28138
 C265 C 0.81450 0.47172 0.20850
 C266 C 0.82696 0.48693 0.11056
 C267 C 0.85228 0.49445 0.09196
 C268 C 0.86456 0.50995 -0.00549
 C269 C 0.85211 0.51782 -0.08248
 C270 C 0.82734 0.51055 -0.06379
 C271 C 0.81482 0.49531 0.03183
 C272 C 0.81383 0.44558 0.37512
 C273 C 0.82637 0.43820 0.45398
 C274 C 0.85153 0.44701 0.44054
 C275 C 0.86410 0.46228 0.34586
 C276 C 0.79178 0.47011 0.25081
 C277 C 0.77458 0.47010 0.29998
 C278 C 0.89134 0.49719 0.16630
 C279 C 0.91331 0.50520 0.16547
 H280 H 0.88377 0.51592 -0.02369
 H281 H 0.86168 0.52948 -0.15744
 H282 H 0.81773 0.51662 -0.12406
 H283 H 0.79550 0.48986 0.04274
 H284 H 0.79430 0.43856 0.38952
 H285 H 0.81666 0.42618 0.52764
 H286 H 0.86169 0.44266 0.50517
 H287 H 0.88361 0.46832 0.33903
 C288 C 0.51625 0.38733 0.36048
 C289 C 0.53941 0.39046 0.32383
 C290 C 0.54483 0.37079 0.33681
 C291 C 0.52683 0.34795 0.38399
 C292 C 0.50382 0.34498 0.42264
 C293 C 0.49866 0.36484 0.41224
 C294 C 0.47566 0.36155 0.45263
 C295 C 0.45804 0.33908 0.49970
 C296 C 0.46287 0.31950 0.50767
 C297 C 0.48552 0.32236 0.47074
 C298 C 0.56819 0.37444 0.30074
 C299 C 0.58562 0.39681 0.25182
 C300 C 0.58016 0.41587 0.23747
 C301 C 0.55739 0.41288 0.27308
 C302 C 0.53203 0.32766 0.39758
 C303 C 0.53528 0.31041 0.41865
 C304 C 0.50959 0.40626 0.33472
 C305 C 0.50338 0.42118 0.30669
 H306 H 0.47105 0.37626 0.44820
 H307 H 0.44052 0.33685 0.52997
 H308 H 0.44904 0.30202 0.54346
 H309 H 0.48845 0.30663 0.48003
 H310 H 0.57316 0.36005 0.30962
 H311 H 0.60343 0.39935 0.22460
 H312 H 0.59370 0.43318 0.19956
 H313 H 0.55412 0.42836 0.26100
 C314 C 0.61623 0.13592 0.28766
 C315 C 0.61516 0.15067 0.38160
 C316 C 0.63358 0.17589 0.39172
 C317 C 0.65386 0.18584 0.31250
 C318 C 0.65488 0.17116 0.21819
 C319 C 0.63600 0.14615 0.20549
 C320 C 0.63778 0.13170 0.11189
 C321 C 0.65759 0.14168 0.03325
 C322 C 0.67595 0.16616 0.04545
 C323 C 0.67471 0.18082 0.13678
 C324 C 0.63165 0.19047 0.48409
 C325 C 0.61258 0.18022 0.56673
 C326 C 0.59525 0.15529 0.56012
 C327 C 0.59636 0.14061 0.46840
 C328 C 0.67548 0.20926 0.34232
 C329 C 0.69354 0.22723 0.38065
 C330 C 0.59714 0.11027 0.27506
 C331 C 0.58166 0.08896 0.26011
 H332 H 0.62392 0.11259 0.09836
 H333 H 0.65860 0.13039 -0.03813
 H334 H 0.69119 0.17387 -0.01653
 H335 H 0.68931 0.19982 0.14243
 H336 H 0.64492 0.20989 0.49368
 H337 H 0.61149 0.19158 0.63746
 H338 H 0.58074 0.14730 0.62587
 H339 H 0.58233 0.12135 0.46635
 C340 C 0.51103 0.12879 -0.34235
 C341 C 0.52670 0.14240 -0.43707
 C342 C 0.53521 0.16818 -0.44596
 C343 C 0.52683 0.17993 -0.36420
 C344 C 0.51069 0.16619 -0.27110
 C345 C 0.50281 0.14058 -0.25992
 C346 C 0.48639 0.12720 -0.16685
 C347 C 0.47801 0.13877 -0.08734
 C348 C 0.48585 0.16384 -0.09789
 C349 C 0.50199 0.17747 -0.18863
 C350 C 0.55166 0.18155 -0.53880
 C351 C 0.55855 0.16963 -0.62370
 C352 C 0.54921 0.14423 -0.61849
 C353 C 0.53376 0.13073 -0.52535
 C354 C 0.53219 0.20517 -0.38564
 C355 C 0.53538 0.22538 -0.41201
 C356 C 0.50390 0.10290 -0.32669
 C357 C 0.49779 0.08157 -0.30681
 H358 H 0.47979 0.10768 -0.15467
 H359 H 0.46552 0.12828 -0.01645
 H360 H 0.47949 0.17279 -0.03511
 H361 H 0.50765 0.19694 -0.19310
 H362 H 0.55912 0.20128 -0.54754
 H363 H 0.57092 0.18009 -0.69498
 H364 H 0.55425 0.13499 -0.68606
 H365 H 0.52723 0.11106 -0.52406
 C366 C 0.63185 0.50144 -0.29591
 C367 C 0.63692 0.48595 -0.22202
 C368 C 0.65735 0.48226 -0.24734
 C369 C 0.67287 0.49447 -0.34491
 C370 C 0.66856 0.51102 -0.41479
 C371 C 0.64785 0.51429 -0.39106
 C372 C 0.64353 0.53034 -0.46447
 C373 C 0.65932 0.54295 -0.55808
 C374 C 0.67968 0.53992 -0.58077
 C375 C 0.68435 0.52420 -0.51016
 C376 C 0.66173 0.46628 -0.17403
 C377 C 0.64658 0.45455 -0.07703
 C378 C 0.62687 0.45847 -0.05113
 C379 C 0.62194 0.47389 -0.12267
 C380 C 0.69180 0.48850 -0.38172
 C381 C 0.70674 0.48366 -0.42496
 C382 C 0.61035 0.50435 -0.27374
 C383 C 0.59282 0.50724 -0.25404
 H384 H 0.62789 0.53326 -0.45070
 H385 H 0.65567 0.55506 -0.61366
 H386 H 0.69183 0.54965 -0.65403
 H387 H 0.70044 0.52249 -0.53141
 H388 H 0.67702 0.46292 -0.19019
 H389 H 0.65026 0.44250 -0.02116
 H390 H 0.61527 0.44944 0.02446
 H391 H 0.60633 0.47629 -0.09911
 C392 C 0.87168 0.36751 -0.26167
 C393 C 0.85226 0.36506 -0.18700
 C394 C 0.82799 0.34508 -0.20507
 C395 C 0.82329 0.32796 -0.29867
 C396 C 0.84273 0.33050 -0.37362
 C397 C 0.86695 0.35046 -0.35567
 C398 C 0.88587 0.35324 -0.43478
 C399 C 0.88096 0.33673 -0.52903
 C400 C 0.85732 0.31701 -0.54583
 C401 C 0.83839 0.31377 -0.46899
 C402 C 0.80879 0.34308 -0.13033
 C403 C 0.81340 0.36048 -0.04071
 C404 C 0.83708 0.38019 -0.02377
 C405 C 0.85637 0.38254 -0.09579
 C406 C 0.79818 0.30976 -0.32948
 C407 C 0.77808 0.29536 -0.36841
 C408 C 0.89655 0.38748 -0.24161
 C409 C 0.91727 0.40373 -0.22252
 H410 H 0.90455 0.36836 -0.42571
 H411 H 0.89558 0.33930 -0.58949
 H412 H 0.85357 0.30423 -0.61920
 H413 H 0.82032 0.29812 -0.48589
 H414 H 0.79009 0.32804 -0.14036
 H415 H 0.79853 0.35863 0.01605
 H416 H 0.84057 0.39364 0.04605
 H417 H 0.87447 0.39816 -0.07913
 C418 C 0.48583 -0.13627 -0.17725
 C419 C 0.49366 -0.14871 -0.09725
 C420 C 0.48637 -0.17401 -0.11729
 C421 C 0.47118 -0.18664 -0.21640
 C422 C 0.46147 -0.17481 -0.28927
 C423 C 0.46928 -0.14939 -0.27136
 C424 C 0.46121 -0.13734 -0.35236
 C425 C 0.44592 -0.15006 -0.44811
 C426 C 0.43729 -0.17520 -0.46277
 C427 C 0.44492 -0.18756 -0.38429
 C428 C 0.49488 -0.18601 -0.03853
 C429 C 0.51008 -0.17337 0.05831
 C430 C 0.51725 -0.14860 0.07796
 C431 C 0.50923 -0.13629 0.00109
 C432 C 0.46966 -0.20942 -0.25942
 C433 C 0.46964 -0.22660 -0.31025
 C434 C 0.49558 -0.10980 -0.16808
 C435 C 0.50316 -0.08786 -0.16540
 H436 H 0.46715 -0.11784 -0.34486
 H437 H 0.44132 -0.14005 -0.51248
 H438 H 0.42523 -0.18501 -0.53718
 H439 H 0.43809 -0.20706 -0.40008
 H440 H 0.48957 -0.20530 -0.05039
 H441 H 0.51623 -0.18287 0.11872
 H442 H 0.52895 -0.13892 0.15361
 H443 H 0.51514 -0.11707 0.02003
 C444 C 0.37762 0.50429 -0.27335
 C445 C 0.38008 0.52079 -0.36557
 C446 C 0.36251 0.52907 -0.37738
 C447 C 0.34198 0.51994 -0.29999
 C448 C 0.34004 0.50420 -0.20480
 C449 C 0.35794 0.49634 -0.19131
 C450 C 0.35543 0.48032 -0.09641
 C451 C 0.33585 0.47239 -0.01679
 C452 C 0.31844 0.48021 -0.02968
 C453 C 0.32037 0.49588 -0.12275
 C454 C 0.36556 0.54587 -0.46946
 C455 C 0.38487 0.55345 -0.55034
 C456 C 0.40145 0.54450 -0.54135
 C457 C 0.39943 0.52871 -0.44922
 C458 C 0.32131 0.52372 -0.33001
 C459 C 0.30397 0.52574 -0.36482
 C460 C 0.39554 0.49577 -0.26244
 C461 C 0.41070 0.48913 -0.25084
 H462 H 0.36859 0.47385 -0.08247
 H463 H 0.33430 0.46028 0.05585
 H464 H 0.30342 0.47420 0.03313
 H465 H 0.30653 0.50166 -0.12891
 H466 H 0.35288 0.55301 -0.48085
 H467 H 0.38665 0.56586 -0.62193
 H468 H 0.41571 0.54936 -0.60719
 H469 H 0.41287 0.52237 -0.44610
 C470 C 1.13088 0.61571 -0.32300
 C471 C 1.13308 0.63479 -0.39935
 C472 C 1.15630 0.65646 -0.41272
 C473 C 1.17749 0.65857 -0.35341
 C474 C 1.17544 0.63918 -0.27981
 C475 C 1.15202 0.61781 -0.26344
 C476 C 1.15039 0.59887 -0.18785
 C477 C 1.17134 0.60076 -0.13178
 C478 C 1.19426 0.62148 -0.14903
 C479 C 1.19638 0.64057 -0.22195
 C480 C 1.15778 0.67557 -0.48682
 C481 C 1.13712 0.67308 -0.54842
 C482 C 1.11455 0.65167 -0.53733
 C483 C 1.11242 0.63274 -0.46335
 C484 C 1.20146 0.67989 -0.37695
 C485 C 1.22032 0.69762 -0.40894
 C486 C 1.10658 0.59486 -0.30004
 C487 C 1.08600 0.57862 -0.27773
 H488 H 1.13297 0.58237 -0.17214
 H489 H 1.16980 0.58600 -0.07513
 H490 H 1.21048 0.62280 -0.10561
 H491 H 1.21456 0.65638 -0.23263
 H492 H 1.17489 0.69260 -0.49857
 H493 H 1.13869 0.68779 -0.60560
 H494 H 1.09860 0.64972 -0.58624
 H495 H 1.09445 0.61644 -0.45771
 C496 C 0.87367 0.49124 -0.34922
 C497 C 0.87010 0.50486 -0.44080
 C498 C 0.84630 0.50226 -0.46090
 C499 C 0.82608 0.48591 -0.38982
 C500 C 0.82961 0.47218 -0.29864
 C501 C 0.85346 0.47482 -0.27839
 C502 C 0.85647 0.46079 -0.18713
 C503 C 0.83658 0.44474 -0.11736
 C504 C 0.81331 0.44221 -0.13708
 C505 C 0.80975 0.45569 -0.22680
 C506 C 0.84322 0.51595 -0.55393
 C507 C 0.86297 0.53149 -0.62571
 C508 C 0.88619 0.53396 -0.60617
 C509 C 0.88984 0.52089 -0.51484
 C510 C 0.80149 0.48199 -0.41802
 C511 C 0.78172 0.47905 -0.45199
 C512 C 0.89830 0.49487 -0.32519
 C513 C 0.91893 0.49886 -0.30159
 H514 H 0.87421 0.46210 -0.16862
 H515 H 0.83924 0.43427 -0.04737
 H516 H 0.79794 0.42978 -0.08242
 H517 H 0.79134 0.45318 -0.23871
 H518 H 0.82553 0.51467 -0.57295
 H519 H 0.86020 0.54158 -0.69728
 H520 H 0.90146 0.54595 -0.66258
 H521 H 0.90821 0.52325 -0.50395
 C522 C 0.51343 0.37298 -0.21510
 C523 C 0.53847 0.37902 -0.22583
 C524 C 0.54474 0.35993 -0.23823
 C525 C 0.52594 0.33497 -0.24088
 C526 C 0.50112 0.32887 -0.22108
 C527 C 0.49482 0.34793 -0.20808
 C528 C 0.46981 0.34135 -0.18971
 C529 C 0.45156 0.31664 -0.18407
 C530 C 0.45774 0.29802 -0.19707
 C531 C 0.48221 0.30396 -0.21589
 C532 C 0.56986 0.36634 -0.24946
 C533 C 0.58833 0.39096 -0.24707
 C534 C 0.58217 0.40960 -0.23513
 C535 C 0.55758 0.40386 -0.22552
 C536 C 0.53145 0.31623 -0.28545
 C537 C 0.53526 0.30145 -0.33802
 C538 C 0.50684 0.39245 -0.20987
 C539 C 0.50113 0.40841 -0.20240
 H540 H 0.46411 0.35518 -0.17938
 H541 H 0.43251 0.31193 -0.17004
 H542 H 0.44349 0.27886 -0.19298
 H543 H 0.48620 0.28889 -0.22514
 H544 H 0.57545 0.35239 -0.25842
 H545 H 0.60750 0.39561 -0.25494
 H546 H 0.59652 0.42866 -0.23465
 H547 H 0.55377 0.41906 -0.21736
 C548 C 0.62397 0.12741 -0.28397
 C549 C 0.62653 0.14702 -0.20930
 C550 C 0.64673 0.17116 -0.22540
 C551 C 0.66399 0.17553 -0.31696
 C552 C 0.66102 0.15601 -0.39358
 C553 C 0.64085 0.13191 -0.37744
 C554 C 0.63780 0.11285 -0.45728
 C555 C 0.65419 0.11750 -0.55077
 C556 C 0.67406 0.14104 -0.56608
 C557 C 0.67761 0.16009 -0.48834
 C558 C 0.64896 0.19050 -0.15007
 C559 C 0.63156 0.18616 -0.06183
 C560 C 0.61165 0.16261 -0.04678
 C561 C 0.60910 0.14317 -0.11927
 C562 C 0.68339 0.20038 -0.34170
 C563 C 0.69911 0.22030 -0.37504
 C564 C 0.60448 0.10246 -0.26247
 C565 C 0.58879 0.08165 -0.24187
 H566 H 0.62254 0.09426 -0.44944
 H567 H 0.65141 0.10279 -0.61194
 H568 H 0.68672 0.14461 -0.63907
 H569 H 0.69334 0.17807 -0.50435
 H570 H 0.66414 0.20913 -0.15864
 H571 H 0.63354 0.20116 -0.00477
 H572 H 0.59817 0.15934 0.02178
 H573 H 0.59332 0.12516 -0.10418
 C574 C 1.13095 0.49436 -0.20288
 C575 C 1.14988 0.51163 -0.12699
 C576 C 1.17467 0.51698 -0.14400
 C577 C 1.18032 0.50524 -0.23751
 C578 C 1.16122 0.48727 -0.31047
 C579 C 1.13651 0.48207 -0.29410
 C580 C 1.11792 0.46507 -0.37231
 C581 C 1.12361 0.45349 -0.46393
 C582 C 1.14775 0.45827 -0.47894
 C583 C 1.16637 0.47483 -0.40303
 C584 C 1.19337 0.53441 -0.06817
 C585 C 1.18769 0.54624 0.02254
 C586 C 1.16345 0.54115 0.03881
 C587 C 1.14470 0.52417 -0.03540
 C588 C 1.20562 0.51399 -0.27287
 C589 C 1.22517 0.52028 -0.31987
 C590 C 1.10580 0.48948 -0.18949
 C591 C 1.08475 0.48502 -0.17951
 H592 H 1.09885 0.46072 -0.36437
 H593 H 1.10920 0.44073 -0.52351
 H594 H 1.15210 0.44921 -0.55014
 H595 H 1.18484 0.47784 -0.41840
 H596 H 1.21245 0.53887 -0.07773
 H597 H 1.20217 0.55941 0.08055
 H598 H 1.15914 0.55037 0.10939
 H599 H 1.12613 0.52083 -0.01965
 C600 C 0.48590 0.61660 -0.31025
 C601 C 0.47043 0.61748 -0.40092
 C602 C 0.46422 0.63672 -0.40045
 C603 C 0.47465 0.65579 -0.31340
 C604 C 0.49044 0.65516 -0.22378
 C605 C 0.49595 0.63543 -0.22155
 C606 C 0.51210 0.63545 -0.13174
 C607 C 0.52266 0.65449 -0.04764
 C608 C 0.51726 0.67375 -0.05008
 C609 C 0.50132 0.67416 -0.13691
 C610 C 0.44830 0.63693 -0.49079
 C611 C 0.43990 0.61948 -0.58256
 C612 C 0.44708 0.60152 -0.58649
 C613 C 0.46168 0.60003 -0.49547
 C614 C 0.47235 0.67781 -0.32932
 C615 C 0.47152 0.69620 -0.35614
 C616 C 0.49185 0.59665 -0.30735
 C617 C 0.49785 0.58097 -0.29522
 H618 H 0.51688 0.62089 -0.12578
 H619 H 0.53495 0.65418 0.02041
 H620 H 0.52532 0.68836 0.01623
 H621 H 0.49750 0.68942 -0.13489
 H622 H 0.44263 0.65088 -0.49301
 H623 H 0.42831 0.62033 -0.65283
 H624 H 0.44155 0.58890 -0.66159
 H625 H 0.46660 0.58556 -0.50184
 C626 C 0.37692 -0.13241 -0.29089
 C627 C 0.35721 -0.14187 -0.20817
 C628 C 0.33771 -0.16662 -0.21975
 C629 C 0.33808 -0.18178 -0.31331
 C630 C 0.35817 -0.17256 -0.39355
 C631 C 0.37716 -0.14756 -0.38501
 C632 C 0.39547 -0.13808 -0.47439
 C633 C 0.39519 -0.15303 -0.56836
 C634 C 0.37759 -0.17786 -0.57223
 C635 C 0.35922 -0.18761 -0.48616
 C636 C 0.31795 -0.17553 -0.13811
 C637 C 0.31740 -0.16040 -0.04729
 C638 C 0.33634 -0.13614 -0.03628
 C639 C 0.35608 -0.12689 -0.11542
 C640 C 0.31613 -0.20491 -0.34241
 C641 C 0.29839 -0.22286 -0.38293
 C642 C 0.39677 -0.10710 -0.27901
 C643 C 0.41287 -0.08604 -0.26448
 H644 H 0.40980 -0.11893 -0.47427
 H645 H 0.40879 -0.14535 -0.63842
 H646 H 0.37777 -0.18948 -0.64408
 H647 H 0.34559 -0.20694 -0.49449
 H648 H 0.30286 -0.19431 -0.14339
 H649 H 0.30223 -0.16755 0.01510
 H650 H 0.33584 -0.12447 0.03452
 H651 H 0.37038 -0.10792 -0.10304
 C652 C 0.49258 -0.12349 0.35243
 C653 C 0.50593 -0.12736 0.44477
 C654 C 0.50310 -0.15126 0.46262
 C655 C 0.48678 -0.17124 0.38858
 C656 C 0.47335 -0.16740 0.29656
 C657 C 0.47620 -0.14346 0.27858
 C658 C 0.46243 -0.14010 0.18658
 C659 C 0.44641 -0.15979 0.11394
 C660 C 0.44372 -0.18316 0.13120
 C661 C 0.45693 -0.18704 0.22160
 C662 C 0.51656 -0.15467 0.55614
 C663 C 0.53215 -0.13511 0.63042
 C664 C 0.53481 -0.11177 0.61323
 C665 C 0.52192 -0.10782 0.52155
 C666 C 0.48256 -0.19593 0.41430
 C667 C 0.47925 -0.21591 0.44519
 C668 C 0.49657 -0.09878 0.32985
 C669 C 0.50077 -0.07815 0.30630
 H670 H 0.46390 -0.12227 0.16972
 H671 H 0.43612 -0.15687 0.04359
 H672 H 0.43138 -0.19835 0.07403
 H673 H 0.45431 -0.20552 0.23153
 H674 H 0.51509 -0.17248 0.57348
 H675 H 0.54211 -0.13812 0.70209
 H676 H 0.54681 -0.09667 0.67172
 H677 H 0.52444 -0.08938 0.51242
 C678 C 0.37104 0.50207 0.25495
 C679 C 0.35402 0.48867 0.34579
 C680 C 0.33362 0.49253 0.36736
 C681 C 0.33061 0.51013 0.29950
 C682 C 0.34699 0.52273 0.20533
 C683 C 0.36732 0.51871 0.18297
 C684 C 0.38366 0.53174 0.08920
 C685 C 0.37988 0.54811 0.01884
 C686 C 0.35998 0.55198 0.04069
 C687 C 0.34371 0.53955 0.13317
 C688 C 0.31701 0.47909 0.45977
 C689 C 0.32076 0.46278 0.53047
 C690 C 0.34085 0.45919 0.51003
 C691 C 0.35726 0.47181 0.41846
 C692 C 0.31255 0.51714 0.33815
 C693 C 0.29808 0.52213 0.38531
 C694 C 0.39256 0.49899 0.23798
 C695 C 0.41002 0.49573 0.22462
 H696 H 0.39933 0.52924 0.06860
 H697 H 0.39241 0.55775 -0.05336
 H698 H 0.35708 0.56464 -0.01453
 H699 H 0.32839 0.54300 0.14672
 H700 H 0.30103 0.48114 0.47899
 H701 H 0.30807 0.45298 0.60185
 H702 H 0.34378 0.44660 0.56561
 H703 H 0.37262 0.46838 0.40623
 C704 C 1.13136 0.62464 0.22894
 C705 C 1.13920 0.64681 0.16457
 C706 C 1.16371 0.66653 0.17914
 C707 C 1.18019 0.66382 0.25696
 C708 C 1.17298 0.64094 0.31317
 C709 C 1.14838 0.62135 0.30003
 C710 C 1.14131 0.59896 0.36053
 C711 C 1.15817 0.59598 0.43110
 C712 C 1.18227 0.61504 0.44374
 C713 C 1.18971 0.63734 0.38554
 C714 C 1.17108 0.68875 0.11649
 C715 C 1.15471 0.69134 0.04009
 C716 C 1.13074 0.67201 0.02510
 C717 C 1.12294 0.64999 0.08683
 C718 C 1.20287 0.68524 0.29488
 C719 C 1.22072 0.70226 0.34000
 C720 C 1.10572 0.60549 0.22357
 C721 C 1.08435 0.58992 0.21520
 H722 H 1.12275 0.58353 0.35387
 H723 H 1.15248 0.57877 0.47593
 H724 H 1.19523 0.61257 0.49919
 H725 H 1.20869 0.65166 0.39762
 H726 H 1.18962 0.70417 0.12480
 H727 H 1.16067 0.70841 -0.00798
 H728 H 1.11813 0.67408 -0.03473
 H729 H 1.10412 0.63549 0.07241
 C730 C 0.50123 0.13558 0.20954
 C731 C 0.48931 0.14151 0.30088
 C732 C 0.49565 0.16648 0.32152
 C733 C 0.51431 0.18545 0.25243
 C734 C 0.52576 0.17948 0.15900
 C735 C 0.51932 0.15443 0.13791
 C736 C 0.53161 0.14891 0.04664
 C737 C 0.54946 0.16759 -0.02311
 C738 C 0.55557 0.19207 -0.00311
 C739 C 0.54397 0.19807 0.08726
 C740 C 0.48362 0.17199 0.41444
 C741 C 0.46629 0.15343 0.48641
 C742 C 0.46031 0.12901 0.46702
 C743 C 0.47152 0.12299 0.37508
 C744 C 0.52381 0.21078 0.29153
 C745 C 0.53051 0.23022 0.34191
 C746 C 0.49528 0.11013 0.19263
 C747 C 0.48994 0.08881 0.18118
 H748 H 0.52742 0.13013 0.02774
 H749 H 0.55853 0.16304 -0.09336
 H750 H 0.56937 0.20650 -0.05788
 H751 H 0.54927 0.21733 0.09995
 H752 H 0.48754 0.19067 0.43320
 H753 H 0.45755 0.15805 0.55791
 H754 H 0.44691 0.11464 0.52345
 H755 H 0.46621 0.10371 0.36377
 C756 C 0.62344 0.49494 0.25406
 C757 C 0.64318 0.50426 0.17177
 C758 C 0.66150 0.49688 0.17960
 C759 C 0.65981 0.48012 0.26884
 C760 C 0.63935 0.46977 0.34659
 C761 C 0.62129 0.47749 0.34052
 C762 C 0.60154 0.46767 0.42258
 C763 C 0.59952 0.45037 0.50702
 C764 C 0.61702 0.44253 0.51157
 C765 C 0.63675 0.45209 0.43280
 C766 C 0.68131 0.50669 0.09808
 C767 C 0.68288 0.52325 0.01034
 C768 C 0.66495 0.53049 0.00244
 C769 C 0.64531 0.52119 0.08211
 C770 C 0.68072 0.47653 0.29443
 C771 C 0.69811 0.47468 0.32916
 C772 C 0.60536 0.50326 0.24901
 C773 C 0.59043 0.51023 0.23959
 H774 H 0.58745 0.47316 0.42204
 H775 H 0.58424 0.44297 0.56865
 H776 H 0.61546 0.42900 0.57623
 H777 H 0.64986 0.44538 0.43990
 H778 H 0.69551 0.50136 0.10025
 H779 H 0.69799 0.53038 -0.05227
 H780 H 0.66617 0.54324 -0.06629
 H781 H 0.63177 0.52729 0.07203
 C782 C 0.86749 0.38031 0.31400
 C783 C 0.85735 0.36052 0.23035
 C784 C 0.83228 0.34168 0.23991
 C785 C 0.81741 0.34273 0.33258
 C786 C 0.82753 0.36254 0.41587
 C787 C 0.85282 0.38085 0.40905
 C788 C 0.86305 0.39892 0.50042
 C789 C 0.84854 0.39928 0.59432
 C790 C 0.82350 0.38233 0.59703
 C791 C 0.81302 0.36408 0.50925
 C792 C 0.82274 0.32187 0.15697
 C793 C 0.83757 0.32057 0.06732
 C794 C 0.86210 0.33887 0.05831
 C795 C 0.87195 0.35870 0.13831
 C796 C 0.79329 0.32162 0.35585
 C797 C 0.77447 0.30409 0.38959
 C798 C 0.89284 0.40010 0.30061
 C799 C 0.91385 0.41602 0.28316
 H800 H 0.88240 0.41272 0.50121
 H801 H 0.85671 0.41304 0.66450
 H802 H 0.81224 0.38300 0.66895
 H803 H 0.79354 0.35101 0.51646
 H804 H 0.80373 0.30728 0.16031
 H805 H 0.82995 0.30536 0.00412
 H806 H 0.87352 0.33782 -0.01180
 H807 H 0.89112 0.37247 0.12743
   
