data_POSCAR
  _audit_creation_date              2014-09-24
  _audit_creation_method            'ToBaCCo'
  _symmetry_space_group_name_H-M    'P1'
  _symmetry_Int_Tables_number       1
  _symmetry_cell_setting            triclinic
  loop_
  _symmetry_equiv_pos_as_xyz
 x,y,z
_cell_length_a 35.8941
_cell_length_b 35.9979
_cell_length_c 35.6787
_cell_angle_alpha 90.025000
_cell_angle_beta 90.160000
_cell_angle_gamma 90.078800
loop_
  _atom_site_label
  _atom_site_type_symbol
  _atom_site_fract_x
  _atom_site_fract_y
  _atom_site_fract_z
N1 N 0.13628 0.16459 0.23928
 N2 N 0.16185 0.13854 0.23912
 C3 C 0.15585 0.11539 0.26814
 C4 C 0.12453 0.12733 0.28759
 C5 C 0.11294 0.15876 0.26816
 H6 H 0.17280 0.09136 0.27418
 H7 H 0.08946 0.17639 0.27447
 Cu8 Cu 0.20019 0.13719 0.20056
 Cu9 Cu 0.13509 0.20417 0.20199
 Cu10 Cu 0.20284 0.20189 0.13280
 N11 N 0.23831 0.13633 0.16176
 N12 N 0.23971 0.16226 0.13592
 C13 C 0.26912 0.15594 0.11348
 C14 C 0.28717 0.12394 0.12555
 C15 C 0.26654 0.11231 0.15634
 H16 H 0.27625 0.17316 0.08976
 H17 H 0.27191 0.08852 0.17396
 N18 N 0.16322 0.23982 0.13452
 N19 N 0.13843 0.24161 0.16174
 C20 C 0.11621 0.27119 0.15584
 C21 C 0.12715 0.28843 0.12308
 C22 C 0.15690 0.26777 0.11020
 H23 H 0.09308 0.27913 0.17345
 H24 H 0.17294 0.27306 0.08516
 H25 H 0.16014 0.17405 0.15970
 H26 H 0.19124 0.20344 0.18946
 N27 N -0.14062 0.83259 0.24243
 N28 N -0.15807 0.86375 0.23466
 C29 C -0.14978 0.88911 0.26115
 C30 C -0.12598 0.87290 0.28700
 C31 C -0.12089 0.83696 0.27428
 H32 H -0.16023 0.91727 0.26153
 H33 H -0.10283 0.81612 0.28637
 Cu34 Cu -0.18984 0.86887 0.19067
 Cu35 Cu -0.14097 0.79045 0.20826
 Cu36 Cu -0.20459 0.79409 0.13581
 N37 N -0.23199 0.86602 0.15627
 N38 N -0.23879 0.83594 0.13656
 C39 C -0.27066 0.84053 0.11719
 C40 C -0.28452 0.87579 0.12460
 C41 C -0.25892 0.89118 0.14951
 H42 H -0.28214 0.82002 0.09827
 H43 H -0.26025 0.91816 0.16275
 N44 N -0.16794 0.75388 0.14100
 N45 N -0.14520 0.75121 0.17001
 C46 C -0.12326 0.72121 0.16543
 C47 C -0.13229 0.70477 0.13165
 C48 C -0.16052 0.72622 0.11676
 H49 H -0.10069 0.71332 0.18390
 H50 H -0.17396 0.72240 0.08987
 H51 H -0.15724 0.81807 0.16019
 H52 H -0.19515 0.80189 0.19265
 N53 N -0.14124 0.16238 -0.24038
 N54 N -0.16472 0.13448 -0.23730
 C55 C -0.15789 0.10974 -0.26481
 C56 C -0.12903 0.12330 -0.28650
 C57 C -0.11921 0.15675 -0.27027
 H58 H -0.17309 0.08415 -0.26927
 H59 H -0.09710 0.17518 -0.27911
 Cu60 Cu -0.20290 0.13488 -0.19863
 Cu61 Cu -0.13955 0.20298 -0.20431
 Cu62 Cu -0.20765 0.20369 -0.13536
 N63 N -0.24135 0.13528 -0.16027
 N64 N -0.24326 0.16256 -0.13588
 C65 C -0.27230 0.15660 -0.11286
 C66 C -0.28988 0.12371 -0.12330
 C67 C -0.26921 0.11107 -0.15366
 H68 H -0.27979 0.17502 -0.09021
 H69 H -0.27397 0.08617 -0.16989
 N70 N -0.16890 0.24254 -0.13964
 N71 N -0.14245 0.24155 -0.16527
 C72 C -0.11866 0.26988 -0.15926
 C73 C -0.13087 0.28994 -0.12868
 C74 C -0.16291 0.27200 -0.11702
 H75 H -0.09404 0.27547 -0.17572
 H76 H -0.17966 0.27909 -0.09293
 H77 H -0.16425 0.17529 -0.15998
 H78 H -0.19575 0.20189 -0.19177
 N79 N 0.13901 0.84155 -0.23601
 N80 N 0.17084 0.85797 -0.24367
 C81 C 0.16690 0.87857 -0.27494
 C82 C 0.13045 0.87519 -0.28722
 C83 C 0.11353 0.85158 -0.26181
 H84 H 0.18843 0.89592 -0.28693
 H85 H 0.08485 0.84230 -0.26216
 Cu86 Cu 0.21332 0.85344 -0.21019
 Cu87 Cu 0.13288 0.80899 -0.19273
 Cu88 Cu 0.21414 0.78601 -0.14563
 N89 N 0.24778 0.85470 -0.16797
 N90 N 0.24859 0.82788 -0.14306
 C91 C 0.27556 0.83501 -0.11778
 C92 C 0.29262 0.86850 -0.12708
 C93 C 0.27396 0.88007 -0.15929
 H94 H 0.28183 0.81705 -0.09435
 H95 H 0.27898 0.90485 -0.17559
 N96 N 0.16828 0.75648 -0.14166
 N97 N 0.13681 0.76617 -0.15819
 C98 C 0.11026 0.74124 -0.14921
 C99 C 0.12586 0.71459 -0.12601
 C100 C 0.16273 0.72514 -0.12189
 H101 H 0.08192 0.74184 -0.15958
 H102 H 0.18380 0.71143 -0.10516
 H103 H 0.17740 0.82595 -0.15926
 H104 H 0.18677 0.79217 -0.19785
 N105 N 0.16452 1.13747 0.76246
 N106 N 0.13743 1.16197 0.76421
 C107 C 0.11295 1.15520 0.73631
 C108 C 0.12582 1.12523 0.71582
 C109 C 0.15860 1.11471 0.73315
 H110 H 0.08828 1.17146 0.73050
 H111 H 0.17662 1.09202 0.72513
 Cu112 Cu 0.13975 1.20188 0.80091
 Cu113 Cu 0.20544 1.13661 0.79844
 Cu114 Cu 0.21206 1.21170 0.85955
 N115 N 0.14214 1.24319 0.83592
 N116 N 0.17209 1.24838 0.85665
 C117 C 0.16770 1.27932 0.87738
 C118 C 0.13296 1.29388 0.86962
 C119 C 0.11738 1.27026 0.84334
 H120 H 0.18733 1.28933 0.89812
 H121 H 0.08997 1.27261 0.83091
 N122 N 0.24852 1.17066 0.85854
 N123 N 0.24466 1.14117 0.83680
 C124 C 0.27073 1.11595 0.84609
 C125 C 0.29226 1.13039 0.87470
 C126 C 0.27765 1.16517 0.88179
 H127 H 0.27370 1.08888 0.83332
 H128 H 0.28642 1.18411 0.90364
 H129 H 0.18100 1.16680 0.84158
 H130 H 0.20683 1.19347 0.80508
 N131 N 0.83524 0.86325 0.75896
 N132 N 0.85993 0.83635 0.75803
 C133 C 0.88355 0.84248 0.72942
 C134 C 0.87266 0.87465 0.71126
 C135 C 0.84189 0.88706 0.73072
 H136 H 0.90664 0.82471 0.72200
 H137 H 0.82592 0.91190 0.72511
 Cu138 Cu 0.85850 0.79564 0.79383
 Cu139 Cu 0.79666 0.86582 0.79682
 Cu140 Cu 0.79371 0.79480 0.86210
 N141 N 0.85752 0.75712 0.83201
 N142 N 0.83263 0.75736 0.85895
 C143 C 0.83956 0.72906 0.88258
 C144 C 0.87027 0.70984 0.86957
 C145 C 0.88089 0.72832 0.83734
 H146 H 0.82356 0.72300 0.90747
 H147 H 0.90463 0.72199 0.81990
 N148 N 0.75702 0.83544 0.86065
 N149 N 0.75951 0.86355 0.83704
 C150 C 0.73228 0.88810 0.84454
 C151 C 0.71129 0.87444 0.87377
 C152 C 0.72753 0.84097 0.88327
 H153 H 0.72757 0.91376 0.82954
 H154 H 0.71899 0.82260 0.90563
 H155 H 0.82535 0.83587 0.83735
 H156 H 0.79307 0.80916 0.80613
 N157 N 0.16157 0.86200 1.23905
 N158 N 0.13094 0.84320 1.23196
 C159 C 0.10579 0.85027 1.25896
 C160 C 0.12182 0.87440 1.28457
 C161 C 0.15724 0.88122 1.27108
 H162 H 0.07818 0.83826 1.26023
 H163 H 0.17797 0.89949 1.28321
 Cu164 Cu 0.12718 0.80979 1.18929
 Cu165 Cu 0.20367 0.86171 1.20498
 Cu166 Cu 0.20620 0.78947 1.14180
 N167 N 0.13167 0.76557 1.15847
 N168 N 0.16312 0.75645 1.14205
 C169 C 0.15839 0.72408 1.12372
 C170 C 0.12193 0.71256 1.12862
 C171 C 0.10575 0.73960 1.15077
 H172 H 0.17941 0.71068 1.10681
 H173 H 0.07733 0.74020 1.16074
 N174 N 0.24608 0.82705 1.14553
 N175 N 0.24392 0.85577 1.16841
 C176 C 0.27188 0.87949 1.16085
 C177 C 0.29294 0.86477 1.13216
 C178 C 0.27600 0.83140 1.12320
 H179 H 0.27611 0.90600 1.17449
 H180 H 0.28349 0.81303 1.10045
 H181 H 0.17944 0.83756 1.15676
 H182 H 0.19393 0.80513 1.19559
 N183 N 0.83646 1.14308 1.24318
 N184 N 0.86123 1.17002 1.24248
 C185 C 0.88538 1.16539 1.27107
 C186 C 0.87534 1.13362 1.29011
 C187 C 0.84442 1.11996 1.27168
 H188 H 0.90932 1.18280 1.27679
 H189 H 0.82911 1.09496 1.27840
 Cu190 Cu 0.86107 1.20625 1.20221
 Cu191 Cu 0.79586 1.13964 1.20709
 Cu192 Cu 0.79428 1.20562 1.13622
 N193 N 0.86053 1.24261 1.16206
 N194 N 0.83340 1.24313 1.13723
 C195 C 0.83910 1.27133 1.11316
 C196 C 0.87189 1.28891 1.12311
 C197 C 0.88487 1.26996 1.15414
 H198 H 0.82138 1.27791 1.08952
 H199 H 0.91003 1.27592 1.16979
 N200 N 0.75732 1.16532 1.14024
 N201 N 0.75714 1.14101 1.16795
 C202 C 0.72825 1.11755 1.16314
 C203 C 0.70990 1.12719 1.13054
 C204 C 0.72907 1.15745 1.11664
 H205 H 0.72172 1.09434 1.18120
 H206 H 0.72278 1.17252 1.09120
 H207 H 0.82405 1.16452 1.16327
 H208 H 0.79467 1.19531 1.19312
 O209 O 0.44723 0.93066 0.93710
 O210 O 0.40634 0.96600 0.97135
 C211 C 0.41387 0.94053 0.94690
 O212 O 0.55347 0.93178 1.06924
 O213 O 0.59352 0.96822 1.03506
 C214 C 0.58663 0.94297 1.05996
 O215 O 0.44849 0.92724 1.06616
 O216 O 0.40701 0.96437 1.03449
 C217 C 0.41487 0.93764 1.05750
 O218 O 0.55200 0.93396 0.93416
 O219 O 0.59277 0.96865 0.96951
 C220 C 0.58538 0.94428 0.94379
 Zr221 Zr 0.49964 0.95162 0.95501
 O222 O 0.50388 0.89299 0.95369
 O223 O 0.49542 0.95334 0.89583
 Zr224 Zr 0.50053 0.94990 1.04962
 O225 O 0.50519 0.89131 1.04990
 O226 O 0.49681 0.95021 1.10886
 O227 O 0.46685 0.94322 1.00235
 O228 O 0.53252 0.94440 1.00201
 O229 O 0.55105 1.06448 0.93589
 O230 O 0.59239 1.02993 0.97058
 C231 C 0.58455 1.05456 0.94535
 O232 O 0.44716 1.06444 1.06953
 O233 O 0.40639 1.02790 1.03611
 C234 C 0.41382 1.05390 1.06009
 O235 O 0.55204 1.06113 1.07311
 O236 O 0.59271 1.02985 1.03490
 C237 C 0.58538 1.05282 1.06182
 O238 O 0.44655 1.06732 0.94068
 O239 O 0.40610 1.02929 0.97240
 C240 C 0.41330 1.05636 0.94955
 Zr241 Zr 0.49897 1.04569 0.95674
 O242 O 0.50286 1.10437 0.95686
 O243 O 0.49411 1.04563 0.89758
 Zr244 Zr 0.49961 1.04394 1.05154
 O245 O 0.50370 1.10261 1.05264
 O246 O 0.49568 1.04269 1.11071
 Zr247 Zr 0.44429 0.99729 1.00354
 Zr248 Zr 0.55498 0.99845 1.00286
 O249 O 0.53151 1.05197 1.00410
 O250 O 0.46600 1.05177 1.00445
 O251 O 0.53243 0.99909 0.94827
 O252 O 0.46780 0.99643 1.05765
 O253 O 0.46696 0.99852 0.94919
 O254 O 0.53334 0.99713 1.05774
 H255 H 0.54950 0.92273 1.00161
 H256 H 0.45104 0.99578 1.07966
 H257 H 0.54812 1.07398 1.00437
 H258 H 0.44995 0.99889 0.92727
 H259 H 0.51930 0.96286 1.11868
 H260 H 0.51607 1.02672 1.12009
 H261 H 0.48254 1.11260 1.03798
 H262 H 0.48377 1.11378 0.97436
 H263 H 0.51571 1.03186 0.88748
 H264 H 0.51690 0.96779 0.88641
 H265 H 0.48301 0.88281 0.96854
 H266 H 0.48648 0.88152 1.03204
 O267 O 0.06993 0.45040 -0.06616
 O268 O 0.03345 0.40864 -0.03440
 C269 C 0.05997 0.41672 -0.05757
 O270 O 0.06289 0.55272 0.06748
 O271 O 0.02789 0.59335 0.03246
 C272 C 0.05229 0.58601 0.05827
 O273 O 0.06631 0.44813 0.06419
 O274 O 0.03219 0.40746 0.02819
 C275 C 0.05723 0.41484 0.05335
 O276 O 0.06491 0.55498 -0.06775
 O277 O 0.02861 0.59449 -0.03296
 C278 C 0.05394 0.58797 -0.05796
 Zr279 Zr 0.04696 0.50201 -0.04889
 O280 O 0.10569 0.50702 -0.04957
 O281 O 0.04602 0.49887 -0.10816
 Zr282 Zr 0.04587 0.50044 0.04582
 O283 O 0.10470 0.50495 0.04575
 O284 O 0.04567 0.49607 0.10500
 O285 O 0.05429 0.46821 -0.00195
 O286 O 0.05259 0.53360 -0.00087
 O287 O -0.06481 0.55243 -0.07169
 O288 O -0.03382 0.59309 -0.03297
 C289 C -0.05667 0.58567 -0.06015
 O290 O -0.06915 0.44603 0.06035
 O291 O -0.03116 0.40651 0.02746
 C292 C -0.05788 0.41310 0.05086
 O293 O -0.06613 0.55038 0.06711
 O294 O -0.03359 0.59224 0.03139
 C295 C -0.05724 0.58407 0.05753
 O296 O -0.06861 0.44819 -0.06792
 O297 O -0.03051 0.40761 -0.03637
 C298 C -0.05744 0.41495 -0.05948
 Zr299 Zr -0.04740 0.50035 -0.05025
 O300 O -0.10623 0.50439 -0.05117
 O301 O -0.04658 0.49633 -0.10943
 Zr302 Zr -0.04846 0.49886 0.04441
 O303 O -0.10732 0.50268 0.04310
 O304 O -0.04973 0.49320 0.10344
 Zr305 Zr 0.00024 0.44524 -0.00325
 Zr306 Zr -0.00174 0.55555 -0.00128
 O307 O -0.05531 0.53176 -0.00245
 O308 O -0.05459 0.46630 -0.00357
 O309 O -0.00066 0.53441 -0.05638
 O310 O -0.00090 0.46741 0.05138
 O311 O 0.00041 0.46906 -0.05708
 O312 O -0.00189 0.53255 0.05306
 H313 H 0.07420 0.55075 -0.00021
 H314 H -0.00108 0.45045 0.07325
 H315 H -0.07736 0.54828 -0.00237
 H316 H 0.00095 0.45243 -0.07922
 H317 H 0.03015 0.51655 0.11479
 H318 H -0.03328 0.51262 0.11403
 H319 H -0.11681 0.48139 0.02836
 H320 H -0.11613 0.48417 -0.03530
 H321 H -0.03035 0.51648 -0.11881
 H322 H 0.03359 0.52154 -0.11760
 H323 H 0.11563 0.48906 -0.03114
 H324 H 0.11470 0.48286 0.03271
 O325 O 0.93823 0.07084 0.44736
 O326 O 0.97069 0.03405 0.40634
 C327 C 0.94762 0.06073 0.41371
 O328 O 1.06931 0.06517 0.55363
 O329 O 1.03223 0.03218 0.59401
 C330 C 1.05837 0.05598 0.58703
 O331 O 1.06657 0.06882 0.44824
 O332 O 1.03221 0.03381 0.40682
 C333 C 1.05660 0.05921 0.41458
 O334 O 0.93350 0.06645 0.55282
 O335 O 0.96746 0.03081 0.59391
 C336 C 0.94237 0.05558 0.58641
 Zr337 Zr 0.95388 0.04839 0.50004
 O338 O 0.95219 0.10697 0.50451
 O339 O 0.89508 0.04687 0.49505
 Zr340 Zr 1.04825 0.04797 0.50074
 O341 O 1.04819 0.10663 0.50521
 O342 O 1.10711 0.04757 0.49701
 O343 O 1.00129 0.05564 0.46713
 O344 O 1.00090 0.05483 0.53292
 O345 O 0.93161 -0.06305 0.55167
 O346 O 0.96861 -0.03104 0.59319
 C347 C 0.94228 -0.05440 0.58533
 O348 O 1.06582 -0.06612 0.44735
 O349 O 1.03109 -0.03107 0.40638
 C350 C 1.05535 -0.05667 0.41376
 O351 O 1.06931 -0.06252 0.55329
 O352 O 1.03243 -0.02988 0.59410
 C353 C 1.05889 -0.05327 0.58692
 O354 O 0.93671 -0.06717 0.44676
 O355 O 0.96953 -0.03018 0.40617
 C356 C 0.94590 -0.05651 0.41328
 Zr357 Zr 0.95348 -0.04558 0.49946
 O358 O 0.95289 -0.10421 0.50377
 O359 O 0.89472 -0.04487 0.49428
 Zr360 Zr 1.04782 -0.04589 0.50028
 O361 O 1.04662 -0.10455 0.50452
 O362 O 1.10664 -0.04698 0.49630
 Zr363 Zr 1.00101 0.00151 0.44453
 Zr364 Zr 1.00043 0.00095 0.55582
 O365 O 1.00048 -0.05271 0.53235
 O366 O 1.00079 -0.05286 0.46649
 O367 O 0.94614 0.00126 0.53311
 O368 O 1.05489 0.00115 0.46795
 O369 O 0.94695 0.00164 0.46711
 O370 O 1.05503 0.00090 0.53403
 H371 H 1.00086 0.07658 0.54995
 H372 H 1.07677 0.00110 0.45108
 H373 H 1.00048 -0.07454 0.54926
 H374 H 0.92537 0.00190 0.44973
 H375 H 1.11670 0.03258 0.51815
 H376 H 1.11660 -0.03050 0.51612
 H377 H 1.03356 -0.11420 0.48208
 H378 H 0.96980 -0.11398 0.48428
 H379 H 0.88490 -0.02940 0.51492
 H380 H 0.88518 0.03459 0.51774
 H381 H 0.97127 0.11694 0.48728
 H382 H 1.03453 0.11656 0.48329
 C383 C 1.12493 0.08047 0.33771
 C384 C 1.10806 0.11102 0.31957
 C385 C 1.07414 0.12460 0.33414
 C386 C 1.05755 0.10791 0.36533
 C387 C 1.07468 0.07771 0.38293
 C388 C 1.10842 0.06413 0.36910
 H389 H 1.15099 0.06898 0.32805
 H390 H 1.05977 0.14772 0.32131
 H391 H 1.03119 0.11839 0.37559
 H392 H 1.12179 0.04057 0.38239
 C393 C 0.90335 -0.13034 0.35081
 C394 C 0.89214 -0.10920 0.31963
 C395 C 0.89887 -0.07077 0.31961
 C396 C 0.91683 -0.05390 0.34992
 C397 C 0.92769 -0.07489 0.38118
 C398 C 0.92055 -0.11322 0.38157
 H399 H 0.89840 -0.16000 0.35163
 H400 H 0.89078 -0.05378 0.29592
 H401 H 0.92163 -0.02428 0.34926
 H402 H 0.92878 -0.12997 0.40540
 C403 C 0.89998 0.12765 0.65015
 C404 C 0.88814 0.10577 0.68044
 C405 C 0.89347 0.06717 0.67922
 C406 C 0.91133 0.05083 0.64860
 C407 C 0.92298 0.07272 0.61825
 C408 C 0.91674 0.11117 0.61899
 H409 H 0.89595 0.15747 0.65045
 H410 H 0.88470 0.04981 0.70235
 H411 H 0.91580 0.02107 0.64844
 H412 H 0.92567 0.12852 0.59589
 C413 C 1.07609 -0.09271 0.68369
 C414 C 1.11274 -0.10581 0.68070
 C415 C 1.13212 -0.10073 0.64694
 C416 C 1.11462 -0.08386 0.61623
 C417 C 1.07786 -0.07079 0.61921
 C418 C 1.05906 -0.07479 0.65348
 H419 H 1.06078 -0.09586 0.70961
 H420 H 1.16048 -0.11054 0.64409
 H421 H 1.12992 -0.08070 0.59030
 H422 H 1.03094 -0.06452 0.65677
 C423 C 0.33118 1.07174 1.12237
 C424 C 0.31905 1.10696 1.10993
 C425 C 0.33953 1.12462 1.08124
 C426 C 0.37089 1.10763 1.06561
 C427 C 0.38216 1.07249 1.07786
 C428 C 0.36217 1.05460 1.10621
 H429 H 0.31647 1.05676 1.14402
 H430 H 0.33182 1.15175 1.07085
 H431 H 0.38608 1.12168 1.04356
 H432 H 0.37057 1.02732 1.11583
 C433 C 0.33595 0.92112 0.87894
 C434 C 0.32234 0.88652 0.89163
 C435 C 0.33940 0.87041 0.92344
 C436 C 0.36921 0.88805 0.94148
 C437 C 0.38245 0.92217 0.92834
 C438 C 0.36559 0.93874 0.89722
 H439 H 0.32395 0.93496 0.85491
 H440 H 0.33013 0.84406 0.93455
 H441 H 0.38194 0.87511 0.96575
 H442 H 0.37555 0.96525 0.88690
 C443 C 0.67690 0.93087 1.11291
 C444 C 0.68299 0.89228 1.10977
 C445 C 0.65594 0.87064 1.09098
 C446 C 0.62391 0.88703 1.07599
 C447 C 0.61879 0.92548 1.07829
 C448 C 0.64550 0.94734 1.09666
 H449 H 0.69691 0.94878 1.12669
 H450 H 0.65896 0.84087 1.08826
 H451 H 0.60358 0.86981 1.06167
 H452 H 0.64196 0.97718 1.09849
 C453 C 0.66084 1.12322 0.92447
 C454 C 0.67855 1.10690 0.89323
 C455 C 0.66389 1.07321 0.87912
 C456 C 0.63291 1.05647 0.89579
 C457 C 0.61589 1.07293 0.92681
 C458 C 0.62989 1.10635 0.94103
 H459 H 0.67074 1.14893 0.93659
 H460 H 0.67615 1.05940 0.85528
 H461 H 0.62230 1.03055 0.88457
 H462 H 0.61704 1.11921 0.96522
 C463 C 0.09598 0.35038 0.12720
 C464 C 0.11005 0.32125 0.10520
 C465 C 0.10723 0.32349 0.06599
 C466 C 0.08981 0.35394 0.04911
 C467 C 0.07612 0.38318 0.07113
 C468 C 0.07969 0.38142 0.11025
 H469 H 0.09797 0.34931 0.15747
 H470 H 0.11770 0.30129 0.04846
 H471 H 0.08732 0.35487 0.01885
 H472 H 0.06903 0.40362 0.12768
 C473 C -0.13322 0.35005 -0.09331
 C474 C -0.11229 0.32222 -0.11109
 C475 C -0.07329 0.32538 -0.11198
 C476 C -0.05551 0.35552 -0.09493
 C477 C -0.07640 0.38341 -0.07749
 C478 C -0.11539 0.38073 -0.07709
 H479 H -0.16332 0.34832 -0.09243
 H480 H -0.05648 0.30423 -0.12530
 H481 H -0.02546 0.35742 -0.09591
 H482 H -0.13194 0.40203 -0.06363
 C483 C 0.06909 0.68305 -0.10050
 C484 C 0.10724 0.68198 -0.10911
 C485 C 0.12760 0.64962 -0.10106
 C486 C 0.11006 0.61883 -0.08500
 C487 C 0.07207 0.62015 -0.07587
 C488 C 0.05176 0.65259 -0.08353
 H489 H 0.05280 0.70771 -0.10623
 H490 H 0.15700 0.64796 -0.10755
 H491 H 0.12635 0.59422 -0.07901
 H492 H 0.02239 0.65418 -0.07677
 C493 C -0.10755 0.64007 0.13175
 C494 C -0.11269 0.67400 0.11319
 C495 C -0.09876 0.67861 0.07684
 C496 C -0.07971 0.64968 0.05928
 C497 C -0.07564 0.61515 0.07716
 C498 C -0.08972 0.61058 0.11361
 H499 H -0.11803 0.63619 0.15992
 H500 H -0.10209 0.70482 0.06231
 H501 H -0.06863 0.65419 0.03148
 H502 H -0.08663 0.58438 0.12818
 C503 C 1.13094 0.09516 0.65293
 C504 C 1.10862 0.10826 0.68240
 C505 C 1.06979 0.10459 0.67995
 C506 C 1.05355 0.08723 0.64893
 C507 C 1.07583 0.07440 0.61936
 C508 C 1.11458 0.07889 0.62130
 H509 H 1.16096 0.09791 0.65419
 H510 H 1.05209 0.11436 0.70242
 H511 H 1.02352 0.08416 0.64781
 H512 H 1.13218 0.06905 0.59877
 C513 C 0.92870 -0.11154 0.67238
 C514 C 0.89028 -0.10769 0.67849
 C515 C 0.86890 -0.08656 0.65325
 C516 C 0.88568 -0.06971 0.62229
 C517 C 0.92414 -0.07303 0.61681
 C518 C 0.94556 -0.09397 0.64195
 H519 H 0.94583 -0.12752 0.69148
 H520 H 0.83918 -0.08341 0.65722
 H521 H 0.86886 -0.05352 0.60307
 H522 H 0.97524 -0.09708 0.63772
 C523 C 1.06632 -0.10149 0.31881
 C524 C 1.10456 -0.10951 0.31836
 C525 C 1.12634 -0.10123 0.35008
 C526 C 1.11012 -0.08507 0.38172
 C527 C 1.07213 -0.07599 0.38164
 C528 C 1.05033 -0.08438 0.35001
 H529 H 1.04899 -0.10748 0.29466
 H530 H 1.15585 -0.10741 0.35045
 H531 H 1.12742 -0.07869 0.40580
 H532 H 1.02089 -0.07777 0.34949
 C533 C 0.91067 0.08070 0.31656
 C534 C 0.89517 0.11603 0.32130
 C535 C 0.89806 0.13397 0.35604
 C536 C 0.91518 0.11604 0.38627
 C537 C 0.93057 0.08042 0.38172
 C538 C 0.92890 0.06335 0.34633
 H539 H 0.90887 0.06670 0.28972
 H540 H 0.88624 0.16135 0.35997
 H541 H 0.91645 0.13004 0.41312
 H542 H 0.94112 0.03630 0.34177
 C543 C 0.07836 0.32159 -0.09823
 C544 C 0.11479 0.32542 -0.11167
 C545 C 0.13367 0.35924 -0.10672
 C546 C 0.11583 0.38927 -0.08946
 C547 C 0.07935 0.38538 -0.07577
 C548 C 0.06109 0.35104 -0.07979
 H549 H 0.06353 0.29554 -0.10137
 H550 H 0.16190 0.36258 -0.11684
 H551 H 0.13066 0.41533 -0.08643
 H552 H 0.03324 0.34704 -0.06903
 C553 C -0.07139 0.32175 0.10039
 C554 C -0.11027 0.32050 0.10413
 C555 C -0.13195 0.34966 0.08977
 C556 C -0.11486 0.38010 0.07263
 C557 C -0.07602 0.38110 0.06854
 C558 C -0.05441 0.35158 0.08216
 H559 H -0.05421 0.29942 0.11111
 H560 H -0.16199 0.34924 0.09253
 H561 H -0.13193 0.40265 0.06219
 H562 H -0.02435 0.35203 0.07942
 C563 C -0.09168 0.65168 -0.13444
 C564 C -0.11117 0.67773 -0.11266
 C565 C -0.11265 0.67301 -0.07362
 C566 C -0.09456 0.64311 -0.05664
 C567 C -0.07534 0.61707 -0.07841
 C568 C -0.07429 0.62124 -0.11744
 H569 H -0.09031 0.65457 -0.16461
 H570 H -0.12730 0.69272 -0.05613
 H571 H -0.09615 0.63986 -0.02655
 H572 H -0.05955 0.60130 -0.13463
 C573 C 0.12425 0.64712 0.10524
 C574 C 0.10374 0.67962 0.11199
 C575 C 0.06588 0.68071 0.10196
 C576 C 0.04910 0.65017 0.08456
 C577 C 0.06963 0.61770 0.07781
 C578 C 0.10720 0.61623 0.08874
 H579 H 0.15342 0.64555 0.11291
 H580 H 0.04951 0.70551 0.10666
 H581 H 0.02003 0.65188 0.07647
 H582 H 0.12363 0.59153 0.08360
 C583 C 0.35395 1.13194 0.90700
 C584 C 0.32278 1.11168 0.89483
 C585 C 0.32105 1.07331 0.90173
 C586 C 0.35008 1.05547 0.92061
 C587 C 0.38171 1.07554 0.93184
 C588 C 0.38349 1.11390 0.92488
 H589 H 0.35583 1.16154 0.90186
 H590 H 0.29709 1.05722 0.89285
 H591 H 0.34827 1.02583 0.92556
 H592 H 0.40764 1.12988 0.93344
 C593 C 0.35524 0.86248 1.10106
 C594 C 0.32404 0.88298 1.11250
 C595 C 0.32262 0.92123 1.10508
 C596 C 0.35184 0.93872 1.08631
 C597 C 0.38351 0.91849 1.07573
 C598 C 0.38510 0.88025 1.08336
 H599 H 0.35681 0.83293 1.10657
 H600 H 0.29866 0.93750 1.11336
 H601 H 0.35005 0.96824 1.08073
 H602 H 0.40923 0.86411 1.07527
 C603 C 0.64886 1.09419 1.13542
 C604 C 0.67794 1.10809 1.11320
 C605 C 0.67643 1.10349 1.07418
 C606 C 0.64651 1.08482 1.05764
 C607 C 0.61711 1.07155 1.07976
 C608 C 0.61828 1.07657 1.11872
 H609 H 0.64952 1.09758 1.16558
 H610 H 0.69870 1.11377 1.05657
 H611 H 0.64599 1.08132 1.02747
 H612 H 0.59586 1.06638 1.13620
 C613 C 0.67923 0.93059 0.89854
 C614 C 0.67889 0.89227 0.89135
 C615 C 0.64743 0.87120 0.90096
 C616 C 0.61645 0.88837 0.91708
 C617 C 0.61710 0.92657 0.92497
 C618 C 0.64883 0.94750 0.91589
 H619 H 0.70335 0.94727 0.89148
 H620 H 0.64664 0.84161 0.89547
 H621 H 0.59235 0.87169 0.92421
 H622 H 0.64994 0.97695 0.92197
   
