data_POSCAR
  _audit_creation_date              2014-09-24
  _audit_creation_method            'ToBaCCo'
  _symmetry_space_group_name_H-M    'P1'
  _symmetry_Int_Tables_number       1
  _symmetry_cell_setting            triclinic
  loop_
  _symmetry_equiv_pos_as_xyz
 x,y,z
_cell_length_a 34.7671
_cell_length_b 34.8029
_cell_length_c 34.5438
_cell_angle_alpha 103.707600
_cell_angle_beta 82.067400
_cell_angle_gamma 100.547400
loop_
  _atom_site_label
  _atom_site_type_symbol
  _atom_site_fract_x
  _atom_site_fract_y
  _atom_site_fract_z
O1 O 0.53027 0.52297 0.03537
 O2 O 0.42545 0.50502 0.01965
 O3 O 0.47338 0.46375 0.03726
 O4 O 0.48205 0.56523 0.01991
 O5 O 0.49699 0.54255 -0.04465
 O6 O 0.48909 0.44056 -0.02711
 O7 O 0.44028 0.48157 -0.04471
 O8 O 0.54507 0.49988 -0.02919
 Cu9 Cu 0.47621 0.51659 0.03446
 Cu10 Cu 0.49415 0.48892 -0.04297
 C11 C 0.55554 0.51385 0.00583
 C12 C 0.41479 0.49024 -0.01526
 C13 C 0.48046 0.43494 0.00832
 C14 C 0.49098 0.57140 -0.01523
 O15 O -0.02335 0.53866 0.50346
 O16 O -0.00363 0.43619 0.49169
 O17 O -0.00858 0.49736 0.55224
 O18 O -0.01639 0.47985 0.44435
 O19 O 0.04753 0.49977 0.43412
 O20 O 0.05487 0.51933 0.54244
 O21 O 0.06013 0.45770 0.48364
 O22 O 0.04019 0.56025 0.49400
 Cu23 Cu -0.01934 0.48563 0.49913
 Cu24 Cu 0.05712 0.51120 0.48748
 C25 C 0.00484 0.56692 0.49988
 C26 C 0.03160 0.42948 0.48602
 C27 C 0.02443 0.51167 0.56590
 C28 C 0.01406 0.48778 0.42098
 O29 O 0.50094 0.01318 0.56701
 O30 O 0.51387 0.02816 0.46302
 O31 O 0.45493 0.02030 0.51697
 O32 O 0.56170 0.02414 0.51454
 O33 O 0.55502 -0.04107 0.49051
 O34 O 0.44763 -0.04512 0.49410
 O35 O 0.50724 -0.03730 0.44036
 O36 O 0.49594 -0.05196 0.54335
 Cu37 Cu 0.50875 0.02799 0.51762
 Cu38 Cu 0.50071 -0.05035 0.48982
 C39 C 0.49653 -0.02218 0.57292
 C40 C 0.51227 -0.00222 0.43394
 C41 C 0.43296 -0.01289 0.50595
 C42 C 0.57669 -0.00779 0.50233
 C43 C 0.48184 -0.07563 -0.06802
 C44 C 0.48188 -0.03775 -0.07567
 C45 C 0.48760 -0.00389 -0.04405
 C46 C 0.49589 -0.00688 -0.00598
 C47 C 0.49860 -0.04524 -0.00062
 C48 C 0.49060 -0.07972 -0.03091
 C49 C 0.50167 0.02962 0.02788
 C50 C 0.49767 0.02592 0.06824
 C51 C 0.50306 0.05972 0.09992
 C52 C 0.51015 0.09796 0.09132
 C53 C 0.51229 0.10277 0.05191
 C54 C 0.50983 0.06869 0.02047
 H55 H 0.47454 -0.10226 -0.09091
 H56 H 0.48591 0.02476 -0.04975
 H57 H 0.50760 -0.04880 0.02685
 H58 H 0.48923 -0.00306 0.07573
 H59 H 0.51428 0.12427 0.11535
 H60 H 0.51343 0.07338 -0.00962
 C61 C -0.09513 0.49919 1.07879
 C62 C -0.10266 0.49630 1.03935
 C63 C -0.07116 0.49647 1.00926
 C64 C -0.03193 0.50287 1.01862
 C65 C -0.02518 0.50842 1.05907
 C66 C -0.05652 0.50525 1.08907
 C67 C 0.00177 0.50387 0.98650
 C68 C 0.03834 0.49495 0.99190
 C69 C 0.07044 0.49696 0.96256
 C70 C 0.06494 0.50463 0.92577
 C71 C 0.02834 0.51186 0.91886
 C72 C -0.00234 0.51325 0.94993
 H73 H -0.11965 0.49630 1.10148
 H74 H -0.07765 0.49217 0.97871
 H75 H 0.00443 0.51589 1.06774
 H76 H 0.04217 0.48586 1.01877
 H77 H 0.08913 0.50484 0.90243
 H78 H -0.02930 0.52192 0.94515
 C79 C -0.06948 -0.08544 0.49896
 C80 C -0.03043 -0.09219 0.49451
 C81 C -0.00027 -0.06051 0.48909
 C82 C -0.00808 -0.02144 0.49203
 C83 C -0.04794 -0.01601 0.49553
 C84 C -0.07859 -0.04840 0.49693
 C85 C 0.02559 0.01264 0.49082
 C86 C 0.02066 0.04893 0.48181
 C87 C 0.05232 0.08056 0.48100
 C88 C 0.08983 0.07459 0.48659
 C89 C 0.09551 0.03961 0.49673
 C90 C 0.06328 0.00935 0.49972
 H91 H -0.09332 -0.10912 0.50376
 H92 H 0.02941 -0.06689 0.48183
 H93 H -0.05569 0.01282 0.49639
 H94 H -0.00773 0.05327 0.47604
 H95 H 0.11498 0.09746 0.48324
 H96 H 0.06798 -0.01618 0.51012
 C97 C -0.35025 0.54227 1.05605
 C98 C -0.32355 0.52185 1.02723
 C99 C -0.33767 0.49946 0.99064
 C100 C -0.37660 0.49832 0.98333
 C101 C -0.40268 0.51822 1.01245
 C102 C -0.38912 0.54024 1.04873
 C103 C -0.31315 0.47766 0.96174
 C104 C -0.27506 0.47651 0.96866
 C105 C -0.25961 0.49785 1.00474
 C106 C -0.28377 0.52212 1.03383
 C107 C -0.26727 0.54606 1.06841
 C108 C -0.22902 0.54544 1.07506
 C109 C -0.20579 0.52059 1.04798
 C110 C -0.22065 0.49615 1.01254
 C111 C -0.19591 0.47071 0.98674
 C112 C -0.15794 0.47041 0.99553
 C113 C -0.14336 0.49525 1.03024
 C114 C -0.16756 0.52025 1.05627
 H115 H -0.34252 0.55916 1.08505
 H116 H -0.38696 0.48072 0.95531
 H117 H -0.40876 0.55570 1.07183
 H118 H -0.32373 0.46073 0.93359
 H119 H -0.25819 0.45898 0.94469
 H120 H -0.28294 0.56634 1.09080
 H121 H -0.21760 0.56445 1.10201
 H122 H -0.20513 0.45018 0.95986
 H123 H -0.14009 0.45029 0.97525
 H124 H -0.15639 0.54004 1.08297
 C125 C 0.32281 0.46323 0.93393
 C126 C 0.29407 0.47506 0.96569
 C127 C 0.30680 0.49133 1.00432
 C128 C 0.34648 0.49521 1.01057
 C129 C 0.37478 0.48409 0.97864
 C130 C 0.36232 0.46778 0.94036
 C131 C 0.28003 0.50431 1.03656
 C132 C 0.24104 0.50320 1.03117
 C133 C 0.22702 0.48850 0.99313
 C134 C 0.25350 0.47239 0.96026
 C135 C 0.23851 0.45425 0.92314
 C136 C 0.19958 0.45369 0.91767
 C137 C 0.17417 0.47174 0.94861
 C138 C 0.18742 0.48941 0.98682
 C139 C 0.16075 0.50845 1.01676
 C140 C 0.12291 0.51004 1.00886
 C141 C 0.10997 0.49253 0.97107
 C142 C 0.13570 0.47287 0.94124
 H143 H 0.31604 0.45137 0.90348
 H144 H 0.35535 0.50792 1.04044
 H145 H 0.38321 0.45883 0.91492
 H146 H 0.28948 0.51619 1.06629
 H147 H 0.22244 0.51375 1.05775
 H148 H 0.25608 0.43975 0.89760
 H149 H 0.18949 0.43968 0.88854
 H150 H 0.16854 0.52373 1.04623
 H151 H 0.10406 0.52624 1.03225
 H152 H 0.12596 0.45879 0.91199
 C153 C -0.04994 -0.35166 0.49746
 C154 C -0.01952 -0.31866 0.49707
 C155 C 0.01894 -0.32378 0.50175
 C156 C 0.02700 -0.36168 0.50255
 C157 C -0.00329 -0.39468 0.50121
 C158 C -0.04196 -0.38877 0.49997
 C159 C 0.04917 -0.29106 0.50546
 C160 C 0.04187 -0.25312 0.50540
 C161 C 0.00430 -0.24687 0.49952
 C162 C -0.02619 -0.28064 0.49289
 C163 C -0.06178 -0.27570 0.48076
 C164 C -0.06783 -0.23866 0.47645
 C165 C -0.03953 -0.20481 0.48593
 C166 C -0.00354 -0.20817 0.49875
 C167 C 0.02270 -0.17252 0.51118
 C168 C 0.01379 -0.13532 0.51003
 C169 C -0.02104 -0.13221 0.49544
 C170 C -0.04731 -0.16749 0.48300
 H171 H -0.08037 -0.34944 0.49681
 H172 H 0.05693 -0.36525 0.50470
 H173 H -0.06627 -0.41324 0.49968
 H174 H 0.07870 -0.29470 0.50903
 H175 H 0.06676 -0.22943 0.50822
 H176 H -0.08495 -0.30044 0.47268
 H177 H -0.09536 -0.23637 0.46640
 H178 H 0.04959 -0.17228 0.52356
 H179 H 0.03411 -0.10883 0.52148
 H180 H -0.07413 -0.16622 0.47104
 C181 C 0.08031 0.34500 0.49738
 C182 C 0.05217 0.31082 0.48490
 C183 C 0.01860 0.31636 0.46903
 C184 C 0.01205 0.35509 0.46927
 C185 C 0.03946 0.38868 0.48343
 C186 C 0.07402 0.38319 0.49642
 C187 C -0.00834 0.28328 0.45332
 C188 C -0.00267 0.24463 0.45283
 C189 C 0.02945 0.23765 0.46972
 C190 C 0.05634 0.27146 0.48752
 C191 C 0.08552 0.26505 0.50886
 C192 C 0.08884 0.22691 0.51216
 C193 C 0.06425 0.19351 0.49318
 C194 C 0.03488 0.19811 0.47076
 C195 C 0.01244 0.16285 0.45019
 C196 C 0.01835 0.12488 0.45290
 C197 C 0.04639 0.12068 0.47656
 C198 C 0.06895 0.15545 0.49679
 H199 H 0.10779 0.34318 0.50743
 H200 H -0.01435 0.35913 0.45824
 H201 H 0.09589 0.40869 0.50693
 H202 H -0.03401 0.28729 0.44100
 H203 H -0.02499 0.22078 0.44046
 H204 H 0.10533 0.28920 0.52491
 H205 H 0.11125 0.22352 0.52951
 H206 H -0.00917 0.16358 0.43092
 H207 H 0.00114 0.09878 0.43595
 H208 H 0.09020 0.15314 0.51598
 C209 C 0.49389 -0.07287 -0.34306
 C210 C 0.48939 -0.04161 -0.30900
 C211 C 0.48405 -0.00420 -0.31521
 C212 C 0.48707 0.00244 -0.35425
 C213 C 0.49286 -0.02860 -0.38790
 C214 C 0.49510 -0.06654 -0.38163
 C215 C 0.47567 0.02633 -0.28240
 C216 C 0.47204 0.02038 -0.24353
 C217 C 0.47868 -0.01583 -0.23584
 C218 C 0.48952 -0.04647 -0.26907
 C219 C 0.50178 -0.08018 -0.26133
 C220 C 0.50301 -0.08404 -0.22245
 C221 C 0.49038 -0.05552 -0.18976
 C222 C 0.47659 -0.02180 -0.19595
 C223 C 0.46102 0.00433 -0.16190
 C224 C 0.46123 -0.00173 -0.12331
 C225 C 0.47779 -0.03343 -0.11704
 C226 C 0.49194 -0.06041 -0.15084
 H227 H 0.49553 -0.10290 -0.34084
 H228 H 0.48407 0.03168 -0.35830
 H229 H 0.49880 -0.09150 -0.40668
 H230 H 0.47140 0.05502 -0.28682
 H231 H 0.46578 0.04549 -0.21983
 H232 H 0.51251 -0.10325 -0.28487
 H233 H 0.51366 -0.10990 -0.21795
 H234 H 0.44754 0.02913 -0.16425
 H235 H 0.44820 0.01867 -0.09841
 H236 H 0.50516 -0.08500 -0.14714
 C237 C 0.52814 -0.02445 0.32076
 C238 C 0.51775 0.00947 0.31124
 C239 C 0.50581 0.03997 0.34351
 C240 C 0.50554 0.03682 0.38345
 C241 C 0.51558 0.00280 0.39216
 C242 C 0.52678 -0.02770 0.36045
 C243 C 0.49360 0.07318 0.33581
 C244 C 0.49197 0.07650 0.29679
 C245 C 0.50341 0.04697 0.26358
 C246 C 0.51802 0.01374 0.27092
 C247 C 0.53292 -0.01378 0.23776
 C248 C 0.53283 -0.00956 0.19879
 C249 C 0.51713 0.02163 0.19105
 C250 C 0.50154 0.04997 0.22321
 C251 C 0.48433 0.07990 0.21349
 C252 C 0.48416 0.08238 0.17374
 C253 C 0.50116 0.05533 0.14212
 C254 C 0.51722 0.02471 0.15116
 H255 H 0.53636 -0.04962 0.29830
 H256 H 0.49618 0.06029 0.40778
 H257 H 0.53443 -0.05444 0.36635
 H258 H 0.48466 0.09672 0.36030
 H259 H 0.48240 0.10324 0.29366
 H260 H 0.54591 -0.03855 0.24090
 H261 H 0.54499 -0.03122 0.17436
 H262 H 0.47011 0.10149 0.23582
 H263 H 0.47034 0.10557 0.16778
 H264 H 0.53058 0.00359 0.12711
 C265 C 0.51032 -0.34000 -0.06532
 C266 C 0.49981 -0.30826 -0.03371
 C267 C 0.48592 -0.31747 0.00411
 C268 C 0.48350 -0.35649 0.00986
 C269 C 0.49415 -0.38746 -0.02170
 C270 C 0.50745 -0.37880 -0.05930
 C271 C 0.47431 -0.28779 0.03613
 C272 C 0.47547 -0.24907 0.03151
 C273 C 0.48878 -0.23817 -0.00549
 C274 C 0.50214 -0.26800 -0.03837
 C275 C 0.51765 -0.25648 -0.07464
 C276 C 0.51923 -0.21759 -0.07909
 C277 C 0.50502 -0.18862 -0.04790
 C278 C 0.48943 -0.19837 -0.01066
 C279 C 0.47464 -0.16789 0.01962
 C280 C 0.47545 -0.12966 0.01305
 C281 C 0.49107 -0.12019 -0.02374
 C282 C 0.50609 -0.14990 -0.05398
 H283 H 0.52037 -0.33611 -0.09525
 H284 H 0.47287 -0.36278 0.03909
 H285 H 0.51571 -0.40215 -0.08431
 H286 H 0.46389 -0.29464 0.06517
 H287 H 0.46610 -0.22817 0.05793
 H288 H 0.52936 -0.27677 -0.10029
 H289 H 0.53141 -0.21023 -0.10755
 H290 H 0.46143 -0.17267 0.04851
 H291 H 0.46293 -0.10762 0.03672
 H292 H 0.51873 -0.14289 -0.08246
 C293 C 0.46195 0.34896 0.06139
 C294 C 0.48223 0.31991 0.03472
 C295 C 0.50148 0.32959 -0.00149
 C296 C 0.49958 0.36645 -0.01062
 C297 C 0.47969 0.39490 0.01638
 C298 C 0.46096 0.38574 0.05235
 C299 C 0.52302 0.30273 -0.02820
 C300 C 0.52657 0.26659 -0.01962
 C301 C 0.50803 0.25541 0.01597
 C302 C 0.48455 0.28201 0.04303
 C303 C 0.46375 0.26964 0.07721
 C304 C 0.46608 0.23291 0.08506
 C305 C 0.48963 0.20718 0.05967
 C306 C 0.51148 0.21814 0.02507
 C307 C 0.53585 0.19119 0.00114
 C308 C 0.53698 0.15445 0.01040
 C309 C 0.51411 0.14325 0.04381
 C310 C 0.49089 0.17014 0.06854
 H311 H 0.44731 0.34477 0.08999
 H312 H 0.51471 0.37350 -0.03831
 H313 H 0.44558 0.40729 0.07387
 H314 H 0.53769 0.30989 -0.05599
 H315 H 0.54360 0.24765 -0.04204
 H316 H 0.44454 0.28730 0.09829
 H317 H 0.44920 0.22458 0.11147
 H318 H 0.55462 0.19762 -0.02481
 H319 H 0.55590 0.13469 -0.00875
 H320 H 0.47272 0.16174 0.09429
 C321 C -0.31679 0.02858 0.52330
 C322 C -0.29862 -0.00554 0.50543
 C323 C -0.32247 -0.03986 0.48494
 C324 C -0.36276 -0.04018 0.48382
 C325 C -0.38041 -0.00649 0.50240
 C326 C -0.35691 0.02799 0.52170
 C327 C -0.30618 -0.07398 0.46585
 C328 C -0.26662 -0.07506 0.46639
 C329 C -0.24147 -0.04196 0.48656
 C330 C -0.25786 -0.00689 0.50714
 C331 C -0.23314 0.02518 0.52936
 C332 C -0.19391 0.02313 0.53151
 C333 C -0.17731 -0.01051 0.51104
 C334 C -0.20066 -0.04320 0.48760
 C335 C -0.18206 -0.07584 0.46600
 C336 C -0.14275 -0.07670 0.46906
 C337 C -0.12015 -0.04527 0.49363
 C338 C -0.13750 -0.01178 0.51404
 H339 H -0.30087 0.05630 0.53858
 H340 H -0.38048 -0.06695 0.46841
 H341 H -0.36966 0.05460 0.53614
 H342 H -0.32431 -0.10034 0.45028
 H343 H -0.25693 -0.10295 0.45136
 H344 H -0.24347 0.05217 0.54632
 H345 H -0.17631 0.04829 0.54943
 H346 H -0.19676 -0.10109 0.44594
 H347 H -0.12981 -0.10229 0.45168
 H348 H -0.12029 0.01294 0.53286
 C349 C 0.32580 -0.04737 0.48679
 C350 C 0.30875 -0.01228 0.50360
 C351 C 0.33351 0.02190 0.52297
 C352 C 0.37353 0.02108 0.52418
 C353 C 0.39013 -0.01349 0.50643
 C354 C 0.36575 -0.04783 0.48826
 C355 C 0.31849 0.05709 0.54070
 C356 C 0.27946 0.05968 0.53911
 C357 C 0.25359 0.02702 0.51934
 C358 C 0.26838 -0.00968 0.50146
 C359 C 0.24251 -0.04219 0.48142
 C360 C 0.20395 -0.03883 0.47807
 C361 C 0.18931 -0.00315 0.49470
 C362 C 0.21364 0.03014 0.51613
 C363 C 0.19701 0.06541 0.53294
 C364 C 0.15867 0.06786 0.52725
 C365 C 0.13527 0.03538 0.50489
 C366 C 0.15056 -0.00038 0.48937
 H367 H 0.30926 -0.07495 0.47202
 H368 H 0.39194 0.04779 0.53873
 H369 H 0.37771 -0.07505 0.47446
 H370 H 0.33727 0.08321 0.55576
 H371 H 0.27074 0.08821 0.55334
 H372 H 0.25131 -0.07073 0.46733
 H373 H 0.18544 -0.06446 0.46187
 H374 H 0.21272 0.09189 0.55048
 H375 H 0.14727 0.09552 0.54041
 H376 H 0.13268 -0.02572 0.47199
 C377 C 0.03679 0.47722 1.30901
 C378 C 0.00215 0.48625 1.29814
 C379 C -0.02830 0.49554 1.32898
 C380 C -0.02468 0.49395 1.36840
 C381 C 0.00980 0.48523 1.37861
 C382 C 0.04062 0.47723 1.34879
 C383 C -0.06201 0.50708 1.32060
 C384 C -0.06587 0.51083 1.28234
 C385 C -0.03653 0.50188 1.25052
 C386 C -0.00300 0.48732 1.25806
 C387 C 0.02365 0.47344 1.22521
 C388 C 0.01796 0.47419 1.18638
 C389 C -0.01349 0.49029 1.17892
 C390 C -0.04038 0.50565 1.21104
 C391 C -0.06987 0.52457 1.20236
 C392 C -0.07404 0.52559 1.16311
 C393 C -0.04928 0.50761 1.13106
 C394 C -0.01850 0.49068 1.13937
 H395 H 0.06197 0.47146 1.28779
 H396 H -0.04824 0.50124 1.39164
 H397 H 0.06779 0.47105 1.35627
 H398 H -0.08547 0.51393 1.34405
 H399 H -0.09302 0.51949 1.27831
 H400 H 0.04849 0.46031 1.22840
 H401 H 0.03864 0.46236 1.16194
 H402 H -0.08968 0.53960 1.22532
 H403 H -0.09693 0.54055 1.15789
 H404 H 0.00109 0.47684 1.11499
 C405 C 0.06701 0.54260 0.66579
 C406 C 0.03507 0.52992 0.69244
 C407 C -0.00091 0.51171 0.67629
 C408 C -0.00446 0.50678 0.63534
 C409 C 0.02765 0.51895 0.60938
 C410 C 0.06325 0.53708 0.62506
 C411 C -0.03310 0.49788 0.70088
 C412 C -0.03007 0.50013 0.74099
 C413 C 0.00540 0.51680 0.75835
 C414 C 0.03792 0.53362 0.73415
 C415 C 0.07220 0.55342 0.75244
 C416 C 0.07549 0.55486 0.79236
 C417 C 0.04511 0.53622 0.81556
 C418 C 0.00953 0.51705 0.79906
 C419 C -0.01995 0.49776 0.82370
 C420 C -0.01395 0.49710 0.86259
 C421 C 0.02137 0.51582 0.87860
 C422 C 0.05054 0.53594 0.85504
 H423 H 0.09564 0.55594 0.67512
 H424 H -0.03216 0.49256 0.62355
 H425 H 0.08861 0.54674 0.60570
 H426 H -0.06084 0.48447 0.68883
 H427 H -0.05641 0.48874 0.75771
 H428 H 0.09714 0.56850 0.73676
 H429 H 0.10255 0.57004 0.80496
 H430 H -0.04748 0.48160 0.81352
 H431 H -0.03672 0.48059 0.87975
 H432 H 0.07783 0.55096 0.86722
   
