data_POSCAR
  _audit_creation_date              2014-09-24
  _audit_creation_method            'ToBaCCo'
  _symmetry_space_group_name_H-M    'P1'
  _symmetry_Int_Tables_number       1
  _symmetry_cell_setting            triclinic
  loop_
  _symmetry_equiv_pos_as_xyz
 x,y,z
_cell_length_a 50.0205
_cell_length_b 44.0751
_cell_length_c 19.8191
_cell_angle_alpha 90.354200
_cell_angle_beta 89.720300
_cell_angle_gamma 90.365000
loop_
  _atom_site_label
  _atom_site_type_symbol
  _atom_site_fract_x
  _atom_site_fract_y
  _atom_site_fract_z
O1 O 0.27589 0.22036 0.23151
 O2 O 0.22529 0.27971 0.21383
 O3 O 0.27574 0.27887 0.24440
 O4 O 0.22455 0.22085 0.20421
 O5 O 0.21498 0.21710 0.31245
 O6 O 0.26549 0.27516 0.35240
 O7 O 0.21488 0.27578 0.32172
 O8 O 0.26618 0.21650 0.33979
 Cu9 Cu 0.25133 0.25021 0.21264
 Cu10 Cu 0.23939 0.24565 0.34238
 C11 C 0.28014 0.20869 0.28883
 C12 C 0.21134 0.28787 0.26438
 C13 C 0.27940 0.28686 0.30544
 C14 C 0.21063 0.20935 0.25162
 O15 O 0.78419 0.28116 0.31842
 O16 O 0.72933 0.22639 0.34984
 O17 O 0.78060 0.22262 0.32280
 O18 O 0.73365 0.28530 0.34942
 O19 O 0.72381 0.28498 0.24108
 O20 O 0.77117 0.22207 0.21421
 O21 O 0.72003 0.22623 0.24132
 O22 O 0.77434 0.28074 0.21006
 Cu23 Cu 0.75783 0.25383 0.34602
 Cu24 Cu 0.74635 0.25339 0.21587
 C25 C 0.78876 0.29010 0.25854
 C26 C 0.71502 0.21718 0.30080
 C27 C 0.78439 0.21201 0.26387
 C28 C 0.72062 0.29585 0.30013
 O29 O 0.73169 0.77367 0.64847
 O30 O 0.78479 0.71670 0.67241
 O31 O 0.73434 0.71467 0.64096
 O32 O 0.78299 0.77535 0.67480
 O33 O 0.77331 0.77351 0.78327
 O34 O 0.72402 0.71253 0.74916
 O35 O 0.77459 0.71464 0.78067
 O36 O 0.72233 0.77132 0.75714
 Cu37 Cu 0.75936 0.74536 0.64827
 Cu38 Cu 0.74755 0.74281 0.77836
 C39 C 0.71782 0.78210 0.69913
 C40 C 0.78886 0.70613 0.73104
 C41 C 0.72079 0.70322 0.68885
 C42 C 0.78692 0.78460 0.73477
 O43 O 0.27762 0.78471 0.78028
 O44 O 0.23162 0.72197 0.82107
 O45 O 0.28158 0.72617 0.78527
 O46 O 0.22711 0.78067 0.81496
 O47 O 0.21575 0.77694 0.70797
 O48 O 0.27021 0.72279 0.67810
 O49 O 0.22012 0.71837 0.71401
 O50 O 0.26603 0.78146 0.67322
 Cu51 Cu 0.25559 0.75381 0.81113
 Cu52 Cu 0.24188 0.74959 0.68261
 C53 C 0.27998 0.79358 0.71968
 C54 C 0.21794 0.70945 0.77466
 C55 C 0.28531 0.71528 0.72647
 C56 C 0.21184 0.78793 0.76661
 C57 C 0.99514 0.07027 0.08937
 C58 C 1.01937 0.05894 0.06438
 C59 C 1.01943 0.03170 0.02721
 C60 C 0.99576 0.01442 0.01862
 C61 C 0.97180 0.02613 0.04609
 C62 C 0.97119 0.05439 0.07894
 C63 C 0.99594 -0.01551 -0.01858
 C64 C 0.97210 -0.02801 -0.04519
 C65 C 0.97184 -0.05636 -0.07760
 C66 C 0.99592 -0.07166 -0.08818
 C67 C 1.02003 -0.05960 -0.06391
 C68 C 1.01980 -0.03213 -0.02755
 H69 H 0.99487 0.09203 0.11514
 H70 H 1.03819 0.02422 0.00592
 H71 H 0.95328 0.01349 0.04319
 H72 H 0.95340 -0.01598 -0.04183
 H73 H 0.99576 -0.09358 -0.11326
 H74 H 1.03845 -0.02400 -0.00684
 C75 C 0.49855 0.56698 0.58450
 C76 C 0.52245 0.55123 0.57396
 C77 C 0.52239 0.52541 0.53214
 C78 C 0.49918 0.51629 0.49692
 C79 C 0.47559 0.53319 0.50704
 C80 C 0.47496 0.55792 0.55209
 C81 C 0.49973 0.48953 0.44955
 C82 C 0.47615 0.47313 0.43418
 C83 C 0.47655 0.44856 0.38870
 C84 C 0.50099 0.43913 0.36120
 C85 C 0.52483 0.45430 0.37720
 C86 C 0.52393 0.47996 0.41941
 H87 H 0.49849 0.58717 0.61598
 H88 H 0.54066 0.51258 0.52778
 H89 H 0.45751 0.52737 0.48019
 H90 H 0.45730 0.47920 0.45720
 H91 H 0.50155 0.41907 0.32936
 H92 H 0.54233 0.49235 0.42798
 C93 C 0.00477 0.43214 0.09233
 C94 C -0.01953 0.44147 0.06474
 C95 C -0.01985 0.46661 0.02157
 C96 C 0.00357 0.48374 0.00877
 C97 C 0.02757 0.47436 0.03926
 C98 C 0.02853 0.44805 0.07880
 C99 C 0.00305 0.51087 -0.03686
 C100 C 0.02650 0.52102 -0.07002
 C101 C 0.02627 0.54669 -0.11152
 C102 C 0.00206 0.56144 -0.12342
 C103 C -0.02165 0.55156 -0.09254
 C104 C -0.02088 0.52692 -0.04798
 H105 H 0.00531 0.41163 0.12214
 H106 H -0.03855 0.47254 -0.00175
 H107 H 0.04579 0.48735 0.03284
 H108 H 0.04515 0.50904 -0.06467
 H109 H 0.00184 0.58149 -0.15477
 H110 H -0.03914 0.52048 -0.02242
 C111 C 0.50195 0.93086 0.60474
 C112 C 0.47785 0.94673 0.60164
 C113 C 0.47729 0.97500 0.56965
 C114 C 0.50023 0.98695 0.53733
 C115 C 0.52404 0.96989 0.53904
 C116 C 0.52518 0.94237 0.57423
 C117 C 0.49930 1.01712 0.50273
 C118 C 0.52256 1.03508 0.49514
 C119 C 0.52178 1.06311 0.46189
 C120 C 0.49721 1.07414 0.43906
 C121 C 0.47363 1.05730 0.44833
 C122 C 0.47499 1.02851 0.47790
 H123 H 0.50248 0.90898 0.62935
 H124 H 0.45885 0.98764 0.57136
 H125 H 0.54191 0.97789 0.51377
 H126 H 0.54148 1.02750 0.51479
 H127 H 0.49635 1.09641 0.41632
 H128 H 0.45683 1.01514 0.48087
 C129 C 1.15164 0.15878 0.27553
 C130 C 1.14450 0.15128 0.20844
 C131 C 1.16158 0.16156 0.15595
 C132 C 1.18383 0.18016 0.17036
 C133 C 1.18981 0.18873 0.23709
 C134 C 1.17375 0.17714 0.28934
 C135 C 1.15617 0.15360 0.08916
 C136 C 1.13402 0.13586 0.07296
 C137 C 1.11590 0.12582 0.12307
 C138 C 1.12100 0.13413 0.19183
 C139 C 1.10203 0.12584 0.24152
 C140 C 1.07897 0.10992 0.22501
 C141 C 1.07396 0.10114 0.15866
 C142 C 1.09247 0.10840 0.10668
 C143 C 1.08661 0.09787 0.04056
 C144 C 1.06311 0.08163 0.02694
 C145 C 1.04463 0.07551 0.07839
 C146 C 1.05031 0.08518 0.14416
 H147 H 1.14065 0.15079 0.31882
 H148 H 1.19620 0.18838 0.12916
 H149 H 1.17793 0.18264 0.34162
 H150 H 1.16920 0.16126 0.04875
 H151 H 1.13128 0.13110 0.02009
 H152 H 1.10396 0.13206 0.29387
 H153 H 1.06485 0.10444 0.26485
 H154 H 1.09982 0.10153 -0.00171
 H155 H 1.05916 0.07422 -0.02429
 H156 H 1.03629 0.07996 0.18445
 C157 C 0.68050 0.64473 0.59215
 C158 C 0.66018 0.63653 0.63869
 C159 C 0.66100 0.65001 0.70384
 C160 C 0.68134 0.67082 0.72095
 C161 C 0.70079 0.67929 0.67340
 C162 C 0.70028 0.66578 0.60930
 C163 C 0.64113 0.64329 0.75110
 C164 C 0.61967 0.62462 0.73430
 C165 C 0.61736 0.61150 0.66936
 C166 C 0.63861 0.61639 0.62190
 C167 C 0.63739 0.60133 0.55888
 C168 C 0.61534 0.58395 0.54073
 C169 C 0.59357 0.58090 0.58429
 C170 C 0.59433 0.59413 0.64970
 C171 C 0.57148 0.59039 0.69147
 C172 C 0.54864 0.57540 0.66792
 C173 C 0.54779 0.56335 0.60242
 C174 C 0.57066 0.56547 0.56163
 H175 H 0.68131 0.63611 0.54125
 H176 H 0.68145 0.68123 0.77066
 H177 H 0.71509 0.67182 0.57154
 H178 H 0.64182 0.65318 0.80128
 H179 H 0.60513 0.62093 0.77367
 H180 H 0.65322 0.60250 0.52198
 H181 H 0.61508 0.57337 0.49119
 H182 H 0.57017 0.59964 0.74177
 H183 H 0.53131 0.57375 0.70073
 H184 H 0.57012 0.55652 0.51055
 C185 C -0.14883 0.33816 0.28198
 C186 C -0.14308 0.34793 0.21539
 C187 C -0.16122 0.33923 0.16391
 C188 C -0.18360 0.32104 0.17869
 C189 C -0.18857 0.31095 0.24452
 C190 C -0.17114 0.31999 0.29600
 C191 C -0.15683 0.34835 0.09759
 C192 C -0.13456 0.36559 0.08046
 C193 C -0.11552 0.37442 0.12925
 C194 C -0.11994 0.36565 0.19798
 C195 C -0.10094 0.37457 0.24680
 C196 C -0.07826 0.39106 0.22933
 C197 C -0.07350 0.39946 0.16268
 C198 C -0.09206 0.39153 0.11156
 C199 C -0.08615 0.40092 0.04478
 C200 C -0.06281 0.41714 0.02985
 C201 C -0.04452 0.42458 0.08060
 C202 C -0.05010 0.41574 0.14698
 H203 H -0.13644 0.34385 0.32452
 H204 H -0.19700 0.31435 0.13832
 H205 H -0.17450 0.31263 0.34741
 H206 H -0.17073 0.34188 0.05814
 H207 H -0.13284 0.37143 0.02799
 H208 H -0.10282 0.36900 0.29940
 H209 H -0.06417 0.39719 0.26860
 H210 H -0.09897 0.39603 0.00260
 H211 H -0.05885 0.42346 -0.02199
 H212 H -0.03620 0.42178 0.18678
 C213 C 0.32020 0.85146 0.62086
 C214 C 0.34067 0.85970 0.66677
 C215 C 0.33992 0.84642 0.73176
 C216 C 0.31945 0.82600 0.74951
 C217 C 0.29980 0.81748 0.70278
 C218 C 0.30027 0.83060 0.63863
 C219 C 0.35998 0.85295 0.77831
 C220 C 0.38161 0.87120 0.76088
 C221 C 0.38383 0.88415 0.69612
 C222 C 0.36232 0.87967 0.64963
 C223 C 0.36327 0.89516 0.58751
 C224 C 0.38519 0.91287 0.56952
 C225 C 0.40722 0.91548 0.61198
 C226 C 0.40693 0.90128 0.67602
 C227 C 0.43025 0.90384 0.71607
 C228 C 0.45289 0.91926 0.69266
 C229 C 0.45303 0.93297 0.62920
 C230 C 0.42991 0.93154 0.58972
 H231 H 0.31948 0.85983 0.56998
 H232 H 0.31944 0.81581 0.79918
 H233 H 0.28538 0.82438 0.60145
 H234 H 0.35930 0.84324 0.82842
 H235 H 0.39622 0.87496 0.79982
 H236 H 0.34719 0.89428 0.55160
 H237 H 0.38514 0.92405 0.52095
 H238 H 0.43207 0.89326 0.76464
 H239 H 0.47056 0.92014 0.72403
 H240 H 0.43005 0.94173 0.54004
 C241 C -0.15052 0.65654 -0.29861
 C242 C -0.14508 0.64546 -0.23307
 C243 C -0.16279 0.65394 -0.18027
 C244 C -0.18457 0.67297 -0.19283
 C245 C -0.18923 0.68431 -0.25760
 C246 C -0.17218 0.67563 -0.31037
 C247 C -0.15855 0.64380 -0.11478
 C248 C -0.13665 0.62600 -0.09964
 C249 C -0.11794 0.61749 -0.14974
 C250 C -0.12253 0.62684 -0.21787
 C251 C -0.10428 0.61751 -0.26833
 C252 C -0.08193 0.60050 -0.25283
 C253 C -0.07671 0.59209 -0.18657
 C254 C -0.09466 0.60017 -0.13395
 C255 C -0.08819 0.59095 -0.06757
 C256 C -0.06482 0.57490 -0.05442
 C257 C -0.04708 0.56744 -0.10663
 C258 C -0.05336 0.57584 -0.17271
 H259 H -0.13826 0.65136 -0.34189
 H260 H -0.19766 0.67943 -0.15145
 H261 H -0.17530 0.68400 -0.36098
 H262 H -0.17219 0.65001 -0.07438
 H263 H -0.13498 0.61936 -0.04769
 H264 H -0.10657 0.62304 -0.32078
 H265 H -0.06837 0.59413 -0.29328
 H266 H -0.10046 0.59613 -0.02431
 H267 H -0.06030 0.56894 -0.00280
 H268 H -0.03992 0.56976 -0.21364
 C269 C 0.34322 1.16435 0.25308
 C270 C 0.34803 1.14974 0.31526
 C271 C 0.32840 1.15280 0.36673
 C272 C 0.30596 1.17133 0.35733
 C273 C 0.30227 1.18682 0.29659
 C274 C 0.32079 1.18253 0.24419
 C275 C 0.33147 1.13783 0.42788
 C276 C 0.35382 1.12020 0.43989
 C277 C 0.37447 1.11729 0.39144
 C278 C 0.37167 1.13260 0.32836
 C279 C 0.39301 1.13118 0.28149
 C280 C 0.41640 1.11577 0.29588
 C281 C 0.41939 1.10064 0.35684
 C282 C 0.39825 1.10043 0.40484
 C283 C 0.40201 1.08358 0.46466
 C284 C 0.42615 1.06903 0.47738
 C285 C 0.44736 1.07061 0.43118
 C286 C 0.44369 1.08607 0.37047
 H287 H 0.35638 1.16230 0.21016
 H288 H 0.29155 1.17408 0.39795
 H289 H 0.31832 1.19389 0.19633
 H290 H 0.31647 1.13994 0.46728
 H291 H 0.35464 1.10989 0.48892
 H292 H 0.39269 1.14260 0.23366
 H293 H 0.43244 1.11590 0.25888
 H294 H 0.38679 1.08117 0.50285
 H295 H 0.42848 1.05717 0.52468
 H296 H 0.45986 1.08690 0.33387
 C297 C 1.15060 -0.16675 -0.26336
 C298 C 1.14453 -0.15530 -0.19820
 C299 C 1.16254 -0.16202 -0.14541
 C300 C 1.18502 -0.18032 -0.15744
 C301 C 1.19024 -0.19236 -0.22197
 C302 C 1.17292 -0.18490 -0.27477
 C303 C 1.15793 -0.15074 -0.08057
 C304 C 1.13565 -0.13315 -0.06636
 C305 C 1.11674 -0.12629 -0.11661
 C306 C 1.12121 -0.13766 -0.18362
 C307 C 1.10196 -0.13152 -0.23352
 C308 C 1.07911 -0.11509 -0.21879
 C309 C 1.07447 -0.10385 -0.15402
 C310 C 1.09327 -0.10887 -0.10197
 C311 C 1.08757 -0.09631 -0.03744
 C312 C 1.06406 -0.08015 -0.02534
 C313 C 1.04540 -0.07596 -0.07679
 C314 C 1.05090 -0.08770 -0.14112
 H315 H 1.13855 -0.16225 -0.30696
 H316 H 1.19825 -0.18549 -0.11591
 H317 H 1.17636 -0.19339 -0.32548
 H318 H 1.17168 -0.15569 -0.04003
 H319 H 1.13367 -0.12565 -0.01481
 H320 H 1.10363 -0.13951 -0.28476
 H321 H 1.06480 -0.11125 -0.25872
 H322 H 1.10078 -0.09852 0.00493
 H323 H 1.06022 -0.07135 0.02491
 H324 H 1.03676 -0.08407 -0.18156
 C325 C 0.67951 0.35567 0.38982
 C326 C 0.66114 0.36462 0.33967
 C327 C 0.66369 0.35123 0.27470
 C328 C 0.68367 0.32968 0.26136
 C329 C 0.70112 0.32047 0.31230
 C330 C 0.69900 0.33397 0.37623
 C331 C 0.64590 0.35882 0.22369
 C332 C 0.62475 0.37832 0.23633
 C333 C 0.62063 0.39134 0.30082
 C334 C 0.63981 0.38545 0.35246
 C335 C 0.63678 0.40021 0.41546
 C336 C 0.61483 0.41830 0.42936
 C337 C 0.59496 0.42243 0.38136
 C338 C 0.59769 0.40953 0.31594
 C339 C 0.57673 0.41441 0.26944
 C340 C 0.55368 0.43007 0.28844
 C341 C 0.55076 0.44170 0.35394
 C342 C 0.57187 0.43856 0.39947
 H343 H 0.67896 0.36427 0.44076
 H344 H 0.68506 0.31938 0.21165
 H345 H 0.71224 0.32738 0.41660
 H346 H 0.64798 0.34901 0.17365
 H347 H 0.61188 0.38266 0.19416
 H348 H 0.65104 0.39818 0.45565
 H349 H 0.61308 0.42860 0.47901
 H350 H 0.57701 0.40558 0.21869
 H351 H 0.53776 0.43254 0.25205
 H352 H 0.56969 0.44721 0.45054
 C353 C 0.84503 -0.16381 -0.29240
 C354 C 0.85054 -0.15333 -0.22628
 C355 C 0.83252 -0.16183 -0.17420
 C356 C 0.81124 -0.18198 -0.18734
 C357 C 0.80690 -0.19351 -0.25266
 C358 C 0.82363 -0.18342 -0.30516
 C359 C 0.83602 -0.15055 -0.10896
 C360 C 0.85718 -0.13117 -0.09385
 C361 C 0.87631 -0.12296 -0.14325
 C362 C 0.87332 -0.13489 -0.21014
 C363 C 0.89375 -0.12907 -0.25789
 C364 C 0.91639 -0.11239 -0.24095
 C365 C 0.91933 -0.10007 -0.17650
 C366 C 0.89895 -0.10426 -0.12730
 C367 C 0.90228 -0.08971 -0.06396
 C368 C 0.92553 -0.07336 -0.04914
 C369 C 0.94621 -0.07097 -0.09662
 C370 C 0.94281 -0.08396 -0.16063
 H371 H 0.85674 -0.15710 -0.33563
 H372 H 0.79822 -0.18887 -0.14621
 H373 H 0.82066 -0.19120 -0.35656
 H374 H 0.82226 -0.15685 -0.06892
 H375 H 0.85858 -0.12397 -0.04197
 H376 H 0.89340 -0.13820 -0.30840
 H377 H 0.93186 -0.10921 -0.27881
 H378 H 0.88728 -0.09037 -0.02481
 H379 H 0.92769 -0.06327 0.00054
 H380 H 0.95860 -0.08164 -0.19798
 C381 C 0.32521 0.33844 0.40638
 C382 C 0.34273 0.35021 0.35646
 C383 C 0.33814 0.34135 0.28853
 C384 C 0.31714 0.32137 0.27206
 C385 C 0.30042 0.30945 0.32236
 C386 C 0.30454 0.31843 0.38943
 C387 C 0.35473 0.35210 0.23725
 C388 C 0.37636 0.37083 0.25171
 C389 C 0.38234 0.37973 0.31858
 C390 C 0.36486 0.36988 0.37168
 C391 C 0.37024 0.37978 0.43820
 C392 C 0.39236 0.39776 0.45289
 C393 C 0.41012 0.40659 0.40225
 C394 C 0.40535 0.39793 0.33424
 C395 C 0.42422 0.40737 0.28502
 C396 C 0.44688 0.42409 0.30296
 C397 C 0.45161 0.43216 0.37027
 C398 C 0.43293 0.42367 0.41960
 H399 H 0.32711 0.34373 0.45922
 H400 H 0.31417 0.31463 0.21990
 H401 H 0.29191 0.30965 0.42945
 H402 H 0.35116 0.34565 0.18517
 H403 H 0.38806 0.37790 0.20884
 H404 H 0.35773 0.37401 0.48060
 H405 H 0.39577 0.40453 0.50485
 H406 H 0.42242 0.40191 0.23224
 H407 H 0.46089 0.43071 0.26379
 H408 H 0.43657 0.42956 0.47197
 C409 C 0.17905 0.65109 -0.12484
 C410 C 0.16013 0.64009 -0.17216
 C411 C 0.16143 0.65181 -0.23861
 C412 C 0.18085 0.67358 -0.25621
 C413 C 0.19893 0.68475 -0.20817
 C414 C 0.19797 0.67305 -0.14267
 C415 C 0.14298 0.64230 -0.28689
 C416 C 0.12234 0.62251 -0.27008
 C417 C 0.11948 0.61106 -0.20403
 C418 C 0.13944 0.61881 -0.15520
 C419 C 0.13785 0.60532 -0.09086
 C420 C 0.11655 0.58666 -0.07306
 C421 C 0.09586 0.58085 -0.11823
 C422 C 0.09711 0.59256 -0.18471
 C423 C 0.07527 0.58629 -0.22803
 C424 C 0.05285 0.57030 -0.20509
 C425 C 0.05149 0.55968 -0.13877
 C426 C 0.07344 0.56426 -0.09625
 H427 H 0.17932 0.64395 -0.07300
 H428 H 0.18132 0.68251 -0.30707
 H429 H 0.21170 0.68122 -0.10445
 H430 H 0.14412 0.65081 -0.33804
 H431 H 0.10891 0.61656 -0.31040
 H432 H 0.15284 0.60870 -0.05270
 H433 H 0.11594 0.57732 -0.02259
 H434 H 0.07433 0.59436 -0.27911
 H435 H 0.03618 0.56681 -0.23902
 H436 H 0.07240 0.55640 -0.04454
 C437 C 0.65407 1.17058 0.26906
 C438 C 0.64673 1.16099 0.33462
 C439 C 0.66398 1.16897 0.38852
 C440 C 0.68677 1.18716 0.37716
 C441 C 0.69318 1.19752 0.31208
 C442 C 0.67676 1.18846 0.25824
 C443 C 0.65832 1.15898 0.45369
 C444 C 0.63587 1.14123 0.46689
 C445 C 0.61771 1.13316 0.41533
 C446 C 0.62295 1.14378 0.34836
 C447 C 0.60392 1.13748 0.29765
 C448 C 0.58081 1.12109 0.31135
 C449 C 0.57576 1.10988 0.37572
 C450 C 0.59421 1.11533 0.42863
 C451 C 0.58832 1.10250 0.49248
 C452 C 0.56496 1.08558 0.50310
 C453 C 0.54663 1.08097 0.45085
 C454 C 0.55221 1.09317 0.38727
 H455 H 0.64287 1.16454 0.22467
 H456 H 0.69935 1.19347 0.41948
 H457 H 0.68117 1.19549 0.20707
 H458 H 0.67144 1.16495 0.49516
 H459 H 0.63300 1.13477 0.51872
 H460 H 0.60592 1.14555 0.24672
 H461 H 0.56670 1.11708 0.27082
 H462 H 0.60142 1.10477 0.53517
 H463 H 0.56106 1.07634 0.55272
 H464 H 0.53832 1.08921 0.34625
 C465 C 0.14983 0.33599 0.29418
 C466 C 0.14776 0.35226 0.23292
 C467 C 0.16837 0.34823 0.18435
 C468 C 0.18930 0.32788 0.19583
 C469 C 0.19042 0.31110 0.25552
 C470 C 0.17081 0.31581 0.30504
 C471 C 0.16782 0.36405 0.12379
 C472 C 0.14676 0.38311 0.10881
 C473 C 0.12506 0.38696 0.15383
 C474 C 0.12577 0.37171 0.21746
 C475 C 0.10413 0.37575 0.26261
 C476 C 0.08204 0.39288 0.24526
 C477 C 0.08058 0.40689 0.18256
 C478 C 0.10228 0.40482 0.13648
 C479 C 0.09984 0.42003 0.07404
 C480 C 0.07636 0.43499 0.05696
 C481 C 0.05454 0.43567 0.10142
 C482 C 0.05711 0.42226 0.16499
 H483 H 0.13545 0.33794 0.33452
 H484 H 0.20457 0.32474 0.15744
 H485 H 0.17127 0.30328 0.35187
 H486 H 0.18372 0.36133 0.08690
 H487 H 0.14797 0.39407 0.06053
 H488 H 0.10332 0.36544 0.31166
 H489 H 0.06564 0.39470 0.28101
 H490 H 0.11538 0.42028 0.03632
 H491 H 0.07493 0.44501 0.00735
 H492 H 0.04051 0.42318 0.20034
 C493 C 0.65935 0.83270 0.74172
 C494 C 0.65119 0.84340 0.67789
 C495 C 0.66669 0.83481 0.62083
 C496 C 0.68870 0.81532 0.62777
 C497 C 0.69581 0.80413 0.69125
 C498 C 0.68112 0.81342 0.74796
 C499 C 0.65997 0.84541 0.55701
 C500 C 0.63800 0.86410 0.54812
 C501 C 0.62151 0.87273 0.60294
 C502 C 0.62815 0.86204 0.66888
 C503 C 0.61120 0.86975 0.72346
 C504 C 0.58849 0.88702 0.71427
 C505 C 0.58175 0.89762 0.65065
 C506 C 0.59826 0.89116 0.59403
 C507 C 0.59056 0.90334 0.53096
 C508 C 0.56717 0.92031 0.52464
 C509 C 0.55066 0.92563 0.58062
 C510 C 0.55830 0.91451 0.64354
 H511 H 0.64943 0.83869 0.78817
 H512 H 0.70004 0.80852 0.58350
 H513 H 0.68628 0.80551 0.79785
 H514 H 0.67177 0.83904 0.51320
 H515 H 0.63420 0.87094 0.49703
 H516 H 0.61451 0.86231 0.77430
 H517 H 0.57594 0.89198 0.75767
 H518 H 0.60209 0.90019 0.48547
 H519 H 0.56167 0.92878 0.47546
 H520 H 0.54587 0.91911 0.68739
 C521 C 0.84468 0.16247 0.29263
 C522 C 0.84907 0.14928 0.22823
 C523 C 0.82986 0.15488 0.17745
 C524 C 0.80837 0.17458 0.18979
 C525 C 0.80522 0.18874 0.25281
 C526 C 0.82319 0.18184 0.30441
 C527 C 0.83247 0.14133 0.11409
 C528 C 0.85399 0.12269 0.09922
 C529 C 0.87429 0.11733 0.14695
 C530 C 0.87195 0.13115 0.21228
 C531 C 0.89306 0.12740 0.25855
 C532 C 0.91584 0.11121 0.24145
 C533 C 0.91838 0.09752 0.17823
 C534 C 0.89735 0.09955 0.13069
 C535 C 0.90054 0.08397 0.06846
 C536 C 0.92413 0.06863 0.05306
 C537 C 0.94534 0.06817 0.09886
 C538 C 0.94213 0.08222 0.16189
 H539 H 0.85748 0.15840 0.33511
 H540 H 0.79435 0.17935 0.14972
 H541 H 0.82107 0.19209 0.35396
 H542 H 0.81777 0.14537 0.07519
 H543 H 0.85456 0.11363 0.04868
 H544 H 0.89308 0.13761 0.30802
 H545 H 0.93178 0.10960 0.27811
 H546 H 0.88527 0.08319 0.03040
 H547 H 0.92611 0.05782 0.00406
 H548 H 0.95829 0.08142 0.19811
 C549 C 0.34609 0.66629 0.75504
 C550 C 0.35200 0.65523 0.68936
 C551 C 0.33486 0.66399 0.63623
 C552 C 0.31296 0.68304 0.64883
 C553 C 0.30767 0.69407 0.71400
 C554 C 0.32436 0.68534 0.76684
 C555 C 0.33975 0.65400 0.57051
 C556 C 0.36164 0.63592 0.55563
 C557 C 0.37964 0.62690 0.60627
 C558 C 0.37446 0.63625 0.67448
 C559 C 0.39197 0.62644 0.72547
 C560 C 0.41413 0.60888 0.71048
 C561 C 0.41990 0.60036 0.64426
 C562 C 0.40275 0.60898 0.59103
 C563 C 0.40976 0.59956 0.52472
 C564 C 0.43289 0.58275 0.51228
 C565 C 0.44982 0.57473 0.56517
 C566 C 0.44299 0.58339 0.63110
 H567 H 0.35797 0.66107 0.79851
 H568 H 0.30022 0.68963 0.60739
 H569 H 0.32079 0.69349 0.81775
 H570 H 0.32661 0.66048 0.52978
 H571 H 0.36384 0.62940 0.50350
 H572 H 0.38918 0.63190 0.77800
 H573 H 0.42708 0.60212 0.75137
 H574 H 0.39810 0.60511 0.48106
 H575 H 0.43785 0.57660 0.46075
 H576 H 0.45579 0.57688 0.67253
   
