data_POSCAR
  _audit_creation_date              2014-09-24
  _audit_creation_method            'ToBaCCo'
  _symmetry_space_group_name_H-M    'P1'
  _symmetry_Int_Tables_number       1
  _symmetry_cell_setting            triclinic
  loop_
  _symmetry_equiv_pos_as_xyz
 x,y,z
_cell_length_a 47.4942
_cell_length_b 47.5409
_cell_length_c 47.7838
_cell_angle_alpha 90.664900
_cell_angle_beta 90.867000
_cell_angle_gamma 90.131000
loop_
  _atom_site_label
  _atom_site_type_symbol
  _atom_site_fract_x
  _atom_site_fract_y
  _atom_site_fract_z
N1 N 0.16402 0.21602 0.24874
 N2 N 0.17142 0.19231 0.26056
 C3 C 0.15277 0.18611 0.28059
 C4 C 0.13268 0.20716 0.28125
 C5 C 0.14053 0.22577 0.26079
 H6 H 0.15368 0.16767 0.29357
 H7 H 0.12968 0.24482 0.25490
 Cu8 Cu 0.20465 0.17215 0.24826
 Cu9 Cu 0.18466 0.23190 0.21794
 Cu10 Cu 0.24478 0.19683 0.19617
 N11 N 0.23811 0.15243 0.23611
 N12 N 0.25457 0.16239 0.21663
 C13 C 0.27648 0.14461 0.21329
 C14 C 0.27313 0.12221 0.23134
 C15 C 0.24863 0.12799 0.24541
 H16 H 0.29318 0.14733 0.19842
 H17 H 0.23935 0.11534 0.26152
 N18 N 0.23072 0.23195 0.17840
 N19 N 0.20790 0.24500 0.18710
 C20 C 0.20286 0.26735 0.17085
 C21 C 0.22333 0.26869 0.15070
 C22 C 0.24075 0.24589 0.15611
 H23 H 0.18511 0.28126 0.17318
 H24 H 0.25902 0.23969 0.14432
 H25 H 0.20218 0.19457 0.20265
 H26 H 0.22374 0.21514 0.22864
 N27 N 0.66126 0.71960 0.73433
 N28 N 0.66449 0.69391 0.74374
 C29 C 0.64550 0.68904 0.76368
 C30 C 0.62931 0.71295 0.76714
 C31 C 0.63990 0.73198 0.74812
 H32 H 0.64416 0.66966 0.77517
 H33 H 0.63279 0.75329 0.74481
 Cu34 Cu 0.69405 0.66918 0.73087
 Cu35 Cu 0.68573 0.73472 0.70534
 Cu36 Cu 0.74647 0.69653 0.69378
 N37 N 0.73018 0.65056 0.72828
 N38 N 0.75117 0.66208 0.71494
 C39 C 0.77385 0.64528 0.71700
 C40 C 0.76657 0.62188 0.73224
 C41 C 0.73864 0.62591 0.73910
 H42 H 0.79394 0.64933 0.70746
 H43 H 0.72550 0.61215 0.75120
 N44 N 0.73768 0.73151 0.67395
 N45 N 0.71417 0.74579 0.67749
 C46 C 0.71338 0.76701 0.65893
 C47 C 0.73760 0.76595 0.64308
 C48 C 0.75244 0.74318 0.65329
 H49 H 0.69622 0.78176 0.65666
 H50 H 0.77199 0.73490 0.64544
 H51 H 0.70247 0.69775 0.68996
 H52 H 0.71844 0.71301 0.72295
 N53 N 0.33232 0.77641 0.72368
 N54 N 0.32842 0.79825 0.74025
 C55 C 0.34886 0.79890 0.76002
 C56 C 0.36641 0.77620 0.75571
 C57 C 0.35531 0.76230 0.73243
 H58 H 0.35086 0.81459 0.77650
 H59 H 0.36336 0.74349 0.72250
 Cu60 Cu 0.29700 0.82364 0.73469
 Cu61 Cu 0.30740 0.76818 0.69199
 Cu62 Cu 0.25164 0.81393 0.68068
 N63 N 0.26606 0.84930 0.72792
 N64 N 0.24846 0.84557 0.70671
 C65 C 0.22901 0.86611 0.70715
 C66 C 0.23468 0.88360 0.72995
 C67 C 0.25842 0.87229 0.74262
 H68 H 0.21177 0.86797 0.69223
 H69 H 0.26921 0.87996 0.76126
 N70 N 0.25857 0.78066 0.65678
 N71 N 0.27994 0.76346 0.66109
 C72 C 0.27921 0.74300 0.64144
 C73 C 0.25627 0.74738 0.62399
 C74 C 0.24358 0.77145 0.63428
 H75 H 0.29417 0.72596 0.63993
 H76 H 0.22495 0.78156 0.62596
 H77 H 0.29466 0.80927 0.68562
 H78 H 0.27185 0.78716 0.70808
 N79 N 0.82492 0.27225 0.22908
 N80 N 0.81270 0.29247 0.24336
 C81 C 0.82829 0.29824 0.26656
 C82 C 0.85137 0.28040 0.26677
 C83 C 0.84844 0.26425 0.24268
 H84 H 0.82304 0.31395 0.28214
 H85 H 0.86253 0.24793 0.23551
 Cu86 Cu 0.77738 0.30861 0.23027
 Cu87 Cu 0.81001 0.25784 0.19377
 Cu88 Cu 0.74818 0.28733 0.16872
 N89 N 0.74297 0.32532 0.21561
 N90 N 0.73172 0.31706 0.19157
 C91 C 0.70867 0.33261 0.18615
 C92 C 0.70530 0.35164 0.20800
 C93 C 0.72741 0.34636 0.22630
 H94 H 0.69564 0.33045 0.16751
 H95 H 0.73207 0.35751 0.24568
 N96 N 0.76823 0.25697 0.14883
 N97 N 0.79188 0.24594 0.15844
 C98 C 0.80053 0.22586 0.14050
 C99 C 0.78140 0.22406 0.11849
 C100 C 0.76116 0.24405 0.12445
 H101 H 0.81921 0.21327 0.14345
 H102 H 0.74263 0.24870 0.11194
 H103 H 0.78884 0.29435 0.18266
 H104 H 0.76806 0.26702 0.20119
 N105 N 0.82268 0.71379 0.27385
 N106 N 0.81304 0.69201 0.25938
 C107 C 0.82980 0.68731 0.23736
 C108 C 0.85118 0.70714 0.23793
 C109 C 0.84595 0.72367 0.26138
 H110 H 0.82656 0.67076 0.22197
 H111 H 0.85824 0.74150 0.26882
 Cu112 Cu 0.77941 0.67164 0.27025
 Cu113 Cu 0.80424 0.72749 0.30787
 Cu114 Cu 0.74381 0.69194 0.32679
 N115 N 0.74492 0.65252 0.28102
 N116 N 0.73128 0.66079 0.30333
 C117 C 0.70861 0.64431 0.30667
 C118 C 0.70785 0.62449 0.28530
 C119 C 0.73122 0.63033 0.26931
 H120 H 0.69391 0.64660 0.32356
 H121 H 0.73780 0.61904 0.25076
 N122 N 0.75919 0.72384 0.34827
 N123 N 0.78217 0.73770 0.34152
 C124 C 0.78651 0.75854 0.36065
 C125 C 0.76507 0.75764 0.38008
 C126 C 0.74836 0.73531 0.37151
 H127 H 0.80370 0.77349 0.36032
 H128 H 0.72959 0.72783 0.38150
 H129 H 0.78668 0.68970 0.31780
 H130 H 0.76501 0.71381 0.29572
 N131 N 0.34863 0.22708 -0.22321
 N132 N 0.33585 0.21503 -0.24479
 C133 C 0.35242 0.21706 -0.26733
 C134 C 0.37716 0.23070 -0.25919
 C135 C 0.37403 0.23648 -0.23091
 H136 H 0.34702 0.20897 -0.28799
 H137 H 0.38844 0.24778 -0.21709
 Cu138 Cu 0.29934 0.19699 -0.24048
 Cu139 Cu 0.33052 0.23163 -0.18729
 Cu140 Cu 0.25941 0.21514 -0.18586
 N141 N 0.26751 0.17393 -0.22943
 N142 N 0.25120 0.18141 -0.20862
 C143 C 0.23059 0.16207 -0.20609
 C144 C 0.23459 0.14111 -0.22605
 C145 C 0.25820 0.14942 -0.24050
 H146 H 0.21444 0.16277 -0.19037
 H147 H 0.26790 0.13853 -0.25785
 N148 N 0.27781 0.24034 -0.15791
 N149 N 0.30507 0.24574 -0.15824
 C150 C 0.31155 0.26417 -0.13761
 C151 C 0.28724 0.27077 -0.12340
 C152 C 0.26622 0.25508 -0.13672
 H153 H 0.33240 0.27267 -0.13383
 H154 H 0.24408 0.25491 -0.13174
 H155 H 0.29879 0.20120 -0.18950
 H156 H 0.29225 0.23543 -0.20719
 N157 N 0.66824 0.26950 -0.24659
 N158 N 0.67165 0.29281 -0.26070
 C159 C 0.65022 0.29518 -0.27940
 C160 C 0.63261 0.27201 -0.27692
 C161 C 0.64485 0.25617 -0.25587
 H162 H 0.64759 0.31240 -0.29380
 H163 H 0.63720 0.23666 -0.24745
 Cu164 Cu 0.70390 0.31759 -0.25302
 Cu165 Cu 0.69339 0.25843 -0.21625
 Cu166 Cu 0.75088 0.30121 -0.20225
 N167 N 0.73763 0.34048 -0.24588
 N168 N 0.75542 0.33390 -0.22566
 C169 C 0.77643 0.35283 -0.22454
 C170 C 0.77188 0.37238 -0.24520
 C171 C 0.74701 0.36395 -0.25848
 H172 H 0.79393 0.35240 -0.20980
 H173 H 0.73645 0.37422 -0.27575
 N174 N 0.74291 0.26721 -0.18083
 N175 N 0.72108 0.25075 -0.18629
 C176 C 0.72118 0.22948 -0.16793
 C177 C 0.74416 0.23272 -0.15011
 C178 C 0.75751 0.25686 -0.15888
 H179 H 0.70550 0.21299 -0.16723
 H180 H 0.77622 0.26640 -0.14979
 H181 H 0.70751 0.29839 -0.20595
 H182 H 0.72855 0.27802 -0.23198
 N183 N 0.16681 0.77579 0.25832
 N184 N 0.17647 0.79506 0.24143
 C185 C 0.15748 0.79956 0.22083
 C186 C 0.13466 0.78202 0.22486
 C187 C 0.14134 0.76713 0.24880
 H188 H 0.16025 0.81437 0.20410
 H189 H 0.12846 0.75143 0.25870
 Cu190 Cu 0.21291 0.81254 0.24752
 Cu191 Cu 0.18789 0.76419 0.29166
 Cu192 Cu 0.24811 0.80280 0.30799
 N193 N 0.24331 0.83734 0.25934
 N194 N 0.25701 0.83365 0.28310
 C195 C 0.27689 0.85374 0.28606
 C196 C 0.27558 0.87094 0.26285
 C197 C 0.25391 0.85985 0.24633
 H198 H 0.29134 0.85563 0.30370
 H199 H 0.24628 0.86743 0.22638
 N200 N 0.23546 0.77075 0.33037
 N201 N 0.21243 0.75615 0.32436
 C202 C 0.20943 0.73595 0.34366
 C203 C 0.23173 0.73783 0.36255
 C204 C 0.24780 0.76014 0.35348
 H205 H 0.19238 0.72085 0.34395
 H206 H 0.26693 0.76825 0.36311
 H207 H 0.20574 0.80354 0.29679
 H208 H 0.22779 0.77588 0.27973
 N209 N 0.45776 0.42133 0.48607
 N210 N 0.43571 0.43196 0.49862
 C211 C 0.42992 0.41628 0.52121
 C212 C 0.44953 0.39479 0.52273
 C213 C 0.46680 0.39873 0.50014
 H214 H 0.41288 0.42025 0.53545
 H215 H 0.48466 0.38596 0.49437
 Cu216 Cu 0.41707 0.46523 0.48395
 Cu217 Cu 0.47329 0.43715 0.45244
 Cu218 Cu 0.43992 0.49539 0.42469
 N219 N 0.39800 0.49731 0.46743
 N220 N 0.40689 0.50905 0.44438
 C221 C 0.38969 0.53055 0.43771
 C222 C 0.36891 0.53232 0.45769
 C223 C 0.37489 0.51093 0.47617
 H224 H 0.39217 0.54383 0.41970
 H225 H 0.36314 0.50572 0.49462
 N226 N 0.47366 0.47821 0.40796
 N227 N 0.48612 0.45588 0.41857
 C228 C 0.50793 0.44860 0.40241
 C229 C 0.50937 0.46722 0.38051
 C230 C 0.48738 0.48579 0.38471
 H231 H 0.52169 0.43098 0.40630
 H232 H 0.48165 0.50328 0.37154
 H233 H 0.45960 0.47817 0.45904
 H234 H 0.43579 0.45459 0.43784
 N235 N -0.00806 -0.08997 0.99874
 N236 N -0.03122 -0.08470 1.01262
 C237 C -0.03466 -0.10461 1.03210
 C238 C -0.01252 -0.12336 1.03048
 C239 C 0.00400 -0.11342 1.00902
 H240 H -0.05188 -0.10540 1.04662
 H241 H 0.02337 -0.12244 1.00147
 Cu242 Cu -0.05471 -0.05217 1.00441
 Cu243 Cu 0.00501 -0.06575 0.96865
 Cu244 Cu -0.03491 -0.00644 0.95575
 N245 N -0.07663 -0.01834 0.99670
 N246 N -0.06833 -0.00071 0.97753
 C247 C -0.08708 0.02019 0.97511
 C248 C -0.10838 0.01568 0.99376
 C249 C -0.10116 -0.00900 1.00731
 H250 H -0.08570 0.03723 0.96040
 H251 H -0.11318 -0.01970 1.02302
 N252 N -0.00064 -0.01521 0.93544
 N253 N 0.01440 -0.03817 0.93930
 C254 C 0.03547 -0.03847 0.92056
 C255 C 0.03352 -0.01435 0.90455
 C256 C 0.01038 -0.00030 0.91462
 H257 H 0.05095 -0.05499 0.91854
 H258 H 0.00153 0.01895 0.90660
 H259 H -0.01287 -0.03042 0.98522
 H260 H -0.03384 -0.05031 0.95811
 N261 N 1.02408 0.58181 1.00579
 N262 N 1.04501 0.57103 1.02042
 C263 C 1.04907 0.58677 1.04384
 C264 C 1.02944 0.60837 1.04385
 C265 C 1.01398 0.60446 1.01942
 H266 H 1.06493 0.58272 1.05973
 H267 H 0.99671 0.61732 1.01204
 Cu268 Cu 1.06472 0.53737 1.00721
 Cu269 Cu 1.01113 0.56598 0.97017
 Cu270 Cu 1.04240 0.50406 0.94837
 N271 N 1.08508 0.50508 0.99175
 N272 N 1.07621 0.49256 0.96857
 C273 C 1.09342 0.47103 0.96241
 C274 C 1.11438 0.46977 0.98280
 C275 C 1.10840 0.49173 1.00115
 H276 H 1.09058 0.45717 0.94450
 H277 H 1.12018 0.49747 1.01991
 N278 N 1.01246 0.52287 0.92669
 N279 N 1.00077 0.54667 0.93484
 C280 C 0.98110 0.55417 0.91576
 C281 C 0.98043 0.53413 0.89452
 C282 C 1.00063 0.51465 0.90213
 H283 H 0.96810 0.57271 0.91735
 H284 H 1.00616 0.49579 0.89061
 H285 H 1.02186 0.52580 0.98027
 H286 H 1.04827 0.54562 0.95956
 N287 N 0.53641 0.09512 0.49369
 N288 N 0.56028 0.08882 0.50629
 C289 C 0.56393 0.10557 0.52897
 C290 C 0.54104 0.12345 0.53057
 C291 C 0.52401 0.11620 0.50785
 H292 H 0.58206 0.10498 0.54290
 H293 H 0.50423 0.12583 0.50191
 Cu294 Cu 0.58443 0.05983 0.49140
 Cu295 Cu 0.52382 0.07590 0.45950
 Cu296 Cu 0.56218 0.01744 0.43838
 N297 N 0.60231 0.02424 0.48376
 N298 N 0.59433 0.00766 0.46287
 C299 C 0.61098 -0.01536 0.46283
 C300 C 0.62998 -0.01302 0.48515
 C301 C 0.62378 0.01240 0.49783
 H302 H 0.60916 -0.03267 0.44802
 H303 H 0.63421 0.02184 0.51588
 N304 N 0.52873 0.03157 0.41721
 N305 N 0.51444 0.05389 0.42551
 C306 C 0.49331 0.05871 0.40719
 C307 C 0.49405 0.03851 0.38619
 C308 C 0.51675 0.02153 0.39325
 H309 H 0.47832 0.07562 0.40917
 H310 H 0.52401 0.00331 0.38170
 H311 H 0.54280 0.03796 0.47065
 H312 H 0.56210 0.06008 0.44515
 N313 N -0.00935 0.08530 0.51050
 N314 N -0.03205 0.07830 0.49602
 C315 C -0.03458 0.09549 0.47392
 C316 C -0.01217 0.11415 0.47467
 C317 C 0.00343 0.10704 0.49816
 H318 H -0.05164 0.09492 0.45868
 H319 H 0.02217 0.11739 0.50625
 Cu320 Cu -0.05613 0.04786 0.50820
 Cu321 Cu 0.00093 0.06721 0.54525
 Cu322 Cu -0.04274 0.01401 0.56869
 N323 N -0.07996 0.01743 0.52065
 N324 N -0.07507 0.00430 0.54430
 C325 C -0.09467 -0.01606 0.54715
 C326 C -0.11258 -0.01566 0.52395
 C327 C -0.10258 0.00594 0.50770
 H328 H -0.09553 -0.03043 0.56450
 H329 H -0.11105 0.01275 0.48781
 N330 N -0.00865 0.02718 0.58975
 N331 N 0.00811 0.04684 0.57998
 C332 C 0.03007 0.05055 0.59763
 C333 C 0.02726 0.03249 0.61975
 C334 C 0.00233 0.01803 0.61430
 H335 H 0.04688 0.06553 0.59475
 H336 H -0.00665 0.00164 0.62690
 H337 H -0.01834 0.02842 0.53694
 H338 H -0.03962 0.05503 0.55624
 N339 N 0.47387 0.59303 0.00156
 N340 N 0.45333 0.58452 -0.01525
 C341 C 0.44945 0.60397 -0.03541
 C342 C 0.46837 0.62579 -0.03034
 C343 C 0.48344 0.61805 -0.00684
 H344 H 0.43361 0.60286 -0.05187
 H345 H 0.50030 0.62980 0.00332
 Cu346 Cu 0.43287 0.54996 -0.00663
 Cu347 Cu 0.48755 0.57153 0.03313
 Cu348 Cu 0.45278 0.50951 0.04761
 N349 N 0.41272 0.51528 0.00194
 N350 N 0.42076 0.49984 0.02332
 C351 C 0.40274 0.47824 0.02600
 C352 C 0.38221 0.48007 0.00535
 C353 C 0.38918 0.50387 -0.00964
 H354 H 0.40400 0.46268 0.04231
 H355 H 0.37749 0.51270 -0.02701
 N356 N 0.48567 0.52321 0.06961
 N357 N 0.49860 0.54704 0.06405
 C358 C 0.51970 0.55117 0.08271
 C359 C 0.52017 0.52891 0.10100
 C360 C 0.49829 0.51154 0.09212
 H361 H 0.53355 0.56921 0.08303
 H362 H 0.49193 0.49202 0.10157
 H363 H 0.47406 0.53241 0.01850
 H364 H 0.44955 0.55202 0.04184
 N365 N 0.53458 -0.08663 0.01496
 N366 N 0.55953 -0.08059 0.00505
 C367 C 0.56526 -0.09808 -0.01640
 C368 C 0.54272 -0.11623 -0.02031
 C369 C 0.52360 -0.10837 0.00001
 H370 H 0.58420 -0.09706 -0.02860
 H371 H 0.50301 -0.11744 0.00325
 Cu372 Cu 0.58211 -0.04966 0.01959
 Cu373 Cu 0.51790 -0.06467 0.04553
 Cu374 Cu 0.55273 -0.00265 0.06259
 N375 N 0.59875 -0.01285 0.02593
 N376 N 0.58702 0.00540 0.04293
 C377 C 0.60272 0.02889 0.04423
 C378 C 0.62555 0.02524 0.02703
 C379 C 0.62234 -0.00146 0.01556
 H380 H 0.59775 0.04728 0.05669
 H381 H 0.63621 -0.01187 0.00100
 N382 N 0.51798 -0.01423 0.08053
 N383 N 0.50501 -0.03835 0.07528
 C384 C 0.48324 -0.04070 0.09303
 C385 C 0.48252 -0.01667 0.10977
 C386 C 0.50484 -0.00054 0.10123
 H387 H 0.46915 -0.05857 0.09392
 H388 H 0.51182 0.01920 0.11040
 H389 H 0.53689 -0.02928 0.03092
 H390 H 0.55394 -0.04663 0.06176
 N391 N 1.01959 0.40449 0.50503
 N392 N 1.04474 0.41022 0.49553
 C393 C 1.05032 0.39314 0.47375
 C394 C 1.02738 0.37561 0.46927
 C395 C 1.00825 0.38336 0.48955
 H396 H 1.06958 0.39376 0.46201
 H397 H 0.98765 0.37432 0.49274
 Cu398 Cu 1.06759 0.44000 0.51155
 Cu399 Cu 1.00409 0.42489 0.53694
 Cu400 Cu 1.04047 0.48490 0.55872
 N401 N 1.08379 0.47670 0.51827
 N402 N 1.07358 0.49443 0.53680
 C403 C 1.08886 0.51838 0.53639
 C404 C 1.10936 0.51542 0.51621
 C405 C 1.10552 0.48865 0.50527
 H406 H 1.08501 0.53676 0.54931
 H407 H 1.11756 0.47848 0.48904
 N408 N 1.00632 0.47107 0.57745
 N409 N 0.99234 0.44842 0.56891
 C410 C 0.97078 0.44390 0.58629
 C411 C 0.97121 0.46467 0.60681
 C412 C 0.99399 0.48153 0.60052
 H413 H 0.95636 0.42634 0.58454
 H414 H 1.00135 0.49975 0.61229
 H415 H 1.02399 0.46183 0.52561
 H416 H 1.04096 0.44146 0.55460
 Si417 Si 0.39036 -0.00290 0.25263
 Si418 Si 0.12313 0.00881 0.76143
 Si419 Si 0.60839 0.48898 0.24342
 Si420 Si 0.88753 0.50089 0.75176
 Si421 Si 0.25086 0.36817 0.01403
 Si422 Si 0.75800 0.12303 -0.01994
 Si423 Si 0.23413 0.63202 0.49682
 Si424 Si 0.75636 0.87182 0.50982
 Si425 Si -0.01254 0.24404 0.36412
 Si426 Si -0.01282 0.74512 0.14068
 Si427 Si 0.49335 0.26188 0.62175
 Si428 Si 0.49768 0.75913 0.86699
 C429 C 0.06789 0.23615 0.31261
 C430 C 0.06020 0.21485 0.33112
 N431 N 0.07647 0.19152 0.33335
 C432 C 0.10007 0.18845 0.31783
 C433 C 0.10772 0.20966 0.29908
 N434 N 0.09133 0.23304 0.29705
 N435 N 0.05167 0.25951 0.31032
 C436 C 0.02798 0.26248 0.32567
 C437 C 0.02016 0.24113 0.34401
 N438 N 0.03647 0.21776 0.34635
 H439 H 0.11249 0.16955 0.32000
 H440 H 0.01525 0.28120 0.32343
 C441 C 0.57264 0.74751 0.80812
 C442 C 0.56304 0.72519 0.82448
 N443 N 0.57521 0.69955 0.82201
 C444 C 0.59655 0.69509 0.80389
 C445 C 0.60623 0.71729 0.78724
 N446 N 0.59393 0.74307 0.78987
 N447 N 0.56026 0.77314 0.81055
 C448 C 0.53859 0.77737 0.82844
 C449 C 0.52882 0.75497 0.84455
 N450 N 0.54135 0.72938 0.84222
 H451 H 0.60558 0.67430 0.80246
 H452 H 0.52880 0.79787 0.82978
 C453 C 0.42259 0.78166 0.80994
 C454 C 0.43703 0.75619 0.80642
 N455 N 0.42848 0.73777 0.78608
 C456 C 0.40602 0.74363 0.76914
 C457 C 0.39132 0.76903 0.77285
 N458 N 0.40012 0.78741 0.79321
 N459 N 0.43120 0.80021 0.83011
 C460 C 0.45351 0.79432 0.84716
 C461 C 0.46768 0.76862 0.84403
 N462 N 0.45921 0.75023 0.82354
 H463 H 0.39961 0.72846 0.75324
 H464 H 0.46001 0.80961 0.86287
 C465 C -0.08548 0.25440 0.30131
 C466 C -0.08295 0.27255 0.32457
 N467 N -0.10241 0.29307 0.32843
 C468 C -0.12432 0.29628 0.31005
 C469 C -0.12678 0.27821 0.28653
 N470 N -0.10712 0.25775 0.28292
 N471 N -0.06636 0.23362 0.29750
 C472 C -0.04469 0.23015 0.31598
 C473 C -0.04198 0.24839 0.33911
 N474 N -0.06115 0.26926 0.34293
 H475 H -0.13939 0.31286 0.31379
 H476 H -0.02969 0.21339 0.31259
 C477 C -0.08598 0.73572 0.20216
 C478 C -0.08187 0.71565 0.18081
 N479 N -0.09956 0.69329 0.17846
 C480 C -0.12122 0.69004 0.19644
 C481 C -0.12548 0.71005 0.21794
 N482 N -0.10758 0.73245 0.22021
 N483 N -0.06829 0.75813 0.20449
 C484 C -0.04669 0.76137 0.18643
 C485 C -0.04256 0.74134 0.16507
 N486 N -0.06024 0.71884 0.16280
 H487 H -0.13479 0.67188 0.19393
 H488 H -0.03281 0.77937 0.18873
 C489 C 0.41854 0.24193 0.67829
 C490 C 0.44409 0.25187 0.68980
 N491 N 0.44693 0.25487 0.71796
 C492 C 0.42540 0.24837 0.73519
 C493 C 0.39983 0.23781 0.72381
 N494 N 0.39722 0.23485 0.69548
 N495 N 0.41540 0.23968 0.65008
 C496 C 0.43682 0.24656 0.63287
 C497 C 0.46272 0.25558 0.64437
 N498 N 0.46570 0.25817 0.67264
 H499 H 0.42861 0.25095 0.75752
 H500 H 0.43369 0.24459 0.61051
 C501 C 0.57391 0.28062 0.67383
 C502 C 0.55896 0.25543 0.67723
 N503 N 0.56852 0.23627 0.69588
 C504 C 0.59240 0.24109 0.71129
 C505 C 0.60775 0.26625 0.70778
 N506 N 0.59791 0.28537 0.68900
 N507 N 0.56416 0.29997 0.65546
 C508 C 0.54022 0.29519 0.64016
 C509 C 0.52546 0.26976 0.64314
 N510 N 0.53517 0.25049 0.66176
 H511 H 0.59925 0.22519 0.72584
 H512 H 0.53298 0.31112 0.62583
 C513 C 0.06732 0.75418 0.19519
 C514 C 0.06079 0.77415 0.17467
 N515 N 0.07835 0.79628 0.17093
 C516 C 0.10223 0.79937 0.18674
 C517 C 0.10886 0.77946 0.20739
 N518 N 0.09107 0.75733 0.21110
 N519 N 0.04988 0.73189 0.19875
 C520 C 0.02616 0.72869 0.18271
 C521 C 0.01954 0.74873 0.16234
 N522 N 0.03702 0.77106 0.15878
 H523 H 0.11568 0.81733 0.18328
 H524 H 0.01253 0.71077 0.18592
 C525 C 0.33613 0.07574 0.23608
 C526 C 0.32403 0.05059 0.24537
 N527 N 0.29586 0.04916 0.24924
 C528 C 0.27917 0.07180 0.24447
 C529 C 0.29105 0.09712 0.23519
 N530 N 0.31939 0.09842 0.23105
 N531 N 0.36446 0.07713 0.23270
 C532 C 0.38116 0.05447 0.23803
 C533 C 0.36897 0.02923 0.24693
 N534 N 0.34065 0.02797 0.25042
 H535 H 0.25676 0.06993 0.24777
 H536 H 0.40365 0.05608 0.23514
 C537 C 0.83060 0.57818 0.74072
 C538 C 0.81921 0.55206 0.74801
 N539 N 0.79095 0.54938 0.75092
 C540 C 0.77349 0.57162 0.74664
 C541 C 0.78477 0.59766 0.73864
 N542 N 0.81317 0.60024 0.73598
 N543 N 0.85889 0.58099 0.73820
 C544 C 0.87631 0.55870 0.74226
 C545 C 0.86490 0.53234 0.74866
 N546 N 0.83656 0.52969 0.75158
 H547 H 0.75104 0.56874 0.74883
 H548 H 0.89874 0.56154 0.74012
 C549 C 0.82924 0.42463 0.76437
 C550 C 0.82589 0.44170 0.74082
 N551 N 0.80472 0.43601 0.72211
 C552 C 0.78677 0.41400 0.72591
 C553 C 0.79024 0.39678 0.74945
 N554 N 0.81152 0.40267 0.76803
 N555 N 0.84998 0.43041 0.78338
 C556 C 0.86764 0.45256 0.77997
 C557 C 0.86457 0.46965 0.75636
 N558 N 0.84367 0.46381 0.73727
 H559 H 0.77018 0.40993 0.71063
 H560 H 0.88366 0.45678 0.79575
 C561 C 0.33057 -0.07609 0.27212
 C562 C 0.32793 -0.06099 0.24718
 N563 N 0.30780 -0.06840 0.22806
 C564 C 0.29017 -0.09036 0.23263
 C565 C 0.29285 -0.10588 0.25751
 N566 N 0.31308 -0.09814 0.27667
 N567 N 0.35070 -0.06857 0.29127
 C568 C 0.36849 -0.04673 0.28648
 C569 C 0.36612 -0.03191 0.26133
 N570 N 0.34576 -0.03934 0.24233
 H571 H 0.27448 -0.09558 0.21679
 H572 H 0.38432 -0.04121 0.30210
 C573 C 0.17961 -0.06345 0.73090
 C574 C 0.18633 -0.04817 0.75513
 N575 N 0.20942 -0.05524 0.77053
 C576 C 0.22597 -0.07720 0.76273
 C577 C 0.21898 -0.09302 0.73841
 N578 N 0.19588 -0.08547 0.72304
 N579 N 0.15554 -0.05575 0.71509
 C580 C 0.13810 -0.03369 0.72329
 C581 C 0.14605 -0.01943 0.74815
 N582 N 0.16947 -0.02671 0.76318
 H583 H 0.24411 -0.08222 0.77563
 H584 H 0.14324 -0.05008 0.70870
 C585 C 0.66593 0.41192 0.23775
 C586 C 0.64651 0.41779 0.21618
 N587 N 0.64596 0.40146 0.19270
 C588 C 0.66415 0.37962 0.18965
 C589 C 0.68405 0.37399 0.21097
 N590 N 0.68425 0.39031 0.23461
 N591 N 0.66666 0.42838 0.26117
 C592 C 0.64900 0.45069 0.26384
 C593 C 0.62999 0.45689 0.24206
 N594 N 0.62910 0.44022 0.21874
 H595 H 0.66331 0.36719 0.17057
 H596 H 0.65023 0.46383 0.28248
 C597 C 0.67030 0.56282 0.25395
 C598 C 0.64889 0.55841 0.27337
 N599 N 0.64686 0.57569 0.29598
 C600 C 0.66533 0.59721 0.30020
 C601 C 0.68704 0.60166 0.28097
 N602 N 0.68890 0.58426 0.25820
 N603 N 0.67228 0.54541 0.23133
 C604 C 0.65387 0.52369 0.22738
 C605 C 0.63267 0.51917 0.24696
 N606 N 0.63067 0.53667 0.26951
 H607 H 0.66307 0.61044 0.31856
 H608 H 0.65594 0.50991 0.20933
 C609 C 0.17494 0.09016 0.77486
 C610 C 0.18661 0.06658 0.76144
 N611 N 0.21344 0.06783 0.75217
 C612 C 0.22920 0.09156 0.75572
 C613 C 0.21778 0.11515 0.76951
 N614 N 0.19081 0.11377 0.77881
 N615 N 0.14785 0.08909 0.78351
 C616 C 0.13198 0.06546 0.77952
 C617 C 0.14384 0.04164 0.76672
 N618 N 0.17092 0.04284 0.75785
 H619 H 0.25056 0.09178 0.74821
 H620 H 0.11039 0.06526 0.78638
 C621 C 0.24729 0.30553 0.08680
 C622 C 0.22741 0.32726 0.08448
 N623 N 0.20696 0.32969 0.10381
 C624 C 0.20533 0.31136 0.12533
 C625 C 0.22506 0.28934 0.12775
 N626 N 0.24566 0.28708 0.10829
 N627 N 0.26779 0.30318 0.06743
 C628 C 0.26929 0.32156 0.04588
 C629 C 0.24940 0.34326 0.04354
 N630 N 0.22884 0.34557 0.06292
 H631 H 0.18869 0.31412 0.14025
 H632 H 0.28580 0.31924 0.03066
 C633 C 0.73240 0.81839 0.58590
 C634 C 0.75892 0.81589 0.57354
 N635 N 0.77801 0.79763 0.58422
 C636 C 0.77181 0.78159 0.60666
 C637 C 0.74519 0.78380 0.61913
 N638 N 0.72613 0.80234 0.60837
 N639 N 0.71333 0.83669 0.57509
 C640 C 0.71963 0.85269 0.55256
 C641 C 0.74624 0.85034 0.54031
 N642 N 0.76520 0.83183 0.55108
 H643 H 0.78765 0.76735 0.61459
 H644 H 0.70397 0.86700 0.54440
 C645 C 0.77596 0.81229 0.43588
 C646 C 0.75024 0.81101 0.44994
 N647 N 0.73012 0.79264 0.44109
 C648 C 0.73444 0.77536 0.41879
 C649 C 0.76014 0.77643 0.40445
 N650 N 0.78035 0.79504 0.41342
 N651 N 0.79598 0.83089 0.44489
 C652 C 0.79130 0.84840 0.46711
 C653 C 0.76535 0.84739 0.48082
 N654 N 0.74556 0.82851 0.47195
 H655 H 0.71767 0.76124 0.41231
 H656 H 0.80757 0.86308 0.47372
 C657 C 0.25664 0.31061 -0.06366
 C658 C 0.27927 0.32799 -0.05535
 N659 N 0.30379 0.32665 -0.06943
 C660 C 0.30685 0.30860 -0.09141
 C661 C 0.28433 0.29094 -0.09982
 N662 N 0.25963 0.29255 -0.08570
 N663 N 0.23227 0.31166 -0.04915
 C664 C 0.22964 0.32916 -0.02659
 C665 C 0.25232 0.34643 -0.01825
 N666 N 0.27662 0.34545 -0.03289
 H667 H 0.32673 0.30821 -0.10211
 H668 H 0.21021 0.32932 -0.01505
 C669 C 0.74021 0.17567 -0.09818
 C670 C 0.76387 0.18118 -0.08102
 N671 N 0.78102 0.20312 -0.08693
 C672 C 0.77551 0.21993 -0.10918
 C673 C 0.75164 0.21463 -0.12629
 N674 N 0.73466 0.19246 -0.12031
 N675 N 0.72286 0.15394 -0.09214
 C676 C 0.72800 0.13751 -0.06957
 C677 C 0.75156 0.14307 -0.05228
 N678 N 0.76896 0.16483 -0.05842
 H679 H 0.78955 0.23729 -0.11324
 H680 H 0.71354 0.12064 -0.06506
 C681 C 0.21992 0.68563 0.41838
 C682 C 0.24543 0.68695 0.43357
 N683 N 0.26603 0.70468 0.42530
 C684 C 0.26229 0.72126 0.40255
 C685 C 0.23675 0.72003 0.38723
 N686 N 0.21620 0.70207 0.39559
 N687 N 0.19918 0.66813 0.42684
 C688 C 0.20278 0.65189 0.44986
 C689 C 0.22832 0.65312 0.46502
 N690 N 0.24907 0.67066 0.45648
 H691 H 0.27920 0.73508 0.39651
 H692 H 0.18581 0.63829 0.45622
 C693 C 0.25884 0.69113 0.56998
 C694 C 0.23335 0.69486 0.55529
 N695 N 0.21577 0.71595 0.56304
 C696 C 0.22251 0.73345 0.58491
 C697 C 0.24797 0.72957 0.59980
 N698 N 0.26546 0.70843 0.59182
 N699 N 0.27658 0.67024 0.56227
 C700 C 0.26991 0.65267 0.54057
 C701 C 0.24423 0.65601 0.52605
 N702 N 0.22658 0.67720 0.53365
 H703 H 0.20801 0.74995 0.59068
 H704 H 0.28458 0.63632 0.53490
 C705 C 0.75894 0.18574 0.05383
 C706 C 0.78186 0.16770 0.04933
 N707 N 0.80429 0.16857 0.06721
 C708 C 0.80486 0.18658 0.08951
 C709 C 0.78188 0.20460 0.09423
 N710 N 0.75948 0.20373 0.07609
 N711 N 0.73643 0.18478 0.03600
 C712 C 0.73577 0.16651 0.01391
 C713 C 0.75860 0.14840 0.00950
 N714 N 0.78119 0.14945 0.02729
 H715 H 0.82311 0.18671 0.10328
 H716 H 0.71759 0.16604 -0.00003
 C717 C 0.47920 0.33348 0.55958
 C718 C 0.46001 0.32936 0.58122
 N719 N 0.43751 0.34682 0.58352
 C720 C 0.43338 0.36820 0.56516
 C721 C 0.45261 0.37226 0.54345
 N722 N 0.47502 0.35465 0.54133
 N723 N 0.50178 0.31631 0.55712
 C724 C 0.50613 0.29511 0.57541
 C725 C 0.48707 0.29088 0.59709
 N726 N 0.46429 0.30805 0.59954
 H727 H 0.41527 0.38174 0.56749
 H728 H 0.52435 0.28168 0.57307
 C729 C -0.02482 0.82246 0.08439
 C730 C -0.00065 0.80569 0.08234
 N731 N 0.01925 0.81224 0.06335
 C732 C 0.01610 0.83482 0.04630
 C733 C -0.00809 0.85175 0.04833
 N734 N -0.02793 0.84500 0.06745
 N735 N -0.04485 0.81586 0.10319
 C736 C -0.04181 0.79325 0.12013
 C737 C -0.01759 0.77650 0.11829
 N738 N 0.00244 0.78311 0.09932
 H739 H 0.03236 0.83945 0.03145
 H740 H -0.05827 0.78842 0.13470
 C741 C -0.00236 0.66924 0.08111
 C742 C 0.01784 0.67509 0.10211
 N743 N 0.04115 0.65871 0.10422
 C744 C 0.04531 0.63680 0.08615
 C745 C 0.02536 0.63114 0.06474
 N746 N 0.00194 0.64760 0.06288
 N747 N -0.02574 0.68554 0.07904
 C748 C -0.02974 0.70761 0.09693
 C749 C -0.00933 0.71380 0.11761
 N750 N 0.01401 0.69732 0.11976
 H751 H 0.06421 0.62432 0.08824
 H752 H -0.04839 0.72048 0.09473
 C753 C 0.50787 0.18511 0.56454
 C754 C 0.52644 0.19088 0.58703
 N755 N 0.54923 0.17416 0.59112
 C756 C 0.55441 0.15203 0.57361
 C757 C 0.53597 0.14641 0.55086
 N758 N 0.51307 0.16314 0.54707
 N759 N 0.48530 0.20194 0.56009
 C760 C 0.48039 0.22436 0.57714
 C761 C 0.49886 0.23024 0.59967
 N762 N 0.52160 0.21339 0.60408
 H763 H 0.57280 0.13919 0.57737
 H764 H 0.46265 0.23787 0.57262
 C765 C -0.02415 0.16623 0.41865
 C766 C 0.00006 0.18311 0.42119
 N767 N 0.02011 0.17687 0.44063
 C768 C 0.01699 0.15458 0.45785
 C769 C -0.00739 0.13776 0.45562
 N770 N -0.02733 0.14401 0.43588
 N771 N -0.04431 0.17264 0.39933
 C772 C -0.04137 0.19528 0.38248
 C773 C -0.01723 0.21223 0.38516
 N774 N 0.00294 0.20571 0.40446
 H775 H 0.03337 0.15025 0.47312
 H776 H -0.05787 0.20009 0.36747
 C777 C 0.47588 0.67690 0.91192
 C778 C 0.48398 0.70127 0.92692
 N779 N 0.48566 0.70076 0.95523
 C780 C 0.47995 0.67687 0.96932
 C781 C 0.47204 0.65230 0.95450
 N782 N 0.46997 0.65293 0.92602
 N783 N 0.47484 0.67748 0.88349
 C784 C 0.48147 0.70134 0.86946
 C785 C 0.48934 0.72571 0.88455
 N786 N 0.49039 0.72500 0.91294
 H787 H 0.48169 0.67705 0.99193
 H788 H 0.48057 0.70129 0.84682
 C789 C 0.51062 0.82669 0.93591
 C790 C 0.53199 0.82101 0.91665
 N791 N 0.55650 0.83566 0.91844
 C792 C 0.56063 0.85580 0.93853
 C793 C 0.53922 0.86170 0.95783
 N794 N 0.51469 0.84683 0.95597
 N795 N 0.48609 0.81205 0.93417
 C796 C 0.48195 0.79201 0.91400
 C797 C 0.50321 0.78639 0.89462
 N798 N 0.52785 0.80100 0.89645
 H799 H 0.58044 0.86702 0.93927
 H800 H 0.46218 0.78064 0.91299
 C801 C -0.00407 0.31714 0.42716
 C802 C 0.01754 0.31102 0.40833
 N803 N 0.04171 0.32622 0.40942
 C804 C 0.04539 0.34726 0.42860
 C805 C 0.02392 0.35336 0.44774
 N806 N -0.00039 0.33809 0.44642
 N807 N -0.02821 0.30177 0.42611
 C808 C -0.03161 0.28040 0.40716
 C809 C -0.00987 0.27415 0.38856
 N810 N 0.01420 0.28964 0.38956
 H811 H 0.06498 0.35886 0.42889
 H812 H -0.05087 0.26819 0.40687
 C813 C 0.30592 0.56854 0.48508
 C814 C 0.30123 0.58960 0.46521
 N815 N 0.31860 0.59153 0.44299
 C816 C 0.34051 0.57340 0.43978
 C817 C 0.34532 0.55235 0.45976
 N818 N 0.32773 0.55052 0.48189
 N819 N 0.28880 0.56660 0.50744
 C820 C 0.26723 0.58494 0.51096
 C821 C 0.26260 0.60618 0.49129
 N822 N 0.27965 0.60799 0.46872
 H823 H 0.35399 0.57554 0.42189
 H824 H 0.25399 0.58313 0.52909
 C825 C 0.83855 0.07008 -0.02254
 C826 C 0.81918 0.06684 -0.00096
 N827 N 0.82372 0.04689 0.01874
 C828 C 0.84680 0.02996 0.01780
 C829 C 0.86627 0.03325 -0.00379
 N830 N 0.86156 0.05336 -0.02335
 N831 N 0.83384 0.08956 -0.04260
 C832 C 0.81045 0.10596 -0.04216
 C833 C 0.79106 0.10281 -0.02059
 N834 N 0.79590 0.08333 -0.00042
 H835 H 0.84990 0.01427 0.03375
 H836 H 0.80703 0.12107 -0.05858
 C837 C 0.68736 0.05943 -0.00472
 C838 C 0.69094 0.08327 0.01261
 N839 N 0.67335 0.08766 0.03427
 C840 C 0.65217 0.06932 0.03940
 C841 C 0.64841 0.04540 0.02211
 N842 N 0.66626 0.04100 0.00046
 N843 N 0.70499 0.05517 -0.02647
 C844 C 0.72605 0.07376 -0.03164
 C845 C 0.72953 0.09756 -0.01429
 N846 N 0.71196 0.10169 0.00750
 H847 H 0.63864 0.07339 0.05697
 H848 H 0.73993 0.07001 -0.04904
 C849 C 0.15859 0.57629 0.51870
 C850 C 0.17320 0.57252 0.49361
 N851 N 0.16614 0.55095 0.47608
 C852 C 0.14534 0.53267 0.48263
 C853 C 0.13090 0.53599 0.50797
 N854 N 0.13775 0.55800 0.52532
 N855 N 0.16612 0.59766 0.53640
 C856 C 0.18777 0.61524 0.53024
 C857 C 0.20253 0.61123 0.50527
 N858 N 0.19478 0.58997 0.48753
 H859 H 0.14026 0.51573 0.46812
 H860 H 0.19363 0.63177 0.54494
 C861 C 0.17633 0.42996 0.01013
 C862 C 0.18122 0.41087 -0.01190
 N863 N 0.16436 0.41127 -0.03504
 C864 C 0.14278 0.42988 -0.03724
 C865 C 0.13774 0.44921 -0.01531
 N866 N 0.15480 0.44870 0.00792
 N867 N 0.19335 0.42955 0.03324
 C868 C 0.21509 0.41101 0.03522
 C869 C 0.22011 0.39209 0.01309
 N870 N 0.20299 0.39249 -0.00998
 H871 H 0.12992 0.42960 -0.05609
 H872 H 0.22856 0.41127 0.05370
 C873 C 0.68290 0.92935 0.48297
 C874 C 0.69570 0.93198 0.50956
 N875 N 0.68648 0.95187 0.52774
 C876 C 0.66518 0.96948 0.52052
 C877 C 0.65238 0.96719 0.49378
 N878 N 0.66153 0.94694 0.47567
 N879 N 0.69239 0.90953 0.46476
 C880 C 0.71403 0.89220 0.47196
 C881 C 0.72673 0.89472 0.49864
 N882 N 0.71725 0.91469 0.51676
 H883 H 0.65835 0.98500 0.53564
 H884 H 0.72120 0.87680 0.45689
 C885 C 0.83161 0.92993 0.53149
 C886 C 0.81824 0.93057 0.50510
 N887 N 0.82759 0.94853 0.48548
 C888 C 0.84971 0.96599 0.49098
 C889 C 0.86329 0.96552 0.51741
 N890 N 0.85383 0.94733 0.53704
 N891 N 0.82206 0.91199 0.55113
 C892 C 0.79982 0.89458 0.54551
 C893 C 0.78663 0.89504 0.51900
 N894 N 0.79614 0.91317 0.49948
 H895 H 0.85661 0.97987 0.47470
 H896 H 0.79262 0.88065 0.56162
 C897 C 0.32966 0.42465 0.02052
 C898 C 0.31075 0.42684 -0.00218
 N899 N 0.31555 0.44621 -0.02225
 C900 C 0.33837 0.46358 -0.02061
 C901 C 0.35737 0.46146 0.00215
 N902 N 0.35243 0.44189 0.02211
 N903 N 0.32477 0.40554 0.04077
 C904 C 0.30179 0.38844 0.03937
 C905 C 0.28288 0.39048 0.01664
 N906 N 0.28780 0.40972 -0.00363
 H907 H 0.34159 0.47878 -0.03692
 H908 H 0.29834 0.37362 0.05596
 C909 C 0.54735 0.48915 0.31701
 C910 C 0.56669 0.46711 0.31352
 N911 N 0.56714 0.44567 0.33198
 C912 C 0.54911 0.44519 0.35380
 C913 C 0.52956 0.46714 0.35732
 N914 N 0.52924 0.48862 0.33870
 N915 N 0.54696 0.51067 0.29860
 C916 C 0.56501 0.51111 0.27680
 C917 C 0.58420 0.48902 0.27322
 N918 N 0.58462 0.46747 0.29167
 H919 H 0.55002 0.42769 0.36801
 H920 H 0.56431 0.52846 0.26233
 C921 C 0.08085 -0.01755 0.84321
 C922 C 0.07846 0.00994 0.83301
 N923 N 0.06281 0.02911 0.84697
 C924 C 0.04898 0.02198 0.87048
 C925 C 0.05056 -0.00575 0.88048
 N926 N 0.06680 -0.02485 0.86666
 N927 N 0.09660 -0.03663 0.82902
 C928 C 0.10990 -0.02946 0.80507
 C929 C 0.10714 -0.00203 0.79473
 N930 N 0.09147 0.01698 0.80905
 H931 H 0.03675 0.03790 0.88106
 H932 H 0.12205 -0.04515 0.79405
 C933 C 0.05725 0.01818 0.69066
 C934 C 0.08545 0.02627 0.68726
 N935 N 0.09407 0.03564 0.66215
 C936 C 0.07576 0.03753 0.64020
 C937 C 0.04743 0.02953 0.64334
 N938 N 0.03885 0.01987 0.66861
 N939 N 0.04884 0.00875 0.71595
 C940 C 0.06743 0.00683 0.73786
 C941 C 0.09569 0.01457 0.73423
 N942 N 0.10394 0.02412 0.70898
 H943 H 0.08345 0.04494 0.62041
 H944 H 0.06034 -0.00129 0.75760
 C945 C 0.55299 0.49812 0.16462
 C946 C 0.57394 0.51807 0.17139
 N947 N 0.57730 0.54080 0.15493
 C948 C 0.56055 0.54468 0.13202
 C949 C 0.53928 0.52494 0.12526
 N950 N 0.53614 0.50202 0.14180
 N951 N 0.54961 0.47541 0.18123
 C952 C 0.56616 0.47187 0.20440
 C953 C 0.58688 0.49197 0.21125
 N954 N 0.59032 0.51460 0.19455
 H955 H 0.56386 0.56310 0.11947
 H956 H 0.56298 0.45376 0.21752
 C957 C 0.43620 -0.02501 0.17116
 C958 C 0.43452 0.00288 0.18104
 N959 N 0.44700 0.02376 0.16669
 C960 C 0.46160 0.01803 0.14314
 C961 C 0.46411 -0.00995 0.13350
 N962 N 0.45101 -0.03085 0.14766
 N963 N 0.42370 -0.04584 0.18575
 C964 C 0.40969 -0.04001 0.20977
 C965 C 0.40830 -0.01213 0.21973
 N966 N 0.42077 0.00863 0.20507
 H967 H 0.47137 0.03523 0.13225
 H968 H 0.40014 -0.05702 0.22111
 C969 C 0.94188 0.49178 0.67335
 C970 C 0.91925 0.47335 0.67765
 N971 N 0.91374 0.45257 0.65862
 C972 C 0.92987 0.44931 0.63552
 C973 C 0.95267 0.46768 0.63120
 N974 N 0.95799 0.48852 0.65035
 N975 N 0.94762 0.51243 0.69242
 C976 C 0.93167 0.51557 0.71561
 C977 C 0.90895 0.49727 0.71993
 N978 N 0.90330 0.47644 0.70086
 H979 H 0.92490 0.43251 0.62082
 H980 H 0.93701 0.53190 0.73072
 C981 C 0.94785 0.50909 0.82763
 C982 C 0.92673 0.52921 0.82303
 N983 N 0.92376 0.55082 0.84155
 C984 C 0.94085 0.55319 0.86456
 C985 C 0.96187 0.53291 0.86943
 N986 N 0.96481 0.51137 0.85066
 N987 N 0.95086 0.48745 0.80916
 C988 C 0.93354 0.48490 0.78635
 C989 C 0.91214 0.50473 0.78195
 N990 N 0.90932 0.52658 0.80033
 H991 H 0.93780 0.57061 0.87892
 H992 H 0.93622 0.46739 0.77197
 C993 C 0.45621 0.00866 0.32365
 C994 C 0.43633 0.02975 0.31796
 N995 N 0.43605 0.05338 0.33409
 C996 C 0.45454 0.05685 0.35584
 C997 C 0.47435 0.03565 0.36195
 N998 N 0.47473 0.01206 0.34545
 N999 N 0.45635 -0.01506 0.30754
 C1000 C 0.43741 -0.01868 0.28613
 C1001 C 0.41735 0.00226 0.28065
 N1002 N 0.41736 0.02611 0.29665
 H1003 H 0.45364 0.07603 0.36813
 H1004 H 0.43777 -0.03786 0.27371
   
