data_POSCAR
  _audit_creation_date              2014-09-24
  _audit_creation_method            'ToBaCCo'
  _symmetry_space_group_name_H-M    'P1'
  _symmetry_Int_Tables_number       1
  _symmetry_cell_setting            triclinic
  loop_
  _symmetry_equiv_pos_as_xyz
 x,y,z
_cell_length_a 26.3259
_cell_length_b 26.2348
_cell_length_c 26.2282
_cell_angle_alpha 90.116800
_cell_angle_beta 90.214900
_cell_angle_gamma 89.999300
loop_
  _atom_site_label
  _atom_site_type_symbol
  _atom_site_fract_x
  _atom_site_fract_y
  _atom_site_fract_z
C1 C 0.52649 1.00137 -0.66063
 C2 C 0.47446 0.99972 -0.66086
 C3 C 0.45924 0.99920 -0.61022
 N4 N 0.50042 1.00043 -0.57934
 C5 C 0.54159 1.00173 -0.60991
 C6 C 0.40806 0.99914 -0.59377
 C7 C 0.39241 1.00001 -0.54203
 C8 C 0.34252 1.00695 -0.52637
 C9 C 0.34271 1.00618 -0.47407
 C10 C 0.39268 0.99886 -0.45875
 N11 N 0.42259 0.99429 -0.50044
 C12 C 0.40863 0.99684 -0.40713
 C13 C 0.45975 0.99766 -0.39043
 C14 C 0.47484 0.99831 -0.33971
 C15 C 0.52681 1.00119 -0.33948
 C16 C 0.54203 1.00197 -0.39011
 N17 N 0.50088 0.99984 -0.42101
 C18 C 0.59321 1.00293 -0.40653
 C19 C 0.60889 1.00115 -0.45823
 C20 C 0.65879 0.99390 -0.47373
 C21 C 0.65858 0.99345 -0.52603
 C22 C 0.60861 1.00050 -0.54152
 N23 N 0.57871 1.00599 -0.49992
 C24 C 0.59270 1.00164 -0.59318
 H25 H 0.55043 1.00194 -0.69409
 H26 H 0.45057 0.99922 -0.69453
 H27 H 0.54075 1.01625 -0.50000
 H28 H 0.30932 1.01260 -0.55017
 H29 H 0.30972 1.01119 -0.45007
 H30 H 0.45091 0.99725 -0.30626
 H31 H 0.55069 1.00220 -0.30580
 H32 H 0.69157 0.98793 -0.54991
 H33 H 0.46055 0.98404 -0.50049
 H34 H 0.69198 0.98873 -0.44980
 C35 C -0.66133 1.52606 -0.00135
 C36 C -0.66127 1.47393 0.00148
 C37 C -0.61074 1.45873 0.00211
 N38 N -0.58018 1.50007 -0.00004
 C39 C -0.61085 1.54136 -0.00212
 C40 C -0.59418 1.40734 0.00295
 C41 C -0.54264 1.39154 0.00101
 C42 C -0.52712 1.34144 -0.00627
 C43 C -0.47500 1.34161 -0.00689
 C44 C -0.45967 1.39175 0.00007
 N45 N -0.50117 1.42181 0.00568
 C46 C -0.40823 1.40769 0.00100
 C47 C -0.39179 1.45899 0.00098
 C48 C -0.34134 1.47421 0.00046
 C49 C -0.34140 1.52643 -0.00121
 C50 C -0.39189 1.54155 -0.00159
 N51 N -0.42247 1.50024 -0.00027
 C52 C -0.40844 1.59281 -0.00157
 C53 C -0.45990 1.60865 -0.00050
 C54 C -0.47526 1.65876 0.00652
 C55 C -0.52738 1.65881 0.00604
 C56 C -0.54288 1.60868 -0.00120
 N57 N -0.50139 1.57851 -0.00599
 C58 C -0.59441 1.59278 -0.00300
 H59 H -0.69482 1.54999 -0.00231
 H60 H -0.69469 1.44993 0.00254
 H61 H -0.50139 1.54039 -0.01622
 H62 H -0.55090 1.30814 -0.01133
 H63 H -0.45115 1.30847 -0.01246
 H64 H -0.30787 1.45024 0.00097
 H65 H -0.30799 1.55047 -0.00180
 H66 H -0.55119 1.69206 0.01118
 H67 H -0.50115 1.45993 0.01590
 H68 H -0.45142 1.69194 0.01204
 C69 C -0.02059 0.52502 0.34290
 C70 C -0.02003 0.47273 0.34278
 C71 C -0.00821 0.45766 0.39213
 N72 N -0.00117 0.49902 0.42212
 C73 C -0.00906 0.54022 0.39226
 C74 C -0.00077 0.40669 0.40787
 C75 C 0.00680 0.39202 0.45927
 C76 C 0.02281 0.34405 0.47485
 C77 C 0.02226 0.34411 0.52725
 C78 C 0.00599 0.39212 0.54246
 N79 N -0.00362 0.42091 0.50076
 C80 C -0.00247 0.40699 0.59364
 C81 C -0.00911 0.45813 0.60936
 C82 C -0.02090 0.47349 0.65859
 C83 C -0.02036 0.52577 0.65863
 C84 C -0.00833 0.54075 0.60941
 N85 N -0.00113 0.49932 0.57956
 C86 C -0.00096 0.59173 0.59368
 C87 C 0.00658 0.60638 0.54235
 C88 C 0.02234 0.65441 0.52678
 C89 C 0.02175 0.65428 0.47437
 C90 C 0.00574 0.60619 0.45921
 N91 N -0.00373 0.57739 0.50084
 C92 C -0.00256 0.59126 0.40806
 H93 H -0.02797 0.54908 0.31023
 H94 H -0.02694 0.44855 0.30998
 H95 H -0.02179 0.54224 0.50092
 H96 H 0.03327 0.31210 0.45092
 H97 H 0.03226 0.31222 0.55142
 H98 H -0.02842 0.44951 0.69124
 H99 H -0.02745 0.55001 0.69129
 H100 H 0.03157 0.68615 0.45019
 H101 H -0.02186 0.45597 0.50060
 H102 H 0.03264 0.68646 0.55074
 O103 O -0.13024 1.00202 -0.06939
 O104 O 0.13129 0.99820 -0.06890
 O105 O -0.00123 1.06902 -0.13137
 O106 O 0.00202 0.93104 -0.13151
 O107 O 0.00205 0.86884 -0.06930
 O108 O -0.00106 1.13136 -0.06904
 O109 O 0.06915 0.99820 -0.13130
 O110 O -0.06834 1.00188 -0.13157
 Zr111 Zr 0.00048 1.00008 -0.08994
 O112 O 0.04658 0.95381 -0.04638
 O113 O -0.04546 1.04643 -0.04646
 C114 C -0.11513 1.00280 -0.11637
 C115 C 0.11601 0.99733 -0.11593
 C116 C -0.00198 1.11604 -0.11607
 C117 C 0.00279 0.88406 -0.11629
 H118 H 0.06815 1.06781 -0.06776
 O119 O 0.04648 1.04611 -0.04606
 H120 H -0.06712 0.93240 -0.06817
 O121 O -0.04536 0.95414 -0.04634
 O122 O 0.13156 1.00177 0.06908
 O123 O -0.12999 0.99866 0.06858
 O124 O 0.06956 1.13134 0.00186
 O125 O 0.06924 0.86883 -0.00193
 O126 O -0.06830 0.86901 0.00129
 O127 O -0.06799 1.13149 -0.00185
 O128 O 0.00266 1.06925 0.13121
 O129 O -0.00092 0.93131 0.13104
 O130 O 0.00260 1.13148 0.06903
 O131 O -0.00112 0.86898 0.06871
 O132 O 0.13152 1.06899 0.00190
 O133 O -0.13006 1.06926 -0.00203
 O134 O -0.13023 0.93138 0.00123
 O135 O 0.13134 0.93103 -0.00175
 O136 O 0.06965 1.00191 0.13125
 O137 O -0.06785 0.99864 0.13099
 Zr138 Zr 0.09007 1.00006 0.00001
 Zr139 Zr -0.08877 1.00027 -0.00033
 Zr140 Zr 0.00075 1.08994 -0.00006
 Zr141 Zr 0.00053 0.91039 -0.00025
 Zr142 Zr 0.00082 1.00024 0.08962
 O143 O -0.04541 0.95401 0.04597
 O144 O 0.04687 1.04641 0.04625
 C145 C 0.11645 1.00264 0.11606
 C146 C -0.11471 0.99787 0.11562
 C147 C 0.11638 1.11601 0.00276
 C148 C 0.11608 0.88405 -0.00267
 C149 C -0.11511 0.88436 0.00203
 C150 C -0.11484 1.11625 -0.00276
 C151 C 0.00346 1.11624 0.11602
 C152 C -0.00185 0.88429 0.11573
 H153 H -0.06669 1.06809 0.06759
 O154 O -0.04507 1.04630 0.04585
 H155 H 0.06824 0.93234 0.06769
 O156 O 0.04655 0.95411 0.04592
 C157 C 0.29949 1.00229 0.29849
 N158 N 0.24977 1.00467 0.31166
 N159 N 0.21374 1.00535 0.27584
 C160 C 0.22636 1.00370 0.22577
 N161 N 0.27607 1.00133 0.21260
 N162 N 0.31210 1.00065 0.24843
 C163 C 0.33825 1.00123 0.33703
 C164 C 0.37088 1.00026 0.36941
 C165 C 0.18758 1.00380 0.18721
 C166 C 0.15505 1.00351 0.15475
 C167 C -0.29703 0.99841 0.29739
 N168 N -0.24722 0.99767 0.31076
 N169 N -0.21133 0.99697 0.27506
 C170 C -0.22418 0.99695 0.22494
 N171 N -0.27400 0.99767 0.21158
 N172 N -0.30988 0.99837 0.24727
 C173 C -0.33565 0.99949 0.33579
 C174 C -0.36815 1.00046 0.36804
 C175 C -0.18556 0.99680 0.18650
 C176 C -0.15317 0.99706 0.15416
 C177 C -0.29817 1.00425 -0.29880
 N178 N -0.24845 1.00166 -0.31194
 N179 N -0.21241 1.00186 -0.27612
 C180 C -0.22501 1.00467 -0.22610
 N181 N -0.27472 1.00727 -0.21297
 N182 N -0.31076 1.00708 -0.24878
 C183 C -0.33696 1.00381 -0.33732
 C184 C -0.36961 1.00338 -0.36970
 C185 C -0.18624 1.00439 -0.18752
 C186 C -0.15373 1.00386 -0.15505
 C187 C 0.29832 0.99556 -0.29772
 N188 N 0.24860 0.99902 -0.31098
 N189 N 0.21269 0.99888 -0.27529
 C190 C 0.22545 0.99525 -0.22528
 N191 N 0.27517 0.99178 -0.21203
 N192 N 0.31107 0.99192 -0.24772
 C193 C 0.33697 0.99597 -0.33611
 C194 C 0.36948 0.99636 -0.36835
 C195 C 0.18684 0.99560 -0.18683
 C196 C 0.15446 0.99620 -0.15448
 C197 C 0.29852 1.29868 0.00438
 N198 N 0.31144 1.24873 0.00132
 N199 N 0.27567 1.21278 0.00150
 C200 C 0.22590 1.22571 0.00478
 N201 N 0.21298 1.27567 0.00785
 N202 N 0.24875 1.31161 0.00767
 C203 C 0.33698 1.33740 0.00391
 C204 C 0.36922 1.37006 0.00345
 C205 C 0.18735 1.18705 0.00447
 C206 C 0.15494 1.15459 0.00389
 C207 C 0.29814 0.70129 -0.00421
 N208 N 0.31108 0.75127 -0.00155
 N209 N 0.27529 0.78720 -0.00170
 C210 C 0.22549 0.77423 -0.00455
 N211 N 0.21254 0.72426 -0.00723
 N212 N 0.24833 0.68833 -0.00707
 C213 C 0.33663 0.66260 -0.00381
 C214 C 0.36892 0.62999 -0.00342
 C215 C 0.18694 0.81290 -0.00426
 C216 C 0.15457 0.84538 -0.00372
 C217 C -0.29842 0.70291 0.00159
 N218 N -0.31100 0.75302 0.00313
 N219 N -0.27490 0.78864 0.00380
 C220 C -0.22515 0.77521 0.00298
 N221 N -0.21259 0.72510 0.00146
 N222 N -0.24868 0.68949 0.00079
 C223 C -0.33723 0.66455 0.00055
 C224 C -0.36967 0.63211 -0.00040
 C225 C -0.18631 0.81357 0.00310
 C226 C -0.15373 0.84585 0.00283
 C227 C -0.29809 1.29775 -0.00238
 N228 N -0.24835 1.31120 -0.00121
 N229 N -0.21224 1.27560 -0.00191
 C230 C -0.22479 1.22549 -0.00384
 N231 N -0.27453 1.21205 -0.00503
 N232 N -0.31064 1.24765 -0.00433
 C233 C -0.33692 1.33608 -0.00127
 C234 C -0.36940 1.36847 -0.00026
 C235 C -0.18594 1.18715 -0.00395
 C236 C -0.15339 1.15484 -0.00365
 C237 C 0.00279 1.29850 0.29961
 N238 N 0.01226 1.24919 0.31182
 N239 N 0.01305 1.21342 0.27567
 C240 C 0.00443 1.22590 0.22622
 N241 N -0.00502 1.27521 0.21402
 N242 N -0.00581 1.31098 0.25017
 C243 C 0.00161 1.33699 0.33851
 C244 C 0.00052 1.36951 0.37105
 C245 C 0.00462 1.18731 0.18738
 C246 C 0.00435 1.15488 0.15476
 C247 C -0.00344 1.29847 -0.29878
 N248 N 0.00820 1.24953 -0.31069
 N249 N 0.00804 1.21363 -0.27480
 C250 C -0.00379 1.22560 -0.22593
 N251 N -0.01544 1.27455 -0.21403
 N252 N -0.01528 1.31044 -0.24992
 C253 C -0.00307 1.33716 -0.33735
 C254 C -0.00276 1.36978 -0.36968
 C255 C -0.00352 1.18703 -0.18722
 C256 C -0.00301 1.15463 -0.15470
 C257 C 0.00214 0.70054 -0.29864
 N258 N -0.00630 0.68847 -0.24914
 N259 N -0.00561 0.72457 -0.21332
 C260 C 0.00358 0.77382 -0.22592
 N261 N 0.01204 0.78589 -0.27542
 N262 N 0.01135 0.74979 -0.31125
 C263 C 0.00111 0.66171 -0.33721
 C264 C 0.00015 0.62899 -0.36957
 C265 C 0.00377 0.81273 -0.18740
 C266 C 0.00355 0.84535 -0.15496
 C267 C -0.00337 0.70184 0.29838
 N268 N -0.01444 0.68974 0.24928
 N269 N -0.01457 0.72564 0.21340
 C270 C -0.00365 0.77472 0.22555
 N271 N 0.00741 0.78682 0.27465
 N272 N 0.00753 0.75092 0.31053
 C273 C -0.00306 0.66316 0.33695
 C274 C -0.00280 0.63056 0.36929
 C275 C -0.00337 0.81330 0.18686
 C276 C -0.00286 0.84571 0.15436
   
