data_POSCAR
  _audit_creation_date              2014-09-24
  _audit_creation_method            'ToBaCCo'
  _symmetry_space_group_name_H-M    'P1'
  _symmetry_Int_Tables_number       1
  _symmetry_cell_setting            triclinic
  loop_
  _symmetry_equiv_pos_as_xyz
 x,y,z
_cell_length_a 36.2571
_cell_length_b 36.2609
_cell_length_c 36.2760
_cell_angle_alpha 90.026400
_cell_angle_beta 90.021600
_cell_angle_gamma 90.030000
loop_
  _atom_site_label
  _atom_site_type_symbol
  _atom_site_fract_x
  _atom_site_fract_y
  _atom_site_fract_z
O1 O 0.34778 0.39937 0.03523
 O2 O 0.39862 0.34882 -0.03661
 O3 O 0.34749 0.39949 -0.03651
 O4 O 0.39863 0.34852 0.03515
 O5 O 0.35554 0.30533 0.03503
 O6 O 0.30449 0.35622 -0.03653
 O7 O 0.35555 0.30561 -0.03664
 O8 O 0.30475 0.35612 0.03513
 Cu9 Cu 0.37748 0.37842 -0.00069
 Cu10 Cu 0.32575 0.32646 -0.00078
 C11 C 0.31763 0.38632 0.04721
 C12 C 0.38572 0.31860 -0.04863
 C13 C 0.31725 0.38652 -0.04851
 C14 C 0.38574 0.31826 0.04711
 O15 O 0.60141 0.65125 -0.03662
 O16 O 0.65230 0.60066 0.03514
 O17 O 0.60154 0.65161 0.03512
 O18 O 0.65247 0.60051 -0.03662
 O19 O 0.69553 0.64371 -0.03666
 O20 O 0.64470 0.69472 0.03496
 O21 O 0.69540 0.64385 0.03501
 O22 O 0.64456 0.69440 -0.03668
 Cu23 Cu 0.62258 0.62164 -0.00075
 Cu24 Cu 0.67440 0.67351 -0.00087
 C25 C 0.61433 0.68145 -0.04863
 C26 C 0.68249 0.61368 0.04711
 C27 C 0.61449 0.68186 0.04706
 C28 C 0.68269 0.61343 -0.04865
 O29 O 0.60118 0.34897 1.03657
 O30 O 0.65209 0.39962 0.96485
 O31 O 0.60121 0.34877 0.96482
 O32 O 0.65223 0.39974 1.03660
 O33 O 0.69524 0.35654 1.03660
 O34 O 0.64431 0.30564 0.96493
 O35 O 0.69513 0.35642 0.96495
 O36 O 0.64427 0.30582 1.03658
 Cu37 Cu 0.62232 0.37864 1.00072
 Cu38 Cu 0.67408 0.32675 1.00079
 C39 C 0.61408 0.31876 1.04856
 C40 C 0.68226 0.38660 0.95288
 C41 C 0.61412 0.31854 0.95284
 C42 C 0.68244 0.38680 1.04861
 O43 O 0.34771 0.60056 0.96514
 O44 O 0.39877 0.65128 1.03683
 O45 O 0.34769 0.60048 1.03690
 O46 O 0.39861 0.65144 0.96508
 O47 O 0.35552 0.69457 0.96524
 O48 O 0.30468 0.64368 1.03697
 O49 O 0.35568 0.69443 1.03691
 O50 O 0.30467 0.64376 0.96529
 Cu51 Cu 0.37754 0.62158 1.00099
 Cu52 Cu 0.32580 0.67346 1.00113
 C53 C 0.31751 0.61356 0.95320
 C54 C 0.38591 0.68151 1.04884
 C55 C 0.31749 0.61341 1.04894
 C56 C 0.38569 0.68168 0.95313
 O57 O 0.03531 0.34813 0.39918
 O58 O -0.03650 0.39856 0.34820
 O59 O -0.03646 0.34753 0.39888
 O60 O 0.03529 0.39887 0.34816
 O61 O 0.03554 0.35569 0.30509
 O62 O -0.03610 0.30446 0.35571
 O63 O -0.03617 0.35541 0.30509
 O64 O 0.03559 0.30501 0.35603
 Cu65 Cu -0.00061 0.37763 0.37796
 Cu66 Cu -0.00025 0.32580 0.32613
 C67 C 0.04745 0.31798 0.38627
 C68 C -0.04836 0.38554 0.31798
 C69 C -0.04830 0.31724 0.38590
 C70 C 0.04743 0.38598 0.31798
 O71 O 0.03549 0.65149 0.60063
 O72 O -0.03644 0.60117 0.65159
 O73 O -0.03630 0.65208 0.60079
 O74 O 0.03533 0.60083 0.65174
 O75 O 0.03559 0.64409 0.69473
 O76 O -0.03594 0.69524 0.64387
 O77 O -0.03610 0.64440 0.69461
 O78 O 0.03577 0.69469 0.64370
 Cu79 Cu -0.00051 0.62203 0.62184
 Cu80 Cu -0.00013 0.67396 0.67356
 C81 C 0.04765 0.68166 0.61351
 C82 C -0.04831 0.61424 0.68177
 C83 C -0.04813 0.68239 0.61370
 C84 C 0.04744 0.61376 0.68193
 O85 O 1.03634 0.60106 0.34839
 O86 O 0.96461 0.65159 0.39939
 O87 O 0.96456 0.60081 0.34839
 O88 O 1.03638 0.65196 0.39921
 O89 O 1.03610 0.69507 0.35612
 O90 O 0.96439 0.64401 0.30537
 O91 O 0.96442 0.69473 0.35630
 O92 O 1.03608 0.64424 0.30535
 Cu93 Cu 1.00049 0.62199 0.37820
 Cu94 Cu 1.00022 0.67386 0.32644
 C95 C 1.04822 0.61408 0.31820
 C96 C 0.95253 0.68177 0.38651
 C97 C 0.95246 0.61374 0.31821
 C98 C 1.04828 0.68223 0.38628
 O99 O 0.96424 0.34811 0.60044
 O100 O 1.03603 0.39855 0.65167
 O101 O 1.03603 0.34766 0.60077
 O102 O 0.96424 0.39885 0.65155
 O103 O 0.96394 0.35561 0.69451
 O104 O 1.03562 0.30451 0.64381
 O105 O 1.03564 0.35532 0.69465
 O106 O 0.96392 0.30494 0.64348
 Cu107 Cu 1.00016 0.37766 0.62176
 Cu108 Cu 0.99973 0.32574 0.67345
 C109 C 0.95208 0.31792 0.61326
 C110 C 1.04785 0.38550 0.68187
 C111 C 1.04785 0.31736 0.61368
 C112 C 0.95209 0.38592 0.68170
 O113 O 0.39879 0.03630 0.34861
 O114 O 0.34804 -0.03581 0.39901
 O115 O 0.39912 -0.03547 0.34836
 O116 O 0.34783 0.03598 0.39941
 O117 O 0.30483 0.03594 0.35616
 O118 O 0.35607 -0.03543 0.30516
 O119 O 0.30505 -0.03576 0.35574
 O120 O 0.35572 0.03624 0.30543
 Cu121 Cu 0.37779 0.00026 0.37822
 Cu122 Cu 0.32608 0.00025 0.32627
 C123 C 0.38587 0.04832 0.31842
 C124 C 0.31791 -0.04786 0.38591
 C125 C 0.38630 -0.04741 0.31807
 C126 C 0.31760 0.04793 0.38645
 O127 O 0.60113 0.03606 0.65154
 O128 O 0.65190 -0.03604 0.60114
 O129 O 0.60090 -0.03573 0.65187
 O130 O 0.65193 0.03572 0.60058
 O131 O 0.69504 0.03591 0.64373
 O132 O 0.64404 -0.03547 0.69498
 O133 O 0.69497 -0.03576 0.64433
 O134 O 0.64431 0.03623 0.69462
 Cu135 Cu 0.62210 -0.00002 0.62193
 Cu136 Cu 0.67393 0.00026 0.67377
 C137 C 0.61412 0.04821 0.68166
 C138 C 0.68209 -0.04796 0.61420
 C139 C 0.61381 -0.04758 0.68215
 C140 C 0.68219 0.04776 0.61343
 O141 O 0.34778 1.03577 0.60114
 O142 O 0.39862 0.96388 0.65174
 O143 O 0.34780 0.96400 0.60079
 O144 O 0.39884 1.03565 0.65182
 O145 O 0.35574 1.03555 0.69494
 O146 O 0.30473 0.96396 0.64394
 O147 O 0.35548 0.96386 0.69483
 O148 O 0.30475 1.03564 0.64434
 Cu149 Cu 0.37761 0.99983 0.62201
 Cu150 Cu 0.32583 0.99974 0.67386
 C151 C 0.31761 1.04775 0.61418
 C152 C 0.38566 0.95185 0.68191
 C153 C 0.31758 0.95198 0.61370
 C154 C 0.38595 1.04761 0.68206
 O155 O 0.65295 1.03649 0.39907
 O156 O 0.60204 0.96452 0.34844
 O157 O 0.65293 0.96469 0.39936
 O158 O 0.60181 1.03630 0.34841
 O159 O 0.64486 1.03625 0.30525
 O160 O 0.69596 0.96469 0.35616
 O161 O 0.64514 0.96455 0.30531
 O162 O 0.69594 1.03641 0.35584
 Cu163 Cu 0.62309 1.00051 0.37818
 Cu164 Cu 0.67481 1.00047 0.32630
 C165 C 0.68312 1.04850 0.38604
 C166 C 0.61496 0.95250 0.31824
 C167 C 0.68314 0.95269 0.38641
 C168 C 0.61464 1.04826 0.31815
 C169 C 0.83033 0.78202 0.48152
 C170 C 0.83033 0.78196 0.52036
 C171 C 0.80640 0.80550 0.53947
 C172 C 0.78290 0.82941 0.52026
 C173 C 0.78302 0.82956 0.48142
 C174 C 0.80657 0.80565 0.46232
 H175 H 0.80696 0.80600 0.43241
 H176 H 0.80663 0.80578 0.56938
 C177 C 0.16969 0.21801 0.48152
 C178 C 0.16957 0.21798 0.52036
 C179 C 0.19345 0.19442 0.53949
 C180 C 0.21706 0.17059 0.52029
 C181 C 0.21709 0.17057 0.48145
 C182 C 0.19357 0.19447 0.46234
 H183 H 0.19328 0.19420 0.43243
 H184 H 0.19313 0.19406 0.56939
 C185 C 0.17019 0.78150 0.51844
 C186 C 0.17011 0.78152 0.47960
 C187 C 0.19400 0.80510 0.46049
 C188 C 0.21757 0.82898 0.47971
 C189 C 0.21757 0.82900 0.51855
 C190 C 0.19405 0.80507 0.53765
 H191 H 0.19373 0.80536 0.56755
 H192 H 0.19368 0.80545 0.43059
 C193 C 0.82996 0.21762 0.51785
 C194 C 0.83009 0.21752 0.47900
 C195 C 0.80623 0.19387 0.45987
 C196 C 0.78263 0.17003 0.47907
 C197 C 0.78257 0.17009 0.51791
 C198 C 0.80608 0.19407 0.53703
 H199 H 0.80635 0.19385 0.56693
 H200 H 0.80658 0.19347 0.42997
 C201 C 0.48009 0.82933 0.78236
 C202 C 0.51895 0.82941 0.78231
 C203 C 0.53812 0.80548 0.80577
 C204 C 0.51896 0.78189 0.82961
 C205 C 0.48010 0.78191 0.82979
 C206 C 0.46092 0.80547 0.80595
 H207 H 0.43100 0.80580 0.80631
 H208 H 0.56804 0.80577 0.80603
 C209 C 0.48038 0.17088 0.21803
 C210 C 0.51924 0.17089 0.21806
 C211 C 0.53835 0.19482 0.19454
 C212 C 0.51913 0.21832 0.17066
 C213 C 0.48028 0.21822 0.17051
 C214 C 0.46115 0.19466 0.19441
 H215 H 0.43124 0.19427 0.19406
 H216 H 0.56827 0.19459 0.19426
 C217 C 0.51973 0.17101 0.78188
 C218 C 0.48087 0.17091 0.78186
 C219 C 0.46171 0.19483 0.80534
 C220 C 0.48087 0.21843 0.82920
 C221 C 0.51973 0.21843 0.82933
 C222 C 0.53890 0.19489 0.80546
 H223 H 0.56882 0.19458 0.80581
 H224 H 0.43179 0.19450 0.80563
 C225 C 0.52032 0.82988 0.21772
 C226 C 0.48146 0.82988 0.21782
 C227 C 0.46226 0.80591 0.19437
 C228 C 0.48139 0.78232 0.17049
 C229 C 0.52025 0.78239 0.17029
 C230 C 0.53945 0.80602 0.19410
 H231 H 0.56937 0.80638 0.19371
 H232 H 0.43234 0.80615 0.19415
 C233 C 0.78213 0.48092 0.82985
 C234 C 0.78202 0.51978 0.82986
 C235 C 0.80546 0.53893 0.80588
 C236 C 0.82929 0.51975 0.78228
 C237 C 0.82943 0.48089 0.78230
 C238 C 0.80565 0.46174 0.80594
 H239 H 0.80602 0.43182 0.80631
 H240 H 0.80572 0.56885 0.80615
 C241 C 0.21782 0.48080 0.17018
 C242 C 0.21800 0.51966 0.17021
 C243 C 0.19455 0.53882 0.19418
 C244 C 0.17065 0.51965 0.21771
 C245 C 0.17044 0.48079 0.21765
 C246 C 0.19422 0.46163 0.19402
 H247 H 0.19381 0.43171 0.19363
 H248 H 0.19434 0.56874 0.19395
 C249 C 0.78208 0.51915 0.17020
 C250 C 0.78188 0.48030 0.17017
 C251 C 0.80528 0.46109 0.19412
 C252 C 0.82919 0.48021 0.21772
 C253 C 0.82942 0.51906 0.21773
 C254 C 0.80567 0.53828 0.19412
 H255 H 0.80612 0.56819 0.19378
 H256 H 0.80548 0.43117 0.19382
 C257 C 0.21732 0.51897 0.83037
 C258 C 0.21746 0.48011 0.83035
 C259 C 0.19399 0.46093 0.80638
 C260 C 0.17012 0.48007 0.78278
 C261 C 0.16996 0.51893 0.78281
 C262 C 0.19375 0.53811 0.80647
 H263 H 0.19337 0.56803 0.80683
 H264 H 0.19376 0.43101 0.80662
 C265 C 0.29738 0.40631 0.07460
 C266 C 0.27988 0.42320 0.09719
 C267 C 0.25886 0.44307 0.12313
 C268 C 0.24043 0.46016 0.14481
 C269 C 0.70272 0.59370 0.07451
 C270 C 0.72018 0.57682 0.09713
 C271 C 0.74116 0.55695 0.12310
 C272 C 0.75954 0.53984 0.14482
 C273 C 0.70251 0.40658 0.92550
 C274 C 0.72002 0.42344 0.90289
 C275 C 0.74108 0.44325 0.87693
 C276 C 0.75952 0.46030 0.85523
 C277 C 0.29717 0.59353 0.92587
 C278 C 0.27960 0.57662 0.90330
 C279 C 0.25847 0.55674 0.87739
 C280 C 0.23998 0.53964 0.85572
 C281 C 0.07471 0.29780 0.40651
 C282 C 0.09716 0.28032 0.42360
 C283 C 0.12292 0.25926 0.44367
 C284 C 0.14446 0.24075 0.46087
 C285 C 0.07498 0.70179 0.59330
 C286 C 0.09750 0.71924 0.57624
 C287 C 0.12332 0.74027 0.55622
 C288 C 0.14492 0.75876 0.53906
 C289 C 0.92529 0.70199 0.40672
 C290 C 0.90284 0.71954 0.42377
 C291 C 0.87709 0.74068 0.44376
 C292 C 0.85555 0.75923 0.46090
 C293 C 0.92485 0.29772 0.59294
 C294 C 0.90242 0.28019 0.57581
 C295 C 0.87669 0.25904 0.55571
 C296 C 0.85517 0.24046 0.53851
 C297 C 0.40596 0.07568 0.29822
 C298 C 0.42288 0.09822 0.28064
 C299 C 0.44273 0.12405 0.25944
 C300 C 0.45978 0.14563 0.24084
 C301 C 0.59406 0.07562 0.70184
 C302 C 0.57719 0.09821 0.71939
 C303 C 0.55739 0.12410 0.74056
 C304 C 0.54035 0.14573 0.75912
 C305 C 0.40573 0.92452 0.70216
 C306 C 0.42261 0.90199 0.71976
 C307 C 0.44242 0.87616 0.74099
 C308 C 0.45946 0.85457 0.75959
 C309 C 0.59484 0.92516 0.29796
 C310 C 0.57792 0.90263 0.28034
 C311 C 0.55806 0.87678 0.25910
 C312 C 0.54098 0.85517 0.24049
 C313 C 0.40591 0.29837 0.92411
 C314 C 0.42296 0.28084 0.90166
 C315 C 0.44300 0.25973 0.87592
 C316 C 0.46019 0.24119 0.85440
 C317 C 0.59409 0.70173 0.92419
 C318 C 0.57699 0.71930 0.90182
 C319 C 0.55690 0.74048 0.87618
 C320 C 0.53967 0.75907 0.85473
 C321 C 0.40620 0.70185 0.07600
 C322 C 0.42332 0.71949 0.09835
 C323 C 0.44342 0.74076 0.12397
 C324 C 0.46066 0.75942 0.14539
 C325 C 0.59390 0.29849 0.07578
 C326 C 0.57688 0.28091 0.09822
 C327 C 0.55690 0.25972 0.12395
 C328 C 0.53977 0.24113 0.14546
 C329 C 0.29732 0.07514 0.59425
 C330 C 0.27969 0.09774 0.57749
 C331 C 0.25845 0.12366 0.55781
 C332 C 0.23984 0.14531 0.54086
 C333 C 0.70238 0.07442 0.40496
 C334 C 0.72001 0.09703 0.42178
 C335 C 0.74124 0.12298 0.44151
 C336 C 0.75985 0.14467 0.45850
 C337 C 0.70242 0.92465 0.59428
 C338 C 0.72008 0.90209 0.57750
 C339 C 0.74138 0.87623 0.55780
 C340 C 0.76005 0.85464 0.54082
 C341 C 0.29765 0.92467 0.40579
 C342 C 0.28006 0.90201 0.42254
 C343 C 0.25888 0.87603 0.44222
 C344 C 0.24031 0.85433 0.45917
 C345 C 0.07515 0.40549 0.70232
 C346 C 0.09763 0.42238 0.72001
 C347 C 0.12341 0.44227 0.74129
 C348 C 0.14495 0.45938 0.75992
 C349 C 0.07554 0.59410 0.29787
 C350 C 0.09807 0.57722 0.28026
 C351 C 0.12389 0.55738 0.25908
 C352 C 0.14546 0.54030 0.24050
 C353 C 0.92431 0.40553 0.29766
 C354 C 0.90178 0.42244 0.28010
 C355 C 0.87596 0.44236 0.25898
 C356 C 0.85439 0.45950 0.24046
 C357 C 0.92435 0.59427 0.70211
 C358 C 0.90183 0.57739 0.71971
 C359 C 0.87603 0.55751 0.74090
 C360 C 0.85447 0.54040 0.75947
 C361 C 0.70196 0.59433 0.92552
 C362 C 0.71956 0.57737 0.90295
 C363 C 0.74074 0.55748 0.87700
 C364 C 0.75928 0.54041 0.85529
 C365 C 0.29788 0.40560 0.92572
 C366 C 0.28020 0.42256 0.90322
 C367 C 0.25891 0.44244 0.87736
 C368 C 0.24029 0.45951 0.85571
 C369 C 0.29820 0.59431 0.07476
 C370 C 0.28058 0.57733 0.09729
 C371 C 0.25937 0.55739 0.12318
 C372 C 0.24079 0.54029 0.14484
 C373 C 0.70173 0.40586 0.07447
 C374 C 0.71933 0.42281 0.09705
 C375 C 0.74053 0.44268 0.12301
 C376 C 0.75909 0.45973 0.14473
 C377 C 0.92601 0.70173 0.59469
 C378 C 0.90341 0.71937 0.57782
 C379 C 0.87743 0.74060 0.55802
 C380 C 0.85571 0.75918 0.54099
 C381 C 0.92583 0.29785 0.40483
 C382 C 0.90322 0.28016 0.42165
 C383 C 0.87724 0.25889 0.44140
 C384 C 0.85551 0.24029 0.45840
 C385 C 0.07374 0.29804 0.59470
 C386 C 0.09636 0.28042 0.57783
 C387 C 0.12236 0.25923 0.55801
 C388 C 0.14411 0.24070 0.54098
 C389 C 0.07420 0.70152 0.40526
 C390 C 0.09685 0.71912 0.42212
 C391 C 0.12289 0.74028 0.44193
 C392 C 0.14466 0.75880 0.45897
 C393 C 0.59365 0.92513 0.70254
 C394 C 0.57666 0.90257 0.72011
 C395 C 0.55670 0.87661 0.74119
 C396 C 0.53958 0.85487 0.75964
 C397 C 0.40658 0.92535 0.29772
 C398 C 0.42365 0.90285 0.28016
 C399 C 0.44367 0.87697 0.25904
 C400 C 0.46082 0.85529 0.24055
 C401 C 0.59437 0.07552 0.29782
 C402 C 0.57727 0.09801 0.28029
 C403 C 0.55717 0.12387 0.25922
 C404 C 0.53995 0.14552 0.24076
 C405 C 0.40611 0.07498 0.70235
 C406 C 0.42312 0.09760 0.71983
 C407 C 0.44309 0.12362 0.74084
 C408 C 0.46023 0.14541 0.75923
 C409 C 0.59443 0.70224 0.07444
 C410 C 0.57757 0.71988 0.09705
 C411 C 0.55780 0.74109 0.12307
 C412 C 0.54081 0.75964 0.14482
 C413 C 0.40587 0.29796 0.07451
 C414 C 0.42276 0.28041 0.09715
 C415 C 0.44259 0.25931 0.12321
 C416 C 0.45964 0.24086 0.14501
 C417 C 0.59403 0.29824 0.92540
 C418 C 0.57715 0.28070 0.90273
 C419 C 0.55734 0.25960 0.87665
 C420 C 0.54033 0.24112 0.85484
 C421 C 0.40578 0.70200 0.92572
 C422 C 0.42266 0.71957 0.90308
 C423 C 0.44249 0.74070 0.87705
 C424 C 0.45951 0.75920 0.85527
 C425 C 0.70349 0.92537 0.40657
 C426 C 0.72101 0.90280 0.42358
 C427 C 0.74204 0.87682 0.44358
 C428 C 0.76043 0.85506 0.46073
 C429 C 0.29725 0.92466 0.59350
 C430 C 0.27972 0.90211 0.57645
 C431 C 0.25866 0.87616 0.55642
 C432 C 0.24023 0.85444 0.53924
 C433 C 0.29716 0.07517 0.40665
 C434 C 0.27953 0.09766 0.42366
 C435 C 0.25836 0.12353 0.44364
 C436 C 0.23983 0.14519 0.46078
 C437 C 0.70257 0.07494 0.59310
 C438 C 0.72016 0.09736 0.57596
 C439 C 0.74130 0.12315 0.55584
 C440 C 0.75982 0.14475 0.53861
 C441 C 0.92511 0.59353 0.29789
 C442 C 0.90254 0.57657 0.28029
 C443 C 0.87659 0.55667 0.25909
 C444 C 0.85487 0.53962 0.24053
 C445 C 0.92480 0.40617 0.70204
 C446 C 0.90230 0.42319 0.71967
 C447 C 0.87643 0.44315 0.74090
 C448 C 0.85479 0.46026 0.75949
 C449 C 0.07468 0.59351 0.70233
 C450 C 0.09715 0.57652 0.72002
 C451 C 0.12298 0.55660 0.74132
 C452 C 0.14461 0.53953 0.75996
 C453 C 0.07476 0.40623 0.29769
 C454 C 0.09732 0.42321 0.28011
 C455 C 0.12328 0.44312 0.25893
 C456 C 0.14500 0.46018 0.24039
   
