data_POSCAR
  _audit_creation_date              2014-09-24
  _audit_creation_method            'ToBaCCo'
  _symmetry_space_group_name_H-M    'P1'
  _symmetry_Int_Tables_number       1
  _symmetry_cell_setting            triclinic
  loop_
  _symmetry_equiv_pos_as_xyz
 x,y,z
_cell_length_a 45.0026
_cell_length_b 43.6780
_cell_length_c 45.0601
_cell_angle_alpha 89.338200
_cell_angle_beta 90.483600
_cell_angle_gamma 89.317000
loop_
  _atom_site_label
  _atom_site_type_symbol
  _atom_site_fract_x
  _atom_site_fract_y
  _atom_site_fract_z
C1 C 0.11398 0.11612 0.15005
 C2 C 0.11366 0.13954 0.12855
 C3 C 0.13300 0.13827 0.10485
 C4 C 0.15282 0.11345 0.10231
 C5 C 0.15331 0.09032 0.12371
 C6 C 0.13378 0.09170 0.14782
 C7 C 0.10041 0.11370 0.17718
 N8 N 0.11142 0.08849 0.19132
 C9 C 0.13192 0.07483 0.17383
 C10 C 0.17747 0.07170 0.11787
 N11 N 0.19123 0.08295 0.09350
 C12 C 0.17656 0.10846 0.08387
 C13 C 0.13064 0.16588 0.08983
 N14 N 0.11034 0.18351 0.10390
 C15 C 0.09982 0.16780 0.12755
 H16 H 0.08503 0.13008 0.18668
 H17 H 0.14561 0.05524 0.18023
 H18 H 0.18562 0.05275 0.13150
 H19 H 0.18384 0.12345 0.06611
 H20 H 0.14384 0.17325 0.07113
 H21 H 0.08455 0.17694 0.14375
 C22 C -0.10426 0.88211 0.15375
 C23 C -0.10341 0.85994 0.13154
 C24 C -0.12556 0.85939 0.11001
 C25 C -0.14883 0.88103 0.11047
 C26 C -0.14978 0.90290 0.13253
 C27 C -0.12733 0.90344 0.15435
 C28 C -0.08814 0.88509 0.17962
 N29 N -0.10080 0.90768 0.19568
 C30 C -0.12481 0.91902 0.18068
 C31 C -0.17686 0.91788 0.12998
 N32 N -0.19197 0.90568 0.10691
 C33 C -0.17524 0.88311 0.09489
 C34 C -0.12166 0.83285 0.09421
 N35 N -0.09777 0.81756 0.10565
 C36 C -0.08644 0.83372 0.12847
 H37 H -0.06985 0.87053 0.18711
 H38 H -0.14037 0.93581 0.18917
 H39 H -0.18562 0.93498 0.14489
 H40 H -0.18251 0.86808 0.07737
 H41 H -0.13636 0.82418 0.07719
 H42 H -0.06864 0.82587 0.14309
 C43 C -0.12170 0.13563 -0.16499
 C44 C -0.12327 0.15767 -0.14275
 C45 C -0.14486 0.15573 -0.12114
 C46 C -0.16513 0.13163 -0.12151
 C47 C -0.16376 0.10984 -0.14363
 C48 C -0.14186 0.11187 -0.16557
 C49 C -0.10520 0.13404 -0.19047
 N50 N -0.11483 0.10994 -0.20632
 C51 C -0.13727 0.09621 -0.19158
 C52 C -0.18834 0.09153 -0.14055
 N53 N -0.20414 0.10173 -0.11711
 C54 C -0.19036 0.12622 -0.10537
 C55 C -0.14340 0.18203 -0.10464
 N56 N -0.12148 0.19956 -0.11586
 C57 C -0.10901 0.18507 -0.13910
 H58 H -0.08854 0.15014 -0.19767
 H59 H -0.15019 0.07731 -0.19983
 H60 H -0.19508 0.07334 -0.15521
 H61 H -0.19897 0.14012 -0.08755
 H62 H -0.15808 0.18865 -0.08685
 H63 H -0.09194 0.19450 -0.15319
 C64 C 0.10906 0.87962 -0.14883
 C65 C 0.10734 0.85797 -0.12570
 C66 C 0.12742 0.85873 -0.10224
 C67 C 0.14941 0.88120 -0.10159
 C68 C 0.15115 0.90261 -0.12447
 C69 C 0.13086 0.90179 -0.14828
 C70 C 0.09503 0.88173 -0.17607
 N71 N 0.10773 0.90462 -0.19180
 C72 C 0.12971 0.91701 -0.17526
 C73 C 0.17685 0.91887 -0.12005
 N74 N 0.19039 0.90787 -0.09509
 C75 C 0.17404 0.88479 -0.08369
 C76 C 0.12327 0.83263 -0.08538
 N77 N 0.10117 0.81637 -0.09802
 C78 C 0.09132 0.83145 -0.12268
 H79 H 0.07806 0.86662 -0.18445
 H80 H 0.14480 0.93449 -0.18290
 H81 H 0.18596 0.93600 -0.13485
 H82 H 0.18058 0.87042 -0.06493
 H83 H 0.13666 0.82498 -0.06657
 H84 H 0.07519 0.82272 -0.13831
 C85 C 0.12777 1.10153 0.84635
 C86 C 0.14871 1.10051 0.86957
 C87 C 0.14732 1.12189 0.89203
 C88 C 0.12494 1.14453 0.89155
 C89 C 0.10426 1.14557 0.86856
 C90 C 0.10570 1.12395 0.84581
 C91 C 0.12629 1.08637 0.81973
 N92 N 0.10387 1.09903 0.80335
 C93 C 0.09119 1.12207 0.81885
 C94 C 0.08777 1.17213 0.87162
 N95 N 0.09793 1.18689 0.89588
 C96 C 0.12067 1.17046 0.90820
 C97 C 0.17278 1.11831 0.90900
 N98 N 0.18929 1.09534 0.89736
 C99 C 0.17496 1.08432 0.87328
 H100 H 0.14147 1.06873 0.81217
 H101 H 0.07396 1.13746 0.81043
 H102 H 0.07090 1.18094 0.85638
 H103 H 0.13419 1.17771 0.92679
 H104 H 0.17979 1.13274 0.92707
 H105 H 0.18398 1.06737 0.85837
 C106 C 0.86778 0.90272 0.84620
 C107 C 0.84673 0.90287 0.86900
 C108 C 0.84898 0.88157 0.89201
 C109 C 0.87217 0.85985 0.89246
 C110 C 0.89295 0.85969 0.86994
 C111 C 0.89077 0.88128 0.84674
 C112 C 0.86908 0.91810 0.81934
 N113 N 0.89231 0.90651 0.80398
 C114 C 0.90565 0.88398 0.82031
 C115 C 0.91017 0.83361 0.87366
 N116 N 0.90031 0.81822 0.89785
 C117 C 0.87710 0.83387 0.90950
 C118 C 0.82363 0.88426 0.90867
 N119 N 0.80629 0.90663 0.89642
 C120 C 0.81996 0.91812 0.87213
 H121 H 0.85346 0.93527 0.81101
 H122 H 0.92382 0.86959 0.81287
 H123 H 0.92709 0.82532 0.85869
 H124 H 0.86350 0.82584 0.92767
 H125 H 0.81733 0.86968 0.92713
 H126 H 0.81027 0.93482 0.85683
 C127 C 0.12815 0.89932 1.15390
 C128 C 0.15059 0.89897 1.13251
 C129 C 0.15022 0.87730 1.11029
 C130 C 0.12746 0.85570 1.10922
 C131 C 0.10532 0.85594 1.13043
 C132 C 0.10566 0.87791 1.15291
 C133 C 0.12548 0.91469 1.18029
 N134 N 0.10194 0.90318 1.19504
 C135 C 0.08971 0.88063 1.17874
 C136 C 0.08901 0.82971 1.12673
 N137 N 0.10070 0.81393 1.10382
 C138 C 0.12420 0.82942 1.09300
 C139 C 0.17675 0.87936 1.09544
 N140 N 0.19295 0.90170 1.10811
 C141 C 0.17737 0.91383 1.13079
 H142 H 0.14073 0.93141 1.18902
 H143 H 0.07193 0.86592 1.18603
 H144 H 0.07140 0.82163 1.14093
 H145 H 0.13908 0.82105 1.07608
 H146 H 0.18453 0.86441 1.07807
 H147 H 0.18571 0.93073 1.14605
 C148 C 0.87014 1.09850 1.14972
 C149 C 0.84766 1.09898 1.12796
 C150 C 0.84736 1.12150 1.10600
 C151 C 0.86955 1.14380 1.10553
 C152 C 0.89180 1.14325 1.12699
 C153 C 0.89210 1.12049 1.14919
 C154 C 0.87349 1.08215 1.17591
 N155 N 0.89692 1.09370 1.19096
 C156 C 0.90843 1.11714 1.17503
 C157 C 0.90784 1.16970 1.12357
 N158 N 0.89588 1.18603 1.10062
 C159 C 0.87245 1.17062 1.08943
 C160 C 0.82109 1.11880 1.09038
 N161 N 0.80575 1.09526 1.10232
 C162 C 0.82157 1.08303 1.12532
 H163 H 0.85882 1.06463 1.18428
 H164 H 0.92602 1.13195 1.18259
 H165 H 0.92567 1.17741 1.13783
 H166 H 0.85758 1.17920 1.07215
 H167 H 0.81293 1.13392 1.07284
 H168 H 0.81387 1.06510 1.14006
 N169 N 0.46836 0.96249 1.05585
 N170 N 0.44371 0.96201 1.07152
 N171 N 0.53106 0.94076 1.03543
 N172 N 0.55659 0.92551 1.03628
 N173 N 0.53096 0.96249 1.05538
 N174 N 0.55636 0.96248 1.07025
 N175 N 0.46822 0.94070 1.03600
 N176 N 0.44339 0.92496 1.03763
 C177 C 0.42867 0.93823 1.06020
 C178 C 0.57183 0.93901 1.05843
 N179 N 0.52901 0.95995 0.95010
 N180 N 0.55419 0.95976 0.93529
 N181 N 0.46691 0.93925 0.97220
 N182 N 0.44135 0.92470 0.97309
 N183 N 0.46638 0.96006 0.95088
 N184 N 0.44057 0.96002 0.93677
 N185 N 0.52987 0.93925 0.97152
 N186 N 0.55571 0.92456 0.97174
 Mn187 Mn 0.49904 0.93956 1.00377
 C188 C 0.57029 0.93725 0.94869
 C189 C 0.42549 0.93751 0.95048
 N190 N 0.53028 1.02822 1.05319
 N191 N 0.55539 1.02918 1.06849
 N192 N 0.46723 1.04928 1.03217
 N193 N 0.44103 1.06323 1.03086
 N194 N 0.46758 1.02838 1.05343
 N195 N 0.44169 1.02776 1.06696
 N196 N 0.53013 1.04882 1.03171
 N197 N 0.55522 1.06424 1.03184
 Mn198 Mn 0.49928 0.99543 1.05481
 C199 C 0.57041 1.05203 1.05521
 C200 C 0.42567 1.05002 1.05307
 N201 N 0.46572 1.02594 0.94870
 N202 N 0.44025 1.02647 0.93392
 N203 N 0.52898 1.04725 0.96778
 N204 N 0.55366 1.06317 0.96552
 N205 N 0.52832 1.02565 0.94775
 N206 N 0.55243 1.02637 0.93131
 N207 N 0.46625 1.04788 0.96840
 N208 N 0.44115 1.06385 0.96745
 Mn209 Mn 0.49732 0.99285 0.94901
 Mn210 Mn 0.49821 1.04872 1.00004
 Cl211 Cl 0.49846 0.99414 1.00191
 C212 C 0.42545 1.05050 0.94558
 C213 C 0.56772 1.05010 0.94240
 N214 N 0.05153 0.46743 -0.02950
 N215 N 0.06586 0.44089 -0.03022
 N216 N 0.03185 0.53309 -0.04965
 N217 N 0.03235 0.55937 -0.06443
 N218 N 0.05294 0.53211 -0.02931
 N219 N 0.06830 0.55770 -0.02981
 N220 N 0.03031 0.46844 -0.04973
 N221 N 0.02973 0.44262 -0.06468
 C222 C 0.05234 0.42599 -0.05259
 C223 C 0.05550 0.57414 -0.05214
 N224 N -0.05193 0.53619 -0.02752
 N225 N -0.06676 0.56248 -0.02832
 N226 N -0.03362 0.47105 -0.04877
 N227 N -0.03667 0.44651 -0.06531
 N228 N -0.05381 0.47168 -0.02790
 N229 N -0.07111 0.44757 -0.02967
 N230 N -0.03195 0.53545 -0.04862
 N231 N -0.03274 0.56116 -0.06431
 Mn232 Mn -0.00083 0.50197 -0.04957
 C233 C -0.05481 0.57749 -0.05166
 C234 C -0.06033 0.43241 -0.05329
 N235 N 0.05448 0.53102 0.03460
 N236 N 0.06972 0.55667 0.03485
 N237 N 0.03311 0.46663 0.05516
 N238 N 0.03482 0.44117 0.07120
 N239 N 0.05329 0.46651 0.03427
 N240 N 0.06925 0.44097 0.03556
 N241 N 0.03443 0.53116 0.05566
 N242 N 0.03558 0.55689 0.07068
 Mn243 Mn 0.05344 0.49927 0.00249
 C244 C 0.05801 0.57221 0.05778
 C245 C 0.05772 0.42570 0.05892
 N246 N -0.05212 0.47023 0.03589
 N247 N -0.06775 0.44484 0.03628
 N248 N -0.02938 0.53339 0.05684
 N249 N -0.02933 0.55860 0.07271
 N250 N -0.05040 0.53483 0.03643
 N251 N -0.06514 0.56108 0.03793
 N252 N -0.03088 0.46883 0.05610
 N253 N -0.03160 0.44246 0.07071
 Mn254 Mn -0.05245 0.50328 0.00426
 Mn255 Mn 0.00181 0.49995 0.05632
 Cl256 Cl 0.00048 0.50112 0.00338
 C257 C -0.05503 0.42809 0.05845
 C258 C -0.05202 0.57534 0.06094
 N259 N 0.97482 0.05396 0.46483
 N260 N 0.97360 0.06891 0.43917
 N261 N 0.95424 0.03565 0.52838
 N262 N 0.93833 0.03826 0.55268
 N263 N 0.97499 0.05654 0.52750
 N264 N 0.97374 0.07387 0.55131
 N265 N 0.95387 0.03329 0.46607
 N266 N 0.93785 0.03374 0.44140
 C267 C 0.95014 0.05632 0.42512
 C268 C 0.95048 0.06242 0.56645
 N269 N 0.97407 -0.05190 0.53271
 N270 N 0.97265 -0.06720 0.55813
 N271 N 0.95328 -0.03239 0.46916
 N272 N 0.93815 -0.03309 0.44398
 N273 N 0.97379 -0.05407 0.46992
 N274 N 0.97309 -0.06997 0.44514
 N275 N 0.95367 -0.03013 0.53158
 N276 N 0.93784 -0.03012 0.55610
 Mn277 Mn 0.95344 0.00159 0.49883
 C278 C 0.94966 -0.05360 0.57217
 C279 C 0.95039 -0.05691 0.42955
 N280 N 1.03898 0.05502 0.52800
 N281 N 1.03958 0.07126 0.55255
 N282 N 1.05947 0.03095 0.46677
 N283 N 1.07528 0.03056 0.44225
 N284 N 1.03891 0.05253 0.46525
 N285 N 1.04017 0.06728 0.43952
 N286 N 1.05939 0.03324 0.52916
 N287 N 1.07436 0.03422 0.55444
 Mn288 Mn 1.00695 0.05496 0.49635
 C289 C 1.06212 0.05836 0.56845
 C290 C 1.06328 0.05358 0.42575
 N291 N 1.03782 -0.05549 0.47026
 N292 N 1.03773 -0.07118 0.44536
 N293 N 1.05890 -0.03257 0.53206
 N294 N 1.07499 -0.03335 0.55668
 N295 N 1.03807 -0.05337 0.53299
 N296 N 1.03942 -0.06876 0.55841
 N297 N 1.05874 -0.03473 0.46964
 N298 N 1.07333 -0.03588 0.44438
 Mn299 Mn 1.00594 -0.05415 0.50149
 Mn300 Mn 1.05946 -0.00079 0.49944
 Cl301 Cl 1.00644 0.00041 0.49904
 C302 C 1.06035 -0.05904 0.42981
 C303 C 1.06284 -0.05628 0.57261
 C304 C 1.08373 0.06620 0.33825
 C305 C 1.10015 0.04326 0.32333
 C306 C 1.10548 0.04630 0.29238
 C307 C 1.09479 0.07248 0.27666
 C308 C 1.07866 0.09557 0.29167
 C309 C 1.07320 0.09245 0.32256
 C310 C 1.05744 0.11603 0.33718
 C311 C 1.04749 0.14204 0.32174
 C312 C 1.05247 0.14495 0.29146
 C313 C 1.06785 0.12206 0.27648
 C314 C 1.12140 0.02281 0.27782
 C315 C 1.13184 -0.00294 0.29341
 C316 C 1.12689 -0.00577 0.32372
 C317 C 1.11129 0.01702 0.33864
 C318 C 1.10114 0.07647 0.24532
 C319 C 1.10615 0.08152 0.21949
 C320 C 1.07694 0.06245 0.36951
 C321 C 1.07086 0.05895 0.39531
 H322 H 1.05289 0.11479 0.36070
 H323 H 1.03593 0.16006 0.33337
 H324 H 1.04451 0.16512 0.27954
 H325 H 1.07127 0.12547 0.25295
 H326 H 1.12575 0.02401 0.25425
 H327 H 1.14377 -0.02082 0.28189
 H328 H 1.13495 -0.02587 0.33571
 H329 H 1.10783 0.01370 0.36219
 C330 C 0.93232 -0.07091 0.34174
 C331 C 0.91575 -0.09639 0.33228
 C332 C 0.90899 -0.09996 0.30167
 C333 C 0.91882 -0.07799 0.28067
 C334 C 0.93527 -0.05242 0.29014
 C335 C 0.94206 -0.04886 0.32078
 C336 C 0.95817 -0.02288 0.32977
 C337 C 0.96694 -0.00085 0.30914
 C338 C 0.96056 -0.00446 0.27917
 C339 C 0.94496 -0.02996 0.26964
 C340 C 0.89232 -0.12563 0.29278
 C341 C 0.88259 -0.14709 0.31353
 C342 C 0.88919 -0.14357 0.34347
 C343 C 0.90559 -0.11856 0.35286
 C344 C 0.91199 -0.08197 0.24942
 C345 C 0.90599 -0.08643 0.22371
 C346 C 0.93880 -0.06702 0.37307
 C347 C 0.94406 -0.06313 0.39900
 H348 H 0.96366 -0.01900 0.35284
 H349 H 0.97840 0.01935 0.31652
 H350 H 0.96742 0.01276 0.26327
 H351 H 0.94027 -0.03167 0.24613
 H352 H 0.88658 -0.12939 0.26975
 H353 H 0.86984 -0.16655 0.30634
 H354 H 0.88157 -0.16029 0.35951
 H355 H 0.91016 -0.11681 0.37640
 C356 C 0.92833 0.08299 0.65172
 C357 C 0.93539 0.06100 0.67411
 C358 C 0.92663 0.06616 0.70389
 C359 C 0.91097 0.09333 0.71109
 C360 C 0.90434 0.11554 0.68877
 C361 C 0.91300 0.11031 0.65898
 C362 C 0.90599 0.13273 0.63702
 C363 C 0.89090 0.15962 0.64429
 C364 C 0.88249 0.16479 0.67343
 C365 C 0.88907 0.14309 0.69551
 C366 C 0.93378 0.04378 0.72587
 C367 C 0.94920 0.01708 0.71864
 C368 C 0.95781 0.01212 0.68955
 C369 C 0.95105 0.03368 0.66744
 C370 C 0.90166 0.09853 0.74139
 C371 C 0.89381 0.10359 0.76638
 C372 C 0.93628 0.07705 0.62116
 C373 C 0.94276 0.07114 0.59597
 H374 H 0.91214 0.12976 0.61406
 H375 H 0.88572 0.17653 0.62722
 H376 H 0.87081 0.18573 0.67898
 H377 H 0.88210 0.14818 0.71785
 H378 H 0.92757 0.04670 0.74882
 H379 H 0.95452 0.00017 0.73568
 H380 H 0.96988 -0.00849 0.68405
 H381 H 0.95830 0.02870 0.64516
 C382 C 1.08343 -0.07227 0.66004
 C383 C 1.09745 -0.04904 0.67657
 C384 C 1.10187 -0.05291 0.70768
 C385 C 1.09257 -0.08014 0.72201
 C386 C 1.07878 -0.10348 0.70541
 C387 C 1.07441 -0.09962 0.67430
 C388 C 1.06038 -0.12315 0.65823
 C389 C 1.05080 -0.14968 0.67249
 C390 C 1.05496 -0.15341 0.70292
 C391 C 1.06882 -0.13069 0.71929
 C392 C 1.11555 -0.02920 0.72379
 C393 C 1.12492 -0.00257 0.70954
 C394 C 1.12095 0.00105 0.67907
 C395 C 1.10727 -0.02178 0.66268
 C396 C 1.09787 -0.08467 0.75362
 C397 C 1.10249 -0.08939 0.77969
 C398 C 1.07682 -0.06737 0.62873
 C399 C 1.07070 -0.06283 0.60295
 H400 H 1.05659 -0.12129 0.63453
 H401 H 1.04004 -0.16741 0.65987
 H402 H 1.04740 -0.17403 0.71390
 H403 H 1.07145 -0.13463 0.74292
 H404 H 1.11909 -0.03096 0.74754
 H405 H 1.13524 0.01540 0.72221
 H406 H 1.12824 0.02180 0.66812
 H407 H 1.10449 -0.01781 0.63907
 C408 C 0.33534 1.05578 1.06037
 C409 C 0.31864 1.07740 1.04331
 C410 C 0.28742 1.07992 1.04723
 C411 C 0.27320 1.06104 1.06839
 C412 C 0.28950 1.03777 1.08363
 C413 C 0.32072 1.03518 1.07969
 C414 C 0.33667 1.01207 1.09555
 C415 C 0.32217 0.99213 1.11479
 C416 C 0.29158 0.99445 1.11840
 C417 C 0.27532 1.01702 1.10309
 C418 C 0.27106 1.10134 1.02965
 C419 C 0.28512 1.11948 1.00849
 C420 C 0.31568 1.11707 1.00469
 C421 C 0.33241 1.09648 1.02202
 C422 C 0.24267 1.06755 1.07653
 C423 C 0.21794 1.07439 1.08435
 C424 C 0.36746 1.05465 1.05805
 C425 C 0.39412 1.05318 1.05608
 H426 H 0.36045 1.00914 1.09326
 H427 H 0.33475 0.97476 1.12693
 H428 H 0.28041 0.97871 1.13317
 H429 H 0.25155 1.01793 1.10650
 H430 H 0.24721 1.10384 1.03169
 H431 H 0.27223 1.13546 0.99493
 H432 H 0.32649 1.13113 0.98816
 H433 H 0.35608 1.09524 1.01812
 C434 C 0.33581 0.92918 0.93881
 C435 C 0.31992 0.90511 0.95245
 C436 C 0.28873 0.90299 0.94791
 C437 C 0.27368 0.92479 0.92959
 C438 C 0.28919 0.95006 0.91773
 C439 C 0.32040 0.95219 0.92220
 C440 C 0.33549 0.97751 0.90985
 C441 C 0.32016 1.00011 0.89365
 C442 C 0.28958 0.99821 0.88960
 C443 C 0.27417 0.97346 0.90137
 C444 C 0.27320 0.87907 0.96217
 C445 C 0.28804 0.85802 0.98064
 C446 C 0.31854 0.86010 0.98508
 C447 C 0.33445 0.88324 0.97109
 C448 C 0.24286 0.91994 0.92131
 C449 C 0.21771 0.91463 0.91369
 C450 C 0.36778 0.93092 0.94275
 C451 C 0.39425 0.93315 0.94613
 H452 H 0.35922 0.98018 0.91265
 H453 H 0.33205 1.01928 0.88429
 H454 H 0.27776 1.01601 0.87726
 H455 H 0.25037 0.97299 0.89777
 H456 H 0.24941 0.87670 0.95961
 H457 H 0.27577 0.84005 0.99163
 H458 H 0.32995 0.84373 0.99950
 H459 H 0.35812 0.88402 0.97535
 C460 C 0.66055 0.92585 1.07545
 C461 C 0.68080 0.94778 1.06454
 C462 C 0.71169 0.94440 1.07089
 C463 C 0.72216 0.91904 1.08799
 C464 C 0.70190 0.89701 1.09871
 C465 C 0.67103 0.90045 1.09244
 C466 C 0.65123 0.87816 1.10344
 C467 C 0.66163 0.85315 1.12012
 C468 C 0.69181 0.84975 1.12624
 C469 C 0.71181 0.87135 1.11573
 C470 C 0.73145 0.96677 1.06001
 C471 C 0.72098 0.99193 1.04356
 C472 C 0.69079 0.99531 1.03751
 C473 C 0.67086 0.97344 1.04758
 C474 C 0.75369 0.91533 1.09453
 C475 C 0.77967 0.91116 1.10031
 C476 C 0.62892 0.92968 1.06956
 C477 C 0.60274 0.93336 1.06464
 H478 H 0.62755 0.87978 1.09922
 H479 H 0.64617 0.83631 1.12833
 H480 H 0.69979 0.83026 1.13919
 H481 H 0.73507 0.86766 1.12107
 H482 H 0.75512 0.96519 1.06432
 H483 H 0.73633 1.00904 1.03571
 H484 H 0.68269 1.01521 1.02528
 H485 H 0.64758 0.97713 1.04232
 C486 C 0.65339 1.06811 0.91916
 C487 C 0.66681 1.09569 0.92809
 C488 C 0.69710 1.10110 0.92139
 C489 C 0.71370 1.07902 0.90552
 C490 C 0.70029 1.05141 0.89662
 C491 C 0.66996 1.04604 0.90326
 C492 C 0.65690 1.01846 0.89379
 C493 C 0.67344 0.99664 0.87851
 C494 C 0.70318 1.00177 0.87230
 C495 C 0.71656 1.02884 0.88114
 C496 C 0.71007 1.12882 0.93069
 C497 C 0.69343 1.15077 0.94566
 C498 C 0.66368 1.14567 0.95174
 C499 C 0.65048 1.11837 0.94339
 C500 C 0.74406 1.08563 0.89721
 C501 C 0.76889 1.09271 0.89033
 C502 C 0.62274 1.06224 0.92690
 C503 C 0.59745 1.05712 0.93377
 H504 H 0.63389 1.01334 0.89830
 H505 H 0.66318 0.97553 0.87170
 H506 H 0.71599 0.98463 0.86065
 H507 H 0.73977 1.03180 0.87587
 H508 H 0.73312 1.13390 0.92641
 H509 H 0.70365 1.17191 0.95244
 H510 H 0.65073 1.16296 0.96300
 H511 H 0.62731 1.11542 0.94880
 C512 C 0.07861 0.33621 0.07775
 C513 C 0.05707 0.31384 0.07123
 C514 C 0.06382 0.28229 0.07597
 C515 C 0.09212 0.27328 0.08711
 C516 C 0.11376 0.29562 0.09343
 C517 C 0.10696 0.32719 0.08879
 C518 C 0.12894 0.34911 0.09519
 C519 C 0.15687 0.34010 0.10589
 C520 C 0.16353 0.30923 0.11045
 C521 C 0.14231 0.28715 0.10433
 C522 C 0.04190 0.26036 0.06931
 C523 C 0.01415 0.26937 0.05818
 C524 C 0.00767 0.30020 0.05342
 C525 C 0.02872 0.32229 0.05986
 C526 C 0.09876 0.24108 0.09255
 C527 C 0.10410 0.21440 0.09753
 C528 C 0.07184 0.36833 0.07207
 C529 C 0.06570 0.39473 0.06659
 H530 H 0.12478 0.37339 0.09200
 H531 H 0.17344 0.35716 0.11066
 H532 H 0.18527 0.30235 0.11876
 H533 H 0.14855 0.26342 0.10818
 H534 H 0.04595 0.23609 0.07262
 H535 H -0.00245 0.25236 0.05332
 H536 H -0.01390 0.30716 0.04506
 H537 H 0.02243 0.34599 0.05595
 C538 C -0.08686 0.34671 -0.07634
 C539 C -0.08117 0.32222 -0.05616
 C540 C -0.08903 0.29191 -0.06387
 C541 C -0.10240 0.28628 -0.09177
 C542 C -0.10843 0.31081 -0.11182
 C543 C -0.10067 0.34115 -0.10406
 C544 C -0.10686 0.36532 -0.12444
 C545 C -0.12034 0.35968 -0.15176
 C546 C -0.12791 0.33000 -0.15937
 C547 C -0.12207 0.30576 -0.13973
 C548 C -0.08315 0.26777 -0.04334
 C549 C -0.06976 0.27342 -0.01601
 C550 C -0.06196 0.30304 -0.00859
 C551 C -0.06759 0.32726 -0.02825
 C552 C -0.10940 0.25520 -0.10005
 C553 C -0.11500 0.22941 -0.10717
 C554 C -0.07804 0.37749 -0.06871
 C555 C -0.07025 0.40278 -0.06198
 H556 H -0.10140 0.38878 -0.11949
 H557 H -0.12495 0.37844 -0.16708
 H558 H -0.13837 0.32573 -0.18062
 H559 H -0.12840 0.28309 -0.14663
 H560 H -0.08888 0.24434 -0.04814
 H561 H -0.06550 0.25476 -0.00048
 H562 H -0.05186 0.30738 0.01269
 H563 H -0.06130 0.34991 -0.02125
 C564 C 0.07228 0.66481 -0.06726
 C565 C 0.05149 0.68718 -0.05776
 C566 C 0.05678 0.71876 -0.06334
 C567 C 0.08295 0.72777 -0.07813
 C568 C 0.10391 0.70540 -0.08727
 C569 C 0.09855 0.67385 -0.08182
 C570 C 0.11982 0.65193 -0.09120
 C571 C 0.14564 0.66092 -0.10554
 C572 C 0.15088 0.69177 -0.11091
 C573 C 0.13034 0.71385 -0.10195
 C574 C 0.03549 0.74067 -0.05406
 C575 C 0.00961 0.73164 -0.03981
 C576 C 0.00444 0.70079 -0.03435
 C577 C 0.02517 0.67873 -0.04294
 C578 C 0.08839 0.75991 -0.08437
 C579 C 0.09391 0.78621 -0.09034
 C580 C 0.06659 0.63251 -0.06227
 C581 C 0.06181 0.60573 -0.05797
 H582 H 0.11676 0.62765 -0.08750
 H583 H 0.16168 0.64386 -0.11252
 H584 H 0.17097 0.69864 -0.12209
 H585 H 0.13547 0.73754 -0.10664
 H586 H 0.03853 0.76493 -0.05789
 H587 H -0.00662 0.74865 -0.03313
 H588 H -0.01591 0.69387 -0.02370
 H589 H 0.02011 0.65501 -0.03824
 C590 C -0.06799 0.66544 0.07929
 C591 C -0.04673 0.68278 0.09495
 C592 C -0.05156 0.71467 0.09904
 C593 C -0.07782 0.72892 0.08782
 C594 C -0.09914 0.71153 0.07227
 C595 C -0.09429 0.67967 0.06817
 C596 C -0.11623 0.66261 0.05319
 C597 C -0.14225 0.67664 0.04264
 C598 C -0.14677 0.70790 0.04616
 C599 C -0.12554 0.72527 0.06077
 C600 C -0.02981 0.73163 0.11439
 C601 C -0.00407 0.71745 0.12550
 C602 C 0.00052 0.68621 0.12176
 C603 C -0.02052 0.66894 0.10671
 C604 C -0.08383 0.76101 0.09361
 C605 C -0.08988 0.78733 0.09894
 C606 C -0.06252 0.63320 0.07380
 C607 C -0.05794 0.60661 0.06841
 H608 H -0.11369 0.63825 0.04975
 H609 H -0.15899 0.66313 0.03169
 H610 H -0.16691 0.71873 0.03764
 H611 H -0.13011 0.74950 0.06304
 H612 H -0.03240 0.75600 0.11781
 H613 H 0.01245 0.73080 0.13699
 H614 H 0.02060 0.67532 0.13033
 H615 H -0.01590 0.64475 0.10421
 C616 C 1.07801 0.07466 0.65628
 C617 C 1.06577 0.05419 0.67735
 C618 C 1.07121 0.05841 0.70815
 C619 C 1.08859 0.08331 0.71770
 C620 C 1.10095 0.10370 0.69659
 C621 C 1.09562 0.09936 0.66580
 C622 C 1.10816 0.12003 0.64512
 C623 C 1.12557 0.14427 0.65459
 C624 C 1.13085 0.14850 0.68468
 C625 C 1.11870 0.12856 0.70554
 C626 C 1.05922 0.03728 0.72874
 C627 C 1.04240 0.01262 0.71916
 C628 C 1.03703 0.00859 0.68905
 C629 C 1.04836 0.02913 0.66831
 C630 C 1.09370 0.08821 0.74915
 C631 C 1.09836 0.09309 0.77506
 C632 C 1.07283 0.06992 0.62484
 C633 C 1.06822 0.06525 0.59891
 H634 H 1.10466 0.11769 0.62147
 H635 H 1.13501 0.15986 0.63847
 H636 H 1.14440 0.16736 0.69192
 H637 H 1.12345 0.13282 0.72870
 H638 H 1.06294 0.03943 0.75238
 H639 H 1.03357 -0.00349 0.73515
 H640 H 1.02413 -0.01060 0.68163
 H641 H 1.04359 0.02490 0.64515
 C642 C 0.92734 -0.06890 0.65892
 C643 C 0.89713 -0.07027 0.66731
 C644 C 0.88961 -0.07385 0.69774
 C645 C 0.91235 -0.07603 0.71959
 C646 C 0.94254 -0.07418 0.71126
 C647 C 0.95006 -0.07087 0.68082
 C648 C 0.98040 -0.06920 0.67305
 C649 C 1.00257 -0.07005 0.69479
 C650 C 0.99528 -0.07322 0.72453
 C651 C 0.96562 -0.07544 0.73280
 C652 C 0.85926 -0.07516 0.70558
 C653 C 0.83696 -0.07298 0.68400
 C654 C 0.84430 -0.06950 0.65426
 C655 C 0.87400 -0.06816 0.64588
 C656 C 0.90480 -0.08140 0.75048
 C657 C 0.89877 -0.08679 0.77602
 C658 C 0.93506 -0.06446 0.62792
 C659 C 0.94163 -0.06006 0.60234
 H660 H 0.98730 -0.06659 0.65021
 H661 H 1.02551 -0.06769 0.68855
 H662 H 1.01268 -0.07385 0.74127
 H663 H 0.96100 -0.07779 0.75623
 H664 H 0.85246 -0.07779 0.72844
 H665 H 0.81385 -0.07399 0.69040
 H666 H 0.82688 -0.06784 0.63758
 H667 H 0.87860 -0.06552 0.62246
 C668 C 1.07455 -0.07372 0.34160
 C669 C 1.08937 -0.10045 0.33182
 C670 C 1.09448 -0.10465 0.30105
 C671 C 1.08472 -0.08206 0.28023
 C672 C 1.07000 -0.05524 0.29003
 C673 C 1.06481 -0.05110 0.32081
 C674 C 1.05031 -0.02397 0.33012
 C675 C 1.04170 -0.00136 0.30966
 C676 C 1.04661 -0.00547 0.27956
 C677 C 1.06051 -0.03212 0.26971
 C678 C 1.10945 -0.13156 0.29183
 C679 C 1.11911 -0.15364 0.31241
 C680 C 1.11410 -0.14952 0.34250
 C681 C 1.09940 -0.12328 0.35221
 C682 C 1.09026 -0.08646 0.24887
 C683 C 1.09555 -0.09106 0.22310
 C684 C 1.06971 -0.06929 0.37307
 C685 C 1.06564 -0.06519 0.39912
 H686 H 1.04601 -0.01966 0.35331
 H687 H 1.03149 0.01965 0.31725
 H688 H 1.03987 0.01221 0.26378
 H689 H 1.06404 -0.03423 0.24610
 H690 H 1.11390 -0.13584 0.26868
 H691 H 1.13056 -0.17405 0.30497
 H692 H 1.12163 -0.16674 0.35840
 H693 H 1.09604 -0.12111 0.37585
 C694 C 0.92930 0.07027 0.33743
 C695 C 0.94106 0.09548 0.32160
 C696 C 0.93527 0.09890 0.29068
 C697 C 0.91753 0.07723 0.27580
 C698 C 0.90575 0.05202 0.29162
 C699 C 0.91147 0.04865 0.32258
 C700 C 0.89922 0.02340 0.33798
 C701 C 0.88214 0.00190 0.32315
 C702 C 0.87678 0.00505 0.29284
 C703 C 0.88833 0.02983 0.27715
 C704 C 0.94735 0.12428 0.27533
 C705 C 0.96424 0.14590 0.29019
 C706 C 0.96951 0.14277 0.32051
 C707 C 0.95836 0.11776 0.33610
 C708 C 0.91029 0.08189 0.24460
 C709 C 0.90403 0.08706 0.21893
 C710 C 0.93624 0.06616 0.36877
 C711 C 0.94242 0.06224 0.39463
 H712 H 0.90294 0.01985 0.36153
 H713 H 0.87321 -0.01745 0.33520
 H714 H 0.86370 -0.01184 0.28139
 H715 H 0.88366 0.03127 0.25358
 H716 H 0.94380 0.12777 0.25175
 H717 H 0.97314 0.16527 0.27815
 H718 H 0.98222 0.15987 0.33204
 H719 H 0.96319 0.11629 0.35964
 C720 C 0.06612 0.33523 -0.07016
 C721 C 0.07831 0.31544 -0.04798
 C722 C 0.08325 0.28395 -0.05422
 C723 C 0.07617 0.27248 -0.08265
 C724 C 0.06322 0.29209 -0.10454
 C725 C 0.05816 0.32354 -0.09827
 C726 C 0.04526 0.34271 -0.12054
 C727 C 0.03755 0.33114 -0.14820
 C728 C 0.04252 0.30040 -0.15435
 C729 C 0.05523 0.28100 -0.13287
 C730 C 0.09541 0.26460 -0.03169
 C731 C 0.10266 0.27607 -0.00385
 C732 C 0.09812 0.30690 0.00212
 C733 C 0.08595 0.32645 -0.01953
 C734 C 0.08341 0.24093 -0.08987
 C735 C 0.09008 0.21506 -0.09645
 C736 C 0.06174 0.36756 -0.06412
 C737 C 0.05779 0.39435 -0.05908
 H738 H 0.04094 0.36678 -0.11681
 H739 H 0.02767 0.34612 -0.16495
 H740 H 0.03649 0.29152 -0.17587
 H741 H 0.05857 0.25724 -0.13867
 H742 H 0.09940 0.24046 -0.03535
 H743 H 0.11196 0.26097 0.01313
 H744 H 0.10416 0.31575 0.02361
 H745 H 0.08269 0.35022 -0.01375
 C746 C -0.07274 0.33754 0.07292
 C747 C -0.05492 0.32017 0.09312
 C748 C -0.06023 0.28839 0.09723
 C749 C -0.08349 0.27422 0.08133
 C750 C -0.10074 0.29141 0.06051
 C751 C -0.09544 0.32319 0.05639
 C752 C -0.11289 0.33986 0.03534
 C753 C -0.13470 0.32546 0.01859
 C754 C -0.13982 0.29437 0.02256
 C755 C -0.12320 0.27745 0.04335
 C756 C -0.04183 0.27140 0.11720
 C757 C -0.01874 0.28536 0.13253
 C758 C -0.01360 0.31645 0.12858
 C759 C -0.03150 0.33380 0.10923
 C760 C -0.09041 0.24235 0.08730
 C761 C -0.09659 0.21617 0.09310
 C762 C -0.06704 0.36991 0.06842
 C763 C -0.06189 0.39663 0.06427
 H764 H -0.10963 0.36406 0.03135
 H765 H -0.14762 0.33848 0.00237
 H766 H -0.15671 0.28326 0.00942
 H767 H -0.12789 0.25329 0.04556
 H768 H -0.04488 0.24713 0.12094
 H769 H -0.00473 0.27196 0.14753
 H770 H 0.00442 0.32717 0.14047
 H771 H -0.02654 0.35787 0.10679
 C772 C -0.07058 0.66808 -0.07051
 C773 C -0.09632 0.68286 -0.05954
 C774 C -0.10081 0.71475 -0.06464
 C775 C -0.07972 0.73161 -0.08104
 C776 C -0.05390 0.71686 -0.09193
 C777 C -0.04943 0.68494 -0.08684
 C778 C -0.02371 0.67058 -0.09838
 C779 C -0.00282 0.68735 -0.11417
 C780 C -0.00703 0.71862 -0.11885
 C781 C -0.03229 0.73331 -0.10798
 C782 C -0.12669 0.72904 -0.05332
 C783 C -0.14780 0.71217 -0.03795
 C784 C -0.14365 0.68089 -0.03347
 C785 C -0.11811 0.66633 -0.04378
 C786 C -0.08569 0.76359 -0.08824
 C787 C -0.09193 0.78978 -0.09469
 C788 C -0.06557 0.63570 -0.06442
 C789 C -0.06109 0.60898 -0.05888
 H790 H -0.01935 0.64635 -0.09513
 H791 H 0.01688 0.67606 -0.12257
 H792 H 0.00938 0.73158 -0.13093
 H793 H -0.03460 0.75768 -0.11214
 H794 H -0.13094 0.75332 -0.05630
 H795 H -0.16754 0.72342 -0.02961
 H796 H -0.16034 0.66779 -0.02196
 H797 H -0.11583 0.64198 -0.03955
 C798 C 0.07402 0.66259 0.07315
 C799 C 0.10050 0.67180 0.08745
 C800 C 0.10536 0.70332 0.09292
 C801 C 0.08364 0.72546 0.08414
 C802 C 0.05732 0.71628 0.06948
 C803 C 0.05252 0.68474 0.06391
 C804 C 0.02598 0.67608 0.04934
 C805 C 0.00465 0.69792 0.04084
 C806 C 0.00940 0.72876 0.04616
 C807 C 0.03542 0.73798 0.06027
 C808 C 0.13210 0.71197 0.10717
 C809 C 0.15337 0.69010 0.11577
 C810 C 0.14856 0.65927 0.11048
 C811 C 0.12246 0.65009 0.09651
 C812 C 0.08851 0.75752 0.09052
 C813 C 0.09366 0.78379 0.09645
 C814 C 0.06886 0.63034 0.06805
 C815 C 0.06431 0.60365 0.06366
 H816 H 0.02123 0.65237 0.04474
 H817 H -0.01581 0.69082 0.03034
 H818 H -0.00727 0.74560 0.03951
 H819 H 0.03811 0.76222 0.06404
 H820 H 0.13693 0.73566 0.11176
 H821 H 0.17371 0.69712 0.12659
 H822 H 0.16514 0.64236 0.11721
 H823 H 0.11976 0.62584 0.09285
 C824 C 0.33729 1.06812 0.92932
 C825 C 0.32822 1.08578 0.90425
 C826 C 0.29747 1.09067 0.89824
 C827 C 0.27595 1.07789 0.91736
 C828 C 0.28501 1.06037 0.94253
 C829 C 0.31579 1.05554 0.94858
 C830 C 0.32432 1.03820 0.97402
 C831 C 0.30307 1.02630 0.99310
 C832 C 0.27300 1.03071 0.98704
 C833 C 0.26394 1.04749 0.96202
 C834 C 0.28897 1.10844 0.87301
 C835 C 0.31022 1.12107 0.85435
 C836 C 0.34028 1.11627 0.86024
 C837 C 0.34930 1.09880 0.88483
 C838 C 0.24458 1.08322 0.91115
 C839 C 0.21885 1.08847 0.90514
 C840 C 0.36870 1.06236 0.93489
 C841 C 0.39472 1.05727 0.93949
 H842 H 0.34744 1.03411 0.97974
 H843 H 0.31001 1.01392 1.01295
 H844 H 0.25664 1.02131 1.00196
 H845 H 0.24029 1.05043 0.95825
 H846 H 0.26586 1.11281 0.86744
 H847 H 0.30332 1.13469 0.83522
 H848 H 0.35670 1.12615 0.84568
 H849 H 0.37295 1.09572 0.88848
 C850 C 0.34115 0.92375 1.07870
 C851 C 0.31954 0.93187 1.05688
 C852 C 0.28884 0.92824 1.06301
 C853 C 0.27995 0.91664 1.09097
 C854 C 0.30153 0.90895 1.11295
 C855 C 0.33223 0.91239 1.10675
 C856 C 0.35341 0.90461 1.12907
 C857 C 0.34450 0.89383 1.15679
 C858 C 0.31449 0.89050 1.16288
 C859 C 0.29315 0.89791 1.14129
 C860 C 0.26764 0.93643 1.04083
 C861 C 0.27652 0.94808 1.01345
 C862 C 0.30650 0.95179 1.00758
 C863 C 0.32788 0.94374 1.02886
 C864 C 0.24866 0.91205 1.09693
 C865 C 0.22281 0.90758 1.10198
 C866 C 0.37246 0.92791 1.07256
 C867 C 0.39830 0.93204 1.06720
 H868 H 0.37701 0.90686 1.12540
 H869 H 0.36099 0.88806 1.17364
 H870 H 0.30769 0.88216 1.18447
 H871 H 0.27007 0.89500 1.14712
 H872 H 0.24404 0.93407 1.04443
 H873 H 0.26007 0.95438 0.99673
 H874 H 0.31323 0.96129 0.98647
 H875 H 0.35093 0.94702 1.02311
 C876 C 0.65817 1.06789 1.07264
 C877 C 0.67453 1.04686 1.09071
 C878 C 0.70544 1.05122 1.09562
 C879 C 0.71969 1.07680 1.08274
 C880 C 0.70335 1.09774 1.06457
 C881 C 0.67247 1.09334 1.05961
 C882 C 0.65648 1.11489 1.04181
 C883 C 0.67059 1.14009 1.02933
 C884 C 0.70086 1.14417 1.03380
 C885 C 0.71717 1.12332 1.05121
 C886 C 0.72143 1.02964 1.11337
 C887 C 0.70728 1.00449 1.12597
 C888 C 0.67702 1.00038 1.12140
 C889 C 0.66070 1.02128 1.10404
 C890 C 0.75078 1.08246 1.08928
 C891 C 0.77633 1.08805 1.09513
 C892 C 0.62680 1.06300 1.06689
 C893 C 0.60091 1.05849 1.06176
 H894 H 0.63291 1.11266 1.03757
 H895 H 0.65792 1.15659 1.01620
 H896 H 0.71174 1.16368 1.02384
 H897 H 0.74066 1.12752 1.05411
 H898 H 0.74503 1.03183 1.11748
 H899 H 0.71990 0.98805 1.13927
 H900 H 0.66616 0.98074 1.13113
 H901 H 0.63726 1.01699 1.10096
 C902 C 0.65884 0.92538 0.93223
 C903 C 0.66945 0.89885 0.91783
 C904 C 0.70008 0.89595 0.91090
 C905 C 0.71994 0.91963 0.91842
 C906 C 0.70940 0.94604 0.93310
 C907 C 0.67874 0.94890 0.94010
 C908 C 0.66865 0.97563 0.95455
 C909 C 0.68821 0.99903 0.96151
 C910 C 0.71819 0.99616 0.95482
 C911 C 0.72881 0.96998 0.94082
 C912 C 0.71015 0.86919 0.89642
 C913 C 0.69052 0.84600 0.88904
 C914 C 0.66057 0.84884 0.89584
 C915 C 0.65003 0.87491 0.91006
 C916 C 0.75113 0.91651 0.91096
 C917 C 0.77677 0.91254 0.90435
 C918 C 0.62736 0.92881 0.93823
 C919 C 0.60122 0.93209 0.94297
 H920 H 0.64553 0.97895 0.96020
 H921 H 0.67999 1.01965 0.97188
 H922 H 0.73326 1.01444 0.96026
 H923 H 0.75228 0.96883 0.93588
 H924 H 0.73324 0.86587 0.89065
 H925 H 0.69861 0.82570 0.87799
 H926 H 0.64541 0.83075 0.89008
 H927 H 0.62654 0.87604 0.91493
   
