data_POSCAR
  _audit_creation_date              2014-09-24
  _audit_creation_method            'ToBaCCo'
  _symmetry_space_group_name_H-M    'P1'
  _symmetry_Int_Tables_number       1
  _symmetry_cell_setting            triclinic
  loop_
  _symmetry_equiv_pos_as_xyz
 x,y,z
_cell_length_a 37.8204
_cell_length_b 33.0067
_cell_length_c 28.0583
_cell_angle_alpha 90.126000
_cell_angle_beta 89.778200
_cell_angle_gamma 90.030400
loop_
  _atom_site_label
  _atom_site_type_symbol
  _atom_site_fract_x
  _atom_site_fract_y
  _atom_site_fract_z
C1 C 1.19390 0.25346 0.32275
 H2 H 1.19552 0.22073 0.32248
 C3 C 1.16702 0.27272 0.34862
 H4 H 1.14811 0.25485 0.36864
 C5 C 1.21581 0.31661 0.29559
 H6 H 1.23473 0.33365 0.27483
 C7 C 1.18955 0.33702 0.32107
 H8 H 1.18897 0.36969 0.31940
 N9 N 1.21683 0.27549 0.29560
 C10 C 1.23733 0.19096 0.17949
 H11 H 1.26587 0.18877 0.17902
 C12 C 1.21708 0.16464 0.15153
 H13 H 1.23000 0.14225 0.12928
 C14 C 1.18544 0.22178 0.21040
 H15 H 1.17304 0.24419 0.23293
 C16 C 1.16436 0.19635 0.18312
 H17 H 1.13585 0.19897 0.18541
 Zn18 Zn 1.24816 0.24692 0.25459
 N19 N 1.22117 0.21746 0.20983
 C20 C 1.27036 0.16965 0.28727
 N21 N 1.27439 0.21035 0.29289
 C22 C 1.29684 0.22564 0.32612
 C23 C 1.31841 0.19974 0.35248
 C24 C 1.29130 0.14266 0.31290
 C25 C 1.26454 0.31054 0.19000
 C26 C 1.28649 0.33650 0.16367
 C27 C 1.33715 0.30343 0.19808
 C28 C 1.31437 0.27823 0.22368
 N29 N 1.27872 0.28249 0.21993
 H30 H 1.25114 0.15781 0.26261
 H31 H 1.29884 0.25808 0.33095
 H32 H 1.33721 0.21250 0.37740
 H33 H 1.28816 0.11058 0.30642
 H34 H 1.23612 0.31279 0.18663
 H35 H 1.27492 0.35890 0.14030
 H36 H 1.36531 0.29927 0.20204
 H37 H 1.32537 0.25493 0.24607
 C38 C 1.18017 0.16665 0.15452
 C39 C 1.16415 0.31496 0.34697
 C40 C 1.32330 0.33318 0.16777
 C41 C 1.31640 0.15765 0.34517
 C42 C 0.70402 -0.22611 0.32255
 H43 H 0.70183 -0.25839 0.32845
 C44 C 0.68275 -0.19934 0.34843
 H45 H 0.66386 -0.21105 0.37404
 C46 C 0.73088 -0.17135 0.28165
 H47 H 0.75021 -0.16031 0.25650
 C48 C 0.71022 -0.14354 0.30685
 H49 H 0.71324 -0.11152 0.29980
 N50 N 0.72654 -0.21189 0.28856
 C51 C 0.73602 -0.31637 0.19096
 H52 H 0.76443 -0.31898 0.18754
 C53 C 0.71397 -0.34306 0.16590
 H54 H 0.72545 -0.36633 0.14342
 C55 C 0.68631 -0.28231 0.22323
 H56 H 0.67539 -0.25800 0.24438
 C57 C 0.66343 -0.30828 0.19900
 H58 H 0.63529 -0.30358 0.20268
 Zn59 Zn 0.75258 -0.25019 0.25196
 N60 N 0.72194 -0.28702 0.21950
 C61 C 0.78538 -0.31791 0.29659
 N62 N 0.78357 -0.27685 0.29450
 C63 C 0.80597 -0.25307 0.32028
 C64 C 0.83299 -0.27047 0.34727
 C65 C 0.81190 -0.33648 0.32313
 C66 C 0.76554 -0.19590 0.17547
 C67 C 0.78715 -0.17119 0.14727
 C68 C 0.83807 -0.20676 0.17766
 C69 C 0.81569 -0.23031 0.20548
 N70 N 0.78031 -0.22320 0.20576
 H71 H 0.76706 -0.33628 0.27652
 H72 H 0.80382 -0.22045 0.31805
 H73 H 0.85144 -0.25127 0.36619
 H74 H 0.81385 -0.36922 0.32333
 H75 H 0.73718 -0.19162 0.17543
 H76 H 0.77547 -0.14783 0.12534
 H77 H 0.86619 -0.21216 0.17960
 H78 H 0.82685 -0.25351 0.22787
 C79 C 0.67717 -0.33925 0.17002
 C80 C 0.68530 -0.15764 0.33985
 C81 C 0.82392 -0.17571 0.14964
 C82 C 0.83650 -0.31262 0.34788
 C83 C 0.70374 0.27437 -0.18510
 H84 H 0.70126 0.24207 -0.17948
 C85 C 0.68196 0.30110 -0.15987
 H86 H 0.66263 0.28927 -0.13495
 C87 C 0.73148 0.32908 -0.22495
 H88 H 0.75086 0.33994 -0.25024
 C89 C 0.71015 0.35695 -0.20038
 H90 H 0.71312 0.38899 -0.20736
 N91 N 0.72736 0.28854 -0.21775
 C92 C 0.73877 0.19100 -0.32300
 H93 H 0.76726 0.18846 -0.32476
 C94 C 0.71764 0.16446 -0.34935
 H95 H 0.72990 0.14165 -0.37169
 C96 C 0.68800 0.22302 -0.29041
 H97 H 0.67647 0.24569 -0.26736
 C98 C 0.66598 0.19713 -0.31602
 H99 H 0.63756 0.19996 -0.31241
 Zn100 Zn 0.75369 0.24887 -0.25259
 N101 N 0.72368 0.21870 -0.29316
 C102 C 0.76871 0.17258 -0.21158
 N103 N 0.77466 0.21318 -0.20851
 C104 C 0.79756 0.22877 -0.17604
 C105 C 0.81809 0.20294 -0.14829
 C106 C 0.78869 0.14570 -0.18457
 C107 C 0.77992 0.29826 -0.32625
 C108 C 0.80550 0.31707 -0.35461
 C109 C 0.85072 0.28063 -0.31193
 C110 C 0.82424 0.26247 -0.28448
 N111 N 0.78966 0.27247 -0.29103
 H112 H 0.74948 0.16075 -0.23627
 H113 H 0.80135 0.26122 -0.17384
 H114 H 0.83775 0.21549 -0.12447
 H115 H 0.78489 0.11345 -0.18917
 H116 H 0.75221 0.30490 -0.33162
 H117 H 0.79679 0.33876 -0.38082
 H118 H 0.87817 0.27352 -0.30485
 H119 H 0.83158 0.24069 -0.25770
 C120 C 0.68084 0.16697 -0.34503
 C121 C 0.68469 0.34286 -0.16792
 C122 C 0.84161 0.30889 -0.34706
 C123 C 0.81456 0.16095 -0.15388
 C124 C 1.20495 -0.22619 -0.17303
 H125 H 1.20072 -0.25851 -0.16996
 C126 C 1.18488 -0.19942 -0.14558
 H127 H 1.16513 -0.21111 -0.12117
 C128 C 1.23420 -0.17131 -0.21075
 H129 H 1.25333 -0.16038 -0.23629
 C130 C 1.21473 -0.14349 -0.18400
 H131 H 1.21874 -0.11141 -0.18970
 N132 N 1.22770 -0.21171 -0.20654
 C133 C 1.21846 -0.29966 -0.32157
 H134 H 1.24575 -0.30816 -0.32747
 C135 C 1.19175 -0.31706 -0.34916
 H136 H 1.19845 -0.33963 -0.37577
 C137 C 1.17625 -0.25994 -0.27993
 H138 H 1.17018 -0.23695 -0.25381
 C139 C 1.14876 -0.27666 -0.30660
 H140 H 1.12184 -0.26720 -0.29969
 Zn141 Zn 1.24733 -0.24891 -0.25047
 N142 N 1.21025 -0.27237 -0.28688
 C143 C 1.26853 -0.32880 -0.22066
 N144 N 1.27341 -0.28816 -0.21526
 C145 C 1.29742 -0.27342 -0.18364
 C146 C 1.31863 -0.29976 -0.15739
 C147 C 1.28938 -0.35630 -0.19515
 C148 C 1.26188 -0.19295 -0.32274
 C149 C 1.28287 -0.16747 -0.35075
 C150 C 1.33463 -0.20106 -0.31973
 C151 C 1.31273 -0.22580 -0.29227
 N152 N 1.27711 -0.22047 -0.29312
 H153 H 1.24885 -0.34004 -0.24516
 H154 H 1.30048 -0.24102 -0.17947
 H155 H 1.33819 -0.28754 -0.13320
 H156 H 1.28579 -0.38848 -0.20067
 H157 H 1.23342 -0.18964 -0.32298
 H158 H 1.27052 -0.14464 -0.37273
 H159 H 1.36306 -0.20455 -0.31756
 H160 H 1.32431 -0.24832 -0.26927
 C161 C 1.15642 -0.30596 -0.34118
 C162 C 1.18881 -0.15763 -0.15246
 C163 C 1.31969 -0.17092 -0.34840
 C164 C 1.31508 -0.34170 -0.16353
 C165 C 0.26048 0.19088 0.67812
 H166 H 0.23202 0.18756 0.67766
 C167 C 0.28158 0.16530 0.65027
 H168 H 0.26933 0.14238 0.62819
 C169 C 0.31123 0.22394 0.70887
 H170 H 0.32273 0.24663 0.73183
 C171 C 0.33322 0.19912 0.68160
 H172 H 0.36164 0.20271 0.68390
 N173 N 0.27561 0.21855 0.70781
 C174 C 0.20225 0.22537 0.82650
 H175 H 0.19812 0.25772 0.82941
 C176 C 0.18193 0.19884 0.85382
 H177 H 0.16210 0.21098 0.87790
 C178 C 0.23177 0.17022 0.78966
 H179 H 0.25122 0.15910 0.76464
 C180 C 0.21205 0.14258 0.81622
 H181 H 0.21652 0.11059 0.81059
 Zn182 Zn 0.24579 0.24743 0.75009
 N183 N 0.22529 0.21063 0.79351
 C184 C 0.17505 0.26067 0.71941
 N185 N 0.20951 0.27162 0.71312
 C186 C 0.21898 0.29847 0.67871
 C187 C 0.19320 0.31724 0.65095
 C188 C 0.14842 0.27876 0.69245
 C189 C 0.29606 0.27138 0.81730
 C190 C 0.31775 0.29753 0.84328
 C191 C 0.28910 0.35430 0.80555
 C192 C 0.26780 0.32700 0.78027
 N193 N 0.27218 0.28631 0.78573
 H194 H 0.16797 0.23802 0.74539
 H195 H 0.24661 0.30573 0.67334
 H196 H 0.20136 0.33941 0.62485
 H197 H 0.12103 0.27082 0.69890
 H198 H 0.29874 0.23895 0.82151
 H199 H 0.33726 0.28514 0.86735
 H200 H 0.28591 0.38649 0.79992
 H201 H 0.24822 0.33842 0.75583
 C202 C 0.18571 0.15683 0.84737
 C203 C 0.31839 0.16885 0.65284
 C204 C 0.31477 0.33948 0.83698
 C205 C 0.15735 0.30795 0.65841
 C206 C 0.77878 0.70053 0.67801
 H207 H 0.75142 0.69213 0.67277
 C208 C 0.80523 0.68321 0.64956
 H209 H 0.79825 0.66079 0.62297
 C210 C 0.82150 0.73981 0.71891
 H211 H 0.82788 0.76254 0.74516
 C212 C 0.84868 0.72322 0.69137
 H213 H 0.87568 0.73256 0.69776
 N214 N 0.78739 0.72756 0.71274
 C215 C 0.70258 0.72786 0.81990
 H216 H 0.70167 0.76032 0.82521
 C217 C 0.68033 0.70279 0.84645
 H218 H 0.66272 0.71688 0.87191
 C219 C 0.72695 0.67130 0.77958
 H220 H 0.74520 0.65915 0.75353
 C221 C 0.70498 0.64494 0.80543
 H222 H 0.70634 0.61266 0.79862
 Zn223 Zn 0.75127 0.75113 0.75114
 N224 N 0.72473 0.71208 0.78644
 C225 C 0.68558 0.77526 0.71293
 N226 N 0.72109 0.78134 0.71095
 C227 C 0.73538 0.81008 0.68192
 C228 C 0.71349 0.83593 0.65586
 C229 C 0.66283 0.80027 0.68746
 C230 C 0.79417 0.76934 0.82869
 C231 C 0.81541 0.79375 0.85735
 C232 C 0.78951 0.85280 0.82058
 C233 C 0.76866 0.82726 0.79271
 N234 N 0.77261 0.78636 0.79568
 H235 H 0.67471 0.75163 0.73512
 H236 H 0.76378 0.81390 0.68048
 H237 H 0.72502 0.85962 0.63413
 H238 H 0.63468 0.79531 0.69059
 H239 H 0.79640 0.73671 0.83065
 H240 H 0.83390 0.77961 0.88142
 H241 H 0.78777 0.88531 0.81603
 H242 H 0.75059 0.84028 0.76737
 C243 C 0.68067 0.66064 0.83880
 C244 C 0.84068 0.69414 0.65675
 C245 C 0.81405 0.83594 0.85199
 C246 C 0.67674 0.83168 0.65944
 C247 C 0.76288 0.19597 0.17446
 H248 H 0.73432 0.19409 0.17437
 C249 C 0.78283 0.16971 0.14584
 H250 H 0.76966 0.14766 0.12348
 C251 C 0.81511 0.22579 0.20521
 H252 H 0.82775 0.24775 0.22801
 C253 C 0.83590 0.20049 0.17716
 H254 H 0.86444 0.20273 0.17915
 N255 N 0.77935 0.22185 0.20510
 C256 C 0.70301 0.22850 0.32165
 H257 H 0.70088 0.26085 0.32717
 C258 C 0.68147 0.20206 0.34761
 H259 H 0.66245 0.21411 0.37287
 C260 C 0.73002 0.17316 0.28185
 H261 H 0.74950 0.16173 0.25711
 C262 C 0.70914 0.14570 0.30714
 H263 H 0.71222 0.11360 0.30056
 Zn264 Zn 0.75274 0.25084 0.25098
 N265 N 0.72579 0.21380 0.28819
 C266 C 0.68745 0.28617 0.22181
 N267 N 0.72326 0.28815 0.21750
 C268 C 0.73877 0.31554 0.18771
 C269 C 0.71814 0.34294 0.16175
 C270 C 0.66595 0.31299 0.19669
 C271 C 0.80729 0.25507 0.31876
 C272 C 0.83428 0.27359 0.34497
 C273 C 0.81198 0.33863 0.31995
 C274 C 0.78561 0.31897 0.29411
 N275 N 0.78443 0.27788 0.29267
 H276 H 0.67536 0.26352 0.24423
 H277 H 0.76726 0.31605 0.18408
 H278 H 0.73083 0.36456 0.13832
 H279 H 0.63749 0.31105 0.20057
 H280 H 0.80553 0.22237 0.31739
 H281 H 0.85314 0.25515 0.36412
 H282 H 0.81260 0.37133 0.31956
 H283 H 0.76672 0.33662 0.27425
 C284 C 0.68403 0.16022 0.33968
 C285 C 0.81975 0.17122 0.14840
 C286 C 0.83737 0.31585 0.34468
 C287 C 0.68126 0.34178 0.16630
 C288 C 0.26156 0.68715 0.18925
 H289 H 0.23302 0.68595 0.18715
 C290 C 0.28206 0.65999 0.16238
 H291 H 0.26922 0.63779 0.13990
 C292 C 0.31313 0.71804 0.22032
 H293 H 0.32533 0.74118 0.24193
 C294 C 0.33450 0.69156 0.19418
 H295 H 0.36299 0.69418 0.19653
 N296 N 0.27728 0.71512 0.21806
 C297 C 0.19527 0.74869 0.32291
 H298 H 0.19772 0.78133 0.32151
 C299 C 0.16825 0.73106 0.35004
 H300 H 0.15013 0.75008 0.36993
 C301 C 0.21505 0.68411 0.29699
 H302 H 0.23306 0.66592 0.27603
 C303 C 0.18856 0.66531 0.32368
 H304 H 0.18634 0.63259 0.32310
 Zn305 Zn 0.24822 0.75214 0.25308
 N306 N 0.21724 0.72518 0.29591
 C307 C 0.18489 0.77442 0.20934
 N308 N 0.22036 0.78097 0.20878
 C309 C 0.23515 0.80862 0.17876
 C310 C 0.21357 0.83406 0.15163
 C311 C 0.16254 0.79870 0.18264
 C312 C 0.29875 0.77363 0.32225
 C313 C 0.32049 0.79955 0.34847
 C314 C 0.29260 0.85662 0.31025
 C315 C 0.27148 0.82960 0.28475
 N316 N 0.27571 0.78889 0.28984
 H317 H 0.17366 0.75091 0.23136
 H318 H 0.26355 0.81246 0.17796
 H319 H 0.22532 0.85752 0.12978
 H320 H 0.13440 0.79348 0.18506
 H321 H 0.30084 0.74118 0.32683
 H322 H 0.33958 0.78682 0.37292
 H323 H 0.28913 0.88872 0.30439
 H324 H 0.25173 0.84143 0.26094
 C325 C 0.16434 0.68894 0.34962
 C326 C 0.31901 0.66207 0.16493
 C327 C 0.31808 0.84167 0.34192
 C328 C 0.17676 0.82996 0.15482
 O329 O 1.04853 0.07207 0.08510
 O330 O 1.08847 0.03524 0.04106
 C331 C 1.08044 0.06258 0.07243
 O332 O 0.95127 -0.07788 0.07589
 O333 O 0.91140 -0.03746 0.03686
 C334 C 0.91942 -0.06754 0.06443
 O335 O 1.04907 -0.07264 0.08276
 O336 O 1.08882 -0.03459 0.03993
 C337 C 1.08090 -0.06257 0.07045
 O338 O 0.95065 0.07582 0.07902
 O339 O 0.91118 0.03614 0.03805
 C340 C 0.91889 0.06556 0.06690
 Zr341 Zr 0.99954 0.05001 0.06046
 O342 O 0.99507 0.04323 0.13531
 O343 O 1.00138 0.11345 0.07032
 Zr344 Zr 0.99994 -0.05074 0.05882
 O345 O 0.99524 -0.04535 0.13385
 O346 O 1.00242 -0.11428 0.06711
 O347 O 1.03191 -0.00027 0.06924
 O348 O 0.96806 -0.00065 0.06802
 O349 O 0.95125 0.07558 -0.08183
 O350 O 0.91173 0.03616 -0.04030
 C351 C 0.91946 0.06516 -0.06953
 O352 O 1.05069 -0.07045 -0.08684
 O353 O 1.08933 -0.03338 -0.04121
 C354 C 1.08224 -0.06040 -0.07323
 O355 O 0.95203 -0.07456 -0.08350
 O356 O 0.91204 -0.03600 -0.04154
 C357 C 0.92012 -0.06477 -0.07108
 O358 O 1.05006 0.07270 -0.08500
 O359 O 1.08908 0.03561 -0.04015
 C360 C 1.08171 0.06277 -0.07177
 Zr361 Zr 1.00043 0.05150 -0.06041
 O362 O 0.99718 0.04929 -0.13573
 O363 O 1.00352 0.11552 -0.06236
 Zr364 Zr 1.00092 -0.04980 -0.06208
 O365 O 0.99763 -0.04538 -0.13725
 O366 O 1.00449 -0.11365 -0.06722
 Zr367 Zr 1.05324 0.00054 -0.00039
 Zr368 Zr 0.94703 -0.00009 -0.00126
 O369 O 0.96944 0.00071 -0.07005
 O370 O 1.03278 0.00113 -0.07026
 O371 O 0.96879 0.05880 -0.00015
 O372 O 1.03081 -0.05789 -0.00151
 O373 O 1.03035 0.05871 0.00034
 O374 O 0.96935 -0.05869 -0.00208
 H375 H 0.95105 -0.00105 0.09499
 H376 H 1.04604 -0.08230 -0.00198
 H377 H 0.95332 0.00082 -0.09781
 H378 H 1.04546 0.08324 0.00057
 H379 H 1.00244 -0.12597 0.03468
 H380 H 0.98822 -0.12512 -0.04306
 H381 H 1.02028 -0.03412 -0.14902
 H382 H 1.01927 0.03688 -0.14785
 H383 H 0.98586 0.12613 -0.03942
 H384 H 1.00098 0.12560 0.03820
 H385 H 1.01859 0.03544 0.14761
 H386 H 1.01875 -0.03790 0.14652
 O387 O 1.06121 0.44628 0.58966
 O388 O 1.03096 0.39909 0.54542
 C389 C 1.05437 0.40937 0.57708
 O390 O 0.93223 0.55752 0.57951
 O391 O 0.96613 0.60321 0.53771
 C392 C 0.94038 0.59394 0.56661
 O393 O 0.93486 0.44635 0.58615
 O394 O 0.96785 0.39929 0.54510
 C395 C 0.94282 0.40946 0.57475
 O396 O 1.06485 0.55747 0.58208
 O397 O 1.03169 0.60324 0.53973
 C398 C 1.05684 0.59395 0.56929
 Zr399 Zr 1.04187 0.50173 0.56407
 O400 O 1.03391 0.50750 0.63858
 O401 O 1.09696 0.49999 0.57618
 Zr402 Zr 0.95455 0.50159 0.56054
 O403 O 0.95627 0.50731 0.63573
 O404 O 0.89867 0.49828 0.56254
 O405 O 0.99806 0.46452 0.57247
 O406 O 0.99805 0.53829 0.57000
 O407 O 1.06728 0.55464 0.42227
 O408 O 1.03348 0.60190 0.46164
 C409 C 1.05948 0.59155 0.43356
 O410 O 0.93852 0.44294 0.41677
 O411 O 0.96858 0.39735 0.46328
 C412 C 0.94528 0.40656 0.43106
 O413 O 0.93403 0.55386 0.42016
 O414 O 0.96708 0.60154 0.45971
 C415 C 0.94158 0.59089 0.43123
 O416 O 1.06450 0.44373 0.42008
 O417 O 1.03195 0.39785 0.46348
 C418 C 1.05669 0.40725 0.43305
 Zr419 Zr 1.04485 0.49963 0.44344
 O420 O 1.04300 0.50279 0.36807
 O421 O 1.10072 0.49618 0.44122
 Zr422 Zr 0.95766 0.49923 0.43993
 O423 O 0.96566 0.50260 0.36524
 O424 O 0.90262 0.49643 0.42762
 Zr425 Zr 0.99981 0.43884 0.50341
 Zr426 Zr 0.99966 0.56209 0.50053
 O427 O 1.00132 0.53585 0.43221
 O428 O 1.00149 0.46192 0.43323
 O429 O 1.05066 0.53634 0.50319
 O430 O 0.94922 0.46556 0.50087
 O431 O 1.05033 0.46584 0.50470
 O432 O 0.94874 0.53601 0.49917
 H433 H 0.99754 0.55784 0.59688
 H434 H 0.92756 0.44868 0.50081
 H435 H 1.00176 0.55454 0.40460
 H436 H 1.07201 0.44903 0.50542
 H437 H 0.88969 0.51526 0.53622
 H438 H 0.89108 0.49577 0.45925
 H439 H 0.97048 0.47487 0.35338
 H440 H 1.03373 0.47666 0.35606
 H441 H 1.10983 0.51393 0.46684
 H442 H 1.10839 0.49804 0.54456
 H443 H 1.02892 0.48020 0.65151
 H444 H 0.96565 0.48167 0.64881
 O445 O 0.54869 0.07263 0.58497
 O446 O 0.58855 0.03581 0.54070
 C447 C 0.58059 0.06321 0.57215
 O448 O 0.45147 -0.07731 0.57845
 O449 O 0.41140 -0.03744 0.53905
 C450 C 0.41953 -0.06720 0.56711
 O451 O 0.54926 -0.07210 0.58387
 O452 O 0.58893 -0.03456 0.54019
 C453 C 0.58108 -0.06220 0.57131
 O454 O 0.45079 0.07649 0.57968
 O455 O 0.41107 0.03641 0.53963
 C456 C 0.41893 0.06607 0.56814
 Zr457 Zr 0.49959 0.05041 0.56090
 O458 O 0.49549 0.04402 0.63584
 O459 O 0.50145 0.11391 0.57025
 Zr460 Zr 0.50002 -0.05043 0.56005
 O461 O 0.49582 -0.04476 0.63510
 O462 O 0.50248 -0.11398 0.56828
 O463 O 0.53204 0.00016 0.56977
 O464 O 0.46818 -0.00025 0.56919
 O465 O 0.45052 0.07506 0.41886
 O466 O 0.41113 0.03594 0.46104
 C467 C 0.41876 0.06472 0.43137
 O468 O 0.54976 -0.07066 0.41362
 O469 O 0.58890 -0.03345 0.45838
 C470 C 0.58146 -0.06049 0.42640
 O471 O 0.45123 -0.07455 0.41753
 O472 O 0.41146 -0.03635 0.46040
 C473 C 0.41937 -0.06474 0.43020
 O474 O 0.54906 0.07252 0.41472
 O475 O 0.58856 0.03549 0.45886
 C476 C 0.58087 0.06267 0.42727
 Zr477 Zr 0.49979 0.05116 0.44010
 O478 O 0.49615 0.04847 0.36483
 O479 O 0.50274 0.11518 0.43782
 Zr480 Zr 0.50026 -0.05019 0.43926
 O481 O 0.49663 -0.04695 0.36404
 O482 O 0.50380 -0.11415 0.43592
 Zr483 Zr 0.55305 0.00058 0.49996
 Zr484 Zr 0.44669 -0.00013 0.50018
 O485 O 0.46878 0.00031 0.43120
 O486 O 0.53206 0.00073 0.43036
 O487 O 0.46845 0.05878 0.50058
 O488 O 0.53063 -0.05786 0.49949
 O489 O 0.53011 0.05872 0.50044
 O490 O 0.46897 -0.05874 0.49959
 H491 H 0.45134 -0.00047 0.59636
 H492 H 0.54601 -0.08215 0.49898
 H493 H 0.45259 0.00032 0.40351
 H494 H 0.54525 0.08322 0.50029
 H495 H 0.50291 -0.12565 0.53585
 H496 H 0.48629 -0.12522 0.45872
 H497 H 0.51865 -0.03436 0.35198
 H498 H 0.51826 0.03622 0.35256
 H499 H 0.48516 0.12583 0.46083
 H500 H 0.50160 0.12586 0.53802
 H501 H 0.51909 0.03639 0.64801
 H502 H 0.51930 -0.03676 0.64742
 O503 O 0.54853 0.57090 0.08391
 O504 O 0.58840 0.53499 0.03853
 C505 C 0.58045 0.56148 0.07117
 O506 O 0.45126 0.42388 0.08002
 O507 O 0.41097 0.46210 0.03872
 C508 C 0.41924 0.43360 0.06853
 O509 O 0.54928 0.42821 0.08319
 O510 O 0.58871 0.46503 0.03834
 C511 C 0.58111 0.43819 0.07063
 O512 O 0.45046 0.57392 0.08062
 O513 O 0.41061 0.53518 0.03906
 C514 C 0.41852 0.56383 0.06903
 Zr515 Zr 0.49945 0.55002 0.05819
 O516 O 0.49570 0.54736 0.13348
 O517 O 0.50291 0.61398 0.06100
 Zr518 Zr 0.50003 0.44832 0.05751
 O519 O 0.49631 0.45001 0.13284
 O520 O 0.50422 0.38437 0.05869
 O521 O 0.53169 0.49942 0.06696
 O522 O 0.46862 0.49891 0.06713
 O523 O 0.44955 0.57348 -0.08375
 O524 O 0.41030 0.53402 -0.04170
 C525 C 0.41777 0.56276 -0.07163
 O526 O 0.54906 0.42856 -0.08932
 O527 O 0.58850 0.46539 -0.04456
 C528 C 0.58091 0.43864 -0.07695
 O529 O 0.45031 0.42473 -0.08449
 O530 O 0.41070 0.46358 -0.04211
 C531 C 0.41842 0.43500 -0.07225
 O532 O 0.54824 0.57119 -0.08825
 O533 O 0.58833 0.53451 -0.04464
 C534 C 0.58028 0.56162 -0.07631
 Zr535 Zr 0.49903 0.55023 -0.06204
 O536 O 0.49505 0.54820 -0.13730
 O537 O 0.50227 0.61425 -0.06371
 Zr538 Zr 0.49961 0.44869 -0.06265
 O539 O 0.49557 0.45097 -0.13787
 O540 O 0.50362 0.38474 -0.06485
 Zr541 Zr 0.55283 0.49984 -0.00272
 Zr542 Zr 0.44616 0.49893 -0.00130
 O543 O 0.46819 0.49923 -0.07044
 O544 O 0.53126 0.49976 -0.07202
 O545 O 0.46760 0.55799 -0.00150
 O546 O 0.53061 0.44128 -0.00293
 O547 O 0.52990 0.55798 -0.00222
 O548 O 0.46822 0.44019 -0.00222
 H549 H 0.45250 0.49876 0.09506
 H550 H 0.54623 0.41719 -0.00320
 H551 H 0.45218 0.49917 -0.09832
 H552 H 0.54525 0.58231 -0.00224
 H553 H 0.48609 0.37344 0.03687
 H554 H 0.48518 0.37369 -0.04345
 H555 H 0.51691 0.46483 -0.15022
 H556 H 0.51662 0.53490 -0.14979
 H557 H 0.48370 0.62495 -0.04222
 H558 H 0.48567 0.62485 0.03794
 H559 H 0.51743 0.53427 0.14548
 H560 H 0.51743 0.46434 0.14499
 C561 C 1.13437 0.11437 0.06389
 C562 C 1.12615 0.15004 0.09799
 C563 C 1.15681 0.13664 0.13006
 C564 C 1.16554 0.10120 0.09619
 C565 C 1.13180 0.10937 0.15918
 C566 C 1.10097 0.12284 0.12712
 C567 C 1.10934 0.08739 0.09326
 C568 C 1.13999 0.07362 0.12505
 H569 H 1.13499 0.11595 0.02440
 H570 H 1.12067 0.18166 0.08686
 H571 H 1.19228 0.09254 0.08336
 H572 H 1.13095 0.10759 0.19868
 H573 H 1.07434 0.13182 0.14015
 H574 H 1.14525 0.04188 0.13594
 C575 C 1.12038 0.62167 0.58453
 C576 C 1.12351 0.66809 0.57888
 C577 C 1.12737 0.67193 0.63327
 C578 C 1.12431 0.62577 0.63896
 C579 C 1.08698 0.67657 0.63893
 C580 C 1.08270 0.67209 0.58404
 C581 C 1.08002 0.62591 0.59017
 C582 C 1.08390 0.63006 0.64450
 H583 H 1.13404 0.59894 0.56178
 H584 H 1.14026 0.68398 0.55225
 H585 H 1.14153 0.60664 0.66163
 H586 H 1.07297 0.69918 0.66140
 H587 H 1.06533 0.69082 0.56116
 H588 H 1.06735 0.61428 0.67144
 C589 C 0.63456 0.11535 0.56426
 C590 C 0.62628 0.15082 0.59867
 C591 C 0.65687 0.13724 0.63078
 C592 C 0.66563 0.10199 0.59658
 C593 C 0.63180 0.10978 0.65955
 C594 C 0.60103 0.12338 0.62742
 C595 C 0.60948 0.08812 0.59322
 C596 C 0.64005 0.07422 0.62511
 H597 H 0.63533 0.11720 0.52477
 H598 H 0.62078 0.18252 0.58785
 H599 H 0.69235 0.09328 0.58369
 H600 H 0.63083 0.10777 0.69902
 H601 H 0.57437 0.13229 0.64039
 H602 H 0.64536 0.04243 0.63573
 C603 C 0.61197 0.58668 0.15007
 C604 C 0.65282 0.58603 0.14570
 C605 C 0.65280 0.63269 0.14297
 C606 C 0.61217 0.63340 0.14747
 C607 C 0.65015 0.63067 0.08822
 C608 C 0.64965 0.58367 0.09053
 C609 C 0.60912 0.58480 0.09548
 C610 C 0.60937 0.63134 0.09269
 H611 H 0.59617 0.56824 0.17543
 H612 H 0.67086 0.56751 0.16788
 H613 H 0.59543 0.65307 0.17035
 H614 H 0.66593 0.64910 0.06282
 H615 H 0.66479 0.56294 0.06689
 H616 H 0.59138 0.64992 0.07048
 C617 C 0.88873 -0.10140 0.13822
 C618 C 0.84793 -0.10025 0.13511
 C619 C 0.84794 -0.14616 0.12503
 C620 C 0.88857 -0.14735 0.12823
 C621 C 0.84986 -0.13828 0.07111
 C622 C 0.85043 -0.09191 0.08078
 C623 C 0.89097 -0.09357 0.08439
 C624 C 0.89073 -0.13934 0.07419
 H625 H 0.90481 -0.08584 0.16577
 H626 H 0.83009 -0.08447 0.16058
 H627 H 0.90567 -0.16935 0.14705
 H628 H 0.83368 -0.15401 0.04382
 H629 H 0.83513 -0.06875 0.06100
 H630 H 0.90850 -0.15515 0.04864
 C631 C 0.89684 0.34669 0.56610
 C632 C 0.90105 0.31586 0.60744
 C633 C 0.86881 0.33220 0.63009
 C634 C 0.86271 0.36124 0.59124
 C635 C 0.88891 0.36164 0.65861
 C636 C 0.92380 0.34711 0.63528
 C637 C 0.91846 0.37800 0.59476
 C638 C 0.88396 0.39314 0.61896
 H639 H 0.89966 0.33945 0.52763
 H640 H 0.90652 0.28297 0.60349
 H641 H 0.83753 0.36697 0.57230
 H642 H 0.88439 0.36703 0.69726
 H643 H 0.94874 0.34028 0.65435
 H644 H 0.87521 0.42484 0.62513
 C645 C 0.36465 -0.11907 0.55919
 C646 C 0.37318 -0.15529 0.59221
 C647 C 0.34358 -0.14168 0.62632
 C648 C 0.33453 -0.10573 0.59356
 C649 C 0.36970 -0.11516 0.65443
 C650 C 0.39949 -0.12877 0.62032
 C651 C 0.39074 -0.09279 0.58757
 C652 C 0.36114 -0.07894 0.62149
 H653 H 0.36296 -0.12022 0.51976
 H654 H 0.37797 -0.18691 0.58027
 H655 H 0.30766 -0.09629 0.58237
 H656 H 0.37166 -0.11379 0.69387
 H657 H 0.42630 -0.13841 0.63160
 H658 H 0.35650 -0.04725 0.63327
 C659 C 0.38871 0.40649 0.14691
 C660 C 0.34785 0.40758 0.14407
 C661 C 0.34752 0.36099 0.14001
 C662 C 0.38820 0.35986 0.14293
 C663 C 0.34937 0.36394 0.08523
 C664 C 0.35022 0.41090 0.08892
 C665 C 0.39080 0.40935 0.09229
 C666 C 0.39024 0.36289 0.08811
 H667 H 0.40499 0.42434 0.17226
 H668 H 0.33027 0.42585 0.16748
 H669 H 0.40516 0.33959 0.16448
 H670 H 0.33310 0.34610 0.05989
 H671 H 0.33486 0.43214 0.06644
 H672 H 0.40779 0.34460 0.06467
 C673 C 0.85019 0.08425 -0.08064
 C674 C 0.84720 0.13102 -0.07662
 C675 C 0.84056 0.13329 -0.13051
 C676 C 0.84313 0.08684 -0.13494
 C677 C 0.88045 0.13754 -0.14030
 C678 C 0.88737 0.13507 -0.08618
 C679 C 0.88999 0.08875 -0.09065
 C680 C 0.88332 0.09098 -0.14449
 H681 H 0.83813 0.06207 -0.05572
 H682 H 0.83186 0.14790 -0.04924
 H683 H 0.82504 0.06653 -0.15488
 H684 H 0.89270 0.15971 -0.16508
 H685 H 0.90587 0.15460 -0.06582
 H686 H 0.89850 0.07426 -0.17217
 C687 C 0.89151 0.64917 0.43935
 C688 C 0.89774 0.68360 0.40250
 C689 C 0.86675 0.66695 0.37262
 C690 C 0.86026 0.63322 0.40921
 C691 C 0.89232 0.63971 0.34437
 C692 C 0.92367 0.65563 0.37449
 C693 C 0.91685 0.62176 0.41091
 C694 C 0.88563 0.60582 0.38082
 H695 H 0.89170 0.65288 0.47859
 H696 H 0.90247 0.71591 0.41147
 H697 H 0.83406 0.62396 0.42345
 H698 H 0.89242 0.63574 0.30507
 H699 H 0.94998 0.66470 0.36046
 H700 H 0.87993 0.57385 0.37108
 C701 C 0.34918 0.08369 0.41817
 C702 C 0.34587 0.13046 0.42021
 C703 C 0.34121 0.13149 0.36819
 C704 C 0.34304 0.08699 0.36379
 C705 C 0.37932 0.13648 0.35915
 C706 C 0.38627 0.13459 0.41324
 C707 C 0.38933 0.08805 0.40961
 C708 C 0.38335 0.09007 0.35535
 H709 H 0.33579 0.06210 0.44258
 H710 H 0.32928 0.14805 0.44560
 H711 H 0.32486 0.06728 0.34323
 H712 H 0.39056 0.15904 0.33397
 H713 H 0.40378 0.15530 0.43359
 H714 H 0.39845 0.07369 0.32731
 C715 C 0.34811 0.58164 -0.08672
 C716 C 0.34522 0.62850 -0.08379
 C717 C 0.34021 0.63023 -0.13821
 C718 C 0.34267 0.58367 -0.14152
 C719 C 0.38043 0.63399 -0.14566
 C720 C 0.38567 0.63213 -0.09114
 C721 C 0.38824 0.58571 -0.09446
 C722 C 0.38317 0.58735 -0.14877
 H723 H 0.33508 0.55989 -0.06216
 H724 H 0.32941 0.64565 -0.05714
 H725 H 0.32505 0.56337 -0.16222
 H726 H 0.39370 0.65566 -0.17008
 H727 H 0.40355 0.65193 -0.07014
 H728 H 0.39903 0.57020 -0.17537
 C729 C 1.12076 -0.08650 -0.14726
 C730 C 1.16061 -0.08277 -0.13546
 C731 C 1.16262 -0.12919 -0.13039
 C732 C 1.12308 -0.13305 -0.14243
 C733 C 1.15399 -0.12625 -0.07691
 C734 C 1.15157 -0.07953 -0.08160
 C735 C 1.11216 -0.08365 -0.09391
 C736 C 1.11423 -0.12993 -0.08881
 H737 H 1.10675 -0.06991 -0.17591
 H738 H 1.17970 -0.06294 -0.15444
 H739 H 1.11154 -0.15539 -0.16760
 H740 H 1.16791 -0.14280 -0.04816
 H741 H 1.16290 -0.05713 -0.05632
 H742 H 1.09478 -0.14904 -0.06942
 C743 C 1.08864 0.37525 0.35888
 C744 C 1.12820 0.38228 0.36895
 C745 C 1.13376 0.33617 0.37148
 C746 C 1.09418 0.32884 0.36142
 C747 C 1.12628 0.33643 0.42548
 C748 C 1.12075 0.38272 0.42290
 C749 C 1.08112 0.37610 0.41276
 C750 C 1.08621 0.32990 0.41590
 H751 H 1.07288 0.39110 0.33132
 H752 H 1.14434 0.40559 0.35057
 H753 H 1.08350 0.30645 0.33565
 H754 H 1.14219 0.32055 0.45286
 H755 H 1.13177 0.40492 0.44868
 H756 H 1.06864 0.30857 0.43529
 C757 C 0.61713 -0.08665 0.35010
 C758 C 0.65745 -0.08277 0.35851
 C759 C 0.65976 -0.12920 0.36356
 C760 C 0.61977 -0.13319 0.35493
 C761 C 0.65362 -0.12599 0.41767
 C762 C 0.65087 -0.07927 0.41301
 C763 C 0.61098 -0.08354 0.40408
 C764 C 0.61339 -0.12983 0.40917
 H765 H 0.60183 -0.07019 0.32256
 H766 H 0.67554 -0.06298 0.33779
 H767 H 0.60711 -0.15563 0.33090
 H768 H 0.66882 -0.14241 0.44533
 H769 H 0.66331 -0.05676 0.43715
 H770 H 0.59495 -0.14893 0.43028
 C771 C 0.61317 0.36963 -0.09685
 C772 C 0.61896 0.36722 -0.15130
 C773 C 0.65909 0.37122 -0.14352
 C774 C 0.65350 0.37352 -0.08918
 C775 C 0.65650 0.41773 -0.14733
 C776 C 0.61605 0.41384 -0.15487
 C777 C 0.61046 0.41602 -0.10063
 C778 C 0.65050 0.42030 -0.09260
 H779 H 0.59513 0.34997 -0.07584
 H780 H 0.60603 0.34519 -0.17559
 H781 H 0.66906 0.35674 -0.06219
 H782 H 0.67430 0.43786 -0.16806
 H783 H 0.60040 0.43066 -0.18173
 H784 H 0.66323 0.44239 -0.06819
 C785 C 1.11355 0.13248 -0.08973
 C786 C 1.15356 0.12935 -0.07963
 C787 C 1.16063 0.13005 -0.13119
 C788 C 1.12294 0.13404 -0.14320
 C789 C 1.15977 0.08550 -0.13525
 C790 C 1.15114 0.08254 -0.08138
 C791 C 1.11142 0.08589 -0.09308
 C792 C 1.11985 0.08751 -0.14676
 H793 H 1.09472 0.15293 -0.07108
 H794 H 1.16863 0.14751 -0.05324
 H795 H 1.11253 0.15615 -0.16944
 H796 H 1.17934 0.06618 -0.15412
 H797 H 1.16368 0.06141 -0.05578
 H798 H 1.10632 0.07054 -0.17562
 C799 C 1.10966 0.64979 0.44157
 C800 C 1.14074 0.63416 0.41059
 C801 C 1.13413 0.66829 0.37463
 C802 C 1.10330 0.68462 0.40536
 C803 C 1.10837 0.64135 0.34649
 C804 C 1.11520 0.60707 0.38230
 C805 C 1.08414 0.62269 0.41325
 C806 C 1.07719 0.65695 0.37745
 H807 H 1.10965 0.65305 0.48086
 H808 H 1.16700 0.62473 0.42418
 H809 H 1.09865 0.71684 0.41489
 H810 H 1.10806 0.63779 0.30714
 H811 H 1.12081 0.57521 0.37198
 H812 H 1.05083 0.66618 0.36406
 C813 C 0.65013 0.08229 0.41356
 C814 C 0.65649 0.08542 0.35902
 C815 C 0.65854 0.13192 0.36375
 C816 C 0.65261 0.12908 0.41792
 C817 C 0.61849 0.13547 0.35537
 C818 C 0.61613 0.08886 0.35085
 C819 C 0.61017 0.08609 0.40490
 C820 C 0.61230 0.13245 0.40968
 H821 H 0.66281 0.06011 0.43777
 H822 H 0.67458 0.06556 0.33831
 H823 H 0.66783 0.14589 0.44532
 H824 H 0.60560 0.15759 0.33129
 H825 H 0.60085 0.07204 0.32349
 H826 H 0.59384 0.15155 0.43083
 C827 C 0.63556 0.61284 -0.07133
 C828 C 0.66542 0.60044 -0.10649
 C829 C 0.65561 0.63431 -0.13790
 C830 C 0.62741 0.64831 -0.10533
 C831 C 0.63110 0.60900 -0.16572
 C832 C 0.63920 0.57232 -0.13321
 C833 C 0.60931 0.58589 -0.09905
 C834 C 0.60059 0.62179 -0.13231
 H835 H 0.63829 0.61513 -0.03202
 H836 H 0.69312 0.59307 -0.09680
 H837 H 0.62194 0.67969 -0.09326
 H838 H 0.63016 0.60865 -0.20529
 H839 H 0.64492 0.54101 -0.14554
 H840 H 0.57410 0.63191 -0.14434
 C841 C 0.86154 -0.07558 -0.12479
 C842 C 0.86807 -0.11375 -0.15577
 C843 C 0.84119 -0.13733 -0.12518
 C844 C 0.83423 -0.09944 -0.09449
 C845 C 0.87075 -0.15113 -0.09134
 C846 C 0.89779 -0.12746 -0.12184
 C847 C 0.89096 -0.08965 -0.09111
 C848 C 0.86415 -0.11298 -0.06045
 H849 H 0.85819 -0.04425 -0.13832
 H850 H 0.86949 -0.11439 -0.19529
 H851 H 0.80778 -0.08834 -0.08321
 H852 H 0.87504 -0.18190 -0.07665
 H853 H 0.92410 -0.13888 -0.13327
 H854 H 0.86304 -0.11178 -0.02108
 C855 C 0.88112 0.38345 0.41986
 C856 C 0.87463 0.38228 0.36579
 C857 C 0.86795 0.33639 0.36931
 C858 C 0.87450 0.33739 0.42344
 C859 C 0.90752 0.32779 0.36026
 C860 C 0.91417 0.37398 0.35676
 C861 C 0.92078 0.37557 0.41076
 C862 C 0.91457 0.32959 0.41490
 H863 H 0.87014 0.40640 0.44485
 H864 H 0.85943 0.40572 0.34640
 H865 H 0.85777 0.32247 0.45085
 H866 H 0.91815 0.30465 0.33528
 H867 H 0.93076 0.38889 0.32917
 H868 H 0.93131 0.30811 0.43515
 C869 C 0.38437 -0.08988 0.35357
 C870 C 0.38080 -0.13638 0.35651
 C871 C 0.34263 -0.13202 0.36544
 C872 C 0.34401 -0.08746 0.36186
 C873 C 0.34714 -0.13139 0.41751
 C874 C 0.38760 -0.13487 0.41066
 C875 C 0.39019 -0.08826 0.40789
 C876 C 0.34998 -0.08456 0.41632
 H877 H 0.39937 -0.07302 0.32590
 H878 H 0.39234 -0.15854 0.33098
 H879 H 0.32570 -0.06783 0.34153
 H880 H 0.33068 -0.14945 0.44252
 H881 H 0.40526 -0.15552 0.43073
 H882 H 0.33630 -0.06340 0.44105
 C883 C 0.34890 0.41612 -0.08683
 C884 C 0.34310 0.41387 -0.14153
 C885 C 0.34039 0.36734 -0.13809
 C886 C 0.34578 0.36931 -0.08374
 C887 C 0.38054 0.36328 -0.14603
 C888 C 0.38354 0.40990 -0.14927
 C889 C 0.38897 0.41178 -0.09503
 C890 C 0.38617 0.36539 -0.09157
 H891 H 0.33615 0.43808 -0.06218
 H892 H 0.32548 0.43421 -0.16202
 H893 H 0.33007 0.35241 -0.05683
 H894 H 0.39350 0.34139 -0.17057
 H895 H 0.39932 0.42682 -0.17608
 H896 H 0.40410 0.34561 -0.07076
 C897 C 1.10896 -0.13368 0.08214
 C898 C 1.14969 -0.13330 0.07679
 C899 C 1.15279 -0.14019 0.13083
 C900 C 1.11224 -0.14064 0.13622
 C901 C 1.15357 -0.09410 0.13966
 C902 C 1.14989 -0.08679 0.08523
 C903 C 1.10946 -0.08772 0.09112
 C904 C 1.11281 -0.09450 0.14496
 H905 H 1.09039 -0.14974 0.05805
 H906 H 1.16493 -0.14969 0.04891
 H907 H 1.09523 -0.16192 0.15651
 H908 H 1.17221 -0.07810 0.16370
 H909 H 1.16497 -0.06420 0.06408
 H910 H 1.09755 -0.07813 0.17285
 C911 C 1.10448 0.35236 0.56828
 C912 C 1.13523 0.36731 0.59995
 C913 C 1.12863 0.33174 0.63419
 C914 C 1.09807 0.31627 0.60275
 C915 C 1.10251 0.35746 0.66361
 C916 C 1.10926 0.39311 0.62946
 C917 C 1.07858 0.37820 0.59780
 C918 C 1.07160 0.34266 0.63187
 H919 H 1.10487 0.35033 0.52880
 H920 H 1.16083 0.37854 0.58578
 H921 H 1.09390 0.28430 0.59176
 H922 H 1.10196 0.35969 0.70309
 H923 H 1.11437 0.42469 0.64129
 H924 H 1.04521 0.33273 0.64479
 C925 C 0.61258 -0.09283 0.64705
 C926 C 0.61209 -0.13917 0.63963
 C927 C 0.65266 -0.13881 0.63480
 C928 C 0.65338 -0.09253 0.64232
 C929 C 0.64993 -0.13295 0.58052
 C930 C 0.60917 -0.13324 0.58530
 C931 C 0.60962 -0.08707 0.59293
 C932 C 0.65009 -0.08629 0.58764
 H933 H 0.59714 -0.07592 0.67431
 H934 H 0.59515 -0.16017 0.66042
 H935 H 0.67181 -0.07603 0.66618
 H936 H 0.66534 -0.14987 0.55324
 H937 H 0.59081 -0.14982 0.56141
 H938 H 0.66539 -0.06417 0.56609
 C939 C 0.60161 0.38189 0.13097
 C940 C 0.62837 0.35364 0.10600
 C941 C 0.65757 0.37001 0.13886
 C942 C 0.63096 0.39832 0.16380
 C943 C 0.66669 0.40339 0.10240
 C944 C 0.63700 0.38721 0.06931
 C945 C 0.61037 0.41532 0.09448
 C946 C 0.63956 0.43200 0.12710
 H947 H 0.57480 0.37275 0.14310
 H948 H 0.62380 0.32121 0.09739
 H949 H 0.62854 0.40272 0.20291
 H950 H 0.69363 0.41225 0.09056
 H951 H 0.63927 0.38291 0.03016
 H952 H 0.64393 0.46450 0.13550
 C953 C 0.85910 0.07770 0.11908
 C954 C 0.86753 0.11358 0.15280
 C955 C 0.84278 0.14091 0.12365
 C956 C 0.83380 0.10532 0.09017
 C957 C 0.87358 0.15381 0.09121
 C958 C 0.89847 0.12656 0.12037
 C959 C 0.88988 0.09096 0.08685
 C960 C 0.86514 0.11797 0.05750
 H961 H 0.85355 0.04610 0.13029
 H962 H 0.86835 0.11204 0.19230
 H963 H 0.80700 0.09685 0.07764
 H964 H 0.87933 0.18530 0.07974
 H965 H 0.92512 0.13547 0.13316
 H966 H 0.86489 0.11911 0.01812
 C967 C 0.91444 0.67211 0.58123
 C968 C 0.87361 0.66818 0.57621
 C969 C 0.86957 0.67196 0.63063
 C970 C 0.90996 0.67652 0.63612
 C971 C 0.87252 0.62579 0.63622
 C972 C 0.87665 0.62174 0.58176
 C973 C 0.91701 0.62592 0.58726
 C974 C 0.91291 0.63002 0.64161
 H975 H 0.93193 0.69085 0.55831
 H976 H 0.85705 0.68407 0.54957
 H977 H 0.92402 0.69904 0.65854
 H978 H 0.85518 0.60665 0.65891
 H979 H 0.86304 0.59905 0.55902
 H980 H 0.92933 0.61419 0.66848
 C981 C 0.36031 0.07712 0.62240
 C982 C 0.36858 0.11336 0.65566
 C983 C 0.34242 0.13972 0.62757
 C984 C 0.33364 0.10374 0.59452
 C985 C 0.37206 0.15360 0.59373
 C986 C 0.39840 0.12726 0.62182
 C987 C 0.38994 0.09126 0.58876
 C988 C 0.36380 0.11737 0.56043
 H989 H 0.35580 0.04537 0.63393
 H990 H 0.37041 0.11196 0.69510
 H991 H 0.30685 0.09413 0.58311
 H992 H 0.37672 0.18527 0.58204
 H993 H 0.42512 0.13709 0.63333
 H994 H 0.36225 0.11855 0.52100
 C995 C 0.36101 0.57167 0.12681
 C996 C 0.36988 0.60652 0.16187
 C997 C 0.34254 0.63370 0.13706
 C998 C 0.33318 0.59913 0.10219
 C999 C 0.37100 0.64948 0.10242
 C1000 C 0.39849 0.62233 0.12728
 C1001 C 0.38948 0.58771 0.09240
 C1002 C 0.36215 0.61468 0.06730
 H1003 H 0.35711 0.53940 0.13658
 H1004 H 0.37301 0.60330 0.20100
 H1005 H 0.30615 0.58957 0.09181
 H1006 H 0.37506 0.68169 0.09248
 H1007 H 0.42540 0.63219 0.13791
 H1008 H 0.35921 0.61775 0.02812
   
