data_POSCAR
  _audit_creation_date              2014-09-24
  _audit_creation_method            'ToBaCCo'
  _symmetry_space_group_name_H-M    'P1'
  _symmetry_Int_Tables_number       1
  _symmetry_cell_setting            triclinic
  loop_
  _symmetry_equiv_pos_as_xyz
 x,y,z
_cell_length_a 17.9091
_cell_length_b 23.2902
_cell_length_c 20.2836
_cell_angle_alpha 90.000000
_cell_angle_beta 90.000000
_cell_angle_gamma 90.000000
loop_
  _atom_site_label
  _atom_site_type_symbol
  _atom_site_fract_x
  _atom_site_fract_y
  _atom_site_fract_z
B1 B -0.04273 -0.05359 0.03031
 B2 B 0.04778 -0.03994 0.04759
 B3 B 0.02328 -0.06183 -0.02874
 B4 B -0.06074 -0.03238 -0.04756
 B5 B -0.08629 0.00854 0.01750
 B6 B -0.01864 0.00340 0.07625
 B7 B 0.04302 0.05340 -0.03108
 B8 B -0.04747 0.03951 -0.04842
 B9 B -0.02278 0.06157 0.02831
 B10 B 0.06129 0.03204 0.04684
 B11 B 0.08677 -0.00877 -0.01822
 B12 B 0.01923 -0.00380 -0.07701
 B13 B 0.53765 0.47898 0.56749
 B14 B 0.44578 0.47074 0.55036
 B15 B 0.48037 0.53734 0.56424
 B16 B 0.56716 0.54028 0.53139
 B17 B 0.58431 0.47591 0.49616
 B18 B 0.50910 0.43298 0.50868
 B19 B 0.46453 0.52219 0.43230
 B20 B 0.55608 0.53026 0.44925
 B21 B 0.52133 0.46368 0.43560
 B22 B 0.43477 0.46085 0.46834
 B23 B 0.41737 0.52531 0.50333
 B24 B 0.49308 0.56808 0.49135
 B25 B 0.54273 0.05359 0.53031
 B26 B 0.45222 0.03994 0.54759
 B27 B 0.47671 0.06183 0.47126
 B28 B 0.56074 0.03238 0.45244
 B29 B 0.58629 -0.00855 0.51750
 B30 B 0.51864 -0.00341 0.57625
 B31 B 0.45698 -0.05340 0.46892
 B32 B 0.54747 -0.03951 0.45158
 B33 B 0.52277 -0.06157 0.52831
 B34 B 0.43871 -0.03204 0.54684
 B35 B 0.41322 0.00877 0.48178
 B36 B 0.48077 0.00380 0.42299
 B37 B -0.03765 0.52102 0.06749
 B38 B 0.05422 0.52926 0.05037
 B39 B 0.01963 0.46266 0.06424
 B40 B -0.06716 0.45972 0.03139
 B41 B -0.08431 0.52409 -0.00383
 B42 B -0.00911 0.56701 0.00868
 B43 B 0.03546 0.47780 -0.06770
 B44 B -0.05608 0.46974 -0.05075
 B45 B -0.02134 0.53632 -0.06440
 B46 B 0.06523 0.53915 -0.03166
 B47 B 0.08263 0.47469 0.00333
 B48 B 0.00692 0.43192 -0.00865
 B49 B 0.04273 0.44641 0.46969
 B50 B -0.04778 0.46006 0.45241
 B51 B -0.02328 0.43817 0.52874
 B52 B 0.06074 0.46762 0.54756
 B53 B 0.08629 0.50854 0.48250
 B54 B 0.01864 0.50340 0.42375
 B55 B -0.04302 0.55340 0.53108
 B56 B 0.04747 0.53951 0.54842
 B57 B 0.02277 0.56157 0.47169
 B58 B -0.06129 0.53204 0.45316
 B59 B -0.08677 0.49123 0.51822
 B60 B -0.01923 0.49620 0.57701
 B61 B 0.46235 -0.02102 -0.06749
 B62 B 0.55422 -0.02926 -0.05037
 B63 B 0.51963 0.03734 -0.06424
 B64 B 0.43284 0.04028 -0.03139
 B65 B 0.41569 -0.02409 0.00384
 B66 B 0.49090 -0.06702 -0.00868
 B67 B 0.53546 0.02219 0.06770
 B68 B 0.44392 0.03026 0.05075
 B69 B 0.47867 -0.03632 0.06440
 B70 B 0.56523 -0.03915 0.03166
 B71 B 0.58263 0.02531 -0.00333
 B72 B 0.50692 0.06808 0.00865
 B73 B 0.45727 0.55359 -0.03031
 B74 B 0.54778 0.53994 -0.04759
 B75 B 0.52328 0.56183 0.02874
 B76 B 0.43926 0.53238 0.04756
 B77 B 0.41371 0.49145 -0.01750
 B78 B 0.48136 0.49659 -0.07625
 B79 B 0.54302 0.44660 0.03108
 B80 B 0.45253 0.46049 0.04842
 B81 B 0.47722 0.43843 -0.02831
 B82 B 0.56129 0.46796 -0.04684
 B83 B 0.58677 0.50877 0.01822
 B84 B 0.51923 0.50379 0.07701
 B85 B 0.03765 0.02102 0.43251
 B86 B -0.05422 0.02926 0.44963
 B87 B -0.01963 -0.03734 0.43576
 B88 B 0.06716 -0.04028 0.46861
 B89 B 0.08431 0.02409 0.50383
 B90 B 0.00910 0.06701 0.49132
 B91 B -0.03546 -0.02220 0.56770
 B92 B 0.05608 -0.03026 0.55075
 B93 B 0.02133 0.03632 0.56440
 B94 B -0.06523 0.03915 0.53166
 B95 B -0.08263 -0.02531 0.49667
 B96 B -0.00692 -0.06808 0.50865
 B97 B 0.77702 0.30519 0.27671
 B98 B 0.68781 0.28519 0.28898
 B99 B 0.71582 0.30062 0.21165
 B100 B 0.80399 0.27865 0.20218
 B101 B 0.83071 0.24605 0.27307
 B102 B 0.75831 0.24988 0.32795
 B103 B 0.71245 0.18495 0.22467
 B104 B 0.80148 0.20685 0.20842
 B105 B 0.77451 0.18887 0.28547
 B106 B 0.68532 0.21243 0.29797
 B107 B 0.65903 0.24409 0.22644
 B108 B 0.73050 0.23921 0.17186
 B109 B 0.72549 0.81113 0.78547
 B110 B 0.69852 0.79315 0.70842
 B111 B 0.78755 0.81505 0.72467
 B112 B 0.81468 0.78757 0.79797
 B113 B 0.74169 0.75012 0.82795
 B114 B 0.66929 0.75395 0.77307
 B115 B 0.78418 0.69938 0.71165
 B116 B 0.81219 0.71481 0.78898
 B117 B 0.72298 0.69481 0.77671
 B118 B 0.69601 0.72135 0.70218
 B119 B 0.76950 0.76079 0.67186
 B120 B 0.84097 0.75591 0.72644
 B121 B 0.27702 0.19481 0.72329
 B122 B 0.18780 0.21481 0.71102
 B123 B 0.21582 0.19938 0.78835
 B124 B 0.30399 0.22135 0.79782
 B125 B 0.33071 0.25395 0.72693
 B126 B 0.25831 0.25012 0.67205
 B127 B 0.21246 0.31505 0.77533
 B128 B 0.30148 0.29315 0.79158
 B129 B 0.27451 0.31113 0.71453
 B130 B 0.18532 0.28757 0.70203
 B131 B 0.15903 0.25591 0.77356
 B132 B 0.23050 0.26079 0.82814
 B133 B 0.22298 0.80519 0.22329
 B134 B 0.31219 0.78519 0.21102
 B135 B 0.28418 0.80062 0.28835
 B136 B 0.19601 0.77865 0.29782
 B137 B 0.16929 0.74605 0.22693
 B138 B 0.24169 0.74987 0.17205
 B139 B 0.28754 0.68495 0.27533
 B140 B 0.19851 0.70685 0.29158
 B141 B 0.22549 0.68887 0.21453
 B142 B 0.31467 0.71243 0.20203
 B143 B 0.34097 0.74409 0.27356
 B144 B 0.26950 0.73921 0.32814
 B145 B 0.28283 0.69854 0.79008
 B146 B 0.31324 0.71427 0.71356
 B147 B 0.22355 0.69409 0.72368
 B148 B 0.19408 0.72029 0.79730
 B149 B 0.26632 0.75951 0.82964
 B150 B 0.33991 0.75553 0.77721
 B151 B 0.22665 0.81034 0.71496
 B152 B 0.19656 0.79199 0.79148
 B153 B 0.28552 0.81414 0.77801
 B154 B 0.31590 0.78705 0.70515
 B155 B 0.24415 0.74937 0.67302
 B156 B 0.16958 0.75332 0.72568
 B157 B 0.21448 0.18585 0.27801
 B158 B 0.30344 0.20801 0.29148
 B159 B 0.27336 0.18965 0.21496
 B160 B 0.18410 0.21295 0.20515
 B161 B 0.16009 0.24447 0.27721
 B162 B 0.23367 0.24049 0.32964
 B163 B 0.27645 0.30591 0.22368
 B164 B 0.18676 0.28573 0.21356
 B165 B 0.21717 0.30145 0.29008
 B166 B 0.30592 0.27971 0.29730
 B167 B 0.33042 0.24668 0.22568
 B168 B 0.25585 0.25063 0.17302
 B169 B 0.78552 0.68585 0.22198
 B170 B 0.69656 0.70801 0.20852
 B171 B 0.72664 0.68966 0.28504
 B172 B 0.81590 0.71295 0.29485
 B173 B 0.83991 0.74447 0.22279
 B174 B 0.76632 0.74049 0.17036
 B175 B 0.72355 0.80591 0.27632
 B176 B 0.81324 0.78573 0.28644
 B177 B 0.78283 0.80146 0.20992
 B178 B 0.69408 0.77971 0.20270
 B179 B 0.66958 0.74668 0.27432
 B180 B 0.74415 0.75063 0.32698
 B181 B 0.71717 0.19855 0.70992
 B182 B 0.68676 0.21427 0.78644
 B183 B 0.77645 0.19409 0.77632
 B184 B 0.80591 0.22029 0.70270
 B185 B 0.73367 0.25951 0.67036
 B186 B 0.66009 0.25553 0.72279
 B187 B 0.77335 0.31034 0.78504
 B188 B 0.80344 0.29199 0.70852
 B189 B 0.71448 0.31415 0.72199
 B190 B 0.68410 0.28705 0.79485
 B191 B 0.75585 0.24937 0.82698
 B192 B 0.83042 0.25332 0.77432
 C193 C 0.17548 0.38382 0.87785
 C194 C 0.16748 0.44901 0.86609
 C195 C 0.08193 0.44389 0.87450
 C196 C 0.09113 0.37801 0.88487
 C197 C 0.07377 0.43325 0.79998
 C198 C 0.15982 0.43756 0.79101
 C199 C 0.16859 0.37197 0.80360
 C200 C 0.08273 0.36798 0.81101
 H201 H 0.21195 0.36222 0.91400
 H202 H 0.20408 0.48221 0.88839
 H203 H 0.06827 0.34792 0.92205
 H204 H 0.03187 0.45476 0.76848
 H205 H 0.18169 0.46421 0.75067
 H206 H 0.04664 0.33450 0.78907
 C207 C 0.34018 0.56244 0.29100
 C208 C 0.42623 0.56675 0.29998
 C209 C 0.41806 0.55610 0.37450
 C210 C 0.33252 0.55099 0.36609
 C211 C 0.40887 0.62199 0.38487
 C212 C 0.41727 0.63202 0.31101
 C213 C 0.33141 0.62803 0.30360
 C214 C 0.32452 0.61618 0.37785
 H215 H 0.31831 0.53579 0.25067
 H216 H 0.46813 0.54525 0.26848
 H217 H 0.29592 0.51779 0.38839
 H218 H 0.43173 0.65208 0.42205
 H219 H 0.45336 0.66550 0.28907
 H220 H 0.28805 0.63777 0.41400
 C221 C 0.91727 0.86798 0.68898
 C222 C 0.90887 0.87801 0.61513
 C223 C 0.91807 0.94389 0.62550
 C224 C 0.92623 0.93325 0.70002
 C225 C 0.83252 0.94901 0.63392
 C226 C 0.82452 0.88382 0.62215
 C227 C 0.83141 0.87197 0.69640
 C228 C 0.84018 0.93756 0.70900
 H229 H 0.95337 0.83449 0.71092
 H230 H 0.93173 0.84792 0.57794
 H231 H 0.96814 0.95475 0.73152
 H232 H 0.79593 0.98221 0.61162
 H233 H 0.78805 0.86223 0.58600
 H234 H 0.81832 0.96420 0.74933
 C235 C 0.58273 0.13203 0.18898
 C236 C 0.59114 0.12199 0.11513
 C237 C 0.58194 0.05610 0.12550
 C238 C 0.57376 0.06676 0.20002
 C239 C 0.66748 0.05099 0.13392
 C240 C 0.67548 0.11617 0.12216
 C241 C 0.66859 0.12803 0.19641
 C242 C 0.65982 0.06244 0.20900
 H243 H 0.54663 0.16551 0.21092
 H244 H 0.56828 0.15208 0.07794
 H245 H 0.53186 0.04525 0.23152
 H246 H 0.70407 0.01779 0.11163
 H247 H 0.71195 0.13777 0.08601
 H248 H 0.68168 0.03580 0.24934
 C249 C 0.81676 0.06998 0.31660
 C250 C 0.90206 0.07251 0.32748
 C251 C 0.89074 0.06481 0.40192
 C252 C 0.80549 0.06176 0.39188
 C253 C 0.88521 0.13061 0.41057
 C254 C 0.89730 0.13800 0.33616
 C255 C 0.81198 0.13583 0.32528
 C256 C 0.80030 0.12771 0.40012
 H257 H 0.79476 0.04155 0.27797
 H258 H 0.94203 0.04873 0.29613
 H259 H 0.76615 0.03139 0.41550
 H260 H 0.91203 0.15750 0.44907
 H261 H 0.93743 0.16873 0.31415
 H262 H 0.75813 0.15009 0.43094
 C263 C 0.39730 0.36200 0.66384
 C264 C 0.38521 0.36939 0.58943
 C265 C 0.39074 0.43519 0.59808
 C266 C 0.40207 0.42749 0.67252
 C267 C 0.30549 0.43824 0.60812
 C268 C 0.30030 0.37229 0.59988
 C269 C 0.31198 0.36417 0.67471
 C270 C 0.31676 0.43002 0.68340
 H271 H 0.43743 0.33127 0.68585
 H272 H 0.41203 0.34250 0.55093
 H273 H 0.44204 0.45127 0.70387
 H274 H 0.26615 0.46861 0.58450
 H275 H 0.25813 0.34991 0.56906
 H276 H 0.29476 0.45844 0.72203
 C277 C 0.60270 0.86200 0.83616
 C278 C 0.61480 0.86939 0.91057
 C279 C 0.60926 0.93519 0.90192
 C280 C 0.59793 0.92749 0.82748
 C281 C 0.69451 0.93825 0.89187
 C282 C 0.69971 0.87229 0.90012
 C283 C 0.68802 0.86417 0.82528
 C284 C 0.68324 0.93002 0.81660
 H285 H 0.56257 0.83126 0.81416
 H286 H 0.58798 0.84250 0.94907
 H287 H 0.55796 0.95127 0.79613
 H288 H 0.73385 0.96861 0.91549
 H289 H 0.74188 0.84992 0.93094
 H290 H 0.70523 0.95844 0.77796
 C291 C 0.10270 0.63800 0.16384
 C292 C 0.11479 0.63061 0.08943
 C293 C 0.10925 0.56481 0.09808
 C294 C 0.09793 0.57251 0.17253
 C295 C 0.19450 0.56176 0.10813
 C296 C 0.19970 0.62771 0.09988
 C297 C 0.18801 0.63583 0.17472
 C298 C 0.18324 0.56998 0.18340
 H299 H 0.06257 0.66873 0.18585
 H300 H 0.08797 0.65750 0.05093
 H301 H 0.05796 0.54873 0.20387
 H302 H 0.23385 0.53139 0.08450
 H303 H 0.24187 0.65009 0.06906
 H304 H 0.20523 0.54155 0.22203
 C305 C 0.45630 0.83386 0.17279
 C306 C 0.45203 0.84842 0.09863
 C307 C 0.44841 0.91386 0.11507
 C308 C 0.45381 0.89940 0.18859
 C309 C 0.36280 0.90902 0.11885
 C310 C 0.36614 0.84474 0.10142
 C311 C 0.36988 0.83035 0.17519
 C312 C 0.36790 0.89523 0.19198
 H313 H 0.49539 0.80199 0.19388
 H314 H 0.48758 0.82725 0.06093
 H315 H 0.49126 0.92264 0.22242
 H316 H 0.32468 0.94264 0.10126
 H317 H 0.33373 0.82244 0.06262
 H318 H 0.33215 0.91883 0.22610
 C319 C 0.54370 0.33387 0.32721
 C320 C 0.54797 0.34842 0.40137
 C321 C 0.55159 0.41386 0.38493
 C322 C 0.54619 0.39940 0.31141
 C323 C 0.63720 0.40903 0.38115
 C324 C 0.63386 0.34475 0.39858
 C325 C 0.63012 0.33035 0.32481
 C326 C 0.63209 0.39523 0.30802
 H327 H 0.50461 0.30199 0.30612
 H328 H 0.51242 0.32725 0.43907
 H329 H 0.50874 0.42264 0.27758
 H330 H 0.67532 0.44265 0.39873
 H331 H 0.66627 0.32244 0.43737
 H332 H 0.66785 0.41883 0.27390
 C333 C 0.86790 0.60477 0.80802
 C334 C 0.95381 0.60060 0.81141
 C335 C 0.94841 0.58614 0.88493
 C336 C 0.86280 0.59097 0.88115
 C337 C 0.95203 0.65158 0.90137
 C338 C 0.95630 0.66613 0.82721
 C339 C 0.86988 0.66965 0.82481
 C340 C 0.86613 0.65525 0.89858
 H341 H 0.83215 0.58117 0.77390
 H342 H 0.99126 0.57736 0.77758
 H343 H 0.82467 0.55735 0.89874
 H344 H 0.98758 0.67275 0.93907
 H345 H 0.99539 0.69801 0.80612
 H346 H 0.83373 0.67756 0.93737
 C347 C 0.04369 0.16613 0.67279
 C348 C 0.04797 0.15158 0.59863
 C349 C 0.05159 0.08614 0.61507
 C350 C 0.04619 0.10060 0.68859
 C351 C 0.13720 0.09098 0.61884
 C352 C 0.13386 0.15526 0.60142
 C353 C 0.13012 0.16965 0.67519
 C354 C 0.13209 0.10477 0.69198
 H355 H 0.00461 0.19801 0.69388
 H356 H 0.01242 0.17275 0.56093
 H357 H 0.00874 0.07736 0.72242
 H358 H 0.17532 0.05736 0.60126
 H359 H 0.16626 0.17756 0.56262
 H360 H 0.16785 0.08117 0.72610
 C361 C 0.09486 0.34684 0.34488
 C362 C 0.09484 0.33829 0.42017
 C363 C 0.09614 0.40347 0.42886
 C364 C 0.09786 0.41181 0.35303
 C365 C 0.18279 0.40296 0.42878
 C366 C 0.18117 0.33720 0.41923
 C367 C 0.18099 0.34575 0.34296
 C368 C 0.18387 0.41091 0.35298
 H369 H 0.05682 0.32418 0.31103
 H370 H 0.06126 0.30683 0.44844
 H371 H 0.06547 0.44170 0.32179
 H372 H 0.21956 0.42558 0.46440
 H373 H 0.21671 0.30710 0.44783
 H374 H 0.22100 0.44165 0.32703
 C375 C 0.31612 0.58909 0.85298
 C376 C 0.40214 0.58819 0.85303
 C377 C 0.40386 0.59653 0.92886
 C378 C 0.31721 0.59704 0.92878
 C379 C 0.40516 0.66171 0.92017
 C380 C 0.40514 0.65316 0.84488
 C381 C 0.31901 0.65425 0.84296
 C382 C 0.31883 0.66280 0.91923
 H383 H 0.27900 0.55834 0.82703
 H384 H 0.43453 0.55830 0.82179
 H385 H 0.28044 0.57442 0.96440
 H386 H 0.43874 0.69317 0.94844
 H387 H 0.44318 0.67581 0.81103
 H388 H 0.28329 0.69290 0.94783
 C389 C 0.59486 0.15316 0.65512
 C390 C 0.59484 0.16171 0.57983
 C391 C 0.59614 0.09653 0.57114
 C392 C 0.59786 0.08819 0.64697
 C393 C 0.68278 0.09704 0.57122
 C394 C 0.68117 0.16280 0.58077
 C395 C 0.68099 0.15425 0.65704
 C396 C 0.68387 0.08909 0.64703
 H397 H 0.55682 0.17582 0.68897
 H398 H 0.56126 0.19317 0.55156
 H399 H 0.56547 0.05830 0.67822
 H400 H 0.71956 0.07442 0.53560
 H401 H 0.71671 0.19290 0.55217
 H402 H 0.72100 0.05834 0.67297
 C403 C 0.90514 0.84684 0.15512
 C404 C 0.90516 0.83829 0.07983
 C405 C 0.90386 0.90347 0.07114
 C406 C 0.90214 0.91181 0.14697
 C407 C 0.81721 0.90296 0.07122
 C408 C 0.81883 0.83720 0.08077
 C409 C 0.81901 0.84575 0.15704
 C410 C 0.81613 0.91091 0.14702
 H411 H 0.94318 0.82418 0.18897
 H412 H 0.93874 0.80683 0.05156
 H413 H 0.93453 0.94170 0.17821
 H414 H 0.78044 0.92558 0.03560
 H415 H 0.78328 0.80710 0.05217
 H416 H 0.77900 0.94166 0.17297
 C417 C 0.81135 0.07546 0.82739
 C418 C 0.89733 0.06953 0.82425
 C419 C 0.90305 0.07740 0.89983
 C420 C 0.81773 0.08226 0.90339
 C421 C 0.90939 0.14262 0.89086
 C422 C 0.90380 0.13526 0.81529
 C423 C 0.81786 0.14137 0.81842
 C424 C 0.82418 0.14766 0.89492
 H425 H 0.77301 0.04579 0.80185
 H426 H 0.92682 0.03610 0.79552
 H427 H 0.78434 0.06043 0.94180
 H428 H 0.94616 0.17267 0.91764
 H429 H 0.93893 0.15640 0.77790
 H430 H 0.79668 0.17861 0.92854
 C431 C 0.09620 0.63526 0.68471
 C432 C 0.09061 0.64262 0.60914
 C433 C 0.09695 0.57740 0.60017
 C434 C 0.10267 0.56953 0.67575
 C435 C 0.18227 0.58226 0.59661
 C436 C 0.17582 0.64766 0.60508
 C437 C 0.18214 0.64137 0.68158
 C438 C 0.18864 0.57546 0.67261
 H439 H 0.06107 0.65640 0.72210
 H440 H 0.05384 0.67267 0.58236
 H441 H 0.07318 0.53610 0.70448
 H442 H 0.21566 0.56043 0.55820
 H443 H 0.20332 0.67861 0.57146
 H444 H 0.22699 0.54579 0.69815
 C445 C 0.67582 0.85234 0.39492
 C446 C 0.68227 0.91774 0.40339
 C447 C 0.59695 0.92260 0.39983
 C448 C 0.59061 0.85738 0.39086
 C449 C 0.60267 0.93047 0.32425
 C450 C 0.68864 0.92454 0.32739
 C451 C 0.68214 0.85863 0.31841
 C452 C 0.59620 0.86474 0.31529
 H453 H 0.70332 0.82139 0.42854
 H454 H 0.71566 0.93957 0.44180
 H455 H 0.55384 0.82733 0.41764
 H456 H 0.57318 0.96390 0.29552
 H457 H 0.72699 0.95421 0.30185
 H458 H 0.56107 0.84360 0.27790
 C459 C 0.40380 0.36474 0.18471
 C460 C 0.40939 0.35737 0.10914
 C461 C 0.40305 0.42260 0.10017
 C462 C 0.39733 0.43047 0.17575
 C463 C 0.31773 0.41774 0.09661
 C464 C 0.32418 0.35234 0.10508
 C465 C 0.31786 0.35863 0.18158
 C466 C 0.31135 0.42454 0.17261
 H467 H 0.43893 0.34360 0.22210
 H468 H 0.44616 0.32732 0.08236
 H469 H 0.42682 0.46390 0.20448
 H470 H 0.28434 0.43957 0.05820
 H471 H 0.29668 0.32139 0.07146
 H472 H 0.27301 0.45421 0.19815
 C473 C 0.55285 0.67874 0.15219
 C474 C 0.55899 0.68203 0.07572
 C475 C 0.55849 0.61573 0.07094
 C476 C 0.55140 0.61287 0.14732
 C477 C 0.64478 0.61557 0.07840
 C478 C 0.64517 0.68115 0.08301
 C479 C 0.63878 0.67590 0.15912
 C480 C 0.63696 0.61064 0.15367
 H481 H 0.51403 0.70360 0.18371
 H482 H 0.52743 0.71228 0.04397
 H483 H 0.51163 0.58629 0.17572
 H484 H 0.68677 0.59254 0.04830
 H485 H 0.68373 0.70920 0.05475
 H486 H 0.66577 0.57928 0.18566
 C487 C 0.05285 0.82125 0.84781
 C488 C 0.05900 0.81796 0.92428
 C489 C 0.05850 0.88427 0.92906
 C490 C 0.05140 0.88713 0.85268
 C491 C 0.14478 0.88443 0.92160
 C492 C 0.14517 0.81885 0.91699
 C493 C 0.13878 0.82410 0.84088
 C494 C 0.13696 0.88936 0.84632
 H495 H 0.01404 0.79640 0.81629
 H496 H 0.02744 0.78772 0.95604
 H497 H 0.01163 0.91371 0.82428
 H498 H 0.18677 0.90746 0.95170
 H499 H 0.18373 0.79080 0.94525
 H500 H 0.16577 0.92072 0.81434
 C501 C 0.36304 0.11064 0.34633
 C502 C 0.44860 0.11287 0.35268
 C503 C 0.44150 0.11573 0.42906
 C504 C 0.35522 0.11557 0.42160
 C505 C 0.44100 0.18203 0.42428
 C506 C 0.44715 0.17874 0.34781
 C507 C 0.36122 0.17590 0.34088
 C508 C 0.35483 0.18115 0.41699
 H509 H 0.33423 0.07928 0.31434
 H510 H 0.48837 0.08629 0.32428
 H511 H 0.31322 0.09254 0.45170
 H512 H 0.47256 0.21228 0.45604
 H513 H 0.48596 0.20360 0.31629
 H514 H 0.31627 0.20920 0.44525
 C515 C 0.94715 0.32126 0.65219
 C516 C 0.94100 0.31797 0.57572
 C517 C 0.94150 0.38427 0.57094
 C518 C 0.94860 0.38713 0.64732
 C519 C 0.85522 0.38443 0.57840
 C520 C 0.85483 0.31885 0.58301
 C521 C 0.86122 0.32410 0.65912
 C522 C 0.86304 0.38936 0.65368
 H523 H 0.98596 0.29640 0.68371
 H524 H 0.97256 0.28772 0.54397
 H525 H 0.98837 0.41371 0.67572
 H526 H 0.81323 0.40746 0.54830
 H527 H 0.81627 0.29080 0.55475
 H528 H 0.83423 0.42072 0.68566
 C529 C 0.83589 0.62693 0.11581
 C530 C 0.92047 0.62165 0.12527
 C531 C 0.91418 0.55516 0.12437
 C532 C 0.82830 0.56119 0.11635
 C533 C 0.90380 0.55544 0.19974
 C534 C 0.91068 0.62165 0.20021
 C535 C 0.82535 0.62853 0.19115
 C536 C 0.81790 0.56212 0.19182
 H537 H 0.80942 0.65476 0.07806
 H538 H 0.96040 0.65042 0.09981
 H539 H 0.79195 0.53577 0.08298
 H540 H 0.93378 0.52811 0.23496
 H541 H 0.94588 0.64581 0.23540
 H542 H 0.77531 0.53400 0.21414
 C543 C 0.58932 0.37835 0.70021
 C544 C 0.59620 0.44456 0.69974
 C545 C 0.58582 0.44484 0.62437
 C546 C 0.57953 0.37835 0.62527
 C547 C 0.67169 0.43881 0.61635
 C548 C 0.68209 0.43788 0.69182
 C549 C 0.67464 0.37147 0.69115
 C550 C 0.66411 0.37307 0.61581
 H551 H 0.55411 0.35419 0.73540
 H552 H 0.56621 0.47189 0.73496
 H553 H 0.53960 0.34958 0.59981
 H554 H 0.70805 0.46423 0.58298
 H555 H 0.72468 0.46601 0.71415
 H556 H 0.69059 0.34524 0.57806
 C557 C 0.16411 0.12693 0.38419
 C558 C 0.07953 0.12165 0.37473
 C559 C 0.08582 0.05516 0.37563
 C560 C 0.17169 0.06119 0.38364
 C561 C 0.09620 0.05544 0.30026
 C562 C 0.08932 0.12165 0.29979
 C563 C 0.17464 0.12853 0.30885
 C564 C 0.18209 0.06212 0.30817
 H565 H 0.19059 0.15476 0.42194
 H566 H 0.03960 0.15042 0.40019
 H567 H 0.20805 0.03576 0.41702
 H568 H 0.06621 0.02811 0.26504
 H569 H 0.05411 0.14581 0.26460
 H570 H 0.22468 0.03400 0.28585
 C571 C 0.41068 0.87835 0.79979
 C572 C 0.40380 0.94456 0.80026
 C573 C 0.41418 0.94484 0.87563
 C574 C 0.42047 0.87835 0.87472
 C575 C 0.32831 0.93881 0.88365
 C576 C 0.31791 0.93788 0.80818
 C577 C 0.32536 0.87147 0.80885
 C578 C 0.33589 0.87306 0.88419
 H579 H 0.44589 0.85419 0.76460
 H580 H 0.43378 0.97189 0.76504
 H581 H 0.46040 0.84958 0.90019
 H582 H 0.29195 0.96423 0.91702
 H583 H 0.27531 0.96600 0.78585
 H584 H 0.30942 0.84524 0.92194
 C585 C 0.10888 0.87610 0.68167
 C586 C 0.12326 0.94108 0.67375
 C587 C 0.11131 0.93478 0.59900
 C588 C 0.09789 0.86967 0.60711
 C589 C 0.19536 0.92319 0.58964
 C590 C 0.20778 0.92838 0.66497
 C591 C 0.19268 0.86344 0.67302
 C592 C 0.18151 0.85825 0.59780
 H593 H 0.07243 0.85689 0.71933
 H594 H 0.09977 0.97519 0.70579
 H595 H 0.05574 0.84166 0.58364
 H596 H 0.23159 0.94508 0.55345
 H597 H 0.25674 0.95230 0.68279
 H598 H 0.20519 0.82495 0.56466
 C599 C 0.68151 0.64175 0.40220
 C600 C 0.59789 0.63033 0.39289
 C601 C 0.61131 0.56522 0.40100
 C602 C 0.69536 0.57681 0.41036
 C603 C 0.62325 0.55892 0.32625
 C604 C 0.60887 0.62390 0.31833
 C605 C 0.69267 0.63656 0.32698
 C606 C 0.70777 0.57162 0.33503
 H607 H 0.70519 0.67504 0.43534
 H608 H 0.55574 0.65834 0.41636
 H609 H 0.73158 0.55492 0.44655
 H610 H 0.59976 0.52482 0.29421
 H611 H 0.57243 0.64311 0.28067
 H612 H 0.75674 0.54770 0.31721
 C613 C 0.31850 0.14175 0.09780
 C614 C 0.40211 0.13032 0.10712
 C615 C 0.38869 0.06522 0.09900
 C616 C 0.30464 0.07681 0.08963
 C617 C 0.37674 0.05892 0.17375
 C618 C 0.39112 0.12389 0.18167
 C619 C 0.30732 0.13656 0.17302
 C620 C 0.29222 0.07162 0.16497
 H621 H 0.29483 0.17505 0.06466
 H622 H 0.44427 0.15834 0.08365
 H623 H 0.26842 0.05493 0.05344
 H624 H 0.40022 0.02481 0.20579
 H625 H 0.42757 0.14310 0.21934
 H626 H 0.24325 0.04771 0.18278
 C627 C 0.89112 0.37610 0.81833
 C628 C 0.87675 0.44108 0.82625
 C629 C 0.88869 0.43478 0.90100
 C630 C 0.90210 0.36967 0.89289
 C631 C 0.80463 0.42319 0.91036
 C632 C 0.79223 0.42838 0.83503
 C633 C 0.80732 0.36344 0.82698
 C634 C 0.81848 0.35825 0.90220
 H635 H 0.92757 0.35688 0.78067
 H636 H 0.90024 0.47518 0.79421
 H637 H 0.94425 0.34166 0.91637
 H638 H 0.76841 0.44508 0.94655
 H639 H 0.74326 0.45230 0.81721
 H640 H 0.79481 0.32496 0.93534
 C641 C 0.63433 0.15512 0.89643
 C642 C 0.54849 0.15237 0.90113
 C643 C 0.55045 0.08687 0.88473
 C644 C 0.63603 0.09079 0.87922
 C645 C 0.54350 0.10139 0.81128
 C646 C 0.54246 0.16694 0.82702
 C647 C 0.62881 0.16948 0.82264
 C648 C 0.62936 0.10455 0.80606
 H649 H 0.66916 0.17676 0.93410
 H650 H 0.51449 0.17397 0.93961
 H651 H 0.67451 0.05773 0.89726
 H652 H 0.50562 0.07865 0.77770
 H653 H 0.50322 0.19912 0.80668
 H654 H 0.66307 0.08088 0.77019
 C655 C 0.36567 0.65511 0.60357
 C656 C 0.45151 0.65237 0.59887
 C657 C 0.44955 0.58687 0.61527
 C658 C 0.36397 0.59079 0.62079
 C659 C 0.45649 0.60139 0.68872
 C660 C 0.45753 0.66694 0.67298
 C661 C 0.37118 0.66948 0.67736
 C662 C 0.37064 0.60455 0.69394
 H663 H 0.33084 0.67675 0.56590
 H664 H 0.48550 0.67397 0.56039
 H665 H 0.32549 0.55772 0.60274
 H666 H 0.49438 0.57865 0.72230
 H667 H 0.49678 0.69912 0.69332
 H668 H 0.33693 0.58087 0.72981
 C669 C 0.04247 0.33306 0.17298
 C670 C 0.04351 0.39861 0.18872
 C671 C 0.05045 0.41313 0.11527
 C672 C 0.04849 0.34763 0.09887
 C673 C 0.13603 0.40921 0.12079
 C674 C 0.12936 0.39545 0.19394
 C675 C 0.12882 0.33052 0.17736
 C676 C 0.13433 0.34488 0.10357
 H677 H 0.00322 0.30088 0.19332
 H678 H 0.00562 0.42134 0.22230
 H679 H 0.01449 0.32603 0.06039
 H680 H 0.17451 0.44227 0.10274
 H681 H 0.16307 0.41912 0.22981
 H682 H 0.16916 0.32324 0.06590
 C683 C 0.95753 0.83306 0.32702
 C684 C 0.95649 0.89861 0.31128
 C685 C 0.94955 0.91313 0.38473
 C686 C 0.95151 0.84763 0.40113
 C687 C 0.86397 0.90921 0.37921
 C688 C 0.87064 0.89545 0.30606
 C689 C 0.87118 0.83052 0.32264
 C690 C 0.86567 0.84488 0.39643
 H691 H 0.99678 0.80088 0.30668
 H692 H 0.99438 0.92135 0.27770
 H693 H 0.98550 0.82603 0.43961
 H694 H 0.82549 0.94227 0.39726
 H695 H 0.83693 0.91912 0.27019
 H696 H 0.83084 0.82324 0.43410
 C697 C 0.81762 0.66172 0.58289
 C698 C 0.90392 0.66230 0.57918
 C699 C 0.90455 0.59685 0.57247
 C700 C 0.81810 0.59580 0.57545
 C701 C 0.90625 0.59030 0.64844
 C702 C 0.90726 0.65557 0.65476
 C703 C 0.82110 0.65491 0.65927
 C704 C 0.82032 0.58951 0.65118
 H705 H 0.77983 0.69036 0.55456
 H706 H 0.93555 0.69356 0.54885
 H707 H 0.78024 0.57060 0.54377
 H708 H 0.94123 0.56136 0.67852
 H709 H 0.94645 0.67955 0.68656
 H710 H 0.78439 0.55806 0.67722
 C711 C 0.59274 0.34443 0.15476
 C712 C 0.59375 0.40969 0.14844
 C713 C 0.59545 0.40315 0.07246
 C714 C 0.59608 0.33770 0.07918
 C715 C 0.68190 0.40420 0.07545
 C716 C 0.67968 0.41049 0.15117
 C717 C 0.67890 0.34509 0.15927
 C718 C 0.68238 0.33828 0.08289
 H719 H 0.55355 0.32045 0.18656
 H720 H 0.55877 0.43864 0.17852
 H721 H 0.56445 0.30644 0.04885
 H722 H 0.71977 0.42940 0.04377
 H723 H 0.71561 0.44194 0.17722
 H724 H 0.72017 0.30964 0.05456
 C725 C 0.40726 0.84443 0.34524
 C726 C 0.40625 0.90969 0.35156
 C727 C 0.40455 0.90315 0.42753
 C728 C 0.40392 0.83770 0.42082
 C729 C 0.31810 0.90420 0.42455
 C730 C 0.32032 0.91049 0.34882
 C731 C 0.32110 0.84509 0.34073
 C732 C 0.31762 0.83828 0.41711
 H733 H 0.44645 0.82045 0.31344
 H734 H 0.44124 0.93864 0.32148
 H735 H 0.43554 0.80644 0.45115
 H736 H 0.28023 0.92940 0.45623
 H737 H 0.28439 0.94194 0.32277
 H738 H 0.27983 0.80964 0.44544
 C739 C 0.18238 0.16172 0.91711
 C740 C 0.09608 0.16230 0.92082
 C741 C 0.09545 0.09685 0.92753
 C742 C 0.18190 0.09580 0.92454
 C743 C 0.09374 0.09031 0.85156
 C744 C 0.09274 0.15557 0.84524
 C745 C 0.17890 0.15491 0.84073
 C746 C 0.17968 0.08951 0.84882
 H747 H 0.22018 0.19035 0.94544
 H748 H 0.06446 0.19356 0.95115
 H749 H 0.21976 0.07059 0.95623
 H750 H 0.05876 0.06136 0.82148
 H751 H 0.05355 0.17955 0.81344
 H752 H 0.21560 0.05806 0.82277
 C753 C 0.09478 0.86041 0.18017
 C754 C 0.09777 0.92639 0.17418
 C755 C 0.09672 0.92107 0.09846
 C756 C 0.09373 0.85546 0.10427
 C757 C 0.18225 0.91950 0.09834
 C758 C 0.18399 0.92390 0.17484
 C759 C 0.18109 0.85755 0.18074
 C760 C 0.17934 0.85358 0.10373
 H761 H 0.05969 0.83692 0.21570
 H762 H 0.06261 0.95774 0.19973
 H763 H 0.05966 0.82538 0.07484
 H764 H 0.21448 0.94450 0.06164
 H765 H 0.21818 0.95341 0.20488
 H766 H 0.20971 0.82435 0.07012
 C767 C 0.90522 0.36041 0.31983
 C768 C 0.90223 0.42639 0.32582
 C769 C 0.90328 0.42107 0.40154
 C770 C 0.90627 0.35546 0.39573
 C771 C 0.81775 0.41950 0.40166
 C772 C 0.81601 0.42390 0.32516
 C773 C 0.81891 0.35755 0.31926
 C774 C 0.82066 0.35358 0.39627
 H775 H 0.94031 0.33692 0.28430
 H776 H 0.93739 0.45773 0.30027
 H777 H 0.94034 0.32537 0.42517
 H778 H 0.78552 0.44450 0.43836
 H779 H 0.78182 0.45341 0.29511
 H780 H 0.79029 0.32435 0.42988
 C781 C 0.32066 0.14641 0.60373
 C782 C 0.40627 0.14454 0.60427
 C783 C 0.40328 0.07892 0.59847
 C784 C 0.31775 0.08049 0.59834
 C785 C 0.40223 0.07361 0.67418
 C786 C 0.40522 0.13959 0.68017
 C787 C 0.31891 0.14245 0.68074
 C788 C 0.31601 0.07610 0.67484
 H789 H 0.29029 0.17565 0.57012
 H790 H 0.44034 0.17462 0.57484
 H791 H 0.28552 0.05550 0.56164
 H792 H 0.43739 0.04226 0.69973
 H793 H 0.44031 0.16308 0.71570
 H794 H 0.28182 0.04659 0.70489
 C795 C 0.67934 0.64642 0.89627
 C796 C 0.59373 0.64454 0.89573
 C797 C 0.59672 0.57892 0.90154
 C798 C 0.68225 0.58050 0.90166
 C799 C 0.59777 0.57361 0.82582
 C800 C 0.59478 0.63959 0.81983
 C801 C 0.68109 0.64245 0.81926
 C802 C 0.68399 0.57610 0.82516
 H803 H 0.70971 0.67565 0.92988
 H804 H 0.55966 0.67462 0.92516
 H805 H 0.71448 0.55550 0.93836
 H806 H 0.56261 0.54226 0.80027
 H807 H 0.55969 0.66308 0.78429
 H808 H 0.71818 0.54659 0.79511
 C809 C 0.44556 0.32454 0.84372
 C810 C 0.44502 0.39035 0.85095
 C811 C 0.44253 0.38506 0.92769
 C812 C 0.44395 0.31887 0.92030
 C813 C 0.35619 0.38339 0.92400
 C814 C 0.35916 0.39065 0.84871
 C815 C 0.35931 0.32555 0.84081
 C816 C 0.35750 0.31795 0.91679
 H817 H 0.48256 0.30016 0.81008
 H818 H 0.48142 0.41858 0.82077
 H819 H 0.47846 0.28854 0.94946
 H820 H 0.31567 0.40581 0.95605
 H821 H 0.32482 0.42234 0.82186
 H822 H 0.32118 0.28829 0.94522
 C823 C 0.85750 0.18205 0.08321
 C824 C 0.94395 0.18113 0.07970
 C825 C 0.94253 0.11494 0.07231
 C826 C 0.85619 0.11661 0.07600
 C827 C 0.94502 0.10965 0.14905
 C828 C 0.94556 0.17546 0.15628
 C829 C 0.85931 0.17445 0.15919
 C830 C 0.85916 0.10934 0.15129
 H831 H 0.82118 0.21170 0.05478
 H832 H 0.97846 0.21146 0.05054
 H833 H 0.81567 0.09419 0.04395
 H834 H 0.98142 0.08142 0.17923
 H835 H 0.98256 0.19984 0.18992
 H836 H 0.82483 0.07766 0.17814
 C837 C 0.55444 0.82454 0.65628
 C838 C 0.55498 0.89035 0.64905
 C839 C 0.55747 0.88506 0.57231
 C840 C 0.55605 0.81887 0.57971
 C841 C 0.64381 0.88338 0.57599
 C842 C 0.64084 0.89065 0.65129
 C843 C 0.64069 0.82555 0.65919
 C844 C 0.64250 0.81795 0.58321
 H845 H 0.51745 0.80016 0.68992
 H846 H 0.51858 0.91858 0.67923
 H847 H 0.52154 0.78854 0.55055
 H848 H 0.68433 0.90581 0.54394
 H849 H 0.67518 0.92234 0.67813
 H850 H 0.67881 0.78829 0.55478
 C851 C 0.14250 0.68205 0.41679
 C852 C 0.05605 0.68113 0.42030
 C853 C 0.05747 0.61494 0.42769
 C854 C 0.14381 0.61662 0.42401
 C855 C 0.05498 0.60965 0.35095
 C856 C 0.05444 0.67546 0.34372
 C857 C 0.14069 0.67445 0.34081
 C858 C 0.14084 0.60935 0.34871
 H859 H 0.17881 0.71171 0.44522
 H860 H 0.02154 0.71146 0.44946
 H861 H 0.18433 0.59419 0.45606
 H862 H 0.01858 0.58142 0.32077
 H863 H 0.01744 0.69984 0.31008
 H864 H 0.17518 0.57766 0.32186
   
