data_POSCAR
  _audit_creation_date              2014-09-24
  _audit_creation_method            'ToBaCCo'
  _symmetry_space_group_name_H-M    'P1'
  _symmetry_Int_Tables_number       1
  _symmetry_cell_setting            triclinic
  loop_
  _symmetry_equiv_pos_as_xyz
 x,y,z
_cell_length_a 33.9878
_cell_length_b 33.3546
_cell_length_c 33.7018
_cell_angle_alpha 90.679000
_cell_angle_beta 89.855400
_cell_angle_gamma 88.883400
loop_
  _atom_site_label
  _atom_site_type_symbol
  _atom_site_fract_x
  _atom_site_fract_y
  _atom_site_fract_z
N1 N 0.57989 0.67768 0.59637
 N2 N 0.56138 0.65646 0.62290
 C3 C 0.52728 0.67527 0.63266
 C4 C 0.52413 0.71015 0.61096
 C5 C 0.55808 0.71065 0.58815
 H6 H 0.50620 0.66421 0.65375
 H7 H 0.56652 0.73344 0.56742
 Cu8 Cu 0.58311 0.60617 0.64222
 Cu9 Cu 0.63088 0.66088 0.57478
 Cu10 Cu 0.67659 0.57960 0.61951
 N11 N 0.61170 0.56555 0.67183
 N12 N 0.64844 0.55574 0.66354
 C13 C 0.66093 0.52739 0.68895
 C14 C 0.63019 0.51873 0.71454
 C15 C 0.59942 0.54370 0.70259
 H16 H 0.69005 0.51381 0.68830
 H17 H 0.57030 0.54625 0.71533
 N18 N 0.69983 0.60792 0.57435
 N19 N 0.68245 0.63901 0.55742
 C20 C 0.70527 0.65159 0.52751
 C21 C 0.73858 0.62714 0.52536
 C22 C 0.73411 0.59978 0.55551
 H23 H 0.69793 0.67636 0.50834
 H24 H 0.75446 0.57584 0.56323
 H25 H 0.62903 0.60010 0.58674
 H26 H 0.64692 0.63380 0.62743
 N27 N 0.91668 0.30878 0.10710
 N28 N 0.92681 0.32079 0.14283
 C29 C 0.95858 0.29949 0.15466
 C30 C 0.96931 0.27268 0.12456
 C31 C 0.94194 0.27963 0.09475
 H32 H 0.97295 0.30382 0.18287
 H33 H 0.93989 0.26419 0.06648
 Cu34 Cu 0.89845 0.36383 0.17036
 Cu35 Cu 0.87022 0.33048 0.08046
 Cu36 Cu 0.82673 0.41523 0.12309
 N37 N 0.88016 0.41624 0.18892
 N38 N 0.85189 0.43612 0.17072
 C39 C 0.84571 0.47158 0.18942
 C40 C 0.87173 0.47417 0.22087
 C41 C 0.89315 0.43845 0.21961
 H42 H 0.82467 0.49430 0.18015
 H43 H 0.91669 0.42933 0.23927
 N44 N 0.80614 0.38914 0.07486
 N45 N 0.82276 0.35687 0.05852
 C46 C 0.80123 0.34543 0.02701
 C47 C 0.76957 0.37184 0.02325
 C48 C 0.77372 0.39919 0.05408
 H49 H 0.80784 0.31949 0.00848
 H50 H 0.75391 0.42392 0.06146
 H51 H 0.87845 0.38667 0.10532
 H52 H 0.84048 0.35473 0.12913
 N53 N 0.41903 0.19040 -0.10776
 N54 N 0.43482 0.17302 -0.13934
 C55 C 0.46471 0.19539 -0.15228
 C56 C 0.46786 0.22855 -0.12746
 C57 C 0.43832 0.22435 -0.09955
 H58 H 0.48306 0.18790 -0.17764
 H59 H 0.43118 0.24465 -0.07523
 Cu60 Cu 0.41508 0.12271 -0.16039
 Cu61 Cu 0.37483 0.16772 -0.07952
 Cu62 Cu 0.34064 0.07680 -0.11451
 N63 N 0.39604 0.07111 -0.17890
 N64 N 0.36709 0.05332 -0.16067
 C65 C 0.35984 0.01834 -0.17925
 C66 C 0.38553 0.01386 -0.21098
 C67 C 0.40818 0.04796 -0.20978
 H68 H 0.33762 -0.00242 -0.17016
 H69 H 0.43154 0.05548 -0.23001
 N70 N 0.31760 0.10520 -0.06824
 N71 N 0.33041 0.13996 -0.05502
 C72 C 0.30887 0.15145 -0.02311
 C73 C 0.28122 0.12251 -0.01585
 C74 C 0.28765 0.09364 -0.04508
 H75 H 0.31336 0.17853 -0.00593
 H76 H 0.27166 0.06624 -0.04921
 H77 H 0.38850 0.10892 -0.09481
 H78 H 0.35231 0.13599 -0.12699
 N79 N 0.07846 0.81802 0.40078
 N80 N 0.06132 0.83675 0.37125
 C81 C 0.03204 0.81414 0.35700
 C82 C 0.03058 0.77921 0.37897
 C83 C 0.06064 0.78290 0.40650
 H84 H 0.01343 0.82266 0.33244
 H85 H 0.06962 0.76131 0.42849
 Cu86 Cu 0.07916 0.88860 0.35376
 Cu87 Cu 0.12329 0.83997 0.42886
 Cu88 Cu 0.16371 0.92539 0.38974
 N89 N 0.10594 0.93213 0.32801
 N90 N 0.13892 0.94642 0.34206
 C91 C 0.15131 0.97568 0.31816
 C92 C 0.12465 0.97995 0.28739
 C93 C 0.09624 0.95174 0.29466
 H94 H 0.17788 0.99237 0.32277
 H95 H 0.07085 0.94531 0.27658
 N96 N 0.18419 0.89936 0.43788
 N97 N 0.16865 0.86687 0.45281
 C98 C 0.18897 0.85620 0.48535
 C99 C 0.21888 0.88315 0.49121
 C100 C 0.21488 0.91020 0.46056
 H101 H 0.18237 0.83078 0.50361
 H102 H 0.23316 0.93568 0.45496
 H103 H 0.11497 0.90001 0.41539
 H104 H 0.14340 0.86838 0.37864
 C105 C 0.09600 0.15512 0.12892
 C106 C 0.09654 0.12721 0.15975
 C107 C 0.12647 0.09777 0.16185
 C108 C 0.15664 0.09729 0.13331
 C109 C 0.15680 0.12533 0.10258
 C110 C 0.12600 0.15382 0.10023
 H111 H 0.07355 0.12855 0.18189
 H112 H 0.18007 0.07486 0.13494
 H113 H 0.12510 0.17495 0.07619
 C114 C 0.40574 0.83648 0.62550
 C115 C 0.37444 0.84134 0.59887
 C116 C 0.34643 0.87233 0.60451
 C117 C 0.35054 0.89916 0.63652
 C118 C 0.38170 0.89453 0.66336
 C119 C 0.40943 0.86332 0.65754
 H120 H 0.37214 0.82101 0.57379
 H121 H 0.32941 0.92358 0.64041
 H122 H 0.43381 0.86007 0.67794
 C123 C 0.91553 0.65653 0.37087
 C124 C 0.88749 0.65715 0.40143
 C125 C 0.85772 0.62862 0.40222
 C126 C 0.85557 0.59993 0.37153
 C127 C 0.88309 0.59953 0.34041
 C128 C 0.91312 0.62778 0.34038
 H129 H 0.88873 0.67980 0.42464
 H130 H 0.83261 0.57805 0.37182
 H131 H 0.93467 0.62739 0.31660
 C132 C 0.59117 0.34628 -0.13001
 C133 C 0.61987 0.34499 -0.10020
 C134 C 0.65081 0.37225 -0.09997
 C135 C 0.65351 0.40036 -0.13046
 C136 C 0.62506 0.40191 -0.16055
 C137 C 0.59403 0.37478 -0.16010
 H138 H 0.61852 0.32271 -0.07725
 H139 H 0.67766 0.42098 -0.13089
 H140 H 0.57214 0.37559 -0.18340
 C141 C 0.02341 0.23718 0.15822
 C142 C 0.00060 0.24447 0.12453
 C143 C 0.01103 0.22104 0.09038
 C144 C 0.04249 0.19235 0.09137
 C145 C 0.06394 0.18552 0.12666
 C146 C 0.05279 0.20893 0.15931
 C147 C 0.06207 0.21656 0.20177
 C148 C 0.02872 0.24839 0.20088
 H149 H -0.00463 0.22474 0.06274
 H150 H 0.04949 0.17507 0.06479
 H151 H 0.09176 0.22936 0.20579
 H152 H 0.05538 0.19057 0.22080
 H153 H 0.03927 0.27952 0.20478
 H154 H 0.00288 0.24059 0.21932
 C155 C 0.46313 0.74004 0.64218
 C156 C 0.49131 0.73994 0.61179
 C157 C 0.48692 0.76923 0.58210
 C158 C 0.45820 0.80014 0.58592
 C159 C 0.43395 0.80279 0.61985
 C160 C 0.43541 0.77082 0.64629
 C161 C 0.43722 0.76989 0.69052
 C162 C 0.46764 0.73608 0.68602
 H163 H 0.50647 0.76925 0.55671
 H164 H 0.45636 0.82310 0.56350
 H165 H 0.40911 0.76007 0.70386
 H166 H 0.44964 0.79743 0.70396
 H167 H 0.45695 0.70686 0.69682
 H168 H 0.49745 0.74431 0.69650
 C169 C 1.00563 0.71438 0.40026
 C170 C 1.00507 0.74680 0.37402
 C171 C 0.97788 0.74499 0.34227
 C172 C 0.94963 0.71461 0.34036
 C173 C 0.94740 0.68583 0.37044
 C174 C 0.97741 0.68497 0.39867
 C175 C 0.97642 0.68064 0.44265
 C176 C 1.00730 0.71296 0.44458
 H177 H 0.97715 0.76764 0.31959
 H178 H 0.92815 0.71497 0.31667
 H179 H 0.98772 0.65077 0.45214
 H180 H 0.94803 0.69046 0.45632
 H181 H 1.03622 0.70155 0.45543
 H182 H 0.99648 0.74131 0.45892
 C183 C 0.50106 0.28898 -0.09896
 C184 C 0.49631 0.26146 -0.13021
 C185 C 0.51991 0.26641 -0.16429
 C186 C 0.55022 0.29468 -0.16449
 C187 C 0.55814 0.31805 -0.13040
 C188 C 0.53141 0.31615 -0.09881
 C189 C 0.53701 0.31265 -0.05501
 C190 C 0.50353 0.28305 -0.05523
 H191 H 0.51609 0.24756 -0.19028
 H192 H 0.56874 0.29678 -0.19056
 H193 H 0.52957 0.34111 -0.03895
 H194 H 0.56544 0.29824 -0.04659
 H195 H 0.47682 0.29466 -0.03947
 H196 H 0.51296 0.25203 -0.04739
 C197 C 0.09458 0.01285 0.22785
 C198 C 0.12667 0.00747 0.25334
 C199 C 0.16093 0.02914 0.24498
 C200 C 0.16093 0.05824 0.21498
 C201 C 0.12651 0.06695 0.19314
 C202 C 0.09426 0.04211 0.19895
 C203 C 0.05144 0.05123 0.20533
 C204 C 0.05183 0.01879 0.23662
 H205 H 0.18738 0.02467 0.26227
 H206 H 0.18735 0.07515 0.21007
 H207 H 0.03348 0.04348 0.17891
 H208 H 0.04534 0.08140 0.21847
 H209 H 0.03442 -0.00777 0.22795
 H210 H 0.04624 0.03050 0.26720
 C211 C 0.59600 0.48242 -0.23310
 C212 C 0.63000 0.49056 -0.25474
 C213 C 0.66419 0.46806 -0.24370
 C214 C 0.66299 0.43949 -0.21275
 C215 C 0.62749 0.43195 -0.19232
 C216 C 0.59479 0.45442 -0.20412
 C217 C 0.55234 0.46171 -0.19535
 C218 C 0.55341 0.49324 -0.22824
 H219 H 0.69201 0.47235 -0.25851
 H220 H 0.68963 0.42293 -0.20532
 H221 H 0.54745 0.47476 -0.16520
 H222 H 0.53404 0.43550 -0.20301
 H223 H 0.54876 0.52443 -0.21698
 H224 H 0.53584 0.48500 -0.25479
 C225 C 0.35892 0.95078 0.75894
 C226 C 0.38794 0.98002 0.76021
 C227 C 0.41920 0.97594 0.73263
 C228 C 0.41804 0.94687 0.70189
 C229 C 0.38532 0.92188 0.69778
 C230 C 0.35745 0.92274 0.72839
 C231 C 0.31352 0.92321 0.72814
 C232 C 0.31511 0.95405 0.76168
 H233 H 0.44365 0.99621 0.73351
 H234 H 0.44144 0.94562 0.68001
 H235 H 0.30139 0.89410 0.73754
 H236 H 0.30050 0.93576 0.70069
 H237 H 0.30377 0.94258 0.79026
 H238 H 0.30355 0.98418 0.75324
 C239 C 0.84793 0.53884 0.25216
 C240 C 0.87679 0.50849 0.24846
 C241 C 0.91095 0.51219 0.27188
 C242 C 0.91340 0.54258 0.30114
 C243 C 0.88146 0.56932 0.30815
 C244 C 0.84998 0.56822 0.28150
 C245 C 0.80647 0.56869 0.28789
 C246 C 0.80426 0.53657 0.25559
 H247 H 0.93522 0.49093 0.26868
 H248 H 0.93937 0.54388 0.31963
 H249 H 0.79249 0.59768 0.27923
 H250 H 0.79759 0.55748 0.31741
 H251 H 0.78910 0.54718 0.22837
 H252 H 0.79453 0.50707 0.26666
 C253 C 0.24371 0.15631 0.03985
 C254 C 0.25202 0.12198 0.01679
 C255 C 0.23154 0.08688 0.02613
 C256 C 0.20087 0.08795 0.05434
 C257 C 0.18940 0.12424 0.07335
 C258 C 0.21295 0.15760 0.06701
 C259 C 0.20289 0.20025 0.05753
 C260 C 0.23687 0.19883 0.02809
 H261 H 0.23822 0.05884 0.01088
 H262 H 0.18495 0.06077 0.05997
 H263 H 0.20793 0.22080 0.08313
 H264 H 0.17403 0.20418 0.04255
 H265 H 0.26157 0.21831 0.03701
 H266 H 0.22738 0.20166 -0.00333
 C267 C 0.79877 0.59775 0.49197
 C268 C 0.77176 0.62964 0.49706
 C269 C 0.77743 0.66410 0.47393
 C270 C 0.80612 0.66408 0.44364
 C271 C 0.82911 0.62937 0.43527
 C272 C 0.82640 0.59741 0.46162
 C273 C 0.82283 0.55328 0.45489
 C274 C 0.79266 0.55369 0.48831
 H275 H 0.75889 0.69055 0.47813
 H276 H 0.80891 0.69043 0.42544
 H277 H 0.85040 0.53657 0.46235
 H278 H 0.80970 0.54531 0.42579
 H279 H 0.80300 0.53732 0.51498
 H280 H 0.76246 0.54637 0.47826
 C281 C 0.71100 0.40273 -0.01063
 C282 C 0.73709 0.37016 -0.00586
 C283 C 0.73062 0.33560 -0.02941
 C284 C 0.70194 0.33600 -0.05960
 C285 C 0.67979 0.37117 -0.06743
 C286 C 0.68339 0.40340 -0.04082
 C287 C 0.68826 0.44726 -0.04730
 C288 C 0.71843 0.44650 -0.01404
 H289 H 0.74837 0.30868 -0.02548
 H290 H 0.69839 0.30948 -0.07800
 H291 H 0.66118 0.46492 -0.03959
 H292 H 0.70158 0.45426 -0.07645
 H293 H 0.70857 0.46364 0.01279
 H294 H 0.74885 0.45269 -0.02420
 C295 C 0.25313 0.84974 0.54818
 C296 C 0.24856 0.88283 0.52329
 C297 C 0.27353 0.91557 0.53010
 C298 C 0.30486 0.91259 0.55738
 C299 C 0.31233 0.87657 0.57774
 C300 C 0.28436 0.84650 0.57433
 C301 C 0.28820 0.80219 0.56800
 C302 C 0.25383 0.80577 0.53937
 H303 H 0.27000 0.94288 0.51339
 H304 H 0.32444 0.93760 0.56094
 H305 H 0.28103 0.78529 0.59521
 H306 H 0.31587 0.79259 0.55279
 H307 H 0.22693 0.79093 0.55026
 H308 H 0.26199 0.79869 0.50805
   
