data_POSCAR
  _audit_creation_date              2014-09-24
  _audit_creation_method            'ToBaCCo'
  _symmetry_space_group_name_H-M    'P1'
  _symmetry_Int_Tables_number       1
  _symmetry_cell_setting            triclinic
  loop_
  _symmetry_equiv_pos_as_xyz
 x,y,z
_cell_length_a 51.4992
_cell_length_b 41.9429
_cell_length_c 25.4544
_cell_angle_alpha 89.917800
_cell_angle_beta 89.986600
_cell_angle_gamma 90.034300
loop_
  _atom_site_label
  _atom_site_type_symbol
  _atom_site_fract_x
  _atom_site_fract_y
  _atom_site_fract_z
C1 C 1.27284 0.21574 0.26942
 C2 C 1.25079 0.23255 0.25185
 C3 C 1.22885 0.21522 0.23520
 C4 C 1.22893 0.18178 0.23593
 C5 C 1.25098 0.16538 0.25355
 C6 C 1.27296 0.18227 0.27037
 C7 C 1.25072 0.26808 0.25070
 C8 C 1.27270 0.28501 0.23305
 C9 C 1.27267 0.31848 0.23180
 C10 C 1.25060 0.33525 0.24844
 C11 C 1.22861 0.31872 0.26616
 C12 C 1.22868 0.28528 0.26718
 H13 H 1.28977 0.22872 0.28301
 H14 H 1.21184 0.22770 0.22086
 H15 H 1.28968 0.27214 0.21955
 H16 H 1.21171 0.27269 0.28153
 H17 H 1.25100 0.13951 0.25409
 H18 H 1.25050 0.36111 0.24764
 C19 C 0.77228 -0.28529 0.26890
 C20 C 0.75020 -0.26846 0.25157
 C21 C 0.72822 -0.28576 0.23507
 C22 C 0.72829 -0.31919 0.23574
 C23 C 0.75037 -0.33562 0.25310
 C24 C 0.77240 -0.31875 0.26974
 C25 C 0.75014 -0.23295 0.25051
 C26 C 0.77214 -0.21601 0.23298
 C27 C 0.77212 -0.18259 0.23187
 C28 C 0.75008 -0.16581 0.24843
 C29 C 0.72807 -0.18231 0.26602
 C30 C 0.72811 -0.21575 0.26698
 H31 H 0.78924 -0.27233 0.28238
 H32 H 0.71119 -0.27325 0.22090
 H33 H 0.78915 -0.22880 0.21946
 H34 H 0.71112 -0.22832 0.28127
 H35 H 0.75038 -0.36149 0.25357
 H36 H 0.75007 -0.13995 0.24766
 C37 C 0.77235 0.21609 -0.23255
 C38 C 0.75032 0.23290 -0.25016
 C39 C 0.72838 0.21557 -0.26686
 C40 C 0.72848 0.18213 -0.26612
 C41 C 0.75052 0.16576 -0.24844
 C42 C 0.77246 0.18266 -0.23160
 C43 C 0.75026 0.26841 -0.25126
 C44 C 0.77226 0.28532 -0.26884
 C45 C 0.77227 0.31878 -0.26992
 C46 C 0.75023 0.33556 -0.25320
 C47 C 0.72822 0.31904 -0.23556
 C48 C 0.72825 0.28561 -0.23471
 H49 H 0.78929 0.22899 -0.21889
 H50 H 0.71137 0.22805 -0.28122
 H51 H 0.78923 0.27244 -0.28239
 H52 H 0.71127 0.27302 -0.22039
 H53 H 0.75061 0.13990 -0.24783
 H54 H 0.75016 0.36143 -0.25386
 C55 C 1.27221 -0.28549 -0.23071
 C56 C 1.25016 -0.26862 -0.24799
 C57 C 1.22814 -0.28585 -0.26441
 C58 C 1.22816 -0.31928 -0.26369
 C59 C 1.25021 -0.33576 -0.24640
 C60 C 1.27227 -0.31894 -0.22985
 C61 C 1.25016 -0.23313 -0.24905
 C62 C 1.27217 -0.21626 -0.26668
 C63 C 1.27221 -0.18284 -0.26773
 C64 C 1.25023 -0.16601 -0.25104
 C65 C 1.22822 -0.18246 -0.23337
 C66 C 1.22818 -0.21589 -0.23245
 H67 H 1.28921 -0.27258 -0.21728
 H68 H 1.21111 -0.27331 -0.27854
 H69 H 1.28914 -0.22909 -0.28030
 H70 H 1.21119 -0.22841 -0.21808
 H71 H 1.25018 -0.36163 -0.24590
 H72 H 1.25027 -0.14015 -0.25177
 C73 C 0.22052 0.27723 0.73715
 C74 C 0.23430 0.24997 0.75294
 C75 C 0.22058 0.22256 0.76839
 C76 C 0.19342 0.22244 0.76803
 C77 C 0.17982 0.24970 0.75218
 C78 C 0.19339 0.27704 0.73674
 C79 C 0.26297 0.25007 0.75302
 C80 C 0.27669 0.27640 0.77290
 C81 C 0.30385 0.27647 0.77274
 C82 C 0.31744 0.25030 0.75267
 C83 C 0.30389 0.22406 0.73280
 C84 C 0.27677 0.22388 0.73299
 H85 H 0.23086 0.29839 0.72440
 H86 H 0.23102 0.20151 0.78130
 H87 H 0.26624 0.29660 0.78899
 H88 H 0.26644 0.20359 0.71688
 H89 H 0.15874 0.24967 0.75178
 H90 H 0.33852 0.25031 0.75242
 C91 C 0.71978 0.77758 0.73494
 C92 C 0.73348 0.75028 0.75088
 C93 C 0.71968 0.72297 0.76651
 C94 C 0.69252 0.72298 0.76623
 C95 C 0.67898 0.75025 0.75023
 C96 C 0.69263 0.77754 0.73456
 C97 C 0.76216 0.75026 0.75106
 C98 C 0.77593 0.77654 0.77100
 C99 C 0.80307 0.77647 0.77107
 C100 C 0.81663 0.75026 0.75116
 C101 C 0.80306 0.72406 0.73119
 C102 C 0.77593 0.72399 0.73117
 H103 H 0.73026 0.79864 0.72210
 H104 H 0.73007 0.70190 0.77954
 H105 H 0.76558 0.79681 0.78703
 H106 H 0.76558 0.70373 0.71505
 H107 H 0.65789 0.75024 0.74996
 H108 H 0.83770 0.75027 0.75116
 C109 C 0.72040 0.27682 0.23363
 C110 C 0.73419 0.24953 0.24919
 C111 C 0.72048 0.22200 0.26405
 C112 C 0.69336 0.22181 0.26328
 C113 C 0.67973 0.24906 0.24776
 C114 C 0.69328 0.27654 0.23296
 C115 C 0.76284 0.24974 0.24977
 C116 C 0.77640 0.27616 0.26970
 C117 C 0.80352 0.27631 0.27004
 C118 C 0.81729 0.25015 0.25055
 C119 C 0.80390 0.22380 0.23068
 C120 C 0.77679 0.22354 0.23024
 H121 H 0.73072 0.29810 0.22134
 H122 H 0.73086 0.20089 0.27687
 H123 H 0.76591 0.29640 0.28548
 H124 H 0.76660 0.20317 0.21407
 H125 H 0.65867 0.24888 0.24723
 H126 H 0.83835 0.25032 0.25081
 C127 C 0.21972 0.77689 0.23492
 C128 C 0.23347 0.74966 0.25092
 C129 C 0.21974 0.72229 0.26649
 C130 C 0.19258 0.72218 0.26606
 C131 C 0.17898 0.74940 0.25002
 C132 C 0.19257 0.77674 0.23443
 C133 C 0.26214 0.74976 0.25118
 C134 C 0.27582 0.77609 0.27110
 C135 C 0.30296 0.77615 0.27115
 C136 C 0.31659 0.75000 0.25126
 C137 C 0.30310 0.72373 0.23133
 C138 C 0.27597 0.72355 0.23131
 H139 H 0.23016 0.79800 0.22213
 H140 H 0.23018 0.70127 0.27956
 H141 H 0.26541 0.79633 0.28710
 H142 H 0.26567 0.70325 0.21517
 H143 H 0.15790 0.74930 0.24965
 H144 H 0.33766 0.75009 0.25125
 O145 O 1.03773 0.05671 0.09460
 O146 O 1.06606 0.02715 0.04506
 C147 C 1.06108 0.04848 0.08056
 O148 O 0.96404 -0.05805 0.09176
 O149 O 0.93563 -0.02723 0.04443
 C150 C 0.94067 -0.04978 0.07783
 O151 O 1.03676 -0.05451 0.09812
 O152 O 1.06565 -0.02704 0.04635
 C153 C 1.06018 -0.04718 0.08353
 O154 O 0.96513 0.05960 0.09016
 O155 O 0.93623 0.02902 0.04356
 C156 C 0.94172 0.05161 0.07658
 Zr157 Zr 1.00118 0.04088 0.06580
 O158 O 1.00045 0.03853 0.14882
 O159 O 1.00212 0.09123 0.06036
 Zr160 Zr 1.00062 -0.03922 0.06830
 O161 O 0.99933 -0.03385 0.15079
 O162 O 1.00238 -0.08948 0.07377
 O163 O 1.02424 0.00079 0.07708
 O164 O 0.97801 0.00100 0.07648
 O165 O 0.96410 0.05787 -0.09132
 O166 O 0.93565 0.02742 -0.04337
 C167 C 0.94072 0.04975 -0.07718
 O168 O 1.03749 -0.05670 -0.09315
 O169 O 1.06592 -0.02703 -0.04421
 C170 C 1.06086 -0.04845 -0.07942
 O171 O 0.96485 -0.05932 -0.08867
 O172 O 0.93607 -0.02851 -0.04246
 C173 C 0.94147 -0.05122 -0.07524
 O174 O 1.03695 0.05398 -0.09778
 O175 O 1.06579 0.02628 -0.04632
 C176 C 1.06036 0.04641 -0.08352
 Zr177 Zr 1.00069 0.03978 -0.06663
 O178 O 0.99797 0.04135 -0.14952
 O179 O 1.00199 0.09003 -0.06099
 Zr180 Zr 1.00097 -0.04070 -0.06455
 O181 O 0.99847 -0.04184 -0.14757
 O182 O 1.00207 -0.09098 -0.05915
 Zr183 Zr 1.03963 0.00004 0.00050
 Zr184 Zr 0.96214 0.00014 0.00056
 O185 O 0.97820 -0.00059 -0.07533
 O186 O 1.02400 -0.00054 -0.07604
 O187 O 0.97779 0.04648 -0.00042
 O188 O 1.02333 -0.04592 0.00211
 O189 O 1.02367 0.04606 -0.00083
 O190 O 0.97774 -0.04621 0.00187
 H191 H 0.96608 0.00120 0.10702
 H192 H 1.03482 -0.06485 0.00268
 H193 H 0.96643 -0.00080 -0.10613
 H194 H 1.03544 0.06476 -0.00148
 H195 H 0.99429 -0.09792 0.04140
 H196 H 1.00213 -0.09903 -0.09575
 H197 H 1.01323 -0.02935 -0.16159
 H198 H 1.00980 0.02480 -0.16329
 H199 H 1.00213 0.09810 -0.09760
 H200 H 1.00272 0.09953 0.09675
 H201 H 1.00017 0.06078 0.16173
 H202 H 0.99873 -0.05575 0.16541
 O203 O 1.03673 0.55679 0.59470
 O204 O 1.06508 0.52747 0.54492
 C205 C 1.06007 0.54864 0.58065
 O206 O 0.96320 0.44197 0.59086
 O207 O 0.93485 0.47289 0.54356
 C208 C 0.93984 0.45028 0.57691
 O209 O 1.03594 0.44558 0.59768
 O210 O 1.06492 0.47351 0.54677
 C211 C 1.05939 0.45318 0.58363
 O212 O 0.96430 0.55968 0.58965
 O213 O 0.93544 0.52918 0.54288
 C214 C 0.94089 0.55176 0.57595
 Zr215 Zr 1.00036 0.54092 0.56538
 O216 O 0.99952 0.53841 0.64839
 O217 O 1.00135 0.59126 0.56003
 Zr218 Zr 0.99982 0.46080 0.56759
 O219 O 0.99842 0.46600 0.65011
 O220 O 1.00159 0.41053 0.57279
 O221 O 1.02341 0.50079 0.57655
 O222 O 0.97720 0.50103 0.57586
 O223 O 0.96348 0.55817 0.40822
 O224 O 0.93498 0.52763 0.45593
 C225 C 0.94007 0.54999 0.42220
 O226 O 1.03687 0.44343 0.40630
 O227 O 1.06527 0.47299 0.45546
 C228 C 1.06024 0.45161 0.42016
 O229 O 0.96419 0.44110 0.41031
 O230 O 0.93538 0.47183 0.45660
 C231 C 0.94080 0.44923 0.42366
 O232 O 1.03634 0.55415 0.40197
 O233 O 1.06515 0.52631 0.45331
 C234 C 1.05974 0.54648 0.41616
 Zr235 Zr 1.00005 0.54006 0.43309
 O236 O 0.99743 0.54198 0.35021
 O237 O 1.00140 0.59028 0.43921
 Zr238 Zr 1.00030 0.45953 0.43479
 O239 O 0.99794 0.45845 0.35175
 O240 O 1.00131 0.40924 0.44010
 Zr241 Zr 1.03895 0.50009 0.50006
 Zr242 Zr 0.96140 0.50031 0.49989
 O243 O 0.97758 0.49970 0.42408
 O244 O 1.02334 0.49970 0.42351
 O245 O 0.97704 0.54665 0.49915
 O246 O 1.02262 0.45416 0.50152
 O247 O 1.02299 0.54614 0.49893
 O248 O 0.97699 0.45394 0.50107
 H249 H 0.96522 0.50122 0.60635
 H250 H 1.03416 0.43527 0.50218
 H251 H 0.96587 0.49956 0.39320
 H252 H 1.03476 0.56484 0.49834
 H253 H 0.99337 0.40214 0.54051
 H254 H 1.00138 0.40123 0.40348
 H255 H 1.01273 0.47094 0.33786
 H256 H 1.00887 0.52504 0.33637
 H257 H 1.00159 0.59847 0.40268
 H258 H 1.00176 0.59955 0.59644
 H259 H 0.99909 0.56064 0.66141
 H260 H 0.99781 0.44408 0.66462
 O261 O 0.53739 0.05685 0.59340
 O262 O 0.56563 0.02710 0.54394
 C263 C 0.56072 0.04854 0.57930
 O264 O 0.46361 -0.05776 0.59199
 O265 O 0.43517 -0.02704 0.54456
 C266 C 0.44024 -0.04951 0.57810
 O267 O 0.53635 -0.05428 0.59810
 O268 O 0.56522 -0.02661 0.54657
 C269 C 0.55978 -0.04680 0.58368
 O270 O 0.46483 0.05990 0.58933
 O271 O 0.43581 0.02922 0.54323
 C272 C 0.44138 0.05192 0.57600
 Zr273 Zr 0.50082 0.04100 0.56493
 O274 O 0.50019 0.03898 0.64798
 O275 O 0.50185 0.09132 0.55890
 Zr276 Zr 0.50018 -0.03912 0.56819
 O277 O 0.49897 -0.03350 0.65065
 O278 O 0.50199 -0.08936 0.57417
 O279 O 0.52382 0.00089 0.57646
 O280 O 0.47764 0.00119 0.57613
 O281 O 0.46353 0.05768 0.40809
 O282 O 0.43510 0.02745 0.45651
 C283 C 0.44015 0.04971 0.42253
 O284 O 0.53678 -0.05706 0.40637
 O285 O 0.56532 -0.02752 0.45529
 C286 C 0.56019 -0.04891 0.42007
 O287 O 0.46413 -0.05920 0.41081
 O288 O 0.43547 -0.02854 0.45763
 C289 C 0.44079 -0.05113 0.42456
 O290 O 0.53631 0.05325 0.40072
 O291 O 0.56519 0.02572 0.45235
 C292 C 0.55973 0.04561 0.41483
 Zr293 Zr 0.50013 0.03945 0.43259
 O294 O 0.49771 0.03999 0.34964
 O295 O 0.50159 0.08973 0.43716
 Zr296 Zr 0.50037 -0.04108 0.43542
 O297 O 0.50159 -0.04390 0.35232
 O298 O 0.50074 -0.09126 0.44301
 Zr299 Zr 0.53913 -0.00020 0.49983
 Zr300 Zr 0.46164 0.00014 0.50033
 O301 O 0.47754 -0.00089 0.42439
 O302 O 0.52333 -0.00097 0.42352
 O303 O 0.47734 0.04644 0.49884
 O304 O 0.52285 -0.04613 0.50198
 O305 O 0.52325 0.04587 0.49813
 O306 O 0.47718 -0.04629 0.50196
 H307 H 0.46574 0.00154 0.60674
 H308 H 0.53440 -0.06501 0.50272
 H309 H 0.46546 -0.00086 0.39416
 H310 H 0.53505 0.06453 0.49713
 H311 H 0.49309 -0.09797 0.54281
 H312 H 0.50128 -0.09985 0.40678
 H313 H 0.48713 -0.03110 0.33794
 H314 H 0.50758 0.02127 0.33702
 H315 H 0.50168 0.09751 0.40039
 H316 H 0.50246 0.09978 0.59519
 H317 H 0.49995 0.06129 0.66065
 H318 H 0.49837 -0.05535 0.66545
 O319 O 0.53658 0.55714 0.09377
 O320 O 0.56493 0.52773 0.04419
 C321 C 0.55993 0.54899 0.07975
 O322 O 0.46334 0.44203 0.09109
 O323 O 0.43484 0.47269 0.04367
 C324 C 0.43993 0.45019 0.07717
 O325 O 0.53609 0.44590 0.09735
 O326 O 0.56492 0.47328 0.04529
 C327 C 0.55949 0.45327 0.08266
 O328 O 0.46416 0.55970 0.08896
 O329 O 0.43531 0.52898 0.04254
 C330 C 0.44076 0.55165 0.07545
 Zr331 Zr 0.50023 0.54102 0.06468
 O332 O 0.49949 0.53870 0.14770
 O333 O 0.50106 0.59136 0.05897
 Zr334 Zr 0.49988 0.46097 0.06752
 O335 O 0.49861 0.46649 0.14999
 O336 O 0.50175 0.41073 0.07327
 O337 O 0.52343 0.50104 0.07603
 O338 O 0.47716 0.50110 0.07556
 O339 O 0.46312 0.55766 -0.09244
 O340 O 0.43474 0.52717 -0.04436
 C341 C 0.43975 0.54946 -0.07825
 O342 O 0.53680 0.44338 -0.09392
 O343 O 0.56521 0.47321 -0.04520
 C344 C 0.56017 0.45172 -0.08031
 O345 O 0.46413 0.44053 -0.08937
 O346 O 0.43528 0.47126 -0.04320
 C347 C 0.44073 0.44855 -0.07593
 O348 O 0.53596 0.55419 -0.09883
 O349 O 0.56489 0.52690 -0.04699
 C350 C 0.55940 0.54689 -0.08435
 Zr351 Zr 0.49975 0.53974 -0.06775
 O352 O 0.49702 0.54104 -0.15066
 O353 O 0.50090 0.59000 -0.06242
 Zr354 Zr 0.50020 0.45931 -0.06536
 O355 O 0.49768 0.45806 -0.14836
 O356 O 0.50141 0.40903 -0.05985
 Zr357 Zr 0.53884 0.50020 -0.00057
 Zr358 Zr 0.46128 0.50008 -0.00034
 O359 O 0.47734 0.49930 -0.07625
 O360 O 0.52318 0.49950 -0.07707
 O361 O 0.47683 0.54646 -0.00155
 O362 O 0.52258 0.45422 0.00130
 O363 O 0.52271 0.54615 -0.00197
 O364 O 0.47701 0.45379 0.00113
 H365 H 0.46522 0.50132 0.10611
 H366 H 0.53412 0.43532 0.00191
 H367 H 0.46557 0.49900 -0.10704
 H368 H 0.53437 0.56495 -0.00261
 H369 H 0.49378 0.40220 0.04084
 H370 H 0.50151 0.40096 -0.09643
 H371 H 0.51241 0.47057 -0.16244
 H372 H 0.50913 0.52477 -0.16434
 H373 H 0.50096 0.59800 -0.09907
 H374 H 0.50150 0.59974 0.09532
 H375 H 0.49899 0.56096 0.16059
 H376 H 0.49806 0.44462 0.16471
 C377 C 1.10068 0.10605 0.16377
 C378 C 1.12603 0.09894 0.14763
 C379 C 1.13015 0.07470 0.11082
 C380 C 1.10909 0.05792 0.08978
 C381 C 1.20649 0.16420 0.21794
 C382 C 1.07956 0.08929 0.14277
 C383 C 1.14780 0.11687 0.16788
 C384 C 1.16616 0.13186 0.18415
 C385 C 1.18785 0.14936 0.20259
 C386 C 1.08348 0.06514 0.10519
 H387 H 1.09722 0.12476 0.19221
 H388 H 1.14964 0.06896 0.09794
 H389 H 1.11290 0.03957 0.06091
 H390 H 1.06016 0.09555 0.15550
 C391 C 1.09964 0.60587 0.66437
 C392 C 1.12498 0.59860 0.64843
 C393 C 1.12911 0.57438 0.61162
 C394 C 1.10805 0.55777 0.59033
 C395 C 1.20565 0.66327 0.71859
 C396 C 1.07851 0.58927 0.64312
 C397 C 1.14676 0.61637 0.66882
 C398 C 1.16517 0.63122 0.68508
 C399 C 1.18694 0.64856 0.70341
 C400 C 1.08244 0.56515 0.60551
 H401 H 1.09619 0.62458 0.69282
 H402 H 1.14861 0.56854 0.59892
 H403 H 1.11186 0.53941 0.56147
 H404 H 1.05910 0.59564 0.65567
 C405 C 0.62980 0.07481 0.60909
 C406 C 0.62571 0.09909 0.64585
 C407 C 0.60039 0.10621 0.66208
 C408 C 0.57925 0.08943 0.64123
 C409 C 0.70607 0.16453 0.71588
 C410 C 0.60873 0.05801 0.58820
 C411 C 0.64747 0.11705 0.66596
 C412 C 0.66582 0.13208 0.68216
 C413 C 0.68747 0.14965 0.70055
 C414 C 0.58314 0.06524 0.60371
 H415 H 0.64929 0.06907 0.59615
 H416 H 0.59694 0.12495 0.69049
 H417 H 0.55986 0.09569 0.65404
 H418 H 0.61251 0.03962 0.55937
 C419 C 0.62902 0.57471 0.11061
 C420 C 0.62495 0.59897 0.14740
 C421 C 0.59960 0.60631 0.16326
 C422 C 0.57843 0.58975 0.14203
 C423 C 0.70579 0.66333 0.21792
 C424 C 0.60793 0.55814 0.08934
 C425 C 0.64678 0.61665 0.16787
 C426 C 0.66524 0.63141 0.18421
 C427 C 0.68706 0.64866 0.20265
 C428 C 0.58232 0.56557 0.10450
 H429 H 0.64852 0.56880 0.09794
 H430 H 0.59618 0.62505 0.19168
 H431 H 0.55904 0.59616 0.15456
 H432 H 0.61172 0.53974 0.06053
 C433 C 0.90103 -0.10939 0.15729
 C434 C 0.87568 -0.10162 0.14201
 C435 C 0.87161 -0.07665 0.10645
 C436 C 0.89270 -0.05963 0.08606
 C437 C 0.79468 -0.16547 0.21331
 C438 C 0.92220 -0.09240 0.13690
 C439 C 0.85382 -0.11935 0.16231
 C440 C 0.83532 -0.13402 0.17876
 C441 C 0.81346 -0.15105 0.19756
 C442 C 0.91830 -0.06734 0.10086
 H443 H 0.90446 -0.12867 0.18478
 H444 H 0.85211 -0.07039 0.09427
 H445 H 0.88890 -0.04054 0.05843
 H446 H 0.94160 -0.09903 0.14913
 C447 C 0.87072 0.42360 0.60550
 C448 C 0.87474 0.39858 0.64100
 C449 C 0.90008 0.39070 0.65621
 C450 C 0.92129 0.40763 0.63582
 C451 C 0.79362 0.33497 0.71245
 C452 C 0.89185 0.44056 0.58511
 C453 C 0.85284 0.38092 0.66132
 C454 C 0.83431 0.36631 0.67781
 C455 C 0.81241 0.34935 0.69666
 C456 C 0.91744 0.43274 0.59986
 H457 H 0.85123 0.42994 0.59337
 H458 H 0.90347 0.37138 0.68365
 H459 H 0.94067 0.40092 0.64802
 H460 H 0.88808 0.45969 0.55755
 C461 C 0.40081 -0.10917 0.65768
 C462 C 0.37544 -0.10147 0.64249
 C463 C 0.37127 -0.07646 0.60705
 C464 C 0.39230 -0.05936 0.58663
 C465 C 0.29474 -0.16576 0.71367
 C466 C 0.42191 -0.09210 0.63727
 C467 C 0.35367 -0.11933 0.66272
 C468 C 0.33525 -0.13413 0.67914
 C469 C 0.31347 -0.15128 0.69792
 C470 C 0.41792 -0.06703 0.60130
 H471 H 0.40430 -0.12849 0.68508
 H472 H 0.35174 -0.07026 0.59496
 H473 H 0.38844 -0.04025 0.55907
 H474 H 0.44133 -0.09871 0.64939
 C475 C 0.37089 0.42327 0.10619
 C476 C 0.37499 0.39837 0.14188
 C477 C 0.40037 0.39065 0.15707
 C478 C 0.42152 0.40762 0.13649
 C479 C 0.29400 0.33468 0.21403
 C480 C 0.39196 0.44027 0.08560
 C481 C 0.35313 0.38068 0.16242
 C482 C 0.33464 0.36606 0.17907
 C483 C 0.31277 0.34907 0.19810
 C484 C 0.41759 0.43261 0.10034
 H485 H 0.35137 0.42950 0.09406
 H486 H 0.40383 0.37143 0.18465
 H487 H 0.44093 0.40102 0.14868
 H488 H 0.38812 0.45931 0.05790
 C489 C 0.90123 0.10916 -0.15719
 C490 C 0.87586 0.10154 -0.14176
 C491 C 0.87172 0.07666 -0.10603
 C492 C 0.89276 0.05961 -0.08558
 C493 C 0.79503 0.16563 -0.21299
 C494 C 0.92235 0.09214 -0.13673
 C495 C 0.85406 0.11936 -0.16203
 C496 C 0.83561 0.13411 -0.17846
 C497 C 0.81379 0.15121 -0.19724
 C498 C 0.91839 0.06720 -0.10048
 H499 H 0.90471 0.12837 -0.18480
 H500 H 0.85220 0.07052 -0.09374
 H501 H 0.88891 0.04062 -0.05778
 H502 H 0.94176 0.09869 -0.14904
 C503 C 0.90045 0.60935 0.34228
 C504 C 0.87509 0.60154 0.35754
 C505 C 0.87102 0.57657 0.39312
 C506 C 0.89210 0.55962 0.41360
 C507 C 0.79383 0.66514 0.28702
 C508 C 0.92162 0.59243 0.36275
 C509 C 0.85320 0.61924 0.33732
 C510 C 0.83465 0.63386 0.32103
 C511 C 0.81270 0.65081 0.30250
 C512 C 0.91772 0.56740 0.39886
 H513 H 0.90388 0.62864 0.31478
 H514 H 0.85151 0.57028 0.40530
 H515 H 0.88829 0.54056 0.44128
 H516 H 0.94103 0.59912 0.35059
 C517 C 0.40061 0.10925 0.34279
 C518 C 0.37525 0.10180 0.35855
 C519 C 0.37114 0.07698 0.39441
 C520 C 0.39219 0.05983 0.41466
 C521 C 0.29435 0.16614 0.28791
 C522 C 0.42173 0.09214 0.36304
 C523 C 0.35343 0.11971 0.33846
 C524 C 0.33497 0.13452 0.32219
 C525 C 0.31313 0.15168 0.30355
 C526 C 0.41780 0.06726 0.39942
 H527 H 0.40407 0.12841 0.31507
 H528 H 0.35164 0.07095 0.40697
 H529 H 0.38835 0.04089 0.44256
 H530 H 0.44113 0.09857 0.35047
 C531 C 0.40008 0.60871 -0.15811
 C532 C 0.37475 0.60096 -0.14263
 C533 C 0.37069 0.57603 -0.10698
 C534 C 0.39179 0.55906 -0.08661
 C535 C 0.29366 0.66490 -0.21265
 C536 C 0.42126 0.59178 -0.13775
 C537 C 0.35289 0.61872 -0.16267
 C538 C 0.33438 0.63343 -0.17884
 C539 C 0.31249 0.65048 -0.19725
 C540 C 0.41738 0.56680 -0.10154
 H541 H 0.40349 0.62798 -0.18567
 H542 H 0.35120 0.56979 -0.09465
 H543 H 0.38800 0.54003 -0.05885
 H544 H 0.44065 0.59843 -0.15006
 C545 C 1.12977 -0.07479 -0.10994
 C546 C 1.12552 -0.09925 -0.14629
 C547 C 1.10015 -0.10643 -0.16213
 C548 C 1.07910 -0.08954 -0.14122
 C549 C 1.20577 -0.16493 -0.21562
 C550 C 1.10880 -0.05788 -0.08900
 C551 C 1.14719 -0.11734 -0.16632
 C552 C 1.16550 -0.13245 -0.18236
 C553 C 1.18714 -0.15005 -0.20051
 C554 C 1.08315 -0.06519 -0.10406
 H555 H 1.14931 -0.06900 -0.09733
 H556 H 1.09660 -0.12532 -0.19022
 H557 H 1.05967 -0.09587 -0.15366
 H558 H 1.11269 -0.03935 -0.06047
 C559 C 1.12931 0.42554 0.38970
 C560 C 1.12520 0.40105 0.35334
 C561 C 1.09984 0.39370 0.33755
 C562 C 1.07870 0.41047 0.35846
 C563 C 1.20604 0.33615 0.28387
 C564 C 1.10824 0.44233 0.41064
 C565 C 1.14702 0.38315 0.33322
 C566 C 1.16546 0.36824 0.31714
 C567 C 1.18728 0.35087 0.29897
 C568 C 1.08262 0.43487 0.39559
 H569 H 1.14881 0.43148 0.40231
 H570 H 1.09637 0.37479 0.30946
 H571 H 1.05929 0.40403 0.34602
 H572 H 1.11207 0.46089 0.43914
 C573 C 0.62914 -0.07503 0.38903
 C574 C 0.62491 -0.09966 0.35299
 C575 C 0.59951 -0.10708 0.33755
 C576 C 0.57844 -0.09023 0.35852
 C577 C 0.70552 -0.16485 0.28366
 C578 C 0.60814 -0.05817 0.41003
 C579 C 0.64665 -0.11765 0.33287
 C580 C 0.66504 -0.13264 0.31682
 C581 C 0.68680 -0.15009 0.29870
 C582 C 0.58248 -0.06570 0.39536
 H583 H 0.64868 -0.06905 0.40134
 H584 H 0.59597 -0.12610 0.30971
 H585 H 0.55900 -0.09673 0.34639
 H586 H 0.61205 -0.03950 0.43830
 C587 C 0.59968 0.39391 -0.16317
 C588 C 0.62506 0.40133 -0.14758
 C589 C 0.62921 0.42583 -0.11126
 C590 C 0.60816 0.44257 -0.09016
 C591 C 0.70571 0.33648 -0.21770
 C592 C 0.57856 0.41063 -0.14210
 C593 C 0.64683 0.38347 -0.16786
 C594 C 0.66524 0.36858 -0.18409
 C595 C 0.68700 0.35120 -0.20245
 C596 C 0.58252 0.43505 -0.10501
 H597 H 0.59619 0.37499 -0.19123
 H598 H 0.64873 0.43181 -0.09881
 H599 H 0.61201 0.46115 -0.06169
 H600 H 0.55914 0.40414 -0.15439
 C601 C 1.12610 0.08384 -0.10830
 C602 C 1.12082 0.10214 -0.15307
 C603 C 1.09664 0.09983 -0.17767
 C604 C 1.07734 0.08043 -0.15635
 C605 C 1.18019 0.19602 -0.21640
 C606 C 1.10681 0.06422 -0.08696
 C607 C 1.13895 0.12577 -0.17094
 C608 C 1.15292 0.14698 -0.18560
 C609 C 1.16803 0.17303 -0.20237
 C610 C 1.08199 0.06305 -0.11001
 H611 H 1.14473 0.08565 -0.08879
 H612 H 1.09235 0.11400 -0.21223
 H613 H 1.05850 0.07988 -0.17522
 H614 H 1.11093 0.05121 -0.05113
 C615 C 1.09602 0.59954 0.32150
 C616 C 1.12018 0.60200 0.34615
 C617 C 1.12545 0.58392 0.39117
 C618 C 1.10617 0.56435 0.41268
 C619 C 1.17937 0.69580 0.28185
 C620 C 1.07673 0.58020 0.34300
 C621 C 1.13827 0.62561 0.32806
 C622 C 1.15219 0.64681 0.31317
 C623 C 1.16725 0.67284 0.29611
 C624 C 1.08137 0.56304 0.38957
 H625 H 1.09174 0.61355 0.28676
 H626 H 1.14407 0.58586 0.41071
 H627 H 1.11027 0.55151 0.44869
 H628 H 1.05791 0.57952 0.32407
 C629 C 0.62559 0.08208 0.38818
 C630 C 0.62025 0.10006 0.34310
 C631 C 0.59597 0.09781 0.31890
 C632 C 0.57662 0.07881 0.34097
 C633 C 0.67946 0.19379 0.27927
 C634 C 0.60625 0.06285 0.41026
 C635 C 0.63836 0.12353 0.32476
 C636 C 0.65230 0.14469 0.30989
 C637 C 0.66735 0.17076 0.29312
 C638 C 0.58134 0.06180 0.38765
 H639 H 0.64431 0.08388 0.40738
 H640 H 0.59164 0.11177 0.28413
 H641 H 0.55770 0.07830 0.32242
 H642 H 0.61043 0.05010 0.44631
 C643 C 0.59550 0.60068 -0.17829
 C644 C 0.61969 0.60308 -0.15370
 C645 C 0.62500 0.58479 -0.10893
 C646 C 0.60577 0.56506 -0.08762
 C647 C 0.67921 0.69666 -0.21791
 C648 C 0.57626 0.58117 -0.15700
 C649 C 0.63781 0.62669 -0.17172
 C650 C 0.65181 0.64783 -0.18657
 C651 C 0.66699 0.67378 -0.20362
 C652 C 0.58096 0.56376 -0.11070
 H653 H 0.59118 0.61483 -0.21285
 H654 H 0.64364 0.58666 -0.08944
 H655 H 0.60994 0.55204 -0.05183
 H656 H 0.55743 0.58053 -0.17590
 C657 C 0.87481 -0.08730 -0.09705
 C658 C 0.88005 -0.10851 -0.13813
 C659 C 0.90487 -0.10969 -0.16022
 C660 C 0.92462 -0.09040 -0.14058
 C661 C 0.81721 -0.19684 -0.20826
 C662 C 0.89459 -0.06777 -0.07739
 C663 C 0.86075 -0.13065 -0.15607
 C664 C 0.84587 -0.15054 -0.17194
 C665 C 0.82987 -0.17507 -0.19127
 C666 C 0.91983 -0.06955 -0.09846
 H667 H 0.85565 -0.08635 -0.07954
 H668 H 0.90911 -0.12609 -0.19195
 H669 H 0.94377 -0.09224 -0.15791
 H670 H 0.89033 -0.05203 -0.04485
 C671 C 0.87424 0.41315 0.40161
 C672 C 0.87947 0.39232 0.36003
 C673 C 0.90421 0.39147 0.33757
 C674 C 0.92395 0.41068 0.35744
 C675 C 0.81741 0.30321 0.29048
 C676 C 0.89400 0.43261 0.42148
 C677 C 0.86030 0.37005 0.34215
 C678 C 0.84558 0.34998 0.32641
 C679 C 0.82984 0.32520 0.30729
 C680 C 0.91918 0.43110 0.40013
 H681 H 0.85513 0.41381 0.41939
 H682 H 0.90843 0.37534 0.30546
 H683 H 0.94306 0.40909 0.33989
 H684 H 0.88977 0.44803 0.45446
 C685 C 0.40399 -0.10883 0.33864
 C686 C 0.37934 -0.10820 0.36152
 C687 C 0.37423 -0.08751 0.40338
 C688 C 0.39401 -0.06800 0.42307
 C689 C 0.31698 -0.19707 0.29173
 C690 C 0.42375 -0.08956 0.35831
 C691 C 0.36013 -0.13047 0.34367
 C692 C 0.34536 -0.15049 0.32788
 C693 C 0.32952 -0.17518 0.30865
 C694 C 0.41910 -0.06929 0.40126
 H695 H 0.40813 -0.12483 0.30630
 H696 H 0.35520 -0.08700 0.42150
 H697 H 0.38987 -0.05270 0.45626
 H698 H 0.44279 -0.09099 0.34040
 C699 C 0.37423 0.41199 -0.09728
 C700 C 0.37950 0.39087 -0.13845
 C701 C 0.40427 0.38992 -0.16079
 C702 C 0.42396 0.40935 -0.14128
 C703 C 0.31718 0.30182 -0.20787
 C704 C 0.39394 0.43167 -0.07776
 C705 C 0.36031 0.36854 -0.15618
 C706 C 0.34555 0.34847 -0.17187
 C707 C 0.32971 0.32375 -0.19101
 C708 C 0.41914 0.43011 -0.09905
 H709 H 0.35511 0.41276 -0.07958
 H710 H 0.40854 0.37358 -0.19259
 H711 H 0.44308 0.40769 -0.15878
 H712 H 0.38967 0.44734 -0.04512
 C713 C 1.09632 -0.10071 0.17759
 C714 C 1.12037 -0.10346 0.15260
 C715 C 1.12561 -0.08556 0.10736
 C716 C 1.10641 -0.06582 0.08604
 C717 C 1.17936 -0.19702 0.21813
 C718 C 1.07711 -0.08120 0.15630
 C719 C 1.13840 -0.12707 0.17079
 C720 C 1.15227 -0.14822 0.18594
 C721 C 1.16727 -0.17416 0.20343
 C722 C 1.08173 -0.06415 0.10960
 H723 H 1.09206 -0.11456 0.21252
 H724 H 1.14415 -0.08772 0.08756
 H725 H 1.11049 -0.05307 0.04993
 H726 H 1.05837 -0.08024 0.17557
 C727 C 1.09546 0.39968 0.67789
 C728 C 1.11974 0.39756 0.65365
 C729 C 1.12510 0.41583 0.60887
 C730 C 1.10581 0.43533 0.58726
 C731 C 1.17940 0.30475 0.71960
 C732 C 1.07617 0.41894 0.65629
 C733 C 1.13795 0.37422 0.67207
 C734 C 1.15199 0.35326 0.68734
 C735 C 1.16718 0.32750 0.70490
 C736 C 1.08093 0.43638 0.61004
 H737 H 1.09111 0.38552 0.71245
 H738 H 1.14382 0.41416 0.58965
 H739 H 1.11002 0.44838 0.55151
 H740 H 1.05727 0.41942 0.67498
 C741 C 0.59598 -0.10035 0.67768
 C742 C 0.62011 -0.10283 0.65292
 C743 C 0.62537 -0.08471 0.60792
 C744 C 0.60612 -0.06505 0.58659
 C745 C 0.67943 -0.19618 0.71828
 C746 C 0.57672 -0.08092 0.65637
 C747 C 0.63824 -0.12635 0.67109
 C748 C 0.65220 -0.14744 0.68620
 C749 C 0.66730 -0.17333 0.70363
 C750 C 0.58136 -0.06366 0.60989
 H751 H 0.59171 -0.11438 0.71242
 H752 H 0.64397 -0.08665 0.58830
 H753 H 0.61023 -0.05214 0.55065
 H754 H 0.55793 -0.08020 0.67544
 C755 C 0.59587 0.40020 0.17698
 C756 C 0.61998 0.39777 0.15214
 C757 C 0.62516 0.41574 0.10696
 C758 C 0.60584 0.43521 0.08551
 C759 C 0.67930 0.30434 0.21637
 C760 C 0.57654 0.41945 0.15555
 C761 C 0.63811 0.37429 0.17022
 C762 C 0.65207 0.35318 0.18511
 C763 C 0.66716 0.32724 0.20214
 C764 C 0.58110 0.43654 0.10887
 H765 H 0.59167 0.38626 0.21185
 H766 H 0.64375 0.41379 0.08728
 H767 H 0.60989 0.44801 0.04943
 H768 H 0.55776 0.42016 0.17467
 C769 C 0.90525 0.10937 0.16279
 C770 C 0.88052 0.10860 0.14033
 C771 C 0.87526 0.08788 0.09860
 C772 C 0.89498 0.06844 0.07862
 C773 C 0.81814 0.19717 0.21037
 C774 C 0.92495 0.09017 0.14284
 C775 C 0.86136 0.13079 0.15841
 C776 C 0.84661 0.15075 0.17431
 C777 C 0.83075 0.17536 0.19355
 C778 C 0.92015 0.06984 0.10004
 H779 H 0.90949 0.12541 0.19502
 H780 H 0.85616 0.08729 0.08081
 H781 H 0.89073 0.05308 0.04556
 H782 H 0.94406 0.09166 0.16044
 C783 C 0.87442 0.58825 0.59773
 C784 C 0.87968 0.60907 0.63935
 C785 C 0.90443 0.60986 0.66175
 C786 C 0.92412 0.59057 0.64190
 C787 C 0.81717 0.69741 0.71039
 C788 C 0.89413 0.56872 0.57786
 C789 C 0.86047 0.63123 0.65755
 C790 C 0.84568 0.65113 0.67364
 C791 C 0.82977 0.67565 0.69322
 C792 C 0.91931 0.57011 0.59926
 H793 H 0.85531 0.58761 0.57998
 H794 H 0.90869 0.62595 0.69389
 H795 H 0.94322 0.59209 0.65950
 H796 H 0.88987 0.55328 0.54491
 C797 C 0.40520 0.11022 0.66188
 C798 C 0.38035 0.10927 0.63995
 C799 C 0.37494 0.08832 0.59860
 C800 C 0.39461 0.06879 0.57852
 C801 C 0.31800 0.19747 0.71182
 C802 C 0.42483 0.09094 0.64183
 C803 C 0.36118 0.13139 0.65838
 C804 C 0.34643 0.15126 0.67467
 C805 C 0.33057 0.17575 0.69448
 C806 C 0.41988 0.07033 0.59945
 H807 H 0.40956 0.12642 0.69382
 H808 H 0.35575 0.08756 0.58122
 H809 H 0.39023 0.05323 0.54580
 H810 H 0.44401 0.09257 0.65907
 C811 C 0.40431 0.60951 0.16161
 C812 C 0.37956 0.60877 0.13918
 C813 C 0.37429 0.58805 0.09744
 C814 C 0.39400 0.56856 0.07746
 C815 C 0.31724 0.69714 0.21052
 C816 C 0.42399 0.59027 0.14164
 C817 C 0.36039 0.63092 0.15746
 C818 C 0.34565 0.65084 0.17364
 C819 C 0.32981 0.67538 0.19330
 C820 C 0.41918 0.56992 0.09886
 H821 H 0.40856 0.62553 0.19385
 H822 H 0.35518 0.58746 0.07968
 H823 H 0.38974 0.55320 0.04440
 H824 H 0.44309 0.59174 0.15925
   
