data_POSCAR
  _audit_creation_date              2014-09-24
  _audit_creation_method            'ToBaCCo'
  _symmetry_space_group_name_H-M    'P1'
  _symmetry_Int_Tables_number       1
  _symmetry_cell_setting            triclinic
  loop_
  _symmetry_equiv_pos_as_xyz
 x,y,z
_cell_length_a 44.0999
_cell_length_b 45.3219
_cell_length_c 51.8094
_cell_angle_alpha 89.945400
_cell_angle_beta 90.000900
_cell_angle_gamma 90.040800
loop_
  _atom_site_label
  _atom_site_type_symbol
  _atom_site_fract_x
  _atom_site_fract_y
  _atom_site_fract_z
C1 C -0.08213 0.32721 -0.00358
 C2 C -0.06813 0.33248 0.02039
 C3 C -0.03632 0.33491 0.02127
 C4 C -0.01833 0.32947 -0.00070
 C5 C -0.03307 0.32289 -0.02418
 C6 C -0.06492 0.32255 -0.02609
 C7 C 0.01568 0.32961 0.00105
 C8 C 0.03366 0.33534 -0.02092
 C9 C 0.06542 0.33327 -0.01993
 C10 C 0.07951 0.32777 0.00388
 C11 C 0.06232 0.32286 0.02627
 C12 C 0.03051 0.32302 0.02451
 H13 H -0.10663 0.32605 -0.00461
 H14 H -0.02557 0.34077 0.03930
 H15 H -0.01977 0.31742 -0.04102
 H16 H 0.02309 0.34115 -0.03903
 H17 H 0.10400 0.32660 0.00487
 H18 H 0.01746 0.31737 0.04145
 C19 C 0.41954 0.83108 0.49679
 C20 C 0.43392 0.83668 0.52045
 C21 C 0.46570 0.83886 0.52113
 C22 C 0.48338 0.83326 0.49898
 C23 C 0.46827 0.82661 0.47568
 C24 C 0.43645 0.82622 0.47425
 C25 C 0.51740 0.83324 0.50036
 C26 C 0.53511 0.83876 0.47819
 C27 C 0.56688 0.83654 0.47888
 C28 C 0.58124 0.83095 0.50256
 C29 C 0.56430 0.82616 0.52511
 C30 C 0.53249 0.82660 0.52367
 H31 H 0.39504 0.82977 0.49604
 H32 H 0.47651 0.84466 0.53914
 H33 H 0.48113 0.82106 0.45862
 H34 H 0.52431 0.84455 0.46016
 H35 H 0.60573 0.82961 0.50332
 H36 H 0.51961 0.82110 0.54075
 C37 C 1.08227 0.67287 -0.00403
 C38 C 1.06827 0.66752 0.01994
 C39 C 1.03647 0.66502 0.02081
 C40 C 1.01848 0.67045 -0.00117
 C41 C 1.03320 0.67709 -0.02465
 C42 C 1.06506 0.67751 -0.02655
 C43 C 0.98446 0.67021 0.00057
 C44 C 0.96651 0.66446 -0.02139
 C45 C 0.93474 0.66645 -0.02041
 C46 C 0.92063 0.67190 0.00339
 C47 C 0.93781 0.67684 0.02578
 C48 C 0.96961 0.67676 0.02402
 H49 H 1.10676 0.67408 -0.00505
 H50 H 1.02573 0.65911 0.03884
 H51 H 1.01990 0.68254 -0.04150
 H52 H 0.97710 0.65870 -0.03950
 H53 H 0.89614 0.67301 0.00437
 H54 H 0.98264 0.68243 0.04096
 C55 C 0.58059 0.16894 0.49746
 C56 C 0.56623 0.16334 0.52114
 C57 C 0.53446 0.16108 0.52183
 C58 C 0.51676 0.16660 0.49966
 C59 C 0.53185 0.17326 0.47635
 C60 C 0.56366 0.17372 0.47491
 C61 C 0.48274 0.16655 0.50105
 C62 C 0.46504 0.16096 0.47890
 C63 C 0.43327 0.16310 0.47959
 C64 C 0.41890 0.16868 0.50326
 C65 C 0.43582 0.17354 0.52579
 C66 C 0.46764 0.17318 0.52435
 H67 H 0.60509 0.17031 0.49671
 H68 H 0.52366 0.15528 0.53986
 H69 H 0.51897 0.17875 0.45927
 H70 H 0.47584 0.15518 0.46088
 H71 H 0.39440 0.16996 0.50402
 H72 H 0.48050 0.17874 0.54141
 C73 C 0.68294 -0.07863 0.00276
 C74 C 0.68752 -0.06212 0.02541
 C75 C 0.68677 -0.03114 0.02386
 C76 C 0.67988 -0.01652 0.00060
 C77 C 0.67457 -0.03382 -0.02165
 C78 C 0.67723 -0.06473 -0.02097
 C79 C 0.67974 0.01663 -0.00055
 C80 C 0.68645 0.03131 -0.02382
 C81 C 0.68695 0.06230 -0.02537
 C82 C 0.68228 0.07876 -0.00271
 C83 C 0.67674 0.06481 0.02103
 C84 C 0.67433 0.03387 0.02171
 H85 H 0.68449 -0.10246 0.00343
 H86 H 0.69229 -0.01840 0.04083
 H87 H 0.66856 -0.02343 -0.03971
 H88 H 0.69204 0.01863 -0.04080
 H89 H 0.68364 0.10260 -0.00338
 H90 H 0.66844 0.02342 0.03978
 C91 C 0.18392 0.42116 0.50471
 C92 C 0.18108 0.43800 0.52726
 C93 C 0.17924 0.46889 0.52518
 C94 C 0.18284 0.48342 0.50112
 C95 C 0.18711 0.46566 0.47904
 C96 C 0.18659 0.43473 0.48051
 C97 C 0.18296 0.51673 0.49907
 C98 C 0.17942 0.53127 0.47501
 C99 C 0.18148 0.56216 0.47294
 C100 C 0.18448 0.57898 0.49548
 C101 C 0.18708 0.56540 0.51968
 C102 C 0.18739 0.53447 0.52115
 H103 H 0.18470 0.39734 0.50604
 H104 H 0.17501 0.48119 0.54261
 H105 H 0.19137 0.47552 0.46046
 H106 H 0.17507 0.51899 0.45760
 H107 H 0.18541 0.60280 0.49415
 H108 H 0.19160 0.52458 0.53972
 C109 C 0.31635 1.07878 0.00245
 C110 C 0.31209 1.06201 0.02493
 C111 C 0.31291 1.03114 0.02335
 C112 C 0.31968 1.01670 0.00003
 C113 C 0.32472 1.03418 -0.02222
 C114 C 0.32179 1.06517 -0.02152
 C115 C 0.31999 0.98355 -0.00119
 C116 C 0.31327 0.96892 -0.02446
 C117 C 0.31292 0.93793 -0.02603
 C118 C 0.31769 0.92142 -0.00339
 C119 C 0.32322 0.93531 0.02035
 C120 C 0.32553 0.96625 0.02105
 H121 H 0.31476 1.10258 0.00362
 H122 H 0.30759 1.01846 0.04042
 H123 H 0.33071 1.02376 -0.04026
 H124 H 0.30757 0.98163 -0.04142
 H125 H 0.31643 0.89757 -0.00407
 H126 H 0.33141 0.97666 0.03912
 C127 C 0.81613 0.57904 0.50441
 C128 C 0.81899 0.56223 0.52700
 C129 C 0.82086 0.53133 0.52500
 C130 C 0.81727 0.51678 0.50097
 C131 C 0.81298 0.53451 0.47885
 C132 C 0.81347 0.56545 0.48025
 C133 C 0.81717 0.48346 0.49901
 C134 C 0.82069 0.46890 0.47498
 C135 C 0.81865 0.43801 0.47298
 C136 C 0.81569 0.42121 0.49557
 C137 C 0.81310 0.43481 0.51974
 C138 C 0.81278 0.46575 0.52113
 H139 H 0.81533 0.60286 0.50569
 H140 H 0.82511 0.51905 0.54245
 H141 H 0.80873 0.52463 0.46030
 H142 H 0.82502 0.48116 0.45753
 H143 H 0.81477 0.39739 0.49430
 H144 H 0.80857 0.47565 0.53968
 O145 O 0.23303 0.26969 0.22659
 O146 O 0.28487 0.23742 0.27468
 O147 O 0.27191 0.22705 0.22655
 O148 O 0.24662 0.28090 0.27470
 O149 O 0.21061 0.25025 0.28744
 O150 O 0.23565 0.19636 0.23873
 O151 O 0.24881 0.20662 0.28703
 O152 O 0.19685 0.23916 0.23920
 Cu153 Cu 0.26271 0.25690 0.24942
 Cu154 Cu 0.21931 0.22005 0.26441
 C155 C 0.20629 0.25955 0.22441
 C156 C 0.27560 0.21660 0.28911
 C157 C 0.25787 0.20277 0.22416
 C158 C 0.22463 0.27462 0.28951
 O159 O 0.71501 0.76236 0.27386
 O160 O 0.76689 0.73005 0.22586
 O161 O 0.75330 0.71891 0.27400
 O162 O 0.72795 0.77264 0.22568
 O163 O 0.76417 0.80340 0.23777
 O164 O 0.78927 0.74962 0.28665
 O165 O 0.80303 0.76065 0.23839
 O166 O 0.75104 0.79321 0.28612
 Cu167 Cu 0.73719 0.74285 0.24865
 Cu168 Cu 0.78054 0.77978 0.26353
 C169 C 0.72426 0.78319 0.28824
 C170 C 0.79362 0.74022 0.22366
 C171 C 0.77528 0.72524 0.28879
 C172 C 0.74196 0.79693 0.22322
 O173 O 0.78513 0.25868 0.22477
 O174 O 0.73401 0.22764 0.27405
 O175 O 0.74517 0.21641 0.22541
 O176 O 0.77458 0.26907 0.27342
 O177 O 0.73915 0.30114 0.26239
 O178 O 0.70984 0.24839 0.21401
 O179 O 0.69860 0.25959 0.26275
 O180 O 0.74977 0.29075 0.21362
 Cu181 Cu 0.76323 0.23970 0.25049
 Cu182 Cu 0.72077 0.27813 0.23703
 C183 C 0.77610 0.27993 0.21076
 C184 C 0.70777 0.23866 0.27704
 C185 C 0.72274 0.22351 0.21134
 C186 C 0.76173 0.29392 0.27628
 O187 O 0.29022 0.75150 0.21351
 O188 O 0.26088 0.69879 0.26199
 O189 O 0.25028 0.70915 0.21319
 O190 O 0.30145 0.74032 0.26227
 O191 O 0.26604 0.77228 0.27351
 O192 O 0.21492 0.74125 0.22427
 O193 O 0.22547 0.73087 0.27295
 O194 O 0.25490 0.78350 0.22484
 Cu195 Cu 0.27928 0.72177 0.23659
 Cu196 Cu 0.23683 0.76022 0.24996
 C197 C 0.27733 0.77639 0.21079
 C198 C 0.23831 0.70602 0.27586
 C199 C 0.22395 0.71998 0.21030
 C200 C 0.29228 0.76126 0.27652
 O201 O 0.78847 0.25083 0.71346
 O202 O 0.76328 0.19704 0.76233
 O203 O 0.75025 0.20718 0.71396
 O204 O 0.80213 0.23985 0.76176
 O205 O 0.76596 0.27040 0.77421
 O206 O 0.71419 0.23798 0.72615
 O207 O 0.72704 0.22775 0.77436
 O208 O 0.75246 0.28149 0.72604
 Cu209 Cu 0.77970 0.22068 0.73658
 Cu210 Cu 0.73631 0.25754 0.75138
 C211 C 0.77447 0.27519 0.71129
 C212 C 0.74105 0.20348 0.77685
 C213 C 0.72347 0.21714 0.71180
 C214 C 0.79269 0.26027 0.77647
 O215 O 0.28598 0.76245 0.72566
 O216 O 0.23421 0.73002 0.77377
 O217 O 0.24773 0.71892 0.72563
 O218 O 0.27311 0.77270 0.77384
 O219 O 0.23685 0.80338 0.76173
 O220 O 0.21170 0.74955 0.71297
 O221 O 0.19802 0.76055 0.76125
 O222 O 0.24990 0.79322 0.71339
 Cu223 Cu 0.26386 0.74290 0.75092
 Cu224 Cu 0.22045 0.77972 0.73604
 C225 C 0.27669 0.78327 0.71126
 C226 C 0.20748 0.74014 0.77600
 C227 C 0.22572 0.72520 0.71086
 C228 C 0.25908 0.79697 0.77627
 O229 O 0.21410 0.25837 0.77557
 O230 O 0.26524 0.22741 0.72635
 O231 O 0.25400 0.21609 0.77498
 O232 O 0.22474 0.26884 0.72693
 O233 O 0.26020 0.30088 0.73798
 O234 O 0.28936 0.24805 0.78640
 O235 O 0.30069 0.25934 0.73769
 O236 O 0.24949 0.29043 0.78674
 Cu237 Cu 0.23601 0.23943 0.74988
 Cu238 Cu 0.27851 0.27784 0.76337
 C239 C 0.22314 0.27961 0.78957
 C240 C 0.29150 0.23843 0.72339
 C241 C 0.27642 0.22316 0.78906
 C242 C 0.23762 0.29369 0.72407
 O243 O 0.73463 0.77257 0.72599
 O244 O 0.78583 0.74156 0.77519
 O245 O 0.77518 0.73119 0.72655
 O246 O 0.74586 0.78377 0.77464
 O247 O 0.71054 0.75174 0.78605
 O248 O 0.73978 0.69907 0.73761
 O249 O 0.75048 0.70943 0.78636
 O250 O 0.69924 0.74056 0.73731
 Cu251 Cu 0.76388 0.76053 0.74951
 Cu252 Cu 0.72143 0.72203 0.76300
 C253 C 0.70839 0.76152 0.72301
 C254 C 0.77682 0.72026 0.78919
 C255 C 0.76233 0.70633 0.72370
 C256 C 0.72345 0.77664 0.78872
 N257 N 0.29756 0.07384 0.09449
 C258 C 0.29617 0.10365 0.09588
 N259 N 0.29983 0.11982 0.07411
 N260 N 0.30479 0.10659 0.05157
 C261 C 0.30623 0.07670 0.04999
 N262 N 0.30252 0.06061 0.07194
 C263 C 0.29077 0.11807 0.11999
 C264 C 0.28614 0.13110 0.13981
 C265 C 0.28045 0.14785 0.16269
 N266 N 0.29680 0.17256 0.16747
 N267 N 0.29010 0.18960 0.18758
 C268 C 0.26681 0.18251 0.20355
 N269 N 0.25062 0.15758 0.19886
 N270 N 0.25733 0.14053 0.17871
 N271 N 0.81112 0.57487 0.59739
 C272 C 0.81120 0.60477 0.59871
 N273 N 0.81515 0.62058 0.57677
 N274 N 0.81858 0.60700 0.55418
 C275 C 0.81821 0.57706 0.55261
 N276 N 0.81458 0.56127 0.57475
 C277 C 0.80507 0.61976 0.62260
 C278 C 0.79910 0.63340 0.64195
 C279 C 0.79119 0.65080 0.66415
 N280 N 0.80564 0.67667 0.66878
 N281 N 0.79685 0.69403 0.68813
 C282 C 0.77323 0.68615 0.70350
 N283 N 0.75891 0.66013 0.69893
 N284 N 0.76771 0.64277 0.67955
 N285 N 0.70258 0.92612 0.09359
 C286 C 0.70339 0.89630 0.09491
 N287 N 0.69908 0.88031 0.07315
 N288 N 0.69404 0.89374 0.05070
 C289 C 0.69316 0.92369 0.04913
 N290 N 0.69754 0.93955 0.07112
 C291 C 0.70888 0.88168 0.11894
 C292 C 0.71357 0.86855 0.13872
 C293 C 0.71933 0.85175 0.16159
 N294 N 0.74241 0.85914 0.17763
 N295 N 0.74914 0.84211 0.19781
 C296 C 0.73301 0.81715 0.20254
 N297 N 0.70977 0.80998 0.18655
 N298 N 0.70305 0.82700 0.16640
 N299 N 0.18901 0.42538 0.59766
 C300 C 0.18885 0.39549 0.59905
 N301 N 0.18482 0.37967 0.57715
 N302 N 0.18140 0.39325 0.55453
 C303 C 0.18185 0.42318 0.55289
 N304 N 0.18555 0.43898 0.57500
 C305 C 0.19497 0.38048 0.62296
 C306 C 0.20093 0.36682 0.64232
 C307 C 0.20882 0.34938 0.66453
 N308 N 0.23233 0.35734 0.67992
 N309 N 0.24111 0.33994 0.69930
 C310 C 0.22674 0.31393 0.70388
 N311 N 0.20310 0.30612 0.68853
 N312 N 0.19432 0.32353 0.66918
 N313 N 0.91174 0.33446 0.08839
 C314 C 0.88134 0.33022 0.08736
 N315 N 0.86763 0.32811 0.06405
 N316 N 0.88385 0.32981 0.04243
 C317 C 0.91445 0.33357 0.04321
 N318 N 0.92796 0.33618 0.06674
 C319 C 0.86424 0.32512 0.11049
 C320 C 0.84955 0.31939 0.12946
 C321 C 0.83172 0.31101 0.15144
 N322 N 0.80392 0.32297 0.15530
 N323 N 0.78641 0.31348 0.17457
 C324 C 0.79608 0.29165 0.19054
 N325 N 0.82401 0.27985 0.18671
 N326 N 0.84151 0.28934 0.16745
 N327 N 0.41363 0.83664 0.58976
 C328 C 0.38300 0.83442 0.58882
 N329 N 0.36899 0.83437 0.56555
 N330 N 0.38512 0.83616 0.54387
 C331 C 0.41588 0.83802 0.54462
 N332 N 0.42977 0.83845 0.56806
 C333 C 0.36578 0.82924 0.61188
 C334 C 0.35095 0.82346 0.63077
 C335 C 0.33291 0.81506 0.65263
 N336 N 0.30466 0.82625 0.65583
 N337 N 0.28696 0.81661 0.67491
 C338 C 0.29690 0.79537 0.69138
 N339 N 0.32528 0.78434 0.68821
 N340 N 0.34297 0.79400 0.66914
 N341 N 0.13249 0.67196 0.06362
 C342 C 0.11877 0.66978 0.08692
 N343 N 0.08839 0.66547 0.08795
 N344 N 0.07218 0.66376 0.06629
 C345 C 0.08568 0.66643 0.04277
 N346 N 0.11628 0.67026 0.04199
 C347 C 0.13586 0.67486 0.11006
 C348 C 0.15053 0.68058 0.12903
 C349 C 0.16835 0.68894 0.15101
 N350 N 0.15856 0.71061 0.16698
 N351 N 0.17605 0.72009 0.18623
 C352 C 0.20398 0.70828 0.19010
 N353 N 0.21365 0.68645 0.17416
 N354 N 0.19615 0.67697 0.15490
 N355 N 0.58653 0.16352 0.59045
 C356 C 0.61716 0.16581 0.58950
 N357 N 0.63116 0.16586 0.56623
 N358 N 0.61503 0.16400 0.54456
 C359 C 0.58428 0.16207 0.54532
 N360 N 0.57040 0.16164 0.56876
 C361 C 0.63437 0.17104 0.61255
 C362 C 0.64920 0.17686 0.63142
 C363 C 0.66724 0.18530 0.65325
 N364 N 0.69549 0.17409 0.65649
 N365 N 0.71319 0.18376 0.67555
 C366 C 0.70326 0.20503 0.69195
 N367 N 0.67489 0.21607 0.68875
 N368 N 0.65720 0.20639 0.66969
 N369 N 0.70188 0.07420 0.90645
 C370 C 0.70247 0.10403 0.90514
 N371 N 0.69804 0.11998 0.92690
 N372 N 0.69310 0.10650 0.94934
 C373 C 0.69245 0.07654 0.95092
 N374 N 0.69694 0.06073 0.92892
 C375 C 0.70791 0.11869 0.88111
 C376 C 0.71259 0.13184 0.86133
 C377 C 0.71836 0.14864 0.83847
 N378 N 0.70208 0.17337 0.83364
 N379 N 0.70883 0.19040 0.81350
 C380 C 0.73207 0.18326 0.79752
 N381 N 0.74819 0.15831 0.80226
 N382 N 0.74144 0.14127 0.82244
 N383 N 0.18925 0.57471 0.40251
 C384 C 0.18935 0.60460 0.40111
 N385 N 0.18556 0.62045 0.42302
 N386 N 0.18212 0.60690 0.44565
 C387 C 0.18229 0.57697 0.44730
 N388 N 0.18576 0.56114 0.42518
 C389 C 0.19548 0.61955 0.37718
 C390 C 0.20147 0.63316 0.35778
 C391 C 0.20938 0.65052 0.33553
 N392 N 0.19492 0.67636 0.33081
 N393 N 0.20373 0.69370 0.31142
 C394 C 0.22737 0.68584 0.29609
 N395 N 0.24171 0.65985 0.30075
 N396 N 0.23289 0.64251 0.32017
 N397 N 0.29793 0.92618 0.90580
 C398 C 0.29748 0.89636 0.90446
 N399 N 0.30201 0.88036 0.92621
 N400 N 0.30692 0.89379 0.94866
 C401 C 0.30744 0.92374 0.95025
 N402 N 0.30285 0.93961 0.92827
 C403 C 0.29207 0.88174 0.88044
 C404 C 0.28742 0.86862 0.86066
 C405 C 0.28169 0.85183 0.83781
 N406 N 0.29800 0.82711 0.83303
 N407 N 0.29128 0.81007 0.81291
 C408 C 0.26803 0.81720 0.79691
 N409 N 0.25189 0.84213 0.80161
 N410 N 0.25861 0.85917 0.82176
 N411 N 0.81081 0.42537 0.40259
 C412 C 0.81073 0.39548 0.40127
 N413 N 0.81456 0.37966 0.42322
 N414 N 0.81802 0.39323 0.44581
 C415 C 0.81782 0.42317 0.44738
 N416 N 0.81431 0.43897 0.42523
 C417 C 0.80458 0.38050 0.37738
 C418 C 0.79858 0.36687 0.35802
 C419 C 0.79065 0.34948 0.33581
 N420 N 0.80512 0.32364 0.33116
 N421 N 0.79630 0.30628 0.31181
 C422 C 0.77266 0.31411 0.29647
 N423 N 0.75832 0.34010 0.30107
 N424 N 0.76714 0.35747 0.32044
 N425 N 0.08646 0.33313 0.91094
 C426 C 0.11706 0.33071 0.91213
 N427 N 0.13082 0.33059 0.93550
 N428 N 0.11448 0.33250 0.95705
 C429 C 0.08375 0.33456 0.95605
 N430 N 0.07011 0.33507 0.93251
 C431 C 0.13444 0.32535 0.88921
 C432 C 0.14931 0.31943 0.87040
 C433 C 0.16730 0.31088 0.84859
 N434 N 0.19516 0.32278 0.84480
 N435 N 0.21276 0.31321 0.82565
 C436 C 0.20311 0.29135 0.80971
 N437 N 0.17513 0.27959 0.81348
 N438 N 0.15754 0.28917 0.83262
 N439 N 0.63182 0.83413 0.43380
 C440 C 0.61782 0.83417 0.41053
 N441 N 0.58719 0.83641 0.40957
 N442 N 0.57105 0.83825 0.43126
 C443 C 0.58493 0.83783 0.45470
 N444 N 0.61568 0.83594 0.45547
 C445 C 0.63504 0.82899 0.38748
 C446 C 0.64988 0.82323 0.36861
 C447 C 0.66795 0.81486 0.34678
 N448 N 0.65794 0.79376 0.33031
 N449 N 0.67565 0.78414 0.31126
 C450 C 0.70401 0.79525 0.30809
 N451 N 0.71391 0.81652 0.32451
 N452 N 0.69619 0.82613 0.34357
 N453 N 0.86932 0.66899 0.93503
 C454 C 0.88308 0.66899 0.91165
 N455 N 0.91369 0.66668 0.91046
 N456 N 0.93005 0.66475 0.93203
 C457 C 0.91642 0.66514 0.95557
 N458 N 0.88568 0.66708 0.95657
 C459 C 0.86568 0.67436 0.88874
 C460 C 0.85079 0.68031 0.86994
 C461 C 0.83276 0.68889 0.84814
 N462 N 0.84248 0.71065 0.83218
 N463 N 0.82486 0.72027 0.81306
 C464 C 0.79688 0.70850 0.80931
 N465 N 0.78728 0.68658 0.82524
 N466 N 0.80491 0.67698 0.84438
 N467 N 0.36828 0.16530 0.43455
 C468 C 0.38226 0.16539 0.41127
 N469 N 0.41290 0.16331 0.41029
 N470 N 0.42906 0.16148 0.43197
 C471 C 0.41520 0.16176 0.45542
 N472 N 0.38444 0.16349 0.45621
 C473 C 0.36499 0.17060 0.38824
 C474 C 0.35011 0.17639 0.36939
 C475 C 0.33200 0.18482 0.34759
 N476 N 0.34201 0.20591 0.33108
 N477 N 0.32426 0.21557 0.31205
 C478 C 0.29586 0.20452 0.30895
 N479 N 0.28597 0.18325 0.32542
 N480 N 0.30373 0.17360 0.34445
 N481 N 0.67791 0.91461 0.90978
 C482 C 0.67944 0.88475 0.91105
 N483 N 0.67893 0.87147 0.93449
 N484 N 0.67726 0.88751 0.95597
 C485 C 0.67604 0.91747 0.95491
 N486 N 0.67621 0.93067 0.93131
 C487 C 0.68397 0.86737 0.88813
 C488 C 0.68894 0.85227 0.86941
 C489 C 0.69618 0.83382 0.84766
 N490 N 0.71887 0.84153 0.83132
 N491 N 0.72709 0.82355 0.81222
 C492 C 0.71297 0.79720 0.80880
 N493 N 0.69012 0.78960 0.82511
 N494 N 0.68190 0.80759 0.84423
 N495 N 0.19335 0.41309 0.41188
 C496 C 0.19313 0.38325 0.41348
 N497 N 0.19097 0.37025 0.43696
 N498 N 0.18898 0.38661 0.45822
 C499 C 0.18919 0.41656 0.45681
 N500 N 0.19135 0.42944 0.43316
 C501 C 0.19607 0.36559 0.39073
 C502 C 0.19920 0.35045 0.37184
 C503 C 0.20398 0.33210 0.34974
 N504 N 0.22570 0.33916 0.33230
 N505 N 0.23170 0.32113 0.31268
 C506 C 0.21619 0.29545 0.30987
 N507 N 0.19426 0.28854 0.32726
 N508 N 0.18827 0.30658 0.34690
 N509 N 0.32393 0.08545 0.91046
 C510 C 0.31971 0.11506 0.91169
 N511 N 0.31738 0.12809 0.93511
 N512 N 0.31888 0.11204 0.95661
 C513 C 0.32271 0.08226 0.95565
 N514 N 0.32546 0.06938 0.93202
 C515 C 0.31546 0.13230 0.88863
 C516 C 0.31066 0.14735 0.86981
 C517 C 0.30356 0.16579 0.84801
 N518 N 0.31788 0.19202 0.84459
 N519 N 0.30971 0.21006 0.82546
 C520 C 0.28687 0.20253 0.80913
 N521 N 0.27271 0.17618 0.81253
 N522 N 0.28089 0.15815 0.83164
 N523 N 0.80669 0.58701 0.41157
 C524 C 0.80688 0.61685 0.41309
 N525 N 0.80903 0.62987 0.43654
 N526 N 0.81103 0.61354 0.45784
 C527 C 0.81085 0.58359 0.45650
 N528 N 0.80870 0.57068 0.43289
 C529 C 0.80393 0.63448 0.39029
 C530 C 0.80078 0.64958 0.37136
 C531 C 0.79599 0.66789 0.34920
 N532 N 0.81167 0.69342 0.34629
 N533 N 0.80566 0.71142 0.32659
 C534 C 0.78375 0.70446 0.30922
 N535 N 0.76826 0.67876 0.31211
 N536 N 0.77428 0.66078 0.33178
 N537 N 0.07702 0.69278 0.90522
 C538 C 0.10771 0.69331 0.90381
 N539 N 0.12413 0.68864 0.92551
 N540 N 0.11034 0.68354 0.94794
 C541 C 0.07955 0.68298 0.94962
 N542 N 0.06322 0.68767 0.92769
 C543 C 0.12281 0.69940 0.87985
 C544 C 0.13633 0.70492 0.86020
 C545 C 0.15336 0.71211 0.83743
 N546 N 0.18109 0.70001 0.83353
 N547 N 0.19799 0.70831 0.81347
 C548 C 0.18773 0.72901 0.79664
 N549 N 0.15983 0.74091 0.80048
 N550 N 0.14293 0.73261 0.82055
 N551 N 0.62419 0.18606 0.42661
 C552 C 0.60807 0.19102 0.40478
 N553 N 0.57736 0.19036 0.40583
 N554 N 0.56323 0.18486 0.42807
 C555 C 0.57928 0.17989 0.45007
 N556 N 0.61006 0.18056 0.44882
 C557 C 0.62347 0.19751 0.38105
 C558 C 0.63709 0.20333 0.36152
 C559 C 0.65410 0.21083 0.33883
 N560 N 0.64400 0.23204 0.32249
 N561 N 0.66078 0.24038 0.30237
 C562 C 0.68823 0.22780 0.29793
 N563 N 0.69818 0.20642 0.31423
 N564 N 0.68140 0.19808 0.33434
 N565 N 0.87600 0.31162 0.92596
 C566 C 0.89243 0.30693 0.90427
 N567 N 0.92311 0.30738 0.90569
 N568 N 0.93692 0.31244 0.92815
 C569 C 0.92059 0.31714 0.95008
 N570 N 0.88980 0.31666 0.94838
 C571 C 0.87732 0.30088 0.88031
 C572 C 0.86381 0.29540 0.86065
 C573 C 0.84679 0.28824 0.83788
 N574 N 0.81907 0.30036 0.83395
 N575 N 0.80218 0.29208 0.81390
 C576 C 0.81244 0.27139 0.79710
 N577 N 0.84033 0.25946 0.80097
 N578 N 0.85722 0.26774 0.82103
 N579 N 0.37590 0.81396 0.42598
 C580 C 0.39201 0.80892 0.40416
 N581 N 0.42271 0.80951 0.40522
 N582 N 0.43685 0.81501 0.42744
 C583 C 0.42082 0.82006 0.44942
 N584 N 0.39003 0.81946 0.44817
 C585 C 0.37659 0.80243 0.38045
 C586 C 0.36296 0.79660 0.36093
 C587 C 0.34595 0.78910 0.33826
 N588 N 0.31866 0.80186 0.33375
 N589 N 0.30187 0.79351 0.31365
 C590 C 0.31181 0.77212 0.29740
 N591 N 0.33927 0.75953 0.30186
 N592 N 0.35605 0.76788 0.32196
 N593 N 0.32259 0.91452 0.08960
 C594 C 0.32131 0.88465 0.08834
 N595 N 0.32199 0.87142 0.06491
 N596 N 0.32359 0.88751 0.04342
 C597 C 0.32455 0.91748 0.04448
 N598 N 0.32421 0.93063 0.06807
 C599 C 0.31683 0.86721 0.11126
 C600 C 0.31187 0.85208 0.13000
 C601 C 0.30464 0.83362 0.15177
 N602 N 0.31890 0.80739 0.15523
 N603 N 0.31067 0.78939 0.17438
 C604 C 0.28783 0.79697 0.19068
 N605 N 0.27372 0.82331 0.18723
 N606 N 0.28196 0.84130 0.16810
 N607 N 0.80625 0.41330 0.58843
 C608 C 0.80629 0.38346 0.58691
 N609 N 0.80833 0.37042 0.56347
 N610 N 0.81041 0.38673 0.54216
 C611 C 0.81039 0.41669 0.54349
 N612 N 0.80833 0.42961 0.56710
 C613 C 0.80327 0.36585 0.60972
 C614 C 0.80009 0.35077 0.62866
 C615 C 0.79526 0.33249 0.65084
 N616 N 0.81096 0.30700 0.65381
 N617 N 0.80492 0.28902 0.67352
 C618 C 0.78297 0.29596 0.69085
 N619 N 0.76746 0.32161 0.68790
 N620 N 0.77351 0.33958 0.66822
 N621 N 0.67810 0.12859 0.06560
 C622 C 0.67878 0.11531 0.08902
 N623 N 0.67747 0.08543 0.09028
 N624 N 0.67582 0.06937 0.06875
 C625 C 0.67547 0.08258 0.04516
 N626 N 0.67647 0.11255 0.04411
 C627 C 0.68328 0.13269 0.11194
 C628 C 0.68824 0.14781 0.13067
 C629 C 0.69546 0.16627 0.15242
 N630 N 0.71815 0.15860 0.16876
 N631 N 0.72638 0.17659 0.18786
 C632 C 0.71225 0.20292 0.19127
 N633 N 0.68941 0.21049 0.17496
 N634 N 0.68118 0.19249 0.15584
 N635 N 0.19397 0.58698 0.58831
 C636 C 0.19395 0.61681 0.58673
 N637 N 0.19190 0.62984 0.56325
 N638 N 0.18981 0.61350 0.54198
 C639 C 0.18982 0.58355 0.54339
 N640 N 0.19188 0.57064 0.56703
 C641 C 0.19697 0.63444 0.60950
 C642 C 0.20015 0.64955 0.62840
 C643 C 0.20497 0.66785 0.65053
 N644 N 0.18925 0.69333 0.65345
 N645 N 0.19528 0.71133 0.67312
 C646 C 0.21724 0.70441 0.69046
 N647 N 0.23277 0.67877 0.68757
 N648 N 0.22673 0.66079 0.66792
 N649 N 0.92470 0.69305 0.09501
 C650 C 0.89400 0.69323 0.09633
 N651 N 0.87771 0.68811 0.07463
 N652 N 0.89165 0.68292 0.05229
 C653 C 0.92242 0.68273 0.05077
 N654 N 0.93865 0.68785 0.07264
 C655 C 0.87873 0.69941 0.12018
 C656 C 0.86511 0.70497 0.13976
 C657 C 0.84796 0.71221 0.16243
 N658 N 0.85833 0.73274 0.17929
 N659 N 0.84135 0.74105 0.19929
 C660 C 0.81344 0.72911 0.20308
 N661 N 0.80323 0.70839 0.18627
 N662 N 0.82021 0.70008 0.16629
 N663 N 0.42209 0.19025 0.59482
 C664 C 0.39138 0.19081 0.59587
 N665 N 0.37527 0.18575 0.57406
 N666 N 0.38941 0.18026 0.55187
 C667 C 0.42019 0.17969 0.55062
 N668 N 0.43623 0.18475 0.57260
 C669 C 0.37596 0.19730 0.61958
 C670 C 0.36231 0.20312 0.63908
 C671 C 0.34527 0.21062 0.66173
 N672 N 0.35537 0.23183 0.67805
 N673 N 0.33855 0.24017 0.69812
 C674 C 0.31107 0.22759 0.70254
 N675 N 0.30112 0.20621 0.68626
 N676 N 0.31794 0.19787 0.66619
 N677 N 0.07536 0.30668 0.09555
 C678 C 0.10606 0.30642 0.09687
 N679 N 0.12237 0.31147 0.07516
 N680 N 0.10845 0.31666 0.05281
 C681 C 0.07768 0.31694 0.05128
 N682 N 0.06143 0.31189 0.07316
 C683 C 0.12130 0.30025 0.12075
 C684 C 0.13490 0.29470 0.14035
 C685 C 0.15202 0.28749 0.16306
 N686 N 0.14162 0.26700 0.17998
 N687 N 0.15857 0.25872 0.20001
 C688 C 0.18650 0.27063 0.20378
 N689 N 0.19673 0.29131 0.18692
 N690 N 0.17978 0.29960 0.16689
 N691 N 0.57798 0.80959 0.59420
 C692 C 0.60869 0.80895 0.59526
 N693 N 0.62481 0.81390 0.57343
 N694 N 0.61070 0.81937 0.55122
 C695 C 0.57991 0.82002 0.54996
 N696 N 0.56386 0.81507 0.57196
 C697 C 0.62408 0.80250 0.61900
 C698 C 0.63770 0.79671 0.63854
 C699 C 0.65470 0.78925 0.66124
 N700 N 0.64461 0.76802 0.67757
 N701 N 0.66140 0.75970 0.69769
 C702 C 0.68884 0.77234 0.70213
 N703 N 0.69877 0.79376 0.68584
 N704 N 0.68198 0.80206 0.66573
   
