data_POSCAR
  _audit_creation_date              2014-09-24
  _audit_creation_method            'ToBaCCo'
  _symmetry_space_group_name_H-M    'P1'
  _symmetry_Int_Tables_number       1
  _symmetry_cell_setting            triclinic
  loop_
  _symmetry_equiv_pos_as_xyz
 x,y,z
_cell_length_a 20.5589
_cell_length_b 20.5609
_cell_length_c 26.0491
_cell_angle_alpha 90.002200
_cell_angle_beta 89.993400
_cell_angle_gamma 90.008300
loop_
  _atom_site_label
  _atom_site_type_symbol
  _atom_site_fract_x
  _atom_site_fract_y
  _atom_site_fract_z
B1 B 0.28864 0.23126 0.29968
 B2 B 0.21136 0.20900 0.28951
 B3 B 0.22972 0.28729 0.30052
 B4 B 0.30043 0.30345 0.27148
 B5 B 0.32604 0.23320 0.24236
 B6 B 0.27030 0.17410 0.25467
 B7 B 0.20960 0.26876 0.19905
 B8 B 0.28698 0.29110 0.20910
 B9 B 0.26867 0.21292 0.19798
 B10 B 0.19798 0.19657 0.22713
 B11 B 0.17237 0.26683 0.25630
 B12 B 0.22810 0.32593 0.24389
 B13 B 0.72930 0.78724 0.19871
 B14 B 0.71064 0.70906 0.20991
 B15 B 0.78794 0.73094 0.19929
 B16 B 0.80030 0.80314 0.22734
 B17 B 0.72831 0.82603 0.25529
 B18 B 0.67221 0.76717 0.24326
 B19 B 0.76874 0.71292 0.30113
 B20 B 0.78735 0.79104 0.28982
 B21 B 0.70990 0.76906 0.30033
 B22 B 0.69773 0.69686 0.27237
 B23 B 0.76971 0.67398 0.24447
 B24 B 0.82583 0.73284 0.25642
 B25 B 0.73097 0.20972 -0.20072
 B26 B 0.70883 0.28709 -0.21107
 B27 B 0.78708 0.26873 -0.19996
 B28 B 0.80319 0.19784 -0.22878
 B29 B 0.73293 0.17215 -0.25791
 B30 B 0.67388 0.22802 -0.24576
 B31 B 0.76872 0.28814 -0.30164
 B32 B 0.79093 0.21088 -0.29119
 B33 B 0.71274 0.22928 -0.30242
 B34 B 0.69651 0.30015 -0.27355
 B35 B 0.76679 0.32583 -0.24450
 B36 B 0.82581 0.26996 -0.25662
 B37 B 0.26848 0.78834 -0.19908
 B38 B 0.29099 0.71115 -0.20942
 B39 B 0.21276 0.72923 -0.19808
 B40 B 0.19613 0.79992 -0.22706
 B41 B 0.26621 0.82581 -0.25631
 B42 B 0.32552 0.77025 -0.24416
 B43 B 0.23085 0.70936 -0.29973
 B44 B 0.20833 0.78664 -0.28953
 B45 B 0.28665 0.76862 -0.30073
 B46 B 0.30317 0.69793 -0.27179
 B47 B 0.23310 0.67203 -0.24249
 B48 B 0.17377 0.72757 -0.25465
 B49 B 1.22963 1.28858 0.69916
 B50 B 1.20899 1.21087 0.70979
 B51 B 1.28678 1.23080 0.69878
 B52 B 1.30135 1.30219 0.72737
 B53 B 1.23036 1.32659 0.75609
 B54 B 1.17260 1.26940 0.74396
 B55 B 1.26833 1.21174 0.80055
 B56 B 1.28888 1.28941 0.78979
 B57 B 1.21096 1.26941 0.80074
 B58 B 1.19656 1.19798 0.77223
 B59 B 1.26754 1.17360 0.74354
 B60 B 1.32532 1.23079 0.75558
 B61 B 0.78725 0.73097 0.80042
 B62 B 0.70940 0.71094 0.78971
 B63 B 0.72999 0.78870 0.80017
 B64 B 0.80157 0.80234 0.77168
 B65 B 0.82545 0.73091 0.74345
 B66 B 0.76780 0.67367 0.75578
 B67 B 0.71080 0.76931 0.69866
 B68 B 0.78874 0.78940 0.70929
 B69 B 0.76822 0.71170 0.69872
 B70 B 0.69663 0.69792 0.72732
 B71 B 0.67275 0.76937 0.75558
 B72 B 0.73038 0.82660 0.74318
 B73 B 1.23043 0.71094 0.29976
 B74 B 1.21051 0.78885 0.28897
 B75 B 1.28823 0.76825 0.29953
 B76 B 1.30182 0.69657 0.27117
 B77 B 1.23037 0.67269 0.24290
 B78 B 1.17321 0.73043 0.25510
 B79 B 1.26902 0.78700 0.19792
 B80 B 1.28896 0.70917 0.20881
 B81 B 1.21133 0.72984 0.19813
 B82 B 1.19762 0.80150 0.22654
 B83 B 1.26907 0.82537 0.25475
 B84 B 1.32623 0.76761 0.24255
 B85 B 0.78782 1.26855 0.19961
 B86 B 0.71001 1.28874 0.21037
 B87 B 0.73036 1.21091 0.19962
 B88 B 0.80198 1.19702 0.22804
 B89 B 0.82606 1.26828 0.25649
 B90 B 0.76851 1.32565 0.24439
 B91 B 0.71157 1.22986 0.30132
 B92 B 0.78934 1.20968 0.29045
 B93 B 0.76895 1.28742 0.30128
 B94 B 0.69733 1.30140 0.27285
 B95 B 0.67323 1.23014 0.24443
 B96 B 0.73081 1.17276 0.25655
 O97 O 0.58544 1.11587 0.09373
 O98 O 0.66282 1.05868 0.04841
 C99 C 0.64473 1.10112 0.08353
 O100 O 0.41286 0.87911 0.08991
 O101 O 0.33552 0.93952 0.04717
 C102 C 0.35359 0.89463 0.08035
 O103 O 0.58484 0.88341 0.09364
 O104 O 0.66250 0.94040 0.04840
 C105 C 0.64418 0.89783 0.08333
 O106 O 0.41318 1.12234 0.08864
 O107 O 0.33564 1.06129 0.04676
 C108 C 0.35384 1.10658 0.07956
 Zr109 Zr 0.49917 1.08068 0.06309
 O110 O 0.49776 1.06992 0.14388
 O111 O 0.49609 1.18369 0.06680
 Zr112 Zr 0.49872 0.91990 0.06374
 O113 O 0.49375 0.92770 0.14488
 O114 O 0.49542 0.81693 0.06746
 O115 O 0.55868 1.00024 0.07366
 O116 O 0.44053 1.00056 0.07298
 O117 O 0.41367 1.12066 -0.09090
 O118 O 0.33597 1.06062 -0.04819
 C119 C 0.35427 1.10523 -0.08151
 O120 O 0.58510 0.88300 -0.09391
 O121 O 0.66262 0.94056 -0.04899
 C122 C 0.64442 0.89799 -0.08393
 O123 O 0.41282 0.87935 -0.09072
 O124 O 0.33550 0.93970 -0.04785
 C125 C 0.35354 0.89508 -0.08123
 O126 O 0.58578 1.11542 -0.09467
 O127 O 0.66298 1.05799 -0.04939
 C128 C 0.64503 1.10032 -0.08462
 Zr129 Zr 0.49956 1.07997 -0.06412
 O130 O 0.49253 1.07578 -0.14530
 O131 O 0.50512 1.18253 -0.06387
 Zr132 Zr 0.49901 0.91867 -0.06336
 O133 O 0.49228 0.92002 -0.14459
 O134 O 0.50398 0.81583 -0.06059
 Zr135 Zr 0.60057 0.99964 -0.00034
 Zr136 Zr 0.39775 1.00011 -0.00036
 O137 O 0.44142 0.99949 -0.07345
 O138 O 0.55871 0.99911 -0.07431
 O139 O 0.43999 1.09355 -0.00067
 O140 O 0.55713 0.90701 0.00019
 O141 O 0.55766 1.09246 -0.00053
 O142 O 0.43934 0.90633 0.00015
 H143 H 0.41208 1.00083 0.10368
 H144 H 0.58599 0.86849 -0.00015
 H145 H 0.41347 0.99951 -0.10443
 H146 H 0.58666 1.13089 -0.00091
 H147 H 0.52678 0.79882 0.04256
 H148 H 0.47019 0.80060 -0.03636
 H149 H 0.52989 0.94452 -0.15825
 H150 H 0.53169 1.05366 -0.15879
 H151 H 0.47778 1.19738 -0.03500
 H152 H 0.53054 1.20155 0.04443
 H153 H 0.49555 1.11433 0.15862
 H154 H 0.53270 0.95144 0.15708
 O155 O 1.08596 0.61354 0.59539
 O156 O 1.16321 0.55777 0.54881
 C157 C 1.14523 0.59927 0.58464
 O158 O 0.91284 0.37921 0.59010
 O159 O 0.83568 0.43963 0.54710
 C160 C 0.85361 0.39493 0.58049
 O161 O 1.08514 0.38396 0.59384
 O162 O 1.16280 0.44039 0.54816
 C163 C 1.14449 0.39830 0.58341
 O164 O 0.91336 0.62015 0.59051
 O165 O 0.83575 0.56061 0.54743
 C166 C 0.85397 0.60498 0.58092
 Zr167 Zr 0.99970 0.57948 0.56415
 O168 O 0.99714 0.56842 0.64492
 O169 O 1.00678 0.68186 0.56832
 Zr170 Zr 0.99882 0.41856 0.56274
 O171 O 0.99426 0.42015 0.64406
 O172 O 0.99371 0.31552 0.56022
 O173 O 1.05880 0.49873 0.57360
 O174 O 0.94110 0.49930 0.57305
 O175 O 0.91357 0.62041 0.40888
 O176 O 0.83594 0.56154 0.45256
 C177 C 0.85420 0.60576 0.41890
 O178 O 1.08511 0.38393 0.40534
 O179 O 1.16275 0.44067 0.45075
 C180 C 1.14446 0.39826 0.41568
 O181 O 0.91325 0.38014 0.40878
 O182 O 0.83589 0.44015 0.45188
 C183 C 0.85397 0.39551 0.41848
 O184 O 1.08564 0.61676 0.40617
 O185 O 1.16293 0.55890 0.45104
 C186 C 1.14488 0.60164 0.41613
 Zr187 Zr 0.99964 0.58159 0.43704
 O188 O 0.99294 0.58176 0.35583
 O189 O 1.00713 0.68437 0.44099
 Zr190 Zr 0.99923 0.42000 0.43585
 O191 O 0.99235 0.42412 0.35466
 O192 O 1.00448 0.31715 0.43656
 Zr193 Zr 1.10075 0.49963 0.49968
 Zr194 Zr 0.89796 0.50043 0.49980
 O195 O 0.94166 0.50099 0.42674
 O196 O 1.05880 0.50070 0.42578
 O197 O 0.94008 0.59413 0.50066
 O198 O 1.05741 0.40696 0.49928
 O199 O 1.05784 0.59252 0.50067
 O200 O 0.93933 0.40659 0.49914
 H201 H 0.91304 0.49921 0.60398
 H202 H 1.08624 0.36843 0.49889
 H203 H 0.91374 0.50115 0.39575
 H204 H 1.08628 0.63144 0.50111
 H205 H 1.03490 0.29769 0.54659
 H206 H 0.97359 0.30139 0.46286
 H207 H 1.03157 0.44621 0.34123
 H208 H 1.02902 0.55518 0.34204
 H209 H 0.96695 0.70166 0.45677
 H210 H 0.97709 0.69935 0.54200
 H211 H 0.99615 0.61278 0.65983
 H212 H 1.02778 0.45073 0.65674
 O213 O 1.12046 0.58606 0.08935
 O214 O 1.05973 0.66358 0.04712
 C215 C 1.10477 0.64537 0.08007
 O216 O 1.11451 0.41374 -0.09435
 O217 O 1.05745 0.33639 -0.04887
 C218 C 1.09993 0.35448 -0.08398
 O219 O 1.12101 0.58548 -0.08918
 O220 O 1.06001 0.66324 -0.04750
 C221 C 1.10539 0.64484 -0.08014
 O222 O 1.11334 0.41339 0.09462
 O223 O 1.05703 0.33609 0.04852
 C224 C 1.09896 0.35412 0.08397
 Zr225 Zr 1.07922 0.49997 0.06367
 O226 O 1.18220 0.50353 0.06667
 O227 O 1.06901 0.50150 0.14450
 Zr228 Zr 1.07928 0.49958 -0.06346
 O229 O 1.18214 0.49452 -0.06421
 O230 O 1.07036 0.50198 -0.14440
 O231 O 1.09235 0.55913 -0.00001
 O232 O 1.09130 0.44145 0.00012
 O233 O 0.88169 0.41410 0.09332
 O234 O 0.93935 0.33654 0.04858
 C235 C 0.89665 0.35476 0.08340
 O236 O 0.87999 0.58634 -0.09204
 O237 O 0.93851 0.66370 -0.04777
 C238 C 0.89465 0.64565 -0.08181
 O239 O 0.88265 0.41444 -0.09460
 O240 O 0.93900 0.33681 -0.04886
 C241 C 0.89682 0.35507 -0.08413
 O242 O 0.87639 0.58636 0.08864
 O243 O 0.93853 0.66368 0.04750
 C244 C 0.89310 0.64562 0.08020
 Zr245 Zr 0.91877 0.50037 0.06396
 O246 O 0.81655 0.49879 0.07124
 O247 O 0.92866 0.50620 0.14493
 Zr248 Zr 0.91816 0.50022 -0.06353
 O249 O 0.81523 0.49478 -0.06191
 O250 O 0.92105 0.50535 -0.14478
 Zr251 Zr 0.99891 0.60144 -0.00008
 Zr252 Zr 0.99845 0.39861 -0.00005
 O253 O 0.90589 0.44232 0.00018
 O254 O 0.90502 0.55966 0.00012
 O255 O 0.99884 0.44039 0.07400
 O256 O 0.99908 0.55801 -0.07320
 O257 O 0.99916 0.55870 0.07332
 O258 O 0.99859 0.44039 -0.07388
 H259 H 1.12982 0.41257 -0.00019
 H260 H 0.99957 0.58602 -0.10415
 H261 H 0.86690 0.41401 -0.00002
 H262 H 0.99925 0.58724 0.10398
 H263 H 1.11510 0.50325 -0.15860
 H264 H 0.95146 0.47153 -0.15723
 H265 H 0.79881 0.53289 -0.04267
 H266 H 0.79927 0.48993 0.03670
 H267 H 0.94911 0.46554 0.15736
 H268 H 1.11352 0.50350 0.15907
 H269 H 1.19973 0.46584 0.04769
 H270 H 1.19794 0.51964 -0.03431
 O271 O 0.61404 0.91362 0.59383
 O272 O 0.55700 0.83625 0.54838
 C273 C 0.59950 0.85435 0.58346
 O274 O 0.37784 1.08631 0.59041
 O275 O 0.43793 1.16356 0.54721
 C276 C 0.39330 1.14558 0.58068
 O277 O 0.38163 0.91418 0.59362
 O278 O 0.43864 0.83657 0.54834
 C279 C 0.39613 0.85482 0.58336
 O280 O 0.62062 1.08555 0.58876
 O281 O 0.55974 1.16328 0.54700
 C282 C 0.60506 1.14491 0.57970
 Zr283 Zr 0.57842 0.99977 0.56352
 O284 O 0.56624 1.00116 0.64417
 O285 O 0.68128 1.00192 0.56904
 Zr286 Zr 0.41748 1.00043 0.56318
 O287 O 0.42166 1.00499 0.64447
 O288 O 0.31437 1.00562 0.56283
 O289 O 0.49781 0.94043 0.57363
 O290 O 0.49831 1.05841 0.57297
 O291 O 0.61939 1.08543 0.40937
 O292 O 0.55959 1.16315 0.45223
 C293 C 0.60423 1.14481 0.41895
 O294 O 0.38221 0.91392 0.40543
 O295 O 0.43931 0.83642 0.45072
 C296 C 0.39706 0.85459 0.41554
 O297 O 0.37847 1.08633 0.40869
 O298 O 0.43867 1.16359 0.45177
 C299 C 0.39429 1.14561 0.41815
 O300 O 0.61463 0.91349 0.40592
 O301 O 0.55683 0.83621 0.45087
 C302 C 0.59949 0.85425 0.41592
 Zr303 Zr 0.57897 0.99957 0.43635
 O304 O 0.57606 1.00645 0.35513
 O305 O 0.68164 0.99411 0.43780
 Zr306 Zr 0.41762 1.00008 0.43620
 O307 O 0.41980 1.00689 0.35498
 O308 O 0.31481 0.99492 0.43828
 Zr309 Zr 0.49800 0.89852 0.49965
 Zr310 Zr 0.49863 1.10134 0.49968
 O311 O 0.49856 1.05767 0.42659
 O312 O 0.49817 0.94042 0.42569
 O313 O 0.59204 1.05901 0.49988
 O314 O 0.40531 0.94185 0.49967
 O315 O 0.59081 0.94144 0.49993
 O316 O 0.40478 1.05992 0.49959
 H317 H 0.49859 1.08671 0.60376
 H318 H 0.36687 0.91288 0.49920
 H319 H 0.49884 1.08557 0.39558
 H320 H 0.62933 0.91256 0.49969
 H321 H 0.29647 0.96757 0.54446
 H322 H 0.29953 1.02787 0.46317
 H323 H 0.44417 0.96914 0.34143
 H324 H 0.55323 0.96775 0.34154
 H325 H 0.69665 1.02517 0.46422
 H326 H 0.69947 0.97239 0.54282
 H327 H 0.61040 1.00350 0.65934
 H328 H 0.44874 0.96844 0.65691
 O329 O 1.12232 1.10950 0.43124
 O330 O 1.06012 1.05457 0.37192
 C331 C 1.10561 1.09511 0.38526
 O332 O 1.11002 0.87652 0.56841
 O333 O 1.05528 0.93913 0.62754
 C334 C 1.09544 0.89324 0.61435
 O335 O 1.11713 0.88335 0.43102
 O336 O 1.05735 0.94119 0.37187
 C337 C 1.10137 0.89900 0.38508
 O338 O 1.11308 1.11798 0.56836
 O339 O 1.05804 1.05575 0.62753
 C340 C 1.09875 1.10112 0.61430
 Zr341 Zr 1.08439 1.07710 0.49985
 O342 O 1.18608 1.06261 0.50261
 O343 O 1.09776 1.17922 0.49905
 Zr344 Zr 1.07939 0.91578 0.49970
 O345 O 1.18215 0.91383 0.50526
 O346 O 1.07612 0.81311 0.49324
 O347 O 1.09499 0.99630 0.45337
 O348 O 1.09415 0.99621 0.54527
 O349 O 0.89158 1.12158 0.56826
 O350 O 0.94514 1.05810 0.62747
 C351 C 0.90535 1.10425 0.61418
 O352 O 0.87842 0.88979 0.43061
 O353 O 0.94117 0.94447 0.37157
 C354 C 0.89531 0.90423 0.38472
 O355 O 0.88387 0.88330 0.56787
 O356 O 0.94215 0.94216 0.62725
 C357 C 0.89962 0.89860 0.61384
 O358 O 0.88571 1.11641 0.43115
 O359 O 0.94415 1.05751 0.37188
 C360 C 0.90072 1.10022 0.38522
 Zr361 Zr 0.92216 1.08237 0.49968
 O362 O 0.81948 1.08413 0.50581
 O363 O 0.92546 1.18506 0.49504
 Zr364 Zr 0.91724 0.92056 0.49934
 O365 O 0.81458 0.92421 0.50536
 O366 O 0.91429 0.81806 0.49272
 Zr367 Zr 1.00070 0.99928 0.42187
 Zr368 Zr 1.00044 0.99878 0.57742
 O369 O 0.90714 1.00169 0.54455
 O370 O 0.90635 1.00201 0.45326
 O371 O 1.00346 1.09294 0.54568
 O372 O 0.99808 0.90581 0.45450
 O373 O 1.00365 1.09247 0.45479
 O374 O 0.99777 0.90459 0.54566
 H375 H 1.13260 0.99548 0.56823
 H376 H 0.99710 0.86699 0.43194
 H377 H 0.86818 1.00274 0.56696
 H378 H 1.00448 1.13125 0.43224
 H379 H 1.04895 0.79636 0.52161
 H380 H 0.93955 0.80008 0.52165
 H381 H 0.79809 0.95107 0.47671
 H382 H 0.80173 1.06064 0.47585
 H383 H 0.95660 1.20032 0.52136
 H384 H 1.05782 1.19903 0.48498
 H385 H 1.20609 1.10641 0.50437
 H386 H 1.19964 0.94383 0.47896
 O387 O 0.38288 0.61385 0.06811
 O388 O 0.44262 0.55623 0.12735
 C389 C 0.39849 0.59820 0.11402
 O390 O 0.38381 0.38384 -0.06956
 O391 O 0.44304 0.44226 -0.12860
 C392 C 0.40019 0.39890 -0.11543
 O393 O 0.37618 0.39131 0.06758
 O394 O 0.44082 0.44309 0.12702
 C395 C 0.39399 0.40416 0.11359
 O396 O 0.39144 0.62168 -0.06907
 O397 O 0.44463 0.55799 -0.12832
 C398 C 0.40505 0.60428 -0.11499
 Zr399 Zr 0.42012 0.58106 -0.00053
 O400 O 0.31749 0.57424 -0.00237
 O401 O 0.41539 0.68406 -0.00212
 Zr402 Zr 0.41816 0.41921 -0.00072
 O403 O 0.31572 0.41525 -0.00590
 O404 O 0.42189 0.31663 0.00599
 O405 O 0.40581 0.50037 0.04548
 O406 O 0.40670 0.50059 -0.04580
 O407 O 0.61392 0.61783 -0.06857
 O408 O 0.55774 0.55686 -0.12796
 C409 C 0.59901 0.60165 -0.11456
 O410 O 0.61649 0.38343 0.06840
 O411 O 0.55701 0.44158 0.12750
 C412 C 0.60087 0.39923 0.11433
 O413 O 0.61075 0.37767 -0.06908
 O414 O 0.55635 0.44048 -0.12825
 C415 C 0.59656 0.39465 -0.11504
 O416 O 0.62040 0.61065 0.06854
 O417 O 0.55858 0.55484 0.12756
 C418 C 0.60383 0.59575 0.11444
 Zr419 Zr 0.58216 0.57898 -0.00018
 O420 O 0.68481 0.57712 -0.00607
 O421 O 0.58246 0.68176 0.00475
 Zr422 Zr 0.58005 0.41700 -0.00044
 O423 O 0.68276 0.41821 -0.00678
 O424 O 0.58020 0.31434 0.00521
 Zr425 Zr 0.50000 0.49901 0.07730
 Zr426 Zr 0.50029 0.49918 -0.07823
 O427 O 0.59367 0.49795 -0.04542
 O428 O 0.59443 0.49771 0.04596
 O429 O 0.50150 0.59319 -0.04635
 O430 O 0.49868 0.40558 0.04456
 O431 O 0.50123 0.59244 0.04481
 O432 O 0.49893 0.40476 -0.04686
 H433 H 0.36778 0.50160 -0.06825
 H434 H 0.49771 0.36687 0.06723
 H435 H 0.63249 0.49759 -0.06800
 H436 H 0.50209 0.63081 0.06777
 H437 H 0.43803 0.29923 -0.02698
 H438 H 0.54883 0.29762 -0.02032
 H439 H 0.70018 0.43968 0.02424
 H440 H 0.70150 0.55030 0.02251
 H441 H 0.54826 0.69801 -0.01869
 H442 H 0.44555 0.70158 0.02395
 H443 H 0.30062 0.61935 -0.00411
 H444 H 0.29952 0.45669 0.00831
 C445 C 0.28713 1.17387 0.14822
 C446 C 0.30991 1.14154 0.11335
 C447 C 0.78676 0.67200 0.64938
 C448 C 0.80985 0.63970 0.61465
 C449 C 0.71092 0.82763 0.14981
 C450 C 0.68821 0.86166 0.11603
 C451 C 1.21140 0.32931 0.65047
 C452 C 1.18859 0.36288 0.61648
 C453 C 0.71260 1.16858 -0.15207
 C454 C 0.68945 1.13523 -0.11799
 C455 C 1.21205 0.67036 0.34872
 C456 C 1.18913 0.63689 0.38283
 C457 C 0.28658 0.82856 -0.14997
 C458 C 0.30941 0.86081 -0.11515
 C459 C 0.78717 0.32746 0.35051
 C460 C 0.80989 0.36036 0.38503
 C461 C 1.16812 0.28680 0.15068
 C462 C 1.13434 0.30977 0.11688
 C463 C 0.66969 0.78744 0.64997
 C464 C 0.63553 0.81018 0.61623
 C465 C 1.17358 0.71097 -0.14843
 C466 C 1.14082 0.68851 -0.11372
 C467 C 0.67188 1.21151 0.35068
 C468 C 0.63929 1.18874 0.38534
 C469 C 0.82755 0.71252 0.14981
 C470 C 0.85923 0.68960 0.11463
 C471 C 0.32627 1.21252 0.64924
 C472 C 0.35863 1.18973 0.61442
 C473 C 0.82732 0.28762 -0.15096
 C474 C 0.86099 0.31082 -0.11707
 C475 C 0.32881 0.78691 0.34828
 C476 C 0.36205 0.81022 0.38230
 C477 C 1.17217 1.16585 0.32323
 C478 C 1.13992 1.13077 0.34873
 C479 C 0.66776 0.67021 -0.17658
 C480 C 0.63382 0.63679 -0.15108
 C481 C 0.83434 1.17130 0.67559
 C482 C 0.86965 1.13873 0.65056
 C483 C 0.32985 0.66728 0.17554
 C484 C 0.36343 0.63310 0.15044
 C485 C 1.16510 0.82587 0.67672
 C486 C 1.13041 0.85841 0.65107
 C487 C 0.66895 0.33028 0.17668
 C488 C 0.63563 0.36424 0.15107
 C489 C 0.82735 0.83423 0.32305
 C490 C 0.86037 0.86910 0.34817
 C491 C 0.33089 0.33044 -0.17702
 C492 C 0.36517 0.36401 -0.15194
 C493 C 1.17004 0.28758 -0.15052
 C494 C 1.13591 0.31030 -0.11676
 C495 C 0.66862 0.78719 0.34888
 C496 C 0.63486 0.81002 0.38281
 C497 C 0.82712 0.71265 -0.15016
 C498 C 0.85974 0.68981 -0.11547
 C499 C 0.32865 1.21294 0.34894
 C500 C 0.36049 1.18986 0.38394
 C501 C 1.17173 0.71182 0.14874
 C502 C 1.13943 0.68925 0.11387
 C503 C 0.67338 1.21101 0.64798
 C504 C 0.64056 1.18859 0.61328
 C505 C 0.82819 0.28725 0.15071
 C506 C 0.86142 0.31048 0.11662
 C507 C 0.32671 0.78743 0.65020
 C508 C 0.36034 0.81059 0.61629
 C509 C 0.28707 1.17210 -0.15011
 C510 C 0.31020 1.13986 -0.11535
 C511 C 0.78734 0.67363 0.35072
 C512 C 0.81018 0.64099 0.38537
 C513 C 0.71193 1.17014 0.15076
 C514 C 0.68898 1.13655 0.11673
 C515 C 1.21268 0.66797 0.65176
 C516 C 1.18965 0.63439 0.61780
 C517 C 0.71167 0.82939 -0.15111
 C518 C 0.68865 0.86281 -0.11710
 C519 C 1.21137 0.32784 0.34937
 C520 C 1.18856 0.36201 0.38305
 C521 C 0.28706 0.82677 0.14853
 C522 C 0.30960 0.85952 0.11386
 C523 C 0.78670 0.32827 0.64916
 C524 C 0.80944 0.36058 0.61433
 C525 C 1.16716 1.17002 0.67629
 C526 C 1.13329 1.13642 0.65088
 C527 C 0.67086 0.66601 0.17650
 C528 C 0.63827 0.63111 0.15110
 C529 C 1.16972 0.83047 0.32272
 C530 C 1.13633 0.86428 0.34837
 C531 C 0.66598 0.32684 -0.17734
 C532 C 0.63154 0.35971 -0.15173
 C533 C 0.83096 1.16834 0.32370
 C534 C 0.86517 1.13473 0.34880
 C535 C 0.33448 0.67177 -0.17626
 C536 C 0.36966 0.63904 -0.15130
 C537 C 0.83040 0.83026 0.67568
 C538 C 0.86451 0.86367 0.65032
 C539 C 0.32630 0.33417 0.17541
 C540 C 0.35900 0.36894 0.14999
   
