data_POSCAR
  _audit_creation_date              2014-09-24
  _audit_creation_method            'ToBaCCo'
  _symmetry_space_group_name_H-M    'P1'
  _symmetry_Int_Tables_number       1
  _symmetry_cell_setting            triclinic
  loop_
  _symmetry_equiv_pos_as_xyz
 x,y,z
_cell_length_a 18.5311
_cell_length_b 18.4670
_cell_length_c 18.4358
_cell_angle_alpha 90.164300
_cell_angle_beta 90.278900
_cell_angle_gamma 90.162800
loop_
  _atom_site_label
  _atom_site_type_symbol
  _atom_site_fract_x
  _atom_site_fract_y
  _atom_site_fract_z
C1 C 0.53479 1.00075 -0.50215
 C2 C 0.46166 1.00048 -0.50224
 C3 C 0.41843 0.99799 -0.57001
 C4 C 0.41906 1.00275 -0.43449
 C5 C 0.57796 0.99813 -0.43440
 C6 C 0.57760 1.00352 -0.56972
 C7 C 0.41885 1.05582 -0.61930
 C8 C 0.36892 1.05742 -0.67662
 C9 C 0.31826 1.00124 -0.68482
 C10 C 0.31941 0.94249 -0.63698
 C11 C 0.36901 0.94103 -0.57990
 C12 C 0.36987 1.05953 -0.42450
 C13 C 0.32127 1.05804 -0.36703
 C14 C 0.32094 0.99956 -0.31904
 C15 C 0.37119 0.94354 -0.32736
 C16 C 0.42015 0.94506 -0.38501
 C17 C 0.62692 0.94105 -0.42481
 C18 C 0.67643 0.94243 -0.36765
 C19 C 0.67791 1.00110 -0.31957
 C20 C 0.62782 1.05737 -0.32740
 C21 C 0.57794 1.05596 -0.38475
 C22 C 0.57759 0.94545 -0.61908
 C23 C 0.62772 0.94388 -0.67572
 C24 C 0.67802 1.00024 -0.68314
 C25 C 0.67642 1.05922 -0.63547
 C26 C 0.62667 1.06076 -0.57902
 H27 H 0.45567 1.10087 -0.61164
 H28 H 0.36874 1.10334 -0.71314
 H29 H 0.28078 0.89855 -0.64248
 H30 H 0.36751 0.89638 -0.54194
 H31 H 0.36783 1.10408 -0.46256
 H32 H 0.28267 1.10161 -0.36114
 H33 H 0.45678 0.90013 -0.39272
 H34 H 0.62814 0.89641 -0.46304
 H35 H 0.71487 0.89865 -0.36211
 H36 H 0.62865 1.10311 -0.29048
 H37 H 0.54148 1.10110 -0.39216
 H38 H 0.54108 0.90018 -0.61185
 H39 H 0.62861 0.89791 -0.71234
 H40 H 0.71498 1.10309 -0.64072
 H41 H 0.62791 1.10557 -0.54097
 H42 H 0.37122 0.89792 -0.29055
 C43 C -0.50065 1.46235 0.00018
 C44 C -0.50065 1.53575 0.00030
 C45 C -0.43326 1.57898 -0.00220
 C46 C -0.56800 1.57868 0.00285
 C47 C -0.56807 1.41906 -0.00199
 C48 C -0.43318 1.41955 0.00228
 C49 C -0.38337 1.57818 0.05539
 C50 C -0.32593 1.62766 0.05669
 C51 C -0.31823 1.67815 0.00055
 C52 C -0.36666 1.67755 -0.05783
 C53 C -0.42392 1.62843 -0.05911
 C54 C -0.57725 1.62836 0.05981
 C55 C -0.63416 1.67755 0.05837
 C56 C -0.68233 1.67798 -0.00021
 C57 C -0.67481 1.62719 -0.05636
 C58 C -0.61771 1.57763 -0.05490
 C59 C -0.57813 1.36918 -0.05876
 C60 C -0.63534 1.32002 -0.05722
 C61 C -0.68307 1.31980 0.00136
 C62 C -0.67462 1.37077 0.05739
 C63 C -0.61720 1.42027 0.05577
 C64 C -0.38398 1.42098 -0.05543
 C65 C -0.32631 1.37210 -0.05696
 C66 C -0.31770 1.32160 -0.00094
 C67 C -0.36548 1.32153 0.05752
 C68 C -0.42296 1.37004 0.05902
 H69 H -0.39056 1.54135 0.10040
 H70 H -0.28877 1.62784 0.10223
 H71 H -0.36125 1.71633 -0.10148
 H72 H -0.46230 1.63024 -0.10358
 H73 H -0.53898 1.63037 0.10439
 H74 H -0.63945 1.71654 0.10205
 H75 H -0.61057 1.54063 -0.09996
 H76 H -0.54034 1.36707 -0.10336
 H77 H -0.64116 1.28100 -0.10093
 H78 H -0.71112 1.37110 0.10315
 H79 H -0.60943 1.45745 0.10068
 H80 H -0.39184 1.45785 -0.10033
 H81 H -0.28968 1.37242 -0.10257
 H82 H -0.35937 1.28271 0.10107
 H83 H -0.46079 1.36775 0.10358
 H84 H -0.71178 1.62722 -0.10205
 C85 C 0.00083 0.49919 0.53837
 C86 C 0.00076 0.49913 0.46483
 C87 C -0.00160 0.43149 0.42145
 C88 C 0.00306 0.56674 0.42183
 C89 C -0.00164 0.56692 0.58160
 C90 C 0.00330 0.43160 0.58143
 C91 C 0.05603 0.38226 0.42223
 C92 C 0.05769 0.32501 0.37220
 C93 C 0.00180 0.31682 0.32114
 C94 C -0.05670 0.36455 0.32189
 C95 C -0.05826 0.42159 0.37156
 C96 C 0.05970 0.57670 0.37253
 C97 C 0.05821 0.63395 0.32343
 C98 C -0.00013 0.68178 0.32268
 C99 C -0.05601 0.67352 0.37305
 C100 C -0.05449 0.61608 0.42253
 C101 C -0.05816 0.57644 0.63110
 C102 C -0.05699 0.63409 0.68010
 C103 C 0.00097 0.68282 0.68055
 C104 C 0.05678 0.67488 0.62996
 C105 C 0.05552 0.61701 0.58063
 C106 C -0.05399 0.38165 0.57998
 C107 C -0.05546 0.32421 0.62946
 C108 C 0.00027 0.31654 0.68068
 C109 C 0.05841 0.36505 0.68066
 C110 C 0.05979 0.42228 0.63152
 H111 H 0.10086 0.38992 0.45940
 H112 H 0.10336 0.28849 0.37217
 H113 H -0.10031 0.35892 0.28285
 H114 H -0.10276 0.45948 0.36976
 H115 H 0.10414 0.53874 0.37078
 H116 H 0.10167 0.63980 0.28476
 H117 H -0.09931 0.60840 0.45922
 H118 H -0.10231 0.53792 0.63303
 H119 H -0.10050 0.63949 0.71883
 H120 H 0.10207 0.71213 0.62982
 H121 H 0.10024 0.60969 0.54376
 H122 H -0.09870 0.38883 0.54266
 H123 H -0.10088 0.28710 0.62896
 H124 H 0.10188 0.35985 0.71986
 H125 H 0.10402 0.46072 0.63384
 H126 H -0.10152 0.71021 0.37278
 O127 O -0.18574 1.00274 -0.09781
 O128 O 0.18674 0.99797 -0.09680
 O129 O -0.00186 1.09753 -0.18700
 O130 O 0.00257 0.90283 -0.18721
 O131 O 0.00274 0.81440 -0.09885
 O132 O -0.00166 1.18630 -0.09847
 O133 O 0.09862 0.99760 -0.18585
 O134 O -0.09804 1.00284 -0.18640
 Zr135 Zr 0.00043 1.00029 -0.12759
 O136 O 0.06585 0.93475 -0.06554
 O137 O -0.06471 1.06607 -0.06577
 C138 C -0.16454 1.00397 -0.16458
 C139 C 0.16522 0.99656 -0.16370
 C140 C -0.00291 1.16429 -0.16542
 C141 C 0.00378 0.83615 -0.16574
 H142 H 0.09670 1.09670 -0.09594
 O143 O 0.06588 1.06584 -0.06510
 H144 H -0.09572 0.90395 -0.09676
 O145 O -0.06477 0.93492 -0.06569
 O146 O 0.18718 1.00316 0.09812
 O147 O -0.18541 0.99813 0.09690
 O148 O 0.09813 1.18750 0.00311
 O149 O 0.09717 0.81363 -0.00224
 O150 O -0.09669 0.81355 0.00217
 O151 O -0.09588 1.18738 -0.00237
 O152 O 0.00365 1.09810 0.18759
 O153 O -0.00165 0.90352 0.18731
 O154 O 0.00389 1.18661 0.09931
 O155 O -0.00220 0.81475 0.09878
 O156 O 0.18621 1.09925 0.00341
 O157 O -0.18434 1.09901 -0.00296
 O158 O -0.18478 0.90178 0.00218
 O159 O 0.18572 0.90191 -0.00211
 O160 O 0.09945 1.00346 0.18670
 O161 O -0.09743 0.99811 0.18607
 Zr162 Zr 0.12772 1.00057 0.00051
 Zr163 Zr -0.12628 1.00044 -0.00025
 Zr164 Zr 0.00100 1.12803 0.00033
 Zr165 Zr 0.00039 0.87303 0.00001
 Zr166 Zr 0.00092 1.00072 0.12790
 O167 O -0.06478 0.93491 0.06569
 O168 O 0.06643 1.06634 0.06624
 C169 C 0.16597 1.00451 0.16490
 C170 C -0.16402 0.99695 0.16380
 C171 C 0.16456 1.16605 0.00450
 C172 C 0.16370 0.83510 -0.00334
 C173 C -0.16311 0.83500 0.00333
 C174 C -0.16241 1.16582 -0.00391
 C175 C 0.00501 1.16479 0.16620
 C176 C -0.00313 0.83676 0.16572
 H177 H -0.09490 1.09694 0.09646
 O178 O -0.06420 1.06600 0.06557
 H179 H 0.09663 0.90439 0.09681
 O180 O 0.06584 0.93525 0.06581
 C181 C 0.26838 1.00415 0.26489
 C182 C 0.22147 1.00521 0.21935
 C183 C -0.26665 0.99704 0.26249
 C184 C -0.21948 0.99617 0.21773
 C185 C -0.26708 1.00411 -0.26433
 C186 C -0.22005 1.00484 -0.21896
 C187 C 0.26682 0.99645 -0.26345
 C188 C 0.22037 0.99567 -0.21793
 C189 C 0.26438 1.26822 0.00439
 C190 C 0.21883 1.22151 0.00533
 C191 C 0.26268 0.73272 -0.00332
 C192 C 0.21760 0.77961 -0.00414
 C193 C -0.26278 0.73274 0.00347
 C194 C -0.21733 0.77953 0.00418
 C195 C -0.26202 1.26758 -0.00405
 C196 C -0.21649 1.22113 -0.00483
 C197 C 0.00486 1.26451 0.26902
 C198 C 0.00582 1.21910 0.22193
 C199 C -0.00268 1.26402 -0.26768
 C200 C -0.00362 1.21852 -0.22092
 C201 C 0.00371 0.73580 -0.26795
 C202 C 0.00454 0.78166 -0.22128
 C203 C -0.00323 0.73717 0.26805
 C204 C -0.00401 0.78257 0.22122
   
