data_POSCAR
  _audit_creation_date              2014-09-24
  _audit_creation_method            'ToBaCCo'
  _symmetry_space_group_name_H-M    'P1'
  _symmetry_Int_Tables_number       1
  _symmetry_cell_setting            triclinic
  loop_
  _symmetry_equiv_pos_as_xyz
 x,y,z
_cell_length_a 54.8314
_cell_length_b 10.0057
_cell_length_c 19.6998
_cell_angle_alpha 89.895600
_cell_angle_beta 89.547000
_cell_angle_gamma 91.044000
loop_
  _atom_site_label
  _atom_site_type_symbol
  _atom_site_fract_x
  _atom_site_fract_y
  _atom_site_fract_z
C1 C 0.69334 0.19642 0.57627
 C2 C 0.68115 0.20583 0.51395
 C3 C 0.69352 0.20513 0.45159
 C4 C 0.71916 0.19192 0.45052
 C5 C 0.73215 0.18320 0.51238
 C6 C 0.71928 0.18714 0.57540
 C7 C 0.73278 0.17807 0.63559
 C8 C 0.75803 0.17259 0.63453
 C9 C 0.77131 0.16966 0.57314
 C10 C 0.75814 0.17230 0.51112
 C11 C 0.73211 0.18693 0.38893
 C12 C 0.75730 0.17641 0.38755
 C13 C 0.77086 0.16820 0.44781
 C14 C 0.79678 0.16307 0.44659
 C15 C 0.80922 0.16356 0.50867
 C16 C 0.79728 0.17007 0.57185
 H17 H 0.72429 0.17535 0.68512
 H18 H 0.76668 0.17174 0.68343
 H19 H 0.72295 0.19142 0.34059
 H20 H 0.76581 0.17850 0.33800
 H21 H 0.66180 0.22520 0.51352
 H22 H 0.82865 0.14698 0.50812
 C23 C 0.30435 0.69721 0.43118
 C24 C 0.31555 0.68726 0.49435
 C25 C 0.30204 0.68601 0.55501
 C26 C 0.27621 0.68736 0.55230
 C27 C 0.26455 0.69966 0.48855
 C28 C 0.27871 0.70519 0.42789
 C29 C 0.26694 0.72311 0.36553
 C30 C 0.24185 0.73610 0.36256
 C31 C 0.22746 0.73225 0.42181
 C32 C 0.23875 0.71121 0.48546
 C33 C 0.26176 0.68201 0.61148
 C34 C 0.23645 0.69011 0.60842
 C35 C 0.22441 0.70549 0.54600
 C36 C 0.19876 0.72488 0.54239
 C37 C 0.18823 0.74559 0.47848
 C38 C 0.20204 0.74818 0.41875
 H39 H 0.27698 0.73045 0.31818
 H40 H 0.23391 0.75017 0.31301
 H41 H 0.26986 0.67366 0.66114
 H42 H 0.22668 0.68875 0.65621
 H43 H 0.33522 0.67881 0.49629
 H44 H 0.16867 0.75688 0.47433
 C45 C 0.30003 0.19169 -0.54270
 C46 C 0.31151 0.20174 -0.47997
 C47 C 0.29826 0.22474 -0.42037
 C48 C 0.27263 0.23627 -0.42344
 C49 C 0.26055 0.22382 -0.48667
 C50 C 0.27439 0.20197 -0.54664
 C51 C 0.26230 0.19287 -0.60888
 C52 C 0.23713 0.20755 -0.61263
 C53 C 0.22276 0.22904 -0.55391
 C54 C 0.23470 0.23546 -0.48996
 C55 C 0.25879 0.25978 -0.36475
 C56 C 0.23370 0.27133 -0.36767
 C57 C 0.22102 0.25621 -0.42925
 C58 C 0.19524 0.26567 -0.43192
 C59 C 0.18401 0.26244 -0.49566
 C60 C 0.19709 0.24919 -0.55703
 H61 H 0.27231 0.17574 -0.65558
 H62 H 0.22945 0.20237 -0.66274
 H63 H 0.26716 0.26979 -0.31545
 H64 H 0.22470 0.29572 -0.32053
 H65 H 0.33124 0.19705 -0.47811
 H66 H 0.16436 0.25711 -0.49731
 C67 C -0.29807 0.76199 -0.44621
 C68 C -0.31056 0.76418 -0.50821
 C69 C -0.29849 0.76823 -0.57142
 C70 C -0.27252 0.77098 -0.57254
 C71 C -0.25939 0.77245 -0.51055
 C72 C -0.27216 0.76834 -0.44739
 C73 C -0.25863 0.77562 -0.38701
 C74 C -0.23336 0.78036 -0.38814
 C75 C -0.22031 0.78113 -0.44964
 C76 C -0.23332 0.77803 -0.51164
 C77 C -0.25920 0.77666 -0.63387
 C78 C -0.23391 0.77722 -0.63490
 C79 C -0.22034 0.77829 -0.57458
 C80 C -0.19433 0.77473 -0.57503
 C81 C -0.18213 0.78010 -0.51259
 C82 C -0.19456 0.78286 -0.45049
 H83 H -0.26720 0.77985 -0.33759
 H84 H -0.22424 0.78229 -0.33969
 H85 H -0.26788 0.78135 -0.68270
 H86 H -0.22551 0.77644 -0.68449
 H87 H -0.33007 0.74706 -0.50741
 H88 H -0.16245 0.79008 -0.51168
 O89 O -0.02905 0.75304 0.11107
 O90 O -0.05757 0.86380 0.04887
 C91 C -0.05139 0.77822 0.09484
 O92 O 0.03087 1.25388 0.13201
 O93 O 0.06006 1.15659 0.06534
 C94 C 0.05342 1.23203 0.11526
 O95 O -0.03687 1.20181 0.13271
 O96 O -0.06154 1.07983 0.06136
 C97 C -0.05800 1.15608 0.11382
 O98 O 0.03892 0.77922 0.10564
 O99 O 0.06397 0.93262 0.05184
 C100 C 0.06022 0.83058 0.09147
 Zr101 Zr 0.00399 0.83569 0.07218
 O102 O 0.00543 0.79110 0.17688
 O103 O 0.00528 0.62972 0.05045
 Zr104 Zr -0.00181 1.17063 0.09147
 O105 O -0.00057 1.15710 0.19869
 O106 O -0.00680 1.37892 0.09458
 O107 O -0.02040 0.98738 0.09416
 O108 O 0.02184 1.01266 0.09594
 O109 O 0.04114 0.83545 -0.13413
 O110 O 0.06471 0.96366 -0.06279
 C111 C 0.06202 0.88393 -0.11371
 O112 O -0.03516 1.24922 -0.12036
 O113 O -0.06071 1.10635 -0.06101
 C114 C -0.05657 1.19854 -0.10633
 O115 O 0.03235 1.30453 -0.10769
 O116 O 0.06078 1.18401 -0.04987
 C117 C 0.05469 1.27642 -0.09237
 O118 O -0.02741 0.80190 -0.14200
 O119 O -0.05678 0.88967 -0.07226
 C120 C -0.04996 0.82128 -0.12471
 Zr121 Zr 0.00522 0.87397 -0.09691
 O122 O 0.00802 0.89371 -0.20370
 O123 O 0.00698 0.66413 -0.10592
 Zr124 Zr -0.00089 1.20890 -0.07708
 O125 O 0.00091 1.25990 -0.18111
 O126 O -0.00767 1.41058 -0.05479
 Zr127 Zr -0.03482 0.99985 -0.00458
 Zr128 Zr 0.03777 1.04425 -0.00038
 O129 O 0.02302 1.05723 -0.09852
 O130 O -0.01914 1.03110 -0.10172
 O131 O 0.02698 0.84247 -0.01246
 O132 O -0.02338 1.20000 0.00727
 O133 O -0.01649 0.81777 -0.01483
 O134 O 0.02022 1.22888 0.00986
 H135 H 0.03214 1.00963 0.13699
 H136 H -0.03617 1.26841 0.01054
 H137 H 0.03366 1.07275 -0.13871
 H138 H -0.02651 0.73486 -0.01935
 H139 H -0.00592 1.40553 0.14292
 H140 H 0.00735 1.44427 -0.03308
 H141 H 0.00271 1.17529 -0.20622
 H142 H -0.00503 0.95420 -0.21828
 H143 H 0.02276 0.63695 -0.08672
 H144 H 0.02218 0.60936 0.03645
 H145 H 0.00160 0.87446 0.20117
 H146 H -0.01177 1.08327 0.21269
 O147 O 0.45940 0.33953 0.13605
 O148 O 0.43615 0.45587 0.06052
 C149 C 0.43863 0.38367 0.11433
 O150 O 0.53672 0.76778 0.11208
 O151 O 0.56196 0.62076 0.05816
 C152 C 0.55806 0.71963 0.09907
 O153 O 0.46872 0.78450 0.11427
 O154 O 0.44065 0.66881 0.05052
 C155 C 0.44651 0.75481 0.09706
 O156 O 0.52781 0.29104 0.13575
 O157 O 0.55758 0.39509 0.07085
 C158 C 0.55047 0.31613 0.11977
 Zr159 Zr 0.49546 0.37214 0.09584
 O160 O 0.49650 0.38755 0.20294
 O161 O 0.48983 0.16320 0.10120
 Zr162 Zr 0.50181 0.70829 0.07629
 O163 O 0.50241 0.75539 0.18077
 O164 O 0.50353 0.91438 0.05424
 O165 O 0.47720 0.55232 0.09738
 O166 O 0.51942 0.53371 0.10055
 O167 O 0.53033 0.24033 -0.10013
 O168 O 0.55880 0.37061 -0.04504
 C169 C 0.55265 0.27342 -0.08530
 O170 O 0.47050 0.73384 -0.13953
 O171 O 0.44122 0.63979 -0.06973
 C172 C 0.44792 0.70887 -0.12250
 O173 O 0.53888 0.72332 -0.12666
 O174 O 0.56309 0.59743 -0.05760
 C175 C 0.55991 0.68175 -0.10686
 O176 O 0.46288 0.27924 -0.11169
 O177 O 0.43739 0.42328 -0.05624
 C178 C 0.44150 0.32613 -0.09823
 Zr179 Zr 0.49747 0.33577 -0.07372
 O180 O 0.50111 0.30559 -0.17963
 O181 O 0.49061 0.13054 -0.05870
 Zr182 Zr 0.50331 0.67117 -0.09307
 O183 O 0.50726 0.65193 -0.19952
 O184 O 0.50452 0.88120 -0.10345
 Zr185 Zr 0.46352 0.53684 -0.00213
 Zr186 Zr 0.53583 0.50670 0.00456
 O187 O 0.52150 0.49215 -0.09412
 O188 O 0.47908 0.50891 -0.09901
 O189 O 0.51791 0.31941 0.01453
 O190 O 0.48160 0.72312 -0.01146
 O191 O 0.47478 0.33886 0.01054
 O192 O 0.52493 0.70643 -0.00788
 H193 H 0.52957 0.53679 0.14190
 H194 H 0.47151 0.80363 -0.01658
 H195 H 0.53256 0.47911 -0.13345
 H196 H 0.46213 0.26715 0.01442
 H197 H 0.52067 0.93815 0.04276
 H198 H 0.51919 0.91391 -0.07921
 H199 H 0.49433 0.58928 -0.21508
 H200 H 0.48951 0.36526 -0.20230
 H201 H 0.50231 0.10381 -0.02376
 H202 H 0.48870 0.14081 0.15015
 H203 H 0.48542 0.46011 0.21619
 H204 H 0.50166 0.66939 0.20547
 C205 C 0.31601 0.17696 0.39737
 C206 C 0.32749 0.28941 0.36920
 C207 C 0.34923 0.28121 0.32523
 N208 N 0.35700 0.39078 0.29016
 N209 N 0.37727 0.38744 0.25263
 C210 C 0.39078 0.27503 0.24942
 N211 N 0.38321 0.16579 0.28524
 N212 N 0.36274 0.16867 0.32229
 C213 C 0.41335 0.27295 0.20817
 C214 C 0.41605 0.36026 0.15353
 H215 H 0.32118 0.38773 0.38326
 H216 H 0.42753 0.20289 0.22015
 H217 H 0.32196 0.07786 0.38386
 H218 H 0.40062 0.42030 0.13940
 C219 C -0.18035 0.76854 0.36422
 C220 C -0.15696 0.71465 0.36120
 C221 C -0.14187 0.71585 0.29921
 N222 N -0.11951 0.66018 0.30042
 N223 N -0.10485 0.66701 0.24631
 C224 C -0.11204 0.72945 0.18878
 N225 N -0.13456 0.78342 0.18717
 N226 N -0.14925 0.77653 0.24136
 C227 C -0.09493 0.75185 0.13187
 C228 C -0.07074 0.71184 0.13518
 H229 H -0.14936 0.66600 0.40512
 H230 H -0.10062 0.81605 0.09082
 H231 H -0.18780 0.80209 0.31683
 H232 H -0.06521 0.64557 0.17556
 C233 C 0.68747 0.76035 0.36846
 C234 C 0.66337 0.80338 0.36461
 C235 C 0.64819 0.78510 0.30404
 N236 N 0.62634 0.84584 0.30112
 N237 N 0.61168 0.82661 0.24840
 C238 C 0.61826 0.74526 0.19657
 N239 N 0.64015 0.68421 0.19939
 N240 N 0.65491 0.70414 0.25207
 C241 C 0.60114 0.71467 0.14127
 C242 C 0.57857 0.77639 0.13770
 H243 H 0.65534 0.85750 0.40642
 H244 H 0.60538 0.63364 0.10699
 H245 H 0.69533 0.72153 0.32232
 H246 H 0.57474 0.85922 0.17125
 C247 C 0.18397 1.25108 0.38103
 C248 C 0.16140 1.31359 0.37476
 C249 C 0.14551 1.30041 0.31531
 N250 N 0.12332 1.35809 0.31689
 N251 N 0.10792 1.34304 0.26550
 C252 C 0.11413 1.26966 0.21040
 N253 N 0.13639 1.21215 0.20859
 N254 N 0.15184 1.22719 0.26012
 C255 C 0.09657 1.24433 0.15563
 C256 C 0.07258 1.28915 0.15894
 H257 H 0.15465 1.37600 0.41534
 H258 H 0.10201 1.17821 0.11497
 H259 H 0.19124 1.20525 0.33591
 H260 H 0.06706 1.35423 0.19990
 C261 C 0.67962 0.20462 -0.36256
 C262 C 0.65500 0.16588 -0.35724
 C263 C 0.64045 0.18315 -0.29485
 N264 N 0.61780 0.12700 -0.29055
 N265 N 0.60386 0.14549 -0.23586
 C266 C 0.61201 0.22128 -0.18332
 N267 N 0.63471 0.27754 -0.18754
 N268 N 0.64872 0.25842 -0.24218
 C269 C 0.59577 0.25378 -0.12600
 C270 C 0.57197 0.20244 -0.12174
 H271 H 0.64608 0.11538 -0.39904
 H272 H 0.60165 0.33194 -0.09148
 H273 H 0.68818 0.23966 -0.31663
 H274 H 0.56640 0.12246 -0.15549
 C275 C 0.18330 0.72270 -0.39988
 C276 C 0.16272 0.80294 -0.39580
 C277 C 0.14446 0.79137 -0.34139
 N278 N 0.13239 0.90164 -0.32127
 N279 N 0.11430 0.89199 -0.27605
 C280 C 0.10722 0.77126 -0.25042
 N281 N 0.11916 0.66061 -0.27087
 N282 N 0.13758 0.67050 -0.31538
 C283 C 0.08664 0.76200 -0.20236
 C284 C 0.08429 0.86005 -0.15316
 H285 H 0.16043 0.88302 -0.43218
 H286 H 0.07328 0.68154 -0.20660
 H287 H 0.18772 0.66325 -0.35594
 H288 H 0.09937 0.93021 -0.14590
 C289 C 0.31573 0.68585 -0.38023
 C290 C 0.33649 0.76730 -0.37271
 C291 C 0.35330 0.75761 -0.31532
 N292 N 0.37489 0.82602 -0.31772
 N293 N 0.39112 0.81356 -0.26830
 C294 C 0.38631 0.73241 -0.21440
 N295 N 0.36459 0.66506 -0.21156
 N296 N 0.34837 0.67711 -0.26118
 C297 C 0.40462 0.71071 -0.16157
 C298 C 0.42874 0.75717 -0.16781
 H299 H 0.34148 0.83681 -0.41295
 H300 H 0.39944 0.64662 -0.11932
 H301 H 0.30999 0.61927 -0.33954
 H302 H 0.43412 0.81908 -0.21071
 C303 C -0.18842 1.17388 -0.36833
 C304 C -0.16463 1.22767 -0.36692
 C305 C -0.14894 1.22367 -0.30669
 N306 N -0.12691 1.28748 -0.30852
 N307 N -0.11168 1.27910 -0.25646
 C308 C -0.11787 1.20648 -0.20043
 N309 N -0.14006 1.14386 -0.19819
 N310 N -0.15534 1.15241 -0.25032
 C311 C -0.10016 1.18610 -0.14558
 C312 C -0.07692 1.24524 -0.14790
 H313 H -0.15720 1.27942 -0.41098
 H314 H -0.10475 1.11461 -0.10598
 H315 H -0.19589 1.13932 -0.32054
 H316 H -0.07268 1.31892 -0.18681
 C317 C 0.68843 0.74430 -0.38510
 C318 C 0.66438 0.78577 -0.37727
 C319 C 0.64951 0.75737 -0.31643
 N320 N 0.62826 0.82222 -0.30803
 N321 N 0.61377 0.79503 -0.25523
 C322 C 0.61983 0.70123 -0.20877
 N323 N 0.64113 0.63563 -0.21714
 N324 N 0.65577 0.66352 -0.26997
 C325 C 0.60274 0.66547 -0.15319
 C326 C 0.58092 0.73344 -0.14587
 H327 H 0.65621 0.84758 -0.41579
 H328 H 0.60624 0.57850 -0.12220
 H329 H 0.69678 0.69886 -0.34149
 H330 H 0.57765 0.81936 -0.17789
 C331 C 0.18063 1.27016 -0.37219
 C332 C 0.15682 1.31840 -0.36967
 C333 C 0.14191 1.31460 -0.30724
 N334 N 0.11900 1.36327 -0.30805
 N335 N 0.10510 1.35999 -0.25231
 C336 C 0.11363 1.30815 -0.19354
 N337 N 0.13648 1.25830 -0.19283
 N338 N 0.15042 1.26204 -0.24855
 C339 C 0.09768 1.29268 -0.13362
 C340 C 0.07416 1.34357 -0.13194
 H341 H 0.14889 1.36576 -0.41345
 H342 H 0.10338 1.22452 -0.09427
 H343 H 0.18793 1.23482 -0.32487
 H344 H 0.06883 1.41526 -0.17014
 C345 C 0.31186 0.24597 -0.35656
 C346 C 0.33133 0.16612 -0.33878
 C347 C 0.34732 0.19922 -0.28160
 N348 N 0.36774 0.12780 -0.27172
 N349 N 0.38348 0.16259 -0.22352
 C350 C 0.37933 0.26998 -0.18324
 N351 N 0.35865 0.33998 -0.19222
 N352 N 0.34293 0.30536 -0.24061
 C353 C 0.39773 0.31675 -0.13449
 C354 C 0.42103 0.26399 -0.13460
 H355 H 0.33583 0.08090 -0.37001
 H356 H 0.39363 0.40172 -0.10274
 H357 H 0.30697 0.32888 -0.32428
 H358 H 0.42508 0.18012 -0.16731
 C359 C -0.17997 0.79122 -0.38742
 C360 C -0.15902 0.71601 -0.37913
 C361 C -0.14270 0.73313 -0.32094
 N362 N -0.12093 0.67083 -0.32070
 N363 N -0.10527 0.69072 -0.27024
 C364 C -0.11088 0.77313 -0.21792
 N365 N -0.13281 0.83378 -0.21761
 N366 N -0.14843 0.81441 -0.26826
 C367 C -0.09312 0.80375 -0.16443
 C368 C -0.06886 0.76523 -0.16941
 H369 H -0.15384 0.64556 -0.41814
 H370 H -0.09877 0.86837 -0.12338
 H371 H -0.18548 0.85925 -0.34772
 H372 H -0.06308 0.70351 -0.21148
 C373 C 0.31983 0.69864 0.36930
 C374 C 0.34100 0.77724 0.36461
 C375 C 0.35644 0.77911 0.30340
 N376 N 0.37802 0.84746 0.30348
 N377 N 0.39266 0.84597 0.24923
 C378 C 0.38617 0.77666 0.19278
 N379 N 0.36448 0.70936 0.19248
 N380 N 0.34984 0.71084 0.24673
 C381 C 0.40319 0.76196 0.13548
 C382 C 0.42687 0.81488 0.13711
 H383 H 0.34649 0.83887 0.40720
 H384 H 0.39805 0.69255 0.09571
 H385 H 0.31414 0.63911 0.32620
 H386 H 0.43195 0.88500 0.17663
 C387 C -0.18952 1.15468 0.38535
 C388 C -0.16552 1.20380 0.37959
 C389 C -0.15012 1.18917 0.31875
 N390 N -0.12814 1.25299 0.31675
 N391 N -0.11307 1.23713 0.26433
 C392 C -0.11931 1.15656 0.21165
 N393 N -0.14146 1.09333 0.21320
 N394 N -0.15663 1.10937 0.26584
 C395 C -0.10166 1.13230 0.15615
 C396 C -0.07866 1.19427 0.15703
 H397 H -0.15762 1.26155 0.42059
 H398 H -0.10610 1.05931 0.11747
 H399 H -0.19769 1.11345 0.34011
 H400 H -0.07466 1.26684 0.19633
 C401 C 0.67928 0.22846 0.38875
 C402 C 0.65612 0.17153 0.37968
 C403 C 0.64041 0.20355 0.32188
 N404 N 0.61786 0.14627 0.31818
 N405 N 0.60294 0.17616 0.26761
 C406 C 0.60998 0.26485 0.21873
 N407 N 0.63257 0.32241 0.22234
 N408 N 0.64754 0.29223 0.27295
 C409 C 0.59307 0.30412 0.16480
 C410 C 0.56905 0.25554 0.16294
 H411 H 0.64890 0.10225 0.41739
 H412 H 0.59907 0.38066 0.12917
 H413 H 0.68682 0.29445 0.35001
 H414 H 0.56295 0.18107 0.19964
 C415 C 0.18926 0.77127 0.35404
 C416 C 0.16874 0.69500 0.33712
 C417 C 0.15333 0.72602 0.27889
 N418 N 0.13331 0.64874 0.26672
 N419 N 0.11792 0.68062 0.21768
 C420 C 0.12197 0.79122 0.17891
 N421 N 0.14220 0.86772 0.19038
 N422 N 0.15763 0.83572 0.23953
 C423 C 0.10374 0.83460 0.12960
 C424 C 0.08099 0.77099 0.12586
 H425 H 0.16308 0.61292 0.36990
 H426 H 0.10731 0.92552 0.10107
 H427 H 0.19587 0.84965 0.32027
 H428 H 0.07738 0.68134 0.15565
   
