data_POSCAR
  _audit_creation_date              2014-09-24
  _audit_creation_method            'ToBaCCo'
  _symmetry_space_group_name_H-M    'P1'
  _symmetry_Int_Tables_number       1
  _symmetry_cell_setting            triclinic
  loop_
  _symmetry_equiv_pos_as_xyz
 x,y,z
_cell_length_a 49.4363
_cell_length_b 48.1383
_cell_length_c 47.1581
_cell_angle_alpha 90.869900
_cell_angle_beta 88.898800
_cell_angle_gamma 87.576000
loop_
  _atom_site_label
  _atom_site_type_symbol
  _atom_site_fract_x
  _atom_site_fract_y
  _atom_site_fract_z
N1 N 0.26320 0.20495 0.19051
 N2 N 0.26153 0.23162 0.18495
 C3 C 0.28273 0.23800 0.16841
 C4 C 0.29850 0.21402 0.16318
 C5 C 0.28543 0.19332 0.17742
 H6 H 0.28660 0.25861 0.16090
 H7 H 0.29187 0.17165 0.17889
 Cu8 Cu 0.23180 0.25550 0.19960
 Cu9 Cu 0.23671 0.18800 0.21513
 Cu10 Cu 0.19503 0.23443 0.25484
 N11 N 0.19869 0.27550 0.21183
 N12 N 0.18409 0.26740 0.23352
 C13 C 0.16314 0.28586 0.23809
 C14 C 0.16484 0.30661 0.21815
 C15 C 0.18761 0.29923 0.20179
 H16 H 0.14816 0.28461 0.25501
 H17 H 0.19575 0.31035 0.18404
 N18 N 0.20206 0.19546 0.26561
 N19 N 0.21706 0.17764 0.24987
 C20 C 0.21977 0.15343 0.26362
 C21 C 0.20589 0.15615 0.28934
 C22 C 0.19477 0.18303 0.28980
 H23 H 0.23251 0.13590 0.25623
 H24 H 0.18338 0.19320 0.30712
 H25 H 0.20446 0.21784 0.21659
 H26 H 0.23433 0.22373 0.23921
 N27 N 0.69896 -0.22287 0.20126
 N28 N 0.70594 -0.24854 0.19351
 C29 C 0.68972 -0.25678 0.17269
 C30 C 0.67154 -0.23496 0.16695
 C31 C 0.67807 -0.21376 0.18551
 H32 H 0.69146 -0.27698 0.16236
 H33 H 0.66823 -0.19330 0.18749
 Cu34 Cu 0.73609 -0.26868 0.21046
 Cu35 Cu 0.71719 -0.20372 0.23166
 Cu36 Cu 0.77739 -0.23481 0.25384
 N37 N 0.77225 -0.28311 0.21827
 N38 N 0.78864 -0.26982 0.23480
 C39 C 0.81227 -0.28471 0.23623
 C40 C 0.81051 -0.30861 0.21968
 C41 C 0.78476 -0.30679 0.20856
 H42 H 0.82936 -0.27875 0.24859
 H43 H 0.77560 -0.32141 0.19446
 N44 N 0.76198 -0.19952 0.27036
 N45 N 0.73878 -0.18797 0.26218
 C46 C 0.73247 -0.16557 0.27880
 C47 C 0.75270 -0.16282 0.29838
 C48 C 0.77116 -0.18459 0.29230
 H49 H 0.71419 -0.15262 0.27716
 H50 H 0.78933 -0.18980 0.30384
 H51 H 0.75390 -0.22348 0.21992
 H52 H 0.73585 -0.23758 0.25159
 N53 N 0.73538 0.22505 0.81651
 N54 N 0.74075 0.25118 0.82125
 C55 C 0.72529 0.26126 0.84314
 C56 C 0.70931 0.24025 0.85263
 C57 C 0.71631 0.21754 0.83529
 H58 H 0.72555 0.28237 0.85126
 H59 H 0.70757 0.19733 0.83580
 Cu60 Cu 0.76680 0.26996 0.79808
 Cu61 Cu 0.75204 0.20378 0.78492
 Cu62 Cu 0.80618 0.23299 0.75055
 N63 N 0.80032 0.28371 0.78324
 N64 N 0.81614 0.26929 0.76522
 C65 C 0.83813 0.28400 0.75929
 C66 C 0.83582 0.30897 0.77446
 C67 C 0.81150 0.30794 0.78941
 H68 H 0.85448 0.27714 0.74494
 H69 H 0.80254 0.32335 0.80404
 N70 N 0.79224 0.19660 0.73928
 N71 N 0.77142 0.18577 0.75238
 C72 C 0.76463 0.16272 0.73824
 C73 C 0.78198 0.15874 0.71510
 C74 C 0.79942 0.18045 0.71652
 H75 H 0.74762 0.15036 0.74375
 H76 H 0.81500 0.18505 0.70109
 H77 H 0.78802 0.22443 0.78880
 H78 H 0.76515 0.23604 0.75956
 N79 N 0.27971 -0.23671 0.78145
 N80 N 0.27541 -0.26233 0.78900
 C81 C 0.29185 -0.26929 0.81042
 C82 C 0.30729 -0.24674 0.81663
 C83 C 0.29902 -0.22643 0.79786
 H84 H 0.29225 -0.28917 0.82079
 H85 H 0.30660 -0.20576 0.79620
 Cu86 Cu 0.24859 -0.28419 0.77055
 Cu87 Cu 0.26017 -0.21889 0.75071
 Cu88 Cu 0.20540 -0.25334 0.72517
 N89 N 0.21511 -0.30086 0.76017
 N90 N 0.19805 -0.28875 0.74273
 C91 C 0.17666 -0.30488 0.73952
 C92 C 0.18057 -0.32837 0.75587
 C93 C 0.20525 -0.32503 0.76870
 H94 H 0.15960 -0.29998 0.72620
 H95 H 0.21538 -0.33891 0.78326
 N96 N 0.21656 -0.21740 0.71024
 N97 N 0.23774 -0.20454 0.71968
 C98 C 0.24115 -0.18155 0.70434
 C99 C 0.22108 -0.17973 0.68439
 C100 C 0.20581 -0.20280 0.68874
 H101 H 0.25729 -0.16734 0.70712
 H102 H 0.18869 -0.20898 0.67659
 H103 H 0.22567 -0.24003 0.76046
 H104 H 0.24697 -0.25388 0.72968
 N105 N 0.72863 -0.22421 0.81182
 N106 N 0.73783 -0.24705 0.82395
 C107 C 0.72115 -0.25294 0.84577
 C108 C 0.70045 -0.23267 0.84748
 C109 C 0.70596 -0.21466 0.82573
 H110 H 0.72356 -0.27095 0.85905
 H111 H 0.69365 -0.19669 0.81967
 Cu112 Cu 0.76979 -0.26792 0.80913
 Cu113 Cu 0.74498 -0.21044 0.77696
 Cu114 Cu 0.80033 -0.24900 0.74884
 N115 N 0.80181 -0.28847 0.79387
 N116 N 0.81304 -0.28136 0.76973
 C117 C 0.83381 -0.29939 0.76311
 C118 C 0.83598 -0.31883 0.78434
 C119 C 0.81530 -0.31122 0.80364
 H120 H 0.84653 -0.29838 0.74427
 H121 H 0.81010 -0.32169 0.82298
 N122 N 0.78484 -0.21555 0.73078
 N123 N 0.76431 -0.20027 0.74173
 C124 C 0.75897 -0.17872 0.72442
 C125 C 0.77687 -0.18076 0.70147
 C126 C 0.79297 -0.20431 0.70630
 H127 H 0.74296 -0.16296 0.72790
 H128 H 0.80954 -0.21257 0.69303
 H129 H 0.76016 -0.24867 0.76267
 H130 H 0.78340 -0.22702 0.78342
 N131 N 0.29880 0.22035 0.81096
 N132 N 0.28554 0.23620 0.82994
 C133 C 0.30225 0.24191 0.85132
 C134 C 0.32734 0.22901 0.84527
 C135 C 0.32435 0.21556 0.81943
 H136 H 0.29666 0.25463 0.86980
 H137 H 0.33943 0.20299 0.80762
 Cu138 Cu 0.24808 0.24851 0.82406
 Cu139 Cu 0.28228 0.20726 0.77642
 Cu140 Cu 0.21257 0.21596 0.77464
 N141 N 0.21363 0.26424 0.81097
 N142 N 0.19992 0.25154 0.79137
 C143 C 0.17776 0.26733 0.78526
 C144 C 0.17751 0.29120 0.80196
 C145 C 0.20056 0.28853 0.81813
 H146 H 0.16321 0.26210 0.76939
 H147 H 0.20786 0.30356 0.83312
 N148 N 0.23322 0.18937 0.74976
 N149 N 0.25990 0.18698 0.74964
 C150 C 0.26828 0.16850 0.72931
 C151 C 0.24575 0.15886 0.71589
 C152 C 0.22385 0.17249 0.72949
 H153 H 0.28926 0.16257 0.72471
 H154 H 0.20272 0.17087 0.72445
 H155 H 0.24836 0.23421 0.77419
 H156 H 0.24689 0.20397 0.79841
 N157 N 0.24947 -0.20338 0.18204
 N158 N 0.24067 -0.22661 0.17126
 C159 C 0.25730 -0.23527 0.14962
 C160 C 0.27746 -0.21636 0.14659
 C161 C 0.27175 -0.19631 0.16741
 H162 H 0.25503 -0.25401 0.13714
 H163 H 0.28347 -0.17839 0.17209
 Cu164 Cu 0.20883 -0.24376 0.18717
 Cu165 Cu 0.23247 -0.18498 0.21541
 Cu166 Cu 0.17583 -0.21510 0.24388
 N167 N 0.17691 -0.26046 0.20350
 N168 N 0.16445 -0.24916 0.22598
 C169 C 0.14436 -0.26535 0.23429
 C170 C 0.14406 -0.28805 0.21602
 C171 C 0.16488 -0.28421 0.19658
 H172 H 0.13114 -0.26105 0.25250
 H173 H 0.17130 -0.29821 0.17937
 N174 N 0.19026 -0.18070 0.25926
 N175 N 0.21231 -0.16957 0.24909
 C176 C 0.21814 -0.14767 0.26575
 C177 C 0.19863 -0.14479 0.28715
 C178 C 0.18130 -0.16604 0.28233
 H179 H 0.23554 -0.13504 0.26294
 H180 H 0.16416 -0.17124 0.29547
 H181 H 0.21648 -0.22012 0.23222
 H182 H 0.19443 -0.19891 0.20835
 N183 N 0.74705 0.21853 0.20493
 N184 N 0.75976 0.23647 0.18934
 C185 C 0.74433 0.24355 0.16713
 C186 C 0.72062 0.22927 0.16896
 C187 C 0.72308 0.21363 0.19322
 H188 H 0.74968 0.25855 0.15137
 H189 H 0.70836 0.19987 0.20180
 Cu190 Cu 0.79433 0.25049 0.20051
 Cu191 Cu 0.76244 0.20289 0.23926
 Cu192 Cu 0.82231 0.23020 0.26139
 N193 N 0.82146 0.27221 0.21898
 N194 N 0.83159 0.26461 0.24337
 C195 C 0.84919 0.28339 0.25193
 C196 C 0.85020 0.30394 0.23179
 C197 C 0.83245 0.29611 0.21106
 H198 H 0.86065 0.28192 0.27119
 H199 H 0.82762 0.30717 0.19188
 N200 N 0.80441 0.20045 0.28158
 N201 N 0.78163 0.18987 0.27325
 C202 C 0.77476 0.16991 0.29146
 C203 C 0.79401 0.16811 0.31235
 C204 C 0.81250 0.18779 0.30538
 H205 H 0.75699 0.15768 0.28985
 H206 H 0.83058 0.19254 0.31668
 H207 H 0.78327 0.23806 0.24899
 H208 H 0.80215 0.20904 0.22953
 C209 C 0.21631 0.02126 0.50348
 C210 C 0.21981 -0.00684 0.50050
 C211 C 0.22016 -0.02064 0.47214
 C212 C 0.22324 -0.02547 0.52514
 C213 C 0.21643 0.03555 0.53153
 C214 C 0.21260 0.03954 0.47865
 C215 C 0.19722 -0.01954 0.45508
 C216 C 0.19778 -0.03319 0.42867
 C217 C 0.22135 -0.04795 0.41880
 C218 C 0.24429 -0.04894 0.43600
 C219 C 0.24361 -0.03555 0.46250
 C220 C 0.20652 -0.04811 0.52790
 C221 C 0.20961 -0.06636 0.55042
 C222 C 0.22958 -0.06252 0.57083
 C223 C 0.24631 -0.03964 0.56803
 C224 C 0.24337 -0.02156 0.54522
 C225 C 0.23583 0.05534 0.53654
 C226 C 0.23613 0.06963 0.56244
 C227 C 0.21673 0.06479 0.58375
 C228 C 0.19721 0.04491 0.57872
 C229 C 0.19707 0.03040 0.55276
 C230 C 0.23203 0.03969 0.45658
 C231 C 0.22817 0.05712 0.43347
 C232 C 0.20509 0.07515 0.43225
 C233 C 0.18581 0.07514 0.45457
 C234 C 0.18961 0.05757 0.47758
 H235 H 0.17886 -0.00835 0.46237
 H236 H 0.17978 -0.03223 0.41594
 H237 H 0.26253 -0.06069 0.42938
 H238 H 0.26141 -0.03676 0.47553
 H239 H 0.19094 -0.05166 0.51257
 H240 H 0.19637 -0.08366 0.55165
 H241 H 0.25689 -0.00455 0.54323
 H242 H 0.25083 0.05966 0.52033
 H243 H 0.25132 0.08489 0.56562
 H244 H 0.18227 0.04036 0.59487
 H245 H 0.18181 0.01532 0.54913
 H246 H 0.25023 0.02640 0.45732
 H247 H 0.24347 0.05680 0.41671
 H248 H 0.16754 0.08830 0.45412
 H249 H 0.17444 0.05780 0.49447
 H250 H 0.26157 -0.03532 0.58337
 C251 C 0.77886 -0.01907 0.50778
 C252 C 0.78093 0.00894 0.50750
 C253 C 0.78428 0.02531 0.53392
 C254 C 0.78032 0.02469 0.48073
 C255 C 0.77887 -0.03574 0.48112
 C256 C 0.77706 -0.03454 0.53468
 C257 C 0.76433 0.04541 0.54241
 C258 C 0.76781 0.06185 0.56659
 C259 C 0.79163 0.05896 0.58223
 C260 C 0.81164 0.03879 0.57368
 C261 C 0.80790 0.02194 0.54976
 C262 C 0.75775 0.02437 0.46318
 C263 C 0.75685 0.04039 0.43869
 C264 C 0.77865 0.05694 0.43118
 C265 C 0.80123 0.05700 0.44892
 C266 C 0.80198 0.04118 0.47347
 C267 C 0.80150 -0.03676 0.46265
 C268 C 0.80178 -0.05339 0.43808
 C269 C 0.77932 -0.06911 0.43151
 C270 C 0.75655 -0.06767 0.44985
 C271 C 0.75647 -0.05139 0.47463
 C272 C 0.79602 -0.05619 0.53995
 C273 C 0.79392 -0.07178 0.56454
 C274 C 0.77263 -0.06628 0.58438
 C275 C 0.75358 -0.04448 0.57894
 C276 C 0.75584 -0.02875 0.55435
 H277 H 0.74607 0.04833 0.53028
 H278 H 0.75213 0.07729 0.57273
 H279 H 0.83003 0.03591 0.58559
 H280 H 0.82357 0.00661 0.54331
 H281 H 0.74058 0.01218 0.46881
 H282 H 0.73870 0.04026 0.42629
 H283 H 0.81953 0.04178 0.48685
 H284 H 0.81902 -0.02491 0.46747
 H285 H 0.81943 -0.05375 0.42411
 H286 H 0.73902 -0.07961 0.44531
 H287 H 0.73888 -0.05086 0.48872
 H288 H 0.81248 -0.06103 0.52495
 H289 H 0.80899 -0.08831 0.56793
 H290 H 0.73644 -0.03995 0.59307
 H291 H 0.74067 -0.01247 0.55032
 H292 H 0.81839 0.06943 0.44395
 C293 C 0.51366 0.23120 0.00807
 C294 C 0.51238 0.22988 0.03684
 C295 C 0.48607 0.23025 0.05236
 C296 C 0.53707 0.22779 0.05426
 C297 C 0.53981 0.22898 -0.00777
 C298 C 0.48891 0.23415 -0.00923
 C299 C 0.47943 0.25181 0.07187
 C300 C 0.45432 0.25300 0.08596
 C301 C 0.43554 0.23242 0.08098
 C302 C 0.44259 0.21037 0.06205
 C303 C 0.46764 0.20933 0.04776
 C304 C 0.55671 0.24797 0.05293
 C305 C 0.57947 0.24597 0.07009
 C306 C 0.58287 0.22393 0.08915
 C307 C 0.56323 0.20359 0.09008
 C308 C 0.54050 0.20566 0.07301
 C309 C 0.55681 0.20498 -0.00635
 C310 C 0.58072 0.20262 -0.02268
 C311 C 0.58792 0.22423 -0.04075
 C312 C 0.57103 0.24843 -0.04158
 C313 C 0.54709 0.25066 -0.02544
 C314 C 0.48437 0.21435 -0.03052
 C315 C 0.46126 0.21664 -0.04699
 C316 C 0.44214 0.23885 -0.04262
 C317 C 0.44700 0.25899 -0.02155
 C318 C 0.47022 0.25669 -0.00508
 H319 H 0.49356 0.26796 0.07583
 H320 H 0.44977 0.26985 0.10098
 H321 H 0.42855 0.19418 0.05796
 H322 H 0.47265 0.19235 0.03300
 H323 H 0.55425 0.26542 0.03884
 H324 H 0.59418 0.26196 0.06880
 H325 H 0.52564 0.18980 0.07422
 H326 H 0.55134 0.18796 0.00708
 H327 H 0.59353 0.18394 -0.02107
 H328 H 0.57599 0.26541 -0.05528
 H329 H 0.53413 0.26930 -0.02680
 H330 H 0.49863 0.19689 -0.03417
 H331 H 0.45822 0.20079 -0.06302
 H332 H 0.43323 0.27684 -0.01809
 H333 H 0.47371 0.27257 0.01077
 H334 H 0.56545 0.18579 0.10368
 C335 C 0.48512 0.79472 0.00804
 C336 C 0.48832 0.79382 -0.02069
 C337 C 0.51545 0.79403 -0.03472
 C338 C 0.46486 0.79281 -0.03979
 C339 C 0.45790 0.79607 0.02194
 C340 C 0.50855 0.79492 0.02729
 C341 C 0.53180 0.81703 -0.03198
 C342 C 0.55669 0.81747 -0.04663
 C343 C 0.56568 0.79480 -0.06404
 C344 C 0.54944 0.77165 -0.06627
 C345 C 0.52442 0.77143 -0.05203
 C346 C 0.46197 0.81243 -0.06130
 C347 C 0.44058 0.81135 -0.08011
 C348 C 0.42149 0.79057 -0.07777
 C349 C 0.42465 0.77071 -0.05636
 C350 C 0.44617 0.77176 -0.03762
 C351 C 0.45030 0.77447 0.03962
 C352 C 0.42547 0.77619 0.05432
 C353 C 0.40809 0.79989 0.05220
 C354 C 0.41562 0.82142 0.03419
 C355 C 0.44030 0.81946 0.01908
 C356 C 0.52937 0.77420 0.02545
 C357 C 0.55087 0.77442 0.04427
 C358 C 0.55184 0.79514 0.06560
 C359 C 0.53055 0.81549 0.06769
 C360 C 0.50926 0.81540 0.04869
 H361 H 0.52509 0.83473 -0.01883
 H362 H 0.56896 0.83543 -0.04419
 H363 H 0.55583 0.75396 -0.07959
 H364 H 0.51199 0.75358 -0.05448
 H365 H 0.47643 0.82858 -0.06362
 H366 H 0.43953 0.82644 -0.09684
 H367 H 0.44844 0.75595 -0.02165
 H368 H 0.46372 0.75634 0.04215
 H369 H 0.42021 0.75934 0.06806
 H370 H 0.40246 0.83975 0.03180
 H371 H 0.44597 0.83641 0.00565
 H372 H 0.52884 0.75768 0.00966
 H373 H 0.56670 0.75823 0.04216
 H374 H 0.52975 0.83122 0.08430
 H375 H 0.49317 0.83133 0.05079
 H376 H 0.41052 0.75427 -0.05412
 C377 C -0.01752 0.50873 0.21141
 C378 C 0.00996 0.50748 0.21170
 C379 C 0.02550 0.48072 0.21480
 C380 C 0.02583 0.53276 0.20874
 C381 C -0.03332 0.53560 0.21227
 C382 C -0.03327 0.48320 0.21056
 C383 C 0.02142 0.46410 0.23856
 C384 C 0.03662 0.43921 0.24166
 C385 C 0.05617 0.43042 0.22093
 C386 C 0.06019 0.44734 0.19724
 C387 C 0.04511 0.47226 0.19429
 C388 C 0.04328 0.54041 0.23033
 C389 C 0.05878 0.56384 0.22747
 C390 C 0.05764 0.57959 0.20265
 C391 C 0.04024 0.57179 0.18095
 C392 C 0.02435 0.54862 0.18405
 C393 C -0.05266 0.54121 0.19158
 C394 C -0.06937 0.56527 0.19352
 C395 C -0.06729 0.58417 0.21637
 C396 C -0.04755 0.57862 0.23692
 C397 C -0.03072 0.55456 0.23484
 C398 C -0.03024 0.46429 0.18766
 C399 C -0.04590 0.44080 0.18653
 C400 C -0.06474 0.43579 0.20839
 C401 C -0.06749 0.45463 0.23141
 C402 C -0.05213 0.47830 0.23231
 H403 H 0.00675 0.47065 0.25493
 H404 H 0.03340 0.42741 0.26065
 H405 H 0.07505 0.44135 0.18088
 H406 H 0.04862 0.48490 0.17588
 H407 H 0.04473 0.52831 0.24946
 H408 H 0.07205 0.56938 0.24447
 H409 H 0.01113 0.54284 0.16710
 H410 H -0.05504 0.52673 0.17409
 H411 H -0.08427 0.56885 0.17730
 H412 H -0.04572 0.59210 0.25526
 H413 H -0.01631 0.55023 0.25138
 H414 H -0.01591 0.46790 0.17058
 H415 H -0.04303 0.42641 0.16877
 H416 H -0.08188 0.45126 0.24850
 H417 H -0.05480 0.49276 0.25007
 H418 H 0.03866 0.58378 0.16178
 C419 C -0.00333 0.48781 0.75996
 C420 C 0.02411 0.48756 0.75998
 C421 C 0.03915 0.51346 0.75795
 C422 C 0.04050 0.46128 0.76239
 C423 C -0.01829 0.46180 0.76051
 C424 C -0.01995 0.51411 0.75989
 C425 C 0.03638 0.53078 0.73443
 C426 C 0.05178 0.55438 0.73204
 C427 C 0.07026 0.56109 0.75321
 C428 C 0.07281 0.54363 0.77676
 C429 C 0.05750 0.52004 0.77903
 C430 C 0.05685 0.45156 0.73943
 C431 C 0.07278 0.42705 0.74163
 C432 C 0.07307 0.41223 0.76709
 C433 C 0.05696 0.42226 0.79021
 C434 C 0.04056 0.44647 0.78778
 C435 C -0.03695 0.45762 0.78256
 C436 C -0.05241 0.43406 0.78254
 C437 C -0.04973 0.41421 0.76032
 C438 C -0.03073 0.41837 0.73831
 C439 C -0.01514 0.44197 0.73844
 C440 C -0.02182 0.53152 0.78404
 C441 C -0.03916 0.55528 0.78447
 C442 C -0.05437 0.56224 0.76054
 C443 C -0.05214 0.54491 0.73627
 C444 C -0.03531 0.52086 0.73610
 H445 H 0.02278 0.52564 0.71758
 H446 H 0.04973 0.56671 0.71317
 H447 H 0.08679 0.54811 0.79345
 H448 H 0.06000 0.50684 0.79728
 H449 H 0.05716 0.46293 0.71979
 H450 H 0.08538 0.42004 0.72367
 H451 H 0.02822 0.45391 0.80577
 H452 H -0.03969 0.47274 0.79973
 H453 H -0.06674 0.43157 0.79988
 H454 H -0.02847 0.40408 0.72044
 H455 H -0.00117 0.44517 0.72095
 H456 H -0.01032 0.52635 0.80269
 H457 H -0.04065 0.56828 0.80342
 H458 H -0.06399 0.54955 0.71773
 H459 H -0.03429 0.50742 0.71744
 H460 H 0.05695 0.41123 0.81006
 C461 C 0.35949 0.23554 0.12392
 C462 C 0.37326 0.20999 0.11791
 N463 N 0.36229 0.18606 0.12650
 C464 C 0.33818 0.18653 0.14098
 C465 C 0.32437 0.21214 0.14709
 N466 N 0.33546 0.23600 0.13825
 N467 N 0.37047 0.25950 0.11558
 C468 C 0.39479 0.25914 0.10164
 C469 C 0.40885 0.23360 0.09573
 N470 N 0.39751 0.20958 0.10389
 H471 H 0.33000 0.16713 0.14757
 H472 H 0.40286 0.27859 0.09497
 C473 C 0.61596 0.79204 0.12440
 C474 C 0.60989 0.76860 0.10814
 N475 N 0.62453 0.74443 0.11135
 C476 C 0.64498 0.74256 0.13020
 C477 C 0.65098 0.76598 0.14692
 N478 N 0.63617 0.79018 0.14342
 N479 N 0.60165 0.81633 0.12082
 C480 C 0.58124 0.81822 0.10194
 C481 C 0.57451 0.79454 0.08596
 N482 N 0.58936 0.77035 0.08948
 H483 H 0.65609 0.72288 0.13215
 H484 H 0.57080 0.83815 0.09936
 C485 C 0.65547 0.21886 -0.09747
 C486 C 0.64631 0.24443 -0.08542
 N487 N 0.65838 0.26806 -0.09302
 C488 C 0.67912 0.26733 -0.11239
 C489 C 0.68803 0.24180 -0.12502
 N490 N 0.67596 0.21814 -0.11706
 N491 N 0.64327 0.19528 -0.08994
 C492 C 0.62210 0.19611 -0.07105
 C493 C 0.61243 0.22183 -0.05933
 N494 N 0.62500 0.24534 -0.06687
 H495 H 0.68806 0.28659 -0.11821
 H496 H 0.61239 0.17701 -0.06612
 C497 C 0.35844 0.78380 -0.13706
 C498 C 0.36810 0.76059 -0.12211
 N499 N 0.35753 0.73545 -0.12704
 C500 C 0.33776 0.73243 -0.14637
 C501 C 0.32822 0.75561 -0.16168
 N502 N 0.33887 0.78078 -0.15651
 N503 N 0.36882 0.80897 -0.13194
 C504 C 0.38873 0.81198 -0.11278
 C505 C 0.39903 0.78862 -0.09813
 N506 N 0.38811 0.76351 -0.10312
 H507 H 0.32990 0.71207 -0.14991
 H508 H 0.39610 0.83249 -0.10895
 C509 C 0.10637 0.35710 0.22862
 C510 C 0.11387 0.37888 0.21113
 N511 N 0.13760 0.37673 0.19624
 C512 C 0.15427 0.35370 0.19800
 C513 C 0.14697 0.33175 0.21560
 N514 N 0.12308 0.33408 0.23057
 N515 N 0.08241 0.35929 0.24321
 C516 C 0.06569 0.38237 0.24125
 C517 C 0.07331 0.40451 0.22395
 N518 N 0.09731 0.40189 0.20927
 H519 H 0.17311 0.35284 0.18597
 H520 H 0.04656 0.38302 0.25276
 C521 C 0.12209 0.62897 0.74628
 C522 C 0.12886 0.60600 0.76300
 N523 N 0.15246 0.60518 0.77718
 C524 C 0.16974 0.62631 0.77540
 C525 C 0.16321 0.64949 0.75850
 N526 N 0.13936 0.65011 0.74437
 N527 N 0.09833 0.62979 0.73230
 C528 C 0.08109 0.60854 0.73410
 C529 C 0.08796 0.58519 0.75062
 N530 N 0.11176 0.58480 0.76474
 H531 H 0.18834 0.62473 0.78704
 H532 H 0.06215 0.61021 0.72306
 C533 C -0.12566 0.65123 0.22534
 C534 C -0.13064 0.62758 0.20890
 N535 N -0.15475 0.62561 0.19600
 C536 C -0.17429 0.64620 0.19887
 C537 C -0.16962 0.66998 0.21564
 N538 N -0.14520 0.67181 0.22840
 N539 N -0.10140 0.65314 0.23808
 C540 C -0.08198 0.63230 0.23538
 C541 C -0.08709 0.60821 0.21928
 N542 N -0.11140 0.60677 0.20633
 H543 H -0.19322 0.64367 0.18826
 H544 H -0.06280 0.63479 0.24552
 C545 C -0.10397 0.34802 0.75945
 C546 C -0.10987 0.37263 0.77500
 N547 N -0.13341 0.37573 0.79007
 C548 C -0.15149 0.35531 0.79037
 C549 C -0.14589 0.33045 0.77469
 N550 N -0.12209 0.32754 0.75955
 N551 N -0.08017 0.34501 0.74464
 C552 C -0.06209 0.36561 0.74451
 C553 C -0.06813 0.39056 0.75986
 N554 N -0.09198 0.39314 0.77479
 H555 H -0.17002 0.35880 0.80265
 H556 H -0.04317 0.36222 0.73286
 C557 C 0.19645 0.12784 0.36144
 C558 C 0.20987 0.10166 0.35879
 N559 N 0.22083 0.09324 0.33334
 C560 C 0.21925 0.10997 0.31042
 C561 C 0.20627 0.13651 0.31307
 N562 N 0.19503 0.14467 0.33863
 N563 N 0.18566 0.13630 0.38696
 C564 C 0.18772 0.11977 0.41002
 C565 C 0.20139 0.09352 0.40755
 N566 N 0.21212 0.08524 0.38180
 H567 H 0.22835 0.10263 0.29052
 H568 H 0.17937 0.12744 0.43015
 C569 C 0.80015 0.11344 0.65250
 C570 C 0.77549 0.10104 0.64734
 N571 N 0.75380 0.10703 0.66471
 C572 C 0.75555 0.12501 0.68700
 C573 C 0.78003 0.13801 0.69196
 N574 N 0.80181 0.13185 0.67448
 N575 N 0.82191 0.10709 0.63523
 C576 C 0.82005 0.08904 0.61291
 C577 C 0.79516 0.07711 0.60731
 N578 N 0.77350 0.08349 0.62481
 H579 H 0.73774 0.12957 0.70020
 H580 H 0.83760 0.08470 0.59924
 C581 C 0.23660 -0.12127 0.63715
 C582 C 0.21345 -0.11925 0.62054
 N583 N 0.19305 -0.13674 0.62514
 C584 C 0.19481 -0.15632 0.64559
 C585 C 0.21805 -0.15848 0.66231
 N586 N 0.23837 -0.14072 0.65765
 N587 N 0.25716 -0.10409 0.63216
 C588 C 0.25565 -0.08488 0.61131
 C589 C 0.23232 -0.08257 0.59454
 N590 N 0.21186 -0.10006 0.59982
 H591 H 0.17819 -0.16991 0.64872
 H592 H 0.27282 -0.07218 0.60771
 C593 C 0.77826 -0.12240 0.35924
 C594 C 0.75500 -0.10671 0.36816
 N595 N 0.73169 -0.10897 0.35376
 C596 C 0.73048 -0.12638 0.33089
 C597 C 0.75360 -0.14261 0.32217
 N598 N 0.77699 -0.14012 0.33665
 N599 N 0.80162 -0.11995 0.37355
 C600 C 0.80277 -0.10256 0.39647
 C601 C 0.77936 -0.08712 0.40579
 N602 N 0.75601 -0.08968 0.39127
 H603 H 0.71149 -0.12788 0.32011
 H604 H 0.82157 -0.10140 0.40772
 C605 C 0.63841 0.79386 -0.11328
 C606 C 0.63019 0.76989 -0.09956
 N607 N 0.64534 0.74584 -0.10266
 C608 C 0.66832 0.74458 -0.11903
 C609 C 0.67639 0.76839 -0.13336
 N610 N 0.66112 0.79253 -0.13005
 N611 N 0.62334 0.81797 -0.10990
 C612 C 0.60030 0.81916 -0.09355
 C613 C 0.59164 0.79500 -0.08026
 N614 N 0.60696 0.77093 -0.08368
 H615 H 0.67973 0.72498 -0.12128
 H616 H 0.58846 0.83855 -0.09170
 C617 C 0.37261 0.24207 -0.09428
 C618 C 0.39698 0.22886 -0.10382
 N619 N 0.39840 0.21636 -0.12979
 C620 C 0.37645 0.21630 -0.14669
 C621 C 0.35179 0.22929 -0.13718
 N622 N 0.35059 0.24198 -0.11110
 N623 N 0.37127 0.25438 -0.06817
 C624 C 0.39321 0.25408 -0.05114
 C625 C 0.41776 0.24074 -0.06059
 N626 N 0.41881 0.22845 -0.08684
 H627 H 0.37838 0.20613 -0.16725
 H628 H 0.39117 0.26358 -0.03024
 C629 C 0.33712 0.80488 0.10428
 C630 C 0.34586 0.77973 0.09100
 N631 N 0.33181 0.75653 0.09545
 C632 C 0.30943 0.75727 0.11274
 C633 C 0.30088 0.78231 0.12660
 N634 N 0.31504 0.80555 0.12193
 N635 N 0.35106 0.82813 0.09961
 C636 C 0.37346 0.82736 0.08234
 C637 C 0.38266 0.80205 0.06940
 N638 N 0.36849 0.77882 0.07416
 H639 H 0.29886 0.73834 0.11606
 H640 H 0.38443 0.84612 0.07949
 C641 C 0.65161 0.21969 0.14190
 C642 C 0.65240 0.23354 0.11598
 N643 N 0.67544 0.24577 0.10769
 C644 C 0.69775 0.24480 0.12420
 C645 C 0.69704 0.23086 0.15021
 N646 N 0.67385 0.21861 0.15832
 N647 N 0.62852 0.20776 0.15040
 C648 C 0.60617 0.20881 0.13405
 C649 C 0.60686 0.22233 0.10773
 N650 N 0.63011 0.23455 0.09955
 H651 H 0.71580 0.25468 0.11693
 H652 H 0.58799 0.19960 0.14194
 C653 C -0.10954 0.63196 0.76185
 C654 C -0.10777 0.61428 0.78516
 N655 N -0.12466 0.61907 0.80791
 C656 C -0.14332 0.64071 0.80842
 C657 C -0.14510 0.65866 0.78510
 N658 N -0.12793 0.65370 0.76244
 N659 N -0.09314 0.62687 0.73879
 C660 C -0.07510 0.60475 0.73788
 C661 C -0.07319 0.58694 0.76121
 N662 N -0.08955 0.59232 0.78442
 H663 H -0.15641 0.64379 0.82693
 H664 H -0.06226 0.60118 0.71922
 C665 C -0.11288 0.36502 0.20720
 C666 C -0.10214 0.37487 0.23259
 N667 N -0.10707 0.36148 0.25713
 C668 C -0.12223 0.33858 0.25748
 C669 C -0.13324 0.32871 0.23213
 N670 N -0.12831 0.34232 0.20756
 N671 N -0.10759 0.37822 0.18261
 C672 C -0.09198 0.40084 0.18223
 C673 C -0.08132 0.41092 0.20768
 N674 N -0.08684 0.39761 0.23229
 H675 H -0.12589 0.32846 0.27742
 H676 H -0.08839 0.41112 0.16235
 C677 C 0.12512 0.34071 0.77458
 C678 C 0.12253 0.36062 0.79662
 N679 N 0.13767 0.35739 0.82015
 C680 C 0.15543 0.33521 0.82260
 C681 C 0.15805 0.31519 0.80057
 N682 N 0.14263 0.31845 0.77712
 N683 N 0.11048 0.34424 0.75075
 C684 C 0.09346 0.36691 0.74785
 C685 C 0.09078 0.38694 0.76987
 N686 N 0.10533 0.38313 0.79386
 H687 H 0.16724 0.33321 0.84159
 H688 H 0.08201 0.36917 0.72863
 C689 C 0.10698 0.64920 0.19594
 C690 C 0.09389 0.64308 0.22163
 N691 N 0.09711 0.65960 0.24476
 C692 C 0.11287 0.68200 0.24344
 C693 C 0.12636 0.68808 0.21786
 N694 N 0.12308 0.67138 0.19467
 N695 N 0.10337 0.63284 0.17272
 C696 C 0.08730 0.61059 0.17405
 C697 C 0.07445 0.60417 0.19989
 N698 N 0.07821 0.62068 0.22307
 H699 H 0.11517 0.69459 0.26235
 H700 H 0.08509 0.59773 0.15529
 C701 C 0.76655 -0.11912 0.65558
 C702 C 0.78169 -0.12735 0.63123
 N703 N 0.79480 -0.15266 0.63013
 C704 C 0.79356 -0.17018 0.65236
 C705 C 0.77839 -0.16212 0.67693
 N706 N 0.76514 -0.13667 0.67785
 N707 N 0.75374 -0.09360 0.65663
 C708 C 0.75524 -0.07600 0.63435
 C709 C 0.77022 -0.08431 0.60964
 N710 N 0.78311 -0.10991 0.60903
 H711 H 0.80414 -0.19026 0.65062
 H712 H 0.74518 -0.05569 0.63630
 C713 C 0.22107 -0.09534 0.34228
 C714 C 0.19756 -0.09141 0.35925
 N715 N 0.17467 -0.10404 0.35187
 C716 C 0.17429 -0.12079 0.32844
 C717 C 0.19791 -0.12520 0.31155
 N718 N 0.22073 -0.11207 0.31882
 N719 N 0.24405 -0.08299 0.34997
 C720 C 0.24470 -0.06719 0.37411
 C721 C 0.22127 -0.06359 0.39149
 N722 N 0.19818 -0.07565 0.38331
 H723 H 0.15572 -0.13063 0.32321
 H724 H 0.26331 -0.05754 0.37959
 C725 C 0.77737 0.11016 0.35996
 C726 C 0.79503 0.11420 0.38239
 N727 N 0.81208 0.13552 0.38159
 C728 C 0.81229 0.15309 0.35932
 C729 C 0.79449 0.14929 0.33678
 N730 N 0.77739 0.12781 0.33774
 N731 N 0.76060 0.08857 0.36071
 C732 C 0.76052 0.07092 0.38300
 C733 C 0.77795 0.07513 0.40589
 N734 N 0.79485 0.09676 0.40467
 H735 H 0.82604 0.16995 0.35949
 H736 H 0.74723 0.05370 0.38243
 C737 C 0.21924 0.11377 0.65907
 C738 C 0.24304 0.10524 0.64417
 N739 N 0.26727 0.11361 0.65331
 C740 C 0.26883 0.13036 0.67662
 C741 C 0.24499 0.13947 0.69138
 N742 N 0.22071 0.13078 0.68219
 N743 N 0.19501 0.10536 0.64981
 C744 C 0.19350 0.08895 0.62616
 C745 C 0.21732 0.08078 0.61083
 N746 N 0.24152 0.08920 0.62044
 H747 H 0.28848 0.13680 0.68312
 H748 H 0.17384 0.08316 0.61898
   
