data_POSCAR
  _audit_creation_date              2014-09-24
  _audit_creation_method            'ToBaCCo'
  _symmetry_space_group_name_H-M    'P1'
  _symmetry_Int_Tables_number       1
  _symmetry_cell_setting            triclinic
  loop_
  _symmetry_equiv_pos_as_xyz
 x,y,z
_cell_length_a 35.2108
_cell_length_b 36.2605
_cell_length_c 36.3049
_cell_angle_alpha 92.254800
_cell_angle_beta 92.418400
_cell_angle_gamma 90.459200
loop_
  _atom_site_label
  _atom_site_type_symbol
  _atom_site_fract_x
  _atom_site_fract_y
  _atom_site_fract_z
C1 C 0.72869 0.66127 0.94570
 H2 H 0.75103 0.64616 0.93255
 C3 C 0.70032 0.67746 0.92390
 H4 H 0.70083 0.67409 0.89414
 C5 C 0.70001 0.68294 1.00007
 H6 H 0.69935 0.68456 1.02969
 C7 C 0.67114 0.69966 0.97938
 H8 H 0.64860 0.71314 0.99391
 N9 N 0.72671 0.66227 0.98308
 C10 C 0.80393 0.64019 1.07411
 H11 H 0.78604 0.61986 1.08597
 C12 C 0.83798 0.65077 1.09255
 H13 H 0.84472 0.63979 1.11930
 C14 C 0.81769 0.67747 1.02405
 H15 H 0.81019 0.68647 0.99666
 C16 C 0.85224 0.68865 1.04151
 H17 H 0.87102 0.70688 1.02768
 Zn18 Zn 0.75594 0.62855 1.01128
 N19 N 0.79486 0.65295 1.04016
 C20 C 0.81754 0.58758 0.98531
 N21 N 0.77973 0.59377 0.97938
 C22 C 0.75971 0.57647 0.95071
 C23 C 0.77832 0.55403 0.92515
 C24 C 0.83700 0.56463 0.96104
 C25 C 0.70958 0.62317 1.07184
 C26 C 0.68605 0.60629 1.09615
 C27 C 0.69175 0.54898 1.06067
 C28 C 0.71497 0.56723 1.03679
 N29 N 0.72337 0.60369 1.04268
 H30 H 0.83293 0.60069 1.00868
 H31 H 0.72949 0.58110 0.94701
 H32 H 0.76224 0.54114 0.90196
 H33 H 0.86721 0.56043 0.96582
 H34 H 0.71798 0.65165 1.07715
 H35 H 0.67595 0.62272 1.11929
 H36 H 0.68658 0.51994 1.05486
 H37 H 0.72660 0.55204 1.01376
 C38 C 0.86342 0.67397 1.07543
 C39 C 0.67012 0.69548 0.94069
 C40 C 0.67680 0.56855 1.09121
 C41 C 0.81762 0.54856 0.92997
 C42 C 0.69244 0.37147 0.54517
 H43 H 0.71995 0.35888 0.54923
 C44 C 0.66115 0.35844 0.56380
 H45 H 0.66500 0.33570 0.58197
 C46 C 0.65469 0.41835 0.51912
 H47 H 0.65233 0.44268 0.50303
 C48 C 0.62310 0.40653 0.53725
 H49 H 0.59669 0.42144 0.53406
 N50 N 0.68853 0.40075 0.52298
 C51 C 0.79010 0.41242 0.45885
 H52 H 0.78777 0.44215 0.45908
 C53 C 0.82024 0.39551 0.44176
 H54 H 0.84071 0.41254 0.42861
 C55 C 0.76648 0.35473 0.47673
 H56 H 0.74555 0.33912 0.49068
 C57 C 0.79656 0.33641 0.45965
 H58 H 0.79841 0.30674 0.46093
 Zn59 Zn 0.72985 0.42400 0.50055
 N60 N 0.76438 0.39222 0.47652
 C61 C 0.79336 0.44091 0.54749
 N62 N 0.75776 0.45223 0.53754
 C63 C 0.74210 0.48223 0.55448
 C64 C 0.76301 0.50282 0.58184
 C65 C 0.81495 0.46031 0.57493
 C66 C 0.68752 0.43517 0.43693
 C67 C 0.66931 0.45379 0.40855
 C68 C 0.69752 0.51077 0.43385
 C69 C 0.71496 0.49099 0.46214
 N70 N 0.70933 0.45389 0.46326
 H71 H 0.80504 0.41649 0.53447
 H72 H 0.71345 0.49023 0.54662
 H73 H 0.75040 0.52680 0.59501
 H74 H 0.84339 0.45104 0.58201
 H75 H 0.68352 0.40568 0.43863
 H76 H 0.65081 0.43813 0.38912
 H77 H 0.70211 0.54031 0.43322
 H78 H 0.73298 0.50527 0.48298
 C79 C 0.82425 0.35716 0.44231
 C80 C 0.62591 0.37632 0.55994
 C81 C 0.67452 0.49214 0.40647
 C82 C 0.79970 0.49158 0.59260
 C83 C 0.16123 -0.13237 0.00884
 H84 H 0.15373 -0.11306 -0.01203
 C85 C 0.13259 -0.14614 0.02985
 H86 H 0.10349 -0.13798 0.02404
 C87 C 0.20804 -0.16358 0.04415
 H88 H 0.23760 -0.16890 0.05078
 C89 C 0.18007 -0.17811 0.06597
 H90 H 0.18869 -0.19472 0.08891
 N91 N 0.19828 -0.14071 0.01648
 C92 C 0.28276 -0.13766 -0.06330
 H93 H 0.26374 -0.12282 -0.08124
 C94 C 0.31624 -0.15137 -0.07745
 H95 H 0.32124 -0.14817 -0.10637
 C96 C 0.30045 -0.15816 -0.00396
 H97 H 0.29519 -0.15910 0.02507
 C98 C 0.33454 -0.17216 -0.01702
 H99 H 0.35476 -0.18455 0.00199
 Zn100 Zn 0.23551 -0.11208 -0.00666
 N101 N 0.27565 -0.14056 -0.02694
 C102 C 0.24018 -0.07309 0.06210
 N103 N 0.25815 -0.07954 0.03009
 C104 C 0.29445 -0.06772 0.02622
 C105 C 0.31474 -0.04998 0.05582
 C106 C 0.25930 -0.05529 0.09232
 C107 C 0.19310 -0.10654 -0.07277
 C108 C 0.17379 -0.08981 -0.10179
 C109 C 0.18923 -0.03030 -0.07239
 C110 C 0.20893 -0.04837 -0.04411
 N111 N 0.21050 -0.08583 -0.04486
 H112 H 0.21140 -0.08296 0.06469
 H113 H 0.30832 -0.07371 0.00067
 H114 H 0.34411 -0.04268 0.05225
 H115 H 0.24482 -0.05127 0.11789
 H116 H 0.19439 -0.13634 -0.07244
 H117 H 0.16056 -0.10728 -0.12371
 H118 H 0.18937 -0.00049 -0.07097
 H119 H 0.22289 -0.03248 -0.02153
 C120 C 0.34340 -0.16748 -0.05385
 C121 C 0.14179 -0.16869 0.05926
 C122 C 0.17112 -0.05113 -0.10202
 C123 C 0.29729 -0.04404 0.08974
 C124 C 0.19726 0.14314 0.43961
 H125 H 0.22026 0.13433 0.42267
 C126 C 0.16269 0.15297 0.42270
 H127 H 0.15953 0.15168 0.39286
 C128 C 0.17254 0.15328 0.49874
 H129 H 0.17585 0.15211 0.52832
 C130 C 0.13746 0.16357 0.48293
 H131 H 0.11444 0.16998 0.50085
 N132 N 0.20110 0.14187 0.47698
 C133 C 0.30856 0.12391 0.53837
 H134 H 0.30596 0.09415 0.53806
 C135 C 0.33986 0.14127 0.55634
 H136 H 0.36142 0.12420 0.56896
 C137 C 0.28425 0.18131 0.51971
 H138 H 0.26251 0.19656 0.50506
 C139 C 0.31542 0.19999 0.53751
 H140 H 0.31757 0.22974 0.53651
 Zn141 Zn 0.24258 0.11433 0.49678
 N142 N 0.28168 0.14387 0.52036
 C143 C 0.30003 0.09121 0.44851
 N144 N 0.26327 0.08585 0.45739
 C145 C 0.24042 0.06103 0.43780
 C146 C 0.25487 0.03910 0.40930
 C147 C 0.31544 0.07034 0.41975
 C148 C 0.21511 0.09905 0.56572
 C149 C 0.20045 0.07812 0.59336
 C150 C 0.20721 0.02348 0.55414
 C151 C 0.22186 0.04548 0.52729
 N152 N 0.22444 0.08276 0.53300
 H153 H 0.31755 0.11166 0.46369
 H154 H 0.21096 0.05803 0.44460
 H155 H 0.23659 0.01884 0.39454
 H156 H 0.34501 0.07437 0.41377
 H157 H 0.21938 0.12844 0.57052
 H158 H 0.19379 0.09201 0.61913
 H159 H 0.20471 -0.00607 0.54882
 H160 H 0.23102 0.03251 0.50203
 C161 C 0.34355 0.17992 0.55646
 C162 C 0.13185 0.16210 0.44433
 C163 C 0.19545 0.03979 0.58734
 C164 C 0.29275 0.04371 0.39996
 C165 C 0.13878 0.39596 0.22061
 H166 H 0.12069 0.37778 0.23503
 C167 C 0.15643 0.38226 0.18935
 H168 H 0.15218 0.35354 0.18069
 C169 C 0.16309 0.45595 0.21195
 H170 H 0.16386 0.48503 0.21988
 C171 C 0.18122 0.44336 0.18025
 H172 H 0.19600 0.46313 0.16437
 N173 N 0.14141 0.43244 0.23069
 C174 C 0.10045 0.48162 0.33297
 H175 H 0.07106 0.47420 0.32641
 C176 C 0.11034 0.49887 0.36684
 H177 H 0.08834 0.50446 0.38624
 C178 C 0.16437 0.48365 0.31505
 H179 H 0.18513 0.47750 0.29462
 C180 C 0.17559 0.50150 0.34887
 H181 H 0.20525 0.50855 0.35422
 Zn182 Zn 0.10576 0.45211 0.26374
 N183 N 0.12717 0.47457 0.30777
 C184 C 0.09161 0.38979 0.30188
 N185 N 0.07405 0.41392 0.27925
 C186 C 0.03588 0.41220 0.27181
 C187 C 0.01372 0.38544 0.28788
 C188 C 0.07072 0.36275 0.31840
 C189 C 0.07883 0.52361 0.25169
 C190 C 0.06182 0.55149 0.23171
 C191 C 0.04273 0.50598 0.18399
 C192 C 0.06014 0.47883 0.20500
 N193 N 0.07783 0.48809 0.23813
 H194 H 0.12193 0.39220 0.30773
 H195 H 0.02246 0.43205 0.25416
 H196 H -0.01652 0.38459 0.28146
 H197 H 0.08530 0.34419 0.33677
 H198 H 0.09349 0.53067 0.27774
 H199 H 0.06250 0.57931 0.24362
 H200 H 0.02898 0.49831 0.15751
 H201 H 0.06027 0.45047 0.19458
 C202 C 0.14809 0.50955 0.37513
 C203 C 0.17683 0.40619 0.16796
 C204 C 0.04414 0.54296 0.19697
 C205 C 0.03120 0.36066 0.31214
 C206 C -0.10903 0.00651 0.16605
 H207 H -0.07909 0.00350 0.17312
 C208 C -0.12020 0.02030 0.13214
 H209 H -0.09781 0.02616 0.11384
 C210 C -0.17303 -0.00028 0.18215
 H211 H -0.19337 -0.00845 0.20187
 C212 C -0.18566 0.01394 0.14836
 H213 H -0.21591 0.01670 0.14254
 N214 N -0.13516 -0.00304 0.19045
 C215 C -0.14057 -0.07988 0.27329
 H216 H -0.12007 -0.09588 0.25844
 C217 C -0.15816 -0.09552 0.30272
 H218 H -0.15191 -0.12383 0.30893
 C219 C -0.17232 -0.02340 0.28413
 H220 H -0.17640 0.00522 0.27768
 C221 C -0.19041 -0.03795 0.31403
 H222 H -0.20891 -0.02052 0.33009
 Zn223 Zn -0.11268 -0.01985 0.23501
 N224 N -0.14693 -0.04406 0.26526
 C225 C -0.09526 0.05557 0.25055
 N226 N -0.09223 0.02098 0.26344
 C227 C -0.07764 0.01525 0.29800
 C228 C -0.06539 0.04507 0.32118
 C229 C -0.08320 0.08610 0.27267
 C230 C -0.08474 -0.08051 0.19678
 C231 C -0.05840 -0.10606 0.18441
 C232 C -0.00947 -0.07351 0.22171
 C233 C -0.03692 -0.04846 0.23349
 N234 N -0.07385 -0.05280 0.22133
 H235 H -0.10773 0.05971 0.22336
 H236 H -0.07642 -0.01250 0.30786
 H237 H -0.05494 0.03957 0.34880
 H238 H -0.08609 0.11345 0.26196
 H239 H -0.11410 -0.08266 0.18680
 H240 H -0.06781 -0.12752 0.16446
 H241 H 0.01979 -0.07007 0.23178
 H242 H -0.02870 -0.02565 0.25225
 C243 C -0.18195 -0.07386 0.32471
 C244 C -0.15912 0.02539 0.12297
 C245 C -0.02029 -0.10317 0.19746
 C246 C -0.06809 0.08121 0.30850
 C247 C 0.35628 0.56956 0.72749
 H248 H 0.37090 0.58943 0.74602
 C249 C 0.33880 0.58166 0.69506
 H250 H 0.33905 0.61087 0.68997
 C251 C 0.33968 0.50750 0.71080
 H252 H 0.34162 0.47848 0.71643
 C253 C 0.32184 0.51846 0.67788
 H254 H 0.30945 0.49776 0.65855
 N255 N 0.35741 0.53294 0.73426
 C256 C 0.39365 0.48544 0.83842
 H257 H 0.42284 0.49496 0.83818
 C258 C 0.38112 0.46732 0.86877
 H259 H 0.40091 0.46398 0.89197
 C260 C 0.33246 0.48064 0.80878
 H261 H 0.31369 0.48624 0.78537
 C262 C 0.31867 0.46202 0.83871
 H263 H 0.28919 0.45320 0.83812
 Zn264 Zn 0.39240 0.51662 0.77102
 N265 N 0.36956 0.49144 0.80910
 C266 C 0.39658 0.57994 0.81598
 N267 N 0.41791 0.55805 0.79389
 C268 C 0.45514 0.56589 0.78901
 C269 C 0.47208 0.59745 0.80622
 C270 C 0.41229 0.61163 0.83365
 C271 C 0.42950 0.44894 0.75669
 C272 C 0.44976 0.42357 0.73551
 C273 C 0.46336 0.47186 0.69390
 C274 C 0.44285 0.49636 0.71594
 N275 N 0.42607 0.48448 0.74644
 H276 H 0.36707 0.57289 0.81947
 H277 H 0.47159 0.54798 0.77147
 H278 H 0.50139 0.60366 0.80096
 H279 H 0.39470 0.62889 0.85085
 H280 H 0.41559 0.43980 0.78070
 H281 H 0.45221 0.39559 0.74452
 H282 H 0.47587 0.48156 0.66926
 H283 H 0.43913 0.52460 0.70802
 C284 C 0.34332 0.45458 0.86893
 C285 C 0.32285 0.55576 0.66898
 C286 C 0.46613 0.43470 0.70301
 C287 C 0.45048 0.62075 0.82903
 C288 C 0.67016 0.97041 0.67795
 H289 H 0.69297 0.97898 0.69736
 C290 C 0.67842 0.95399 0.64356
 H291 H 0.70784 0.95039 0.63706
 C292 C 0.60415 0.96601 0.66269
 H293 H 0.57521 0.97095 0.67033
 C294 C 0.61102 0.94976 0.62832
 H295 H 0.58712 0.94218 0.60971
 N296 N 0.63341 0.97578 0.68679
 C297 C 0.65353 1.05494 0.77422
 H298 H 0.63292 1.07237 0.76084
 C299 C 0.67456 1.06909 0.80499
 H300 H 0.67087 1.09783 0.81305
 C301 C 0.68242 0.99662 0.77984
 H302 H 0.68403 0.96790 0.77084
 C303 C 0.70455 1.00988 0.81070
 H304 H 0.72346 0.99116 0.82485
 Zn305 Zn 0.61702 0.99861 0.73104
 N306 N 0.65655 1.01889 0.76314
 C307 C 0.57646 0.97446 0.79084
 N308 N 0.59079 0.96357 0.75798
 C309 C 0.58835 0.92779 0.74537
 C310 C 0.57022 0.90153 0.76566
 C311 C 0.55795 0.94905 0.81204
 C312 C 0.59831 1.06114 0.69282
 C313 C 0.57561 1.08909 0.67882
 C314 C 0.52342 1.06588 0.71262
 C315 C 0.54713 1.03822 0.72586
 N316 N 0.58395 1.03660 0.71606
 H317 H 0.57972 1.00290 0.80070
 H318 H 0.60092 0.91933 0.71981
 H319 H 0.56864 0.87313 0.75519
 H320 H 0.54745 0.95831 0.83836
 H321 H 0.62745 1.05861 0.68480
 H322 H 0.58772 1.10744 0.65961
 H323 H 0.49414 1.06678 0.72060
 H324 H 0.53590 1.01787 0.74351
 C325 C 0.69884 1.04587 0.82521
 C326 C 0.64841 0.94331 0.61824
 C327 C 0.53760 1.09193 0.68899
 C328 C 0.55447 0.91200 0.79927
 C329 C 0.07369 0.22850 -0.12936
 H330 H 0.08895 0.24821 -0.11113
 C331 C 0.09215 0.19665 -0.14137
 H332 H 0.12165 0.19275 -0.13283
 C333 C 0.01606 0.20781 -0.15966
 H334 H -0.01411 0.21151 -0.16493
 C335 C 0.03341 0.17534 -0.17214
 H336 H 0.01607 0.15472 -0.18732
 N337 N 0.03602 0.23295 -0.13764
 C338 C -0.03024 0.33138 -0.11413
 H339 H -0.02943 0.32852 -0.08455
 C340 C -0.04703 0.36213 -0.12929
 H341 H -0.05835 0.38305 -0.11083
 C342 C -0.01374 0.30822 -0.17324
 H343 H -0.00018 0.28724 -0.18997
 C344 C -0.03043 0.33886 -0.18974
 H345 H -0.02988 0.34131 -0.21935
 Zn346 Zn 0.00854 0.26725 -0.10893
 N347 N -0.01429 0.30510 -0.13603
 C348 C 0.06597 0.31645 -0.08705
 N349 N 0.04230 0.29102 -0.07345
 C350 C 0.04348 0.28381 -0.03694
 C351 C 0.07065 0.30136 -0.01289
 C352 C 0.09319 0.33483 -0.06403
 C353 C -0.06692 0.24624 -0.09470
 C354 C -0.09502 0.22300 -0.08227
 C355 C -0.04581 0.18599 -0.05422
 C356 C -0.01870 0.20995 -0.06736
 N357 N -0.02958 0.23948 -0.08697
 H358 H 0.06388 0.32216 -0.11609
 H359 H 0.02387 0.26410 -0.02651
 H360 H 0.07192 0.29475 0.01597
 H361 H 0.11114 0.35522 -0.07578
 H362 H -0.07508 0.26905 -0.11147
 H363 H -0.12452 0.22908 -0.08915
 H364 H -0.03526 0.16256 -0.03967
 H365 H 0.01124 0.20437 -0.06286
 C366 C -0.04785 0.36600 -0.16767
 C367 C 0.07176 0.16895 -0.16189
 C368 C -0.08498 0.19222 -0.06160
 C369 C 0.09656 0.32658 -0.02651
 C370 C 0.50032 0.19091 0.16239
 H371 H 0.50639 0.21299 0.18273
 C372 C 0.48190 0.15858 0.17246
 H373 H 0.47412 0.15626 0.20075
 C374 C 0.50385 0.16710 0.10091
 H375 H 0.51249 0.17070 0.07302
 C376 C 0.48591 0.13455 0.10971
 H377 H 0.48074 0.11322 0.08829
 N378 N 0.51045 0.19455 0.12696
 C379 C 0.58783 0.28357 0.14678
 H380 H 0.60909 0.26776 0.13273
 C381 C 0.59769 0.31803 0.16287
 H382 H 0.62683 0.32768 0.16218
 C383 C 0.52354 0.29181 0.16202
 H384 H 0.49430 0.28232 0.15956
 C385 C 0.53225 0.32649 0.17859
 H386 H 0.50972 0.34323 0.18959
 Zn387 Zn 0.53544 0.23581 0.10877
 N388 N 0.55097 0.27192 0.14523
 C389 C 0.51450 0.29235 0.06214
 N390 N 0.50194 0.26043 0.07612
 C391 C 0.46517 0.24903 0.07060
 C392 C 0.43922 0.27044 0.05090
 C393 C 0.48951 0.31458 0.04225
 C394 C 0.60243 0.19602 0.10410
 C395 C 0.63263 0.17856 0.08712
 C396 C 0.61254 0.20578 0.02990
 C397 C 0.58263 0.22263 0.04795
 N398 N 0.57802 0.21727 0.08433
 H399 H 0.54371 0.30113 0.06754
 H400 H 0.45553 0.22393 0.08243
 H401 H 0.41020 0.26064 0.04677
 H402 H 0.49979 0.34029 0.03195
 H403 H 0.59784 0.19202 0.13295
 H404 H 0.65138 0.16115 0.10310
 H405 H 0.61581 0.21088 0.00105
 H406 H 0.56276 0.23938 0.03268
 C407 C 0.56925 0.34076 0.17711
 C408 C 0.47431 0.12993 0.14568
 C409 C 0.63746 0.18258 0.04938
 C410 C 0.45113 0.30423 0.03728
 C411 C 0.99199 0.69626 0.65871
 H412 H 1.02215 0.69954 0.66506
 C413 C 0.97175 0.66740 0.67370
 H414 H 0.98695 0.64888 0.69154
 C415 C 0.93686 0.71458 0.62481
 H416 H 0.92351 0.73200 0.60471
 C417 C 0.91561 0.68636 0.63921
 H418 H 0.88601 0.68283 0.63027
 N419 N 0.97452 0.71861 0.63412
 C420 C 1.04308 0.81622 0.61509
 H421 H 1.04372 0.81189 0.58547
 C422 C 1.05899 0.84816 0.63186
 H423 H 1.07104 0.86842 0.61451
 C424 C 1.02375 0.79570 0.67263
 H425 H 1.00940 0.77531 0.68814
 C426 C 1.03940 0.82760 0.69070
 H427 H 1.03717 0.83160 0.72024
 Zn428 Zn 1.00424 0.75069 0.60665
 N429 N 1.02613 0.79065 0.63546
 C430 C 0.94902 0.79881 0.58254
 N431 N 0.97284 0.77235 0.56991
 C432 C 0.97434 0.76352 0.53322
 C433 C 0.94994 0.78062 0.50783
 C434 C 0.92458 0.81684 0.55820
 C435 C 1.08022 0.73199 0.59321
 C436 C 1.10945 0.71135 0.57829
 C437 C 1.06248 0.67028 0.54813
 C438 C 1.03402 0.69186 0.56367
 N439 N 1.04330 0.72234 0.58532
 H440 H 0.94909 0.80592 0.61177
 H441 H 0.99415 0.74311 0.52358
 H442 H 0.95088 0.77285 0.47877
 H443 H 0.90668 0.83829 0.56926
 H444 H 1.08724 0.75558 0.61134
 H445 H 1.13864 0.71974 0.58482
 H446 H 1.05403 0.64661 0.53065
 H447 H 1.00444 0.68432 0.55843
 C448 C 1.05772 0.85410 0.67028
 C449 C 0.93309 0.66169 0.66324
 C450 C 1.10094 0.68010 0.55536
 C451 C 0.92408 0.80713 0.52027
 C452 C 0.51908 0.71031 0.32946
 H453 H 0.52952 0.73705 0.32227
 C454 C 0.53759 0.67839 0.31681
 H455 H 0.56175 0.68112 0.29964
 C456 C 0.47793 0.67432 0.36376
 H457 H 0.45574 0.67231 0.38312
 C458 C 0.49563 0.64204 0.35204
 H459 H 0.48626 0.61591 0.36216
 N460 N 0.49015 0.70784 0.35308
 C461 C 0.41477 0.80154 0.35770
 H462 H 0.40068 0.79150 0.38118
 C463 C 0.40015 0.83238 0.34058
 H464 H 0.37375 0.84328 0.35024
 C465 C 0.46630 0.79933 0.31803
 H466 H 0.49278 0.78725 0.31011
 C467 C 0.45256 0.83031 0.29993
 H468 H 0.46866 0.84126 0.27797
 Zn469 Zn 0.46985 0.75021 0.37840
 N470 N 0.44762 0.78585 0.34677
 C471 C 0.50069 0.80793 0.42370
 N472 N 0.50906 0.77488 0.40715
 C473 C 0.54466 0.76072 0.41008
 C474 C 0.57383 0.78058 0.42935
 C475 C 0.52898 0.82870 0.44328
 C476 C 0.39918 0.71972 0.39361
 C477 C 0.37215 0.70293 0.41451
 C478 C 0.41395 0.71282 0.46857
 C479 C 0.44001 0.73013 0.44669
 N480 N 0.43238 0.73285 0.40984
 H481 H 0.47207 0.81844 0.42117
 H482 H 0.55056 0.73402 0.39746
 H483 H 0.60174 0.76844 0.43166
 H484 H 0.52194 0.85520 0.45589
 H485 H 0.39416 0.72155 0.36413
 H486 H 0.34604 0.69229 0.40105
 H487 H 0.42054 0.71069 0.49779
 H488 H 0.46681 0.74030 0.45889
 C489 C 0.41997 0.84845 0.31223
 C490 C 0.52624 0.64376 0.32888
 C491 C 0.37975 0.69850 0.45223
 C492 C 0.56629 0.81549 0.44563
 C493 C 0.36732 -0.00962 0.19219
 C494 C 0.38469 0.00776 0.22387
 C495 C 0.40650 0.04000 0.22056
 C496 C 0.41187 0.05438 0.18586
 C497 C 0.39363 0.03704 0.15447
 C498 C 0.37093 0.00548 0.15739
 C499 C 0.37768 -0.00620 0.26073
 C500 C 0.38518 -0.04315 0.26898
 C501 C 0.37675 -0.05644 0.30380
 C502 C 0.35921 -0.03246 0.32923
 C503 C 0.35199 0.00442 0.32130
 C504 C 0.36205 0.01755 0.28736
 H505 H 0.35047 -0.03440 0.19495
 H506 H 0.41963 0.05368 0.24502
 H507 H 0.39715 -0.06102 0.24803
 H508 H 0.35637 0.04603 0.28110
 H509 H 0.39573 0.04888 0.12770
 H510 H 0.35257 -0.04208 0.35614
 C511 C 0.13292 1.01990 0.70406
 C512 C 0.11673 0.99853 0.73081
 C513 C 0.10695 0.96141 0.72213
 C514 C 0.11306 0.94596 0.68669
 C515 C 0.13023 0.96765 0.66067
 C516 C 0.14036 1.00462 0.66920
 C517 C 0.11154 1.01535 0.76802
 C518 C 0.09462 1.05010 0.77177
 C519 C 0.09466 1.06900 0.80608
 C520 C 0.11091 1.05231 0.83727
 C521 C 0.12670 1.01679 0.83450
 C522 C 0.12697 0.99859 0.79937
 H523 H 0.14081 1.04841 0.71082
 H524 H 0.09469 0.94495 0.74292
 H525 H 0.08246 1.06300 0.74760
 H526 H 0.14130 0.97256 0.79541
 H527 H 0.13427 0.95593 0.63324
 H528 H 0.11026 1.06657 0.86404
 C529 C 0.62283 0.51664 0.18099
 C530 C 0.60948 0.49745 0.21067
 C531 C 0.60081 0.45964 0.20606
 C532 C 0.60571 0.44088 0.17207
 C533 C 0.61949 0.46042 0.14273
 C534 C 0.62843 0.49831 0.14663
 C535 C 0.60817 0.51620 0.24753
 C536 C 0.59090 0.55076 0.25230
 C537 C 0.58960 0.56788 0.28757
 C538 C 0.60746 0.55097 0.31792
 C539 C 0.62587 0.51693 0.31320
 C540 C 0.62547 0.49965 0.27803
 H541 H 0.63057 0.54524 0.18623
 H542 H 0.59147 0.44486 0.22942
 H543 H 0.57735 0.56370 0.22882
 H544 H 0.63953 0.47336 0.27416
 H545 H 0.62389 0.44567 0.11670
 H546 H 0.60663 0.56432 0.34502
 C547 C 0.86716 0.50008 0.71183
 C548 C 0.88502 0.51890 0.74225
 C549 C 0.90230 0.55342 0.73779
 C550 C 0.90134 0.56938 0.70311
 C551 C 0.88232 0.55045 0.67298
 C552 C 0.86490 0.51603 0.67740
 C553 C 0.88230 0.50369 0.77911
 C554 C 0.89691 0.46866 0.78661
 C555 C 0.89120 0.45313 0.82090
 C556 C 0.87017 0.47278 0.84704
 C557 C 0.85558 0.50777 0.83981
 C558 C 0.86176 0.52303 0.80575
 H559 H 0.85343 0.47364 0.71539
 H560 H 0.91627 0.56790 0.76136
 H561 H 0.91186 0.45361 0.76546
 H562 H 0.84986 0.54969 0.79961
 H563 H 0.88215 0.56162 0.64576
 H564 H 0.86474 0.46043 0.87303
 C565 C 0.22736 0.37339 -0.00259
 C566 C 0.25881 0.38559 0.01962
 C567 C 0.25379 0.39716 0.05647
 C568 C 0.21757 0.39624 0.07113
 C569 C 0.18623 0.38381 0.04844
 C570 C 0.19103 0.37173 0.01166
 C571 C 0.29713 0.38335 0.00469
 C572 C 0.30534 0.40097 -0.02787
 C573 C 0.34088 0.39620 -0.04373
 C574 C 0.36778 0.37325 -0.02665
 C575 C 0.36001 0.35569 0.00612
 C576 C 0.32457 0.36109 0.02157
 H577 H 0.23150 0.36389 -0.03082
 H578 H 0.27811 0.40644 0.07377
 H579 H 0.28395 0.41837 -0.04022
 H580 H 0.31783 0.34709 0.04635
 H581 H 0.15811 0.38456 0.05932
 H582 H 0.39452 0.36870 -0.03961
 C583 C 0.73068 0.12119 0.99141
 C584 C 0.75689 0.10101 0.97089
 C585 C 0.74681 0.08790 0.93471
 C586 C 0.71064 0.09556 0.91878
 C587 C 0.68528 0.11662 0.93964
 C588 C 0.69461 0.12923 0.97587
 C589 C 0.79627 0.09784 0.98606
 C590 C 0.80425 0.07834 1.01820
 C591 C 0.84163 0.07763 1.03377
 C592 C 0.87036 0.09706 1.01661
 C593 C 0.86244 0.11854 0.98594
 C594 C 0.82522 0.11783 0.97017
 H595 H 0.73954 0.13190 1.01865
 H596 H 0.76776 0.07325 0.91896
 H597 H 0.78121 0.06394 1.03038
 H598 H 0.81800 0.13278 0.94571
 H599 H 0.65750 0.12310 0.92763
 H600 H 0.89917 0.09703 1.02850
 C601 C 0.20038 0.61255 0.52241
 C602 C 0.23227 0.59763 0.50574
 C603 C 0.22780 0.57759 0.47196
 C604 C 0.19150 0.57144 0.45539
 C605 C 0.15977 0.58753 0.47197
 C606 C 0.16408 0.60876 0.50503
 C607 C 0.27040 0.60514 0.52285
 C608 C 0.27895 0.59558 0.55930
 C609 C 0.31462 0.60457 0.57630
 C610 C 0.34088 0.62483 0.55684
 C611 C 0.33230 0.63541 0.52067
 C612 C 0.29728 0.62432 0.50347
 H613 H 0.20427 0.62777 0.54858
 H614 H 0.25253 0.56625 0.45896
 H615 H 0.25749 0.58162 0.57422
 H616 H 0.29025 0.63092 0.47522
 H617 H 0.13180 0.58490 0.45848
 H618 H 0.36812 0.63264 0.57004
 C619 C 0.69975 0.85890 0.46297
 C620 C 0.73077 0.87643 0.48192
 C621 C 0.72571 0.89408 0.51643
 C622 C 0.69012 0.89419 0.53227
 C623 C 0.65942 0.87539 0.51344
 C624 C 0.66396 0.85784 0.47856
 C625 C 0.76930 0.87316 0.46753
 C626 C 0.77682 0.88241 0.43133
 C627 C 0.81378 0.87876 0.41822
 C628 C 0.84262 0.86430 0.44140
 C629 C 0.83510 0.85422 0.47742
 C630 C 0.79853 0.85939 0.49025
 H631 H 0.70395 0.84459 0.43669
 H632 H 0.74975 0.90754 0.53117
 H633 H 0.75383 0.89234 0.41378
 H634 H 0.79239 0.85169 0.51796
 H635 H 0.63277 0.87290 0.52681
 H636 H 0.87102 0.86178 0.43139
 C637 C -0.04483 0.18107 0.38320
 C638 C -0.03055 0.21373 0.40065
 C639 C 0.00468 0.21362 0.42026
 C640 C 0.02607 0.18127 0.42176
 C641 C 0.01153 0.14865 0.40404
 C642 C -0.02349 0.14843 0.38410
 C643 C -0.04880 0.24909 0.39262
 C644 C -0.08335 0.25944 0.40780
 C645 C -0.09963 0.29364 0.39974
 C646 C -0.08163 0.31642 0.37491
 C647 C -0.04684 0.30657 0.36011
 C648 C -0.03096 0.27245 0.36877
 H649 H -0.07190 0.18169 0.36795
 H650 H 0.01623 0.23916 0.43282
 H651 H -0.09692 0.24139 0.42648
 H652 H -0.00503 0.26322 0.35655
 H653 H 0.02795 0.12351 0.40505
 H654 H -0.09439 0.34220 0.36715
 C655 C 1.03498 0.67241 0.15845
 C656 C 1.01580 0.70278 0.14431
 C657 C 0.97884 0.69823 0.12884
 C658 C 0.96065 0.66362 0.12754
 C659 C 0.97981 0.63359 0.14271
 C660 C 1.01705 0.63763 0.15823
 C661 C 1.03278 0.74015 0.14757
 C662 C 1.06694 0.74822 0.13099
 C663 C 1.07922 0.78499 0.12902
 C664 C 1.05817 0.81351 0.14581
 C665 C 1.02443 0.80545 0.16341
 C666 C 1.01214 0.76872 0.16405
 H667 H 1.06329 0.67628 0.17102
 H668 H 0.96433 0.72224 0.11883
 H669 H 1.08239 0.72627 0.11730
 H670 H 0.98557 0.76226 0.17655
 H671 H 0.96488 0.60747 0.14323
 H672 H 1.06749 0.84183 0.14386
 C673 C 0.51027 0.21540 0.64113
 C674 C 0.48643 0.24277 0.62708
 C675 C 0.44903 0.23351 0.61463
 C676 C 0.43577 0.19688 0.61607
 C677 C 0.45986 0.17012 0.63101
 C678 C 0.49707 0.17915 0.64390
 C679 C 0.50069 0.28123 0.62738
 C680 C 0.53472 0.28951 0.61053
 C681 C 0.55007 0.32534 0.61327
 C682 C 0.53188 0.35266 0.63466
 C683 C 0.49768 0.34480 0.65172
 C684 C 0.48215 0.30901 0.64742
 H685 H 0.53895 0.22269 0.65101
 H686 H 0.43054 0.25476 0.60413
 H687 H 0.54912 0.26801 0.59508
 H688 H 0.45630 0.30225 0.66101
 H689 H 0.44971 0.14188 0.63133
 H690 H 0.54530 0.37944 0.63892
 C691 C 0.49803 0.72948 0.87377
 C692 C 0.51381 0.76138 0.89163
 C693 C 0.54985 0.75994 0.90949
 C694 C 0.57056 0.72716 0.90886
 C695 C 0.55453 0.69537 0.89077
 C696 C 0.51822 0.69612 0.87342
 C697 C 0.49416 0.79700 0.88877
 C698 C 0.45683 0.80140 0.90026
 C699 C 0.43821 0.83534 0.89629
 C700 C 0.45692 0.86412 0.87927
 C701 C 0.49375 0.85959 0.86671
 C702 C 0.51260 0.82626 0.87265
 H703 H 0.47086 0.73140 0.85894
 H704 H 0.56202 0.78457 0.92338
 H705 H 0.44256 0.77829 0.91187
 H706 H 0.54148 0.82257 0.86417
 H707 H 0.56985 0.66958 0.89103
 H708 H 0.44250 0.89005 0.87521
 C709 C 0.40945 -0.11747 0.29731
 C710 C 0.38524 -0.09235 0.31499
 H711 H 0.42412 -0.10884 0.27348
 H712 H 0.37489 -0.09936 0.34143
 C713 C 0.93500 0.39905 0.81567
 C714 C 0.90589 0.41658 0.83116
 H715 H 0.94755 0.40946 0.79141
 H716 H 0.89320 0.40451 0.85460
 C717 C 0.09029 1.13272 0.83208
 C718 C 0.07677 1.10578 0.80870
 H719 H 0.11630 1.12793 0.84815
 H720 H 0.05294 1.11087 0.78987
 C721 C 0.54754 0.60940 0.32154
 C722 C 0.56906 0.60312 0.29245
 H723 H 0.54428 0.58757 0.34077
 H724 H 0.56981 0.62284 0.27086
 C725 C 0.57675 0.38023 0.18690
 C726 C 0.59925 0.40056 0.16649
 H727 H 0.56038 0.39326 0.20826
 H728 H 0.61215 0.38736 0.14286
 C729 C 0.07292 0.88882 0.68864
 C730 C 0.10164 0.90774 0.67484
 H731 H 0.05886 0.89956 0.71268
 H732 H 0.11586 0.89589 0.65136
 C733 C 0.91099 0.62861 0.67294
 C734 C 0.92197 0.60467 0.69848
 H735 H 0.88442 0.62340 0.65741
 H736 H 0.94652 0.61075 0.71667
 C737 C 0.45423 0.09500 0.15291
 C738 C 0.43482 0.08858 0.18303
 H739 H 0.45448 0.07367 0.13118
 H740 H 0.43524 0.10843 0.20604
 C741 C 0.32901 0.43463 -0.09936
 C742 C 0.35216 0.41511 -0.07726
 H743 H 0.29884 0.43552 -0.09510
 H744 H 0.38160 0.41224 -0.08421
 C745 C 0.80394 0.91303 0.35996
 C746 C 0.82377 0.88930 0.38067
 H747 H 0.77902 0.92621 0.37063
 H748 H 0.85056 0.87912 0.37105
 C749 C 0.82792 0.04174 1.08995
 C750 C 0.85225 0.05943 1.06623
 H751 H 0.79758 0.04230 1.08410
 H752 H 0.88203 0.06141 1.07420
 C753 C 0.30911 0.56661 0.63183
 C754 C 0.32508 0.59460 0.61461
 H755 H 0.28804 0.54899 0.61728
 H756 H 0.34881 0.60956 0.62820
 C757 C 0.15638 0.52906 0.41125
 C758 C 0.18746 0.54962 0.42000
 H759 H 0.13450 0.52759 0.43127
 H760 H 0.21047 0.55075 0.40125
 C761 C 0.71517 0.05694 0.86017
 C762 C 0.69851 0.08430 0.88259
 H763 H 0.73770 0.04038 0.87195
 H764 H 0.67172 0.09547 0.87273
 C765 C 0.65387 0.92604 0.58105
 C766 C 0.68667 0.91220 0.56944
 H767 H 0.62906 0.92444 0.56238
 H768 H 0.71216 0.91448 0.58707
 C769 C 0.18788 0.39234 0.13099
 C770 C 0.21244 0.40919 0.10981
 H771 H 0.17403 0.36713 0.12016
 H772 H 0.22942 0.43240 0.12081
 C773 C -0.14147 0.34146 0.42543
 C774 C -0.13487 0.30561 0.41787
 H775 H -0.11999 0.36141 0.41887
 H776 H -0.15463 0.28465 0.42578
 C777 C 0.38168 0.82255 0.93357
 C778 C 0.39885 0.84170 0.90793
 H779 H 0.39708 0.80146 0.94810
 H780 H 0.38434 0.86510 0.89642
 C781 C 1.11101 0.82139 0.08372
 C782 C 1.11220 0.79339 0.10671
 H783 H 1.08522 0.83745 0.08160
 H784 H 1.13585 0.77452 0.10686
 C785 C 0.59207 0.36658 0.58059
 C786 C 0.58554 0.33344 0.59425
 H787 H 0.57037 0.38747 0.58282
 H788 H 0.60506 0.31106 0.58923
 C789 C 0.37767 0.19896 0.57404
 C790 C 0.39726 0.18462 0.60252
 H791 H 0.38771 0.22388 0.56200
 H792 H 0.38618 0.16022 0.61474
 C793 C 0.90215 0.68188 0.09131
 C794 C 0.92112 0.65791 0.11243
 H795 H 0.91605 0.70658 0.08272
 H796 H 0.90775 0.63178 0.11775
 C797 C 0.63593 0.70428 0.91764
 C798 C 0.60775 0.72588 0.92919
 H799 H 0.63284 0.69044 0.89065
 H800 H 0.61147 0.74279 0.95432
 C801 C 0.09373 0.16518 0.42582
 C802 C 0.06406 0.18209 0.44084
 H803 H 0.08988 0.15249 0.39835
 H804 H 0.06778 0.19808 0.46656
 C805 C 0.51150 0.12025 0.67429
 C806 C 0.52333 0.15133 0.65923
 H807 H 0.48141 0.11563 0.67727
 H808 H 0.55338 0.15777 0.65937
 C809 C 1.02600 0.57172 0.17448
 C810 C 1.03678 0.60739 0.17745
 H811 H 1.00390 0.56273 0.15450
 H812 H 1.06140 0.61519 0.19498
 C813 C 1.00831 0.86962 0.18547
 C814 C 0.99870 0.83421 0.17786
 H815 H 1.03754 0.87874 0.18425
 H816 H 0.96997 0.82534 0.18283
 C817 C 0.48609 0.40851 0.67820
 C818 C 0.47840 0.37210 0.67605
 H819 H 0.50599 0.42023 0.65994
 H820 H 0.45594 0.36148 0.69224
 C821 C 0.46594 0.65519 0.84751
 C822 C 0.50313 0.66187 0.85423
 H823 H 0.44550 0.67490 0.85754
 H824 H 0.52349 0.64081 0.84725
 C825 C -0.05683 0.11457 0.33153
 C826 C -0.03605 0.11415 0.36336
 H827 H -0.06466 0.14092 0.32056
 H828 H -0.02512 0.08841 0.37324
 C829 C 0.01006 0.33272 0.33214
 C830 C -0.02763 0.33282 0.33636
 H831 H 0.02728 0.31282 0.34647
 H832 H -0.04475 0.35442 0.32468
 C833 C 0.53643 0.88309 0.82053
 C834 C 0.51177 0.88980 0.84712
 H835 H 0.54248 0.85475 0.81242
 H836 H 0.50246 0.91768 0.85307
 C837 C 0.65545 0.55292 0.11668
 C838 C 0.64472 0.51547 0.11673
 H839 H 0.64657 0.57098 0.13897
 H840 H 0.64977 0.49787 0.09280
 C841 C 0.17892 1.01588 0.61490
 C842 C 0.15726 1.02863 0.64205
 H843 H 0.18433 0.98658 0.61207
 H844 H 0.15186 1.05785 0.64529
 C845 C 0.15208 0.96396 0.86917
 C846 C 0.14300 1.00148 0.86655
 H847 H 0.14156 0.94524 0.84703
 H848 H 0.14648 1.01956 0.89089
 C849 C 0.65585 0.51327 0.37669
 C850 C 0.64466 0.49741 0.34397
 H851 H 0.65292 0.54272 0.38151
 H852 H 0.65106 0.46866 0.33839
 C853 C 0.82158 0.51258 0.62216
 C854 C 0.84463 0.49582 0.64642
 H855 H 0.81667 0.54197 0.62556
 H856 H 0.84623 0.46596 0.64553
 C857 C 0.31783 -0.02830 0.12346
 C858 C 0.35148 -0.01070 0.12344
 H859 H 0.30387 -0.03045 0.14932
 H860 H 0.36432 -0.00544 0.09762
 C861 C 0.30838 0.01912 0.37108
 C862 C 0.33539 0.02996 0.34884
 H863 H 0.29637 -0.00845 0.36731
 H864 H 0.34464 0.05856 0.34982
 C865 C 0.83908 0.52635 0.90325
 C866 C 0.83254 0.52818 0.86678
 H867 H 0.86305 0.51083 0.91383
 H868 H 0.81126 0.54698 0.85632
 C869 C 0.13323 0.65948 0.53978
 C870 C 0.13041 0.62719 0.52040
 H871 H 0.16102 0.67227 0.54426
 H872 H 0.10297 0.61448 0.51393
 C873 C 0.66812 0.16179 1.03128
 C874 C 0.66595 0.15170 0.99531
 H875 H 0.69142 0.15256 1.04882
 H876 H 0.64081 0.15889 0.97907
 C877 C 0.88686 0.17013 0.94973
 C878 C 0.89207 0.14049 0.97325
 H879 H 0.85805 0.17715 0.94141
 H880 H 0.92004 0.13581 0.98537
 C881 C 0.35138 0.67878 0.47322
 C882 C 0.36067 0.65744 0.50154
 H883 H 0.32207 0.68067 0.46340
 H884 H 0.39010 0.65593 0.51126
 C885 C 0.59619 0.83835 0.46575
 C886 C 0.63323 0.83569 0.45874
 H887 H 0.58687 0.85916 0.48543
 H888 H 0.64168 0.81712 0.43656
 C889 C 0.12662 0.34343 -0.00113
 C890 C 0.15920 0.35732 -0.01301
 H891 H 0.12273 0.34179 0.02816
 H892 H 0.16436 0.35578 -0.04218
 C893 C 0.42454 0.32933 0.01813
 C894 C 0.38718 0.33020 0.02414
 H895 H 0.43688 0.34921 0.00058
 H896 H 0.37589 0.31250 0.04446
 C897 C 0.89716 0.82397 0.49329
 C898 C 0.86417 0.83891 0.50321
 H899 H 0.90376 0.82169 0.46448
 H900 H 0.85653 0.83802 0.53170
   
