data_POSCAR
  _audit_creation_date              2014-09-24
  _audit_creation_method            'ToBaCCo'
  _symmetry_space_group_name_H-M    'P1'
  _symmetry_Int_Tables_number       1
  _symmetry_cell_setting            triclinic
  loop_
  _symmetry_equiv_pos_as_xyz
 x,y,z
_cell_length_a 42.5883
_cell_length_b 44.0837
_cell_length_c 44.7074
_cell_angle_alpha 91.272300
_cell_angle_beta 90.644600
_cell_angle_gamma 88.086900
loop_
  _atom_site_label
  _atom_site_type_symbol
  _atom_site_fract_x
  _atom_site_fract_y
  _atom_site_fract_z
C1 C 0.25733 0.27864 0.23588
 C2 C 0.28014 0.28098 0.21381
 C3 C 0.30596 0.26043 0.21243
 C4 C 0.30910 0.23746 0.23372
 C5 C 0.28649 0.23495 0.25608
 C6 C 0.26048 0.25561 0.25718
 C7 C 0.23154 0.29914 0.23706
 C8 C 0.20904 0.29741 0.25956
 C9 C 0.21214 0.27435 0.28079
 C10 C 0.23773 0.25339 0.27969
 C11 C 0.24103 0.23034 0.30077
 C12 C 0.26683 0.20951 0.29965
 C13 C 0.28957 0.21223 0.27746
 H14 H 0.27777 0.29883 0.19754
 H15 H 0.32935 0.22194 0.23340
 H16 H 0.22914 0.31683 0.22062
 H17 H 0.19451 0.27230 0.29782
 H18 H 0.22383 0.22914 0.31831
 H19 H 0.30960 0.19638 0.27670
 C20 C 0.73368 -0.27552 0.22750
 C21 C 0.71455 -0.27353 0.20186
 C22 C 0.69189 -0.24976 0.19871
 C23 C 0.68850 -0.22788 0.22214
 C24 C 0.70736 -0.22974 0.24805
 C25 C 0.73002 -0.25364 0.25072
 C26 C 0.75648 -0.29908 0.23021
 C27 C 0.77565 -0.30145 0.25599
 C28 C 0.77153 -0.27947 0.27922
 C29 C 0.74899 -0.25569 0.27666
 C30 C 0.74536 -0.23378 0.29967
 C31 C 0.72323 -0.20953 0.29699
 C32 C 0.70398 -0.20797 0.27134
 H33 H 0.71747 -0.29058 0.18414
 H34 H 0.67104 -0.20960 0.22093
 H35 H 0.75924 -0.31571 0.21209
 H36 H 0.78599 -0.27996 0.29920
 H37 H 0.75958 -0.23593 0.31978
 H38 H 0.68672 -0.18946 0.26931
 C39 C 0.75020 0.27056 0.76967
 C40 C 0.72797 0.27055 0.79270
 C41 C 0.70317 0.25005 0.79163
 C42 C 0.70108 0.22969 0.76708
 C43 C 0.72293 0.22962 0.74396
 C44 C 0.74767 0.25004 0.74521
 C45 C 0.77494 0.29078 0.77080
 C46 C 0.79715 0.29123 0.74771
 C47 C 0.79441 0.27039 0.72336
 C48 C 0.76990 0.24983 0.72204
 C49 C 0.76725 0.22900 0.69790
 C50 C 0.74259 0.20848 0.69673
 C51 C 0.72042 0.20924 0.71968
 H52 H 0.73068 0.28625 0.81138
 H53 H 0.68222 0.21372 0.76587
 H54 H 0.77670 0.30651 0.78972
 H55 H 0.81122 0.26946 0.70545
 H56 H 0.78409 0.22919 0.67995
 H57 H 0.70134 0.19353 0.71882
 C58 C 0.23026 -0.25787 0.76696
 C59 C 0.25191 -0.25221 0.79020
 C60 C 0.27214 -0.22766 0.78881
 C61 C 0.27009 -0.20848 0.76419
 C62 C 0.24878 -0.21397 0.74072
 C63 C 0.22877 -0.23876 0.74208
 C64 C 0.21008 -0.28233 0.76826
 C65 C 0.18848 -0.28837 0.74494
 C66 C 0.18717 -0.26891 0.72018
 C67 C 0.20712 -0.24426 0.71866
 C68 C 0.20574 -0.22499 0.69403
 C69 C 0.22592 -0.20053 0.69229
 C70 C 0.24718 -0.19499 0.71595
 H71 H 0.25252 -0.26667 0.80947
 H72 H 0.28548 -0.18943 0.76314
 H73 H 0.21143 -0.29691 0.78751
 H74 H 0.17070 -0.27224 0.70199
 H75 H 0.18909 -0.22914 0.67598
 H76 H 0.26215 -0.17564 0.71552
 C77 C 0.73659 -0.28547 0.75508
 C78 C 0.71505 -0.28694 0.77854
 C79 C 0.69273 -0.26326 0.78385
 C80 C 0.69174 -0.23810 0.76492
 C81 C 0.71313 -0.23624 0.74145
 C82 C 0.73561 -0.26000 0.73650
 C83 C 0.75905 -0.30906 0.74992
 C84 C 0.78055 -0.30764 0.72615
 C85 C 0.77888 -0.28225 0.70761
 C86 C 0.75691 -0.25842 0.71276
 C87 C 0.75599 -0.23302 0.69442
 C88 C 0.73405 -0.20897 0.69954
 C89 C 0.71237 -0.21100 0.72279
 H90 H 0.71575 -0.30648 0.79288
 H91 H 0.67408 -0.22010 0.76791
 H92 H 0.75907 -0.32843 0.76430
 H93 H 0.79512 -0.28076 0.68920
 H94 H 0.77206 -0.23238 0.67586
 H95 H 0.69514 -0.19269 0.72656
 C96 C 0.26872 0.26719 0.76726
 C97 C 0.29021 0.26509 0.79124
 C98 C 0.31347 0.24163 0.79176
 C99 C 0.31474 0.22011 0.76815
 C100 C 0.29341 0.22191 0.74410
 C101 C 0.27025 0.24550 0.74361
 C102 C 0.24558 0.29055 0.76666
 C103 C 0.22413 0.29283 0.74265
 C104 C 0.22560 0.27094 0.71922
 C105 C 0.24851 0.24727 0.71958
 C106 C 0.24996 0.22526 0.69637
 C107 C 0.27301 0.20162 0.69687
 C108 C 0.29480 0.20036 0.72062
 H109 H 0.28826 0.28143 0.80960
 H110 H 0.33247 0.20187 0.76850
 H111 H 0.24434 0.30718 0.78489
 H112 H 0.20866 0.27177 0.70101
 H113 H 0.23354 0.22693 0.67777
 H114 H 0.31268 0.18225 0.72097
 C115 C 0.24803 -0.28304 0.22574
 C116 C 0.27069 -0.28364 0.20320
 C117 C 0.29083 -0.25925 0.19979
 C118 C 0.28832 -0.23424 0.22011
 C119 C 0.26592 -0.23345 0.24296
 C120 C 0.24565 -0.25789 0.24567
 C121 C 0.22761 -0.30719 0.22856
 C122 C 0.20500 -0.30685 0.25134
 C123 C 0.20269 -0.28133 0.27092
 C124 C 0.22277 -0.25707 0.26819
 C125 C 0.22010 -0.23186 0.28770
 C126 C 0.24037 -0.20764 0.28555
 C127 C 0.26330 -0.20848 0.26308
 H128 H 0.27233 -0.30309 0.18793
 H129 H 0.30378 -0.21540 0.21883
 H130 H 0.22955 -0.32646 0.21310
 H131 H 0.18488 -0.27945 0.28792
 H132 H 0.20234 -0.23121 0.30493
 H133 H 0.27859 -0.18955 0.26075
 C134 C 0.75942 0.26549 0.24055
 C135 C 0.73433 0.26482 0.22001
 C136 C 0.71243 0.24174 0.22090
 C137 C 0.71593 0.21897 0.24220
 C138 C 0.74149 0.21878 0.26229
 C139 C 0.76312 0.24234 0.26168
 C140 C 0.78053 0.28924 0.24062
 C141 C 0.80500 0.29072 0.26198
 C142 C 0.80914 0.26682 0.28232
 C143 C 0.78844 0.24275 0.28220
 C144 C 0.79262 0.21915 0.30251
 C145 C 0.77144 0.19547 0.30313
 C146 C 0.74580 0.19545 0.28295
 H147 H 0.73127 0.28274 0.20390
 H148 H 0.69894 0.20121 0.24283
 H149 H 0.77726 0.30716 0.22451
 H150 H 0.82855 0.26627 0.29809
 H151 H 0.81229 0.21931 0.31813
 H152 H 0.72959 0.17706 0.28268
 O153 O 0.27210 0.03172 0.46311
 O154 O 0.28183 -0.02802 0.51931
 O155 O 0.28400 -0.02656 0.46093
 O156 O 0.27171 0.03057 0.52115
 O157 O 0.22063 0.02349 0.51948
 O158 O 0.23295 -0.03378 0.45891
 O159 O 0.23079 -0.03527 0.51733
 O160 O 0.22103 0.02447 0.46150
 Cu161 Cu 0.28254 0.00257 0.49133
 Cu162 Cu 0.22125 -0.00613 0.48915
 C163 C 0.24481 0.03833 0.45287
 C164 C 0.25790 -0.04171 0.52799
 C165 C 0.26058 -0.03971 0.44946
 C166 C 0.24416 0.03696 0.53045
 O167 O 0.74431 0.02430 0.53212
 O168 O 0.73966 -0.03953 0.47708
 O169 O 0.74506 -0.03491 0.53534
 O170 O 0.73485 0.01920 0.47470
 O171 O 0.78630 0.01977 0.46906
 O172 O 0.79655 -0.03503 0.53012
 O173 O 0.79121 -0.03909 0.47224
 O174 O 0.79579 0.02398 0.52652
 Cu175 Cu 0.73582 -0.00781 0.50547
 Cu176 Cu 0.79761 -0.00758 0.49897
 C177 C 0.77101 0.03507 0.53844
 C178 C 0.76492 -0.04999 0.46522
 C179 C 0.77236 -0.04434 0.54304
 C180 C 0.75867 0.02874 0.46155
 O181 O 0.48135 0.27143 0.04213
 O182 O 0.54046 0.28718 -0.01435
 O183 O 0.47928 0.28510 -0.01429
 O184 O 0.54214 0.27302 0.04195
 O185 O 0.54653 0.22467 0.02799
 O186 O 0.48160 0.23614 -0.02597
 O187 O 0.54232 0.23863 -0.02776
 O188 O 0.48537 0.22249 0.03061
 Cu189 Cu 0.51045 0.28410 0.01511
 Cu190 Cu 0.51414 0.22556 -0.00001
 C191 C 0.47357 0.24430 0.04624
 C192 C 0.55135 0.26555 -0.03077
 C193 C 0.46969 0.26261 -0.02966
 C194 C 0.55527 0.24686 0.04424
 O195 O 0.52248 0.75538 0.02081
 O196 O 0.45981 0.74267 -0.03464
 O197 O 0.52040 0.74976 -0.03740
 O198 O 0.46185 0.75041 0.02334
 O199 O 0.45479 0.79997 0.01872
 O200 O 0.51302 0.79937 -0.04115
 O201 O 0.45244 0.79219 -0.03921
 O202 O 0.51510 0.80498 0.01710
 Cu203 Cu 0.49187 0.74458 -0.00662
 Cu204 Cu 0.48313 0.80407 -0.01169
 C205 C 0.52929 0.78224 0.02868
 C206 C 0.44539 0.76515 -0.04633
 C207 C 0.52668 0.77467 -0.04949
 C208 C 0.44854 0.77549 0.03141
 O209 O 0.02757 0.47426 0.33276
 O210 O -0.03497 0.53386 0.33133
 O211 O -0.03322 0.47465 0.33261
 O212 O 0.02623 0.53326 0.33055
 O213 O 0.02570 0.53042 0.28116
 O214 O -0.03435 0.47251 0.28320
 O215 O -0.03579 0.53154 0.28192
 O216 O 0.02651 0.47149 0.28336
 Cu217 Cu -0.00356 0.50438 0.33678
 Cu218 Cu -0.00458 0.50136 0.27743
 C219 C 0.03750 0.46254 0.30833
 C220 C -0.04608 0.54280 0.30647
 C221 C -0.04370 0.46344 0.30824
 C222 C 0.03629 0.54160 0.30551
 O223 O 0.02359 0.52598 0.69105
 O224 O -0.02803 0.46120 0.69121
 O225 O -0.03630 0.51962 0.69919
 O226 O 0.03207 0.46705 0.68642
 O227 O 0.03858 0.46371 0.73531
 O228 O -0.02901 0.51584 0.74798
 O229 O -0.02186 0.45753 0.74015
 O230 O 0.03100 0.52278 0.73986
 Cu231 Cu -0.00280 0.49390 0.68710
 Cu232 Cu 0.00548 0.48963 0.74571
 C233 C 0.03606 0.53551 0.71518
 C234 C -0.03390 0.44837 0.71551
 C235 C -0.04431 0.52647 0.72590
 C236 C 0.04675 0.45621 0.70889
 C237 C 0.32967 0.26448 0.18910
 C238 C 0.34891 0.24091 0.17756
 C239 C 0.37162 0.24613 0.15382
 N240 N 0.38720 0.22231 0.14032
 N241 N 0.40767 0.22687 0.11866
 C242 C 0.41333 0.25545 0.10981
 N243 N 0.39788 0.27923 0.12342
 N244 N 0.37738 0.27467 0.14498
 C245 C 0.43587 0.26113 0.08612
 C246 C 0.45074 0.23785 0.06948
 H247 H 0.34656 0.21796 0.18513
 H248 H 0.44068 0.28454 0.08152
 H249 H 0.33082 0.28676 0.17948
 H250 H 0.44555 0.21441 0.07350
 C251 C 0.67325 0.75064 0.17246
 C252 C 0.65174 0.77389 0.16451
 C253 C 0.63165 0.77135 0.13759
 N254 N 0.61347 0.79549 0.12878
 N255 N 0.59453 0.79318 0.10494
 C256 C 0.59302 0.76660 0.08911
 N257 N 0.61118 0.74249 0.09793
 N258 N 0.63018 0.74483 0.12167
 C259 C 0.57125 0.76304 0.06362
 C260 C 0.55339 0.78717 0.05196
 H261 H 0.64944 0.79469 0.17762
 H262 H 0.56877 0.74041 0.05412
 H263 H 0.67598 0.73152 0.15692
 H264 H 0.55655 0.81004 0.06056
 C265 C 0.68051 0.24845 -0.18585
 C266 C 0.67732 0.26822 -0.16107
 C267 C 0.65331 0.26352 -0.13834
 N268 N 0.64696 0.28524 -0.11707
 N269 N 0.62523 0.28105 -0.09646
 C270 C 0.60919 0.25491 -0.09633
 N271 N 0.61570 0.23316 -0.11745
 N272 N 0.63729 0.23740 -0.13809
 C273 C 0.58537 0.24954 -0.07374
 C274 C 0.57486 0.27191 -0.05341
 H275 H 0.69163 0.28786 -0.15826
 H276 H 0.57552 0.22720 -0.07343
 H277 H 0.66373 0.23055 -0.18808
 H278 H 0.58384 0.29457 -0.05420
 C279 C 0.29536 0.77900 -0.18721
 C280 C 0.30840 0.75693 -0.16847
 C281 C 0.33288 0.76385 -0.14605
 N282 N 0.34690 0.74102 -0.13041
 N283 N 0.36941 0.74678 -0.11035
 C284 C 0.37872 0.77562 -0.10513
 N285 N 0.36459 0.79848 -0.12066
 N286 N 0.34211 0.79271 -0.14077
 C287 C 0.40375 0.78224 -0.08317
 C288 C 0.42025 0.75918 -0.06827
 H289 H 0.30171 0.73355 -0.17105
 H290 H 0.40952 0.80570 -0.07891
 H291 H 0.30405 0.80181 -0.18559
 H292 H 0.41473 0.73572 -0.07290
 C293 C 0.18242 0.31982 0.25969
 C294 C 0.16648 0.32931 0.28551
 C295 C 0.14195 0.35362 0.28488
 N296 N 0.12962 0.36495 0.31082
 N297 N 0.10789 0.38741 0.31053
 C298 C 0.09768 0.39934 0.28425
 N299 N 0.10986 0.38789 0.25832
 N300 N 0.13162 0.36549 0.25862
 C301 C 0.07381 0.42420 0.28342
 C302 C 0.06184 0.43815 0.30933
 H303 H 0.17316 0.32002 0.30695
 H304 H 0.06557 0.43179 0.26174
 H305 H 0.17676 0.33101 0.23888
 H306 H 0.07029 0.43085 0.33104
 C307 C 0.16912 0.68641 0.74752
 C308 C 0.14805 0.67622 0.72551
 C309 C 0.12863 0.64954 0.72935
 N310 N 0.11070 0.63959 0.70612
 N311 N 0.09298 0.61553 0.70889
 C312 C 0.09239 0.60046 0.73504
 N313 N 0.11022 0.61046 0.75838
 N314 N 0.12806 0.63454 0.75558
 C315 C 0.07275 0.57375 0.73811
 C316 C 0.05630 0.56181 0.71366
 H317 H 0.14577 0.68715 0.70422
 H318 H 0.07143 0.56325 0.75971
 H319 H 0.17105 0.67352 0.76787
 H320 H 0.05833 0.57214 0.69203
 C321 C -0.20154 0.67462 0.25718
 C322 C -0.18234 0.66801 0.28200
 C323 C -0.15784 0.64364 0.28133
 N324 N -0.14172 0.63682 0.30678
 N325 N -0.11915 0.61517 0.30665
 C326 C -0.11176 0.59957 0.28101
 N327 N -0.12783 0.60642 0.25552
 N328 N -0.15048 0.62805 0.25567
 C329 C -0.08668 0.57576 0.28054
 C330 C -0.07114 0.56655 0.30658
 H331 H -0.18511 0.68030 0.30299
 H332 H -0.08056 0.56506 0.25925
 H333 H -0.19875 0.66003 0.23748
 H334 H -0.07781 0.57675 0.32794
 C335 C -0.17891 0.31257 0.75010
 C336 C -0.15684 0.31791 0.72800
 C337 C -0.13329 0.34149 0.73161
 N338 N -0.11602 0.34907 0.70777
 N339 N -0.09509 0.37078 0.71031
 C340 C -0.09048 0.38566 0.73685
 N341 N -0.10748 0.37785 0.76082
 N342 N -0.12855 0.35621 0.75825
 C343 C -0.06796 0.41029 0.73955
 C344 C -0.05491 0.42260 0.71428
 H345 H -0.15727 0.30593 0.70670
 H346 H -0.06273 0.41977 0.76153
 H347 H -0.17802 0.32664 0.77027
 H348 H -0.06147 0.41391 0.69230
 C349 C 0.27128 0.18518 0.32175
 C350 C 0.24652 0.17262 0.33687
 C351 C 0.25160 0.14801 0.35828
 N352 N 0.22656 0.13471 0.37035
 N353 N 0.23073 0.11239 0.38974
 C354 C 0.26012 0.10257 0.39786
 N355 N 0.28516 0.11594 0.38588
 N356 N 0.28099 0.13823 0.36642
 C357 C 0.26509 0.07805 0.41939
 C358 C 0.24018 0.06240 0.43088
 H359 H 0.22256 0.18017 0.33228
 H360 H 0.28895 0.07215 0.42627
 H361 H 0.29484 0.17569 0.32503
 H362 H 0.21637 0.06796 0.42360
 C363 C 0.73878 0.18602 0.67197
 C364 C 0.76365 0.17401 0.65495
 C365 C 0.75933 0.14898 0.63308
 N366 N 0.78461 0.13596 0.61908
 N367 N 0.78119 0.11268 0.59995
 C368 C 0.75235 0.10151 0.59410
 N369 N 0.72703 0.11463 0.60797
 N370 N 0.73046 0.13791 0.62713
 C371 C 0.74836 0.07552 0.57328
 C372 C 0.77401 0.06079 0.55961
 H373 H 0.78724 0.18168 0.65888
 H374 H 0.72486 0.06781 0.56875
 H375 H 0.71576 0.17665 0.66872
 H376 H 0.79746 0.06858 0.56430
 C377 C 0.22351 -0.18061 0.66602
 C378 C 0.24835 -0.16351 0.65635
 C379 C 0.24524 -0.14274 0.63106
 N380 N 0.27057 -0.12756 0.62209
 N381 N 0.26807 -0.10812 0.59972
 C382 C 0.24010 -0.10310 0.58549
 N383 N 0.21477 -0.11831 0.59443
 N384 N 0.21728 -0.13778 0.61678
 C385 C 0.23669 -0.08112 0.56125
 C386 C 0.26191 -0.06501 0.55093
 H387 H 0.27106 -0.16548 0.66734
 H388 H 0.21350 -0.07716 0.55161
 H389 H 0.20170 -0.18015 0.65330
 H390 H 0.28520 -0.06915 0.56026
 C391 C 0.71972 -0.18572 0.32076
 C392 C 0.74467 -0.17767 0.33947
 C393 C 0.74202 -0.15391 0.36297
 N394 N 0.76817 -0.14589 0.37834
 N395 N 0.76662 -0.12440 0.39969
 C396 C 0.73882 -0.11013 0.40660
 N397 N 0.71254 -0.11827 0.39136
 N398 N 0.71410 -0.13977 0.36989
 C399 C 0.73727 -0.08596 0.42990
 C400 C 0.76461 -0.07502 0.44304
 H401 H 0.76766 -0.18837 0.33625
 H402 H 0.71458 -0.07604 0.43608
 H403 H 0.69753 -0.17308 0.32243
 H404 H 0.78722 -0.08443 0.43595
 C405 C 0.67034 0.73407 -0.19117
 C406 C 0.65448 0.75901 -0.17782
 C407 C 0.63179 0.75616 -0.15350
 N408 N 0.61715 0.78150 -0.14194
 N409 N 0.59632 0.77959 -0.12013
 C410 C 0.58928 0.75225 -0.10900
 N411 N 0.60396 0.72685 -0.12052
 N412 N 0.62482 0.72876 -0.14239
 C413 C 0.56611 0.75002 -0.08492
 C414 C 0.54997 0.77569 -0.07346
 H415 H 0.65895 0.78172 -0.18495
 H416 H 0.56160 0.72787 -0.07621
 H417 H 0.66703 0.71172 -0.18234
 H418 H 0.55445 0.79772 -0.08246
 C419 C 0.33623 0.23812 -0.18313
 C420 C 0.34398 0.26151 -0.16307
 C421 C 0.36721 0.25683 -0.13882
 N422 N 0.37542 0.28053 -0.12081
 N423 N 0.39663 0.27663 -0.09896
 C424 C 0.41036 0.24885 -0.09429
 N425 N 0.40206 0.22516 -0.11222
 N426 N 0.38089 0.22906 -0.13407
 C427 C 0.43418 0.24407 -0.07063
 C428 C 0.44468 0.26761 -0.05215
 H429 H 0.33369 0.28408 -0.16553
 H430 H 0.44418 0.22134 -0.06813
 H431 H 0.34840 0.21627 -0.18108
 H432 H 0.43488 0.29041 -0.05464
 C433 C 0.31260 0.73893 0.17620
 C434 C 0.33145 0.76255 0.16751
 C435 C 0.35327 0.75924 0.14221
 N436 N 0.36691 0.78414 0.13162
 N437 N 0.38658 0.78173 0.10868
 C438 C 0.39351 0.75429 0.09552
 N439 N 0.38007 0.72931 0.10625
 N440 N 0.36025 0.73174 0.12913
 C441 C 0.41538 0.75149 0.07019
 C442 C 0.42589 0.77703 0.05601
 H443 H 0.32953 0.78473 0.17816
 H444 H 0.42304 0.72902 0.06243
 H445 H 0.31418 0.71797 0.16305
 H446 H 0.41718 0.79936 0.06320
 C447 C 0.68510 0.24194 0.20041
 C448 C 0.68808 0.24787 0.17015
 C449 C 0.66069 0.24997 0.15002
 N450 N 0.66398 0.24352 0.12040
 N451 N 0.63942 0.24610 0.10180
 C452 C 0.61082 0.25569 0.11212
 N453 N 0.60762 0.26250 0.14169
 N454 N 0.63208 0.25948 0.16036
 C455 C 0.58392 0.25962 0.09162
 C456 C 0.58132 0.24208 0.06552
 H457 H 0.71123 0.25005 0.16079
 H458 H 0.56522 0.27577 0.09772
 H459 H 0.66251 0.23586 0.20899
 H460 H 0.59817 0.22360 0.06113
 C461 C -0.19626 0.66962 0.71990
 C462 C -0.18876 0.64477 0.73785
 C463 C -0.16302 0.62295 0.73007
 N464 N -0.15187 0.60316 0.75074
 N465 N -0.12803 0.58388 0.74431
 C466 C -0.11454 0.58353 0.71690
 N467 N -0.12596 0.60305 0.69608
 N468 N -0.14969 0.62245 0.70257
 C469 C -0.08774 0.56276 0.70977
 C470 C -0.07166 0.54676 0.73201
 H471 H -0.20025 0.64179 0.75894
 H472 H -0.07984 0.56091 0.68683
 H473 H -0.18219 0.67214 0.70009
 H474 H -0.07886 0.54972 0.75508
 C475 C -0.17574 0.31607 0.26220
 C476 C -0.15470 0.32346 0.28528
 C477 C -0.13572 0.35066 0.28463
 N478 N -0.12009 0.35977 0.30967
 N479 N -0.10262 0.38426 0.30951
 C480 C -0.10007 0.40048 0.28424
 N481 N -0.11559 0.39130 0.25914
 N482 N -0.13319 0.36689 0.25934
 C483 C -0.08008 0.42696 0.28349
 C484 C -0.06636 0.43914 0.30933
 H485 H -0.15300 0.31036 0.30539
 H486 H -0.07568 0.43679 0.26201
 H487 H -0.17857 0.33188 0.24405
 H488 H -0.07169 0.43008 0.33095
 C489 C 0.19991 0.31774 0.74357
 C490 C 0.18361 0.32854 0.71846
 C491 C 0.15957 0.35326 0.72093
 N492 N 0.14475 0.36390 0.69603
 N493 N 0.12268 0.38601 0.69814
 C494 C 0.11465 0.39826 0.72526
 N495 N 0.12949 0.38764 0.75009
 N496 N 0.15153 0.36559 0.74798
 C497 C 0.08982 0.42205 0.72844
 C498 C 0.07321 0.43431 0.70424
 H499 H 0.18877 0.31922 0.69641
 H500 H 0.08395 0.42969 0.75096
 H501 H 0.19551 0.32884 0.76506
 H502 H 0.07909 0.42713 0.68160
 C503 C 0.18505 0.66839 0.25329
 C504 C 0.16509 0.66381 0.27734
 C505 C 0.14267 0.63920 0.27758
 N506 N 0.12649 0.63428 0.30288
 N507 N 0.10532 0.61277 0.30346
 C508 C 0.09941 0.59544 0.27868
 N509 N 0.11556 0.60036 0.25333
 N510 N 0.13683 0.62184 0.25277
 C511 C 0.07561 0.57205 0.27893
 C512 C 0.06043 0.56459 0.30511
 H513 H 0.16598 0.67794 0.29734
 H514 H 0.07006 0.56032 0.25808
 H515 H 0.18564 0.65140 0.23538
 H516 H 0.06674 0.57557 0.32615
 C517 C 0.73258 -0.18203 0.68030
 C518 C 0.75855 -0.17206 0.66494
 C519 C 0.75640 -0.14654 0.64429
 N520 N 0.78257 -0.13757 0.63037
 N521 N 0.78089 -0.11515 0.61085
 C522 C 0.75292 -0.10090 0.60452
 N523 N 0.72677 -0.10980 0.61851
 N524 N 0.72846 -0.13220 0.63805
 C525 C 0.75030 -0.07687 0.58226
 C526 C 0.77613 -0.06665 0.56692
 H527 H 0.78136 -0.18318 0.66802
 H528 H 0.72705 -0.06743 0.57732
 H529 H 0.71051 -0.16916 0.67886
 H530 H 0.79951 -0.07562 0.57204
 C531 C 0.23608 -0.18173 0.30685
 C532 C 0.26022 -0.16309 0.31640
 C533 C 0.25519 -0.13995 0.34033
 N534 N 0.27987 -0.12484 0.35205
 N535 N 0.27564 -0.10460 0.37436
 C536 C 0.24655 -0.09871 0.38575
 N537 N 0.22188 -0.11365 0.37388
 N538 N 0.22611 -0.13391 0.35164
 C539 C 0.24137 -0.07674 0.41061
 C540 C 0.26594 -0.06188 0.42483
 H541 H 0.28367 -0.16668 0.30766
 H542 H 0.21749 -0.07234 0.41804
 H543 H 0.21335 -0.17885 0.31740
 H544 H 0.28985 -0.06636 0.41756
 C545 C 0.77738 0.17094 0.32476
 C546 C 0.75399 0.15263 0.33522
 C547 C 0.76058 0.12931 0.35766
 N548 N 0.73655 0.11413 0.36929
 N549 N 0.74201 0.09330 0.38998
 C550 C 0.77174 0.08679 0.39980
 N551 N 0.79581 0.10182 0.38803
 N552 N 0.79034 0.12271 0.36736
 C553 C 0.77793 0.06421 0.42307
 C554 C 0.75349 0.05046 0.43744
 H555 H 0.72987 0.15616 0.32792
 H556 H 0.80206 0.05891 0.42950
 H557 H 0.80091 0.16830 0.33403
 H558 H 0.72939 0.05628 0.43132
 C559 C 0.27570 0.17830 0.67266
 C560 C 0.25028 0.16880 0.65528
 C561 C 0.25393 0.14446 0.63236
 N562 N 0.22826 0.13300 0.61849
 N563 N 0.23135 0.11079 0.59790
 C564 C 0.26027 0.09929 0.59040
 N565 N 0.28591 0.11085 0.60416
 N566 N 0.28281 0.13297 0.62479
 C567 C 0.26440 0.07501 0.56756
 C568 C 0.23923 0.06042 0.55400
 H569 H 0.22694 0.17838 0.65932
 H570 H 0.28819 0.06839 0.56129
 H571 H 0.29835 0.16674 0.66973
 H572 H 0.21539 0.06645 0.56060
   
