data_POSCAR
  _audit_creation_date              2014-09-24
  _audit_creation_method            'ToBaCCo'
  _symmetry_space_group_name_H-M    'P1'
  _symmetry_Int_Tables_number       1
  _symmetry_cell_setting            triclinic
  loop_
  _symmetry_equiv_pos_as_xyz
 x,y,z
_cell_length_a 30.4920
_cell_length_b 30.3722
_cell_length_c 30.5217
_cell_angle_alpha 78.227000
_cell_angle_beta 98.359500
_cell_angle_gamma 101.477100
loop_
  _atom_site_label
  _atom_site_type_symbol
  _atom_site_fract_x
  _atom_site_fract_y
  _atom_site_fract_z
C1 C 0.60126 0.58888 0.00494
 C2 C 0.61142 0.54439 0.01243
 C3 C 0.57506 0.50721 0.01557
 C4 C 0.52992 0.51409 0.00896
 C5 C 0.52167 0.55924 0.00046
 C6 C 0.55687 0.59700 0.00074
 C7 C 0.49099 0.47472 0.01070
 C8 C 0.44870 0.47973 0.02099
 C9 C 0.41070 0.44555 0.01735
 C10 C 0.41561 0.40440 0.00636
 C11 C 0.45791 0.39640 0.00019
 C12 C 0.49512 0.43229 0.00097
 H13 H 0.62781 0.61800 -0.00129
 H14 H 0.58191 0.47284 0.02509
 H15 H 0.48743 0.56485 -0.00476
 H16 H 0.44477 0.51006 0.03228
 H17 H 0.38601 0.37860 0.00210
 H18 H 0.52718 0.42692 -0.00593
 C19 C 0.00576 0.60210 0.41164
 C20 C -0.00082 0.61107 0.45365
 C21 C -0.00008 0.57491 0.49117
 C22 C 0.01081 0.53270 0.48800
 C23 C 0.02157 0.52735 0.44630
 C24 C 0.01697 0.56054 0.40718
 C25 C 0.01021 0.49369 0.52755
 C26 C 0.00377 0.44814 0.52045
 C27 C 0.00385 0.41125 0.55659
 C28 C 0.00646 0.41966 0.60039
 C29 C 0.01298 0.46432 0.60899
 C30 C 0.01582 0.50116 0.57245
 H31 H -0.00152 0.62628 0.38152
 H32 H -0.00683 0.57972 0.52332
 H33 H 0.03499 0.49758 0.44440
 H34 H -0.00076 0.44090 0.48676
 H35 H 0.00315 0.39094 0.62802
 H36 H 0.02342 0.53547 0.57947
 C37 C 0.57839 -0.00298 0.58190
 C38 C 0.53386 -0.01051 0.59207
 C39 C 0.49876 -0.01279 0.55702
 C40 C 0.50775 -0.00507 0.51177
 C41 C 0.55302 0.00245 0.50265
 C42 C 0.58878 0.00124 0.53763
 C43 C 0.47002 -0.00504 0.47425
 C44 C 0.47496 -0.01580 0.43266
 C45 C 0.44091 -0.01268 0.39638
 C46 C 0.39952 -0.00304 0.40327
 C47 C 0.39282 0.00551 0.44512
 C48 C 0.42882 0.00643 0.47952
 H49 H 0.60523 0.00144 0.60884
 H50 H 0.46447 -0.02123 0.56540
 H51 H 0.56016 0.00765 0.46827
 H52 H 0.50522 -0.02692 0.42801
 H53 H 0.37253 -0.00210 0.37603
 H54 H 0.42446 0.01670 0.51028
 O55 O 0.46074 -0.00902 -0.07343
 O56 O 0.45066 -0.02490 0.04798
 O57 O 0.45149 0.04386 -0.01840
 O58 O 0.46256 -0.07659 -0.00658
 O59 O 0.53592 -0.05779 0.01020
 O60 O 0.52551 0.06332 -0.00896
 O61 O 0.52402 -0.00269 0.06082
 O62 O 0.53474 0.00606 -0.05901
 Cu63 Cu 0.44889 -0.01841 -0.01395
 Cu64 Cu 0.53743 0.00440 0.00219
 C65 C 0.49970 -0.00073 -0.08655
 C66 C 0.48556 -0.01576 0.07508
 C67 C 0.48665 0.07412 -0.01575
 C68 C 0.50131 -0.08772 0.00356
 O69 O -0.03700 0.54526 0.99797
 O70 O 0.08165 0.53114 1.00730
 O71 O 0.01619 0.53430 0.94195
 O72 O 0.02940 0.54582 1.06120
 O73 O 0.00674 0.47160 1.08067
 O74 O -0.00107 0.45943 0.96201
 O75 O 0.06106 0.45695 1.02938
 O76 O -0.05784 0.47050 1.01465
 Cu77 Cu 0.02448 0.54658 0.99992
 Cu78 Cu -0.00008 0.45718 1.02344
 C79 C -0.06764 0.51034 1.00527
 C80 C 0.09167 0.49149 1.02046
 C81 C 0.00673 0.49474 0.93180
 C82 C 0.01982 0.51086 1.09130
 O83 O -0.01890 -0.03650 0.44837
 O84 O -0.00692 0.08331 0.46330
 O85 O 0.04786 0.03149 0.45105
 O86 O -0.07390 0.01687 0.45713
 O87 O -0.06268 -0.00369 0.53093
 O88 O 0.05845 0.00701 0.52432
 O89 O 0.00651 0.06095 0.53670
 O90 O -0.01053 -0.05855 0.52217
 Cu91 Cu -0.01401 0.02595 0.44753
 Cu92 Cu -0.00093 -0.00073 0.53588
 C93 C -0.01684 -0.06797 0.48286
 C94 C 0.00175 0.09243 0.50283
 C95 C 0.07391 0.02100 0.48648
 C96 C -0.08900 0.00497 0.49520
 C97 C -0.25133 0.53092 1.01412
 C98 C -0.28636 0.49488 1.00467
 C99 C -0.33162 0.49874 1.00506
 C100 C -0.34294 0.53802 1.01573
 C101 C -0.30708 0.57178 1.02871
 C102 C -0.26235 0.56849 1.02763
 C103 C -0.20381 0.52710 1.01035
 C104 C -0.16746 0.56348 1.01372
 C105 C -0.12366 0.55813 1.01074
 C106 C -0.11476 0.51636 1.00466
 C107 C -0.15090 0.48024 0.99994
 C108 C -0.19535 0.48566 1.00181
 C109 C -0.27593 0.45521 0.99492
 C110 C -0.23137 0.45030 0.99454
 H111 H -0.30259 0.42723 0.98810
 H112 H -0.22510 0.41866 0.98754
 H113 H -0.35766 0.47180 0.99485
 H114 H -0.31300 0.60084 1.04095
 H115 H -0.09648 0.58661 1.01425
 H116 H -0.14448 0.44805 0.99441
 H117 H -0.23684 0.59555 1.03812
 H118 H -0.17214 0.59645 1.01833
 C119 C 0.27643 0.46395 1.02979
 C120 C 0.30717 0.50054 1.00846
 C121 C 0.35125 0.49481 1.00566
 C122 C 0.36544 0.45293 1.02384
 C123 C 0.33538 0.41736 1.04643
 C124 C 0.29157 0.42269 1.04946
 C125 C 0.22891 0.47056 1.02969
 C126 C 0.19517 0.43547 1.04771
 C127 C 0.15100 0.44267 1.04512
 C128 C 0.13915 0.48508 1.02482
 C129 C 0.17267 0.52058 1.00749
 C130 C 0.21716 0.51351 1.00936
 C131 C 0.29353 0.54235 0.98940
 C132 C 0.24961 0.54878 0.99009
 H133 H 0.31711 0.57050 0.97334
 H134 H 0.24071 0.58170 0.97457
 H135 H 0.37407 0.52252 0.98794
 H136 H 0.34573 0.38505 1.06166
 H137 H 0.12591 0.41468 1.05888
 H138 H 0.16392 0.55345 0.99147
 H139 H 0.27011 0.39394 1.06702
 H140 H 0.20190 0.40196 1.06334
 C141 C -0.01777 -0.25544 0.46666
 C142 C 0.00164 -0.26172 0.42962
 C143 C 0.00712 -0.30552 0.42577
 C144 C -0.00785 -0.34471 0.45752
 C145 C -0.02892 -0.33793 0.49332
 C146 C -0.03362 -0.29425 0.49789
 C147 C -0.02031 -0.20762 0.47095
 C148 C -0.03471 -0.19716 0.50887
 C149 C -0.03434 -0.15188 0.51220
 C150 C -0.02040 -0.11591 0.47754
 C151 C -0.00690 -0.12594 0.43923
 C152 C -0.00578 -0.17124 0.43616
 C153 C 0.01576 -0.22419 0.39655
 C154 C 0.01142 -0.18007 0.39936
 H155 H 0.03025 -0.22901 0.36785
 H156 H 0.02278 -0.15227 0.37282
 H157 H 0.02515 -0.30807 0.39862
 H158 H -0.04341 -0.36620 0.51759
 H159 H -0.04472 -0.14493 0.54221
 H160 H 0.00475 -0.09826 0.41268
 H161 H -0.05029 -0.29171 0.52589
 H162 H -0.04527 -0.22329 0.53682
 C163 C 0.00742 0.27531 0.53565
 C164 C -0.01865 0.30365 0.50430
 C165 C -0.02070 0.34748 0.51155
 C166 C 0.00390 0.36418 0.54923
 C167 C 0.03061 0.33623 0.57948
 C168 C 0.03224 0.29249 0.57303
 C169 C 0.00781 0.22835 0.52745
 C170 C 0.03003 0.19649 0.55833
 C171 C 0.02851 0.15280 0.54976
 C172 C 0.00534 0.13976 0.51001
 C173 C -0.01649 0.17134 0.47870
 C174 C -0.01608 0.21514 0.48748
 C175 C -0.04208 0.28828 0.46569
 C176 C -0.04036 0.24524 0.45719
 H177 H -0.06180 0.31003 0.44144
 H178 H -0.05890 0.23510 0.42671
 H179 H -0.04161 0.36843 0.48786
 H180 H 0.05118 0.34851 0.60804
 H181 H 0.04546 0.12899 0.57454
 H182 H -0.03518 0.16126 0.44822
 H183 H 0.05371 0.27310 0.59738
 H184 H 0.04807 0.20420 0.58971
 C185 C 0.51673 -0.01431 -0.26950
 C186 C 0.48590 0.00410 -0.30427
 C187 C 0.49063 0.00429 -0.34947
 C188 C 0.52493 -0.01512 -0.36039
 C189 C 0.55261 -0.03707 -0.32534
 C190 C 0.54881 -0.03650 -0.28058
 C191 C 0.51357 -0.00991 -0.22223
 C192 C 0.54699 -0.02041 -0.18674
 C193 C 0.54269 -0.01597 -0.14314
 C194 C 0.50479 -0.00154 -0.13363
 C195 C 0.47171 0.01009 -0.16886
 C196 C 0.47653 0.00724 -0.21330
 C197 C 0.45071 0.02212 -0.29355
 C198 C 0.44540 0.02246 -0.24891
 H199 H 0.42658 0.03562 -0.32003
 H200 H 0.41725 0.03608 -0.24229
 H201 H 0.46847 0.02074 -0.37606
 H202 H 0.57793 -0.05425 -0.33254
 H203 H 0.56871 -0.02497 -0.11647
 H204 H 0.44277 0.02214 -0.16179
 H205 H 0.57123 -0.05371 -0.25518
 H206 H 0.57697 -0.03152 -0.19202
 C207 C 0.46630 -0.01975 0.26249
 C208 C 0.42358 -0.03887 0.27742
 C209 C 0.41579 -0.03798 0.32150
 C210 C 0.44970 -0.01717 0.35089
 C211 C 0.49194 0.00177 0.33580
 C212 C 0.50026 0.00035 0.29245
 C213 C 0.47299 -0.02040 0.21492
 C214 C 0.51451 -0.00326 0.19725
 C215 C 0.51856 -0.00272 0.15221
 C216 C 0.48143 -0.01920 0.12346
 C217 C 0.44023 -0.03764 0.14104
 C218 C 0.43584 -0.03857 0.18645
 C219 C 0.38862 -0.05778 0.24797
 C220 C 0.39449 -0.05724 0.20336
 H221 H 0.35590 -0.07244 0.25932
 H222 H 0.36612 -0.07153 0.18172
 H223 H 0.38312 -0.05315 0.33272
 H224 H 0.51849 0.01900 0.35720
 H225 H 0.55084 0.01143 0.13970
 H226 H 0.41140 -0.05096 0.11930
 H227 H 0.53322 0.01615 0.28288
 H228 H 0.54426 0.01013 0.21746
 C229 C 0.52851 -0.27047 -0.00047
 C230 C 0.57073 -0.28201 0.01855
 C231 C 0.58001 -0.32532 0.01809
 C232 C 0.54808 -0.35813 -0.00176
 C233 C 0.50678 -0.34534 -0.02223
 C234 C 0.49716 -0.30245 -0.02154
 C235 C 0.51944 -0.22437 0.00211
 C236 C 0.47754 -0.21056 -0.01333
 C237 C 0.47130 -0.16670 -0.01146
 C238 C 0.50660 -0.13548 0.00577
 C239 C 0.54794 -0.14943 0.02263
 C240 C 0.55447 -0.19354 0.02127
 C241 C 0.60357 -0.25031 0.03811
 C242 C 0.59582 -0.20683 0.03891
 H243 H 0.63602 -0.25906 0.05260
 H244 H 0.62255 -0.18334 0.05386
 H245 H 0.61166 -0.33378 0.03545
 H246 H 0.48185 -0.36767 -0.04032
 H247 H 0.43899 -0.15688 -0.02456
 H248 H 0.57532 -0.12577 0.03652
 H249 H 0.46511 -0.29492 -0.03818
 H250 H 0.44924 -0.23296 -0.02713
 C251 C 0.47197 0.26129 -0.01497
 C252 C 0.43902 0.26722 0.01043
 C253 C 0.43558 0.31105 0.01579
 C254 C 0.46278 0.35009 -0.00585
 C255 C 0.49420 0.34419 -0.03266
 C256 C 0.49902 0.30043 -0.03692
 C257 C 0.47613 0.21351 -0.01753
 C258 C 0.51139 0.20331 -0.03682
 C259 C 0.51460 0.15799 -0.03673
 C260 C 0.48217 0.12201 -0.01850
 C261 C 0.44673 0.13177 0.00026
 C262 C 0.44422 0.17692 0.00206
 C263 C 0.40921 0.22947 0.02996
 C264 C 0.41107 0.18538 0.02495
 H265 H 0.38358 0.23413 0.04894
 H266 H 0.38694 0.15734 0.04033
 H267 H 0.41167 0.31451 0.03734
 H268 H 0.51487 0.37338 -0.05088
 H269 H 0.54252 0.15100 -0.05091
 H270 H 0.42229 0.10393 0.01551
 H271 H 0.52355 0.29796 -0.05806
 H272 H 0.53739 0.22971 -0.05098
 C273 C -0.27627 0.00338 0.51300
 C274 C -0.29142 -0.01729 0.55521
 C275 C -0.33572 -0.01776 0.56278
 C276 C -0.36613 0.00290 0.52923
 C277 C -0.35046 0.02377 0.48734
 C278 C -0.30639 0.02403 0.47938
 C279 C -0.22861 0.00275 0.50638
 C280 C -0.21042 0.02109 0.46526
 C281 C -0.16540 0.02078 0.46136
 C282 C -0.13739 0.00233 0.49831
 C283 C -0.15549 -0.01704 0.53900
 C284 C -0.20067 -0.01719 0.54322
 C285 C -0.26233 -0.03743 0.58991
 C286 C -0.21782 -0.03703 0.58418
 H287 H -0.27400 -0.05331 0.62229
 H288 H -0.19650 -0.05255 0.61228
 H289 H -0.34664 -0.03622 0.59471
 H290 H -0.37136 0.04169 0.46076
 H291 H -0.15228 0.03587 0.42952
 H292 H -0.13428 -0.03183 0.56766
 H293 H -0.29649 0.04114 0.44682
 H294 H -0.23021 0.03602 0.43582
 C295 C 0.26053 0.01873 0.46988
 C296 C 0.27646 0.03843 0.42767
 C297 C 0.32006 0.03543 0.42014
 C298 C 0.34792 0.01189 0.45374
 C299 C 0.33188 -0.00762 0.49546
 C300 C 0.28901 -0.00412 0.50358
 C301 C 0.21341 0.02157 0.47622
 C302 C 0.19485 0.00407 0.51726
 C303 C 0.14999 0.00513 0.52073
 C304 C 0.12239 0.02366 0.48350
 C305 C 0.14103 0.04285 0.44296
 C306 C 0.18622 0.04213 0.43914
 C307 C 0.24839 0.05996 0.39289
 C308 C 0.20410 0.06135 0.39835
 H309 H 0.26053 0.07508 0.36057
 H310 H 0.18344 0.07751 0.37007
 H311 H 0.33211 0.05110 0.38789
 H312 H 0.35212 -0.02684 0.52173
 H313 H 0.13663 -0.00959 0.55253
 H314 H 0.12019 0.05781 0.41408
 H315 H 0.27857 -0.02051 0.53610
 H316 H 0.21416 -0.01097 0.54700
 C317 C 0.02512 0.53374 1.27669
 C318 C 0.03578 0.57892 1.28514
 C319 C 0.03425 0.58750 1.32838
 C320 C 0.02176 0.55167 1.36419
 C321 C 0.01256 0.50664 1.35548
 C322 C 0.01419 0.49785 1.31267
 C323 C 0.02520 0.52626 1.22957
 C324 C 0.01367 0.48275 1.21732
 C325 C 0.01260 0.47783 1.17265
 C326 C 0.02311 0.51604 1.13897
 C327 C 0.03552 0.55943 1.15097
 C328 C 0.03644 0.56481 1.19574
 C329 C 0.04747 0.61549 1.25029
 C330 C 0.04783 0.60859 1.20659
 H331 H 0.05596 0.65014 1.25675
 H332 H 0.05663 0.63810 1.18075
 H333 H 0.04388 0.62237 1.33396
 H334 H 0.00151 0.47772 1.38097
 H335 H 0.00302 0.44393 1.16444
 H336 H 0.04376 0.58928 1.12531
 H337 H 0.00588 0.46267 1.30841
 H338 H 0.00484 0.45209 1.24150
 C339 C 0.01627 0.47796 0.74769
 C340 C -0.00123 0.51023 0.71271
 C341 C -0.00162 0.50637 0.66744
 C342 C 0.01681 0.47160 0.65642
 C343 C 0.03755 0.44222 0.69141
 C344 C 0.03703 0.44505 0.73632
 C345 C 0.01278 0.48077 0.79544
 C346 C 0.02299 0.44640 0.83200
 C347 C 0.01964 0.45065 0.87599
 C348 C 0.00668 0.48947 0.88476
 C349 C -0.00466 0.52345 0.84855
 C350 C -0.00289 0.51873 0.80394
 C351 C -0.01793 0.54617 0.72324
 C352 C -0.01759 0.55102 0.76786
 H353 H -0.03080 0.57136 0.69656
 H354 H -0.03012 0.57986 0.77421
 H355 H -0.01723 0.52981 0.64097
 H356 H 0.05407 0.41651 0.68416
 H357 H 0.02832 0.42390 0.90340
 H358 H -0.01563 0.55311 0.85508
 H359 H 0.05335 0.42139 0.76161
 H360 H 0.03311 0.41576 0.82730
   
