data_POSCAR
  _audit_creation_date              2014-09-24
  _audit_creation_method            'ToBaCCo'
  _symmetry_space_group_name_H-M    'P1'
  _symmetry_Int_Tables_number       1
  _symmetry_cell_setting            triclinic
  loop_
  _symmetry_equiv_pos_as_xyz
 x,y,z
_cell_length_a 47.4161
_cell_length_b 22.6237
_cell_length_c 15.4685
_cell_angle_alpha 91.195700
_cell_angle_beta 88.787500
_cell_angle_gamma 87.526500
loop_
  _atom_site_label
  _atom_site_type_symbol
  _atom_site_fract_x
  _atom_site_fract_y
  _atom_site_fract_z
C1 C 0.74779 0.24198 0.49504
 C2 C 0.74695 0.22895 0.58094
 C3 C 0.72056 0.23374 0.63556
 C4 C 0.77330 0.20823 0.62313
 C5 C 0.77254 0.22082 0.44048
 C6 C 0.72450 0.27568 0.45236
 C7 C 0.72154 0.25208 0.72278
 C8 C 0.69694 0.25688 0.77441
 C9 C 0.67048 0.24573 0.73936
 C10 C 0.66985 0.22400 0.65305
 C11 C 0.69461 0.21708 0.60277
 C12 C 0.79634 0.24500 0.62621
 C13 C 0.82207 0.22412 0.65844
 C14 C 0.82511 0.16603 0.68867
 C15 C 0.80182 0.12974 0.68702
 C16 C 0.77598 0.15089 0.65535
 C17 C 0.77918 0.15995 0.43234
 C18 C 0.80443 0.13945 0.39222
 C19 C 0.82354 0.17921 0.35857
 C20 C 0.81625 0.24034 0.36320
 C21 C 0.79081 0.26087 0.40354
 C22 C 0.71434 0.25550 0.37296
 C23 C 0.69165 0.28540 0.33423
 C24 C 0.67860 0.33632 0.37431
 C25 C 0.68962 0.35781 0.45186
 C26 C 0.71236 0.32794 0.49043
 H27 H 0.74133 0.26371 0.75090
 H28 H 0.69857 0.27243 0.84082
 H29 H 0.65060 0.21033 0.62397
 H30 H 0.69339 0.19871 0.53785
 H31 H 0.79456 0.28940 0.60138
 H32 H 0.83972 0.25284 0.65648
 H33 H 0.75839 0.12194 0.65302
 H34 H 0.76522 0.12839 0.46007
 H35 H 0.80938 0.09224 0.38947
 H36 H 0.83043 0.27262 0.33913
 H37 H 0.78603 0.30803 0.40969
 H38 H 0.72363 0.21584 0.34162
 H39 H 0.68464 0.26851 0.27283
 H40 H 0.68034 0.39740 0.48345
 H41 H 0.72029 0.34526 0.55058
 H42 H 0.80373 0.08472 0.70941
 C43 C 0.24728 0.73158 0.43208
 C44 C 0.24652 0.72720 0.51972
 C45 C 0.22200 0.75074 0.57202
 C46 C 0.27101 0.70267 0.56687
 C47 C 0.27212 0.70797 0.38078
 C48 C 0.22414 0.76320 0.38645
 C49 C 0.22475 0.80100 0.62513
 C50 C 0.20093 0.82883 0.66509
 C51 C 0.17419 0.80591 0.65433
 C52 C 0.17165 0.75409 0.60371
 C53 C 0.19543 0.72677 0.56271
 C54 C 0.29631 0.73247 0.56759
 C55 C 0.32008 0.70729 0.60660
 C56 C 0.31885 0.65187 0.64590
 C57 C 0.29338 0.62243 0.64558
 C58 C 0.26951 0.64799 0.60721
 C59 C 0.28010 0.64760 0.38247
 C60 C 0.30647 0.62732 0.34942
 C61 C 0.32530 0.66685 0.31351
 C62 C 0.31652 0.72701 0.30775
 C63 C 0.29007 0.74717 0.34072
 C64 C 0.20692 0.73209 0.33064
 C65 C 0.18258 0.75975 0.29759
 C66 C 0.17508 0.81923 0.32014
 C67 C 0.19339 0.85093 0.37211
 C68 C 0.21770 0.82331 0.40471
 H69 H 0.24512 0.82026 0.63220
 H70 H 0.20330 0.86888 0.70338
 H71 H 0.15121 0.73615 0.59259
 H72 H 0.19304 0.68817 0.52134
 H73 H 0.29775 0.77465 0.53627
 H74 H 0.33956 0.73043 0.60336
 H75 H 0.25011 0.62438 0.60660
 H76 H 0.26645 0.61674 0.41329
 H77 H 0.31255 0.58083 0.35455
 H78 H 0.33025 0.75943 0.28182
 H79 H 0.28434 0.79402 0.33982
 H80 H 0.21173 0.68575 0.31543
 H81 H 0.16974 0.73387 0.25567
 H82 H 0.18846 0.89688 0.38966
 H83 H 0.23099 0.84824 0.44685
 H84 H 0.29202 0.57949 0.67473
 C85 C 0.24416 0.29645 -0.46426
 C86 C 0.24624 0.29098 -0.55201
 C87 C 0.27261 0.30412 -0.60051
 C88 C 0.22257 0.26943 -0.60342
 C89 C 0.21851 0.28055 -0.41543
 C90 C 0.26777 0.31716 -0.41253
 C91 C 0.28473 0.35943 -0.59301
 C92 C 0.31042 0.36972 -0.63505
 C93 C 0.32440 0.32493 -0.68718
 C94 C 0.31129 0.27063 -0.69754
 C95 C 0.28582 0.26031 -0.65456
 C96 C 0.21054 0.30531 -0.66672
 C97 C 0.18789 0.28599 -0.71457
 C98 C 0.17671 0.23025 -0.70030
 C99 C 0.18964 0.19358 -0.63813
 C100 C 0.21235 0.21301 -0.59077
 C101 C 0.21894 0.22851 -0.36801
 C102 C 0.19478 0.21183 -0.32316
 C103 C 0.16966 0.24781 -0.32328
 C104 C 0.16983 0.30122 -0.36861
 C105 C 0.19389 0.31701 -0.41524
 C106 C 0.29250 0.28166 -0.40449
 C107 C 0.31543 0.30334 -0.36030
 C108 C 0.31394 0.36106 -0.32426
 C109 C 0.28902 0.39610 -0.33175
 C110 C 0.26592 0.37395 -0.37436
 H111 H 0.27435 0.39467 -0.55419
 H112 H 0.31870 0.41312 -0.62669
 H113 H 0.32108 0.23531 -0.73769
 H114 H 0.27668 0.21749 -0.66211
 H115 H 0.21845 0.34874 -0.67819
 H116 H 0.17884 0.31530 -0.76214
 H117 H 0.22204 0.18388 -0.54417
 H118 H 0.23798 0.20033 -0.36672
 H119 H 0.19642 0.17157 -0.28692
 H120 H 0.15109 0.33032 -0.36968
 H121 H 0.19336 0.35770 -0.45097
 H122 H 0.29419 0.23776 -0.43398
 H123 H 0.33463 0.27583 -0.35732
 H124 H 0.28754 0.44084 -0.30516
 H125 H 0.24695 0.40187 -0.38044
 H126 H 0.18282 0.14970 -0.62529
 C127 C -0.24438 0.72625 -0.45435
 C128 C -0.24683 0.73480 -0.54099
 C129 C -0.22206 0.75022 -0.59436
 C130 C -0.27393 0.72768 -0.58644
 C131 C -0.26783 0.70332 -0.40134
 C132 C -0.21886 0.74343 -0.40749
 C133 C -0.22152 0.80534 -0.63361
 C134 C -0.19773 0.82095 -0.68136
 C135 C -0.17416 0.78085 -0.69234
 C136 C -0.17554 0.72454 -0.65582
 C137 C -0.19906 0.70971 -0.60628
 C138 C -0.29934 0.75386 -0.55291
 C139 C -0.32503 0.74096 -0.58981
 C140 C -0.32592 0.70407 -0.66394
 C141 C -0.30013 0.68139 -0.70128
 C142 C -0.27450 0.69287 -0.66248
 C143 C -0.28085 0.65118 -0.42567
 C144 C -0.30527 0.63438 -0.38224
 C145 C -0.31694 0.66914 -0.31224
 C146 C -0.30239 0.71874 -0.28426
 C147 C -0.27820 0.73575 -0.32844
 C148 C -0.20453 0.70263 -0.35528
 C149 C -0.18149 0.71973 -0.30716
 C150 C -0.17239 0.77794 -0.31011
 C151 C -0.18718 0.81905 -0.36148
 C152 C -0.21015 0.80186 -0.40960
 H153 H -0.23936 0.83669 -0.62587
 H154 H -0.19844 0.86388 -0.71070
 H155 H -0.15803 0.69233 -0.66349
 H156 H -0.19938 0.66660 -0.57716
 H157 H -0.29941 0.78274 -0.49619
 H158 H -0.34433 0.75986 -0.55984
 H159 H -0.25515 0.67260 -0.69010
 H160 H -0.27263 0.62460 -0.48036
 H161 H -0.31470 0.59452 -0.40493
 H162 H -0.31035 0.74604 -0.22993
 H163 H -0.26828 0.77577 -0.30789
 H164 H -0.21126 0.65758 -0.35167
 H165 H -0.17073 0.68738 -0.26741
 H166 H -0.18174 0.86492 -0.36310
 H167 H -0.22160 0.83460 -0.44692
 H168 H -0.29944 0.65209 -0.75740
 N169 N -0.03650 0.91988 -0.09563
 N170 N -0.05951 0.89168 -0.11447
 N171 N 0.02674 0.93201 -0.14913
 N172 N 0.04869 0.91571 -0.19910
 N173 N 0.02163 0.89113 -0.09256
 N174 N 0.03982 0.84559 -0.10300
 N175 N -0.03157 0.96000 -0.15356
 N176 N -0.05111 0.96051 -0.21292
 C177 C -0.06844 0.91798 -0.18760
 C178 C 0.05653 0.86165 -0.16961
 N179 N 0.04029 1.09749 -0.08444
 N180 N 0.06388 1.12557 -0.09661
 N181 N -0.02072 1.08369 -0.14756
 N182 N -0.04333 1.09557 -0.19333
 N183 N -0.01815 1.12429 -0.08657
 N184 N -0.03882 1.16518 -0.09004
 N185 N 0.03788 1.05609 -0.14426
 N186 N 0.05992 1.05416 -0.19788
 Mn187 Mn 0.00318 1.00801 -0.14956
 C188 C 0.07589 1.09778 -0.16757
 C189 C -0.05418 1.14684 -0.15743
 N190 N 0.01934 0.89089 0.09321
 N191 N 0.03906 0.84809 0.09697
 N192 N -0.03585 0.95971 0.15254
 N193 N -0.05833 0.96389 0.20436
 N194 N -0.03892 0.91945 0.09152
 N195 N -0.06343 0.89442 0.10094
 N196 N 0.02288 0.93143 0.15361
 N197 N 0.04532 0.91748 0.19944
 Mn198 Mn -0.00877 0.90468 -0.00077
 C199 C 0.05498 0.86504 0.16378
 C200 C -0.07524 0.92276 0.17171
 N201 N -0.02071 1.12400 0.10003
 N202 N -0.04082 1.16631 0.10639
 N203 N 0.03354 1.05571 0.15977
 N204 N 0.05422 1.05282 0.21532
 N205 N 0.03788 1.09659 0.10252
 N206 N 0.06172 1.12278 0.11781
 N207 N -0.02491 1.08333 0.15775
 N208 N -0.04800 1.09670 0.20437
 Mn209 Mn 0.00991 1.11139 0.00795
 Mn210 Mn -0.00106 1.00749 0.15697
 Cl211 Cl 0.00082 1.00791 0.00361
 C212 C -0.05757 1.14881 0.17215
 C213 C 0.07162 1.09478 0.18843
 N214 N 0.53235 0.58204 -0.14088
 N215 N 0.55663 0.60425 -0.16351
 N216 N 0.46860 0.55652 -0.16148
 N217 N 0.44482 0.56471 -0.20320
 N218 N 0.47388 0.60354 -0.11452
 N219 N 0.45387 0.64528 -0.12336
 N220 N 0.52715 0.53613 -0.19048
 N221 N 0.54777 0.52595 -0.24828
 C222 C 0.56585 0.56908 -0.23106
 C223 C 0.43592 0.62031 -0.17873
 N224 N 0.46487 0.39716 -0.06562
 N225 N 0.44258 0.36416 -0.06107
 N226 N 0.52083 0.41235 -0.16189
 N227 N 0.53815 0.39284 -0.22471
 N228 N 0.52398 0.38031 -0.09265
 N229 N 0.54445 0.33918 -0.10569
 N230 N 0.46304 0.43255 -0.13166
 N231 N 0.43954 0.42485 -0.17364
 Mn232 Mn 0.49476 0.48443 -0.16220
 C233 C 0.42692 0.38233 -0.12854
 C234 C 0.55283 0.34762 -0.18889
 N235 N 0.48232 0.62365 0.06666
 N236 N 0.46034 0.66151 0.07045
 N237 N 0.54118 0.57087 0.11065
 N238 N 0.56453 0.57825 0.15380
 N239 N 0.54096 0.60281 0.04078
 N240 N 0.56433 0.63226 0.03382
 N241 N 0.48230 0.58932 0.13419
 N242 N 0.46011 0.60270 0.18506
 Mn243 Mn 0.50752 0.60370 -0.03717
 C244 C 0.44688 0.64836 0.14492
 C245 C 0.57872 0.61664 0.10501
 N246 N 0.53201 0.39993 0.09043
 N247 N 0.55212 0.35867 0.10070
 N248 N 0.47734 0.46483 0.16492
 N249 N 0.45659 0.47380 0.22251
 N250 N 0.47311 0.41789 0.11623
 N251 N 0.44921 0.39393 0.13930
 N252 N 0.53615 0.44646 0.14000
 N253 N 0.55929 0.43817 0.18515
 Mn254 Mn 0.49857 0.39794 0.01235
 Mn255 Mn 0.50926 0.51802 0.13855
 Cl256 Cl 0.50255 0.50093 -0.01202
 C257 C 0.56898 0.38314 0.15982
 C258 C 0.43933 0.42909 0.20629
 C259 C 0.35073 0.33168 0.27050
 C260 C 0.36726 0.37781 0.28164
 C261 C 0.39468 0.38020 0.23501
 C262 C 0.41216 0.42344 0.25241
 H263 H 0.36138 0.41374 0.32639
 H264 H 0.40057 0.34656 0.18620
 H265 H 0.35864 0.29601 0.22734
 H266 H 0.40624 0.45669 0.30174
 C267 C -0.14933 0.79456 0.26205
 C268 C -0.14247 0.84944 0.24126
 C269 C -0.11522 0.85990 0.19824
 C270 C -0.10316 0.91165 0.20896
 H271 H -0.15563 0.88770 0.26133
 H272 H -0.10429 0.82416 0.16161
 H273 H -0.13386 0.75878 0.24736
 H274 H -0.11327 0.94579 0.25059
 C275 C 0.64750 0.68890 0.30554
 C276 C 0.64305 0.66272 0.22876
 C277 C 0.61474 0.64334 0.20753
 C278 C 0.60663 0.63807 0.12575
 H279 H 0.65977 0.65607 0.18045
 H280 H 0.60015 0.63394 0.25994
 H281 H 0.62915 0.69974 0.34697
 H282 H 0.62030 0.65146 0.07333
 C283 C 0.15311 1.21417 0.25171
 C284 C 0.13886 1.16486 0.26310
 C285 C 0.11354 1.15312 0.21290
 C286 C 0.09780 1.10760 0.23276
 H287 H 0.14481 1.13322 0.31142
 H288 H 0.10736 1.18246 0.16144
 H289 H 0.14537 1.24474 0.20359
 H290 H 0.10385 1.07922 0.28549
 C291 C 0.64686 0.25767 -0.21146
 C292 C 0.61980 0.26515 -0.24522
 C293 C 0.59687 0.28669 -0.19411
 C294 C 0.57449 0.31637 -0.23387
 H295 H 0.61698 0.26281 -0.31439
 H296 H 0.59808 0.28732 -0.12416
 H297 H 0.64914 0.26917 -0.14352
 H298 H 0.57588 0.32280 -0.30314
 C299 C 0.14922 0.83931 -0.30883
 C300 C 0.12595 0.81335 -0.28192
 C301 C 0.10142 0.84936 -0.24895
 C302 C 0.08082 0.82540 -0.20338
 H303 H 0.12511 0.76555 -0.28276
 H304 H 0.10050 0.89652 -0.26061
 H305 H 0.15032 0.88695 -0.30166
 H306 H 0.08234 0.77893 -0.18767
 C307 C 0.34409 0.62241 -0.31677
 C308 C 0.36501 0.65234 -0.28259
 C309 C 0.39041 0.62114 -0.25062
 C310 C 0.40993 0.65035 -0.20830
 H311 H 0.36348 0.70021 -0.27778
 H312 H 0.39326 0.57380 -0.26236
 H313 H 0.34523 0.57443 -0.31604
 H314 H 0.40672 0.69732 -0.19427
 C315 C -0.14735 1.14086 -0.28325
 C316 C -0.12720 1.17364 -0.25022
 C317 C -0.09981 1.14599 -0.22748
 C318 C -0.08113 1.17549 -0.18193
 H319 H -0.13089 1.22075 -0.23874
 H320 H -0.09508 1.10025 -0.24706
 H321 H -0.14372 1.09326 -0.28885
 H322 H -0.08623 1.22030 -0.15881
 C323 C 0.65725 0.65783 -0.27028
 C324 C 0.63922 0.61717 -0.29585
 C325 C 0.61191 0.61242 -0.25007
 C326 C 0.59312 0.57405 -0.27655
 H327 H 0.64361 0.58859 -0.35174
 H328 H 0.60705 0.64100 -0.19410
 H329 H 0.65084 0.68598 -0.21499
 H330 H 0.59797 0.54495 -0.33189
 C331 C 0.14463 1.23296 -0.27932
 C332 C 0.13962 1.17890 -0.24986
 C333 C 0.11265 1.16663 -0.20602
 C334 C 0.10309 1.11194 -0.20747
 H335 H 0.15446 1.14190 -0.26217
 H336 H 0.10006 1.20273 -0.17557
 H337 H 0.12769 1.26668 -0.27255
 H338 H 0.11474 1.07698 -0.24367
 C339 C 0.33868 0.38732 -0.28474
 C340 C 0.35766 0.35596 -0.23991
 C341 C 0.38316 0.38356 -0.20892
 C342 C 0.40019 0.35672 -0.15283
 H343 H 0.35460 0.30975 -0.22697
 H344 H 0.38837 0.42632 -0.23383
 H345 H 0.34116 0.43441 -0.29213
 H346 H 0.39460 0.31515 -0.12496
 C347 C -0.14818 0.79451 -0.25664
 C348 C -0.13277 0.84148 -0.27216
 C349 C -0.10880 0.85609 -0.21771
 C350 C -0.09318 0.90190 -0.23707
 H351 H -0.13724 0.86910 -0.32690
 H352 H -0.10373 0.82910 -0.16258
 H353 H -0.14232 0.76593 -0.20394
 H354 H -0.09827 0.92823 -0.29285
 C355 C 0.35424 0.64393 0.28859
 C356 C 0.37308 0.67428 0.24402
 C357 C 0.40164 0.64860 0.22465
 C358 C 0.41924 0.67539 0.17122
 H359 H 0.36763 0.71768 0.21990
 H360 H 0.40799 0.60644 0.25198
 H361 H 0.36040 0.59958 0.30841
 H362 H 0.41243 0.71623 0.14101
 C363 C -0.14872 1.15456 0.32498
 C364 C -0.12989 1.18428 0.27926
 C365 C -0.10265 1.15474 0.25262
 C366 C -0.08424 1.18007 0.19996
 H367 H -0.13436 1.22948 0.26067
 H368 H -0.09775 1.11062 0.27578
 H369 H -0.14349 1.10863 0.33902
 H370 H -0.08919 1.22347 0.17453
 C371 C 0.65381 0.36848 0.33733
 C372 C 0.63651 0.34411 0.28065
 C373 C 0.61152 0.37743 0.24886
 C374 C 0.59449 0.35242 0.19225
 H375 H 0.64010 0.29862 0.25886
 H376 H 0.60693 0.42241 0.27221
 H377 H 0.64888 0.41336 0.36069
 H378 H 0.59931 0.30757 0.16872
 C379 C 0.14843 0.84996 0.29299
 C380 C 0.12687 0.82306 0.25668
 C381 C 0.10070 0.85684 0.23564
 C382 C 0.08078 0.83199 0.18905
 H383 H 0.12801 0.77599 0.24291
 H384 H 0.09797 0.90279 0.25668
 H385 H 0.14604 0.89718 0.30649
 H386 H 0.08408 0.78684 0.16492
   
