data_POSCAR
  _audit_creation_date              2014-09-24
  _audit_creation_method            'ToBaCCo'
  _symmetry_space_group_name_H-M    'P1'
  _symmetry_Int_Tables_number       1
  _symmetry_cell_setting            triclinic
  loop_
  _symmetry_equiv_pos_as_xyz
 x,y,z
_cell_length_a 21.4504
_cell_length_b 21.4988
_cell_length_c 21.5100
_cell_angle_alpha 87.807000
_cell_angle_beta 92.248500
_cell_angle_gamma 92.249100
loop_
  _atom_site_label
  _atom_site_type_symbol
  _atom_site_fract_x
  _atom_site_fract_y
  _atom_site_fract_z
C1 C 0.01383 0.41374 0.14469
 H2 H 0.03329 0.45560 0.12231
 C3 C 0.01699 0.35634 0.11644
 H4 H 0.03829 0.35509 0.07171
 C5 C -0.03514 0.36446 0.23129
 H6 H -0.05333 0.36752 0.27720
 C7 C -0.03377 0.30663 0.20466
 H8 H -0.05240 0.26622 0.23034
 N9 N -0.01184 0.41658 0.20123
 C10 C -0.05987 0.60088 0.20054
 H11 H -0.10138 0.58367 0.22317
 C12 C -0.05790 0.66179 0.17610
 H13 H -0.09854 0.68962 0.17944
 C14 C 0.04385 0.58676 0.17152
 H15 H 0.08406 0.55788 0.17193
 C16 C 0.04794 0.64790 0.14660
 H17 H 0.09110 0.66505 0.12651
 Zn18 Zn -0.00910 0.48957 0.24811
 N19 N -0.00922 0.56485 0.19881
 C20 C 0.08780 0.54310 0.32448
 N21 N 0.06600 0.48987 0.29758
 C22 C 0.10172 0.43899 0.29714
 C23 C 0.16248 0.44093 0.32250
 C24 C 0.14869 0.54714 0.35035
 C25 C -0.13505 0.46884 0.26345
 C26 C -0.19261 0.47047 0.29069
 C27 C -0.14004 0.50936 0.38363
 C28 C -0.08296 0.50640 0.35459
 N29 N -0.08176 0.48683 0.29531
 H30 H 0.05897 0.58334 0.32322
 H31 H 0.08419 0.39726 0.27507
 H32 H 0.19020 0.40010 0.32029
 H33 H 0.16578 0.59040 0.37016
 H34 H -0.13289 0.45483 0.21585
 H35 H -0.23429 0.45669 0.26384
 H36 H -0.14052 0.52580 0.43056
 H37 H -0.04003 0.52123 0.37863
 C38 C -0.00308 0.68668 0.14997
 C39 C -0.00669 0.30147 0.14674
 C40 C -0.19585 0.49169 0.35123
 C41 C 0.18732 0.49591 0.34833
 C42 C 0.02971 0.63487 0.76460
 H43 H 0.04442 0.63243 0.71727
 C44 C 0.02878 0.69244 0.79182
 H45 H 0.04377 0.73374 0.76522
 C46 C -0.01021 0.58373 0.85503
 H47 H -0.02621 0.54120 0.87883
 C48 C -0.01249 0.64085 0.88404
 H49 H -0.02962 0.64170 0.93067
 N50 N 0.01028 0.58202 0.79612
 C51 C 0.05814 0.39807 0.79608
 H52 H 0.09946 0.41528 0.77306
 C53 C 0.05657 0.33740 0.82125
 H54 H 0.09727 0.30965 0.81796
 C55 C -0.04535 0.41224 0.82579
 H56 H -0.08556 0.44110 0.82554
 C57 C -0.04904 0.35136 0.85146
 H58 H -0.09194 0.33436 0.87217
 Zn59 Zn 0.00728 0.50938 0.74874
 N60 N 0.00743 0.43399 0.79787
 C61 C 0.13310 0.53243 0.73352
 N62 N 0.08039 0.51255 0.70179
 C63 C 0.08266 0.49107 0.64331
 C64 C 0.14020 0.48832 0.61497
 C65 C 0.19108 0.53104 0.70695
 C66 C -0.09040 0.45659 0.67222
 C67 C -0.15155 0.45267 0.64686
 C68 C -0.16502 0.55864 0.67575
 C69 C -0.10408 0.56025 0.70066
 N70 N -0.06828 0.50951 0.69941
 H71 H 0.13026 0.54774 0.78059
 H72 H 0.04025 0.47456 0.61941
 H73 H 0.14147 0.47038 0.56870
 H74 H 0.23224 0.54639 0.73374
 H75 H -0.06158 0.41636 0.67288
 H76 H -0.16814 0.40930 0.62688
 H77 H -0.19205 0.59986 0.67887
 H78 H -0.08654 0.60173 0.72310
 C79 C 0.00208 0.31268 0.84823
 C80 C 0.00678 0.69622 0.85200
 C81 C -0.19069 0.50385 0.64949
 C82 C 0.19544 0.50803 0.64725
 C83 C 0.17343 0.04365 0.41299
 H84 H 0.17381 0.08369 0.44200
 C85 C 0.14825 0.04775 0.35196
 H86 H 0.12797 0.09078 0.33496
 C87 C 0.20262 -0.05979 0.39864
 H88 H 0.22534 -0.10121 0.41584
 C89 C 0.17794 -0.05781 0.33781
 H90 H 0.18122 -0.09834 0.30991
 N91 N 0.20091 -0.00927 0.43469
 C92 C 0.23469 -0.03183 0.63509
 H93 H 0.28204 -0.04678 0.63246
 C94 C 0.20779 -0.03051 0.69273
 H95 H 0.23460 -0.04550 0.73392
 C96 C 0.14405 0.00857 0.58431
 H97 H 0.12012 0.02467 0.54187
 C98 C 0.11535 0.01125 0.64150
 H99 H 0.06877 0.02875 0.64254
 Zn100 Zn 0.25013 -0.00927 0.50991
 N101 N 0.20291 -0.01234 0.58241
 C102 C 0.29772 0.10195 0.56055
 N103 N 0.29953 0.06584 0.51010
 C104 C 0.32742 0.08738 0.45736
 C105 C 0.35296 0.14830 0.45339
 C106 C 0.32276 0.16268 0.55870
 C107 C 0.26549 -0.13458 0.53222
 C108 C 0.29240 -0.19223 0.53076
 C109 C 0.38489 -0.14086 0.48928
 C110 C 0.35619 -0.08366 0.49206
 N111 N 0.29730 -0.08183 0.51289
 H112 H 0.27468 0.08487 0.60181
 H113 H 0.32713 0.05833 0.41737
 H114 H 0.37357 0.16518 0.41050
 H115 H 0.31940 0.19064 0.59915
 H116 H 0.21813 -0.13199 0.54712
 H117 H 0.26557 -0.23349 0.54562
 H118 H 0.43150 -0.14184 0.47185
 H119 H 0.38014 -0.04117 0.47611
 C120 C 0.14770 -0.00801 0.69670
 C121 C 0.15157 -0.00313 0.31312
 C122 C 0.35252 -0.19614 0.50833
 C123 C 0.34958 0.18721 0.50419
 C124 C 0.79969 0.06023 0.60127
 H125 H 0.77699 0.10166 0.58413
 C126 C 0.82417 0.05818 0.66219
 H127 H 0.82079 0.09869 0.69010
 C128 C 0.82887 -0.04320 0.58694
 H129 H 0.82849 -0.08327 0.55798
 C130 C 0.85384 -0.04736 0.64809
 H131 H 0.87400 -0.09043 0.66515
 N132 N 0.80147 0.00976 0.56513
 C133 C 0.76914 0.03572 0.36474
 H134 H 0.72320 0.05407 0.36775
 C135 C 0.79587 0.03428 0.30697
 H136 H 0.77021 0.05302 0.26659
 C137 C 0.85572 -0.01358 0.41401
 H138 H 0.87807 -0.03314 0.45584
 C139 C 0.88406 -0.01681 0.35666
 H140 H 0.92882 -0.03826 0.35543
 Zn141 Zn 0.75204 0.00977 0.48977
 N142 N 0.79915 0.01230 0.41685
 C143 C 0.73709 0.13561 0.46904
 N144 N 0.70494 0.08258 0.48701
 C145 C 0.64555 0.08412 0.50663
 C146 C 0.61670 0.14125 0.50959
 C147 C 0.71003 0.19321 0.47063
 C148 C 0.70265 -0.10082 0.43907
 C149 C 0.67758 -0.16160 0.44104
 C150 C 0.65011 -0.14804 0.54734
 C151 C 0.67568 -0.08713 0.54327
 N152 N 0.70230 -0.06520 0.48999
 H153 H 0.78479 0.13323 0.45503
 H154 H 0.62128 0.04141 0.52150
 H155 H 0.56968 0.14197 0.52605
 H156 H 0.73712 0.23466 0.45684
 H157 H 0.72451 -0.08320 0.39729
 H158 H 0.67976 -0.18922 0.40019
 H159 H 0.63058 -0.16522 0.59065
 H160 H 0.67703 -0.05841 0.58355
 C161 C 0.85384 0.00701 0.30182
 C162 C 0.85041 0.00347 0.68699
 C163 C 0.65213 -0.18658 0.49609
 C164 C 0.64939 0.19679 0.49186
 C165 C 0.58273 0.14388 0.99153
 H166 H 0.54022 0.12016 0.97504
 C167 C 0.64008 0.11520 0.98893
 H168 H 0.64114 0.06885 0.97110
 C169 C 0.63360 0.23398 1.03280
 H170 H 0.63098 0.28113 1.04802
 C171 C 0.69139 0.20708 1.03156
 H172 H 0.73267 0.23370 1.04692
 N173 N 0.58079 0.20246 1.01286
 C174 C 0.39642 0.20233 1.05999
 H175 H 0.41372 0.22500 1.10140
 C176 C 0.33549 0.17746 1.05814
 H177 H 0.30798 0.18071 1.09897
 C178 C 0.41064 0.17331 0.95659
 H179 H 0.43966 0.17374 0.91655
 C180 C 0.34950 0.14796 0.95252
 H181 H 0.33280 0.12770 0.90936
 Zn182 Zn 0.50810 0.24977 1.00967
 N183 N 0.43248 0.20075 1.00948
 C184 C 0.45587 0.32703 0.91273
 N185 N 0.50862 0.29910 0.93455
 C186 C 0.55940 0.29729 0.89875
 C187 C 0.55790 0.32238 0.83809
 C188 C 0.45225 0.35261 0.85187
 C189 C 0.53030 0.26493 1.13510
 C190 C 0.52924 0.29186 1.19276
 C191 C 0.48848 0.38453 1.14149
 C192 C 0.49089 0.35581 1.08428
 N193 N 0.51118 0.29682 1.08238
 H194 H 0.41562 0.32677 0.94152
 H195 H 0.60068 0.27425 0.91603
 H196 H 0.59862 0.31903 0.81039
 H197 H 0.40935 0.37326 0.83479
 H198 H 0.54482 0.21753 1.13248
 H199 H 0.54395 0.26499 1.23398
 H200 H 0.47150 0.43123 1.14250
 H201 H 0.47512 0.37986 1.04182
 C202 C 0.31038 0.15096 1.00346
 C203 C 0.69542 0.14728 1.00867
 C204 C 0.50740 0.35211 1.19673
 C205 C 0.50341 0.34926 0.81328
 C206 C 0.41402 0.85408 1.01398
 H207 H 0.45618 0.87638 1.03312
 C208 C 0.35673 0.88275 1.01709
 H209 H 0.35586 0.92769 1.03806
 C210 C 0.36390 0.76737 0.96572
 H211 H 0.36662 0.72132 0.94775
 C212 C 0.30617 0.79443 0.96704
 H213 H 0.26546 0.76887 0.94865
 N214 N 0.41638 0.79728 0.98871
 C215 C 0.58647 0.82698 1.04410
 H216 H 0.55748 0.82648 1.08417
 C217 C 0.64760 0.85235 1.04816
 H218 H 0.66464 0.87267 1.09117
 C219 C 0.60084 0.79783 0.94071
 H220 H 0.58370 0.77503 0.89933
 C221 C 0.66174 0.82271 0.94265
 H222 H 0.68968 0.81950 0.90213
 Zn223 Zn 0.48926 0.75011 0.99116
 N224 N 0.56470 0.79945 0.99120
 C225 C 0.50650 0.64416 0.91660
 N226 N 0.48636 0.70323 0.91833
 C227 C 0.46802 0.73529 0.86544
 C228 C 0.46979 0.70847 0.80777
 C229 C 0.50962 0.61556 0.85940
 C230 C 0.43851 0.70089 1.10162
 C231 C 0.44058 0.67600 1.16238
 C232 C 0.54719 0.64865 1.14884
 C233 C 0.54301 0.67402 1.08794
 N234 N 0.48954 0.70051 1.06601
 H235 H 0.52170 0.61999 0.95920
 H236 H 0.45367 0.78276 0.86796
 H237 H 0.45573 0.73549 0.76643
 H238 H 0.52652 0.56881 0.85852
 H239 H 0.39659 0.72266 1.08402
 H240 H 0.39966 0.67822 1.19000
 H241 H 0.59067 0.62924 1.16602
 H242 H 0.58337 0.67537 1.05923
 C243 C 0.68650 0.84918 0.99728
 C244 C 0.30150 0.85265 0.99373
 C245 C 0.49585 0.65073 1.18737
 C246 C 0.49158 0.64818 0.80400
 B247 B 1.00149 1.06443 0.03666
 B248 B 0.99757 1.06350 -0.04193
 B249 B 1.06370 1.04265 -0.00210
 B250 B 1.04286 1.00271 0.06378
 B251 B 0.96406 0.99886 0.06481
 B252 B 0.93577 1.03623 -0.00070
 B253 B 0.99890 0.93582 -0.03565
 B254 B 1.00280 0.93675 0.04292
 B255 B 0.93668 0.95764 0.00308
 B256 B 0.95758 0.99752 -0.06284
 B257 B 1.03636 1.00139 -0.06375
 B258 B 1.06463 0.96401 0.00169
 B259 B 0.56495 0.50160 0.46415
 B260 B 0.56436 0.49801 0.54275
 B261 B 0.54311 0.56377 0.50273
 B262 B 0.50291 0.54255 0.43699
 B263 B 0.49928 0.46394 0.43629
 B264 B 0.53705 0.43609 0.50177
 B265 B 0.43632 0.49892 0.53673
 B266 B 0.43702 0.50250 0.45816
 B267 B 0.45826 0.43677 0.49815
 B268 B 0.49839 0.45798 0.56391
 B269 B 0.50203 0.53660 0.56460
 B270 B 0.46429 0.56441 0.49911
 N271 N 1.02646 1.23645 0.06657
 C272 C 0.99704 1.24277 0.12059
 N273 N 0.97125 1.19078 0.14892
 N274 N 0.97372 1.13530 0.12385
 C275 C 1.00260 1.12926 0.06962
 N276 N 1.02923 1.18089 0.04176
 N277 N 0.95009 0.78892 0.12958
 C278 C 1.00043 0.75270 0.12729
 N279 N 1.05346 0.77814 0.10300
 N280 N 1.05531 0.83666 0.08026
 C281 C 1.00458 0.87238 0.08134
 N282 N 0.95200 0.84739 0.10677
 N283 N 1.04957 1.21095 -0.12990
 C284 C 0.99903 1.24696 -0.12801
 N285 N 0.94622 1.22160 -0.10317
 N286 N 0.94471 1.16335 -0.07969
 C287 C 0.99560 1.12779 -0.08054
 N288 N 1.04801 1.15274 -0.10636
 N289 N 0.97241 0.76411 -0.06683
 C290 C 1.00334 0.75777 -0.11992
 N291 N 1.03074 0.80937 -0.14725
 N292 N 1.02824 0.86477 -0.12205
 C293 C 0.99786 0.87101 -0.06870
 N294 N 0.96975 0.81961 -0.04183
 N295 N 1.10401 1.05330 0.22201
 C296 C 1.12850 1.00038 0.24726
 N297 N 1.13054 0.95014 0.21101
 N298 N 1.10732 0.95205 0.15269
 C299 C 1.08169 1.00450 0.12790
 N300 N 1.08085 1.05515 0.16365
 N301 N 1.14757 0.96870 -0.19018
 C302 C 1.12006 0.99601 -0.24171
 N303 N 1.06716 1.02736 -0.23527
 N304 N 1.04242 1.03043 -0.17973
 C305 C 1.06939 1.00233 -0.12841
 N306 N 1.12262 0.97160 -0.13472
 N307 N 0.85175 1.02923 0.19125
 C308 C 0.88006 1.00328 0.24316
 N309 N 0.93411 0.97371 0.23677
 N310 N 0.95895 0.97096 0.18122
 C311 C 0.93110 0.99776 0.12968
 N312 N 0.87685 1.02678 0.13580
 N313 N 0.87056 1.05001 -0.21063
 C314 C 0.87312 0.99989 -0.24698
 N315 N 0.89771 0.94705 -0.22166
 N316 N 0.92046 0.94517 -0.16313
 C317 C 0.91907 0.99568 -0.12725
 N318 N 0.89336 1.04806 -0.15215
 N319 N 1.21101 1.13122 0.05007
 C320 C 1.24778 1.12857 0.00019
 N321 N 1.22267 1.10314 -0.05242
 N322 N 1.16421 1.07979 -0.05428
 C323 C 1.12810 1.08132 -0.00396
 N324 N 1.15262 1.10779 0.04817
 N325 N 0.80886 1.14701 0.03227
 C326 C 0.75722 1.11967 0.00472
 N327 N 0.76373 1.06700 -0.02681
 N328 N 0.81945 1.04233 -0.02986
 C329 C 0.87088 1.06915 -0.00155
 N330 N 0.86449 1.12214 0.02939
 N331 N 1.23695 0.93353 0.02644
 C332 C 1.24291 0.87924 -0.00267
 N333 N 1.19062 0.85106 -0.02826
 N334 N 1.13521 0.87647 -0.02588
 C335 C 1.12951 0.93093 0.00271
 N336 N 1.18144 0.95868 0.02913
 N337 N 0.78879 0.87033 -0.04949
 C338 C 0.75250 0.87242 0.00073
 N339 N 0.77785 0.89699 0.05358
 N340 N 0.83639 0.92011 0.05541
 C341 C 0.87221 0.91913 0.00482
 N342 N 0.84727 0.89350 -0.04760
 N343 N 0.69059 0.46947 0.35184
 C344 C 0.74269 0.49594 0.37933
 N345 N 0.73693 0.52662 0.43265
 N346 N 0.68147 0.52984 0.45778
 C347 C 0.62958 0.50254 0.43080
 N348 N 0.63523 0.47250 0.37718
 N349 N 0.27816 0.55239 0.39686
 C350 C 0.25313 0.49944 0.37214
 N351 N 0.28957 0.44928 0.37040
 N352 N 0.34790 0.45135 0.39396
 C353 C 0.37253 0.50388 0.41967
 N354 N 0.33654 0.55440 0.42039
 N355 N 0.72366 0.44802 0.60284
 C356 C 0.74904 0.50077 0.62795
 N357 N 0.71217 0.55071 0.63041
 N358 N 0.65369 0.54872 0.60719
 C359 C 0.62902 0.49643 0.58111
 N360 N 0.66512 0.44608 0.57971
 N361 N 0.30905 0.53133 0.64753
 C362 C 0.25742 0.50400 0.61992
 N363 N 0.26409 0.47269 0.56715
 N364 N 0.31989 0.46970 0.54263
 C365 C 0.37130 0.49784 0.56968
 N366 N 0.36478 0.52851 0.62281
 N367 N 0.44930 0.62939 0.28957
 C368 C 0.49956 0.62756 0.25321
 N369 N 0.55276 0.60331 0.27834
 N370 N 0.55490 0.58025 0.33672
 C371 C 0.50427 0.58097 0.37261
 N372 N 0.45150 0.60629 0.34790
 N373 N 0.46937 0.64819 0.69064
 C374 C 0.49605 0.62056 0.74243
 N375 N 0.52712 0.56750 0.73629
 N376 N 0.53048 0.54272 0.68079
 C377 C 0.50295 0.56980 0.62922
 N378 N 0.47255 0.62320 0.63524
 N379 N 0.53093 0.35231 0.30989
 C380 C 0.50375 0.37989 0.25833
 N381 N 0.47289 0.43301 0.26472
 N382 N 0.47014 0.45787 0.32024
 C383 C 0.49809 0.43082 0.37160
 N384 N 0.52836 0.37737 0.36533
 N385 N 0.55084 0.37079 0.71153
 C386 C 0.50032 0.37273 0.74753
 N387 N 0.44741 0.39729 0.72211
 N388 N 0.44578 0.42048 0.66379
 C389 C 0.49665 0.41960 0.62825
 N390 N 0.54916 0.39405 0.65325
 N391 N 0.60423 0.72246 0.55265
 C392 C 0.62871 0.74757 0.49968
 N393 N 0.63054 0.71118 0.44953
 N394 N 0.60723 0.65285 0.45163
 C395 C 0.58169 0.62817 0.50417
 N396 N 0.58095 0.66409 0.55469
 N397 N 0.64901 0.31009 0.46927
 C398 C 0.62147 0.25830 0.49607
 N399 N 0.56829 0.26439 0.52706
 N400 N 0.54332 0.31985 0.53027
 C401 C 0.57033 0.37145 0.50266
 N402 N 0.62383 0.36546 0.47229
 N403 N 0.35253 0.69061 0.53114
 C404 C 0.38021 0.74228 0.50424
 N405 N 0.43338 0.73600 0.47331
 N406 N 0.45823 0.68048 0.47028
 C407 C 0.43110 0.62903 0.49801
 N408 N 0.37758 0.63518 0.52827
 N409 N 0.37082 0.28933 0.55090
 C410 C 0.37294 0.25300 0.50074
 N411 N 0.39763 0.27815 0.44790
 N412 N 0.42081 0.33654 0.44602
 C413 C 0.41979 0.37240 0.49655
 N414 N 0.39407 0.34767 0.54896
   
