data_POSCAR
  _audit_creation_date              2014-09-24
  _audit_creation_method            'ToBaCCo'
  _symmetry_space_group_name_H-M    'P1'
  _symmetry_Int_Tables_number       1
  _symmetry_cell_setting            triclinic
  loop_
  _symmetry_equiv_pos_as_xyz
 x,y,z
_cell_length_a 30.5944
_cell_length_b 31.3124
_cell_length_c 29.9680
_cell_angle_alpha 91.007100
_cell_angle_beta 91.058900
_cell_angle_gamma 90.413100
loop_
  _atom_site_label
  _atom_site_type_symbol
  _atom_site_fract_x
  _atom_site_fract_y
  _atom_site_fract_z
O1 O 0.51156 0.09205 0.01913
 O2 O 0.48112 -0.01924 -0.08813
 O3 O 0.57260 0.01963 -0.04582
 O4 O 0.42091 0.04973 -0.02025
 O5 O 0.55399 -0.04230 -0.06786
 O6 O 0.43814 0.07591 0.04293
 O7 O 0.41842 -0.01657 -0.05786
 O8 O 0.57401 0.06154 0.02011
 C9 C 0.55121 0.09352 0.01187
 C10 C 0.44168 -0.01141 -0.09125
 C11 C 0.57283 -0.00805 -0.07537
 C12 C 0.42030 0.08037 0.00582
 O13 O 0.47069 0.01715 0.09892
 O14 O 0.52089 -0.08988 -0.00279
 O15 O 0.56836 -0.01185 0.06967
 O16 O 0.42353 -0.05698 0.02360
 O17 O 0.44900 -0.08117 -0.03655
 O18 O 0.54254 0.04786 0.08876
 O19 O 0.41173 0.00852 0.06031
 O20 O 0.58003 -0.05317 0.00472
 Co21 Co 0.49123 0.05221 0.05669
 Co22 Co 0.50065 -0.05211 -0.04308
 Co23 Co 0.56650 0.00366 0.01167
 Co24 Co 0.42580 -0.00345 0.00195
 O25 O 0.49605 0.00008 0.00680
 C26 C 0.43213 0.00517 0.09661
 C27 C 0.55971 -0.08757 0.00933
 C28 C 0.56392 0.01580 0.09877
 C29 C 0.42791 -0.08737 -0.00229
 O30 O -0.10002 0.46490 -0.01969
 O31 O 0.03728 0.53140 0.07980
 O32 O -0.02588 0.43010 0.04721
 O33 O -0.04965 0.59548 -0.00534
 O34 O 0.03534 0.45419 0.07059
 O35 O -0.09683 0.54354 -0.01020
 O36 O -0.02213 0.56146 0.06177
 O37 O -0.05652 0.41056 -0.02583
 C38 C -0.09423 0.42540 -0.02216
 C39 C 0.00435 0.55190 0.09114
 C40 C 0.00143 0.43333 0.07767
 C41 C -0.08829 0.58230 -0.00384
 O42 O -0.04690 0.55059 -0.08284
 O43 O 0.07089 0.45767 -0.01016
 O44 O 0.00894 0.43544 -0.06820
 O45 O 0.04023 0.60102 0.02117
 O46 O 0.07366 0.54093 -0.00016
 O47 O -0.05056 0.46812 -0.09225
 O48 O 0.01480 0.57437 -0.05181
 O49 O 0.03376 0.39635 -0.00289
 Co50 Co -0.06866 0.50642 -0.04756
 Co51 Co 0.04870 0.49650 0.03131
 Co52 Co -0.00605 0.43762 -0.00858
 Co53 Co -0.00172 0.56309 0.00585
 O54 O -0.01332 0.50096 -0.00481
 C55 C -0.01202 0.57298 -0.08432
 C56 C 0.07112 0.41666 -0.00651
 C57 C -0.01818 0.44372 -0.09912
 C58 C 0.07641 0.58027 0.01319
 O59 O 0.00051 -0.08355 0.45892
 O60 O 0.08453 0.05220 0.53560
 O61 O 0.05553 -0.02840 0.43211
 O62 O 0.00977 -0.05067 0.59414
 O63 O 0.08689 0.02859 0.45755
 O64 O 0.00717 -0.09010 0.53498
 O65 O 0.07236 -0.00128 0.57951
 O66 O -0.02137 -0.04698 0.40590
 C67 C -0.01270 -0.08284 0.41979
 C68 C 0.09765 0.02591 0.56422
 C69 C 0.08929 -0.00673 0.43766
 C70 C 0.01382 -0.08612 0.57553
 O71 O -0.06716 -0.04528 0.54983
 O72 O 0.01069 0.07135 0.44114
 O73 O -0.05078 0.02181 0.43845
 O74 O 0.01843 0.06319 0.58260
 O75 O 0.00594 0.08934 0.51799
 O76 O -0.07586 -0.03622 0.46820
 O77 O -0.04457 0.01143 0.58859
 O78 O 0.01278 0.02572 0.38620
 Co79 Co -0.03083 -0.05875 0.50275
 Co80 Co 0.04374 0.05475 0.48944
 Co81 Co 0.00339 -0.00206 0.43770
 Co82 Co 0.01354 0.00504 0.57834
 O83 O 0.00723 -0.00238 0.50529
 C84 C -0.07332 -0.01609 0.57886
 C85 C 0.01647 0.06497 0.39986
 C86 C -0.08242 -0.00172 0.44779
 C87 C 0.00650 0.09353 0.55907
 C88 C -0.42765 0.13264 0.00045
 C89 C -0.40659 0.16418 -0.00738
 C90 C -0.37811 0.19997 -0.01465
 C91 C -0.37639 0.23400 0.01623
 C92 C -0.34381 0.26531 0.01342
 C93 C -0.31240 0.26279 -0.02022
 C94 C -0.31550 0.22939 -0.05216
 C95 C -0.34809 0.19812 -0.04928
 C96 C -0.27493 0.29313 -0.02034
 C97 C -0.25909 0.30888 -0.06068
 C98 C -0.22233 0.33567 -0.06071
 C99 C -0.20095 0.34698 -0.02048
 C100 C -0.21670 0.33183 0.01984
 C101 C -0.25343 0.30508 0.01996
 C102 C -0.16288 0.37414 -0.02060
 C103 C -0.13124 0.39721 -0.02099
 H104 H -0.39922 0.23551 0.04342
 H105 H -0.34259 0.29097 0.03812
 H106 H -0.29151 0.22626 -0.07811
 H107 H -0.34874 0.17156 -0.07296
 H108 H -0.27516 0.30055 -0.09216
 H109 H -0.21049 0.34741 -0.09210
 H110 H -0.20035 0.34038 0.05115
 H111 H -0.26437 0.29291 0.05148
 C112 C 0.40592 0.87736 0.00273
 C113 C 0.38423 0.84536 0.00621
 C114 C 0.35651 0.80825 0.00893
 C115 C 0.33976 0.78891 -0.03027
 C116 C 0.30937 0.75553 -0.02805
 C117 C 0.29523 0.74108 0.01350
 C118 C 0.31329 0.75988 0.05277
 C119 C 0.34367 0.79332 0.05045
 C120 C 0.25974 0.70861 0.01567
 C121 C 0.22621 0.71352 0.04680
 C122 C 0.19087 0.68504 0.04670
 C123 C 0.18850 0.65125 0.01558
 C124 C 0.22213 0.64543 -0.01490
 C125 C 0.25760 0.67391 -0.01485
 C126 C 0.15030 0.62417 0.01380
 C127 C 0.11714 0.60316 0.01300
 H128 H 0.34922 0.80047 -0.06259
 H129 H 0.29566 0.74223 -0.05887
 H130 H 0.30345 0.74911 0.08524
 H131 H 0.35636 0.80814 0.08101
 H132 H 0.22646 0.74025 0.07023
 H133 H 0.16486 0.68998 0.07026
 H134 H 0.22060 0.61937 -0.03916
 H135 H 0.28314 0.66903 -0.03890
 C136 C 0.39456 0.11731 -0.00373
 C137 C 0.37168 0.14780 -0.01051
 C138 C 0.34294 0.18342 -0.01711
 C139 C 0.30354 0.17755 -0.04094
 C140 C 0.27357 0.21091 -0.04389
 C141 C 0.28258 0.25065 -0.02290
 C142 C 0.32284 0.25660 -0.00006
 C143 C 0.35278 0.22316 0.00285
 C144 C 0.24896 0.28469 -0.02259
 C145 C 0.24138 0.30859 0.01670
 C146 C 0.20731 0.33804 0.01831
 C147 C 0.18043 0.34414 -0.01927
 C148 C 0.18840 0.32140 -0.05888
 C149 C 0.22248 0.29190 -0.06059
 C150 C 0.14284 0.37134 -0.01605
 C151 C 0.11052 0.39280 -0.01227
 H152 H 0.29543 0.14682 -0.05622
 H153 H 0.24264 0.20506 -0.06115
 H154 H 0.33095 0.28695 0.01600
 H155 H 0.38315 0.22803 0.02148
 H156 H 0.26069 0.30335 0.04671
 H157 H 0.20121 0.35520 0.04926
 H158 H 0.16770 0.32579 -0.08815
 H159 H 0.22780 0.27437 -0.09145
 C160 C -0.41660 0.87496 0.02141
 C161 C -0.39382 0.84470 0.02926
 C162 C -0.36378 0.81017 0.03578
 C163 C -0.32377 0.81805 0.05789
 C164 C -0.29128 0.78691 0.05791
 C165 C -0.29836 0.74751 0.03557
 C166 C -0.33944 0.73918 0.01518
 C167 C -0.37188 0.77040 0.01517
 C168 C -0.26200 0.71675 0.03061
 C169 C -0.25553 0.69580 -0.01064
 C170 C -0.21990 0.66880 -0.01647
 C171 C -0.19020 0.66233 0.01875
 C172 C -0.19654 0.68258 0.06011
 C173 C -0.23222 0.70968 0.06603
 C174 C -0.15335 0.63486 0.01204
 C175 C -0.12312 0.61131 0.00529
 H176 H -0.31695 0.84894 0.07344
 H177 H -0.25988 0.79452 0.07343
 H178 H -0.34608 0.70892 -0.00173
 H179 H -0.40262 0.76408 -0.00233
 H180 H -0.27736 0.70116 -0.03881
 H181 H -0.21527 0.65330 -0.04863
 H182 H -0.17383 0.67761 0.08766
 H183 H -0.23653 0.72508 0.09827
 C184 C 0.00106 -0.42870 0.13461
 C185 C -0.00175 -0.40783 0.16860
 C186 C -0.00507 -0.37861 0.20597
 C187 C 0.03292 -0.36157 0.22625
 C188 C 0.03027 -0.32725 0.25656
 C189 C -0.01049 -0.30930 0.26673
 C190 C -0.04863 -0.32786 0.24763
 C191 C -0.04589 -0.36219 0.21737
 C192 C -0.01287 -0.26974 0.29470
 C193 C -0.04147 -0.23666 0.28264
 C194 C -0.04212 -0.19844 0.30745
 C195 C -0.01425 -0.19272 0.34464
 C196 C 0.01395 -0.22560 0.35722
 C197 C 0.01469 -0.26384 0.33244
 C198 C -0.01438 -0.15320 0.36993
 C199 C -0.01394 -0.12060 0.39196
 H200 H 0.06475 -0.37348 0.21709
 H201 H 0.06026 -0.31341 0.27024
 H202 H -0.08050 -0.31514 0.25527
 H203 H -0.07548 -0.37475 0.20146
 H204 H -0.06257 -0.23990 0.25335
 H205 H -0.06405 -0.17321 0.29738
 H206 H 0.03553 -0.22159 0.38609
 H207 H 0.03676 -0.28882 0.34282
 C208 C -0.01415 0.42304 0.85817
 C209 C -0.01279 0.40315 0.82347
 C210 C -0.01306 0.37662 0.78383
 C211 C 0.02418 0.37331 0.75763
 C212 C 0.02520 0.34349 0.72236
 C213 C -0.01095 0.31643 0.71310
 C214 C -0.04877 0.32122 0.73864
 C215 C -0.04975 0.35108 0.77374
 C216 C -0.00810 0.28094 0.67976
 C217 C -0.04461 0.26872 0.65304
 C218 C -0.04305 0.23234 0.62532
 C219 C -0.00497 0.20792 0.62388
 C220 C 0.03187 0.22059 0.64923
 C221 C 0.03037 0.25680 0.67697
 C222 C -0.00383 0.16843 0.59874
 C223 C -0.00059 0.13449 0.57958
 H224 H 0.05281 0.39285 0.76525
 H225 H 0.05459 0.34094 0.70294
 H226 H -0.07688 0.30051 0.73292
 H227 H -0.07862 0.35314 0.79407
 H228 H -0.07454 0.28692 0.65410
 H229 H -0.07175 0.22279 0.60581
 H230 H 0.06143 0.20175 0.64855
 H231 H 0.05877 0.26480 0.69761
 C232 C -0.00209 0.40734 0.11642
 C233 C -0.00356 0.38251 0.14669
 C234 C -0.00387 0.35015 0.18027
 C235 C -0.03922 0.32167 0.18237
 C236 C -0.03725 0.28683 0.21090
 C237 C 0.00027 0.27985 0.23760
 C238 C 0.03517 0.30931 0.23611
 C239 C 0.03312 0.34414 0.20757
 C240 C 0.00356 0.24124 0.26565
 C241 C 0.04299 0.21843 0.26861
 C242 C 0.04594 0.18172 0.29441
 C243 C 0.00956 0.16725 0.31758
 C244 C -0.02979 0.18969 0.31485
 C245 C -0.03282 0.22639 0.28906
 C246 C 0.01279 0.13014 0.34518
 C247 C 0.01491 0.09980 0.36935
 H248 H -0.06775 0.32563 0.16092
 H249 H -0.06444 0.26450 0.21083
 H250 H 0.06423 0.30518 0.25669
 H251 H 0.06085 0.36574 0.20595
 H252 H 0.07139 0.22861 0.25045
 H253 H 0.07658 0.16466 0.29631
 H254 H -0.05808 0.17896 0.33290
 H255 H -0.06347 0.24344 0.28788
 C256 C -0.00416 -0.40452 0.88056
 C257 C 0.00294 -0.38239 0.84894
 C258 C 0.01090 -0.35432 0.81240
 C259 C -0.02212 -0.34707 0.78057
 C260 C -0.01591 -0.31689 0.74741
 C261 C 0.02342 -0.29341 0.74573
 C262 C 0.05685 -0.30173 0.77721
 C263 C 0.05057 -0.33195 0.81034
 C264 C 0.02839 -0.25874 0.71294
 C265 C 0.04758 -0.21940 0.72610
 C266 C 0.04870 -0.18538 0.69654
 C267 C 0.03085 -0.19023 0.65341
 C268 C 0.01289 -0.22961 0.63954
 C269 C 0.01171 -0.26368 0.66906
 C270 C 0.02744 -0.15386 0.62488
 C271 C 0.02247 -0.12303 0.60185
 H272 H -0.05309 -0.36393 0.78209
 H273 H -0.04253 -0.31080 0.72413
 H274 H 0.08765 -0.28453 0.77650
 H275 H 0.07631 -0.33723 0.83491
 H276 H 0.06013 -0.21435 0.75981
 H277 H 0.06228 -0.15491 0.70778
 H278 H -0.00121 -0.23366 0.60629
 H279 H -0.00280 -0.29371 0.65778
 C280 C 0.42356 -0.00300 0.87029
 C281 C 0.40504 0.00386 0.83532
 C282 C 0.38049 0.01071 0.79469
 C283 C 0.37034 0.05216 0.78143
 C284 C 0.34190 0.05845 0.74507
 C285 C 0.32309 0.02329 0.72168
 C286 C 0.33486 -0.01821 0.73432
 C287 C 0.36331 -0.02440 0.77058
 C288 C 0.28842 0.02948 0.68704
 C289 C 0.28527 0.00228 0.64917
 C290 C 0.24922 0.00446 0.61991
 C291 C 0.21605 0.03401 0.62796
 C292 C 0.21987 0.06244 0.66438
 C293 C 0.25579 0.06027 0.69369
 C294 C 0.17589 0.03214 0.60224
 C295 C 0.14082 0.02971 0.58334
 H296 H 0.38333 0.07957 0.79997
 H297 H 0.33386 0.09078 0.73586
 H298 H 0.32046 -0.04596 0.71759
 H299 H 0.37063 -0.05663 0.78082
 H300 H 0.31011 -0.02141 0.64283
 H301 H 0.24649 -0.01786 0.59194
 H302 H 0.19415 0.08512 0.67122
 H303 H 0.25680 0.08123 0.72282
 C304 C -0.41148 0.01456 0.13991
 C305 C -0.38926 0.01523 0.17356
 C306 C -0.36089 0.01759 0.21239
 C307 C -0.36968 -0.00640 0.25021
 C308 C -0.34073 -0.00495 0.28697
 C309 C -0.30264 0.02055 0.28627
 C310 C -0.29463 0.04507 0.24834
 C311 C -0.32354 0.04358 0.21176
 C312 C -0.26981 0.01970 0.32344
 C313 C -0.24670 0.05701 0.33673
 C314 C -0.21188 0.05503 0.36751
 C315 C -0.19993 0.01585 0.38567
 C316 C -0.22400 -0.02105 0.37424
 C317 C -0.25875 -0.01918 0.34343
 C318 C -0.15989 0.01219 0.41123
 C319 C -0.12504 0.00712 0.42972
 H320 H -0.39858 -0.02655 0.25110
 H321 H -0.34800 -0.02391 0.31581
 H322 H -0.26526 0.06439 0.24631
 H323 H -0.31635 0.06218 0.18260
 H324 H -0.25482 0.08752 0.32242
 H325 H -0.19328 0.08374 0.37585
 H326 H -0.21469 -0.05166 0.38765
 H327 H -0.27543 -0.04855 0.33354
 C328 C 0.40937 -0.00712 0.13586
 C329 C 0.38835 -0.01656 0.16792
 C330 C 0.36108 -0.02653 0.20504
 C331 C 0.37437 -0.01559 0.24873
 C332 C 0.34568 -0.02113 0.28405
 C333 C 0.30321 -0.03754 0.27605
 C334 C 0.29080 -0.04978 0.23218
 C335 C 0.31952 -0.04428 0.19700
 C336 C 0.27064 -0.03850 0.31228
 C337 C 0.23939 -0.07166 0.31408
 C338 C 0.20512 -0.06933 0.34430
 C339 C 0.20182 -0.03403 0.37332
 C340 C 0.23387 -0.00193 0.37321
 C341 C 0.26807 -0.00413 0.34300
 C342 C 0.16295 -0.02770 0.39891
 C343 C 0.12959 -0.01968 0.41803
 H344 H 0.40644 -0.00174 0.25534
 H345 H 0.35641 -0.01184 0.31748
 H346 H 0.25818 -0.06181 0.22467
 H347 H 0.30875 -0.05256 0.16328
 H348 H 0.24076 -0.09880 0.29128
 H349 H 0.18033 -0.09422 0.34385
 H350 H 0.23134 0.02583 0.39509
 H351 H 0.29109 0.02224 0.34212
 C352 C -0.40070 -0.00371 0.88593
 C353 C -0.37747 -0.00215 0.85392
 C354 C -0.34857 -0.00241 0.81653
 C355 C -0.33157 -0.04120 0.80107
 C356 C -0.30136 -0.04181 0.76667
 C357 C -0.28763 -0.00355 0.74719
 C358 C -0.30559 0.03527 0.76234
 C359 C -0.33584 0.03580 0.79683
 C360 C -0.25306 -0.00411 0.71294
 C361 C -0.21970 0.02707 0.71412
 C362 C -0.18532 0.02484 0.68413
 C363 C -0.18374 -0.00849 0.65248
 C364 C -0.21726 -0.03915 0.65029
 C365 C -0.25175 -0.03697 0.68028
 C366 C -0.14634 -0.01221 0.62423
 C367 C -0.11370 -0.01456 0.60240
 H368 H -0.34101 -0.07095 0.81624
 H369 H -0.28770 -0.07214 0.75635
 H370 H -0.29607 0.06522 0.74769
 H371 H -0.34878 0.06602 0.80853
 H372 H -0.21932 0.05236 0.73922
 H373 H -0.15940 0.04859 0.68633
 H374 H -0.21635 -0.06511 0.62597
 H375 H -0.27720 -0.06116 0.67814
   
