data_POSCAR
  _audit_creation_date              2014-09-24
  _audit_creation_method            'ToBaCCo'
  _symmetry_space_group_name_H-M    'P1'
  _symmetry_Int_Tables_number       1
  _symmetry_cell_setting            triclinic
  loop_
  _symmetry_equiv_pos_as_xyz
 x,y,z
_cell_length_a 60.9911
_cell_length_b 61.1958
_cell_length_c 61.3250
_cell_angle_alpha 90.046000
_cell_angle_beta 89.980400
_cell_angle_gamma 90.004600
loop_
  _atom_site_label
  _atom_site_type_symbol
  _atom_site_fract_x
  _atom_site_fract_y
  _atom_site_fract_z
N1 N 0.28530 0.24125 0.22522
 N2 N 0.27560 0.25801 0.21592
 C3 C 0.28698 0.26374 0.19798
 C4 C 0.30481 0.24986 0.19596
 C5 C 0.30320 0.23582 0.21359
 H6 H 0.28280 0.27717 0.18733
 H7 H 0.31406 0.22243 0.21751
 Cu8 Cu 0.24931 0.27080 0.22860
 Cu9 Cu 0.27373 0.22735 0.25141
 Cu10 Cu 0.22648 0.24982 0.27373
 N11 N 0.22299 0.28355 0.24127
 N12 N 0.21433 0.27537 0.25911
 C13 C 0.19673 0.28734 0.26480
 C14 C 0.19412 0.30393 0.24967
 C15 C 0.21111 0.30099 0.23495
 H16 H 0.18652 0.28409 0.27883
 H17 H 0.21475 0.31104 0.22093
 N18 N 0.24128 0.22399 0.28608
 N19 N 0.25941 0.21563 0.27778
 C20 C 0.26548 0.19828 0.28987
 C21 C 0.25041 0.19550 0.30653
 C22 C 0.23530 0.21212 0.30358
 H23 H 0.27961 0.18815 0.28656
 H24 H 0.22108 0.21541 0.31356
 H25 H 0.24136 0.23622 0.24662
 H26 H 0.25841 0.25477 0.26382
 N27 N 0.71459 -0.24122 0.22442
 N28 N 0.72482 -0.25737 0.21464
 C29 C 0.71376 -0.26280 0.19642
 C30 C 0.69541 -0.24943 0.19469
 C31 C 0.69659 -0.23594 0.21289
 H32 H 0.71852 -0.27585 0.18554
 H33 H 0.68543 -0.22300 0.21741
 Cu34 Cu 0.75100 -0.27040 0.22733
 Cu35 Cu 0.72561 -0.22781 0.25108
 Cu36 Cu 0.77245 -0.25050 0.27373
 N37 N 0.77716 -0.28315 0.24035
 N38 N 0.78508 -0.27562 0.25880
 C39 C 0.80244 -0.28779 0.26474
 C40 C 0.80579 -0.30392 0.24912
 C41 C 0.78935 -0.30031 0.23383
 H42 H 0.81192 -0.28488 0.27933
 H43 H 0.78612 -0.30971 0.21927
 N44 N 0.75732 -0.22500 0.28640
 N45 N 0.73937 -0.21650 0.27792
 C46 C 0.73321 -0.19919 0.29005
 C47 C 0.74804 -0.19657 0.30694
 C48 C 0.76309 -0.21327 0.30408
 H49 H 0.71926 -0.18890 0.28653
 H50 H 0.77722 -0.21664 0.31416
 H51 H 0.75811 -0.23631 0.24665
 H52 H 0.74082 -0.25555 0.26284
 N53 N 0.71563 0.24134 0.77627
 N54 N 0.72545 0.25800 0.78564
 C55 C 0.71424 0.26357 0.80375
 C56 C 0.69636 0.24974 0.80576
 C57 C 0.69782 0.23583 0.78798
 H58 H 0.71852 0.27693 0.81448
 H59 H 0.68686 0.22254 0.78394
 Cu60 Cu 0.75154 0.27104 0.77274
 Cu61 Cu 0.72685 0.22784 0.74973
 Cu62 Cu 0.77352 0.25109 0.72676
 N63 N 0.77762 0.28409 0.75983
 N64 N 0.78582 0.27649 0.74153
 C65 C 0.80323 0.28869 0.73576
 C66 C 0.80634 0.30489 0.75137
 C67 C 0.78969 0.30130 0.76645
 H68 H 0.81295 0.28569 0.72133
 H69 H 0.78630 0.31069 0.78099
 N70 N 0.75863 0.22526 0.71431
 N71 N 0.74082 0.21655 0.72294
 C72 C 0.73479 0.19916 0.71086
 C73 C 0.74953 0.19670 0.69387
 C74 C 0.76440 0.21357 0.69659
 H75 H 0.72094 0.18875 0.71442
 H76 H 0.77837 0.21710 0.68635
 H77 H 0.75932 0.23672 0.75389
 H78 H 0.74177 0.25538 0.73742
 N79 N 0.28587 -0.24272 0.77512
 N80 N 0.27749 -0.26085 0.78299
 C81 C 0.28920 -0.26703 0.80056
 C82 C 0.30593 -0.25206 0.80375
 C83 C 0.30330 -0.23687 0.78724
 H84 H 0.28593 -0.28143 0.81022
 H85 H 0.31311 -0.22242 0.78448
 Cu86 Cu 0.25208 -0.27480 0.76970
 Cu87 Cu 0.27335 -0.22780 0.75008
 Cu88 Cu 0.22623 -0.24999 0.72785
 N89 N 0.22504 -0.28635 0.75731
 N90 N 0.21462 -0.27618 0.74158
 C91 C 0.19618 -0.28722 0.73673
 C92 C 0.19496 -0.30558 0.74999
 C93 C 0.21370 -0.30440 0.76284
 H94 H 0.18484 -0.28241 0.72408
 H95 H 0.21858 -0.31556 0.77558
 N96 N 0.24045 -0.22362 0.71611
 N97 N 0.25831 -0.21504 0.72471
 C98 C 0.26407 -0.19727 0.71308
 C99 C 0.24922 -0.19463 0.69624
 C100 C 0.23449 -0.21165 0.69867
 H101 H 0.27829 -0.18726 0.71633
 H102 H 0.22040 -0.21500 0.68851
 H103 H 0.24185 -0.23894 0.75576
 H104 H 0.25882 -0.25483 0.73589
 N105 N 0.71443 -0.24264 0.77489
 N106 N 0.72286 -0.26075 0.78275
 C107 C 0.71086 -0.26727 0.80001
 C108 C 0.69402 -0.25239 0.80317
 C109 C 0.69683 -0.23699 0.78686
 H110 H 0.71442 -0.28146 0.80986
 H111 H 0.68686 -0.22271 0.78389
 Cu112 Cu 0.74932 -0.27323 0.77013
 Cu113 Cu 0.72708 -0.22740 0.74998
 Cu114 Cu 0.77494 -0.24907 0.72820
 N115 N 0.77581 -0.28569 0.75757
 N116 N 0.78621 -0.27562 0.74174
 C117 C 0.80441 -0.28693 0.73662
 C118 C 0.80550 -0.30533 0.74983
 C119 C 0.78692 -0.30394 0.76290
 H120 H 0.81567 -0.28222 0.72387
 H121 H 0.78203 -0.31507 0.77567
 N122 N 0.76079 -0.22247 0.71675
 N123 N 0.74241 -0.21444 0.72481
 C124 C 0.73650 -0.19684 0.71303
 C125 C 0.75189 -0.19359 0.69675
 C126 C 0.76707 -0.21015 0.69966
 H127 H 0.72206 -0.18708 0.71609
 H128 H 0.78135 -0.21331 0.68973
 H129 H 0.74240 -0.25414 0.73600
 H130 H 0.75889 -0.23746 0.75548
 N131 N 0.28415 0.24030 0.77740
 N132 N 0.27533 0.25797 0.78586
 C133 C 0.28712 0.26411 0.80339
 C134 C 0.30421 0.24945 0.80612
 C135 C 0.30175 0.23454 0.78930
 H136 H 0.28344 0.27810 0.81351
 H137 H 0.31219 0.22073 0.78572
 Cu138 Cu 0.24932 0.27120 0.77315
 Cu139 Cu 0.27255 0.22640 0.75129
 Cu140 Cu 0.22738 0.25077 0.72712
 N141 N 0.22394 0.28463 0.75942
 N142 N 0.21559 0.27672 0.74131
 C143 C 0.19831 0.28900 0.73534
 C144 C 0.19558 0.30552 0.75057
 C145 C 0.21219 0.30220 0.76561
 H146 H 0.18826 0.28588 0.72117
 H147 H 0.21558 0.31196 0.77991
 N148 N 0.24159 0.22438 0.71530
 N149 N 0.25850 0.21485 0.72476
 C150 C 0.26412 0.19701 0.71317
 C151 C 0.25014 0.19525 0.69549
 C152 C 0.23609 0.21290 0.69736
 H153 H 0.27759 0.18625 0.71711
 H154 H 0.22263 0.21690 0.68662
 H155 H 0.25914 0.25458 0.73837
 H156 H 0.24053 0.23688 0.75489
 N157 N 0.28560 -0.24093 0.22452
 N158 N 0.27681 -0.25864 0.21611
 C159 C 0.28848 -0.26468 0.19846
 C160 C 0.30547 -0.24993 0.19560
 C161 C 0.30308 -0.23506 0.21248
 H162 H 0.28473 -0.27862 0.18829
 H163 H 0.31341 -0.22113 0.21593
 Cu164 Cu 0.25093 -0.27198 0.22900
 Cu165 Cu 0.27383 -0.22684 0.25049
 Cu166 Cu 0.22731 -0.24991 0.27339
 N167 N 0.22453 -0.28443 0.24174
 N168 N 0.21557 -0.27587 0.25926
 C169 C 0.19786 -0.28772 0.26488
 C170 C 0.19549 -0.30460 0.25002
 C171 C 0.21271 -0.30196 0.23553
 H172 H 0.18735 -0.28414 0.27862
 H173 H 0.21651 -0.31222 0.22168
 N174 N 0.24162 -0.22364 0.28531
 N175 N 0.25947 -0.21499 0.27675
 C176 C 0.26534 -0.19743 0.28864
 C177 C 0.25041 -0.19481 0.30545
 C178 C 0.23560 -0.21173 0.30279
 H179 H 0.27928 -0.18710 0.28516
 H180 H 0.22160 -0.21525 0.31300
 H181 H 0.25946 -0.25438 0.26368
 H182 H 0.24187 -0.23701 0.24578
 N183 N 0.71481 0.24081 0.22486
 N184 N 0.72348 0.25865 0.21664
 C185 C 0.71181 0.26474 0.19902
 C186 C 0.69493 0.24989 0.19600
 C187 C 0.69740 0.23491 0.21274
 H188 H 0.71547 0.27878 0.18898
 H189 H 0.68716 0.22088 0.21605
 Cu190 Cu 0.74925 0.27209 0.22965
 Cu191 Cu 0.72661 0.22664 0.25073
 Cu192 Cu 0.77299 0.24978 0.27385
 N193 N 0.77563 0.28450 0.24246
 N194 N 0.78470 0.27583 0.25986
 C195 C 0.80242 0.28766 0.26547
 C196 C 0.80469 0.30466 0.25075
 C197 C 0.78738 0.30210 0.23635
 H198 H 0.81300 0.28399 0.27912
 H199 H 0.78348 0.31244 0.22261
 N200 N 0.75872 0.22343 0.28562
 N201 N 0.74097 0.21473 0.27693
 C202 C 0.73507 0.19714 0.28874
 C203 C 0.74987 0.19457 0.30566
 C204 C 0.76465 0.21155 0.30312
 H205 H 0.72117 0.18680 0.28515
 H206 H 0.77854 0.21515 0.31345
 H207 H 0.74084 0.25418 0.26418
 H208 H 0.75853 0.23705 0.24611
 O209 O 0.26798 0.02108 0.47925
 O210 O 0.26821 -0.02149 0.52168
 O211 O 0.26795 -0.02134 0.47923
 O212 O 0.26827 0.02121 0.52169
 O213 O 0.23210 0.02112 0.52209
 O214 O 0.23179 -0.02143 0.47962
 O215 O 0.23204 -0.02126 0.52212
 O216 O 0.23182 0.02122 0.47963
 Cu217 Cu 0.27173 -0.00015 0.50047
 Cu218 Cu 0.22831 -0.00009 0.50086
 C219 C 0.24986 0.02843 0.47216
 C220 C 0.25016 -0.02864 0.52918
 C221 C 0.24981 -0.02866 0.47213
 C222 C 0.25025 0.02845 0.52916
 O223 O 0.73223 0.02119 0.52206
 O224 O 0.73200 -0.02125 0.47949
 O225 O 0.73238 -0.02128 0.52203
 O226 O 0.73210 0.02122 0.47955
 O227 O 0.76827 0.02128 0.47940
 O228 O 0.76854 -0.02129 0.52174
 O229 O 0.76816 -0.02135 0.47933
 O230 O 0.76840 0.02131 0.52178
 Cu231 Cu 0.72855 -0.00003 0.50081
 Cu232 Cu 0.77197 -0.00001 0.50054
 C233 C 0.75034 0.02854 0.52919
 C234 C 0.75002 -0.02858 0.47212
 C235 C 0.75051 -0.02857 0.52916
 C236 C 0.75014 0.02854 0.47221
 O237 O 0.47905 0.26898 0.02202
 O238 O 0.52125 0.26899 -0.02094
 O239 O 0.47855 0.26902 -0.02045
 O240 O 0.52173 0.26902 0.02149
 O241 O 0.52106 0.23298 0.02208
 O242 O 0.47923 0.23299 -0.02114
 O243 O 0.52191 0.23295 -0.02029
 O244 O 0.47840 0.23294 0.02129
 Cu245 Cu 0.50013 0.27262 0.00053
 Cu246 Cu 0.50014 0.22935 0.00048
 C247 C 0.47140 0.25095 0.02890
 C248 C 0.52894 0.25096 -0.02784
 C249 C 0.47161 0.25100 -0.02809
 C250 C 0.52869 0.25099 0.02906
 O251 O 0.52134 0.73053 0.02186
 O252 O 0.47941 0.73026 -0.02137
 O253 O 0.52208 0.73012 -0.02064
 O254 O 0.47869 0.73059 0.02109
 O255 O 0.47954 0.76663 0.02157
 O256 O 0.52141 0.76614 -0.02168
 O257 O 0.47871 0.76631 -0.02086
 O258 O 0.52226 0.76656 0.02072
 Cu259 Cu 0.50038 0.72676 0.00026
 Cu260 Cu 0.50049 0.77002 -0.00009
 C261 C 0.52912 0.74860 0.02854
 C262 C 0.47174 0.74824 -0.02837
 C263 C 0.52905 0.74805 -0.02845
 C264 C 0.47181 0.74869 0.02861
 O265 O 0.02105 0.47921 0.26697
 O266 O -0.02156 0.52183 0.26698
 O267 O -0.02156 0.47920 0.26711
 O268 O 0.02104 0.52179 0.26692
 O269 O 0.02100 0.52166 0.23095
 O270 O -0.02170 0.47913 0.23114
 O271 O -0.02178 0.52158 0.23101
 O272 O 0.02105 0.47916 0.23100
 Cu273 Cu -0.00026 0.50051 0.27060
 Cu274 Cu -0.00036 0.50038 0.22742
 C275 C 0.02836 0.47189 0.24898
 C276 C -0.02898 0.52899 0.24899
 C277 C -0.02893 0.47186 0.24916
 C278 C 0.02833 0.52901 0.24891
 O279 O 0.02144 0.52172 0.73322
 O280 O -0.02113 0.47909 0.73386
 O281 O -0.02150 0.52159 0.73320
 O282 O 0.02132 0.47924 0.73375
 O283 O 0.02146 0.47991 0.76972
 O284 O -0.02120 0.52249 0.76918
 O285 O -0.02139 0.47990 0.76983
 O286 O 0.02123 0.52253 0.76920
 Cu287 Cu 0.00002 0.50042 0.72990
 Cu288 Cu 0.00003 0.50122 0.77310
 C289 C 0.02861 0.52941 0.75110
 C290 C -0.02853 0.47217 0.75195
 C291 C -0.02866 0.52929 0.75109
 C292 C 0.02869 0.47228 0.75183
 C293 C 0.35446 0.25025 0.14591
 C294 C 0.35844 0.24027 0.16617
 C295 C 0.34231 0.24006 0.18236
 C296 C 0.32187 0.25000 0.17875
 C297 C 0.31789 0.26008 0.15856
 C298 C 0.33395 0.26011 0.14229
 C299 C 0.37161 0.25037 0.12864
 C300 C 0.37437 0.26866 0.11505
 C301 C 0.39044 0.26874 0.09880
 C302 C 0.40428 0.25061 0.09583
 C303 C 0.40158 0.23235 0.10948
 C304 C 0.38540 0.23220 0.12561
 C305 C 0.42146 0.25072 0.07860
 C306 C 0.42641 0.23158 0.06687
 C307 C 0.44267 0.23164 0.05081
 C308 C 0.45421 0.25090 0.04593
 C309 C 0.44920 0.27008 0.05751
 C310 C 0.43309 0.26996 0.07373
 H311 H 0.37417 0.23286 0.16968
 H312 H 0.34602 0.23241 0.19782
 H313 H 0.30223 0.26764 0.15513
 H314 H 0.33016 0.26758 0.12675
 H315 H 0.36426 0.28305 0.11709
 H316 H 0.39185 0.28297 0.08841
 H317 H 0.41213 0.21822 0.10787
 H318 H 0.38357 0.21772 0.13558
 H319 H 0.41753 0.21657 0.06990
 H320 H 0.44605 0.21663 0.04207
 H321 H 0.45791 0.28514 0.05424
 H322 H 0.42999 0.28491 0.08267
 C323 C 0.64641 0.74994 0.14533
 C324 C 0.64397 0.76298 0.16405
 C325 C 0.66015 0.76334 0.18018
 C326 C 0.67917 0.75038 0.17827
 C327 C 0.68147 0.73721 0.15953
 C328 C 0.66542 0.73713 0.14326
 C329 C 0.62921 0.74972 0.12807
 C330 C 0.62440 0.73043 0.11653
 C331 C 0.60832 0.73025 0.10029
 C332 C 0.59640 0.74929 0.09534
 C333 C 0.60111 0.76853 0.10698
 C334 C 0.61739 0.76878 0.12301
 C335 C 0.57913 0.74908 0.07814
 C336 C 0.57566 0.76749 0.06483
 C337 C 0.55932 0.76737 0.04885
 C338 C 0.54629 0.74874 0.04555
 C339 C 0.54983 0.73027 0.05866
 C340 C 0.56594 0.73049 0.07487
 H341 H 0.62936 0.77272 0.16647
 H342 H 0.65733 0.77355 0.19429
 H343 H 0.69582 0.72715 0.15704
 H344 H 0.66812 0.72721 0.12889
 H345 H 0.63289 0.71534 0.12017
 H346 H 0.60541 0.71520 0.09149
 H347 H 0.59207 0.78343 0.10390
 H348 H 0.62082 0.78403 0.13129
 H349 H 0.58575 0.78193 0.06653
 H350 H 0.55710 0.78179 0.03886
 H351 H 0.53991 0.71574 0.05660
 H352 H 0.56781 0.71617 0.08504
 C353 C 0.64640 0.25048 -0.14444
 C354 C 0.64251 0.24049 -0.16474
 C355 C 0.65875 0.24017 -0.18081
 C356 C 0.67922 0.25000 -0.17709
 C357 C 0.68310 0.26015 -0.15689
 C358 C 0.66691 0.26032 -0.14072
 C359 C 0.62912 0.25057 -0.12728
 C360 C 0.62615 0.26887 -0.11372
 C361 C 0.60990 0.26893 -0.09764
 C362 C 0.59611 0.25074 -0.09477
 C363 C 0.59901 0.23247 -0.10839
 C364 C 0.61535 0.23236 -0.12437
 C365 C 0.57885 0.25079 -0.07758
 C366 C 0.57400 0.23166 -0.06581
 C367 C 0.55779 0.23172 -0.04969
 C368 C 0.54616 0.25093 -0.04483
 C369 C 0.55109 0.27009 -0.05644
 C370 C 0.56715 0.26999 -0.07271
 H371 H 0.62676 0.23317 -0.16835
 H372 H 0.65508 0.23253 -0.19630
 H373 H 0.69876 0.26769 -0.15339
 H374 H 0.67062 0.26788 -0.12519
 H375 H 0.63624 0.28330 -0.11567
 H376 H 0.60829 0.28318 -0.08729
 H377 H 0.58850 0.21830 -0.10687
 H378 H 0.61732 0.21787 -0.13432
 H379 H 0.58293 0.21667 -0.06884
 H380 H 0.55452 0.21674 -0.04087
 H381 H 0.54235 0.28514 -0.05314
 H382 H 0.57017 0.28492 -0.08168
 C383 C 0.35515 0.74789 -0.14581
 C384 C 0.33517 0.73677 -0.14285
 C385 C 0.31927 0.73666 -0.15927
 C386 C 0.32286 0.74786 -0.17893
 C387 C 0.34274 0.75904 -0.18190
 C388 C 0.35875 0.75895 -0.16559
 C389 C 0.37215 0.74795 -0.12838
 C390 C 0.38511 0.76658 -0.12464
 C391 C 0.40121 0.76658 -0.10842
 C392 C 0.40463 0.74803 -0.09534
 C393 C 0.39156 0.72944 -0.09897
 C394 C 0.37561 0.72937 -0.11534
 C395 C 0.42179 0.74804 -0.07806
 C396 C 0.43402 0.72907 -0.07360
 C397 C 0.45011 0.72909 -0.05738
 C398 C 0.45455 0.74815 -0.04540
 C399 C 0.44244 0.76715 -0.04986
 C400 C 0.42616 0.76706 -0.06590
 H401 H 0.33164 0.72842 -0.12770
 H402 H 0.30401 0.72811 -0.15637
 H403 H 0.34613 0.76759 -0.19697
 H404 H 0.37408 0.76732 -0.16864
 H405 H 0.38272 0.78130 -0.13412
 H406 H 0.41114 0.78109 -0.10632
 H407 H 0.39349 0.71496 -0.08904
 H408 H 0.36616 0.71462 -0.11792
 H409 H 0.43140 0.71424 -0.08287
 H410 H 0.45929 0.71423 -0.05442
 H411 H 0.44536 0.78205 -0.04078
 H412 H 0.41681 0.78186 -0.06857
 C413 C 0.14462 0.35424 0.24923
 C414 C 0.15631 0.34908 0.23014
 C415 C 0.17240 0.33281 0.23029
 C416 C 0.17708 0.32121 0.24949
 C417 C 0.16536 0.32630 0.26856
 C418 C 0.14939 0.34267 0.26845
 C419 C 0.12754 0.37160 0.24912
 C420 C 0.10818 0.36915 0.26134
 C421 C 0.09219 0.38550 0.26135
 C422 C 0.09511 0.40462 0.24903
 C423 C 0.11439 0.40707 0.23674
 C424 C 0.13046 0.39078 0.23683
 C425 C 0.07809 0.42194 0.24902
 C426 C 0.07187 0.43217 0.22947
 C427 C 0.05569 0.44834 0.22944
 C428 C 0.04550 0.45475 0.24899
 C429 C 0.05182 0.44460 0.26855
 C430 C 0.06788 0.42831 0.26855
 H431 H 0.15279 0.35738 0.21495
 H432 H 0.18091 0.32913 0.21524
 H433 H 0.16874 0.31790 0.28371
 H434 H 0.14098 0.34647 0.28354
 H435 H 0.10521 0.35443 0.27067
 H436 H 0.07735 0.38304 0.27074
 H437 H 0.11720 0.42178 0.22733
 H438 H 0.14533 0.39338 0.22755
 H439 H 0.07931 0.42742 0.21414
 H440 H 0.05120 0.45585 0.21409
 H441 H 0.04430 0.44917 0.28389
 H442 H 0.07252 0.42086 0.28389
 C443 C 0.14552 0.64561 0.75050
 C444 C 0.14259 0.66492 0.73858
 C445 C 0.15893 0.68092 0.73824
 C446 C 0.17848 0.67821 0.75024
 C447 C 0.18114 0.65884 0.76242
 C448 C 0.16495 0.64266 0.76233
 C449 C 0.12834 0.62857 0.75055
 C450 C 0.13365 0.60679 0.74561
 C451 C 0.11736 0.59073 0.74538
 C452 C 0.09558 0.59612 0.75051
 C453 C 0.09031 0.61786 0.75565
 C454 C 0.10653 0.63399 0.75546
 C455 C 0.07840 0.57908 0.75060
 C456 C 0.06454 0.57665 0.76871
 C457 C 0.04848 0.56038 0.76894
 C458 C 0.04569 0.54652 0.75087
 C459 C 0.05941 0.54913 0.73264
 C460 C 0.07577 0.56513 0.73260
 H461 H 0.12772 0.66748 0.72927
 H462 H 0.15589 0.69551 0.72879
 H463 H 0.19584 0.65579 0.77178
 H464 H 0.16749 0.62790 0.77173
 H465 H 0.15037 0.60229 0.74167
 H466 H 0.12178 0.57404 0.74148
 H467 H 0.07359 0.62237 0.75956
 H468 H 0.10210 0.65068 0.75941
 H469 H 0.06637 0.58717 0.78281
 H470 H 0.03808 0.55878 0.78317
 H471 H 0.05766 0.53862 0.71853
 H472 H 0.08622 0.56681 0.71841
 C473 C -0.14534 0.64649 0.24882
 C474 C -0.14783 0.66042 0.26687
 C475 C -0.16377 0.67681 0.26691
 C476 C -0.17795 0.67964 0.24898
 C477 C -0.17548 0.66553 0.23095
 C478 C -0.15934 0.64930 0.23084
 C479 C -0.12822 0.62913 0.24876
 C480 C -0.13224 0.60874 0.23891
 C481 C -0.11614 0.59248 0.23886
 C482 C -0.09576 0.59614 0.24886
 C483 C -0.09173 0.61642 0.25880
 C484 C -0.10772 0.63277 0.25864
 C485 C -0.07873 0.57886 0.24892
 C486 C -0.06713 0.57399 0.26810
 C487 C -0.05109 0.55768 0.26817
 C488 C -0.04613 0.54609 0.24898
 C489 C -0.05769 0.55104 0.22978
 C490 C -0.07392 0.56717 0.22979
 H491 H -0.13765 0.65847 0.28119
 H492 H -0.16503 0.68695 0.28130
 H493 H -0.18570 0.66705 0.21664
 H494 H -0.15766 0.63913 0.21648
 H495 H -0.14795 0.60518 0.23153
 H496 H -0.11975 0.57688 0.23132
 H497 H -0.07604 0.61975 0.26638
 H498 H -0.10387 0.64838 0.26602
 H499 H -0.07067 0.58264 0.28311
 H500 H -0.04245 0.55425 0.28321
 H501 H -0.05428 0.54237 0.21476
 H502 H -0.08250 0.57074 0.21475
 C503 C -0.14491 0.35463 0.75222
 C504 C -0.15917 0.35184 0.77002
 C505 C -0.17524 0.33554 0.76974
 C506 C -0.17744 0.32138 0.75171
 C507 C -0.16304 0.32422 0.73395
 C508 C -0.14716 0.34068 0.73416
 C509 C -0.12771 0.37192 0.75244
 C510 C -0.10711 0.36810 0.74282
 C511 C -0.09106 0.38439 0.74261
 C512 C -0.09510 0.40479 0.75229
 C513 C -0.11557 0.40864 0.76204
 C514 C -0.13174 0.39243 0.76206
 C515 C -0.07798 0.42199 0.75224
 C516 C -0.07333 0.43385 0.77131
 C517 C -0.05717 0.45007 0.77129
 C518 C -0.04552 0.45492 0.75211
 C519 C -0.05023 0.44307 0.73302
 C520 C -0.06619 0.42667 0.73313
 H521 H -0.15773 0.36205 0.78438
 H522 H -0.18563 0.33399 0.78393
 H523 H -0.16409 0.31406 0.71957
 H524 H -0.13681 0.34264 0.71995
 H525 H -0.10324 0.35239 0.73566
 H526 H -0.07533 0.38092 0.73519
 H527 H -0.11918 0.42437 0.76932
 H528 H -0.14752 0.39611 0.76927
 H529 H -0.08201 0.43037 0.78632
 H530 H -0.05392 0.45891 0.78625
 H531 H -0.04149 0.44638 0.71801
 H532 H -0.06952 0.41785 0.71818
 C533 C 0.25002 0.14546 0.35599
 C534 C 0.23083 0.15716 0.35104
 C535 C 0.23098 0.17345 0.33508
 C536 C 0.25030 0.17834 0.32358
 C537 C 0.26949 0.16662 0.32848
 C538 C 0.26937 0.15043 0.34454
 C539 C 0.24988 0.12816 0.37302
 C540 C 0.26211 0.10887 0.37024
 C541 C 0.26207 0.09269 0.38630
 C542 C 0.24971 0.09534 0.40545
 C543 C 0.23739 0.11454 0.40821
 C544 C 0.23752 0.13079 0.39222
 C545 C 0.24972 0.07817 0.42252
 C546 C 0.23010 0.07194 0.43280
 C547 C 0.23012 0.05573 0.44886
 C548 C 0.24979 0.04553 0.45509
 C549 C 0.26942 0.05182 0.44484
 C550 C 0.26937 0.06791 0.42868
 H551 H 0.21556 0.15350 0.35927
 H552 H 0.21584 0.18194 0.33154
 H553 H 0.28472 0.17015 0.32015
 H554 H 0.28453 0.14201 0.34820
 H555 H 0.27147 0.10613 0.35549
 H556 H 0.27147 0.07791 0.38360
 H557 H 0.22795 0.11716 0.42294
 H558 H 0.22822 0.14559 0.39505
 H559 H 0.21469 0.07942 0.42822
 H560 H 0.21472 0.05125 0.45643
 H561 H 0.28485 0.04428 0.44926
 H562 H 0.28476 0.07256 0.42120
 C563 C 0.74999 0.14635 0.64470
 C564 C 0.73086 0.15075 0.65668
 C565 C 0.73070 0.16709 0.67261
 C566 C 0.74965 0.17946 0.67686
 C567 C 0.76877 0.17507 0.66480
 C568 C 0.76895 0.15865 0.64895
 C569 C 0.75012 0.12903 0.62779
 C570 C 0.76789 0.11453 0.62604
 C571 C 0.76794 0.09814 0.61017
 C572 C 0.75028 0.09597 0.59558
 C573 C 0.73255 0.11057 0.59731
 C574 C 0.73245 0.12687 0.61327
 C575 C 0.75034 0.07858 0.57863
 C576 C 0.73085 0.06764 0.57304
 C577 C 0.73086 0.05144 0.55698
 C578 C 0.75038 0.04567 0.54624
 C579 C 0.76989 0.05648 0.55190
 C580 C 0.76985 0.07281 0.56785
 H581 H 0.71607 0.14135 0.65390
 H582 H 0.71564 0.17009 0.68146
 H583 H 0.78372 0.18413 0.66774
 H584 H 0.78388 0.15572 0.63983
 H585 H 0.78160 0.11565 0.63721
 H586 H 0.78168 0.08696 0.60955
 H587 H 0.71887 0.10964 0.58610
 H588 H 0.71868 0.13802 0.61405
 H589 H 0.71561 0.07140 0.58128
 H590 H 0.71557 0.04331 0.55309
 H591 H 0.78518 0.05249 0.54384
 H592 H 0.78508 0.08114 0.57149
 C593 C 0.24968 -0.14505 0.64633
 C594 C 0.23895 -0.16511 0.64288
 C595 C 0.23868 -0.18112 0.65912
 C596 C 0.24933 -0.17756 0.67912
 C597 C 0.26016 -0.15760 0.68257
 C598 C 0.26023 -0.14149 0.66642
 C599 C 0.24983 -0.12794 0.62907
 C600 C 0.26840 -0.11471 0.62581
 C601 C 0.26848 -0.09859 0.60967
 C602 C 0.25007 -0.09540 0.59624
 C603 C 0.23156 -0.10872 0.59943
 C604 C 0.23140 -0.12469 0.61569
 C605 C 0.25014 -0.07824 0.57903
 C606 C 0.23100 -0.06632 0.57432
 C607 C 0.23099 -0.05033 0.55807
 C608 C 0.25019 -0.04567 0.54630
 C609 C 0.26938 -0.05743 0.55106
 C610 C 0.26933 -0.07361 0.56715
 H611 H 0.23102 -0.16862 0.62748
 H612 H 0.23045 -0.19643 0.65583
 H613 H 0.26830 -0.15424 0.69789
 H614 H 0.26830 -0.12610 0.66982
 H615 H 0.28300 -0.11693 0.63558
 H616 H 0.28292 -0.08846 0.60790
 H617 H 0.21720 -0.10696 0.58921
 H618 H 0.21670 -0.13436 0.61791
 H619 H 0.21604 -0.06913 0.58340
 H620 H 0.21599 -0.04142 0.55491
 H621 H 0.28440 -0.05432 0.54216
 H622 H 0.28427 -0.08270 0.57005
 C623 C 0.74850 -0.14620 0.35617
 C624 C 0.76751 -0.15839 0.35176
 C625 C 0.76732 -0.17481 0.33589
 C626 C 0.74816 -0.17931 0.32396
 C627 C 0.72916 -0.16706 0.32836
 C628 C 0.72931 -0.15074 0.34434
 C629 C 0.74871 -0.12882 0.37308
 C630 C 0.73119 -0.12669 0.38781
 C631 C 0.73145 -0.11043 0.40382
 C632 C 0.74918 -0.09580 0.40540
 C633 C 0.76666 -0.09790 0.39057
 C634 C 0.76646 -0.11425 0.37464
 C635 C 0.74944 -0.07847 0.42245
 C636 C 0.76908 -0.07274 0.43305
 C637 C 0.76930 -0.05649 0.44908
 C638 C 0.74986 -0.04568 0.45501
 C639 C 0.73022 -0.05139 0.44446
 C640 C 0.73003 -0.06754 0.42833
 H641 H 0.78248 -0.15540 0.36076
 H642 H 0.78230 -0.18377 0.33285
 H643 H 0.71407 -0.17015 0.31960
 H644 H 0.71446 -0.14148 0.34725
 H645 H 0.71744 -0.13788 0.38718
 H646 H 0.71790 -0.10954 0.41520
 H647 H 0.78039 -0.08668 0.39106
 H648 H 0.78004 -0.11530 0.36331
 H649 H 0.78426 -0.08106 0.42918
 H650 H 0.78467 -0.05255 0.45700
 H651 H 0.71499 -0.04326 0.44855
 H652 H 0.71469 -0.07126 0.42025
 C653 C 0.64505 0.74726 -0.14614
 C654 C 0.65697 0.72823 -0.15101
 C655 C 0.67287 0.72833 -0.16744
 C656 C 0.67710 0.74744 -0.17945
 C657 C 0.66508 0.76644 -0.17461
 C658 C 0.64928 0.76637 -0.15811
 C659 C 0.62824 0.74722 -0.12865
 C660 C 0.62668 0.76480 -0.11399
 C661 C 0.61076 0.76484 -0.09760
 C662 C 0.59594 0.74734 -0.09557
 C663 C 0.59755 0.72974 -0.11025
 C664 C 0.61356 0.72965 -0.12656
 C665 C 0.57883 0.74751 -0.07830
 C666 C 0.57310 0.72818 -0.06731
 C667 C 0.55692 0.72834 -0.05117
 C668 C 0.54618 0.74786 -0.04555
 C669 C 0.55194 0.76722 -0.05646
 C670 C 0.56803 0.76703 -0.07269
 H671 H 0.65420 0.71332 -0.14192
 H672 H 0.68169 0.71337 -0.17080
 H673 H 0.66798 0.78150 -0.18339
 H674 H 0.64019 0.78122 -0.15485
 H675 H 0.63799 0.77840 -0.11500
 H676 H 0.61023 0.77846 -0.08634
 H677 H 0.58618 0.71618 -0.10938
 H678 H 0.61419 0.71602 -0.13782
 H679 H 0.58133 0.71293 -0.07099
 H680 H 0.55295 0.71317 -0.04297
 H681 H 0.54389 0.78251 -0.05260
 H682 H 0.57177 0.78214 -0.08107
 C683 C 0.35422 0.25021 -0.14430
 C684 C 0.35012 0.23115 -0.15641
 C685 C 0.33393 0.23093 -0.17253
 C686 C 0.32141 0.24973 -0.17681
 C687 C 0.32551 0.26878 -0.16465
 C688 C 0.34179 0.26903 -0.14862
 C689 C 0.37142 0.25043 -0.12721
 C690 C 0.38582 0.26824 -0.12529
 C691 C 0.40212 0.26837 -0.10928
 C692 C 0.40430 0.25073 -0.09475
 C693 C 0.38979 0.23296 -0.09664
 C694 C 0.37358 0.23279 -0.11273
 C695 C 0.42164 0.25084 -0.07771
 C696 C 0.43282 0.23150 -0.07226
 C697 C 0.44900 0.23155 -0.05614
 C698 C 0.45449 0.25098 -0.04519
 C699 C 0.44344 0.27034 -0.05071
 C700 C 0.42714 0.27026 -0.06673
 H701 H 0.35960 0.21647 -0.15358
 H702 H 0.33115 0.21593 -0.18146
 H703 H 0.31631 0.28360 -0.16760
 H704 H 0.34448 0.28390 -0.13940
 H705 H 0.38471 0.28193 -0.13642
 H706 H 0.41324 0.28214 -0.10852
 H707 H 0.39074 0.21930 -0.08547
 H708 H 0.36250 0.21899 -0.11363
 H709 H 0.42926 0.21634 -0.08066
 H710 H 0.45733 0.21639 -0.05238
 H711 H 0.44721 0.28555 -0.04249
 H712 H 0.41863 0.28537 -0.07028
 C713 C 0.35498 0.74970 0.14547
 C714 C 0.34270 0.73080 0.14990
 C715 C 0.32657 0.73094 0.16610
 C716 C 0.32248 0.74995 0.17832
 C717 C 0.33482 0.76884 0.17391
 C718 C 0.35085 0.76873 0.15761
 C719 C 0.37209 0.74955 0.12828
 C720 C 0.37409 0.76717 0.11374
 C721 C 0.39018 0.76701 0.09752
 C722 C 0.40473 0.74928 0.09554
 C723 C 0.40273 0.73169 0.11015
 C724 C 0.38655 0.73179 0.12629
 C725 C 0.42191 0.74915 0.07834
 C726 C 0.42738 0.72968 0.06741
 C727 C 0.44361 0.72952 0.05133
 C728 C 0.45465 0.74886 0.04568
 C729 C 0.44915 0.76835 0.05650
 C730 C 0.43302 0.76848 0.07270
 H731 H 0.34539 0.71595 0.14066
 H732 H 0.31750 0.71606 0.16914
 H733 H 0.33202 0.78381 0.18287
 H734 H 0.36021 0.78348 0.15469
 H735 H 0.36297 0.78093 0.11471
 H736 H 0.39101 0.78065 0.08631
 H737 H 0.41389 0.71796 0.10934
 H738 H 0.38558 0.71813 0.13747
 H739 H 0.41890 0.71457 0.07109
 H740 H 0.44737 0.71426 0.04318
 H741 H 0.45745 0.78350 0.05261
 H742 H 0.42947 0.78368 0.08102
 C743 C 0.64552 0.25030 0.14581
 C744 C 0.65770 0.26923 0.15039
 C745 C 0.67379 0.26908 0.16661
 C746 C 0.67795 0.25002 0.17870
 C747 C 0.66572 0.23110 0.17413
 C748 C 0.64972 0.23122 0.15781
 C749 C 0.62845 0.25047 0.12858
 C750 C 0.62654 0.23290 0.11395
 C751 C 0.61047 0.23305 0.09772
 C752 C 0.59584 0.25072 0.09585
 C753 C 0.59775 0.26827 0.11054
 C754 C 0.61392 0.26817 0.12669
 C755 C 0.57864 0.25080 0.07868
 C756 C 0.57307 0.27025 0.06780
 C757 C 0.55681 0.27033 0.05175
 C758 C 0.54585 0.25094 0.04611
 C759 C 0.55146 0.23148 0.05689
 C760 C 0.56761 0.23142 0.07304
 H761 H 0.65495 0.28412 0.14124
 H762 H 0.68278 0.28399 0.16977
 H763 H 0.66857 0.21608 0.18299
 H764 H 0.64044 0.21644 0.15477
 H765 H 0.63773 0.21918 0.11483
 H766 H 0.60970 0.21945 0.08644
 H767 H 0.58652 0.28195 0.10981
 H768 H 0.61481 0.28179 0.13794
 H769 H 0.58149 0.28539 0.07149
 H770 H 0.55298 0.28557 0.04362
 H771 H 0.54324 0.21628 0.05298
 H772 H 0.57124 0.21623 0.08132
 C773 C -0.14548 0.64549 0.75013
 C774 C -0.14249 0.66470 0.73807
 C775 C -0.15873 0.68080 0.73777
 C776 C -0.17821 0.67829 0.74993
 C777 C -0.18094 0.65898 0.76220
 C778 C -0.16486 0.64270 0.76209
 C779 C -0.12837 0.62840 0.75025
 C780 C -0.13375 0.60662 0.74544
 C781 C -0.11750 0.59051 0.74530
 C782 C -0.09572 0.59587 0.75042
 C783 C -0.09038 0.61761 0.75544
 C784 C -0.10654 0.63380 0.75515
 C785 C -0.07858 0.57880 0.75057
 C786 C -0.06476 0.57640 0.76870
 C787 C -0.04866 0.56016 0.76895
 C788 C -0.04581 0.54632 0.75087
 C789 C -0.05952 0.54887 0.73264
 C790 C -0.07592 0.56483 0.73259
 H791 H -0.12766 0.66713 0.72866
 H792 H -0.15564 0.69533 0.72823
 H793 H -0.19560 0.65608 0.77167
 H794 H -0.16744 0.62801 0.77159
 H795 H -0.15047 0.60215 0.74153
 H796 H -0.12197 0.57381 0.74149
 H797 H -0.07365 0.62210 0.75933
 H798 H -0.10208 0.65049 0.75902
 H799 H -0.06663 0.58692 0.78279
 H800 H -0.03828 0.55859 0.78319
 H801 H -0.05774 0.53836 0.71854
 H802 H -0.08635 0.56649 0.71839
 C803 C -0.14562 0.35468 0.25010
 C804 C -0.14964 0.34250 0.26908
 C805 C -0.16569 0.32621 0.26927
 C806 C -0.17819 0.32185 0.25051
 C807 C -0.17421 0.33411 0.23153
 C808 C -0.15804 0.35029 0.23131
 C809 C -0.12855 0.37193 0.24990
 C810 C -0.11411 0.37390 0.23216
 C811 C -0.09794 0.39008 0.23204
 C812 C -0.09594 0.40476 0.24959
 C813 C -0.11049 0.40281 0.26729
 C814 C -0.12656 0.38654 0.26747
 C815 C -0.07875 0.42198 0.24947
 C816 C -0.06772 0.42769 0.26879
 C817 C -0.05162 0.44394 0.26870
 C818 C -0.04605 0.45473 0.24926
 C819 C -0.05698 0.44899 0.22992
 C820 C -0.07321 0.43287 0.23004
 H821 H -0.14017 0.34540 0.28374
 H822 H -0.16842 0.31721 0.28421
 H823 H -0.18341 0.33111 0.21675
 H824 H -0.15543 0.35957 0.21650
 H825 H -0.11509 0.36267 0.21854
 H826 H -0.08678 0.39086 0.21833
 H827 H -0.10968 0.41408 0.28089
 H828 H -0.13768 0.38559 0.28121
 H829 H -0.07130 0.41939 0.28396
 H830 H -0.04338 0.44788 0.28384
 H831 H -0.05315 0.45711 0.21470
 H832 H -0.08162 0.42913 0.21495
 C833 C 0.14592 0.35560 0.75136
 C834 C 0.15029 0.34380 0.73219
 C835 C 0.16637 0.32753 0.73194
 C836 C 0.17851 0.32278 0.75083
 C837 C 0.17415 0.33465 0.76999
 C838 C 0.15799 0.35083 0.77026
 C839 C 0.12881 0.37284 0.75161
 C840 C 0.11416 0.37457 0.76922
 C841 C 0.09794 0.39070 0.76936
 C842 C 0.09607 0.40553 0.75195
 C843 C 0.11085 0.40386 0.73442
 C844 C 0.12699 0.38766 0.73422
 C845 C 0.07872 0.42260 0.75200
 C846 C 0.06782 0.42822 0.73260
 C847 C 0.05162 0.44435 0.73257
 C848 C 0.04582 0.45516 0.75196
 C849 C 0.05658 0.44946 0.77140
 C850 C 0.07290 0.43341 0.77141
 H851 H 0.14109 0.34697 0.71743
 H852 H 0.16935 0.31883 0.71686
 H853 H 0.18305 0.33135 0.78489
 H854 H 0.15510 0.35981 0.78522
 H855 H 0.11500 0.36319 0.78270
 H856 H 0.08660 0.39130 0.78294
 H857 H 0.11014 0.41526 0.72094
 H858 H 0.13828 0.38692 0.72060
 H859 H 0.07161 0.41995 0.71745
 H860 H 0.04351 0.44823 0.71735
 H861 H 0.05255 0.45756 0.78659
 H862 H 0.08118 0.42971 0.78657
 C863 C 0.14548 0.64566 0.24930
 C864 C 0.15008 0.65738 0.26848
 C865 C 0.16626 0.67354 0.26869
 C866 C 0.17833 0.67827 0.24976
 C867 C 0.17383 0.66650 0.23060
 C868 C 0.15755 0.65043 0.23035
 C869 C 0.12818 0.62854 0.24907
 C870 C 0.13106 0.60917 0.23706
 C871 C 0.11480 0.59308 0.23688
 C872 C 0.09536 0.59593 0.24884
 C873 C 0.09246 0.61526 0.26087
 C874 C 0.10864 0.63141 0.26092
 C875 C 0.07820 0.57878 0.24883
 C876 C 0.06778 0.57272 0.26834
 C877 C 0.05165 0.55650 0.26838
 C878 C 0.04547 0.54612 0.24887
 C879 C 0.05586 0.55225 0.22934
 C880 C 0.07211 0.56835 0.22934
 H881 H 0.14140 0.65385 0.28347
 H882 H 0.16949 0.68208 0.28381
 H883 H 0.18264 0.66990 0.21566
 H884 H 0.15418 0.64197 0.21520
 H885 H 0.14605 0.60626 0.22805
 H886 H 0.11759 0.57821 0.22770
 H887 H 0.07750 0.61802 0.26998
 H888 H 0.10571 0.64629 0.27003
 H889 H 0.07231 0.58033 0.28364
 H890 H 0.04397 0.55215 0.28369
 H891 H 0.05148 0.54456 0.21404
 H892 H 0.07974 0.57286 0.21404
 C893 C 0.75162 -0.14417 0.64672
 C894 C 0.73247 -0.14886 0.65855
 C895 C 0.73258 -0.16479 0.67486
 C896 C 0.75183 -0.17648 0.67962
 C897 C 0.77099 -0.17178 0.66777
 C898 C 0.77090 -0.15576 0.65154
 C899 C 0.75148 -0.12728 0.62937
 C900 C 0.76888 -0.11236 0.62747
 C901 C 0.76870 -0.09640 0.61119
 C902 C 0.75117 -0.09509 0.59635
 C903 C 0.73380 -0.11009 0.59823
 C904 C 0.73393 -0.12597 0.61459
 C905 C 0.75097 -0.07810 0.57902
 C906 C 0.73133 -0.06761 0.57315
 C907 C 0.73116 -0.05162 0.55690
 C908 C 0.75065 -0.04564 0.54624
 C909 C 0.77030 -0.05609 0.55209
 C910 C 0.77044 -0.07219 0.56824
 H911 H 0.71742 -0.14003 0.65533
 H912 H 0.71748 -0.16806 0.68352
 H913 H 0.78615 -0.18034 0.67108
 H914 H 0.78587 -0.15263 0.64255
 H915 H 0.78247 -0.11279 0.63883
 H916 H 0.78214 -0.08487 0.61044
 H917 H 0.72024 -0.10979 0.58684
 H918 H 0.72046 -0.13747 0.61547
 H919 H 0.71610 -0.07153 0.58134
 H920 H 0.71577 -0.04378 0.55284
 H921 H 0.78557 -0.05196 0.54407
 H922 H 0.78579 -0.08020 0.57209
 C923 C 0.24996 -0.14493 0.35512
 C924 C 0.26927 -0.14971 0.34352
 C925 C 0.26939 -0.16582 0.32735
 C926 C 0.25026 -0.17764 0.32250
 C927 C 0.23097 -0.17292 0.33412
 C928 C 0.23080 -0.15671 0.35018
 C929 C 0.24981 -0.12776 0.37229
 C930 C 0.23762 -0.13063 0.39155
 C931 C 0.23747 -0.11449 0.40768
 C932 C 0.24962 -0.09518 0.40499
 C933 C 0.26184 -0.09230 0.38578
 C934 C 0.26188 -0.10837 0.36959
 C935 C 0.24963 -0.07814 0.42219
 C936 C 0.26928 -0.06789 0.42838
 C937 C 0.26934 -0.05189 0.44465
 C938 C 0.24972 -0.04569 0.45498
 C939 C 0.23006 -0.05590 0.44873
 C940 C 0.23003 -0.07202 0.43257
 H941 H 0.28441 -0.14122 0.34716
 H942 H 0.28460 -0.16922 0.31892
 H943 H 0.21586 -0.18150 0.33061
 H944 H 0.21556 -0.15319 0.35852
 H945 H 0.22845 -0.14552 0.39433
 H946 H 0.22815 -0.11727 0.42246
 H947 H 0.27111 -0.07744 0.38315
 H948 H 0.27113 -0.10546 0.35480
 H949 H 0.28466 -0.07245 0.42081
 H950 H 0.28477 -0.04434 0.44908
 H951 H 0.21467 -0.05149 0.45638
 H952 H 0.21462 -0.07951 0.42797
 C953 C 0.74986 0.14487 0.35537
 C954 C 0.73078 0.14925 0.34332
 C955 C 0.73080 0.16531 0.32714
 C956 C 0.74987 0.17745 0.32275
 C957 C 0.76894 0.17310 0.33487
 C958 C 0.76895 0.15693 0.35095
 C959 C 0.74987 0.12778 0.37250
 C960 C 0.76750 0.11313 0.37434
 C961 C 0.76750 0.09700 0.39044
 C962 C 0.74991 0.09523 0.40519
 C963 C 0.73230 0.10995 0.40335
 C964 C 0.73224 0.12600 0.38715
 C965 C 0.74996 0.07813 0.42241
 C966 C 0.73046 0.06734 0.42824
 C967 C 0.73050 0.05132 0.44447
 C968 C 0.75006 0.04561 0.45513
 C969 C 0.76957 0.05632 0.44927
 C970 C 0.76951 0.07245 0.43316
 H971 H 0.71589 0.14007 0.34625
 H972 H 0.71579 0.16833 0.31824
 H973 H 0.78396 0.18200 0.33183
 H974 H 0.78384 0.15404 0.36013
 H975 H 0.78116 0.11394 0.36307
 H976 H 0.78113 0.08570 0.39114
 H977 H 0.71868 0.10931 0.41467
 H978 H 0.71857 0.13726 0.38631
 H979 H 0.71519 0.07104 0.42004
 H980 H 0.71522 0.04326 0.44852
 H981 H 0.78490 0.05238 0.45728
 H982 H 0.78474 0.08067 0.42933
 C983 C 0.25037 0.14557 0.64564
 C984 C 0.24050 0.16598 0.64183
 C985 C 0.24034 0.18205 0.65803
 C986 C 0.25021 0.17817 0.67835
 C987 C 0.26016 0.15783 0.68216
 C988 C 0.26016 0.14168 0.66603
 C989 C 0.25043 0.12839 0.62845
 C990 C 0.26870 0.11466 0.62565
 C991 C 0.26869 0.09843 0.60961
 C992 C 0.25048 0.09562 0.59583
 C993 C 0.23226 0.10944 0.59856
 C994 C 0.23220 0.12555 0.61471
 C995 C 0.25046 0.07835 0.57874
 C996 C 0.23117 0.06673 0.57387
 C997 C 0.23109 0.05061 0.55772
 C998 C 0.25035 0.04556 0.54621
 C999 C 0.26968 0.05703 0.55113
 C1000 C 0.26971 0.07331 0.56714
 H1001 H 0.23317 0.16968 0.62619
 H1002 H 0.23278 0.19764 0.65447
 H1003 H 0.26766 0.15420 0.69773
 H1004 H 0.26754 0.12602 0.66969
 H1005 H 0.28314 0.11656 0.63573
 H1006 H 0.28289 0.08792 0.60817
 H1007 H 0.21807 0.10795 0.58806
 H1008 H 0.21774 0.13564 0.61657
 H1009 H 0.21614 0.06988 0.58274
 H1010 H 0.21597 0.04194 0.55442
 H1011 H 0.28475 0.05361 0.54244
 H1012 H 0.28476 0.08217 0.57018
   
