data_POSCAR
  _audit_creation_date              2014-09-24
  _audit_creation_method            'ToBaCCo'
  _symmetry_space_group_name_H-M    'P1'
  _symmetry_Int_Tables_number       1
  _symmetry_cell_setting            triclinic
  loop_
  _symmetry_equiv_pos_as_xyz
 x,y,z
_cell_length_a 23.8223
_cell_length_b 23.8524
_cell_length_c 64.9505
_cell_angle_alpha 89.990000
_cell_angle_beta 90.072400
_cell_angle_gamma 119.938700
loop_
  _atom_site_label
  _atom_site_type_symbol
  _atom_site_fract_x
  _atom_site_fract_y
  _atom_site_fract_z
C1 C -0.05924 -0.07098 0.48368
 C2 C -0.01769 -0.03684 0.50008
 C3 C -0.01029 -0.07095 0.51648
 C4 C -0.04361 -0.13873 0.51639
 C5 C -0.08562 -0.17262 0.50009
 C6 C -0.09375 -0.13876 0.48378
 C7 C 0.01797 0.03448 0.50008
 C8 C 0.01026 0.06866 0.51639
 C9 C 0.04355 0.13640 0.51628
 C10 C 0.08582 0.17021 0.50009
 C11 C 0.09426 0.13634 0.48389
 C12 C 0.05982 0.06860 0.48378
 H13 H -0.06532 -0.04466 0.47107
 H14 H 0.02213 -0.04462 0.52910
 H15 H -0.02234 0.04254 0.52895
 H16 H 0.06628 0.04243 0.47121
 H17 H -0.11191 -0.22515 0.50009
 H18 H 0.11205 0.22269 0.50009
 C19 C 1.07135 0.01033 0.15001
 C20 C 1.03731 0.01780 0.16641
 C21 C 1.07164 0.05939 0.18276
 C22 C 1.13944 0.09383 0.18262
 C23 C 1.17324 0.08568 0.16634
 C24 C 1.13922 0.04362 0.15007
 C25 C 0.96590 -0.01781 0.16645
 C26 C 0.93189 -0.05937 0.18283
 C27 C 0.86407 -0.09374 0.18277
 C28 C 0.83000 -0.08554 0.16655
 C29 C 0.86371 -0.04355 0.15029
 C30 C 0.93152 -0.01033 0.15013
 H31 H 1.04489 -0.02213 0.13742
 H32 H 1.04555 0.06566 0.19540
 H33 H 0.95821 -0.06565 0.19541
 H34 H 0.95757 0.02206 0.13751
 H35 H 1.22581 0.11201 0.16636
 H36 H 0.77746 -0.11171 0.16659
 C37 C 0.05794 0.98961 0.85020
 C38 C 0.01618 0.98211 0.83384
 C39 C 0.00871 0.94052 0.81747
 C40 C 0.04214 0.90612 0.81756
 C41 C 0.08435 0.91431 0.83380
 C42 C 0.09258 0.95635 0.85008
 C43 C -0.01959 1.01777 0.83384
 C44 C -0.01211 1.05942 0.81749
 C45 C -0.04551 1.09385 0.81757
 C46 C -0.08769 1.08563 0.83378
 C47 C -0.09594 1.04352 0.85004
 C48 C -0.06133 1.01023 0.85017
 H49 H 0.06411 1.02208 0.86280
 H50 H -0.02381 0.93425 0.80487
 H51 H 0.02041 1.06572 0.80491
 H52 H -0.06750 0.97772 0.86275
 H53 H 0.11064 0.88802 0.83373
 H54 H -0.11395 1.11196 0.83371
 O55 O 0.41676 -0.05523 -0.02011
 O56 O 0.52597 -0.05512 0.01958
 O57 O 0.41873 -0.05118 0.02000
 O58 O 0.52800 -0.05122 -0.02052
 O59 O 0.58092 0.05546 -0.02017
 O60 O 0.47236 0.05550 0.01963
 O61 O 0.57961 0.05156 0.01994
 O62 O 0.46968 0.05145 -0.02047
 Cu63 Cu 0.46705 -0.06382 -0.00027
 Cu64 Cu 0.53095 0.06413 -0.00027
 C65 C 0.42427 -0.00236 -0.02718
 C66 C 0.57128 -0.00221 0.02665
 C67 C 0.42718 0.00262 0.02673
 C68 C 0.57331 0.00256 -0.02725
 O69 O -0.05666 0.41827 0.68642
 O70 O -0.05646 0.52697 0.64663
 O71 O -0.05255 0.41982 0.64633
 O72 O -0.05271 0.52930 0.68674
 O73 O 0.05411 0.58220 0.68647
 O74 O 0.05427 0.47341 0.64678
 O75 O 0.05036 0.58055 0.64636
 O76 O 0.05016 0.47116 0.68688
 Cu77 Cu -0.06524 0.46829 0.66652
 Cu78 Cu 0.06287 0.53214 0.66663
 C79 C -0.00373 0.42587 0.69356
 C80 C -0.00346 0.57217 0.63958
 C81 C 0.00133 0.42818 0.63967
 C82 C 0.00112 0.57460 0.69350
 O83 O 0.52877 0.58213 0.31379
 O84 O 0.42004 0.47331 0.35346
 O85 O 0.53105 0.58044 0.35389
 O86 O 0.42176 0.47109 0.31336
 O87 O 0.47571 0.41819 0.31375
 O88 O 0.58431 0.52685 0.35356
 O89 O 0.47329 0.41971 0.35384
 O90 O 0.58273 0.52923 0.31345
 Cu91 Cu 0.47006 0.53205 0.33363
 Cu92 Cu 0.53436 0.46819 0.33365
 C93 C 0.57415 0.57454 0.30673
 C94 C 0.42779 0.42807 0.36054
 C95 C 0.57652 0.57205 0.36064
 C96 C 0.43035 0.42580 0.30664
 C97 C -0.05126 0.29665 0.59905
 C98 C 0.00879 0.30667 0.59218
 C99 C 0.06588 0.35571 0.60097
 C100 C 0.06321 0.39483 0.61646
 C101 C 0.03397 0.17124 0.53271
 C102 C -0.05409 0.33584 0.61461
 C103 C 0.01267 0.26757 0.57599
 C104 C 0.01808 0.23622 0.56238
 C105 C 0.02620 0.20079 0.54641
 C106 C 0.00322 0.38553 0.62344
 H107 H -0.09578 0.25881 0.59233
 H108 H 0.11261 0.36393 0.59577
 H109 H 0.10827 0.43257 0.62291
 H110 H -0.10097 0.32748 0.61964
 C111 C 0.70528 0.65301 0.26600
 C112 C 0.69506 0.70284 0.25908
 C113 C 0.64608 0.71097 0.26788
 C114 C 0.60719 0.66942 0.28344
 C115 C 0.82943 0.86219 0.19928
 C116 C 0.66633 0.61124 0.28162
 C117 C 0.73386 0.74550 0.24279
 C118 C 0.76495 0.78196 0.22911
 C119 C 0.80009 0.82517 0.21305
 C120 C 0.61667 0.61892 0.29046
 H121 H 0.74309 0.64627 0.25926
 H122 H 0.63771 0.74933 0.26264
 H123 H 0.56947 0.67679 0.28989
 H124 H 0.67482 0.57284 0.28669
 C125 C 0.28722 -0.06681 -0.06595
 C126 C 0.29511 -0.00980 -0.07471
 C127 C 0.34502 0.05018 -0.06780
 C128 C 0.38709 0.05300 -0.05222
 C129 C 0.13455 -0.03477 -0.13432
 C130 C 0.32907 -0.06415 -0.05044
 C131 C 0.25210 -0.01366 -0.09094
 C132 C 0.21535 -0.01904 -0.10458
 C133 C 0.17183 -0.02709 -0.12059
 C134 C 0.37964 -0.00424 -0.04342
 H135 H 0.24880 -0.11348 -0.07118
 H136 H 0.35158 0.09465 -0.07451
 H137 H 0.42553 0.09983 -0.04716
 H138 H 0.32187 -0.10916 -0.04401
 C139 C 0.04952 0.70341 0.59888
 C140 C -0.01047 0.69339 0.59189
 C141 C -0.06764 0.64448 0.60062
 C142 C -0.06511 0.60547 0.61619
 C143 C -0.03485 0.82835 0.53204
 C144 C 0.05220 0.66433 0.61451
 C145 C -0.01418 0.73235 0.57560
 C146 C -0.01941 0.76358 0.56191
 C147 C -0.02730 0.79889 0.54583
 C148 C -0.00520 0.61476 0.62329
 H149 H 0.09410 0.74115 0.59220
 H150 H -0.11431 0.63627 0.59533
 H151 H -0.11024 0.56782 0.62259
 H152 H 0.09903 0.67267 0.61964
 C153 C 0.35845 0.28947 0.26770
 C154 C 0.30936 0.29752 0.25890
 C155 C 0.29909 0.34729 0.26584
 C156 C 0.33809 0.38907 0.28148
 C157 C 0.17436 0.13796 0.19912
 C158 C 0.39739 0.33103 0.28328
 C159 C 0.27045 0.25480 0.24261
 C160 C 0.23923 0.21829 0.22893
 C161 C 0.20390 0.17503 0.21288
 C162 C 0.38784 0.38146 0.29033
 H163 H 0.36686 0.25116 0.26245
 H164 H 0.26120 0.35396 0.25910
 H165 H 0.32955 0.42740 0.28657
 H166 H 0.43518 0.32372 0.28974
 C167 C 0.70983 0.06687 -0.06609
 C168 C 0.70193 0.00982 -0.07483
 C169 C 0.65215 -0.05013 -0.06789
 C170 C 0.61023 -0.05290 -0.05230
 C171 C 0.86214 0.03464 -0.13439
 C172 C 0.66814 0.06426 -0.05057
 C173 C 0.74481 0.01362 -0.09105
 C174 C 0.78148 0.01895 -0.10467
 C175 C 0.82492 0.02698 -0.12067
 C176 C 0.61772 0.00438 -0.04352
 H177 H 0.74814 0.11352 -0.07135
 H178 H 0.64558 -0.09463 -0.07457
 H179 H 0.57191 -0.09971 -0.04721
 H180 H 0.67536 0.10930 -0.04416
 C181 C 0.35522 0.06700 0.06567
 C182 C 0.30642 0.00998 0.07450
 C183 C 0.29633 -0.04998 0.06757
 C184 C 0.33524 -0.05279 0.05191
 C185 C 0.17207 0.03481 0.13442
 C186 C 0.39406 0.06436 0.05008
 C187 C 0.26765 0.01382 0.09082
 C188 C 0.23657 0.01917 0.10453
 C189 C 0.20143 0.02718 0.12062
 C190 C 0.38472 0.00447 0.04304
 H191 H 0.36348 0.11365 0.07091
 H192 H 0.25867 -0.09446 0.07432
 H193 H 0.32686 -0.09960 0.04683
 H194 H 0.43164 0.10937 0.04360
 C195 C 0.65493 0.70331 0.40137
 C196 C 0.70492 0.69327 0.40833
 C197 C 0.71313 0.64433 0.39956
 C198 C 0.67154 0.60531 0.38400
 C199 C 0.86452 0.82830 0.46813
 C200 C 0.61311 0.66422 0.38574
 C201 C 0.74766 0.73224 0.42461
 C202 C 0.78419 0.76349 0.43829
 C203 C 0.82746 0.79882 0.45435
 C204 C 0.62089 0.61462 0.37693
 H205 H 0.64812 0.74107 0.40807
 H206 H 0.75161 0.63610 0.40483
 H207 H 0.67898 0.56765 0.37757
 H208 H 0.57460 0.67258 0.38064
 C209 C -0.06829 0.28951 0.73244
 C210 C -0.01121 0.29756 0.74129
 C211 C 0.04885 0.34735 0.73440
 C212 C 0.05168 0.38913 0.71875
 C213 C -0.03613 0.13800 0.80107
 C214 C -0.06561 0.33107 0.71687
 C215 C -0.01508 0.25486 0.75758
 C216 C -0.02045 0.21835 0.77126
 C217 C -0.02848 0.17508 0.78732
 C218 C -0.00563 0.38151 0.70986
 H219 H -0.11501 0.25119 0.73766
 H220 H 0.09337 0.35403 0.74117
 H221 H 0.09857 0.42748 0.71371
 H222 H -0.11067 0.32375 0.71037
 C223 C 0.64396 -0.06646 0.06545
 C224 C 0.69301 -0.00940 0.07422
 C225 C 0.70300 0.05054 0.06731
 C226 C 0.66375 0.05328 0.05171
 C227 C 0.82870 -0.03417 0.13383
 C228 C 0.60478 -0.06387 0.04993
 C229 C 0.73215 -0.01319 0.09046
 C230 C 0.76355 -0.01852 0.10410
 C231 C 0.79905 -0.02652 0.12011
 C232 C 0.61404 -0.00400 0.04290
 H233 H 0.63577 -0.11310 0.07069
 H234 H 0.74085 0.09504 0.07402
 H235 H 0.67208 0.10008 0.04665
 H236 H 0.56703 -0.10891 0.04349
 C237 C 0.34904 0.29649 0.40110
 C238 C 0.29903 0.30652 0.40800
 C239 C 0.29094 0.35557 0.39926
 C240 C 0.33267 0.39471 0.38377
 C241 C 0.13863 0.17112 0.46745
 C242 C 0.39099 0.33569 0.38555
 C243 C 0.25612 0.26740 0.42419
 C244 C 0.21941 0.23605 0.43779
 C245 C 0.17591 0.20064 0.45376
 C246 C 0.38332 0.38540 0.37676
 H247 H 0.35575 0.25863 0.40779
 H248 H 0.25245 0.36379 0.40447
 H249 H 0.32530 0.43245 0.37735
 H250 H 0.42950 0.32733 0.38049
 C251 C 0.06536 0.71097 0.73241
 C252 C 0.00821 0.70282 0.74118
 C253 C -0.05178 0.65300 0.73422
 C254 C -0.05450 0.61126 0.71858
 C255 C 0.03281 0.86206 0.80104
 C256 C 0.06280 0.66946 0.71684
 C257 C 0.01197 0.74545 0.75749
 C258 C 0.01725 0.78188 0.77118
 C259 C 0.02521 0.82506 0.78726
 C260 C 0.00288 0.61896 0.70977
 H261 H 0.11204 0.74932 0.73768
 H262 H -0.09635 0.64625 0.74093
 H263 H -0.10134 0.57287 0.71348
 H264 H 0.10791 0.67684 0.71041
   
