data_POSCAR
  _audit_creation_date              2014-09-24
  _audit_creation_method            'ToBaCCo'
  _symmetry_space_group_name_H-M    'P1'
  _symmetry_Int_Tables_number       1
  _symmetry_cell_setting            triclinic
  loop_
  _symmetry_equiv_pos_as_xyz
 x,y,z
_cell_length_a 49.9333
_cell_length_b 50.1368
_cell_length_c 21.7002
_cell_angle_alpha 89.785800
_cell_angle_beta 90.355600
_cell_angle_gamma 119.777200
loop_
  _atom_site_label
  _atom_site_type_symbol
  _atom_site_fract_x
  _atom_site_fract_y
  _atom_site_fract_z
C1 C 0.13736 0.41901 0.50597
 C2 C 0.14746 0.41383 0.44977
 C3 C 0.17411 0.41123 0.44756
 C4 C 0.19225 0.41582 0.50103
 C5 C 0.18193 0.42183 0.55719
 C6 C 0.15433 0.42269 0.55978
 C7 C 0.22232 0.41577 0.49770
 C8 C 0.23583 0.41106 0.55114
 C9 C 0.26499 0.41353 0.54884
 C10 C 0.28028 0.41876 0.49270
 C11 C 0.26706 0.42258 0.43898
 C12 C 0.23866 0.42181 0.44154
 H13 H 0.11670 0.42105 0.50755
 H14 H 0.18068 0.40616 0.40364
 H15 H 0.19549 0.42672 0.59896
 H16 H 0.22428 0.40600 0.59513
 H17 H 0.30291 0.42074 0.49110
 H18 H 0.23013 0.42683 0.39973
 C19 C 0.57873 -0.28320 0.49899
 C20 C 0.57626 -0.27055 0.44333
 C21 C 0.57734 -0.24210 0.44273
 C22 C 0.58241 -0.22507 0.49766
 C23 C 0.58579 -0.23801 0.55333
 C24 C 0.58293 -0.26729 0.55410
 C25 C 0.58256 -0.19495 0.49718
 C26 C 0.57617 -0.18353 0.55136
 C27 C 0.57530 -0.15605 0.55051
 C28 C 0.57935 -0.14023 0.49529
 C29 C 0.58491 -0.15136 0.44089
 C30 C 0.58753 -0.17791 0.44202
 H31 H 0.57652 -0.30588 0.49961
 H32 H 0.57328 -0.23404 0.39931
 H33 H 0.59012 -0.22590 0.59659
 H34 H 0.57091 -0.19606 0.59429
 H35 H 0.57728 -0.11968 0.49433
 H36 H 0.59291 -0.18518 0.39930
 C37 C 1.28126 0.86026 0.50487
 C38 C 1.26959 0.84452 0.44951
 C39 C 1.24124 0.81709 0.44855
 C40 C 1.22335 0.80566 0.50264
 C41 C 1.23532 0.82260 0.55785
 C42 C 1.26447 0.84909 0.55915
 C43 C 1.19338 0.77562 0.50201
 C44 C 1.18136 0.75849 0.55686
 C45 C 1.15399 0.73010 0.55607
 C46 C 1.13895 0.71763 0.50032
 C47 C 1.15073 0.73365 0.44538
 C48 C 1.17714 0.76284 0.44628
 H49 H 1.30385 0.88078 0.50612
 H50 H 1.23394 0.80453 0.40565
 H51 H 1.22260 0.81531 0.60049
 H52 H 1.19341 0.76642 0.60033
 H53 H 1.11850 0.69501 0.49936
 H54 H 1.18491 0.77494 0.40301
 C55 C 0.86368 0.58466 0.49658
 C56 C 0.85141 0.58880 0.44188
 C57 C 0.82488 0.59169 0.44334
 C58 C 0.80898 0.58837 0.49943
 C59 C 0.82162 0.58339 0.55384
 C60 C 0.84903 0.58227 0.55242
 C61 C 0.77868 0.58825 0.50093
 C62 C 0.76598 0.59139 0.55703
 C63 C 0.73644 0.58828 0.55846
 C64 C 0.72008 0.58412 0.50363
 C65 C 0.73249 0.58191 0.44783
 C66 C 0.76110 0.58322 0.44650
 H67 H 0.88416 0.58234 0.49549
 H68 H 0.81681 0.59596 0.40018
 H69 H 0.81010 0.57933 0.59764
 H70 H 0.77837 0.59573 0.60013
 H71 H 0.69722 0.58167 0.50447
 H72 H 0.76868 0.57930 0.40271
 C73 C 0.42240 0.28252 0.49463
 C74 C 0.41767 0.26590 0.44041
 C75 C 0.41408 0.23632 0.44272
 C76 C 0.41722 0.22369 0.49925
 C77 C 0.42290 0.24156 0.55314
 C78 C 0.42470 0.27029 0.55091
 C79 C 0.41625 0.19309 0.50184
 C80 C 0.41331 0.17766 0.55862
 C81 C 0.41544 0.15078 0.56107
 C82 C 0.41832 0.13770 0.50667
 C83 C 0.42020 0.15184 0.45021
 C84 C 0.41992 0.17957 0.44778
 H85 H 0.42512 0.30538 0.49273
 H86 H 0.40934 0.22388 0.39989
 H87 H 0.42687 0.23402 0.59718
 H88 H 0.40988 0.18633 0.60154
 H89 H 0.42001 0.11693 0.50830
 H90 H 0.42351 0.19058 0.40340
 C91 C 0.71938 0.13829 0.49773
 C92 C 0.73537 0.15120 0.44334
 C93 C 0.76437 0.17792 0.44559
 C94 C 0.77694 0.19340 0.50223
 C95 C 0.75974 0.18004 0.55639
 C96 C 0.73166 0.15245 0.55410
 C97 C 0.80664 0.22387 0.50453
 C98 C 0.82237 0.23665 0.56097
 C99 C 0.84849 0.26616 0.56287
 C100 C 0.86046 0.28248 0.50826
 C101 C 0.84593 0.27006 0.45221
 C102 C 0.81896 0.24148 0.45037
 H103 H 0.69691 0.11765 0.49603
 H104 H 0.77637 0.18640 0.40253
 H105 H 0.76719 0.19107 0.60070
 H106 H 0.81454 0.22434 0.60397
 H107 H 0.88066 0.30527 0.50944
 H108 H 0.80759 0.23392 0.40628
 O109 O 0.96450 0.49778 -0.11713
 O110 O 1.03663 0.53433 0.12311
 O111 O 0.94242 0.49366 0.06918
 O112 O 1.05894 0.54819 -0.06366
 O113 O 0.98572 0.52763 0.10685
 O114 O 1.01625 0.54024 -0.10353
 O115 O 1.05347 0.55837 0.03976
 O116 O 0.94859 0.50747 -0.03517
 C117 C 0.95165 0.51037 -0.09125
 C118 C 1.05000 0.55924 0.09554
 C119 C 0.95801 0.51830 0.09811
 C120 C 1.04411 0.55763 -0.09479
 O121 O 1.03743 0.50071 -0.11322
 O122 O 0.96224 0.46687 0.12193
 O123 O 0.94241 0.45082 -0.06582
 O124 O 1.05705 0.50683 0.07564
 O125 O 1.01321 0.47347 0.11183
 O126 O 0.98558 0.45828 -0.10073
 O127 O 1.05275 0.49215 -0.02854
 O128 O 0.94686 0.44199 0.03902
 Co129 Co 1.00085 0.49930 -0.09726
 Co130 Co 0.99953 0.50052 0.10470
 Co131 Co 0.95026 0.47596 0.00201
 Co132 Co 1.05037 0.52391 0.00569
 O133 O 1.00026 0.49992 0.00377
 C134 C 1.05064 0.48900 -0.08481
 C135 C 0.94917 0.44172 0.09529
 C136 C 0.95761 0.44095 -0.09379
 C137 C 1.04089 0.48238 0.10468
 O138 O 0.50532 0.46698 -0.12345
 O139 O 0.46382 0.50115 0.11121
 O140 O 0.50877 0.45088 0.06443
 O141 O 0.45056 0.50721 -0.07772
 O142 O 0.47314 0.45856 0.09911
 O143 O 0.46099 0.47372 -0.11362
 O144 O 0.44010 0.49262 0.02643
 O145 O 0.49571 0.44210 -0.04045
 C146 C 0.49324 0.44183 -0.09674
 C147 C 0.43898 0.48949 0.08272
 C148 C 0.48373 0.44113 0.09239
 C149 C 0.44225 0.48269 -0.10650
 O150 O 0.49842 0.53455 -0.12519
 O151 O 0.53362 0.49783 0.11564
 O152 O 0.55182 0.49369 -0.07051
 O153 O 0.48991 0.54860 0.06143
 O154 O 0.52449 0.54046 0.10163
 O155 O 0.54253 0.52770 -0.10858
 O156 O 0.50563 0.55866 -0.04198
 O157 O 0.55931 0.50745 0.03385
 Co158 Co 0.50167 0.50068 -0.10647
 Co159 Co 0.49892 0.49955 0.09550
 Co160 Co 0.52620 0.47602 -0.00341
 Co161 Co 0.47424 0.52428 -0.00781
 O162 O 0.50025 0.50013 -0.00553
 C163 C 0.50995 0.55948 -0.09777
 C164 C 0.55906 0.51035 0.08990
 C165 C 0.56087 0.51831 -0.09964
 C166 C 0.51408 0.55793 0.09272
 O167 O 0.53826 0.01403 -0.10773
 O168 O 0.52830 -0.01460 0.10364
 O169 O 0.55899 0.05221 0.03459
 O170 O 0.50529 -0.05261 -0.03823
 O171 O 0.53581 0.03641 0.11900
 O172 O 0.49442 -0.03707 -0.11975
 O173 O 0.49350 -0.05770 0.06703
 O174 O 0.54773 0.05707 -0.06874
 C175 C 0.55643 0.04164 -0.09926
 C176 C 0.51863 -0.04223 0.09501
 C177 C 0.56052 0.04949 0.09061
 C178 C 0.50691 -0.05032 -0.09456
 O179 O 0.45644 -0.01448 -0.10164
 O180 O 0.47474 0.01369 0.10994
 O181 O 0.49214 0.05219 -0.03219
 O182 O 0.44146 -0.05278 0.04008
 O183 O 0.46776 -0.03737 0.12165
 O184 O 0.49972 0.03661 -0.11669
 O185 O 0.44831 -0.05763 -0.06524
 O186 O 0.50815 0.05686 0.07118
 Co187 Co 0.49744 -0.00024 -0.10000
 Co188 Co 0.50142 -0.00045 0.10211
 Co189 Co 0.52422 0.04949 0.00120
 Co190 Co 0.47468 -0.05006 0.00092
 O191 O 0.49944 -0.00032 0.00106
 C192 C 0.43860 -0.04215 -0.09321
 C193 C 0.48406 0.04131 0.10169
 C194 C 0.48798 0.04959 -0.08824
 C195 C 0.44207 -0.05060 0.09642
 C196 C 1.13311 0.41466 0.39680
 C197 C 1.12081 0.41742 0.35117
 C198 C 1.10657 0.42317 0.29884
 C199 C 1.07447 0.41041 0.29657
 C200 C 1.06099 0.41997 0.25132
 C201 C 1.07958 0.44237 0.20823
 C202 C 1.11157 0.45425 0.20902
 C203 C 1.12504 0.44466 0.25424
 C204 C 1.06621 0.45557 0.16811
 C205 C 1.05483 0.46750 0.13747
 H206 H 1.06000 0.39409 0.33129
 H207 H 1.03626 0.41087 0.25152
 H208 H 1.12619 0.47181 0.17635
 H209 H 1.14993 0.45498 0.25606
 C210 C 0.57140 0.71322 0.39028
 C211 C 0.56689 0.69792 0.34463
 C212 C 0.56100 0.67830 0.29217
 C213 C 0.58067 0.66655 0.27977
 C214 C 0.57307 0.64459 0.23346
 C215 C 0.54580 0.63434 0.19935
 C216 C 0.52664 0.64683 0.21041
 C217 C 0.53423 0.66878 0.25675
 C218 C 0.53579 0.60873 0.15809
 C219 C 0.52643 0.58611 0.12649
 H220 H 0.60129 0.67357 0.30726
 H221 H 0.58787 0.63483 0.22577
 H222 H 0.50531 0.63879 0.18477
 H223 H 0.51874 0.67753 0.26631
 C224 C 0.28664 -0.14457 0.39726
 C225 C 0.30257 -0.13420 0.35225
 C226 C 0.32277 -0.12098 0.30040
 C227 C 0.33451 -0.08989 0.28594
 C228 C 0.35661 -0.07612 0.23967
 C229 C 0.36704 -0.09341 0.20766
 C230 C 0.35469 -0.12471 0.22098
 C231 C 0.33259 -0.13848 0.26727
 C232 C 0.39234 -0.07847 0.16542
 C233 C 0.41454 -0.06577 0.13248
 H234 H 0.32724 -0.07611 0.31161
 H235 H 0.36622 -0.05184 0.23016
 H236 H 0.36282 -0.13820 0.19690
 H237 H 0.32384 -0.16247 0.27840
 C238 C 0.86457 0.58671 0.38432
 C239 C 0.87586 0.58292 0.33846
 C240 C 0.88959 0.57632 0.28665
 C241 C 0.92175 0.59176 0.28026
 C242 C 0.93543 0.58207 0.23611
 C243 C 0.91702 0.55687 0.19812
 C244 C 0.88482 0.54213 0.20301
 C245 C 0.87114 0.55183 0.24715
 C246 C 0.93122 0.54418 0.15915
 C247 C 0.94331 0.53274 0.12952
 H248 H 0.93630 0.61044 0.31103
 H249 H 0.96036 0.59346 0.23327
 H250 H 0.87034 0.52243 0.17440
 H251 H 0.84628 0.53942 0.25216
 C252 C 0.41954 0.28094 0.38245
 C253 C 0.42305 0.29585 0.33630
 C254 C 0.42923 0.31599 0.28414
 C255 C 0.41265 0.33158 0.27638
 C256 C 0.42174 0.35472 0.23183
 C257 C 0.44749 0.36244 0.19478
 C258 C 0.46342 0.34611 0.20107
 C259 C 0.45432 0.32297 0.24562
 C260 C 0.45940 0.38905 0.15516
 C261 C 0.47014 0.41232 0.12484
 H262 H 0.39349 0.32672 0.30639
 H263 H 0.40942 0.36737 0.22789
 H264 H 0.48354 0.35205 0.17319
 H265 H 0.46759 0.31139 0.25168
 C266 C 0.72011 0.13849 0.38532
 C267 C 0.70520 0.12767 0.33887
 C268 C 0.68520 0.11458 0.28606
 C269 C 0.66832 0.08261 0.27855
 C270 C 0.64538 0.06962 0.23305
 C271 C 0.63917 0.08851 0.19480
 C272 C 0.65678 0.12052 0.20088
 C273 C 0.67972 0.13352 0.24638
 C274 C 0.61268 0.07503 0.15428
 C275 C 0.58943 0.06353 0.12338
 H276 H 0.67202 0.06770 0.30942
 H277 H 0.63172 0.04483 0.22929
 H278 H 0.65199 0.13537 0.17209
 H279 H 0.69232 0.15824 0.25220
 C280 C 0.41786 0.13880 -0.38391
 C281 C 0.42181 0.12800 -0.33719
 C282 C 0.42858 0.11490 -0.28412
 C283 C 0.45290 0.13380 -0.24440
 C284 C 0.46277 0.12077 -0.19873
 C285 C 0.44838 0.08875 -0.19251
 C286 C 0.42334 0.06990 -0.23078
 C287 C 0.41348 0.08293 -0.27646
 C288 C 0.46136 0.07522 -0.15190
 C289 C 0.47310 0.06368 -0.12098
 H290 H 0.46505 0.15852 -0.25035
 H291 H 0.48237 0.13559 -0.16993
 H292 H 0.41223 0.04511 -0.22692
 H293 H 0.39493 0.06804 -0.30735
 C294 C 0.72199 0.58620 -0.38705
 C295 C 0.70708 0.58249 -0.34097
 C296 C 0.68692 0.57598 -0.28889
 C297 C 0.67029 0.59154 -0.28221
 C298 C 0.64705 0.58192 -0.23785
 C299 C 0.64027 0.55665 -0.19994
 C300 C 0.65765 0.54179 -0.20511
 C301 C 0.68089 0.55142 -0.24946
 C302 C 0.61347 0.54402 -0.16080
 C303 C 0.58999 0.53265 -0.13108
 H304 H 0.67440 0.61026 -0.31294
 H305 H 0.63357 0.59340 -0.23480
 H306 H 0.65242 0.52203 -0.17656
 H307 H 0.69327 0.53892 -0.25470
 C308 C 0.86097 0.28053 -0.38247
 C309 C 0.87239 0.29541 -0.33635
 C310 C 0.88644 0.31554 -0.28431
 C311 C 0.86849 0.32278 -0.24586
 C312 C 0.88265 0.34598 -0.20154
 C313 C 0.91487 0.36211 -0.19541
 C314 C 0.93274 0.35413 -0.23237
 C315 C 0.91858 0.33094 -0.27670
 C316 C 0.92970 0.38878 -0.15609
 C317 C 0.94232 0.41210 -0.12600
 H318 H 0.84367 0.31137 -0.25182
 H319 H 0.86859 0.35212 -0.17373
 H320 H 0.95768 0.36662 -0.22856
 H321 H 0.93277 0.32589 -0.30666
 C322 C 0.56882 -0.14454 -0.39427
 C323 C 0.56323 -0.13410 -0.34941
 C324 C 0.55620 -0.12080 -0.29777
 C325 C 0.52901 -0.13828 -0.26438
 C326 C 0.52060 -0.12445 -0.21833
 C327 C 0.53936 -0.09309 -0.20553
 C328 C 0.56696 -0.07580 -0.23780
 C329 C 0.57537 -0.08964 -0.28382
 C330 C 0.52892 -0.07813 -0.16347
 C331 C 0.51934 -0.06544 -0.13063
 H332 H 0.51391 -0.16234 -0.27512
 H333 H 0.49907 -0.13795 -0.19403
 H334 H 0.58148 -0.05148 -0.22867
 H335 H 0.59632 -0.07586 -0.30970
 C336 C 0.28104 0.41429 -0.39532
 C337 C 0.29631 0.41716 -0.35000
 C338 C 0.31656 0.42303 -0.29813
 C339 C 0.31977 0.44462 -0.25361
 C340 C 0.34306 0.45433 -0.20896
 C341 C 0.36323 0.44248 -0.20867
 C342 C 0.35925 0.41999 -0.25166
 C343 C 0.33597 0.41030 -0.29634
 C344 C 0.38997 0.45576 -0.16913
 C345 C 0.41337 0.46775 -0.13892
 H346 H 0.30515 0.45492 -0.25507
 H347 H 0.34613 0.47195 -0.17635
 H348 H 0.37493 0.41091 -0.25225
 H349 H 0.33398 0.39391 -0.33102
 C350 C 1.14254 0.71373 -0.39102
 C351 C 1.13168 0.69830 -0.34552
 C352 C 1.11786 0.67852 -0.29328
 C353 C 1.13497 0.66871 -0.25809
 C354 C 1.12051 0.64660 -0.21202
 C355 C 1.08892 0.63425 -0.20099
 C356 C 1.07203 0.64479 -0.23486
 C357 C 1.08649 0.66690 -0.28091
 C358 C 1.07323 0.60853 -0.15995
 C359 C 1.05993 0.58585 -0.12850
 H360 H 1.15918 0.67736 -0.26763
 H361 H 1.13370 0.63835 -0.18655
 H362 H 1.04752 0.63514 -0.22718
 H363 H 1.07299 0.67415 -0.30822
 C364 C 0.86135 0.57680 -0.39204
 C365 C 0.87206 0.57173 -0.34665
 C366 C 0.88527 0.56489 -0.29425
 C367 C 0.86655 0.54016 -0.25572
 C368 C 0.87988 0.53122 -0.20911
 C369 C 0.91196 0.54700 -0.20094
 C370 C 0.93059 0.57235 -0.23820
 C371 C 0.91726 0.58129 -0.28480
 C372 C 0.92594 0.53525 -0.15904
 C373 C 0.93770 0.52438 -0.12659
 H374 H 0.84181 0.52720 -0.26302
 H375 H 0.86533 0.51139 -0.18093
 H376 H 0.95545 0.58449 -0.23264
 H377 H 0.93194 0.60029 -0.31470
 C378 C 0.43009 0.28710 -0.39679
 C379 C 0.43515 0.30264 -0.35139
 C380 C 0.44179 0.32229 -0.29887
 C381 C 0.42378 0.33600 -0.28741
 C382 C 0.43226 0.35783 -0.24060
 C383 C 0.45874 0.36595 -0.20513
 C384 C 0.47619 0.35151 -0.21530
 C385 C 0.46771 0.32968 -0.26212
 C386 C 0.46985 0.39139 -0.16330
 C387 C 0.48008 0.41388 -0.13121
 H388 H 0.40383 0.33057 -0.31591
 H389 H 0.41883 0.36913 -0.23353
 H390 H 0.49690 0.35791 -0.18854
 H391 H 0.48189 0.31934 -0.27096
 C392 C 0.71428 0.13934 -0.39065
 C393 C 0.69873 0.12783 -0.34569
 C394 C 0.67879 0.11353 -0.29405
 C395 C 0.67137 0.13103 -0.25490
 C396 C 0.64895 0.11652 -0.20950
 C397 C 0.63393 0.08451 -0.20315
 C398 C 0.64213 0.06713 -0.24090
 C399 C 0.66455 0.08163 -0.28629
 C400 C 0.60783 0.06929 -0.16305
 C401 C 0.58486 0.05657 -0.13233
 H402 H 0.68208 0.15568 -0.26091
 H403 H 0.64251 0.13011 -0.18097
 H404 H 0.63038 0.04232 -0.23680
 H405 H 0.66996 0.06789 -0.31671
 C406 C 1.14436 0.42838 -0.38607
 C407 C 1.13462 0.43352 -0.33954
 C408 C 1.12190 0.44004 -0.28608
 C409 C 1.13921 0.46765 -0.25390
 C410 C 1.12555 0.47567 -0.20673
 C411 C 1.09454 0.45610 -0.19151
 C412 C 1.07752 0.42803 -0.22237
 C413 C 1.09118 0.42001 -0.26951
 C414 C 1.07930 0.46641 -0.14966
 C415 C 1.06627 0.47610 -0.11795
 H416 H 1.16289 0.48344 -0.26666
 H417 H 1.13883 0.49761 -0.18372
 H418 H 1.05343 0.41290 -0.21156
 H419 H 1.07749 0.39873 -0.29443
 C420 C 0.58099 0.71808 -0.39160
 C421 C 0.57732 0.70324 -0.34536
 C422 C 0.57067 0.68332 -0.29281
 C423 C 0.58441 0.66491 -0.28739
 C424 C 0.57429 0.64197 -0.24226
 C425 C 0.55036 0.63730 -0.20240
 C426 C 0.53741 0.65645 -0.20634
 C427 C 0.54754 0.67940 -0.25145
 C428 C 0.53699 0.61095 -0.16219
 C429 C 0.52497 0.58792 -0.13125
 H430 H 0.60201 0.66743 -0.31961
 H431 H 0.58428 0.62711 -0.24006
 H432 H 0.51869 0.65287 -0.17619
 H433 H 0.53645 0.69321 -0.25572
 C434 C 0.27903 -0.13678 -0.38326
 C435 C 0.29338 -0.12498 -0.33680
 C436 C 0.31286 -0.11090 -0.28386
 C437 C 0.32981 -0.07882 -0.27899
 C438 C 0.35273 -0.06498 -0.23375
 C439 C 0.35885 -0.08316 -0.19323
 C440 C 0.34105 -0.11525 -0.19649
 C441 C 0.31811 -0.12909 -0.24170
 C442 C 0.38567 -0.06899 -0.15383
 C443 C 0.40928 -0.05691 -0.12419
 H444 H 0.32627 -0.06451 -0.31184
 H445 H 0.36658 -0.04015 -0.23215
 H446 H 0.34581 -0.12954 -0.16591
 H447 H 0.30547 -0.15391 -0.24555
 C448 C 0.58442 -0.13714 0.38340
 C449 C 0.58179 -0.12526 0.33705
 C450 C 0.57628 -0.11111 0.28430
 C451 C 0.59126 -0.07902 0.27962
 C452 C 0.58204 -0.06512 0.23465
 C453 C 0.55776 -0.08326 0.19419
 C454 C 0.54363 -0.11535 0.19724
 C455 C 0.55287 -0.12924 0.24219
 C456 C 0.54497 -0.06907 0.15510
 C457 C 0.53333 -0.05698 0.12572
 H458 H 0.60907 -0.06475 0.31244
 H459 H 0.59289 -0.04029 0.23321
 H460 H 0.52461 -0.12961 0.16671
 H461 H 0.54082 -0.15407 0.24590
 C462 C 0.28366 0.42866 0.38186
 C463 C 0.29873 0.43389 0.33559
 C464 C 0.31818 0.44048 0.28246
 C465 C 0.32892 0.42042 0.26610
 C466 C 0.35078 0.42850 0.21934
 C467 C 0.36198 0.45666 0.18864
 C468 C 0.35050 0.47627 0.20364
 C469 C 0.32865 0.46819 0.25043
 C470 C 0.38765 0.46698 0.14715
 C471 C 0.41042 0.47665 0.11569
 H472 H 0.32120 0.39906 0.29091
 H473 H 0.35975 0.41333 0.20869
 H474 H 0.35927 0.49827 0.18074
 H475 H 0.32072 0.48400 0.26303
 C476 C 1.13736 0.71830 0.38798
 C477 C 1.12622 0.70336 0.34191
 C478 C 1.11299 0.68334 0.28958
 C479 C 1.13219 0.67930 0.24837
 C480 C 1.11940 0.65628 0.20348
 C481 C 1.08734 0.63716 0.19961
 C482 C 1.06809 0.64194 0.23932
 C483 C 1.08088 0.66496 0.28422
 C484 C 1.07439 0.61076 0.15962
 C485 C 1.06340 0.58770 0.12885
 H486 H 1.15705 0.69308 0.25259
 H487 H 1.13452 0.65261 0.17345
 H488 H 1.04328 0.62712 0.23716
 H489 H 1.06581 0.66757 0.31633
 C490 C 0.42428 0.13859 0.39498
 C491 C 0.42817 0.12702 0.34995
 C492 C 0.43366 0.11270 0.29814
 C493 C 0.41643 0.08075 0.29110
 C494 C 0.42425 0.06630 0.24539
 C495 C 0.44931 0.08380 0.20659
 C496 C 0.46587 0.11586 0.21224
 C497 C 0.45805 0.13030 0.25797
 C498 C 0.46019 0.06871 0.16610
 C499 C 0.47049 0.05611 0.13506
 H500 H 0.39769 0.06693 0.32230
 H501 H 0.41154 0.04147 0.24183
 H502 H 0.48551 0.12954 0.18289
 H503 H 0.47166 0.15500 0.26340
 C504 C 0.71479 0.57645 0.39220
 C505 C 0.69913 0.57141 0.34667
 C506 C 0.67923 0.56460 0.29407
 C507 C 0.66365 0.58103 0.28429
 C508 C 0.64155 0.57214 0.23743
 C509 C 0.63501 0.54683 0.20023
 C510 C 0.65130 0.53102 0.20874
 C511 C 0.67341 0.53991 0.25562
 C512 C 0.60944 0.53512 0.15805
 C513 C 0.58693 0.52430 0.12541
 H514 H 0.66784 0.60001 0.31413
 H515 H 0.62882 0.58429 0.23160
 H516 H 0.64616 0.51121 0.18061
 H517 H 0.68519 0.52693 0.26316
 C518 C 0.85803 0.28756 0.39667
 C519 C 0.86854 0.30295 0.35109
 C520 C 0.88152 0.32245 0.29832
 C521 C 0.86292 0.32948 0.26086
 C522 C 0.87622 0.35121 0.21381
 C523 C 0.90812 0.36591 0.20412
 C524 C 0.92656 0.35814 0.24028
 C525 C 0.91327 0.33641 0.28732
 C526 C 0.92233 0.39131 0.16210
 C527 C 0.93448 0.41377 0.12987
 H528 H 0.83838 0.31895 0.26934
 H529 H 0.86183 0.35735 0.18652
 H530 H 0.95131 0.36966 0.23358
 H531 H 0.92786 0.33127 0.31637
   
