data_POSCAR
  _audit_creation_date              2014-09-24
  _audit_creation_method            'ToBaCCo'
  _symmetry_space_group_name_H-M    'P1'
  _symmetry_Int_Tables_number       1
  _symmetry_cell_setting            triclinic
  loop_
  _symmetry_equiv_pos_as_xyz
 x,y,z
_cell_length_a 44.9165
_cell_length_b 44.3600
_cell_length_c 39.5508
_cell_angle_alpha 89.942300
_cell_angle_beta 90.014300
_cell_angle_gamma 120.325600
loop_
  _atom_site_label
  _atom_site_type_symbol
  _atom_site_fract_x
  _atom_site_fract_y
  _atom_site_fract_z
C1 C 0.03173 0.52689 0.09985
 C2 C 0.03643 0.49872 0.09744
 C3 C 0.02687 0.48582 0.06492
 N4 N 0.01705 0.50539 0.04727
 C5 C 0.02025 0.53069 0.06845
 C6 C 0.03205 0.45993 0.05031
 C7 C 0.01690 0.44380 0.01926
 C8 C 0.02670 0.42416 0.00005
 C9 C 0.00476 0.41194 -0.02725
 C10 C -0.01822 0.42401 -0.02370
 N11 N -0.01048 0.44360 0.00464
 C12 C -0.04615 0.41622 -0.04575
 C13 C -0.05971 0.43903 -0.04786
 C14 C -0.09081 0.43116 -0.06264
 C15 C -0.09169 0.46154 -0.06369
 C16 C -0.06203 0.48682 -0.04766
 N17 N -0.04253 0.47289 -0.03811
 C18 C -0.05063 0.52299 -0.04549
 C19 C -0.02668 0.54446 -0.02030
 C20 C -0.01234 0.58044 -0.01750
 C21 C 0.00631 0.59050 0.01201
 C22 C 0.00266 0.56051 0.02680
 N23 N -0.01770 0.53258 0.00717
 C24 C 0.01677 0.55931 0.05841
 H25 H 0.03731 0.54338 0.12185
 H26 H 0.04648 0.48933 0.11709
 H27 H -0.02788 0.50654 0.01399
 H28 H 0.04749 0.41915 0.00513
 H29 H 0.00577 0.39610 -0.04751
 H30 H -0.11072 0.40625 -0.07232
 H31 H -0.11222 0.46390 -0.07506
 H32 H 0.02058 0.61691 0.02165
 H33 H -0.02514 0.45351 0.01496
 H34 H -0.01581 0.59776 -0.03415
 C35 C 0.49966 0.52942 0.10568
 C36 C 0.46806 0.49924 0.10493
 C37 C 0.46316 0.48695 0.07200
 N38 N 0.49062 0.50839 0.05273
 C39 C 0.51288 0.53437 0.07320
 C40 C 0.43297 0.45791 0.05920
 C41 C 0.43266 0.44313 0.02747
 C42 C 0.40335 0.42084 0.00915
 C43 C 0.41407 0.40921 -0.01793
 C44 C 0.44960 0.42463 -0.01525
 N45 N 0.46075 0.44567 0.01217
 C46 C 0.47065 0.41651 -0.03532
 C47 C 0.50669 0.43934 -0.03691
 C48 C 0.53053 0.43059 -0.04819
 C49 C 0.56207 0.46079 -0.04762
 C50 C 0.55633 0.48707 -0.03638
 N51 N 0.52250 0.47376 -0.02945
 C52 C 0.58152 0.52298 -0.03354
 C53 C 0.57520 0.54513 -0.01258
 C54 C 0.59132 0.58125 -0.01527
 C55 C 0.58090 0.59275 0.01207
 C56 C 0.55814 0.56332 0.03024
 N57 N 0.55433 0.53437 0.01482
 C58 C 0.54362 0.56362 0.06176
 H59 H 0.51143 0.54584 0.12756
 H60 H 0.45072 0.48779 0.12618
 H61 H 0.54156 0.50913 0.02474
 H62 H 0.37693 0.41318 0.01507
 H63 H 0.39751 0.39084 -0.03693
 H64 H 0.52580 0.40509 -0.05568
 H65 H 0.58644 0.46301 -0.05437
 H66 H 0.58927 0.61969 0.01804
 H67 H 0.48551 0.45728 0.02236
 H68 H 0.60917 0.59772 -0.03464
 C69 C 0.44510 0.90997 0.06064
 C70 C 0.47644 0.91178 0.06323
 C71 C 0.49930 0.93940 0.04297
 N72 N 0.48315 0.95512 0.02908
 C73 C 0.45011 0.93738 0.04000
 C74 C 0.53502 0.95177 0.03972
 C75 C 0.55567 0.97508 0.01375
 C76 C 0.59134 0.99087 0.01168
 C77 C 0.60122 1.00945 -0.01804
 C78 C 0.57140 1.00433 -0.03361
 N79 N 0.54374 0.98322 -0.01422
 C80 C 0.57009 1.01725 -0.06593
 C81 C 0.54088 1.01817 -0.07771
 C82 C 0.53547 1.02406 -0.11095
 C83 C 0.50545 1.02507 -0.11135
 C84 C 0.49376 1.02027 -0.07821
 N85 N 0.51537 1.01581 -0.05773
 C86 C 0.46394 1.02050 -0.06688
 C87 C 0.44992 1.00763 -0.03436
 C88 C 0.42844 1.01616 -0.01673
 C89 C 0.41736 0.99533 0.01152
 C90 C 0.43280 0.97508 0.01069
 N91 N 0.45306 0.98307 -0.01704
 C92 C 0.42569 0.94787 0.03361
 H93 H 0.42162 0.89096 0.07315
 H94 H 0.48142 0.89458 0.07845
 H95 H 0.46457 0.96924 -0.02588
 H96 H 0.60863 0.98874 0.02925
 H97 H 0.62741 1.02463 -0.02730
 H98 H 0.55135 1.02699 -0.13270
 H99 H 0.49347 1.02851 -0.13361
 H100 H 0.39968 0.99487 0.03039
 H101 H 0.51808 0.97218 -0.02146
 H102 H 0.42101 1.03502 -0.02383
 C103 C 0.95469 0.47028 0.59314
 C104 C 0.95674 0.50222 0.59455
 C105 C 0.96889 0.51788 0.56329
 N106 N 0.97516 0.49708 0.54331
 C107 C 0.96654 0.46804 0.56144
 C108 C 0.97042 0.54873 0.55176
 C109 C 0.98606 0.56407 0.52061
 C110 C 0.97895 0.58599 0.50173
 C111 C 1.00130 0.59717 0.47473
 C112 C 1.02205 0.58244 0.47839
 N113 N 1.01196 0.56157 0.50599
 C114 C 1.05106 0.58992 0.45814
 C115 C 1.06282 0.56568 0.45682
 C116 C 1.09594 0.57352 0.44849
 C117 C 1.09577 0.54250 0.44864
 C118 C 1.06248 0.51667 0.45689
 N119 N 1.04253 0.53100 0.46255
 C120 C 1.05018 0.48027 0.45796
 C121 C 1.02024 0.45797 0.47712
 C122 C 0.99867 0.42234 0.47206
 C123 C 0.97485 0.41033 0.49786
 C124 C 0.98201 0.43905 0.51750
 N125 N 1.00953 0.46800 0.50460
 C126 C 0.96466 0.43795 0.54762
 H127 H 0.94495 0.45068 0.61288
 H128 H 0.94912 0.51217 0.61577
 H129 H 1.02252 0.49264 0.51580
 H130 H 0.95965 0.59313 0.50688
 H131 H 1.00237 0.61452 0.45490
 H132 H 1.11806 0.59899 0.44333
 H133 H 1.11776 0.53941 0.44363
 H134 H 0.95465 0.38352 0.50172
 H135 H 1.02473 0.54961 0.51643
 H136 H 1.00006 0.40652 0.45199
 C137 C 0.47327 0.55586 0.43282
 C138 C 0.44320 0.52431 0.43099
 C139 C 0.44728 0.50149 0.45184
 N140 N 0.47933 0.51785 0.46535
 C141 C 0.49536 0.55106 0.45365
 C142 C 0.42286 0.46560 0.45627
 C143 C 0.42528 0.44524 0.48262
 C144 C 0.40487 0.40920 0.48547
 C145 C 0.41341 0.39992 0.51553
 C146 C 0.43849 0.43051 0.53055
 N147 N 0.44549 0.45800 0.51042
 C148 C 0.45257 0.43259 0.56306
 C149 C 0.48294 0.46239 0.57456
 C150 C 0.49499 0.46790 0.60756
 C151 C 0.52630 0.49836 0.60746
 C152 C 0.53226 0.51040 0.57441
 N153 N 0.50577 0.48837 0.55436
 C154 C 0.56257 0.54006 0.56264
 C155 C 0.56472 0.55429 0.53014
 C156 C 0.59517 0.57786 0.51407
 C157 C 0.58604 0.58801 0.48485
 C158 C 0.55029 0.57036 0.48391
 N159 N 0.53749 0.54961 0.51144
 C160 C 0.53041 0.57608 0.45981
 H161 H 0.47819 0.57941 0.41985
 H162 H 0.42107 0.51918 0.41593
 H163 H 0.51185 0.53685 0.51925
 H164 H 0.38526 0.39127 0.46820
 H165 H 0.40201 0.37362 0.52539
 H166 H 0.48261 0.45162 0.62941
 H167 H 0.54276 0.51022 0.62920
 H168 H 0.60372 0.60674 0.46666
 H169 H 0.46027 0.48416 0.51712
 H170 H 0.62124 0.58724 0.52278
 C171 C 0.51722 0.08021 0.56483
 C172 C 0.54818 0.08107 0.56418
 C173 C 0.54293 0.05234 0.54558
 N174 N 0.51020 0.03473 0.53393
 C175 C 0.49446 0.05184 0.54537
 C176 C 0.56672 0.04063 0.54176
 C177 C 0.55960 0.01228 0.52048
 C178 C 0.57427 -0.00855 0.52364
 C179 C 0.56403 -0.03007 0.49585
 C180 C 0.54392 -0.02125 0.47621
 N181 N 0.54062 0.00399 0.49187
 C182 C 0.53166 -0.03398 0.44326
 C183 C 0.50340 -0.03217 0.42975
 C184 C 0.49548 -0.03369 0.39569
 C185 C 0.46629 -0.03133 0.39365
 C186 C 0.45724 -0.02846 0.42653
 N187 N 0.48021 -0.02856 0.44858
 C188 C 0.42768 -0.02675 0.43587
 C189 C 0.42521 -0.01389 0.46798
 C190 C 0.39472 -0.02025 0.48316
 C191 C 0.40357 -0.00119 0.51252
 C192 C 0.43924 0.01575 0.51509
 N193 N 0.45222 0.00788 0.48771
 C194 C 0.45900 0.03980 0.54088
 H195 H 0.51245 0.09855 0.57824
 H196 H 0.57154 0.10037 0.57661
 H197 H 0.47810 0.01946 0.48094
 H198 H 0.59108 -0.00786 0.54362
 H199 H 0.57133 -0.04935 0.49029
 H200 H 0.50971 -0.03539 0.37442
 H201 H 0.45354 -0.03109 0.37051
 H202 H 0.38555 0.00028 0.52958
 H203 H 0.53014 0.01814 0.48136
 H204 H 0.36870 -0.03668 0.47392
 O205 O 0.16728 0.39901 0.21689
 O206 O 0.21947 0.38649 0.28196
 O207 O 0.16564 0.39419 0.28407
 O208 O 0.21982 0.38919 0.21750
 O209 O 0.25601 0.44590 0.22217
 O210 O 0.19791 0.45170 0.28459
 O211 O 0.25147 0.44377 0.28759
 O212 O 0.20433 0.45573 0.21831
 Cu213 Cu 0.18901 0.38647 0.24989
 Cu214 Cu 0.23060 0.45504 0.25356
 C215 C 0.17827 0.42962 0.20535
 C216 C 0.24451 0.41320 0.29565
 C217 C 0.17263 0.42360 0.29594
 C218 C 0.24775 0.41646 0.20919
 O219 O 0.62232 0.84177 0.28328
 O220 O 0.62587 0.78168 0.22160
 O221 O 0.62513 0.84094 0.21857
 O222 O 0.62270 0.78430 0.28781
 O223 O 0.56585 0.75345 0.28394
 O224 O 0.56825 0.81059 0.21521
 O225 O 0.56908 0.75238 0.21841
 O226 O 0.56546 0.81207 0.28094
 Cu227 Cu 0.62980 0.81489 0.25267
 Cu228 Cu 0.56147 0.77908 0.24927
 C229 C 0.59332 0.83723 0.29273
 C230 C 0.59813 0.75663 0.20960
 C231 C 0.59707 0.83599 0.20579
 C232 C 0.59380 0.75957 0.29793
 O233 O 0.21473 0.83714 0.20126
 O234 O 0.16517 0.78928 0.27724
 O235 O 0.22204 0.84755 0.26642
 O236 O 0.15531 0.78062 0.21226
 O237 O 0.18403 0.75241 0.21038
 O238 O 0.24794 0.81662 0.26992
 O239 O 0.19028 0.75745 0.27565
 O240 O 0.24424 0.80972 0.20481
 Cu241 Cu 0.18656 0.81663 0.23907
 Cu242 Cu 0.21936 0.78108 0.24016
 C243 C 0.23860 0.83205 0.19077
 C244 C 0.16905 0.76478 0.28902
 C245 C 0.24602 0.84334 0.27802
 C246 C 0.15816 0.75515 0.20193
 O247 O 0.78152 0.61426 0.79071
 O248 O 0.83462 0.62132 0.71728
 O249 O 0.77574 0.61953 0.72516
 O250 O 0.83889 0.61500 0.78134
 O251 O 0.80844 0.55736 0.77907
 O252 O 0.74876 0.56237 0.71860
 O253 O 0.80763 0.56387 0.71358
 O254 O 0.75075 0.55706 0.78399
 Cu255 Cu 0.81028 0.62334 0.75393
 Cu256 Cu 0.77597 0.55441 0.74815
 C257 C 0.75719 0.58454 0.79995
 C258 C 0.83114 0.59382 0.70366
 C259 C 0.75161 0.59173 0.71201
 C260 C 0.83414 0.58531 0.79004
 O261 O 0.37568 0.15271 0.78170
 O262 O 0.37199 0.21510 0.72329
 O263 O 0.37192 0.15554 0.71754
 O264 O 0.37749 0.21114 0.78917
 O265 O 0.43420 0.24117 0.78388
 O266 O 0.42871 0.18493 0.71282
 O267 O 0.42866 0.24347 0.71853
 O268 O 0.43249 0.18151 0.77812
 Cu269 Cu 0.36850 0.18111 0.75297
 Cu270 Cu 0.43670 0.21579 0.74787
 C271 C 0.40461 0.15619 0.78974
 C272 C 0.39962 0.24002 0.71099
 C273 C 0.39944 0.16000 0.70380
 C274 C 0.40685 0.23535 0.79898
 O275 O 0.78065 0.16666 0.70329
 O276 O 0.83704 0.21949 0.77277
 O277 O 0.78024 0.15881 0.76850
 O278 O 0.83494 0.22787 0.70658
 O279 O 0.79972 0.24881 0.71124
 O280 O 0.75141 0.18606 0.77809
 O281 O 0.80781 0.24711 0.77692
 O282 O 0.74609 0.18760 0.71332
 Cu283 Cu 0.81173 0.19098 0.73736
 Cu284 Cu 0.77336 0.22016 0.74588
 C285 C 0.75357 0.16778 0.69674
 C286 C 0.83224 0.24251 0.78647
 C287 C 0.75641 0.16084 0.78387
 C288 C 0.82499 0.24878 0.69704
 C289 C 0.08073 0.43262 0.10896
 C290 C 0.11378 0.45416 0.09737
 C291 C 0.12131 0.47601 0.06954
 C292 C 0.09369 0.47618 0.05328
 C293 C 0.05949 0.45484 0.06509
 C294 C 0.05276 0.43232 0.09303
 O295 O 0.07960 0.41547 0.13700
 C296 C 0.11265 0.42664 0.14331
 C297 C 0.13451 0.45047 0.11982
 C298 C 0.17018 0.46763 0.12267
 C299 C 0.18399 0.46008 0.15098
 C300 C 0.16218 0.43546 0.17552
 C301 C 0.12593 0.41807 0.17142
 H302 H 0.14759 0.49307 0.06125
 H303 H 0.09892 0.49380 0.03222
 H304 H 0.02689 0.41651 0.10293
 H305 H 0.18678 0.48674 0.10416
 H306 H 0.21176 0.47348 0.15387
 H307 H 0.10875 0.39970 0.19015
 C308 C 0.55910 0.64061 0.11588
 C309 C 0.59364 0.65510 0.12300
 C310 C 0.61325 0.64122 0.11085
 C311 C 0.59653 0.61113 0.09066
 C312 C 0.56092 0.59576 0.08288
 C313 C 0.54210 0.61104 0.09550
 O314 O 0.54488 0.65707 0.13079
 C315 C 0.57099 0.68251 0.14768
 C316 C 0.60146 0.68261 0.14366
 C317 C 0.63191 0.70681 0.15953
 C318 C 0.63081 0.73170 0.18064
 C319 C 0.59951 0.73173 0.18569
 C320 C 0.56927 0.70681 0.16866
 H321 H 0.64033 0.65285 0.11704
 H322 H 0.61114 0.59955 0.08130
 H323 H 0.51496 0.59998 0.08989
 H324 H 0.65557 0.70635 0.15606
 H325 H 0.65418 0.75045 0.19353
 H326 H 0.54494 0.70599 0.17195
 C327 C 0.35720 0.90963 0.10234
 C328 C 0.32783 0.89900 0.08344
 C329 C 0.32860 0.90324 0.04857
 C330 C 0.36092 0.91895 0.03257
 C331 C 0.39174 0.93077 0.05155
 C332 C 0.38968 0.92647 0.08711
 O333 O 0.35073 0.90112 0.13476
 C334 C 0.31657 0.88494 0.13640
 C335 C 0.30127 0.88338 0.10581
 C336 C 0.26564 0.86740 0.10192
 C337 C 0.24497 0.85192 0.13063
 C338 C 0.26024 0.85200 0.16199
 C339 C 0.29652 0.86897 0.16495
 H340 H 0.30514 0.89413 0.03411
 H341 H 0.36203 0.92187 0.00534
 H342 H 0.41262 0.93553 0.10242
 H343 H 0.25417 0.86650 0.07760
 H344 H 0.21717 0.83867 0.12821
 H345 H 0.30868 0.86918 0.18867
 C346 C 0.90632 0.56076 0.60379
 C347 C 0.92572 0.59575 0.61129
 C348 C 0.95934 0.61679 0.59980
 C349 C 0.97364 0.60102 0.58002
 C350 C 0.95417 0.56495 0.57190
 C351 C 0.91973 0.54477 0.58348
 O352 O 0.87580 0.54498 0.61900
 C353 C 0.87592 0.57057 0.63648
 C354 C 0.90575 0.60221 0.63239
 C355 C 0.91182 0.63226 0.64924
 C356 C 0.88633 0.62948 0.67164
 C357 C 0.85570 0.59690 0.67711
 C358 C 0.85034 0.56713 0.65882
 H359 H 0.97430 0.64414 0.60649
 H360 H 1.00004 0.61669 0.57141
 H361 H 0.90418 0.51725 0.57757
 H362 H 0.93561 0.65682 0.64579
 H363 H 0.89106 0.65250 0.68553
 H364 H 0.82746 0.54184 0.66259
 C365 C 0.43758 0.35664 0.61829
 C366 C 0.40361 0.34335 0.62726
 C367 C 0.38424 0.35801 0.61631
 C368 C 0.40060 0.38754 0.59528
 C369 C 0.43554 0.40149 0.58553
 C370 C 0.45416 0.38564 0.59715
 O371 O 0.45166 0.33948 0.63199
 C372 C 0.42603 0.31476 0.64999
 C373 C 0.39600 0.31582 0.64786
 C374 C 0.36605 0.29231 0.66492
 C375 C 0.36721 0.26688 0.68517
 C376 C 0.39810 0.26565 0.68821
 C377 C 0.42784 0.28995 0.67011
 H378 H 0.35761 0.34727 0.62387
 H379 H 0.38623 0.39964 0.58656
 H380 H 0.48084 0.39576 0.59002
 H381 H 0.34271 0.29364 0.66289
 H382 H 0.34425 0.24860 0.69892
 H383 H 0.45182 0.28978 0.67180
 C384 C 0.63452 0.08355 0.61036
 C385 C 0.66398 0.09317 0.59198
 C386 C 0.66347 0.08621 0.55768
 C387 C 0.63127 0.06894 0.54160
 C388 C 0.60036 0.05831 0.56001
 C389 C 0.60214 0.06512 0.59516
 O390 O 0.64082 0.09470 0.64212
 C391 C 0.67501 0.11159 0.64383
 C392 C 0.69038 0.11099 0.61394
 C393 C 0.72595 0.12711 0.61005
 C394 C 0.74653 0.14483 0.63806
 C395 C 0.73130 0.14680 0.66874
 C396 C 0.69503 0.12986 0.67171
 H397 H 0.68705 0.09458 0.54363
 H398 H 0.63035 0.06412 0.51467
 H399 H 0.57907 0.05707 0.61001
 H400 H 0.73742 0.12627 0.58627
 H401 H 0.77433 0.15795 0.63557
 H402 H 0.68285 0.13103 0.69491
 C403 C 0.44934 0.07798 0.87468
 C404 C 0.41394 0.05973 0.87311
 C405 C 0.39381 0.02829 0.88983
 C406 C 0.41084 0.01521 0.90930
 C407 C 0.44751 0.03362 0.91197
 C408 C 0.46689 0.06547 0.89391
 O409 O 0.46348 0.10757 0.85711
 C410 C 0.43636 0.10792 0.84420
 C411 C 0.40547 0.07924 0.85331
 C412 C 0.37378 0.07443 0.84307
 C413 C 0.37389 0.10016 0.82241
 C414 C 0.40539 0.13000 0.81234
 C415 C 0.43711 0.13385 0.82353
 H416 H 0.36596 0.01434 0.88803
 H417 H 0.39541 -0.00956 0.92208
 H418 H 0.49473 0.08081 0.89581
 H419 H 0.34982 0.05166 0.85071
 H420 H 0.34936 0.09662 0.81410
 H421 H 0.46158 0.15626 0.81639
 C422 C 0.64486 0.54087 0.89712
 C423 C 0.67456 0.56677 0.91171
 C424 C 0.67556 0.57858 0.94440
 C425 C 0.64459 0.56326 0.96273
 C426 C 0.61299 0.53709 0.94805
 C427 C 0.61363 0.52585 0.91453
 O428 O 0.64957 0.53297 0.86597
 C429 C 0.68299 0.55450 0.86076
 C430 C 0.69941 0.57600 0.88784
 C431 C 0.73424 0.60130 0.88741
 C432 C 0.75293 0.60440 0.85790
 C433 C 0.73674 0.58188 0.83000
 C434 C 0.70126 0.55654 0.83151
 H435 H 0.69940 0.59863 0.95557
 H436 H 0.64544 0.57150 0.98865
 H437 H 0.59034 0.50679 0.90177
 H438 H 0.74652 0.61813 0.90893
 H439 H 0.78013 0.62381 0.85700
 H440 H 0.68824 0.53925 0.81044
 C441 C 0.91355 0.35555 0.88114
 C442 C 0.90999 0.32526 0.89433
 C443 C 0.92107 0.32341 0.92666
 C444 C 0.93591 0.35389 0.94637
 C445 C 0.94012 0.38587 0.93344
 C446 C 0.92950 0.38641 0.89967
 O447 O 0.89924 0.35138 0.85087
 C448 C 0.88637 0.31765 0.84476
 C449 C 0.89269 0.30055 0.87033
 C450 C 0.88132 0.26501 0.86917
 C451 C 0.86242 0.24635 0.84064
 C452 C 0.85453 0.26322 0.81462
 C453 C 0.86681 0.29941 0.81665
 H454 H 0.91732 0.29906 0.93681
 H455 H 0.94283 0.35212 0.97222
 H456 H 0.93327 0.41017 0.88799
 H457 H 0.88658 0.25210 0.88958
 H458 H 0.85291 0.21856 0.83930
 H459 H 0.86108 0.31284 0.79709
 C460 C 0.54757 0.91011 0.38388
 C461 C 0.58298 0.92716 0.38450
 C462 C 0.60279 0.95687 0.40376
 C463 C 0.58543 0.96958 0.42324
 C464 C 0.54870 0.95255 0.42339
 C465 C 0.52970 0.92222 0.40312
 O466 O 0.53368 0.88238 0.36371
 C467 C 0.56098 0.88202 0.35129
 C468 C 0.59173 0.90887 0.36326
 C469 C 0.62352 0.91359 0.35354
 C470 C 0.62367 0.88970 0.33043
 C471 C 0.59232 0.86173 0.31750
 C472 C 0.56048 0.85790 0.32826
 H473 H 0.63068 0.97001 0.40357
 H474 H 0.60076 0.99336 0.43752
 H475 H 0.50177 0.90796 0.40288
 H476 H 0.64739 0.93496 0.36331
 H477 H 0.64829 0.89315 0.32258
 H478 H 0.53610 0.83696 0.31892
 C479 C 0.34362 0.44145 0.40338
 C480 C 0.34368 0.41697 0.38206
 C481 C 0.36861 0.40722 0.38374
 C482 C 0.39456 0.42346 0.40827
 C483 C 0.39453 0.44810 0.43110
 C484 C 0.36827 0.45672 0.42890
 O485 O 0.31984 0.44962 0.39547
 C486 C 0.30441 0.42975 0.36872
 C487 C 0.31761 0.40882 0.35981
 C488 C 0.30574 0.38658 0.33199
 C489 C 0.27972 0.38648 0.31217
 C490 C 0.26701 0.40912 0.31994
 C491 C 0.27922 0.43071 0.34887
 H492 H 0.36873 0.38864 0.36611
 H493 H 0.41484 0.41707 0.40948
 H494 H 0.36791 0.47578 0.44573
 H495 H 0.31663 0.37049 0.32537
 H496 H 0.27083 0.37023 0.28978
 H497 H 0.27021 0.44853 0.35504
 C498 C 0.09724 0.65314 0.38797
 C499 C 0.09916 0.68284 0.40078
 C500 C 0.08688 0.68398 0.43268
 C501 C 0.07169 0.65318 0.45198
 C502 C 0.06809 0.62148 0.43901
 C503 C 0.08156 0.62205 0.40633
 O504 O 0.11125 0.65770 0.35751
 C505 C 0.12214 0.69100 0.35090
 C506 C 0.11508 0.70755 0.37637
 C507 C 0.12370 0.74238 0.37422
 C508 C 0.14061 0.76093 0.34477
 C509 C 0.14908 0.74462 0.31870
 C510 C 0.13953 0.70910 0.32184
 H511 H 0.08930 0.70786 0.44258
 H512 H 0.06328 0.65433 0.47736
 H513 H 0.07897 0.59871 0.39483
 H514 H 0.11769 0.75482 0.39449
 H515 H 0.14793 0.78816 0.34266
 H516 H 0.14547 0.69593 0.30222
 C517 C 0.89733 0.54438 0.89617
 C518 C 0.92318 0.56945 0.87641
 C519 C 0.95777 0.58029 0.88133
 C520 C 0.96604 0.56443 0.90751
 C521 C 0.93996 0.53876 0.92876
 C522 C 0.90507 0.52915 0.92312
 O523 O 0.86602 0.53681 0.88637
 C524 C 0.87228 0.55764 0.85992
 C525 C 0.90689 0.57849 0.85305
 C526 C 0.91926 0.60268 0.82678
 C527 C 0.89494 0.60533 0.80663
 C528 C 0.85913 0.58333 0.81256
 C529 C 0.84764 0.55915 0.83960
 H530 H 0.97763 0.59973 0.86515
 H531 H 0.99280 0.57179 0.91101
 H532 H 0.88459 0.51081 0.93951
 H533 H 0.94662 0.61893 0.82198
 H534 H 0.90388 0.62384 0.78590
 H535 H 0.82041 0.54225 0.84473
 C536 C 0.44850 0.35084 0.89383
 C537 C 0.42442 0.32057 0.90954
 C538 C 0.41464 0.31966 0.94305
 C539 C 0.43030 0.35124 0.96107
 C540 C 0.45454 0.38308 0.94520
 C541 C 0.46353 0.38267 0.91092
 O542 O 0.45531 0.34584 0.86234
 C543 C 0.43494 0.31169 0.85800
 C544 C 0.41517 0.29506 0.88597
 C545 C 0.39154 0.25938 0.88666
 C546 C 0.38834 0.24005 0.85739
 C547 C 0.40923 0.25645 0.82866
 C548 C 0.43286 0.29281 0.82900
 H549 H 0.39606 0.29542 0.95507
 H550 H 0.42364 0.35093 0.98743
 H551 H 0.48190 0.40643 0.89803
 H552 H 0.37612 0.24689 0.90888
 H553 H 0.37026 0.21219 0.85736
 H554 H 0.44894 0.30597 0.80730
 C555 C 0.64553 0.08019 0.88011
 C556 C 0.65903 0.05968 0.87060
 C557 C 0.64478 0.02512 0.88105
 C558 C 0.61550 0.01126 0.90205
 C559 C 0.60129 0.03206 0.91215
 C560 C 0.61676 0.06709 0.90110
 O561 O 0.66194 0.11187 0.86664
 C562 C 0.68636 0.11146 0.84819
 C563 C 0.68592 0.08027 0.84974
 C564 C 0.70898 0.07426 0.83153
 C565 C 0.73306 0.10133 0.81059
 C566 C 0.73342 0.13346 0.80812
 C567 C 0.70988 0.13851 0.82764
 H568 H 0.65557 0.00930 0.87306
 H569 H 0.60371 -0.01566 0.91029
 H570 H 0.60638 0.08350 0.90839
 H571 H 0.70812 0.04947 0.83298
 H572 H 0.75073 0.09691 0.79572
 H573 H 0.70924 0.16256 0.82635
 C574 C 0.09877 0.46443 0.39006
 C575 C 0.09937 0.43612 0.40328
 C576 C 0.08530 0.42186 0.43457
 C577 C 0.06972 0.43727 0.45292
 C578 C 0.06744 0.46593 0.43956
 C579 C 0.08255 0.47955 0.40740
 O580 O 0.11449 0.47456 0.36029
 C581 C 0.12509 0.45199 0.35457
 C582 C 0.11609 0.42766 0.37995
 C583 C 0.12371 0.40095 0.37875
 C584 C 0.14156 0.39941 0.35032
 C585 C 0.15205 0.42481 0.32429
 C586 C 0.14372 0.45152 0.32648
 H587 H 0.08670 0.39996 0.44475
 H588 H 0.05998 0.42711 0.47792
 H589 H 0.08087 0.50063 0.39552
 H590 H 0.11612 0.38195 0.39891
 H591 H 0.14800 0.37898 0.34895
 H592 H 0.15128 0.47109 0.30685
 C593 C 0.55892 0.64286 0.38898
 C594 C 0.57667 0.67338 0.40707
 C595 C 0.58055 0.67396 0.44197
 C596 C 0.56521 0.64178 0.45893
 C597 C 0.54721 0.60982 0.44084
 C598 C 0.54479 0.61056 0.40516
 O599 O 0.55586 0.64805 0.35642
 C600 C 0.57219 0.68260 0.35387
 C601 C 0.58588 0.69934 0.38405
 C602 C 0.60387 0.73553 0.38717
 C603 C 0.60758 0.75525 0.35804
 C604 C 0.59251 0.73848 0.32705
 C605 C 0.57470 0.70167 0.32486
 H606 H 0.59400 0.69832 0.45575
 H607 H 0.56697 0.64167 0.48624
 H608 H 0.53138 0.58671 0.39059
 H609 H 0.61439 0.74811 0.41118
 H610 H 0.62105 0.78347 0.35982
 H611 H 0.56292 0.68840 0.30142
 C612 C 0.36027 0.91831 0.37281
 C613 C 0.34446 0.93765 0.36828
 C614 C 0.35490 0.96891 0.38509
 C615 C 0.38278 0.98071 0.40755
 C616 C 0.39970 0.96124 0.41288
 C617 C 0.38798 0.92949 0.39494
 O618 O 0.34612 0.88912 0.35477
 C619 C 0.32083 0.89008 0.33843
 C620 C 0.31871 0.91923 0.34579
 C621 C 0.29383 0.92527 0.33176
 C622 C 0.27011 0.90018 0.30928
 C623 C 0.27167 0.86976 0.30129
 C624 C 0.29758 0.86483 0.31611
 H625 H 0.34209 0.98374 0.38103
 H626 H 0.39163 1.00541 0.42028
 H627 H 0.39947 0.91337 0.39878
 H628 H 0.29261 0.94837 0.33801
 H629 H 0.25049 0.90446 0.29823
 H630 H 0.29948 0.84193 0.31072
 C631 C 0.56079 0.89984 0.09641
 C632 C 0.58411 0.92590 0.11728
 C633 C 0.59222 0.96046 0.11435
 C634 C 0.57557 0.96846 0.08888
 C635 C 0.55224 0.94229 0.06635
 C636 C 0.54511 0.90753 0.06996
 O637 O 0.55451 0.86829 0.10532
 C638 C 0.57447 0.87462 0.13225
 C639 C 0.59356 0.90953 0.14025
 C640 C 0.61595 0.92199 0.16769
 C641 C 0.61834 0.89738 0.18806
 C642 C 0.59774 0.86118 0.18123
 C643 C 0.57571 0.84964 0.15275
 H644 H 0.60999 0.98034 0.13161
 H645 H 0.58081 0.99503 0.08655
 H646 H 0.52718 0.88702 0.05328
 H647 H 0.63065 0.94958 0.17349
 H648 H 0.63497 0.90636 0.21006
 H649 H 0.55954 0.82209 0.14721
 C650 C 0.35928 0.44841 0.11353
 C651 C 0.34213 0.41310 0.11989
 C652 C 0.35284 0.39100 0.10690
 C653 C 0.38264 0.40599 0.08674
 C654 C 0.40072 0.44234 0.07964
 C655 C 0.38848 0.46370 0.09296
 O656 O 0.34578 0.46501 0.12953
 C657 C 0.31948 0.43960 0.14633
 C658 C 0.31598 0.40731 0.14109
 C659 C 0.29038 0.37713 0.15652
 C660 C 0.26757 0.38038 0.17837
 C661 C 0.27100 0.41352 0.18473
 C662 C 0.29735 0.44353 0.16828
 H663 H 0.33916 0.36335 0.11262
 H664 H 0.39196 0.38945 0.07699
 H665 H 0.40177 0.49151 0.08801
 H666 H 0.28820 0.35202 0.15208
 H667 H 0.24769 0.35718 0.19088
 H668 H 0.30068 0.46915 0.17259
 C669 C 0.07878 0.63678 0.11135
 C670 C 0.05751 0.64872 0.12222
 C671 C 0.02285 0.63279 0.11325
 C672 C 0.00960 0.60324 0.09230
 C673 C 0.03112 0.59059 0.08062
 C674 C 0.06631 0.60790 0.09008
 O675 O 0.11061 0.65501 0.12349
 C676 C 0.10946 0.67907 0.14242
 C677 C 0.07763 0.67652 0.14231
 C678 C 0.07074 0.69916 0.16039
 C679 C 0.09771 0.72539 0.17948
 C680 C 0.13067 0.72822 0.18049
 C681 C 0.13653 0.70466 0.16155
 H682 H 0.00655 0.64253 0.12232
 H683 H -0.01736 0.59011 0.08519
 H684 H 0.08332 0.59887 0.08136
 H685 H 0.04550 0.69666 0.15991
 H686 H 0.09270 0.74307 0.19393
 H687 H 0.16134 0.70615 0.16172
 C688 C 0.43309 0.09343 0.59492
 C689 C 0.40913 0.06786 0.61580
 C690 C 0.40043 0.03308 0.61357
 C691 C 0.41719 0.02433 0.58887
 C692 C 0.44116 0.04996 0.56625
 C693 C 0.44879 0.08497 0.56907
 O694 O 0.44016 0.12534 0.60345
 C695 C 0.42006 0.11974 0.63014
 C696 C 0.40009 0.08493 0.63832
 C697 C 0.37757 0.07317 0.66569
 C698 C 0.37603 0.09835 0.68585
 C699 C 0.39758 0.13446 0.67895
 C700 C 0.41968 0.14530 0.65047
 H701 H 0.38227 0.01360 0.63094
 H702 H 0.41168 -0.00239 0.58734
 H703 H 0.46725 0.10512 0.55240
 H704 H 0.36222 0.04565 0.67167
 H705 H 0.35940 0.08985 0.70786
 H706 H 0.43667 0.17272 0.64493
 C707 C 0.63658 0.55391 0.61901
 C708 C 0.65076 0.58870 0.62693
 C709 C 0.63749 0.60897 0.61475
 C710 C 0.60841 0.59268 0.59362
 C711 C 0.59342 0.55686 0.58501
 C712 C 0.60790 0.53731 0.59784
 O713 O 0.65266 0.53917 0.63365
 C714 C 0.67755 0.56519 0.65118
 C715 C 0.67764 0.59610 0.64787
 C716 C 0.70150 0.62659 0.66426
 C717 C 0.72613 0.62510 0.68502
 C718 C 0.72635 0.59339 0.68914
 C719 C 0.70164 0.56307 0.67175
 H720 H 0.64894 0.63625 0.62145
 H721 H 0.59741 0.60781 0.58403
 H722 H 0.59699 0.50996 0.59161
 H723 H 0.70107 0.65063 0.66131
 H724 H 0.74473 0.64854 0.69815
 H725 H 0.70099 0.53844 0.67427
 C726 C 0.91975 0.35910 0.60496
 C727 C 0.88688 0.34378 0.59193
 C728 C 0.87839 0.35680 0.56386
 C729 C 0.90477 0.38716 0.54876
 C730 C 0.93871 0.40377 0.56192
 C731 C 0.94649 0.38939 0.59019
 O732 O 0.92171 0.34352 0.63295
 C733 C 0.88935 0.31797 0.63775
 C734 C 0.86712 0.31720 0.61334
 C735 C 0.83173 0.29444 0.61452
 C736 C 0.81858 0.27169 0.64216
 C737 C 0.84080 0.27177 0.66767
 C738 C 0.87683 0.29486 0.66524
 H739 H 0.85221 0.34452 0.55444
 H740 H 0.89870 0.39841 0.52740
 H741 H 0.97212 0.40220 0.60106
 H742 H 0.81475 0.29480 0.59531
 H743 H 0.79097 0.25411 0.64392
 H744 H 0.89417 0.29588 0.68481
   
