data_POSCAR
  _audit_creation_date              2014-09-24
  _audit_creation_method            'ToBaCCo'
  _symmetry_space_group_name_H-M    'P1'
  _symmetry_Int_Tables_number       1
  _symmetry_cell_setting            triclinic
  loop_
  _symmetry_equiv_pos_as_xyz
 x,y,z
_cell_length_a 42.2808
_cell_length_b 42.4086
_cell_length_c 42.1615
_cell_angle_alpha 89.938800
_cell_angle_beta 89.958400
_cell_angle_gamma 89.964200
loop_
  _atom_site_label
  _atom_site_type_symbol
  _atom_site_fract_x
  _atom_site_fract_y
  _atom_site_fract_z
N1 N 0.14516 0.16787 0.23127
 N2 N 0.16748 0.14623 0.23145
 C3 C 0.16245 0.12640 0.25598
 C4 C 0.13572 0.13642 0.27183
 C5 C 0.12524 0.16267 0.25566
 H6 H 0.17690 0.10613 0.26173
 H7 H 0.10461 0.17677 0.26109
 Cu8 Cu 0.20071 0.14596 0.19938
 Cu9 Cu 0.14333 0.20098 0.19926
 Cu10 Cu 0.20136 0.20031 0.14117
 N11 N 0.23277 0.14550 0.16612
 N12 N 0.23286 0.16688 0.14347
 C13 C 0.25713 0.16117 0.12357
 C14 C 0.27292 0.13487 0.13442
 C15 C 0.25700 0.12535 0.16134
 H16 H 0.26272 0.17496 0.10272
 H17 H 0.26250 0.10519 0.17608
 N18 N 0.16751 0.23225 0.14278
 N19 N 0.14540 0.23253 0.16494
 C20 C 0.12561 0.25686 0.15943
 C21 C 0.13587 0.27244 0.13266
 C22 C 0.16235 0.25638 0.12259
 H23 H 0.10511 0.26270 0.17360
 H24 H 0.17656 0.26177 0.10196
 H25 H 0.16583 0.17543 0.16398
 H26 H 0.19098 0.20170 0.18893
 N27 N -0.14358 0.83367 0.23201
 N28 N -0.16592 0.85529 0.23232
 C29 C -0.16046 0.87539 0.25646
 C30 C -0.13340 0.86567 0.27189
 C31 C -0.12321 0.83924 0.25589
 H32 H -0.17488 0.89564 0.26231
 H33 H -0.10245 0.82527 0.26113
 Cu34 Cu -0.19967 0.85520 0.20089
 Cu35 Cu -0.14229 0.80020 0.20049
 Cu36 Cu -0.20121 0.80016 0.14336
 N37 N -0.23220 0.85528 0.16819
 N38 N -0.23268 0.83370 0.14578
 C39 C -0.25726 0.83932 0.12625
 C40 C -0.27284 0.86574 0.13713
 C41 C -0.25647 0.87543 0.16365
 H42 H -0.26319 0.82540 0.10561
 H43 H -0.26172 0.89569 0.17830
 N44 N -0.16731 0.76820 0.14492
 N45 N -0.14488 0.76824 0.16672
 C46 C -0.12517 0.74384 0.16134
 C47 C -0.13579 0.72783 0.13504
 C48 C -0.16243 0.74373 0.12509
 H49 H -0.10445 0.73823 0.17529
 H50 H -0.17695 0.73802 0.10480
 H51 H -0.16550 0.82526 0.16524
 H52 H -0.19026 0.79928 0.19099
 N53 N -0.14610 0.16585 -0.23114
 N54 N -0.16826 0.14407 -0.23113
 C55 C -0.16297 0.12401 -0.25536
 C56 C -0.13622 0.13391 -0.27120
 C57 C -0.12602 0.16042 -0.25535
 H58 H -0.17727 0.10364 -0.26097
 H59 H -0.10544 0.17454 -0.26088
 Cu60 Cu -0.20156 0.14381 -0.19922
 Cu61 Cu -0.14477 0.19937 -0.19960
 Cu62 Cu -0.20305 0.19879 -0.14172
 N63 N -0.23370 0.14340 -0.16612
 N64 N -0.23415 0.16496 -0.14369
 C65 C -0.25838 0.15905 -0.12378
 C66 C -0.27375 0.13245 -0.13443
 C67 C -0.25765 0.12297 -0.16122
 H68 H -0.26420 0.17288 -0.10304
 H69 H -0.26285 0.10266 -0.17580
 N70 N -0.16959 0.23111 -0.14369
 N71 N -0.14737 0.23133 -0.16575
 C72 C -0.12791 0.25596 -0.16056
 C73 C -0.13849 0.27182 -0.13411
 C74 C -0.16482 0.25560 -0.12389
 H75 H -0.10741 0.26181 -0.17474
 H76 H -0.17920 0.26112 -0.10342
 H77 H -0.16726 0.17412 -0.16417
 H78 H -0.19263 0.19983 -0.18962
 N79 N 0.14674 0.83446 -0.23189
 N80 N 0.16934 0.85576 -0.23116
 C81 C 0.16497 0.87630 -0.25520
 C82 C 0.13835 0.86718 -0.27169
 C83 C 0.12728 0.84067 -0.25640
 H84 H 0.17980 0.89645 -0.26024
 H85 H 0.10652 0.82708 -0.26250
 Cu86 Cu 0.20200 0.85472 -0.19861
 Cu87 Cu 0.14389 0.80059 -0.20081
 Cu88 Cu 0.20090 0.79890 -0.14177
 N89 N 0.23345 0.85385 -0.16487
 N90 N 0.23290 0.83193 -0.14275
 C91 C 0.25691 0.83686 -0.12235
 C92 C 0.27319 0.86320 -0.13235
 C93 C 0.25784 0.87355 -0.15926
 H94 H 0.26199 0.82253 -0.10173
 H95 H 0.26385 0.89394 -0.17346
 N96 N 0.16663 0.76752 -0.14478
 N97 N 0.14492 0.76817 -0.16730
 C98 C 0.12469 0.74402 -0.16279
 C99 C 0.13422 0.72758 -0.13629
 C100 C 0.16075 0.74294 -0.12535
 H101 H 0.10436 0.73890 -0.17745
 H102 H 0.17451 0.73678 -0.10464
 H103 H 0.16622 0.82484 -0.16452
 H104 H 0.19148 0.79884 -0.18976
 N105 N 0.16894 1.14583 0.76843
 N106 N 0.14744 1.16827 0.76796
 C107 C 0.12766 1.16325 0.74342
 C108 C 0.13752 1.13639 0.72791
 C109 C 0.16364 1.12583 0.74425
 H110 H 0.10749 1.17777 0.73743
 H111 H 0.17754 1.10504 0.73910
 Cu112 Cu 0.14710 1.20152 0.79971
 Cu113 Cu 0.20186 1.14385 0.80052
 Cu114 Cu 0.20102 1.20166 0.85845
 N115 N 0.14649 1.23321 0.83305
 N116 N 0.16768 1.23309 0.85588
 C117 C 0.16179 1.25712 0.87585
 C118 C 0.13559 1.27299 0.86486
 C119 C 0.12631 1.25737 0.83777
 H120 H 0.17535 1.26250 0.89689
 H121 H 0.10627 1.26305 0.82289
 N122 N 0.23287 1.16789 0.85702
 N123 N 0.23321 1.14583 0.83494
 C124 C 0.25748 1.12601 0.84061
 C125 C 0.27293 1.13626 0.86740
 C126 C 0.25691 1.16272 0.87732
 H127 H 0.26335 1.10552 0.82654
 H128 H 0.26225 1.17690 0.89793
 H129 H 0.17602 1.16663 0.83537
 H130 H 0.20288 1.19150 0.81058
 N131 N 0.83310 0.85655 0.76717
 N132 N 0.85505 0.83454 0.76712
 C133 C 0.87522 0.84001 0.74297
 C134 C 0.86517 0.86674 0.72732
 C135 C 0.83851 0.87674 0.74313
 H136 H 0.89577 0.82589 0.73734
 H137 H 0.82434 0.89729 0.73774
 Cu138 Cu 0.85529 0.80136 0.79898
 Cu139 Cu 0.79958 0.85790 0.79870
 Cu140 Cu 0.79946 0.79909 0.85585
 N141 N 0.85494 0.76847 0.83114
 N142 N 0.83301 0.76773 0.85330
 C143 C 0.83844 0.74304 0.87266
 C144 C 0.86508 0.72766 0.86193
 C145 C 0.87509 0.74426 0.83568
 H146 H 0.82431 0.73693 0.89315
 H147 H 0.89564 0.73922 0.82126
 N148 N 0.76755 0.83294 0.85434
 N149 N 0.76763 0.85532 0.83251
 C150 C 0.74331 0.87510 0.83798
 C151 C 0.72735 0.86457 0.86438
 C152 C 0.74314 0.83793 0.87430
 H153 H 0.73776 0.89581 0.82407
 H154 H 0.73743 0.82351 0.89468
 H155 H 0.82448 0.83503 0.83427
 H156 H 0.79907 0.81007 0.80822
 N157 N 0.16603 0.85360 1.23177
 N158 N 0.14442 0.83129 1.23210
 C159 C 0.12428 0.83658 1.25630
 C160 C 0.13398 0.86349 1.27173
 C161 C 0.16042 0.87381 1.25573
 H162 H 0.10400 0.82218 1.26214
 H163 H 0.17435 0.89453 1.26098
 Cu164 Cu 0.14436 0.79779 1.20069
 Cu165 Cu 0.19951 0.85505 1.20017
 Cu166 Cu 0.19919 0.79664 1.14280
 N167 N 0.14405 0.76584 1.16769
 N168 N 0.16556 0.76550 1.14514
 C169 C 0.15968 0.74133 1.12534
 C170 C 0.13315 0.72588 1.13618
 C171 C 0.12368 0.74188 1.16297
 H172 H 0.17345 0.73560 1.10450
 H173 H 0.10337 0.73660 1.17764
 N174 N 0.23129 0.83017 1.14437
 N175 N 0.23140 0.85246 1.16623
 C176 C 0.25592 0.87200 1.16077
 C177 C 0.27178 0.86135 1.13435
 C178 C 0.25573 0.83493 1.12443
 H179 H 0.26169 0.89259 1.17472
 H180 H 0.26133 0.82049 1.10405
 H181 H 0.17407 0.83223 1.16521
 H182 H 0.20035 0.80740 1.19063
 N183 N 0.83412 1.14630 1.23236
 N184 N 0.85587 1.16844 1.23102
 C185 C 0.87651 1.16419 1.25499
 C186 C 0.86700 1.13812 1.27201
 C187 C 0.84015 1.12724 1.25717
 H188 H 0.89703 1.17869 1.25959
 H189 H 0.82627 1.10683 1.26373
 Cu190 Cu 0.85529 1.20024 1.19778
 Cu191 Cu 0.80002 1.14341 1.20158
 Cu192 Cu 0.79775 1.20052 1.14276
 N193 N 0.85332 1.23251 1.16506
 N194 N 0.83071 1.23248 1.14363
 C195 C 0.83507 1.25687 1.12365
 C196 C 0.86173 1.27288 1.13320
 C197 C 0.87285 1.25697 1.15942
 H198 H 0.82022 1.26235 1.10351
 H199 H 0.89374 1.26264 1.17306
 N200 N 0.76653 1.16624 1.14590
 N201 N 0.76739 1.14447 1.16832
 C202 C 0.74332 1.12416 1.16383
 C203 C 0.72673 1.13376 1.13747
 C204 C 0.74188 1.16035 1.12656
 H205 H 0.73838 1.10373 1.17839
 H206 H 0.73557 1.17413 1.10591
 H207 H 0.82356 1.16536 1.16466
 H208 H 0.79885 1.19098 1.19081
 O209 O 0.45509 1.05582 1.05675
 O210 O 0.42065 1.02570 1.02777
 C211 C 0.42668 1.04753 1.04840
 O212 O 0.54441 1.05348 0.94375
 O213 O 0.57891 1.02460 0.97404
 C214 C 0.57283 1.04515 0.95207
 O215 O 0.45536 1.05644 0.94676
 O216 O 0.42077 1.02594 0.97530
 C217 C 0.42694 1.04805 0.95497
 O218 O 0.54409 1.05308 1.05955
 O219 O 0.57871 1.02504 1.02863
 C220 C 0.57252 1.04517 1.05091
 Zr221 Zr 0.49967 1.03814 1.04176
 O222 O 0.50309 1.08793 1.04202
 O223 O 0.49610 1.03760 1.09185
 Zr224 Zr 0.49984 1.03853 0.96148
 O225 O 0.50336 1.08832 0.96151
 O226 O 0.49632 1.03850 0.91139
 O227 O 0.47160 1.04452 1.00162
 O228 O 0.52716 1.04410 1.00165
 O229 O 0.54438 0.94347 1.05930
 O230 O 0.57887 0.97237 1.02903
 C231 C 0.57280 0.95185 1.05101
 O232 O 0.45532 0.94104 0.94619
 O233 O 0.42077 0.97119 0.97511
 C234 C 0.42689 0.94932 0.95453
 O235 O 0.54435 0.94391 0.94340
 O236 O 0.57885 0.97236 0.97400
 C237 C 0.57275 0.95204 0.95190
 O238 O 0.45528 0.94050 1.05616
 O239 O 0.42075 0.97099 1.02752
 C240 C 0.42687 0.94888 1.04787
 Zr241 Zr 0.49981 0.95838 1.04145
 O242 O 0.50343 0.90859 1.04127
 O243 O 0.49615 0.95829 1.09154
 Zr244 Zr 0.49983 0.95885 0.96112
 O245 O 0.50336 0.90906 0.96064
 O246 O 0.49634 0.95959 0.91103
 Zr247 Zr 0.45288 0.99846 1.00144
 Zr248 Zr 0.54672 0.99845 1.00152
 O249 O 0.52724 0.95282 1.00128
 O250 O 0.47169 0.95241 1.00126
 O251 O 0.52794 0.99825 1.04785
 O252 O 0.47235 0.99873 0.95551
 O253 O 0.47227 0.99821 1.04738
 O254 O 0.52806 0.99870 0.95514
 H255 H 0.54145 1.06260 1.00164
 H256 H 0.45795 0.99881 0.93698
 H257 H 0.54163 0.93437 1.00127
 H258 H 0.45783 0.99812 1.06590
 H259 H 0.51420 1.02593 0.90306
 H260 H 0.51446 0.97190 0.90283
 H261 H 0.48604 0.90072 0.97399
 H262 H 0.48586 0.90039 1.02819
 H263 H 0.51391 0.97096 1.09989
 H264 H 0.51401 1.02501 1.10006
 H265 H 0.48548 1.09623 1.02903
 H266 H 0.48595 1.09653 0.97483
 O267 O 0.05343 0.54431 -0.05915
 O268 O 0.02462 0.57872 -0.02874
 C269 C 0.04518 0.57265 -0.05074
 O270 O -0.05933 0.45554 -0.05642
 O271 O -0.02853 0.42113 -0.02803
 C272 C -0.05075 0.42719 -0.04832
 O273 O -0.05630 0.54444 -0.05927
 O274 O -0.02763 0.57880 -0.02874
 C275 C -0.04802 0.57275 -0.05086
 O276 O 0.05617 0.45546 -0.05619
 O277 O 0.02579 0.42106 -0.02731
 C278 C 0.04779 0.42715 -0.04786
 Zr279 Zr 0.03837 0.49988 -0.04142
 O280 O 0.03805 0.49640 -0.09151
 O281 O 0.08832 0.50329 -0.04163
 Zr282 Zr -0.04151 0.49994 -0.04150
 O283 O -0.04111 0.49643 -0.09159
 O284 O -0.09144 0.50351 -0.04174
 O285 O -0.00154 0.52807 -0.04759
 O286 O -0.00156 0.47253 -0.04718
 O287 O 0.05609 0.45538 0.05384
 O288 O 0.02566 0.42102 0.02511
 C289 C 0.04770 0.42706 0.04559
 O290 O -0.05689 0.54434 0.05647
 O291 O -0.02839 0.57871 0.02573
 C292 C -0.04882 0.57267 0.04786
 O293 O -0.05966 0.45558 0.05363
 O294 O -0.02924 0.42111 0.02492
 C295 C -0.05131 0.42725 0.04535
 O296 O 0.05331 0.54405 0.05673
 O297 O 0.02517 0.57857 0.02581
 C298 C 0.04535 0.57239 0.04811
 Zr299 Zr 0.03836 0.49980 0.03885
 O300 O 0.03835 0.49624 0.08893
 O301 O 0.08832 0.50323 0.03864
 Zr302 Zr -0.04170 0.49994 0.03886
 O303 O -0.04129 0.49637 0.08895
 O304 O -0.09164 0.50348 0.03912
 Zr305 Zr -0.00160 0.54668 -0.00122
 Zr306 Zr -0.00170 0.45314 -0.00120
 O307 O -0.00171 0.47251 0.04470
 O308 O -0.00166 0.52800 0.04513
 O309 O 0.04453 0.47175 -0.00126
 O310 O -0.04739 0.52724 -0.00135
 O311 O 0.04417 0.52716 -0.00128
 O312 O -0.04788 0.47189 -0.00131
 H313 H -0.00150 0.45825 -0.06576
 H314 H -0.06595 0.54151 -0.00145
 H315 H -0.00176 0.45813 0.06324
 H316 H 0.06275 0.54139 -0.00132
 H317 H -0.09978 0.48600 -0.02867
 H318 H -0.09991 0.48637 0.02555
 H319 H -0.02910 0.51449 0.09721
 H320 H 0.02515 0.51365 0.09721
 H321 H 0.09656 0.48548 0.02587
 H322 H 0.09660 0.48589 -0.02837
 H323 H 0.02563 0.51440 -0.09977
 H324 H -0.02857 0.51432 -0.09985
 O325 O 1.05963 -0.05314 0.54440
 O326 O 1.02886 -0.02498 0.57905
 C327 C 1.05108 -0.04515 0.57291
 O328 O 1.05707 0.05923 0.45500
 O329 O 1.02861 0.02869 0.42047
 C330 C 1.04901 0.05069 0.42651
 O331 O 1.05959 0.05667 0.54431
 O332 O 1.02886 0.02844 0.57898
 C333 C 1.05097 0.04869 0.57281
 O334 O 1.05643 -0.05588 0.45506
 O335 O 1.02782 -0.02541 0.42044
 C336 C 1.04815 -0.04748 0.42657
 Zr337 Zr 1.04175 -0.03819 0.49979
 O338 O 1.09168 -0.03842 0.49612
 O339 O 1.04146 -0.08799 0.50336
 Zr340 Zr 1.04193 0.04167 0.49971
 O341 O 1.09188 0.04148 0.49628
 O342 O 1.04181 0.09147 0.50308
 O343 O 1.04814 0.00171 0.52803
 O344 O 1.04761 0.00173 0.47228
 O345 O 0.94684 -0.05561 0.45520
 O346 O 0.97560 -0.02536 0.42053
 C347 C 0.95507 -0.04724 0.42668
 O348 O 0.94414 0.05653 0.54466
 O349 O 0.97453 0.02778 0.57922
 C350 C 0.95250 0.04819 0.57315
 O351 O 0.94697 0.05964 0.45533
 O352 O 0.97505 0.02885 0.42064
 C353 C 0.95493 0.05108 0.42683
 O354 O 0.94410 -0.05282 0.54450
 O355 O 0.97455 -0.02432 0.57913
 C356 C 0.95254 -0.04469 0.57298
 Zr357 Zr 0.96181 -0.03796 0.49984
 O358 O 0.91186 -0.03778 0.49640
 O359 O 0.96180 -0.08776 0.50337
 Zr360 Zr 0.96182 0.04173 0.49989
 O361 O 0.91186 0.04146 0.49642
 O362 O 0.96164 0.09152 0.50344
 Zr363 Zr 1.00195 0.00179 0.54687
 Zr364 Zr 1.00182 0.00195 0.45275
 O365 O 0.95603 0.00193 0.47235
 O366 O 0.95570 0.00185 0.52816
 O367 O 1.00175 -0.04416 0.47154
 O368 O 1.00190 0.04745 0.52727
 O369 O 1.00179 -0.04385 0.52733
 O370 O 1.00185 0.04799 0.47152
 H371 H 1.06616 0.00162 0.45790
 H372 H 1.00182 0.06594 0.54161
 H373 H 0.93747 0.00193 0.45802
 H374 H 1.00175 -0.06237 0.54169
 H375 H 1.02927 0.09968 0.48507
 H376 H 0.97506 0.09978 0.48611
 H377 H 0.90361 0.02902 0.51447
 H378 H 0.90363 -0.02494 0.51415
 H379 H 0.97459 -0.09601 0.48557
 H380 H 1.02868 -0.09617 0.48554
 H381 H 1.10002 -0.02542 0.51369
 H382 H 1.10007 0.02863 0.51407
 C383 C 1.09410 0.09579 0.34694
 C384 C 1.07080 0.07291 0.34201
 C385 C 1.05601 0.05840 0.36786
 C386 C 1.12189 0.12271 0.29754
 C387 C 1.08769 0.08976 0.40385
 C388 C 1.10246 0.10422 0.37792
 C389 C 1.10936 0.11052 0.32017
 C390 C 1.06434 0.06657 0.39914
 H391 H 1.06409 0.06621 0.31815
 H392 H 1.03810 0.04074 0.36328
 H393 H 1.09467 0.09665 0.42755
 H394 H 1.12046 0.12193 0.38204
 C395 C 0.90984 -0.09257 0.34756
 C396 C 0.90137 -0.10072 0.37860
 C397 C 0.91622 -0.08620 0.40438
 C398 C 0.88159 -0.11963 0.29865
 C399 C 0.94825 -0.05539 0.36810
 C400 C 0.93337 -0.06995 0.34239
 C401 C 0.89439 -0.10733 0.32100
 C402 C 0.93978 -0.06326 0.39944
 H403 H 0.88320 -0.11823 0.38288
 H404 H 0.90910 -0.09285 0.42814
 H405 H 0.96630 -0.03789 0.36337
 H406 H 0.94017 -0.06349 0.31847
 C407 C 0.90594 0.09185 0.65258
 C408 C 0.89783 0.10055 0.62159
 C409 C 0.91281 0.08628 0.59570
 C410 C 0.87843 0.11919 0.70182
 C411 C 0.94400 0.05440 0.63177
 C412 C 0.92899 0.06869 0.65757
 C413 C 0.89085 0.10677 0.67930
 C414 C 0.93617 0.06308 0.60048
 H415 H 0.88000 0.11845 0.61744
 H416 H 0.90618 0.09354 0.57199
 H417 H 0.96181 0.03661 0.63639
 H418 H 0.93543 0.06175 0.68145
 C419 C 1.09749 -0.08928 0.65218
 C420 C 1.10580 -0.09765 0.62117
 C421 C 1.09088 -0.08321 0.59533
 C422 C 1.12441 -0.11742 0.70133
 C423 C 1.05932 -0.05184 0.63151
 C424 C 1.07429 -0.06629 0.65727
 C425 C 1.11234 -0.10457 0.67883
 C426 C 1.06736 -0.06020 0.60019
 H427 H 1.12370 -0.11544 0.61694
 H428 H 1.09765 -0.09023 0.57159
 H429 H 1.04138 -0.03420 0.63618
 H430 H 1.06765 -0.05964 0.68117
 C431 C 0.34747 1.09320 1.09316
 C432 C 0.37837 1.10123 1.10187
 C433 C 0.40418 1.08658 1.08720
 C434 C 0.29840 1.12073 1.12072
 C435 C 0.36821 1.05582 1.05493
 C436 C 0.34248 1.07052 1.06963
 C437 C 0.32086 1.10822 1.10829
 C438 C 0.39942 1.06360 1.06360
 H439 H 0.38253 1.11878 1.12005
 H440 H 0.42783 1.09316 1.09447
 H441 H 0.36361 1.03830 1.03684
 H442 H 0.31867 1.06413 1.06266
 C443 C 0.34775 0.90358 0.90994
 C444 C 0.34274 0.92618 0.93357
 C445 C 0.36846 0.94088 0.94820
 C446 C 0.29866 0.87672 0.88191
 C447 C 0.40446 0.91025 0.91574
 C448 C 0.37866 0.89559 0.90112
 C449 C 0.32112 0.88884 0.89464
 C450 C 0.39967 0.93318 0.93939
 H451 H 0.31893 0.93254 0.94061
 H452 H 0.36383 0.95835 0.96634
 H453 H 0.42811 0.90375 0.90836
 H454 H 0.38282 0.87813 0.88285
 C455 C 0.65216 0.90776 1.09710
 C456 C 0.62129 0.89885 1.10512
 C457 C 0.59541 0.91329 1.09035
 C458 C 0.70149 0.87991 1.12383
 C459 C 0.63125 0.94580 1.05958
 C460 C 0.65704 0.93134 1.07439
 C461 C 0.67889 0.89256 1.11182
 C462 C 0.60008 0.93687 1.06729
 H463 H 0.61722 0.88062 1.12268
 H464 H 0.57179 0.90583 1.09686
 H465 H 0.63579 0.96387 1.04200
 H466 H 0.68081 0.93846 1.06799
 C467 C 0.65192 1.08979 0.90611
 C468 C 0.62101 1.09843 0.89802
 C469 C 0.59523 1.08379 0.91275
 C470 C 0.70089 1.11802 0.87916
 C471 C 0.63127 1.05163 0.94365
 C472 C 0.65697 1.06630 0.92887
 C473 C 0.67850 1.10518 0.89134
 C474 C 0.60005 1.06028 0.93586
 H475 H 0.61681 1.11659 0.88041
 H476 H 0.57157 1.09104 0.90617
 H477 H 0.63592 1.03361 0.96127
 H478 H 0.68080 1.05939 0.93530
 C479 C 0.09399 0.34819 0.08995
 C480 C 0.10206 0.37900 0.09863
 C481 C 0.08718 0.40471 0.08411
 C482 C 0.12134 0.29927 0.11772
 C483 C 0.05615 0.36882 0.05204
 C484 C 0.07107 0.34319 0.06658
 C485 C 0.10899 0.32165 0.10510
 C486 C 0.06396 0.39993 0.06069
 H487 H 0.11977 0.38315 0.11671
 H488 H 0.09377 0.42830 0.09136
 H489 H 0.03844 0.36422 0.03409
 H490 H 0.06463 0.31945 0.05965
 C491 C -0.09700 0.34811 -0.09217
 C492 C -0.10534 0.37890 -0.10082
 C493 C -0.09045 0.40468 -0.08650
 C494 C -0.12423 0.29893 -0.11948
 C495 C -0.05885 0.36891 -0.05473
 C496 C -0.07377 0.34321 -0.06907
 C497 C -0.11200 0.32148 -0.10711
 C498 C -0.06695 0.40000 -0.06333
 H499 H -0.12328 0.38298 -0.11869
 H500 H -0.09727 0.42824 -0.09368
 H501 H -0.04092 0.36437 -0.03697
 H502 H -0.06711 0.31950 -0.06218
 C503 C 0.09042 0.65159 -0.09604
 C504 C 0.06672 0.65656 -0.07343
 C505 C 0.05183 0.63090 -0.05892
 C506 C 0.11898 0.70062 -0.12234
 C507 C 0.08416 0.59505 -0.08981
 C508 C 0.09903 0.62079 -0.10429
 C509 C 0.10604 0.67817 -0.11049
 C510 C 0.06046 0.59980 -0.06683
 H511 H 0.05984 0.68029 -0.06687
 H512 H 0.03368 0.63549 -0.04139
 H513 H 0.09140 0.57147 -0.09647
 H514 H 0.11736 0.61667 -0.12178
 C515 C -0.09377 0.65168 0.09328
 C516 C -0.10218 0.62089 0.10180
 C517 C -0.08748 0.59512 0.08721
 C518 C -0.12134 0.70080 0.12042
 C519 C -0.05578 0.63093 0.05558
 C520 C -0.07051 0.65661 0.07020
 C521 C -0.10892 0.67829 0.10813
 C522 C -0.06414 0.59983 0.06384
 H523 H -0.12015 0.61678 0.11966
 H524 H -0.09450 0.57154 0.09414
 H525 H -0.03792 0.63550 0.03775
 H526 H -0.06377 0.68033 0.06344
 C527 C 1.09605 0.09385 0.65191
 C528 C 1.07318 0.07059 0.65706
 C529 C 1.05868 0.05574 0.63134
 C530 C 1.12299 0.12174 0.70096
 C531 C 1.09007 0.08730 0.59511
 C532 C 1.10452 0.10213 0.62091
 C533 C 1.11077 0.10915 0.67849
 C534 C 1.06689 0.06399 0.60003
 H535 H 1.06648 0.06398 0.68097
 H536 H 1.04099 0.03788 0.63603
 H537 H 1.09694 0.09423 0.57136
 H538 H 1.12223 0.12011 0.61668
 C539 C 0.90704 -0.08994 0.65189
 C540 C 0.92980 -0.06661 0.65714
 C541 C 0.94443 -0.05170 0.63148
 C542 C 0.87992 -0.11826 0.70065
 C543 C 0.91337 -0.08334 0.59515
 C544 C 0.89879 -0.09822 0.62088
 C545 C 0.89225 -0.10542 0.67836
 C546 C 0.93646 -0.05997 0.60015
 H547 H 0.93634 -0.06002 0.68108
 H548 H 0.96207 -0.03381 0.63622
 H549 H 0.90668 -0.09030 0.57138
 H550 H 0.88117 -0.11626 0.61658
 C551 C 1.09169 -0.09416 0.34744
 C552 C 1.06853 -0.07116 0.34233
 C553 C 1.05425 -0.05608 0.36806
 C554 C 1.11914 -0.12180 0.29851
 C555 C 1.08619 -0.08715 0.40422
 C556 C 1.10045 -0.10219 0.37841
 C557 C 1.10664 -0.10930 0.32088
 C558 C 1.06299 -0.06384 0.39934
 H559 H 1.06158 -0.06479 0.31843
 H560 H 1.03645 -0.03830 0.36340
 H561 H 1.09348 -0.09370 0.42795
 H562 H 1.11837 -0.11998 0.38261
 C563 C 0.91079 0.09753 0.34786
 C564 C 0.93384 0.07445 0.34265
 C565 C 0.94833 0.05945 0.36834
 C566 C 0.88249 0.12430 0.29890
 C567 C 0.91683 0.09080 0.40463
 C568 C 0.90236 0.10575 0.37886
 C569 C 0.89543 0.11232 0.32132
 C570 C 0.93990 0.06738 0.39966
 H571 H 0.94052 0.06790 0.31873
 H572 H 0.96602 0.04159 0.36361
 H573 H 0.90978 0.09747 0.42839
 H574 H 0.88450 0.12358 0.38312
 C575 C 0.09329 0.34845 -0.09288
 C576 C 0.10149 0.37924 -0.10151
 C577 C 0.08691 0.40491 -0.08671
 C578 C 0.12063 0.29971 -0.12066
 C579 C 0.05599 0.36896 -0.05445
 C580 C 0.07060 0.34336 -0.06927
 C581 C 0.10817 0.32202 -0.10814
 C582 C 0.06389 0.40007 -0.06307
 H583 H 0.11907 0.38341 -0.11975
 H584 H 0.09356 0.42851 -0.09394
 H585 H 0.03842 0.36433 -0.03633
 H586 H 0.06414 0.31960 -0.06237
 C587 C -0.09742 0.34859 0.08990
 C588 C -0.07477 0.34351 0.06626
 C589 C -0.05997 0.36910 0.05159
 C590 C -0.12419 0.29976 0.11810
 C591 C -0.09065 0.40506 0.08406
 C592 C -0.10541 0.37938 0.09871
 C593 C -0.11214 0.32214 0.10530
 C594 C -0.06763 0.40020 0.06041
 H595 H -0.06843 0.31975 0.05927
 H596 H -0.04242 0.36446 0.03346
 H597 H -0.09711 0.42865 0.09143
 H598 H -0.12292 0.38355 0.11701
 C599 C -0.09210 0.65167 -0.09712
 C600 C -0.06866 0.65662 -0.07427
 C601 C -0.05418 0.63096 -0.05939
 C602 C -0.11996 0.70068 -0.12400
 C603 C -0.08642 0.59515 -0.09038
 C604 C -0.10088 0.62090 -0.10522
 C605 C -0.10730 0.67822 -0.11192
 C606 C -0.06297 0.59989 -0.06718
 H607 H -0.06168 0.68035 -0.06783
 H608 H -0.03620 0.63551 -0.04170
 H609 H -0.09375 0.57159 -0.09695
 H610 H -0.11902 0.61682 -0.12288
 C611 C 0.08977 0.65077 0.09459
 C612 C 0.06679 0.65603 0.07134
 C613 C 0.05221 0.63054 0.05633
 C614 C 0.11791 0.69927 0.12185
 C615 C 0.08350 0.59436 0.08797
 C616 C 0.09805 0.61991 0.10293
 C617 C 0.10508 0.67707 0.10957
 C618 C 0.06047 0.59938 0.06440
 H619 H 0.06022 0.67984 0.06471
 H620 H 0.03456 0.63530 0.03834
 H621 H 0.09042 0.57071 0.09476
 H622 H 0.11584 0.61560 0.12091
 C623 C 0.34831 1.09448 0.91056
 C624 C 0.34306 1.07170 0.93398
 C625 C 0.36863 1.05674 0.94860
 C626 C 0.29963 1.12176 0.88248
 C627 C 0.40489 1.08754 0.91651
 C628 C 0.37924 1.10245 0.90191
 C629 C 0.32191 1.10944 0.89525
 C630 C 0.39987 1.06440 0.93994
 H631 H 0.31919 1.06540 0.94085
 H632 H 0.36388 1.03911 0.96658
 H633 H 0.42860 1.09400 0.90927
 H634 H 0.38354 1.12007 0.88379
 C635 C 0.34787 0.90254 1.09178
 C636 C 0.37873 0.89451 1.10064
 C637 C 0.40452 0.90939 1.08622
 C638 C 0.29879 0.87555 1.11950
 C639 C 0.36854 0.94026 1.05391
 C640 C 0.34284 0.92534 1.06834
 C641 C 0.32129 0.88770 1.10692
 C642 C 0.39971 0.93255 1.06277
 H643 H 0.38286 0.87687 1.11878
 H644 H 0.42817 0.90289 1.09360
 H645 H 0.36393 0.95791 1.03591
 H646 H 0.31903 0.93171 1.06131
 C647 C 0.65117 1.09004 1.09674
 C648 C 0.62024 1.09827 1.10513
 C649 C 0.59458 1.08353 1.09042
 C650 C 0.69992 1.11846 1.12345
 C651 C 0.63085 1.05213 1.05897
 C652 C 0.65642 1.06689 1.07372
 C653 C 0.67759 1.10553 1.11143
 C654 C 0.59960 1.06036 1.06706
 H655 H 0.61593 1.11619 1.12291
 H656 H 0.57087 1.09045 1.09721
 H657 H 0.63560 1.03437 1.04114
 H658 H 0.68030 1.06035 1.06707
 C659 C 0.65164 0.90706 0.90637
 C660 C 0.62075 0.89858 0.89815
 C661 C 0.59501 0.91336 0.91274
 C662 C 0.70052 0.87919 0.87915
 C663 C 0.63110 0.94530 0.94375
 C664 C 0.65676 0.93049 0.92911
 C665 C 0.67815 0.89178 0.89152
 C666 C 0.59990 0.93683 0.93581
 H667 H 0.61655 0.88048 0.88053
 H668 H 0.57134 0.90625 0.90607
 H669 H 0.63575 0.96328 0.96135
 H670 H 0.68059 0.93727 0.93560
   
