data_POSCAR
  _audit_creation_date              2014-09-24
  _audit_creation_method            'ToBaCCo'
  _symmetry_space_group_name_H-M    'P1'
  _symmetry_Int_Tables_number       1
  _symmetry_cell_setting            triclinic
  loop_
  _symmetry_equiv_pos_as_xyz
 x,y,z
_cell_length_a 39.2090
_cell_length_b 37.1728
_cell_length_c 37.5356
_cell_angle_alpha 90.660000
_cell_angle_beta 90.009200
_cell_angle_gamma 90.018800
loop_
  _atom_site_label
  _atom_site_type_symbol
  _atom_site_fract_x
  _atom_site_fract_y
  _atom_site_fract_z
N1 N 0.19046 1.26127 0.16324
 N2 N 0.16557 1.26046 0.18674
 C3 C 0.14461 1.28859 0.18125
 C4 C 0.15725 1.30779 0.15297
 C5 C 0.18618 1.28984 0.14196
 H6 H 0.12124 1.29387 0.19567
 H7 H 0.20209 1.29620 0.11934
 Cu8 Cu 0.16202 1.22122 0.22036
 Cu9 Cu 0.22494 1.22362 0.15998
 Cu10 Cu 0.21853 1.15344 0.21986
 N11 N 0.15844 1.18198 0.25398
 N12 N 0.18078 1.15555 0.25366
 C13 C 0.17230 1.13158 0.27879
 C14 C 0.14323 1.14384 0.29559
 C15 C 0.13496 1.17576 0.27941
 H16 H 0.18593 1.10691 0.28408
 H17 H 0.11327 1.19274 0.28532
 N18 N 0.25485 1.15630 0.18364
 N19 N 0.25732 1.18309 0.16093
 C20 C 0.28397 1.17688 0.13905
 C21 C 0.29880 1.14484 0.14857
 C22 C 0.27989 1.13236 0.17678
 H23 H 0.29167 1.19393 0.11734
 H24 H 0.28374 1.10740 0.19072
 H25 H 0.19515 1.18277 0.18037
 H26 H 0.22247 1.20819 0.21267
 N27 N 0.80724 0.73355 0.16212
 N28 N 0.82858 0.73236 0.18913
 C29 C 0.85057 0.70496 0.18400
 C30 C 0.84224 0.68808 0.15227
 C31 C 0.81480 0.70681 0.13894
 H32 H 0.87177 0.69869 0.20129
 H33 H 0.80222 0.70225 0.11364
 Cu34 Cu 0.82705 0.76808 0.22718
 Cu35 Cu 0.77335 0.77155 0.15750
 Cu36 Cu 0.77830 0.84179 0.21883
 N37 N 0.83390 0.81015 0.25738
 N38 N 0.81454 0.83885 0.25427
 C39 C 0.82475 0.86402 0.27806
 C40 C 0.85191 0.85018 0.29678
 C41 C 0.85725 0.81607 0.28312
 H42 H 0.81356 0.89046 0.28120
 H43 H 0.87678 0.79719 0.29096
 N44 N 0.74352 0.83949 0.18090
 N45 N 0.74157 0.81265 0.15758
 C46 C 0.71579 0.81911 0.13478
 C47 C 0.70100 0.85139 0.14438
 C48 C 0.71902 0.86371 0.17355
 H49 H 0.70858 0.80194 0.11258
 H50 H 0.71482 0.88865 0.18800
 H51 H 0.80404 0.80885 0.18322
 H52 H 0.76981 0.78745 0.21040
 N53 N 0.80779 1.26658 -0.16158
 N54 N 0.83174 1.26591 -0.18614
 C55 C 0.85318 1.29372 -0.18044
 C56 C 0.84187 1.31269 -0.15098
 C57 C 0.81317 1.29482 -0.13948
 H58 H 0.87619 1.29884 -0.19543
 H59 H 0.79836 1.30086 -0.11585
 Cu60 Cu 0.83447 1.22679 -0.22088
 Cu61 Cu 0.77348 1.22887 -0.15803
 Cu62 Cu 0.77806 1.15873 -0.21964
 N63 N 0.83675 1.18743 -0.25541
 N64 N 0.81459 1.16084 -0.25472
 C65 C 0.82253 1.13663 -0.28037
 C66 C 0.85108 1.14888 -0.29786
 C67 C 0.85963 1.18101 -0.28151
 H68 H 0.80904 1.11169 -0.28538
 H69 H 0.88125 1.19792 -0.28767
 N70 N 0.74295 1.16149 -0.18214
 N71 N 0.74111 1.18827 -0.15877
 C72 C 0.71518 1.18193 -0.13611
 C73 C 0.70018 1.14980 -0.14585
 C74 C 0.71824 1.13743 -0.17497
 H75 H 0.70812 1.19896 -0.11376
 H76 H 0.71405 1.11244 -0.18934
 H77 H 0.80287 1.18822 -0.18043
 H78 H 0.77436 1.21348 -0.21114
 N79 N 0.19162 0.73861 -0.16459
 N80 N 0.16679 0.73935 -0.18812
 C81 C 0.14594 0.71109 -0.18273
 C82 C 0.15862 0.69180 -0.15452
 C83 C 0.18748 0.70990 -0.14346
 H84 H 0.12259 0.70578 -0.19717
 H85 H 0.20336 0.70354 -0.12083
 Cu86 Cu 0.16272 0.77874 -0.22157
 Cu87 Cu 0.22575 0.77655 -0.16097
 Cu88 Cu 0.21878 0.84717 -0.22014
 N89 N 0.15914 0.81839 -0.25478
 N90 N 0.18120 0.84507 -0.25407
 C91 C 0.17258 0.86922 -0.27900
 C92 C 0.14369 0.85681 -0.29606
 C93 C 0.13569 0.82462 -0.28024
 H94 H 0.18600 0.89410 -0.28397
 H95 H 0.11419 0.80742 -0.28641
 N96 N 0.25503 0.84438 -0.18389
 N97 N 0.25774 0.81738 -0.16147
 C98 C 0.28433 0.82364 -0.13951
 C99 C 0.29886 0.85593 -0.14869
 C100 C 0.27984 0.86851 -0.17676
 H101 H 0.29218 0.80641 -0.11799
 H102 H 0.28348 0.89365 -0.19046
 H103 H 0.19544 0.81709 -0.18103
 H104 H 0.22310 0.79225 -0.21354
 C105 C 0.50113 1.00048 -0.00009
 C106 C 0.00683 0.50005 1.00061
 C107 C 0.99786 -0.00006 0.49961
 C108 C 0.05787 0.46221 1.08074
 C109 C 0.07516 0.43362 1.06432
 C110 C 0.07238 0.42831 1.02755
 C111 C 0.05120 0.45042 1.00751
 C112 C 0.14171 0.33555 1.13619
 C113 C 0.03661 0.48445 1.06070
 C114 C 0.09457 0.40863 1.08515
 C115 C 0.11008 0.38652 1.10191
 C116 C 0.12746 0.35948 1.12074
 C117 C 0.03130 0.47763 1.02396
 H118 H 0.06054 0.46712 1.10911
 H119 H 0.08610 0.40661 1.01442
 H120 H 0.04929 0.44547 0.97909
 H121 H 0.02455 0.50683 1.07428
 C122 C -0.04510 0.58277 1.03359
 C123 C -0.06326 0.56833 1.06203
 C124 C -0.05985 0.53185 1.06991
 C125 C -0.03754 0.51019 1.05002
 C126 C -0.13889 0.66013 1.13437
 C127 C -0.02282 0.56126 1.01373
 C128 C -0.08517 0.59139 1.08291
 C129 C -0.10276 0.61201 1.09976
 C130 C -0.12256 0.63747 1.11875
 C131 C -0.01720 0.52484 1.02263
 H132 H -0.04828 0.61078 1.02661
 H133 H -0.07438 0.52014 1.09142
 H134 H -0.03567 0.48192 1.05636
 H135 H -0.01055 0.57343 0.99109
 C136 C -0.06121 0.46935 0.93222
 C137 C -0.06507 0.43293 0.94017
 C138 C -0.04692 0.41826 0.96850
 C139 C -0.02414 0.43944 0.98811
 C140 C -0.14029 0.34109 0.86741
 C141 C -0.03842 0.49069 0.95189
 C142 C -0.08722 0.41008 0.91933
 C143 C -0.10486 0.38952 0.90244
 C144 C -0.12444 0.36398 0.88328
 C145 C -0.01799 0.47572 0.97903
 H146 H -0.07569 0.48123 0.91077
 H147 H -0.05041 0.39031 0.97554
 H148 H -0.01184 0.42712 1.01064
 H149 H -0.03618 0.51892 0.94549
 C150 C 0.07333 0.57040 0.97254
 C151 C 0.07540 0.56510 0.93572
 C152 C 0.05726 0.53692 0.91959
 C153 C 0.03591 0.51510 0.93998
 C154 C 0.14228 0.66239 0.86315
 C155 C 0.05204 0.54873 0.99294
 C156 C 0.09494 0.58974 0.91459
 C157 C 0.11053 0.61162 0.89761
 C158 C 0.12798 0.63851 0.87863
 C159 C 0.03133 0.52198 0.97683
 H160 H 0.08769 0.59178 0.98545
 H161 H 0.05932 0.53201 0.89116
 H162 H 0.02318 0.49300 0.92660
 H163 H 0.05069 0.55370 1.02139
 C164 C 1.02522 0.07297 0.43303
 C165 C 1.05672 0.05989 0.42125
 C166 C 1.06943 0.02775 0.43485
 C167 C 1.05095 0.00895 0.46043
 C168 C 1.12551 0.12707 0.32173
 C169 C 1.00669 0.05423 0.45866
 C170 C 1.07548 0.07872 0.39428
 C171 C 1.09125 0.09419 0.37154
 C172 C 1.10974 0.11204 0.34476
 C173 C 1.01979 0.02252 0.47395
 H174 H 1.01470 0.09739 0.42200
 H175 H 1.09341 0.01687 0.42525
 H176 H 1.06093 -0.01658 0.46923
 H177 H 0.98181 0.06437 0.46616
 C178 C 1.06813 -0.02614 0.56649
 C179 C 1.05655 -0.05936 0.57862
 C180 C 1.02609 -0.07368 0.56528
 C181 C 1.00754 -0.05513 0.53951
 C182 C 1.12588 -0.12638 0.67788
 C183 C 1.04964 -0.00753 0.54080
 C184 C 1.07543 -0.07813 0.60556
 C185 C 1.09132 -0.09359 0.62823
 C186 C 1.10998 -0.11138 0.65493
 C187 C 1.01967 -0.02232 0.52563
 H188 H 1.09125 -0.01433 0.57729
 H189 H 1.01636 -0.09896 0.57517
 H190 H 0.98340 -0.06630 0.53085
 H191 H 1.05870 0.01873 0.53303
 C192 C 0.97104 -0.07564 0.43384
 C193 C 0.93968 -0.06295 0.42151
 C194 C 0.92701 -0.03016 0.43432
 C195 C 0.94533 -0.01035 0.45971
 C196 C 0.87024 -0.13281 0.32272
 C197 C 0.98943 -0.05586 0.45927
 C198 C 0.92099 -0.08283 0.39478
 C199 C 0.90513 -0.09900 0.37221
 C200 C 0.88638 -0.11743 0.34559
 C201 C 0.97627 -0.02350 0.47387
 H202 H 0.98155 -0.10057 0.42341
 H203 H 0.90316 -0.01959 0.42428
 H204 H 0.93536 0.01558 0.46792
 H205 H 1.01420 -0.06575 0.46723
 C206 C 0.96862 0.07582 0.56392
 C207 C 0.93798 0.06191 0.57693
 C208 C 0.92657 0.02829 0.56497
 C209 C 0.94545 0.00882 0.53980
 C210 C 0.86862 0.13156 0.67584
 C211 C 0.98755 0.05640 0.53868
 C212 C 0.91889 0.08146 0.60355
 C213 C 0.90293 0.09752 0.62609
 C214 C 0.88435 0.11601 0.65278
 C215 C 0.97565 0.02310 0.52500
 H216 H 0.97818 0.10143 0.57373
 H217 H 0.90331 0.01682 0.57552
 H218 H 0.93651 -0.01771 0.53216
 H219 H 1.01179 0.06731 0.53029
 C220 C 0.44299 1.03192 0.07768
 C221 C 0.42571 1.06066 0.06223
 C222 C 0.43317 1.07037 0.02724
 C223 C 0.45793 1.05155 0.00784
 C224 C 0.32674 1.12700 0.13104
 C225 C 0.46777 1.01302 0.05835
 C226 C 0.39921 1.07912 0.08166
 C227 C 0.37667 1.09435 0.09761
 C228 C 0.34990 1.11201 0.11586
 C229 C 0.47656 1.02316 0.02330
 H230 H 0.43676 1.02355 0.10447
 H231 H 0.41942 1.09209 0.01470
 H232 H 0.46235 1.05893 -0.01959
 H233 H 0.47915 0.98981 0.07069
 C234 C 0.55880 1.07870 -0.03141
 C235 C 0.57586 1.06259 -0.06013
 C236 C 0.56859 1.02696 -0.06962
 C237 C 0.54420 1.00760 -0.05068
 C238 C 0.67283 1.13173 -0.12792
 C239 C 0.53433 1.05940 -0.01242
 C240 C 0.60185 1.08205 -0.07895
 C241 C 0.62394 1.09800 -0.09457
 C242 C 0.65016 1.11634 -0.11266
 C243 C 0.52569 1.02374 -0.02240
 H244 H 0.56488 1.10600 -0.02323
 H245 H 0.58216 1.01393 -0.09133
 H246 H 0.53984 0.97973 -0.05801
 H247 H 0.52300 1.07230 0.01066
 C248 C 0.44299 0.96892 -0.07783
 C249 C 0.42575 0.94017 -0.06234
 C250 C 0.43324 0.93049 -0.02735
 C251 C 0.45797 0.94938 -0.00797
 C252 C 0.32674 0.87379 -0.13108
 C253 C 0.46775 0.98788 -0.05851
 C254 C 0.39923 0.92168 -0.08173
 C255 C 0.37667 0.90644 -0.09765
 C256 C 0.34988 0.88879 -0.11588
 C257 C 0.47654 0.97779 -0.02346
 H258 H 0.43675 0.97724 -0.10462
 H259 H 0.41952 0.90874 -0.01479
 H260 H 0.46242 0.94202 0.01946
 H261 H 0.47913 1.01109 -0.07089
 C262 C 0.56867 0.97392 0.06932
 C263 C 0.57598 0.93835 0.05968
 C264 C 0.55888 0.92228 0.03097
 C265 C 0.53436 0.94158 0.01208
 C266 C 0.67354 0.86938 0.12658
 C267 C 0.54422 0.99329 0.05048
 C268 C 0.60212 0.91893 0.07828
 C269 C 0.62435 0.90300 0.09368
 C270 C 0.65074 0.88472 0.11151
 C271 C 0.52570 0.97720 0.02217
 H272 H 0.58226 0.98691 0.09106
 H273 H 0.56499 0.89501 0.02269
 H274 H 0.52302 0.92872 -0.01102
 H275 H 0.53985 1.02114 0.05788
   
