data_POSCAR
  _audit_creation_date              2014-09-24
  _audit_creation_method            'ToBaCCo'
  _symmetry_space_group_name_H-M    'P1'
  _symmetry_Int_Tables_number       1
  _symmetry_cell_setting            triclinic
  loop_
  _symmetry_equiv_pos_as_xyz
 x,y,z
_cell_length_a 27.3730
_cell_length_b 27.4303
_cell_length_c 27.4086
_cell_angle_alpha 89.800300
_cell_angle_beta 90.193300
_cell_angle_gamma 89.999400
loop_
  _atom_site_label
  _atom_site_type_symbol
  _atom_site_fract_x
  _atom_site_fract_y
  _atom_site_fract_z
O1 O 0.56937 0.12338 0.00477
 O2 O 0.62323 0.05920 0.00211
 C3 C 0.61314 0.10524 0.00416
 O4 O 0.43280 -0.00328 0.12520
 O5 O 0.37890 -0.00082 0.06089
 C6 C 0.38901 -0.00297 0.10701
 O7 O 0.56991 0.00325 0.12462
 O8 O 0.62365 0.00163 0.06045
 C9 C 0.61372 0.00319 0.10658
 O10 O 0.43258 0.12391 -0.00176
 O11 O 0.37881 0.05974 0.00046
 C12 C 0.38885 0.10579 -0.00159
 Zr13 Zr 0.50073 0.08761 0.00192
 O14 O 0.49532 0.14108 0.05719
 O15 O 0.50613 0.14260 -0.05217
 Zr16 Zr 0.50097 0.00031 0.08896
 O17 O 0.49557 0.05506 0.14294
 O18 O 0.50668 -0.05416 0.14358
 O19 O 0.54456 0.05074 0.05228
 O20 O 0.45825 0.05017 0.05163
 O21 O 0.43158 0.00410 -0.12105
 O22 O 0.37785 0.00191 -0.05683
 C23 C 0.38782 0.00383 -0.10293
 O24 O 0.56886 -0.12269 -0.00162
 O25 O 0.62269 -0.05857 0.00093
 C26 C 0.61259 -0.10459 -0.00127
 O27 O 0.43191 -0.12203 0.00480
 O28 O 0.37800 -0.05780 0.00278
 C29 C 0.38812 -0.10386 0.00458
 O30 O 0.56861 -0.00230 -0.12159
 O31 O 0.62257 -0.00045 -0.05732
 C32 C 0.61240 -0.00222 -0.10345
 Zr33 Zr 0.50048 0.00094 -0.08534
 O34 O 0.49478 -0.05320 -0.13993
 O35 O 0.50585 0.05604 -0.13936
 Zr36 Zr 0.50067 -0.08645 0.00173
 O37 O 0.49491 -0.14070 -0.05274
 O38 O 0.50631 -0.14080 0.05650
 Zr39 Zr 0.57369 0.00059 0.00196
 Zr40 Zr 0.42779 0.00052 0.00166
 O41 O 0.45810 -0.04910 -0.04822
 O42 O 0.54423 -0.04946 -0.04848
 O43 O 0.45698 0.05107 -0.04856
 O44 O 0.54332 -0.04945 0.05173
 O45 O 0.54306 0.05057 -0.04797
 O46 O 0.45723 -0.04989 0.05206
 H47 H 0.43621 0.07033 0.07185
 H48 H 0.56543 -0.06978 0.07201
 H49 H 0.43600 -0.06928 -0.06851
 H50 H 0.56495 0.07088 -0.06835
 H51 H 0.48009 -0.07790 0.13790
 H52 H 0.47853 -0.13642 0.07905
 H53 H 0.52189 -0.13545 -0.07608
 H54 H 0.52176 -0.07663 -0.13467
 H55 H 0.47774 0.07828 -0.13520
 H56 H 0.47991 0.13672 -0.07634
 H57 H 0.52360 0.13682 0.07935
 H58 H 0.52343 0.07758 0.13845
 O59 O 0.00353 0.43236 -0.12420
 O60 O 0.00198 0.37824 -0.05996
 C61 C 0.00352 0.38851 -0.10609
 O62 O 0.12374 0.56864 0.00220
 O63 O 0.05995 0.62272 -0.00096
 C64 C 0.10622 0.61261 0.00157
 O65 O 0.12378 0.43270 -0.00464
 O66 O 0.06002 0.37861 -0.00165
 C67 C 0.10629 0.38873 -0.00396
 O68 O -0.00298 0.56945 -0.12470
 O69 O -0.00078 0.62284 -0.06044
 C70 C -0.00279 0.61310 -0.10661
 Zr71 Zr 0.00050 0.50105 -0.08857
 O72 O 0.05535 0.50679 -0.14258
 O73 O -0.05414 0.49576 -0.14314
 Zr74 Zr 0.08770 0.50067 -0.00151
 O75 O 0.14160 0.50663 -0.05645
 O76 O 0.14276 0.49484 0.05263
 O77 O 0.05093 0.45724 -0.05187
 O78 O 0.05035 0.54343 -0.05120
 O79 O -0.12255 0.56843 -0.00489
 O80 O -0.05880 0.62251 -0.00245
 C81 C -0.10507 0.61239 -0.00458
 O82 O -0.00228 0.43197 0.12203
 O83 O -0.00049 0.37856 0.05775
 C84 C -0.00223 0.38836 0.10388
 O85 O 0.00409 0.56886 0.12149
 O86 O 0.00207 0.62306 0.05733
 C87 C 0.00389 0.61272 0.10346
 O88 O -0.12228 0.43254 0.00164
 O89 O -0.05849 0.37854 -0.00153
 C90 C -0.10475 0.38860 0.00090
 Zr91 Zr -0.08629 0.50059 -0.00143
 O92 O -0.14041 0.50594 0.05333
 O93 O -0.14110 0.49519 -0.05584
 Zr94 Zr 0.00099 0.50028 0.08578
 O95 O -0.05335 0.50555 0.14029
 O96 O 0.05619 0.49458 0.13981
 Zr97 Zr 0.00073 0.42775 -0.00154
 Zr98 Zr 0.00067 0.57358 -0.00118
 O99 O -0.04907 0.54287 0.04858
 O100 O -0.04945 0.45677 0.04886
 O101 O -0.04974 0.54444 -0.05165
 O102 O 0.05072 0.45801 0.04840
 O103 O -0.04928 0.45845 -0.05142
 O104 O 0.05125 0.54401 0.04904
 H105 H 0.07062 0.56548 -0.07147
 H106 H 0.07111 0.43601 0.06873
 H107 H -0.06937 0.56479 0.06880
 H108 H -0.06966 0.43661 -0.07179
 H109 H 0.13716 0.52111 0.07658
 H110 H 0.07852 0.52261 0.13555
 H111 H -0.07693 0.47878 0.13482
 H112 H -0.13585 0.47815 0.07598
 H113 H -0.13597 0.52218 -0.07928
 H114 H -0.07748 0.52275 -0.13796
 H115 H 0.07784 0.47890 -0.13818
 H116 H 0.13703 0.47902 -0.07913
 O117 O -0.12388 -0.00405 0.56808
 O118 O -0.06008 -0.00103 0.62240
 C119 C -0.10636 -0.00335 0.61217
 O120 O 0.00227 -0.12377 0.43236
 O121 O -0.00083 -0.06010 0.37801
 C122 C 0.00157 -0.10630 0.38825
 O123 O -0.00410 -0.12389 0.56867
 O124 O -0.00090 -0.06036 0.62274
 C125 C -0.00333 -0.10656 0.61270
 O126 O -0.12397 0.00244 0.43175
 O127 O -0.06028 -0.00074 0.37773
 C128 C -0.10655 0.00173 0.38775
 Zr129 Zr -0.08786 -0.00093 0.49998
 O130 O -0.14223 -0.05557 0.49446
 O131 O -0.14242 0.05351 0.50518
 Zr132 Zr -0.00091 -0.08780 0.50045
 O133 O -0.05564 -0.14208 0.49491
 O134 O 0.05374 -0.14217 0.50628
 O135 O -0.05121 -0.05122 0.54400
 O136 O -0.05076 -0.05066 0.45770
 O137 O -0.00394 0.12195 0.43170
 O138 O -0.00091 0.05840 0.37767
 C139 C -0.00323 0.10459 0.38768
 O140 O 0.12222 0.00221 0.56874
 O141 O 0.05852 -0.00097 0.62275
 C142 C 0.10478 0.00149 0.61273
 O143 O 0.12222 -0.00423 0.43256
 O144 O 0.05854 -0.00097 0.37810
 C145 C 0.10481 -0.00345 0.38845
 O146 O 0.00249 0.12191 0.56792
 O147 O -0.00067 0.05836 0.62238
 C148 C 0.00179 0.10456 0.61205
 Zr149 Zr -0.00083 0.08587 0.49995
 O150 O 0.05377 0.14028 0.49443
 O151 O -0.05559 0.14012 0.50514
 Zr152 Zr 0.08614 -0.00101 0.50051
 O153 O 0.14066 0.05348 0.49497
 O154 O 0.14056 -0.05560 0.50641
 Zr155 Zr -0.00082 -0.00099 0.57341
 Zr156 Zr -0.00087 -0.00090 0.42704
 O157 O 0.04903 0.04881 0.45774
 O158 O 0.04953 0.04926 0.54399
 O159 O -0.05121 0.04934 0.45615
 O160 O 0.04899 -0.05078 0.54302
 O161 O -0.05068 0.04881 0.54243
 O162 O 0.04946 -0.05121 0.45675
 H163 H -0.07120 -0.07101 0.43590
 H164 H 0.06942 -0.07118 0.56493
 H165 H 0.06948 0.06920 0.43597
 H166 H -0.07108 0.06922 0.56409
 H167 H 0.07676 -0.13733 0.47895
 H168 H 0.13565 -0.07863 0.47914
 H169 H 0.13581 0.07651 0.52221
 H170 H 0.07700 0.13525 0.52170
 H171 H -0.07845 0.13548 0.47752
 H172 H -0.13733 0.07677 0.47802
 H173 H -0.13755 -0.07838 0.52211
 H174 H -0.07869 -0.13719 0.52217
 C175 C -0.22433 0.31961 0.00698
 C176 C -0.20848 0.27126 0.00485
 C177 C -0.15850 0.26091 0.00172
 C178 C -0.12446 0.29898 0.00058
 C179 C -0.34674 0.13870 0.00504
 C180 C -0.19053 0.35761 0.00583
 C181 C -0.24408 0.23277 0.00534
 C182 C -0.27542 0.20198 0.00552
 C183 C -0.31346 0.16738 0.00543
 C184 C -0.14016 0.34782 0.00250
 H185 H -0.26294 0.32800 0.00937
 H186 H -0.14590 0.22352 0.00001
 H187 H -0.08599 0.29019 -0.00196
 H188 H -0.20401 0.39468 0.00746
 C189 C 0.15995 0.74029 0.00258
 C190 C 0.20993 0.72994 0.00597
 C191 C 0.22580 0.68157 0.00830
 C192 C 0.19200 0.64357 0.00705
 C193 C 0.34802 0.86266 0.00572
 C194 C 0.12591 0.70222 0.00133
 C195 C 0.24551 0.76844 0.00643
 C196 C 0.27681 0.79928 0.00653
 C197 C 0.31479 0.83394 0.00629
 C198 C 0.14163 0.65337 0.00341
 H199 H 0.14733 0.77769 0.00070
 H200 H 0.26441 0.67319 0.01090
 H201 H 0.20549 0.60649 0.00881
 H202 H 0.08744 0.71102 -0.00145
 C203 C 0.22597 0.31991 -0.00953
 C204 C 0.21023 0.27155 -0.00641
 C205 C 0.16028 0.26114 -0.00304
 C206 C 0.12615 0.29916 -0.00254
 C207 C 0.34872 0.13922 -0.00323
 C208 C 0.19209 0.35785 -0.00901
 C209 C 0.24592 0.23314 -0.00598
 C210 C 0.27732 0.20241 -0.00537
 C211 C 0.31541 0.16786 -0.00435
 C212 C 0.14175 0.34800 -0.00532
 H213 H 0.26455 0.32834 -0.01213
 H214 H 0.14776 0.22375 -0.00056
 H215 H 0.08771 0.29032 0.00031
 H216 H 0.20549 0.39493 -0.01131
 C217 C -0.15902 0.73996 -0.00364
 C218 C -0.20899 0.72958 -0.00707
 C219 C -0.22476 0.68126 -0.01041
 C220 C -0.19088 0.64331 -0.00997
 C221 C -0.34731 0.86197 -0.00297
 C222 C -0.12490 0.70194 -0.00323
 C223 C -0.24466 0.76799 -0.00638
 C224 C -0.27602 0.79874 -0.00552
 C225 C -0.31406 0.83330 -0.00425
 C226 C -0.14053 0.65312 -0.00615
 H227 H -0.14649 0.77732 -0.00099
 H228 H -0.26336 0.67286 -0.01307
 H229 H -0.20429 0.60626 -0.01240
 H230 H -0.08645 0.71074 -0.00026
 C231 C 0.00254 -0.15998 0.26040
 C232 C 0.00525 -0.20995 0.27079
 C233 C 0.00708 -0.22579 0.31930
 C234 C 0.00603 -0.19205 0.35730
 C235 C 0.00502 -0.34737 0.13722
 C236 C 0.00150 -0.12601 0.29847
 C237 C 0.00566 -0.24549 0.23218
 C238 C 0.00576 -0.27664 0.20119
 C239 C 0.00555 -0.31438 0.16621
 C240 C 0.00311 -0.14171 0.34745
 H241 H 0.00107 -0.14729 0.22295
 H242 H 0.00915 -0.26434 0.32781
 H243 H 0.00740 -0.20557 0.39445
 H244 H -0.00072 -0.08758 0.28956
 C245 C 0.00769 0.22452 0.68009
 C246 C 0.00529 0.20917 0.72869
 C247 C 0.00214 0.15929 0.73951
 C248 C 0.00122 0.12496 0.70173
 C249 C 0.00464 0.34845 0.86032
 C250 C 0.00675 0.19044 0.64241
 C251 C 0.00553 0.24517 0.76688
 C252 C 0.00552 0.27680 0.79737
 C253 C 0.00521 0.31510 0.83174
 C254 C 0.00336 0.14020 0.65266
 H255 H 0.01011 0.26298 0.67124
 H256 H 0.00023 0.14698 0.77705
 H257 H -0.00138 0.08662 0.71094
 H258 H 0.00855 0.20364 0.60518
 C259 C -0.00262 0.15908 0.25978
 C260 C -0.00575 0.20897 0.27012
 C261 C -0.00853 0.22443 0.31857
 C262 C -0.00796 0.19044 0.35657
 C263 C -0.00360 0.34806 0.13742
 C264 C -0.00206 0.12483 0.29787
 C265 C -0.00554 0.24486 0.23160
 C266 C -0.00516 0.27640 0.20081
 C267 C -0.00446 0.31465 0.16615
 C268 C -0.00456 0.14018 0.34679
 H269 H -0.00041 0.14668 0.22237
 H270 H -0.01095 0.26292 0.32704
 H271 H -0.01003 0.20371 0.39367
 H272 H 0.00057 0.08647 0.28902
 C273 C -0.00294 -0.16114 0.74062
 C274 C -0.00609 -0.21104 0.73024
 C275 C -0.00881 -0.22646 0.68175
 C276 C -0.00815 -0.19244 0.64377
 C277 C -0.00408 -0.35030 0.86291
 C278 C -0.00229 -0.12687 0.70255
 C279 C -0.00597 -0.24697 0.76876
 C280 C -0.00565 -0.27854 0.79955
 C281 C -0.00497 -0.31684 0.83420
 C282 C -0.00472 -0.14218 0.65359
 H283 H -0.00079 -0.14876 0.77805
 H284 H -0.01124 -0.26493 0.67323
 H285 H -0.01016 -0.20568 0.60664
 H286 H 0.00035 -0.08852 0.71143
 C287 C 0.15886 0.00241 0.74069
 C288 C 0.20887 0.00538 0.73042
 C289 C 0.22459 0.00741 0.68200
 C290 C 0.19069 0.00630 0.64391
 C291 C 0.34757 0.00502 0.86347
 C292 C 0.12471 0.00131 0.70252
 C293 C 0.24462 0.00578 0.76903
 C294 C 0.27606 0.00586 0.79992
 C295 C 0.31422 0.00560 0.83466
 C296 C 0.14031 0.00311 0.65363
 H297 H 0.14631 0.00078 0.77810
 H298 H 0.26319 0.00968 0.67363
 H299 H 0.20410 0.00783 0.60682
 H300 H 0.08624 -0.00112 0.71129
 C301 C -0.22644 0.00765 0.31849
 C302 C -0.21080 0.00519 0.27008
 C303 C -0.16081 0.00202 0.25980
 C304 C -0.12660 0.00112 0.29795
 C305 C -0.34974 0.00421 0.13713
 C306 C -0.19249 0.00673 0.35656
 C307 C -0.24662 0.00535 0.23149
 C308 C -0.27812 0.00526 0.20063
 C309 C -0.31633 0.00485 0.16591
 C310 C -0.14212 0.00330 0.34684
 H311 H -0.26502 0.01009 0.32688
 H312 H -0.14831 0.00007 0.22240
 H313 H -0.08815 -0.00151 0.28917
 H314 H -0.20585 0.00856 0.39364
 C315 C 0.15942 -0.00304 0.26102
 C316 C 0.20937 -0.00644 0.27182
 C317 C 0.22484 -0.00935 0.32037
 C318 C 0.19077 -0.00861 0.35808
 C319 C 0.34883 -0.00443 0.14043
 C320 C 0.12508 -0.00232 0.29883
 C321 C 0.24535 -0.00633 0.23364
 C322 C 0.27702 -0.00601 0.20318
 C323 C 0.31538 -0.00532 0.16891
 C324 C 0.14045 -0.00492 0.34786
 H325 H 0.14706 -0.00073 0.22350
 H326 H 0.26338 -0.01197 0.32915
 H327 H 0.20402 -0.01079 0.39529
 H328 H 0.08667 0.00052 0.28968
 C329 C -0.15992 -0.00304 0.73998
 C330 C -0.20998 -0.00588 0.72965
 C331 C -0.22593 -0.00837 0.68123
 C332 C -0.19219 -0.00779 0.64319
 C333 C -0.34756 -0.00359 0.86298
 C334 C -0.12594 -0.00247 0.70187
 C335 C -0.24551 -0.00566 0.76825
 C336 C -0.27667 -0.00525 0.79921
 C337 C -0.31447 -0.00449 0.83410
 C338 C -0.14176 -0.00467 0.65297
 H339 H -0.14718 -0.00106 0.77738
 H340 H -0.26458 -0.01056 0.67282
 H341 H -0.20576 -0.00962 0.60609
 H342 H -0.08743 -0.00007 0.71070
   
