data_POSCAR
  _audit_creation_date              2014-09-24
  _audit_creation_method            'ToBaCCo'
  _symmetry_space_group_name_H-M    'P1'
  _symmetry_Int_Tables_number       1
  _symmetry_cell_setting            triclinic
  loop_
  _symmetry_equiv_pos_as_xyz
 x,y,z
_cell_length_a 63.5650
_cell_length_b 63.1968
_cell_length_c 23.5582
_cell_angle_alpha 89.981800
_cell_angle_beta 89.895400
_cell_angle_gamma 119.776000
loop_
  _atom_site_label
  _atom_site_type_symbol
  _atom_site_fract_x
  _atom_site_fract_y
  _atom_site_fract_z
C1 C 0.20799 0.49913 0.44749
 C2 C 0.20013 0.50381 0.49914
 C3 C 0.20837 0.50058 0.55185
 C4 C 0.22675 0.49400 0.55294
 C5 C 0.23568 0.48991 0.50108
 C6 C 0.22611 0.49222 0.44824
 C7 C 0.23656 0.48988 0.39763
 C8 C 0.25546 0.48487 0.39842
 C9 C 0.26526 0.48263 0.44983
 C10 C 0.25530 0.48500 0.50186
 C11 C 0.23819 0.49394 0.60392
 C12 C 0.25735 0.48923 0.60461
 C13 C 0.26605 0.48424 0.55434
 C14 C 0.28680 0.48114 0.55417
 C15 C 0.29616 0.47896 0.50183
 C16 C 0.28579 0.47962 0.45032
 H17 H 0.23106 0.49298 0.35654
 H18 H 0.26292 0.48367 0.35800
 H19 H 0.23334 0.49882 0.64384
 H20 H 0.26595 0.49080 0.64507
 H21 H 0.18549 0.50796 0.49833
 H22 H 0.31195 0.47661 0.50087
 C23 C 0.53799 -0.18845 0.56226
 C24 C 0.54163 -0.17485 0.51283
 C25 C 0.54103 -0.18462 0.45930
 C26 C 0.53775 -0.20838 0.45476
 C27 C 0.53459 -0.22229 0.50462
 C28 C 0.53445 -0.21234 0.55854
 C29 C 0.52995 -0.22676 0.60718
 C30 C 0.52515 -0.25069 0.60308
 C31 C 0.52554 -0.26101 0.55033
 C32 C 0.53011 -0.24667 0.50034
 C33 C 0.53621 -0.21904 0.40161
 C34 C 0.53164 -0.24287 0.39726
 C35 C 0.52894 -0.25699 0.44589
 C36 C 0.52286 -0.28181 0.44153
 C37 C 0.51740 -0.29579 0.49129
 C38 C 0.51935 -0.28587 0.54559
 H39 H 0.52953 -0.21984 0.64894
 H40 H 0.52025 -0.26120 0.64186
 H41 H 0.53792 -0.20923 0.36264
 H42 H 0.52930 -0.25034 0.35500
 H43 H 0.54336 -0.15692 0.51583
 H44 H 0.51366 -0.31447 0.48794
 C45 C 1.18770 0.71788 0.54311
 C46 C 1.18049 0.70548 0.49094
 C47 C 1.19505 0.71372 0.44255
 C48 C 1.21785 0.73508 0.44510
 C49 C 1.22538 0.74859 0.49629
 C50 C 1.21002 0.74042 0.54491
 C51 C 1.21665 0.75592 0.59232
 C52 C 1.23908 0.77711 0.59499
 C53 C 1.25593 0.78385 0.55030
 C54 C 1.24834 0.77033 0.49887
 C55 C 1.23348 0.74295 0.39805
 C56 C 1.25600 0.76396 0.40071
 C57 C 1.26361 0.77839 0.45006
 C58 C 1.28666 0.79981 0.45318
 C59 C 1.29415 0.81206 0.50519
 C60 C 1.27945 0.80469 0.55396
 H61 H 1.20433 0.75210 0.62754
 H62 H 1.24282 0.78841 0.63223
 H63 H 1.22856 0.73269 0.35882
 H64 H 1.26756 0.76843 0.36378
 H65 H 1.16384 0.68811 0.48812
 H66 H 1.31212 0.82792 0.50763
 C67 C 0.80754 0.51979 0.44445
 C68 C 0.81585 0.51485 0.49472
 C69 C 0.80712 0.51672 0.54817
 C70 C 0.78846 0.52298 0.55088
 C71 C 0.77873 0.52654 0.49968
 C72 C 0.78867 0.52541 0.44645
 C73 C 0.77916 0.52941 0.39648
 C74 C 0.75996 0.53398 0.39835
 C75 C 0.74886 0.53384 0.45007
 C76 C 0.75864 0.53069 0.50150
 C77 C 0.77831 0.52450 0.60272
 C78 C 0.75954 0.52980 0.60452
 C79 C 0.74839 0.53158 0.55459
 C80 C 0.72809 0.53543 0.55594
 C81 C 0.71888 0.53842 0.50414
 C82 C 0.72841 0.53709 0.45163
 H83 H 0.78626 0.52877 0.35516
 H84 H 0.75391 0.53759 0.35852
 H85 H 0.78449 0.52141 0.64287
 H86 H 0.75397 0.53245 0.64599
 H87 H 0.83052 0.51077 0.49211
 H88 H 0.70259 0.53990 0.50423
 C89 C 0.45608 0.27233 0.45074
 C90 C 0.45521 0.28253 0.50270
 C91 C 0.45214 0.27014 0.55391
 C92 C 0.44941 0.24652 0.55344
 C93 C 0.45131 0.23633 0.50134
 C94 C 0.45463 0.24927 0.44973
 C95 C 0.45715 0.23919 0.39878
 C96 C 0.45644 0.21684 0.39838
 C97 C 0.45316 0.20373 0.44888
 C98 C 0.45055 0.21345 0.50098
 C99 C 0.44509 0.23296 0.60356
 C100 C 0.44340 0.21014 0.60287
 C101 C 0.44756 0.20059 0.55275
 C102 C 0.44764 0.17803 0.55212
 C103 C 0.44971 0.16872 0.49942
 C104 C 0.45284 0.18130 0.44866
 H105 H 0.46010 0.24865 0.35874
 H106 H 0.45859 0.20997 0.35798
 H107 H 0.44270 0.23975 0.64380
 H108 H 0.43863 0.20005 0.64229
 H109 H 0.45714 0.30058 0.50337
 H110 H 0.45082 0.15214 0.49775
 C111 C 0.71354 0.19912 0.44468
 C112 C 0.70059 0.18944 0.49500
 C113 C 0.71108 0.19798 0.54818
 C114 C 0.73545 0.21702 0.55157
 C115 C 0.74880 0.22737 0.50088
 C116 C 0.73779 0.21842 0.44721
 C117 C 0.75109 0.22940 0.39762
 C118 C 0.77494 0.24836 0.40049
 C119 C 0.78637 0.25718 0.45307
 C120 C 0.77312 0.24689 0.50383
 C121 C 0.74671 0.22619 0.60408
 C122 C 0.77059 0.24509 0.60697
 C123 C 0.78398 0.25629 0.55746
 C124 C 0.80832 0.27586 0.56000
 C125 C 0.82134 0.28486 0.50916
 C126 C 0.81057 0.27639 0.45622
 H127 H 0.74312 0.22358 0.35600
 H128 H 0.78432 0.25608 0.36094
 H129 H 0.73720 0.21884 0.64366
 H130 H 0.77851 0.25059 0.64870
 H131 H 0.68204 0.17453 0.49276
 H132 H 0.83968 0.30023 0.51029
 N133 N 0.97832 0.52170 0.06414
 N134 N 0.95951 0.52473 0.07419
 N135 N 1.03080 0.53389 0.09297
 N136 N 1.04969 0.54673 0.12578
 N137 N 1.02919 0.54772 0.05365
 N138 N 1.04692 0.57052 0.05906
 N139 N 0.98000 0.50785 0.10334
 N140 N 0.96236 0.50091 0.14075
 C141 C 0.94976 0.51161 0.12224
 C142 C 1.05967 0.56952 0.10411
 N143 N 1.03058 0.47313 0.05858
 N144 N 1.04897 0.46913 0.06535
 N145 N 0.98090 0.46298 0.10639
 N146 N 0.96401 0.45232 0.14552
 N147 N 0.97973 0.44700 0.06913
 N148 N 0.96202 0.42489 0.08226
 N149 N 1.03166 0.48907 0.09584
 N150 N 1.05083 0.49653 0.12852
 Mn151 Mn 1.00586 0.49846 0.10015
 C152 C 1.06153 0.48405 0.10901
 C153 C 0.95235 0.42859 0.13008
 N154 N 1.02465 0.54429 -0.06855
 N155 N 1.04048 0.56671 -0.08484
 N156 N 0.97240 0.50235 -0.09522
 N157 N 0.95410 0.49639 -0.13010
 N158 N 0.97384 0.51846 -0.05792
 N159 N 0.95657 0.52395 -0.06669
 N160 N 1.02302 0.52840 -0.10672
 N161 N 1.03749 0.53955 -0.15005
 Mn162 Mn 1.00153 0.53334 -0.00214
 C163 C 1.04849 0.56339 -0.13562
 C164 C 0.94423 0.50982 -0.11156
 N165 N 0.97538 0.44357 -0.05301
 N166 N 0.95875 0.42046 -0.06000
 N167 N 1.02420 0.48343 -0.10310
 N168 N 1.04186 0.49025 -0.14054
 N169 N 1.02605 0.46984 -0.06342
 N170 N 1.04494 0.46692 -0.07306
 N171 N 0.97329 0.45723 -0.09209
 N172 N 0.95500 0.44385 -0.12622
 Mn173 Mn 1.00295 0.45810 0.00281
 Mn174 Mn 0.99818 0.49279 -0.09983
 Cl175 Cl 1.00212 0.49568 0.00017
 C176 C 0.94598 0.42099 -0.10543
 C177 C 1.05460 0.47975 -0.12144
 N178 N 0.47717 0.45075 0.06368
 N179 N 0.47211 0.42811 0.07390
 N180 N 0.46792 0.49251 0.10078
 N181 N 0.45680 0.49974 0.13638
 N182 N 0.45275 0.47765 0.06269
 N183 N 0.43069 0.47414 0.07187
 N184 N 0.49236 0.46567 0.10176
 N185 N 0.49822 0.45374 0.13841
 C186 C 0.48556 0.43037 0.12056
 C187 C 0.43363 0.48824 0.11793
 N188 N 0.52873 0.55168 0.06249
 N189 N 0.53251 0.57409 0.06983
 N190 N 0.53803 0.51042 0.10269
 N191 N 0.54988 0.50751 0.14505
 N192 N 0.55319 0.52468 0.06352
 N193 N 0.57579 0.53156 0.07807
 N194 N 0.51341 0.53689 0.10066
 N195 N 0.50619 0.54860 0.13449
 Mn196 Mn 0.50291 0.50132 0.10188
 C197 C 0.51822 0.57176 0.11501
 C198 C 0.57334 0.52038 0.12872
 N199 N 0.45296 0.47752 -0.06014
 N200 N 0.43099 0.47416 -0.06984
 N201 N 0.49262 0.46519 -0.09761
 N202 N 0.49766 0.45283 -0.13500
 N203 N 0.47724 0.45049 -0.05936
 N204 N 0.47120 0.42763 -0.07017
 N205 N 0.46834 0.49222 -0.09835
 N206 N 0.45744 0.49942 -0.13456
 Mn207 Mn 0.46471 0.46379 0.00174
 C208 C 0.43420 0.48813 -0.11642
 C209 C 0.48431 0.42945 -0.11727
 N210 N 0.55342 0.52437 -0.05937
 N211 N 0.57600 0.53067 -0.07292
 N212 N 0.51399 0.53668 -0.09856
 N213 N 0.50824 0.54878 -0.13502
 N214 N 0.52906 0.55143 -0.06015
 N215 N 0.53407 0.57408 -0.06969
 N216 N 0.53836 0.50993 -0.09832
 N217 N 0.55024 0.50625 -0.13942
 Mn218 Mn 0.54140 0.53829 0.00161
 Mn219 Mn 0.50331 0.50097 -0.09864
 Cl220 Cl 0.50314 0.50107 0.00163
 C221 C 0.57361 0.51890 -0.12268
 C222 C 0.52081 0.57208 -0.11650
 N223 N 0.44686 -0.02931 0.05992
 N224 N 0.42509 -0.04842 0.06790
 N225 N 0.48381 0.02361 0.09673
 N226 N 0.48740 0.04123 0.13213
 N227 N 0.46901 0.02184 0.05590
 N228 N 0.46192 0.03811 0.06279
 N229 N 0.46155 -0.02756 0.10100
 N230 N 0.45028 -0.04543 0.13786
 C231 C 0.42756 -0.05836 0.11670
 C232 C 0.47375 0.05023 0.11035
 N233 N 0.54665 0.02797 0.06776
 N234 N 0.56820 0.04707 0.07765
 N235 N 0.50835 -0.02382 0.10824
 N236 N 0.50283 -0.04096 0.14660
 N237 N 0.52445 -0.02314 0.07224
 N238 N 0.53051 -0.03975 0.08555
 N239 N 0.53057 0.02732 0.10380
 N240 N 0.54062 0.04602 0.13878
 Mn241 Mn 0.49607 -0.00010 0.10299
 C242 C 0.56407 0.05824 0.12194
 C243 C 0.51670 -0.05082 0.13194
 N244 N 0.47131 0.02036 -0.06637
 N245 N 0.46380 0.03561 -0.08187
 N246 N 0.46496 -0.03011 -0.09874
 N247 N 0.45429 -0.04688 -0.13819
 N248 N 0.44895 -0.03088 -0.06225
 N249 N 0.42693 -0.04835 -0.07588
 N250 N 0.48705 0.02077 -0.10321
 N251 N 0.49044 0.03604 -0.14496
 Mn252 Mn 0.45877 -0.00451 -0.00322
 C253 C 0.47610 0.04541 -0.13077
 C254 C 0.43063 -0.05836 -0.12307
 N255 N 0.52665 -0.02473 -0.05018
 N256 N 0.53391 -0.04085 -0.05708
 N257 N 0.53408 0.02464 -0.09550
 N258 N 0.54570 0.04191 -0.13362
 N259 N 0.54878 0.02627 -0.05450
 N260 N 0.57087 0.04460 -0.06391
 N261 N 0.51179 -0.02660 -0.09102
 N262 N 0.50830 -0.04422 -0.12637
 Mn263 Mn 0.53691 0.00161 0.00889
 Mn264 Mn 0.49951 -0.00283 -0.09760
 Cl265 Cl 0.49780 -0.00146 0.00272
 C266 C 0.52210 -0.05305 -0.10455
 C267 C 0.56860 0.05431 -0.11327
 C268 C 1.19346 0.52143 0.39006
 C269 C 1.17975 0.52235 0.34509
 C270 C 1.16872 0.50301 0.30692
 C271 C 1.17239 0.48295 0.31263
 C272 C 1.18637 0.48205 0.35754
 C273 C 1.19683 0.50118 0.39743
 N274 N 1.15218 0.50347 0.26657
 N275 N 1.14012 0.48643 0.23133
 C276 C 1.12234 0.48735 0.19562
 C277 C 1.10905 0.46839 0.15726
 C278 C 1.08976 0.46767 0.12682
 C279 C 1.08343 0.48582 0.13509
 C280 C 1.09737 0.50526 0.17188
 C281 C 1.11667 0.50610 0.20166
 H282 H 1.20130 0.53655 0.41962
 H283 H 1.17694 0.53785 0.34118
 H284 H 1.16373 0.46763 0.28387
 H285 H 1.18775 0.46577 0.36298
 H286 H 1.11317 0.45380 0.15225
 H287 H 1.07925 0.45248 0.09866
 H288 H 1.09302 0.51962 0.17868
 H289 H 1.12662 0.52101 0.23087
 C290 C 0.54243 0.71706 0.35188
 C291 C 0.54333 0.70382 0.30508
 C292 C 0.52447 0.68005 0.29513
 C293 C 0.50424 0.66998 0.33147
 C294 C 0.50341 0.68300 0.37827
 C295 C 0.52257 0.70665 0.38972
 N296 N 0.52695 0.66560 0.25143
 N297 N 0.51022 0.64371 0.24348
 C298 C 0.51182 0.62723 0.20448
 C299 C 0.49284 0.60314 0.20426
 C300 C 0.49473 0.58541 0.17330
 C301 C 0.51562 0.59152 0.14121
 C302 C 0.53421 0.61599 0.13867
 C303 C 0.53243 0.63380 0.17064
 H304 H 0.55793 0.73483 0.36033
 H305 H 0.55916 0.71173 0.27785
 H306 H 0.48935 0.65166 0.32492
 H307 H 0.48773 0.67443 0.40601
 H308 H 0.47690 0.59789 0.23021
 H309 H 0.48005 0.56673 0.17562
 H310 H 0.55050 0.62109 0.11427
 H311 H 0.54735 0.65238 0.17033
 C312 C 0.32750 -0.18238 0.41341
 C313 C 0.34426 -0.16897 0.37122
 C314 C 0.33686 -0.16251 0.32160
 C315 C 0.31209 -0.17079 0.31302
 C316 C 0.29512 -0.18458 0.35509
 C317 C 0.30270 -0.19010 0.40651
 N318 N 0.35522 -0.14581 0.28365
 N319 N 0.35083 -0.13706 0.23950
 C320 C 0.37026 -0.11894 0.20579
 C321 C 0.36498 -0.10930 0.15785
 C322 C 0.38364 -0.08999 0.12754
 C323 C 0.40785 -0.07996 0.14520
 C324 C 0.41313 -0.09013 0.19225
 C325 C 0.39457 -0.10944 0.22218
 H326 H 0.33401 -0.18647 0.45207
 H327 H 0.36330 -0.16268 0.37826
 H328 H 0.30601 -0.16583 0.27500
 H329 H 0.27635 -0.18951 0.34894
 H330 H 0.34635 -0.11637 0.14481
 H331 H 0.37908 -0.08250 0.09134
 H332 H 0.43163 -0.08290 0.20661
 H333 H 0.39922 -0.11651 0.25903
 C334 C 0.83333 0.54058 0.35926
 C335 C 0.84761 0.54075 0.31379
 C336 C 0.84873 0.51975 0.30027
 C337 C 0.83433 0.49813 0.33084
 C338 C 0.81992 0.49789 0.37585
 C339 C 0.81964 0.51921 0.39109
 N340 N 0.86608 0.52130 0.25915
 N341 N 0.87089 0.50412 0.25365
 C342 C 0.88914 0.50539 0.21593
 C343 C 0.89604 0.48766 0.22095
 C344 C 0.91549 0.48951 0.18951
 C345 C 0.92810 0.50899 0.15162
 C346 C 0.92051 0.52624 0.14452
 C347 C 0.90124 0.52460 0.17694
 H348 H 0.83366 0.55731 0.37102
 H349 H 0.85871 0.55755 0.29082
 H350 H 0.83481 0.48163 0.32117
 H351 H 0.80961 0.48129 0.40019
 H352 H 0.88684 0.47280 0.25086
 H353 H 0.92086 0.47586 0.19542
 H354 H 0.92998 0.54141 0.11552
 H355 H 0.89613 0.53850 0.17235
 C356 C 0.44094 0.27928 0.35833
 C357 C 0.44330 0.29444 0.31252
 C358 C 0.46407 0.31741 0.30697
 C359 C 0.48287 0.32473 0.34688
 C360 C 0.48051 0.30963 0.39252
 C361 C 0.45944 0.28694 0.39893
 N362 N 0.46504 0.33368 0.26330
 N363 N 0.48292 0.35527 0.25975
 C364 C 0.48421 0.37286 0.21961
 C365 C 0.50350 0.39671 0.22404
 C366 C 0.50421 0.41519 0.19040
 C367 C 0.48571 0.41006 0.15108
 C368 C 0.46689 0.38588 0.14453
 C369 C 0.46603 0.36736 0.17895
 H370 H 0.42444 0.26191 0.36305
 H371 H 0.42864 0.28862 0.28231
 H372 H 0.49910 0.34239 0.34372
 H373 H 0.49489 0.31585 0.42365
 H374 H 0.51759 0.40114 0.25521
 H375 H 0.51902 0.43363 0.19604
 H376 H 0.45241 0.38150 0.11454
 H377 H 0.45094 0.34898 0.17483
 C378 C 0.70894 0.17531 0.35596
 C379 C 0.69480 0.16146 0.31020
 C380 C 0.67235 0.15972 0.29929
 C381 C 0.66477 0.17313 0.33279
 C382 C 0.67895 0.18709 0.37817
 C383 C 0.70089 0.18789 0.39083
 N384 N 0.65662 0.14262 0.25780
 N385 N 0.63467 0.13757 0.25315
 C386 C 0.61787 0.11939 0.21516
 C387 C 0.59338 0.11255 0.21971
 C388 C 0.57596 0.09302 0.18822
 C389 C 0.58285 0.08019 0.15095
 C390 C 0.60756 0.08775 0.14433
 C391 C 0.62500 0.10713 0.17660
 H392 H 0.72563 0.17539 0.36565
 H393 H 0.70079 0.15111 0.28494
 H394 H 0.64752 0.17216 0.32520
 H395 H 0.67237 0.19654 0.40485
 H396 H 0.58769 0.12185 0.24931
 H397 H 0.55704 0.08768 0.19383
 H398 H 0.61331 0.07814 0.11584
 H399 H 0.64387 0.11216 0.17237
 C400 C 0.46269 0.17744 -0.35144
 C401 C 0.46514 0.16432 -0.30646
 C402 C 0.45349 0.13886 -0.30836
 C403 C 0.43804 0.12652 -0.35383
 C404 C 0.43506 0.13949 -0.39795
 C405 C 0.44772 0.16523 -0.39835
 N406 N 0.45881 0.12580 -0.26643
 N407 N 0.45896 0.10641 -0.28024
 C408 C 0.46383 0.09210 -0.24112
 C409 C 0.46013 0.09252 -0.18239
 C410 C 0.46403 0.07725 -0.14601
 C411 C 0.47228 0.06196 -0.16790
 C412 C 0.47637 0.06204 -0.22648
 C413 C 0.47180 0.07671 -0.26276
 H414 H 0.47383 0.19710 -0.35104
 H415 H 0.47734 0.17405 -0.27187
 H416 H 0.42859 0.10680 -0.35567
 H417 H 0.42300 0.12927 -0.43238
 H418 H 0.45375 0.10419 -0.16499
 H419 H 0.46075 0.07745 -0.10094
 H420 H 0.48254 0.05030 -0.24446
 H421 H 0.47459 0.07619 -0.30799
 C422 C 0.70690 0.55165 -0.38749
 C423 C 0.69158 0.54949 -0.34274
 C424 C 0.68452 0.53077 -0.30261
 C425 C 0.69367 0.51476 -0.30680
 C426 C 0.70860 0.51651 -0.35251
 C427 C 0.71545 0.53500 -0.39383
 N428 N 0.66658 0.52670 -0.26057
 N429 N 0.65034 0.53229 -0.27141
 C430 C 0.63164 0.52879 -0.23239
 C431 C 0.61013 0.52623 -0.25448
 C432 C 0.59124 0.52264 -0.21847
 C433 C 0.59388 0.52241 -0.15939
 C434 C 0.61569 0.52555 -0.13683
 C435 C 0.63441 0.52834 -0.17327
 H436 H 0.71190 0.56633 -0.41771
 H437 H 0.68489 0.56222 -0.33998
 H438 H 0.68804 0.49999 -0.27658
 H439 H 0.71348 0.50244 -0.35720
 H440 H 0.60789 0.52668 -0.29995
 H441 H 0.57467 0.52046 -0.23685
 H442 H 0.61805 0.52544 -0.09133
 H443 H 0.65107 0.53054 -0.15549
 C444 C 0.80816 0.29754 -0.35374
 C445 C 0.82077 0.31304 -0.30860
 C446 C 0.84474 0.31919 -0.29735
 C447 C 0.85597 0.30942 -0.33137
 C448 C 0.84367 0.29450 -0.37743
 C449 C 0.81957 0.28832 -0.38936
 N450 N 0.85816 0.33721 -0.25520
 N451 N 0.87734 0.33919 -0.23324
 C452 C 0.89234 0.35885 -0.19604
 C453 C 0.90895 0.35673 -0.16099
 C454 C 0.92568 0.37664 -0.12900
 C455 C 0.92644 0.39918 -0.13312
 C456 C 0.90945 0.40116 -0.16737
 C457 C 0.89232 0.38107 -0.19812
 H458 H 0.79002 0.29406 -0.36294
 H459 H 0.81207 0.32082 -0.28326
 H460 H 0.87463 0.31422 -0.32395
 H461 H 0.85305 0.28784 -0.40405
 H462 H 0.90927 0.33976 -0.15943
 H463 H 0.93871 0.37474 -0.10315
 H464 H 0.90971 0.41837 -0.17114
 H465 H 0.87983 0.38320 -0.22546
 C466 C 0.51121 -0.18647 -0.36334
 C467 C 0.50727 -0.17409 -0.31918
 C468 C 0.52671 -0.15336 -0.29518
 C469 C 0.55040 -0.14557 -0.31454
 C470 C 0.55432 -0.15778 -0.35930
 C471 C 0.53469 -0.17810 -0.38441
 N472 N 0.52164 -0.13917 -0.25595
 N473 N 0.53807 -0.12184 -0.22708
 C474 C 0.53277 -0.10641 -0.19250
 C475 C 0.54986 -0.09094 -0.15278
 C476 C 0.54598 -0.07419 -0.12217
 C477 C 0.52519 -0.07230 -0.13207
 C478 C 0.50787 -0.08812 -0.17117
 C479 C 0.51151 -0.10518 -0.20078
 H480 H 0.49583 -0.20188 -0.38296
 H481 H 0.48894 -0.18012 -0.30501
 H482 H 0.56568 -0.12942 -0.29706
 H483 H 0.57249 -0.15089 -0.37575
 H484 H 0.56638 -0.09160 -0.14625
 H485 H 0.55965 -0.06210 -0.09242
 H486 H 0.49166 -0.08706 -0.17944
 H487 H 0.49812 -0.11678 -0.23160
 C488 C 0.28824 0.46644 -0.34936
 C489 C 0.30194 0.46596 -0.30316
 C490 C 0.32722 0.48082 -0.30298
 C491 C 0.33861 0.49632 -0.34944
 C492 C 0.32512 0.49658 -0.39557
 C493 C 0.29972 0.48172 -0.39641
 N494 N 0.34134 0.47923 -0.25734
 N495 N 0.36401 0.49418 -0.25524
 C496 C 0.38025 0.49337 -0.21448
 C497 C 0.40468 0.51110 -0.21867
 C498 C 0.42195 0.50971 -0.18511
 C499 C 0.41507 0.49053 -0.14623
 C500 C 0.39034 0.47327 -0.13984
 C501 C 0.37295 0.47459 -0.17412
 H502 H 0.26884 0.45413 -0.34936
 H503 H 0.29290 0.45370 -0.26801
 H504 H 0.35811 0.50794 -0.35083
 H505 H 0.33462 0.50869 -0.43071
 H506 H 0.41048 0.52562 -0.24965
 H507 H 0.44082 0.52340 -0.19064
 H508 H 0.38461 0.45829 -0.11019
 H509 H 0.35409 0.46065 -0.17039
 C510 C 1.14772 0.69242 -0.41291
 C511 C 1.13353 0.67745 -0.36866
 C512 C 1.14432 0.67601 -0.31805
 C513 C 1.16938 0.69064 -0.31135
 C514 C 1.18376 0.70529 -0.35618
 C515 C 1.17321 0.70616 -0.40827
 N516 N 1.13028 0.65852 -0.27517
 N517 N 1.11097 0.63908 -0.28862
 C518 C 1.09598 0.62064 -0.24866
 C519 C 1.07968 0.59745 -0.26932
 C520 C 1.06464 0.57881 -0.23224
 C521 C 1.06517 0.58323 -0.17373
 C522 C 1.08133 0.60662 -0.15283
 C523 C 1.09690 0.62520 -0.19005
 H524 H 1.13864 0.69299 -0.45127
 H525 H 1.11410 0.66663 -0.37439
 H526 H 1.17795 0.68954 -0.27265
 H527 H 1.20325 0.71454 -0.35114
 H528 H 1.07879 0.59378 -0.31442
 H529 H 1.05226 0.56101 -0.24955
 H530 H 1.08204 0.61044 -0.10785
 H531 H 1.10930 0.64310 -0.17332
 C532 C 0.82055 0.49144 -0.40326
 C533 C 0.83361 0.48803 -0.36030
 C534 C 0.84444 0.50530 -0.31734
 C535 C 0.84133 0.52582 -0.31649
 C536 C 0.82803 0.52922 -0.35947
 C537 C 0.81762 0.51213 -0.40383
 N538 N 0.85997 0.50227 -0.27829
 N539 N 0.87146 0.51718 -0.23850
 C540 C 0.88802 0.51386 -0.20338
 C541 C 0.90028 0.53039 -0.15950
 C542 C 0.91807 0.52868 -0.12802
 C543 C 0.92396 0.51048 -0.14050
 C544 C 0.91114 0.49351 -0.18338
 C545 C 0.89332 0.49512 -0.21441
 H546 H 0.81284 0.47790 -0.43660
 H547 H 0.83599 0.47221 -0.36152
 H548 H 0.84986 0.53960 -0.28397
 H549 H 0.82714 0.54590 -0.35978
 H550 H 0.89644 0.54494 -0.15057
 H551 H 0.92769 0.54200 -0.09518
 H552 H 0.91521 0.47922 -0.19373
 H553 H 0.88415 0.48207 -0.24804
 C554 C 0.43372 0.27838 -0.36033
 C555 C 0.43562 0.29359 -0.31496
 C556 C 0.45787 0.31438 -0.30260
 C557 C 0.47849 0.31914 -0.33454
 C558 C 0.47662 0.30394 -0.37946
 C559 C 0.45419 0.28370 -0.39327
 N560 N 0.45890 0.33133 -0.26066
 N561 N 0.47785 0.35211 -0.25518
 C562 C 0.47970 0.37037 -0.21635
 C563 C 0.49984 0.39375 -0.22082
 C564 C 0.50151 0.41278 -0.18759
 C565 C 0.48318 0.40865 -0.14844
 C566 C 0.46339 0.38494 -0.14211
 C567 C 0.46153 0.36590 -0.17627
 H568 H 0.41621 0.26298 -0.37093
 H569 H 0.41958 0.28974 -0.29089
 H570 H 0.49592 0.33500 -0.32588
 H571 H 0.49254 0.30838 -0.40474
 H572 H 0.51395 0.39739 -0.25153
 H573 H 0.51702 0.43084 -0.19310
 H574 H 0.44900 0.38131 -0.11227
 H575 H 0.44581 0.34791 -0.17205
 C576 C 0.67393 0.18670 -0.39466
 C577 C 0.65738 0.17277 -0.35242
 C578 C 0.66222 0.15816 -0.31621
 C579 C 0.68429 0.15822 -0.32152
 C580 C 0.70082 0.17205 -0.36417
 C581 C 0.69562 0.18620 -0.40141
 N582 N 0.64355 0.14200 -0.27807
 N583 N 0.64678 0.12925 -0.24098
 C584 C 0.62716 0.11189 -0.20652
 C585 C 0.63202 0.10067 -0.16113
 C586 C 0.61301 0.08242 -0.12940
 C587 C 0.58881 0.07485 -0.14343
 C588 C 0.58399 0.08640 -0.18839
 C589 C 0.60297 0.10485 -0.21946
 H590 H 0.66948 0.19727 -0.42342
 H591 H 0.64037 0.17274 -0.34900
 H592 H 0.68830 0.14686 -0.29433
 H593 H 0.71724 0.17106 -0.36946
 H594 H 0.65056 0.10584 -0.15086
 H595 H 0.61722 0.07376 -0.09502
 H596 H 0.56551 0.08097 -0.19998
 H597 H 0.59870 0.11312 -0.25453
 C598 C 1.19197 0.52254 -0.39549
 C599 C 1.17696 0.52304 -0.35300
 C600 C 1.16632 0.50419 -0.31335
 C601 C 1.17200 0.48535 -0.31444
 C602 C 1.18726 0.48488 -0.35689
 C603 C 1.19694 0.50317 -0.39904
 N604 N 1.14808 0.50359 -0.27665
 N605 N 1.13660 0.48694 -0.24002
 C606 C 1.11711 0.48634 -0.20797
 C607 C 1.10626 0.46928 -0.16417
 C608 C 1.08616 0.46737 -0.13497
 C609 C 1.07646 0.48231 -0.14991
 C610 C 1.08755 0.49960 -0.19336
 C611 C 1.10773 0.50169 -0.22193
 H612 H 1.19932 0.53712 -0.42657
 H613 H 1.17272 0.53765 -0.35250
 H614 H 1.16378 0.47046 -0.28433
 H615 H 1.18996 0.46928 -0.35911
 H616 H 1.11320 0.45726 -0.15315
 H617 H 1.07793 0.45389 -0.10161
 H618 H 1.08053 0.51143 -0.20556
 H619 H 1.11565 0.51495 -0.25581
 C620 C 0.49602 0.67457 -0.40746
 C621 C 0.49363 0.65813 -0.36506
 C622 C 0.51083 0.66513 -0.32193
 C623 C 0.53021 0.68921 -0.32035
 C624 C 0.53259 0.70585 -0.36273
 C625 C 0.51561 0.69868 -0.40731
 N626 N 0.50893 0.64680 -0.28328
 N627 N 0.52394 0.65082 -0.24341
 C628 C 0.52182 0.63122 -0.20859
 C629 C 0.53837 0.63609 -0.16450
 C630 C 0.53774 0.61694 -0.13305
 C631 C 0.52062 0.59264 -0.14583
 C632 C 0.50366 0.58787 -0.18904
 C633 C 0.50419 0.60693 -0.22000
 H634 H 0.48250 0.66836 -0.44074
 H635 H 0.47865 0.63959 -0.36676
 H636 H 0.54390 0.69492 -0.28766
 H637 H 0.54845 0.72387 -0.36234
 H638 H 0.55208 0.65470 -0.15529
 H639 H 0.55101 0.62110 -0.09991
 H640 H 0.49015 0.56933 -0.19957
 H641 H 0.49115 0.60258 -0.25378
 C642 C 0.28838 -0.19367 -0.34343
 C643 C 0.30217 -0.18026 -0.29661
 C644 C 0.31780 -0.15509 -0.30130
 C645 C 0.31804 -0.14313 -0.35160
 C646 C 0.30406 -0.15630 -0.39777
 C647 C 0.28962 -0.18192 -0.39539
 N648 N 0.33489 -0.14205 -0.25725
 N649 N 0.35570 -0.12458 -0.27082
 C650 C 0.37409 -0.10976 -0.23101
 C651 C 0.39784 -0.09599 -0.25100
 C652 C 0.41629 -0.07999 -0.21510
 C653 C 0.41116 -0.07701 -0.15865
 C654 C 0.38731 -0.09103 -0.13817
 C655 C 0.36886 -0.10754 -0.17408
 H656 H 0.27824 -0.21335 -0.34006
 H657 H 0.30190 -0.18971 -0.25804
 H658 H 0.32963 -0.12359 -0.35567
 H659 H 0.30500 -0.14640 -0.43613
 H660 H 0.40201 -0.09752 -0.29490
 H661 H 0.43445 -0.06938 -0.23217
 H662 H 0.38293 -0.08903 -0.09477
 H663 H 0.35051 -0.11793 -0.15805
 C664 C 0.55998 -0.15828 0.37332
 C665 C 0.55899 -0.14396 0.32905
 C666 C 0.53814 -0.14204 0.32096
 C667 C 0.51800 -0.15519 0.35675
 C668 C 0.51898 -0.16943 0.40068
 C669 C 0.54001 -0.17088 0.40963
 N670 N 0.53808 -0.12579 0.27853
 N671 N 0.52012 -0.12224 0.27405
 C672 C 0.51912 -0.10557 0.23458
 C673 C 0.49960 -0.10131 0.23844
 C674 C 0.49866 -0.08384 0.20412
 C675 C 0.51718 -0.07047 0.16468
 C676 C 0.53640 -0.07534 0.15920
 C677 C 0.53748 -0.09270 0.19429
 H678 H 0.57637 -0.15917 0.37997
 H679 H 0.57465 -0.13389 0.30194
 H680 H 0.50165 -0.15411 0.35152
 H681 H 0.50345 -0.17904 0.42847
 H682 H 0.48535 -0.11116 0.26930
 H683 H 0.48355 -0.08059 0.20897
 H684 H 0.55090 -0.06523 0.12911
 H685 H 0.55273 -0.09577 0.19059
 C686 C 0.28953 0.45889 0.36308
 C687 C 0.30320 0.45842 0.31684
 C688 C 0.32607 0.47852 0.30527
 C689 C 0.33476 0.49947 0.33942
 C690 C 0.32118 0.49992 0.38544
 C691 C 0.29865 0.47956 0.39799
 N692 N 0.34095 0.47680 0.26173
 N693 N 0.36249 0.49414 0.25369
 C694 C 0.37899 0.49315 0.21389
 C695 C 0.40302 0.51208 0.21469
 C696 C 0.42055 0.51071 0.18189
 C697 C 0.41425 0.49047 0.14687
 C698 C 0.38986 0.47198 0.14362
 C699 C 0.37229 0.47319 0.17742
 H700 H 0.27221 0.44298 0.37257
 H701 H 0.29633 0.44214 0.29110
 H702 H 0.35235 0.51527 0.33156
 H703 H 0.32846 0.51596 0.41216
 H704 H 0.40835 0.52753 0.24261
 H705 H 0.43918 0.52528 0.18487
 H706 H 0.38462 0.45618 0.11698
 H707 H 0.35375 0.45836 0.17617
 C708 C 1.18511 0.67588 0.38940
 C709 C 1.17316 0.65962 0.34517
 C710 C 1.16176 0.66558 0.30236
 C711 C 1.16347 0.68864 0.30261
 C712 C 1.17556 0.70502 0.34684
 C713 C 1.18597 0.69847 0.39105
 N714 N 1.14666 0.64697 0.26297
 N715 N 1.13456 0.65013 0.22423
 C716 C 1.11796 0.63025 0.18929
 C717 C 1.10477 0.63430 0.14725
 C718 C 1.08638 0.61465 0.11739
 C719 C 1.08081 0.59067 0.12982
 C720 C 1.09471 0.58678 0.17034
 C721 C 1.11314 0.60634 0.19966
 H722 H 1.19288 0.67052 0.42353
 H723 H 1.17183 0.64185 0.34558
 H724 H 1.15469 0.69358 0.27007
 H725 H 1.17590 0.72232 0.34796
 H726 H 1.10824 0.65261 0.13892
 H727 H 1.07592 0.61813 0.08633
 H728 H 1.09095 0.56850 0.18045
 H729 H 1.12303 0.60265 0.23185
 C730 C 0.48182 0.17474 0.39103
 C731 C 0.48674 0.16285 0.34752
 C732 C 0.46845 0.14753 0.31001
 C733 C 0.44521 0.14492 0.31509
 C734 C 0.44026 0.15683 0.35885
 C735 C 0.45848 0.17148 0.39754
 N736 N 0.47352 0.13326 0.27101
 N737 N 0.45841 0.11919 0.23420
 C738 C 0.46369 0.10377 0.19947
 C739 C 0.44762 0.08996 0.15619
 C740 C 0.45131 0.07312 0.12531
 C741 C 0.47097 0.06964 0.13810
 C742 C 0.48740 0.08397 0.18043
 C743 C 0.48389 0.10095 0.21063
 H744 H 0.49599 0.18582 0.42093
 H745 H 0.50464 0.16486 0.34424
 H746 H 0.43075 0.13302 0.28677
 H747 H 0.42209 0.15398 0.36382
 H748 H 0.43195 0.09188 0.14725
 H749 H 0.43836 0.06225 0.09293
 H750 H 0.50277 0.08175 0.19094
 H751 H 0.49657 0.11131 0.24393
 C752 C 0.70640 0.51769 0.36084
 C753 C 0.69133 0.51621 0.31598
 C754 C 0.68362 0.53337 0.31094
 C755 C 0.69230 0.55291 0.34932
 C756 C 0.70800 0.55486 0.39303
 C757 C 0.71491 0.53705 0.39988
 N758 N 0.66567 0.52969 0.26949
 N759 N 0.65016 0.53636 0.27953
 C760 C 0.63154 0.53272 0.24020
 C761 C 0.61008 0.53067 0.26152
 C762 C 0.59109 0.52627 0.22504
 C763 C 0.59361 0.52474 0.16623
 C764 C 0.61541 0.52749 0.14442
 C765 C 0.63418 0.53105 0.18135
 H766 H 0.71081 0.50331 0.36608
 H767 H 0.68458 0.50094 0.28699
 H768 H 0.68661 0.56642 0.34595
 H769 H 0.71414 0.56986 0.42271
 H770 H 0.60790 0.53198 0.30676
 H771 H 0.57452 0.52443 0.24276
 H772 H 0.61769 0.52641 0.09914
 H773 H 0.65077 0.53279 0.16411
 C774 C 0.83527 0.28109 0.36874
 C775 C 0.85018 0.29564 0.32436
 C776 C 0.85448 0.31949 0.31685
 C777 C 0.84302 0.32834 0.35322
 C778 C 0.82818 0.31387 0.39727
 C779 C 0.82443 0.29030 0.40576
 N780 N 0.87150 0.33493 0.27461
 N781 N 0.87737 0.35730 0.27103
 C782 C 0.89496 0.37416 0.23192
 C783 C 0.90164 0.39873 0.23685
 C784 C 0.91999 0.41626 0.20289
 C785 C 0.93187 0.40946 0.16268
 C786 C 0.92461 0.38465 0.15616
 C787 C 0.90634 0.36705 0.19094
 H788 H 0.83264 0.26296 0.37508
 H789 H 0.85892 0.28860 0.29682
 H790 H 0.84595 0.34664 0.34845
 H791 H 0.81999 0.32123 0.42565
 H792 H 0.89296 0.40439 0.26824
 H793 H 0.92508 0.43521 0.20858
 H794 H 0.93352 0.37897 0.12546
 H795 H 0.90139 0.34809 0.18641
   
