data_POSCAR
  _audit_creation_date              2014-09-24
  _audit_creation_method            'ToBaCCo'
  _symmetry_space_group_name_H-M    'P1'
  _symmetry_Int_Tables_number       1
  _symmetry_cell_setting            triclinic
  loop_
  _symmetry_equiv_pos_as_xyz
 x,y,z
_cell_length_a 28.6716
_cell_length_b 35.6515
_cell_length_c 22.7524
_cell_angle_alpha 89.997300
_cell_angle_beta 90.048600
_cell_angle_gamma 89.865500
loop_
  _atom_site_label
  _atom_site_type_symbol
  _atom_site_fract_x
  _atom_site_fract_y
  _atom_site_fract_z
O1 O 0.24779 0.28615 0.17140
 O2 O 0.31040 0.21012 0.24724
 O3 O 0.24358 0.21289 0.17056
 O4 O 0.31364 0.28296 0.25087
 O5 O 0.25769 0.28760 0.31721
 O6 O 0.19423 0.21098 0.24497
 O7 O 0.26137 0.21449 0.32183
 O8 O 0.19197 0.28350 0.23816
 Cu9 Cu 0.28413 0.24806 0.20279
 Cu10 Cu 0.22108 0.24930 0.28778
 C11 C 0.20861 0.29704 0.19102
 C12 C 0.29707 0.19986 0.29789
 C13 C 0.20746 0.19933 0.19494
 C14 C 0.29701 0.29767 0.29721
 O15 O 0.74307 0.21562 0.32792
 O16 O 0.81340 0.28716 0.25212
 O17 O 0.74375 0.28854 0.32494
 O18 O 0.81195 0.21356 0.25361
 O19 O 0.76357 0.21466 0.17800
 O20 O 0.69362 0.28770 0.25114
 O21 O 0.76313 0.28737 0.17851
 O22 O 0.69432 0.21427 0.25271
 Cu23 Cu 0.78310 0.25119 0.29704
 Cu24 Cu 0.72359 0.25084 0.20771
 C25 C 0.70687 0.20264 0.30310
 C26 C 0.79991 0.29984 0.20273
 C27 C 0.70716 0.30094 0.30006
 C28 C 0.79948 0.20156 0.20345
 O29 O 0.68631 0.71326 0.75673
 O30 O 0.75380 0.78514 0.83566
 O31 O 0.68700 0.78670 0.75917
 O32 O 0.75450 0.71201 0.83299
 O33 O 0.80415 0.71128 0.75883
 O34 O 0.73980 0.78841 0.68856
 O35 O 0.80718 0.78376 0.76568
 O36 O 0.73650 0.71541 0.68320
 Cu37 Cu 0.71514 0.74909 0.80334
 Cu38 Cu 0.77699 0.74986 0.71673
 C39 C 0.69974 0.70227 0.70641
 C40 C 0.79221 0.79635 0.81437
 C41 C 0.70245 0.80064 0.71167
 C42 C 0.79074 0.69880 0.80825
 O43 O 0.30667 0.78402 0.73884
 O44 O 0.23388 0.71578 0.81838
 O45 O 0.30190 0.71122 0.74346
 O46 O 0.23821 0.78850 0.81446
 O47 O 0.18542 0.78717 0.74376
 O48 O 0.25445 0.71476 0.66707
 O49 O 0.18588 0.71346 0.74246
 O50 O 0.25332 0.78766 0.66890
 Cu51 Cu 0.27525 0.74991 0.78615
 Cu52 Cu 0.21451 0.75072 0.69828
 C53 C 0.29193 0.79792 0.69088
 C54 C 0.19809 0.70234 0.79325
 C55 C 0.28953 0.70032 0.69270
 C56 C 0.20068 0.80076 0.79168
 C57 C 0.97754 -0.00254 0.00627
 C58 C 1.02488 -0.00065 0.00051
 C59 C 1.05214 0.02959 0.02950
 C60 C 1.05216 -0.02876 -0.03344
 C61 C 0.94911 -0.03404 -0.01769
 C62 C 0.95156 0.02818 0.03566
 C63 C 1.08242 0.05202 -0.00372
 C64 C 1.10867 0.08015 0.02336
 C65 C 1.10499 0.08640 0.08420
 C66 C 1.07509 0.06353 0.11745
 C67 C 1.04940 0.03511 0.09047
 C68 C 1.04091 -0.03760 -0.09192
 C69 C 1.06589 -0.06537 -0.12201
 C70 C 1.10315 -0.08424 -0.09452
 C71 C 1.11523 -0.07433 -0.03667
 C72 C 1.09002 -0.04690 -0.00654
 C73 C 0.96266 -0.07174 -0.01044
 C74 C 0.93692 -0.10057 -0.03654
 C75 C 0.89582 -0.09234 -0.06744
 C76 C 0.88067 -0.05506 -0.07174
 C77 C 0.90731 -0.02615 -0.04768
 C78 C 0.93111 0.02219 0.09080
 C79 C 0.90728 0.05127 0.11909
 C80 C 0.90212 0.08631 0.09161
 C81 C 0.92176 0.09198 0.03578
 C82 C 0.94683 0.06324 0.00831
 H83 H 1.08546 0.04787 -0.05073
 H84 H 1.13146 0.09725 -0.00343
 H85 H 1.07199 0.06722 0.16452
 H86 H 1.02759 0.01724 0.11728
 H87 H 1.01242 -0.02336 -0.11393
 H88 H 1.05599 -0.07204 -0.16672
 H89 H 1.09950 -0.04034 0.03839
 H90 H 0.99348 -0.07891 0.01469
 H91 H 0.94871 -0.12931 -0.03200
 H92 H 0.84896 -0.04821 -0.09539
 H93 H 0.89559 0.00251 -0.05347
 H94 H 0.93434 -0.00482 0.11225
 H95 H 0.89212 0.04619 0.16194
 H96 H 0.91828 0.11880 0.01383
 H97 H 0.96222 0.06815 -0.03445
 H98 H 1.14375 -0.08818 -0.01417
 C99 C 0.47515 0.49996 0.49799
 C100 C 0.52264 0.50233 0.49633
 C101 C 0.54791 0.53281 0.52756
 C102 C 0.55196 0.47458 0.46451
 C103 C 0.44842 0.46858 0.47070
 C104 C 0.44722 0.52986 0.52641
 C105 C 0.57881 0.55595 0.49658
 C106 C 0.60340 0.58423 0.52567
 C107 C 0.59754 0.58992 0.58640
 C108 C 0.56682 0.56644 0.61740
 C109 C 0.54266 0.53793 0.58838
 C110 C 0.54409 0.46615 0.40503
 C111 C 0.57028 0.43822 0.37708
 C112 C 0.60539 0.41872 0.40782
 C113 C 0.61434 0.42837 0.46667
 C114 C 0.58792 0.45602 0.49464
 C115 C 0.46166 0.43084 0.47840
 C116 C 0.43720 0.40215 0.45003
 C117 C 0.39764 0.41053 0.41616
 C118 C 0.38289 0.44787 0.41091
 C119 C 0.40832 0.47664 0.43733
 C120 C 0.42475 0.52278 0.57992
 C121 C 0.39898 0.55104 0.60745
 C122 C 0.39396 0.58633 0.58072
 C123 C 0.41556 0.59306 0.52636
 C124 C 0.44254 0.56513 0.49973
 H125 H 0.58371 0.55218 0.44975
 H126 H 0.62683 0.60175 0.50048
 H127 H 0.56194 0.56970 0.66431
 H128 H 0.52019 0.51960 0.61350
 H129 H 0.51712 0.48071 0.38064
 H130 H 0.56284 0.43179 0.33153
 H131 H 0.59479 0.46230 0.54042
 H132 H 0.49110 0.42353 0.50593
 H133 H 0.44861 0.37336 0.45539
 H134 H 0.35235 0.45486 0.38503
 H135 H 0.39689 0.50533 0.43104
 H136 H 0.42792 0.49558 0.60077
 H137 H 0.38237 0.54518 0.64918
 H138 H 0.41227 0.62012 0.50510
 H139 H 0.45950 0.57084 0.45817
 H140 H 0.64120 0.41409 0.49161
 C141 C 0.02472 0.49761 -0.00634
 C142 C -0.02269 0.49897 -0.00119
 C143 C -0.04965 0.47026 0.03166
 C144 C -0.05048 0.52915 -0.02980
 C145 C 0.05022 0.52851 -0.03567
 C146 C 0.05362 0.46640 0.01800
 C147 C -0.08645 0.45168 0.00344
 C148 C -0.11151 0.42385 0.03258
 C149 C -0.10038 0.41397 0.09076
 C150 C -0.06409 0.43318 0.11949
 C151 C -0.03922 0.46133 0.09036
 C152 C -0.04776 0.53515 -0.09066
 C153 C -0.07423 0.56335 -0.11725
 C154 C -0.10488 0.58552 -0.08372
 C155 C -0.10848 0.57881 -0.02300
 C156 C -0.08145 0.55091 0.00369
 C157 C 0.05410 0.56370 -0.00858
 C158 C 0.07832 0.59270 -0.03639
 C159 C 0.09790 0.58714 -0.09229
 C160 C 0.09369 0.55192 -0.11942
 C161 C 0.07073 0.52261 -0.09081
 C162 C 0.09466 0.47470 0.04925
 C163 C 0.12141 0.44604 0.07419
 C164 C 0.10710 0.40861 0.06947
 C165 C 0.06689 0.40000 0.03709
 C166 C 0.04109 0.42857 0.01018
 H167 H -0.09525 0.45829 -0.04170
 H168 H -0.13927 0.40975 0.00912
 H169 H -0.05492 0.42652 0.16447
 H170 H -0.01153 0.47586 0.11331
 H171 H -0.02542 0.51777 -0.11770
 H172 H -0.07115 0.56743 -0.16424
 H173 H -0.08450 0.54637 0.05060
 H174 H 0.03861 0.56854 0.03416
 H175 H 0.08109 0.61965 -0.01469
 H176 H 0.10886 0.54691 -0.16229
 H177 H 0.06813 0.49551 -0.11207
 H178 H 0.10559 0.50348 0.05544
 H179 H 0.15243 0.45320 0.09895
 H180 H 0.05576 0.37116 0.03217
 H181 H 0.01092 0.42112 -0.01592
 H182 H -0.13180 0.59538 0.00401
 C183 C 0.52505 1.00241 0.50578
 C184 C 0.47766 1.00004 0.50163
 C185 C 0.45008 0.96852 0.52708
 C186 C 0.45063 1.03001 0.47194
 C187 C 0.55127 1.03273 0.47543
 C188 C 0.55332 0.97477 0.53942
 C189 C 0.46371 0.93083 0.51991
 C190 C 0.43817 0.90199 0.54627
 C191 C 0.39723 0.91018 0.57745
 C192 C 0.38223 0.94748 0.58215
 C193 C 0.40865 0.97639 0.55781
 C194 C 0.42935 1.02288 0.41764
 C195 C 0.40434 1.05115 0.38902
 C196 C 0.39887 1.08651 0.41536
 C197 C 0.41925 1.09330 0.47049
 C198 C 0.44548 1.06535 0.49828
 C199 C 0.58146 1.05589 0.50754
 C200 C 0.60683 1.08407 0.47933
 C201 C 0.60248 1.08963 0.41835
 C202 C 0.57253 1.06612 0.38621
 C203 C 0.54760 1.03770 0.41438
 C204 C 0.54323 0.96626 0.59833
 C205 C 0.56849 0.93843 0.62789
 C206 C 0.60489 0.91912 0.59941
 C207 C 0.61605 0.92888 0.54122
 C208 C 0.59055 0.95641 0.51162
 H209 H 0.49424 0.92366 0.49429
 H210 H 0.44984 0.87324 0.54140
 H211 H 0.35066 0.95433 0.60601
 H212 H 0.39691 1.00504 0.56362
 H213 H 0.43285 0.99562 0.39706
 H214 H 0.38867 1.04524 0.34670
 H215 H 0.46149 1.07108 0.54046
 H216 H 0.58517 1.05224 0.55458
 H217 H 0.62964 1.10162 0.50538
 H218 H 0.56882 1.06929 0.33911
 H219 H 0.52572 1.01934 0.38843
 H220 H 0.51525 0.98069 0.62101
 H221 H 0.55934 0.93191 0.67290
 H222 H 0.64394 0.91473 0.51798
 H223 H 0.59915 0.96273 0.46634
 H224 H 0.41559 1.12041 0.49147
 N225 N 1.19394 0.15922 0.11236
 C226 C 1.18200 0.17138 0.16690
 N227 N 1.14467 0.15562 0.19394
 N228 N 1.12034 0.12865 0.16764
 C229 C 1.13215 0.11646 0.11309
 N230 N 1.16939 0.13236 0.08591
 N231 N 0.68412 0.66381 0.61912
 C232 C 0.67268 0.67371 0.67488
 N233 N 0.63631 0.65626 0.70138
 N234 N 0.61240 0.62977 0.67324
 C235 C 0.62378 0.61975 0.61741
 N236 N 0.66006 0.63742 0.59090
 N237 N -0.13616 0.34289 0.20039
 C238 C -0.17475 0.32795 0.17490
 N239 N -0.18876 0.34139 0.12192
 N240 N -0.16510 0.36863 0.09540
 C241 C -0.12657 0.38372 0.12080
 N242 N -0.11256 0.37025 0.17386
 N243 N 0.36662 0.82773 0.66691
 C244 C 0.31956 0.82650 0.66057
 N245 N 0.29827 0.85244 0.62603
 N246 N 0.32308 0.87900 0.59939
 C247 C 0.37015 0.88014 0.60544
 N248 N 0.39153 0.85394 0.63946
 N249 N -0.19548 0.65758 -0.11050
 C250 C -0.18367 0.67044 -0.16467
 N251 N -0.14603 0.65527 -0.19203
 N252 N -0.12121 0.62824 -0.16636
 C253 C -0.13282 0.61542 -0.11213
 N254 N -0.17045 0.63067 -0.08468
 N255 N 0.35051 1.14628 0.29806
 C256 C 0.32332 1.17055 0.32872
 N257 N 0.32104 1.16722 0.38809
 N258 N 0.34537 1.14067 0.41580
 C259 C 0.37232 1.11619 0.38505
 N260 N 0.37431 1.11943 0.32566
 N261 N 1.19188 -0.15636 -0.12862
 C262 C 1.17628 -0.17054 -0.18038
 N263 N 1.13669 -0.15607 -0.20426
 N264 N 1.11360 -0.12851 -0.17730
 C265 C 1.12912 -0.11438 -0.12537
 N266 N 1.16872 -0.12892 -0.10165
 N267 N 0.64329 0.34696 0.30038
 C268 C 0.68051 0.33125 0.32800
 N269 N 0.69319 0.34449 0.38156
 N270 N 0.66941 0.37230 0.40671
 C271 C 0.63215 0.38813 0.37923
 N272 N 0.61958 0.37486 0.32552
 N273 N 0.86640 -0.17367 -0.15991
 C274 C 0.81937 -0.17547 -0.15373
 N275 N 0.79769 -0.15035 -0.11815
 N276 N 0.82210 -0.12400 -0.09036
 C277 C 0.86915 -0.12230 -0.09629
 N278 N 0.89091 -0.14770 -0.13133
 N279 N 0.30068 0.35303 0.36064
 C280 C 0.32334 0.32676 0.32821
 N281 N 0.37062 0.32779 0.32537
 N282 N 0.39440 0.35410 0.35419
 C283 C 0.37167 0.38060 0.38616
 N284 N 0.32439 0.37969 0.38864
 N285 N 0.17337 0.66918 -0.11765
 C286 C 0.17094 0.67320 -0.17691
 N287 N 0.14406 0.64911 -0.20824
 N288 N 0.12080 0.62174 -0.18131
 C289 C 0.12308 0.61777 -0.12200
 N290 N 0.14960 0.64214 -0.09065
 N291 N 0.64362 1.15630 0.30515
 C292 C 0.67941 1.17367 0.33307
 N293 N 0.68973 1.16354 0.38910
 N294 N 0.66516 1.13702 0.41623
 C295 C 0.62943 1.11946 0.38835
 N296 N 0.61918 1.12967 0.33222
 N297 N 0.13498 0.32688 0.16208
 C298 C 0.18223 0.32563 0.15875
 N299 N 0.20467 0.35136 0.12518
 N300 N 0.18074 0.37775 0.09658
 C301 C 0.13347 0.37886 0.09960
 N302 N 0.11100 0.35288 0.13268
 N303 N 0.63874 0.84687 0.70835
 C304 C 0.67707 0.83141 0.68298
 N305 N 0.69188 0.84506 0.63058
 N306 N 0.66907 0.87300 0.60434
 C307 C 0.63067 0.88855 0.62952
 N308 N 0.61599 0.87491 0.68212
 N309 N 0.82439 0.16745 0.11532
 C310 C 0.82672 0.17202 0.17447
 N311 N 0.85413 0.14850 0.20634
 N312 N 0.87803 0.12116 0.18002
 C313 C 0.87591 0.11668 0.12078
 N314 N 0.84879 0.14045 0.08891
 N315 N 0.34279 0.64657 0.69549
 C316 C 0.31625 0.67063 0.66348
 N317 N 0.31527 0.66695 0.60411
 N318 N 0.34023 0.64027 0.57768
 C319 C 0.36655 0.61601 0.60974
 N320 N 0.36721 0.61958 0.66914
   
