data_POSCAR
  _audit_creation_date              2014-09-24
  _audit_creation_method            'ToBaCCo'
  _symmetry_space_group_name_H-M    'P1'
  _symmetry_Int_Tables_number       1
  _symmetry_cell_setting            triclinic
  loop_
  _symmetry_equiv_pos_as_xyz
 x,y,z
_cell_length_a 36.1563
_cell_length_b 34.1768
_cell_length_c 34.1837
_cell_angle_alpha 89.884300
_cell_angle_beta 89.988600
_cell_angle_gamma 89.978000
loop_
  _atom_site_label
  _atom_site_type_symbol
  _atom_site_fract_x
  _atom_site_fract_y
  _atom_site_fract_z
C1 C 0.30267 0.30747 0.23352
 H2 H 0.30067 0.31254 0.26468
 C3 C 0.32662 0.33012 0.21085
 H4 H 0.34240 0.35309 0.22481
 C5 C 0.28388 0.27166 0.17771
 H6 H 0.26785 0.24824 0.16505
 C7 C 0.30779 0.29332 0.15398
 H8 H 0.30973 0.28627 0.12320
 N9 N 0.28135 0.27946 0.21662
 C10 C 0.19702 0.26658 0.30697
 H11 H 0.19868 0.23535 0.31188
 C12 C 0.17326 0.28935 0.32967
 H13 H 0.15727 0.27536 0.35252
 C14 C 0.21656 0.32251 0.27155
 H15 H 0.23287 0.33519 0.24828
 C16 C 0.19285 0.34634 0.29328
 H17 H 0.19130 0.37723 0.28642
 Zn18 Zn 0.24982 0.25010 0.24976
 N19 N 0.21860 0.28348 0.27910
 C20 C 0.28299 0.22810 0.32215
 N21 N 0.28076 0.22042 0.28320
 C22 C 0.30206 0.19229 0.26642
 C23 C 0.32581 0.16954 0.28922
 C24 C 0.30670 0.20633 0.34601
 C25 C 0.19783 0.23392 0.19163
 C26 C 0.17421 0.21129 0.16867
 C27 C 0.19216 0.15444 0.20624
 C28 C 0.21587 0.17811 0.22811
 N29 N 0.21864 0.21700 0.22013
 H30 H 0.26690 0.25155 0.33472
 H31 H 0.30024 0.18728 0.23524
 H32 H 0.34162 0.14654 0.27533
 H33 H 0.30846 0.21334 0.37682
 H34 H 0.20003 0.26506 0.18639
 H35 H 0.15896 0.22530 0.14528
 H36 H 0.18996 0.12370 0.21355
 H37 H 0.23156 0.16545 0.25186
 C38 C 0.17095 0.32988 0.32305
 C39 C 0.32938 0.32328 0.17042
 C40 C 0.17110 0.17089 0.17577
 C41 C 0.32839 0.17637 0.32966
 C42 C 0.80365 0.80701 0.23382
 H43 H 0.80263 0.81080 0.26522
 C44 C 0.82738 0.83011 0.21135
 H45 H 0.84315 0.85230 0.22641
 C46 C 0.78219 0.77443 0.17728
 H47 H 0.76532 0.75191 0.16420
 C48 C 0.80557 0.79679 0.15360
 H49 H 0.80626 0.79003 0.12274
 N50 N 0.78124 0.78030 0.21655
 C51 C 0.69757 0.76667 0.30733
 H52 H 0.69923 0.73543 0.31215
 C53 C 0.67380 0.78938 0.33006
 H54 H 0.65781 0.77533 0.35287
 C55 C 0.71716 0.82269 0.27207
 H56 H 0.73355 0.83543 0.24890
 C57 C 0.69339 0.84645 0.29378
 H58 H 0.69182 0.87735 0.28694
 Zn59 Zn 0.75025 0.75048 0.24984
 N60 N 0.71914 0.78364 0.27949
 C61 C 0.78383 0.72855 0.32200
 N62 N 0.78166 0.72099 0.28301
 C63 C 0.80319 0.69312 0.26614
 C64 C 0.82701 0.67039 0.28890
 C65 C 0.80763 0.70683 0.34580
 C66 C 0.69707 0.73407 0.19290
 C67 C 0.67330 0.71126 0.17029
 C68 C 0.69336 0.65426 0.20640
 C69 C 0.71712 0.67813 0.22799
 N70 N 0.71895 0.71719 0.22051
 H71 H 0.76756 0.75182 0.33465
 H72 H 0.80145 0.68822 0.23494
 H73 H 0.84294 0.64752 0.27494
 H74 H 0.80929 0.71374 0.37664
 H75 H 0.69849 0.76533 0.18811
 H76 H 0.65713 0.72525 0.14759
 H77 H 0.69197 0.62336 0.21325
 H78 H 0.73361 0.66545 0.25111
 C79 C 0.67144 0.82992 0.32348
 C80 C 0.82877 0.82559 0.17027
 C81 C 0.67122 0.67069 0.17681
 C82 C 0.82945 0.67702 0.32940
 C83 C 0.80339 0.30631 0.73383
 H84 H 0.80193 0.31086 0.76511
 C85 C 0.82725 0.32903 0.71112
 H86 H 0.84351 0.35155 0.72519
 C87 C 0.78326 0.27177 0.67775
 H88 H 0.76667 0.24885 0.66496
 C89 C 0.80706 0.29351 0.65397
 H90 H 0.80839 0.28698 0.62303
 N91 N 0.78147 0.27888 0.71684
 C92 C 0.69630 0.26567 0.80639
 H93 H 0.69735 0.23433 0.81080
 C94 C 0.67251 0.28850 0.82899
 H95 H 0.65590 0.27444 0.85129
 C96 C 0.71735 0.32179 0.77227
 H97 H 0.73426 0.33456 0.74955
 C98 C 0.69363 0.34569 0.79389
 H99 H 0.69268 0.37670 0.78747
 Zn100 Zn 0.75005 0.24934 0.74995
 N101 N 0.71868 0.28262 0.77927
 C102 C 0.78126 0.22459 0.82260
 N103 N 0.78100 0.21948 0.78325
 C104 C 0.80410 0.19351 0.76591
 C105 C 0.82791 0.17044 0.78831
 C106 C 0.80461 0.20219 0.84628
 C107 C 0.69706 0.23318 0.69279
 C108 C 0.67331 0.21044 0.67008
 C109 C 0.69388 0.15321 0.70552
 C110 C 0.71759 0.17702 0.72723
 N111 N 0.71905 0.21617 0.72023
 H112 H 0.76387 0.24661 0.83580
 H113 H 0.80353 0.19023 0.73444
 H114 H 0.84378 0.14876 0.77267
 H115 H 0.80464 0.20906 0.87710
 H116 H 0.69833 0.26449 0.68828
 H117 H 0.65694 0.22454 0.64760
 H118 H 0.69274 0.12223 0.71202
 H119 H 0.73436 0.16422 0.75007
 C120 C 0.67098 0.32917 0.82300
 C121 C 0.82929 0.32287 0.67053
 C122 C 0.67146 0.16981 0.67626
 C123 C 0.82876 0.17399 0.82966
 C124 C 0.30214 0.80758 0.73378
 H125 H 0.30029 0.81264 0.76495
 C126 C 0.32590 0.83031 0.71097
 H127 H 0.34168 0.85333 0.72484
 C128 C 0.28314 0.77172 0.67808
 H129 H 0.26706 0.74827 0.66552
 C130 C 0.30687 0.79346 0.65421
 H131 H 0.30866 0.78641 0.62341
 N132 N 0.28086 0.77946 0.71702
 C133 C 0.19780 0.76627 0.80854
 H134 H 0.19996 0.73514 0.81385
 C135 C 0.17416 0.78901 0.83141
 H136 H 0.15884 0.77508 0.85480
 C137 C 0.21595 0.82197 0.77195
 H138 H 0.23169 0.83455 0.74819
 C139 C 0.19223 0.84573 0.79374
 H140 H 0.19008 0.87646 0.78637
 Zn141 Zn 0.24985 0.74988 0.75047
 N142 N 0.21867 0.78309 0.78003
 C143 C 0.28383 0.72828 0.82256
 N144 N 0.28130 0.72047 0.78365
 C145 C 0.30258 0.69240 0.76676
 C146 C 0.32650 0.66971 0.78944
 C147 C 0.30771 0.70658 0.84629
 C148 C 0.19713 0.73341 0.69318
 C149 C 0.17335 0.71065 0.67052
 C150 C 0.19270 0.65372 0.70718
 C151 C 0.21644 0.67754 0.72885
 N152 N 0.21860 0.71653 0.72116
 H153 H 0.26782 0.75174 0.83521
 H154 H 0.30057 0.68732 0.73560
 H155 H 0.34224 0.64669 0.77548
 H156 H 0.30965 0.71364 0.87707
 H157 H 0.19888 0.76462 0.68816
 H158 H 0.15746 0.72462 0.64759
 H159 H 0.19104 0.62287 0.71417
 H160 H 0.23266 0.66488 0.75220
 C161 C 0.17111 0.82940 0.82422
 C162 C 0.32851 0.82344 0.67053
 C163 C 0.17091 0.67016 0.67730
 C164 C 0.32927 0.67657 0.82986
 Si165 Si -0.00042 0.00048 -0.00028
 Si166 Si 0.00032 0.50005 0.50021
 Si167 Si 0.49999 -0.00015 0.50001
 Si168 Si 0.50083 0.49993 0.00012
 C169 C 0.09953 -0.09956 -0.10498
 C170 C 0.08898 -0.13797 -0.11419
 C171 C 0.11217 -0.16081 -0.13780
 C172 C 0.14608 -0.14579 -0.15167
 C173 C 0.15615 -0.10710 -0.14202
 C174 C 0.13288 -0.08380 -0.11891
 C175 C 0.07526 -0.07544 -0.08010
 C176 C 0.08561 -0.03687 -0.07121
 C177 C 0.06239 -0.01409 -0.04757
 C178 C 0.02955 -0.02998 -0.03233
 C179 C 0.01953 -0.06861 -0.04145
 C180 C 0.04222 -0.09147 -0.06557
 C181 C 0.14236 -0.04513 -0.10927
 C182 C 0.11905 -0.02200 -0.08597
 C183 C 0.05551 -0.15283 -0.09946
 C184 C 0.03260 -0.13003 -0.07543
 H185 H 0.16801 -0.03260 -0.11988
 H186 H 0.12737 0.00769 -0.07926
 H187 H 0.04707 -0.18244 -0.10636
 H188 H 0.00714 -0.14268 -0.06448
 H189 H 0.10364 -0.19017 -0.14554
 H190 H 0.18235 -0.09529 -0.15189
 H191 H 0.06996 0.01582 -0.04078
 H192 H -0.00583 -0.08092 -0.03003
 C193 C 0.09953 0.40094 0.39392
 C194 C 0.08815 0.36321 0.38318
 C195 C 0.11133 0.34035 0.35956
 C196 C 0.14597 0.35474 0.34711
 C197 C 0.15683 0.39278 0.35819
 C198 C 0.13365 0.41605 0.38143
 C199 C 0.07536 0.42500 0.41896
 C200 C 0.08666 0.46284 0.42956
 C201 C 0.06363 0.48549 0.45352
 C202 C 0.03000 0.47019 0.46736
 C203 C 0.01892 0.43238 0.45635
 C204 C 0.04150 0.40963 0.43200
 C205 C 0.14401 0.45404 0.39265
 C206 C 0.12085 0.47709 0.41620
 C207 C 0.05389 0.34900 0.39644
 C208 C 0.03100 0.37178 0.42054
 H209 H 0.17026 0.46605 0.38317
 H210 H 0.12989 0.50622 0.42421
 H211 H 0.04478 0.31993 0.38833
 H212 H 0.00491 0.35963 0.43032
 H213 H 0.10227 0.31148 0.35072
 H214 H 0.18357 0.40404 0.34936
 H215 H 0.07196 0.51482 0.46165
 H216 H -0.00714 0.42064 0.46662
 C217 C 0.59957 -0.09912 0.39398
 C218 C 0.63356 -0.08381 0.38133
 C219 C 0.65690 -0.10707 0.35828
 C220 C 0.64631 -0.14528 0.34746
 C221 C 0.61179 -0.15986 0.36006
 C222 C 0.58847 -0.13704 0.38356
 C223 C 0.57524 -0.07508 0.41887
 C224 C 0.54156 -0.09068 0.43215
 C225 C 0.51887 -0.06797 0.45644
 C226 C 0.52964 -0.02995 0.46706
 C227 C 0.56307 -0.01442 0.45293
 C228 C 0.58623 -0.03705 0.42910
 C229 C 0.55436 -0.15146 0.39702
 C230 C 0.53135 -0.12872 0.42102
 C231 C 0.64362 -0.04564 0.39221
 C232 C 0.62028 -0.02259 0.41556
 H233 H 0.54548 -0.18068 0.38916
 H234 H 0.50539 -0.14104 0.43099
 H235 H 0.66975 -0.03346 0.38259
 H236 H 0.62908 0.00669 0.42330
 H237 H 0.68355 -0.09564 0.34937
 H238 H 0.60291 -0.18885 0.35141
 H239 H 0.49298 -0.07991 0.46695
 H240 H 0.57118 0.01506 0.46080
 C241 C 0.59972 0.40058 -0.10629
 C242 C 0.63423 0.41524 -0.11809
 C243 C 0.65736 0.39185 -0.14125
 C244 C 0.64605 0.35414 -0.15299
 C245 C 0.61103 0.34022 -0.14123
 C246 C 0.58790 0.36318 -0.11766
 C247 C 0.57561 0.42475 -0.08129
 C248 C 0.54136 0.40980 -0.06891
 C249 C 0.51886 0.43261 -0.04454
 C250 C 0.53039 0.47006 -0.03286
 C251 C 0.56437 0.48499 -0.04614
 C252 C 0.58734 0.46225 -0.07008
 C253 C 0.55326 0.34941 -0.10507
 C254 C 0.53043 0.37228 -0.08100
 C255 C 0.64502 0.45291 -0.10627
 C256 C 0.62191 0.47608 -0.08279
 H257 H 0.54381 0.32061 -0.11367
 H258 H 0.50403 0.36047 -0.07172
 H259 H 0.67157 0.46458 -0.11522
 H260 H 0.63128 0.50495 -0.07429
 H261 H 0.68439 0.40275 -0.14952
 H262 H 0.60164 0.31162 -0.15057
 H263 H 0.49252 0.42118 -0.03475
 H264 H 0.57304 0.51409 -0.03757
 C265 C -0.10122 0.10399 -0.10099
 C266 C -0.13184 0.12225 -0.08382
 C267 C -0.15506 0.14567 -0.10696
 C268 C -0.14824 0.15132 -0.14761
 C269 C -0.11669 0.13236 -0.16379
 C270 C -0.09343 0.10886 -0.14081
 C271 C -0.07683 0.07920 -0.07677
 C272 C -0.04610 0.06095 -0.09402
 C273 C -0.02307 0.03734 -0.07092
 C274 C -0.03060 0.03218 -0.03092
 C275 C -0.06151 0.05050 -0.01403
 C276 C -0.08476 0.07415 -0.03686
 C277 C -0.06229 0.09027 -0.15700
 C278 C -0.03906 0.06669 -0.13402
 C279 C -0.13894 0.11642 -0.04377
 C280 C -0.11579 0.09280 -0.02069
 H281 H -0.05587 0.09388 -0.18776
 H282 H -0.01542 0.05282 -0.14769
 H283 H -0.16260 0.13026 -0.03010
 H284 H -0.12225 0.08912 0.01005
 H285 H -0.17945 0.15746 -0.09302
 H286 H -0.10852 0.13699 -0.19384
 H287 H 0.00062 0.02320 -0.08412
 H288 H -0.06742 0.04627 0.01678
 C289 C -0.09897 0.60625 0.40067
 C290 C -0.13295 0.61900 0.41589
 C291 C -0.15619 0.64215 0.39252
 C292 C -0.14551 0.65294 0.35429
 C293 C -0.11101 0.64022 0.33979
 C294 C -0.08779 0.61665 0.36273
 C295 C -0.07474 0.58129 0.42484
 C296 C -0.04104 0.56794 0.40935
 C297 C -0.01843 0.54362 0.43220
 C298 C -0.02929 0.53300 0.47023
 C299 C -0.06274 0.54718 0.48564
 C300 C -0.08582 0.57106 0.46289
 C301 C -0.05367 0.60310 0.34842
 C302 C -0.03075 0.57905 0.37129
 C303 C -0.14310 0.60813 0.45408
 C304 C -0.11987 0.58469 0.47724
 H305 H -0.04473 0.61094 0.31918
 H306 H -0.00479 0.56902 0.35905
 H307 H -0.16924 0.61783 0.46618
 H308 H -0.12874 0.57696 0.50653
 H309 H -0.18283 0.65115 0.40389
 H310 H -0.10208 0.64884 0.31077
 H311 H 0.00748 0.53308 0.42035
 H312 H -0.07092 0.53931 0.51513
 C313 C 0.40031 0.10592 0.40083
 C314 C 0.36630 0.11853 0.41610
 C315 C 0.34294 0.14160 0.39278
 C316 C 0.35352 0.15241 0.35453
 C317 C 0.38805 0.13985 0.33997
 C318 C 0.41140 0.11639 0.36287
 C319 C 0.42466 0.08104 0.42493
 C320 C 0.45840 0.06787 0.40939
 C321 C 0.48112 0.04361 0.43217
 C322 C 0.47032 0.03286 0.47019
 C323 C 0.43682 0.04685 0.48565
 C324 C 0.41365 0.07071 0.46297
 C325 C 0.44555 0.10301 0.34850
 C326 C 0.46860 0.07906 0.37133
 C327 C 0.35623 0.10757 0.45430
 C328 C 0.37957 0.08418 0.47739
 H329 H 0.45443 0.11091 0.31926
 H330 H 0.49459 0.06916 0.35905
 H331 H 0.33007 0.11714 0.46644
 H332 H 0.37075 0.07636 0.50667
 H333 H 0.31629 0.15052 0.40419
 H334 H 0.39689 0.14849 0.31093
 H335 H 0.50704 0.03319 0.42027
 H336 H 0.42867 0.03885 0.51511
 C337 C 0.40112 0.60589 -0.09913
 C338 C 0.36718 0.61863 -0.08379
 C339 C 0.34386 0.64178 -0.10706
 C340 C 0.35440 0.65254 -0.14534
 C341 C 0.38884 0.63981 -0.15998
 C342 C 0.41217 0.61628 -0.13712
 C343 C 0.42544 0.58096 -0.07505
 C344 C 0.45912 0.56767 -0.09063
 C345 C 0.48184 0.54341 -0.06784
 C346 C 0.47108 0.53277 -0.02979
 C347 C 0.43763 0.54685 -0.01429
 C348 C 0.41447 0.57072 -0.03697
 C349 C 0.44625 0.60277 -0.15155
 C350 C 0.46928 0.57878 -0.12874
 C351 C 0.35715 0.60776 -0.04556
 C352 C 0.38046 0.58431 -0.02249
 H353 H 0.45510 0.61061 -0.18082
 H354 H 0.49523 0.56879 -0.14106
 H355 H 0.33105 0.61744 -0.03337
 H356 H 0.37168 0.57657 0.00682
 H357 H 0.31726 0.65081 -0.09560
 H358 H 0.39764 0.64840 -0.18906
 H359 H 0.50775 0.53293 -0.07974
 H360 H 0.42953 0.53894 0.01521
 C361 C -0.10075 -0.10361 0.10026
 C362 C -0.13223 -0.12057 0.08346
 C363 C -0.15538 -0.14404 0.10662
 C364 C -0.14744 -0.15092 0.14670
 C365 C -0.11521 -0.13349 0.16265
 C366 C -0.09203 -0.10988 0.13971
 C367 C -0.07647 -0.07870 0.07608
 C368 C -0.04499 -0.06162 0.09298
 C369 C -0.02210 -0.03781 0.06993
 C370 C -0.03049 -0.03135 0.03032
 C371 C -0.06207 -0.04862 0.01374
 C372 C -0.08525 -0.07235 0.03655
 C373 C -0.06014 -0.09248 0.15554
 C374 C -0.03706 -0.06870 0.13259
 C375 C -0.14016 -0.11347 0.04380
 C376 C -0.11704 -0.08982 0.02073
 H377 H -0.05303 -0.09715 0.18598
 H378 H -0.01283 -0.05575 0.14597
 H379 H -0.16445 -0.12634 0.03044
 H380 H -0.12415 -0.08512 -0.00971
 H381 H -0.18034 -0.15536 0.09339
 H382 H -0.10697 -0.13918 0.19254
 H383 H 0.00216 -0.02456 0.08286
 H384 H -0.06857 -0.04349 -0.01680
 C385 C -0.09909 0.39371 0.59940
 C386 C -0.13339 0.38165 0.58444
 C387 C -0.15664 0.35847 0.60775
 C388 C -0.14567 0.34697 0.64568
 C389 C -0.11087 0.35900 0.65993
 C390 C -0.08762 0.38258 0.63704
 C391 C -0.07484 0.41869 0.57530
 C392 C -0.04081 0.43131 0.59053
 C393 C -0.01817 0.45565 0.56775
 C394 C -0.02935 0.46706 0.53006
 C395 C -0.06314 0.45359 0.51488
 C396 C -0.08623 0.42966 0.53756
 C397 C -0.05318 0.39542 0.65110
 C398 C -0.03022 0.41948 0.62828
 C399 C -0.14384 0.39325 0.54655
 C400 C -0.12060 0.41673 0.52345
 H401 H -0.04400 0.38701 0.68009
 H402 H -0.00400 0.42894 0.64033
 H403 H -0.17022 0.38410 0.53465
 H404 H -0.12971 0.42503 0.49440
 H405 H -0.18350 0.35000 0.59659
 H406 H -0.10174 0.34984 0.68871
 H407 H 0.00801 0.46563 0.57940
 H408 H -0.07156 0.46200 0.48562
 C409 C 0.40036 -0.10610 0.59932
 C410 C 0.36640 -0.11879 0.58404
 C411 C 0.34307 -0.14186 0.60737
 C412 C 0.35363 -0.15261 0.64564
 C413 C 0.38811 -0.13997 0.66021
 C414 C 0.41144 -0.11650 0.63729
 C415 C 0.42468 -0.08122 0.57519
 C416 C 0.45838 -0.06797 0.59074
 C417 C 0.48107 -0.04372 0.56793
 C418 C 0.47030 -0.03306 0.52989
 C419 C 0.43685 -0.04712 0.51442
 C420 C 0.41369 -0.07096 0.53713
 C421 C 0.44554 -0.10304 0.65167
 C422 C 0.46857 -0.07908 0.62883
 C423 C 0.35634 -0.10790 0.54582
 C424 C 0.37965 -0.08451 0.52270
 H425 H 0.45441 -0.11089 0.68093
 H426 H 0.49452 -0.06913 0.64111
 H427 H 0.33022 -0.11754 0.53367
 H428 H 0.37085 -0.07676 0.49340
 H429 H 0.31644 -0.15084 0.59595
 H430 H 0.39695 -0.14856 0.68927
 H431 H 0.50699 -0.03326 0.57982
 H432 H 0.42872 -0.03919 0.48493
 C433 C 0.40124 0.39388 0.09937
 C434 C 0.36727 0.38122 0.08407
 C435 C 0.34395 0.35810 0.10736
 C436 C 0.35451 0.34728 0.14561
 C437 C 0.38898 0.35993 0.16022
 C438 C 0.41231 0.38343 0.13734
 C439 C 0.42556 0.41879 0.07528
 C440 C 0.45926 0.43201 0.09083
 C441 C 0.48196 0.45627 0.06804
 C442 C 0.47118 0.46698 0.03001
 C443 C 0.43770 0.45297 0.01456
 C444 C 0.41455 0.42910 0.03723
 C445 C 0.44642 0.39687 0.15173
 C446 C 0.46945 0.42085 0.12891
 C447 C 0.35721 0.39215 0.04587
 C448 C 0.38051 0.41559 0.02279
 H449 H 0.45528 0.38899 0.18098
 H450 H 0.49541 0.43079 0.14120
 H451 H 0.33109 0.38254 0.03371
 H452 H 0.37171 0.42339 -0.00650
 H453 H 0.31733 0.34913 0.09592
 H454 H 0.39780 0.35130 0.18928
 H455 H 0.50788 0.46672 0.07993
 H456 H 0.42956 0.46095 -0.01491
 C457 C 0.09957 0.10017 0.10467
 C458 C 0.08909 0.13861 0.11388
 C459 C 0.11226 0.16133 0.13759
 C460 C 0.14609 0.14618 0.15156
 C461 C 0.15610 0.10746 0.14189
 C462 C 0.13283 0.08428 0.11869
 C463 C 0.07531 0.07617 0.07970
 C464 C 0.08558 0.03756 0.07081
 C465 C 0.06235 0.01488 0.04711
 C466 C 0.02957 0.03088 0.03181
 C467 C 0.01968 0.06958 0.04087
 C468 C 0.04237 0.09233 0.06507
 C469 C 0.14224 0.04557 0.10904
 C470 C 0.11893 0.02254 0.08565
 C471 C 0.05572 0.15362 0.09904
 C472 C 0.03283 0.13093 0.07491
 H473 H 0.16782 0.03294 0.11971
 H474 H 0.12718 -0.00718 0.07895
 H475 H 0.04734 0.18325 0.10594
 H476 H 0.00744 0.14369 0.06389
 H477 H 0.10377 0.19071 0.14535
 H478 H 0.18223 0.09554 0.15182
 H479 H 0.06985 -0.01506 0.04034
 H480 H -0.00557 0.08204 0.02936
 C481 C 0.09943 0.59910 0.60657
 C482 C 0.08816 0.63695 0.61708
 C483 C 0.11135 0.65980 0.64066
 C484 C 0.14590 0.64530 0.65329
 C485 C 0.15664 0.60714 0.64244
 C486 C 0.13344 0.58387 0.61925
 C487 C 0.07525 0.57505 0.58156
 C488 C 0.08643 0.53710 0.57119
 C489 C 0.06340 0.51447 0.54724
 C490 C 0.02989 0.52989 0.53318
 C491 C 0.01894 0.56781 0.54395
 C492 C 0.04151 0.59055 0.56830
 C493 C 0.14369 0.54577 0.60826
 C494 C 0.12051 0.52273 0.58475
 C495 C 0.05401 0.65128 0.60361
 C496 C 0.03113 0.62851 0.57954
 H497 H 0.16985 0.53367 0.61789
 H498 H 0.12945 0.49351 0.57691
 H499 H 0.04500 0.68045 0.61154
 H500 H 0.00513 0.64076 0.56958
 H501 H 0.10238 0.68877 0.64932
 H502 H 0.18331 0.59578 0.65140
 H503 H 0.07166 0.48506 0.53925
 H504 H -0.00701 0.57967 0.53349
 C505 C 0.59962 0.09877 0.60591
 C506 C 0.58817 0.13640 0.61698
 C507 C 0.61150 0.15924 0.64041
 C508 C 0.64636 0.14498 0.65232
 C509 C 0.65730 0.10706 0.64087
 C510 C 0.63396 0.08378 0.61786
 C511 C 0.57528 0.07471 0.58107
 C512 C 0.58664 0.03698 0.57017
 C513 C 0.56348 0.01434 0.54638
 C514 C 0.52968 0.02959 0.53294
 C515 C 0.51852 0.06727 0.54428
 C516 C 0.54122 0.08999 0.56852
 C517 C 0.64438 0.04589 0.60634
 C518 C 0.62105 0.02282 0.58302
 C519 C 0.55369 0.15050 0.60423
 C520 C 0.53066 0.12773 0.58030
 H521 H 0.67079 0.03396 0.61541
 H522 H 0.63014 -0.00623 0.57477
 H523 H 0.54453 0.17949 0.61260
 H524 H 0.50441 0.13981 0.57089
 H525 H 0.60237 0.18801 0.64954
 H526 H 0.68421 0.09589 0.64925
 H527 H 0.57187 -0.01492 0.53802
 H528 H 0.49233 0.07896 0.53433
 C529 C 0.59982 0.59936 0.10624
 C530 C 0.58846 0.63717 0.11675
 C531 C 0.61161 0.66011 0.14029
 C532 C 0.64624 0.64575 0.15284
 C533 C 0.65709 0.60763 0.14195
 C534 C 0.63391 0.58425 0.11886
 C535 C 0.57567 0.57520 0.08130
 C536 C 0.58692 0.53726 0.07099
 C537 C 0.56390 0.51452 0.04712
 C538 C 0.53038 0.52987 0.03301
 C539 C 0.51936 0.56779 0.04373
 C540 C 0.54188 0.59060 0.06806
 C541 C 0.64423 0.54617 0.10790
 C542 C 0.62106 0.52300 0.08450
 C543 C 0.55425 0.65139 0.10333
 C544 C 0.53141 0.62854 0.07928
 H545 H 0.67045 0.53415 0.11749
 H546 H 0.63006 0.49380 0.07670
 H547 H 0.54517 0.68053 0.11125
 H548 H 0.50537 0.64070 0.06933
 H549 H 0.60253 0.68902 0.14899
 H550 H 0.68382 0.59636 0.15081
 H551 H 0.57219 0.48510 0.03921
 H552 H 0.49339 0.57957 0.03328
   
