data_POSCAR
  _audit_creation_date              2014-09-24
  _audit_creation_method            'ToBaCCo'
  _symmetry_space_group_name_H-M    'P1'
  _symmetry_Int_Tables_number       1
  _symmetry_cell_setting            triclinic
  loop_
  _symmetry_equiv_pos_as_xyz
 x,y,z
_cell_length_a 20.7958
_cell_length_b 20.6524
_cell_length_c 20.8268
_cell_angle_alpha 90.100400
_cell_angle_beta 90.183000
_cell_angle_gamma 90.092700
loop_
  _atom_site_label
  _atom_site_type_symbol
  _atom_site_fract_x
  _atom_site_fract_y
  _atom_site_fract_z
C1 C 0.53131 1.00004 -0.50151
 C2 C 0.46564 0.99977 -0.50091
 C3 C 0.42544 1.00497 -0.56036
 C4 C 0.42792 0.99444 -0.44030
 C5 C 0.57090 1.00441 -0.44175
 C6 C 0.56978 0.99571 -0.56166
 C7 C 0.43208 0.96273 -0.61288
 C8 C 0.38842 0.96508 -0.66442
 C9 C 0.33510 1.00760 -0.66321
 C10 C 0.32944 1.05005 -0.61039
 C11 C 0.37429 1.04926 -0.56056
 C12 C 0.43275 1.04048 -0.39067
 C13 C 0.38997 1.03862 -0.33868
 C14 C 0.34060 0.99197 -0.33661
 C15 C 0.33687 0.94539 -0.38557
 C16 C 0.38029 0.94632 -0.43643
 C17 C 0.61922 1.05194 -0.43843
 C18 C 0.66372 1.05239 -0.38822
 C19 C 0.66042 1.00592 -0.33933
 C20 C 0.61064 0.95969 -0.34096
 C21 C 0.56679 0.95827 -0.39235
 C22 C 0.61748 0.94779 -0.56558
 C23 C 0.66156 0.94751 -0.61583
 C24 C 0.65849 0.99456 -0.66419
 C25 C 0.60912 1.04108 -0.66213
 C26 C 0.56563 1.04229 -0.61066
 H27 H 0.46979 0.92669 -0.61333
 H28 H 0.39508 0.93129 -0.70367
 H29 H 0.29022 1.08434 -0.60702
 H30 H 0.36785 1.08235 -0.52067
 H31 H 0.46796 1.07904 -0.39327
 H32 H 0.39359 1.07537 -0.30169
 H33 H 0.37533 0.91058 -0.47427
 H34 H 0.62368 1.08779 -0.47609
 H35 H 0.70119 1.08887 -0.38797
 H36 H 0.60734 0.92302 -0.30401
 H37 H 0.53115 0.92006 -0.39457
 H38 H 0.62191 0.91159 -0.52823
 H39 H 0.69867 0.91077 -0.61644
 H40 H 0.60596 1.07815 -0.69870
 H41 H 0.53030 1.08063 -0.60799
 H42 H 0.29970 0.90859 -0.38500
 C43 C -0.50026 1.46649 -0.00097
 C44 C -0.50062 1.53222 -0.00060
 C45 C -0.44090 1.57137 0.00373
 C46 C -0.56053 1.57079 -0.00462
 C47 C -0.55967 1.42682 0.00446
 C48 C -0.44003 1.42854 -0.00641
 C49 C -0.43657 1.61857 0.05209
 C50 C -0.38584 1.66251 0.05303
 C51 C -0.33776 1.65952 0.00614
 C52 C -0.34040 1.61073 -0.04095
 C53 C -0.39227 1.56747 -0.04277
 C54 C -0.60881 1.56682 0.04223
 C55 C -0.66064 1.61001 0.04086
 C56 C -0.66353 1.65872 -0.00613
 C57 C -0.61588 1.66161 -0.05344
 C58 C -0.56521 1.61779 -0.05295
 C59 C -0.61155 1.43318 -0.03836
 C60 C -0.66354 1.39014 -0.03539
 C61 C -0.66308 1.33812 0.00847
 C62 C -0.61113 1.33268 0.05152
 C63 C -0.56069 1.37689 0.04999
 C64 C -0.43601 1.38163 -0.05502
 C65 C -0.38495 1.33825 -0.05648
 C66 C -0.33632 1.34152 -0.00986
 C67 C -0.33860 1.39022 0.03732
 C68 C -0.39073 1.43293 0.03965
 H69 H -0.47377 1.62257 0.08819
 H70 H -0.38457 1.69936 0.09008
 H71 H -0.30398 1.60793 -0.07789
 H72 H -0.39549 1.53247 -0.08142
 H73 H -0.60531 1.53185 0.08075
 H74 H -0.69677 1.60726 0.07809
 H75 H -0.52826 1.62180 -0.08930
 H76 H -0.61108 1.47014 -0.07514
 H77 H -0.70245 1.39591 -0.06957
 H78 H -0.60902 1.29408 0.08661
 H79 H -0.52113 1.37096 0.08344
 H80 H -0.47378 1.37727 -0.09074
 H81 H -0.38398 1.30145 -0.09359
 H82 H -0.30176 1.39324 0.07408
 H83 H -0.39371 1.46773 0.07846
 H84 H -0.61737 1.69837 -0.09045
 C85 C 0.00166 0.53246 0.50094
 C86 C 0.00169 0.46649 0.50105
 C87 C -0.00267 0.42734 0.44094
 C88 C 0.00581 0.42744 0.56105
 C89 C -0.00183 0.57217 0.56067
 C90 C 0.00444 0.57100 0.44069
 C91 C 0.04133 0.43420 0.39031
 C92 C 0.03987 0.39120 0.33812
 C93 C -0.00366 0.33870 0.33709
 C94 C -0.04804 0.33292 0.38766
 C95 C -0.04802 0.37705 0.43821
 C96 C -0.03857 0.43398 0.61138
 C97 C -0.03759 0.39069 0.66320
 C98 C 0.00582 0.33821 0.66408
 C99 C 0.05060 0.33278 0.61383
 C100 C 0.05106 0.37721 0.56370
 C101 C 0.04265 0.56589 0.61121
 C102 C 0.04159 0.60929 0.66311
 C103 C -0.00203 0.66159 0.66387
 C104 C -0.04676 0.66687 0.61331
 C105 C -0.04714 0.62235 0.56312
 C106 C 0.05181 0.61918 0.43553
 C107 C 0.05051 0.66326 0.38507
 C108 C 0.00237 0.65957 0.33792
 C109 C -0.04358 0.60966 0.34118
 C110 C -0.04318 0.56621 0.39285
 H111 H 0.07797 0.47146 0.39200
 H112 H 0.07498 0.39734 0.30032
 H113 H -0.08303 0.29402 0.38864
 H114 H -0.08239 0.37064 0.47669
 H115 H -0.07511 0.47121 0.60971
 H116 H -0.07297 0.39657 0.70079
 H117 H 0.08567 0.37103 0.52539
 H118 H 0.07921 0.52867 0.60974
 H119 H 0.07696 0.60355 0.70094
 H120 H -0.08182 0.70558 0.61211
 H121 H -0.08193 0.62832 0.52475
 H122 H 0.08872 0.62400 0.47207
 H123 H 0.08680 0.70090 0.38335
 H124 H -0.08142 0.60615 0.30549
 H125 H -0.08111 0.53046 0.39664
 H126 H 0.08550 0.29392 0.61277
 O127 O -0.16541 1.00040 -0.08747
 O128 O 0.16671 0.99970 -0.08507
 O129 O 0.00112 1.08762 -0.16519
 O130 O 0.00089 0.91213 -0.16490
 O131 O 0.00464 0.83356 -0.08622
 O132 O -0.00327 1.16665 -0.08676
 O133 O 0.08856 0.99611 -0.16406
 O134 O -0.08674 1.00344 -0.16542
 Zr135 Zr 0.00073 1.00003 -0.11295
 O136 O 0.05877 0.94144 -0.05762
 O137 O -0.05775 1.05898 -0.05868
 C138 C -0.14633 1.00263 -0.14667
 C139 C 0.14800 0.99694 -0.14454
 C140 C -0.00169 1.14741 -0.14604
 C141 C 0.00359 0.85247 -0.14557
 H142 H 0.08636 1.08601 -0.08462
 O143 O 0.05872 1.05846 -0.05742
 H144 H -0.08500 0.91412 -0.08563
 O145 O -0.05764 0.94190 -0.05811
 O146 O 0.16599 1.00001 0.08804
 O147 O -0.16622 1.00071 0.08553
 O148 O 0.08705 1.16719 0.00029
 O149 O 0.08621 0.83340 0.00100
 O150 O -0.08647 0.83360 0.00005
 O151 O -0.08564 1.16734 -0.00093
 O152 O -0.00031 1.08869 0.16541
 O153 O -0.00148 0.91319 0.16569
 O154 O 0.00460 1.16724 0.08679
 O155 O -0.00440 0.83415 0.08719
 O156 O 0.16530 1.08820 0.00578
 O157 O -0.16435 1.08850 -0.00492
 O158 O -0.16482 0.91258 0.00288
 O159 O 0.16494 0.91220 -0.00208
 O160 O 0.08725 1.00496 0.16588
 O161 O -0.08818 0.99768 0.16461
 Zr162 Zr 0.11344 1.00023 0.00115
 Zr163 Zr -0.11288 1.00050 -0.00058
 Zr164 Zr 0.00058 1.11412 0.00006
 Zr165 Zr 0.00002 0.88667 0.00042
 Zr166 Zr -0.00027 1.00080 0.11348
 O167 O -0.05852 0.94193 0.05829
 O168 O 0.05855 1.05923 0.05900
 C169 C 0.14682 1.00339 0.14716
 C170 C -0.14761 0.99851 0.14502
 C171 C 0.14619 1.14798 0.00411
 C172 C 0.14553 0.85244 -0.00128
 C173 C -0.14571 0.85277 0.00225
 C174 C -0.14494 1.14827 -0.00406
 C175 C 0.00280 1.14834 0.14612
 C176 C -0.00398 0.85336 0.14653
 H177 H -0.08536 1.08685 0.08480
 O178 O -0.05786 1.05902 0.05773
 H179 H 0.08503 0.91452 0.08654
 O180 O 0.05787 0.94216 0.05887
 N181 N 0.29721 0.97101 0.23550
 C182 C 0.28970 1.00705 0.28977
 N183 N 0.23448 1.04190 0.29612
 N184 N 0.18885 1.04032 0.25111
 C185 C 0.19689 1.00467 0.19706
 N186 N 0.25207 0.97036 0.18985
 N187 N -0.30436 1.01782 0.22543
 C188 C -0.29130 0.99611 0.28560
 N189 N -0.23072 0.97549 0.29917
 N190 N -0.18496 0.97664 0.25458
 C191 C -0.19813 0.99776 0.19434
 N192 N -0.25872 1.01823 0.18054
 N193 N -0.30276 0.98328 -0.22859
 C194 C -0.28944 1.00471 -0.28872
 N195 N -0.22874 1.02523 -0.30182
 N196 N -0.18310 1.02421 -0.25679
 C197 C -0.19656 1.00332 -0.19658
 N198 N -0.25727 0.98299 -0.18329
 N199 N 0.30442 1.01531 -0.22585
 C200 C 0.29089 0.99323 -0.28589
 N201 N 0.23018 0.97249 -0.29899
 N202 N 0.18472 0.97394 -0.25410
 C203 C 0.19834 0.99551 -0.19401
 N204 N 0.25909 1.01602 -0.18066
 N205 N 0.29551 1.23492 0.04135
 C206 C 0.28805 1.29114 0.00822
 N207 N 0.23304 1.29979 -0.02612
 N208 N 0.18742 1.25444 -0.02682
 C209 C 0.19563 1.19819 0.00575
 N210 N 0.25049 1.18912 0.03974
 N211 N 0.22626 0.69527 0.01717
 C212 C 0.28626 0.70878 -0.00453
 N213 N 0.29967 0.76978 -0.02480
 N214 N 0.25491 0.81568 -0.02337
 C215 C 0.19483 0.80206 -0.00224
 N216 N 0.18120 0.74105 0.01789
 N217 N -0.22722 0.69574 -0.01643
 C218 C -0.28724 0.70944 0.00506
 N219 N -0.30037 0.77050 0.02541
 N220 N -0.25533 0.81630 0.02419
 C221 C -0.19526 0.80249 0.00322
 N222 N -0.18190 0.74140 -0.01693
 N223 N -0.29908 1.23068 -0.02927
 C224 C -0.28582 1.29174 -0.00879
 N225 N -0.22584 1.30542 0.01333
 N226 N -0.18071 1.25973 0.01436
 C227 C -0.19422 1.19863 -0.00586
 N228 N -0.25423 1.18486 -0.02753
 N229 N 0.03322 1.30036 0.23399
 C230 C -0.00204 1.29158 0.28823
 N231 N -0.03513 1.23515 0.29492
 N232 N -0.03281 1.18941 0.24996
 C233 C 0.00193 1.19855 0.19582
 N234 N 0.03461 1.25500 0.18833
 N235 N -0.03173 1.29938 -0.23336
 C236 C 0.00375 1.29081 -0.28749
 N237 N 0.03670 1.23440 -0.29444
 N238 N 0.03409 1.18851 -0.24978
 C239 C -0.00082 1.19748 -0.19571
 N240 N -0.03340 1.25388 -0.18801
 N241 N -0.03360 0.76517 -0.29456
 C242 C -0.00035 0.70896 -0.28748
 N243 N 0.03489 0.70055 -0.23297
 N244 N 0.03604 0.74603 -0.18740
 C245 C 0.00314 0.80222 -0.19525
 N246 N -0.03151 0.81103 -0.24969
 N247 N 0.01846 0.77124 0.30123
 C248 C -0.00095 0.70986 0.28780
 N249 N -0.02265 0.69604 0.22773
 N250 N -0.02394 0.74180 0.18263
 C251 C -0.00447 0.80316 0.19626
 N252 N 0.01645 0.81708 0.25645
   
