data_POSCAR
  _audit_creation_date              2014-09-24
  _audit_creation_method            'ToBaCCo'
  _symmetry_space_group_name_H-M    'P1'
  _symmetry_Int_Tables_number       1
  _symmetry_cell_setting            triclinic
  loop_
  _symmetry_equiv_pos_as_xyz
 x,y,z
_cell_length_a 33.4645
_cell_length_b 33.6191
_cell_length_c 67.9856
_cell_angle_alpha 86.279900
_cell_angle_beta 92.112700
_cell_angle_gamma 120.136100
loop_
  _atom_site_label
  _atom_site_type_symbol
  _atom_site_fract_x
  _atom_site_fract_y
  _atom_site_fract_z
C1 C 0.01272 0.08604 0.52599
 H2 H 0.04509 0.08614 0.52588
 C3 C 0.00874 0.11752 0.53693
 H4 H 0.03809 0.14132 0.54548
 C5 C -0.06469 0.05478 0.51481
 H6 H -0.09285 0.03091 0.50582
 C7 C -0.07022 0.08575 0.52559
 H8 H -0.10278 0.08537 0.52481
 N9 N -0.02367 0.05548 0.51526
 C10 C 0.00697 -0.05391 0.50717
 H11 H 0.00764 -0.05317 0.49125
 C12 C 0.01128 -0.08785 0.51840
 H13 H 0.01516 -0.11323 0.51096
 C14 C -0.00202 -0.02342 0.53607
 H15 H -0.00840 0.00098 0.54289
 C16 C 0.00213 -0.05675 0.54786
 H17 H -0.00004 -0.05691 0.56371
 Zn18 Zn -0.01222 0.01756 0.49979
 N19 N 0.00023 -0.02273 0.51610
 C20 C 0.07905 0.05664 0.48440
 N21 N 0.03889 0.05766 0.48370
 C22 C 0.03463 0.09009 0.47232
 C23 C 0.07165 0.12333 0.46101
 C24 C 0.11706 0.08933 0.47329
 C25 C -0.10310 -0.05216 0.49355
 C26 C -0.14074 -0.08445 0.48293
 C27 C -0.09763 -0.04932 0.45296
 C28 C -0.06089 -0.01781 0.46423
 N29 N -0.06409 -0.01996 0.48414
 H30 H 0.08203 0.03120 0.49390
 H31 H 0.00244 0.09038 0.47224
 H32 H 0.06739 0.14870 0.45198
 H33 H 0.14910 0.08869 0.47433
 H34 H -0.10467 -0.05323 0.50946
 H35 H -0.17123 -0.10798 0.49131
 H36 H -0.09146 -0.04727 0.43736
 H37 H -0.02904 0.00716 0.45703
 C38 C 0.00821 -0.08997 0.53903
 C39 C -0.03301 0.11793 0.53671
 C40 C -0.13872 -0.08462 0.46212
 C41 C 0.11374 0.12355 0.46155
 C42 C 1.10125 0.03894 0.13928
 H43 H 1.10137 0.07122 0.13893
 C44 C 1.13294 0.03498 0.12802
 H45 H 1.15691 0.06425 0.11876
 C46 C 1.06981 -0.03823 0.15197
 H47 H 1.04580 -0.06629 0.16166
 C48 C 1.10098 -0.04372 0.14091
 H49 H 1.10063 -0.07617 0.14220
 N50 N 1.07055 0.00268 0.15093
 C51 C 0.96121 0.03360 0.16048
 H52 H 0.96233 0.03448 0.17638
 C53 C 0.92705 0.03794 0.14980
 H54 H 0.90247 0.04307 0.15758
 C55 C 0.99124 0.02448 0.13116
 H56 H 1.01536 0.01774 0.12400
 C57 C 0.95765 0.02864 0.11990
 H58 H 0.95645 0.02515 0.10413
 Zn59 Zn 1.03260 0.01397 0.16687
 N60 N 0.99226 0.02677 0.15108
 C61 C 1.07142 0.10427 0.18122
 N62 N 1.07280 0.06445 0.18194
 C63 C 1.10532 0.05987 0.19279
 C64 C 1.13805 0.09607 0.20364
 C65 C 1.10356 0.14146 0.19189
 C66 C 0.96204 -0.07658 0.17497
 C67 C 0.92947 -0.11417 0.18649
 C68 C 0.96535 -0.07207 0.21558
 C69 C 0.99720 -0.03527 0.20350
 N70 N 0.99481 -0.03804 0.18358
 H71 H 1.04595 0.10758 0.17214
 H72 H 1.10591 0.02797 0.19290
 H73 H 1.16333 0.09147 0.21233
 H74 H 1.10248 0.17318 0.19093
 H75 H 0.96033 -0.07746 0.15907
 H76 H 0.90269 -0.14388 0.17930
 H77 H 0.96758 -0.06905 0.23139
 H78 H 1.02282 -0.00403 0.21007
 C79 C 0.92453 0.03480 0.12924
 C80 C 1.13340 -0.00662 0.12888
 C81 C 0.93041 -0.11192 0.20708
 C82 C 1.13763 0.13767 0.20320
 C83 C 0.03376 0.94868 0.86101
 H84 H 0.00209 0.91577 0.86089
 C85 C 0.07079 0.95356 0.87279
 H86 H 0.06740 0.92406 0.88163
 C87 C 0.07705 1.02640 0.84884
 H88 H 0.07953 1.05443 0.83924
 C89 C 0.11509 1.03279 0.86038
 H90 H 0.14638 1.06611 0.85980
 N91 N 0.03738 0.98483 0.84943
 C92 C -0.10537 0.95031 0.83895
 H93 H -0.10694 0.94985 0.82304
 C94 C -0.14326 0.94431 0.84945
 H95 H -0.17411 0.93734 0.84118
 C96 C -0.06276 0.95911 0.86846
 H97 H -0.03073 0.96658 0.87579
 C98 C -0.09978 0.95320 0.87958
 H99 H -0.09439 0.95705 0.89528
 Zn100 Zn -0.01396 0.97285 0.83309
 N101 N -0.06606 0.95783 0.84852
 C102 C -0.06535 0.88307 0.81796
 N103 N -0.02462 0.92365 0.81765
 C104 C 0.01192 0.92991 0.80704
 C105 C 0.00837 0.89465 0.79607
 C106 C -0.07044 0.84678 0.80714
 C107 C 0.00378 1.06297 0.82572
 C108 C 0.00780 1.10107 0.81449
 C109 C -0.00045 1.06108 0.78501
 C110 C -0.00432 1.02374 0.79680
 N111 N -0.00233 1.02527 0.81678
 H112 H -0.09362 0.87845 0.82685
 H113 H 0.04405 0.96238 0.80725
 H114 H 0.03781 0.90055 0.78759
 H115 H -0.10278 0.81441 0.80780
 H116 H 0.00425 1.06286 0.84164
 H117 H 0.01126 1.13017 0.82192
 H118 H -0.00232 1.05914 0.76914
 H119 H -0.01019 0.99313 0.78997
 C120 C -0.14096 0.94648 0.87019
 C121 C 0.11224 0.99600 0.87253
 C122 C 0.00511 1.10020 0.79384
 C123 C -0.03310 0.85226 0.79612
 C124 C 0.50958 -0.01006 0.00954
 C125 C 0.50639 -0.01256 -0.01044
 C126 C 0.46958 -0.00868 -0.02184
 C127 C 0.53946 -0.01930 -0.02182
 C128 C 0.55132 -0.00406 0.02055
 C129 C 0.47158 -0.01278 0.02129
 C130 C 0.44195 -0.04201 -0.03525
 C131 C 0.40727 -0.03855 -0.04598
 C132 C 0.40010 -0.00157 -0.04352
 C133 C 0.42796 0.03215 -0.03040
 C134 C 0.46268 0.02876 -0.01968
 C135 C 0.54801 -0.05548 -0.01647
 C136 C 0.57874 -0.06191 -0.02737
 C137 C 0.60090 -0.03256 -0.04384
 C138 C 0.59212 0.00320 -0.04938
 C139 C 0.56145 0.00970 -0.03848
 C140 C 0.59561 0.03165 0.01497
 C141 C 0.63460 0.03767 0.02565
 C142 C 0.62971 0.00836 0.04211
 C143 C 0.58568 -0.02701 0.04786
 C144 C 0.54667 -0.03310 0.03718
 C145 C 0.48111 0.02088 0.03477
 C146 C 0.44554 0.01856 0.04582
 C147 C 0.40013 -0.01759 0.04364
 C148 C 0.39047 -0.05163 0.03044
 C149 C 0.42602 -0.04939 0.01939
 H150 H 0.44691 -0.07095 -0.03723
 H151 H 0.38596 -0.06478 -0.05613
 H152 H 0.42286 0.06102 -0.02845
 H153 H 0.48422 0.05533 -0.00971
 H154 H 0.53070 -0.07884 -0.00392
 H155 H 0.58511 -0.08982 -0.02301
 H156 H 0.55512 0.03758 -0.04294
 H157 H 0.59991 0.05505 0.00244
 H158 H 0.66847 0.06531 0.02114
 H159 H 0.58150 -0.04981 0.06061
 H160 H 0.51285 -0.06061 0.04182
 H161 H 0.51601 0.04921 0.03654
 H162 H 0.45341 0.04504 0.05603
 H163 H 0.35550 -0.07987 0.02869
 H164 H 0.41806 -0.07620 0.00936
 H165 H 0.60902 0.02605 -0.06213
 C166 C -0.02747 0.48632 0.67628
 C167 C -0.02740 0.48983 0.65619
 C168 C -0.03192 0.45211 0.64433
 C169 C -0.02208 0.53185 0.64514
 C170 C -0.03166 0.51973 0.68812
 C171 C -0.02265 0.44932 0.68736
 C172 C -0.00006 0.46180 0.62932
 C173 C -0.00392 0.42651 0.61819
 C174 C -0.03984 0.38121 0.62184
 C175 C -0.07214 0.37138 0.63658
 C176 C -0.06836 0.40667 0.64771
 C177 C 0.01496 0.57565 0.64925
 C178 C 0.02003 0.61496 0.63867
 C179 C -0.01156 0.61091 0.62375
 C180 C -0.04819 0.56735 0.61941
 C181 C -0.05334 0.52800 0.62999
 C182 C -0.06777 0.52924 0.68454
 C183 C -0.07129 0.56088 0.69567
 C184 C -0.03904 0.58299 0.71061
 C185 C -0.00344 0.57312 0.71445
 C186 C 0.00015 0.54154 0.70332
 C187 C -0.05414 0.42208 0.70232
 C188 C -0.04947 0.38757 0.71292
 C189 C -0.01308 0.38019 0.70878
 C190 C 0.01875 0.40758 0.69405
 C191 C 0.01415 0.44211 0.68345
 H192 H 0.02812 0.49660 0.62641
 H193 H 0.02124 0.43450 0.60680
 H194 H -0.10017 0.33649 0.63947
 H195 H -0.09382 0.39859 0.65895
 H196 H 0.04003 0.57931 0.66058
 H197 H 0.04864 0.64846 0.64208
 H198 H -0.08191 0.49456 0.62650
 H199 H -0.09320 0.51213 0.67315
 H200 H -0.09908 0.56812 0.69263
 H201 H 0.02167 0.59000 0.72599
 H202 H 0.02808 0.53453 0.70640
 H203 H -0.08252 0.42730 0.70565
 H204 H -0.07422 0.36665 0.72433
 H205 H 0.04717 0.40233 0.69080
 H206 H 0.03939 0.46338 0.67227
 H207 H -0.07278 0.56382 0.60786
 C208 C 0.51099 0.51733 0.34375
 C209 C 0.51466 0.51693 0.32387
 C210 C 0.55672 0.55199 0.31302
 C211 C 0.47676 0.48136 0.31204
 C212 C 0.47362 0.47752 0.35515
 C213 C 0.54400 0.55765 0.35501
 C214 C 0.55258 0.57595 0.29608
 C215 C 0.59192 0.60859 0.28570
 C216 C 0.63577 0.61739 0.29204
 C217 C 0.64014 0.59329 0.30877
 C218 C 0.60082 0.56060 0.31917
 C219 C 0.43135 0.47313 0.31331
 C220 C 0.39594 0.43978 0.30208
 C221 C 0.40562 0.41464 0.28934
 C222 C 0.45088 0.42311 0.28781
 C223 C 0.48631 0.45641 0.29904
 C224 C 0.46607 0.43275 0.35357
 C225 C 0.43093 0.39552 0.36436
 C226 C 0.40326 0.40269 0.37697
 C227 C 0.41102 0.44727 0.37882
 C228 C 0.44611 0.48452 0.36803
 C229 C 0.56562 0.55131 0.37205
 C230 C 0.59625 0.58899 0.38284
 C231 C 0.60532 0.63335 0.37678
 C232 C 0.58352 0.63988 0.35993
 C233 C 0.55286 0.60223 0.34914
 H234 H 0.51892 0.56963 0.29103
 H235 H 0.58815 0.62699 0.27274
 H236 H 0.67388 0.59968 0.31376
 H237 H 0.60472 0.54184 0.33195
 H238 H 0.42341 0.49264 0.32294
 H239 H 0.36109 0.43366 0.30331
 H240 H 0.52110 0.46244 0.29775
 H241 H 0.48749 0.42671 0.34403
 H242 H 0.42538 0.36121 0.36289
 H243 H 0.38987 0.45321 0.38857
 H244 H 0.45153 0.51876 0.36955
 H245 H 0.55905 0.51723 0.37690
 H246 H 0.61286 0.58354 0.39588
 H247 H 0.59012 0.67403 0.35517
 H248 H 0.53582 0.60778 0.33628
 H249 H 0.45875 0.40391 0.27797
 C250 C -0.00328 0.23061 0.55853
 C251 C -0.04326 0.21799 0.56919
 C252 C -0.08042 0.17277 0.56897
 C253 C -0.07743 0.14019 0.55825
 C254 C -0.03709 0.15249 0.54769
 C255 C -0.00019 0.19816 0.54785
 C256 C -0.04541 0.25151 0.58056
 C257 C -0.04582 0.28035 0.59006
 C258 C -0.04488 0.31487 0.60115
 C259 C -0.04306 0.34488 0.61059
 H260 H 0.02563 0.26553 0.55855
 H261 H -0.11150 0.16262 0.57721
 H262 H -0.10623 0.10522 0.55853
 H263 H 0.03100 0.20890 0.53961
 C264 C 0.83959 0.76866 0.22642
 C265 C 0.82051 0.77932 0.24182
 C266 C 0.83826 0.82529 0.24623
 C267 C 0.87453 0.86054 0.23516
 C268 C 0.89360 0.85031 0.21947
 C269 C 0.87592 0.80391 0.21531
 C270 C 0.78176 0.74341 0.25272
 C271 C 0.74883 0.71390 0.26181
 C272 C 0.70983 0.67992 0.27239
 C273 C 0.67621 0.65127 0.28138
 H274 H 0.82611 0.73317 0.22288
 H275 H 0.82359 0.83395 0.25804
 H276 H 0.88678 0.89589 0.23854
 H277 H 0.89015 0.79491 0.20346
 C278 C 0.23475 0.02752 -0.11269
 C279 C 0.22791 0.00604 -0.09380
 C280 C 0.18362 -0.01715 -0.08562
 C281 C 0.14616 -0.01959 -0.09641
 C282 C 0.15249 0.00112 -0.11556
 C283 C 0.19731 0.02516 -0.12351
 C284 C 0.26589 0.00629 -0.08304
 C285 C 0.29721 0.00554 -0.07402
 C286 C 0.33340 0.00372 -0.06344
 C287 C 0.36396 0.00157 -0.05438
 H288 H 0.26887 0.04541 -0.11919
 H289 H 0.17795 -0.03384 -0.07099
 H290 H 0.11220 -0.03782 -0.08979
 H291 H 0.20321 0.04098 -0.13830
 C292 C 0.03772 0.81866 0.55749
 C293 C 0.00689 0.79715 0.57320
 C294 C -0.02255 0.81328 0.57805
 C295 C -0.02159 0.85042 0.56713
 C296 C 0.00889 0.87199 0.55116
 C297 C 0.03874 0.85584 0.54653
 C298 C 0.00447 0.75781 0.58406
 C299 C 0.00162 0.72450 0.59316
 C300 C -0.00248 0.68518 0.60381
 C301 C -0.00645 0.65139 0.61290
 H302 H 0.06070 0.80647 0.55362
 H303 H -0.04671 0.79675 0.59012
 H304 H -0.04553 0.86148 0.57088
 H305 H 0.06290 0.87201 0.53446
 C306 C 0.19447 0.24052 0.23540
 C307 C 0.24022 0.24979 0.23596
 C308 C 0.25253 0.22304 0.22554
 C309 C 0.21926 0.18689 0.21477
 C310 C 0.17306 0.17693 0.21426
 C311 C 0.16107 0.20435 0.22459
 C312 C 0.27458 0.28618 0.24742
 C313 C 0.30396 0.31617 0.25703
 C314 C 0.33893 0.35080 0.26828
 C315 C 0.36917 0.38004 0.27788
 H316 H 0.18455 0.26097 0.24345
 H317 H 0.28787 0.23000 0.22582
 H318 H 0.22974 0.16691 0.20672
 H319 H 0.12573 0.19724 0.22463
 C320 C 0.75648 -0.04346 -0.11685
 C321 C 0.75251 -0.05549 -0.09668
 C322 C 0.78238 -0.06881 -0.08759
 C323 C 0.81677 -0.06918 -0.09851
 C324 C 0.82225 -0.05602 -0.11888
 C325 C 0.79074 -0.04381 -0.12786
 C326 C 0.71892 -0.05246 -0.08521
 C327 C 0.69132 -0.04896 -0.07565
 C328 C 0.65951 -0.04392 -0.06451
 C329 C 0.63267 -0.03900 -0.05505
 H330 H 0.73371 -0.03274 -0.12402
 H331 H 0.77932 -0.07863 -0.07198
 H332 H 0.83815 -0.08093 -0.09085
 H333 H 0.79365 -0.03190 -0.14317
 C334 C 0.18946 -0.05410 0.09723
 C335 C 0.23485 -0.01706 0.09604
 C336 C 0.24712 0.02298 0.10574
 C337 C 0.21419 0.02620 0.11649
 C338 C 0.16837 -0.01063 0.11767
 C339 C 0.15640 -0.05097 0.10802
 C340 C 0.26896 -0.01958 0.08473
 C341 C 0.29824 -0.02050 0.07529
 C342 C 0.33321 -0.02039 0.06426
 C343 C 0.36353 -0.01948 0.05486
 H344 H 0.17958 -0.08523 0.08974
 H345 H 0.28218 0.05178 0.10498
 H346 H 0.22469 0.05739 0.12403
 H347 H 0.12133 -0.07972 0.10852
 C348 C 0.75840 0.80423 0.44953
 C349 C 0.75642 0.81050 0.42912
 C350 C 0.78801 0.85239 0.41977
 C351 C 0.82220 0.88763 0.43069
 C352 C 0.82604 0.88192 0.45145
 C353 C 0.79243 0.83926 0.46058
 C354 C 0.72299 0.77330 0.41772
 C355 C 0.69551 0.74172 0.40824
 C356 C 0.66380 0.70432 0.39722
 C357 C 0.63703 0.67210 0.38787
 H358 H 0.73423 0.77167 0.45692
 H359 H 0.78639 0.85785 0.40394
 H360 H 0.84426 0.91967 0.42256
 H361 H 0.79334 0.83073 0.47610
 C362 C -0.02525 0.16615 0.75448
 C363 C 0.00394 0.21168 0.75954
 C364 C 0.03444 0.22098 0.77550
 C365 C 0.03540 0.18483 0.78651
 C366 C 0.00581 0.13888 0.78167
 C367 C -0.02435 0.12999 0.76545
 C368 C 0.00165 0.24861 0.74860
 C369 C -0.00100 0.27916 0.73946
 C370 C -0.00479 0.31455 0.72878
 C371 C -0.00842 0.34455 0.71966
 H372 H -0.04915 0.15855 0.74221
 H373 H 0.05723 0.25611 0.77952
 H374 H 0.05932 0.19282 0.79877
 H375 H -0.04809 0.09501 0.76154
 C376 C 0.80430 0.01018 0.11410
 C377 C 0.81227 0.03199 0.09525
 C378 C 0.85720 0.05599 0.08771
 C379 C 0.89393 0.05766 0.09887
 C380 C 0.88615 0.03531 0.11774
 C381 C 0.84093 0.01181 0.12527
 C382 C 0.77406 0.02856 0.08353
 C383 C 0.74156 0.02482 0.07385
 C384 C 0.70302 0.01964 0.06266
 C385 C 0.66976 0.01470 0.05323
 H386 H 0.76963 -0.00867 0.12005
 H387 H 0.86376 0.07305 0.07314
 H388 H 0.92840 0.07641 0.09274
 H389 H 0.83363 -0.00639 0.13959
 C390 C 0.22122 0.18428 0.42961
 C391 C 0.22987 0.22966 0.42873
 C392 C 0.20095 0.24035 0.43872
 C393 C 0.16339 0.20589 0.44944
 C394 C 0.15412 0.16008 0.45032
 C395 C 0.18361 0.14967 0.44036
 C396 C 0.26804 0.26542 0.41750
 C397 C 0.29957 0.29609 0.40814
 C398 C 0.33602 0.33269 0.39725
 C399 C 0.36682 0.36440 0.38799
 H400 H 0.24335 0.17562 0.42189
 H401 H 0.20743 0.27538 0.43821
 H402 H 0.14185 0.21517 0.45722
 H403 H 0.17713 0.11469 0.44062
 C404 C -0.00235 0.77029 0.77414
 C405 C -0.04237 0.74265 0.76341
 C406 C -0.07985 0.75022 0.76360
 C407 C -0.07715 0.78559 0.77439
 C408 C -0.03680 0.81389 0.78505
 C409 C 0.00044 0.80562 0.78489
 C410 C -0.04431 0.70711 0.75200
 C411 C -0.04466 0.67793 0.74247
 C412 C -0.04376 0.64437 0.73135
 C413 C -0.04204 0.61617 0.72188
 H414 H 0.02680 0.76463 0.77415
 H415 H -0.11097 0.72908 0.75530
 H416 H -0.10621 0.79138 0.77408
 H417 H 0.03167 0.82628 0.79321
   
