data_POSCAR
  _audit_creation_date              2014-09-24
  _audit_creation_method            'ToBaCCo'
  _symmetry_space_group_name_H-M    'P1'
  _symmetry_Int_Tables_number       1
  _symmetry_cell_setting            triclinic
  loop_
  _symmetry_equiv_pos_as_xyz
 x,y,z
_cell_length_a 45.7261
_cell_length_b 45.7689
_cell_length_c 25.7472
_cell_angle_alpha 89.950800
_cell_angle_beta 90.049800
_cell_angle_gamma 90.013100
loop_
  _atom_site_label
  _atom_site_type_symbol
  _atom_site_fract_x
  _atom_site_fract_y
  _atom_site_fract_z
C1 C -0.02708 0.26889 0.02647
 C2 C -0.02702 0.26888 -0.02844
 C3 C -0.00036 0.26899 -0.05536
 C4 C 0.02626 0.26892 -0.02831
 C5 C 0.02618 0.26899 0.02648
 C6 C -0.00043 0.26908 0.05343
 H7 H -0.00034 0.26891 0.09559
 H8 H -0.00033 0.26876 -0.09754
 C9 C 0.47348 0.77113 0.52734
 C10 C 0.47335 0.77112 0.47262
 C11 C 0.49991 0.77122 0.44556
 C12 C 0.52654 0.77104 0.47253
 C13 C 0.52666 0.77097 0.52725
 C14 C 0.50011 0.77115 0.55431
 H15 H 0.50016 0.77089 0.59644
 H16 H 0.49986 0.77101 0.40343
 C17 C 1.02670 0.72967 0.02735
 C18 C 1.02659 0.72956 -0.02746
 C19 C 0.99996 0.72944 -0.05442
 C20 C 0.97336 0.72965 -0.02742
 C21 C 0.97347 0.72970 0.02738
 C22 C 1.00010 0.72960 0.05435
 H23 H 1.00007 0.72988 0.09651
 H24 H 0.99999 0.72960 -0.09658
 C25 C 0.52656 0.23033 0.52809
 C26 C 0.52667 0.23035 0.47336
 C27 C 0.50010 0.23014 0.44625
 C28 C 0.47347 0.23018 0.47314
 C29 C 0.47336 0.23024 0.52787
 C30 C 0.49993 0.23019 0.55498
 H31 H 0.49989 0.23043 0.59712
 H32 H 0.50015 0.23034 0.40411
 C33 C 0.72989 -0.02704 0.02870
 C34 C 0.72990 -0.02700 -0.02612
 C35 C 0.72977 -0.00040 -0.05311
 C36 C 0.72984 0.02615 -0.02613
 C37 C 0.72980 0.02613 0.02858
 C38 C 0.72971 -0.00044 0.05565
 H39 H 0.72992 -0.00035 0.09781
 H40 H 0.73002 -0.00038 -0.09524
 C41 C 0.23004 0.47341 0.52727
 C42 C 0.23008 0.47333 0.47254
 C43 C 0.23002 0.49988 0.44540
 C44 C 0.23017 0.52648 0.47228
 C45 C 0.23019 0.52656 0.52701
 C46 C 0.23001 0.50001 0.55414
 H47 H 0.23021 0.50006 0.59628
 H48 H 0.23024 0.49983 0.40327
 C49 C 0.26876 1.02751 0.02729
 C50 C 0.26875 1.02752 -0.02763
 C51 C 0.26885 1.00089 -0.05455
 C52 C 0.26874 0.97432 -0.02751
 C53 C 0.26876 0.97432 0.02720
 C54 C 0.26887 1.00087 0.05422
 H55 H 0.26868 1.00074 0.09638
 H56 H 0.26864 1.00078 -0.09671
 C57 C 0.77129 0.52652 0.52725
 C58 C 0.77121 0.52664 0.47252
 C59 C 0.77138 0.50012 0.44540
 C60 C 0.77136 0.47350 0.47230
 C61 C 0.77138 0.47338 0.52702
 C62 C 0.77148 0.49990 0.55414
 H63 H 0.77128 0.49982 0.59628
 H64 H 0.77110 0.50020 0.40327
 O65 O 0.22555 0.26559 0.18455
 O66 O 0.29630 0.25570 0.25053
 O67 O 0.26566 0.22532 0.18433
 O68 O 0.25616 0.29597 0.25074
 O69 O 0.23383 0.27359 0.31574
 O70 O 0.24334 0.20294 0.24932
 O71 O 0.27397 0.23332 0.31553
 O72 O 0.20322 0.24321 0.24955
 Cu73 Cu 0.26317 0.26290 0.21098
 Cu74 Cu 0.23634 0.23601 0.28910
 C75 C 0.20246 0.25598 0.20583
 C76 C 0.29706 0.24294 0.29425
 C77 C 0.25601 0.20222 0.20552
 C78 C 0.24347 0.29669 0.29452
 O79 O 0.76613 0.72647 0.31599
 O80 O 0.75653 0.79713 0.24949
 O81 O 0.72600 0.76675 0.31573
 O82 O 0.79665 0.75685 0.24974
 O83 O 0.77423 0.73449 0.18480
 O84 O 0.70358 0.74440 0.25079
 O85 O 0.73412 0.77478 0.18455
 O86 O 0.74371 0.70413 0.25105
 Cu87 Cu 0.76359 0.76406 0.28930
 Cu88 Cu 0.73664 0.73720 0.21124
 C89 C 0.75648 0.70338 0.29480
 C90 C 0.74378 0.79787 0.20572
 C91 C 0.70288 0.75717 0.29446
 C92 C 0.79735 0.74406 0.20608
 O93 O 0.79730 0.24341 0.24897
 O94 O 0.72664 0.23415 0.31591
 O95 O 0.75683 0.20342 0.24967
 O96 O 0.76711 0.27414 0.31527
 O97 O 0.74466 0.29647 0.25031
 O98 O 0.73439 0.22575 0.18470
 O99 O 0.70420 0.25648 0.25095
 O100 O 0.77485 0.26574 0.18402
 Cu101 Cu 0.76424 0.23653 0.28901
 Cu102 Cu 0.73727 0.26337 0.21095
 C103 C 0.79800 0.25605 0.20511
 C104 C 0.70350 0.24383 0.29480
 C105 C 0.74396 0.20266 0.20603
 C106 C 0.75753 0.29723 0.29395
 O107 O 0.26529 0.77462 0.18392
 O108 O 0.25577 0.70382 0.24989
 O109 O 0.22518 0.73426 0.18357
 O110 O 0.29586 0.74418 0.25023
 O111 O 0.27335 0.76634 0.31516
 O112 O 0.20266 0.75642 0.24851
 O113 O 0.23325 0.72598 0.31482
 O114 O 0.24277 0.79678 0.24886
 Cu115 Cu 0.26279 0.73699 0.21036
 Cu116 Cu 0.23574 0.76361 0.28838
 C117 C 0.25556 0.79763 0.20518
 C118 C 0.24300 0.70297 0.29357
 C119 C 0.20200 0.74376 0.20471
 C120 C 0.29653 0.75686 0.29402
 O121 O 0.76663 0.27369 0.68434
 O122 O 0.75671 0.20315 0.75107
 O123 O 0.72623 0.23367 0.68484
 O124 O 0.79710 0.24317 0.75057
 O125 O 0.77498 0.26570 0.81554
 O126 O 0.70410 0.25621 0.74981
 O127 O 0.73458 0.22568 0.81603
 O128 O 0.74450 0.29623 0.74931
 Cu129 Cu 0.76390 0.23614 0.71114
 Cu130 Cu 0.73731 0.26323 0.78923
 C131 C 0.75717 0.29685 0.70550
 C132 C 0.74405 0.20252 0.79488
 C133 C 0.70322 0.24341 0.70616
 C134 C 0.79799 0.25596 0.79422
 O135 O 0.29645 0.74449 0.74913
 O136 O 0.22580 0.73419 0.81494
 O137 O 0.25652 0.70401 0.74877
 O138 O 0.26571 0.77469 0.81526
 O139 O 0.24325 0.79696 0.75023
 O140 O 0.23406 0.72628 0.68376
 O141 O 0.20333 0.75647 0.74991
 O142 O 0.27400 0.76676 0.68410
 Cu143 Cu 0.26339 0.73710 0.78859
 Cu144 Cu 0.23639 0.76387 0.71043
 C145 C 0.29714 0.75728 0.70543
 C146 C 0.20266 0.74367 0.79360
 C147 C 0.24380 0.70322 0.70498
 C148 C 0.25595 0.79775 0.79404
 O149 O 0.25531 0.29618 0.74994
 O150 O 0.26513 0.22542 0.81591
 O151 O 0.29562 0.25605 0.74978
 O152 O 0.22480 0.26554 0.81606
 O153 O 0.20246 0.24327 0.75099
 O154 O 0.27327 0.23378 0.68470
 O155 O 0.24279 0.20315 0.75083
 O156 O 0.23296 0.27391 0.68486
 Cu157 Cu 0.26246 0.26304 0.78948
 Cu158 Cu 0.23562 0.23628 0.71129
 C159 C 0.24258 0.29697 0.70617
 C160 C 0.25553 0.20236 0.79459
 C161 C 0.29639 0.24340 0.70597
 C162 C 0.20169 0.25591 0.79480
 O163 O 0.72666 0.76589 0.68465
 O164 O 0.79735 0.75621 0.75143
 O165 O 0.76699 0.72577 0.68490
 O166 O 0.75702 0.79632 0.75118
 O167 O 0.73457 0.77385 0.81594
 O168 O 0.74454 0.70330 0.74967
 O169 O 0.77490 0.73375 0.81620
 O170 O 0.70421 0.74342 0.74941
 Cu171 Cu 0.76427 0.76331 0.71151
 Cu172 Cu 0.73729 0.73631 0.78933
 C173 C 0.70351 0.75622 0.70569
 C174 C 0.79805 0.74343 0.79517
 C175 C 0.75736 0.70264 0.70603
 C176 C 0.74418 0.79698 0.79482
 C177 C 0.26795 0.05301 0.05502
 C178 C 0.26694 0.07560 0.07902
 C179 C 0.26539 0.10220 0.10662
 C180 C 0.26375 0.12501 0.12982
 C181 C 0.26145 0.15182 0.15660
 C182 C 0.25916 0.17479 0.17913
 C183 C 0.77035 0.55344 0.55636
 C184 C 0.76923 0.57605 0.58021
 C185 C 0.76752 0.60266 0.60763
 C186 C 0.76572 0.62548 0.63070
 C187 C 0.76321 0.65228 0.65733
 C188 C 0.76073 0.67525 0.67974
 C189 C 0.73084 0.94741 0.05618
 C190 C 0.73199 0.92474 0.07998
 C191 C 0.73374 0.89806 0.10735
 C192 C 0.73556 0.87520 0.13038
 C193 C 0.73806 0.84833 0.15698
 C194 C 0.74051 0.82532 0.17940
 C195 C 0.23078 0.44645 0.55642
 C196 C 0.23172 0.42381 0.58029
 C197 C 0.23319 0.39716 0.60776
 C198 C 0.23478 0.37431 0.63085
 C199 C 0.23706 0.34744 0.65751
 C200 C 0.23937 0.32443 0.67992
 C201 C 0.94737 0.26803 0.05417
 C202 C 0.92473 0.26697 0.07815
 C203 C 0.89809 0.26537 0.10577
 C204 C 0.87525 0.26370 0.12902
 C205 C 0.84841 0.26140 0.15590
 C206 C 0.82543 0.25913 0.17854
 C207 C 0.44654 0.77029 0.55640
 C208 C 0.42390 0.76924 0.58020
 C209 C 0.39727 0.76759 0.60754
 C210 C 0.37442 0.76580 0.63053
 C211 C 0.34757 0.76328 0.65702
 C212 C 0.32457 0.76075 0.67932
 C213 C 0.05232 0.73063 0.05477
 C214 C 0.07504 0.73180 0.07856
 C215 C 0.10175 0.73357 0.10597
 C216 C 0.12464 0.73541 0.12906
 C217 C 0.15153 0.73793 0.15576
 C218 C 0.17454 0.74041 0.17827
 C219 C 0.55351 0.23121 0.55722
 C220 C 0.57617 0.23225 0.58104
 C221 C 0.60285 0.23384 0.60839
 C222 C 0.62574 0.23552 0.63136
 C223 C 0.65265 0.23787 0.65783
 C224 C 0.67570 0.24022 0.68009
 C225 C 0.73082 0.05315 0.94484
 C226 C 0.73199 0.07582 0.92104
 C227 C 0.73377 0.10248 0.89362
 C228 C 0.73562 0.12532 0.87053
 C229 C 0.73817 0.15215 0.84382
 C230 C 0.74068 0.17512 0.82132
 C231 C 0.23103 0.55343 0.44314
 C232 C 0.23205 0.57608 0.41928
 C233 C 0.23360 0.60273 0.39184
 C234 C 0.23525 0.62559 0.36878
 C235 C 0.23755 0.65246 0.34217
 C236 C 0.23984 0.67549 0.31979
 C237 C 0.26787 0.94731 0.94351
 C238 C 0.26682 0.92463 0.91978
 C239 C 0.26524 0.89795 0.89245
 C240 C 0.26358 0.87508 0.86943
 C241 C 0.26129 0.84820 0.84282
 C242 C 0.25903 0.82520 0.82039
 C243 C 0.77048 0.44658 0.44318
 C244 C 0.76941 0.42396 0.41934
 C245 C 0.76774 0.39734 0.39194
 C246 C 0.76596 0.37451 0.36890
 C247 C 0.76346 0.34767 0.34236
 C248 C 0.76095 0.32467 0.32005
 C249 C 0.05188 0.26806 0.94429
 C250 C 0.07460 0.26700 0.92055
 C251 C 0.10133 0.26539 0.89319
 C252 C 0.12423 0.26371 0.87017
 C253 C 0.15115 0.26137 0.84355
 C254 C 0.17419 0.25906 0.82113
 C255 C 0.55347 0.77013 0.44347
 C256 C 0.57611 0.76902 0.41969
 C257 C 0.60275 0.76733 0.39236
 C258 C 0.62560 0.76554 0.36939
 C259 C 0.65245 0.76303 0.34290
 C260 C 0.67545 0.76054 0.32060
 C261 C 0.94774 0.73058 0.94515
 C262 C 0.92502 0.73173 0.92136
 C263 C 0.89830 0.73346 0.89395
 C264 C 0.87541 0.73526 0.87086
 C265 C 0.84852 0.73774 0.84416
 C266 C 0.82551 0.74016 0.82163
 C267 C 0.44652 0.23091 0.44399
 C268 C 0.42388 0.23185 0.42010
 C269 C 0.39724 0.23334 0.39262
 C270 C 0.37439 0.23497 0.36951
 C271 C 0.34753 0.23730 0.34287
 C272 C 0.32452 0.23966 0.32047
 C273 C 0.73089 0.94609 0.94464
 C274 C 0.73206 0.92351 0.92074
 C275 C 0.73384 0.89692 0.89325
 C276 C 0.73569 0.87412 0.87015
 C277 C 0.73826 0.84732 0.84351
 C278 C 0.74078 0.82437 0.82109
 C279 C 0.23097 0.44629 0.44366
 C280 C 0.23206 0.42359 0.42001
 C281 C 0.23372 0.39689 0.39274
 C282 C 0.23546 0.37401 0.36978
 C283 C 0.23787 0.34714 0.34322
 C284 C 0.24025 0.32413 0.32083
 C285 C 0.26793 0.05300 0.94462
 C286 C 0.26690 0.07561 0.92062
 C287 C 0.26530 0.10222 0.89304
 C288 C 0.26360 0.12504 0.86989
 C289 C 0.26120 0.15189 0.84322
 C290 C 0.25881 0.17489 0.82081
 C291 C 0.77009 0.55369 0.44365
 C292 C 0.76881 0.57640 0.42002
 C293 C 0.76691 0.60312 0.39281
 C294 C 0.76497 0.62602 0.36990
 C295 C 0.76235 0.65291 0.34341
 C296 C 0.75982 0.67593 0.32107
 C297 C 0.05348 0.73041 0.94325
 C298 C 0.07606 0.73150 0.91930
 C299 C 0.10264 0.73320 0.89178
 C300 C 0.12544 0.73503 0.86867
 C301 C 0.15225 0.73761 0.84207
 C302 C 0.17523 0.74018 0.81973
 C303 C 0.55376 0.23134 0.44447
 C304 C 0.57649 0.23249 0.42080
 C305 C 0.60324 0.23420 0.39350
 C306 C 0.62613 0.23595 0.37047
 C307 C 0.65303 0.23835 0.34381
 C308 C 0.67604 0.24068 0.32129
 C309 C 0.94750 0.26807 0.94379
 C310 C 0.92489 0.26706 0.91980
 C311 C 0.89827 0.26550 0.89228
 C312 C 0.87541 0.26383 0.86919
 C313 C 0.84854 0.26149 0.84262
 C314 C 0.82549 0.25915 0.82031
 C315 C 0.44627 0.77014 0.44368
 C316 C 0.42354 0.76895 0.41996
 C317 C 0.39680 0.76716 0.39262
 C318 C 0.37390 0.76529 0.36958
 C319 C 0.34701 0.76273 0.34292
 C320 C 0.32399 0.76023 0.32044
 C321 C 0.26788 0.94732 0.05620
 C322 C 0.26683 0.92464 0.07994
 C323 C 0.26521 0.89794 0.10724
 C324 C 0.26350 0.87506 0.13021
 C325 C 0.26112 0.84816 0.15671
 C326 C 0.25876 0.82512 0.17902
 C327 C 0.77044 0.44634 0.55591
 C328 C 0.76928 0.42364 0.57961
 C329 C 0.76750 0.39695 0.60693
 C330 C 0.76564 0.37408 0.62996
 C331 C 0.76307 0.34724 0.65660
 C332 C 0.76055 0.32426 0.67908
 C333 C 0.73070 0.05311 0.05754
 C334 C 0.73182 0.07577 0.08123
 C335 C 0.73354 0.10244 0.10847
 C336 C 0.73537 0.12531 0.13136
 C337 C 0.73793 0.15219 0.15777
 C338 C 0.74049 0.17521 0.18000
 C339 C 0.23119 0.55360 0.55589
 C340 C 0.23235 0.57629 0.57954
 C341 C 0.23409 0.60300 0.60680
 C342 C 0.23587 0.62588 0.62975
 C343 C 0.23829 0.65276 0.65630
 C344 C 0.24065 0.67577 0.67868
 C345 C 0.94658 0.73068 0.05666
 C346 C 0.92399 0.73186 0.08057
 C347 C 0.89740 0.73365 0.10803
 C348 C 0.87458 0.73552 0.13108
 C349 C 0.84776 0.73811 0.15763
 C350 C 0.82478 0.74065 0.17995
 C351 C 0.44626 0.23114 0.55674
 C352 C 0.42353 0.23222 0.58040
 C353 C 0.39677 0.23385 0.60768
 C354 C 0.37386 0.23555 0.63066
 C355 C 0.34694 0.23791 0.65725
 C356 C 0.32389 0.24024 0.67966
 C357 C 0.05311 0.26822 0.05581
 C358 C 0.07571 0.26725 0.07980
 C359 C 0.10232 0.26571 0.10736
 C360 C 0.12515 0.26404 0.13052
 C361 C 0.15199 0.26167 0.15720
 C362 C 0.17500 0.25928 0.17962
 C363 C 0.55375 0.76984 0.55618
 C364 C 0.57648 0.76855 0.57988
 C365 C 0.60322 0.76664 0.60719
 C366 C 0.62612 0.76470 0.63020
 C367 C 0.65303 0.76209 0.65682
 C368 C 0.67605 0.75957 0.67928
   
