data_POSCAR
  _audit_creation_date              2014-09-24
  _audit_creation_method            'ToBaCCo'
  _symmetry_space_group_name_H-M    'P1'
  _symmetry_Int_Tables_number       1
  _symmetry_cell_setting            triclinic
  loop_
  _symmetry_equiv_pos_as_xyz
 x,y,z
_cell_length_a 27.3020
_cell_length_b 27.1549
_cell_length_c 25.1018
_cell_angle_alpha 88.832400
_cell_angle_beta 91.385400
_cell_angle_gamma 90.031900
loop_
  _atom_site_label
  _atom_site_type_symbol
  _atom_site_fract_x
  _atom_site_fract_y
  _atom_site_fract_z
C1 C 0.35637 0.00280 0.25266
 C2 C 0.13272 0.00572 0.75299
 C3 C 0.62299 0.51048 0.24173
 C4 C 0.86659 0.48857 0.74876
 C5 C 0.23822 0.39147 0.97973
 C6 C 0.75134 0.10849 1.01276
 C7 C 0.25792 0.61091 0.49783
 C8 C 0.74876 0.87915 0.51268
 C9 C -0.00715 0.25145 0.35812
 C10 C -0.00646 0.74963 0.12913
 C11 C 0.50635 0.25310 0.63094
 C12 C 0.50165 0.74707 0.86890
 C13 C -0.25435 0.60830 1.00508
 C14 C -0.24293 0.38796 0.50344
 C15 C 0.25144 -0.11885 0.00187
 C16 C 0.24862 1.11622 0.49262
 C17 C 0.13643 0.50551 0.24337
 C18 C -0.14152 1.01152 0.25069
 C19 C 0.35937 0.50473 -0.25650
 C20 C 0.63655 -0.01418 -0.23493
 C21 C 0.00655 0.25110 0.86687
 C22 C 0.49146 0.24274 0.13367
 C23 C 0.00423 0.74655 0.62416
 C24 C 0.49866 0.75706 0.38612
 B25 B -0.01359 0.03093 1.06091
 B26 B -0.05011 0.02382 1.00677
 B27 B -0.00235 0.06430 1.00308
 B28 B 0.04515 0.03919 1.03987
 B29 B 0.02605 -0.01611 1.06275
 B30 B -0.03344 -0.02532 1.04226
 B31 B 0.02305 -0.01995 0.95414
 B32 B 0.05998 -0.01406 1.00895
 B33 B 0.01134 -0.05325 1.01183
 B34 B -0.03528 -0.02814 0.97501
 B35 B -0.01643 0.02742 0.95259
 B36 B 0.04351 0.03598 0.97246
 B37 B 0.48794 0.53005 0.56112
 B38 B 0.45420 0.52495 0.50373
 B39 B 0.50041 0.56713 0.50796
 B40 B 0.54716 0.54133 0.54537
 B41 B 0.52883 0.48409 0.56314
 B42 B 0.47073 0.47455 0.53830
 B43 B 0.53195 0.48709 0.45514
 B44 B 0.56533 0.49076 0.51220
 B45 B 0.51824 0.44967 0.50981
 B46 B 0.47319 0.47560 0.47087
 B47 B 0.49169 0.53381 0.45277
 B48 B 0.54940 0.54269 0.47793
 B49 B 0.51992 0.98199 0.56093
 B50 B 0.55664 0.98792 0.50794
 B51 B 0.50892 0.94759 0.50489
 B52 B 0.46163 0.97247 0.53804
 B53 B 0.47977 1.02868 0.55810
 B54 B 0.53939 1.03813 0.53967
 B55 B 0.48197 1.03012 0.44914
 B56 B 0.44570 1.02409 0.50255
 B57 B 0.49310 1.06503 0.50538
 B58 B 0.54069 1.03992 0.47232
 B59 B 0.52260 0.98381 0.45254
 B60 B 0.46301 0.97426 0.47087
 B61 B 0.02168 0.46639 1.04713
 B62 B 0.04762 0.48073 0.98735
 B63 B 0.00152 0.43840 0.99044
 B64 B -0.03953 0.45752 1.03509
 B65 B -0.01858 0.51085 1.05930
 B66 B 0.03604 0.52509 1.03085
 B67 B -0.03507 0.52659 0.95278
 B68 B -0.06161 0.51262 1.01182
 B69 B -0.01501 0.55416 1.01067
 B70 B 0.02535 0.53514 0.96480
 B71 B 0.00408 0.48048 0.94011
 B72 B -0.05017 0.46770 0.96881
 B73 B 0.03336 0.52453 0.45006
 B74 B 0.06091 0.51341 0.51002
 B75 B 0.01419 0.55419 0.50621
 B76 B -0.02748 0.53389 0.46024
 B77 B -0.00638 0.47938 0.43799
 B78 B 0.04852 0.46633 0.46909
 B79 B -0.02104 0.46833 0.54604
 B80 B -0.04843 0.47986 0.48598
 B81 B -0.00202 0.43844 0.48926
 B82 B 0.03991 0.45887 0.53561
 B83 B 0.01884 0.51356 0.55788
 B84 B -0.03604 0.52652 0.52688
 B85 B 0.52896 0.01724 -0.03519
 B86 B 0.55590 0.00916 0.02550
 B87 B 0.50781 0.04847 0.01930
 B88 B 0.46768 0.02543 -0.02649
 B89 B 0.49070 -0.02905 -0.04611
 B90 B 0.54570 -0.03943 -0.01388
 B91 B 0.47422 -0.03785 0.06065
 B92 B 0.44778 -0.02838 0.00006
 B93 B 0.49548 -0.06861 0.00550
 B94 B 0.53592 -0.04537 0.05218
 B95 B 0.51292 0.00963 0.07176
 B96 B 0.45773 0.01934 0.03999
 B97 B 0.47691 0.45720 -0.06417
 B98 B 0.44121 0.47016 -0.01260
 B99 B 0.48826 0.42940 -0.00275
 B100 B 0.53578 0.44964 -0.03994
 B101 B 0.51800 0.50315 -0.06980
 B102 B 0.45897 0.51573 -0.05357
 B103 B 0.51584 0.51777 0.03683
 B104 B 0.55262 0.50509 -0.01476
 B105 B 0.50541 0.54533 -0.02373
 B106 B 0.45781 0.52509 0.01277
 B107 B 0.47564 0.47150 0.04270
 B108 B 0.53486 0.45946 0.02678
 B109 B -0.02984 0.97275 0.45005
 B110 B -0.05694 0.98135 0.50872
 B111 B -0.00801 0.94300 0.50690
 B112 B 0.03188 0.96658 0.46209
 B113 B 0.00773 1.02065 0.43869
 B114 B -0.04786 1.02956 0.46690
 B115 B 0.02351 1.02990 0.54568
 B116 B 0.05080 1.02121 0.48711
 B117 B 0.00199 1.05997 0.48832
 B118 B -0.03810 1.03631 0.53329
 B119 B -0.01376 0.98237 0.55687
 B120 B 0.04158 0.97307 0.52861
 B121 B 0.76299 0.23807 0.19436
 B122 B 0.76057 0.20580 0.25292
 B123 B 0.80160 0.25275 0.24480
 B124 B 0.77417 0.29802 0.20661
 B125 B 0.71683 0.27806 0.19204
 B126 B 0.70901 0.22066 0.21981
 B127 B 0.72415 0.28611 0.29928
 B128 B 0.72512 0.31715 0.24074
 B129 B 0.68525 0.26946 0.24761
 B130 B 0.71286 0.22592 0.28716
 B131 B 0.77111 0.24580 0.30184
 B132 B 0.77828 0.30303 0.27360
 B133 B 0.72706 0.76942 0.71437
 B134 B 0.74056 0.79525 0.77408
 B135 B 0.70166 0.74649 0.77080
 B136 B 0.72143 0.70741 0.72453
 B137 B 0.77299 0.73209 0.69990
 B138 B 0.78509 0.78678 0.72990
 B139 B 0.79055 0.71309 0.80638
 B140 B 0.77719 0.68739 0.74696
 B141 B 0.81615 0.73598 0.74854
 B142 B 0.79653 0.77509 0.79584
 B143 B 0.74417 0.75082 0.82055
 B144 B 0.73269 0.69598 0.79028
 B145 B 0.28479 0.27757 0.79837
 B146 B 0.27571 0.30741 0.73812
 B147 B 0.31765 0.26034 0.74584
 B148 B 0.29367 0.21661 0.78786
 B149 B 0.23836 0.23784 0.80621
 B150 B 0.22803 0.29383 0.77643
 B151 B 0.23458 0.22533 0.69820
 B152 B 0.24098 0.19651 0.75790
 B153 B 0.20103 0.24411 0.75274
 B154 B 0.22439 0.28582 0.70909
 B155 B 0.28103 0.26541 0.69095
 B156 B 0.29077 0.20921 0.72110
 B157 B 0.22509 0.72528 0.29772
 B158 B 0.23778 0.69569 0.24045
 B159 B 0.19536 0.74120 0.23863
 B160 B 0.21466 0.78520 0.28155
 B161 B 0.27041 0.76694 0.30785
 B162 B 0.28326 0.71058 0.28346
 B163 B 0.28138 0.77764 0.20153
 B164 B 0.26761 0.80766 0.25800
 B165 B 0.31072 0.76154 0.25895
 B166 B 0.29112 0.71738 0.21693
 B167 B 0.23694 0.73648 0.19005
 B168 B 0.22243 0.79228 0.21471
 B169 B 0.27854 0.73622 0.69003
 B170 B 0.27437 0.70369 0.74852
 B171 B 0.31477 0.75147 0.74322
 B172 B 0.28824 0.79662 0.70447
 B173 B 0.23219 0.77619 0.68696
 B174 B 0.22384 0.71827 0.71324
 B175 B 0.23392 0.78260 0.79417
 B176 B 0.23736 0.81455 0.73670
 B177 B 0.19823 0.76623 0.74034
 B178 B 0.22455 0.72247 0.78065
 B179 B 0.28157 0.74321 0.79917
 B180 B 0.28914 0.80065 0.77190
 B181 B 0.21774 0.27775 0.18268
 B182 B 0.22462 0.30626 0.24043
 B183 B 0.18239 0.26049 0.23624
 B184 B 0.20588 0.21706 0.19594
 B185 B 0.26364 0.23575 0.17855
 B186 B 0.27488 0.29124 0.20635
 B187 B 0.26305 0.22546 0.28785
 B188 B 0.25619 0.19459 0.22921
 B189 B 0.29872 0.24020 0.23574
 B190 B 0.27503 0.28500 0.27343
 B191 B 0.21844 0.26642 0.28963
 B192 B 0.20708 0.20995 0.26369
 B193 B 0.76913 0.78297 0.30041
 B194 B 0.76146 0.81161 0.24041
 B195 B 0.80089 0.76342 0.24591
 B196 B 0.77712 0.72164 0.28992
 B197 B 0.72253 0.74440 0.30915
 B198 B 0.71282 0.80032 0.27837
 B199 B 0.71636 0.73024 0.20078
 B200 B 0.72382 0.70248 0.26111
 B201 B 0.68438 0.75043 0.25607
 B202 B 0.70801 0.79194 0.21133
 B203 B 0.76295 0.76945 0.19206
 B204 B 0.77275 0.71374 0.22318
 B205 B 0.74028 0.21028 0.80017
 B206 B 0.74050 0.18033 0.74236
 B207 B 0.70142 0.22836 0.74802
 B208 B 0.72974 0.27063 0.78698
 B209 B 0.78770 0.24938 0.80249
 B210 B 0.79400 0.19290 0.77489
 B211 B 0.78009 0.26046 0.69445
 B212 B 0.77812 0.29070 0.75303
 B213 B 0.81854 0.24349 0.74553
 B214 B 0.79009 0.19962 0.70769
 B215 B 0.73289 0.22073 0.69281
 B216 B 0.72618 0.27755 0.71957
 C217 C 0.39559 1.06335 0.32379
 C218 C 0.39175 1.01626 0.30030
 C219 C 0.42605 0.98109 0.31821
 C220 C 0.46184 0.99196 0.35567
 C221 C 0.45921 1.03458 0.38771
 C222 C 0.42719 1.07175 0.36840
 H223 H 0.37444 1.09369 0.30802
 H224 H 0.42712 0.94506 0.30042
 H225 H 0.48770 0.96243 0.36323
 H226 H 0.42659 1.10719 0.38693
 C227 C -0.13312 0.51715 0.84511
 C228 C -0.10499 0.50456 0.80063
 C229 C -0.05547 0.51970 0.80221
 C230 C -0.03414 0.53931 0.84886
 C231 C -0.06113 0.54332 0.89621
 C232 C -0.11194 0.53853 0.89039
 H233 H -0.17240 0.51152 0.84413
 H234 H -0.03296 0.51740 0.76763
 H235 H 0.00500 0.54586 0.84963
 H236 H -0.13529 0.54873 0.92192
 C237 C 0.05982 0.02205 0.81373
 C238 C 0.10323 -0.00326 0.80477
 C239 C 0.11837 -0.03818 0.84454
 C240 C 0.08784 -0.05212 0.88611
 C241 C 0.04333 -0.02802 0.89404
 C242 C 0.02808 0.00596 0.85291
 H243 H 0.04894 0.05342 0.78901
 H244 H 0.15366 -0.05615 0.84303
 H245 H 0.10023 -0.08146 0.91167
 H246 H -0.00661 0.02504 0.85346
 C247 C 0.54459 0.50647 0.30279
 C248 C 0.59566 0.50456 0.29549
 C249 C 0.62507 0.49272 0.34064
 C250 C 0.60527 0.48356 0.38975
 C251 C 0.55436 0.48008 0.39663
 C252 C 0.52433 0.49014 0.35094
 H253 H 0.51966 0.52152 0.27285
 H254 H 0.66453 0.49150 0.33833
 H255 H 0.63158 0.48428 0.42172
 H256 H 0.48484 0.49135 0.35397
 C257 C 0.54547 0.49734 0.18295
 C258 C 0.59171 0.51850 0.18958
 C259 C 0.60900 0.54831 0.14663
 C260 C 0.57969 0.55867 0.10116
 C261 C 0.53410 0.53596 0.09484
 C262 C 0.51515 0.51102 0.14009
 H263 H 0.53229 0.46958 0.21048
 H264 H 0.64560 0.56359 0.14795
 H265 H 0.59455 0.58088 0.06915
 H266 H 0.47876 0.49527 0.13984
 C267 C 0.04978 1.01534 0.69572
 C268 C 0.10147 1.01350 0.70030
 C269 C 0.12733 1.02538 0.65412
 C270 C 0.10348 1.03728 0.60634
 C271 C 0.05194 1.04200 0.60183
 C272 C 0.02614 1.03448 0.64952
 H273 H 0.02648 1.00118 0.72639
 H274 H 0.16696 1.02427 0.65459
 H275 H 0.12702 1.03659 0.57326
 H276 H -0.01353 1.03563 0.64897
 C277 C -0.12505 0.48336 0.64832
 C278 C -0.10291 0.47486 0.69868
 C279 C -0.05698 0.45015 0.69890
 C280 C -0.03171 0.44235 0.65045
 C281 C -0.05307 0.45575 0.60012
 C282 C -0.10149 0.47403 0.60159
 H283 H -0.16089 0.50005 0.64398
 H284 H -0.03971 0.43847 0.73628
 H285 H 0.00540 0.42832 0.65264
 H286 H -0.12074 0.48828 0.56712
 C287 C 0.44016 -0.01510 0.20447
 C288 C 0.38800 -0.01436 0.20436
 C289 C 0.36508 -0.03191 0.15797
 C290 C 0.39166 -0.04861 0.11515
 C291 C 0.44358 -0.04958 0.11528
 C292 C 0.46655 -0.03717 0.16407
 H293 H 0.46223 0.00299 0.23433
 H294 H 0.32609 -0.02917 0.15204
 H295 H 0.36926 -0.05549 0.08123
 H296 H 0.50616 -0.03651 0.16784
 C297 C 0.29777 0.46826 -0.02284
 C298 C 0.28732 0.41843 -0.00876
 C299 C 0.32682 0.38793 0.00587
 C300 C 0.37364 0.40344 -0.00302
 C301 C 0.38513 0.45324 -0.01025
 C302 C 0.34603 0.48611 -0.01988
 H303 H 0.26992 0.49312 -0.03848
 H304 H 0.32131 0.34918 0.01481
 H305 H 0.39933 0.37481 -0.01031
 H306 H 0.35292 0.52453 -0.02937
 C307 C -0.19751 0.95779 0.53818
 C308 C -0.20260 0.90777 0.52321
 C309 C -0.15916 0.88187 0.51575
 C310 C -0.11601 0.90625 0.50742
 C311 C -0.10983 0.95628 0.51928
 C312 C -0.15129 0.98166 0.53673
 H313 H -0.22850 0.97860 0.55126
 H314 H -0.15869 0.84269 0.51040
 H315 H -0.08878 0.88535 0.48746
 H316 H -0.14852 1.02008 0.54705
 C317 C -0.19392 0.02927 1.00295
 C318 C -0.20043 0.08053 1.00731
 C319 C -0.15880 0.11078 1.00547
 C320 C -0.11368 0.09124 1.01533
 C321 C -0.10524 0.04151 1.00795
 C322 C -0.14604 0.00998 1.00137
 H323 H -0.22480 0.00463 0.99908
 H324 H -0.16187 0.15061 1.00528
 H325 H -0.08532 0.11666 1.02635
 H326 H -0.14102 -0.02917 0.99624
 C327 C 0.33040 0.57588 0.44590
 C328 C 0.30111 0.57489 0.49152
 C329 C 0.31781 0.54587 0.53573
 C330 C 0.36493 0.52647 0.53779
 C331 C 0.39717 0.53652 0.49645
 C332 C 0.37762 0.55612 0.44815
 H333 H 0.31920 0.59525 0.40961
 H334 H 0.29735 0.54417 0.57214
 H335 H 0.37691 0.50664 0.57352
 H336 H 0.40021 0.56081 0.41356
 C337 C 0.20387 0.53276 0.52727
 C338 C 0.20898 0.58333 0.51132
 C339 C 0.16509 0.60879 0.49985
 C340 C 0.12106 0.58540 0.49773
 C341 C 0.11477 0.53703 0.51689
 C342 C 0.15716 0.51070 0.53236
 H343 H 0.23461 0.50861 0.53376
 H344 H 0.16408 0.64566 0.48324
 H345 H 0.09236 0.60603 0.47732
 H346 H 0.15453 0.47224 0.54420
 C347 C 0.69769 0.03613 0.05237
 C348 C 0.70326 0.07899 0.01978
 C349 C 0.66022 0.10079 -0.00142
 C350 C 0.61532 0.08001 0.00511
 C351 C 0.60920 0.03469 0.03231
 C352 C 0.65113 0.01313 0.05707
 H353 H 0.72896 0.02020 0.07363
 H354 H 0.66012 0.13498 -0.02420
 H355 H 0.58561 0.09886 -0.01586
 H356 H 0.64809 -0.02134 0.07917
 C357 C 0.69797 0.96126 0.48818
 C358 C 0.70116 0.91142 0.50668
 C359 C 0.65700 0.88948 0.52191
 C360 C 0.61609 0.91688 0.53057
 C361 C 0.61128 0.96525 0.51134
 C362 C 0.65307 0.98750 0.48936
 H363 H 0.72929 0.97973 0.47145
 H364 H 0.65371 0.85054 0.53013
 H365 H 0.58587 0.89663 0.54602
 H366 H 0.65103 1.02459 0.47285
 C367 C 0.18740 0.46725 0.99868
 C368 C 0.19621 0.42716 0.96516
 C369 C 0.15960 0.41541 0.92705
 C370 C 0.11347 0.43784 0.92870
 C371 C 0.10261 0.46943 0.97064
 C372 C 0.14195 0.48999 0.99904
 H373 H 0.21408 0.47845 1.02854
 H374 H 0.16470 0.38587 0.89943
 H375 H 0.08500 0.42597 0.90109
 H376 H 0.13636 0.51854 1.02775
 C377 C 0.02386 0.30065 0.44207
 C378 C -0.01054 0.29522 0.39871
 C379 C -0.04641 0.33201 0.39364
 C380 C -0.04194 0.37583 0.42076
 C381 C -0.00740 0.38292 0.46309
 C382 C 0.02519 0.34353 0.47381
 H383 H 0.05156 0.27268 0.44955
 H384 H -0.07796 0.32918 0.36755
 H385 H -0.06659 0.40473 0.40715
 H386 H 0.05337 0.34689 0.50460
 C387 C 0.53311 -0.20100 -0.04840
 C388 C 0.49766 -0.20954 -0.09018
 C389 C 0.45835 -0.17650 -0.09247
 C390 C 0.46025 -0.13261 -0.06531
 C391 C 0.49368 -0.12385 -0.02222
 C392 C 0.53030 -0.15992 -0.01422
 H393 H 0.56298 -0.22614 -0.04083
 H394 H 0.42597 -0.18231 -0.11672
 H395 H 0.43449 -0.10509 -0.07975
 H396 H 0.55849 -0.15498 0.01627
 C397 C 0.03609 -0.16716 1.10732
 C398 C 0.00047 -0.20243 1.09317
 C399 C -0.03152 -0.18894 1.04958
 C400 C -0.02574 -0.14448 1.02002
 C401 C 0.01111 -0.11054 1.03405
 C402 C 0.04128 -0.12332 1.07890
 H403 H 0.05957 -0.17148 1.14233
 H404 H -0.06298 -0.21170 1.04006
 H405 H -0.05202 -0.13540 0.98837
 H406 H 0.06868 -0.09828 1.09440
 C407 C 0.55400 0.33156 0.59872
 C408 C 0.51234 0.30117 0.59545
 C409 C 0.47598 0.31546 0.55669
 C410 C 0.48052 0.35879 0.52452
 C411 C 0.52077 0.39111 0.53092
 C412 C 0.55680 0.37595 0.56970
 H413 H 0.58453 0.32290 0.62525
 H414 H 0.44331 0.29322 0.55186
 H415 H 0.45063 0.36879 0.49731
 H416 H 0.58658 0.39984 0.58125
 C417 C 0.45561 1.18054 0.58933
 C418 C 0.49765 1.21047 0.58951
 C419 C 0.53257 1.19964 0.55013
 C420 C 0.52872 1.15691 0.51841
 C421 C 0.48987 1.12305 0.52477
 C422 C 0.45380 1.13662 0.56153
 H423 H 0.42418 1.18871 0.61265
 H424 H 0.56472 1.22269 0.54638
 H425 H 0.55824 1.14849 0.49206
 H426 H 0.42463 1.11180 0.57228
 C427 C -0.00822 0.65627 1.12103
 C428 C -0.01267 0.70183 1.09433
 C429 C -0.01494 0.69950 1.03719
 C430 C -0.01783 0.65411 1.00990
 C431 C -0.01486 0.60906 1.03804
 C432 C -0.00775 0.61223 1.09434
 H433 H -0.00054 0.65397 1.16326
 H434 H -0.01212 0.73161 1.01189
 H435 H -0.02040 0.65439 0.96678
 H436 H -0.00140 0.58045 1.12008
 C437 C 0.48815 0.68968 -0.04544
 C438 C 0.50136 0.69657 -0.09960
 C439 C 0.51821 0.65497 -0.12578
 C440 C 0.51933 0.60911 -0.10145
 C441 C 0.50870 0.60163 -0.04699
 C442 C 0.49264 0.64299 -0.01931
 H443 H 0.47411 0.71992 -0.02301
 H444 H 0.52864 0.65761 -0.16714
 H445 H 0.52814 0.57947 -0.12755
 H446 H 0.48174 0.63890 0.02173
 C447 C -0.03785 1.19349 0.43453
 C448 C -0.00348 1.20366 0.39403
 C449 C 0.03440 1.16937 0.38891
 C450 C 0.03621 1.12622 0.41956
 C451 C 0.00336 1.11594 0.46137
 C452 C -0.03404 1.15089 0.46809
 H453 H -0.06795 1.21867 0.44006
 H454 H 0.06263 1.17404 0.35999
 H455 H 0.06307 1.09975 0.40776
 H456 H -0.06181 1.14414 0.49743
 C457 C 0.77470 0.61010 0.90880
 C458 C 0.76562 0.63675 0.95521
 C459 C 0.78611 0.68469 0.95681
 C460 C 0.80538 0.70755 0.91066
 C461 C 0.80622 0.68285 0.86149
 C462 C 0.79694 0.63180 0.86453
 H463 H 0.76441 0.57171 0.90651
 H464 H 0.78675 0.70525 0.99319
 H465 H 0.81461 0.74630 0.91211
 H466 H 0.80139 0.60882 0.83096
 C467 C 0.22939 0.18969 0.43024
 C468 C 0.25392 0.14537 0.43929
 C469 C 0.28531 0.12920 0.39854
 C470 C 0.29684 0.15991 0.35539
 C471 C 0.27244 0.20414 0.34732
 C472 C 0.24273 0.22080 0.38910
 H473 H 0.20104 0.20190 0.45615
 H474 H 0.30216 0.09312 0.40051
 H475 H 0.32135 0.14761 0.32569
 H476 H 0.22501 0.25639 0.38828
 C477 C 0.74984 0.30679 0.44733
 C478 C 0.74965 0.35859 0.45136
 C479 C 0.73698 0.38625 0.40543
 C480 C 0.72336 0.36380 0.35881
 C481 C 0.71859 0.31217 0.35561
 C482 C 0.73006 0.28423 0.40219
 H483 H 0.76537 0.28291 0.47809
 H484 H 0.73788 0.42613 0.40561
 H485 H 0.72204 0.38855 0.32545
 H486 H 0.72999 0.24435 0.40166
 C487 C 0.23964 0.88142 0.90221
 C488 C 0.23793 0.85353 0.94961
 C489 C 0.21809 0.80526 0.94554
 C490 C 0.21104 0.78331 0.89554
 C491 C 0.22165 0.80975 0.84857
 C492 C 0.23434 0.85979 0.85352
 H493 H 0.24861 0.92015 0.90213
 H494 H 0.20734 0.78417 0.98023
 H495 H 0.20002 0.74505 0.89394
 H496 H 0.24602 0.88254 0.82090
 C497 C 0.27933 0.87653 0.09861
 C498 C 0.26437 0.85002 0.05310
 C499 C 0.27693 0.79935 0.05343
 C500 C 0.29413 0.77556 0.10003
 C501 C 0.30078 0.80184 0.14739
 C502 C 0.30187 0.85290 0.14256
 H503 H 0.27689 0.91629 0.09834
 H504 H 0.27711 0.77793 0.01795
 H505 H 0.29808 0.73586 0.10011
 H506 H 0.31784 0.87425 0.17402
 C507 C 0.73651 0.31367 0.56192
 C508 C 0.76483 0.35578 0.55463
 C509 C 0.80219 0.36518 0.59360
 C510 C 0.81481 0.32998 0.63309
 C511 C 0.78748 0.28665 0.63762
 C512 C 0.75180 0.27718 0.59725
 H513 H 0.70485 0.30627 0.53671
 H514 H 0.82223 0.39951 0.59328
 H515 H 0.84273 0.33876 0.66270
 H516 H 0.73096 0.24338 0.59568
 C517 C 0.23719 0.12100 0.59200
 C518 C 0.24527 0.14725 0.54438
 C519 C 0.24600 0.19926 0.54738
 C520 C 0.23173 0.22317 0.59366
 C521 C 0.22518 0.19676 0.64205
 C522 C 0.23013 0.14489 0.63952
 H523 H 0.23822 0.08109 0.59278
 H524 H 0.25845 0.22249 0.51522
 H525 H 0.23187 0.26306 0.59298
 H526 H 0.23344 0.12116 0.67379
 C527 C 0.73269 0.62006 0.10371
 C528 C 0.72964 0.64101 0.05253
 C529 C 0.70813 0.68877 0.04835
 C530 C 0.69809 0.71651 0.09476
 C531 C 0.70672 0.69641 0.14670
 C532 C 0.72274 0.64664 0.14834
 H533 H 0.74680 0.58323 0.11050
 H534 H 0.70087 0.70553 0.00950
 H535 H 0.68642 0.75445 0.08992
 H536 H 0.73538 0.62818 0.18385
 C537 C 0.16348 0.58306 0.19050
 C538 C 0.17146 0.54919 0.23304
 C539 C 0.20975 0.55997 0.27006
 C540 C 0.23765 0.60261 0.26554
 C541 C 0.22266 0.63982 0.22974
 C542 C 0.18936 0.62739 0.18860
 H543 H 0.13536 0.57729 0.16021
 H544 H 0.21746 0.53661 0.30447
 H545 H 0.26604 0.60915 0.29543
 H546 H 0.18178 0.65229 0.15576
 C547 C 0.70218 0.04132 0.71593
 C548 C 0.66554 0.03483 0.75477
 C549 C 0.64984 0.07793 0.77961
 C550 C 0.67291 0.12179 0.77301
 C551 C 0.71421 0.12719 0.74124
 C552 C 0.72785 0.08662 0.71084
 H553 H 0.71153 0.01134 0.69029
 H554 H 0.61817 0.07983 0.80428
 H555 H 0.65825 0.15153 0.79572
 H556 H 0.75762 0.08995 0.68329
 C557 C 0.82389 0.08492 0.30481
 C558 C 0.82268 0.05558 0.25848
 C559 C 0.79075 0.07134 0.21654
 C560 C 0.76395 0.11495 0.21950
 C561 C 0.77394 0.14817 0.26033
 C562 C 0.79890 0.12992 0.30610
 H563 H 0.84717 0.07620 0.33903
 H564 H 0.78948 0.05226 0.17914
 H565 H 0.73937 0.12495 0.18665
 H566 H 0.80442 0.15289 0.34049
 C567 C 0.33500 0.58012 0.79904
 C568 C 0.32711 0.54979 0.75470
 C569 C 0.29232 0.56542 0.71543
 C570 C 0.27382 0.61321 0.71498
 C571 C 0.28793 0.64623 0.75491
 C572 C 0.31389 0.62721 0.79999
 H573 H 0.35975 0.56920 0.83144
 H574 H 0.28393 0.54267 0.68146
 H575 H 0.25063 0.62481 0.68149
 H576 H 0.32258 0.65052 0.83340
 C577 C 0.33624 0.42835 0.68433
 C578 C 0.32526 0.46107 0.72579
 C579 C 0.28242 0.44993 0.75411
 C580 C 0.26183 0.40275 0.75245
 C581 C 0.28532 0.36524 0.72459
 C582 C 0.31601 0.38088 0.68363
 H583 H 0.36201 0.43723 0.65382
 H584 H 0.26795 0.47570 0.78207
 H585 H 0.23200 0.39443 0.77877
 H586 H 0.32847 0.35521 0.65442
 C587 C 0.78167 0.95528 0.22024
 C588 C 0.83094 0.96120 0.23951
 C589 C 0.85516 0.91713 0.25557
 C590 C 0.83174 0.87269 0.25786
 C591 C 0.78484 0.86595 0.23553
 C592 C 0.75972 0.90811 0.21648
 H593 H 0.75839 0.98574 0.20928
 H594 H 0.89181 0.91642 0.27260
 H595 H 0.85154 0.84344 0.27862
 H596 H 0.72234 0.90504 0.20151
 C597 C 0.64744 0.89787 0.79982
 C598 C 0.66960 0.93993 0.77719
 C599 C 0.72117 0.93778 0.77118
 C600 C 0.74629 0.89252 0.77588
 C601 C 0.72079 0.84915 0.78921
 C602 C 0.67367 0.85473 0.80913
 H603 H 0.60914 0.89810 0.81012
 H604 H 0.74269 0.96961 0.76122
 H605 H 0.78429 0.89090 0.76462
 H606 H 0.65566 0.82575 0.83045
 C607 C 0.13528 0.41358 0.25120
 C608 C 0.16431 0.45604 0.25294
 C609 C 0.21612 0.44887 0.25492
 C610 C 0.23574 0.40107 0.25757
 C611 C 0.20513 0.36103 0.24600
 C612 C 0.15581 0.37100 0.23420
 H613 H 0.09577 0.41538 0.25165
 H614 H 0.24232 0.47825 0.25279
 H615 H 0.27495 0.39599 0.26238
 H616 H 0.13173 0.34541 0.21451
 C617 C 0.06752 0.28439 0.79621
 C618 C 0.05504 0.24789 0.83500
 C619 C 0.08735 0.20793 0.84117
 C620 C 0.13183 0.20724 0.81530
 C621 C 0.14425 0.24205 0.77484
 C622 C 0.11051 0.28086 0.76580
 H623 H 0.04396 0.31601 0.78943
 H624 H 0.07996 0.17695 0.86722
 H625 H 0.15724 0.17933 0.82953
 H626 H 0.11875 0.31019 0.73756
 C627 C 0.55169 0.78796 0.30577
 C628 C 0.54233 0.75184 0.34645
 C629 C 0.57418 0.71142 0.34864
 C630 C 0.61760 0.71193 0.32092
 C631 C 0.62833 0.74765 0.28063
 C632 C 0.59339 0.78549 0.27308
 H633 H 0.52783 0.81955 0.30074
 H634 H 0.56780 0.67944 0.37352
 H635 H 0.64367 0.68417 0.33380
 H636 H 0.59992 0.81505 0.24454
 C637 C 0.56661 0.29623 0.16120
 C638 C 0.53720 0.25454 0.17031
 C639 C 0.55041 0.22452 0.21549
 C640 C 0.59440 0.23241 0.24515
 C641 C 0.62664 0.27085 0.23102
 C642 C 0.61053 0.30287 0.18891
 H643 H 0.55799 0.32364 0.13082
 H644 H 0.52804 0.19300 0.22588
 H645 H 0.60492 0.20608 0.27631
 H646 H 0.63363 0.33166 0.17318
 C647 C 0.08407 0.79354 0.64802
 C648 C 0.05093 0.75568 0.66024
 C649 C 0.06225 0.72623 0.70656
 C650 C 0.10656 0.73197 0.73594
 C651 C 0.14078 0.76791 0.72062
 C652 C 0.12739 0.79906 0.67671
 H653 H 0.07869 0.81882 0.61483
 H654 H 0.03770 0.69689 0.71846
 H655 H 0.11522 0.70646 0.76851
 H656 H 0.15199 0.82676 0.66123
 C657 C 0.91667 0.71615 0.64098
 C658 C 0.95899 0.73894 0.66099
 C659 C 0.95547 0.76042 0.71240
 C660 C 0.91185 0.75833 0.74174
 C661 C 0.86987 0.73541 0.72064
 C662 C 0.87391 0.71461 0.66937
 H663 H 0.91492 0.70003 0.60231
 H664 H 0.98555 0.78143 0.72911
 H665 H 0.91056 0.77608 0.77991
 H666 H 0.84378 0.69562 0.65007
 C667 C 0.42328 0.19326 0.18398
 C668 C 0.44751 0.23815 0.17284
 C669 C 0.43332 0.27839 0.20412
 C670 C 0.38767 0.27849 0.22898
 C671 C 0.35827 0.23578 0.23036
 C672 C 0.38125 0.19217 0.21538
 H673 H 0.43688 0.15875 0.16950
 H674 H 0.45461 0.31207 0.20373
 H675 H 0.37431 0.31287 0.24417
 H676 H 0.36740 0.15735 0.22839
 C677 C 0.43521 0.71722 0.32315
 C678 C 0.45259 0.75997 0.34829
 C679 C 0.43221 0.80528 0.32965
 C680 C 0.39230 0.80666 0.29296
 C681 C 0.36862 0.76325 0.27722
 C682 C 0.39358 0.71860 0.28941
 H683 H 0.45274 0.68204 0.33147
 H684 H 0.44772 0.83993 0.34234
 H685 H 0.38020 0.84172 0.27710
 H686 H 0.37950 0.68384 0.27525
 C687 C 0.95059 0.20717 0.79608
 C688 C 0.96479 0.25109 0.82185
 C689 C 0.94285 0.29463 0.80037
 C690 C 0.90178 0.29261 0.76512
 C691 C 0.87846 0.24762 0.75394
 C692 C 0.90661 0.20489 0.76546
 H693 H 0.97035 0.17326 0.80469
 H694 H 0.95676 0.33043 0.81130
 H695 H 0.88735 0.32651 0.74845
 H696 H 0.89298 0.16902 0.75423
 C697 C 0.57431 1.01849 0.69790
 C698 C 0.60248 0.97820 0.71575
 C699 C 0.59632 0.93350 0.68791
 C700 C 0.56505 0.93108 0.64228
 C701 C 0.54097 0.97356 0.62205
 C702 C 0.54283 1.01550 0.65478
 H703 H 0.57547 1.05316 0.71830
 H704 H 0.61561 0.90039 0.70039
 H705 H 0.56002 0.89604 0.62356
 H706 H 0.52314 1.04920 0.64536
 C707 C 0.05244 0.48295 1.19518
 C708 C 0.10314 0.49369 1.19270
 C709 C 0.12686 0.47658 1.14676
 C710 C 0.10115 0.45242 1.10572
 C711 C 0.04995 0.45172 1.10349
 C712 C 0.02671 0.46196 1.15196
 H713 H 0.03235 0.48804 1.23103
 H714 H 0.16642 0.47836 1.14477
 H715 H 0.12127 0.43564 1.07463
 H716 H -0.01265 0.45820 1.15472
 C717 C -0.10151 0.06966 1.17674
 C718 C -0.10605 0.02320 1.20374
 C719 C -0.07204 -0.01275 1.19023
 C720 C -0.03487 -0.00276 1.15568
 C721 C -0.03657 0.03857 1.12024
 C722 C -0.06883 0.07645 1.13398
 H723 H -0.12318 0.10078 1.18769
 H724 H -0.07023 -0.04811 1.20989
 H725 H -0.00864 -0.03227 1.15265
 H726 H -0.06892 0.11117 1.11236
 C727 C 0.39663 0.56514 0.66997
 C728 C 0.39504 0.51892 0.69808
 C729 C 0.43225 0.48525 0.68792
 C730 C 0.46994 0.49758 0.65550
 C731 C 0.46535 0.53759 0.61876
 C732 C 0.43000 0.57328 0.62872
 H733 H 0.37170 0.59458 0.67766
 H734 H 0.43414 0.44981 0.70860
 H735 H 0.49869 0.47034 0.65466
 H736 H 0.42649 0.60570 0.60311
 C737 C 0.44239 0.49666 -0.20158
 C738 C 0.39140 0.48723 -0.20604
 C739 C 0.37270 0.45592 -0.16614
 C740 C 0.40323 0.43225 -0.12762
 C741 C 0.45344 0.44340 -0.12275
 C742 C 0.47296 0.46932 -0.16677
 H743 H 0.45985 0.52399 -0.22664
 H744 H 0.33409 0.45091 -0.16308
 H745 H 0.38646 0.40748 -0.09988
 H746 H 0.51188 0.47664 -0.16861
 C747 C -0.13591 0.98263 0.34797
 C748 C -0.11101 1.00153 0.30354
 C749 C -0.05925 0.99854 0.30594
 C750 C -0.03475 0.97268 0.34727
 C751 C -0.05896 0.96004 0.39469
 C752 C -0.11075 0.96238 0.39199
 H753 H -0.17562 0.98269 0.34793
 H754 H -0.03674 1.01506 0.27576
 H755 H 0.00485 0.97093 0.34589
 H756 H -0.13339 0.95272 0.42444
 C757 C 0.13232 0.50575 0.34493
 C758 C 0.10940 0.51844 0.29580
 C759 C 0.06676 0.54823 0.29857
 C760 C 0.04338 0.55554 0.34798
 C761 C 0.06498 0.53825 0.39662
 C762 C 0.11215 0.51723 0.39314
 H763 H 0.16640 0.48551 0.34707
 H764 H 0.05011 0.56387 0.26253
 H765 H 0.00758 0.57265 0.34781
 H766 H 0.13193 0.50264 0.42747
 C767 C 0.55516 0.00525 -0.18409
 C768 C 0.60585 -0.00652 -0.18401
 C769 C 0.63223 -0.00122 -0.13597
 C770 C 0.60970 0.01390 -0.09045
 C771 C 0.55920 0.02648 -0.08971
 C772 C 0.53333 0.02461 -0.13894
 H773 H 0.53150 0.00003 -0.21844
 H774 H 0.67117 -0.00897 -0.13360
 H775 H 0.63219 0.00896 -0.05534
 H776 H 0.49433 0.03196 -0.14096
 C777 C 0.68765 0.53596 0.02790
 C778 C 0.70001 0.57566 -0.00696
 C779 C 0.66721 0.58624 -0.04962
 C780 C 0.62343 0.55977 -0.05559
 C781 C 0.60879 0.52436 -0.01729
 C782 C 0.64355 0.51007 0.02201
 H783 H 0.71171 0.52513 0.06084
 H784 H 0.67451 0.61579 -0.07789
 H785 H 0.60097 0.56808 -0.09005
 H786 H 0.63518 0.48149 0.05109
 C787 C 0.15702 1.11450 0.49939
 C788 C 0.19940 1.08849 0.48614
 C789 C 0.19259 1.04179 0.46296
 C790 C 0.14542 1.01988 0.46047
 C791 C 0.10436 1.04512 0.47939
 C792 C 0.11170 1.09306 0.49807
 H793 H 0.15845 1.15167 0.51393
 H794 H 0.22320 1.02221 0.44696
 H795 H 0.14132 0.98314 0.44504
 H796 H 0.08293 1.11379 0.51601
 C797 C 0.20321 -0.03710 1.02584
 C798 C 0.20573 -0.08805 1.01450
 C799 C 0.16159 -0.11370 1.01260
 C800 C 0.11821 -0.08922 1.00583
 C801 C 0.11407 -0.03826 1.01220
 C802 C 0.15745 -0.01238 1.02473
 H803 H 0.23553 -0.01644 1.03676
 H804 H 0.16037 -0.15328 1.01030
 H805 H 0.08856 -0.11172 0.99187
 H806 H 0.15616 0.02660 1.03282
 C807 C 0.70662 0.46323 0.53696
 C808 C 0.70979 0.41728 0.51168
 C809 C 0.66596 0.39518 0.49433
 C810 C 0.62339 0.42074 0.49159
 C811 C 0.61882 0.46682 0.51520
 C812 C 0.66097 0.48786 0.53904
 H813 H 0.73895 0.47996 0.55461
 H814 H 0.66435 0.35855 0.47832
 H815 H 0.59375 0.40335 0.46975
 H816 H 0.65884 0.52320 0.55804
 C817 C -0.19177 0.46643 0.47483
 C818 C -0.19610 0.41651 0.49165
 C819 C -0.15390 0.38768 0.49361
 C820 C -0.10966 0.40968 0.49735
 C821 C -0.10269 0.45844 0.47952
 C822 C -0.14477 0.48683 0.46653
 H823 H -0.22380 0.48916 0.46754
 H824 H -0.15533 0.34828 0.50144
 H825 H -0.08130 0.38720 0.51579
 H826 H -0.14134 0.52513 0.45439
 C827 C 0.30612 -0.04113 -0.02484
 C828 C 0.29985 -0.09150 -0.01033
 C829 C 0.34199 -0.12072 -0.00733
 C830 C 0.38622 -0.09941 0.00187
 C831 C 0.39425 -0.04956 -0.01057
 C832 C 0.35351 -0.02051 -0.02610
 H833 H 0.27550 -0.01798 -0.03665
 H834 H 0.34051 -0.16030 -0.00350
 H835 H 0.41345 -0.12271 0.02127
 H836 H 0.35790 0.01816 -0.03620
 C837 C 0.30208 1.03628 0.51347
 C838 C 0.29661 1.08718 0.50211
 C839 C 0.33934 1.11525 0.49602
 C840 C 0.38277 1.09275 0.48579
 C841 C 0.39038 1.04333 0.49942
 C842 C 0.34931 1.01480 0.51394
 H843 H 0.27094 1.01360 0.52330
 H844 H 0.33758 1.15495 0.49060
 H845 H 0.41137 1.11615 0.47114
 H846 H 0.35354 0.97624 0.52487
 C847 C -0.20306 0.52754 1.00117
 C848 C -0.20962 0.57549 1.02133
 C849 C -0.16989 0.59652 1.04920
 C850 C -0.12487 0.57276 1.05300
 C851 C -0.11640 0.52920 1.02544
 C852 C -0.15732 0.50418 1.00455
 H853 H -0.23180 0.50950 0.97853
 H854 H -0.17278 0.63284 1.06587
 H855 H -0.09661 0.59047 1.07568
 H856 H -0.15302 0.46936 0.98491
 C857 C -0.01640 0.69262 0.54046
 C858 C 0.01147 0.70001 0.58848
 C859 C 0.04487 0.66241 0.60313
 C860 C 0.04734 0.61896 0.57502
 C861 C 0.01773 0.61022 0.52912
 C862 C -0.01364 0.64852 0.51169
 H863 H -0.04229 0.72031 0.52614
 H864 H 0.06910 0.66457 0.63727
 H865 H 0.07195 0.59107 0.59141
 H866 H -0.03766 0.64365 0.47724
 C867 C 0.46330 0.18086 0.06132
 C868 C 0.49802 0.19432 0.10149
 C869 C 0.53869 0.16298 0.10913
 C870 C 0.54241 0.11897 0.08176
 C871 C 0.50852 0.10536 0.04100
 C872 C 0.46894 0.13790 0.03102
 H873 H 0.43134 0.20372 0.05356
 H874 H 0.56772 0.17068 0.13754
 H875 H 0.57128 0.09449 0.09554
 H876 H 0.44060 0.12869 0.00199
 C877 C -0.04168 0.17826 0.91096
 C878 C 0.00059 0.20768 0.90938
 C879 C 0.03645 0.19732 0.95040
 C880 C 0.03324 0.15530 0.98475
 C881 C -0.00578 0.12159 0.97947
 C882 C -0.04255 0.13450 0.94071
 H883 H -0.07415 0.18690 0.88736
 H884 H 0.06883 0.22001 0.95395
 H885 H 0.06327 0.14731 1.01253
 H886 H -0.07195 0.10959 0.93053
 C887 C 0.45153 0.68945 0.44191
 C888 C 0.49579 0.71347 0.42877
 C889 C 0.53708 0.70004 0.46121
 C890 C 0.53744 0.65630 0.49256
 C891 C 0.49509 0.62671 0.49679
 C892 C 0.45125 0.64770 0.47622
 H893 H 0.41677 0.70243 0.42555
 H894 H 0.57078 0.72084 0.45820
 H895 H 0.57199 0.64384 0.51009
 H896 H 0.41661 0.63132 0.48505
 C897 C 0.54561 0.83363 0.42018
 C898 C 0.50368 0.80375 0.42087
 C899 C 0.46693 0.81630 0.45724
 C900 C 0.47126 0.85819 0.48954
 C901 C 0.51167 0.89030 0.48527
 C902 C 0.54822 0.87666 0.44913
 H903 H 0.57649 0.82553 0.39584
 H904 H 0.43423 0.79393 0.46002
 H905 H 0.44119 0.86738 0.51484
 H906 H 0.57825 0.90086 0.43963
 C907 C -0.03891 0.31706 0.91921
 C908 C 0.00585 0.29797 0.90188
 C909 C 0.04889 0.31655 0.92713
 C910 C 0.04699 0.35558 0.96341
 C911 C 0.00305 0.38092 0.97153
 C912 C -0.04032 0.35826 0.95195
 H913 H -0.07331 0.30085 0.90629
 H914 H 0.08421 0.30036 0.91971
 H915 H 0.08037 0.36703 0.98349
 H916 H -0.07599 0.37325 0.96023
 C917 C 0.51670 0.29148 0.04699
 C918 C 0.48386 0.28499 0.09003
 C919 C 0.44808 0.32155 0.09435
 C920 C 0.45213 0.36635 0.06760
 C921 C 0.48393 0.37384 0.02439
 C922 C 0.51604 0.33473 0.01411
 H923 H 0.54479 0.26423 0.04072
 H924 H 0.41726 0.31800 0.11980
 H925 H 0.42783 0.39499 0.08035
 H926 H 0.54273 0.33877 -0.01687
 C927 C 0.01946 0.80122 0.53833
 C928 C -0.00520 0.79301 0.58723
 C929 C -0.03251 0.83247 0.60600
 C930 C -0.03417 0.87744 0.57932
 C931 C -0.00931 0.88656 0.53117
 C932 C 0.01725 0.84720 0.51071
 H933 H 0.04303 0.77306 0.52304
 H934 H -0.05153 0.83035 0.64306
 H935 H -0.05540 0.90560 0.59800
 H936 H 0.03792 0.85248 0.47478
 C937 C 0.19173 0.32108 0.03286
 C938 C 0.22138 0.36414 0.03128
 C939 C 0.23390 0.38478 0.08020
 C940 C 0.22717 0.35935 0.12719
 C941 C 0.20605 0.31176 0.12946
 C942 C 0.18611 0.29385 0.08130
 H943 H 0.17628 0.30648 -0.00367
 H944 H 0.25277 0.41972 0.08274
 H945 H 0.24525 0.37601 0.16054
 H946 H 0.16868 0.25806 0.08054
 C947 C 0.73432 0.87198 0.61184
 C948 C 0.74040 0.84645 0.56394
 C949 C 0.72314 0.79705 0.56391
 C950 C 0.70873 0.77306 0.61132
 C951 C 0.70866 0.79804 0.66015
 C952 C 0.71490 0.84917 0.65687
 H953 H 0.74088 0.91124 0.61320
 H954 H 0.71754 0.77723 0.52756
 H955 H 0.70098 0.73396 0.61041
 H956 H 0.70773 0.87165 0.69002
 C957 C 0.23723 0.68412 0.55558
 C958 C 0.27082 0.64703 0.54460
 C959 C 0.31595 0.64836 0.57501
 C960 C 0.32181 0.67868 0.61993
 C961 C 0.28533 0.71257 0.63185
 C962 C 0.24635 0.71822 0.59398
 H963 H 0.20461 0.69042 0.53204
 H964 H 0.34704 0.62629 0.56545
 H965 H 0.35406 0.67505 0.64561
 H966 H 0.21851 0.74630 0.59581
 C967 C 0.79557 0.13883 0.09940
 C968 C 0.75615 0.14216 0.06133
 C969 C 0.72271 0.18038 0.06631
 C970 C 0.73290 0.21828 0.09997
 C971 C 0.77133 0.21434 0.13865
 C972 C 0.80517 0.17656 0.13481
 H973 H 0.81931 0.10704 0.10238
 H974 H 0.69071 0.18404 0.04046
 H975 H 0.70666 0.24809 0.09853
 H976 H 0.83478 0.17252 0.16395
 C977 C 0.74442 0.10964 0.91262
 C978 C 0.74737 0.13755 0.95882
 C979 C 0.74574 0.18955 0.95254
 C980 C 0.73455 0.21164 0.90309
 C981 C 0.73309 0.18345 0.85687
 C982 C 0.74173 0.13232 0.86309
 H983 H 0.74749 0.06986 0.91484
 H984 H 0.75397 0.21423 0.98448
 H985 H 0.73256 0.25146 0.90049
 H986 H 0.74992 0.10898 0.83044
 C987 C 0.21930 0.62062 0.40172
 C988 C 0.24726 0.64134 0.44432
 C989 C 0.25509 0.69256 0.44098
 C990 C 0.23227 0.72158 0.40134
 C991 C 0.21097 0.70036 0.35525
 C992 C 0.19918 0.65030 0.35982
 H993 H 0.21061 0.58171 0.40256
 H994 H 0.27775 0.71142 0.46994
 H995 H 0.23818 0.76093 0.40343
 H996 H 0.17593 0.63381 0.32976
 C997 C 0.75387 0.88017 0.41086
 C998 C 0.75626 0.85189 0.45850
 C999 C 0.77660 0.80386 0.45406
 C1000 C 0.78785 0.78389 0.40428
 C1001 C 0.78035 0.81115 0.35644
 C1002 C 0.76529 0.86063 0.36172
 H1003 H 0.74279 0.91824 0.41081
 H1004 H 0.78639 0.78182 0.48893
 H1005 H 0.79986 0.74594 0.40313
 H1006 H 0.75725 0.88408 0.32760
 C1007 C 0.26391 0.30648 0.94144
 C1008 C 0.25293 0.35727 0.93366
 C1009 C 0.27247 0.38023 0.88789
 C1010 C 0.30096 0.35377 0.85287
 C1011 C 0.29960 0.30284 0.85350
 C1012 C 0.28610 0.27958 0.90161
 H1013 H 0.25727 0.28693 0.97825
 H1014 H 0.26931 0.41969 0.88217
 H1015 H 0.32033 0.37215 0.82169
 H1016 H 0.28842 0.23991 0.90640
 C1017 C 0.79687 0.42985 0.72250
 C1018 C 0.83394 0.44311 0.75968
 C1019 C 0.84488 0.40918 0.80178
 C1020 C 0.82279 0.36265 0.80344
 C1021 C 0.79226 0.34747 0.76092
 C1022 C 0.77508 0.38358 0.72445
 H1023 H 0.78598 0.45421 0.68985
 H1024 H 0.87296 0.41668 0.83162
 H1025 H 0.83413 0.33688 0.83482
 H1026 H 0.74780 0.37497 0.69405
 C1027 C 0.27934 0.94878 0.23567
 C1028 C 0.32134 0.95895 0.26793
 C1029 C 0.32898 0.92655 0.31233
 C1030 C 0.30709 0.87985 0.31327
 C1031 C 0.27775 0.86487 0.26988
 C1032 C 0.25720 0.90240 0.23725
 H1033 H 0.26546 0.97525 0.20630
 H1034 H 0.35302 0.93515 0.34544
 H1035 H 0.31734 0.85409 0.34510
 H1036 H 0.22858 0.89459 0.20803
 C1037 C 0.13805 0.91488 0.74601
 C1038 C 0.16297 0.95947 0.74123
 C1039 C 0.21219 0.95793 0.72422
 C1040 C 0.23593 0.91209 0.71807
 C1041 C 0.21198 0.86815 0.73310
 C1042 C 0.16401 0.87220 0.75171
 H1043 H 0.09937 0.91371 0.75473
 H1044 H 0.23202 0.99140 0.71513
 H1045 H 0.27338 0.91121 0.70493
 H1046 H 0.14530 0.84268 0.77193
 C1047 C 0.62871 0.41902 0.25187
 C1048 C 0.65112 0.46234 0.23362
 C1049 C 0.69721 0.45819 0.20947
 C1050 C 0.72155 0.41212 0.20932
 C1051 C 0.70068 0.37079 0.23508
 C1052 C 0.65497 0.37673 0.25860
 H1053 H 0.59179 0.41848 0.26662
 H1054 H 0.71433 0.49014 0.19138
 H1055 H 0.75682 0.40922 0.19084
 H1056 H 0.63834 0.34841 0.28294
 C1057 C 0.70211 0.55938 0.27248
 C1058 C 0.65333 0.55697 0.25175
 C1059 C 0.62743 0.60090 0.24493
 C1060 C 0.65173 0.64428 0.24353
 C1061 C 0.69924 0.64906 0.26589
 C1062 C 0.72422 0.60561 0.28189
 H1063 H 0.72273 0.52629 0.28211
 H1064 H 0.58882 0.60152 0.23375
 H1065 H 0.63186 0.67410 0.22403
 H1066 H 0.76153 0.60728 0.29734
 C1067 C 0.14104 0.09728 0.74393
 C1068 C 0.16233 0.05320 0.76242
 C1069 C 0.20885 0.05602 0.78866
 C1070 C 0.23495 0.10124 0.78971
 C1071 C 0.21507 0.14333 0.76351
 C1072 C 0.16833 0.13886 0.73896
 H1073 H 0.10385 0.09936 0.72822
 H1074 H 0.22515 0.02352 0.80737
 H1075 H 0.27066 0.10290 0.80927
 H1076 H 0.15134 0.16804 0.71522
 C1077 C 0.28534 0.06032 0.27270
 C1078 C 0.32280 0.04751 0.23769
 C1079 C 0.32675 0.07620 0.19031
 C1080 C 0.29919 0.11977 0.18271
 C1081 C 0.26999 0.13700 0.22392
 C1082 C 0.25783 0.10321 0.26445
 H1083 H 0.27896 0.03826 0.30829
 H1084 H 0.35338 0.06750 0.16077
 H1085 H 0.30643 0.14313 0.14832
 H1086 H 0.23112 0.11241 0.29382
 C1087 C 0.86628 0.57815 0.72540
 C1088 C 0.83752 0.53642 0.73477
 C1089 C 0.78629 0.54354 0.73943
 C1090 C 0.76602 0.59133 0.73570
 C1091 C 0.79699 0.63292 0.73496
 C1092 C 0.84757 0.62416 0.73338
 H1093 H 0.90558 0.57492 0.72172
 H1094 H 0.76193 0.51352 0.74889
 H1095 H 0.72690 0.59575 0.73985
 H1096 H 0.87460 0.65078 0.74397
 C1097 C 0.91459 0.79584 0.15784
 C1098 C 0.94742 0.75602 0.16575
 C1099 C 0.93518 0.72237 0.20777
 C1100 C 0.89177 0.72709 0.23724
 C1101 C 0.85780 0.76502 0.22552
 C1102 C 0.87060 0.79864 0.18449
 H1103 H 0.92068 0.82536 0.12966
 H1104 H 0.95918 0.69246 0.21934
 H1105 H 0.88365 0.69940 0.26740
 H1106 H 0.84544 0.82678 0.17005
 C1107 C 0.44748 0.21722 0.70196
 C1108 C 0.46286 0.25814 0.67069
 C1109 C 0.44062 0.30365 0.68229
 C1110 C 0.39995 0.30583 0.71593
 C1111 C 0.37680 0.26279 0.73471
 C1112 C 0.40401 0.21880 0.73104
 H1113 H 0.46655 0.18239 0.69969
 H1114 H 0.45471 0.33788 0.66606
 H1115 H 0.38665 0.34125 0.72683
 H1116 H 0.39024 0.18463 0.74784
 C1117 C 0.43441 0.70327 0.80761
 C1118 C 0.45890 0.74688 0.82422
 C1119 C 0.44454 0.79024 0.79524
 C1120 C 0.40153 0.79167 0.76291
 C1121 C 0.37390 0.74860 0.75347
 C1122 C 0.39577 0.70430 0.76986
 H1123 H 0.44313 0.66725 0.82327
 H1124 H 0.46421 0.82439 0.80128
 H1125 H 0.38823 0.82715 0.74844
 H1126 H 0.38148 0.67001 0.75585
 C1127 C 0.92312 0.20445 0.30711
 C1128 C 0.94793 0.24890 0.31801
 C1129 C 0.93507 0.28951 0.28407
 C1130 C 0.89058 0.29001 0.25449
 C1131 C 0.86093 0.24759 0.25210
 C1132 C 0.88232 0.20374 0.27200
 H1133 H 0.93550 0.16976 0.32453
 H1134 H 0.95696 0.32278 0.28468
 H1135 H 0.87797 0.32450 0.23664
 H1136 H 0.86734 0.16888 0.26133
 C1137 C 0.07379 0.29395 0.33046
 C1138 C 0.03829 0.25774 0.32126
 C1139 C 0.04583 0.22705 0.27662
 C1140 C 0.08861 0.23056 0.24573
 C1141 C 0.12584 0.26456 0.25842
 C1142 C 0.11672 0.29536 0.30234
 H1143 H 0.07070 0.32092 0.36097
 H1144 H 0.01944 0.19867 0.26694
 H1145 H 0.09383 0.20465 0.21416
 H1146 H 0.14408 0.32031 0.31790
 C1147 C 0.59437 0.73345 0.86894
 C1148 C 0.55252 0.75149 0.84113
 C1149 C 0.55930 0.76680 0.78704
 C1150 C 0.60554 0.76425 0.76305
 C1151 C 0.64621 0.74526 0.79182
 C1152 C 0.63890 0.72882 0.84477
 H1153 H 0.59250 0.71881 0.90916
 H1154 H 0.52959 0.78057 0.76215
 H1155 H 0.60959 0.77768 0.72248
 H1156 H 0.66810 0.71281 0.86934
 C1157 C 0.56709 0.27438 0.70984
 C1158 C 0.55261 0.24210 0.66836
 C1159 C 0.58084 0.19899 0.66449
 C1160 C 0.62495 0.19270 0.69316
 C1161 C 0.64235 0.22693 0.73120
 C1162 C 0.61102 0.26708 0.74038
 H1163 H 0.54567 0.30709 0.71661
 H1164 H 0.57074 0.16996 0.63774
 H1165 H 0.64704 0.16226 0.68111
 H1166 H 0.62228 0.29508 0.76822
 C1167 C 0.04917 0.74871 0.21894
 C1168 C 0.04247 0.74168 0.16308
 C1169 C 0.08476 0.73170 0.13466
 C1170 C 0.13091 0.73096 0.15898
 C1171 C 0.13863 0.73626 0.21473
 C1172 C 0.09636 0.74508 0.24437
 H1173 H 0.01876 0.75899 0.24305
 H1174 H 0.08248 0.72788 0.09178
 H1175 H 0.16065 0.72794 0.13175
 H1176 H 0.10003 0.75171 0.28666
   
