data_POSCAR
  _audit_creation_date              2014-09-24
  _audit_creation_method            'ToBaCCo'
  _symmetry_space_group_name_H-M    'P1'
  _symmetry_Int_Tables_number       1
  _symmetry_cell_setting            triclinic
  loop_
  _symmetry_equiv_pos_as_xyz
 x,y,z
_cell_length_a 17.0087
_cell_length_b 17.0550
_cell_length_c 21.5228
_cell_angle_alpha 90.269300
_cell_angle_beta 88.898100
_cell_angle_gamma 120.119400
loop_
  _atom_site_label
  _atom_site_type_symbol
  _atom_site_fract_x
  _atom_site_fract_y
  _atom_site_fract_z
C1 C 0.08536 0.53643 1.37795
 C2 C 0.00259 0.51366 1.40768
 C3 C -0.08084 0.45013 1.38248
 C4 C -0.08326 0.42789 1.31871
 C5 C -0.00034 0.46747 1.28367
 C6 C 0.08456 0.51487 1.31433
 C7 C 0.16559 0.55128 1.27880
 C8 C 0.16358 0.55186 1.21421
 C9 C 0.08053 0.51536 1.18324
 C10 C -0.00235 0.46750 1.21779
 C11 C -0.16602 0.37918 1.28729
 C12 C -0.16795 0.37874 1.22238
 C13 C -0.08720 0.42686 1.18683
 C14 C -0.08813 0.44598 1.12270
 C15 C -0.00562 0.50468 1.09233
 C16 C 0.07778 0.53228 1.11953
 H17 H 0.23131 0.58700 1.30041
 H18 H 0.22789 0.58756 1.18913
 H19 H -0.23045 0.34763 1.31241
 H20 H -0.23366 0.34656 1.20066
 H21 H 0.00348 0.53812 1.45414
 H22 H -0.00585 0.52334 1.04443
 C23 C 0.48890 0.56752 1.38420
 C24 C 0.53715 0.53273 1.41388
 C25 C 0.57293 0.48608 1.38139
 C26 C 0.56705 0.48027 1.31604
 C27 C 0.52265 0.52014 1.28489
 C28 C 0.48184 0.56235 1.31917
 C29 C 0.43503 0.59808 1.28769
 C30 C 0.43004 0.59448 1.22327
 C31 C 0.47183 0.55519 1.18848
 C32 C 0.51743 0.51632 1.21942
 C33 C 0.60368 0.43571 1.28113
 C34 C 0.59891 0.43232 1.21650
 C35 C 0.55721 0.47318 1.18485
 C36 C 0.55455 0.47343 1.11940
 C37 C 0.51682 0.51909 1.09059
 C38 C 0.47051 0.55421 1.12328
 H39 H 0.40289 0.63017 1.31262
 H40 H 0.39428 0.62383 1.20085
 H41 H 0.63750 0.40431 1.30358
 H42 H 0.62915 0.39852 1.19142
 H43 H 0.54534 0.54042 1.46354
 H44 H 0.52631 0.53058 1.04169
 C45 C 0.51166 1.08219 1.11889
 C46 C 0.46989 0.99951 1.08803
 C47 C 0.43068 0.91683 1.11936
 C48 C 0.42795 0.91562 1.18512
 C49 C 0.46814 0.99933 1.21777
 C50 C 0.50869 1.08301 1.18445
 C51 C 0.54905 1.16485 1.21741
 C52 C 0.55439 1.16523 1.28174
 C53 C 0.52016 1.08372 1.31551
 C54 C 0.47392 0.99969 1.28352
 C55 C 0.38863 0.83397 1.21899
 C56 C 0.39285 0.83423 1.28378
 C57 C 0.43807 0.91627 1.31680
 C58 C 0.45859 0.91793 1.38060
 C59 C 0.51861 1.00149 1.40760
 C60 C 0.54091 1.08395 1.37881
 H61 H 0.57982 1.22951 1.19344
 H62 H 0.59098 1.23048 1.30414
 H63 H 0.35653 0.76930 1.19541
 H64 H 0.36541 0.76957 1.30740
 H65 H 0.46634 0.99944 1.03820
 H66 H 0.53879 1.00238 1.45511
 C67 C 1.08953 0.54271 0.87814
 C68 C 1.00716 0.48386 0.90864
 C69 C 0.92377 0.45625 0.88146
 C70 C 0.92101 0.47224 0.81761
 C71 C 1.00392 0.52083 0.78306
 C72 C 1.08867 0.56170 0.81397
 C73 C 1.16944 0.61076 0.77845
 C74 C 1.16752 0.61299 0.71352
 C75 C 1.08481 0.56627 0.68192
 C76 C 1.00195 0.52330 0.71727
 C77 C 0.83789 0.43488 0.78669
 C78 C 0.83594 0.43714 0.72217
 C79 C 0.91706 0.47677 0.68677
 C80 C 0.91625 0.46431 0.62205
 C81 C 0.99826 0.49414 0.58984
 C82 C 1.08203 0.55133 0.61680
 H83 H 1.23511 0.64258 0.80022
 H84 H 1.23174 0.64649 0.68817
 H85 H 0.77365 0.39823 0.81177
 H86 H 0.77040 0.40244 0.70020
 H87 H 1.00748 0.46597 0.95671
 H88 H 0.99624 0.47661 0.54148
 C89 C 0.51622 0.43933 0.61614
 C90 C 0.46516 0.47153 0.58743
 C91 C 0.43149 0.51945 0.62021
 C92 C 0.44047 0.52724 0.68533
 C93 C 0.48576 0.48770 0.71590
 C94 C 0.52577 0.44543 0.68101
 C95 C 0.57332 0.40980 0.71177
 C96 C 0.57875 0.41253 0.77629
 C97 C 0.53716 0.45135 0.81180
 C98 C 0.49192 0.49119 0.78133
 C99 C 0.40496 0.57227 0.72061
 C100 C 0.41078 0.57557 0.78523
 C101 C 0.45245 0.53408 0.81635
 C102 C 0.45473 0.53242 0.88173
 C103 C 0.49146 0.48546 0.91013
 C104 C 0.53772 0.45049 0.87718
 H105 H 0.60509 0.37788 0.68619
 H106 H 0.61440 0.38272 0.79825
 H107 H 0.37074 0.60352 0.69851
 H108 H 0.38098 0.60940 0.81077
 H109 H 0.45411 0.46201 0.53807
 H110 H 0.48054 0.47220 0.95883
 C111 C 0.53335 0.08239 0.61908
 C112 C 0.47869 -0.00034 0.59011
 C113 C 0.45161 -0.08285 0.61993
 C114 C 0.46752 -0.08321 0.68408
 C115 C 0.51214 0.00067 0.71645
 C116 C 0.54791 0.08413 0.68358
 C117 C 0.59183 0.16613 0.71658
 C118 C 0.59730 0.16624 0.78130
 C119 C 0.56062 0.08442 0.81479
 C120 C 0.51890 0.00089 0.78191
 C121 C 0.43203 -0.16490 0.71773
 C122 C 0.43769 -0.16462 0.78204
 C123 C 0.48003 -0.08274 0.81480
 C124 C 0.48437 -0.08190 0.87991
 C125 C 0.53115 0.00009 0.91086
 C126 C 0.56409 0.08268 0.88036
 H127 H 0.61934 0.23065 0.69275
 H128 H 0.63000 0.23076 0.80506
 H129 H 0.39619 -0.22995 0.69501
 H130 H 0.40793 -0.22919 0.80605
 H131 H 0.46422 -0.00016 0.54138
 H132 H 0.54094 -0.00053 0.96006
 O133 O 0.47194 0.64160 0.95658
 O134 O 0.47283 0.79139 0.93083
 C135 C 0.43509 0.83705 0.91913
 O136 O 0.36110 0.82235 0.94511
 O137 O 0.21770 0.66563 0.91782
 C138 C 0.16692 0.58034 0.91526
 O139 O 0.17529 0.52787 0.95298
 O140 O 0.33121 0.53475 0.93052
 C141 C 0.41689 0.57419 0.92356
 O142 O 0.45737 0.67307 1.07953
 O143 O 0.46145 0.82433 1.05294
 C144 C 0.40040 0.83631 1.07949
 O145 O 0.31676 0.79025 1.06656
 O146 O 0.16865 0.63770 1.04122
 C147 C 0.15851 0.57447 1.07795
 O148 O 0.20832 0.53878 1.07475
 O149 O 0.35779 0.53212 1.05264
 C150 C 0.42331 0.58860 1.08539
 Cr151 Cr 0.46174 0.73041 1.00490
 Cr152 Cr 0.26801 0.72683 0.99275
 Cr153 Cr 0.27027 0.53757 1.00270
 O154 O 0.33392 0.66563 1.00033
 O155 O 0.54487 0.32866 0.92241
 O156 O 0.53629 0.17515 0.94897
 C157 C 0.59597 0.16225 0.92104
 O158 O 0.67974 0.20597 0.93366
 O159 O 0.83106 0.35356 0.96056
 C160 C 0.84323 0.41688 0.92331
 O161 O 0.79563 0.45501 0.92616
 O162 O 0.64991 0.46866 0.94755
 C163 C 0.58277 0.41346 0.91530
 O164 O 0.53350 0.36192 1.04542
 O165 O 0.52816 0.21010 1.07212
 C166 C 0.56129 0.15970 1.08214
 O167 O 0.63283 0.17068 1.05425
 O168 O 0.78067 0.32552 1.08334
 C169 C 0.83410 0.41058 1.08587
 O170 O 0.82779 0.46477 1.04841
 O171 O 0.67572 0.46619 1.07024
 C172 C 0.59026 0.42918 1.07778
 Cr173 Cr 0.53976 0.27086 0.99732
 Cr174 Cr 0.72918 0.26619 1.00801
 Cr175 Cr 0.73509 0.45955 0.99815
 O176 O 0.66743 0.33181 1.00103
 O177 O 0.64000 0.46533 0.55180
 O178 O 0.78404 0.45482 0.57991
 C179 C 0.83350 0.41934 0.58450
 O180 O 0.82282 0.35410 0.55039
 O181 O 0.66315 0.20794 0.57373
 C182 C 0.57667 0.16230 0.57768
 O183 O 0.52527 0.17369 0.54068
 O184 O 0.52316 0.32334 0.56170
 C185 C 0.56356 0.40670 0.57534
 O186 O 0.68529 0.47493 0.43057
 O187 O 0.83234 0.46853 0.45788
 C188 C 0.84278 0.41367 0.42264
 O189 O 0.79308 0.32777 0.42789
 O190 O 0.64184 0.17143 0.45305
 C191 C 0.58106 0.16206 0.41581
 O192 O 0.54955 0.21543 0.41670
 O193 O 0.54110 0.36301 0.44069
 C194 C 0.60197 0.43778 0.41705
 Cr195 Cr 0.73319 0.46156 0.50488
 Cr196 Cr 0.72833 0.26770 0.50112
 Cr197 Cr 0.53905 0.27071 0.48998
 O198 O 0.66635 0.33385 0.49904
 O199 O 0.31610 0.52895 0.56719
 O200 O 0.16824 0.53392 0.54035
 C201 C 0.15812 0.58835 0.57650
 O202 O 0.20631 0.67431 0.57087
 O203 O 0.35469 0.83122 0.54362
 C204 C 0.41313 0.83981 0.58267
 O205 O 0.44546 0.78739 0.58245
 O206 O 0.45919 0.64401 0.55875
 C207 C 0.39912 0.56854 0.58199
 O208 O 0.36262 0.54046 0.44631
 O209 O 0.21746 0.54934 0.41701
 C210 C 0.16403 0.58058 0.41393
 O211 O 0.17263 0.64364 0.44958
 O212 O 0.33265 0.79146 0.42281
 C213 C 0.41915 0.84156 0.42024
 O214 O 0.47090 0.83240 0.45862
 O215 O 0.47840 0.68342 0.43747
 C216 C 0.43973 0.59981 0.42398
 Cr217 Cr 0.26798 0.54223 0.49278
 Cr218 Cr 0.26856 0.73307 0.49670
 Cr219 Cr 0.45944 0.73503 0.50907
 O220 O 0.33269 0.66936 0.49915
   
