data_POSCAR
  _audit_creation_date              2014-09-24
  _audit_creation_method            'ToBaCCo'
  _symmetry_space_group_name_H-M    'P1'
  _symmetry_Int_Tables_number       1
  _symmetry_cell_setting            triclinic
  loop_
  _symmetry_equiv_pos_as_xyz
 x,y,z
_cell_length_a 51.8787
_cell_length_b 27.5795
_cell_length_c 22.4346
_cell_angle_alpha 90.013800
_cell_angle_beta 89.942100
_cell_angle_gamma 89.913500
loop_
  _atom_site_label
  _atom_site_type_symbol
  _atom_site_fract_x
  _atom_site_fract_y
  _atom_site_fract_z
C1 C 0.68833 0.31641 0.49519
 C2 C 0.69894 0.30170 0.54941
 C3 C 0.72325 0.27938 0.55064
 C4 C 0.73784 0.27365 0.49767
 C5 C 0.72690 0.29027 0.44360
 C6 C 0.70208 0.31013 0.44234
 C7 C 0.76404 0.25011 0.49851
 C8 C 0.77475 0.22958 0.44612
 C9 C 0.79942 0.20891 0.44660
 C10 C 0.81320 0.20595 0.49981
 C11 C 0.80280 0.22464 0.55232
 C12 C 0.77873 0.24768 0.55161
 H13 H 0.66920 0.33241 0.49395
 H14 H 0.73033 0.26623 0.59296
 H15 H 0.73731 0.28800 0.40197
 H16 H 0.76413 0.22900 0.40470
 H17 H 0.83211 0.18898 0.50048
 H18 H 0.77186 0.26365 0.59265
 C19 C 0.18767 0.81210 0.50385
 C20 C 0.19796 0.79456 0.55712
 C21 C 0.22228 0.77241 0.55744
 C22 C 0.23725 0.76974 0.50476
 C23 C 0.22664 0.78893 0.45163
 C24 C 0.20179 0.80875 0.45108
 C25 C 0.26360 0.74705 0.50516
 C26 C 0.27461 0.72828 0.45223
 C27 C 0.29950 0.70867 0.45227
 C28 C 0.31330 0.70517 0.50541
 C29 C 0.30262 0.72228 0.55855
 C30 C 0.27821 0.74413 0.55833
 H31 H 0.16857 0.82824 0.50330
 H32 H 0.22918 0.75707 0.59884
 H33 H 0.23744 0.78896 0.41040
 H34 H 0.26413 0.72859 0.41062
 H35 H 0.33248 0.68937 0.50522
 H36 H 0.27098 0.75910 0.59967
 C37 C 0.31275 0.29374 -0.49906
 C38 C 0.29888 0.29098 -0.55211
 C39 C 0.27422 0.27051 -0.55250
 C40 C 0.26357 0.24997 -0.50011
 C41 C 0.27832 0.25222 -0.44710
 C42 C 0.30242 0.27505 -0.44651
 C43 C 0.23737 0.22659 -0.50087
 C44 C 0.22283 0.22088 -0.44783
 C45 C 0.19854 0.19866 -0.44897
 C46 C 0.18788 0.18402 -0.50316
 C47 C 0.20157 0.19029 -0.55608
 C48 C 0.22638 0.21007 -0.55491
 H49 H 0.33166 0.31054 -0.49868
 H50 H 0.26362 0.27124 -0.59391
 H51 H 0.27150 0.23624 -0.40605
 H52 H 0.22995 0.23396 -0.40552
 H53 H 0.16876 0.16808 -0.50433
 H54 H 0.23675 0.21236 -0.59659
 C55 C -0.18603 0.79401 -0.49736
 C56 C -0.19972 0.79096 -0.55073
 C57 C -0.22473 0.77188 -0.55109
 C58 C -0.23590 0.75321 -0.49832
 C59 C -0.22138 0.75570 -0.44502
 C60 C -0.19690 0.77700 -0.44450
 C61 C -0.26236 0.73111 -0.49896
 C62 C -0.27736 0.72861 -0.44633
 C63 C -0.30175 0.70696 -0.44682
 C64 C -0.31207 0.68968 -0.50008
 C65 C -0.29793 0.69281 -0.55282
 C66 C -0.27301 0.71220 -0.55219
 H67 H -0.16677 0.80937 -0.49691
 H68 H -0.23522 0.77188 -0.59272
 H69 H -0.22868 0.74086 -0.40374
 H70 H -0.27049 0.74363 -0.40479
 H71 H -0.33122 0.67387 -0.50051
 H72 H -0.26218 0.71201 -0.59338
 N73 N -0.02853 0.91169 -0.05745
 N74 N -0.04702 0.87951 -0.06604
 N75 N 0.02496 0.94615 -0.10158
 N76 N 0.04388 0.93970 -0.14006
 N77 N 0.02574 0.91299 -0.05959
 N78 N 0.04524 0.88294 -0.06842
 N79 N -0.02920 0.94527 -0.09895
 N80 N -0.04807 0.93692 -0.13690
 C81 C -0.05906 0.89612 -0.11549
 C82 C 0.05632 0.90036 -0.11865
 N83 N 0.02493 1.08481 -0.06386
 N84 N 0.04445 1.11453 -0.07393
 N85 N -0.02973 1.04984 -0.10145
 N86 N -0.04856 1.05685 -0.13998
 N87 N -0.02937 1.08461 -0.06141
 N88 N -0.04801 1.11624 -0.07157
 N89 N 0.02439 1.05020 -0.10409
 N90 N 0.04343 1.05525 -0.14247
 Mn91 Mn -0.00245 0.99785 -0.10211
 C92 C 0.05571 1.09535 -0.12312
 C93 C -0.05985 1.09807 -0.12037
 N94 N 0.02679 0.91523 0.06912
 N95 N 0.04738 0.88741 0.07641
 N96 N -0.02771 0.94880 0.11088
 N97 N -0.04745 0.94434 0.14751
 N98 N -0.02776 0.91401 0.07091
 N99 N -0.04766 0.88489 0.07917
 N100 N 0.02635 0.94981 0.10934
 N101 N 0.04640 0.94663 0.14500
 Mn102 Mn -0.00090 0.91276 0.00581
 C103 C 0.05925 0.90770 0.12408
 C104 C -0.05963 0.90446 0.12714
 N105 N -0.02869 1.08631 0.06707
 N106 N -0.04901 1.11479 0.07436
 N107 N 0.02591 1.05339 0.10679
 N108 N 0.04615 1.05820 0.14168
 N109 N 0.02590 1.08664 0.06491
 N110 N 0.04627 1.11512 0.07021
 N111 N -0.02812 1.05271 0.10851
 N112 N -0.04781 1.05732 0.14513
 Mn113 Mn -0.00178 1.08634 0.00171
 Mn114 Mn -0.00093 1.00119 0.10940
 Cl115 Cl -0.00153 0.99954 0.00361
 C116 C -0.06057 1.09605 0.12341
 C117 C 0.05856 1.09672 0.11842
 N118 N 0.47080 0.41515 -0.06225
 N119 N 0.45228 0.38332 -0.07218
 N120 N 0.52435 0.44985 -0.10556
 N121 N 0.54333 0.44484 -0.14413
 N122 N 0.52509 0.41534 -0.06525
 N123 N 0.54470 0.38573 -0.07544
 N124 N 0.47023 0.44985 -0.10235
 N125 N 0.45136 0.44258 -0.14071
 C126 C 0.44028 0.40129 -0.12090
 C127 C 0.55579 0.40487 -0.12480
 N128 N 0.52529 0.58715 -0.06131
 N129 N 0.54472 0.61723 -0.07028
 N130 N 0.47039 0.55445 -0.10007
 N131 N 0.45143 0.56264 -0.13785
 N132 N 0.47102 0.58810 -0.05862
 N133 N 0.45241 0.62015 -0.06707
 N134 N 0.52454 0.55393 -0.10324
 N135 N 0.54342 0.56037 -0.14182
 Mn136 Mn 0.49732 0.50203 -0.10340
 C137 C 0.55579 0.59977 -0.12054
 C138 C 0.44034 0.60341 -0.11639
 N139 N 0.52630 0.41373 0.06352
 N140 N 0.54675 0.38531 0.06877
 N141 N 0.47225 0.44733 0.10761
 N142 N 0.45260 0.44275 0.14431
 N143 N 0.47172 0.41368 0.06621
 N144 N 0.45145 0.38519 0.07362
 N145 N 0.52628 0.44706 0.10533
 N146 N 0.54657 0.44236 0.14013
 Mn147 Mn 0.49851 0.41373 0.00060
 C148 C 0.55905 0.40384 0.11687
 C149 C 0.43990 0.40397 0.12270
 N150 N 0.47204 0.58597 0.06973
 N151 N 0.45203 0.61494 0.07811
 N152 N 0.52634 0.55063 0.10768
 N153 N 0.54646 0.55398 0.14310
 N154 N 0.52659 0.58514 0.06739
 N155 N 0.54710 0.61309 0.07438
 N156 N 0.47228 0.55125 0.10976
 N157 N 0.45259 0.55561 0.14657
 Mn158 Mn 0.49877 0.58731 0.00436
 Mn159 Mn 0.49926 0.49905 0.10812
 Cl160 Cl 0.49845 0.50053 0.00232
 C161 C 0.44022 0.59536 0.12624
 C162 C 0.55913 0.59296 0.12196
 C163 C 0.37587 0.36395 0.21548
 C164 C 0.36875 0.39740 0.26059
 C165 C 0.34970 0.38455 0.30325
 C166 C 0.33803 0.33824 0.30084
 C167 C 0.34394 0.30609 0.25354
 C168 C 0.36293 0.31901 0.21067
 C169 C 0.36887 0.28601 0.16438
 C170 C 0.35633 0.24147 0.16042
 C171 C 0.33776 0.22881 0.20235
 C172 C 0.33159 0.26059 0.24855
 C173 C 0.34314 0.41826 0.34841
 C174 C 0.35520 0.46329 0.35159
 C175 C 0.37401 0.47573 0.31022
 C176 C 0.38070 0.44342 0.26499
 C177 C 0.32228 0.32191 0.35042
 C178 C 0.31073 0.30805 0.39383
 C179 C 0.39778 0.37474 0.17747
 C180 C 0.41676 0.38617 0.14987
 H181 H 0.38314 0.29442 0.13071
 H182 H 0.36104 0.21665 0.12463
 H183 H 0.32807 0.19418 0.19907
 H184 H 0.31694 0.24932 0.28001
 H185 H 0.32856 0.41025 0.38150
 H186 H 0.34989 0.48871 0.38629
 H187 H 0.38326 0.51082 0.31276
 H188 H 0.39521 0.45506 0.23345
 C189 C -0.12261 0.85351 0.21642
 C190 C -0.14284 0.88584 0.23135
 C191 C -0.16141 0.87227 0.27486
 C192 C -0.15977 0.82627 0.30253
 C193 C -0.14077 0.79254 0.28401
 C194 C -0.12208 0.80627 0.24091
 C195 C -0.10291 0.77237 0.22405
 C196 C -0.10227 0.72609 0.24894
 C197 C -0.12058 0.71260 0.29103
 C198 C -0.13964 0.74530 0.30858
 C199 C -0.18105 0.90561 0.29035
 C200 C -0.18253 0.95089 0.26294
 C201 C -0.16454 0.96395 0.21986
 C202 C -0.14476 0.93207 0.20438
 C203 C -0.17597 0.81485 0.35337
 C204 C -0.18790 0.80427 0.39761
 C205 C -0.10100 0.87037 0.18098
 C206 C -0.08234 0.88519 0.15470
 H207 H -0.08835 0.78114 0.19121
 H208 H -0.08751 0.70057 0.23544
 H209 H -0.12003 0.67660 0.31019
 H210 H -0.15352 0.73306 0.34129
 H211 H -0.19554 0.89686 0.32337
 H212 H -0.19770 0.97597 0.27519
 H213 H -0.16576 0.99918 0.19878
 H214 H -0.13113 0.94386 0.17086
 C215 C 0.62424 0.62849 0.21299
 C216 C 0.63760 0.67306 0.20975
 C217 C 0.65689 0.68410 0.25264
 C218 C 0.66265 0.65045 0.29841
 C219 C 0.65056 0.60448 0.29907
 C220 C 0.63121 0.59352 0.25640
 C221 C 0.61883 0.54782 0.25912
 C222 C 0.62542 0.51397 0.30265
 C223 C 0.64450 0.52457 0.34404
 C224 C 0.65698 0.56926 0.34251
 C225 C 0.66968 0.72927 0.24926
 C226 C 0.66363 0.76256 0.20464
 C227 C 0.64475 0.75174 0.16273
 C228 C 0.63179 0.70755 0.16510
 C229 C 0.67857 0.66498 0.34850
 C230 C 0.69020 0.67741 0.39241
 C231 C 0.60198 0.61964 0.17538
 C232 C 0.58268 0.60957 0.14826
 H233 H 0.60408 0.53759 0.22748
 H234 H 0.61586 0.47911 0.30383
 H235 H 0.64972 0.49796 0.37740
 H236 H 0.67178 0.57581 0.37550
 H237 H 0.68457 0.73912 0.28076
 H238 H 0.67365 0.79691 0.20256
 H239 H 0.64013 0.77772 0.12818
 H240 H 0.61730 0.70060 0.13151
 C241 C 0.12337 1.14299 0.20374
 C242 C 0.14314 1.10895 0.21587
 C243 C 0.16194 1.11933 0.26012
 C244 C 0.16093 1.16382 0.29145
 C245 C 0.14248 1.19946 0.27562
 C246 C 0.12361 1.18896 0.23166
 C247 C 0.10498 1.22465 0.21750
 C248 C 0.10504 1.26960 0.24588
 C249 C 0.12351 1.27994 0.28886
 C250 C 0.14204 1.24540 0.30379
 C251 C 0.18112 1.08432 0.27267
 C252 C 0.18193 1.04048 0.24176
 C253 C 0.16366 1.03047 0.19816
 C254 C 0.14433 1.06407 0.18545
 C255 C 0.17717 1.17164 0.34321
 C256 C 0.18914 1.17931 0.38824
 C257 C 0.10118 1.12864 0.16861
 C258 C 0.08197 1.11528 0.14340
 H259 H 0.09033 1.21832 0.18409
 H260 H 0.09069 1.29655 0.23441
 H261 H 0.12349 1.31492 0.31075
 H262 H 0.15608 1.25520 0.33732
 H263 H 0.19577 1.09066 0.30608
 H264 H 0.19676 1.01407 0.25183
 H265 H 0.16430 0.99627 0.17449
 H266 H 0.13046 1.05468 0.15134
 C267 C 0.61798 0.35990 -0.22176
 C268 C 0.62698 0.31149 -0.22475
 C269 C 0.64594 0.29837 -0.26771
 C270 C 0.65581 0.33379 -0.30725
 C271 C 0.64780 0.38274 -0.30209
 C272 C 0.62876 0.39580 -0.25942
 C273 C 0.62058 0.44477 -0.25625
 C274 C 0.63087 0.47974 -0.29418
 C275 C 0.64969 0.46707 -0.33546
 C276 C 0.65812 0.41919 -0.33960
 C277 C 0.65434 0.24962 -0.27057
 C278 C 0.64435 0.21479 -0.23194
 C279 C 0.62584 0.22764 -0.18990
 C280 C 0.61716 0.27540 -0.18619
 C281 C 0.67253 0.31971 -0.35630
 C282 C 0.68543 0.31007 -0.39947
 C283 C 0.59645 0.37260 -0.18330
 C284 C 0.57806 0.38567 -0.15457
 H285 H 0.60618 0.45660 -0.22449
 H286 H 0.62429 0.51694 -0.29135
 H287 H 0.65777 0.49448 -0.36450
 H288 H 0.67281 0.41115 -0.37242
 H289 H 0.66877 0.23803 -0.30243
 H290 H 0.65102 0.17764 -0.23464
 H291 H 0.61816 0.20044 -0.16001
 H292 H 0.60279 0.28377 -0.15273
 C293 C 0.11733 0.84460 -0.21132
 C294 C 0.11487 0.79977 -0.24148
 C295 C 0.13358 0.78587 -0.28456
 C296 C 0.15455 0.81697 -0.29727
 C297 C 0.15790 0.86027 -0.26426
 C298 C 0.13927 0.87404 -0.22096
 C299 C 0.14285 0.91771 -0.18890
 C300 C 0.16428 0.94695 -0.19932
 C301 C 0.18240 0.93368 -0.24201
 C302 C 0.17934 0.89088 -0.27427
 C303 C 0.13052 0.74126 -0.31490
 C304 C 0.10958 0.71120 -0.30295
 C305 C 0.09127 0.72482 -0.26085
 C306 C 0.09377 0.76860 -0.23036
 C307 C 0.17122 0.80676 -0.34775
 C308 C 0.18419 0.80003 -0.39161
 C309 C 0.09620 0.86262 -0.17507
 C310 C 0.07817 0.87903 -0.14777
 H311 H 0.12922 0.92958 -0.15539
 H312 H 0.16671 0.98028 -0.17448
 H313 H 0.19892 0.95667 -0.25018
 H314 H 0.19401 0.88192 -0.30680
 H315 H 0.14434 0.72908 -0.34786
 H316 H 0.10755 0.67715 -0.32648
 H317 H 0.07503 0.70134 -0.25172
 H318 H 0.07912 0.77759 -0.19781
 C319 C 0.38160 0.66698 -0.20924
 C320 C 0.35795 0.64199 -0.21578
 C321 C 0.33971 0.65782 -0.25884
 C322 C 0.34524 0.69854 -0.29506
 C323 C 0.36806 0.72551 -0.28556
 C324 C 0.38630 0.70968 -0.24248
 C325 C 0.40921 0.73670 -0.23451
 C326 C 0.41394 0.77825 -0.26811
 C327 C 0.39611 0.79370 -0.31027
 C328 C 0.37341 0.76774 -0.31914
 C329 C 0.31642 0.63172 -0.26541
 C330 C 0.31126 0.59121 -0.23025
 C331 C 0.32909 0.57578 -0.18809
 C332 C 0.35223 0.60067 -0.18084
 C333 C 0.32886 0.70959 -0.34575
 C334 C 0.31611 0.71666 -0.38983
 C335 C 0.40197 0.64620 -0.17291
 C336 C 0.41930 0.62744 -0.14554
 H337 H 0.42358 0.72616 -0.20206
 H338 H 0.43154 0.79855 -0.26137
 H339 H 0.39988 0.82600 -0.33625
 H340 H 0.36005 0.78125 -0.35226
 H341 H 0.30192 0.64253 -0.29743
 H342 H 0.29331 0.57174 -0.23570
 H343 H 0.32496 0.54443 -0.16074
 H344 H 0.36548 0.58741 -0.14734
 C345 C -0.11796 1.16230 -0.21479
 C346 C -0.14170 1.13790 -0.22261
 C347 C -0.15984 1.15539 -0.26492
 C348 C -0.15411 1.19718 -0.29908
 C349 C -0.13116 1.22342 -0.28831
 C350 C -0.11302 1.20593 -0.24600
 C351 C -0.08999 1.23229 -0.23672
 C352 C -0.08505 1.27480 -0.26829
 C353 C -0.10279 1.29188 -0.30971
 C354 C -0.12560 1.26658 -0.31985
 C355 C -0.18324 1.12989 -0.27284
 C356 C -0.18861 1.08838 -0.23969
 C357 C -0.17089 1.07133 -0.19823
 C358 C -0.14764 1.09560 -0.18968
 C359 C -0.17040 1.21002 -0.34923
 C360 C -0.18311 1.21822 -0.39305
 C361 C -0.09785 1.14053 -0.17860
 C362 C -0.08071 1.12153 -0.15085
 H363 H -0.07567 1.22050 -0.20481
 H364 H -0.06736 1.29459 -0.26055
 H365 H -0.09886 1.32491 -0.33411
 H366 H -0.13888 1.28134 -0.35232
 H367 H -0.19767 1.14194 -0.30436
 H368 H -0.20664 1.06939 -0.24615
 H369 H -0.17520 1.03920 -0.17245
 H370 H -0.13449 1.08107 -0.15679
 C371 C 0.61668 0.65569 -0.21316
 C372 C 0.61414 0.70061 -0.24310
 C373 C 0.63285 0.71472 -0.28600
 C374 C 0.65391 0.68373 -0.29880
 C375 C 0.65732 0.64030 -0.26607
 C376 C 0.63870 0.62635 -0.22288
 C377 C 0.64238 0.58261 -0.19102
 C378 C 0.66387 0.55343 -0.20158
 C379 C 0.68196 0.56683 -0.24422
 C380 C 0.67882 0.60973 -0.27625
 C381 C 0.62971 0.75943 -0.31609
 C382 C 0.60868 0.78938 -0.30407
 C383 C 0.59036 0.77555 -0.26214
 C384 C 0.59295 0.73168 -0.23191
 C385 C 0.67063 0.69422 -0.34906
 C386 C 0.68368 0.70117 -0.39271
 C387 C 0.59559 0.63754 -0.17699
 C388 C 0.57760 0.62109 -0.14972
 H389 H 0.62878 0.57062 -0.15756
 H390 H 0.66637 0.52004 -0.17688
 H391 H 0.69852 0.54388 -0.25253
 H392 H 0.69347 0.61880 -0.30874
 H393 H 0.64352 0.77177 -0.34892
 H394 H 0.60659 0.82351 -0.32741
 H395 H 0.57406 0.79895 -0.25296
 H396 H 0.57828 0.72253 -0.19949
 C397 C 0.11782 1.14045 -0.21991
 C398 C 0.12873 1.10453 -0.25745
 C399 C 0.14771 1.11761 -0.30018
 C400 C 0.15558 1.16659 -0.30543
 C401 C 0.14561 1.20202 -0.26595
 C402 C 0.12667 1.18890 -0.22302
 C403 C 0.11669 1.22503 -0.18462
 C404 C 0.12524 1.27282 -0.18841
 C405 C 0.14378 1.28565 -0.23034
 C406 C 0.15390 1.25080 -0.26885
 C407 C 0.15812 1.08114 -0.33763
 C408 C 0.14985 1.03322 -0.33336
 C409 C 0.13110 1.02053 -0.29200
 C410 C 0.12071 1.05552 -0.25413
 C411 C 0.17223 1.18067 -0.35455
 C412 C 0.18508 1.19030 -0.39779
 C413 C 0.09632 1.12773 -0.18146
 C414 C 0.07795 1.11463 -0.15276
 H415 H 0.10230 1.21667 -0.15123
 H416 H 0.11744 1.30004 -0.15863
 H417 H 0.15035 1.32282 -0.23306
 H418 H 0.16834 1.26238 -0.30063
 H419 H 0.17278 1.08921 -0.37050
 H420 H 0.15800 1.00581 -0.36236
 H421 H 0.12463 0.98330 -0.28906
 H422 H 0.10636 1.04367 -0.22230
 C423 C 0.38233 0.33621 -0.21464
 C424 C 0.38780 0.29388 -0.24809
 C425 C 0.36956 0.27643 -0.29014
 C426 C 0.34598 0.30140 -0.29841
 C427 C 0.33978 0.34170 -0.26200
 C428 C 0.35802 0.35917 -0.21996
 C429 C 0.35159 0.40003 -0.18476
 C430 C 0.32776 0.42288 -0.19079
 C431 C 0.30993 0.40585 -0.23198
 C432 C 0.31578 0.36577 -0.26736
 C433 C 0.37563 0.23462 -0.32395
 C434 C 0.39905 0.21061 -0.31628
 C435 C 0.41689 0.22764 -0.27511
 C436 C 0.41144 0.26882 -0.24132
 C437 C 0.32948 0.28902 -0.34834
 C438 C 0.31664 0.28115 -0.39202
 C439 C 0.40240 0.35828 -0.17870
 C440 C 0.41949 0.37754 -0.15116
 H441 H 0.36481 0.41448 -0.15200
 H442 H 0.32307 0.45388 -0.16325
 H443 H 0.29145 0.42374 -0.23648
 H444 H 0.30126 0.35365 -0.29858
 H445 H 0.36230 0.21992 -0.35631
 H446 H 0.40338 0.17861 -0.34241
 H447 H 0.43504 0.20884 -0.26929
 H448 H 0.42586 0.28062 -0.20969
 C449 C -0.11729 0.83192 -0.20911
 C450 C -0.11201 0.79032 -0.24405
 C451 C -0.13018 0.77451 -0.28723
 C452 C -0.15349 0.80043 -0.29521
 C453 C -0.15954 0.83996 -0.25741
 C454 C -0.14139 0.85570 -0.21412
 C455 C -0.14770 0.89570 -0.17736
 C456 C -0.17131 0.91940 -0.18308
 C457 C -0.18901 0.90415 -0.22559
 C458 C -0.18328 0.86494 -0.26252
 C459 C -0.12430 0.73336 -0.32242
 C460 C -0.10113 0.70844 -0.31505
 C461 C -0.08335 0.72391 -0.27282
 C462 C -0.08861 0.76441 -0.23766
 C463 C -0.16993 0.78956 -0.34582
 C464 C -0.18272 0.78260 -0.38983
 C465 C -0.09711 0.85292 -0.17250
 C466 C -0.07993 0.87187 -0.14489
 H467 H -0.13456 0.90878 -0.14357
 H468 H -0.17591 0.94967 -0.15426
 H469 H -0.20731 0.92273 -0.22989
 H470 H -0.19770 0.85420 -0.29474
 H471 H -0.13759 0.71989 -0.35567
 H472 H -0.09696 0.67696 -0.34223
 H473 H -0.06539 0.70441 -0.26725
 H474 H -0.07425 0.77499 -0.20523
 C475 C 0.37717 0.64590 0.21593
 C476 C 0.37759 0.69310 0.24060
 C477 C 0.35892 0.70665 0.28389
 C478 C 0.34000 0.67283 0.30230
 C479 C 0.33844 0.62691 0.27441
 C480 C 0.35703 0.61348 0.23081
 C481 C 0.35522 0.56729 0.20371
 C482 C 0.33552 0.53532 0.21911
 C483 C 0.31750 0.54827 0.26221
 C484 C 0.31887 0.59350 0.28978
 C485 C 0.35999 0.75379 0.30874
 C486 C 0.37895 0.78659 0.29124
 C487 C 0.39721 0.77331 0.24888
 C488 C 0.39665 0.72711 0.22374
 C489 C 0.32379 0.68410 0.35322
 C490 C 0.31185 0.69457 0.39751
 C491 C 0.39880 0.62919 0.18035
 C492 C 0.41748 0.61449 0.15395
 H493 H 0.36887 0.55559 0.17014
 H494 H 0.33439 0.50011 0.19793
 H495 H 0.30238 0.52312 0.27438
 H496 H 0.30436 0.60216 0.32282
 H497 H 0.34614 0.76589 0.34165
 H498 H 0.37946 0.82252 0.31063
 H499 H 0.41189 0.79893 0.23539
 H500 H 0.41117 0.71849 0.19071
 C501 C -0.12453 1.13649 0.21641
 C502 C -0.13166 1.10300 0.26140
 C503 C -0.15064 1.11598 0.30424
 C504 C -0.16224 1.16241 0.30207
 C505 C -0.15633 1.19461 0.25486
 C506 C -0.13738 1.18160 0.21188
 C507 C -0.13141 1.21467 0.16575
 C508 C -0.14390 1.25935 0.16202
 C509 C -0.16246 1.27207 0.20401
 C510 C -0.16865 1.24022 0.25008
 C511 C -0.15720 1.08224 0.34931
 C512 C -0.14522 1.03705 0.35222
 C513 C -0.12649 1.02449 0.31065
 C514 C -0.11980 1.05683 0.26551
 C515 C -0.17789 1.17883 0.35184
 C516 C -0.18933 1.19275 0.39541
 C517 C -0.10266 1.12555 0.17828
 C518 C -0.08371 1.11398 0.15060
 H519 H -0.11715 1.20623 0.13205
 H520 H -0.13916 1.28422 0.12635
 H521 H -0.17213 1.30678 0.20087
 H522 H -0.18328 1.25155 0.28160
 H523 H -0.17171 1.09035 0.38254
 H524 H -0.15052 1.01161 0.38685
 H525 H -0.11730 0.98927 0.31296
 H526 H -0.10535 1.04509 0.23382
 C527 C 0.62396 0.35755 0.20204
 C528 C 0.64367 0.39158 0.21425
 C529 C 0.66248 0.38117 0.25849
 C530 C 0.66154 0.33665 0.28972
 C531 C 0.64317 0.30100 0.27377
 C532 C 0.62429 0.31154 0.22982
 C533 C 0.60574 0.27582 0.21552
 C534 C 0.60591 0.23081 0.24373
 C535 C 0.62439 0.22044 0.28670
 C536 C 0.64284 0.25501 0.30178
 C537 C 0.68161 0.41616 0.27112
 C538 C 0.68237 0.46001 0.24026
 C539 C 0.66409 0.47005 0.19664
 C540 C 0.64481 0.43647 0.18388
 C541 C 0.67775 0.32882 0.34154
 C542 C 0.68969 0.32114 0.38662
 C543 C 0.60174 0.37194 0.16698
 C544 C 0.58250 0.38531 0.14182
 H545 H 0.59109 0.28218 0.18212
 H546 H 0.59163 0.20384 0.23214
 H547 H 0.62446 0.18542 0.30847
 H548 H 0.65689 0.24518 0.33529
 H549 H 0.69626 0.40979 0.30454
 H550 H 0.69716 0.48640 0.25037
 H551 H 0.66470 0.50424 0.17300
 H552 H 0.63094 0.44588 0.14977
 C553 C 0.12424 0.87257 0.21598
 C554 C 0.13107 0.90769 0.25931
 C555 C 0.15033 0.89687 0.30227
 C556 C 0.16248 0.85089 0.30199
 C557 C 0.15687 0.81708 0.25632
 C558 C 0.13768 0.82799 0.21312
 C559 C 0.13205 0.79336 0.16853
 C560 C 0.14508 0.74915 0.16653
 C561 C 0.16384 0.73845 0.20878
 C562 C 0.16972 0.77187 0.25335
 C563 C 0.15662 0.93225 0.34560
 C564 C 0.14409 0.97697 0.34673
 C565 C 0.12508 0.98744 0.30506
 C566 C 0.11862 0.95341 0.26165
 C567 C 0.17834 0.83654 0.35229
 C568 C 0.18993 0.82419 0.39631
 C569 C 0.10205 0.88129 0.17808
 C570 C 0.08278 0.89123 0.15071
 H571 H 0.11764 0.80022 0.13469
 H572 H 0.14060 0.72307 0.13201
 H573 H 0.17391 0.70407 0.20702
 H574 H 0.18453 0.76210 0.28512
 H575 H 0.17135 0.92580 0.37880
 H576 H 0.14920 1.00370 0.38001
 H577 H 0.11548 1.02232 0.30593
 H578 H 0.10393 0.96354 0.22979
   
