data_POSCAR
  _audit_creation_date              2014-09-24
  _audit_creation_method            'ToBaCCo'
  _symmetry_space_group_name_H-M    'P1'
  _symmetry_Int_Tables_number       1
  _symmetry_cell_setting            triclinic
  loop_
  _symmetry_equiv_pos_as_xyz
 x,y,z
_cell_length_a 60.9516
_cell_length_b 63.3306
_cell_length_c 26.1462
_cell_angle_alpha 89.774300
_cell_angle_beta 89.683900
_cell_angle_gamma 120.173000
loop_
  _atom_site_label
  _atom_site_type_symbol
  _atom_site_fract_x
  _atom_site_fract_y
  _atom_site_fract_z
C1 C 0.27594 0.43918 0.47999
 C2 C 0.27509 0.44058 0.53212
 C3 C 0.24962 0.42904 0.54610
 N4 N 0.23492 0.42098 0.50408
 C5 C 0.25102 0.42705 0.46366
 C6 C 0.24014 0.42537 0.59689
 C7 C 0.21515 0.42034 0.60754
 C8 C 0.20127 0.40863 0.65123
 C9 C 0.17886 0.40876 0.64839
 C10 C 0.17964 0.42069 0.60316
 N11 N 0.20165 0.42722 0.57788
 C12 C 0.16091 0.42635 0.58737
 C13 C 0.15829 0.43040 0.53484
 C14 C 0.14551 0.44169 0.51572
 C15 C 0.14716 0.44141 0.46354
 C16 C 0.16141 0.43052 0.45212
 N17 N 0.16803 0.42362 0.49573
 C18 C 0.16710 0.42618 0.40208
 C19 C 0.18444 0.41816 0.39188
 C20 C 0.18677 0.40864 0.34585
 C21 C 0.20845 0.40704 0.34891
 C22 C 0.21903 0.41615 0.39629
 N23 N 0.20399 0.42244 0.42250
 C24 C 0.24334 0.42128 0.41228
 H25 H 0.29304 0.44695 0.45681
 H26 H 0.29147 0.44972 0.55658
 H27 H 0.20877 0.43262 0.45593
 H28 H 0.20656 0.40053 0.68178
 H29 H 0.16362 0.40070 0.67635
 H30 H 0.13651 0.45002 0.53662
 H31 H 0.13889 0.44864 0.43723
 H32 H 0.21595 0.40071 0.31886
 H33 H 0.20834 0.43814 0.54510
 H34 H 0.17460 0.40400 0.31288
 C35 C 0.52317 -0.30941 0.46498
 C36 C 0.52255 -0.31031 0.51721
 C37 C 0.53711 -0.28645 0.53394
 N38 N 0.54621 -0.27088 0.49342
 C39 C 0.53799 -0.28501 0.45118
 C40 C 0.54238 -0.27929 0.58584
 C41 C 0.54813 -0.25551 0.60070
 C42 C 0.55943 -0.24402 0.64620
 C43 C 0.55957 -0.22225 0.64692
 C44 C 0.54884 -0.22073 0.60150
 N45 N 0.54211 -0.24093 0.57335
 C46 C 0.54415 -0.20171 0.58844
 C47 C 0.54053 -0.19664 0.53753
 C48 C 0.53230 -0.18068 0.52310
 C49 C 0.53329 -0.17954 0.47065
 C50 C 0.54202 -0.19487 0.45483
 N51 N 0.54644 -0.20532 0.49574
 C52 C 0.54709 -0.19816 0.40367
 C53 C 0.55192 -0.21693 0.38944
 C54 C 0.56354 -0.21742 0.34412
 C55 C 0.56294 -0.23940 0.34318
 C56 C 0.55065 -0.25188 0.38771
 N57 N 0.54435 -0.23787 0.41606
 C58 C 0.54409 -0.27615 0.40022
 H59 H 0.51307 -0.32494 0.44011
 H60 H 0.51182 -0.32669 0.54008
 H61 H 0.53293 -0.24352 0.44879
 H62 H 0.56712 -0.25034 0.67580
 H63 H 0.56694 -0.20893 0.67727
 H64 H 0.52620 -0.17087 0.54770
 H65 H 0.52807 -0.16872 0.44700
 H66 H 0.57074 -0.24539 0.31305
 H67 H 0.53152 -0.24564 0.53989
 H68 H 0.57164 -0.20338 0.31479
 C69 C 1.14200 0.73656 0.46585
 C70 C 1.14024 0.73601 0.51819
 C71 C 1.16478 0.74991 0.53650
 N72 N 1.18131 0.75970 0.49681
 C73 C 1.16742 0.75144 0.45362
 C74 C 1.17227 0.75154 0.58838
 C75 C 1.19654 0.77043 0.60393
 C76 C 1.21022 0.76928 0.64509
 C77 C 1.23221 0.79149 0.64767
 C78 C 1.23151 0.80572 0.60796
 N79 N 1.20990 0.79257 0.58097
 C80 C 1.25031 0.83015 0.59631
 C81 C 1.25230 0.83891 0.54576
 C82 C 1.26296 0.86321 0.53117
 C83 C 1.26513 0.86385 0.47897
 C84 C 1.25551 0.83991 0.46348
 N85 N 1.24722 0.82461 0.50423
 C86 C 1.25680 0.83250 0.41327
 C87 C 1.23829 0.80886 0.39645
 C88 C 1.23981 0.79694 0.35322
 C89 C 1.21738 0.77507 0.35052
 C90 C 1.20302 0.77376 0.39297
 N91 N 1.21581 0.79445 0.42047
 C92 C 1.17811 0.75472 0.40415
 H93 H 1.12625 0.72691 0.44014
 H94 H 1.12276 0.72627 0.53993
 H95 H 1.20863 0.79935 0.45167
 H96 H 1.20553 0.75377 0.66965
 H97 H 1.24734 0.79595 0.67446
 H98 H 1.26885 0.87888 0.55560
 H99 H 1.27305 0.88008 0.45508
 H100 H 1.21252 0.76171 0.32068
 H101 H 1.20373 0.79899 0.55063
 H102 H 1.25541 0.80283 0.32646
 C103 C 0.72595 0.59026 0.46595
 C104 C 0.72543 0.59129 0.51829
 C105 C 0.74190 0.58387 0.53651
 N106 N 0.75325 0.57943 0.49681
 C107 C 0.74344 0.58322 0.45376
 C108 C 0.74430 0.57839 0.58817
 C109 C 0.76538 0.57610 0.60328
 C110 C 0.76533 0.56155 0.64312
 C111 C 0.78930 0.56471 0.64534
 C112 C 0.80361 0.58129 0.60701
 N113 N 0.78865 0.58771 0.58082
 C114 C 0.82981 0.59038 0.59655
 C115 C 0.83945 0.59903 0.54664
 C116 C 0.86473 0.61447 0.53324
 C117 C 0.86595 0.61505 0.48081
 C118 C 0.84137 0.60033 0.46392
 N119 N 0.82516 0.59078 0.50407
 C120 C 0.83440 0.59347 0.41270
 C121 C 0.80909 0.58381 0.39655
 C122 C 0.79882 0.57102 0.35174
 C123 C 0.77431 0.56658 0.34930
 C124 C 0.77017 0.57641 0.39309
 N125 N 0.79149 0.58695 0.42148
 C126 C 0.74808 0.57743 0.40441
 H127 H 0.71469 0.59425 0.44014
 H128 H 0.71395 0.59668 0.54010
 H129 H 0.79475 0.59787 0.45351
 H130 H 0.74944 0.54902 0.66686
 H131 H 0.79490 0.55488 0.67102
 H132 H 0.88071 0.62432 0.55839
 H133 H 0.88297 0.62504 0.45772
 H134 H 0.76126 0.55737 0.31842
 H135 H 0.79448 0.60075 0.55158
 H136 H 0.80786 0.56539 0.32356
 C137 C 0.47726 0.16352 0.51228
 C138 C 0.47513 0.16256 0.46025
 C139 C 0.46530 0.17731 0.44662
 N140 N 0.46062 0.18665 0.48917
 C141 C 0.46780 0.17812 0.52951
 C142 C 0.45967 0.18096 0.39588
 C143 C 0.45355 0.19908 0.38266
 C144 C 0.44527 0.20170 0.33499
 C145 C 0.44495 0.22326 0.33565
 C146 C 0.45306 0.23331 0.38369
 N147 N 0.45818 0.21843 0.41204
 C148 C 0.45859 0.25698 0.39808
 C149 C 0.46375 0.26558 0.44904
 C150 C 0.47261 0.28958 0.46331
 C151 C 0.47429 0.29023 0.51540
 C152 C 0.46563 0.26646 0.53189
 N153 N 0.45932 0.25141 0.49115
 C154 C 0.46300 0.25880 0.58376
 C155 C 0.45934 0.23553 0.59732
 C156 C 0.44843 0.22336 0.64289
 C157 C 0.44899 0.20201 0.64219
 C158 C 0.46022 0.20156 0.59621
 N159 N 0.46614 0.22191 0.56858
 C160 C 0.46521 0.18281 0.58164
 H161 H 0.48531 0.15465 0.53439
 H162 H 0.48048 0.15215 0.43581
 H163 H 0.47647 0.22727 0.53443
 H164 H 0.44090 0.18994 0.30220
 H165 H 0.44029 0.23104 0.30352
 H166 H 0.47751 0.30525 0.43919
 H167 H 0.48152 0.30660 0.53807
 H168 H 0.44141 0.18813 0.67188
 H169 H 0.46773 0.22298 0.44659
 H170 H 0.44029 0.22894 0.67315
 C171 C 0.73733 0.15201 0.53438
 C172 C 0.73616 0.15349 0.48226
 C173 C 0.74821 0.17809 0.46994
 N174 N 0.75614 0.19168 0.51291
 C175 C 0.74910 0.17577 0.55270
 C176 C 0.74952 0.18769 0.42052
 C177 C 0.76781 0.21184 0.40631
 C178 C 0.76869 0.22277 0.35966
 C179 C 0.79058 0.24516 0.35904
 C180 C 0.80246 0.24745 0.40549
 N181 N 0.78862 0.22685 0.43364
 C182 C 0.82618 0.26748 0.41973
 C183 C 0.83494 0.27101 0.47064
 C184 C 0.85866 0.28907 0.48660
 C185 C 0.85818 0.28825 0.53905
 C186 C 0.83408 0.26995 0.55347
 N187 N 0.81999 0.25937 0.51165
 C188 C 0.82426 0.26556 0.60388
 C189 C 0.80113 0.24449 0.61779
 C190 C 0.78703 0.24241 0.66121
 C191 C 0.76645 0.21916 0.66167
 C192 C 0.76858 0.20742 0.61876
 N193 N 0.78969 0.22317 0.59184
 C194 C 0.75140 0.18280 0.60496
 H195 H 0.73034 0.13516 0.55577
 H196 H 0.72769 0.13812 0.45660
 H197 H 0.79699 0.21897 0.55978
 H198 H 0.75548 0.21520 0.32838
 H199 H 0.79707 0.25792 0.32731
 H200 H 0.87448 0.30201 0.46327
 H201 H 0.87360 0.30028 0.56374
 H202 H 0.75123 0.21223 0.68966
 H203 H 0.79429 0.22213 0.46715
 H204 H 0.79074 0.25637 0.68911
 O205 O 0.98819 0.53338 -0.08500
 O206 O 1.01442 0.54447 0.08868
 O207 O 0.95878 0.51995 0.03764
 O208 O 1.04374 0.55534 -0.03251
 O209 O 0.97144 0.51121 0.10442
 O210 O 1.02859 0.53499 -0.09915
 O211 O 1.04838 0.54894 0.05369
 O212 O 0.95247 0.50910 -0.04834
 C213 C 0.96589 0.52766 -0.07567
 C214 C 1.03741 0.55758 0.07975
 C215 C 0.96211 0.52249 0.08398
 C216 C 1.04071 0.55524 -0.07893
 O217 O 1.00594 0.48693 -0.08658
 O218 O 0.98679 0.47892 0.09177
 O219 O 0.95241 0.46583 -0.02406
 O220 O 1.03955 0.50212 0.03001
 O221 O 1.03038 0.51246 0.09932
 O222 O 0.96517 0.48532 -0.09315
 O223 O 1.04282 0.51184 -0.05678
 O224 O 0.95149 0.47383 0.06309
 Co225 Co 0.99717 0.51023 -0.08156
 Co226 Co 1.00057 0.51168 0.08643
 Co227 Co 0.95791 0.49387 0.00670
 Co228 Co 1.03950 0.52783 -0.00105
 O229 O 0.99879 0.51091 0.00258
 C230 C 1.02849 0.49277 -0.08108
 C231 C 0.96350 0.46567 0.08711
 C232 C 0.95346 0.46536 -0.07096
 C233 C 1.03977 0.50168 0.07690
 O234 O 0.47306 0.44531 -0.07957
 O235 O 0.46723 0.48551 0.09902
 O236 O 0.48633 0.44338 0.03469
 O237 O 0.44660 0.49663 -0.04819
 O238 O 0.49295 0.46623 0.09867
 O239 O 0.44732 0.46540 -0.08005
 O240 O 0.44333 0.47803 0.03486
 O241 O 0.50758 0.44903 -0.04803
 C242 C 0.48831 0.43763 -0.07538
 C243 C 0.44536 0.47571 0.08104
 C244 C 0.48425 0.44524 0.08106
 C245 C 0.43640 0.47751 -0.07430
 O246 O 0.48808 0.50847 -0.10581
 O247 O 0.53267 0.50575 0.05744
 O248 O 0.53768 0.49407 -0.03568
 O249 O 0.46839 0.52517 0.04214
 O250 O 0.50523 0.52675 0.05749
 O251 O 0.51491 0.48753 -0.10522
 O252 O 0.49224 0.52992 -0.03661
 O253 O 0.53527 0.47232 0.04353
 Co254 Co 0.48142 0.47728 -0.08590
 Co255 Co 0.49871 0.49528 0.07093
 Co256 Co 0.51081 0.47028 0.00227
 Co257 Co 0.46973 0.50302 0.00199
 O258 O 0.48795 0.48421 -0.00726
 C259 C 0.49434 0.52878 -0.08448
 C260 C 0.54371 0.49331 0.06660
 C261 C 0.53633 0.49601 -0.08352
 C262 C 0.49020 0.53518 0.06586
 O263 O 0.54075 0.01842 -0.09458
 O264 O 0.53346 -0.02115 0.06709
 O265 O 0.54785 0.05507 0.04215
 O266 O 0.49153 -0.05711 -0.04798
 O267 O 0.54942 0.02303 0.06904
 O268 O 0.51900 -0.02730 -0.09874
 O269 O 0.49830 -0.05363 0.04556
 O270 O 0.55637 0.03032 -0.01979
 C271 C 0.55964 0.02898 -0.06636
 C272 C 0.52054 -0.04383 0.06307
 C273 C 0.55646 0.04551 0.07542
 C274 C 0.50803 -0.04923 -0.08384
 O275 O 0.47597 -0.02958 -0.10332
 O276 O 0.50275 0.01360 0.09752
 O277 O 0.52548 0.04489 -0.05118
 O278 O 0.46229 -0.03904 0.05132
 O279 O 0.48989 -0.02999 0.10751
 O280 O 0.49497 0.01455 -0.08967
 O281 O 0.45446 -0.04583 -0.03493
 O282 O 0.49999 0.03046 0.02864
 Co283 Co 0.50783 -0.00579 -0.08770
 Co284 Co 0.51765 -0.00391 0.07696
 Co285 Co 0.52701 0.02843 0.00523
 Co286 Co 0.47927 -0.04556 0.00361
 O287 O 0.50642 -0.00815 -0.00428
 C288 C 0.45520 -0.04210 -0.08139
 C289 C 0.49475 0.02582 0.07476
 C290 C 0.50752 0.03690 -0.08209
 C291 C 0.46735 -0.03782 0.09667
 C292 C 1.13536 0.44703 0.28480
 N293 N 1.15366 0.46388 0.31527
 N294 N 1.16426 0.45715 0.35125
 C295 C 1.15680 0.43326 0.35851
 N296 N 1.13875 0.41631 0.32756
 N297 N 1.12823 0.42311 0.29117
 C298 C 1.12210 0.45471 0.24941
 N299 N 1.10707 0.43991 0.21163
 N300 N 1.09416 0.44693 0.18176
 C301 C 1.09562 0.46882 0.18927
 N302 N 1.11066 0.48353 0.22692
 N303 N 1.12376 0.47667 0.25621
 C304 C 1.08046 0.47642 0.15946
 N305 N 1.07474 0.49273 0.17983
 N306 N 1.06139 0.50032 0.15349
 C307 C 1.05354 0.49216 0.10547
 N308 N 1.05927 0.47585 0.08477
 N309 N 1.07238 0.46795 0.11153
 C310 C 0.53792 0.67531 0.28839
 N311 N 0.53324 0.69361 0.27727
 N312 N 0.53587 0.70968 0.31293
 C313 C 0.54291 0.70788 0.36131
 N314 N 0.54783 0.68963 0.37193
 N315 N 0.54549 0.67375 0.33620
 C316 C 0.53337 0.65653 0.25066
 N317 N 0.54262 0.64126 0.25828
 N318 N 0.53706 0.62305 0.22608
 C319 C 0.52179 0.61927 0.18545
 N320 N 0.51263 0.63462 0.17764
 N321 N 0.51841 0.65300 0.20958
 C322 C 0.51430 0.59816 0.15233
 N323 N 0.49393 0.59015 0.12118
 N324 N 0.48628 0.57011 0.09331
 C325 C 0.49886 0.55752 0.09537
 N326 N 0.51937 0.56566 0.12611
 N327 N 0.52686 0.58555 0.15432
 C328 C 0.31923 -0.12214 0.32342
 N329 N 0.32044 -0.12062 0.37507
 N330 N 0.30012 -0.13494 0.40366
 C331 C 0.27778 -0.15155 0.38199
 N332 N 0.27664 -0.15276 0.33013
 N333 N 0.29692 -0.13833 0.30143
 C334 C 0.34185 -0.10723 0.29182
 N335 N 0.33981 -0.10668 0.24032
 N336 N 0.36036 -0.09397 0.21119
 C337 C 0.38375 -0.08147 0.23234
 N338 N 0.38586 -0.08192 0.28394
 N339 N 0.36522 -0.09454 0.31319
 C340 C 0.40612 -0.06857 0.19895
 N341 N 0.43016 -0.05905 0.21696
 N342 N 0.45006 -0.04872 0.18495
 C343 C 0.44647 -0.04756 0.13400
 N344 N 0.42250 -0.05682 0.11645
 N345 N 0.40273 -0.06714 0.14821
 C346 C 0.88579 0.59004 0.31054
 N347 N 0.86978 0.59759 0.29392
 N348 N 0.85406 0.59959 0.32657
 C349 C 0.85359 0.59386 0.37688
 N350 N 0.86996 0.58673 0.39344
 N351 N 0.88578 0.58491 0.36095
 C352 C 0.90112 0.58508 0.27446
 N353 N 0.91710 0.57778 0.29235
 N354 N 0.92902 0.57057 0.26029
 C355 C 0.92535 0.57031 0.20912
 N356 N 0.90969 0.57801 0.19101
 N357 N 0.89778 0.58529 0.22317
 C358 C 0.93646 0.55977 0.17507
 N359 N 0.93163 0.55743 0.12409
 N360 N 0.94017 0.54596 0.09446
 C361 C 0.95369 0.53633 0.11496
 N362 N 0.95872 0.53894 0.16571
 N363 N 0.95026 0.55042 0.19520
 C364 C 0.46160 0.30835 0.29280
 N365 N 0.48283 0.31199 0.31697
 N366 N 0.48203 0.29511 0.34860
 C367 C 0.45987 0.27410 0.35784
 N368 N 0.43866 0.27023 0.33297
 N369 N 0.43954 0.28702 0.30071
 C370 C 0.46239 0.32805 0.26180
 N371 N 0.44549 0.32335 0.22373
 N372 N 0.44659 0.34160 0.19601
 C373 C 0.46426 0.36515 0.20621
 N374 N 0.48092 0.36977 0.24459
 N375 N 0.48009 0.35156 0.27168
 C376 C 0.46644 0.38542 0.17510
 N377 N 0.47838 0.40841 0.19412
 N378 N 0.48280 0.42736 0.16467
 C379 C 0.47567 0.42404 0.11496
 N380 N 0.46345 0.40100 0.09601
 N381 N 0.45873 0.38199 0.12570
 C382 C 0.69308 0.14536 0.31471
 N383 N 0.70973 0.13840 0.33047
 N384 N 0.72777 0.15181 0.36402
 C385 C 0.72966 0.17254 0.38324
 N386 N 0.71298 0.17943 0.36753
 N387 N 0.69507 0.16613 0.33380
 C388 C 0.67312 0.13068 0.27793
 N389 N 0.65866 0.13929 0.25757
 N390 N 0.64034 0.12593 0.22457
 C391 C 0.63571 0.10341 0.21098
 N392 N 0.65015 0.09478 0.23136
 N393 N 0.66858 0.10820 0.26414
 C394 C 0.61523 0.08850 0.17534
 N395 N 0.60828 0.06479 0.16742
 N396 N 0.58951 0.05113 0.13557
 C397 C 0.57710 0.06071 0.11027
 N398 N 0.58406 0.08443 0.11803
 N399 N 0.60275 0.09807 0.15014
 C400 C 0.47210 0.14025 -0.30640
 N401 N 0.47995 0.16409 -0.29757
 N402 N 0.47732 0.17769 -0.33336
 C403 C 0.46706 0.16810 -0.37961
 N404 N 0.45895 0.14412 -0.38780
 N405 N 0.46137 0.13048 -0.35197
 C406 C 0.47589 0.12529 -0.26849
 N407 N 0.46494 0.10086 -0.27543
 N408 N 0.46923 0.08718 -0.24288
 C409 C 0.48477 0.09741 -0.20234
 N410 N 0.49567 0.12186 -0.19511
 N411 N 0.49124 0.13557 -0.22759
 C412 C 0.49020 0.08207 -0.16861
 N413 N 0.50852 0.09191 -0.13239
 N414 N 0.51404 0.07763 -0.10405
 C415 C 0.50135 0.05306 -0.11102
 N416 N 0.48294 0.04332 -0.14687
 N417 N 0.47752 0.05754 -0.17518
 C418 C 0.68558 0.56073 -0.30883
 N419 N 0.70942 0.56848 -0.29183
 N420 N 0.72841 0.57442 -0.32492
 C421 C 0.72437 0.57281 -0.37631
 N422 N 0.70040 0.56500 -0.39276
 N423 N 0.68146 0.55915 -0.35987
 C424 C 0.66424 0.55340 -0.27325
 N425 N 0.64080 0.54618 -0.29182
 N426 N 0.62098 0.53854 -0.26036
 C427 C 0.62383 0.53780 -0.20910
 N428 N 0.64732 0.54517 -0.19032
 N429 N 0.66721 0.55286 -0.22188
 C430 C 0.60150 0.52815 -0.17538
 N431 N 0.60340 0.52600 -0.12409
 N432 N 0.58269 0.51611 -0.09439
 C433 C 0.55942 0.50802 -0.11502
 N434 N 0.55761 0.51036 -0.16616
 N435 N 0.57826 0.52024 -0.19576
 C436 C 0.86089 0.32224 -0.29027
 N437 N 0.85292 0.29881 -0.27605
 N438 N 0.84128 0.28069 -0.30950
 C439 C 0.83720 0.28540 -0.35824
 N440 N 0.84496 0.30881 -0.37202
 N441 N 0.85665 0.32685 -0.33879
 C442 C 0.87437 0.34264 -0.25491
 N443 N 0.88479 0.36583 -0.27297
 N444 N 0.89731 0.38471 -0.24203
 C445 C 0.89983 0.38120 -0.19172
 N446 N 0.88933 0.35799 -0.17333
 N447 N 0.87685 0.33900 -0.20449
 C448 C 0.91394 0.40255 -0.15893
 N449 N 0.91433 0.40055 -0.10717
 N450 N 0.92697 0.42048 -0.07849
 C451 C 0.93967 0.44297 -0.10078
 N452 N 0.93934 0.44482 -0.15238
 N453 N 0.92669 0.42502 -0.18086
 C454 C 0.54068 -0.15733 -0.29699
 N455 N 0.55627 -0.14728 -0.33817
 N456 N 0.55771 -0.16137 -0.37411
 C457 C 0.54361 -0.18606 -0.37020
 N458 N 0.52831 -0.19616 -0.32860
 N459 N 0.52681 -0.18204 -0.29269
 C460 C 0.53788 -0.14162 -0.25956
 N461 N 0.52045 -0.15131 -0.22105
 N462 N 0.51686 -0.13684 -0.18937
 C463 C 0.53060 -0.11219 -0.19509
 N464 N 0.54820 -0.10255 -0.23321
 N465 N 0.55176 -0.11698 -0.26485
 C466 C 0.52564 -0.09602 -0.16310
 N467 N 0.53862 -0.07160 -0.17214
 N468 N 0.53324 -0.05679 -0.14596
 C469 C 0.51470 -0.06579 -0.10964
 N470 N 0.50185 -0.09021 -0.10002
 N471 N 0.50722 -0.10509 -0.12637
 C472 C 0.28810 0.43117 -0.28623
 N473 N 0.27013 0.43750 -0.27839
 N474 N 0.25417 0.43501 -0.31565
 C475 C 0.25587 0.42654 -0.36242
 N476 N 0.27369 0.41993 -0.36961
 N477 N 0.28940 0.42212 -0.33229
 C478 C 0.30701 0.43538 -0.24730
 N479 N 0.32154 0.42487 -0.25236
 N480 N 0.34040 0.43022 -0.22015
 C481 C 0.34561 0.44645 -0.18194
 N482 N 0.33092 0.45683 -0.17641
 N483 N 0.31186 0.45131 -0.20849
 C484 C 0.36794 0.45368 -0.15009
 N485 N 0.37711 0.47341 -0.11895
 N486 N 0.39875 0.48094 -0.09376
 C487 C 0.41187 0.46894 -0.09894
 N488 N 0.40248 0.44908 -0.12950
 N489 N 0.38098 0.44164 -0.15470
 C490 C 1.12731 0.69712 -0.30745
 N491 N 1.14463 0.71973 -0.29106
 N492 N 1.15878 0.73737 -0.32461
 C493 C 1.15633 0.73315 -0.37587
 N494 N 1.13875 0.71047 -0.39180
 N495 N 1.12454 0.69286 -0.35841
 C496 C 1.11260 0.67712 -0.27113
 N497 N 1.09530 0.65477 -0.28875
 N498 N 1.08286 0.63606 -0.25659
 C499 C 1.08726 0.63895 -0.20559
 N500 N 1.10441 0.66137 -0.18776
 N501 N 1.11687 0.68015 -0.22001
 C502 C 1.07446 0.61771 -0.17132
 N503 N 1.07910 0.61957 -0.12025
 N504 N 1.06815 0.59975 -0.09021
 C505 C 1.05231 0.57746 -0.11038
 N506 N 1.04760 0.57571 -0.16125
 N507 N 1.05846 0.59544 -0.19114
 C508 C 0.87551 0.58370 -0.29487
 N509 N 0.88244 0.58741 -0.34490
 N510 N 0.86792 0.58991 -0.37944
 C511 C 0.84588 0.58898 -0.36574
 N512 N 0.83934 0.58574 -0.31524
 N513 N 0.85372 0.58300 -0.28060
 C514 C 0.89068 0.57911 -0.25761
 N515 N 0.88103 0.56951 -0.21072
 N516 N 0.89407 0.56364 -0.17858
 C517 C 0.91732 0.56733 -0.19196
 N518 N 0.92710 0.57727 -0.23854
 N519 N 0.91400 0.58297 -0.27080
 C520 C 0.93086 0.55902 -0.15846
 N521 N 0.95502 0.56475 -0.16967
 N522 N 0.96657 0.55553 -0.14197
 C523 C 0.95433 0.54012 -0.10217
 N524 N 0.93026 0.53460 -0.09057
 N525 N 0.91878 0.54396 -0.11806
 C526 C 0.46533 0.30552 -0.30327
 N527 N 0.45487 0.30474 -0.34936
 N528 N 0.45396 0.28958 -0.38548
 C529 C 0.46333 0.27442 -0.37711
 N530 N 0.47334 0.27491 -0.33039
 N531 N 0.47448 0.29026 -0.29432
 C532 C 0.46727 0.32320 -0.26475
 N533 N 0.48285 0.32871 -0.22387
 N534 N 0.48547 0.34579 -0.19073
 C535 C 0.47244 0.35780 -0.19715
 N536 N 0.45668 0.35207 -0.23769
 N537 N 0.45423 0.33517 -0.27095
 C538 C 0.47586 0.37744 -0.16250
 N539 N 0.46048 0.38707 -0.16657
 N540 N 0.46419 0.40582 -0.13771
 C541 C 0.48351 0.41578 -0.10380
 N542 N 0.49887 0.40608 -0.09933
 N543 N 0.49506 0.38717 -0.12810
 C544 C 0.70333 0.13327 -0.28521
 N545 N 0.72524 0.15340 -0.27114
 N546 N 0.74086 0.16917 -0.30642
 C547 C 0.73518 0.16569 -0.35716
 N548 N 0.71313 0.14549 -0.37058
 N549 N 0.69764 0.12962 -0.33559
 C550 C 0.68534 0.11588 -0.24730
 N551 N 0.66582 0.09428 -0.26334
 N552 N 0.64823 0.07895 -0.23048
 C553 C 0.64934 0.08459 -0.18021
 N554 N 0.66904 0.10611 -0.16380
 N555 N 0.68681 0.12146 -0.19678
 C556 C 0.62796 0.06849 -0.14634
 N557 N 0.62606 0.07478 -0.09749
 N558 N 0.60483 0.06138 -0.07009
 C559 C 0.58484 0.04129 -0.09074
 N560 N 0.58711 0.03481 -0.13899
 N561 N 0.60823 0.04805 -0.16612
 C562 C 1.11590 0.43436 -0.30386
 N563 N 1.10716 0.42698 -0.35188
 N564 N 1.12146 0.42405 -0.38669
 C565 C 1.14510 0.42836 -0.37510
 N566 N 1.15351 0.43532 -0.32655
 N567 N 1.13929 0.43835 -0.29178
 C568 C 1.10097 0.43934 -0.26645
 N569 N 1.11146 0.45035 -0.22150
 N570 N 1.09868 0.45645 -0.18900
 C571 C 1.07487 0.45164 -0.20005
 N572 N 1.06423 0.44032 -0.24470
 N573 N 1.07706 0.43432 -0.27735
 C574 C 1.06175 0.46029 -0.16608
 N575 N 1.03742 0.45449 -0.17504
 N576 N 1.02636 0.46404 -0.14663
 C577 C 1.03930 0.47984 -0.10840
 N578 N 1.06351 0.48539 -0.09911
 N579 N 1.07448 0.47573 -0.12726
 C580 C 0.53753 0.66925 -0.30906
 N581 N 0.53457 0.68812 -0.29360
 N582 N 0.53656 0.70496 -0.32710
 C583 C 0.54151 0.70363 -0.37747
 N584 N 0.54490 0.68489 -0.39227
 N585 N 0.54289 0.66806 -0.35896
 C586 C 0.53377 0.64964 -0.27343
 N587 N 0.53438 0.62982 -0.29116
 N588 N 0.52974 0.61134 -0.25996
 C589 C 0.52439 0.61198 -0.20973
 N590 N 0.52401 0.63191 -0.19179
 N591 N 0.52857 0.65039 -0.22309
 C592 C 0.51795 0.59088 -0.17628
 N593 N 0.51377 0.59159 -0.12539
 N594 N 0.50680 0.57198 -0.09584
 C595 C 0.50366 0.55092 -0.11613
 N596 N 0.50797 0.55028 -0.16692
 N597 N 0.51505 0.56990 -0.19639
 C598 C 0.30569 -0.12691 -0.29925
 N599 N 0.28328 -0.14600 -0.28275
 N600 N 0.26518 -0.15964 -0.31610
 C601 C 0.26876 -0.15484 -0.36723
 N602 N 0.29121 -0.13551 -0.38309
 N603 N 0.30923 -0.12186 -0.34998
 C604 C 0.32655 -0.11254 -0.26390
 N605 N 0.34887 -0.09412 -0.28249
 N606 N 0.36858 -0.08183 -0.25181
 C607 C 0.36676 -0.08746 -0.20131
 N608 N 0.34435 -0.10573 -0.18242
 N609 N 0.32457 -0.11808 -0.21322
 C610 C 0.38924 -0.07477 -0.16886
 N611 N 0.38816 -0.07999 -0.11815
 N612 N 0.40909 -0.06923 -0.08984
 C613 C 0.43180 -0.05297 -0.11133
 N614 N 0.43279 -0.04767 -0.16188
 N615 N 0.41191 -0.05834 -0.19008
 C616 C 0.54785 -0.15116 0.28884
 N617 N 0.56128 -0.14195 0.33244
 N618 N 0.56111 -0.15681 0.36893
 C619 C 0.54748 -0.18144 0.36319
 N620 N 0.53419 -0.19061 0.31943
 N621 N 0.53431 -0.17577 0.28304
 C622 C 0.54716 -0.13488 0.24934
 N623 N 0.53134 -0.14428 0.20886
 N624 N 0.52963 -0.12961 0.17444
 C625 C 0.54382 -0.10496 0.17895
 N626 N 0.55989 -0.09554 0.21910
 N627 N 0.56152 -0.11022 0.25366
 C628 C 0.54011 -0.08889 0.14364
 N629 N 0.55447 -0.06421 0.14736
 N630 N 0.54920 -0.04971 0.11928
 C631 C 0.52936 -0.05936 0.08645
 N632 N 0.51533 -0.08402 0.08202
 N633 N 0.52068 -0.09850 0.10988
 C634 C 0.29853 0.42679 0.30709
 N635 N 0.28216 0.43453 0.29415
 N636 N 0.26433 0.43233 0.32703
 C637 C 0.26198 0.42208 0.37397
 N638 N 0.27810 0.41394 0.38643
 N639 N 0.29609 0.41635 0.35377
 C640 C 0.31932 0.43081 0.27220
 N641 N 0.33937 0.42912 0.28944
 N642 N 0.35893 0.43419 0.25855
 C643 C 0.35902 0.44092 0.20913
 N644 N 0.33883 0.44232 0.19177
 N645 N 0.31940 0.43747 0.22276
 C646 C 0.38110 0.44790 0.17552
 N647 N 0.37953 0.45118 0.12465
 N648 N 0.39987 0.45918 0.09445
 C649 C 0.42262 0.46434 0.11394
 N650 N 0.42421 0.46087 0.16478
 N651 N 0.40377 0.45267 0.19499
 C652 C 1.13696 0.70095 0.29463
 N653 N 1.12796 0.71521 0.31299
 N654 N 1.14116 0.73256 0.34716
 C655 C 1.16375 0.73615 0.36454
 N656 N 1.17266 0.72183 0.34625
 N657 N 1.15960 0.70466 0.31179
 C658 C 1.12227 0.68135 0.25793
 N659 N 1.13313 0.66993 0.23371
 N660 N 1.11971 0.65156 0.20188
 C661 C 1.09485 0.64376 0.19329
 N662 N 1.08396 0.65521 0.21739
 N663 N 1.09746 0.67374 0.24896
 C664 C 1.07983 0.62248 0.16050
 N665 N 1.05408 0.61116 0.16020
 N666 N 1.04050 0.59083 0.13331
 C667 C 1.05219 0.58120 0.10541
 N668 N 1.07793 0.59275 0.10511
 N669 N 1.09148 0.61296 0.13222
 C670 C 0.46386 0.13495 0.28577
 N671 N 0.48465 0.15084 0.31248
 N672 N 0.48347 0.16606 0.34585
 C673 C 0.46132 0.16568 0.35464
 N674 N 0.44054 0.15002 0.32733
 N675 N 0.44182 0.13502 0.29326
 C676 C 0.46504 0.11677 0.25292
 N677 N 0.45064 0.10802 0.21023
 N678 N 0.45227 0.09160 0.18095
 C679 C 0.46794 0.08302 0.19408
 N680 N 0.48206 0.09164 0.23697
 N681 N 0.48078 0.10831 0.26559
 C682 C 0.47067 0.06533 0.16242
 N683 N 0.47820 0.05068 0.18466
 N684 N 0.48412 0.03682 0.15635
 C685 C 0.48297 0.03719 0.10459
 N686 N 0.47497 0.05152 0.08214
 N687 N 0.46872 0.06522 0.11063
 C688 C 0.69042 0.55509 0.29542
 N689 N 0.70285 0.57854 0.31205
 N690 N 0.72139 0.58580 0.34624
 C691 C 0.72810 0.56986 0.36517
 N692 N 0.71566 0.54644 0.34853
 N693 N 0.69723 0.53921 0.31422
 C694 C 0.66957 0.54673 0.25860
 N695 N 0.65845 0.52368 0.23993
 N696 N 0.63912 0.51573 0.20760
 C697 C 0.63009 0.53050 0.19283
 N698 N 0.64125 0.55359 0.21138
 N699 N 0.66066 0.56158 0.24361
 C700 C 0.60819 0.52130 0.15846
 N701 N 0.59737 0.53500 0.14743
 N702 N 0.57700 0.52621 0.11764
 C703 C 0.56677 0.50347 0.09764
 N704 N 0.57767 0.48984 0.10843
 N705 N 0.59798 0.49859 0.13831
 C706 C 0.86801 0.32299 0.31182
 N707 N 0.87808 0.31014 0.33295
 N708 N 0.86479 0.29236 0.36693
 C709 C 0.84102 0.28689 0.38123
 N710 N 0.83109 0.29988 0.36032
 N711 N 0.84427 0.31749 0.32613
 C712 C 0.88250 0.34280 0.27463
 N713 N 0.87087 0.35303 0.24875
 N714 N 0.88389 0.37141 0.21604
 C715 C 0.90909 0.38039 0.20807
 N716 N 0.92075 0.37014 0.23384
 N717 N 0.90767 0.35161 0.26639
 C718 C 0.92345 0.40153 0.17377
 N719 N 0.94923 0.41348 0.17175
 N720 N 0.96209 0.43359 0.14308
 C721 C 0.94963 0.44236 0.11514
 N722 N 0.92388 0.43020 0.11664
 N723 N 0.91105 0.41020 0.14544
   
