data_POSCAR
  _audit_creation_date              2014-09-24
  _audit_creation_method            'ToBaCCo'
  _symmetry_space_group_name_H-M    'P1'
  _symmetry_Int_Tables_number       1
  _symmetry_cell_setting            triclinic
  loop_
  _symmetry_equiv_pos_as_xyz
 x,y,z
_cell_length_a 35.0253
_cell_length_b 35.0341
_cell_length_c 34.2194
_cell_angle_alpha 90.785800
_cell_angle_beta 90.706400
_cell_angle_gamma 88.403600
loop_
  _atom_site_label
  _atom_site_type_symbol
  _atom_site_fract_x
  _atom_site_fract_y
  _atom_site_fract_z
C1 C 0.67733 0.70211 0.96134
 H2 H 0.70545 0.70818 0.95081
 C3 C 0.64493 0.71644 0.94150
 H4 H 0.64875 0.73316 0.91569
 C5 C 0.63847 0.66979 1.00553
 H6 H 0.63574 0.65046 1.02951
 C7 C 0.60549 0.68370 0.98682
 H8 H 0.57788 0.67574 0.99750
 N9 N 0.67359 0.67910 0.99267
 C10 C 0.76259 0.69247 1.07360
 H11 H 0.74544 0.67838 1.09442
 C12 C 0.79592 0.70903 1.08719
 H13 H 0.80246 0.70865 1.11812
 C14 C 0.77630 0.70929 1.00867
 H15 H 0.76948 0.70786 0.97780
 C16 C 0.81097 0.72488 1.02099
 H17 H 0.83038 0.73546 0.99953
 Zn18 Zn 0.71752 0.65498 1.01554
 N19 N 0.75414 0.69104 1.03464
 C20 C 0.78027 0.62276 0.97516
 N21 N 0.74153 0.62389 0.97647
 C22 C 0.72034 0.60548 0.94888
 C23 C 0.73822 0.58590 0.91781
 C24 C 0.79913 0.60487 0.94407
 C25 C 0.68524 0.64217 1.08854
 C26 C 0.67790 0.62238 1.12247
 C27 C 0.70013 0.56431 1.09025
 C28 C 0.70901 0.58582 1.05757
 N29 N 0.70220 0.62420 1.05765
 H30 H 0.79680 0.63652 0.99786
 H31 H 0.68952 0.60651 0.95065
 H32 H 0.72070 0.57116 0.89655
 H33 H 0.82980 0.60695 0.94330
 H34 H 0.67871 0.67251 1.08733
 H35 H 0.66453 0.63822 1.14622
 H36 H 0.70703 0.53400 1.08954
 H37 H 0.72205 0.57193 1.03247
 C38 C 0.82192 0.72269 1.06049
 C39 C 0.60838 0.70705 0.95411
 C40 C 0.68571 0.58267 1.12430
 C41 C 0.77829 0.58597 0.91449
 C42 C 0.74565 0.32615 0.54714
 H43 H 0.77520 0.31968 0.55419
 C44 C 0.71730 0.30270 0.56097
 H45 H 0.72535 0.27822 0.57855
 C46 C 0.69875 0.36633 0.51701
 H47 H 0.69135 0.39202 0.50122
 C48 C 0.66962 0.34336 0.52967
 H49 H 0.64017 0.35144 0.52322
 N50 N 0.73601 0.35726 0.52542
 C51 C 0.82870 0.36710 0.45329
 H52 H 0.81064 0.38283 0.43309
 C53 C 0.86225 0.34965 0.43967
 H54 H 0.86868 0.35167 0.40891
 C55 C 0.84232 0.34582 0.51741
 H56 H 0.83498 0.34545 0.54799
 C57 C 0.87647 0.32794 0.50497
 H58 H 0.89480 0.31365 0.52619
 Zn59 Zn 0.77346 0.39128 0.50807
 N60 N 0.81905 0.36476 0.49151
 C61 C 0.82154 0.43519 0.55695
 N62 N 0.78485 0.42530 0.54977
 C63 C 0.75598 0.43786 0.57332
 C64 C 0.76368 0.46059 0.60622
 C65 C 0.83048 0.45800 0.58939
 C66 C 0.73506 0.39687 0.43660
 C67 C 0.71480 0.41437 0.40619
 C68 C 0.73130 0.47585 0.43349
 C69 C 0.75060 0.45710 0.46406
 N70 N 0.75166 0.41828 0.46526
 H71 H 0.84402 0.42503 0.53777
 H72 H 0.72702 0.42962 0.56696
 H73 H 0.74040 0.47005 0.62485
 H74 H 0.86005 0.46464 0.59508
 H75 H 0.73645 0.36604 0.43826
 H76 H 0.70067 0.39700 0.38427
 H77 H 0.72981 0.50676 0.43308
 H78 H 0.76405 0.47348 0.48717
 C79 C 0.88689 0.32977 0.46551
 C80 C 0.67875 0.31124 0.55214
 C81 C 0.71241 0.45427 0.40476
 C82 C 0.80140 0.47077 0.61475
 C83 C 0.18330 -0.19026 0.01472
 H84 H 0.20662 -0.20523 0.00021
 C85 C 0.15153 -0.21032 0.02632
 H86 H 0.15057 -0.24076 0.02064
 C87 C 0.15589 -0.13241 0.03968
 H88 H 0.15791 -0.10197 0.04465
 C89 C 0.12349 -0.15121 0.05135
 H90 H 0.10086 -0.13515 0.06596
 N91 N 0.18448 -0.15188 0.02088
 C92 C 0.30024 -0.15502 0.00000
 H93 H 0.30492 -0.13957 0.02705
 C94 C 0.33109 -0.17372 -0.01814
 H95 H 0.35918 -0.17246 -0.00468
 C96 C 0.25880 -0.17304 -0.05190
 H97 H 0.23065 -0.17181 -0.06527
 C98 C 0.28896 -0.19170 -0.07129
 H99 H 0.28368 -0.20528 -0.09938
 Zn100 Zn 0.22490 -0.12288 0.00247
 N101 N 0.26507 -0.15452 -0.01733
 C102 C 0.25336 -0.10957 0.07801
 N103 N 0.24258 -0.09215 0.04418
 C104 C 0.24456 -0.05366 0.04020
 C105 C 0.25977 -0.03136 0.07034
 C106 C 0.26878 -0.08834 0.10886
 C107 C 0.16943 -0.09090 -0.04880
 C108 C 0.15621 -0.07034 -0.08092
 C109 C 0.22093 -0.05245 -0.09342
 C110 C 0.23278 -0.07310 -0.06055
 N111 N 0.20710 -0.09199 -0.03919
 H112 H 0.25099 -0.14016 0.08049
 H113 H 0.23518 -0.04029 0.01338
 H114 H 0.26266 -0.00095 0.06646
 H115 H 0.27881 -0.10257 0.13510
 H116 H 0.14943 -0.10683 -0.03229
 H117 H 0.12612 -0.07199 -0.08791
 H118 H 0.24255 -0.03742 -0.10874
 H119 H 0.26271 -0.07452 -0.05230
 C120 C 0.32588 -0.19134 -0.05484
 C121 C 0.12082 -0.19056 0.04418
 C122 C 0.18191 -0.05101 -0.10486
 C123 C 0.27245 -0.04893 0.10476
 C124 C 0.24321 0.18852 0.47074
 H125 H 0.26974 0.18849 0.45489
 C126 C 0.21119 0.20837 0.45596
 H127 H 0.21372 0.22433 0.42928
 C128 C 0.20673 0.16490 0.52252
 H129 H 0.20445 0.14655 0.54741
 C130 C 0.17400 0.18441 0.50877
 H131 H 0.14715 0.18088 0.52346
 N132 N 0.24021 0.16631 0.50276
 C133 C 0.35381 0.13101 0.54637
 H134 H 0.34763 0.10160 0.55235
 C135 C 0.38862 0.14577 0.55873
 H136 H 0.40830 0.12749 0.57471
 C137 C 0.33362 0.19100 0.52140
 H138 H 0.31195 0.20875 0.50740
 C139 C 0.36829 0.20687 0.53304
 H140 H 0.37302 0.23670 0.52739
 Zn141 Zn 0.28034 0.13005 0.51401
 N142 N 0.32716 0.15351 0.52789
 C143 C 0.32058 0.07888 0.46311
 N144 N 0.28709 0.09862 0.46882
 C145 C 0.25885 0.09864 0.44110
 C146 C 0.26451 0.08003 0.40524
 C147 C 0.32730 0.05956 0.42778
 C148 C 0.26503 0.11959 0.59177
 C149 C 0.24850 0.10317 0.62396
 C150 C 0.23519 0.04730 0.58433
 C151 C 0.25196 0.06499 0.55259
 N152 N 0.26538 0.10093 0.55674
 H153 H 0.34265 0.07909 0.48539
 H154 H 0.23208 0.11377 0.44639
 H155 H 0.24208 0.08115 0.38319
 H156 H 0.35473 0.04528 0.42324
 H157 H 0.27579 0.14819 0.59406
 H158 H 0.24684 0.11922 0.65120
 H159 H 0.22259 0.01963 0.58030
 H160 H 0.25240 0.05093 0.52426
 C161 C 0.39645 0.18414 0.55193
 C162 C 0.17566 0.20526 0.47419
 C163 C 0.23221 0.06716 0.62013
 C164 C 0.29933 0.06069 0.39800
 C165 C 0.19318 0.47280 0.16846
 H166 H 0.20819 0.49203 0.18782
 C167 C 0.21077 0.45883 0.13428
 H168 H 0.23918 0.46799 0.12775
 C169 C 0.13740 0.43881 0.15296
 H170 H 0.10861 0.43135 0.16023
 C171 C 0.15402 0.42361 0.11935
 H172 H 0.13778 0.40367 0.10195
 N173 N 0.15704 0.46260 0.17693
 C174 C 0.15953 0.48394 0.29760
 H175 H 0.14450 0.45798 0.30230
 C176 C 0.17745 0.50164 0.32939
 H177 H 0.17622 0.48876 0.35791
 C178 C 0.17668 0.53383 0.25580
 H179 H 0.17530 0.54672 0.22725
 C180 C 0.19459 0.55275 0.28694
 H181 H 0.20765 0.57988 0.28191
 Zn182 Zn 0.12855 0.47975 0.22076
 N183 N 0.15928 0.50022 0.26167
 C184 C 0.12770 0.40629 0.24755
 N185 N 0.10374 0.43642 0.23947
 C186 C 0.06548 0.43472 0.24549
 C187 C 0.05048 0.40255 0.26300
 C188 C 0.11408 0.37399 0.26532
 C189 C 0.09843 0.53315 0.16804
 C190 C 0.07852 0.56609 0.15638
 C191 C 0.04875 0.56962 0.21958
 C192 C 0.06981 0.53674 0.23034
 N193 N 0.09417 0.51934 0.20459
 H194 H 0.15789 0.40822 0.24182
 H195 H 0.04685 0.45871 0.23809
 H196 H 0.02036 0.40218 0.26973
 H197 H 0.13392 0.35111 0.27347
 H198 H 0.11876 0.51980 0.14833
 H199 H 0.08441 0.57740 0.12801
 H200 H 0.02956 0.58305 0.24050
 H201 H 0.06760 0.52578 0.25960
 C202 C 0.19470 0.53684 0.32445
 C203 C 0.19119 0.43360 0.10912
 C204 C 0.05339 0.58508 0.18223
 C205 C 0.07527 0.37238 0.27430
 C206 C -0.15976 0.03985 0.23857
 H207 H -0.15881 0.05616 0.26563
 C208 C -0.17868 0.05499 0.20592
 H209 H -0.19137 0.08335 0.20879
 C210 C -0.14166 -0.01576 0.20263
 H211 H -0.12757 -0.04356 0.20156
 C212 C -0.15995 -0.00161 0.16912
 H213 H -0.15997 -0.01945 0.14308
 N214 N -0.14147 0.00525 0.23632
 C215 C -0.13222 -0.03578 0.35628
 H216 H -0.10158 -0.03650 0.36083
 C217 C -0.15606 -0.04642 0.38637
 H218 H -0.14367 -0.05530 0.41407
 C219 C -0.18551 -0.02499 0.31413
 H220 H -0.19685 -0.01693 0.28581
 C221 C -0.21036 -0.03645 0.34316
 H222 H -0.24076 -0.03711 0.33709
 Zn223 Zn -0.11311 -0.01111 0.28079
 N224 N -0.14717 -0.02479 0.32112
 C225 C -0.08722 0.04525 0.33458
 N226 N -0.08319 0.03116 0.29757
 C227 C -0.06170 0.04958 0.27118
 C228 C -0.04384 0.08369 0.28157
 C229 C -0.06945 0.07865 0.34627
 C230 C -0.09005 -0.08914 0.28304
 C231 C -0.07310 -0.12295 0.26878
 C232 C -0.04040 -0.08635 0.22098
 C233 C -0.05743 -0.05306 0.23670
 N234 N -0.08263 -0.05505 0.26650
 H235 H -0.10515 0.03153 0.35510
 H236 H -0.05979 0.03883 0.24151
 H237 H -0.02794 0.09855 0.25983
 H238 H -0.07256 0.08846 0.37615
 H239 H -0.11055 -0.09067 0.30616
 H240 H -0.07999 -0.14965 0.28220
 H241 H -0.02246 -0.08402 0.19568
 H242 H -0.05244 -0.02592 0.22335
 C243 C -0.19560 -0.04699 0.37986
 C244 C -0.17884 0.03448 0.17006
 C245 C -0.04885 -0.12214 0.23645
 C246 C -0.04828 0.09901 0.31945
 C247 C 0.31487 0.51677 0.67612
 H248 H 0.30134 0.51996 0.70427
 C249 C 0.29633 0.53080 0.64263
 H250 H 0.26846 0.54459 0.64552
 C251 C 0.36931 0.49864 0.63914
 H252 H 0.39830 0.48722 0.63826
 C253 C 0.35182 0.51220 0.60498
 H254 H 0.36744 0.50996 0.57804
 N255 N 0.35101 0.50179 0.67387
 C256 C 0.35703 0.49211 0.79882
 H257 H 0.37778 0.51389 0.80351
 C258 C 0.34030 0.47574 0.83116
 H259 H 0.34874 0.48505 0.86023
 C260 C 0.32241 0.45210 0.75576
 H261 H 0.31557 0.44290 0.72629
 C262 C 0.30513 0.43481 0.78727
 H263 H 0.28503 0.41240 0.78164
 Zn264 Zn 0.38058 0.49284 0.71966
 N265 N 0.34922 0.47894 0.76204
 C266 C 0.43355 0.53976 0.76120
 N267 N 0.40616 0.53875 0.73263
 C268 C 0.39388 0.57124 0.71448
 C269 C 0.40758 0.60658 0.72626
 C270 C 0.44826 0.57464 0.77377
 C271 C 0.40063 0.41643 0.70403
 C272 C 0.42434 0.38423 0.69867
 C273 C 0.47892 0.42473 0.70292
 C274 C 0.45409 0.45623 0.70875
 N275 N 0.41566 0.45149 0.70972
 H276 H 0.44282 0.51365 0.77541
 H277 H 0.37222 0.57014 0.69183
 H278 H 0.39647 0.63219 0.71228
 H279 H 0.46871 0.57508 0.79774
 H280 H 0.37011 0.41330 0.70363
 H281 H 0.41167 0.35667 0.69404
 H282 H 0.50943 0.42887 0.70233
 H283 H 0.46557 0.48437 0.71228
 C284 C 0.31533 0.44544 0.82565
 C285 C 0.31523 0.52960 0.60653
 C286 C 0.46405 0.38808 0.69837
 C287 C 0.43444 0.60871 0.75687
 C288 C 0.68414 0.92413 0.73881
 H289 H 0.67543 0.90856 0.76413
 C290 C 0.70370 0.90508 0.70874
 H291 H 0.70999 0.87473 0.71090
 C292 C 0.68350 0.98188 0.70342
 H293 H 0.67426 1.01136 0.70065
 C294 C 0.70387 0.96414 0.67308
 H295 H 0.70999 0.98012 0.64711
 N296 N 0.67349 0.96153 0.73513
 C297 C 0.64305 1.00706 0.84985
 H298 H 0.61240 1.01008 0.84608
 C299 C 0.66013 1.01853 0.88485
 H300 H 0.64187 1.03052 0.90745
 C301 C 0.70327 0.98969 0.82334
 H302 H 0.71985 0.97857 0.79908
 C303 C 0.72181 1.00235 0.85736
 H304 H 0.75263 0.99972 0.85886
 Zn305 Zn 0.63904 0.98191 0.77253
 N306 N 0.66462 0.99284 0.82006
 C307 C 0.59635 0.93039 0.81600
 N308 N 0.60138 0.94504 0.77989
 C309 C 0.58125 0.93212 0.74832
 C310 C 0.55380 0.90430 0.75274
 C311 C 0.56891 0.90318 0.82182
 C312 C 0.64091 1.05831 0.75406
 C313 C 0.62829 1.09357 0.73995
 C314 C 0.56569 1.06785 0.72917
 C315 C 0.57960 1.03284 0.74361
 N316 N 0.61692 1.02855 0.75478
 H317 H 0.61383 0.93932 0.84041
 H318 H 0.58663 0.94340 0.71970
 H319 H 0.53769 0.89437 0.72756
 H320 H 0.56520 0.89193 0.85082
 H321 H 0.67023 1.05432 0.76381
 H322 H 0.64818 1.11666 0.73903
 H323 H 0.53635 1.07043 0.71901
 H324 H 0.56076 1.00904 0.74515
 C325 C 0.70030 1.01780 0.88872
 C326 C 0.71301 0.92503 0.67509
 C327 C 0.59044 1.09856 0.72653
 C328 C 0.54702 0.89016 0.79005
 C329 C 0.02328 0.22426 -0.18635
 H330 H 0.03617 0.25191 -0.18778
 C331 C 0.03900 0.19333 -0.20726
 H332 H 0.06360 0.19761 -0.22540
 C333 C -0.02257 0.18452 -0.15865
 H334 H -0.04570 0.18095 -0.13852
 C335 C -0.00756 0.15269 -0.17894
 H336 H -0.01928 0.12507 -0.17383
 N337 N -0.00627 0.21915 -0.16180
 C338 C -0.05150 0.33144 -0.12608
 H339 H -0.05145 0.32674 -0.09489
 C340 C -0.06435 0.36642 -0.14069
 H341 H -0.07470 0.38824 -0.12042
 C342 C -0.03801 0.30834 -0.18995
 H343 H -0.02744 0.28564 -0.20895
 C344 C -0.05081 0.34312 -0.20595
 H345 H -0.04970 0.34688 -0.23725
 Zn346 Zn -0.01807 0.25887 -0.12559
 N347 N -0.03804 0.30345 -0.15055
 C348 C 0.04059 0.30769 -0.10070
 N349 N 0.02893 0.27097 -0.10041
 C350 C 0.05318 0.24204 -0.08901
 C351 C 0.09127 0.24939 -0.07922
 C352 C 0.07814 0.31626 -0.09103
 C353 C -0.09218 0.24962 -0.10018
 C354 C -0.12181 0.23397 -0.07955
 C355 C -0.07505 0.20232 -0.03803
 C356 C -0.04617 0.21896 -0.05951
 N357 N -0.05521 0.24153 -0.09043
 H358 H 0.02156 0.33039 -0.11040
 H359 H 0.04370 0.21292 -0.09003
 H360 H 0.11069 0.22585 -0.07209
 H361 H 0.08683 0.34563 -0.09228
 H362 H -0.09887 0.26746 -0.12498
 H363 H -0.15039 0.24266 -0.08835
 H364 H -0.06630 0.18302 -0.01501
 H365 H -0.01655 0.21254 -0.05242
 C366 C -0.06375 0.37293 -0.18108
 C367 C 0.02448 0.15669 -0.20260
 C368 C -0.11401 0.20821 -0.04875
 C369 C 0.10443 0.28678 -0.08159
 C370 C 0.45476 0.22737 0.18634
 H371 H 0.44178 0.25556 0.18524
 C372 C 0.43657 0.19894 0.20655
 H373 H 0.40917 0.20516 0.21991
 C374 C 0.50513 0.18412 0.16904
 H375 H 0.53163 0.17822 0.15409
 C376 C 0.48809 0.15489 0.18941
 H377 H 0.50102 0.12644 0.18915
 N378 N 0.48730 0.21906 0.16623
 C379 C 0.51289 0.33500 0.14201
 H380 H 0.49999 0.33722 0.11323
 C381 C 0.52573 0.36764 0.16122
 H382 H 0.52245 0.39497 0.14701
 C383 C 0.53494 0.29618 0.19435
 H384 H 0.53893 0.26804 0.20662
 C385 C 0.54836 0.32805 0.21452
 H386 H 0.56212 0.32437 0.24278
 Zn387 Zn 0.50424 0.25620 0.13070
 N388 N 0.51759 0.30026 0.15886
 C389 C 0.43270 0.28838 0.11034
 N390 N 0.46315 0.26826 0.09555
 C391 C 0.46320 0.25600 0.05761
 C392 C 0.43109 0.26244 0.03361
 C393 C 0.39995 0.29498 0.08762
 C394 C 0.58089 0.25770 0.10648
 C395 C 0.61469 0.24329 0.09002
 C396 C 0.58037 0.18860 0.06644
 C397 C 0.54719 0.20415 0.08318
 N398 N 0.54818 0.23769 0.10356
 H399 H 0.43382 0.29962 0.13984
 H400 H 0.48781 0.24075 0.04596
 H401 H 0.43130 0.25207 0.00365
 H402 H 0.37605 0.31100 0.10006
 H403 H 0.58113 0.28458 0.12229
 H404 H 0.64031 0.25967 0.09305
 H405 H 0.57912 0.16106 0.05182
 H406 H 0.52091 0.18870 0.08124
 C407 C 0.54387 0.36435 0.19790
 C408 C 0.45272 0.16203 0.20704
 C409 C 0.61502 0.20777 0.07051
 C410 C 0.39865 0.28144 0.04892
 C411 C 0.96313 0.72729 0.68471
 H412 H 0.95293 0.75662 0.68745
 C413 C 0.94962 0.69980 0.70990
 H414 H 0.93021 0.70891 0.73274
 C415 C 1.00036 0.68029 0.65119
 H416 H 1.01932 0.67254 0.62754
 C417 C 0.98651 0.65168 0.67481
 H418 H 0.99519 0.62245 0.66841
 N419 N 0.98845 0.71729 0.65633
 C420 C 1.03503 0.82664 0.61912
 H421 H 1.03510 0.82156 0.58786
 C422 C 1.04695 0.86166 0.63433
 H423 H 1.05677 0.88310 0.61461
 C424 C 1.02289 0.80436 0.68265
 H425 H 1.01406 0.78193 0.70154
 C426 C 1.03473 0.83880 0.69909
 H427 H 1.03424 0.84250 0.73055
 Zn428 Zn 1.00295 0.75415 0.61933
 N429 N 1.02225 0.79925 0.64321
 C430 C 0.94715 0.80363 0.58474
 N431 N 0.95887 0.76657 0.58909
 C432 C 0.93830 0.73750 0.57361
 C433 C 0.90447 0.74528 0.55272
 C434 C 0.91411 0.81266 0.56341
 C435 C 1.07563 0.72369 0.60514
 C436 C 1.10584 0.70804 0.58350
 C437 C 1.06609 0.71217 0.52536
 C438 C 1.03654 0.72776 0.54814
 N439 N 1.04181 0.73301 0.58730
 H440 H 0.96289 0.82636 0.59826
 H441 H 0.94793 0.70826 0.57803
 H442 H 0.88798 0.72197 0.54100
 H443 H 0.90497 0.84230 0.56064
 H444 H 1.07896 0.72826 0.63632
 H445 H 1.13245 0.70017 0.59809
 H446 H 1.06180 0.70800 0.49421
 H447 H 1.00953 0.73571 0.53453
 C448 C 1.04652 0.86826 0.67485
 C449 C 0.96050 0.66105 0.70471
 C450 C 1.10116 0.70241 0.54317
 C451 C 0.89232 0.78331 0.54726
 C452 C 0.52548 0.71825 0.30628
 H453 H 0.54105 0.74382 0.30074
 C454 C 0.53652 0.68369 0.28838
 H455 H 0.56081 0.68276 0.26909
 C456 C 0.47697 0.68766 0.34095
 H457 H 0.45471 0.68891 0.36250
 C458 C 0.48719 0.65261 0.32398
 H459 H 0.47235 0.62729 0.33226
 N460 N 0.49671 0.71937 0.33260
 C461 C 0.47919 0.84120 0.35128
 H462 H 0.48773 0.84253 0.38174
 C463 C 0.46882 0.87458 0.33188
 H464 H 0.46947 0.90128 0.34817
 C465 C 0.46632 0.80397 0.29458
 H466 H 0.46520 0.77621 0.28046
 C467 C 0.45367 0.83654 0.27456
 H468 H 0.44385 0.83332 0.24463
 Zn469 Zn 0.48858 0.76360 0.36337
 N470 N 0.47799 0.80686 0.33249
 C471 C 0.55790 0.79794 0.37832
 N472 N 0.53422 0.77138 0.39243
 C473 C 0.54455 0.75018 0.42411
 C474 C 0.57751 0.75880 0.44565
 C475 C 0.59115 0.80706 0.39850
 C476 C 0.41207 0.75723 0.37104
 C477 C 0.37783 0.74481 0.38560
 C478 C 0.40938 0.73304 0.44757
 C479 C 0.44319 0.74653 0.43188
 N480 N 0.44427 0.75653 0.39359
 H481 H 0.55106 0.81223 0.35127
 H482 H 0.52720 0.72689 0.43293
 H483 H 0.58460 0.74323 0.47200
 H484 H 0.60937 0.82862 0.38710
 H485 H 0.41350 0.76523 0.34072
 H486 H 0.35302 0.74437 0.36642
 H487 H 0.40970 0.72256 0.47717
 H488 H 0.46868 0.74693 0.44981
 C489 C 0.45420 0.87264 0.29339
 C490 C 0.51800 0.65018 0.29826
 C491 C 0.37655 0.73060 0.42367
 C492 C 0.60027 0.78855 0.43342
 Si493 Si 0.36721 0.01531 0.24009
 Si494 Si 0.11860 1.01427 0.74335
 Si495 Si 0.61821 0.50887 0.26290
 Si496 Si 0.86826 0.52963 0.76825
 Si497 Si 0.25953 0.35053 -0.03619
 Si498 Si 0.76067 0.11544 1.02332
 Si499 Si 0.24524 0.62692 0.47205
 Si500 Si 0.74059 0.86010 0.50993
 Si501 Si 0.02461 0.24744 0.38620
 Si502 Si 0.98535 0.74132 0.12695
 Si503 Si 0.54170 0.24320 0.63392
 Si504 Si 0.46797 0.75427 0.85233
 C505 C 0.44857 -0.05777 0.28843
 C506 C 0.43769 -0.09435 0.27611
 C507 C 0.40663 -0.09644 0.24954
 C508 C 0.38759 -0.06319 0.23644
 C509 C 0.39989 -0.02675 0.24794
 C510 C 0.43022 -0.02461 0.27473
 C511 C 0.46766 -0.00568 0.26983
 C512 C 0.48722 -0.04150 0.28520
 H513 H 0.39513 -0.12359 0.24066
 H514 H 0.36228 -0.06636 0.21841
 H515 H 0.47139 0.01901 0.29004
 H516 H 0.47407 -0.00002 0.23871
 H517 H 0.50109 -0.03733 0.31428
 H518 H 0.50526 -0.05674 0.26312
 C519 C 0.92794 0.44368 0.82674
 C520 C 0.92315 0.41075 0.80377
 C521 C 0.90400 0.41495 0.76754
 C522 C 0.89071 0.45118 0.75507
 C523 C 0.89545 0.48398 0.77878
 C524 C 0.91465 0.47952 0.81462
 C525 C 0.95106 0.49728 0.82845
 C526 C 0.96457 0.45840 0.84240
 H527 H 0.89876 0.39030 0.74904
 H528 H 0.87592 0.45319 0.72722
 H529 H 0.94706 0.51791 0.85305
 H530 H 0.96859 0.50784 0.80428
 H531 H 0.96650 0.45644 0.87476
 H532 H 0.98989 0.44671 0.82648
 C533 C 0.02933 1.09401 0.75897
 C534 C 0.04611 1.12302 0.78157
 C535 C 0.08599 1.12032 0.78757
 C536 C 0.10713 1.08790 0.77512
 C537 C 0.08919 1.05753 0.75566
 C538 C 0.05057 1.06234 0.74569
 C539 C 0.01806 1.03626 0.74979
 C540 C -0.00509 1.07058 0.76504
 H541 H 0.10064 1.14241 0.80377
 H542 H 0.13739 1.08603 0.78197
 H543 H 0.02360 1.01388 0.77199
 H544 H 0.00756 1.02554 0.72101
 H545 H -0.01253 1.06755 0.79627
 H546 H -0.02925 1.07906 0.74536
 C547 C 0.53834 0.58326 0.31345
 C548 C 0.53365 0.61238 0.28606
 C549 C 0.54842 0.60562 0.24845
 C550 C 0.57168 0.57301 0.24085
 C551 C 0.58149 0.54740 0.27104
 C552 C 0.56194 0.55154 0.30629
 C553 C 0.57618 0.55137 0.34770
 C554 C 0.55004 0.58580 0.35540
 H555 H 0.54402 0.62657 0.22575
 H556 H 0.58386 0.56933 0.21209
 H557 H 0.60694 0.55807 0.35048
 H558 H 0.56739 0.52568 0.36363
 H559 H 0.56567 0.61225 0.36258
 H560 H 0.52612 0.57970 0.37522
 C561 C 0.59223 0.39653 0.24086
 C562 C 0.55846 0.39845 0.21852
 C563 C 0.53919 0.43430 0.21617
 C564 C 0.55628 0.46743 0.23103
 C565 C 0.59300 0.46529 0.24814
 C566 C 0.60905 0.42915 0.25530
 C567 C 0.64848 0.41328 0.24909
 C568 C 0.63004 0.37751 0.23269
 H569 H 0.51177 0.43705 0.20138
 H570 H 0.54173 0.49475 0.22689
 H571 H 0.66399 0.40844 0.27720
 H572 H 0.66452 0.42918 0.22707
 H573 H 0.63543 0.35200 0.25113
 H574 H 0.63493 0.37289 0.20091
 C575 C 0.07833 0.90498 0.72844
 C576 C 0.05936 0.90492 0.69232
 C577 C 0.05367 0.94052 0.67375
 C578 C 0.06998 0.97397 0.68954
 C579 C 0.09214 0.97241 0.72411
 C580 C 0.09451 0.93765 0.74383
 C581 C 0.12874 0.91528 0.75851
 C582 C 0.11066 0.87971 0.74189
 H583 H 0.03777 0.94235 0.64649
 H584 H 0.06660 1.00056 0.67396
 H585 H 0.13076 0.91494 0.79092
 H586 H 0.15550 0.92265 0.74356
 H587 H 0.10184 0.85962 0.76473
 H588 H 0.12689 0.86640 0.71726
 C589 C 0.90793 0.63723 0.74728
 C590 C 0.94309 0.63074 0.72874
 C591 C 0.95954 0.59345 0.73190
 C592 C 0.93845 0.56326 0.74690
 C593 C 0.90100 0.56978 0.76033
 C594 C 0.88752 0.60763 0.76262
 C595 C 0.85013 0.62536 0.75038
 C596 C 0.87236 0.65763 0.73342
 H597 H 0.98762 0.58671 0.72054
 H598 H 0.95027 0.53448 0.74475
 H599 H 0.83273 0.63461 0.77592
 H600 H 0.83503 0.60831 0.72768
 H601 H 0.86723 0.68526 0.74909
 H602 H 0.87031 0.65900 0.70100
 C603 C 0.40046 0.11773 0.19373
 C604 C 0.42935 0.13015 0.21883
 C605 C 0.43594 0.11014 0.25374
 C606 C 0.41657 0.07607 0.26053
 C607 C 0.39238 0.06048 0.23154
 C608 C 0.38286 0.08340 0.19948
 C609 C 0.38206 0.07506 0.15644
 C610 C 0.40036 0.11323 0.15045
 H611 H 0.45664 0.12015 0.27500
 H612 H 0.42109 0.06160 0.28795
 H613 H 0.35248 0.07400 0.14439
 H614 H 0.40146 0.05086 0.14790
 H615 H 0.38098 0.13455 0.13604
 H616 H 0.42960 0.11066 0.13820
 C617 C 0.29795 0.43939 -0.10342
 C618 C 0.30330 0.42274 -0.14053
 C619 C 0.30038 0.38270 -0.14368
 C620 C 0.28809 0.36137 -0.11195
 C621 C 0.27831 0.37945 -0.07636
 C622 C 0.28543 0.41833 -0.07216
 C623 C 0.26066 0.45061 -0.05748
 C624 C 0.27451 0.47371 -0.09158
 H625 H 0.30701 0.36783 -0.17079
 H626 H 0.28512 0.33084 -0.11562
 H627 H 0.27053 0.46160 -0.02857
 H628 H 0.22979 0.44450 -0.05961
 H629 H 0.29252 0.49791 -0.08229
 H630 H 0.25162 0.48097 -0.11326
 C631 C 0.75477 0.90888 0.40264
 C632 C 0.77915 0.93899 0.41047
 C633 C 0.78192 0.95220 0.44952
 C634 C 0.76546 0.93174 0.48003
 C635 C 0.74712 0.89715 0.47202
 C636 C 0.73979 0.88810 0.43268
 C637 C 0.74354 0.85138 0.41019
 C638 C 0.76018 0.87418 0.37728
 H639 H 0.79918 0.97653 0.45673
 H640 H 0.77022 0.94141 0.50964
 H641 H 0.71525 0.83947 0.40267
 H642 H 0.76446 0.83081 0.42350
 H643 H 0.74155 0.87521 0.35077
 H644 H 0.79079 0.86703 0.37177
 C645 C 0.81181 0.03643 1.09821
 C646 C 0.80282 0.04960 1.13617
 C647 C 0.77397 0.07875 1.13846
 C648 C 0.75996 0.09720 1.10471
 C649 C 0.77496 0.08800 1.06770
 C650 C 0.79851 0.05528 1.06514
 C651 C 0.83400 0.04641 1.04287
 C652 C 0.84907 0.02620 1.07924
 H653 H 0.76203 0.08785 1.16615
 H654 H 0.73841 0.11944 1.10837
 H655 H 0.82875 0.02662 1.01783
 H656 H 0.85037 0.07197 1.03578
 H657 H 0.87356 0.04064 1.09349
 H658 H 0.85314 -0.00511 1.07462
 C659 C 0.32070 0.57398 0.54972
 C660 C 0.29839 0.55009 0.57224
 C661 C 0.25852 0.55155 0.56528
 C662 C 0.24241 0.57405 0.53513
 C663 C 0.26561 0.59618 0.51156
 C664 C 0.30458 0.59665 0.52045
 C665 C 0.33759 0.59004 0.49394
 C666 C 0.35510 0.56482 0.52540
 H667 H 0.23979 0.53472 0.58264
 H668 H 0.21193 0.57365 0.53019
 H669 H 0.35371 0.61645 0.48932
 H670 H 0.32975 0.57411 0.46681
 H671 H 0.38160 0.57645 0.53855
 H672 H 0.35720 0.53431 0.51609
 C673 C 0.20658 0.59763 0.36140
 C674 C 0.21082 0.55790 0.35850
 C675 C 0.23003 0.53909 0.38969
 C676 C 0.24082 0.55943 0.42387
 C677 C 0.23203 0.59876 0.42773
 C678 C 0.21626 0.61728 0.39520
 C679 C 0.18363 0.64524 0.39076
 C680 C 0.17296 0.62360 0.35350
 H681 H 0.23578 0.50859 0.38816
 H682 H 0.25493 0.54421 0.44753
 H683 H 0.19343 0.67458 0.38534
 H684 H 0.16191 0.64305 0.41391
 H685 H 0.17658 0.64053 0.32663
 H686 H 0.14536 0.60882 0.35538
 C687 C 0.69731 0.04148 0.95637
 C688 C 0.71778 0.03525 0.92168
 C689 C 0.75403 0.05211 0.91963
 C690 C 0.76819 0.07443 0.95081
 C691 C 0.74704 0.07996 0.98517
 C692 C 0.71186 0.06272 0.98735
 C693 C 0.69796 0.03600 1.01714
 C694 C 0.68194 0.01261 0.98341
 H695 H 0.77081 0.05021 0.89334
 H696 H 0.79550 0.08763 0.94763
 H697 H 0.67551 0.04957 1.03580
 H698 H 0.72166 0.02112 1.03326
 H699 H 0.65020 0.01254 0.98277
 H700 H 0.69620 -0.01598 0.97996
 C701 C 0.70472 0.87414 0.62481
 C702 C 0.72613 0.90405 0.63989
 C703 C 0.75688 0.91619 0.61743
 C704 C 0.76227 0.90176 0.57907
 C705 C 0.73513 0.87772 0.56144
 C706 C 0.70827 0.86214 0.58630
 C707 C 0.66626 0.85600 0.58266
 C708 C 0.66280 0.86830 0.62519
 H709 H 0.77566 0.93781 0.62887
 H710 H 0.78677 0.91061 0.56301
 H711 H 0.65957 0.82551 0.57739
 H712 H 0.65136 0.87676 0.56325
 H713 H 0.65517 0.84467 0.64471
 H714 H 0.64596 0.89540 0.62948
 C715 C 0.18605 0.39893 0.04457
 C716 C 0.20895 0.41629 0.07324
 C717 C 0.24900 0.41271 0.06817
 C718 C 0.26444 0.39488 0.03433
 C719 C 0.24033 0.37994 0.00501
 C720 C 0.20119 0.38096 0.01183
 C721 C 0.16850 0.39396 -0.01352
 C722 C 0.15211 0.41416 0.02232
 H723 H 0.26858 0.42319 0.09021
 H724 H 0.29515 0.39239 0.03133
 H725 H 0.15097 0.36975 -0.02378
 H726 H 0.17688 0.41376 -0.03674
 H727 H 0.12498 0.40177 0.03195
 H728 H 0.15168 0.44582 0.02026
 C729 C -0.06034 0.32575 0.41708
 C730 C -0.07722 0.31133 0.45043
 C731 C -0.06050 0.27780 0.46652
 C732 C -0.02778 0.26018 0.44958
 C733 C -0.01148 0.27516 0.41586
 C734 C -0.02844 0.30820 0.40006
 C735 C -0.01084 0.34615 0.39383
 C736 C -0.04594 0.36489 0.41178
 H737 H -0.07308 0.26459 0.49148
 H738 H -0.01634 0.23385 0.46177
 H739 H -0.00815 0.35302 0.36243
 H740 H 0.01558 0.35002 0.41165
 H741 H -0.06365 0.38154 0.39050
 H742 H -0.04001 0.37987 0.43999
 C743 C 0.39135 0.77769 0.94141
 C744 C 0.35939 0.79443 0.92268
 C745 C 0.36203 0.80121 0.88228
 C746 C 0.39424 0.78839 0.86127
 C747 C 0.42430 0.76804 0.87994
 C748 C 0.42313 0.76480 0.92054
 C749 C 0.42795 0.73008 0.94511
 C750 C 0.39336 0.74429 0.96796
 H751 H 0.33931 0.81650 0.86688
 H752 H 0.39554 0.79421 0.83033
 H753 H 0.45486 0.73027 0.96267
 H754 H 0.42301 0.70322 0.92832
 H755 H 0.40041 0.75281 0.99856
 H756 H 0.36830 0.72567 0.96454
 C757 C 1.08951 0.75314 0.07296
 C758 C 1.08639 0.78905 0.05576
 C759 C 1.04956 0.80612 0.05245
 C760 C 1.01824 0.79003 0.07091
 C761 C 1.02306 0.75654 0.09290
 C762 C 1.05871 0.73742 0.09145
 C763 C 1.08380 0.72197 0.12359
 C764 C 1.11736 0.73901 0.10309
 H765 H 1.04541 0.83319 0.03788
 H766 H 0.99135 0.80575 0.07065
 H767 H 1.08528 0.69024 0.12358
 H768 H 1.07764 0.73567 0.15242
 H769 H 1.13770 0.71711 0.09101
 H770 H 1.13072 0.76255 0.12004
 C771 C 0.65017 0.27695 0.60745
 C772 C 0.64816 0.28834 0.56859
 C773 C 0.61498 0.27884 0.54690
 C774 C 0.58351 0.26262 0.56549
 C775 C 0.58437 0.25687 0.60616
 C776 C 0.61893 0.26289 0.62579
 C777 C 0.62953 0.28038 0.66428
 C778 C 0.66388 0.29647 0.64383
 H779 H 0.61268 0.28558 0.51616
 H780 H 0.55779 0.25732 0.54867
 H781 H 0.63756 0.25848 0.68631
 H782 H 0.60907 0.30295 0.67450
 H783 H 0.69160 0.28412 0.65449
 H784 H 0.66261 0.32812 0.64153
 C785 C 0.46884 0.18409 0.55991
 C786 C 0.43263 0.20124 0.56609
 C787 C 0.43200 0.23691 0.58590
 C788 C 0.46540 0.25116 0.60366
 C789 C 0.50040 0.23028 0.60181
 C790 C 0.50169 0.19856 0.57665
 C791 C 0.52109 0.16026 0.57864
 C792 C 0.48489 0.14408 0.56056
 H793 H 0.40523 0.25255 0.59014
 H794 H 0.46297 0.27730 0.62069
 H795 H 0.52653 0.15061 0.60903
 H796 H 0.54599 0.15780 0.55885
 H797 H 0.47057 0.12520 0.58122
 H798 H 0.48922 0.13200 0.53069
 C799 C 0.88374 0.69645 0.08687
 C800 C 0.86214 0.72758 0.07263
 C801 C 0.88099 0.76226 0.06839
 C802 C 0.91861 0.76636 0.08318
 C803 C 0.93844 0.73548 0.10121
 C804 C 0.92082 0.70016 0.10040
 C805 C 0.91593 0.67085 0.13120
 C806 C 0.87526 0.66684 0.11631
 H807 H 0.86588 0.78674 0.05607
 H808 H 0.93080 0.79429 0.08286
 H809 H 0.91780 0.68297 0.16133
 H810 H 0.93354 0.64445 0.12609
 H811 H 0.85418 0.67630 0.13858
 H812 H 0.87003 0.63854 0.10247
 C813 C 0.56564 0.75767 0.92273
 C814 C 0.57313 0.71957 0.93283
 C815 C 0.54395 0.69350 0.92434
 C816 C 0.51151 0.70457 0.90194
 C817 C 0.50747 0.74190 0.88738
 C818 C 0.53364 0.76859 0.90113
 C819 C 0.55377 0.80080 0.88298
 C820 C 0.58905 0.78854 0.90654
 H821 H 0.54714 0.66400 0.93313
 H822 H 0.49069 0.68336 0.89432
 H823 H 0.54186 0.82912 0.89243
 H824 H 0.55775 0.79706 0.85105
 H825 H 0.59733 0.80988 0.92921
 H826 H 0.61244 0.77795 0.88732
 C827 C 0.13664 0.21605 0.41377
 C828 C 0.14018 0.21951 0.45433
 C829 C 0.10801 0.23401 0.47480
 C830 C 0.07292 0.24153 0.45501
 C831 C 0.06882 0.23330 0.41470
 C832 C 0.10200 0.22227 0.39453
 C833 C 0.11003 0.18951 0.36706
 C834 C 0.14814 0.18347 0.38775
 H835 H 0.10969 0.23879 0.50609
 H836 H 0.04910 0.25318 0.47148
 H837 H 0.11316 0.19895 0.33641
 H838 H 0.09071 0.16530 0.37130
 H839 H 0.17292 0.19022 0.36933
 H840 H 0.15075 0.15591 0.40346
 C841 C 0.60430 0.15424 0.68521
 C842 C 0.57833 0.13504 0.70792
 C843 C 0.54111 0.15120 0.71106
 C844 C 0.53018 0.18404 0.68966
 C845 C 0.55624 0.20153 0.66493
 C846 C 0.59372 0.18645 0.66413
 C847 C 0.61758 0.17302 0.63018
 C848 C 0.62905 0.13817 0.65362
 H849 H 0.52014 0.13785 0.72896
 H850 H 0.50088 0.19440 0.69099
 H851 H 0.64240 0.19121 0.62496
 H852 H 0.60035 0.16629 0.60367
 H853 H 0.65973 0.13730 0.66235
 H854 H 0.61823 0.11111 0.64089
 C855 C 1.02361 0.62943 0.13206
 C856 C 1.03391 0.62164 0.17078
 C857 C 1.02649 0.65188 0.19807
 C858 C 1.01065 0.68770 0.18583
 C859 C 1.00174 0.69421 0.14606
 C860 C 1.00833 0.66361 0.12058
 C861 C 1.00681 0.65253 0.07847
 C862 C 1.02392 0.61374 0.09120
 H863 H 1.03419 0.64858 0.22858
 H864 H 1.00650 0.71037 0.20727
 H865 H 1.02650 0.66916 0.06054
 H866 H 0.97717 0.65085 0.06682
 H867 H 1.05309 0.60849 0.07962
 H868 H 1.00404 0.58979 0.08713
 C869 C 0.94400 0.80810 0.21893
 C870 C 0.96510 0.84156 0.21749
 C871 C 0.99864 0.83966 0.19492
 C872 C 1.00636 0.80814 0.16990
 C873 C 0.98076 0.77785 0.16683
 C874 C 0.95156 0.77712 0.19426
 C875 C 0.91022 0.76816 0.19040
 C876 C 0.90196 0.80217 0.21734
 H877 H 1.01783 0.86333 0.19473
 H878 H 1.03112 0.80882 0.15138
 H879 H 0.90368 0.74042 0.20379
 H880 H 0.89835 0.77243 0.16055
 H881 H 0.89059 0.79382 0.24608
 H882 H 0.88596 0.82596 0.20275
 C883 C 0.52039 0.35583 0.66624
 C884 C 0.48954 0.35420 0.69162
 C885 C 0.48164 0.31827 0.70744
 C886 C 0.50037 0.28474 0.69338
 C887 C 0.52717 0.28649 0.66316
 C888 C 0.53829 0.32281 0.65194
 C889 C 0.54290 0.33954 0.61239
 C890 C 0.52337 0.37570 0.62816
 H891 H 0.45909 0.31573 0.72852
 H892 H 0.49123 0.25757 0.70374
 H893 H 0.52582 0.32482 0.58941
 H894 H 0.57340 0.34345 0.60522
 H895 H 0.49503 0.38194 0.61431
 H896 H 0.54267 0.40032 0.63018
 C897 C 0.41759 0.67583 0.77714
 C898 C 0.44523 0.64647 0.77296
 C899 C 0.48236 0.65360 0.78708
 C900 C 0.48969 0.68712 0.80887
 C901 C 0.45992 0.71368 0.81767
 C902 C 0.42459 0.70858 0.79910
 C903 C 0.38501 0.70934 0.81516
 C904 C 0.37750 0.67377 0.79084
 H905 H 0.50522 0.63253 0.78300
 H906 H 0.51814 0.69105 0.82064
 H907 H 0.36769 0.73447 0.80514
 H908 H 0.38450 0.70416 0.84714
 H909 H 0.35641 0.67873 0.76678
 H910 H 0.37271 0.64809 0.80869
 C911 C -0.05085 0.16150 0.35652
 C912 C -0.03173 0.13611 0.33135
 C913 C 0.00471 0.14763 0.31930
 C914 C 0.02072 0.18191 0.33416
 C915 C 0.00156 0.20511 0.36239
 C916 C -0.03518 0.19386 0.37145
 C917 C -0.07045 0.20428 0.39379
 C918 C -0.08802 0.16816 0.37637
 H919 H 0.02117 0.13001 0.29907
 H920 H 0.04791 0.19023 0.32322
 H921 H -0.08455 0.23119 0.38349
 H922 H -0.06645 0.20189 0.42586
 H923 H -0.11176 0.17415 0.35529
 H924 H -0.09388 0.14659 0.39883
 C925 C 0.02932 0.32156 0.29267
 C926 C 0.06229 0.34225 0.30034
 C927 C 0.08228 0.33508 0.33549
 C928 C 0.07160 0.30565 0.36001
 C929 C 0.04125 0.28187 0.34960
 C930 C 0.01907 0.29182 0.31676
 C931 C 0.00694 0.26791 0.28260
 C932 C 0.01778 0.30055 0.25648
 H933 H 0.10642 0.35216 0.34394
 H934 H 0.08725 0.30176 0.38717
 H935 H -0.02424 0.26284 0.28258
 H936 H 0.02542 0.24193 0.27838
 H937 H -0.00722 0.31454 0.24168
 H938 H 0.04236 0.29336 0.23721
 C939 C 0.51692 0.82735 0.77492
 C940 C 0.51769 0.86161 0.79646
 C941 C 0.49324 0.86552 0.82872
 C942 C 0.47469 0.83370 0.84302
 C943 C 0.48008 0.79756 0.82512
 C944 C 0.49849 0.79582 0.78904
 C945 C 0.52864 0.76873 0.77384
 C946 C 0.54888 0.80327 0.75860
 H947 H 0.49172 0.89206 0.84532
 H948 H 0.45970 0.83673 0.87040
 H949 H 0.51753 0.74990 0.75015
 H950 H 0.54484 0.75365 0.79740
 H951 H 0.54956 0.80419 0.72617
 H952 H 0.57665 0.80841 0.77360
 C953 C 0.67174 0.52360 0.15676
 C954 C 0.67919 0.56297 0.15754
 C955 C 0.67825 0.58121 0.19488
 C956 C 0.66437 0.56261 0.22765
 C957 C 0.64988 0.52581 0.22402
 C958 C 0.65624 0.50588 0.18891
 C959 C 0.62992 0.48286 0.16408
 C960 C 0.64702 0.50163 0.12897
 H961 H 0.68734 0.61026 0.19905
 H962 H 0.66164 0.57846 0.25493
 H963 H 0.59938 0.49119 0.16812
 H964 H 0.63664 0.45172 0.16538
 H965 H 0.62623 0.52024 0.11274
 H966 H 0.66394 0.48128 0.11042
 C967 C 0.18251 1.07904 0.66997
 C968 C 0.20821 1.05341 0.65196
 C969 C 0.20894 1.01516 0.66440
 C970 C 0.18262 1.00309 0.69239
 C971 C 0.15494 1.02892 0.70778
 C972 C 0.15635 1.06715 0.69690
 C973 C 0.12561 1.09291 0.68017
 C974 C 0.15457 1.10609 0.65112
 H975 H 0.22905 0.99455 0.65185
 H976 H 0.18308 0.97346 0.70097
 H977 H 0.11648 1.11606 0.70079
 H978 H 0.10189 1.07685 0.66641
 H979 H 0.16253 1.13633 0.65569
 H980 H 0.14764 1.09793 0.62037
 C981 C 0.12983 0.97263 0.85449
 C982 C 0.16922 0.96641 0.86167
 C983 C 0.19392 0.97661 0.83093
 C984 C 0.17943 0.99254 0.79595
 C985 C 0.14007 0.99939 0.79069
 C986 C 0.11579 0.98868 0.82026
 C987 C 0.08573 1.01175 0.84108
 C988 C 0.10097 0.99437 0.87860
 H989 H 0.22437 0.97109 0.83236
 H990 H 0.19910 0.99899 0.77300
 H991 H 0.05649 1.00248 0.83335
 H992 H 0.08998 1.04300 0.83975
 H993 H 0.08016 0.97548 0.89236
 H994 H 0.11423 1.01548 0.89879
 C995 C 0.70323 0.49871 0.34841
 C996 C 0.68827 0.47297 0.37467
 C997 C 0.64971 0.46339 0.37007
 C998 C 0.62836 0.47601 0.33750
 C999 C 0.64516 0.49822 0.30875
 C1000 C 0.68222 0.51084 0.31585
 C1001 C 0.71663 0.50857 0.29045
 C1002 C 0.73949 0.49556 0.32608
 H1003 H 0.63673 0.44447 0.39053
 H1004 H 0.59935 0.46659 0.33373
 H1005 H 0.72491 0.53709 0.28017
 H1006 H 0.71458 0.48617 0.26723
 H1007 H 0.76058 0.51670 0.33637
 H1008 H 0.75077 0.46565 0.32351
 C1009 C 0.79153 0.48880 0.68563
 C1010 C 0.81061 0.49367 0.65034
 C1011 C 0.84081 0.51952 0.65089
 C1012 C 0.85523 0.53402 0.68654
 C1013 C 0.83973 0.52314 0.72241
 C1014 C 0.80581 0.50290 0.72077
 C1015 C 0.79167 0.46981 0.74307
 C1016 C 0.77666 0.45405 0.70431
 H1017 H 0.85515 0.52639 0.62414
 H1018 H 0.88059 0.55090 0.68587
 H1019 H 0.76840 0.47832 0.76345
 H1020 H 0.81456 0.45163 0.75635
 H1021 H 0.74498 0.45326 0.70282
 H1022 H 0.79191 0.42741 0.69451
 C1023 C 0.27574 -0.01057 0.16693
 C1024 C 0.29357 -0.02700 0.13421
 C1025 C 0.33331 -0.02425 0.13114
 C1026 C 0.35486 -0.00951 0.16238
 C1027 C 0.33702 0.00361 0.19686
 C1028 C 0.29705 0.00451 0.19775
 C1029 C 0.27064 -0.01081 0.22735
 C1030 C 0.24739 -0.02708 0.19359
 H1031 H 0.34794 -0.03615 0.10586
 H1032 H 0.38570 -0.01107 0.16068
 H1033 H 0.25504 0.01231 0.24361
 H1034 H 0.28456 -0.03312 0.24591
 H1035 H 0.21866 -0.01314 0.19037
 H1036 H 0.24779 -0.05883 0.19263
 C1037 C 0.29566 0.06232 0.32464
 C1038 C 0.30725 0.04366 0.35893
 C1039 C 0.32952 0.00974 0.35458
 C1040 C 0.34463 -0.00093 0.31794
 C1041 C 0.33840 0.02250 0.28514
 C1042 C 0.31128 0.05235 0.28878
 C1043 C 0.31081 0.09284 0.27566
 C1044 C 0.29361 0.10374 0.31502
 H1045 H 0.33735 -0.00717 0.37984
 H1046 H 0.36333 -0.02592 0.31636
 H1047 H 0.29078 0.09771 0.25067
 H1048 H 0.33972 0.10436 0.27206
 H1049 H 0.26365 0.11486 0.31266
 H1050 H 0.31278 0.12105 0.33390
 C1051 C 0.77928 0.55764 0.84544
 C1052 C 0.79827 0.56682 0.88067
 C1053 C 0.83788 0.55805 0.88211
 C1054 C 0.85779 0.54703 0.84829
 C1055 C 0.83888 0.54184 0.81227
 C1056 C 0.79888 0.54495 0.81225
 C1057 C 0.77139 0.56579 0.78578
 C1058 C 0.75042 0.57987 0.82203
 H1059 H 0.85443 0.56125 0.90872
 H1060 H 0.88842 0.54451 0.85021
 H1061 H 0.75400 0.54624 0.76755
 H1062 H 0.78442 0.58901 0.76942
 H1063 H 0.72132 0.56826 0.82417
 H1064 H 0.75219 0.61120 0.82710
 C1065 C 0.16402 0.70779 0.51021
 C1066 C 0.13273 0.68605 0.51988
 C1067 C 0.13353 0.64726 0.50874
 C1068 C 0.16707 0.63007 0.49340
 C1069 C 0.20039 0.65128 0.48924
 C1070 C 0.19716 0.69085 0.49526
 C1071 C 0.22150 0.71778 0.51814
 C1072 C 0.18510 0.73674 0.53351
 H1073 H 0.10916 0.62980 0.51413
 H1074 H 0.16725 0.59993 0.48604
 H1075 H 0.23778 0.73672 0.49902
 H1076 H 0.23836 0.70333 0.54164
 H1077 H 0.17994 0.76609 0.52234
 H1078 H 0.18193 0.73375 0.56557
 C1079 C 0.65066 0.16222 1.02624
 C1080 C 0.65129 0.18931 1.05666
 C1081 C 0.68672 0.19545 1.07561
 C1082 C 0.72009 0.17555 1.06355
 C1083 C 0.71868 0.14794 1.03342
 C1084 C 0.68355 0.14203 1.01475
 C1085 C 0.67344 0.14723 0.97241
 C1086 C 0.63748 0.16849 0.98523
 H1087 H 0.68876 0.21502 1.10023
 H1088 H 0.74677 0.18071 1.07880
 H1089 H 0.66723 0.11999 0.95698
 H1090 H 0.69369 0.16561 0.95712
 H1091 H 0.61100 0.15290 0.97821
 H1092 H 0.63667 0.19914 0.97714
 C1093 C 0.86417 0.16648 1.00237
 C1094 C 0.85756 0.18826 0.96832
 C1095 C 0.82041 0.18564 0.95121
 C1096 C 0.79183 0.16454 0.96850
 C1097 C 0.79884 0.14490 1.00332
 C1098 C 0.83555 0.14551 1.01935
 C1099 C 0.84743 0.15627 1.05985
 C1100 C 0.87862 0.17916 1.04172
 H1101 H 0.81275 0.19845 0.92363
 H1102 H 0.76413 0.16328 0.95423
 H1103 H 0.85861 0.13133 1.07661
 H1104 H 0.82546 0.17425 1.07516
 H1105 H 0.90772 0.16735 1.04838
 H1106 H 0.87491 0.21048 1.04663
 C1107 C 0.32141 0.68931 0.40823
 C1108 C 0.34220 0.71013 0.43601
 C1109 C 0.33061 0.70839 0.47524
 C1110 C 0.30109 0.68416 0.48595
 C1111 C 0.28202 0.66169 0.45775
 C1112 C 0.29213 0.66569 0.41862
 C1113 C 0.30489 0.63585 0.38935
 C1114 C 0.33644 0.66197 0.37804
 H1115 H 0.34530 0.72436 0.49785
 H1116 H 0.29481 0.68137 0.51658
 H1117 H 0.28399 0.63189 0.36508
 H1118 H 0.31555 0.60901 0.40318
 H1119 H 0.33292 0.67332 0.34800
 H1120 H 0.36552 0.65039 0.38534
 C1121 C 0.63056 0.83875 0.47436
 C1122 C 0.63199 0.80208 0.45792
 C1123 C 0.66535 0.77951 0.46474
 C1124 C 0.69785 0.79580 0.48263
 C1125 C 0.69720 0.83471 0.49400
 C1126 C 0.66226 0.85462 0.49113
 C1127 C 0.65001 0.89421 0.47992
 C1128 C 0.61466 0.87661 0.46144
 H1129 H 0.66722 0.75038 0.45382
 H1130 H 0.72389 0.77866 0.48502
 H1131 H 0.64335 0.91288 0.50557
 H1132 H 0.66863 0.90699 0.45795
 H1133 H 0.61352 0.87988 0.42924
 H1134 H 0.58786 0.88486 0.47685
 C1135 C 0.16888 0.27686 -0.04881
 C1136 C 0.14558 0.29506 -0.07679
 C1137 C 0.16256 0.32312 -0.09955
 C1138 C 0.19878 0.33684 -0.08957
 C1139 C 0.21920 0.32256 -0.05691
 C1140 C 0.20470 0.29040 -0.03882
 C1141 C 0.19992 0.28027 0.00311
 C1142 C 0.16066 0.26581 -0.00797
 H1143 H 0.14680 0.33652 -0.12333
 H1144 H 0.20881 0.36107 -0.10533
 H1145 H 0.19858 0.30538 0.02319
 H1146 H 0.22013 0.25696 0.01226
 H1147 H 0.13681 0.28314 0.00498
 H1148 H 0.15845 0.23440 -0.00501
 C1149 C 0.36687 0.30116 -0.01390
 C1150 C 0.36404 0.28833 0.02442
 C1151 C 0.32711 0.28616 0.04007
 C1152 C 0.29514 0.30165 0.01990
 C1153 C 0.29931 0.31963 -0.01629
 C1154 C 0.33542 0.31701 -0.03363
 C1155 C 0.35944 0.34690 -0.05122
 C1156 C 0.39360 0.32912 -0.02999
 H1157 H 0.32330 0.27520 0.06915
 H1158 H 0.26803 0.30296 0.03460
 H1159 H 0.35207 0.37621 -0.04037
 H1160 H 0.36152 0.34376 -0.08348
 H1161 H 0.40590 0.34813 -0.00708
 H1162 H 0.41475 0.31526 -0.04998
 C1163 C 0.82179 0.77662 0.53849
 C1164 C 0.85590 0.79281 0.52709
 C1165 C 0.85332 0.82315 0.50049
 C1166 C 0.81774 0.84072 0.49155
 C1167 C 0.78428 0.82866 0.50963
 C1168 C 0.78682 0.79465 0.53064
 C1169 C 0.77114 0.78387 0.56923
 C1170 C 0.80938 0.76389 0.57765
 H1171 H 0.87901 0.83557 0.48957
 H1172 H 0.81736 0.86594 0.47370
 H1173 H 0.74717 0.76389 0.56607
 H1174 H 0.76583 0.80866 0.58911
 H1175 H 0.80751 0.73232 0.57904
 H1176 H 0.82567 0.77731 0.60207
   
