data_POSCAR
  _audit_creation_date              2014-09-24
  _audit_creation_method            'ToBaCCo'
  _symmetry_space_group_name_H-M    'P1'
  _symmetry_Int_Tables_number       1
  _symmetry_cell_setting            triclinic
  loop_
  _symmetry_equiv_pos_as_xyz
 x,y,z
_cell_length_a 51.4857
_cell_length_b 51.6502
_cell_length_c 51.5928
_cell_angle_alpha 85.521200
_cell_angle_beta 93.840900
_cell_angle_gamma 94.172500
loop_
  _atom_site_label
  _atom_site_type_symbol
  _atom_site_fract_x
  _atom_site_fract_y
  _atom_site_fract_z
C1 C 0.27428 0.47729 0.98995
 C2 C 0.26388 0.50010 0.99632
 C3 C 0.28053 0.52216 1.00115
 C4 C 0.30777 0.52196 0.99930
 C5 C 0.31775 0.49849 0.99329
 C6 C 0.30127 0.47622 0.98865
 C7 C 0.23540 0.50118 0.99728
 C8 C 0.22471 0.50702 1.02028
 C9 C 0.19754 0.50865 1.02145
 C10 C 0.18157 0.50471 0.99852
 C11 C 0.19211 0.49916 0.97532
 C12 C 0.21906 0.49706 0.97498
 H13 H 0.26131 0.46036 0.98610
 H14 H 0.27169 0.53978 1.00481
 H15 H 0.23796 0.51093 1.03691
 H16 H 0.22750 0.49309 0.95714
 H17 H 0.33858 0.49681 0.99355
 H18 H 0.16057 0.50447 0.99876
 C19 C 0.72211 0.47910 -0.00382
 C20 C 0.73785 0.50174 0.00111
 C21 C 0.72622 0.52460 0.00555
 C22 C 0.69895 0.52512 0.00466
 C23 C 0.68346 0.50221 0.00007
 C24 C 0.69482 0.47910 -0.00413
 C25 C 0.76649 0.50167 0.00105
 C26 C 0.77813 0.49605 -0.02150
 C27 C 0.80555 0.49687 -0.02238
 C28 C 0.82081 0.50260 0.00054
 C29 C 0.80934 0.50802 0.02330
 C30 C 0.78211 0.50779 0.02328
 H31 H 0.73118 0.46154 -0.00739
 H32 H 0.73845 0.54218 0.00880
 H33 H 0.76548 0.49260 -0.03866
 H34 H 0.77300 0.51228 0.04057
 H35 H 0.66244 0.50224 0.00036
 H36 H 0.84176 0.50154 0.00142
 C37 C 0.02005 0.22599 0.48897
 C38 C -0.00355 0.23582 0.49432
 C39 C -0.02579 0.21881 0.49754
 C40 C -0.02471 0.19203 0.49505
 C41 C -0.00087 0.18242 0.49000
 C42 C 0.02164 0.19919 0.48704
 C43 C -0.00508 0.26399 0.49620
 C44 C -0.00080 0.28138 0.47440
 C45 C -0.00306 0.30838 0.47545
 C46 C -0.00890 0.31733 0.49947
 C47 C -0.01294 0.30010 0.52149
 C48 C -0.01128 0.27336 0.51960
 H49 H 0.03716 0.23923 0.48642
 H50 H -0.04407 0.22660 0.50121
 H51 H 0.00282 0.27329 0.45636
 H52 H -0.01465 0.25980 0.53634
 H53 H 0.00034 0.16165 0.48911
 H54 H -0.00889 0.33796 0.50176
 C55 C 1.02397 0.77993 0.49963
 C56 C 1.00205 0.76272 0.50386
 C57 C 0.97874 0.77230 0.51027
 C58 C 0.97705 0.79902 0.51221
 C59 C 0.99919 0.81605 0.50818
 C60 C 1.02313 0.80691 0.50213
 C61 C 1.00373 0.73451 0.50212
 C62 C 0.99904 0.71713 0.52385
 C63 C 1.00145 0.69014 0.52296
 C64 C 1.00789 0.68116 0.49916
 C65 C 1.01238 0.69836 0.47721
 C66 C 1.01052 0.72509 0.47895
 H67 H 1.04196 0.77170 0.49588
 H68 H 0.96190 0.75890 0.51363
 H69 H 0.99501 0.72523 0.54176
 H70 H 1.01423 0.73862 0.46226
 H71 H 0.99704 0.83671 0.50839
 H72 H 1.00806 0.66052 0.49695
 C73 C 0.49376 0.02248 0.22033
 C74 C 0.49870 -0.00014 0.23622
 C75 C 0.50331 -0.02303 0.22482
 C76 C 0.50259 -0.02359 0.19761
 C77 C 0.49798 -0.00068 0.18196
 C78 C 0.49362 0.02247 0.19311
 C79 C 0.49862 0.00003 0.26479
 C80 C 0.47624 0.00640 0.27631
 C81 C 0.47584 0.00635 0.30350
 C82 C 0.49837 0.00030 0.31904
 C83 C 0.52102 -0.00590 0.30776
 C84 C 0.52088 -0.00623 0.28055
 H85 H 0.49007 0.04007 0.22923
 H86 H 0.50656 -0.04059 0.23718
 H87 H 0.45911 0.01129 0.26404
 H88 H 0.53809 -0.01125 0.27156
 H89 H 0.49840 -0.00072 0.16099
 H90 H 0.49827 0.00040 0.34001
 C91 C 0.49738 0.02370 0.77703
 C92 C 0.50100 0.00031 0.76622
 C93 C 0.50554 -0.02214 0.78251
 C94 C 0.50634 -0.02168 0.80990
 C95 C 0.50294 0.00230 0.82028
 C96 C 0.49873 0.02497 0.80411
 C97 C 0.50082 -0.00054 0.73775
 C98 C 0.52389 -0.00445 0.72604
 C99 C 0.52407 -0.00479 0.69888
 C100 C 0.50063 -0.00204 0.68366
 C101 C 0.47729 0.00149 0.69517
 C102 C 0.47765 0.00266 0.72229
 H103 H 0.49437 0.04107 0.76429
 H104 H 0.50917 -0.03964 0.77349
 H105 H 0.54181 -0.00643 0.73808
 H106 H 0.45982 0.00530 0.73151
 H107 H 0.50213 0.00340 0.84105
 H108 H 0.50057 -0.00259 0.66271
 C109 C 0.28911 0.04450 0.45244
 H110 H 0.29009 0.05905 0.46653
 C111 C 0.30735 0.04600 0.43345
 H112 H 0.32237 0.06182 0.43279
 C113 C 0.26929 0.00526 0.43698
 H114 H 0.25496 -0.01100 0.43893
 C115 C 0.28718 0.00602 0.41768
 H116 H 0.28641 -0.00954 0.40468
 N117 N 0.27068 0.02427 0.45397
 C118 C 0.21142 0.04969 0.50103
 H119 H 0.21140 0.03407 0.51627
 C120 C 0.19361 0.06882 0.50070
 H121 H 0.17986 0.06801 0.51580
 C122 C 0.22861 0.06920 0.46208
 H123 H 0.24186 0.06888 0.44674
 C124 C 0.21103 0.08873 0.46099
 H125 H 0.21091 0.10355 0.44493
 Zn126 Zn 0.24954 0.02165 0.48277
 N127 N 0.22844 0.05019 0.48191
 C128 C 0.27299 0.03853 0.53092
 N129 N 0.27246 0.02045 0.51300
 C130 C 0.28957 0.00142 0.51524
 C131 C 0.30802 -0.00014 0.53627
 C132 C 0.29119 0.03767 0.55230
 C133 C 0.20813 -0.01017 0.46246
 C134 C 0.18931 -0.03105 0.46214
 C135 C 0.20885 -0.04859 0.50307
 C136 C 0.22731 -0.02737 0.50264
 N137 N 0.22662 -0.00870 0.48251
 H138 H 0.25966 0.05386 0.52847
 H139 H 0.28899 -0.01241 0.50047
 H140 H 0.32167 -0.01528 0.53779
 H141 H 0.29170 0.05222 0.56638
 H142 H 0.20774 0.00520 0.44696
 H143 H 0.17441 -0.03185 0.44632
 H144 H 0.20924 -0.06313 0.51938
 H145 H 0.24170 -0.02554 0.51872
 C146 C 0.19327 0.08840 0.48041
 C147 C 0.30655 0.02642 0.41611
 C148 C 0.18959 -0.05034 0.48272
 C149 C 0.30888 0.01817 0.55493
 C150 C 0.71167 -0.00460 0.54534
 H151 H 0.71213 0.00977 0.52892
 C152 C 0.69387 -0.00328 0.56432
 H153 H 0.68062 0.01221 0.56260
 C154 C 0.72772 -0.04292 0.56712
 H155 H 0.74056 -0.05864 0.56779
 C156 C 0.71012 -0.04235 0.58657
 H157 H 0.70956 -0.05751 0.60230
 N158 N 0.72815 -0.02417 0.54705
 C159 C 0.79044 0.00595 0.49760
 H160 H 0.78970 -0.00932 0.48431
 C161 C 0.80926 0.02673 0.49542
 H162 H 0.82303 0.02754 0.48035
 C163 C 0.77386 0.02322 0.53396
 H164 H 0.76038 0.02151 0.54926
 C165 C 0.79241 0.04435 0.53246
 H166 H 0.79302 0.05899 0.54647
 Zn167 Zn 0.74950 -0.02516 0.51881
 N168 N 0.77313 0.00464 0.51654
 C169 C 0.72801 -0.00689 0.46900
 N170 N 0.72682 -0.02627 0.48844
 C171 C 0.70785 -0.04603 0.48781
 C172 C 0.68901 -0.04678 0.46707
 C173 C 0.70953 -0.00691 0.44789
 C174 C 0.78798 -0.05547 0.54329
 C175 C 0.80574 -0.07482 0.54575
 C176 C 0.78566 -0.09190 0.50636
 C177 C 0.76824 -0.07222 0.50463
 N178 N 0.76983 -0.05441 0.52288
 H179 H 0.74278 0.00900 0.47017
 H180 H 0.70707 -0.06090 0.50377
 H181 H 0.67370 -0.06232 0.46696
 H182 H 0.71028 0.00885 0.43275
 H183 H 0.78913 -0.04074 0.55720
 H184 H 0.82058 -0.07509 0.56167
 H185 H 0.78479 -0.10556 0.49137
 H186 H 0.75416 -0.07066 0.48820
 C187 C 0.81028 0.04607 0.51304
 C188 C 0.69297 -0.02239 0.58503
 C189 C 0.80477 -0.09301 0.52694
 C190 C 0.68975 -0.02693 0.44704
 C191 C 0.45976 0.20998 1.01160
 H192 H 0.44476 0.20933 0.99591
 C193 C 0.45895 0.19123 1.03259
 H194 H 0.44323 0.17611 1.03315
 C195 C 0.49925 0.22979 1.02953
 H196 H 0.51527 0.24441 1.02793
 C197 C 0.49919 0.21138 1.05087
 H198 H 0.51504 0.21203 1.06576
 N199 N 0.47970 0.22875 1.01043
 C200 C 0.45016 0.28999 0.95568
 H201 H 0.46472 0.29113 0.94139
 C202 C 0.43076 0.30772 0.95349
 H203 H 0.43029 0.32251 0.93741
 C204 C 0.43384 0.27031 0.99497
 H205 H 0.43559 0.25625 1.01151
 C206 C 0.41413 0.28768 0.99352
 H207 H 0.40062 0.28679 1.00884
 Zn208 Zn 0.48064 0.25140 0.97981
 N209 N 0.45144 0.27188 0.97626
 C210 C 0.46204 0.22980 0.93207
 N211 N 0.48106 0.23009 0.95172
 C212 C 0.50053 0.21350 0.95314
 C213 C 0.50148 0.19574 0.93428
 C214 C 0.46224 0.21224 0.91276
 C215 C 0.51251 0.29202 0.99986
 C216 C 0.53342 0.31075 1.00116
 C217 C 0.55016 0.29386 0.96366
 C218 C 0.52891 0.27540 0.96306
 N219 N 0.51069 0.27476 0.98109
 H220 H 0.44641 0.24273 0.93164
 H221 H 0.51512 0.21386 0.96923
 H222 H 0.51690 0.18240 0.93578
 H223 H 0.44686 0.21179 0.89737
 H224 H 0.49750 0.29136 1.01365
 H225 H 0.53461 0.32453 1.01605
 H226 H 0.56446 0.29444 0.94912
 H227 H 0.52679 0.26198 0.94790
 C228 C 0.41277 0.30673 0.97275
 C229 C 0.47894 0.19184 1.05230
 C230 C 0.55237 0.31171 0.98285
 C231 C 0.48209 0.19498 0.91401
 C232 C 0.49978 0.79048 -0.00901
 H233 H 0.48561 0.78969 0.00565
 C234 C 0.49884 0.80940 -0.02983
 H235 H 0.48385 0.82321 -0.03129
 C236 C 0.53716 0.77399 -0.02460
 H237 H 0.55238 0.76052 -0.02218
 C238 C 0.53693 0.79264 -0.04574
 H239 H 0.55184 0.79335 -0.05967
 N240 N 0.51866 0.77319 -0.00683
 C241 C 0.48700 0.70800 0.04294
 H242 H 0.50225 0.70718 0.05841
 C243 C 0.46609 0.68920 0.04296
 H244 H 0.46516 0.67387 0.05852
 C245 C 0.47019 0.72822 0.00307
 H246 H 0.47222 0.74299 -0.01281
 C247 C 0.44896 0.70978 0.00233
 H248 H 0.43459 0.71055 -0.01399
 Zn249 Zn 0.51932 0.74957 0.02311
 N250 N 0.48870 0.72697 0.02317
 C251 C 0.50259 0.76830 0.06915
 N252 N 0.52195 0.76984 0.05225
 C253 C 0.54237 0.78802 0.05398
 C254 C 0.54363 0.80595 0.07300
 C255 C 0.50311 0.78587 0.08847
 C256 C 0.54672 0.71186 0.00387
 C257 C 0.56578 0.69412 0.00326
 C258 C 0.58646 0.71024 0.04285
 C259 C 0.56696 0.72779 0.04270
 N260 N 0.54764 0.72825 0.02334
 H261 H 0.48620 0.75419 0.06704
 H262 H 0.55718 0.78914 0.03994
 H263 H 0.55952 0.82087 0.07372
 H264 H 0.48722 0.78508 0.10131
 H265 H 0.53088 0.71236 -0.01100
 H266 H 0.56469 0.68095 -0.01219
 H267 H 0.60160 0.70967 0.05846
 H268 H 0.56699 0.74059 0.05830
 C269 C 0.44702 0.68998 0.02235
 C270 C 0.51762 0.81054 -0.04831
 C271 C 0.58574 0.69319 0.02298
 C272 C 0.52363 0.80508 0.09016
 C273 C 1.04936 0.50476 0.21185
 H274 H 1.03325 0.49010 0.21247
 C275 C 1.06820 0.50400 0.19377
 H276 H 1.06668 0.48866 0.18047
 C277 C 1.07041 0.54333 0.22767
 H278 H 1.07080 0.55894 0.24049
 C279 C 1.08968 0.54332 0.20980
 H280 H 1.10501 0.55883 0.20902
 N281 N 1.05075 0.52421 0.22831
 C282 C 1.00177 0.49351 0.29078
 H283 H 0.98835 0.50877 0.29004
 C284 C 0.99981 0.47272 0.30966
 H285 H 0.98477 0.47187 0.32348
 C286 C 1.03824 0.47633 0.27413
 H287 H 1.05349 0.47808 0.26058
 C288 C 1.03697 0.45517 0.29275
 H289 H 1.05110 0.44055 0.29336
 Zn290 Zn 1.02251 0.52478 0.24979
 N291 N 1.02066 0.49488 0.27341
 C292 C 0.97266 0.50634 0.22867
 N293 N 0.99193 0.52581 0.22733
 C294 C 0.99093 0.54570 0.20844
 C295 C 0.96992 0.54652 0.18988
 C296 C 0.95130 0.50642 0.21048
 C297 C 1.04678 0.55502 0.28813
 C298 C 1.04899 0.57422 0.30592
 C299 C 1.00917 0.59102 0.28610
 C300 C 1.00769 0.57151 0.26865
 N301 N 1.02626 0.55390 0.27010
 H302 H 0.97413 0.49036 0.24338
 H303 H 1.00676 0.56065 0.20753
 H304 H 0.96949 0.56220 0.17466
 H305 H 0.93627 0.49063 0.21137
 H306 H 1.06095 0.54045 0.28918
 H307 H 1.06498 0.57452 0.32067
 H308 H 0.99391 0.60449 0.28534
 H309 H 0.99119 0.56988 0.25466
 C310 C 1.01759 0.45341 0.31069
 C311 C 1.08843 0.52355 0.19260
 C312 C 1.02984 0.59217 0.30509
 C313 C 0.95003 0.52661 0.19082
 C314 C -0.05288 0.45235 0.78845
 H315 H -0.03897 0.43751 0.78962
 C316 C -0.07179 0.45144 0.80674
 H317 H -0.07256 0.43578 0.82198
 C318 C -0.06777 0.49187 0.76826
 H319 H -0.06557 0.50805 0.75382
 C320 C -0.08698 0.49170 0.78618
 H321 H -0.09965 0.50764 0.78533
 N322 N -0.05105 0.47248 0.76987
 C323 C -0.00306 0.44650 0.71174
 H324 H 0.01225 0.46200 0.71191
 C325 C -0.00315 0.42743 0.69403
 H326 H 0.01220 0.42816 0.68056
 C327 C -0.04243 0.42729 0.72830
 H328 H -0.05801 0.42773 0.74125
 C329 C -0.04329 0.40783 0.71080
 H330 H -0.05944 0.39317 0.71044
 Zn331 Zn -0.02192 0.47473 0.74918
 N332 N -0.02251 0.44614 0.72837
 C333 C 0.02605 0.45759 0.77346
 N334 N 0.00805 0.47577 0.77247
 C335 C 0.01000 0.49486 0.78938
 C336 C 0.03083 0.49641 0.80804
 C337 C 0.04724 0.45844 0.79189
 C338 C -0.04163 0.50670 0.70734
 C339 C -0.04163 0.52757 0.68842
 C340 C -0.00078 0.54472 0.70832
 C341 C -0.00153 0.52352 0.72688
 N342 N -0.02178 0.50505 0.72606
 H343 H 0.02382 0.44222 0.76028
 H344 H -0.00482 0.50877 0.78843
 H345 H 0.03214 0.51162 0.82148
 H346 H 0.06141 0.44384 0.79273
 H347 H -0.05721 0.49149 0.70687
 H348 H -0.05729 0.52852 0.67335
 H349 H 0.01561 0.55910 0.70881
 H350 H 0.01439 0.52154 0.74145
 C351 C -0.02355 0.40805 0.69340
 C352 C -0.08874 0.47149 0.80581
 C353 C -0.02093 0.54666 0.68884
 C354 C 0.04959 0.47802 0.80935
 C355 C 0.09317 0.18505 0.49426
 C356 C 0.09358 0.16464 0.47799
 C357 C 0.07086 0.15662 0.46352
 C358 C 0.04764 0.16841 0.46584
 C359 C 0.04682 0.18840 0.48273
 C360 C 0.06994 0.19693 0.49657
 C361 C 0.11666 0.15059 0.47750
 C362 C 0.13534 0.13780 0.47753
 C363 C 0.15640 0.12170 0.47806
 C364 C 0.17364 0.10702 0.47891
 H365 H 0.11060 0.19129 0.50569
 H366 H 0.07094 0.14081 0.45091
 H367 H 0.03023 0.16168 0.45469
 H368 H 0.06984 0.21209 0.50992
 C369 C 0.68359 0.58884 0.03061
 C370 C 0.66149 0.59506 0.01466
 C371 C 0.65206 0.57877 -0.00477
 C372 C 0.66443 0.55621 -0.00813
 C373 C 0.68644 0.54955 0.00797
 C374 C 0.69607 0.56623 0.02724
 C375 C 0.64781 0.61769 0.01837
 C376 C 0.63522 0.63606 0.02068
 C377 C 0.61922 0.65682 0.02245
 C378 C 0.60450 0.67384 0.02314
 H379 H 0.69100 0.60128 0.04577
 H380 H 0.63501 0.58342 -0.01726
 H381 H 0.65682 0.54400 -0.02341
 H382 H 0.71286 0.56149 0.04003
 C383 C 0.92858 -0.15905 0.53801
 C384 C 0.90537 -0.16738 0.52451
 C385 C 0.90528 -0.18774 0.50811
 C386 C 0.92845 -0.19930 0.50472
 C387 C 0.95202 -0.19048 0.51759
 C388 C 0.95174 -0.17052 0.53461
 C389 C 0.88222 -0.15370 0.52613
 C390 C 0.86343 -0.14124 0.52703
 C391 C 0.84219 -0.12553 0.52754
 C392 C 0.82472 -0.11120 0.52753
 H393 H 0.92889 -0.14327 0.55072
 H394 H 0.88746 -0.19422 0.49743
 H395 H 0.92812 -0.21444 0.49129
 H396 H 0.96953 -0.16357 0.54503
 C397 C 0.34540 0.42963 0.96315
 C398 C 0.33696 0.40599 0.97604
 C399 C 0.31589 0.40501 0.99198
 C400 C 0.30371 0.42773 0.99550
 C401 C 0.31259 0.45172 0.98321
 C402 C 0.33330 0.45234 0.96666
 C403 C 0.35111 0.38323 0.97423
 C404 C 0.36390 0.36474 0.97317
 C405 C 0.37991 0.34379 0.97247
 C406 C 0.39444 0.32653 0.97233
 H407 H 0.36171 0.43062 0.95079
 H408 H 0.30931 0.38684 1.00219
 H409 H 0.28799 0.42670 1.00855
 H410 H 0.34034 0.47047 0.95669
 C411 C 0.92461 0.13655 0.48310
 C412 C 0.90761 0.13879 0.50273
 C413 C 0.91238 0.15879 0.51961
 C414 C 0.93424 0.17635 0.51700
 C415 C 0.95162 0.17401 0.49752
 C416 C 0.94644 0.15402 0.48049
 C417 C 0.88569 0.12010 0.50574
 C418 C 0.86775 0.10388 0.50790
 C419 C 0.84725 0.08430 0.51002
 C420 C 0.83017 0.06711 0.51154
 H421 H 0.92107 0.12118 0.46990
 H422 H 0.89939 0.16065 0.53493
 H423 H 0.93785 0.19139 0.53054
 H424 H 0.95923 0.15196 0.46505
 C425 C 0.33467 0.58649 0.02211
 C426 C 0.35852 0.58953 0.01043
 C427 C 0.36554 0.57039 -0.00491
 C428 C 0.34891 0.54823 -0.00857
 C429 C 0.32467 0.54460 0.00311
 C430 C 0.31788 0.56434 0.01849
 C431 C 0.37603 0.61214 0.01410
 C432 C 0.39136 0.63068 0.01668
 C433 C 0.41003 0.65188 0.01916
 C434 C 0.42658 0.66952 0.02085
 H435 H 0.32912 0.60115 0.03421
 H436 H 0.38388 0.57267 -0.01427
 H437 H 0.35488 0.53460 -0.02152
 H438 H 0.30011 0.56246 0.02872
 C439 C 0.07037 -0.13472 0.50792
 C440 C 0.09007 -0.14064 0.49249
 C441 C 0.08782 -0.16398 0.48027
 C442 C 0.06589 -0.18133 0.48342
 C443 C 0.04558 -0.17564 0.49885
 C444 C 0.04843 -0.15191 0.51111
 C445 C 0.11244 -0.12256 0.48930
 C446 C 0.13078 -0.10682 0.48711
 C447 C 0.15176 -0.08775 0.48508
 C448 C 0.16925 -0.07096 0.48378
 H449 H 0.07204 -0.11680 0.51770
 H450 H 0.10292 -0.16868 0.46811
 H451 H 0.06463 -0.19864 0.47277
 H452 H 0.03433 -0.14680 0.52413
 C453 C 0.66768 0.40871 1.00168
 C454 C 0.64422 0.41016 0.98642
 C455 C 0.63794 0.43383 0.97329
 C456 C 0.65471 0.45610 0.97584
 C457 C 0.67803 0.45502 0.99163
 C458 C 0.68454 0.43099 1.00423
 C459 C 0.62590 0.38780 0.98519
 C460 C 0.60991 0.36960 0.98440
 C461 C 0.59049 0.34888 0.98369
 C462 C 0.57338 0.33167 0.98324
 H463 H 0.67267 0.39050 1.01202
 H464 H 0.61984 0.43517 0.96142
 H465 H 0.64937 0.47425 0.96563
 H466 H 0.70222 0.42962 1.01671
 C467 C 0.49888 0.09306 1.16616
 C468 C 0.48373 0.09177 1.14268
 C469 C 0.47101 0.06807 1.13618
 C470 C 0.47379 0.04564 1.15282
 C471 C 0.48939 0.04661 1.17623
 C472 C 0.50167 0.07064 1.18288
 C473 C 0.48213 0.11438 1.12463
 C474 C 0.48106 0.13287 1.10893
 C475 C 0.48008 0.15399 1.08987
 C476 C 0.47945 0.17153 1.07305
 H477 H 0.50892 0.11128 1.17133
 H478 H 0.45923 0.06684 1.11805
 H479 H 0.46382 0.02750 1.14735
 H480 H 0.51403 0.07193 1.20062
 C481 C 0.00624 0.63128 0.57002
 C482 C -0.00949 0.63722 0.58944
 C483 C -0.02162 0.66069 0.58705
 C484 C -0.01806 0.67819 0.56527
 C485 C -0.00229 0.67251 0.54525
 C486 C 0.00984 0.64863 0.54822
 C487 C -0.01307 0.61902 0.61171
 C488 C -0.01557 0.60321 0.62999
 C489 C -0.01796 0.58409 0.65094
 C490 C -0.01955 0.56728 0.66844
 H491 H 0.01596 0.61325 0.57181
 H492 H -0.03402 0.66540 0.60193
 H493 H -0.02864 0.69562 0.56388
 H494 H 0.02310 0.64350 0.53436
 C495 C 0.52321 0.93466 -0.13074
 C496 C 0.51507 0.91020 -0.13922
 C497 C 0.50500 0.90806 -0.16484
 C498 C 0.50261 0.93036 -0.18183
 C499 C 0.51007 0.95543 -0.17342
 C500 C 0.52082 0.95699 -0.14755
 C501 C 0.51618 0.88755 -0.12117
 C502 C 0.51685 0.86911 -0.10537
 C503 C 0.51736 0.84813 -0.08616
 C504 C 0.51758 0.83071 -0.06919
 H505 H 0.53130 0.93652 -0.11098
 H506 H 0.49846 0.88918 -0.17157
 H507 H 0.49357 0.92775 -0.20105
 H508 H 0.52816 0.97533 -0.14021
 C509 C 1.01883 0.33799 0.41095
 C510 C 1.00685 0.36153 0.40895
 C511 C 0.99154 0.36743 0.42874
 C512 C 0.98825 0.35000 0.45052
 C513 C 1.00029 0.32606 0.45313
 C514 C 1.01558 0.32039 0.43272
 C515 C 1.01020 0.37990 0.38677
 C516 C 1.01255 0.39589 0.36863
 C517 C 1.01479 0.41529 0.34792
 C518 C 1.01629 0.43239 0.33068
 H519 H 1.03091 0.33330 0.39578
 H520 H 0.98194 0.38552 0.42727
 H521 H 0.97533 0.35512 0.46471
 H522 H 1.02606 0.30291 0.43379
 C523 C 0.52880 0.91236 0.18349
 C524 C 0.51309 0.90604 0.16135
 C525 C 0.49381 0.92248 0.15137
 C526 C 0.49034 0.94523 0.16328
 C527 C 0.50615 0.95193 0.18539
 C528 C 0.52532 0.93515 0.19549
 C529 C 0.51685 0.88307 0.14833
 C530 C 0.51937 0.86431 0.13646
 C531 C 0.52159 0.84295 0.12146
 C532 C 0.52286 0.82532 0.10771
 H533 H 0.54384 0.89980 0.19132
 H534 H 0.48151 0.91776 0.13429
 H535 H 0.47514 0.95751 0.15530
 H536 H 0.53793 0.93991 0.21235
 C537 C -0.00791 0.31257 0.59324
 C538 C -0.02405 0.33322 0.59343
 C539 C -0.03774 0.34196 0.57045
 C540 C -0.03477 0.33062 0.54721
 C541 C -0.01798 0.31039 0.54663
 C542 C -0.00494 0.30115 0.56999
 C543 C -0.02510 0.34684 0.61660
 C544 C -0.02549 0.35931 0.63535
 C545 C -0.02538 0.37511 0.65649
 C546 C -0.02480 0.38959 0.67377
 H547 H 0.00293 0.30578 0.61089
 H548 H -0.05024 0.35797 0.57035
 H549 H -0.04530 0.33791 0.52958
 H550 H 0.00831 0.28579 0.57009
 C551 C 0.50975 0.07979 0.84911
 C552 C 0.49026 0.09618 0.83963
 C553 C 0.47388 0.08972 0.81798
 C554 C 0.47681 0.06674 0.80606
 C555 C 0.49607 0.04993 0.81581
 C556 C 0.51266 0.05686 0.83731
 C557 C 0.48682 0.11905 0.85293
 C558 C 0.48464 0.13757 0.86525
 C559 C 0.48292 0.15846 0.88099
 C560 C 0.48216 0.17556 0.89548
 H561 H 0.52256 0.08461 0.86583
 H562 H 0.45867 0.10224 0.81054
 H563 H 0.46364 0.06180 0.78966
 H564 H 0.52793 0.04451 0.84499
 C565 C 1.03892 0.65665 0.42915
 C566 C 1.02587 0.66538 0.40579
 C567 C 1.00952 0.68593 0.40549
 C568 C 1.00574 0.69727 0.42859
 C569 C 1.01817 0.68805 0.45230
 C570 C 1.03514 0.66791 0.45224
 C571 C 1.02787 0.65195 0.38266
 C572 C 1.02907 0.63971 0.36387
 C573 C 1.02991 0.62425 0.34260
 C574 C 1.03015 0.61012 0.32511
 H575 H 1.05158 0.64073 0.42962
 H576 H 0.99917 0.69272 0.38755
 H577 H 0.99236 0.71256 0.42809
 H578 H 1.04522 0.66064 0.47014
 C579 C 1.18679 0.50998 0.09262
 C580 C 1.16252 0.52061 0.09155
 C581 C 1.15046 0.52843 0.06746
 C582 C 1.16221 0.52506 0.04446
 C583 C 1.18642 0.51362 0.04495
 C584 C 1.19873 0.50664 0.06963
 C585 C 1.14910 0.52226 0.11491
 C586 C 1.13678 0.52322 0.13383
 C587 C 1.12113 0.52384 0.15518
 C588 C 1.10676 0.52394 0.17267
 H589 H 1.19622 0.50366 0.11121
 H590 H 1.13174 0.53691 0.06641
 H591 H 1.15236 0.53210 0.02639
 H592 H 1.21687 0.49716 0.07147
 C593 C 0.58919 -0.02860 0.68390
 C594 C 0.59442 -0.01339 0.66092
 C595 C 0.57701 0.00493 0.65078
 C596 C 0.55432 0.00787 0.66330
 C597 C 0.54866 -0.00753 0.68619
 C598 C 0.56646 -0.02565 0.69652
 C599 C 0.61716 -0.01681 0.64712
 C600 C 0.63561 -0.01905 0.63446
 C601 C 0.65644 -0.02096 0.61843
 C602 C 0.67352 -0.02195 0.60373
 H603 H 0.60251 -0.04291 0.69187
 H604 H 0.58089 0.01684 0.63304
 H605 H 0.54123 0.02229 0.65512
 H606 H 0.56250 -0.03790 0.71401
 C607 C -0.14519 0.49893 0.92700
 C608 C -0.15841 0.48392 0.90829
 C609 C -0.18360 0.47312 0.91237
 C610 C -0.19557 0.47731 0.93512
 C611 C -0.18247 0.49239 0.95442
 C612 C -0.15698 0.50315 0.94974
 C613 C -0.14580 0.47977 0.88503
 C614 C -0.13424 0.47692 0.86600
 C615 C -0.11957 0.47430 0.84432
 C616 C -0.10606 0.47268 0.82639
 H617 H -0.12574 0.50761 0.92391
 H618 H -0.19396 0.46128 0.89806
 H619 H -0.21469 0.46775 0.93779
 H620 H -0.14625 0.51584 0.96299
 C621 C 0.40488 0.00514 0.31957
 C622 C 0.40670 0.02005 0.34122
 C623 C 0.43094 0.03140 0.34985
 C624 C 0.45335 0.02744 0.33723
 C625 C 0.45182 0.01202 0.31580
 C626 C 0.42728 0.00118 0.30689
 C627 C 0.38406 0.02255 0.35553
 C628 C 0.36551 0.02415 0.36824
 C629 C 0.34434 0.02549 0.38400
 C630 C 0.32679 0.02617 0.39821
 H631 H 0.38624 -0.00387 0.31283
 H632 H 0.43258 0.04295 0.36660
 H633 H 0.47191 0.03632 0.34431
 H634 H 0.42553 -0.01102 0.29064
 C635 C 0.16110 0.47239 0.91309
 C636 C 0.14085 0.48896 0.90707
 C637 C 0.13772 0.50906 0.92302
 C638 C 0.15454 0.51247 0.94503
 C639 C 0.17477 0.49577 0.95147
 C640 C 0.17802 0.47580 0.93515
 C641 C 0.12278 0.48523 0.88495
 C642 C 0.10696 0.48269 0.86687
 C643 C 0.08769 0.48039 0.84625
 C644 C 0.07063 0.47900 0.82914
 H645 H 0.16365 0.45671 0.90091
 H646 H 0.12215 0.52204 0.91851
 H647 H 0.15180 0.52827 0.95699
 H648 H 0.19328 0.46251 0.93973
 C649 C 0.59176 -0.00471 0.33387
 C650 C 0.58966 -0.01942 0.35769
 C651 C 0.56531 -0.03062 0.36468
 C652 C 0.54307 -0.02672 0.34818
 C653 C 0.54488 -0.01150 0.32445
 C654 C 0.56953 -0.00081 0.31731
 C655 C 0.61215 -0.02197 0.37560
 C656 C 0.63060 -0.02369 0.39115
 C657 C 0.65172 -0.02525 0.40999
 C658 C 0.66932 -0.02622 0.42659
 H659 H 0.61049 0.00416 0.32833
 H660 H 0.56346 -0.04203 0.38307
 H661 H 0.52442 -0.03549 0.35404
 H662 H 0.57149 0.01123 0.29931
 C663 C 0.86601 0.53243 0.06776
 C664 C 0.85939 0.52041 0.09190
 C665 C 0.83582 0.50527 0.09386
 C666 C 0.81918 0.50174 0.07166
 C667 C 0.82599 0.51324 0.04720
 C668 C 0.84944 0.52890 0.04556
 C669 C 0.87747 0.52256 0.11426
 C670 C 0.89324 0.52399 0.13254
 C671 C 0.91237 0.52528 0.15339
 C672 C 0.92925 0.52606 0.17072
 H673 H 0.88420 0.54418 0.06602
 H674 H 0.83057 0.49575 0.11242
 H675 H 0.80140 0.48936 0.07347
 H676 H 0.85503 0.53827 0.02706
 C677 C 0.41257 0.02506 0.66636
 C678 C 0.40716 0.00883 0.64588
 C679 C 0.42422 -0.01020 0.64206
 C680 C 0.44679 -0.01280 0.65834
 C681 C 0.45267 0.00366 0.67871
 C682 C 0.43518 0.02245 0.68275
 C683 C 0.38467 0.01202 0.62811
 C684 C 0.36639 0.01418 0.61241
 C685 C 0.34568 0.01614 0.59317
 C686 C 0.32858 0.01732 0.57607
 H687 H 0.39952 0.03992 0.66944
 H688 H 0.42021 -0.02290 0.62631
 H689 H 0.45966 -0.02772 0.65501
 H690 H 0.43931 0.03552 0.69816
   
