data_POSCAR
  _audit_creation_date              2014-09-24
  _audit_creation_method            'ToBaCCo'
  _symmetry_space_group_name_H-M    'P1'
  _symmetry_Int_Tables_number       1
  _symmetry_cell_setting            triclinic
  loop_
  _symmetry_equiv_pos_as_xyz
 x,y,z
_cell_length_a 36.7883
_cell_length_b 36.7653
_cell_length_c 26.1051
_cell_angle_alpha 90.161000
_cell_angle_beta 89.898800
_cell_angle_gamma 120.579900
loop_
  _atom_site_label
  _atom_site_type_symbol
  _atom_site_fract_x
  _atom_site_fract_y
  _atom_site_fract_z
C1 C 0.10502 0.57762 0.09176
 C2 C 0.10591 0.54088 0.09205
 C3 C 0.07068 0.51122 0.06513
 N4 N 0.04801 0.52873 0.04893
 C5 C 0.06924 0.56955 0.06473
 C6 C 0.05846 0.46803 0.05991
 C7 C 0.02288 0.43836 0.03146
 C8 C 0.00407 0.39481 0.03518
 C9 C -0.02889 0.37750 0.00087
 C10 C -0.02864 0.41094 -0.02394
 N11 N 0.00311 0.44787 -0.00512
 C12 C -0.05678 0.40735 -0.06327
 C13 C -0.05836 0.44295 -0.08055
 C14 C -0.07233 0.44620 -0.12869
 C15 C -0.07340 0.48276 -0.12870
 C16 C -0.06008 0.50069 -0.08055
 N17 N -0.05034 0.47659 -0.05117
 C18 C -0.06038 0.53705 -0.06333
 C19 C -0.03285 0.56296 -0.02394
 C20 C -0.03486 0.59525 0.00105
 C21 C -0.00175 0.61300 0.03516
 C22 C 0.01888 0.59033 0.03113
 N23 N 0.00004 0.56028 -0.00534
 C24 C 0.05522 0.59885 0.05913
 H25 H 0.12765 0.60658 0.11079
 H26 H 0.12935 0.53644 0.11136
 H27 H 0.01136 0.54158 -0.02001
 H28 H 0.01271 0.37710 0.06032
 H29 H -0.05058 0.34408 -0.00481
 H30 H -0.08119 0.42418 -0.16032
 H31 H -0.08320 0.49474 -0.16037
 H32 H 0.00580 0.63927 0.06044
 H33 H 0.01305 0.47781 -0.01963
 H34 H -0.05778 0.60503 -0.00439
 C35 C 0.48054 0.55416 0.12941
 C36 C 0.44247 0.51705 0.12941
 C37 C 0.44210 0.49466 0.08642
 N38 N 0.47882 0.51677 0.06025
 C39 C 0.50226 0.55331 0.08639
 C40 C 0.40649 0.45685 0.06886
 C41 C 0.40936 0.43139 0.03047
 C42 C 0.37580 0.40021 0.00266
 C43 C 0.39245 0.38305 -0.03040
 C44 C 0.43555 0.40408 -0.02125
 N45 N 0.44542 0.43302 0.01625
 C46 C 0.46500 0.39616 -0.04576
 C47 C 0.50874 0.42395 -0.04030
 C48 C 0.53921 0.41335 -0.05002
 C49 C 0.57720 0.45048 -0.05019
 C50 C 0.56845 0.48252 -0.04151
 N51 N 0.52659 0.46617 -0.03470
 C52 C 0.59762 0.52619 -0.04783
 C53 C 0.59120 0.55658 -0.02218
 C54 C 0.61138 0.59952 -0.03294
 C55 C 0.59531 0.61692 0.00048
 C56 C 0.56509 0.58404 0.02980
 N57 N 0.56314 0.54760 0.01630
 C58 C 0.54049 0.58803 0.06844
 H59 H 0.49066 0.57942 0.15717
 H60 H 0.41747 0.50799 0.15725
 H61 H 0.54545 0.51862 0.03474
 H62 H 0.34289 0.39115 0.00544
 H63 H 0.37487 0.35814 -0.05797
 H64 H 0.53426 0.38223 -0.05802
 H65 H 0.60765 0.45384 -0.05821
 H66 H 0.60395 0.64979 0.00196
 H67 H 0.47470 0.45067 0.03400
 H68 H 0.63445 0.61658 -0.06254
 C69 C 0.42541 0.89589 0.09349
 C70 C 0.46205 0.89485 0.09458
 C71 C 0.49176 0.92951 0.06697
 N72 N 0.47438 0.95200 0.04965
 C73 C 0.43359 0.93118 0.06527
 C74 C 0.53475 0.94111 0.06148
 C75 C 0.56457 0.97643 0.03287
 C76 C 0.60805 0.99390 0.03491
 C77 C 0.62541 1.02662 0.00026
 C78 C 0.59205 1.02775 -0.02256
 N79 N 0.55516 0.99691 -0.00281
 C80 C 0.59580 1.05503 -0.06270
 C81 C 0.56138 1.05811 -0.08086
 C82 C 0.56070 1.07545 -0.12761
 C83 C 0.52418 1.07663 -0.12875
 C84 C 0.50398 1.06054 -0.08227
 N85 N 0.52662 1.04881 -0.05315
 C86 C 0.46676 1.05975 -0.06615
 C87 C 0.44053 1.03212 -0.02692
 C88 C 0.40786 1.03407 -0.00293
 C89 C 0.39001 1.00137 0.03162
 C90 C 0.41292 0.98095 0.02896
 N91 N 0.44328 0.99953 -0.00721
 C92 C 0.40433 0.94506 0.05811
 H93 H 0.39642 0.87364 0.11267
 H94 H 0.46637 0.87166 0.11474
 H95 H 0.46219 0.98816 -0.02091
 H96 H 0.62564 0.98415 0.05863
 H97 H 0.65873 1.04676 -0.00778
 H98 H 0.58425 1.08632 -0.15765
 H99 H 0.51380 1.08836 -0.16008
 H100 H 0.36351 0.99400 0.05634
 H101 H 0.52526 0.98757 -0.01680
 H102 H 0.39793 1.05679 -0.00924
 C103 C 1.07288 0.55718 0.37142
 C104 C 1.07328 0.52026 0.37171
 C105 C 1.05965 0.50276 0.41992
 N106 N 1.05044 0.52749 0.44907
 C107 C 1.05908 0.56109 0.41947
 C108 C 1.05922 0.46615 0.43738
 C109 C 1.03131 0.44066 0.47668
 C110 C 1.03255 0.40805 0.50164
 C111 C 0.99936 0.39092 0.53567
 C112 C 0.97944 0.41427 0.53165
 N113 N 0.99879 0.44412 0.49519
 C114 C 0.94330 0.40658 0.55971
 C115 C 0.92997 0.43646 0.56498
 C116 C 0.89435 0.42923 0.59187
 C117 C 0.89415 0.46633 0.59174
 C118 C 0.92965 0.49538 0.56478
 N119 N 0.95179 0.47714 0.54890
 C120 C 0.94256 0.53870 0.55925
 C121 C 0.97849 0.56782 0.53103
 C122 C 0.99799 0.61144 0.53481
 C123 C 1.03105 0.62813 0.50058
 C124 C 1.03016 0.59427 0.47579
 N125 N 0.99796 0.55767 0.49458
 C126 C 1.05810 0.59716 0.43647
 H127 H 1.08207 0.57897 0.33963
 H128 H 1.08280 0.50776 0.34019
 H129 H 0.98751 0.52757 0.48007
 H130 H 1.05500 0.39763 0.49622
 H131 H 0.99130 0.36455 0.56083
 H132 H 0.87138 0.40062 0.61110
 H133 H 0.87098 0.47142 0.61081
 H134 H 1.05321 0.66143 0.49495
 H135 H 0.98807 0.46324 0.48048
 H136 H 0.98972 0.62954 0.55998
 C137 C 0.51693 0.44149 0.62810
 C138 C 0.55456 0.47906 0.62827
 C139 C 0.55435 0.50128 0.58556
 N140 N 0.51775 0.47860 0.55942
 C141 C 0.49488 0.44193 0.58532
 C142 C 0.58942 0.53961 0.56834
 C143 C 0.58613 0.56465 0.52989
 C144 C 0.61971 0.59640 0.50281
 C145 C 0.60290 0.61292 0.46937
 C146 C 0.55961 0.59099 0.47743
 N147 N 0.54979 0.56204 0.51479
 C148 C 0.53022 0.59829 0.45165
 C149 C 0.48628 0.57005 0.45498
 C150 C 0.45579 0.57930 0.43981
 C151 C 0.41807 0.54185 0.43997
 C152 C 0.42683 0.51102 0.45519
 N153 N 0.46850 0.52836 0.46470
 C154 C 0.39815 0.46713 0.45205
 C155 C 0.40517 0.43746 0.47765
 C156 C 0.38286 0.39416 0.46952
 C157 C 0.39937 0.37707 0.50262
 C158 C 0.43143 0.41052 0.52962
 N159 N 0.43428 0.44704 0.51479
 C160 C 0.45657 0.40697 0.56778
 H161 H 0.50725 0.41631 0.65575
 H162 H 0.57962 0.48857 0.65607
 H163 H 0.45283 0.47646 0.53197
 H164 H 0.65278 0.60624 0.50630
 H165 H 0.62053 0.63803 0.44215
 H166 H 0.46057 0.60963 0.42797
 H167 H 0.38787 0.53745 0.42825
 H168 H 0.38927 0.34392 0.50596
 H169 H 0.52037 0.54380 0.53198
 H170 H 0.35755 0.37668 0.44244
 C171 C 0.54128 0.10716 0.58949
 C172 C 0.57806 0.10639 0.58944
 C173 C 0.57022 0.07050 0.56259
 N174 N 0.52950 0.04910 0.54664
 C175 C 0.51183 0.07175 0.56261
 C176 C 0.59957 0.05650 0.55738
 C177 C 0.59126 0.02004 0.52951
 C178 C 0.61393 -0.00054 0.53383
 C179 C 0.59634 -0.03387 0.49989
 C180 C 0.56412 -0.03206 0.47471
 N181 N 0.56136 0.00096 0.49299
 C182 C 0.53831 -0.05990 0.43545
 C183 C 0.50211 -0.05962 0.41785
 C184 C 0.48453 -0.07311 0.36962
 C185 C 0.44802 -0.07200 0.36922
 C186 C 0.44442 -0.05790 0.41724
 N187 N 0.47784 -0.04978 0.44692
 C188 C 0.40875 -0.05623 0.43417
 C189 C 0.41211 -0.02812 0.47358
 C190 C 0.37854 -0.02854 0.49844
 C191 C 0.39563 0.00452 0.53273
 C192 C 0.43918 0.02354 0.52897
 N193 N 0.44891 0.00379 0.49241
 C194 C 0.46864 0.05931 0.55732
 H195 H 0.53667 0.13063 0.60864
 H196 H 0.60687 0.12916 0.60856
 H197 H 0.47889 0.01386 0.47785
 H198 H 0.64011 0.00717 0.55921
 H199 H 0.60616 -0.05681 0.49469
 H200 H 0.49671 -0.08304 0.33815
 H201 H 0.42626 -0.08092 0.33740
 H202 H 0.37777 0.01308 0.55788
 H203 H 0.54266 0.01214 0.47814
 H204 H 0.34518 -0.05040 0.49282
 O205 O 0.16094 0.40025 0.20070
 O206 O 0.23374 0.40084 0.29903
 O207 O 0.16385 0.40322 0.30006
 O208 O 0.23272 0.39887 0.19909
 O209 O 0.26720 0.46849 0.19419
 O210 O 0.20255 0.47278 0.29754
 O211 O 0.27204 0.47035 0.29201
 O212 O 0.19814 0.47002 0.19817
 Cu213 Cu 0.19403 0.39364 0.24971
 Cu214 Cu 0.23847 0.47733 0.24542
 C215 C 0.16694 0.43521 0.18350
 C216 C 0.26593 0.43598 0.31112
 C217 C 0.17184 0.43926 0.31599
 C218 C 0.26202 0.43319 0.17991
 O219 O 0.60146 0.76326 0.19739
 O220 O 0.59834 0.83288 0.29839
 O221 O 0.59906 0.76216 0.29740
 O222 O 0.60093 0.83565 0.19917
 O223 O 0.53119 0.79922 0.19644
 O224 O 0.52955 0.72474 0.29020
 O225 O 0.52876 0.79508 0.29571
 O226 O 0.53191 0.72962 0.19232
 Cu227 Cu 0.60711 0.80216 0.24803
 Cu228 Cu 0.52345 0.75875 0.24353
 C229 C 0.56698 0.73423 0.17816
 C230 C 0.56253 0.82550 0.31424
 C231 C 0.56367 0.73035 0.30947
 C232 C 0.56618 0.83021 0.18199
 O233 O 0.23327 0.84316 0.20170
 O234 O 0.16387 0.76810 0.30146
 O235 O 0.23642 0.83961 0.30092
 O236 O 0.15972 0.77041 0.20217
 O237 O 0.19465 0.73642 0.19419
 O238 O 0.26935 0.80380 0.29232
 O239 O 0.19830 0.73376 0.29301
 O240 O 0.26569 0.80672 0.19356
 Cu241 Cu 0.19484 0.80894 0.25200
 Cu242 Cu 0.23531 0.76670 0.24248
 C243 C 0.26157 0.83774 0.18125
 C244 C 0.16961 0.73804 0.31420
 C245 C 0.26608 0.83317 0.31336
 C246 C 0.16413 0.74136 0.18198
 O247 O 0.76065 0.59602 0.79971
 O248 O 0.83661 0.60295 0.70101
 O249 O 0.76296 0.60070 0.69992
 O250 O 0.83259 0.59746 0.80033
 O251 O 0.79673 0.52790 0.79464
 O252 O 0.73119 0.53135 0.69218
 O253 O 0.80202 0.53326 0.69550
 O254 O 0.72556 0.52668 0.78991
 Cu255 Cu 0.80174 0.60645 0.75053
 Cu256 Cu 0.76068 0.52291 0.74264
 C257 C 0.72949 0.55979 0.81052
 C258 C 0.83236 0.56905 0.68222
 C259 C 0.73485 0.56629 0.67946
 C260 C 0.82611 0.56161 0.81462
 O261 O 0.40329 0.16408 0.79744
 O262 O 0.39803 0.23300 0.69768
 O263 O 0.39986 0.16139 0.69825
 O264 O 0.40036 0.23374 0.79771
 O265 O 0.46975 0.27234 0.79002
 O266 O 0.46957 0.19885 0.69525
 O267 O 0.46759 0.26771 0.69205
 O268 O 0.47279 0.20312 0.79452
 Cu269 Cu 0.39323 0.19426 0.74782
 Cu270 Cu 0.47684 0.23906 0.74284
 C271 C 0.43941 0.17218 0.81291
 C272 C 0.43218 0.26236 0.67825
 C273 C 0.43480 0.16755 0.68071
 C274 C 0.43545 0.26602 0.80970
 O275 O 0.77041 0.16081 0.70115
 O276 O 0.83897 0.23591 0.80162
 O277 O 0.76806 0.16264 0.80046
 O278 O 0.84205 0.23519 0.70221
 O279 O 0.80428 0.26635 0.69670
 O280 O 0.73299 0.19664 0.79619
 O281 O 0.80242 0.26823 0.79574
 O282 O 0.73478 0.19429 0.69696
 Cu283 Cu 0.80860 0.19527 0.75151
 Cu284 Cu 0.76501 0.23459 0.74588
 C285 C 0.74061 0.16468 0.68266
 C286 C 0.83216 0.26508 0.81561
 C287 C 0.73795 0.16769 0.81513
 C288 C 0.83575 0.26333 0.68325
 C289 C 0.12487 0.46595 0.07091
 C290 C 0.08378 0.45315 0.08754
 C291 C 0.06877 0.43007 0.13321
 C292 C 0.09503 0.42117 0.16268
 C293 C 0.13692 0.43632 0.14753
 C294 C 0.15152 0.45826 0.10117
 H295 H 0.13701 0.48402 0.03595
 H296 H 0.03732 0.42040 0.14689
 H297 H 0.08358 0.40489 0.19888
 H298 H 0.18395 0.47059 0.08930
 C299 C 0.58919 0.65394 0.11803
 C300 C 0.55269 0.63072 0.08818
 C301 C 0.52504 0.64605 0.08164
 C302 C 0.53163 0.68186 0.10816
 C303 C 0.56632 0.70338 0.14126
 C304 C 0.59607 0.69024 0.14433
 H305 H 0.61090 0.64257 0.12338
 H306 H 0.49694 0.62875 0.05834
 H307 H 0.50836 0.69147 0.10484
 H308 H 0.62290 0.70612 0.16987
 C309 C 0.35551 0.93609 0.13057
 C310 C 0.36291 0.92107 0.08453
 C311 C 0.33310 0.88047 0.06712
 C312 C 0.29812 0.85402 0.09731
 C313 C 0.29176 0.86831 0.14446
 C314 C 0.31977 0.91000 0.16008
 H315 H 0.37847 0.96715 0.14483
 H316 H 0.33855 0.86832 0.03190
 H317 H 0.27711 0.82172 0.08510
 H318 H 0.31578 0.92118 0.19691
 C319 C 0.93172 0.57642 0.63269
 C320 C 0.91747 0.55425 0.58623
 C321 C 0.87689 0.54229 0.56849
 C322 C 0.84979 0.54956 0.59860
 C323 C 0.86341 0.57015 0.64599
 C324 C 0.90497 0.58481 0.66213
 H325 H 0.96276 0.58543 0.64717
 H326 H 0.86535 0.52488 0.53292
 H327 H 0.81760 0.53751 0.58600
 H328 H 0.91562 0.59995 0.69915
 C329 C 0.47211 0.34907 0.58045
 C330 C 0.44463 0.36454 0.58788
 C331 C 0.40881 0.34185 0.61896
 C332 C 0.40244 0.30591 0.64546
 C333 C 0.43208 0.29268 0.64139
 C334 C 0.46605 0.31366 0.60720
 H335 H 0.49971 0.36600 0.55628
 H336 H 0.38728 0.35337 0.62504
 H337 H 0.37619 0.29044 0.67188
 H338 H 0.48922 0.30395 0.60315
 C339 C 0.67081 0.12105 0.56720
 C340 C 0.64049 0.08075 0.58477
 C341 C 0.64690 0.06624 0.63166
 C342 C 0.68218 0.09253 0.66174
 C343 C 0.71077 0.13389 0.64575
 C344 C 0.70537 0.14772 0.59791
 H345 H 0.66610 0.13282 0.53132
 H346 H 0.62353 0.03543 0.64604
 H347 H 0.68544 0.08177 0.69912
 H348 H 0.72681 0.17981 0.58547
 C349 C 0.48923 0.13118 0.90427
 C350 C 0.45712 0.08873 0.91072
 C351 C 0.41690 0.07560 0.89009
 C352 C 0.41018 0.10339 0.86038
 C353 C 0.44347 0.14474 0.85098
 C354 C 0.48256 0.15867 0.87471
 H355 H 0.52018 0.14282 0.92101
 H356 H 0.39151 0.04313 0.89386
 H357 H 0.37968 0.09182 0.84251
 H358 H 0.50862 0.19058 0.86902
 C359 C 0.62221 0.51599 0.86924
 C360 C 0.63070 0.53838 0.91587
 C361 C 0.67249 0.57127 0.92532
 C362 C 0.70491 0.57976 0.89028
 C363 C 0.69611 0.55514 0.84576
 C364 C 0.65442 0.52385 0.83521
 H365 H 0.59033 0.49184 0.85909
 H366 H 0.68058 0.58891 0.96089
 H367 H 0.73701 0.60413 0.89903
 H368 H 0.64669 0.50516 0.80046
 C369 C 0.87221 0.35646 0.90724
 C370 C 0.91460 0.36767 0.91439
 C371 C 0.92799 0.34072 0.89445
 C372 C 0.90053 0.30562 0.86437
 C373 C 0.85933 0.29689 0.85410
 C374 C 0.84509 0.32174 0.87750
 H375 H 0.86038 0.37566 0.92339
 H376 H 0.96045 0.34850 0.89872
 H377 H 0.91226 0.28686 0.84679
 H378 H 0.81324 0.31530 0.87126
 C379 C 0.51420 0.86841 0.40552
 C380 C 0.54730 0.91029 0.41318
 C381 C 0.58760 0.92214 0.39374
 C382 C 0.59347 0.89381 0.36368
 C383 C 0.55927 0.85318 0.35292
 C384 C 0.52007 0.84037 0.37581
 H385 H 0.48308 0.85774 0.42123
 H386 H 0.61373 0.95417 0.39834
 H387 H 0.62409 0.90449 0.34653
 H388 H 0.49328 0.80903 0.36913
 C389 C 0.37226 0.46617 0.36377
 C390 C 0.36282 0.45260 0.41484
 C391 C 0.32038 0.42909 0.43036
 C392 C 0.28801 0.42129 0.39575
 C393 C 0.29806 0.43769 0.34587
 C394 C 0.34025 0.45937 0.32989
 H395 H 0.40476 0.48395 0.35089
 H396 H 0.31251 0.41840 0.46959
 H397 H 0.25550 0.40456 0.40861
 H398 H 0.34848 0.47192 0.29138
 C399 C 0.07397 0.66379 0.39405
 C400 C 0.08696 0.63652 0.41375
 C401 C 0.12913 0.64709 0.40603
 C402 C 0.15634 0.68142 0.37593
 C403 C 0.14244 0.70657 0.35286
 C404 C 0.10154 0.69853 0.36371
 H405 H 0.04170 0.65651 0.39871
 H406 H 0.14070 0.62769 0.42201
 H407 H 0.18797 0.68737 0.36923
 H408 H 0.09010 0.71755 0.34638
 C409 C 0.86828 0.51302 0.90591
 C410 C 0.91009 0.54609 0.91395
 C411 C 0.92213 0.58645 0.89463
 C412 C 0.89407 0.59243 0.86442
 C413 C 0.85355 0.55826 0.85332
 C414 C 0.84054 0.51898 0.87598
 H415 H 0.85742 0.48186 0.92156
 H416 H 0.95412 0.61257 0.89950
 H417 H 0.90489 0.62310 0.84741
 H418 H 0.80924 0.49222 0.86903
 C419 C 0.42482 0.31893 0.92884
 C420 C 0.45120 0.36166 0.91581
 C421 C 0.46828 0.37207 0.86622
 C422 C 0.46188 0.34058 0.83157
 C423 C 0.43722 0.29796 0.84514
 C424 C 0.41749 0.28712 0.89333
 H425 H 0.41142 0.31028 0.96691
 H426 H 0.48829 0.40482 0.85515
 H427 H 0.47696 0.34952 0.79434
 H428 H 0.39836 0.25427 0.90435
 C429 C 0.65384 0.12759 0.91651
 C430 C 0.63772 0.08388 0.91412
 C431 C 0.65851 0.06829 0.88404
 C432 C 0.69342 0.09601 0.85414
 C433 C 0.70727 0.13938 0.85352
 C434 C 0.68801 0.15503 0.88612
 H435 H 0.63822 0.14015 0.93960
 H436 H 0.64630 0.03461 0.88152
 H437 H 0.70774 0.08329 0.82904
 H438 H 0.69836 0.18839 0.88656
 C439 C 0.13053 0.48901 0.40741
 C440 C 0.08843 0.45644 0.41497
 C441 C 0.07582 0.41595 0.39536
 C442 C 0.10366 0.40941 0.36528
 C443 C 0.14456 0.44311 0.35467
 C444 C 0.15809 0.48246 0.37770
 H445 H 0.14177 0.52024 0.42324
 H446 H 0.04360 0.39022 0.39988
 H447 H 0.09242 0.37868 0.34801
 H448 H 0.18965 0.50888 0.37112
 C449 C 0.53127 0.62379 0.36317
 C450 C 0.54506 0.63342 0.41417
 C451 C 0.56937 0.67595 0.42931
 C452 C 0.57784 0.70828 0.39436
 C453 C 0.56131 0.69812 0.34451
 C454 C 0.53875 0.65579 0.32894
 H455 H 0.51289 0.59122 0.35058
 H456 H 0.58026 0.68397 0.46848
 H457 H 0.59522 0.74090 0.40691
 H458 H 0.52605 0.64746 0.29047
 C459 C 0.35795 0.87291 0.40375
 C460 C 0.36922 0.91531 0.41146
 C461 C 0.34230 0.92885 0.39208
 C462 C 0.30709 0.90150 0.36220
 C463 C 0.29824 0.86028 0.35147
 C464 C 0.32315 0.84592 0.37410
 H465 H 0.37707 0.86092 0.41949
 H466 H 0.35012 0.96132 0.39674
 H467 H 0.28829 0.91332 0.34518
 H468 H 0.31661 0.81404 0.36745
 C469 C 0.53486 0.87359 0.07141
 C470 C 0.54911 0.91500 0.08823
 C471 C 0.57343 0.92973 0.13310
 C472 C 0.58208 0.90286 0.16170
 C473 C 0.56547 0.86070 0.14648
 C474 C 0.54234 0.84639 0.10083
 H475 H 0.51590 0.86170 0.03702
 H476 H 0.58429 0.96145 0.14688
 H477 H 0.59929 0.91412 0.19739
 H478 H 0.52888 0.81378 0.08892
 C479 C 0.34073 0.40919 0.11904
 C480 C 0.36436 0.44566 0.08934
 C481 C 0.34989 0.47407 0.08332
 C482 C 0.31447 0.46813 0.11008
 C483 C 0.29251 0.43337 0.14293
 C484 C 0.30483 0.40297 0.14559
 H485 H 0.35144 0.38690 0.12398
 H486 H 0.36751 0.50215 0.06013
 H487 H 0.30548 0.49189 0.10708
 H488 H 0.28860 0.37609 0.17094
 C489 C 0.06526 0.64728 0.13259
 C490 C 0.07956 0.64015 0.08583
 C491 C 0.11973 0.67020 0.06766
 C492 C 0.14654 0.70520 0.09772
 C493 C 0.13300 0.71130 0.14552
 C494 C 0.09171 0.68301 0.16202
 H495 H 0.03453 0.62413 0.14740
 H496 H 0.13131 0.66496 0.03186
 H497 H 0.17857 0.72641 0.08487
 H498 H 0.08115 0.68680 0.19937
 C499 C 0.46602 0.12551 0.56812
 C500 C 0.45348 0.08453 0.58487
 C501 C 0.43033 0.06952 0.63052
 C502 C 0.42110 0.09571 0.65990
 C503 C 0.43599 0.13751 0.64466
 C504 C 0.45799 0.15209 0.59829
 H505 H 0.48413 0.13763 0.53316
 H506 H 0.42086 0.03816 0.64429
 H507 H 0.40482 0.08429 0.69613
 H508 H 0.47016 0.18447 0.58638
 C509 C 0.64744 0.52442 0.58218
 C510 C 0.63171 0.55173 0.58907
 C511 C 0.65422 0.58789 0.61977
 C512 C 0.69032 0.59485 0.64636
 C513 C 0.70395 0.56549 0.64274
 C514 C 0.68307 0.53109 0.60897
 H515 H 0.63068 0.49659 0.55825
 H516 H 0.64251 0.60933 0.62537
 H517 H 0.70571 0.62145 0.67239
 H518 H 0.69307 0.50813 0.60520
 C519 C 0.93360 0.35830 0.63295
 C520 C 0.91861 0.36565 0.58699
 C521 C 0.87789 0.33597 0.56990
 C522 C 0.85143 0.30103 0.60013
 C523 C 0.86589 0.29451 0.64692
 C524 C 0.90755 0.32256 0.66241
 H525 H 0.96475 0.38114 0.64698
 H526 H 0.86577 0.34135 0.53472
 H527 H 0.81916 0.27994 0.58802
 H528 H 0.91886 0.31841 0.69896
   
