data_POSCAR
  _audit_creation_date              2014-09-24
  _audit_creation_method            'ToBaCCo'
  _symmetry_space_group_name_H-M    'P1'
  _symmetry_Int_Tables_number       1
  _symmetry_cell_setting            triclinic
  loop_
  _symmetry_equiv_pos_as_xyz
 x,y,z
_cell_length_a 26.8642
_cell_length_b 28.0560
_cell_length_c 27.4732
_cell_angle_alpha 85.277400
_cell_angle_beta 96.195600
_cell_angle_gamma 94.406900
loop_
  _atom_site_label
  _atom_site_type_symbol
  _atom_site_fract_x
  _atom_site_fract_y
  _atom_site_fract_z
C1 C 0.20427 0.28892 0.28658
 C2 C 0.23685 0.31857 0.25088
 C3 C 0.26428 0.29209 0.22550
 C4 C 0.25632 0.23770 0.23814
 C5 C 0.17215 0.25413 0.25356
 C6 C 0.19937 0.22716 0.22883
 C7 C 0.24085 0.25775 0.31913
 C8 C 0.26833 0.23104 0.29416
 H9 H 0.23753 0.35723 0.24580
 H10 H 0.27769 0.21574 0.21706
 H11 H 0.13158 0.25260 0.24788
 H12 H 0.24377 0.25647 0.35884
 C13 C 0.71187 0.79527 0.28527
 C14 C 0.74216 0.82443 0.24732
 C15 C 0.76907 0.79764 0.22171
 C16 C 0.76287 0.74348 0.23647
 C17 C 0.67947 0.75870 0.25474
 C18 C 0.70587 0.73105 0.22968
 C19 C 0.75028 0.76591 0.31746
 C20 C 0.77697 0.73878 0.29226
 H21 H 0.74178 0.86290 0.24083
 H22 H 0.78473 0.72123 0.21629
 H23 H 0.63888 0.75704 0.25089
 H24 H 0.75455 0.76551 0.35715
 C25 C 0.70964 0.29339 0.78405
 C26 C 0.73603 0.32262 0.74754
 C27 C 0.76538 0.29648 0.71961
 C28 C 0.76130 0.24478 0.73301
 C29 C 0.67768 0.25619 0.75397
 C30 C 0.70450 0.23020 0.72753
 C31 C 0.74972 0.26488 0.81503
 C32 C 0.77669 0.23913 0.78863
 H33 H 0.73453 0.36109 0.74291
 H34 H 0.78271 0.22306 0.71192
 H35 H 0.63709 0.25350 0.75049
 H36 H 0.75413 0.26319 0.85478
 C37 C 0.21566 0.78701 0.79367
 C38 C 0.24550 0.81775 0.75666
 C39 C 0.27224 0.79252 0.72937
 C40 C 0.26672 0.73806 0.74202
 C41 C 0.18338 0.75034 0.76312
 C42 C 0.20988 0.72498 0.73579
 C43 C 0.25461 0.75669 0.82444
 C44 C 0.28161 0.73148 0.79761
 H45 H 0.24644 0.85651 0.75391
 H46 H 0.28818 0.71677 0.72040
 H47 H 0.14299 0.74538 0.76281
 H48 H 0.25750 0.75143 0.86403
 C49 C 0.07298 0.06895 0.01377
 H50 H 0.07188 0.07519 -0.02571
 C51 C 0.10078 0.10115 0.04406
 H52 H 0.12150 0.13196 0.02780
 C53 C 0.04578 0.02227 0.08306
 H54 H 0.02293 -0.00726 0.09837
 C55 C 0.07384 0.05301 0.11467
 H56 H 0.07269 0.04638 0.15395
 N57 N 0.04609 0.03044 0.03354
 C58 C 0.01989 -0.07311 -0.07881
 H59 H -0.02067 -0.07746 -0.08235
 C60 C 0.04714 -0.10014 -0.10571
 H61 H 0.02716 -0.12564 -0.12958
 C62 C 0.09502 -0.03578 -0.04176
 H63 H 0.11356 -0.01098 -0.01646
 C64 C 0.12372 -0.06190 -0.06809
 H65 H 0.16421 -0.05617 -0.06329
 Zn66 Zn 0.00480 -0.00765 -0.01111
 N67 N 0.04408 -0.04166 -0.04767
 C68 C -0.03413 0.03918 -0.10253
 N69 N -0.03395 0.03554 -0.05281
 C70 C -0.06048 0.06467 -0.02983
 C71 C -0.08919 0.09883 -0.05693
 C72 C -0.06253 0.07296 -0.13119
 C73 C -0.01887 -0.08427 0.05831
 C74 C -0.05037 -0.11324 0.08757
 C75 C -0.12179 -0.08080 0.03866
 C76 C -0.08896 -0.05164 0.01127
 N77 N -0.03850 -0.05248 0.02266
 H78 H -0.01201 0.01626 -0.11998
 H79 H -0.05929 0.06120 0.00978
 H80 H -0.11069 0.12105 -0.03784
 H81 H -0.06205 0.07574 -0.17068
 H82 H 0.02142 -0.08538 0.06567
 H83 H -0.03361 -0.13564 0.11795
 H84 H -0.16176 -0.07906 0.02892
 H85 H -0.10399 -0.02778 -0.01866
 C86 C 0.09984 -0.09485 -0.10043
 C87 C 0.10130 0.09327 0.09518
 C88 C -0.10273 -0.11077 0.07883
 C89 C -0.09041 0.10344 -0.10832
 C90 C 0.07415 0.57306 0.52134
 H91 H 0.06612 0.58477 0.48298
 C92 C 0.10343 0.60306 0.55290
 H93 H 0.11756 0.63799 0.53851
 C94 C 0.06313 0.51425 0.58703
 H95 H 0.04711 0.47965 0.60011
 C96 C 0.09210 0.54315 0.61990
 H97 H 0.09844 0.53033 0.65817
 N98 N 0.05385 0.53005 0.53900
 C99 C 0.01758 0.43091 0.42350
 H100 H -0.02281 0.43154 0.41696
 C101 C 0.04304 0.40311 0.39574
 H102 H 0.02189 0.38313 0.36738
 C103 C 0.09400 0.45705 0.46780
 H104 H 0.11369 0.47791 0.49617
 C105 C 0.12092 0.42949 0.44114
 H106 H 0.16118 0.42918 0.44975
 Zn107 Zn 0.00787 0.49463 0.49625
 N108 N 0.04325 0.45735 0.45860
 C109 C -0.03275 0.54110 0.40493
 N110 N -0.03034 0.53951 0.45481
 C111 C -0.05433 0.57120 0.47726
 C112 C -0.08349 0.60477 0.44972
 C113 C -0.06156 0.57429 0.37584
 C114 C -0.04418 0.40634 0.52845
 C115 C -0.07739 0.37782 0.55634
 C116 C -0.09151 0.44759 0.59745
 C117 C -0.05832 0.47465 0.56884
 N118 N -0.03590 0.45412 0.53451
 H119 H -0.01214 0.51702 0.38741
 H120 H -0.05046 0.57098 0.51671
 H121 H -0.10311 0.62870 0.46870
 H122 H -0.06287 0.57507 0.33626
 H123 H -0.02534 0.39011 0.50195
 H124 H -0.08431 0.34014 0.55029
 H125 H -0.10830 0.46481 0.62491
 H126 H -0.04963 0.51196 0.57501
 C127 C 0.09548 0.40209 0.40439
 C128 C 0.11186 0.58862 0.60312
 C129 C -0.10200 0.39861 0.59102
 C130 C -0.08766 0.60657 0.39826
 C131 C 0.57446 0.06550 0.51914
 H132 H 0.57291 0.07208 0.47966
 C133 C 0.60327 0.09700 0.54949
 H134 H 0.62329 0.12802 0.53285
 C135 C 0.54722 0.01879 0.58829
 H136 H 0.52434 -0.01071 0.60360
 C137 C 0.57615 0.04881 0.61995
 H138 H 0.57609 0.04071 0.65915
 N139 N 0.54695 0.02741 0.53883
 C140 C 0.51895 -0.07384 0.42478
 H141 H 0.47835 -0.07695 0.42032
 C142 C 0.54590 -0.10027 0.39702
 H143 H 0.52569 -0.12327 0.37070
 C144 C 0.59448 -0.03965 0.46438
 H145 H 0.61326 -0.01652 0.49120
 C146 C 0.62290 -0.06535 0.43734
 H147 H 0.66344 -0.06178 0.44379
 Zn148 Zn 0.50473 -0.01002 0.49445
 N149 N 0.54348 -0.04400 0.45737
 C150 C 0.46533 0.03800 0.40378
 N151 N 0.46560 0.03358 0.45350
 C152 C 0.43836 0.06170 0.47693
 C153 C 0.40820 0.09500 0.45028
 C154 C 0.43577 0.07117 0.37558
 C155 C 0.48193 -0.08706 0.56358
 C156 C 0.45109 -0.11580 0.59367
 C157 C 0.37893 -0.08212 0.54725
 C158 C 0.41117 -0.05334 0.51886
 N159 N 0.46175 -0.05482 0.52871
 H160 H 0.48813 0.01606 0.38593
 H161 H 0.43968 0.05772 0.51655
 H162 H 0.38577 0.11593 0.46982
 H163 H 0.43626 0.07448 0.33610
 H164 H 0.52225 -0.08864 0.56974
 H165 H 0.46837 -0.13864 0.62339
 H166 H 0.33885 -0.07980 0.53888
 H167 H 0.39558 -0.02923 0.48947
 C168 C 0.59862 -0.09612 0.40306
 C169 C 0.60404 0.08913 0.60076
 C170 C 0.39875 -0.11256 0.58662
 C171 C 0.40651 0.10013 0.39885
 C172 C 0.57967 0.56025 0.02474
 H173 H 0.57968 0.56530 -0.01473
 C174 C 0.60783 0.59256 0.05462
 H175 H 0.62902 0.62258 0.03759
 C176 C 0.54886 0.51687 0.09414
 H177 H 0.52472 0.48843 0.10957
 C178 C 0.57704 0.54782 0.12541
 H179 H 0.57523 0.54145 0.16459
 N180 N 0.55067 0.52347 0.04475
 C181 C 0.52174 0.42196 -0.06879
 H182 H 0.48115 0.42022 -0.07369
 C183 C 0.54787 0.39556 -0.09721
 H184 H 0.52701 0.37406 -0.12450
 C185 C 0.59797 0.45324 -0.02787
 H186 H 0.61724 0.47544 -0.00044
 C187 C 0.62564 0.42720 -0.05531
 H188 H 0.66616 0.42946 -0.04844
 Zn189 Zn 0.50869 0.48588 0.00038
 N190 N 0.54701 0.45061 -0.03552
 C191 C 0.47176 0.53314 -0.09164
 N192 N 0.47115 0.52956 -0.04200
 C193 C 0.44422 0.55876 -0.01956
 C194 C 0.41561 0.59266 -0.04718
 C195 C 0.44347 0.56663 -0.12082
 C196 C 0.48286 0.41054 0.07027
 C197 C 0.45039 0.38186 0.09874
 C198 C 0.38027 0.41456 0.04789
 C199 C 0.41402 0.44335 0.02126
 N200 N 0.46427 0.44219 0.03393
 H201 H 0.49435 0.51039 -0.10872
 H202 H 0.44480 0.55538 0.02001
 H203 H 0.39365 0.61486 -0.02854
 H204 H 0.44447 0.56929 -0.16025
 H205 H 0.52304 0.40916 0.07863
 H206 H 0.46621 0.35940 0.12957
 H207 H 0.34048 0.41647 0.03713
 H208 H 0.39985 0.46702 -0.00923
 C209 C 0.60058 0.39814 -0.09084
 C210 C 0.60638 0.58691 0.10578
 C211 C 0.39818 0.38458 0.08853
 C212 C 0.41497 0.59697 -0.09853
 C213 C 0.20256 -0.17027 -0.12995
 C214 C 0.18571 -0.18253 -0.17801
 C215 C 0.14160 -0.16313 -0.20114
 C216 C 0.11375 -0.13478 -0.17614
 C217 C 0.12972 -0.12429 -0.12755
 C218 C 0.17464 -0.14212 -0.10495
 H219 H 0.23765 -0.18151 -0.11134
 H220 H 0.12864 -0.16981 -0.23882
 H221 H 0.08006 -0.12049 -0.19515
 H222 H 0.18817 -0.13469 -0.06759
 C223 C 0.19686 0.36239 0.33337
 C224 C 0.17540 0.31844 0.31686
 C225 C 0.12875 0.30088 0.33250
 C226 C 0.10294 0.32791 0.36081
 C227 C 0.12340 0.37288 0.37507
 C228 C 0.17092 0.38955 0.36135
 H229 H 0.23393 0.37600 0.32480
 H230 H 0.11223 0.26590 0.32364
 H231 H 0.06725 0.31315 0.37225
 H232 H 0.18801 0.42391 0.37182
 C233 C 0.64009 -0.19752 0.33711
 C234 C 0.68247 -0.17594 0.31578
 C235 C 0.69891 -0.12872 0.32665
 C236 C 0.67172 -0.10285 0.35480
 C237 C 0.62803 -0.12381 0.37384
 C238 C 0.61288 -0.17163 0.36516
 H239 H 0.62792 -0.23468 0.33243
 H240 H 0.73303 -0.11155 0.31393
 H241 H 0.68470 -0.06620 0.36127
 H242 H 0.58036 -0.18934 0.38076
 C243 C 0.63708 0.30003 -0.16447
 C244 C 0.68086 0.32101 -0.18372
 C245 C 0.70010 0.36615 -0.16839
 C246 C 0.67413 0.39114 -0.13843
 C247 C 0.62906 0.37107 -0.12152
 C248 C 0.61130 0.32491 -0.13427
 H249 H 0.62282 0.26400 -0.17194
 H250 H 0.73539 0.38235 -0.17940
 H251 H 0.68914 0.42649 -0.12899
 H252 H 0.57776 0.30761 -0.12026
 C253 C -0.15549 0.21798 -0.14508
 C254 C -0.18592 0.20609 -0.18779
 C255 C -0.18224 0.16137 -0.20618
 C256 C -0.15014 0.12843 -0.18120
 C257 C -0.12112 0.13966 -0.13741
 C258 C -0.12342 0.18518 -0.12023
 H259 H -0.15683 0.25256 -0.13060
 H260 H -0.20570 0.15096 -0.23866
 H261 H -0.14952 0.09350 -0.19511
 H262 H -0.10068 0.19531 -0.08721
 C263 C -0.18230 0.66072 0.30038
 C264 C -0.18573 0.70624 0.31702
 C265 C -0.15457 0.71978 0.35868
 C266 C -0.12171 0.68797 0.38407
 C267 C -0.11950 0.64168 0.36863
 C268 C -0.14959 0.62869 0.32600
 H269 H -0.20629 0.64915 0.26867
 H270 H -0.15571 0.75502 0.37175
 H271 H -0.09819 0.69957 0.41603
 H272 H -0.14920 0.59316 0.31342
 C273 C 0.31382 0.15550 0.29977
 C274 C 0.30604 0.19881 0.31915
 C275 C 0.33392 0.21071 0.36328
 C276 C 0.36744 0.17932 0.38832
 C277 C 0.37376 0.13505 0.37005
 C278 C 0.34711 0.12383 0.32506
 H279 H 0.29310 0.14521 0.26589
 H280 H 0.32996 0.24444 0.37851
 H281 H 0.38837 0.18973 0.42215
 H282 H 0.35073 0.08989 0.31011
 C283 C 0.34963 0.71093 -0.13644
 C284 C 0.31919 0.69860 -0.17898
 C285 C 0.32319 0.65389 -0.19719
 C286 C 0.35547 0.62122 -0.17194
 C287 C 0.38432 0.63285 -0.12815
 C288 C 0.38186 0.67847 -0.11136
 H289 H 0.34810 0.74560 -0.12219
 H290 H 0.29984 0.64332 -0.22968
 H291 H 0.35636 0.58620 -0.18558
 H292 H 0.40450 0.68891 -0.07840
 C293 C -0.21194 -0.13788 0.15605
 C294 C -0.19955 -0.18087 0.18303
 C295 C -0.15627 -0.20220 0.17354
 C296 C -0.12556 -0.18043 0.13876
 C297 C -0.13708 -0.13648 0.11305
 C298 C -0.18093 -0.11578 0.12208
 H299 H -0.24556 -0.12084 0.16125
 H300 H -0.14518 -0.23504 0.19383
 H301 H -0.09259 -0.19795 0.13238
 H302 H -0.19090 -0.08163 0.10393
 C303 C -0.21379 0.36549 0.66272
 C304 C -0.20392 0.31941 0.68455
 C305 C -0.16162 0.29817 0.67171
 C306 C -0.12913 0.32325 0.64043
 C307 C -0.13824 0.36995 0.62080
 C308 C -0.18159 0.39019 0.63138
 H309 H -0.24699 0.38272 0.66876
 H310 H -0.15121 0.26348 0.68794
 H311 H -0.09576 0.30680 0.63326
 H312 H -0.19065 0.42547 0.61545
 C313 C 0.29198 -0.14007 0.66692
 C314 C 0.30384 -0.18426 0.69164
 C315 C 0.34640 -0.20564 0.68029
 C316 C 0.37656 -0.18315 0.64546
 C317 C 0.36528 -0.13839 0.62155
 C318 C 0.32248 -0.11728 0.63278
 H319 H 0.25905 -0.12280 0.67383
 H320 H 0.35729 -0.23927 0.69898
 H321 H 0.40880 -0.20087 0.63745
 H322 H 0.31290 -0.08247 0.61603
 C323 C 0.28640 0.35771 0.16222
 C324 C 0.29742 0.31408 0.18860
 C325 C 0.34087 0.29244 0.18015
 C326 C 0.37303 0.31448 0.14683
 C327 C 0.36270 0.35892 0.12155
 C328 C 0.31878 0.38002 0.12965
 H329 H 0.25273 0.37501 0.16672
 H330 H 0.35084 0.25908 0.20011
 H331 H 0.40608 0.29676 0.14112
 H332 H 0.30977 0.41455 0.11176
 C333 C 0.14397 0.20937 0.15284
 C334 C 0.17589 0.19324 0.19367
 C335 C 0.18446 0.14443 0.20129
 C336 C 0.16052 0.11187 0.16902
 C337 C 0.12844 0.12788 0.12813
 C338 C 0.12079 0.17699 0.12001
 H339 H 0.13705 0.24702 0.14646
 H340 H 0.20849 0.13136 0.23294
 H341 H 0.16695 0.07416 0.17596
 H342 H 0.09585 0.19006 0.08898
 C343 C 0.20458 0.68393 0.65763
 C344 C 0.18601 0.68875 0.70273
 C345 C 0.14407 0.65925 0.71555
 C346 C 0.12073 0.62612 0.68364
 C347 C 0.13870 0.62184 0.63810
 C348 C 0.18109 0.65092 0.62558
 H349 H 0.23651 0.70652 0.64650
 H350 H 0.12928 0.66171 0.75032
 H351 H 0.08781 0.60465 0.69412
 H352 H 0.19601 0.64821 0.59092
 C353 C 0.70066 0.18315 0.65287
 C354 C 0.68035 0.19283 0.69576
 C355 C 0.63585 0.16704 0.70781
 C356 C 0.61148 0.13347 0.67716
 C357 C 0.63136 0.12396 0.63397
 C358 C 0.67655 0.14894 0.62241
 H359 H 0.73453 0.20267 0.64208
 H360 H 0.61954 0.17281 0.74102
 H361 H 0.57636 0.11574 0.68699
 H362 H 0.69333 0.14216 0.58978
 C363 C 0.70297 0.68134 0.15709
 C364 C 0.68137 0.69338 0.19841
 C365 C 0.63571 0.66926 0.20959
 C366 C 0.61171 0.63480 0.17971
 C367 C 0.63307 0.62279 0.13821
 C368 C 0.67923 0.64629 0.12747
 H369 H 0.73771 0.69954 0.14688
 H370 H 0.61832 0.67685 0.24159
 H371 H 0.57584 0.61824 0.18880
 H372 H 0.69713 0.63763 0.09617
   
