data_POSCAR
  _audit_creation_date              2014-09-24
  _audit_creation_method            'ToBaCCo'
  _symmetry_space_group_name_H-M    'P1'
  _symmetry_Int_Tables_number       1
  _symmetry_cell_setting            triclinic
  loop_
  _symmetry_equiv_pos_as_xyz
 x,y,z
_cell_length_a 34.9670
_cell_length_b 34.9820
_cell_length_c 22.7452
_cell_angle_alpha 90.076900
_cell_angle_beta 90.014000
_cell_angle_gamma 91.110400
loop_
  _atom_site_label
  _atom_site_type_symbol
  _atom_site_fract_x
  _atom_site_fract_y
  _atom_site_fract_z
C1 C -0.10311 0.27470 -0.00314
 C2 C -0.08391 0.27649 0.05129
 C3 C -0.04364 0.27773 0.05108
 C4 C -0.02254 0.27186 -0.00082
 C5 C -0.04310 0.26685 -0.05380
 C6 C -0.08314 0.27030 -0.05644
 C7 C 0.02061 0.26989 0.00023
 C8 C 0.04208 0.27429 -0.05202
 C9 C 0.08167 0.26896 -0.05285
 C10 C 0.10095 0.26310 0.00023
 C11 C 0.08102 0.26075 0.05356
 C12 C 0.04087 0.26272 0.05290
 H13 H -0.13385 0.27522 -0.00378
 H14 H -0.02876 0.28375 0.09153
 H15 H -0.02785 0.25958 -0.09304
 H16 H 0.02848 0.28204 -0.09273
 H17 H 0.13147 0.25888 -0.00018
 H18 H 0.02579 0.25850 0.09371
 C19 C 0.39672 0.76650 0.49742
 C20 C 0.41630 0.77134 0.55078
 C21 C 0.45623 0.77582 0.55007
 C22 C 0.47736 0.77175 0.49763
 C23 C 0.45679 0.76580 0.44476
 C24 C 0.41656 0.76437 0.44398
 C25 C 0.52050 0.77209 0.49860
 C26 C 0.54200 0.77912 0.44703
 C27 C 0.58200 0.77606 0.44663
 C28 C 0.60110 0.76933 0.49972
 C29 C 0.58080 0.76387 0.55226
 C30 C 0.54067 0.76398 0.55086
 H31 H 0.36598 0.76284 0.49766
 H32 H 0.47052 0.78252 0.59093
 H33 H 0.47183 0.76188 0.40397
 H34 H 0.52797 0.78708 0.40677
 H35 H 0.63183 0.76679 0.49990
 H36 H 0.52541 0.75746 0.59082
 C37 C 1.10083 0.73081 -0.00242
 C38 C 1.08129 0.72688 0.05144
 C39 C 1.04109 0.72529 0.05045
 C40 C 1.02025 0.73334 -0.00092
 C41 C 1.04101 0.73999 -0.05330
 C42 C 1.08117 0.73688 -0.05559
 C43 C 0.97717 0.73594 0.00069
 C44 C 0.95518 0.73343 -0.05136
 C45 C 0.91550 0.73864 -0.05061
 C46 C 0.89687 0.74294 0.00343
 C47 C 0.91746 0.74391 0.05625
 C48 C 0.95753 0.74188 0.05427
 H49 H 1.13158 0.73077 -0.00259
 H50 H 1.02606 0.71738 0.08998
 H51 H 1.02582 0.74797 -0.09227
 H52 H 0.96846 0.72718 -0.09297
 H53 H 0.86633 0.74707 0.00421
 H54 H 0.97306 0.74511 0.09488
 C55 C 0.60141 0.23903 0.49938
 C56 C 0.58208 0.23170 0.55232
 C57 C 0.54208 0.22734 0.55157
 C58 C 0.52078 0.23372 0.49986
 C59 C 0.54116 0.24243 0.44774
 C60 C 0.58131 0.24382 0.44665
 C61 C 0.47765 0.23282 0.50060
 C62 C 0.45655 0.22798 0.44810
 C63 C 0.41664 0.23121 0.44728
 C64 C 0.39706 0.23563 0.50054
 C65 C 0.41688 0.23857 0.55400
 C66 C 0.45709 0.23835 0.55335
 H67 H 0.63216 0.24255 0.49947
 H68 H 0.52785 0.21889 0.59168
 H69 H 0.52603 0.24842 0.40767
 H70 H 0.47084 0.22165 0.40732
 H71 H 0.36635 0.23837 0.50020
 H72 H 0.47212 0.24289 0.59416
 C73 C 0.73446 -0.09567 0.00378
 C74 C 0.74011 -0.07502 0.05643
 C75 C 0.74045 -0.03476 0.05372
 C76 C 0.73213 -0.01522 0.00116
 C77 C 0.72495 -0.03708 -0.04997
 C78 C 0.72803 -0.07703 -0.04978
 C79 C 0.73215 0.02781 -0.00057
 C80 C 0.74016 0.04763 -0.05326
 C81 C 0.73981 0.08788 -0.05601
 C82 C 0.73447 0.10834 -0.00332
 C83 C 0.72839 0.08949 0.05035
 C84 C 0.72532 0.04942 0.05065
 H85 H 0.73679 -0.12635 0.00362
 H86 H 0.74723 -0.01840 0.09254
 H87 H 0.71694 -0.02319 -0.09036
 H88 H 0.74668 0.03152 -0.09217
 H89 H 0.73681 0.13911 -0.00325
 H90 H 0.71759 0.03525 0.09118
 C91 C 0.23423 0.39635 0.50015
 C92 C 0.22949 0.41615 0.55316
 C93 C 0.22538 0.45593 0.55192
 C94 C 0.22973 0.47689 0.49920
 C95 C 0.23575 0.45603 0.44675
 C96 C 0.23673 0.41590 0.44655
 C97 C 0.22966 0.52011 0.49924
 C98 C 0.22540 0.54088 0.44648
 C99 C 0.22941 0.58084 0.44523
 C100 C 0.23391 0.60084 0.49830
 C101 C 0.23627 0.58139 0.55194
 C102 C 0.23542 0.54121 0.55172
 H103 H 0.23758 0.36572 0.50078
 H104 H 0.21873 0.47007 0.59267
 H105 H 0.24004 0.47065 0.40566
 H106 H 0.21889 0.52645 0.40571
 H107 H 0.23715 0.63161 0.49769
 H108 H 0.23960 0.52677 0.59284
 C109 C 0.26430 1.10130 -0.00169
 C110 C 0.26888 1.08154 0.05140
 C111 C 0.27221 1.04172 0.05027
 C112 C 0.26658 1.02074 -0.00204
 C113 C 0.25961 1.04136 -0.05428
 C114 C 0.26031 1.08170 -0.05549
 C115 C 0.26679 0.97761 -0.00197
 C116 C 0.27242 0.95700 -0.05453
 C117 C 0.26911 0.91688 -0.05645
 C118 C 0.26472 0.89697 -0.00307
 C119 C 0.26080 0.91642 0.05046
 C120 C 0.26046 0.95656 0.05022
 H121 H 0.26202 1.13198 -0.00041
 H122 H 0.27915 1.02742 0.09075
 H123 H 0.25341 1.02591 -0.09407
 H124 H 0.28009 0.97210 -0.09415
 H125 H 0.26247 0.86619 -0.00297
 H126 H 0.25513 0.97116 0.09099
 C127 C 0.76277 0.60909 0.50342
 C128 C 0.76820 0.58900 0.55595
 C129 C 0.77175 0.54912 0.55383
 C130 C 0.76639 0.52856 0.50085
 C131 C 0.75968 0.54970 0.44901
 C132 C 0.75912 0.58986 0.44958
 C133 C 0.76638 0.48539 0.50001
 C134 C 0.77190 0.46505 0.44708
 C135 C 0.76831 0.42504 0.44488
 C136 C 0.76270 0.40471 0.49737
 C137 C 0.75890 0.42380 0.55121
 C138 C 0.75949 0.46398 0.55179
 H139 H 0.75982 0.63976 0.50461
 H140 H 0.77880 0.53445 0.59394
 H141 H 0.75460 0.53521 0.40788
 H142 H 0.77912 0.48001 0.40705
 H143 H 0.75976 0.37393 0.49613
 H144 H 0.75430 0.47829 0.59287
 O145 O 0.21505 0.26455 0.17757
 O146 O 0.31018 0.25569 0.24587
 O147 O 0.26845 0.21437 0.17561
 O148 O 0.25879 0.30857 0.24448
 O149 O 0.23206 0.28161 0.32244
 O150 O 0.24238 0.18679 0.25365
 O151 O 0.28311 0.22915 0.32398
 O152 O 0.18844 0.23736 0.25543
 Cu153 Cu 0.26563 0.26375 0.20312
 Cu154 Cu 0.23354 0.23113 0.29661
 C155 C 0.18565 0.25171 0.20446
 C156 C 0.31272 0.24079 0.29663
 C157 C 0.25739 0.18458 0.20290
 C158 C 0.24456 0.31113 0.29557
 O159 O 0.76252 0.81986 0.25918
 O160 O 0.76635 0.72447 0.32759
 O161 O 0.81236 0.76599 0.26086
 O162 O 0.71736 0.77927 0.32682
 O163 O 0.69004 0.75458 0.24745
 O164 O 0.78508 0.74000 0.18242
 O165 O 0.73870 0.69898 0.24911
 O166 O 0.73612 0.79383 0.18004
 Cu167 Cu 0.76744 0.77482 0.30163
 Cu168 Cu 0.73476 0.74405 0.20700
 C169 C 0.74911 0.82288 0.20753
 C170 C 0.75259 0.69561 0.30034
 C171 C 0.81479 0.75157 0.20979
 C172 C 0.68757 0.76929 0.29835
 O173 O 0.80780 0.25045 0.24881
 O174 O 0.71322 0.24220 0.31902
 O175 O 0.75276 0.19823 0.24966
 O176 O 0.76798 0.29249 0.31863
 O177 O 0.74282 0.32020 0.24081
 O178 O 0.72666 0.22550 0.17228
 O179 O 0.68710 0.26991 0.24201
 O180 O 0.78158 0.27681 0.17073
 Cu181 Cu 0.76308 0.24279 0.29153
 Cu182 Cu 0.73182 0.27570 0.19861
 C183 C 0.81083 0.26532 0.19809
 C184 C 0.68423 0.25550 0.29307
 C185 C 0.73727 0.19575 0.19927
 C186 C 0.75787 0.32236 0.29160
 O187 O 0.18764 0.75227 0.25102
 O188 O 0.28268 0.76604 0.31908
 O189 O 0.23846 0.80798 0.25210
 O190 O 0.22988 0.71345 0.32115
 O191 O 0.25567 0.68696 0.24270
 O192 O 0.26568 0.78229 0.17426
 O193 O 0.30932 0.73980 0.24120
 O194 O 0.21482 0.72765 0.17222
 Cu195 Cu 0.23212 0.76288 0.29353
 Cu196 Cu 0.26432 0.73173 0.19984
 C197 C 0.18516 0.73750 0.20004
 C198 C 0.31207 0.75425 0.29223
 C199 C 0.25284 0.81123 0.20112
 C200 C 0.24099 0.68413 0.29368
 O201 O 0.76193 0.19399 0.74146
 O202 O 0.76573 0.28953 0.67321
 O203 O 0.81150 0.25012 0.74042
 O204 O 0.71681 0.23291 0.67381
 O205 O 0.68930 0.25674 0.75286
 O206 O 0.78414 0.27413 0.81947
 O207 O 0.73839 0.31394 0.75193
 O208 O 0.73497 0.21875 0.82032
 Cu209 Cu 0.76680 0.23931 0.69927
 Cu210 Cu 0.73394 0.26861 0.79389
 C211 C 0.74821 0.19030 0.79288
 C212 C 0.75217 0.31787 0.70061
 C213 C 0.81387 0.26408 0.79186
 C214 C 0.68696 0.24193 0.70195
 O215 O 0.30970 0.74392 0.75254
 O216 O 0.21455 0.73274 0.82145
 O217 O 0.25764 0.68961 0.75422
 O218 O 0.26820 0.78443 0.82213
 O219 O 0.24277 0.81091 0.74346
 O220 O 0.23130 0.71547 0.67587
 O221 O 0.18830 0.75856 0.74300
 O222 O 0.28288 0.76921 0.67405
 Cu223 Cu 0.26501 0.73478 0.79537
 Cu224 Cu 0.23331 0.76601 0.70138
 C225 C 0.31237 0.75859 0.70157
 C226 C 0.18532 0.74458 0.79428
 C227 C 0.24353 0.68644 0.70304
 C228 C 0.25765 0.81378 0.79429
 O229 O 0.25624 0.31075 0.75492
 O230 O 0.26543 0.21577 0.82352
 O231 O 0.30953 0.25958 0.75647
 O232 O 0.21493 0.26870 0.82445
 O233 O 0.18780 0.24209 0.74632
 O234 O 0.28287 0.23301 0.67802
 O235 O 0.23929 0.18902 0.74481
 O236 O 0.22983 0.28342 0.67680
 Cu237 Cu 0.26451 0.26624 0.79763
 Cu238 Cu 0.23240 0.23391 0.70374
 C239 C 0.24121 0.31311 0.70420
 C240 C 0.25320 0.18631 0.79610
 C241 C 0.31228 0.24555 0.70522
 C242 C 0.18531 0.25722 0.79697
 O243 O 0.72559 0.78705 0.82786
 O244 O 0.74147 0.69301 0.75919
 O245 O 0.78046 0.73775 0.82874
 O246 O 0.68603 0.74144 0.75751
 O247 O 0.71239 0.77000 0.68057
 O248 O 0.80684 0.76574 0.75133
 O249 O 0.76715 0.72170 0.68178
 O250 O 0.75157 0.81541 0.75048
 Cu251 Cu 0.73064 0.73713 0.80117
 Cu252 Cu 0.76212 0.77134 0.70851
 C253 C 0.73616 0.81723 0.80092
 C254 C 0.75685 0.69144 0.70868
 C255 C 0.80976 0.75064 0.80181
 C256 C 0.68330 0.75571 0.70641
 N257 N 0.25274 0.11338 0.19968
 N258 N 0.25643 0.08616 0.15984
 C259 C 0.26751 0.10220 0.10841
 C260 C 0.27140 0.14138 0.11649
 C261 C 0.26145 0.14722 0.17454
 H262 H 0.27856 0.16306 0.08423
 H263 H 0.24317 0.10883 0.24265
 H264 H 0.24940 0.05745 0.16741
 N265 N 0.75420 0.62016 0.70519
 N266 N 0.75768 0.59310 0.66501
 C267 C 0.76757 0.60944 0.61327
 C268 C 0.77098 0.64869 0.62156
 C269 C 0.76191 0.65423 0.68005
 H270 H 0.77702 0.67059 0.58915
 H271 H 0.74528 0.61533 0.74842
 H272 H 0.75122 0.56427 0.67264
 N273 N 0.75862 0.89364 0.20430
 N274 N 0.75613 0.92225 0.16183
 C275 C 0.74568 0.90558 0.11033
 C276 C 0.74098 0.86637 0.11969
 C277 C 0.74925 0.86025 0.17833
 H278 H 0.73234 0.84450 0.08852
 H279 H 0.76661 0.89799 0.24808
 H280 H 0.76262 0.95096 0.17024
 N281 N 0.24638 0.38433 0.70116
 N282 N 0.24265 0.41157 0.66143
 C283 C 0.23135 0.39554 0.61005
 C284 C 0.22735 0.35638 0.61799
 C285 C 0.23745 0.35051 0.67596
 H286 H 0.21992 0.33476 0.58569
 H287 H 0.25603 0.38887 0.74411
 H288 H 0.24969 0.44029 0.66905
 N289 N 0.88192 0.26498 0.19931
 N290 N 0.91139 0.26906 0.15837
 C291 C 0.89552 0.27531 0.10499
 C292 C 0.85582 0.27605 0.11169
 C293 C 0.84870 0.26920 0.17065
 H294 H 0.83421 0.27980 0.07831
 H295 H 0.88561 0.25882 0.24385
 H296 H 0.94006 0.26464 0.16848
 N297 N 0.38350 0.75469 0.69876
 N298 N 0.41095 0.75862 0.65914
 C299 C 0.39532 0.76922 0.60748
 C300 C 0.35616 0.77250 0.61512
 C301 C 0.34991 0.76277 0.67326
 H302 H 0.33478 0.77930 0.58259
 H303 H 0.38773 0.74550 0.74191
 H304 H 0.43953 0.75222 0.66711
 N305 N 0.11404 0.73475 0.20077
 N306 N 0.08496 0.73095 0.15908
 C307 C 0.10137 0.72659 0.10558
 C308 C 0.14101 0.72666 0.11293
 C309 C 0.14754 0.73221 0.17237
 H310 H 0.16295 0.72471 0.07964
 H311 H 0.10992 0.74004 0.24550
 H312 H 0.05612 0.73454 0.16895
 N313 N 0.61567 0.24221 0.70120
 N314 N 0.58797 0.23908 0.66182
 C315 C 0.60344 0.23120 0.60884
 C316 C 0.64281 0.22872 0.61546
 C317 C 0.64931 0.23626 0.67434
 H318 H 0.66417 0.22439 0.58185
 H319 H 0.61157 0.24980 0.74515
 H320 H 0.55933 0.24449 0.67096
 N321 N 0.75778 0.11990 0.79598
 N322 N 0.75546 0.09120 0.83847
 C323 C 0.74508 0.10745 0.89001
 C324 C 0.74022 0.14645 0.88064
 C325 C 0.74834 0.15290 0.82197
 H326 H 0.73162 0.16797 0.91186
 H327 H 0.76576 0.11590 0.75219
 H328 H 0.76209 0.06278 0.83009
 N329 N 0.24615 0.61311 0.29705
 N330 N 0.24250 0.58580 0.33690
 C331 C 0.23135 0.60149 0.38829
 C332 C 0.22740 0.64049 0.38022
 C333 C 0.23732 0.64664 0.32215
 H334 H 0.22004 0.66189 0.41247
 H335 H 0.25565 0.60886 0.25404
 H336 H 0.24946 0.55733 0.32932
 N337 N 0.25932 0.88499 0.79408
 N338 N 0.26346 0.91389 0.83607
 C339 C 0.26839 0.89720 0.88917
 C340 C 0.26837 0.85768 0.88137
 C341 C 0.26232 0.85140 0.82205
 H342 H 0.27111 0.83565 0.91430
 H343 H 0.25380 0.88927 0.74947
 H344 H 0.25983 0.94280 0.82682
 N345 N 0.75516 0.39354 0.29531
 N346 N 0.75837 0.42066 0.33565
 C347 C 0.76792 0.40463 0.38750
 C348 C 0.77139 0.36552 0.37911
 C349 C 0.76272 0.35972 0.32043
 H350 H 0.77723 0.34381 0.41155
 H351 H 0.74652 0.39810 0.25195
 H352 H 0.75197 0.44925 0.32801
 N353 N 0.11404 0.25263 0.79930
 N354 N 0.08664 0.25642 0.83880
 C355 C 0.10256 0.26717 0.89051
 C356 C 0.14180 0.27076 0.88307
 C357 C 0.14784 0.26100 0.82500
 H358 H 0.16332 0.27776 0.91574
 H359 H 0.10961 0.24338 0.75611
 H360 H 0.05786 0.24981 0.83081
 N361 N 0.61626 0.76666 0.29819
 N362 N 0.58837 0.76890 0.33721
 C363 C 0.60362 0.77731 0.39037
 C364 C 0.64304 0.78110 0.38424
 C365 C 0.64980 0.77374 0.32548
 H366 H 0.66427 0.78616 0.41811
 H367 H 0.61234 0.75891 0.25420
 H368 H 0.55974 0.76254 0.32772
 N369 N 0.88087 0.75755 0.80351
 N370 N 0.90881 0.75361 0.84207
 C371 C 0.89371 0.74170 0.89368
 C372 C 0.85437 0.73761 0.88718
 C373 C 0.84748 0.74816 0.82968
 H374 H 0.83339 0.72934 0.91997
 H375 H 0.88469 0.76728 0.76047
 H376 H 0.93742 0.76063 0.83347
 N377 N 0.38390 0.24667 0.29930
 N378 N 0.41135 0.24356 0.33888
 C379 C 0.39567 0.23251 0.39056
 C380 C 0.35647 0.22802 0.38296
 C381 C 0.35025 0.23757 0.32484
 H382 H 0.33504 0.22062 0.41552
 H383 H 0.38816 0.25603 0.25617
 H384 H 0.43997 0.25086 0.33090
 N385 N 0.73786 0.88847 0.80175
 N386 N 0.73526 0.91630 0.84082
 C387 C 0.72722 0.90101 0.89402
 C388 C 0.72412 0.86147 0.88780
 C389 C 0.73141 0.85481 0.82888
 H390 H 0.71945 0.84017 0.92161
 H391 H 0.74532 0.89255 0.75771
 H392 H 0.74107 0.94500 0.83125
 N393 N 0.25685 0.38146 0.30034
 N394 N 0.25531 0.40900 0.34006
 C395 C 0.24138 0.39424 0.39075
 C396 C 0.23350 0.35552 0.38229
 C397 C 0.24383 0.34865 0.32463
 H398 H 0.22260 0.33487 0.41376
 H399 H 0.26759 0.38504 0.25781
 H400 H 0.26491 0.43698 0.33246
 N401 N 0.24653 0.11541 0.79662
 N402 N 0.24825 0.08616 0.83808
 C403 C 0.25650 0.10211 0.89099
 C404 C 0.26067 0.14165 0.88345
 C405 C 0.25420 0.14859 0.82439
 H406 H 0.26736 0.16319 0.91619
 H407 H 0.23982 0.11162 0.75222
 H408 H 0.24276 0.05751 0.82791
 N409 N 0.73744 0.62567 0.30477
 N410 N 0.73879 0.59787 0.34400
 C411 C 0.75391 0.61197 0.39440
 C412 C 0.76274 0.65051 0.38629
 C413 C 0.75177 0.65799 0.32912
 H414 H 0.77494 0.67061 0.41759
 H415 H 0.72617 0.62258 0.26246
 H416 H 0.72843 0.57014 0.33630
 N417 N 0.11459 0.75105 0.79596
 N418 N 0.08553 0.74922 0.83791
 C419 C 0.10144 0.74061 0.89047
 C420 C 0.14077 0.73628 0.88209
 C421 C 0.14764 0.74312 0.82302
 H422 H 0.16235 0.72958 0.91429
 H423 H 0.11082 0.75813 0.75177
 H424 H 0.05701 0.75459 0.82817
 N425 N 0.61469 0.26940 0.30142
 N426 N 0.58766 0.26679 0.34196
 C427 C 0.60245 0.25087 0.39084
 C428 C 0.64058 0.24288 0.38037
 C429 C 0.64714 0.25511 0.32344
 H430 H 0.66103 0.23034 0.41001
 H431 H 0.61101 0.28149 0.25989
 H432 H 0.56000 0.27680 0.33614
 N433 N 0.88489 0.26175 0.79332
 N434 N 0.91364 0.26294 0.83583
 C435 C 0.89708 0.26851 0.88897
 C436 C 0.85766 0.27169 0.88043
 C437 C 0.85141 0.26712 0.82069
 H438 H 0.83558 0.27559 0.91301
 H439 H 0.88914 0.25641 0.74864
 H440 H 0.94245 0.25943 0.82587
 N441 N 0.38238 0.74403 0.29718
 N442 N 0.40983 0.74621 0.33709
 C443 C 0.39508 0.75955 0.38785
 C444 C 0.35645 0.76642 0.37918
 C445 C 0.34961 0.75607 0.32138
 H446 H 0.33578 0.77658 0.41064
 H447 H 0.38597 0.73349 0.25459
 H448 H 0.43774 0.73738 0.32958
 N449 N 0.23970 0.88093 0.19620
 N450 N 0.24131 0.90854 0.15659
 C451 C 0.25597 0.89452 0.10620
 C452 C 0.26428 0.85621 0.11481
 C453 C 0.25340 0.84879 0.17217
 H454 H 0.27579 0.83609 0.08364
 H455 H 0.22845 0.88397 0.23845
 H456 H 0.23125 0.93601 0.16405
 N457 N 0.73713 0.38726 0.69609
 N458 N 0.73851 0.41508 0.65679
 C459 C 0.75358 0.40151 0.60640
 C460 C 0.76234 0.36331 0.61461
 C461 C 0.75141 0.35546 0.67182
 H462 H 0.77450 0.34363 0.58334
 H463 H 0.72588 0.38998 0.73840
 H464 H 0.72820 0.44244 0.66446
 N465 N 0.73907 0.12457 0.19860
 N466 N 0.73626 0.09659 0.15964
 C467 C 0.72791 0.11149 0.10650
 C468 C 0.72484 0.15092 0.11265
 C469 C 0.73246 0.15795 0.17145
 H470 H 0.71996 0.17199 0.07885
 H471 H 0.74676 0.12084 0.24257
 H472 H 0.74211 0.06812 0.16923
 N473 N 0.25554 0.61652 0.69853
 N474 N 0.25420 0.58895 0.65875
 C475 C 0.24060 0.60320 0.60786
 C476 C 0.23271 0.64162 0.61626
 C477 C 0.24270 0.64885 0.67409
 H478 H 0.22208 0.66189 0.58462
 H479 H 0.26607 0.61333 0.74119
 H480 H 0.26375 0.56133 0.66648
 N481 N 0.88552 0.76205 0.20447
 N482 N 0.91254 0.76063 0.16388
 C483 C 0.89688 0.74770 0.11313
 C484 C 0.85823 0.74021 0.12251
 C485 C 0.85221 0.74985 0.18066
 H486 H 0.83696 0.73029 0.09116
 H487 H 0.88975 0.77236 0.24715
 H488 H 0.94076 0.76979 0.17085
 N489 N 0.38265 0.25820 0.70054
 N490 N 0.41015 0.25683 0.66075
 C491 C 0.39537 0.24289 0.61001
 C492 C 0.35669 0.23480 0.61855
 C493 C 0.34984 0.24505 0.67625
 H494 H 0.33601 0.22385 0.58709
 H495 H 0.38626 0.26893 0.74311
 H496 H 0.43812 0.26655 0.66833
 N497 N 0.11513 0.23938 0.19952
 N498 N 0.08759 0.24138 0.15982
 C499 C 0.10248 0.25554 0.10939
 C500 C 0.14124 0.26315 0.11802
 C501 C 0.14806 0.25239 0.17545
 H502 H 0.16196 0.27427 0.08679
 H503 H 0.11145 0.22846 0.24190
 H504 H 0.05949 0.23201 0.16719
 N505 N 0.61372 0.73935 0.69766
 N506 N 0.58679 0.74105 0.65697
 C507 C 0.60175 0.75752 0.60821
 C508 C 0.63989 0.76684 0.61892
 C509 C 0.64628 0.75479 0.67586
 H510 H 0.66045 0.78013 0.58944
 H511 H 0.60990 0.72710 0.73916
 H512 H 0.55907 0.73007 0.66259
   
