data_POSCAR
  _audit_creation_date              2014-09-24
  _audit_creation_method            'ToBaCCo'
  _symmetry_space_group_name_H-M    'P1'
  _symmetry_Int_Tables_number       1
  _symmetry_cell_setting            triclinic
  loop_
  _symmetry_equiv_pos_as_xyz
 x,y,z
_cell_length_a 27.2491
_cell_length_b 17.7312
_cell_length_c 33.2177
_cell_angle_alpha 89.146600
_cell_angle_beta 90.488200
_cell_angle_gamma 114.132100
loop_
  _atom_site_label
  _atom_site_type_symbol
  _atom_site_fract_x
  _atom_site_fract_y
  _atom_site_fract_z
C1 C -0.02785 0.51652 1.25918
 C2 C 0.02583 0.53669 1.26073
 C3 C 0.05460 0.53577 1.29890
 C4 C 0.05797 0.55831 1.22350
 C5 C -0.05790 0.49780 1.22033
 C6 C -0.05902 0.50893 1.29633
 C7 C 0.10407 0.60134 1.30773
 C8 C 0.13547 0.59500 1.34006
 C9 C 0.11776 0.52309 1.36395
 C10 C 0.06732 0.45929 1.35650
 C11 C 0.03601 0.46537 1.32413
 C12 C 0.06298 0.62884 1.20129
 C13 C 0.09309 0.64951 1.16602
 C14 C 0.11764 0.59932 1.15221
 C15 C 0.11270 0.52851 1.17434
 C16 C 0.08340 0.50863 1.21017
 C17 C -0.05689 0.43507 1.19532
 C18 C -0.08631 0.41621 1.15930
 C19 C -0.11723 0.45987 1.14788
 C20 C -0.11825 0.52221 1.17285
 C21 C -0.08917 0.54072 1.20894
 C22 C -0.10236 0.43414 1.30526
 C23 C -0.12963 0.42395 1.34152
 C24 C -0.11458 0.48902 1.36919
 C25 C -0.07283 0.56511 1.35950
 C26 C -0.04476 0.57491 1.32335
 H27 H 0.11940 0.65594 1.28855
 H28 H 0.17490 0.64409 1.34493
 H29 H 0.05373 0.40246 1.37408
 H30 H -0.00120 0.41306 1.31738
 H31 H 0.04381 0.66794 1.21146
 H32 H 0.09714 0.70456 1.14922
 H33 H 0.07985 0.45408 1.22721
 H34 H -0.03385 0.40007 1.20397
 H35 H -0.08511 0.36752 1.14060
 H36 H -0.14212 0.55606 1.16445
 H37 H -0.09081 0.58880 1.22789
 H38 H -0.11401 0.38286 1.28468
 H39 H -0.16253 0.36503 1.34800
 H40 H -0.06126 0.61593 1.38032
 H41 H -0.01165 0.63344 1.31655
 H42 H 0.13201 0.48959 1.16427
 C43 C 0.53588 0.51711 1.24184
 C44 C 0.49936 0.55096 1.24054
 C45 C 0.47497 0.56415 1.27787
 C46 C 0.47848 0.56838 1.20168
 C47 C 0.55431 0.49233 1.20483
 C48 C 0.55355 0.49253 1.28020
 C49 C 0.44371 0.49650 1.30224
 C50 C 0.42213 0.50894 1.33811
 C51 C 0.43076 0.58877 1.34989
 C52 C 0.46103 0.65669 1.32513
 C53 C 0.48294 0.64425 1.28919
 C54 C 0.42391 0.52529 1.19202
 C55 C 0.40380 0.53926 1.15513
 C56 C 0.43794 0.59747 1.12742
 C57 C 0.49240 0.64083 1.13717
 C58 C 0.51268 0.62615 1.17395
 C59 C 0.60750 0.53515 1.19194
 C60 C 0.62549 0.50977 1.15760
 C61 C 0.59048 0.44037 1.13641
 C62 C 0.53750 0.39752 1.14954
 C63 C 0.51930 0.42358 1.18346
 C64 C 0.58949 0.55164 1.30609
 C65 C 0.60661 0.52649 1.34178
 C66 C 0.58699 0.44203 1.35207
 C67 C 0.55053 0.38364 1.32646
 C68 C 0.53451 0.40841 1.29050
 H69 H 0.43615 0.43414 1.29345
 H70 H 0.39833 0.45620 1.35677
 H71 H 0.46778 0.71891 1.33356
 H72 H 0.50662 0.69695 1.27045
 H73 H 0.39697 0.48024 1.21297
 H74 H 0.36144 0.50565 1.14861
 H75 H 0.55487 0.66022 1.18096
 H76 H 0.63491 0.58795 1.20850
 H77 H 0.66677 0.54320 1.14810
 H78 H 0.51044 0.34356 1.13355
 H79 H 0.47827 0.38955 1.19348
 H80 H 0.60458 0.61679 1.29842
 H81 H 0.63465 0.57263 1.36134
 H82 H 0.53511 0.31857 1.33421
 H83 H 0.50668 0.36202 1.27089
 H84 H 0.51904 0.68653 1.11636
 C85 C 0.49058 1.07705 1.24958
 C86 C 0.43629 1.04198 1.25542
 C87 C 0.41130 1.01452 1.29586
 C88 C 0.39937 1.01496 1.22059
 C89 C 0.51514 1.08689 1.20862
 C90 C 0.52822 1.09490 1.28407
 C91 C 0.42056 0.95367 1.31844
 C92 C 0.39009 0.91833 1.35305
 C93 C 0.35021 0.94363 1.36552
 C94 C 0.34227 1.00621 1.34387
 C95 C 0.37235 1.04108 1.30923
 C96 C 0.36871 0.93013 1.21577
 C97 C 0.34412 0.90048 1.17907
 C98 C 0.34891 0.95530 1.14705
 C99 C 0.37472 1.04062 1.15294
 C100 C 0.40024 1.07059 1.18969
 C101 C 0.55345 1.16428 1.19560
 C102 C 0.58264 1.17149 1.16006
 C103 C 0.57403 1.10136 1.13713
 C104 C 0.53464 1.02462 1.14930
 C105 C 0.50562 1.01729 1.18480
 C106 C 0.52505 1.14230 1.31671
 C107 C 0.55791 1.15164 1.35050
 C108 C 0.59422 1.11412 1.35156
 C109 C 0.59878 1.06946 1.31861
 C110 C 0.56608 1.05998 1.28502
 H111 H 0.44940 0.93065 1.30814
 H112 H 0.39601 0.86893 1.36899
 H113 H 0.31099 1.02539 1.35275
 H114 H 0.36395 1.08681 1.29199
 H115 H 0.36755 0.88631 1.23921
 H116 H 0.32392 0.83439 1.17474
 H117 H 0.42354 1.13635 1.19313
 H118 H 0.56209 1.21851 1.21375
 H119 H 0.61367 1.23097 1.15151
 H120 H 0.52843 0.96955 1.13248
 H121 H 0.47771 0.95655 1.19476
 H122 H 0.49633 1.17016 1.31632
 H123 H 0.55438 1.18660 1.37595
 H124 H 0.62685 1.04036 1.31932
 H125 H 0.56907 1.02290 1.26032
 H126 H 0.37860 1.08327 1.12827
 C127 C 1.04571 0.46269 0.74633
 C128 C 0.99102 0.43473 0.74611
 C129 C 0.95932 0.42088 0.70852
 C130 C 0.95864 0.41385 0.78376
 C131 C 1.07596 0.48309 0.78484
 C132 C 1.07808 0.47395 0.70891
 C133 C 0.92826 0.46631 0.70149
 C134 C 0.89514 0.45110 0.66765
 C135 C 0.89221 0.38945 0.64051
 C136 C 0.92343 0.34430 0.64740
 C137 C 0.95681 0.35971 0.68128
 C138 C 0.96135 0.47468 0.81139
 C139 C 0.92847 0.45316 0.84568
 C140 C 0.89245 0.37042 0.85268
 C141 C 0.89029 0.31006 0.82523
 C142 C 0.92277 0.33152 0.79098
 C143 C 1.06595 0.42379 0.81581
 C144 C 1.08645 0.44834 0.85446
 C145 C 1.11809 0.53178 0.86206
 C146 C 1.13228 0.58949 0.83034
 C147 C 1.11146 0.56524 0.79183
 C148 C 1.11496 0.43730 0.70727
 C149 C 1.14381 0.44184 0.67217
 C150 C 1.13659 0.48323 0.63797
 C151 C 1.10150 0.52294 0.63959
 C152 C 1.07287 0.51927 0.67511
 H153 H 0.92946 0.51324 0.72247
 H154 H 0.87128 0.48660 0.66306
 H155 H 0.92130 0.29639 0.62674
 H156 H 0.97991 0.32326 0.68663
 H157 H 0.98836 0.53866 0.80613
 H158 H 0.93084 0.50105 0.86641
 H159 H 0.91992 0.28379 0.76994
 H160 H 1.03945 0.35975 0.81070
 H161 H 1.07473 0.40335 0.87889
 H162 H 1.15619 0.65434 0.83603
 H163 H 1.11996 0.61160 0.76820
 H164 H 1.12015 0.40267 0.73287
 H165 H 1.17049 0.41035 0.67119
 H166 H 1.09537 0.55494 0.61330
 H167 H 1.04601 0.55037 0.67592
 H168 H 0.86270 0.24626 0.83013
 C169 C 0.50164 0.56111 0.75022
 C170 C 0.54241 0.53582 0.75238
 C171 C 0.56706 0.52187 0.71503
 C172 C 0.55999 0.51270 0.79125
 C173 C 0.47730 0.58032 0.78636
 C174 C 0.47780 0.56668 0.71094
 C175 C 0.55275 0.44127 0.70126
 C176 C 0.57326 0.42773 0.66490
 C177 C 0.60917 0.49471 0.64197
 C178 C 0.62417 0.57519 0.65617
 C179 C 0.60285 0.58883 0.69224
 C180 C 0.52250 0.45408 0.81699
 C181 C 0.53943 0.42922 0.85264
 C182 C 0.59397 0.46190 0.86302
 C183 C 0.63163 0.52071 0.83738
 C184 C 0.61470 0.54555 0.80164
 C185 C 0.50863 0.64332 0.81254
 C186 C 0.48496 0.66306 0.84569
 C187 C 0.42995 0.61962 0.85349
 C188 C 0.39850 0.55646 0.82738
 C189 C 0.42196 0.53757 0.79386
 C190 C 0.49161 0.64343 0.69170
 C191 C 0.46908 0.64791 0.65430
 C192 C 0.43178 0.57568 0.63632
 C193 C 0.41838 0.49922 0.65559
 C194 C 0.44155 0.49454 0.69259
 H195 H 0.52496 0.38898 0.71836
 H196 H 0.56143 0.36486 0.65494
 H197 H 0.65201 0.62739 0.63907
 H198 H 0.61413 0.65148 0.70241
 H199 H 0.48025 0.42626 0.80906
 H200 H 0.51011 0.38323 0.87188
 H201 H 0.64428 0.59017 0.78200
 H202 H 0.55119 0.67779 0.80699
 H203 H 0.50959 0.71205 0.86554
 H204 H 0.35586 0.52248 0.83264
 H205 H 0.39699 0.48901 0.77394
 H206 H 0.51982 0.69945 0.70559
 H207 H 0.47994 0.70763 0.63983
 H208 H 0.38949 0.44334 0.64206
 H209 H 0.43083 0.43491 0.70721
 H210 H 0.67410 0.54641 0.84459
 C211 C 0.46818 -0.10767 0.75517
 C212 C 0.52284 -0.07488 0.75146
 C213 C 0.54853 -0.04437 0.71206
 C214 C 0.55868 -0.04362 0.78726
 C215 C 0.44386 -0.10643 0.79456
 C216 C 0.43082 -0.12622 0.71960
 C217 C 0.59293 -0.05932 0.69979
 C218 C 0.62223 -0.01898 0.66562
 C219 C 0.60686 0.03565 0.64348
 C220 C 0.56223 0.04983 0.65581
 C221 C 0.53407 0.01147 0.69005
 C222 C 0.55776 -0.09536 0.82005
 C223 C 0.58669 -0.06162 0.85540
 C224 C 0.61588 0.02416 0.85849
 C225 C 0.61881 0.07496 0.82500
 C226 C 0.59093 0.04147 0.78976
 C227 C 0.45245 -0.03010 0.81183
 C228 C 0.42355 -0.02718 0.84569
 C229 C 0.38575 -0.10039 0.86231
 C230 C 0.37817 -0.17684 0.84603
 C231 C 0.40698 -0.17990 0.81202
 C232 C 0.39229 -0.09222 0.71767
 C233 C 0.35854 -0.10484 0.68431
 C234 C 0.36215 -0.15191 0.65204
 C235 C 0.39990 -0.18712 0.65355
 C236 C 0.43412 -0.17422 0.68716
 H237 H 0.60568 -0.10016 0.71730
 H238 H 0.65704 -0.02944 0.65670
 H239 H 0.55045 0.09361 0.63993
 H240 H 0.50227 0.02818 0.70029
 H241 H 0.53325 -0.16107 0.81868
 H242 H 0.58390 -0.10164 0.88101
 H243 H 0.59225 0.08296 0.76513
 H244 H 0.47971 0.02725 0.79794
 H245 H 0.42924 0.03207 0.85801
 H246 H 0.34871 -0.23372 0.85886
 H247 H 0.39951 -0.23897 0.79866
 H248 H 0.38884 -0.05415 0.74170
 H249 H 0.32935 -0.07780 0.68368
 H250 H 0.40279 -0.22448 0.62894
 H251 H 0.46325 -0.20121 0.68792
 H252 H 0.64140 0.14124 0.82667
 O253 O 0.36324 0.69651 0.94648
 O254 O 0.35426 0.83204 0.96560
 C255 C 0.31472 0.84481 0.95100
 O256 O 0.26682 0.80840 0.96337
 O257 O 0.18386 0.67073 0.98109
 C258 C 0.17612 0.61218 0.95704
 O259 O 0.20709 0.57496 0.95517
 O260 O 0.30153 0.56779 0.95559
 C261 C 0.34069 0.62152 0.93627
 O262 O 0.37639 0.66457 1.02477
 O263 O 0.36558 0.79603 1.04454
 C264 C 0.33785 0.83208 1.05781
 O265 O 0.29548 0.82876 1.04062
 O266 O 0.21763 0.68659 1.05716
 C267 C 0.19657 0.60887 1.06197
 O268 O 0.20219 0.55919 1.03695
 O269 O 0.29757 0.55934 1.03740
 C270 C 0.34700 0.60052 1.04486
 Cr271 Cr 0.36207 0.74554 0.99538
 Cr272 Cr 0.24260 0.74627 1.01006
 Cr273 Cr 0.25342 0.56954 0.99624
 O274 O 0.28617 0.68703 0.99988
 O275 O 0.63871 0.36604 0.96420
 O276 O 0.63103 0.21781 0.95309
 C277 C 0.65408 0.17306 0.94155
 O278 O 0.69529 0.17082 0.95899
 O279 O 0.78818 0.29595 0.95039
 C280 C 0.81561 0.37227 0.94388
 O281 O 0.81136 0.42800 0.96514
 O282 O 0.72430 0.45242 0.95292
 C283 C 0.67472 0.42403 0.94423
 O284 O 0.64007 0.33921 1.04465
 O285 O 0.62906 0.19004 1.03412
 C286 C 0.66054 0.16260 1.05114
 O287 O 0.70863 0.18263 1.04005
 O288 O 0.80298 0.30513 1.03215
 C289 C 0.81243 0.36930 1.05322
 O290 O 0.79316 0.42181 1.04494
 O291 O 0.71068 0.45741 1.03312
 C292 C 0.66879 0.41365 1.05275
 Cr293 Cr 0.63773 0.27967 0.99893
 Cr294 Cr 0.74754 0.24178 0.99551
 Cr295 Cr 0.75814 0.43518 0.99897
 O296 O 0.71435 0.31849 0.99783
 O297 O 0.67946 0.44660 0.53874
 O298 O 0.76849 0.43213 0.55472
 C299 C 0.79288 0.38740 0.56412
 O300 O 0.78739 0.32367 0.54476
 O301 O 0.69431 0.19750 0.55199
 C302 C 0.64331 0.16499 0.55255
 O303 O 0.61442 0.17989 0.52619
 O304 O 0.61018 0.32182 0.53815
 C305 C 0.63491 0.39344 0.55267
 O306 O 0.70434 0.45727 0.45854
 O307 O 0.79268 0.44017 0.47437
 C308 C 0.80116 0.38386 0.45575
 O309 O 0.77975 0.30775 0.46519
 O310 O 0.69191 0.17383 0.47256
 C311 C 0.65890 0.17368 0.44560
 O312 O 0.63301 0.21882 0.44718
 O313 O 0.62258 0.35577 0.45863
 C314 C 0.65768 0.42184 0.44394
 Cr315 Cr 0.73489 0.43964 0.50647
 Cr316 Cr 0.73698 0.25348 0.50846
 Cr317 Cr 0.62283 0.27110 0.49293
 O318 O 0.69829 0.32217 0.50275
 O319 O 0.34398 0.58231 0.53669
 O320 O 0.24142 0.50397 0.52299
 C321 C 0.21116 0.52348 0.54527
 O322 O 0.20789 0.59248 0.54227
 O323 O 0.25355 0.75321 0.53730
 C324 C 0.29722 0.78776 0.55707
 O325 O 0.34226 0.79220 0.54472
 O326 O 0.39996 0.71325 0.52464
 C327 C 0.38551 0.64652 0.54499
 O328 O 0.36268 0.60436 0.45677
 O329 O 0.25907 0.53478 0.44473
 C330 C 0.21467 0.53996 0.43831
 O331 O 0.19702 0.58264 0.45993
 O332 O 0.24377 0.74378 0.45603
 C333 C 0.28554 0.80783 0.44777
 O334 O 0.33040 0.82509 0.46532
 O335 O 0.38286 0.73789 0.44584
 C336 C 0.38421 0.67026 0.43583
 Cr337 Cr 0.30186 0.56047 0.49047
 Cr338 Cr 0.22815 0.66799 0.49868
 Cr339 Cr 0.36143 0.76357 0.49513
 O340 O 0.29682 0.66411 0.49445
 N341 N 0.40708 0.59810 0.38663
 N342 N 0.41077 0.66746 0.39945
 N343 N 0.31584 0.90259 0.39373
 N344 N 0.28038 0.86368 0.41822
 N345 N 0.15039 0.50930 0.38647
 N346 N 0.18300 0.49185 0.40600
 N347 N 0.60321 0.41297 0.38803
 N348 N 0.64418 0.45678 0.40878
 N349 N 0.62284 0.11771 0.38365
 N350 N 0.65051 0.11830 0.41313
 N351 N 0.85808 0.47753 0.40686
 N352 N 0.83431 0.40467 0.42101
 N353 N 0.60810 0.40993 1.10246
 N354 N 0.65315 0.44984 1.08545
 N355 N 0.85117 0.44186 1.11171
 N356 N 0.84596 0.38289 1.08818
 N357 N 0.60790 0.10459 1.10861
 N358 N 0.64143 0.10461 1.08385
 N359 N 0.41736 0.61769 1.09083
 N360 N 0.36953 0.57541 1.07880
 N361 N 0.14889 0.62394 1.11640
 N362 N 0.16385 0.57627 1.09658
 N363 N 0.33403 0.92322 1.10766
 N364 N 0.35421 0.87517 1.09458
 N365 N 0.63201 0.48169 0.60521
 N366 N 0.61164 0.41249 0.58743
 N367 N 0.63792 0.08075 0.60989
 N368 N 0.61574 0.11116 0.58453
 N369 N 0.85683 0.37000 0.60649
 N370 N 0.82845 0.40996 0.59786
 N371 N 0.40426 0.57877 0.59999
 N372 N 0.41695 0.64464 0.57911
 N373 N 0.32852 0.83496 0.62177
 N374 N 0.29468 0.82332 0.59491
 N375 N 0.15854 0.47640 0.60406
 N376 N 0.17872 0.46225 0.57358
 N377 N 0.40723 0.64150 0.88783
 N378 N 0.36108 0.59581 0.90198
 N379 N 0.12525 0.55830 0.89899
 N380 N 0.12860 0.58600 0.93310
 N381 N 0.35493 0.90237 0.89143
 N382 N 0.32442 0.90190 0.91851
 N383 N 0.61019 0.43125 0.89856
 N384 N 0.65903 0.45841 0.90991
 N385 N 0.85651 0.34607 0.88646
 N386 N 0.85291 0.39785 0.91111
 N387 N 0.63794 0.06091 0.89637
 N388 N 0.63279 0.12645 0.90604
   
