data_POSCAR
  _audit_creation_date              2014-09-24
  _audit_creation_method            'ToBaCCo'
  _symmetry_space_group_name_H-M    'P1'
  _symmetry_Int_Tables_number       1
  _symmetry_cell_setting            triclinic
  loop_
  _symmetry_equiv_pos_as_xyz
 x,y,z
_cell_length_a 45.6551
_cell_length_b 45.0893
_cell_length_c 44.6457
_cell_angle_alpha 90.247700
_cell_angle_beta 89.766500
_cell_angle_gamma 89.621700
loop_
  _atom_site_label
  _atom_site_type_symbol
  _atom_site_fract_x
  _atom_site_fract_y
  _atom_site_fract_z
Si1 Si 0.25113 0.49903 1.00017
 Si2 Si 0.74956 0.49957 0.00001
 Si3 Si -0.00130 0.24859 0.49918
 Si4 Si 1.00093 0.75314 0.50117
 Si5 Si 0.50160 0.00055 0.25084
 Si6 Si 0.49691 -0.00240 0.74892
 C7 C 0.29423 0.02248 0.46477
 H8 H 0.29401 0.03957 0.48187
 C9 C 0.31487 0.02341 0.44164
 H10 H 0.33055 0.04133 0.44080
 C11 C 0.27471 -0.02230 0.44548
 H12 H 0.25946 -0.04040 0.44741
 C13 C 0.29502 -0.02221 0.42196
 H14 H 0.29516 -0.04011 0.40570
 N15 N 0.27463 -0.00007 0.46622
 C16 C 0.20295 0.03421 0.52151
 H17 H 0.20230 0.01731 0.53863
 C18 C 0.18242 0.05728 0.52187
 H19 H 0.16594 0.05828 0.53938
 C20 C 0.22467 0.05312 0.47723
 H21 H 0.24077 0.05108 0.45954
 C22 C 0.20451 0.07658 0.47675
 H23 H 0.20531 0.09269 0.45884
 Zn24 Zn 0.24909 -0.00065 0.49972
 N25 N 0.22361 0.03261 0.49950
 C26 C 0.27077 0.02146 0.55530
 N27 N 0.27290 -0.00044 0.53429
 C28 C 0.29343 -0.02234 0.53644
 C29 C 0.31266 -0.02300 0.56064
 C30 C 0.28963 0.02163 0.57989
 C31 C 0.20578 -0.03739 0.47617
 C32 C 0.18630 -0.06112 0.47533
 C33 C 0.20706 -0.07909 0.52159
 C34 C 0.22618 -0.05501 0.52158
 N35 N 0.22526 -0.03482 0.49901
 H36 H 0.25481 0.03905 0.55284
 H37 H 0.29494 -0.03917 0.51915
 H38 H 0.32904 -0.04043 0.56207
 H39 H 0.28800 0.03923 0.59643
 H40 H 0.20516 -0.02072 0.45883
 H41 H 0.17067 -0.06284 0.45722
 H42 H 0.20767 -0.09488 0.53981
 H43 H 0.24125 -0.05220 0.53993
 C44 C 0.18316 0.07861 0.49924
 C45 C 0.31533 0.00080 0.42011
 C46 C 0.18688 -0.08208 0.49831
 C47 C 0.31078 -0.00079 0.58252
 C48 C 0.70570 0.02463 0.53872
 H49 H 0.70504 0.04154 0.52161
 C50 C 0.68590 0.02575 0.56262
 H51 H 0.66995 0.04360 0.56399
 C52 C 0.72658 -0.01993 0.55730
 H53 H 0.74200 -0.03804 0.55480
 C54 C 0.70713 -0.01965 0.58157
 H55 H 0.70779 -0.03744 0.59780
 N56 N 0.72556 0.00208 0.53654
 C57 C 0.79469 0.03611 0.47867
 H58 H 0.79498 0.01916 0.46144
 C59 C 0.81494 0.05917 0.47774
 H60 H 0.83082 0.06009 0.45968
 C61 C 0.77429 0.05513 0.52383
 H62 H 0.75886 0.05313 0.54210
 C63 C 0.79418 0.07856 0.52376
 H64 H 0.79382 0.09468 0.54182
 Zn65 Zn 0.74985 0.00122 0.50209
 N66 N 0.77483 0.03456 0.50141
 C67 C 0.72573 0.02298 0.44755
 N68 N 0.72478 0.00107 0.46842
 C69 C 0.70453 -0.02088 0.46690
 C70 C 0.68431 -0.02155 0.44353
 C71 C 0.70587 0.02315 0.42380
 C72 C 0.79455 -0.03485 0.52424
 C73 C 0.81443 -0.05849 0.52474
 C74 C 0.79245 -0.07757 0.47949
 C75 C 0.77293 -0.05355 0.47984
 N76 N 0.77427 -0.03286 0.50209
 H77 H 0.74149 0.04062 0.44953
 H78 H 0.70395 -0.03772 0.48408
 H79 H 0.66814 -0.03901 0.44261
 H80 H 0.70657 0.04078 0.40741
 H81 H 0.79546 -0.01781 0.54134
 H82 H 0.83068 -0.05974 0.54231
 H83 H 0.79150 -0.09378 0.46154
 H84 H 0.75715 -0.05121 0.46203
 C85 C 0.81474 0.08052 0.50055
 C86 C 0.68655 0.00334 0.58416
 C87 C 0.81344 -0.07998 0.50210
 C88 C 0.68494 0.00071 0.42184
 C89 C 0.48013 0.20496 1.03338
 H90 H 0.46354 0.20455 1.01615
 C91 C 0.47923 0.18446 1.05671
 H92 H 0.46184 0.16824 1.05756
 C93 C 0.52356 0.22604 1.05294
 H94 H 0.54111 0.24187 1.05107
 C95 C 0.52348 0.20590 1.07665
 H96 H 0.54082 0.20647 1.09313
 N97 N 0.50196 0.22531 1.03200
 C98 C 0.46707 0.29676 0.97679
 H99 H 0.48397 0.29781 0.95978
 C100 C 0.44370 0.31688 0.97636
 H101 H 0.44250 0.33345 0.95890
 C102 C 0.44839 0.27444 1.02088
 H103 H 0.45060 0.25828 1.03852
 C104 C 0.42465 0.29416 1.02127
 H105 H 0.40851 0.29296 1.03907
 Zn106 Zn 0.50235 0.25095 0.99853
 N107 N 0.46892 0.27598 0.99873
 C108 C 0.48136 0.22819 0.94301
 N109 N 0.50299 0.22665 0.96387
 C110 C 0.52502 0.20629 0.96155
 C111 C 0.52602 0.18653 0.93740
 C112 C 0.48153 0.20881 0.91849
 C113 C 0.53725 0.29578 1.02237
 C114 C 0.56038 0.31584 1.02362
 C115 C 0.57947 0.29481 0.97758
 C116 C 0.55597 0.27511 0.97718
 N117 N 0.53554 0.27585 0.99948
 H118 H 0.46366 0.24401 0.94561
 H119 H 0.54164 0.20521 0.97873
 H120 H 0.54347 0.17019 0.93591
 H121 H 0.46406 0.20990 0.90217
 H122 H 0.52042 0.29623 1.03949
 H123 H 0.56147 0.33176 1.04182
 H124 H 0.59552 0.29427 0.95964
 H125 H 0.55386 0.25964 0.95879
 C126 C 0.42234 0.31560 0.99883
 C127 C 0.50113 0.18491 1.07851
 C128 C 0.58162 0.31539 1.00098
 C129 C 0.50402 0.18775 0.91574
 C130 C 0.47598 0.79222 -0.03773
 H131 H 0.45943 0.79361 -0.02036
 C132 C 0.47494 0.81158 -0.06202
 H133 H 0.45751 0.82793 -0.06344
 C134 C 0.51943 0.76979 -0.05673
 H135 H 0.53704 0.75390 -0.05429
 C136 C 0.51921 0.78877 -0.08140
 H137 H 0.53654 0.78728 -0.09800
 N138 N 0.49789 0.77175 -0.03561
 C139 C 0.46310 0.70323 0.02302
 H140 H 0.47982 0.70284 0.04012
 C141 C 0.43996 0.68316 0.02418
 H142 H 0.43874 0.66730 0.04229
 C143 C 0.44475 0.72368 -0.02210
 H144 H 0.44704 0.73901 -0.04046
 C145 C 0.42126 0.70398 -0.02179
 H146 H 0.40539 0.70440 -0.03975
 Zn147 Zn 0.49838 0.74771 -0.00097
 N148 N 0.46502 0.72303 0.00018
 C149 C 0.47758 0.77314 0.05378
 N150 N 0.49904 0.77358 0.03252
 C151 C 0.52101 0.79380 0.03360
 C152 C 0.52220 0.81445 0.05694
 C153 C 0.47795 0.79344 0.07752
 C154 C 0.53328 0.70151 -0.02313
 C155 C 0.55658 0.68131 -0.02392
 C156 C 0.57594 0.70427 0.02077
 C157 C 0.55227 0.72408 0.02073
 N158 N 0.53164 0.72246 -0.00115
 H159 H 0.45993 0.75739 0.05216
 H160 H 0.53749 0.79397 0.01612
 H161 H 0.53970 0.83055 0.05754
 H162 H 0.46071 0.79311 0.09427
 H163 H 0.51631 0.70041 -0.03993
 H164 H 0.55765 0.66463 -0.04143
 H165 H 0.59219 0.70554 0.03833
 H166 H 0.55022 0.74038 0.03841
 C167 C 0.41893 0.68348 0.00150
 C168 C 0.49678 0.80987 -0.08401
 C169 C 0.57806 0.68269 -0.00175
 C170 C 0.50044 0.81430 0.07906
 C171 C 1.03486 0.47801 0.20364
 H172 H 1.01817 0.46111 0.20282
 C173 C 1.05830 0.47704 0.18348
 H174 H 1.05978 0.45928 0.16710
 C175 C 1.05294 0.52233 0.22540
 H176 H 1.05047 0.54026 0.24133
 C177 C 1.07674 0.52219 0.20561
 H178 H 1.09266 0.53988 0.20656
 N179 N 1.03269 0.50033 0.22417
 C180 C 0.97689 0.46553 0.29512
 H181 H 0.96013 0.48260 0.29588
 C182 C 0.97599 0.44202 0.31534
 H183 H 0.95844 0.44088 0.33170
 C184 C 1.02071 0.44653 0.27343
 H185 H 1.03840 0.44867 0.25748
 C186 C 1.02064 0.42264 0.29328
 H187 H 1.03814 0.40632 0.29237
 Zn188 Zn 0.99921 0.50084 0.24930
 N189 N 0.99891 0.46727 0.27459
 C190 C 0.94568 0.47915 0.22531
 N191 N 0.96605 0.50104 0.22403
 C192 C 0.96419 0.52310 0.20340
 C193 C 0.94094 0.52395 0.18321
 C194 C 0.92206 0.47917 0.20550
 C195 C 1.02094 0.53681 0.29501
 C196 C 1.02158 0.56060 0.31510
 C197 C 0.97718 0.57963 0.29276
 C198 C 0.97736 0.55547 0.27304
 N199 N 0.99916 0.53476 0.27440
 H200 H 0.94791 0.46142 0.24134
 H201 H 0.98096 0.53992 0.20255
 H202 H 0.93970 0.54152 0.16678
 H203 H 0.90603 0.46160 0.20651
 H204 H 1.03770 0.51976 0.29593
 H205 H 1.03893 0.56198 0.33152
 H206 H 0.95967 0.59593 0.29170
 H207 H 0.95986 0.55309 0.25704
 C208 C 0.99809 0.42042 0.31443
 C209 C 1.07939 0.49936 0.18445
 C210 C 0.99948 0.58217 0.31398
 C211 C 0.91972 0.50176 0.18426
 C212 C -0.03371 0.47867 0.79645
 H213 H -0.01688 0.46168 0.79689
 C214 C -0.05710 0.47758 0.81664
 H215 H -0.05838 0.45965 0.83266
 C216 C -0.05228 0.52325 0.77555
 H217 H -0.05004 0.54129 0.75991
 C218 C -0.07604 0.52299 0.79538
 H219 H -0.09217 0.54071 0.79477
 N220 N -0.03183 0.50115 0.77631
 C221 C 0.02337 0.46612 0.70431
 H222 H 0.04021 0.48288 0.70367
 C223 C 0.02399 0.44272 0.68372
 H224 H 0.04141 0.44134 0.66721
 C225 C -0.02039 0.44780 0.72605
 H226 H -0.03796 0.45017 0.74216
 C227 C -0.02060 0.42405 0.70585
 H228 H -0.03818 0.40805 0.70666
 Zn229 Zn 0.00146 0.50152 0.75091
 N230 N 0.00151 0.46814 0.72504
 C231 C 0.05518 0.47891 0.77415
 N232 N 0.03482 0.50106 0.77594
 C233 C 0.03678 0.52288 0.79698
 C234 C 0.06011 0.52320 0.81709
 C235 C 0.07888 0.47840 0.79386
 C236 C -0.02066 0.53820 0.70601
 C237 C -0.02143 0.56218 0.68635
 C238 C 0.02311 0.58042 0.70872
 C239 C 0.02306 0.55608 0.72800
 N240 N 0.00126 0.53568 0.72642
 H241 H 0.05287 0.46138 0.75779
 H242 H 0.02001 0.53991 0.79824
 H243 H 0.06142 0.54057 0.83386
 H244 H 0.09489 0.46060 0.79245
 H245 H -0.03742 0.52138 0.70490
 H246 H -0.03888 0.56393 0.67006
 H247 H 0.04064 0.59645 0.70993
 H248 H 0.04067 0.55333 0.74383
 C249 C 0.00178 0.42152 0.68449
 C250 C -0.07844 0.49995 0.81610
 C251 C 0.00068 0.58344 0.68769
 C252 C 0.08132 0.50072 0.81553
 C253 C 0.07530 0.20352 0.52082
 C254 C 0.07799 0.18285 0.49746
 C255 C 0.05724 0.18251 0.47445
 C256 C 0.03384 0.20264 0.47489
 C257 C 0.03106 0.22339 0.49824
 C258 C 0.05189 0.22368 0.52126
 C259 C 0.10142 0.16133 0.49760
 C260 C 0.12071 0.14295 0.49783
 C261 C 0.14288 0.12100 0.49822
 C262 C 0.16146 0.10189 0.49865
 H263 H 0.09109 0.20382 0.53887
 H264 H 0.05898 0.16649 0.45637
 H265 H 0.01775 0.20187 0.45715
 H266 H 0.04992 0.23904 0.53983
 C267 C 0.70395 0.57677 0.02158
 C268 C 0.68375 0.57902 -0.00184
 C269 C 0.68404 0.55790 -0.02492
 C270 C 0.70426 0.53452 -0.02446
 C271 C 0.72448 0.53214 -0.00102
 C272 C 0.72421 0.55337 0.02204
 C273 C 0.66203 0.60229 -0.00172
 C274 C 0.64340 0.62135 -0.00165
 C275 C 0.62111 0.64317 -0.00163
 C276 C 0.60169 0.66140 -0.00165
 H277 H 0.70376 0.59286 0.03968
 H278 H 0.66839 0.55930 -0.04305
 H279 H 0.70392 0.51810 -0.04224
 H280 H 0.73918 0.55170 0.04066
 C281 C 0.94867 -0.17110 0.50094
 C282 C 0.92020 -0.18236 0.50030
 C283 C 0.91589 -0.21307 0.49966
 C284 C 0.94001 -0.23240 0.49982
 C285 C 0.96862 -0.22119 0.50079
 C286 C 0.97273 -0.19037 0.50110
 C287 C 0.89567 -0.16215 0.50040
 C288 C 0.87581 -0.14440 0.50061
 C289 C 0.85334 -0.12275 0.50100
 C290 C 0.83480 -0.10359 0.50145
 H291 H 0.95228 -0.14737 0.50132
 H292 H 0.89395 -0.22206 0.49903
 H293 H 0.93634 -0.25610 0.49912
 H294 H 0.99443 -0.18096 0.50145
 C295 C 0.29656 0.42196 0.97767
 C296 C 0.31667 0.41931 1.00112
 C297 C 0.31634 0.44007 1.02453
 C298 C 0.29618 0.46352 1.02435
 C299 C 0.27607 0.46632 1.00087
 C300 C 0.27636 0.44543 0.97749
 C301 C 0.33837 0.39602 1.00067
 C302 C 0.35699 0.37694 1.00027
 C303 C 0.37928 0.35510 0.99979
 C304 C 0.39870 0.33687 0.99936
 H305 H 0.29678 0.40617 0.95931
 H306 H 0.33192 0.43836 1.04269
 H307 H 0.29650 0.47967 1.04237
 H308 H 0.26147 0.44744 0.95883
 C309 C 0.92207 0.20431 0.47772
 C310 C 0.91937 0.18398 0.50118
 C311 C 0.94005 0.18374 0.52425
 C312 C 0.96344 0.20357 0.52374
 C313 C 0.96626 0.22394 0.50028
 C314 C 0.94547 0.22417 0.47722
 C315 C 0.89600 0.16270 0.50110
 C316 C 0.87680 0.14447 0.50099
 C317 C 0.85474 0.12268 0.50082
 C318 C 0.83629 0.10368 0.50068
 H319 H 0.90633 0.20453 0.45963
 H320 H 0.93830 0.16798 0.54242
 H321 H 0.97950 0.20284 0.54152
 H322 H 0.94747 0.23924 0.45856
 C323 C 0.29494 0.57621 0.02319
 C324 C 0.31539 0.57897 -0.00009
 C325 C 0.31581 0.55822 -0.02351
 C326 C 0.29605 0.53470 -0.02353
 C327 C 0.27558 0.53180 -0.00024
 C328 C 0.27514 0.55267 0.02316
 C329 C 0.33663 0.60241 0.00051
 C330 C 0.35486 0.62162 0.00094
 C331 C 0.37669 0.64363 0.00132
 C332 C 0.39573 0.66202 0.00150
 H333 H 0.29458 0.59201 0.04155
 H334 H 0.33165 0.56002 -0.04153
 H335 H 0.29693 0.51856 -0.04157
 H336 H 0.25998 0.55059 0.04168
 C337 C 0.06717 -0.19044 0.52737
 C338 C 0.08340 -0.18651 0.50102
 C339 C 0.07566 -0.20193 0.47496
 C340 C 0.05146 -0.22078 0.47510
 C341 C 0.03485 -0.22432 0.50132
 C342 C 0.04299 -0.20928 0.52752
 C343 C 0.10694 -0.16546 0.50034
 C344 C 0.12608 -0.14719 0.49977
 C345 C 0.14785 -0.12513 0.49914
 C346 C 0.16593 -0.10577 0.49869
 H347 H 0.07286 -0.17850 0.54762
 H348 H 0.08794 -0.19890 0.45440
 H349 H 0.04536 -0.23190 0.45454
 H350 H 0.03025 -0.21161 0.54788
 C351 C 0.70589 0.42190 0.97849
 C352 C 0.68554 0.41948 1.00190
 C353 C 0.68518 0.44060 1.02498
 C354 C 0.70489 0.46416 1.02451
 C355 C 0.72524 0.46673 1.00108
 C356 C 0.72563 0.44548 0.97803
 C357 C 0.66428 0.39607 1.00173
 C358 C 0.64599 0.37691 1.00159
 C359 C 0.62407 0.35500 1.00141
 C360 C 0.60494 0.33671 1.00124
 H361 H 0.70619 0.40582 0.96038
 H362 H 0.66941 0.43907 1.04310
 H363 H 0.70405 0.48058 1.04228
 H364 H 0.74072 0.44730 0.95941
 C365 C 0.47792 0.05923 1.18422
 C366 C 0.50052 0.08005 1.18435
 C367 C 0.52330 0.07744 1.20512
 C368 C 0.52356 0.05400 1.22554
 C369 C 0.50094 0.03308 1.22543
 C370 C 0.47818 0.03580 1.20461
 C371 C 0.50076 0.10348 1.16255
 C372 C 0.50091 0.12271 1.14387
 C373 C 0.50104 0.14479 1.12156
 C374 C 0.50110 0.16328 1.10213
 H375 H 0.46028 0.06090 1.16814
 H376 H 0.54103 0.09330 1.20527
 H377 H 0.54166 0.05207 1.24097
 H378 H 0.46075 0.01963 1.20395
 C379 C -0.02339 0.70702 0.57784
 C380 C 0.00189 0.69060 0.58437
 C381 C 0.02720 0.69442 0.56707
 C382 C 0.02696 0.71389 0.54282
 C383 C 0.00134 0.72953 0.53538
 C384 C -0.02362 0.72654 0.55357
 C385 C 0.00158 0.66892 0.60793
 C386 C 0.00133 0.65013 0.62705
 C387 C 0.00108 0.62747 0.64876
 C388 C 0.00089 0.60764 0.66678
 H389 H -0.04306 0.70439 0.59120
 H390 H 0.04699 0.68204 0.57207
 H391 H 0.04682 0.71662 0.52987
 H392 H -0.04347 0.73878 0.54898
 C393 C 0.51893 0.91773 -0.21051
 C394 C 0.49531 0.91334 -0.19095
 C395 C 0.47168 0.93327 -0.19092
 C396 C 0.47202 0.95791 -0.20975
 C397 C 0.49611 0.96301 -0.22858
 C398 C 0.51927 0.94242 -0.22940
 C399 C 0.49589 0.88944 -0.16971
 C400 C 0.49627 0.87017 -0.15109
 C401 C 0.49657 0.84844 -0.12844
 C402 C 0.49672 0.83052 -0.10849
 H403 H 0.53731 0.90240 -0.21077
 H404 H 0.45328 0.93010 -0.17590
 H405 H 0.45383 0.97345 -0.20903
 H406 H 0.53783 0.94554 -0.24413
 C407 C 0.97469 0.31442 0.43995
 C408 C 0.99731 0.31410 0.41869
 C409 C 1.02010 0.29330 0.42103
 C410 C 1.02040 0.27307 0.44470
 C411 C 0.99781 0.27344 0.46611
 C412 C 0.97499 0.29424 0.46360
 C413 C 0.99762 0.33587 0.39521
 C414 C 0.99782 0.35459 0.37602
 C415 C 0.99797 0.37703 0.35409
 C416 C 0.99805 0.39660 0.33578
 H417 H 0.95705 0.33054 0.43848
 H418 H 1.03784 0.29302 0.40484
 H419 H 1.03853 0.25765 0.44648
 H420 H 0.95759 0.29508 0.48015
 C421 C 0.47964 0.92314 0.20570
 C422 C 0.50247 0.92007 0.18486
 C423 C 0.52527 0.94068 0.18455
 C424 C 0.52512 0.96438 0.20484
 C425 C 0.50227 0.96758 0.22571
 C426 C 0.47948 0.94685 0.22601
 C427 C 0.50203 0.89644 0.16308
 C428 C 0.50163 0.87703 0.14443
 C429 C 0.50116 0.85474 0.12214
 C430 C 0.50080 0.83609 0.10271
 H431 H 0.46176 0.90746 0.20597
 H432 H 0.54295 0.93865 0.16840
 H433 H 0.54267 0.98040 0.20403
 H434 H 0.46131 0.94915 0.24146
 C435 C 0.02326 0.31478 0.55796
 C436 C 0.00081 0.31507 0.57941
 C437 C -0.02210 0.29467 0.57727
 C438 C -0.02267 0.27420 0.55363
 C439 C -0.00022 0.27393 0.53207
 C440 C 0.02269 0.29437 0.53435
 C441 C 0.00088 0.33698 0.60295
 C442 C 0.00103 0.35578 0.62223
 C443 C 0.00128 0.37825 0.64433
 C444 C 0.00151 0.39780 0.66283
 H445 H 0.04099 0.33058 0.55927
 H446 H -0.03970 0.29485 0.59361
 H447 H -0.04086 0.25906 0.55204
 H448 H 0.03999 0.29471 0.51768
 C449 C 0.50076 0.08381 0.78146
 C450 C 0.50167 0.07987 0.81255
 C451 C 0.50162 0.05123 0.82445
 C452 C 0.50032 0.02661 0.80547
 C453 C 0.49880 0.03036 0.77433
 C454 C 0.49949 0.05910 0.76241
 C455 C 0.50250 0.10494 0.83258
 C456 C 0.50302 0.12511 0.85038
 C457 C 0.50348 0.14777 0.87226
 C458 C 0.50377 0.16638 0.89171
 H459 H 0.50095 0.10588 0.77199
 H460 H 0.50255 0.04791 0.84845
 H461 H 0.50063 0.00477 0.81532
 H462 H 0.49883 0.06240 0.73840
 C463 C 1.02304 0.68703 0.44026
 C464 C 1.00069 0.68855 0.41898
 C465 C 0.97888 0.71039 0.42161
 C466 C 0.97913 0.73025 0.44579
 C467 C 1.00104 0.72822 0.46769
 C468 C 1.02327 0.70682 0.46439
 C469 C 0.99986 0.66709 0.39505
 C470 C 0.99944 0.64846 0.37562
 C471 C 0.99923 0.62597 0.35355
 C472 C 0.99926 0.60625 0.33524
 H473 H 1.04015 0.67035 0.43835
 H474 H 0.96157 0.71190 0.40515
 H475 H 0.96214 0.74698 0.44724
 H476 H 1.04083 0.70523 0.48044
 C477 C 1.18537 0.52315 0.05938
 C478 C 1.18535 0.50013 0.08031
 C479 C 1.20583 0.47699 0.07771
 C480 C 1.22610 0.47676 0.05413
 C481 C 1.22609 0.49976 0.03307
 C482 C 1.20559 0.52292 0.03581
 C483 C 1.16360 0.49978 0.10372
 C484 C 1.14492 0.49957 0.12288
 C485 C 1.12257 0.49942 0.14479
 C486 C 1.10309 0.49935 0.16309
 H487 H 1.16950 0.54106 0.06104
 H488 H 1.20586 0.45893 0.09365
 H489 H 1.24130 0.45836 0.05216
 H490 H 1.20504 0.54064 0.01952
 C491 C 0.55053 0.00195 0.67385
 C492 C 0.57873 0.00161 0.68599
 C493 C 0.58234 0.00050 0.71711
 C494 C 0.55777 -0.00056 0.73594
 C495 C 0.52948 -0.00084 0.72377
 C496 C 0.52604 0.00086 0.69261
 C497 C 0.60368 0.00226 0.66620
 C498 C 0.62379 0.00266 0.64864
 C499 C 0.64646 0.00300 0.62706
 C500 C 0.66511 0.00320 0.60788
 H501 H 0.54746 0.00303 0.64982
 H502 H 0.60407 0.00040 0.72677
 H503 H 0.56083 -0.00137 0.75997
 H504 H 0.50455 0.00147 0.68258
 C505 C -0.20543 0.52117 0.92220
 C506 C -0.18480 0.49815 0.91977
 C507 C -0.18471 0.47524 0.94084
 C508 C -0.20495 0.47551 0.96439
 C509 C -0.22556 0.49858 0.96700
 C510 C -0.22571 0.52144 0.94577
 C511 C -0.16296 0.49858 0.89645
 C512 C -0.14420 0.49895 0.87739
 C513 C -0.12175 0.49935 0.85558
 C514 C -0.10220 0.49966 0.83736
 H515 H -0.20553 0.53914 0.90616
 H516 H -0.16873 0.45743 0.93931
 H517 H -0.20429 0.45791 0.98081
 H518 H -0.24098 0.53978 0.94763
 C519 C 0.44268 -0.02287 0.31701
 C520 C 0.42184 0.00004 0.31647
 C521 C 0.42465 0.02304 0.29570
 C522 C 0.44825 0.02320 0.27563
 C523 C 0.46914 0.00024 0.27609
 C524 C 0.46627 -0.02271 0.29698
 C525 C 0.39810 0.00029 0.33779
 C526 C 0.37856 0.00046 0.35604
 C527 C 0.35610 0.00061 0.37785
 C528 C 0.33729 0.00071 0.39689
 H529 H 0.44085 -0.04069 0.33310
 H530 H 0.40878 0.04101 0.29524
 H531 H 0.45028 0.04145 0.26015
 H532 H 0.48240 -0.04041 0.29788
 C533 C 0.20671 0.52122 0.92234
 C534 C 0.18657 0.49809 0.91954
 C535 C 0.18664 0.47496 0.94036
 C536 C 0.20655 0.47512 0.96404
 C537 C 0.22667 0.49829 0.96702
 C538 C 0.22666 0.52137 0.94604
 C539 C 0.16503 0.49862 0.89610
 C540 C 0.14651 0.49907 0.87694
 C541 C 0.12430 0.49961 0.85505
 C542 C 0.10492 0.50010 0.83680
 H543 H 0.20668 0.53935 0.90650
 H544 H 0.17103 0.45706 0.93855
 H545 H 0.20601 0.45733 0.98027
 H546 H 0.24156 0.53979 0.94819
 C547 C 0.55997 0.02485 0.31692
 C548 C 0.58068 0.00181 0.31667
 C549 C 0.57804 -0.02147 0.29600
 C550 C 0.55471 -0.02180 0.27579
 C551 C 0.53392 0.00126 0.27602
 C552 C 0.53665 0.02453 0.29674
 C553 C 0.60400 0.00161 0.33828
 C554 C 0.62315 0.00144 0.35680
 C555 C 0.64512 0.00123 0.37896
 C556 C 0.66350 0.00101 0.39828
 H557 H 0.56167 0.04288 0.33293
 H558 H 0.59380 -0.03955 0.29577
 H559 H 0.55277 -0.04028 0.26044
 H560 H 0.52059 0.04231 0.29748
 C561 C 0.79439 0.47864 0.07792
 C562 C 0.81442 0.50192 0.08032
 C563 C 0.81417 0.52475 0.05918
 C564 C 0.79417 0.52418 0.03558
 C565 C 0.77415 0.50086 0.03301
 C566 C 0.77436 0.47807 0.05430
 C567 C 0.83601 0.50184 0.10371
 C568 C 0.85456 0.50178 0.12283
 C569 C 0.87678 0.50174 0.14470
 C570 C 0.89615 0.50174 0.16296
 H571 H 0.79456 0.46073 0.09401
 H572 H 0.82969 0.54276 0.06069
 H573 H 0.79457 0.54174 0.01911
 H574 H 0.75954 0.45955 0.05247
 C575 C 0.43313 -0.02660 0.68843
 C576 C 0.41368 -0.00248 0.68874
 C577 C 0.41833 0.02124 0.70848
 C578 C 0.44276 0.02116 0.72731
 C579 C 0.46284 -0.00251 0.72625
 C580 C 0.45752 -0.02668 0.70720
 C581 C 0.38992 -0.00156 0.66768
 C582 C 0.37074 -0.00100 0.64922
 C583 C 0.34910 -0.00063 0.62676
 C584 C 0.33128 -0.00056 0.60691
 H585 H 0.42976 -0.04508 0.67327
 H586 H 0.40336 0.03998 0.70896
 H587 H 0.44605 0.03977 0.74222
 H588 H 0.47265 -0.04527 0.70631
   
