data_POSCAR
  _audit_creation_date              2014-09-24
  _audit_creation_method            'ToBaCCo'
  _symmetry_space_group_name_H-M    'P1'
  _symmetry_Int_Tables_number       1
  _symmetry_cell_setting            triclinic
  loop_
  _symmetry_equiv_pos_as_xyz
 x,y,z
_cell_length_a 44.4905
_cell_length_b 39.4489
_cell_length_c 22.7256
_cell_angle_alpha 89.956500
_cell_angle_beta 89.961300
_cell_angle_gamma 90.043800
loop_
  _atom_site_label
  _atom_site_type_symbol
  _atom_site_fract_x
  _atom_site_fract_y
  _atom_site_fract_z
C1 C 0.70350 0.29839 0.55456
 C2 C 0.69228 0.31006 0.50085
 C3 C 0.70372 0.29829 0.44746
 C4 C 0.72709 0.27410 0.44706
 C5 C 0.73874 0.26197 0.50128
 C6 C 0.72692 0.27414 0.55537
 C7 C 0.73881 0.26175 0.60854
 C8 C 0.76185 0.23789 0.60866
 C9 C 0.77390 0.22548 0.55562
 C10 C 0.76225 0.23763 0.50139
 C11 C 0.73908 0.26175 0.39403
 C12 C 0.76213 0.23790 0.39410
 C13 C 0.77405 0.22549 0.44725
 C14 C 0.79746 0.20124 0.44795
 C15 C 0.80870 0.18951 0.50159
 C16 C 0.79731 0.20123 0.55512
 H17 H 0.73036 0.27046 0.65058
 H18 H 0.77018 0.22920 0.65081
 H19 H 0.73072 0.27047 0.35193
 H20 H 0.77057 0.22922 0.35203
 H21 H 0.67430 0.32869 0.50046
 H22 H 0.82669 0.17086 0.50167
 C23 C 0.20388 0.79850 0.55510
 C24 C 0.19248 0.81023 0.50163
 C25 C 0.20372 0.79849 0.44804
 C26 C 0.22708 0.77427 0.44732
 C27 C 0.23888 0.76212 0.50142
 C28 C 0.22723 0.77428 0.55561
 C29 C 0.23922 0.76193 0.60865
 C30 C 0.26226 0.73803 0.60857
 C31 C 0.27416 0.72560 0.55541
 C32 C 0.26235 0.73777 0.50130
 C33 C 0.23892 0.76191 0.39416
 C34 C 0.26195 0.73802 0.39403
 C35 C 0.27397 0.72564 0.44706
 C36 C 0.29731 0.70142 0.44745
 C37 C 0.30874 0.68964 0.50085
 C38 C 0.29755 0.70132 0.55458
 H39 H 0.23086 0.77066 0.65074
 H40 H 0.27070 0.72933 0.65063
 H41 H 0.23044 0.77063 0.35215
 H42 H 0.27030 0.72930 0.35191
 H43 H 0.17451 0.82885 0.50172
 H44 H 0.32671 0.67099 0.50045
 C45 C 0.20290 0.20170 -0.44850
 C46 C 0.19154 0.18988 -0.50190
 C47 C 0.20288 0.20148 -0.55562
 C48 C 0.22635 0.22570 -0.55645
 C49 C 0.23810 0.23791 -0.50236
 C50 C 0.22633 0.22587 -0.44811
 C51 C 0.23828 0.23827 -0.39508
 C52 C 0.26139 0.26210 -0.39520
 C53 C 0.27338 0.27438 -0.44835
 C54 C 0.26166 0.26221 -0.50248
 C55 C 0.23837 0.23802 -0.60961
 C56 C 0.26148 0.26186 -0.60973
 C57 C 0.27346 0.27431 -0.55668
 C58 C 0.29693 0.29853 -0.55608
 C59 C 0.30822 0.31024 -0.50246
 C60 C 0.29680 0.29854 -0.44897
 H61 H 0.22983 0.22962 -0.35298
 H62 H 0.26981 0.27084 -0.35317
 H63 H 0.22997 0.22928 -0.65166
 H64 H 0.26991 0.27050 -0.65186
 H65 H 0.17351 0.17128 -0.50153
 H66 H 0.32625 0.32884 -0.50224
 C67 C -0.29740 0.70093 -0.44769
 C68 C -0.30869 0.68924 -0.50131
 C69 C -0.29738 0.70111 -0.55486
 C70 C -0.27402 0.72547 -0.55537
 C71 C -0.26234 0.73757 -0.50113
 C72 C -0.27405 0.72527 -0.44699
 C73 C -0.26211 0.73764 -0.39384
 C74 C -0.23912 0.76160 -0.39376
 C75 C -0.22720 0.77410 -0.44679
 C76 C -0.23889 0.76202 -0.50102
 C77 C -0.26205 0.73803 -0.60840
 C78 C -0.23907 0.76201 -0.60828
 C79 C -0.22715 0.77435 -0.55511
 C80 C -0.20378 0.79870 -0.55429
 C81 C -0.19254 0.81032 -0.50059
 C82 C -0.20388 0.79839 -0.44720
 H83 H -0.27048 0.72884 -0.35176
 H84 H -0.23073 0.77027 -0.35167
 H85 H -0.27041 0.72939 -0.65054
 H86 H -0.23067 0.77083 -0.65032
 H87 H -0.32664 0.67052 -0.50136
 H88 H -0.17459 0.82902 -0.50023
 N89 N 0.03103 1.06056 -0.06270
 N90 N 0.05183 1.08350 -0.07460
 N91 N -0.03217 1.03661 -0.10266
 N92 N -0.05306 1.04246 -0.14250
 N93 N -0.03215 1.06052 -0.06251
 N94 N -0.05299 1.08341 -0.07422
 N95 N 0.03102 1.03663 -0.10281
 N96 N 0.05185 1.04251 -0.14281
 C97 C 0.06486 1.07167 -0.12448
 C98 C -0.06606 1.07157 -0.12402
 N99 N -0.03219 0.93982 -0.06233
 N100 N -0.05301 0.91687 -0.07406
 N101 N 0.03100 0.96374 -0.10265
 N102 N 0.05195 0.95794 -0.14241
 N103 N 0.03099 0.93985 -0.06240
 N104 N 0.05191 0.91704 -0.07392
 N105 N -0.03220 0.96373 -0.10254
 N106 N -0.05304 0.95782 -0.14244
 Mn107 Mn -0.00059 1.00018 -0.10318
 C108 C -0.06605 0.92868 -0.12394
 C109 C 0.06501 0.92888 -0.12375
 N110 N -0.03212 1.06056 0.06466
 N111 N -0.05287 1.08351 0.07654
 N112 N 0.03107 1.03667 0.10469
 N113 N 0.05202 1.04252 0.14441
 N114 N 0.03106 1.06057 0.06444
 N115 N 0.05197 1.08343 0.07595
 N116 N -0.03212 1.03664 0.10487
 N117 N -0.05291 1.04255 0.14490
 Mn118 Mn -0.00055 1.06095 0.00097
 C119 C -0.06588 1.07171 0.12650
 C120 C 0.06507 1.07161 0.12575
 N121 N 0.03101 0.93986 0.06471
 N122 N 0.05184 0.91697 0.07642
 N123 N -0.03215 0.96375 0.10498
 N124 N -0.05307 0.95791 0.14483
 N125 N -0.03217 0.93985 0.06480
 N126 N -0.05307 0.91699 0.07649
 N127 N 0.03104 0.96378 0.10485
 N128 N 0.05192 0.95792 0.14469
 Mn129 Mn -0.00059 0.93945 0.00120
 Mn130 Mn -0.00054 1.00021 0.10536
 Cl131 Cl -0.00057 1.00020 0.00109
 C132 C 0.06492 0.92880 0.12622
 C133 C -0.06613 0.92882 0.12632
 N134 N 0.46883 0.43946 -0.06443
 N135 N 0.44793 0.41661 -0.07611
 N136 N 0.53206 0.46332 -0.10460
 N137 N 0.55292 0.45742 -0.14451
 N138 N 0.53201 0.43941 -0.06440
 N139 N 0.55280 0.41647 -0.07613
 N140 N 0.46887 0.46339 -0.10461
 N141 N 0.44797 0.45759 -0.14444
 C142 C 0.43489 0.42849 -0.12593
 C143 C 0.56588 0.42828 -0.12602
 N144 N 0.53214 0.56012 -0.06445
 N145 N 0.55300 0.58302 -0.07622
 N146 N 0.46895 0.53628 -0.10466
 N147 N 0.44811 0.54219 -0.14458
 N148 N 0.46896 0.56016 -0.06447
 N149 N 0.44817 0.58310 -0.07622
 N150 N 0.53214 0.53621 -0.10460
 N151 N 0.55302 0.54207 -0.14449
 Mn152 Mn 0.50050 0.49980 -0.10513
 C153 C 0.56606 0.57119 -0.12605
 C154 C 0.43513 0.57132 -0.12610
 N155 N 0.53194 0.43938 0.06274
 N156 N 0.55280 0.41651 0.07442
 N157 N 0.46876 0.46329 0.10289
 N158 N 0.44787 0.45739 0.14279
 N159 N 0.46876 0.43940 0.06270
 N160 N 0.44791 0.41649 0.07443
 N161 N 0.53195 0.46328 0.10291
 N162 N 0.55285 0.45745 0.14273
 Mn163 Mn 0.50038 0.43901 -0.00085
 C164 C 0.56587 0.42835 0.12423
 C165 C 0.43484 0.42828 0.12430
 N166 N 0.46890 0.56011 0.06266
 N167 N 0.44806 0.58300 0.07432
 N168 N 0.53203 0.53617 0.10291
 N169 N 0.55283 0.54208 0.14291
 N170 N 0.53208 0.56009 0.06271
 N171 N 0.55287 0.58304 0.07454
 N172 N 0.46884 0.53618 0.10284
 N173 N 0.44793 0.54202 0.14266
 Mn174 Mn 0.50052 0.56052 -0.00089
 Mn175 Mn 0.50040 0.49973 0.10340
 Cl176 Cl 0.50045 0.49977 -0.00087
 C177 C 0.43494 0.57114 0.12414
 C178 C 0.56586 0.57123 0.12447
 C179 C 0.37849 0.40747 0.24337
 C180 C 0.37038 0.37425 0.22876
 C181 C 0.38207 0.35927 0.17778
 C182 C 0.40238 0.37722 0.14235
 C183 C 0.30949 0.31145 0.39372
 C184 C 0.39881 0.42534 0.20826
 C185 C 0.35189 0.35516 0.26888
 C186 C 0.33741 0.34022 0.30551
 C187 C 0.32173 0.32405 0.35168
 C188 C 0.41134 0.41021 0.15794
 H189 H 0.36969 0.41927 0.28282
 H190 H 0.37607 0.33350 0.16622
 H191 H 0.41172 0.36497 0.10384
 H192 H 0.40520 0.45075 0.22126
 C193 C -0.11899 0.85989 0.17967
 C194 C -0.13066 0.87488 0.23065
 C195 C -0.12254 0.90808 0.24529
 C196 C -0.10221 0.92594 0.21020
 C197 C -0.19128 0.81180 0.39561
 C198 C -0.09866 0.87782 0.14427
 C199 C -0.14911 0.85577 0.27080
 C200 C -0.16352 0.84078 0.30745
 C201 C -0.17912 0.82452 0.35361
 C202 C -0.08968 0.91080 0.15990
 H203 H -0.12500 0.83413 0.16811
 H204 H -0.13133 0.91988 0.28475
 H205 H -0.09580 0.95134 0.22322
 H206 H -0.08932 0.86556 0.10577
 C207 C 0.62187 0.59209 0.24391
 C208 C 0.62991 0.62535 0.22942
 C209 C 0.61830 0.64036 0.17838
 C210 C 0.59813 0.62238 0.14279
 C211 C 0.69019 0.68818 0.39488
 C212 C 0.60170 0.57418 0.20864
 C213 C 0.64823 0.64446 0.26970
 C214 C 0.66257 0.65941 0.30646
 C215 C 0.67809 0.67559 0.35276
 C216 C 0.58924 0.58933 0.15827
 H217 H 0.63061 0.58026 0.28340
 H218 H 0.62425 0.66617 0.16691
 H219 H 0.58885 0.63466 0.10424
 H220 H 0.59536 0.54873 0.22155
 C221 C 0.12159 1.09232 0.24432
 C222 C 0.12967 1.12553 0.22962
 C223 C 0.11794 1.14054 0.17870
 C224 C 0.09759 1.12262 0.14344
 C225 C 0.19037 1.18846 0.39429
 C226 C 0.10123 1.07446 0.20939
 C227 C 0.14814 1.14463 0.26964
 C228 C 0.16258 1.15959 0.30622
 C229 C 0.17819 1.17580 0.35232
 C230 C 0.08864 1.08962 0.15915
 H231 H 0.13042 1.08050 0.28375
 H232 H 0.12393 1.16632 0.16708
 H233 H 0.08821 1.13489 0.10498
 H234 H 0.09484 1.04905 0.22247
 C235 C 0.62214 0.40746 -0.24515
 C236 C 0.63017 0.37423 -0.23053
 C237 C 0.61847 0.35923 -0.17952
 C238 C 0.59821 0.37719 -0.14408
 C239 C 0.69092 0.31137 -0.39535
 C240 C 0.60188 0.42534 -0.21003
 C241 C 0.64861 0.35514 -0.27065
 C242 C 0.66304 0.34019 -0.30726
 C243 C 0.67870 0.32400 -0.35338
 C244 C 0.58933 0.41020 -0.15968
 H245 H 0.63095 0.41928 -0.28463
 H246 H 0.62441 0.33345 -0.16795
 H247 H 0.58886 0.36492 -0.10554
 H248 H 0.59554 0.45077 -0.22304
 C249 C 0.11803 0.86012 -0.17655
 C250 C 0.12975 0.87512 -0.22753
 C251 C 0.12160 0.90829 -0.24235
 C252 C 0.10120 0.92609 -0.20745
 C253 C 0.19071 0.81220 -0.39187
 C254 C 0.09763 0.87799 -0.14134
 C255 C 0.14829 0.85606 -0.26749
 C256 C 0.16279 0.84111 -0.30399
 C257 C 0.17847 0.82489 -0.35000
 C258 C 0.08862 0.91093 -0.15715
 H259 H 0.12407 0.83438 -0.16485
 H260 H 0.13043 0.92010 -0.28182
 H261 H 0.09476 0.95146 -0.22061
 H262 H 0.08826 0.86572 -0.10283
 C263 C 0.37894 0.59220 -0.24522
 C264 C 0.37086 0.62541 -0.23058
 C265 C 0.38252 0.64037 -0.17957
 C266 C 0.40277 0.62240 -0.14414
 C267 C 0.31012 0.68833 -0.39533
 C268 C 0.39919 0.57431 -0.21011
 C269 C 0.35243 0.64451 -0.27068
 C270 C 0.33799 0.65948 -0.30727
 C271 C 0.32234 0.67569 -0.35337
 C272 C 0.41169 0.58941 -0.15976
 H273 H 0.37016 0.58041 -0.28470
 H274 H 0.37654 0.66613 -0.16798
 H275 H 0.41209 0.63463 -0.10560
 H276 H 0.40555 0.54890 -0.22314
 C277 C -0.12234 1.09223 -0.24305
 C278 C -0.13025 1.12553 -0.22877
 C279 C -0.11851 1.14062 -0.17794
 C280 C -0.09831 1.12269 -0.14237
 C281 C -0.19031 1.18827 -0.39460
 C282 C -0.10213 1.07437 -0.20780
 C283 C -0.14854 1.14461 -0.26914
 C284 C -0.16282 1.15954 -0.30600
 C285 C -0.17827 1.17568 -0.35241
 C286 C -0.08952 1.08961 -0.15768
 H287 H -0.13118 1.08035 -0.28239
 H288 H -0.12437 1.16646 -0.16665
 H289 H -0.08891 1.13502 -0.10401
 H290 H -0.09586 1.04889 -0.22057
 C291 C 0.62232 0.59180 -0.24529
 C292 C 0.63018 0.62516 -0.23123
 C293 C 0.61843 0.64030 -0.18046
 C294 C 0.59826 0.62237 -0.14472
 C295 C 0.69015 0.68789 -0.39748
 C296 C 0.60215 0.57394 -0.20988
 C297 C 0.64842 0.64422 -0.27179
 C298 C 0.66267 0.65913 -0.30878
 C299 C 0.67809 0.67527 -0.35529
 C300 C 0.58952 0.58923 -0.15982
 H301 H 0.63118 0.57987 -0.28459
 H302 H 0.62425 0.66619 -0.16934
 H303 H 0.58884 0.63474 -0.10641
 H304 H 0.59592 0.54841 -0.22249
 C305 C 0.12104 1.09229 -0.24392
 C306 C 0.12902 1.12560 -0.22974
 C307 C 0.11733 1.14072 -0.17889
 C308 C 0.09712 1.12281 -0.14317
 C309 C 0.18966 1.18813 -0.39536
 C310 C 0.10083 1.07445 -0.20853
 C311 C 0.14740 1.14461 -0.27016
 C312 C 0.16180 1.15948 -0.30700
 C313 C 0.17743 1.17557 -0.35332
 C314 C 0.08829 1.08971 -0.15835
 H315 H 0.12985 1.08037 -0.28327
 H316 H 0.12324 1.16656 -0.16766
 H317 H 0.08777 1.13517 -0.10478
 H318 H 0.09453 1.04896 -0.22121
 C319 C 0.37852 0.40807 -0.24489
 C320 C 0.37051 0.37477 -0.23060
 C321 C 0.38222 0.35960 -0.17980
 C322 C 0.40249 0.37746 -0.14425
 C323 C 0.31000 0.31220 -0.39595
 C324 C 0.39879 0.42585 -0.20966
 C325 C 0.35213 0.35578 -0.27093
 C326 C 0.33776 0.34092 -0.30771
 C327 C 0.32218 0.32481 -0.35397
 C328 C 0.41137 0.41053 -0.15956
 H329 H 0.36970 0.42001 -0.28421
 H330 H 0.37628 0.33377 -0.16851
 H331 H 0.41187 0.36507 -0.10590
 H332 H 0.40513 0.45133 -0.22243
 C333 C -0.11850 0.85957 -0.17788
 C334 C -0.13021 0.87466 -0.22875
 C335 C -0.12225 0.90797 -0.24310
 C336 C -0.10204 0.92583 -0.20784
 C337 C -0.19071 0.81199 -0.39407
 C338 C -0.09830 0.87751 -0.14230
 C339 C -0.14856 0.85560 -0.26906
 C340 C -0.16294 0.84071 -0.30582
 C341 C -0.17852 0.82458 -0.35207
 C342 C -0.08948 0.91060 -0.15765
 H343 H -0.12439 0.83373 -0.16653
 H344 H -0.13106 0.91986 -0.28247
 H345 H -0.09575 0.95132 -0.22065
 H346 H -0.08893 0.86518 -0.10389
 C347 C 0.37856 0.59171 0.24309
 C348 C 0.37067 0.62502 0.22879
 C349 C 0.38245 0.64015 0.17797
 C350 C 0.40268 0.62224 0.14243
 C351 C 0.31040 0.68776 0.39432
 C352 C 0.39879 0.57387 0.20786
 C353 C 0.35234 0.64407 0.26913
 C354 C 0.33802 0.65898 0.30595
 C355 C 0.32252 0.67513 0.35226
 C356 C 0.41145 0.58915 0.15775
 H357 H 0.36968 0.57980 0.28242
 H358 H 0.37661 0.66601 0.16667
 H359 H 0.41213 0.63461 0.10407
 H360 H 0.40504 0.54838 0.22064
 C361 C -0.11811 1.14086 0.18094
 C362 C -0.12980 1.12575 0.23186
 C363 C -0.12191 1.09242 0.24607
 C364 C -0.10179 1.07455 0.21064
 C365 C -0.19002 1.18832 0.39776
 C366 C -0.09799 1.12291 0.14518
 C367 C -0.14807 1.14480 0.27233
 C368 C -0.16237 1.15967 0.30923
 C369 C -0.17788 1.17576 0.35563
 C370 C -0.08924 1.08979 0.16039
 H371 H -0.12395 1.16672 0.16968
 H372 H -0.13071 1.08051 0.28548
 H373 H -0.09555 1.04904 0.22335
 H374 H -0.08863 1.13526 0.10673
 C375 C 0.62225 0.40783 0.24312
 C376 C 0.63019 0.37454 0.22884
 C377 C 0.61844 0.35941 0.17807
 C378 C 0.59819 0.37729 0.14254
 C379 C 0.69059 0.31191 0.39433
 C380 C 0.60199 0.42564 0.20791
 C381 C 0.64855 0.35552 0.26917
 C382 C 0.66290 0.34063 0.30598
 C383 C 0.67844 0.32452 0.35228
 C384 C 0.58937 0.41036 0.15784
 H385 H 0.63110 0.41975 0.28241
 H386 H 0.62432 0.33357 0.16679
 H387 H 0.58877 0.36493 0.10422
 H388 H 0.59570 0.45112 0.22066
 C389 C 0.11765 0.85989 0.17972
 C390 C 0.12935 0.87493 0.23062
 C391 C 0.12127 0.90815 0.24516
 C392 C 0.10097 0.92597 0.21006
 C393 C 0.19040 0.81216 0.39511
 C394 C 0.09734 0.87778 0.14431
 C395 C 0.14785 0.85590 0.27071
 C396 C 0.16234 0.84099 0.30727
 C397 C 0.17808 0.82481 0.35329
 C398 C 0.08842 0.91079 0.15983
 H399 H 0.12363 0.83412 0.16821
 H400 H 0.13009 0.92000 0.28455
 H401 H 0.09459 0.95139 0.22301
 H402 H 0.08799 0.86549 0.10586
   
