data_POSCAR
  _audit_creation_date              2014-09-24
  _audit_creation_method            'ToBaCCo'
  _symmetry_space_group_name_H-M    'P1'
  _symmetry_Int_Tables_number       1
  _symmetry_cell_setting            triclinic
  loop_
  _symmetry_equiv_pos_as_xyz
 x,y,z
_cell_length_a 13.6878
_cell_length_b 14.3518
_cell_length_c 13.5216
_cell_angle_alpha 91.995800
_cell_angle_beta 93.500800
_cell_angle_gamma 88.417000
loop_
  _atom_site_label
  _atom_site_type_symbol
  _atom_site_fract_x
  _atom_site_fract_y
  _atom_site_fract_z
C1 C -0.00799 0.51338 0.23830
 C2 C 0.01795 0.50790 0.76607
 C3 C 0.27587 0.00038 0.52242
 C4 C 0.71586 -0.01036 0.47479
 C5 C 0.48808 0.24145 0.99048
 C6 C 0.50569 0.75821 1.01094
 B7 B 0.99142 1.08963 0.06747
 B8 B 0.98867 1.09707 -0.05745
 B9 B 1.09407 1.06051 0.00591
 B10 B 1.06151 0.99305 0.09939
 B11 B 0.93854 0.98803 0.09402
 B12 B 0.89285 1.05157 -0.00337
 B13 B 1.00241 0.90579 -0.07699
 B14 B 1.00471 0.89756 0.04708
 B15 B 0.90042 0.93465 -0.01568
 B16 B 0.93335 1.00091 -0.10972
 B17 B 1.05631 1.00665 -0.10345
 B18 B 1.10117 0.94259 -0.00676
 B19 B 0.59928 0.50993 0.43931
 B20 B 0.60567 0.50481 0.56382
 B21 B 0.56061 0.60220 0.50928
 B22 B 0.49508 0.56906 0.40437
 B23 B 0.49868 0.45161 0.39432
 B24 B 0.56766 0.41128 0.49233
 B25 B 0.40547 0.50277 0.56324
 B26 B 0.39793 0.50960 0.43845
 B27 B 0.44345 0.40995 0.49167
 B28 B 0.50969 0.44226 0.59708
 B29 B 0.50608 0.56030 0.60771
 B30 B 0.43808 0.60177 0.50853
 C31 C 0.99766 1.43006 0.16480
 C32 C 0.97986 1.34309 0.19203
 C33 C 1.01811 1.25954 0.13885
 C34 C 0.96890 1.18043 0.13485
 H35 H 0.94171 1.33285 0.25856
 H36 H 1.08721 1.26304 0.10539
 H37 H 1.03836 1.43762 0.09936
 H38 H 0.90024 1.18095 0.17078
 C39 C 0.99647 0.60860 0.19113
 C40 C 0.97175 0.62616 0.09651
 C41 C 0.96506 0.72149 0.05774
 C42 C 1.01253 0.79685 0.09655
 H43 H 0.94679 0.57017 0.04639
 H44 H 0.91853 0.72711 -0.00861
 H45 H 1.01045 0.66801 0.24072
 H46 H 1.06153 0.78945 0.16143
 C47 C 1.03567 1.43229 -0.15669
 C48 C 1.00845 1.34347 -0.17519
 C49 C 1.02511 1.26910 -0.10398
 C50 C 0.97084 1.19261 -0.11353
 H51 H 0.97258 1.32343 -0.24601
 H52 H 1.08411 1.27680 -0.04919
 H53 H 1.07438 1.45023 -0.08657
 H54 H 0.91086 1.19210 -0.16970
 C55 C 1.00019 0.60317 -0.18437
 C56 C 0.95534 0.67416 -0.23361
 C57 C 0.94170 0.76741 -0.18831
 C58 C 1.01588 0.81241 -0.14137
 H59 H 0.92237 0.66308 -0.30771
 H60 H 0.86923 0.79921 -0.19500
 H61 H 1.03249 0.61635 -0.11028
 H62 H 1.08843 0.78018 -0.13995
 C63 C 1.20493 1.00464 0.42983
 C64 C 1.22910 1.03957 0.34370
 C65 C 1.15833 1.05329 0.25874
 C66 C 1.12419 0.98160 0.20236
 H67 H 1.30117 1.06669 0.33659
 H68 H 1.14585 1.12378 0.23436
 H69 H 1.13229 0.97728 0.43400
 H70 H 1.14472 0.91185 0.22473
 C71 C 1.22722 1.01851 -0.38055
 C72 C 1.14092 1.06243 -0.37032
 C73 C 1.09766 1.07289 -0.27322
 C74 C 1.11213 1.00901 -0.20307
 H75 H 1.10167 1.09358 -0.43329
 H76 H 1.04551 1.12948 -0.26554
 H77 H 1.26945 0.99683 -0.31438
 H78 H 1.15430 0.94638 -0.22022
 C79 C 0.77651 0.97561 0.38425
 C80 C 0.86077 1.01823 0.37381
 C81 C 0.90984 1.02162 0.27975
 C82 C 0.88452 0.97507 0.19416
 H83 H 0.89301 1.05940 0.43534
 H84 H 0.96957 1.06893 0.28287
 H85 H 0.74192 0.93929 0.32060
 H86 H 0.82742 0.92458 0.19115
 C87 C 0.77692 1.00976 -0.42795
 C88 C 0.84936 0.95196 -0.39581
 C89 C 0.90302 0.95901 -0.29774
 C90 C 0.87393 1.00634 -0.21619
 H91 H 0.87094 0.89435 -0.44434
 H92 H 0.96923 0.91677 -0.29329
 H93 H 0.75471 1.06767 -0.38020
 H94 H 0.80773 1.04918 -0.22028
 C95 C 1.39851 1.17932 -0.01304
 C96 C 1.36916 1.13631 0.06588
 C97 C 1.27435 1.09072 0.06659
 C98 C 1.19335 1.11688 0.01189
 H99 H 1.41487 1.13560 0.13398
 H100 H 1.27393 1.03223 0.11410
 H101 H 1.35375 1.17268 -0.08156
 H102 H 1.19799 1.17324 -0.03775
 C103 C 0.58135 1.18275 -0.02086
 C104 C 0.62041 1.12961 0.05166
 C105 C 0.71522 1.07925 0.04766
 C106 C 0.78981 1.10621 -0.00378
 H107 H 0.58159 1.12216 0.11809
 H108 H 0.72359 1.01941 0.09349
 H109 H 0.61855 1.18556 -0.08916
 H110 H 0.78206 1.16876 -0.04616
 C111 C 1.41649 0.82338 0.01605
 C112 C 1.37236 0.86214 -0.06372
 C113 C 1.27889 0.91407 -0.05964
 C114 C 1.20393 0.88703 -0.00823
 H115 H 1.40588 0.85679 -0.13426
 H116 H 1.27294 0.97576 -0.10293
 H117 H 1.38574 0.83752 0.08736
 H118 H 1.21159 0.82375 0.03317
 C119 C 0.59707 0.81599 0.00747
 C120 C 0.63103 0.84407 -0.07732
 C121 C 0.72440 0.89180 -0.08188
 C122 C 0.80234 0.87673 -0.01876
 H123 H 0.58845 0.83305 -0.14669
 H124 H 0.72745 0.93951 -0.14091
 H125 H 0.63559 0.83599 0.07710
 H126 H 0.79662 0.82767 0.03928
 C127 C 0.89856 0.51338 0.29441
 C128 C 0.80950 0.52353 0.24686
 C129 C 0.71421 0.53001 0.29415
 C130 C 0.70181 0.50905 0.38817
 H131 H 0.80559 0.53035 0.16719
 H132 H 0.65145 0.54979 0.24657
 H133 H 0.90564 0.50895 0.37420
 H134 H 0.76431 0.48557 0.43407
 C135 C 0.08304 0.50181 0.30747
 C136 C 0.11602 0.56798 0.37193
 C137 C 0.21505 0.56387 0.42015
 C138 C 0.29171 0.51703 0.38231
 H139 H 0.07002 0.62797 0.38984
 H140 H 0.22317 0.60275 0.48929
 H141 H 0.12744 0.43843 0.29989
 H142 H 0.28106 0.48365 0.31043
 C143 C 0.92928 0.48544 0.69637
 C144 C 0.84367 0.46665 0.73325
 C145 C 0.75691 0.44607 0.66978
 C146 C 0.70887 0.51437 0.62207
 H147 H 0.83787 0.46257 0.81251
 H148 H 0.72844 0.37707 0.67202
 H149 H 0.93430 0.48864 0.61678
 H150 H 0.73982 0.58323 0.62660
 C151 C 0.10991 0.51449 0.71013
 C152 C 0.14601 0.44207 0.65827
 C153 C 0.23374 0.44709 0.60184
 C154 C 0.31146 0.49988 0.62780
 H155 H 0.10565 0.37817 0.65027
 H156 H 0.23163 0.40420 0.53538
 H157 H 0.14784 0.58003 0.71238
 H158 H 0.31314 0.54030 0.69688
 C159 C 0.51354 0.70285 0.10462
 C160 C 0.43748 0.65568 0.13256
 C161 C 0.43827 0.60582 0.22518
 C162 C 0.49048 0.63044 0.30866
 H163 H 0.37189 0.65102 0.08370
 H164 H 0.39096 0.54736 0.22294
 H165 H 0.58158 0.70192 0.15010
 H166 H 0.53443 0.69209 0.31133
 C167 C 0.49381 0.69041 0.92160
 C168 C 0.56821 0.63732 0.88952
 C169 C 0.56393 0.58547 0.79329
 C170 C 0.50648 0.61148 0.71432
 H171 H 0.63704 0.63470 0.93349
 H172 H 0.61620 0.52857 0.78676
 H173 H 0.42276 0.68620 0.88201
 H174 H 0.45740 0.67098 0.72178
 C175 C 0.49821 0.29891 0.08776
 C176 C 0.42034 0.33196 0.13469
 C177 C 0.42422 0.36272 0.23975
 C178 C 0.50200 0.40095 0.28813
 H179 H 0.34780 0.32526 0.09890
 H180 H 0.35710 0.35660 0.27584
 H181 H 0.57074 0.30566 0.12350
 H182 H 0.56886 0.40630 0.25080
 C183 C 0.47652 0.30742 0.90482
 C184 C 0.46052 0.27509 0.81117
 C185 C 0.44449 0.33696 0.72815
 C186 C 0.51863 0.38169 0.69364
 H187 H 0.45421 0.20103 0.79480
 H188 H 0.37370 0.33554 0.68889
 H189 H 0.48122 0.38209 0.91925
 H190 H 0.58836 0.37632 0.73454
 C191 C 0.65799 0.90089 0.48214
 C192 C 0.63819 0.86294 0.56776
 C193 C 0.59283 0.77163 0.57133
 C194 C 0.61637 0.69827 0.51229
 H195 H 0.65195 0.90059 0.63774
 H196 H 0.54005 0.76578 0.62641
 H197 H 0.63305 0.86503 0.41361
 H198 H 0.67268 0.70482 0.46026
 C199 C 0.64607 0.07167 0.45372
 C200 C 0.67904 0.15872 0.45111
 C201 C 0.61259 0.24013 0.43914
 C202 C 0.63745 0.32144 0.48344
 H203 H 0.75629 0.17097 0.46685
 H204 H 0.54210 0.23149 0.40005
 H205 H 0.56847 0.05984 0.43998
 H206 H 0.71080 0.32691 0.51673
 C207 C 0.32239 0.90286 0.52398
 C208 C 0.28003 0.83052 0.56450
 C209 C 0.32629 0.73698 0.57312
 C210 C 0.38309 0.70044 0.50444
 H211 H 0.21099 0.84101 0.59883
 H212 H 0.30787 0.69599 0.63452
 H213 H 0.39235 0.89224 0.49130
 H214 H 0.39457 0.74064 0.44016
 C215 C 0.35465 0.07327 0.52390
 C216 C 0.33043 0.16313 0.51020
 C217 C 0.40211 0.23724 0.52042
 C218 C 0.38156 0.31811 0.47692
 H219 H 0.25477 0.18274 0.49076
 H220 H 0.46937 0.22623 0.56517
 H221 H 0.42986 0.05399 0.54567
 H222 H 0.31555 0.32316 0.42896
   
