data_POSCAR
  _audit_creation_date              2014-09-24
  _audit_creation_method            'ToBaCCo'
  _symmetry_space_group_name_H-M    'P1'
  _symmetry_Int_Tables_number       1
  _symmetry_cell_setting            triclinic
  loop_
  _symmetry_equiv_pos_as_xyz
 x,y,z
_cell_length_a 35.1206
_cell_length_b 36.1490
_cell_length_c 33.6358
_cell_angle_alpha 90.382700
_cell_angle_beta 89.598400
_cell_angle_gamma 90.230600
loop_
  _atom_site_label
  _atom_site_type_symbol
  _atom_site_fract_x
  _atom_site_fract_y
  _atom_site_fract_z
C1 C 1.25242 0.24965 0.25151
 C2 C 0.75355 -0.25142 0.25179
 C3 C 0.74970 0.24809 -0.24719
 C4 C 1.25197 -0.25105 -0.24957
 C5 C 0.24866 0.25223 0.74843
 C6 C 0.74614 0.75297 0.74922
 C7 C 0.74821 0.25179 0.24809
 C8 C 0.24780 0.75148 0.24961
 N9 N 0.96050 0.03951 -0.07181
 N10 N 0.93574 0.04764 -0.09975
 N11 N 1.04099 0.06457 -0.04529
 N12 N 1.06595 0.09058 -0.05458
 N13 N 1.04005 0.03886 -0.07307
 N14 N 1.06372 0.04716 -0.10237
 N15 N 0.96050 0.06502 -0.04384
 N16 N 0.93516 0.09084 -0.05163
 C17 C 0.91966 0.07933 -0.08633
 C18 C 1.08028 0.07902 -0.08996
 N19 N 1.04243 0.04067 0.06789
 N20 N 1.06639 0.05005 0.09632
 N21 N 0.96172 0.06615 0.04165
 N22 N 0.93646 0.09210 0.04962
 N23 N 0.96262 0.04168 0.07033
 N24 N 0.93836 0.05074 0.09893
 N25 N 1.04163 0.06631 0.04041
 N26 N 1.06489 0.09382 0.04963
 Mn27 Mn 1.00118 0.06579 -0.00180
 C28 C 1.08064 0.08301 0.08425
 C29 C 0.92184 0.08192 0.08521
 N30 N 1.03878 -0.04122 -0.07207
 N31 N 1.06328 -0.04986 -0.10050
 N32 N 0.95840 -0.06507 -0.04262
 N33 N 0.93259 -0.09077 -0.05032
 N34 N 0.95923 -0.04028 -0.07099
 N35 N 0.93447 -0.04876 -0.09898
 N36 N 1.03880 -0.06640 -0.04407
 N37 N 1.06389 -0.09252 -0.05244
 Mn38 Mn 0.99969 -0.00081 -0.07225
 C39 C 1.07918 -0.08155 -0.08754
 C40 C 0.91762 -0.07997 -0.08535
 N41 N 0.96134 -0.03843 0.07125
 N42 N 0.93824 -0.04670 0.10105
 N43 N 1.03944 -0.06591 0.04177
 N44 N 1.06183 -0.09367 0.05143
 N45 N 1.04111 -0.03956 0.06882
 N46 N 1.06478 -0.04876 0.09741
 N47 N 0.95943 -0.06390 0.04325
 N48 N 0.93447 -0.08978 0.05301
 Mn49 Mn 1.00196 0.00110 0.06985
 Mn50 Mn 0.99896 -0.06563 -0.00047
 Cl51 Cl 1.00051 0.00010 -0.00111
 C52 C 0.92109 -0.07833 0.08884
 C53 C 1.07796 -0.08237 0.08590
 N54 N 1.03890 0.43604 0.54614
 N55 N 1.06495 0.41092 0.55378
 N56 N 0.95862 0.46102 0.57373
 N57 N 0.93445 0.45243 0.60243
 N58 N 0.95848 0.43547 0.54576
 N59 N 0.93369 0.40909 0.55454
 N60 N 1.03823 0.46153 0.57414
 N61 N 1.06331 0.45400 0.60199
 C62 C 1.08016 0.42266 0.58851
 C63 C 0.91858 0.42036 0.58974
 N64 N 0.95766 0.56558 0.54512
 N65 N 0.93206 0.59133 0.55284
 N66 N 1.03773 0.54158 0.57387
 N67 N 1.06285 0.54975 0.60159
 N68 N 1.03813 0.56669 0.54583
 N69 N 1.06416 0.59222 0.55330
 N70 N 0.95815 0.54093 0.57362
 N71 N 0.93342 0.54970 0.60188
 Mn72 Mn 0.99822 0.50127 0.57414
 C73 C 0.91686 0.58078 0.58805
 C74 C 1.07953 0.58105 0.58799
 N75 N 0.96028 0.43455 0.45976
 N76 N 0.93581 0.40800 0.45093
 N77 N 1.04100 0.46037 0.43302
 N78 N 1.06517 0.45103 0.40445
 N79 N 1.03994 0.43474 0.46055
 N80 N 1.06321 0.40737 0.45128
 N81 N 0.96095 0.45979 0.43183
 N82 N 0.93668 0.45111 0.40341
 Mn83 Mn 0.99934 0.43492 0.50311
 C84 C 0.92089 0.41893 0.41595
 C85 C 1.07924 0.41814 0.41653
 N86 N 1.03911 0.56663 0.46035
 N87 N 1.06177 0.59454 0.45127
 N88 N 0.96064 0.53976 0.43129
 N89 N 0.93635 0.54752 0.40276
 N90 N 0.95907 0.56492 0.45959
 N91 N 0.93326 0.59013 0.45139
 N92 N 1.04050 0.54096 0.43254
 N93 N 1.06416 0.55103 0.40374
 Mn94 Mn 0.99844 0.56622 0.50277
 Mn95 Mn 1.00087 0.50018 0.43182
 Cl96 Cl 0.99925 0.50064 0.50288
 C97 C 1.07771 0.58432 0.41621
 C98 C 0.91905 0.57868 0.41607
 N99 N 0.56484 0.04242 0.54002
 N100 N 0.59214 0.06617 0.54864
 N101 N 0.54016 -0.03493 0.56997
 N102 N 0.54853 -0.05819 0.59866
 N103 N 0.56692 -0.03505 0.54251
 N104 N 0.59417 -0.05843 0.55179
 N105 N 0.53840 0.04265 0.56782
 N106 N 0.54728 0.06661 0.59620
 C107 C 0.58065 0.08151 0.58342
 C108 C 0.58212 -0.07299 0.58669
 N109 N 0.43205 -0.03900 0.54117
 N110 N 0.40527 -0.06318 0.55048
 N111 N 0.45596 0.04020 0.56684
 N112 N 0.44598 0.06427 0.59464
 N113 N 0.42998 0.03842 0.53896
 N114 N 0.40173 0.06126 0.54713
 N115 N 0.45792 -0.03728 0.56916
 N116 N 0.44934 -0.06027 0.59821
 Mn117 Mn 0.49809 0.00269 0.56880
 C118 C 0.41667 -0.07661 0.58590
 C119 C 0.41233 0.07759 0.58167
 N120 N 0.56829 -0.03775 0.45690
 N121 N 0.59645 -0.06076 0.44915
 N122 N 0.54030 0.03774 0.42648
 N123 N 0.54815 0.06135 0.39783
 N124 N 0.56586 0.03999 0.45468
 N125 N 0.59152 0.06561 0.44623
 N126 N 0.54247 -0.03962 0.42892
 N127 N 0.55251 -0.06390 0.40132
 Mn128 Mn 0.56675 0.00240 0.49851
 C129 C 0.58603 -0.07726 0.41466
 C130 C 0.57980 0.07894 0.41087
 N131 N 0.43168 0.03596 0.45330
 N132 N 0.40615 0.06161 0.44552
 N133 N 0.46035 -0.04198 0.42803
 N134 N 0.45319 -0.06695 0.40029
 N135 N 0.43352 -0.04215 0.45542
 N136 N 0.40760 -0.06766 0.44719
 N137 N 0.45836 0.03542 0.42578
 N138 N 0.45153 0.06033 0.39832
 Mn139 Mn 0.43144 -0.00171 0.49717
 Mn140 Mn 0.50034 -0.00215 0.42699
 Cl141 Cl 0.49914 0.00028 0.49792
 C142 C 0.41908 0.07672 0.41120
 C143 C 0.42056 -0.08320 0.41291
 N144 N 0.56594 0.54149 0.04329
 N145 N 0.59340 0.56526 0.05130
 N146 N 0.53984 0.46436 0.07261
 N147 N 0.54734 0.43960 0.10012
 N148 N 0.56616 0.46395 0.04474
 N149 N 0.59234 0.43905 0.05256
 N150 N 0.53984 0.54202 0.07143
 N151 N 0.54917 0.56606 0.09955
 C152 C 0.58242 0.58077 0.08618
 C153 C 0.58004 0.42379 0.08698
 N154 N 0.43197 0.46232 0.04510
 N155 N 0.40681 0.43603 0.05294
 N156 N 0.45724 0.54117 0.07161
 N157 N 0.44871 0.56616 0.09902
 N158 N 0.43119 0.54040 0.04377
 N159 N 0.40461 0.56528 0.05118
 N160 N 0.45806 0.46378 0.07283
 N161 N 0.45127 0.43882 0.10037
 Mn162 Mn 0.49871 0.50292 0.07250
 C163 C 0.41947 0.42144 0.08741
 C164 C 0.41610 0.58137 0.08555
 N165 N 0.56662 0.46211 -0.04067
 N166 N 0.59387 0.43815 -0.04855
 N167 N 0.54043 0.53918 -0.06979
 N168 N 0.54955 0.56255 -0.09840
 N169 N 0.56645 0.53965 -0.04196
 N170 N 0.59380 0.56330 -0.05079
 N171 N 0.54090 0.46158 -0.06880
 N172 N 0.55019 0.43730 -0.09674
 Mn173 Mn 0.56652 0.50177 0.00136
 C174 C 0.58307 0.42252 -0.08335
 C175 C 0.58272 0.57777 -0.08580
 N176 N 0.43139 0.53832 -0.04190
 N177 N 0.40418 0.56183 -0.05086
 N178 N 0.45863 0.46077 -0.06851
 N179 N 0.45022 0.43666 -0.09676
 N180 N 0.43211 0.46083 -0.04076
 N181 N 0.40500 0.43678 -0.04950
 N182 N 0.45809 0.53835 -0.06944
 N183 N 0.44975 0.56196 -0.09779
 Mn184 Mn 0.43129 0.50043 0.00160
 Mn185 Mn 0.49948 0.49999 -0.06950
 Cl186 Cl 0.49897 0.50133 0.00146
 C187 C 0.41625 0.57673 -0.08557
 C188 C 0.41695 0.42151 -0.08426
 C189 C 1.17623 0.17584 0.18401
 C190 C 1.17895 0.21382 0.17450
 C191 C 1.20213 0.23757 0.19732
 C192 C 1.22513 0.22374 0.22803
 C193 C 1.21946 0.18645 0.23905
 C194 C 1.19591 0.16294 0.21732
 C195 C 1.15223 0.15104 0.15842
 C196 C 1.14798 0.11283 0.16549
 C197 C 1.12511 0.09092 0.14104
 C198 C 1.10624 0.10629 0.10861
 C199 C 1.11070 0.14419 0.10080
 C200 C 1.13327 0.16667 0.12560
 C201 C 1.15898 0.22769 0.14194
 C202 C 1.13675 0.20462 0.11795
 H203 H 1.16091 0.25679 0.13459
 H204 H 1.12211 0.21668 0.09295
 H205 H 1.20352 0.26674 0.19016
 H206 H 1.23300 0.17485 0.26486
 H207 H 1.12216 0.06175 0.14761
 H208 H 1.09599 0.15637 0.07589
 H209 H 1.19369 0.13473 0.22723
 H210 H 1.16188 0.09921 0.18978
 C211 C 1.18420 0.67165 0.67865
 C212 C 1.17264 0.68126 0.71765
 C213 C 1.19425 0.70644 0.74001
 C214 C 1.22817 0.72198 0.72469
 C215 C 1.24197 0.70802 0.68811
 C216 C 1.21985 0.68420 0.66485
 C217 C 1.15851 0.64747 0.65437
 C218 C 1.16371 0.64188 0.61316
 C219 C 1.13798 0.62023 0.59152
 C220 C 1.10735 0.60286 0.61073
 C221 C 1.10197 0.60808 0.65166
 C222 C 1.12644 0.63130 0.67326
 C223 C 1.13997 0.66515 0.73438
 C224 C 1.11800 0.63981 0.71303
 H225 H 1.13151 0.67187 0.76462
 H226 H 1.09322 0.62776 0.72741
 H227 H 1.18465 0.71376 0.76970
 H228 H 1.26982 0.71593 0.67706
 H229 H 1.14210 0.61686 0.55976
 H230 H 1.07753 0.59555 0.66626
 H231 H 1.23137 0.67524 0.63655
 H232 H 1.18676 0.65495 0.59706
 C233 C 0.67969 0.17438 0.67893
 C234 C 0.66486 0.18871 0.71498
 C235 C 0.68745 0.21180 0.73896
 C236 C 0.72465 0.22212 0.72711
 C237 C 0.74034 0.20403 0.69362
 C238 C 0.71815 0.18120 0.66949
 C239 C 0.65413 0.15151 0.65307
 C240 C 0.66520 0.13900 0.61503
 C241 C 0.64079 0.11709 0.59233
 C242 C 0.60469 0.10709 0.60684
 C243 C 0.59278 0.12041 0.64414
 C244 C 0.61709 0.14281 0.66715
 C245 C 0.62771 0.17963 0.72705
 C246 C 0.60453 0.15675 0.70391
 H247 H 0.61643 0.19024 0.75493
 H248 H 0.57614 0.15030 0.71470
 H249 H 0.67583 0.22164 0.76697
 H250 H 0.76988 0.20829 0.68543
 H251 H 0.65054 0.10754 0.56343
 H252 H 0.56473 0.11320 0.65538
 H253 H 0.73179 0.16894 0.64380
 H254 H 0.69249 0.14592 0.60214
 C255 C 0.68318 0.67514 0.17799
 C256 C 0.67184 0.68427 0.21721
 C257 C 0.69506 0.70704 0.24083
 C258 C 0.72895 0.72270 0.22554
 C259 C 0.74169 0.71024 0.18797
 C260 C 0.71900 0.68741 0.16433
 C261 C 0.65696 0.65197 0.15312
 C262 C 0.66482 0.64309 0.11309
 C263 C 0.64004 0.62069 0.09140
 C264 C 0.60662 0.60675 0.10884
 C265 C 0.59779 0.61636 0.14830
 C266 C 0.62266 0.63885 0.17050
 C267 C 0.63742 0.67064 0.23265
 C268 C 0.61348 0.64821 0.20988
 H269 H 0.62883 0.67742 0.26283
 H270 H 0.58723 0.63826 0.22324
 H271 H 0.68630 0.71330 0.27108
 H272 H 0.76933 0.71824 0.17649
 H273 H 0.64732 0.61396 0.06086
 H274 H 0.57191 0.60585 0.16195
 H275 H 0.73025 0.67952 0.13562
 H276 H 0.68993 0.65308 0.09790
 C277 C 0.82694 -0.17428 0.18576
 C278 C 0.79160 -0.18575 0.17001
 C279 C 0.76780 -0.20948 0.19188
 C280 C 0.78022 -0.22575 0.22753
 C281 C 0.81552 -0.21397 0.24291
 C282 C 0.83851 -0.18880 0.22243
 C283 C 0.85091 -0.14786 0.16215
 C284 C 0.88388 -0.13077 0.17748
 C285 C 0.90584 -0.10717 0.15384
 C286 C 0.89597 -0.10081 0.11423
 C287 C 0.86275 -0.11680 0.09890
 C288 C 0.83951 -0.13927 0.12299
 C289 C 0.78071 -0.17433 0.13202
 C290 C 0.80471 -0.15257 0.10851
 H291 H 0.75378 -0.18340 0.11971
 H292 H 0.79556 -0.14548 0.07882
 H293 H 0.73977 -0.21602 0.18052
 H294 H 0.82543 -0.22387 0.27129
 H295 H 0.93129 -0.09471 0.16618
 H296 H 0.85468 -0.11114 0.06848
 H297 H 0.86549 -0.18152 0.23553
 H298 H 0.89296 -0.13502 0.20767
 C299 C 0.82157 0.32600 0.68580
 C300 C 0.79079 0.30807 0.66679
 C301 C 0.76674 0.28430 0.68844
 C302 C 0.77500 0.27475 0.72810
 C303 C 0.80570 0.29306 0.74662
 C304 C 0.82859 0.31812 0.72597
 C305 C 0.84596 0.35191 0.66197
 C306 C 0.87420 0.37454 0.67922
 C307 C 0.89691 0.39743 0.65561
 C308 C 0.89262 0.39777 0.61425
 C309 C 0.86400 0.37613 0.59676
 C310 C 0.83993 0.35408 0.62047
 C311 C 0.78483 0.31315 0.62602
 C312 C 0.80954 0.33477 0.60314
 H313 H 0.76143 0.29919 0.61128
 H314 H 0.80441 0.33688 0.57150
 H315 H 0.74180 0.27311 0.67391
 H316 H 0.81224 0.28772 0.77745
 H317 H 0.91866 0.41424 0.66968
 H318 H 0.86004 0.37705 0.56484
 H319 H 0.85211 0.33040 0.74180
 H320 H 0.87897 0.37521 0.71086
 C321 C 0.32304 -0.17280 0.68356
 C322 C 0.28916 -0.18676 0.66655
 C323 C 0.26573 -0.21102 0.68820
 C324 C 0.27626 -0.22319 0.72631
 C325 C 0.30776 -0.20581 0.74437
 C326 C 0.33113 -0.18158 0.72327
 C327 C 0.34835 -0.14858 0.65881
 C328 C 0.38394 -0.13544 0.67210
 C329 C 0.40631 -0.11262 0.64808
 C330 C 0.39390 -0.10244 0.61022
 C331 C 0.35896 -0.11607 0.59629
 C332 C 0.33626 -0.13913 0.62015
 C333 C 0.27884 -0.17645 0.62804
 C334 C 0.30173 -0.15289 0.60546
 H335 H 0.25268 -0.18683 0.61510
 H336 H 0.29248 -0.14569 0.57584
 H337 H 0.23940 -0.22056 0.67503
 H338 H 0.31489 -0.21170 0.77495
 H339 H 0.43331 -0.10265 0.65936
 H340 H 0.34928 -0.10857 0.56690
 H341 H 0.35527 -0.17001 0.73867
 H342 H 0.39512 -0.14254 0.70081
 C343 C 0.33157 0.31816 0.18171
 C344 C 0.30733 0.29306 0.16164
 C345 C 0.28332 0.26925 0.18340
 C346 C 0.28028 0.27245 0.22518
 C347 C 0.30512 0.29736 0.24457
 C348 C 0.33023 0.31971 0.22342
 C349 C 0.35656 0.34320 0.15766
 C350 C 0.38414 0.36651 0.17497
 C351 C 0.40514 0.39101 0.15169
 C352 C 0.39898 0.39320 0.11069
 C353 C 0.37279 0.36902 0.09275
 C354 C 0.35214 0.34349 0.11588
 C355 C 0.30617 0.29287 0.11997
 C356 C 0.32734 0.31820 0.09763
 H357 H 0.28751 0.27379 0.10443
 H358 H 0.32441 0.31785 0.06557
 H359 H 0.26704 0.24879 0.16728
 H360 H 0.30437 0.30006 0.27666
 H361 H 0.42561 0.40904 0.16610
 H362 H 0.36864 0.36999 0.06086
 H363 H 0.34742 0.33880 0.24037
 H364 H 0.39002 0.36629 0.20639
 C365 C 0.81740 0.17046 -0.17732
 C366 C 0.83100 0.18304 -0.21449
 C367 C 0.80956 0.20832 -0.23646
 C368 C 0.77385 0.22092 -0.22257
 C369 C 0.75855 0.20408 -0.18825
 C370 C 0.78032 0.18018 -0.16531
 C371 C 0.84261 0.14621 -0.15309
 C372 C 0.83492 0.13785 -0.11292
 C373 C 0.86006 0.11610 -0.09118
 C374 C 0.89264 0.10135 -0.10936
 C375 C 0.90060 0.10942 -0.14923
 C376 C 0.87661 0.13282 -0.17073
 C377 C 0.86553 0.16969 -0.22987
 C378 C 0.88727 0.14423 -0.20896
 H379 H 0.87565 0.17867 -0.25876
 H380 H 0.91352 0.13436 -0.22234
 H381 H 0.82064 0.21781 -0.26475
 H382 H 0.72976 0.21009 -0.17858
 H383 H 0.85397 0.11057 -0.06016
 H384 H 0.92651 0.09894 -0.16287
 H385 H 0.76747 0.16898 -0.13871
 H386 H 0.81028 0.14881 -0.09759
 C387 C 0.81763 0.67042 0.32461
 C388 C 0.82771 0.67639 0.28443
 C389 C 0.80718 0.70176 0.26165
 C390 C 0.77596 0.72125 0.27792
 C391 C 0.76348 0.71141 0.31639
 C392 C 0.78445 0.68718 0.33972
 C393 C 0.84221 0.64567 0.34898
 C394 C 0.83843 0.64285 0.39060
 C395 C 0.86320 0.62070 0.41226
 C396 C 0.89159 0.60019 0.39287
 C397 C 0.89541 0.60244 0.35145
 C398 C 0.87181 0.62596 0.32959
 C399 C 0.85785 0.65662 0.26710
 C400 C 0.87878 0.63120 0.28895
 H401 H 0.86517 0.66061 0.23606
 H402 H 0.90165 0.61640 0.27412
 H403 H 0.81559 0.70649 0.23104
 H404 H 0.73736 0.72242 0.32880
 H405 H 0.86024 0.61964 0.44432
 H406 H 0.91810 0.58742 0.33653
 H407 H 0.77384 0.68131 0.36921
 H408 H 0.81735 0.65845 0.40702
 C409 C 0.33079 0.18000 0.31926
 C410 C 0.30700 0.20512 0.34002
 C411 C 0.28314 0.22918 0.31893
 C412 C 0.27986 0.22630 0.27720
 C413 C 0.30407 0.20119 0.25716
 C414 C 0.32901 0.17858 0.27760
 C415 C 0.35581 0.15484 0.34258
 C416 C 0.38312 0.13164 0.32452
 C417 C 0.40426 0.10715 0.34722
 C418 C 0.39847 0.10484 0.38835
 C419 C 0.37250 0.12886 0.40698
 C420 C 0.35177 0.15441 0.38446
 C421 C 0.30620 0.20510 0.38171
 C422 C 0.32732 0.17963 0.40341
 H423 H 0.28787 0.22414 0.39780
 H424 H 0.32469 0.17986 0.43553
 H425 H 0.26719 0.24961 0.33553
 H426 H 0.30304 0.19861 0.22507
 H427 H 0.42455 0.08922 0.33231
 H428 H 0.36863 0.12781 0.43897
 H429 H 0.34576 0.15943 0.26018
 H430 H 0.38869 0.13197 0.29296
 C431 C 0.32468 0.67366 -0.18235
 C432 C 0.28749 0.68180 -0.16859
 C433 C 0.26395 0.70528 -0.19056
 C434 C 0.27747 0.72279 -0.22527
 C435 C 0.31317 0.71154 -0.24042
 C436 C 0.33659 0.68796 -0.21916
 C437 C 0.34942 0.64943 -0.15755
 C438 C 0.38731 0.64083 -0.16808
 C439 C 0.40901 0.61765 -0.14433
 C440 C 0.39371 0.60274 -0.10935
 C441 C 0.35635 0.61178 -0.09804
 C442 C 0.33414 0.63491 -0.12185
 C443 C 0.27402 0.66650 -0.13299
 C444 C 0.29681 0.64347 -0.11018
 H445 H 0.24545 0.67253 -0.12251
 H446 H 0.28507 0.63234 -0.08286
 H447 H 0.23519 0.71041 -0.18016
 H448 H 0.32332 0.72111 -0.26902
 H449 H 0.43788 0.61125 -0.15353
 H450 H 0.34432 0.60042 -0.07096
 H451 H 0.36377 0.68117 -0.23231
 H452 H 0.40079 0.65162 -0.19446
 C453 C 1.17817 -0.17513 -0.18229
 C454 C 1.20922 -0.19203 -0.16314
 C455 C 1.23386 -0.21536 -0.18475
 C456 C 1.22587 -0.22549 -0.22444
 C457 C 1.19476 -0.20836 -0.24297
 C458 C 1.17131 -0.18377 -0.22239
 C459 C 1.15332 -0.14944 -0.15872
 C460 C 1.12504 -0.12755 -0.17632
 C461 C 1.10181 -0.10485 -0.15301
 C462 C 1.10566 -0.10396 -0.11162
 C463 C 1.13437 -0.12479 -0.09376
 C464 C 1.15897 -0.14663 -0.11719
 C465 C 1.21482 -0.18631 -0.12232
 C466 C 1.18954 -0.16503 -0.09961
 H467 H 1.23838 -0.19950 -0.10743
 H468 H 1.19439 -0.16241 -0.06793
 H469 H 1.25905 -0.22567 -0.17027
 H470 H 1.18842 -0.21410 -0.27386
 H471 H 1.08003 -0.08862 -0.16734
 H472 H 1.13800 -0.12336 -0.06179
 H473 H 1.14754 -0.17241 -0.23828
 H474 H 1.12063 -0.12727 -0.20802
 C475 C 1.17681 0.32462 0.31882
 C476 C 1.17919 0.28678 0.32894
 C477 C 1.20248 0.26272 0.30647
 C478 C 1.22587 0.27609 0.27541
 C479 C 1.22090 0.31335 0.26410
 C480 C 1.19731 0.33716 0.28553
 C481 C 1.15223 0.34966 0.34373
 C482 C 1.14780 0.38766 0.33572
 C483 C 1.12437 0.40976 0.35960
 C484 C 1.10513 0.39478 0.39237
 C485 C 1.10966 0.35709 0.40099
 C486 C 1.13273 0.33442 0.37677
 C487 C 1.15865 0.27332 0.36168
 C488 C 1.13610 0.29664 0.38519
 H489 H 1.16035 0.24435 0.36954
 H490 H 1.12103 0.28488 0.41036
 H491 H 1.20337 0.23362 0.31394
 H492 H 1.23485 0.32468 0.23814
 H493 H 1.12134 0.43875 0.35238
 H494 H 1.09464 0.34518 0.42613
 H495 H 1.19560 0.36529 0.27533
 H496 H 1.16195 0.40095 0.31110
 C497 C 0.68526 -0.17359 0.32279
 C498 C 0.67137 -0.18712 0.28611
 C499 C 0.69363 -0.21127 0.26293
 C500 C 0.72925 -0.22384 0.27639
 C501 C 0.74431 -0.20693 0.31075
 C502 C 0.72256 -0.18278 0.33394
 C503 C 0.65992 -0.14937 0.34765
 C504 C 0.67016 -0.13660 0.38579
 C505 C 0.64578 -0.11375 0.40763
 C506 C 0.61054 -0.10316 0.39217
 C507 C 0.59960 -0.11643 0.35466
 C508 C 0.62390 -0.13953 0.33243
 C509 C 0.63538 -0.17645 0.27274
 C510 C 0.61228 -0.15292 0.29526
 H511 H 0.62485 -0.18652 0.24444
 H512 H 0.58470 -0.14544 0.28358
 H513 H 0.68288 -0.22046 0.23441
 H514 H 0.77293 -0.21309 0.32032
 H515 H 0.65474 -0.10410 0.43666
 H516 H 0.57227 -0.10859 0.34260
 H517 H 0.73558 -0.17157 0.36036
 H518 H 0.69675 -0.14399 0.39939
 C519 C 0.68135 0.32411 -0.17381
 C520 C 0.67128 0.31654 -0.21367
 C521 C 0.69396 0.29295 -0.23710
 C522 C 0.72574 0.27474 -0.22101
 C523 C 0.73728 0.28524 -0.18248
 C524 C 0.71527 0.30900 -0.15910
 C525 C 0.65585 0.34855 -0.14934
 C526 C 0.66287 0.35681 -0.10906
 C527 C 0.63875 0.38029 -0.08773
 C528 C 0.60680 0.39588 -0.10576
 C529 C 0.59889 0.38712 -0.14554
 C530 C 0.62319 0.36371 -0.16745
 C531 C 0.63860 0.33243 -0.22987
 C532 C 0.61512 0.35558 -0.20729
 H533 H 0.63096 0.32678 -0.26049
 H534 H 0.59017 0.36717 -0.22121
 H535 H 0.68634 0.28798 -0.26785
 H536 H 0.76356 0.27516 -0.17007
 H537 H 0.64530 0.38643 -0.05696
 H538 H 0.57421 0.39906 -0.15971
 H539 H 0.72554 0.31528 -0.12968
 H540 H 0.68682 0.34557 -0.09341
 C541 C 1.17464 0.17593 -0.18534
 C542 C 1.21043 0.18645 -0.16993
 C543 C 1.23439 0.21014 -0.19174
 C544 C 1.22175 0.22723 -0.22684
 C545 C 1.18584 0.21656 -0.24167
 C546 C 1.16269 0.19150 -0.22133
 C547 C 1.15062 0.14929 -0.16212
 C548 C 1.11731 0.13291 -0.17752
 C549 C 1.09531 0.10905 -0.15427
 C550 C 1.10551 0.10170 -0.11498
 C551 C 1.13909 0.11694 -0.09960
 C552 C 1.16237 0.13967 -0.12337
 C553 C 1.22162 0.17406 -0.13240
 C554 C 1.19755 0.15218 -0.10907
 H555 H 1.24887 0.18243 -0.12030
 H556 H 1.20696 0.14430 -0.07971
 H557 H 1.26277 0.21587 -0.18083
 H558 H 1.17561 0.22711 -0.26964
 H559 H 1.06959 0.09715 -0.16663
 H560 H 1.14738 0.11049 -0.06944
 H561 H 1.13532 0.18506 -0.23403
 H562 H 1.10799 0.13789 -0.20750
 C563 C 1.17155 0.68326 0.32077
 C564 C 1.18969 0.66811 0.28687
 C565 C 1.21385 0.69018 0.26337
 C566 C 1.22174 0.72770 0.27338
 C567 C 1.19962 0.74319 0.30464
 C568 C 1.17577 0.72138 0.32836
 C569 C 1.14769 0.65819 0.34633
 C570 C 1.13138 0.66977 0.38266
 C571 C 1.10931 0.64547 0.40535
 C572 C 1.10274 0.60900 0.39248
 C573 C 1.11943 0.59691 0.35670
 C574 C 1.14217 0.62105 0.33386
 C575 C 1.18339 0.63100 0.27631
 C576 C 1.15976 0.60814 0.29898
 H577 H 1.19690 0.61941 0.24999
 H578 H 1.15573 0.57972 0.28939
 H579 H 1.22605 0.67768 0.23691
 H580 H 1.20179 0.77241 0.31163
 H581 H 1.09702 0.65550 0.43298
 H582 H 1.11490 0.56867 0.34670
 H583 H 1.16071 0.73498 0.35234
 H584 H 1.13559 0.69736 0.39426
 C585 C 0.67346 0.17697 0.31630
 C586 C 0.69055 0.20755 0.33554
 C587 C 0.71364 0.23214 0.31382
 C588 C 0.72362 0.22486 0.27367
 C589 C 0.70613 0.19403 0.25524
 C590 C 0.68181 0.17052 0.27601
 C591 C 0.64754 0.15239 0.33981
 C592 C 0.62517 0.12446 0.32209
 C593 C 0.60234 0.10149 0.34536
 C594 C 0.60180 0.10533 0.38678
 C595 C 0.62296 0.13375 0.40476
 C596 C 0.64493 0.15799 0.38141
 C597 C 0.68500 0.21303 0.37648
 C598 C 0.66365 0.18810 0.39915
 H599 H 0.69834 0.23628 0.39146
 H600 H 0.66116 0.19288 0.43091
 H601 H 0.72299 0.25726 0.32842
 H602 H 0.71042 0.18807 0.22409
 H603 H 0.58584 0.07991 0.33095
 H604 H 0.62177 0.13731 0.43679
 H605 H 0.67017 0.14722 0.25995
 H606 H 0.62462 0.12007 0.29036
 C607 C 0.67931 0.67415 -0.18005
 C608 C 0.66393 0.68885 -0.21525
 C609 C 0.68556 0.71348 -0.23841
 C610 C 0.72225 0.72493 -0.22645
 C611 C 0.73862 0.70663 -0.19394
 C612 C 0.71742 0.68222 -0.17071
 C613 C 0.65462 0.64985 -0.15477
 C614 C 0.66619 0.63687 -0.11741
 C615 C 0.64240 0.61406 -0.09501
 C616 C 0.60647 0.60358 -0.10916
 C617 C 0.59418 0.61707 -0.14589
 C618 C 0.61782 0.64041 -0.16857
 C619 C 0.62714 0.67877 -0.22718
 C620 C 0.60477 0.65467 -0.20460
 H621 H 0.61546 0.68964 -0.25444
 H622 H 0.57657 0.64760 -0.21519
 H623 H 0.67356 0.72379 -0.26573
 H624 H 0.76786 0.71201 -0.18569
 H625 H 0.65242 0.60431 -0.06657
 H626 H 0.56624 0.60946 -0.15683
 H627 H 0.73152 0.66988 -0.14573
 H628 H 0.69333 0.64420 -0.10474
 C629 C 0.81380 -0.17138 -0.17669
 C630 C 0.82220 -0.17596 -0.21757
 C631 C 0.80054 -0.20054 -0.24078
 C632 C 0.76982 -0.22057 -0.22422
 C633 C 0.75906 -0.21216 -0.18469
 C634 C 0.78116 -0.18874 -0.16103
 C635 C 0.83938 -0.14724 -0.15216
 C636 C 0.83716 -0.14558 -0.11030
 C637 C 0.86252 -0.12356 -0.08866
 C638 C 0.88998 -0.10207 -0.10825
 C639 C 0.89240 -0.10339 -0.14986
 C640 C 0.86817 -0.12668 -0.17180
 C641 C 0.85176 -0.15553 -0.23512
 C642 C 0.87360 -0.13068 -0.21291
 H643 H 0.85782 -0.15847 -0.26662
 H644 H 0.89588 -0.11523 -0.22795
 H645 H 0.80760 -0.20419 -0.27197
 H646 H 0.73339 -0.22360 -0.17170
 H647 H 0.86062 -0.12323 -0.05650
 H648 H 0.91436 -0.08760 -0.16503
 H649 H 0.77181 -0.18392 -0.13081
 H650 H 0.81677 -0.16189 -0.09377
 C651 C 0.82036 0.32783 0.31975
 C652 C 0.81481 0.29080 0.33156
 C653 C 0.79205 0.26683 0.30864
 C654 C 0.77341 0.27879 0.27378
 C655 C 0.77927 0.31625 0.26309
 C656 C 0.80207 0.34006 0.28539
 C657 C 0.84533 0.35249 0.34449
 C658 C 0.85383 0.38939 0.33419
 C659 C 0.87790 0.41096 0.35776
 C660 C 0.89393 0.39650 0.39231
 C661 C 0.88531 0.35996 0.40318
 C662 C 0.86153 0.33781 0.37938
 C663 C 0.83178 0.27792 0.36640
 C664 C 0.85442 0.30098 0.38992
 H665 H 0.82743 0.24956 0.37571
 H666 H 0.86686 0.28966 0.41659
 H667 H 0.78822 0.23873 0.31888
 H668 H 0.76645 0.32847 0.23749
 H669 H 0.88418 0.43905 0.34873
 H670 H 0.89782 0.34843 0.42972
 H671 H 0.80474 0.36813 0.27509
 H672 H 0.84267 0.40208 0.30784
 C673 C 0.32881 -0.18271 0.31718
 C674 C 0.30587 -0.20900 0.33706
 C675 C 0.28117 -0.23221 0.31537
 C676 C 0.27546 -0.22714 0.27402
 C677 C 0.29957 -0.20115 0.25482
 C678 C 0.32551 -0.17948 0.27578
 C679 C 0.35467 -0.15843 0.34128
 C680 C 0.38130 -0.13408 0.32390
 C681 C 0.40334 -0.11063 0.34751
 C682 C 0.39906 -0.11039 0.38895
 C683 C 0.37369 -0.13546 0.40678
 C684 C 0.35218 -0.16009 0.38326
 C685 C 0.30669 -0.21108 0.37868
 C686 C 0.32853 -0.18648 0.40131
 H687 H 0.28902 -0.23110 0.39411
 H688 H 0.32708 -0.18835 0.43343
 H689 H 0.26637 -0.25377 0.33140
 H690 H 0.29757 -0.19693 0.22304
 H691 H 0.42308 -0.09180 0.33314
 H692 H 0.37097 -0.13599 0.43890
 H693 H 0.34184 -0.15955 0.25904
 H694 H 0.38564 -0.13274 0.29217
 C695 C 0.32291 0.32568 -0.18201
 C696 C 0.28822 0.31294 -0.16537
 C697 C 0.26410 0.28978 -0.18763
 C698 C 0.27446 0.27778 -0.22620
 C699 C 0.30715 0.29377 -0.24364
 C700 C 0.33131 0.31671 -0.22184
 C701 C 0.34853 0.34926 -0.15690
 C702 C 0.38475 0.36120 -0.16987
 C703 C 0.40716 0.38395 -0.14582
 C704 C 0.39417 0.39528 -0.10820
 C705 C 0.35868 0.38258 -0.09441
 C706 C 0.33593 0.35956 -0.11833
 C707 C 0.27761 0.32369 -0.12677
 C708 C 0.30077 0.34680 -0.10391
 H709 H 0.25087 0.31423 -0.11407
 H710 H 0.29115 0.35454 -0.07433
 H711 H 0.23713 0.28136 -0.17476
 H712 H 0.31444 0.28795 -0.27437
 H713 H 0.43460 0.39309 -0.15699
 H714 H 0.34857 0.39089 -0.06517
 H715 H 0.35618 0.32737 -0.23692
 H716 H 0.39637 0.35329 -0.19843
 C717 C 1.17278 -0.17521 0.18489
 C718 C 1.17502 -0.21319 0.17490
 C719 C 1.19817 -0.23699 0.19715
 C720 C 1.22197 -0.22335 0.22787
 C721 C 1.21643 -0.18591 0.23945
 C722 C 1.19289 -0.16237 0.21819
 C723 C 1.14877 -0.15039 0.15975
 C724 C 1.14490 -0.11213 0.16723
 C725 C 1.12218 -0.09022 0.14301
 C726 C 1.10307 -0.10564 0.11043
 C727 C 1.10704 -0.14362 0.10237
 C728 C 1.12945 -0.16607 0.12689
 C729 C 1.15461 -0.22709 0.14238
 C730 C 1.13246 -0.20405 0.11882
 H731 H 1.15616 -0.25621 0.13468
 H732 H 1.11752 -0.21616 0.09380
 H733 H 1.19903 -0.26614 0.18938
 H734 H 1.23010 -0.17419 0.26537
 H735 H 1.11961 -0.06100 0.14983
 H736 H 1.09217 -0.15588 0.07737
 H737 H 1.19095 -0.13413 0.22848
 H738 H 1.15905 -0.09850 0.19162
 C739 C 1.18399 0.33107 0.67707
 C740 C 1.17571 0.32625 0.71787
 C741 C 1.19655 0.30075 0.74016
 C742 C 1.22626 0.27993 0.72274
 C743 C 1.23713 0.28853 0.68341
 C744 C 1.21584 0.31297 0.66065
 C745 C 1.15892 0.35593 0.65340
 C746 C 1.16081 0.35779 0.61159
 C747 C 1.13548 0.37994 0.59066
 C748 C 1.10840 0.40139 0.61091
 C749 C 1.10656 0.40021 0.65252
 C750 C 1.13073 0.37674 0.67376
 C751 C 1.14700 0.34718 0.73624
 C752 C 1.12564 0.37260 0.71484
 H753 H 1.14111 0.34406 0.76772
 H754 H 1.10388 0.38827 0.73045
 H755 H 1.18949 0.29686 0.77127
 H756 H 1.26223 0.27648 0.66989
 H757 H 1.13694 0.38019 0.55847
 H758 H 1.08490 0.41600 0.66818
 H759 H 1.22517 0.31789 0.63050
 H760 H 1.18074 0.34140 0.59451
 C761 C 0.67412 -0.17048 0.68273
 C762 C 0.70836 -0.18373 0.66560
 C763 C 0.73171 -0.20785 0.68698
 C764 C 0.72101 -0.22037 0.72510
 C765 C 0.68883 -0.20403 0.74316
 C766 C 0.66540 -0.18009 0.72223
 C767 C 0.64922 -0.14594 0.65839
 C768 C 0.61345 -0.13324 0.67181
 C769 C 0.59154 -0.11003 0.64821
 C770 C 0.60462 -0.09899 0.61065
 C771 C 0.63979 -0.11212 0.59660
 C772 C 0.66200 -0.13560 0.62002
 C773 C 0.71927 -0.17267 0.62733
 C774 C 0.69675 -0.14887 0.60517
 H775 H 0.74568 -0.18253 0.61430
 H776 H 0.70653 -0.14103 0.57576
 H777 H 0.75836 -0.21671 0.67372
 H778 H 0.68135 -0.21035 0.77366
 H779 H 0.56436 -0.10047 0.65960
 H780 H 0.64999 -0.10398 0.56744
 H781 H 0.64082 -0.16924 0.73766
 H782 H 0.60177 -0.14096 0.70031
 C783 C 0.67028 0.32165 0.17883
 C784 C 0.70766 0.31468 0.16504
 C785 C 0.73215 0.29239 0.18715
 C786 C 0.72015 0.27537 0.22288
 C787 C 0.68297 0.28352 0.23662
 C788 C 0.65848 0.30583 0.21495
 C789 C 0.64537 0.34656 0.15494
 C790 C 0.60795 0.35598 0.16657
 C791 C 0.58655 0.38056 0.14409
 C792 C 0.60171 0.39605 0.10934
 C793 C 0.63846 0.38610 0.09687
 C794 C 0.66043 0.36182 0.11947
 C795 C 0.72071 0.33040 0.12951
 C796 C 0.69756 0.35337 0.10714
 H797 H 0.74938 0.32500 0.11888
 H798 H 0.70907 0.36503 0.07997
 H799 H 0.76130 0.28907 0.17702
 H800 H 0.67235 0.27319 0.26464
 H801 H 0.55815 0.38773 0.15418
 H802 H 0.65042 0.39798 0.07001
 H803 H 0.63055 0.31063 0.22739
 H804 H 0.59480 0.34509 0.19309
 C805 C 0.82020 0.17771 0.17416
 C806 C 0.82916 0.18459 0.21433
 C807 C 0.80701 0.20927 0.23708
 C808 C 0.77468 0.22702 0.22127
 C809 C 0.76432 0.21655 0.18209
 C810 C 0.78698 0.19332 0.15875
 C811 C 0.84535 0.15242 0.15040
 C812 C 0.84199 0.14802 0.10891
 C813 C 0.86665 0.12469 0.08794
 C814 C 0.89457 0.10463 0.10791
 C815 C 0.89818 0.10868 0.14917
 C816 C 0.87459 0.13328 0.17031
 C817 C 0.85941 0.16577 0.23206
 C818 C 0.88100 0.13996 0.21078
 H819 H 0.86605 0.17051 0.26310
 H820 H 0.90369 0.12571 0.22601
 H821 H 0.81485 0.21310 0.26757
 H822 H 0.73757 0.22490 0.16937
 H823 H 0.86395 0.12232 0.05596
 H824 H 0.92059 0.09404 0.16447
 H825 H 0.77714 0.18667 0.12922
 H826 H 0.82125 0.16314 0.09203
 C827 C 0.81564 0.67678 0.67734
 C828 C 0.82884 0.68975 0.71450
 C829 C 0.80726 0.71539 0.73653
 C830 C 0.77161 0.72780 0.72294
 C831 C 0.75705 0.71132 0.68807
 C832 C 0.77904 0.68713 0.66502
 C833 C 0.84055 0.65119 0.65362
 C834 C 0.83309 0.64166 0.61370
 C835 C 0.85784 0.61850 0.59251
 C836 C 0.88979 0.60350 0.61098
 C837 C 0.89752 0.61269 0.65063
 C838 C 0.87392 0.63742 0.67158
 C839 C 0.86288 0.67611 0.73008
 C840 C 0.88435 0.64969 0.70958
 H841 H 0.87271 0.68547 0.75893
 H842 H 0.91015 0.63956 0.72317
 H843 H 0.81790 0.72477 0.76502
 H844 H 0.72839 0.71724 0.67843
 H845 H 0.85201 0.61220 0.56160
 H846 H 0.92302 0.60207 0.66446
 H847 H 0.76650 0.67592 0.63830
 H848 H 0.80897 0.65273 0.59810
 C849 C 0.31471 0.17348 0.67614
 C850 C 0.32967 0.18737 0.71220
 C851 C 0.30809 0.21170 0.73585
 C852 C 0.27204 0.22410 0.72348
 C853 C 0.25592 0.20679 0.68988
 C854 C 0.27703 0.18245 0.66620
 C855 C 0.33944 0.14921 0.65062
 C856 C 0.32818 0.13610 0.61292
 C857 C 0.35218 0.11338 0.59038
 C858 C 0.38799 0.10325 0.60473
 C859 C 0.39984 0.11677 0.64183
 C860 C 0.37600 0.13975 0.66470
 C861 C 0.36610 0.17697 0.72446
 C862 C 0.38865 0.15343 0.70138
 H863 H 0.37745 0.18731 0.75231
 H864 H 0.41664 0.14621 0.71218
 H865 H 0.31975 0.22120 0.76385
 H866 H 0.22703 0.21289 0.68119
 H867 H 0.34248 0.10348 0.56171
 H868 H 0.42762 0.10929 0.65305
 H869 H 0.26326 0.17099 0.64032
 H870 H 0.30109 0.14317 0.60019
 C871 C 0.32244 0.68470 0.17503
 C872 C 0.32116 0.68011 0.21664
 C873 C 0.29652 0.70177 0.23998
 C874 C 0.27274 0.72905 0.22305
 C875 C 0.27793 0.73596 0.18190
 C876 C 0.30149 0.71367 0.15829
 C877 C 0.34714 0.65925 0.15082
 C878 C 0.34625 0.65793 0.10893
 C879 C 0.36891 0.63279 0.08779
 C880 C 0.39353 0.60901 0.10781
 C881 C 0.39484 0.61022 0.14944
 C882 C 0.37107 0.63431 0.17104
 C883 C 0.34492 0.65431 0.23486
 C884 C 0.37001 0.63253 0.21262
 H885 H 0.34442 0.65118 0.26689
 H886 H 0.38805 0.61323 0.22815
 H887 H 0.29557 0.69738 0.27185
 H888 H 0.26456 0.75903 0.16740
 H889 H 0.36719 0.63194 0.05565
 H890 H 0.41311 0.59118 0.16510
 H891 H 0.30373 0.72018 0.12709
 H892 H 0.32748 0.67534 0.09209
   
