data_POSCAR
  _audit_creation_date              2014-09-24
  _audit_creation_method            'ToBaCCo'
  _symmetry_space_group_name_H-M    'P1'
  _symmetry_Int_Tables_number       1
  _symmetry_cell_setting            triclinic
  loop_
  _symmetry_equiv_pos_as_xyz
 x,y,z
_cell_length_a 46.4889
_cell_length_b 46.0623
_cell_length_c 46.7977
_cell_angle_alpha 90.554400
_cell_angle_beta 89.728600
_cell_angle_gamma 90.604000
loop_
  _atom_site_label
  _atom_site_type_symbol
  _atom_site_fract_x
  _atom_site_fract_y
  _atom_site_fract_z
N1 N 0.13081 0.14561 0.21166
 N2 N 0.14783 0.12375 0.20589
 C3 C 0.14329 0.10265 0.22511
 C4 C 0.12263 0.11193 0.24454
 C5 C 0.11532 0.13951 0.23530
 H6 H 0.15510 0.08261 0.22562
 H7 H 0.09926 0.15370 0.24444
 Cu8 Cu 0.17606 0.12652 0.17548
 Cu9 Cu 0.12889 0.17921 0.18642
 Cu10 Cu 0.18910 0.18941 0.14265
 N11 N 0.20472 0.12933 0.14547
 N12 N 0.21228 0.15463 0.13490
 C13 C 0.23609 0.15117 0.11858
 C14 C 0.24290 0.12180 0.11797
 C15 C 0.22227 0.10874 0.13513
 H16 H 0.24693 0.16849 0.10722
 H17 H 0.22137 0.08621 0.14130
 N18 N 0.15635 0.21697 0.14444
 N19 N 0.13322 0.21237 0.16038
 C20 C 0.11309 0.23193 0.15376
 C21 C 0.12392 0.24993 0.13275
 C22 C 0.15153 0.23998 0.12748
 H23 H 0.09168 0.23247 0.16286
 H24 H 0.16617 0.24764 0.11112
 H25 H 0.15238 0.16475 0.15040
 H26 H 0.17205 0.17886 0.18253
 N27 N -0.15051 0.83276 0.22120
 N28 N -0.17581 0.84540 0.22329
 C29 C -0.17742 0.85943 0.24861
 C30 C -0.15193 0.85542 0.26317
 C31 C -0.13539 0.83835 0.24510
 H32 H -0.19543 0.87246 0.25548
 H33 H -0.11402 0.83031 0.24910
 Cu34 Cu -0.20438 0.84502 0.19212
 Cu35 Cu -0.13888 0.80916 0.18791
 Cu36 Cu -0.18373 0.81062 0.13256
 N37 N -0.22251 0.85222 0.15528
 N38 N -0.21321 0.83980 0.13167
 C39 C -0.22865 0.84907 0.10943
 C40 C -0.24946 0.86798 0.11962
 C41 C -0.24490 0.86929 0.14900
 H42 H -0.22570 0.84146 0.08771
 H43 H -0.25650 0.88202 0.16470
 N44 N -0.15943 0.77744 0.13913
 N45 N -0.14047 0.77749 0.15989
 C46 C -0.12511 0.75288 0.15828
 C47 C -0.13569 0.73637 0.13575
 C48 C -0.15742 0.75255 0.12408
 H49 H -0.10809 0.74712 0.17279
 H50 H -0.17031 0.74692 0.10560
 H51 H -0.16607 0.84144 0.17150
 H52 H -0.18199 0.80665 0.18453
 N53 N -0.13901 0.15561 -0.21359
 N54 N -0.14299 0.13128 -0.19956
 C55 C -0.13641 0.10873 -0.21674
 C56 C -0.12810 0.11938 -0.24308
 C57 C -0.12993 0.14928 -0.24028
 H58 H -0.13876 0.08622 -0.21078
 H59 H -0.12479 0.16524 -0.25633
 Cu60 Cu -0.16020 0.13015 -0.16165
 Cu61 Cu -0.14514 0.19362 -0.19577
 Cu62 Cu -0.18846 0.19244 -0.13682
 N63 N -0.19213 0.13050 -0.13474
 N64 N -0.20497 0.15472 -0.12739
 C65 C -0.22970 0.14828 -0.11371
 C66 C -0.23239 0.11823 -0.11203
 C67 C -0.20775 0.10778 -0.12525
 H68 H -0.24464 0.16437 -0.10593
 H69 H -0.20272 0.08539 -0.13005
 N70 N -0.16826 0.22772 -0.14894
 N71 N -0.15241 0.22850 -0.17235
 C72 C -0.13940 0.25467 -0.17411
 C73 C -0.14714 0.27098 -0.15037
 C74 C -0.16546 0.25319 -0.13485
 H75 H -0.12360 0.26055 -0.19014
 H76 H -0.17493 0.25793 -0.11419
 H77 H -0.14635 0.17916 -0.15607
 H78 H -0.17912 0.17290 -0.17950
 N79 N 0.14192 0.85391 -0.22314
 N80 N 0.16603 0.86873 -0.22606
 C81 C 0.16651 0.88150 -0.25178
 C82 C 0.14107 0.87467 -0.26560
 C83 C 0.12583 0.85727 -0.24670
 H84 H 0.18352 0.89566 -0.25940
 H85 H 0.10473 0.84767 -0.24986
 Cu86 Cu 0.19309 0.87209 -0.19489
 Cu87 Cu 0.13397 0.83158 -0.18871
 Cu88 Cu 0.19562 0.81674 -0.14941
 N89 N 0.21667 0.87408 -0.16101
 N90 N 0.22020 0.85145 -0.14457
 C91 C 0.24078 0.85786 -0.12516
 C92 C 0.24970 0.88654 -0.12911
 C93 C 0.23363 0.89601 -0.15200
 H94 H 0.24792 0.84310 -0.10886
 H95 H 0.23525 0.91678 -0.16249
 N96 N 0.16015 0.79243 -0.14790
 N97 N 0.13629 0.79955 -0.16125
 C98 C 0.11524 0.78065 -0.15426
 C99 C 0.12633 0.76041 -0.13588
 C100 C 0.15493 0.76839 -0.13234
 H101 H 0.09352 0.78118 -0.16240
 H102 H 0.17044 0.75810 -0.11869
 H103 H 0.16505 0.84558 -0.15934
 H104 H 0.17642 0.82187 -0.18976
 N105 N 0.14322 1.11891 0.79353
 N106 N 0.13081 1.14385 0.78848
 C107 C 0.11244 1.14042 0.76651
 C108 C 0.11302 1.11161 0.75784
 C109 C 0.13274 1.09860 0.77547
 H110 H 0.09886 1.15728 0.75821
 H111 H 0.13936 1.07618 0.77492
 Cu112 Cu 0.13760 1.17774 0.81279
 Cu113 Cu 0.17159 1.11439 0.82343
 Cu114 Cu 0.19105 1.17621 0.86061
 N115 N 0.13877 1.20418 0.84552
 N116 N 0.15908 1.20252 0.86486
 C117 C 0.15398 1.22183 0.88592
 C118 C 0.12927 1.23658 0.87929
 C119 C 0.12024 1.22508 0.85338
 H120 H 0.16749 1.22516 0.90446
 H121 H 0.10134 1.23102 0.84148
 N122 N 0.21346 1.14066 0.86176
 N123 N 0.20559 1.11654 0.84840
 C124 C 0.22434 1.09551 0.85478
 C125 C 0.24500 1.10719 0.87284
 C126 C 0.23749 1.13588 0.87675
 H127 H 0.22327 1.07353 0.84655
 H128 H 0.24805 1.15177 0.89042
 H129 H 0.15848 1.14842 0.85028
 H130 H 0.18444 1.15629 0.82054
 N131 N 0.83795 0.85301 0.77988
 N132 N 0.85843 0.83381 0.78269
 C133 C 0.87587 0.83475 0.75977
 C134 C 0.86587 0.85557 0.74124
 C135 C 0.84164 0.86677 0.75478
 H136 H 0.89479 0.82154 0.75712
 H137 H 0.82780 0.88371 0.74713
 Cu138 Cu 0.86089 0.80931 0.81600
 Cu139 Cu 0.80873 0.85837 0.80982
 Cu140 Cu 0.83232 0.83552 0.87621
 N141 N 0.86256 0.78767 0.85132
 N142 N 0.85241 0.79861 0.87531
 C143 C 0.85900 0.78088 0.89697
 C144 C 0.87378 0.75733 0.88584
 C145 C 0.87550 0.76236 0.85676
 H146 H 0.85355 0.78498 0.91913
 H147 H 0.88655 0.74928 0.84095
 N148 N 0.80110 0.86359 0.87134
 N149 N 0.79043 0.87052 0.84623
 C150 C 0.76689 0.88696 0.85044
 C151 C 0.76296 0.89084 0.87961
 C152 C 0.78509 0.87583 0.89211
 H153 H 0.75367 0.89552 0.83361
 H154 H 0.78838 0.87280 0.91473
 H155 H 0.84188 0.85415 0.83653
 H156 H 0.81532 0.82352 0.83767
 N157 N 0.16354 0.86923 1.21946
 N158 N 0.14627 0.84738 1.22571
 C159 C 0.12847 0.85542 1.24701
 C160 C 0.13470 0.88393 1.25429
 C161 C 0.15698 0.89211 1.23631
 H162 H 0.11204 0.84165 1.25637
 H163 H 0.16820 0.91280 1.23622
 Cu164 Cu 0.14763 0.81060 1.20530
 Cu165 Cu 0.19494 0.86531 1.19203
 Cu166 Cu 0.19358 0.80354 1.14999
 N167 N 0.14302 0.78002 1.17679
 N168 N 0.16112 0.77754 1.15532
 C169 C 0.15316 0.75496 1.13877
 C170 C 0.12859 0.74248 1.15032
 C171 C 0.12278 0.75895 1.17461
 H172 H 0.16470 0.74808 1.11985
 H173 H 0.10506 0.75610 1.18941
 N174 N 0.22452 0.83248 1.14776
 N175 N 0.22481 0.85653 1.16326
 C176 C 0.24865 0.87197 1.15673
 C177 C 0.26412 0.85674 1.13621
 C178 C 0.24810 0.83184 1.13106
 H179 H 0.25459 0.89247 1.16659
 H180 H 0.25310 0.81463 1.11605
 H181 H 0.17013 0.83808 1.16736
 H182 H 0.19715 0.82092 1.19153
 N183 N 0.85079 1.12900 1.20365
 N184 N 0.87534 1.14138 1.19645
 C185 C 0.89654 1.13037 1.21239
 C186 C 0.88457 1.11026 1.23080
 C187 C 0.85542 1.11004 1.22481
 H188 H 0.91877 1.13758 1.21172
 H189 H 0.83878 1.09741 1.23534
 Cu190 Cu 0.87739 1.17233 1.16860
 Cu191 Cu 0.81484 1.13894 1.18529
 Cu192 Cu 0.81585 1.20005 1.14299
 N193 N 0.87676 1.20877 1.14815
 N194 N 0.85273 1.22002 1.13882
 C195 C 0.85886 1.24488 1.12504
 C196 C 0.88839 1.24918 1.12551
 C197 C 0.89902 1.22587 1.14045
 H198 H 0.84311 1.25814 1.11449
 H199 H 0.92129 1.22158 1.14531
 N200 N 0.78082 1.17654 1.14952
 N201 N 0.78080 1.15261 1.16481
 C202 C 0.75497 1.13938 1.16241
 C203 C 0.73782 1.15586 1.14493
 C204 C 0.75482 1.17938 1.13729
 H205 H 0.74935 1.11873 1.17184
 H206 H 0.74926 1.19616 1.12234
 H207 H 0.83105 1.15834 1.14841
 H208 H 0.82780 1.18184 1.18120
 O209 O 0.46458 1.06400 1.04859
 O210 O 0.43207 1.03485 1.02479
 C211 C 0.43843 1.05654 1.04152
 O212 O 0.54536 1.05452 0.95014
 O213 O 0.57583 1.02720 0.97703
 C214 C 0.57086 1.04662 0.95786
 O215 O 0.46495 1.05891 0.95246
 O216 O 0.43231 1.03186 0.97802
 C217 C 0.43880 1.05168 0.95959
 O218 O 0.54589 1.05665 1.05365
 O219 O 0.57599 1.02757 1.02714
 C220 C 0.57121 1.04672 1.04699
 Zr221 Zr 0.50468 1.04469 1.03717
 O222 O 0.51013 1.09036 1.03601
 O223 O 0.50222 1.04528 1.08228
 Zr224 Zr 0.50447 1.04034 0.96489
 O225 O 0.50702 1.08559 0.95809
 O226 O 0.50166 1.03383 0.92010
 O227 O 0.47942 1.04903 1.00083
 O228 O 0.52977 1.04703 1.00090
 O229 O 0.54101 0.95918 1.05867
 O230 O 0.57368 0.98038 1.02828
 C231 C 0.56714 0.96459 1.05016
 O232 O 0.46096 0.94903 0.95798
 O233 O 0.43047 0.98073 0.98059
 C234 C 0.43544 0.95803 0.96477
 O235 O 0.54162 0.95249 0.95181
 O236 O 0.57425 0.97893 0.97820
 C237 C 0.56781 0.96001 0.95847
 O238 O 0.46031 0.95807 1.05574
 O239 O 0.43022 0.98580 1.02873
 C240 C 0.43502 0.96707 1.04851
 Zr241 Zr 0.50143 0.97135 1.04040
 O242 O 0.50305 0.92540 1.04046
 O243 O 0.49868 0.97211 1.08549
 Zr244 Zr 0.50165 0.96724 0.96825
 O245 O 0.50406 0.92143 0.96889
 O246 O 0.49719 0.96580 0.92325
 Zr247 Zr 0.46035 1.00732 1.00282
 Zr248 Zr 0.54583 1.00452 1.00251
 O249 O 0.52643 0.96312 1.00452
 O250 O 0.47569 0.96446 1.00474
 O251 O 0.52846 1.00746 1.04418
 O252 O 0.47782 1.00424 0.96140
 O253 O 0.47812 1.00929 1.04407
 O254 O 0.52880 1.00281 0.96088
 H255 H 0.54352 1.06361 1.00096
 H256 H 0.46429 1.00354 0.94510
 H257 H 0.53906 0.94595 1.00517
 H258 H 0.46523 1.01115 1.06089
 H259 H 0.52078 1.02756 0.91316
 H260 H 0.51371 0.97658 0.91500
 H261 H 0.49178 0.91473 0.98487
 H262 H 0.48432 0.91790 1.03347
 H263 H 0.50867 0.99005 1.09196
 H264 H 0.50308 1.06601 1.08810
 H265 H 0.49565 1.09788 1.02261
 H266 H 0.51219 1.09469 0.97659
 O267 O 0.05579 0.45611 -0.06085
 O268 O 0.03045 0.42673 -0.03008
 C269 C 0.04790 0.43083 -0.05143
 O270 O 0.06515 0.54401 0.03843
 O271 O 0.03925 0.57466 0.01021
 C272 C 0.05833 0.56961 0.02945
 O273 O 0.06610 0.46229 0.03821
 O274 O 0.03457 0.42963 0.01773
 C275 C 0.05688 0.43599 0.03324
 O276 O 0.05911 0.53745 -0.06544
 O277 O 0.03578 0.57175 -0.03834
 C278 C 0.05342 0.56423 -0.05858
 Zr279 Zr 0.04426 0.49819 -0.04671
 O280 O 0.08982 0.49833 -0.04785
 O281 O 0.04324 0.49685 -0.09195
 Zr282 Zr 0.04926 0.50266 0.02529
 O283 O 0.09469 0.50509 0.02339
 O284 O 0.05100 0.50158 0.07048
 O285 O 0.05144 0.47440 -0.00976
 O286 O 0.05296 0.52538 -0.01245
 O287 O -0.04094 0.54006 -0.05972
 O288 O -0.01278 0.57304 -0.03528
 C289 C -0.03244 0.56638 -0.05387
 O290 O -0.04203 0.46668 0.04573
 O291 O -0.01601 0.43208 0.02165
 C292 C -0.03578 0.43990 0.03975
 O293 O -0.03341 0.54796 0.04529
 O294 O -0.00748 0.57685 0.01461
 C295 C -0.02448 0.57314 0.03631
 O296 O -0.04730 0.45914 -0.05079
 O297 O -0.01944 0.42839 -0.02452
 C298 C -0.04071 0.43353 -0.04148
 Zr299 Zr -0.02823 0.50030 -0.04149
 O300 O -0.07372 0.50078 -0.03813
 O301 O -0.03091 0.49467 -0.08636
 Zr302 Zr -0.02308 0.50549 0.03049
 O303 O -0.06802 0.51062 0.03473
 O304 O -0.01874 0.50416 0.07548
 Zr305 Zr 0.00902 0.45859 -0.00557
 Zr306 Zr 0.01214 0.54474 -0.01070
 O307 O -0.03001 0.52837 -0.00661
 O308 O -0.03210 0.47750 -0.00358
 O309 O 0.00861 0.52470 -0.05117
 O310 O 0.01242 0.47905 0.03459
 O311 O 0.00655 0.47364 -0.04777
 O312 O 0.01455 0.53025 0.03190
 H313 H 0.07042 0.53775 -0.01425
 H314 H 0.01303 0.46658 0.05173
 H315 H -0.04593 0.54247 -0.00589
 H316 H 0.00407 0.45928 -0.06346
 H317 H 0.04145 0.51924 0.07782
 H318 H -0.00779 0.52167 0.08155
 H319 H -0.07699 0.49899 0.01920
 H320 H -0.07987 0.52027 -0.03167
 H321 H -0.01668 0.50806 -0.09514
 H322 H 0.02778 0.48322 -0.09789
 H323 H 0.09643 0.48004 -0.03925
 H324 H 0.10100 0.49081 0.00881
 O325 O 1.04232 -0.05094 0.46507
 O326 O 1.01909 -0.02496 0.43069
 C327 C 1.03699 -0.04471 0.43864
 O328 O 0.93454 -0.04795 0.53756
 O329 O 0.95839 -0.01793 0.56929
 C330 C 0.93951 -0.03783 0.56313
 O331 O 0.94435 -0.05562 0.45720
 O332 O 0.97242 -0.02831 0.42692
 C333 C 0.95451 -0.04934 0.43201
 O334 O 1.03913 -0.04303 0.54503
 O335 O 1.00735 -0.01708 0.57256
 C336 C 1.02815 -0.03533 0.56955
 Zr337 Zr 1.02635 -0.03148 0.50305
 O338 O 1.03155 -0.07668 0.50816
 O339 O 1.07127 -0.02433 0.50466
 Zr340 Zr 0.95367 -0.03631 0.49779
 O341 O 0.95597 -0.08180 0.50342
 O342 O 0.90879 -0.04008 0.49123
 O343 O 0.99225 -0.04090 0.47549
 O344 O 0.98820 -0.03791 0.52524
 O345 O 1.03515 0.05906 0.53925
 O346 O 1.00718 0.03216 0.56983
 C347 C 1.02640 0.05204 0.56465
 O348 O 0.93769 0.04877 0.45285
 O349 O 0.96797 0.02187 0.42453
 C350 C 0.94713 0.04009 0.42810
 O351 O 0.93111 0.05287 0.53284
 O352 O 0.95718 0.02929 0.56684
 C353 C 0.93726 0.04704 0.55924
 O354 O 1.03594 0.05841 0.45915
 O355 O 1.01583 0.02558 0.42767
 C356 C 1.03126 0.04848 0.43348
 Zr357 Zr 1.02288 0.04138 0.49919
 O358 O 1.02341 0.08727 0.50033
 O359 O 1.06843 0.04141 0.49864
 Zr360 Zr 0.95019 0.03692 0.49447
 O361 O 0.94842 0.08287 0.49468
 O362 O 0.90509 0.03370 0.48896
 Zr363 Zr 0.99148 0.00034 0.45633
 Zr364 Zr 0.98489 0.00496 0.54085
 O365 O 0.98449 0.04581 0.52119
 O366 O 0.98803 0.04352 0.47129
 O367 O 1.02811 0.00670 0.52708
 O368 O 0.94865 -0.00146 0.47108
 O369 O 1.03175 0.00387 0.47643
 O370 O 0.94436 0.00138 0.52106
 H371 H 0.98759 -0.05427 0.53883
 H372 H 0.93287 -0.00370 0.45706
 H373 H 0.98289 0.06361 0.53310
 H374 H 1.04923 0.00426 0.46421
 H375 H 0.89952 -0.02593 0.50425
 H376 H 0.89707 0.02358 0.50581
 H377 H 0.95896 0.08977 0.47758
 H378 H 1.00618 0.09360 0.48989
 H379 H 1.07482 0.03190 0.51637
 H380 H 1.07993 -0.04383 0.50598
 H381 H 1.01552 -0.08625 0.49782
 H382 H 0.96792 -0.08980 0.48773
 C383 C 1.09656 0.11109 0.29029
 C384 C 1.08683 0.09601 0.31451
 C385 C 1.09114 0.06576 0.31634
 C386 C 1.10609 0.05131 0.29452
 C387 C 1.11673 0.06664 0.27108
 C388 C 1.11191 0.09668 0.26839
 C389 C 1.08068 0.05044 0.34004
 C390 C 1.06685 0.06514 0.36249
 C391 C 1.06371 0.09563 0.36135
 C392 C 1.07325 0.11080 0.33715
 C393 C 1.05119 0.11040 0.38455
 C394 C 1.04152 0.09506 0.40846
 C395 C 1.04350 0.06469 0.40923
 C396 C 1.05621 0.04985 0.38618
 H397 H 1.09305 0.13424 0.28918
 H398 H 1.10976 0.02815 0.29567
 H399 H 1.12803 0.05450 0.25474
 H400 H 1.08363 0.02716 0.34115
 H401 H 1.07036 0.13410 0.33607
 H402 H 1.04887 0.13380 0.38420
 H403 H 1.03166 0.10683 0.42600
 H404 H 1.05810 0.02646 0.38683
 C405 C 0.88542 -0.12851 0.29851
 C406 C 0.89331 -0.11582 0.32474
 C407 C 0.87182 -0.10721 0.34446
 C408 C 0.84276 -0.11142 0.33750
 C409 C 0.83507 -0.12365 0.31112
 C410 C 0.85628 -0.13227 0.29138
 C411 C 0.87970 -0.09407 0.37052
 C412 C 0.90881 -0.08876 0.37679
 C413 C 0.93024 -0.09718 0.35685
 C414 C 0.92238 -0.11101 0.33120
 C415 C 0.95921 -0.09098 0.36254
 C416 C 0.96688 -0.07583 0.38735
 C417 C 0.94585 -0.06728 0.40726
 C418 C 0.91684 -0.07432 0.40222
 H419 H 0.90201 -0.13466 0.28335
 H420 H 0.82597 -0.10496 0.35232
 H421 H 0.81248 -0.12647 0.30627
 H422 H 0.86319 -0.08737 0.38559
 H423 H 0.93888 -0.11740 0.31598
 H424 H 0.97589 -0.09719 0.34749
 H425 H 0.98935 -0.07061 0.39094
 H426 H 0.90053 -0.06740 0.41737
 C427 C 0.87900 0.11386 0.70387
 C428 C 0.88837 0.09771 0.68000
 C429 C 0.89964 0.06963 0.68396
 C430 C 0.90075 0.05793 0.71141
 C431 C 0.89138 0.07406 0.73493
 C432 C 0.88077 0.10225 0.73152
 C433 C 0.91007 0.05380 0.66052
 C434 C 0.90950 0.06563 0.63309
 C435 C 0.89762 0.09335 0.62881
 C436 C 0.88704 0.10924 0.65233
 C437 C 0.89709 0.10484 0.60112
 C438 C 0.90890 0.08929 0.57809
 C439 C 0.92158 0.06214 0.58246
 C440 C 0.92133 0.05031 0.61000
 H441 H 0.87033 0.13535 0.70091
 H442 H 0.90920 0.03640 0.71474
 H443 H 0.89307 0.06461 0.75592
 H444 H 0.91914 0.03248 0.66371
 H445 H 0.87826 0.13069 0.64918
 H446 H 0.88809 0.12606 0.59738
 H447 H 0.90903 0.09897 0.55709
 H448 H 0.93088 0.02930 0.61360
 C449 C 1.10240 -0.10916 0.70153
 C450 C 1.09353 -0.09692 0.67574
 C451 C 1.11399 -0.09084 0.65407
 C452 C 1.14307 -0.09695 0.65876
 C453 C 1.15182 -0.10841 0.68483
 C454 C 1.13161 -0.11452 0.70641
 C455 C 1.10510 -0.07834 0.62834
 C456 C 1.07613 -0.07108 0.62436
 C457 C 1.05588 -0.07664 0.64639
 C458 C 1.06461 -0.08992 0.67167
 C459 C 1.02718 -0.06858 0.64293
 C460 C 1.01858 -0.05488 0.61802
 C461 C 1.03834 -0.04940 0.59581
 C462 C 1.06708 -0.05791 0.59894
 H463 H 1.08671 -0.11351 0.71820
 H464 H 1.15908 -0.09248 0.64245
 H465 H 1.17444 -0.11257 0.68812
 H466 H 1.12079 -0.07378 0.61169
 H467 H 1.04898 -0.09430 0.68841
 H468 H 1.01142 -0.07268 0.65960
 H469 H 0.99622 -0.04890 0.61595
 H470 H 1.08244 -0.05372 0.58195
 C471 C 0.29166 1.12271 1.09725
 C472 C 0.31558 1.10751 1.08638
 C473 C 0.31300 1.07743 1.08041
 C474 C 0.28717 1.06284 1.08629
 C475 C 0.26422 1.07763 1.09864
 C476 C 0.26600 1.10772 1.10429
 C477 C 0.33646 1.06214 1.06931
 C478 C 0.36308 1.07608 1.06549
 C479 C 0.36628 1.10581 1.07260
 C480 C 0.34231 1.12156 1.08234
 C481 C 0.39354 1.11907 1.07014
 C482 C 0.41730 1.10296 1.06079
 C483 C 0.41401 1.07358 1.05295
 C484 C 0.38668 1.06047 1.05512
 H485 H 0.29374 1.14571 1.10194
 H486 H 0.28489 1.03978 1.08189
 H487 H 0.24476 1.06538 1.10310
 H488 H 0.33422 1.03914 1.06445
 H489 H 0.34463 1.14448 1.08747
 H490 H 0.39651 1.14180 1.07565
 H491 H 0.43808 1.11364 1.05907
 H492 H 0.38374 1.03791 1.04897
 C493 C 0.29289 0.88885 0.90099
 C494 C 0.31582 0.90516 0.91277
 C495 C 0.31586 0.93579 0.91083
 C496 C 0.29344 0.94956 0.89671
 C497 C 0.27166 0.93321 0.88374
 C498 C 0.27105 0.90266 0.88552
 C499 C 0.33871 0.95221 0.92221
 C500 C 0.36239 0.93839 0.93422
 C501 C 0.36292 0.90772 0.93540
 C502 C 0.33931 0.89133 0.92535
 C503 C 0.38739 0.89397 0.94598
 C504 C 0.41117 0.91043 0.95501
 C505 C 0.41055 0.94089 0.95446
 C506 C 0.38596 0.95476 0.94432
 H507 H 0.29317 0.86538 0.90232
 H508 H 0.29315 0.97300 0.89500
 H509 H 0.25497 0.94481 0.87274
 H510 H 0.33850 0.97569 0.92083
 H511 H 0.33966 0.86783 0.92646
 H512 H 0.38830 0.87049 0.94689
 H513 H 0.42993 0.89937 0.96289
 H514 H 0.38555 0.97823 0.94350
 C515 C 0.70522 0.89459 1.11738
 C516 C 0.68309 0.90700 1.10142
 C517 C 0.68527 0.90796 1.07131
 C518 C 0.70919 0.89579 1.05764
 C519 C 0.73062 0.88252 1.07358
 C520 C 0.72906 0.88179 1.10368
 C521 C 0.66333 0.92063 1.05533
 C522 C 0.63866 0.93134 1.06903
 C523 C 0.63607 0.92950 1.09909
 C524 C 0.65849 0.91782 1.11512
 C525 C 0.61088 0.93903 1.11264
 C526 C 0.58834 0.95006 1.09657
 C527 C 0.59087 0.95238 1.06678
 C528 C 0.61625 0.94332 1.05312
 H529 H 0.70309 0.89397 1.14042
 H530 H 0.71118 0.89618 1.03456
 H531 H 0.74866 0.87336 1.06209
 H532 H 0.66518 0.92162 1.03223
 H533 H 0.65653 0.91660 1.13818
 H534 H 0.60851 0.93769 1.13563
 H535 H 0.56905 0.95724 1.10749
 H536 H 0.61824 0.94498 1.03008
 C537 C 0.71755 1.11503 0.90417
 C538 C 0.69388 1.09859 0.91367
 C539 C 0.69689 1.06858 0.91873
 C540 C 0.72342 1.05541 0.91345
 C541 C 0.74668 1.07174 0.90314
 C542 C 0.74420 1.10184 0.89858
 C543 C 0.67328 1.05224 0.92867
 C544 C 0.64645 1.06539 0.93273
 C545 C 0.64334 1.09526 0.92679
 C546 C 0.66711 1.11172 0.91772
 C547 C 0.61643 1.10827 0.92995
 C548 C 0.59277 1.09195 0.93903
 C549 C 0.59567 1.06248 0.94571
 C550 C 0.62263 1.04924 0.94256
 H551 H 0.71464 1.13791 0.90015
 H552 H 0.72615 1.03239 0.91706
 H553 H 0.76676 1.06069 0.89938
 H554 H 0.67572 1.02930 0.93294
 H555 H 0.66470 1.13469 0.91351
 H556 H 0.61370 1.13111 0.92553
 H557 H 0.57230 1.10267 0.94177
 H558 H 0.62500 1.02646 0.94765
 C559 C 0.12229 0.29737 0.10669
 C560 C 0.10676 0.31936 0.09309
 C561 C 0.07672 0.31611 0.08923
 C562 C 0.06267 0.29118 0.09942
 C563 C 0.07811 0.26984 0.11358
 C564 C 0.10800 0.27266 0.11735
 C565 C 0.06113 0.33795 0.07563
 C566 C 0.07503 0.36346 0.06654
 C567 C 0.10496 0.36698 0.07096
 C568 C 0.12068 0.34477 0.08380
 C569 C 0.11863 0.39289 0.06284
 C570 C 0.10285 0.41523 0.05073
 C571 C 0.07319 0.41191 0.04590
 C572 C 0.05942 0.38576 0.05358
 H573 H 0.14529 0.29983 0.10970
 H574 H 0.03967 0.28832 0.09671
 H575 H 0.06663 0.25087 0.12129
 H576 H 0.03812 0.33531 0.07260
 H577 H 0.14365 0.34747 0.08700
 H578 H 0.14151 0.39601 0.06615
 H579 H 0.11393 0.43509 0.04484
 H580 H 0.03649 0.38308 0.05017
 C581 C -0.12845 0.30427 -0.11219
 C582 C -0.11425 0.32989 -0.10353
 C583 C -0.10687 0.35111 -0.12402
 C584 C -0.11346 0.34608 -0.15288
 C585 C -0.12676 0.32007 -0.16143
 C586 C -0.13442 0.29904 -0.14119
 C587 C -0.09241 0.37662 -0.11545
 C588 C -0.08426 0.38069 -0.08684
 C589 C -0.09114 0.35914 -0.06648
 C590 C -0.10654 0.33416 -0.07485
 C591 C -0.08187 0.36259 -0.03818
 C592 C -0.06545 0.38686 -0.03023
 C593 C -0.05871 0.40850 -0.05020
 C594 C -0.06858 0.40556 -0.07839
 H595 H -0.13376 0.28787 -0.09651
 H596 H -0.10780 0.36199 -0.16891
 H597 H -0.13114 0.31639 -0.18389
 H598 H -0.08682 0.39291 -0.13116
 H599 H -0.11186 0.31770 -0.05919
 H600 H -0.08686 0.34627 -0.02232
 H601 H -0.05817 0.38887 -0.00834
 H602 H -0.06316 0.42209 -0.09390
 C603 C 0.12243 0.70845 -0.12059
 C604 C 0.10622 0.68513 -0.10946
 C605 C 0.07803 0.69000 -0.09904
 C606 C 0.06626 0.71782 -0.10063
 C607 C 0.08213 0.74059 -0.11261
 C608 C 0.11031 0.73618 -0.12251
 C609 C 0.06197 0.66699 -0.08736
 C610 C 0.07344 0.63896 -0.08651
 C611 C 0.10120 0.63383 -0.09784
 C612 C 0.11753 0.65699 -0.10898
 C613 C 0.11219 0.60559 -0.09774
 C614 C 0.09613 0.58277 -0.08599
 C615 C 0.06896 0.58779 -0.07373
 C616 C 0.05764 0.61599 -0.07433
 H617 H 0.14405 0.70489 -0.12857
 H618 H 0.04465 0.72192 -0.09292
 H619 H 0.07247 0.76184 -0.11387
 H620 H 0.04050 0.67088 -0.07906
 H621 H 0.13896 0.65310 -0.11734
 H622 H 0.13333 0.60121 -0.10650
 H623 H 0.10543 0.56133 -0.08559
 H624 H 0.03662 0.62014 -0.06511
 C625 C -0.09652 0.70407 0.11860
 C626 C -0.08746 0.67813 0.10556
 C627 C -0.10760 0.65539 0.10059
 C628 C -0.13650 0.65919 0.10833
 C629 C -0.14553 0.68553 0.12014
 C630 C -0.12564 0.70804 0.12534
 C631 C -0.09871 0.62959 0.08725
 C632 C -0.07026 0.62668 0.07767
 C633 C -0.05032 0.64973 0.08196
 C634 C -0.05888 0.67502 0.09645
 C635 C -0.02227 0.64733 0.07116
 C636 C -0.01411 0.62248 0.05601
 C637 C -0.03360 0.59930 0.05207
 C638 C -0.06158 0.60135 0.06322
 H639 H -0.08127 0.72168 0.12226
 H640 H -0.15224 0.64208 0.10458
 H641 H -0.16809 0.68842 0.12520
 H642 H -0.11414 0.61214 0.08356
 H643 H -0.04355 0.69263 0.09986
 H644 H -0.00676 0.66481 0.07413
 H645 H 0.00762 0.62121 0.04765
 H646 H -0.07675 0.58359 0.05999
 C647 C 1.09160 0.11239 0.70911
 C648 C 1.07812 0.09822 0.68604
 C649 C 1.06825 0.06924 0.68902
 C650 C 1.07224 0.05487 0.71496
 C651 C 1.08659 0.06881 0.73746
 C652 C 1.09648 0.09756 0.73465
 C653 C 1.05520 0.05487 0.66585
 C654 C 1.05269 0.06881 0.63948
 C655 C 1.06304 0.09760 0.63636
 C656 C 1.07526 0.11228 0.65979
 C657 C 1.06142 0.11107 0.60968
 C658 C 1.04973 0.09615 0.58626
 C659 C 1.03898 0.06773 0.58929
 C660 C 1.04043 0.05422 0.61602
 H661 H 1.09938 0.13451 0.70681
 H662 H 1.06484 0.03266 0.71760
 H663 H 1.08986 0.05717 0.75717
 H664 H 1.04760 0.03266 0.66812
 H665 H 1.08313 0.13438 0.65743
 H666 H 1.06941 0.13304 0.60688
 H667 H 1.04874 0.10701 0.56586
 H668 H 1.03255 0.03213 0.61841
 C669 C 0.87163 -0.10984 0.70012
 C670 C 0.88530 -0.10141 0.67457
 C671 C 0.90655 -0.11938 0.66215
 C672 C 0.91364 -0.14546 0.67532
 C673 C 0.90011 -0.15361 0.70070
 C674 C 0.87913 -0.13589 0.71356
 C675 C 0.92058 -0.11092 0.63693
 C676 C 0.91384 -0.08457 0.62399
 C677 C 0.89262 -0.06650 0.63640
 C678 C 0.87837 -0.07512 0.66149
 C679 C 0.88636 -0.03984 0.62374
 C680 C 0.90123 -0.03102 0.59928
 C681 C 0.92222 -0.04883 0.58694
 C682 C 0.92841 -0.07567 0.59915
 H683 H 0.85565 -0.09583 0.70974
 H684 H 0.92984 -0.15952 0.66608
 H685 H 0.90618 -0.17397 0.71014
 H686 H 0.93698 -0.12469 0.62757
 H687 H 0.86219 -0.06121 0.67101
 H688 H 0.87033 -0.02564 0.63299
 H689 H 0.89664 -0.01007 0.59012
 H690 H 0.94514 -0.08907 0.58987
 C691 C 1.11247 -0.11233 0.30263
 C692 C 1.09966 -0.09621 0.32471
 C693 C 1.09467 -0.06624 0.32102
 C694 C 1.10363 -0.05273 0.29570
 C695 C 1.11715 -0.06884 0.27412
 C696 C 1.12127 -0.09878 0.27728
 C697 C 1.08093 -0.05033 0.34272
 C698 C 1.07286 -0.06383 0.36833
 C699 C 1.07892 -0.09353 0.37242
 C700 C 1.09194 -0.10961 0.35043
 C701 C 1.07189 -0.10664 0.39848
 C702 C 1.05881 -0.09053 0.42029
 C703 C 1.05195 -0.06128 0.41609
 C704 C 1.05895 -0.04807 0.39001
 H705 H 1.11606 -0.13535 0.30536
 H706 H 1.10024 -0.02973 0.29261
 H707 H 1.12381 -0.05806 0.25467
 H708 H 1.07669 -0.02745 0.33976
 H709 H 1.09623 -0.13249 0.35340
 H710 H 1.07654 -0.12933 0.40200
 H711 H 1.05337 -0.10117 0.44018
 H712 H 1.05378 -0.02549 0.38673
 C713 C 0.88509 0.09122 0.28038
 C714 C 0.89996 0.08044 0.30393
 C715 C 0.92919 0.07262 0.30107
 C716 C 0.94306 0.07598 0.27462
 C717 C 0.92836 0.08771 0.25150
 C718 C 0.89934 0.09548 0.25427
 C719 C 0.94420 0.06237 0.32486
 C720 C 0.93051 0.06063 0.35162
 C721 C 0.90138 0.06887 0.35440
 C722 C 0.88624 0.07829 0.33051
 C723 C 0.88788 0.06800 0.38118
 C724 C 0.90307 0.05921 0.40513
 C725 C 0.93193 0.05064 0.40266
 C726 C 0.94551 0.05121 0.37577
 H727 H 0.86280 0.09757 0.28278
 H728 H 0.96545 0.07020 0.27201
 H729 H 0.93968 0.09070 0.23144
 H730 H 0.96663 0.05641 0.32272
 H731 H 0.86392 0.08458 0.33275
 H732 H 0.86561 0.07430 0.38364
 H733 H 0.89194 0.05858 0.42554
 H734 H 0.96774 0.04462 0.37378
 C735 C 0.10484 0.28427 -0.11776
 C736 C 0.09431 0.30778 -0.10180
 C737 C 0.09367 0.30647 -0.07160
 C738 C 0.10411 0.28182 -0.05790
 C739 C 0.11565 0.25899 -0.07395
 C740 C 0.11603 0.26008 -0.10391
 C741 C 0.08326 0.33007 -0.05560
 C742 C 0.07458 0.35540 -0.06938
 C743 C 0.07601 0.35689 -0.09957
 C744 C 0.08528 0.33290 -0.11559
 C745 C 0.06861 0.38259 -0.11331
 C746 C 0.06005 0.40669 -0.09735
 C747 C 0.05802 0.40530 -0.06746
 C748 C 0.06504 0.37951 -0.05350
 H749 H 0.10552 0.28531 -0.14089
 H750 H 0.10395 0.28046 -0.03479
 H751 H 0.12414 0.24037 -0.06300
 H752 H 0.08256 0.32901 -0.03247
 H753 H 0.08613 0.33403 -0.13873
 H754 H 0.06971 0.38415 -0.13637
 H755 H 0.05439 0.42636 -0.10844
 H756 H 0.06369 0.37845 -0.03037
 C757 C -0.10699 0.29996 0.10731
 C758 C -0.09061 0.32239 0.09496
 C759 C -0.06187 0.31717 0.08644
 C760 C -0.04983 0.28986 0.09091
 C761 C -0.06604 0.26787 0.10371
 C762 C -0.09474 0.27264 0.11188
 C763 C -0.04551 0.33936 0.07381
 C764 C -0.05738 0.36686 0.06991
 C765 C -0.08589 0.37232 0.07897
 C766 C -0.10241 0.34999 0.09123
 C767 C -0.09737 0.40010 0.07572
 C768 C -0.08083 0.42225 0.06348
 C769 C -0.05267 0.41685 0.05391
 C770 C -0.04110 0.38905 0.05714
 H771 H -0.12903 0.30393 0.11383
 H772 H -0.02784 0.28554 0.08460
 H773 H -0.05622 0.24690 0.10668
 H774 H -0.02351 0.33529 0.06717
 H775 H -0.12436 0.35411 0.09795
 H776 H -0.11910 0.40473 0.08268
 H777 H -0.09030 0.44346 0.06094
 H778 H -0.01934 0.38476 0.04995
 C779 C -0.10703 0.70683 -0.11259
 C780 C -0.09350 0.68420 -0.09820
 C781 C -0.08554 0.68798 -0.06926
 C782 C -0.09194 0.71409 -0.05506
 C783 C -0.10574 0.73639 -0.06948
 C784 C -0.11308 0.73313 -0.09843
 C785 C -0.07133 0.66565 -0.05504
 C786 C -0.06542 0.63941 -0.06926
 C787 C -0.07409 0.63537 -0.09797
 C788 C -0.08780 0.65789 -0.11234
 C789 C -0.06907 0.60876 -0.11181
 C790 C -0.05564 0.58629 -0.09735
 C791 C -0.04643 0.59027 -0.06905
 C792 C -0.05123 0.61697 -0.05513
 H793 H -0.11297 0.70386 -0.13478
 H794 H -0.08613 0.71732 -0.03285
 H795 H -0.11000 0.75646 -0.05811
 H796 H -0.06502 0.66862 -0.03291
 H797 H -0.09413 0.65488 -0.13446
 H798 H -0.07571 0.60523 -0.13375
 H799 H -0.05211 0.56586 -0.10840
 H800 H -0.04454 0.62001 -0.03311
 C801 C 0.11861 0.70665 0.11118
 C802 C 0.10531 0.68145 0.10058
 C803 C 0.08537 0.66613 0.11779
 C804 C 0.07888 0.67666 0.14528
 C805 C 0.09250 0.70178 0.15582
 C806 C 0.11276 0.71681 0.13899
 C807 C 0.07252 0.64050 0.10728
 C808 C 0.07947 0.63011 0.07982
 C809 C 0.09908 0.64586 0.06250
 C810 C 0.11190 0.67135 0.07303
 C811 C 0.10547 0.63593 0.03480
 C812 C 0.09240 0.61068 0.02424
 C813 C 0.07335 0.59479 0.04145
 C814 C 0.06694 0.60440 0.06921
 H815 H 0.13363 0.71821 0.09759
 H816 H 0.06355 0.66529 0.15875
 H817 H 0.08750 0.70908 0.17730
 H818 H 0.05726 0.62863 0.12046
 H819 H 0.12711 0.68325 0.05983
 H820 H 0.12029 0.64786 0.02123
 H821 H 0.09702 0.60358 0.00257
 H822 H 0.05159 0.59233 0.08209
 C823 C 0.29529 1.10752 0.89088
 C824 C 0.31865 1.09367 0.90348
 C825 C 0.31584 1.06441 0.91202
 C826 C 0.28998 1.04927 0.90703
 C827 C 0.26703 1.06307 0.89383
 C828 C 0.26946 1.09231 0.88591
 C829 C 0.33894 1.05076 0.92530
 C830 C 0.36503 1.06575 0.92943
 C831 C 0.36817 1.09468 0.92001
 C832 C 0.34482 1.10859 0.90741
 C833 C 0.39467 1.10917 0.92332
 C834 C 0.41786 1.09511 0.93586
 C835 C 0.41471 1.06659 0.94580
 C836 C 0.38814 1.05214 0.94265
 H837 H 0.29731 1.13005 0.88460
 H838 H 0.28754 1.02680 0.91331
 H839 H 0.24716 1.05109 0.89041
 H840 H 0.33669 1.02844 0.93222
 H841 H 0.34709 1.13088 0.90043
 H842 H 0.39747 1.13132 0.91614
 H843 H 0.43812 1.10669 0.93824
 H844 H 0.38555 1.03010 0.95018
 C845 C 0.30081 0.89431 1.12282
 C846 C 0.32643 0.90259 1.10914
 C847 C 0.34345 0.88143 1.09520
 C848 C 0.33447 0.85231 1.09521
 C849 C 0.30874 0.84428 1.10864
 C850 C 0.29165 0.86518 1.12251
 C851 C 0.36896 0.88976 1.08126
 C852 C 0.37742 0.91906 1.08076
 C853 C 0.36021 0.94020 1.09462
 C854 C 0.33500 0.93180 1.10888
 C855 C 0.36835 0.96953 1.09375
 C856 C 0.39306 0.97791 1.07894
 C857 C 0.41008 0.95718 1.06499
 C858 C 0.40253 0.92770 1.06623
 H859 H 0.28774 0.91071 1.13314
 H860 H 0.34722 0.83578 1.08467
 H861 H 0.30239 0.82161 1.10829
 H862 H 0.38199 0.87354 1.07053
 H863 H 0.32188 0.94804 1.11948
 H864 H 0.35549 0.98599 1.10428
 H865 H 0.39914 1.00064 1.07855
 H866 H 0.41569 0.91178 1.05524
 C867 C 0.70274 1.11815 1.12828
 C868 C 0.67692 1.10996 1.11500
 C869 C 0.65694 1.13138 1.10720
 C870 C 0.66343 1.16075 1.11259
 C871 C 0.68966 1.16878 1.12511
 C872 C 0.70948 1.14756 1.13306
 C873 C 0.63118 1.12311 1.09359
 C874 C 0.62569 1.09379 1.08682
 C875 C 0.64611 1.07255 1.09422
 C876 C 0.67127 1.08070 1.10866
 C877 C 0.64138 1.04348 1.08651
 C878 C 0.61693 1.03550 1.07116
 C879 C 0.59636 1.05623 1.06381
 C880 C 0.60055 1.08535 1.07210
 H881 H 0.71812 1.10163 1.13385
 H882 H 0.64849 1.17753 1.10668
 H883 H 0.69446 1.19158 1.12867
 H884 H 0.61584 1.13953 1.08764
 H885 H 0.68680 1.06433 1.11433
 H886 H 0.65683 1.02698 1.09192
 H887 H 0.61400 1.01291 1.06513
 H888 H 0.58481 1.10143 1.06631
 C889 C 0.71099 0.90418 0.88473
 C890 C 0.68831 0.91617 0.90083
 C891 C 0.69430 0.93093 0.92683
 C892 C 0.72276 0.93320 0.93641
 C893 C 0.74501 0.92045 0.92074
 C894 C 0.73938 0.90585 0.89485
 C895 C 0.67175 0.94271 0.94310
 C896 C 0.64315 0.93930 0.93414
 C897 C 0.63710 0.92416 0.90839
 C898 C 0.65972 0.91299 0.89174
 C899 C 0.60848 0.92029 0.89978
 C900 C 0.58602 0.93139 0.91640
 C901 C 0.59172 0.94684 0.94188
 C902 C 0.62046 0.95066 0.95061
 H903 H 0.70644 0.89256 0.86498
 H904 H 0.72774 0.94434 0.95631
 H905 H 0.76675 0.92199 0.92889
 H906 H 0.67641 0.95413 0.96295
 H907 H 0.65503 0.90144 0.87197
 H908 H 0.60344 0.90871 0.88015
 H909 H 0.56416 0.92827 0.90899
 H910 H 0.62523 0.96244 0.97022
   
