data_POSCAR
  _audit_creation_date              2014-09-24
  _audit_creation_method            'ToBaCCo'
  _symmetry_space_group_name_H-M    'P1'
  _symmetry_Int_Tables_number       1
  _symmetry_cell_setting            triclinic
  loop_
  _symmetry_equiv_pos_as_xyz
 x,y,z
_cell_length_a 36.4451
_cell_length_b 24.7654
_cell_length_c 24.7565
_cell_angle_alpha 89.984000
_cell_angle_beta 90.015200
_cell_angle_gamma 89.997800
loop_
  _atom_site_label
  _atom_site_type_symbol
  _atom_site_fract_x
  _atom_site_fract_y
  _atom_site_fract_z
C1 C 1.24993 0.25002 0.24993
 C2 C 0.75000 -0.25013 0.24979
 C3 C 0.75001 0.24999 -0.25013
 C4 C 1.24998 -0.24986 -0.25010
 C5 C 0.25005 0.24967 0.74985
 C6 C 0.75000 0.74981 0.75000
 C7 C 0.75008 0.24995 0.24987
 C8 C 0.25004 0.74976 0.24990
 O9 O 1.05169 0.09306 0.09931
 O10 O 1.09211 0.04418 0.04753
 C11 C 1.08454 0.07902 0.08489
 O12 O 0.94860 -0.09940 0.09399
 O13 O 0.90828 -0.04734 0.04513
 C14 C 0.91577 -0.08484 0.07989
 O15 O 1.05167 -0.09499 0.09915
 O16 O 1.09215 -0.04605 0.04752
 C17 C 1.08460 -0.08102 0.08487
 O18 O 0.94868 0.09793 0.09437
 O19 O 0.90831 0.04622 0.04530
 C20 C 0.91582 0.08357 0.08021
 Zr21 Zr 1.00021 0.06746 0.06889
 O22 O 0.99605 0.06687 0.15419
 O23 O 1.00430 0.15274 0.06900
 Zr24 Zr 1.00018 -0.06906 0.06867
 O25 O 0.99603 -0.06882 0.15397
 O26 O 1.00415 -0.15434 0.06840
 O27 O 1.03293 -0.00085 0.07946
 O28 O 0.96831 -0.00077 0.07854
 O29 O 0.94884 0.09825 -0.09353
 O30 O 0.90837 0.04639 -0.04480
 C31 C 0.91594 0.08384 -0.07961
 O32 O 1.05180 -0.09419 -0.09829
 O33 O 1.09219 -0.04561 -0.04613
 C34 C 1.08465 -0.08023 -0.08371
 O35 O 0.94874 -0.09898 -0.09379
 O36 O 0.90833 -0.04718 -0.04490
 C37 C 0.91587 -0.08451 -0.07980
 O38 O 1.05192 0.09336 -0.09790
 O39 O 1.09224 0.04435 -0.04601
 C40 C 1.08476 0.07926 -0.08340
 Zr41 Zr 1.00034 0.06777 -0.06771
 O42 O 0.99639 0.06775 -0.15304
 O43 O 1.00445 0.15305 -0.06724
 Zr44 Zr 1.00026 -0.06878 -0.06792
 O45 O 0.99629 -0.06860 -0.15324
 O46 O 1.00429 -0.15406 -0.06766
 Zr47 Zr 1.05484 -0.00074 0.00064
 Zr48 Zr 0.94566 -0.00055 0.00030
 O49 O 0.96846 -0.00044 -0.07779
 O50 O 1.03304 -0.00053 -0.07830
 O51 O 0.96755 0.07827 0.00051
 O52 O 1.03207 -0.07884 0.00042
 O53 O 1.03213 0.07742 0.00069
 O54 O 0.96747 -0.07944 0.00027
 H55 H 0.95167 -0.00079 0.11019
 H56 H 1.04866 -0.11054 0.00040
 H57 H 0.95191 -0.00035 -0.10954
 H58 H 1.04872 0.10911 0.00076
 H59 H 0.98371 -0.16835 0.04617
 H60 H 0.98355 -0.16817 -0.04611
 H61 H 1.01669 -0.04633 -0.16727
 H62 H 1.01697 0.04585 -0.16712
 H63 H 0.98377 0.16712 -0.04554
 H64 H 0.98392 0.16691 0.04674
 H65 H 1.01674 0.04519 0.16828
 H66 H 1.01669 -0.04715 0.16813
 O67 O 1.05167 0.59427 0.59836
 O68 O 1.09203 0.54639 0.54562
 C69 C 1.08450 0.58070 0.58347
 O70 O 0.94881 0.40155 0.59325
 O71 O 0.90836 0.45350 0.54455
 C72 C 0.91592 0.41600 0.57933
 O73 O 1.05191 0.40633 0.59772
 O74 O 1.09227 0.45546 0.54605
 C75 C 1.08476 0.42046 0.58333
 O76 O 0.94872 0.59875 0.59374
 O77 O 0.90832 0.54704 0.54473
 C78 C 0.91586 0.58433 0.57969
 Zr79 Zr 1.00025 0.56854 0.56793
 O80 O 0.99626 0.56798 0.65325
 O81 O 1.00424 0.65383 0.56791
 Zr82 Zr 1.00033 0.43202 0.56755
 O83 O 0.99637 0.43199 0.65287
 O84 O 1.00440 0.34674 0.56704
 O85 O 1.03308 0.50028 0.57828
 O86 O 0.96845 0.50021 0.57766
 O87 O 0.94864 0.59944 0.40600
 O88 O 0.90830 0.54733 0.45474
 C89 C 0.91581 0.58487 0.42004
 O90 O 1.05168 0.40690 0.40056
 O91 O 1.09214 0.45557 0.45253
 C92 C 1.08455 0.42083 0.41508
 O93 O 0.94867 0.40208 0.40540
 O94 O 0.90830 0.45375 0.45449
 C95 C 0.91581 0.41642 0.41956
 O96 O 1.05177 0.59488 0.40099
 O97 O 1.09224 0.54574 0.45253
 C98 C 1.08469 0.58081 0.41525
 Zr99 Zr 1.00021 0.56900 0.43131
 O100 O 0.99608 0.56879 0.34601
 O101 O 1.00421 0.65429 0.43156
 Zr102 Zr 1.00019 0.43262 0.43085
 O103 O 0.99603 0.43373 0.34554
 O104 O 1.00422 0.34735 0.43017
 Zr105 Zr 1.05488 0.50053 0.49937
 Zr106 Zr 0.94566 0.50046 0.49954
 O107 O 0.96829 0.50082 0.42132
 O108 O 1.03298 0.50084 0.42049
 O109 O 0.96750 0.57933 0.49970
 O110 O 1.03209 0.42242 0.49913
 O111 O 1.03206 0.57863 0.49961
 O112 O 0.96756 0.42166 0.49923
 H113 H 0.95188 0.50010 0.60939
 H114 H 1.04865 0.39070 0.49904
 H115 H 0.95164 0.50088 0.38966
 H116 H 1.04856 0.61042 0.49958
 H117 H 0.98375 0.33271 0.54525
 H118 H 0.98419 0.33311 0.45304
 H119 H 1.01701 0.45485 0.33154
 H120 H 1.01681 0.54725 0.33185
 H121 H 0.98384 0.66830 0.45390
 H122 H 0.98360 0.66796 0.54614
 H123 H 1.01684 0.54602 0.66724
 H124 H 1.01699 0.45378 0.66699
 O125 O 0.55134 0.09332 0.59795
 O126 O 0.59182 0.04459 0.54612
 C127 C 0.58425 0.07941 0.58355
 O128 O 0.44829 -0.09922 0.59310
 O129 O 0.40783 -0.04751 0.54414
 C130 C 0.41543 -0.08482 0.57904
 O131 O 0.55101 -0.09489 0.59830
 O132 O 0.59137 -0.04610 0.54647
 C133 C 0.58385 -0.08088 0.58393
 O134 O 0.44820 0.09768 0.59317
 O135 O 0.40773 0.04581 0.54436
 C136 C 0.41532 0.08320 0.57921
 Zr137 Zr 0.49982 0.06748 0.56758
 O138 O 0.49578 0.06697 0.65290
 O139 O 0.50375 0.15277 0.56768
 Zr140 Zr 0.49980 -0.06901 0.56734
 O141 O 0.49572 -0.06937 0.65264
 O142 O 0.50391 -0.15430 0.56623
 O143 O 0.53258 -0.00073 0.57808
 O144 O 0.46795 -0.00080 0.57734
 O145 O 0.44816 0.09814 0.40571
 O146 O 0.40775 0.04607 0.45436
 C147 C 0.41531 0.08363 0.41971
 O148 O 0.55149 -0.09413 0.40055
 O149 O 0.59187 -0.04524 0.45246
 C150 C 0.58433 -0.08003 0.41503
 O151 O 0.44872 -0.09967 0.40457
 O152 O 0.40827 -0.04802 0.45335
 C153 C 0.41582 -0.08541 0.41847
 O154 O 0.55128 0.09355 0.40089
 O155 O 0.59182 0.04477 0.45270
 C156 C 0.58419 0.07965 0.41534
 Zr157 Zr 0.49971 0.06769 0.43108
 O158 O 0.49562 0.06735 0.34576
 O159 O 0.50366 0.15298 0.43100
 Zr160 Zr 0.49991 -0.06873 0.43083
 O161 O 0.49592 -0.06800 0.34550
 O162 O 0.50411 -0.15400 0.43098
 Zr163 Zr 0.55450 -0.00045 0.49925
 Zr164 Zr 0.44512 -0.00071 0.49921
 O165 O 0.46790 -0.00056 0.42110
 O166 O 0.53258 -0.00040 0.42038
 O167 O 0.46701 0.07814 0.49937
 O168 O 0.53178 -0.07861 0.49911
 O169 O 0.53161 0.07757 0.49934
 O170 O 0.46707 -0.07950 0.49904
 H171 H 0.45141 -0.00085 0.60910
 H172 H 0.54838 -0.11030 0.49909
 H173 H 0.45132 -0.00050 0.38937
 H174 H 0.54812 0.10936 0.49940
 H175 H 0.48274 -0.16834 0.54554
 H176 H 0.48376 -0.16816 0.45328
 H177 H 0.51663 -0.04629 0.33153
 H178 H 0.51647 0.04604 0.33164
 H179 H 0.48341 0.16704 0.45355
 H180 H 0.48321 0.16688 0.54572
 H181 H 0.51665 0.04567 0.66700
 H182 H 0.51571 -0.04640 0.66682
 O183 O 0.55142 0.59392 0.09911
 O184 O 0.59173 0.54506 0.04711
 C185 C 0.58424 0.57982 0.08458
 O186 O 0.44813 0.40180 0.09411
 O187 O 0.40771 0.45388 0.04544
 C188 C 0.41528 0.41634 0.08013
 O189 O 0.55125 0.40624 0.09886
 O190 O 0.59167 0.45504 0.04697
 C191 C 0.58412 0.42018 0.08436
 O192 O 0.44833 0.59897 0.09465
 O193 O 0.40775 0.54734 0.04584
 C194 C 0.41537 0.58469 0.08076
 Zr195 Zr 0.49986 0.56855 0.06872
 O196 O 0.49592 0.56846 0.15404
 O197 O 0.50401 0.65382 0.06838
 Zr198 Zr 0.49971 0.43204 0.06860
 O199 O 0.49572 0.43214 0.15392
 O200 O 0.50368 0.34675 0.06833
 O201 O 0.53253 0.50019 0.07921
 O202 O 0.46793 0.50036 0.07862
 O203 O 0.44823 0.59915 -0.09335
 O204 O 0.40778 0.54742 -0.04440
 C205 C 0.41537 0.58476 -0.07928
 O206 O 0.55118 0.40640 -0.09838
 O207 O 0.59164 0.45520 -0.04660
 C208 C 0.58408 0.42035 -0.08400
 O209 O 0.44845 0.40156 -0.09395
 O210 O 0.40815 0.45349 -0.04518
 C211 C 0.41563 0.41604 -0.07997
 O212 O 0.55129 0.59426 -0.09824
 O213 O 0.59169 0.54526 -0.04645
 C214 C 0.58416 0.58014 -0.08385
 Zr215 Zr 0.49975 0.56877 -0.06778
 O216 O 0.49563 0.56882 -0.15308
 O217 O 0.50389 0.65404 -0.06730
 Zr218 Zr 0.49969 0.43226 -0.06797
 O219 O 0.49559 0.43312 -0.15329
 O220 O 0.50368 0.34697 -0.06796
 Zr221 Zr 0.55435 0.50024 0.00031
 Zr222 Zr 0.44506 0.50057 0.00054
 O223 O 0.46781 0.50059 -0.07763
 O224 O 0.53245 0.50046 -0.07853
 O225 O 0.46705 0.57935 0.00055
 O226 O 0.53154 0.42218 0.00028
 O227 O 0.53170 0.57843 0.00044
 O228 O 0.46692 0.42169 0.00034
 H229 H 0.45139 0.50036 0.11037
 H230 H 0.54808 0.39044 0.00022
 H231 H 0.45125 0.50066 -0.10937
 H232 H 0.54832 0.61008 0.00045
 H233 H 0.48299 0.33270 0.04662
 H234 H 0.48340 0.33289 -0.04547
 H235 H 0.51649 0.45437 -0.16733
 H236 H 0.51604 0.54666 -0.16724
 H237 H 0.48324 0.66812 -0.04555
 H238 H 0.48327 0.66797 0.04684
 H239 H 0.51628 0.54609 0.16809
 H240 H 0.51636 0.45388 0.16803
 C241 C 1.16846 0.15656 0.16078
 C242 C 1.17687 0.20936 0.14536
 C243 C 1.20370 0.23841 0.17316
 C244 C 1.22352 0.21477 0.21617
 C245 C 1.21380 0.16179 0.23209
 C246 C 1.18692 0.13284 0.20417
 C247 C 1.13944 0.12794 0.13390
 C248 C 1.11460 0.10499 0.11153
 H249 H 1.16215 0.22855 0.11252
 H250 H 1.20870 0.27990 0.16152
 H251 H 1.22597 0.14298 0.26719
 H252 H 1.17990 0.09241 0.21732
 C253 C 1.16846 0.65744 0.66006
 C254 C 1.17692 0.71035 0.64507
 C255 C 1.20374 0.73911 0.67314
 C256 C 1.22353 0.71511 0.71599
 C257 C 1.21379 0.66202 0.73147
 C258 C 1.18689 0.63334 0.70328
 C259 C 1.13943 0.62914 0.63287
 C260 C 1.11457 0.60647 0.61025
 H261 H 1.16223 0.72982 0.61237
 H262 H 1.20879 0.78068 0.66181
 H263 H 1.22595 0.64293 0.76643
 H264 H 1.17983 0.59281 0.71608
 C265 C 0.66831 0.15684 0.66013
 C266 C 0.67667 0.20985 0.64522
 C267 C 0.70356 0.23873 0.67318
 C268 C 0.72354 0.21482 0.71590
 C269 C 0.71394 0.16162 0.73128
 C270 C 0.68698 0.13283 0.70321
 C271 C 0.63921 0.12831 0.63298
 C272 C 0.61435 0.10541 0.61039
 H273 H 0.66185 0.22931 0.61264
 H274 H 0.70849 0.28033 0.66187
 H275 H 0.72625 0.14251 0.76610
 H276 H 0.68008 0.09224 0.71600
 C277 C 0.66840 0.65671 0.16058
 C278 C 0.68678 0.63293 0.20402
 C279 C 0.71373 0.66175 0.23195
 C280 C 0.72359 0.71466 0.21599
 C281 C 0.70388 0.73834 0.17290
 C282 C 0.67699 0.70943 0.14509
 C283 C 0.63928 0.62829 0.13370
 C284 C 0.61437 0.60556 0.11128
 H285 H 0.67963 0.59255 0.21721
 H286 H 0.72584 0.64293 0.26709
 H287 H 0.70900 0.77978 0.16120
 H288 H 0.66234 0.72867 0.11221
 C289 C 0.83162 -0.16090 0.15670
 C290 C 0.81327 -0.20432 0.13288
 C291 C 0.78631 -0.23225 0.16168
 C292 C 0.77643 -0.21634 0.21459
 C293 C 0.79612 -0.17327 0.23831
 C294 C 0.82301 -0.14545 0.20943
 C295 C 0.86074 -0.13399 0.12831
 C296 C 0.88565 -0.11156 0.10560
 H297 H 0.82044 -0.21747 0.09250
 H298 H 0.77422 -0.26738 0.14283
 H299 H 0.79098 -0.16161 0.27977
 H300 H 0.83764 -0.11260 0.22869
 C301 C 0.83177 0.33959 0.65671
 C302 C 0.81308 0.29655 0.63270
 C303 C 0.78609 0.26854 0.66149
 C304 C 0.77647 0.28395 0.71468
 C305 C 0.79644 0.32666 0.73857
 C306 C 0.82337 0.35455 0.70969
 C307 C 0.86090 0.36665 0.62818
 C308 C 0.88579 0.38918 0.60530
 H309 H 0.82000 0.28372 0.59212
 H310 H 0.77378 0.23373 0.64239
 H311 H 0.79149 0.33799 0.78017
 H312 H 0.83819 0.38711 0.72916
 C313 C 0.33152 -0.16070 0.65658
 C314 C 0.31306 -0.20401 0.63279
 C315 C 0.28616 -0.23194 0.66170
 C316 C 0.27642 -0.21609 0.71470
 C317 C 0.29625 -0.17316 0.73841
 C318 C 0.32310 -0.14535 0.70941
 C319 C 0.36055 -0.13381 0.62800
 C320 C 0.38539 -0.11144 0.60505
 H321 H 0.32009 -0.21710 0.59234
 H322 H 0.27398 -0.26699 0.64283
 H323 H 0.29124 -0.16158 0.77992
 H324 H 0.33783 -0.11258 0.72865
 C325 C 0.33136 0.33972 0.15691
 C326 C 0.31292 0.29649 0.13290
 C327 C 0.28605 0.26835 0.16168
 C328 C 0.27635 0.28389 0.21478
 C329 C 0.29615 0.32674 0.23868
 C330 C 0.32294 0.35476 0.20982
 C331 C 0.36037 0.36686 0.12853
 C332 C 0.38522 0.38948 0.10584
 H333 H 0.31994 0.28364 0.09237
 H334 H 0.27388 0.23338 0.14266
 H335 H 0.29113 0.33812 0.28025
 H336 H 0.33765 0.38747 0.22922
 C337 C 0.83180 0.16036 -0.15700
 C338 C 0.82340 0.14544 -0.21000
 C339 C 0.79647 0.17335 -0.23887
 C340 C 0.77649 0.21604 -0.21496
 C341 C 0.78612 0.23141 -0.16175
 C342 C 0.81312 0.20338 -0.13297
 C343 C 0.86094 0.13326 -0.12848
 C344 C 0.88582 0.11069 -0.10560
 H345 H 0.83822 0.11290 -0.22948
 H346 H 0.79152 0.16205 -0.28048
 H347 H 0.77381 0.26620 -0.14263
 H348 H 0.82004 0.21617 -0.09238
 C349 C 0.83166 0.66083 0.34305
 C350 C 0.81326 0.70422 0.36681
 C351 C 0.78629 0.73210 0.33796
 C352 C 0.77643 0.71613 0.28504
 C353 C 0.79617 0.67308 0.26137
 C354 C 0.82307 0.64533 0.29032
 C355 C 0.86078 0.63398 0.37151
 C356 C 0.88569 0.61158 0.39428
 H357 H 0.82040 0.71741 0.40720
 H358 H 0.77417 0.76721 0.35676
 H359 H 0.79105 0.66139 0.21992
 H360 H 0.83774 0.61248 0.27110
 C361 C 0.33141 0.16037 0.34296
 C362 C 0.32300 0.14534 0.29004
 C363 C 0.29620 0.17336 0.26116
 C364 C 0.27638 0.21619 0.28507
 C365 C 0.28609 0.23173 0.33817
 C366 C 0.31297 0.20359 0.36697
 C367 C 0.36041 0.13320 0.37136
 C368 C 0.38525 0.11054 0.39404
 H369 H 0.33770 0.11264 0.27064
 H370 H 0.29118 0.16199 0.21959
 H371 H 0.27391 0.26669 0.35719
 H372 H 0.31999 0.21643 0.40751
 C373 C 0.33145 0.66078 -0.15676
 C374 C 0.31303 0.70413 -0.13298
 C375 C 0.28615 0.73211 -0.16188
 C376 C 0.27638 0.71629 -0.21488
 C377 C 0.29615 0.67330 -0.23859
 C378 C 0.32298 0.64544 -0.20959
 C379 C 0.36048 0.63384 -0.12818
 C380 C 0.38532 0.61143 -0.10525
 H381 H 0.32009 0.71721 -0.09252
 H382 H 0.27402 0.76719 -0.14302
 H383 H 0.29111 0.66173 -0.28010
 H384 H 0.33767 0.61263 -0.22882
 C385 C 1.16858 -0.15690 -0.16036
 C386 C 1.17697 -0.20982 -0.14535
 C387 C 1.20376 -0.23867 -0.17338
 C388 C 1.22358 -0.21474 -0.21622
 C389 C 1.21390 -0.16163 -0.23173
 C390 C 1.18704 -0.13286 -0.20357
 C391 C 1.13957 -0.12854 -0.13321
 C392 C 1.11472 -0.10588 -0.11058
 H393 H 1.16226 -0.22925 -0.11265
 H394 H 1.20876 -0.28025 -0.16203
 H395 H 1.22609 -0.14258 -0.26668
 H396 H 1.18003 -0.09232 -0.21639
 C397 C 1.16844 0.34335 0.33913
 C398 C 1.18686 0.36711 0.29575
 C399 C 1.21375 0.33820 0.26781
 C400 C 1.22351 0.28523 0.28370
 C401 C 1.20373 0.26155 0.32670
 C402 C 1.17690 0.29055 0.35453
 C403 C 1.13942 0.37192 0.36604
 C404 C 1.11459 0.39486 0.38844
 H405 H 1.17981 0.40754 0.28262
 H406 H 1.22589 0.35704 0.23271
 H407 H 1.20876 0.22007 0.33833
 H408 H 1.16220 0.27133 0.38737
 C409 C 0.66839 -0.15699 0.33895
 C410 C 0.68675 -0.13321 0.29551
 C411 C 0.71368 -0.16203 0.26758
 C412 C 0.72355 -0.21494 0.28353
 C413 C 0.70385 -0.23864 0.32661
 C414 C 0.67697 -0.20973 0.35442
 C415 C 0.63931 -0.12856 0.36587
 C416 C 0.61443 -0.10580 0.38831
 H417 H 0.67960 -0.09283 0.28233
 H418 H 0.72578 -0.14321 0.23244
 H419 H 0.70897 -0.28008 0.33830
 H420 H 0.66234 -0.22896 0.38730
 C421 C 0.66822 0.34303 -0.16048
 C422 C 0.68690 0.36707 -0.20353
 C423 C 0.71389 0.33832 -0.23156
 C424 C 0.72353 0.28514 -0.21616
 C425 C 0.70357 0.26121 -0.17345
 C426 C 0.67664 0.29005 -0.14554
 C427 C 0.63909 0.37151 -0.13339
 C428 C 0.61420 0.39437 -0.11083
 H429 H 0.67997 0.40765 -0.21634
 H430 H 0.72620 0.35745 -0.26637
 H431 H 0.70853 0.21962 -0.16214
 H432 H 0.66183 0.27056 -0.11298
 C433 C 1.16869 0.15654 -0.16001
 C434 C 1.17687 0.20965 -0.14537
 C435 C 1.20363 0.23857 -0.17352
 C436 C 1.22362 0.21456 -0.21613
 C437 C 1.21416 0.16126 -0.23127
 C438 C 1.18734 0.13243 -0.20301
 C439 C 1.13971 0.12800 -0.13275
 C440 C 1.11488 0.10514 -0.11015
 H441 H 1.16203 0.22917 -0.11287
 H442 H 1.20846 0.28025 -0.16243
 H443 H 1.22646 0.14206 -0.26603
 H444 H 1.18052 0.09175 -0.21559
 C445 C 1.16878 0.65813 0.33799
 C446 C 1.18214 0.63914 0.28866
 C447 C 1.20913 0.66800 0.26074
 C448 C 1.22465 0.71606 0.28227
 C449 C 1.20938 0.73544 0.33139
 C450 C 1.18240 0.70642 0.35913
 C451 C 1.13967 0.62974 0.36548
 C452 C 1.11483 0.60686 0.38828
 H453 H 1.17109 0.60253 0.27107
 H454 H 1.21736 0.65294 0.22154
 H455 H 1.21778 0.77383 0.34819
 H456 H 1.17154 0.72239 0.39660
 C457 C 0.66830 0.15703 0.33928
 C458 C 0.68685 0.13306 0.29612
 C459 C 0.71386 0.16179 0.26818
 C460 C 0.72363 0.21483 0.28381
 C461 C 0.70378 0.23869 0.32664
 C462 C 0.67682 0.20987 0.35447
 C463 C 0.63915 0.12859 0.36623
 C464 C 0.61426 0.10571 0.38865
 H465 H 0.67980 0.09258 0.28315
 H466 H 0.72608 0.14277 0.23324
 H467 H 0.70883 0.28021 0.33810
 H468 H 0.66208 0.22927 0.38714
 C469 C 0.66833 0.65697 -0.16029
 C470 C 0.67686 0.70985 -0.14522
 C471 C 0.70377 0.73863 -0.17316
 C472 C 0.72358 0.71470 -0.21600
 C473 C 0.71382 0.66162 -0.23152
 C474 C 0.68684 0.63293 -0.20345
 C475 C 0.63919 0.62863 -0.13322
 C476 C 0.61428 0.60592 -0.11067
 H477 H 0.66214 0.72930 -0.11255
 H478 H 0.70882 0.78017 -0.16178
 H479 H 0.72602 0.64256 -0.26644
 H480 H 0.67978 0.59243 -0.21633
 C481 C 0.83171 -0.16061 -0.15708
 C482 C 0.81325 -0.20386 -0.13311
 C483 C 0.78627 -0.23187 -0.16185
 C484 C 0.77644 -0.21622 -0.21490
 C485 C 0.79622 -0.17331 -0.23876
 C486 C 0.82314 -0.14541 -0.20994
 C487 C 0.86085 -0.13361 -0.12865
 C488 C 0.88575 -0.11117 -0.10580
 H489 H 0.82034 -0.21684 -0.09263
 H490 H 0.77411 -0.26685 -0.14283
 H491 H 0.79113 -0.16183 -0.28029
 H492 H 0.83783 -0.11268 -0.22934
 C493 C 0.83172 0.33979 0.34271
 C494 C 0.82325 0.35472 0.28975
 C495 C 0.79638 0.32671 0.26096
 C496 C 0.77654 0.28393 0.28494
 C497 C 0.78626 0.26851 0.33810
 C498 C 0.81320 0.29665 0.36681
 C499 C 0.86080 0.36695 0.37108
 C500 C 0.88569 0.38957 0.39380
 H501 H 0.83797 0.38736 0.27025
 H502 H 0.79135 0.33802 0.21936
 H503 H 0.77404 0.23363 0.35722
 H504 H 0.82022 0.28386 0.40738
 C505 C 0.33159 -0.16252 0.34131
 C506 C 0.31794 -0.14132 0.29305
 C507 C 0.29084 -0.16892 0.26412
 C508 C 0.27549 -0.21796 0.28357
 C509 C 0.29104 -0.23955 0.33162
 C510 C 0.31814 -0.21176 0.36039
 C511 C 0.36080 -0.13515 0.36961
 C512 C 0.38569 -0.11240 0.39243
 H513 H 0.32885 -0.10391 0.27702
 H514 H 0.28242 -0.15208 0.22573
 H515 H 0.28275 -0.27869 0.34674
 H516 H 0.32921 -0.22939 0.39699
 C517 C 0.33162 0.33953 -0.15716
 C518 C 0.32340 0.35419 -0.21028
 C519 C 0.29658 0.32615 -0.23914
 C520 C 0.27653 0.28361 -0.21507
 C521 C 0.28602 0.26845 -0.16175
 C522 C 0.31292 0.29662 -0.13298
 C523 C 0.36066 0.36671 -0.12868
 C524 C 0.38551 0.38928 -0.10585
 H525 H 0.33828 0.38664 -0.22985
 H526 H 0.29172 0.33725 -0.28083
 H527 H 0.27368 0.23374 -0.14251
 H528 H 0.31975 0.28402 -0.09228
 C529 C 1.16869 -0.15847 0.16207
 C530 C 1.18215 -0.13950 0.21136
 C531 C 1.20917 -0.16841 0.23920
 C532 C 1.22461 -0.21650 0.21763
 C533 C 1.20923 -0.23586 0.16856
 C534 C 1.18222 -0.20679 0.14090
 C535 C 1.13956 -0.13002 0.13464
 C536 C 1.11472 -0.10711 0.11185
 H537 H 1.17116 -0.10287 0.22898
 H538 H 1.21749 -0.15336 0.27836
 H539 H 1.21757 -0.27427 0.15173
 H540 H 1.17129 -0.22274 0.10346
 C541 C 1.16864 0.34296 0.65990
 C542 C 1.18737 0.36703 0.70286
 C543 C 1.21419 0.33815 0.73107
 C544 C 1.22359 0.28482 0.71591
 C545 C 1.20351 0.26085 0.67334
 C546 C 1.17676 0.28983 0.64525
 C547 C 1.13968 0.37158 0.63267
 C548 C 1.11487 0.39450 0.61007
 H549 H 1.18061 0.40773 0.71545
 H550 H 1.22656 0.35731 0.76581
 H551 H 1.20830 0.21917 0.66224
 H552 H 1.16186 0.27035 0.61277
 C553 C 0.66810 -0.15761 0.66039
 C554 C 0.67669 -0.21045 0.64531
 C555 C 0.70368 -0.23915 0.67321
 C556 C 0.72351 -0.21516 0.71602
 C557 C 0.71368 -0.16211 0.73154
 C558 C 0.68663 -0.13351 0.70352
 C559 C 0.63891 -0.12934 0.63333
 C560 C 0.61398 -0.10667 0.61078
 H561 H 0.66197 -0.22996 0.61267
 H562 H 0.70878 -0.28068 0.66182
 H563 H 0.72589 -0.14301 0.76645
 H564 H 0.67953 -0.09302 0.71641
 C565 C 0.66831 0.34290 0.16039
 C566 C 0.68686 0.36686 0.20357
 C567 C 0.71387 0.33812 0.23154
 C568 C 0.72363 0.28507 0.21591
 C569 C 0.70377 0.26122 0.17306
 C570 C 0.67682 0.29005 0.14521
 C571 C 0.63915 0.37133 0.13344
 C572 C 0.61424 0.39419 0.11103
 H573 H 0.67981 0.40734 0.21654
 H574 H 0.72609 0.35713 0.26648
 H575 H 0.70882 0.21970 0.16161
 H576 H 0.66207 0.27066 0.11254
 C577 C 0.83172 0.16015 0.15705
 C578 C 0.82325 0.14519 0.21000
 C579 C 0.79638 0.17319 0.23878
 C580 C 0.77653 0.21598 0.21479
 C581 C 0.78625 0.23141 0.16165
 C582 C 0.81319 0.20329 0.13295
 C583 C 0.86081 0.13300 0.12868
 C584 C 0.88570 0.11041 0.10597
 H585 H 0.83798 0.11255 0.22950
 H586 H 0.79136 0.16187 0.28037
 H587 H 0.77403 0.26629 0.14253
 H588 H 0.82021 0.21609 0.09239
 C589 C 0.83172 0.66037 0.65699
 C590 C 0.82322 0.64519 0.70987
 C591 C 0.79631 0.67304 0.73872
 C592 C 0.77646 0.71590 0.71487
 C593 C 0.78621 0.73154 0.66180
 C594 C 0.81319 0.70357 0.63303
 C595 C 0.86085 0.63340 0.62853
 C596 C 0.88574 0.61098 0.60567
 H597 H 0.83796 0.61250 0.72926
 H598 H 0.79127 0.66157 0.78026
 H599 H 0.77400 0.76649 0.64279
 H600 H 0.82022 0.71655 0.59254
 C601 C 0.33144 0.15975 0.65664
 C602 C 0.32329 0.14507 0.70977
 C603 C 0.29651 0.17313 0.73870
 C604 C 0.27645 0.21569 0.71469
 C605 C 0.28588 0.23086 0.66136
 C606 C 0.31272 0.20269 0.63251
 C607 C 0.36043 0.13256 0.62808
 C608 C 0.38524 0.10998 0.60518
 H609 H 0.33818 0.11260 0.72929
 H610 H 0.29171 0.16202 0.78040
 H611 H 0.27352 0.26560 0.64216
 H612 H 0.31950 0.21529 0.59181
 C613 C 0.33132 0.66189 0.15818
 C614 C 0.31788 0.71116 0.13915
 C615 C 0.29086 0.73900 0.16803
 C616 C 0.27540 0.71744 0.21614
 C617 C 0.29075 0.66837 0.23554
 C618 C 0.31776 0.64072 0.20649
 C619 C 0.36045 0.63447 0.12977
 C620 C 0.38528 0.61169 0.10687
 H621 H 0.32888 0.72877 0.10251
 H622 H 0.28257 0.77816 0.15295
 H623 H 0.28240 0.65155 0.27396
 H624 H 0.32867 0.60328 0.22248
   
