data_POSCAR
  _audit_creation_date              2014-09-24
  _audit_creation_method            'ToBaCCo'
  _symmetry_space_group_name_H-M    'P1'
  _symmetry_Int_Tables_number       1
  _symmetry_cell_setting            triclinic
  loop_
  _symmetry_equiv_pos_as_xyz
 x,y,z
_cell_length_a 31.3722
_cell_length_b 29.0831
_cell_length_c 26.5705
_cell_angle_alpha 88.792000
_cell_angle_beta 89.192200
_cell_angle_gamma 90.135600
loop_
  _atom_site_label
  _atom_site_type_symbol
  _atom_site_fract_x
  _atom_site_fract_y
  _atom_site_fract_z
C1 C 1.18997 0.26571 0.32593
 H2 H 1.18851 0.22857 0.32866
 C3 C 1.16057 0.29199 0.35255
 H4 H 1.13652 0.27493 0.37593
 C5 C 1.22202 0.33300 0.29045
 H6 H 1.24586 0.34885 0.26600
 C7 C 1.19370 0.36074 0.31734
 H8 H 1.19555 0.39774 0.31250
 N9 N 1.21875 0.28635 0.29400
 C10 C 1.23004 0.17379 0.18688
 H11 H 1.26396 0.16716 0.18607
 C12 C 1.20238 0.14573 0.15983
 H13 H 1.21559 0.11759 0.13882
 C14 C 1.17210 0.21870 0.21533
 H15 H 1.16016 0.24779 0.23566
 C16 C 1.14354 0.19177 0.18904
 H17 H 1.10994 0.20023 0.19053
 Zn18 Zn 1.25172 0.24627 0.25361
 N19 N 1.21443 0.20879 0.21503
 C20 C 1.27992 0.16401 0.30128
 N21 N 1.28580 0.21018 0.29815
 C22 C 1.31619 0.23111 0.32592
 C23 C 1.34407 0.20503 0.35585
 C24 C 1.30657 0.13676 0.33079
 C25 C 1.27109 0.31251 0.17653
 C26 C 1.29795 0.33838 0.14421
 C27 C 1.35744 0.29363 0.17447
 C28 C 1.32967 0.26906 0.20623
 N29 N 1.28752 0.27960 0.20782
 H30 H 1.25473 0.14804 0.28054
 H31 H 1.31971 0.26811 0.32348
 H32 H 1.36856 0.22280 0.37607
 H33 H 1.30132 0.09988 0.33153
 H34 H 1.23719 0.31925 0.17735
 H35 H 1.28419 0.36482 0.12037
 H36 H 1.39104 0.28507 0.17460
 H37 H 1.34197 0.24143 0.22950
 C38 C 1.15825 0.15442 0.16118
 C39 C 1.16186 0.34003 0.34790
 C40 C 1.34200 0.32940 0.14365
 C41 C 1.33999 0.15676 0.35789
 C42 C 0.67546 -0.23790 0.32103
 H43 H 0.67266 -0.27498 0.32316
 C44 C 0.64656 -0.21063 0.34765
 H45 H 0.62192 -0.22728 0.37030
 C46 C 0.71130 -0.17175 0.28837
 H47 H 0.73669 -0.15660 0.26572
 C48 C 0.68333 -0.14332 0.31429
 H49 H 0.68755 -0.10639 0.31090
 N50 N 0.70640 -0.21811 0.29124
 C51 C 0.72711 -0.32420 0.18009
 H52 H 0.76099 -0.33059 0.18248
 C53 C 0.70162 -0.35231 0.15071
 H54 H 0.71637 -0.37993 0.13027
 C55 C 0.66703 -0.28029 0.20444
 H56 H 0.65359 -0.25199 0.22486
 C57 C 0.64060 -0.30702 0.17540
 H58 H 0.60688 -0.29914 0.17440
 Zn59 Zn 0.74240 -0.25672 0.25289
 N60 N 0.70916 -0.29020 0.20769
 C61 C 0.76079 -0.34388 0.29892
 N62 N 0.76900 -0.29785 0.29915
 C63 C 0.79511 -0.27963 0.33394
 C64 C 0.81688 -0.30831 0.36754
 C65 C 0.78176 -0.37385 0.33205
 C66 C 0.76829 -0.19064 0.17889
 C67 C 0.79666 -0.16273 0.15062
 C68 C 0.85489 -0.19940 0.19401
 C69 C 0.82550 -0.22640 0.22144
 N70 N 0.78298 -0.22108 0.21423
 H71 H 0.73823 -0.35767 0.27291
 H72 H 0.79977 -0.24278 0.33476
 H73 H 0.83833 -0.29317 0.39416
 H74 H 0.77616 -0.41053 0.33014
 H75 H 0.73434 -0.18761 0.17309
 H76 H 0.78386 -0.13878 0.12316
 H77 H 0.88859 -0.20401 0.20083
 H78 H 0.83685 -0.25159 0.24847
 C79 C 0.65748 -0.34430 0.14918
 C80 C 0.65008 -0.16249 0.34390
 C81 C 0.84078 -0.16660 0.15843
 C82 C 0.81135 -0.35626 0.36558
 C83 C 0.67221 0.27808 -0.21764
 H84 H 0.66069 0.24713 -0.23465
 C85 C 0.64359 0.30618 -0.19238
 H86 H 0.61017 0.29669 -0.19088
 C87 C 0.72963 0.32719 -0.19773
 H88 H 0.76330 0.33515 -0.20038
 C89 C 0.70194 0.35648 -0.17190
 H90 H 0.71481 0.38699 -0.15518
 N91 N 0.71419 0.28949 -0.22099
 C92 C 0.72087 0.16597 -0.29583
 H93 H 0.74503 0.15051 -0.27249
 C94 C 0.69344 0.13788 -0.32243
 H95 H 0.69669 0.10089 -0.31866
 C96 C 0.68790 0.23251 -0.33011
 H97 H 0.68598 0.26962 -0.33270
 C98 C 0.65954 0.20563 -0.35723
 H99 H 0.63639 0.22257 -0.38092
 Zn100 Zn 0.75083 0.25193 -0.25959
 N101 N 0.71694 0.21242 -0.29900
 C102 C 0.77138 0.18375 -0.18390
 N103 N 0.78728 0.21823 -0.21432
 C104 C 0.82924 0.22990 -0.21269
 C105 C 0.85732 0.20478 -0.18260
 C106 C 0.79854 0.15740 -0.15318
 C107 C 0.77503 0.33343 -0.31606
 C108 C 0.80102 0.35929 -0.34944
 C109 C 0.84417 0.29162 -0.36172
 C110 C 0.81649 0.26689 -0.32983
 N111 N 0.78384 0.28838 -0.30597
 H112 H 0.73766 0.17592 -0.18433
 H113 H 0.84124 0.25884 -0.23475
 H114 H 0.89072 0.21435 -0.18298
 H115 H 0.78509 0.12943 -0.13070
 H116 H 0.74794 0.34951 -0.29813
 H117 H 0.79372 0.39531 -0.35527
 H118 H 0.87102 0.27380 -0.37840
 H119 H 0.82197 0.23066 -0.32253
 C120 C 0.66169 0.15749 -0.35284
 C121 C 0.65809 0.34618 -0.16954
 C122 C 0.83710 0.33868 -0.37178
 C123 C 0.84249 0.16739 -0.15296
 C124 C 1.16466 -0.22326 -0.21593
 H125 H 1.15183 -0.24774 -0.24166
 C126 C 1.13703 -0.19337 -0.19146
 H127 H 1.10326 -0.19513 -0.19925
 C128 C 1.22352 -0.19235 -0.17321
 H129 H 1.25744 -0.19226 -0.16636
 C130 C 1.19690 -0.16151 -0.14792
 H131 H 1.21078 -0.13845 -0.12127
 N132 N 1.20726 -0.22149 -0.20763
 C133 C 1.21679 -0.34222 -0.28979
 H134 H 1.23743 -0.35958 -0.26342
 C135 C 1.19132 -0.36825 -0.32121
 H136 H 1.19184 -0.40537 -0.31754
 C137 C 1.19044 -0.27293 -0.32594
 H138 H 1.19018 -0.23573 -0.32730
 C139 C 1.16399 -0.29755 -0.35745
 H140 H 1.14315 -0.27910 -0.38297
 Zn141 Zn 1.24509 -0.25964 -0.24515
 N142 N 1.21473 -0.29545 -0.29144
 C143 C 1.25034 -0.32932 -0.16987
 N144 N 1.27336 -0.29896 -0.19910
 C145 C 1.31650 -0.29725 -0.19691
 C146 C 1.33833 -0.32804 -0.16611
 C147 C 1.27104 -0.36103 -0.13830
 C148 C 1.28154 -0.17625 -0.28065
 C149 C 1.31089 -0.14802 -0.30601
 C150 C 1.34580 -0.21544 -0.33817
 C151 C 1.31547 -0.24262 -0.31199
 N152 N 1.28482 -0.22270 -0.28287
 H153 H 1.21593 -0.32970 -0.17215
 H154 H 1.33426 -0.27244 -0.21953
 H155 H 1.37282 -0.32712 -0.16703
 H156 H 1.25256 -0.38568 -0.11596
 H157 H 1.25609 -0.16074 -0.25932
 H158 H 1.30774 -0.11107 -0.30305
 H159 H 1.37029 -0.23208 -0.36020
 H160 H 1.31684 -0.27970 -0.31410
 C161 C 1.16373 -0.34573 -0.35468
 C162 C 1.15296 -0.16137 -0.15762
 C163 C 1.34387 -0.16732 -0.33477
 C164 C 1.31560 -0.36039 -0.13601
 C165 C 0.26836 0.18484 0.67977
 H166 H 0.23415 0.18140 0.67916
 C167 C 0.29349 0.15706 0.64917
 H168 H 0.27829 0.13233 0.62528
 C169 C 0.33005 0.21909 0.71322
 H170 H 0.34454 0.24181 0.73961
 C171 C 0.35636 0.19260 0.68253
 H172 H 0.39061 0.19543 0.68581
 N173 N 0.28679 0.21568 0.71056
 C174 C 0.17885 0.23759 0.80905
 H175 H 0.17092 0.27225 0.79705
 C176 C 0.14899 0.21125 0.83627
 H177 H 0.11832 0.22634 0.84522
 C178 C 0.22782 0.17576 0.80991
 H179 H 0.25818 0.16179 0.79808
 C180 C 0.19923 0.14843 0.83858
 H181 H 0.20835 0.11356 0.84820
 Zn182 Zn 0.25104 0.25477 0.74947
 N183 N 0.21699 0.21930 0.79543
 C184 C 0.18072 0.26414 0.68526
 N185 N 0.21321 0.28757 0.70656
 C186 C 0.21640 0.33410 0.70111
 C187 C 0.18689 0.35865 0.67261
 C188 C 0.15015 0.28745 0.65692
 C189 C 0.28294 0.30207 0.83435
 C190 C 0.31007 0.33272 0.85833
 C191 C 0.34128 0.35333 0.77724
 C192 C 0.31323 0.32311 0.75488
 N193 N 0.28535 0.29755 0.78353
 H194 H 0.17737 0.22757 0.69200
 H195 H 0.24100 0.35274 0.71991
 H196 H 0.18954 0.39574 0.67002
 H197 H 0.12406 0.26844 0.64097
 H198 H 0.26052 0.28139 0.85634
 H199 H 0.30880 0.33491 0.89893
 H200 H 0.36419 0.37229 0.75398
 H201 H 0.31434 0.31905 0.71450
 C202 C 0.15862 0.16586 0.85122
 C203 C 0.33798 0.16134 0.64974
 C204 C 0.34002 0.35831 0.82946
 C205 C 0.15326 0.33520 0.65005
 C206 C 0.78140 0.70222 0.66393
 H207 H 0.75403 0.71663 0.64517
 C208 C 0.80909 0.67340 0.63762
 H209 H 0.80290 0.66654 0.59854
 C210 C 0.82372 0.69551 0.73690
 H211 H 0.82932 0.70461 0.77552
 C212 C 0.85233 0.66699 0.71198
 H213 H 0.88004 0.65422 0.73168
 N214 N 0.78911 0.71251 0.71270
 C215 C 0.68103 0.73696 0.80866
 H216 H 0.67324 0.77156 0.79629
 C217 C 0.65164 0.71135 0.83726
 H218 H 0.62126 0.72679 0.84687
 C219 C 0.72955 0.67464 0.80935
 H220 H 0.75952 0.66011 0.79724
 C221 C 0.70144 0.64801 0.83902
 H222 H 0.71057 0.61318 0.84876
 Zn223 Zn 0.75307 0.75242 0.74894
 N224 N 0.71872 0.71804 0.79451
 C225 C 0.68283 0.76302 0.68342
 N226 N 0.71651 0.78473 0.70454
 C227 C 0.72295 0.83056 0.69745
 C228 C 0.69480 0.85653 0.66874
 C229 C 0.65340 0.78797 0.65458
 C230 C 0.77836 0.80525 0.83308
 C231 C 0.80497 0.83519 0.85896
 C232 C 0.84947 0.84222 0.78426
 C233 C 0.82193 0.81266 0.75977
 N234 N 0.78735 0.79454 0.78441
 H235 H 0.67821 0.72651 0.69010
 H236 H 0.74954 0.84733 0.71482
 H237 H 0.70041 0.89318 0.66420
 H238 H 0.62655 0.77020 0.63883
 H239 H 0.75084 0.79020 0.85207
 H240 H 0.79790 0.84224 0.89800
 H241 H 0.87733 0.85555 0.76424
 H242 H 0.82844 0.80352 0.72117
 C243 C 0.66138 0.66610 0.85256
 C244 C 0.84515 0.65545 0.66184
 C245 C 0.84128 0.85382 0.83446
 C246 C 0.65914 0.83560 0.64748
 C247 C 0.77182 0.18267 0.18584
 H248 H 0.73780 0.17644 0.18571
 C249 C 0.79919 0.15513 0.15720
 H250 H 0.78559 0.12787 0.13552
 C251 C 0.83024 0.22608 0.21444
 H252 H 0.84241 0.25429 0.23577
 C253 C 0.85856 0.19968 0.18645
 H254 H 0.89229 0.20762 0.18747
 N255 N 0.78778 0.21660 0.21477
 C256 C 0.68796 0.23584 0.33030
 H257 H 0.68517 0.27292 0.32919
 C258 C 0.65989 0.20946 0.36047
 H259 H 0.63603 0.22666 0.38293
 C260 C 0.72269 0.16878 0.30179
 H261 H 0.74726 0.15300 0.27921
 C262 C 0.69576 0.14123 0.33169
 H263 H 0.69978 0.10424 0.33134
 Zn264 Zn 0.75047 0.25251 0.25547
 N265 N 0.71755 0.21510 0.30044
 C266 C 0.67146 0.27367 0.21290
 N267 N 0.71347 0.28519 0.21227
 C268 C 0.72896 0.31875 0.18057
 C269 C 0.70128 0.34423 0.15010
 C270 C 0.64282 0.29798 0.18316
 C271 C 0.81065 0.27181 0.32709
 C272 C 0.83885 0.29796 0.35472
 C273 C 0.80637 0.36690 0.32060
 C274 C 0.77909 0.33929 0.29288
 N275 N 0.78264 0.29264 0.29548
 H276 H 0.65990 0.24548 0.23638
 H277 H 0.76276 0.32628 0.17968
 H278 H 0.71447 0.37129 0.12614
 H279 H 0.60937 0.28866 0.18501
 H280 H 0.81226 0.23466 0.32909
 H281 H 0.86227 0.28075 0.37799
 H282 H 0.80441 0.40393 0.31642
 H283 H 0.75580 0.35522 0.26864
 C284 C 0.66316 0.16133 0.36049
 C285 C 0.84343 0.16325 0.15780
 C286 C 0.83733 0.34604 0.35115
 C287 C 0.65732 0.33428 0.15187
 C288 C 0.27768 0.68439 0.17831
 H289 H 0.24360 0.67851 0.17925
 C290 C 0.30425 0.65608 0.14978
 H291 H 0.29000 0.62870 0.12887
 C292 C 0.33710 0.72755 0.20481
 H293 H 0.34992 0.75576 0.22560
 C294 C 0.36464 0.70047 0.17681
 H295 H 0.39849 0.70794 0.17706
 N296 N 0.29464 0.71828 0.20641
 C297 C 0.20318 0.73689 0.32847
 H298 H 0.20286 0.77409 0.32862
 C299 C 0.17485 0.71199 0.35928
 H300 H 0.15267 0.73016 0.38329
 C301 C 0.23108 0.66811 0.29498
 H302 H 0.25284 0.65119 0.26963
 C303 C 0.20359 0.64173 0.32575
 H304 H 0.20385 0.60468 0.32275
 Zn305 Zn 0.25967 0.75316 0.24959
 N306 N 0.22913 0.71483 0.29554
 C307 C 0.17794 0.77801 0.21515
 N308 N 0.22021 0.78780 0.20992
 C309 C 0.23405 0.82114 0.17679
 C310 C 0.20476 0.84795 0.14972
 C311 C 0.14775 0.80370 0.18894
 C312 C 0.32273 0.77067 0.32040
 C313 C 0.35091 0.79697 0.34838
 C314 C 0.31873 0.86535 0.31240
 C315 C 0.29137 0.83777 0.28532
 N316 N 0.29444 0.79133 0.28882
 H317 H 0.16729 0.75011 0.23963
 H318 H 0.26788 0.82750 0.17205
 H319 H 0.21683 0.87459 0.12440
 H320 H 0.11427 0.79553 0.19447
 H321 H 0.32400 0.73352 0.32298
 H322 H 0.37329 0.77912 0.37229
 H323 H 0.31573 0.90237 0.30818
 H324 H 0.26789 0.85364 0.26136
 C325 C 0.17422 0.66394 0.35732
 C326 C 0.34859 0.66355 0.14974
 C327 C 0.34955 0.84532 0.34414
 C328 C 0.16072 0.83971 0.15630
 O329 O 1.05946 0.07870 0.09218
 O330 O 1.10700 0.03813 0.04415
 C331 C 1.09800 0.06776 0.07868
 O332 O 0.93995 -0.08758 0.08691
 O333 O 0.89224 -0.04202 0.04428
 C334 C 0.90139 -0.07572 0.07530
 O335 O 1.05884 -0.08378 0.08943
 O336 O 1.10656 -0.04026 0.04249
 C337 C 1.09743 -0.07191 0.07610
 O338 O 0.94111 0.08449 0.08834
 O339 O 0.89275 0.04117 0.04582
 C340 C 0.90238 0.07337 0.07693
 Zr341 Zr 0.99988 0.05558 0.06633
 O342 O 0.99488 0.04623 0.14552
 O343 O 1.00309 0.12737 0.07633
 Zr344 Zr 0.99921 -0.05927 0.06374
 O345 O 0.99445 -0.05884 0.14333
 O346 O 1.00326 -0.13190 0.06543
 O347 O 1.03821 -0.00234 0.07415
 O348 O 0.96169 -0.00194 0.07475
 O349 O 0.94079 0.08881 -0.08293
 O350 O 0.89259 0.04388 -0.03834
 C351 C 0.90207 0.07721 -0.07003
 O352 O 1.05779 -0.07780 -0.09206
 O353 O 1.10613 -0.03811 -0.04562
 C354 C 1.09647 -0.06795 -0.07946
 O355 O 0.93987 -0.07981 -0.08710
 O356 O 0.89219 -0.03852 -0.03998
 C357 C 0.90136 -0.06906 -0.07349
 O358 O 1.05982 0.08607 -0.08737
 O359 O 1.10697 0.04037 -0.04415
 C360 C 1.09829 0.07336 -0.07606
 Zr361 Zr 1.00000 0.06085 -0.06088
 O362 O 0.99609 0.06074 -0.14041
 O363 O 1.00406 0.13355 -0.06183
 Zr364 Zr 0.99906 -0.05431 -0.06344
 O365 O 0.99487 -0.04833 -0.14282
 O366 O 1.00258 -0.12683 -0.06739
 Zr367 Zr 1.06375 0.00035 0.00018
 Zr368 Zr 0.93527 0.00101 0.00241
 O369 O 0.96198 0.00383 -0.07067
 O370 O 1.03811 0.00340 -0.07277
 O371 O 0.96213 0.06764 0.00350
 O372 O 1.03601 -0.06563 -0.00068
 O373 O 1.03695 0.06665 0.00233
 O374 O 0.96109 -0.06585 0.00054
 H375 H 0.94181 -0.00278 0.10408
 H376 H 1.05442 -0.09324 -0.00142
 H377 H 0.94258 0.00505 -0.09978
 H378 H 1.05574 0.09406 0.00266
 H379 H 0.98333 -0.14337 0.04007
 H380 H 0.98041 -0.13987 -0.04439
 H381 H 1.02097 -0.03258 -0.15556
 H382 H 1.02287 0.04748 -0.15374
 H383 H 0.98189 0.14498 -0.03840
 H384 H 1.00243 0.14178 0.04238
 H385 H 1.02296 0.03592 0.15789
 H386 H 1.02091 -0.04494 0.15607
 O387 O 1.06160 0.57584 0.58951
 O388 O 1.10848 0.53365 0.54218
 C389 C 1.09981 0.56323 0.57671
 O390 O 0.93497 0.41531 0.57147
 O391 O 0.89096 0.46755 0.53264
 C392 C 0.89745 0.43106 0.56056
 O393 O 1.05359 0.41409 0.58233
 O394 O 1.10437 0.45622 0.53859
 C395 C 1.09288 0.42466 0.57114
 O396 O 0.94360 0.58495 0.58453
 O397 O 0.89518 0.54815 0.53540
 C398 C 0.90502 0.57701 0.57002
 Zr399 Zr 1.00204 0.55663 0.56053
 O400 O 0.99546 0.54854 0.63969
 O401 O 1.00901 0.62867 0.56713
 Zr402 Zr 0.99616 0.44161 0.55367
 O403 O 0.98843 0.43652 0.63289
 O404 O 0.99546 0.36931 0.54669
 O405 O 1.03705 0.49628 0.56809
 O406 O 0.96144 0.50071 0.56538
 O407 O 0.95000 0.59931 0.41370
 O408 O 0.89799 0.55438 0.45173
 C409 C 0.91055 0.58922 0.42370
 O410 O 1.05943 0.42466 0.40038
 O411 O 1.10735 0.46158 0.45029
 C412 C 1.09797 0.43348 0.41481
 O413 O 0.94037 0.42631 0.40325
 O414 O 0.89361 0.47166 0.44714
 C415 C 0.90213 0.43951 0.41540
 O416 O 1.06743 0.58662 0.40946
 O417 O 1.11118 0.53856 0.45470
 C418 C 1.10476 0.57183 0.42253
 Zr419 Zr 1.00618 0.56464 0.43346
 O420 O 1.00597 0.56128 0.35411
 O421 O 1.01264 0.63698 0.42871
 Zr422 Zr 1.00025 0.45010 0.42709
 O423 O 0.99851 0.45878 0.34782
 O424 O 1.00010 0.37779 0.42020
 Zr425 Zr 1.06500 0.49969 0.49547
 Zr426 Zr 0.93711 0.50744 0.49219
 O427 O 0.96567 0.51035 0.42009
 O428 O 1.04196 0.50578 0.42147
 O429 O 0.96693 0.57224 0.49666
 O430 O 1.03494 0.43522 0.49095
 O431 O 1.04133 0.56720 0.49835
 O432 O 0.95979 0.43936 0.48901
 H433 H 0.94124 0.49967 0.59440
 H434 H 1.05247 0.40694 0.49012
 H435 H 0.94671 0.51349 0.39069
 H436 H 1.06129 0.59354 0.50009
 H437 H 0.99347 0.35620 0.58138
 H438 H 0.98538 0.36500 0.45058
 H439 H 1.02499 0.47500 0.33704
 H440 H 1.00736 0.59354 0.34145
 H441 H 1.01347 0.64787 0.46363
 H442 H 0.98851 0.64349 0.54396
 H443 H 1.02106 0.53232 0.65213
 H444 H 1.01237 0.45340 0.64784
 O445 O 0.57352 -0.06691 0.59256
 O446 O 0.53485 -0.11843 0.54734
 C447 C 0.56415 -0.10838 0.57957
 O448 O 0.41815 0.06006 0.59050
 O449 O 0.45980 0.11334 0.54764
 C450 C 0.42880 0.10203 0.57856
 O451 O 0.42271 -0.06665 0.59666
 O452 O 0.46027 -0.11822 0.54930
 C453 C 0.43195 -0.10820 0.58362
 O454 O 0.57910 0.05926 0.58671
 O455 O 0.53831 0.11299 0.54533
 C456 C 0.56948 0.10137 0.57487
 Zr457 Zr 0.55079 -0.00308 0.56688
 O458 O 0.54262 -0.00303 0.64595
 O459 O 0.61777 -0.00466 0.57478
 Zr460 Zr 0.44533 -0.00274 0.56943
 O461 O 0.45406 -0.00251 0.64813
 O462 O 0.37840 -0.00395 0.58028
 O463 O 0.49793 -0.04524 0.57778
 O464 O 0.49837 0.03835 0.57746
 O465 O 0.57710 0.06314 0.41773
 O466 O 0.53751 0.11493 0.46244
 C467 C 0.56816 0.10460 0.43118
 O468 O 0.42228 -0.06225 0.41480
 O469 O 0.45981 -0.11602 0.46014
 C470 C 0.43154 -0.10440 0.42674
 O471 O 0.41839 0.06333 0.42106
 O472 O 0.45856 0.11511 0.46378
 C473 C 0.42777 0.10492 0.43338
 O474 O 0.57184 -0.06303 0.41122
 O475 O 0.53407 -0.11635 0.45872
 C476 C 0.56234 -0.10504 0.42428
 Zr477 Zr 0.55033 -0.00039 0.43980
 O478 O 0.54364 0.00386 0.36081
 O479 O 0.61755 -0.00439 0.43353
 Zr480 Zr 0.44450 -0.00001 0.44259
 O481 O 0.44691 0.00666 0.36305
 O482 O 0.37713 -0.00418 0.44186
 Zr483 Zr 0.49744 -0.07148 0.50423
 Zr484 Zr 0.49816 0.06821 0.50471
 O485 O 0.49763 0.04116 0.43202
 O486 O 0.49717 -0.04185 0.43115
 O487 O 0.55952 0.03880 0.50322
 O488 O 0.43651 -0.04143 0.50600
 O489 O 0.55862 -0.04168 0.50294
 O490 O 0.43641 0.03937 0.50628
 H491 H 0.49873 0.05927 0.60644
 H492 H 0.41092 -0.06146 0.50624
 H493 H 0.49761 0.06310 0.40296
 H494 H 0.58419 -0.06156 0.50186
 H495 H 0.36577 -0.01263 0.54799
 H496 H 0.36609 0.01647 0.46812
 H497 H 0.46403 -0.01919 0.35011
 H498 H 0.57298 0.00464 0.34650
 H499 H 0.62944 0.01411 0.46086
 H500 H 0.63007 -0.01194 0.54149
 H501 H 0.57168 -0.00170 0.65995
 H502 H 0.42511 -0.00115 0.66339
 O503 O 0.56238 0.57110 0.09137
 O504 O 0.60971 0.53275 0.04089
 C505 C 0.60075 0.56121 0.07648
 O506 O 0.44031 0.40865 0.07571
 O507 O 0.39360 0.45742 0.03591
 C508 C 0.40207 0.42213 0.06482
 O509 O 0.55900 0.41050 0.08075
 O510 O 0.60777 0.45460 0.03622
 C511 C 0.59781 0.42227 0.06861
 O512 O 0.44422 0.57825 0.08833
 O513 O 0.39558 0.53897 0.04192
 C514 C 0.40553 0.56923 0.07494
 Zr515 Zr 0.50285 0.55063 0.06410
 O516 O 0.49757 0.53973 0.14304
 O517 O 0.50817 0.62237 0.07427
 Zr518 Zr 0.50021 0.43602 0.05440
 O519 O 0.49512 0.42808 0.13365
 O520 O 0.50093 0.36408 0.04459
 O521 O 0.53991 0.49164 0.06888
 O522 O 0.46388 0.49351 0.06885
 O523 O 0.44636 0.59597 -0.07675
 O524 O 0.39627 0.54724 -0.04087
 C525 C 0.40743 0.58413 -0.06633
 O526 O 0.56035 0.42526 -0.10147
 O527 O 0.60869 0.46167 -0.05168
 C528 C 0.59906 0.43423 -0.08776
 O529 O 0.44149 0.42293 -0.09606
 O530 O 0.39445 0.46380 -0.04753
 C531 C 0.40317 0.43385 -0.08165
 O532 O 0.56362 0.58673 -0.08750
 O533 O 0.60997 0.53879 -0.04615
 C534 C 0.60178 0.57310 -0.07644
 Zr535 Zr 0.50374 0.56146 -0.06287
 O536 O 0.50106 0.55935 -0.14219
 O537 O 0.50812 0.63398 -0.06767
 Zr538 Zr 0.50105 0.44731 -0.07213
 O539 O 0.49738 0.45714 -0.15115
 O540 O 0.50288 0.37518 -0.08045
 Zr541 Zr 0.56598 0.49752 -0.00458
 Zr542 Zr 0.43775 0.50065 -0.00337
 O543 O 0.46440 0.50634 -0.07634
 O544 O 0.54106 0.50438 -0.07766
 O545 O 0.46601 0.56622 0.00182
 O546 O 0.53763 0.43221 -0.00979
 O547 O 0.54026 0.56398 0.00091
 O548 O 0.46245 0.43362 -0.00913
 H549 H 0.44420 0.49155 0.09832
 H550 H 0.55600 0.40462 -0.01187
 H551 H 0.44454 0.50972 -0.10487
 H552 H 0.55924 0.59114 0.00275
 H553 H 0.50048 0.34990 0.07885
 H554 H 0.48744 0.36143 -0.05108
 H555 H 0.52278 0.47507 -0.16233
 H556 H 0.50043 0.59182 -0.15414
 H557 H 0.51108 0.64478 -0.03289
 H558 H 0.49018 0.63760 0.04862
 H559 H 0.52472 0.52631 0.15476
 H560 H 0.51759 0.44733 0.14834
 C561 C 1.12587 0.12626 0.13527
 C562 C 1.13362 0.09184 0.10332
 H563 H 1.09296 0.13543 0.14278
 H564 H 1.16589 0.08200 0.09376
 C565 C 1.13127 0.62919 0.61701
 C566 C 1.13540 0.58572 0.60193
 H567 H 1.10242 0.64789 0.60785
 H568 H 1.16518 0.56742 0.60626
 C569 C 0.63230 0.12589 0.62140
 C570 C 0.59667 0.13761 0.59636
 H571 H 0.64047 0.08977 0.62472
 H572 H 0.58720 0.17314 0.59173
 C573 C 0.62712 0.62666 0.12206
 C574 C 0.63572 0.58652 0.10002
 H575 H 0.59461 0.63924 0.12137
 H576 H 0.66772 0.57294 0.09792
 C577 C 0.87349 -0.13821 0.13086
 C578 C 0.86586 -0.10230 0.09936
 H579 H 0.90636 -0.14733 0.13803
 H580 H 0.83365 -0.09165 0.09133
 C581 C 0.86626 0.36214 0.59986
 C582 C 0.86213 0.40740 0.58087
 H583 H 0.89554 0.34430 0.59019
 H584 H 0.83123 0.42379 0.57940
 C585 C 0.37442 -0.13506 0.64006
 C586 C 0.40670 -0.14566 0.60843
 H587 H 0.36880 -0.09913 0.64779
 H588 H 0.41343 -0.18089 0.59894
 C589 C 0.37360 0.35611 0.11306
 C590 C 0.36626 0.39586 0.08803
 H591 H 0.40591 0.34295 0.11357
 H592 H 0.33460 0.41029 0.08598
 C593 C 0.87459 0.14004 -0.12432
 C594 C 0.86670 0.10330 -0.09381
 H595 H 0.90746 0.15080 -0.12980
 H596 H 0.83444 0.09164 -0.08643
 C597 C 0.83828 0.61172 0.39527
 C598 C 0.87955 0.62108 0.40140
 H599 H 0.82560 0.57839 0.40686
 H600 H 0.89261 0.65280 0.38547
 C601 C 0.36650 0.12827 0.38331
 C602 C 0.40236 0.14001 0.41229
 H603 H 0.35938 0.09189 0.38054
 H604 H 0.41037 0.17544 0.41938
 C605 C 0.33860 0.60560 -0.10427
 C606 C 0.37567 0.61710 -0.08396
 H607 H 0.32680 0.57061 -0.10096
 H608 H 0.38646 0.65249 -0.08681
 C609 C 1.12191 -0.13027 -0.13296
 C610 C 1.13118 -0.09435 -0.10380
 H611 H 1.08868 -0.13805 -0.13956
 H612 H 1.16381 -0.08516 -0.09612
 C613 C 1.12765 0.36693 0.37208
 C614 C 1.13337 0.40905 0.39025
 H615 H 1.09683 0.35034 0.37707
 H616 H 1.16481 0.42453 0.38994
 C617 C 0.62081 -0.13035 0.36964
 C618 C 0.58707 -0.14164 0.39937
 H619 H 0.62837 -0.09424 0.36371
 H620 H 0.57848 -0.17711 0.40714
 C621 C 0.62585 0.37570 -0.14499
 C622 C 0.63416 0.40999 -0.11351
 H623 H 0.59285 0.36706 -0.15199
 H624 H 0.66654 0.41863 -0.10393
 C625 C 1.12659 0.13969 -0.12389
 C626 C 1.13254 0.09731 -0.09868
 H627 H 1.09495 0.15462 -0.12235
 H628 H 1.16436 0.08411 -0.09299
 C629 C 1.13957 0.63888 0.38407
 C630 C 1.14216 0.59501 0.39984
 H631 H 1.11040 0.65779 0.39114
 H632 H 1.17194 0.57642 0.39730
 C633 C 0.63372 0.13013 0.38875
 C634 C 0.59582 0.14141 0.40949
 H635 H 0.64347 0.09439 0.39030
 H636 H 0.58486 0.17661 0.40999
 C637 C 0.62988 0.64037 -0.12161
 C638 C 0.63606 0.59751 -0.09769
 H639 H 0.59839 0.65561 -0.11910
 H640 H 0.66780 0.58392 -0.09254
 C641 C 0.87339 -0.11809 -0.13954
 C642 C 0.86607 -0.09354 -0.09797
 H643 H 0.90508 -0.11745 -0.15636
 H644 H 0.83426 -0.09105 -0.08199
 C645 C 0.87093 0.37261 0.37595
 C646 C 0.86621 0.41567 0.39208
 H647 H 0.90090 0.35507 0.38237
 H648 H 0.83560 0.43269 0.39015
 C649 C 0.37587 -0.12631 0.36871
 C650 C 0.40842 -0.13871 0.40264
 H651 H 0.37100 -0.08983 0.36164
 H652 H 0.41534 -0.17426 0.41185
 C653 C 0.37312 0.38670 -0.14746
 C654 C 0.36738 0.40972 -0.10483
 H655 H 0.40359 0.38905 -0.16716
 H656 H 0.33633 0.41058 -0.08653
 C657 C 1.12690 -0.13319 0.13061
 C658 C 1.13339 -0.09648 0.09992
 H659 H 1.09436 -0.14434 0.13791
 H660 H 1.16523 -0.08423 0.09119
 C661 C 1.11965 0.35996 0.62230
 C662 C 1.12699 0.39948 0.59690
 H663 H 1.08817 0.34452 0.62186
 H664 H 1.15899 0.41339 0.59380
 C665 C 0.62918 -0.13407 0.62002
 C666 C 0.59074 -0.14531 0.60186
 H667 H 0.63966 -0.09862 0.61582
 H668 H 0.57913 -0.18034 0.60294
 C669 C 0.62497 0.36052 0.12322
 C670 C 0.63286 0.39726 0.09318
 H671 H 0.59223 0.34909 0.12822
 H672 H 0.66494 0.40969 0.08640
 C673 C 0.87547 0.13516 0.13050
 C674 C 0.86722 0.09932 0.10091
 H675 H 0.90847 0.14483 0.13575
 H676 H 0.83487 0.08867 0.09387
 C677 C 0.87756 0.62750 0.63564
 C678 C 0.87025 0.60261 0.59465
 H679 H 0.90906 0.62687 0.65192
 H680 H 0.83857 0.60037 0.57929
 C681 C 0.36407 0.12927 0.62010
 C682 C 0.40351 0.13854 0.60224
 H683 H 0.34980 0.09612 0.61279
 H684 H 0.41724 0.17254 0.60534
 C685 C 0.37986 0.63418 0.12343
 C686 C 0.37090 0.59589 0.09828
 H687 H 0.41291 0.64482 0.12576
 H688 H 0.33847 0.58430 0.09368
   
