data_POSCAR
  _audit_creation_date              2014-09-24
  _audit_creation_method            'ToBaCCo'
  _symmetry_space_group_name_H-M    'P1'
  _symmetry_Int_Tables_number       1
  _symmetry_cell_setting            triclinic
  loop_
  _symmetry_equiv_pos_as_xyz
 x,y,z
_cell_length_a 41.0685
_cell_length_b 39.4344
_cell_length_c 39.8500
_cell_angle_alpha 91.716900
_cell_angle_beta 87.183900
_cell_angle_gamma 90.150400
loop_
  _atom_site_label
  _atom_site_type_symbol
  _atom_site_fract_x
  _atom_site_fract_y
  _atom_site_fract_z
N1 N 0.16032 0.21996 0.24416
 N2 N 0.16471 0.20558 0.27296
 C3 C 0.13670 0.20772 0.29219
 C4 C 0.11383 0.22420 0.27411
 C5 C 0.12966 0.23152 0.24389
 H6 H 0.13283 0.19694 0.31671
 H7 H 0.11936 0.24355 0.22279
 Cu8 Cu 0.20575 0.18228 0.27917
 Cu9 Cu 0.19337 0.22025 0.20752
 Cu10 Cu 0.27154 0.20153 0.23029
 N11 N 0.24775 0.16103 0.28521
 N12 N 0.27293 0.16738 0.26461
 C13 C 0.29773 0.14679 0.27124
 C14 C 0.28758 0.12666 0.29750
 C15 C 0.25585 0.13639 0.30593
 H16 H 0.32109 0.14599 0.25744
 H17 H 0.23940 0.12494 0.32437
 N18 N 0.26268 0.22599 0.18937
 N19 N 0.23279 0.23226 0.18047
 C20 C 0.23434 0.25003 0.15219
 C21 C 0.26672 0.25508 0.14276
 C22 C 0.28412 0.23941 0.16674
 H23 H 0.21341 0.25956 0.13999
 H24 H 0.31035 0.23860 0.16806
 H25 H 0.22695 0.18359 0.22084
 H26 H 0.22712 0.22615 0.24259
 N27 N 0.67271 0.77324 0.78913
 N28 N 0.68714 0.75539 0.81144
 C29 C 0.66813 0.75447 0.83979
 C30 C 0.64004 0.77233 0.83495
 C31 C 0.64372 0.78420 0.80260
 H32 H 0.67318 0.73955 0.86128
 H33 H 0.62583 0.79771 0.78912
 Cu34 Cu 0.72636 0.72957 0.80007
 Cu35 Cu 0.69163 0.77640 0.74321
 Cu36 Cu 0.73159 0.70145 0.71985
 N37 N 0.75493 0.69261 0.78580
 N38 N 0.75634 0.68081 0.75456
 C39 C 0.77572 0.65325 0.75231
 C40 C 0.78692 0.64776 0.78389
 C41 C 0.77337 0.67323 0.80451
 H42 H 0.78083 0.63812 0.72958
 H43 H 0.77583 0.67673 0.83129
 N44 N 0.71563 0.73360 0.68712
 N45 N 0.70247 0.76327 0.69600
 C46 C 0.69893 0.78141 0.66829
 C47 C 0.70995 0.76189 0.64065
 C48 C 0.72018 0.73177 0.65344
 H49 H 0.68978 0.80710 0.66832
 H50 H 0.73224 0.71109 0.63942
 H51 H 0.69567 0.72622 0.74917
 H52 H 0.73571 0.74813 0.74264
 N53 N 0.35154 0.74536 0.72782
 N54 N 0.34667 0.77553 0.74200
 C55 C 0.36828 0.78087 0.76593
 C56 C 0.38798 0.75260 0.76643
 C57 C 0.37678 0.73055 0.74194
 H58 H 0.37041 0.80405 0.78087
 H59 H 0.38678 0.70598 0.73443
 Cu60 Cu 0.31450 0.80571 0.72561
 Cu61 Cu 0.32567 0.72857 0.69106
 Cu62 Cu 0.26912 0.78465 0.66054
 N63 N 0.27539 0.83044 0.71709
 N64 N 0.25853 0.82422 0.69036
 C65 C 0.23512 0.84822 0.68909
 C66 C 0.23737 0.86984 0.71709
 C67 C 0.26288 0.85747 0.73429
 H68 H 0.21779 0.84961 0.66960
 H69 H 0.27248 0.86822 0.75707
 N70 N 0.27646 0.73776 0.64163
 N71 N 0.29738 0.71655 0.65399
 C72 C 0.29647 0.68676 0.63676
 C73 C 0.27409 0.68908 0.61234
 C74 C 0.26173 0.72174 0.61600
 H75 H 0.31120 0.66486 0.64137
 H76 H 0.24330 0.73284 0.60129
 H77 H 0.31705 0.77471 0.67099
 H78 H 0.28449 0.75922 0.70079
 N79 N 0.82935 0.27347 0.22048
 N80 N 0.81105 0.29395 0.24001
 C81 C 0.82302 0.29524 0.27097
 C82 C 0.85054 0.27489 0.27036
 C83 C 0.85392 0.26169 0.23788
 H84 H 0.81299 0.31039 0.29206
 H85 H 0.87245 0.24428 0.22772
 Cu86 Cu 0.77484 0.31855 0.22201
 Cu87 Cu 0.81969 0.26251 0.17424
 Cu88 Cu 0.74569 0.29109 0.14882
 N89 N 0.74438 0.34585 0.19801
 N90 N 0.73367 0.33503 0.16901
 C91 C 0.71240 0.35758 0.15818
 C92 C 0.70949 0.38401 0.18160
 C93 C 0.73007 0.37585 0.20667
 H94 H 0.69928 0.35448 0.13540
 H95 H 0.73387 0.39028 0.22966
 N96 N 0.77013 0.25436 0.12492
 N97 N 0.79840 0.24346 0.13467
 C98 C 0.80748 0.21597 0.11569
 C99 C 0.78401 0.20969 0.09266
 C100 C 0.76077 0.23461 0.09898
 H101 H 0.82879 0.20071 0.11940
 H102 H 0.73786 0.23691 0.08697
 H103 H 0.79018 0.30361 0.16342
 H104 H 0.77103 0.26742 0.18645
 N105 N 0.85415 0.72671 0.24202
 N106 N 0.83799 0.70510 0.22330
 C107 C 0.85346 0.70182 0.19282
 C108 C 0.88095 0.72207 0.19269
 C109 C 0.88080 0.73743 0.22432
 H110 H 0.84566 0.68547 0.17245
 H111 H 0.89852 0.75523 0.23370
 Cu112 Cu 0.79948 0.68167 0.24120
 Cu113 Cu 0.83914 0.73909 0.28789
 Cu114 Cu 0.75739 0.72092 0.30496
 N115 N 0.75802 0.66376 0.25863
 N116 N 0.74154 0.67974 0.28338
 C117 C 0.71318 0.66356 0.28970
 C118 C 0.71192 0.63574 0.26798
 C119 C 0.74075 0.63649 0.24852
 H120 H 0.69479 0.67152 0.30865
 H121 H 0.74825 0.61895 0.22824
 N122 N 0.78240 0.75265 0.33262
 N123 N 0.81350 0.75968 0.32627
 C124 C 0.82348 0.78186 0.35003
 C125 C 0.79751 0.78843 0.37262
 C126 C 0.77193 0.76948 0.36095
 H127 H 0.84795 0.79190 0.35121
 H128 H 0.74757 0.76784 0.37240
 H129 H 0.80348 0.70220 0.29939
 H130 H 0.79409 0.73678 0.27040
 N131 N 0.35777 0.23490 -0.26066
 N132 N 0.34859 0.20543 -0.27334
 C133 C 0.36677 0.19808 -0.30155
 C134 C 0.38875 0.22419 -0.30666
 C135 C 0.38245 0.24724 -0.28029
 H136 H 0.36447 0.17522 -0.31695
 H137 H 0.39513 0.27082 -0.27544
 Cu138 Cu 0.31413 0.17884 -0.25219
 Cu139 Cu 0.33809 0.25371 -0.21871
 Cu140 Cu 0.27391 0.20802 -0.18233
 N141 N 0.27106 0.16222 -0.23910
 N142 N 0.25441 0.17491 -0.21266
 C143 C 0.22512 0.15946 -0.21008
 C144 C 0.22371 0.13563 -0.23617
 C145 C 0.25326 0.13795 -0.25400
 H146 H 0.20672 0.16439 -0.19018
 H147 H 0.26112 0.12325 -0.27627
 N148 N 0.29192 0.24929 -0.16120
 N149 N 0.31510 0.26771 -0.17593
 C150 C 0.32155 0.29460 -0.15568
 C151 C 0.30193 0.29256 -0.12672
 C152 C 0.28345 0.26360 -0.13094
 H153 H 0.33992 0.31366 -0.16099
 H154 H 0.26509 0.25385 -0.11337
 H155 H 0.32310 0.20871 -0.19857
 H156 H 0.29321 0.23048 -0.22437
 N157 N 0.65727 0.28144 -0.25200
 N158 N 0.66615 0.31284 -0.25810
 C159 C 0.64627 0.32567 -0.28037
 C160 C 0.62381 0.30098 -0.28859
 C161 C 0.63130 0.27326 -0.26998
 H162 H 0.64860 0.35065 -0.29074
 H163 H 0.61985 0.24852 -0.27066
 Cu164 Cu 0.70482 0.33241 -0.23878
 Cu165 Cu 0.68270 0.25237 -0.22451
 Cu166 Cu 0.73530 0.29577 -0.17266
 N167 N 0.74222 0.35180 -0.21693
 N168 N 0.75500 0.33621 -0.19200
 C169 C 0.78183 0.35307 -0.18284
 C170 C 0.78582 0.38087 -0.20288
 C171 C 0.76024 0.37949 -0.22416
 H172 H 0.79731 0.34558 -0.16317
 H173 H 0.75591 0.39659 -0.24418
 N174 N 0.72098 0.24884 -0.16517
 N175 N 0.70207 0.23189 -0.18568
 C176 C 0.69771 0.20022 -0.17457
 C177 C 0.71456 0.19727 -0.14569
 C178 C 0.72904 0.22848 -0.14038
 H179 H 0.68288 0.18093 -0.18624
 H180 H 0.74452 0.23570 -0.12017
 H181 H 0.68971 0.29346 -0.19436
 H182 H 0.72663 0.27906 -0.21994
 N183 N 0.12744 0.79523 0.27467
 N184 N 0.14656 0.81821 0.26071
 C185 C 0.13678 0.82402 0.22968
 C186 C 0.10999 0.80375 0.22401
 C187 C 0.10451 0.78596 0.25314
 H188 H 0.14890 0.84088 0.21214
 H189 H 0.08638 0.76645 0.25766
 Cu190 Cu 0.18365 0.83703 0.28355
 Cu191 Cu 0.13654 0.77666 0.31815
 Cu192 Cu 0.21933 0.78109 0.33116
 N193 N 0.22641 0.84584 0.30076
 N194 N 0.24102 0.82280 0.31782
 C195 C 0.27124 0.83353 0.32430
 C196 C 0.27547 0.86542 0.31130
 C197 C 0.24650 0.87259 0.29656
 H198 H 0.28851 0.81950 0.33811
 H199 H 0.24078 0.89507 0.28311
 N200 N 0.18939 0.74953 0.35460
 N201 N 0.15767 0.74844 0.35060
 C202 C 0.14411 0.72511 0.37103
 C203 C 0.16858 0.71120 0.38884
 C204 C 0.19686 0.72725 0.37786
 H205 H 0.11849 0.71859 0.37259
 H206 H 0.22113 0.72311 0.38628
 H207 H 0.17591 0.80625 0.33554
 H208 H 0.18209 0.77729 0.29787
 N209 N 0.48631 0.45527 0.50352
 N210 N 0.45586 0.44601 0.50963
 C211 C 0.45520 0.42052 0.53157
 C212 C 0.48702 0.41418 0.53976
 C213 C 0.50589 0.43703 0.52197
 H214 H 0.43353 0.40684 0.53983
 H215 H 0.53225 0.43816 0.52013
 Cu216 Cu 0.42102 0.46794 0.48657
 Cu217 Cu 0.49938 0.48422 0.46671
 Cu218 Cu 0.44099 0.49375 0.40856
 N219 N 0.39071 0.49450 0.46177
 N220 N 0.39842 0.50332 0.43078
 C221 C 0.37358 0.52072 0.41898
 C222 C 0.34917 0.52349 0.44399
 C223 C 0.36075 0.50659 0.47094
 H224 H 0.37368 0.53145 0.39431
 H225 H 0.34843 0.50343 0.49527
 N226 N 0.48797 0.49824 0.39709
 N227 N 0.51004 0.49594 0.41989
 C228 C 0.53990 0.49620 0.40452
 C229 C 0.53653 0.49902 0.37048
 C230 C 0.50328 0.50064 0.36652
 H231 H 0.56232 0.49176 0.41687
 H232 H 0.49116 0.50070 0.34303
 H233 H 0.45584 0.50691 0.45404
 H234 H 0.46305 0.46144 0.44159
 N235 N -0.00476 -0.09901 0.95222
 N236 N -0.03350 -0.10066 0.96811
 C237 C -0.03192 -0.12208 0.99367
 C238 C -0.00043 -0.13435 0.99371
 C239 C 0.01617 -0.11923 0.96714
 H240 H -0.05206 -0.12810 1.01099
 H241 H 0.04153 -0.12282 0.95923
 Cu242 Cu -0.06998 -0.07435 0.95413
 Cu243 Cu 0.00309 -0.07118 0.91314
 Cu244 Cu -0.05853 -0.01596 0.89448
 N245 N -0.10158 -0.03888 0.94830
 N246 N -0.09749 -0.01636 0.92476
 C247 C -0.12284 0.00538 0.92703
 C248 C -0.14361 -0.00401 0.95357
 C249 C -0.12938 -0.03211 0.96650
 H250 H -0.12550 0.02695 0.91126
 H251 H -0.13830 -0.04621 0.98794
 N252 N -0.01694 -0.01991 0.86735
 N253 N 0.00634 -0.04115 0.87460
 C254 C 0.03142 -0.03839 0.85185
 C255 C 0.02371 -0.01420 0.82927
 C256 C -0.00709 -0.00290 0.83975
 H257 H 0.05376 -0.05282 0.85172
 H258 H -0.02121 0.01620 0.82808
 H259 H -0.03035 -0.03461 0.93096
 H260 H -0.04454 -0.06575 0.89845
 N261 N 1.05535 0.58147 0.98851
 N262 N 1.08406 0.57415 0.99967
 C263 C 1.09399 0.60014 1.01943
 C264 C 1.06985 0.62458 1.02112
 C265 C 1.04568 0.61192 1.00134
 H266 H 1.11606 0.60044 1.03316
 H267 H 1.02253 0.62366 0.99707
 Cu268 Cu 1.10201 0.52886 0.99153
 Cu269 Cu 1.03157 0.55019 0.95971
 Cu270 Cu 1.07670 0.48119 0.92753
 N271 N 1.12011 0.48390 0.98182
 N272 N 1.10805 0.46441 0.95809
 C273 C 1.12180 0.43352 0.95832
 C274 C 1.14390 0.43386 0.98325
 C275 C 1.14247 0.46619 0.99763
 H276 H 1.11633 0.41252 0.94140
 H277 H 1.15576 0.47554 1.01878
 N278 N 1.03679 0.49669 0.90769
 N279 N 1.01918 0.52248 0.92020
 C280 C 0.99374 0.52696 0.90071
 C281 C 0.99556 0.50270 0.87492
 C282 C 1.02300 0.48391 0.88013
 H283 H 0.97561 0.54671 0.90464
 H284 H 1.03236 0.46267 0.86482
 H285 H 1.05349 0.50351 0.96800
 H286 H 1.07495 0.53357 0.93914
 N287 N 0.56255 0.10771 0.47766
 N288 N 0.59400 0.10754 0.48242
 C289 C 0.60247 0.13745 0.49682
 C290 C 0.57469 0.15710 0.50160
 C291 C 0.54987 0.13749 0.48909
 H292 H 0.62643 0.14343 0.50549
 H293 H 0.52422 0.14378 0.48972
 Cu294 Cu 0.61973 0.06648 0.47453
 Cu295 Cu 0.53966 0.06835 0.46001
 Cu296 Cu 0.58606 -0.00287 0.43956
 N297 N 0.63828 0.02153 0.47880
 N298 N 0.62433 -0.00583 0.46637
 C299 C 0.64212 -0.03323 0.47312
 C300 C 0.66871 -0.02227 0.49049
 C301 C 0.66562 0.01256 0.49355
 H302 H 0.63677 -0.05896 0.46494
 H303 H 0.68213 0.03007 0.50544
 N304 N 0.54132 0.00249 0.42502
 N305 N 0.52356 0.02967 0.43303
 C306 C 0.49503 0.02703 0.41791
 C307 C 0.49483 -0.00330 0.39967
 C308 C 0.52446 -0.01833 0.40481
 H309 H 0.47627 0.04628 0.41910
 H310 H 0.53350 -0.04205 0.39370
 H311 H 0.57106 0.03111 0.47558
 H312 H 0.58007 0.04964 0.43343
 N313 N -0.01756 0.06761 0.47846
 N314 N -0.04786 0.05729 0.47600
 C315 C -0.06233 0.07584 0.45320
 C316 C -0.03995 0.09891 0.44055
 C317 C -0.01170 0.09301 0.45701
 H318 H -0.08754 0.07336 0.44681
 H319 H 0.01083 0.10720 0.45475
 Cu320 Cu -0.06658 0.02167 0.50354
 Cu321 Cu 0.01045 0.04979 0.51207
 Cu322 Cu -0.02118 -0.01626 0.55898
 N323 N -0.07958 -0.02128 0.52296
 N324 N -0.06156 -0.03608 0.54459
 C325 C -0.07689 -0.06409 0.55564
 C326 C -0.10604 -0.06700 0.54003
 C327 C -0.10703 -0.03953 0.51933
 H328 H -0.06792 -0.08063 0.57426
 H329 H -0.12660 -0.03285 0.50358
 N330 N 0.02251 0.00244 0.56483
 N331 N 0.03447 0.02815 0.54765
 C332 C 0.06308 0.03757 0.56035
 C333 C 0.06937 0.01647 0.58638
 C334 C 0.04333 -0.00560 0.58835
 H335 H 0.07754 0.05910 0.55239
 H336 H 0.03894 -0.02464 0.60700
 H337 H -0.01142 0.00249 0.51171
 H338 H -0.02567 0.03418 0.54494
 N339 N 0.43871 0.64473 0.03356
 N340 N 0.41324 0.63276 0.01828
 C341 C 0.40668 0.65291 -0.00715
 C342 C 0.42945 0.67865 -0.00811
 C343 C 0.44949 0.67284 0.01805
 H344 H 0.38788 0.64829 -0.02481
 H345 H 0.47053 0.68755 0.02495
 Cu346 Cu 0.39422 0.58964 0.03055
 Cu347 Cu 0.45532 0.62232 0.07247
 Cu348 Cu 0.43544 0.53634 0.07550
 N349 N 0.37513 0.54681 0.04376
 N350 N 0.39184 0.52522 0.06065
 C351 C 0.37517 0.49580 0.06269
 C352 C 0.34651 0.49947 0.04630
 C353 C 0.34722 0.53209 0.03476
 H354 H 0.38390 0.47311 0.07390
 H355 H 0.32955 0.54345 0.01929
 N356 N 0.47070 0.55746 0.10102
 N357 N 0.47689 0.59039 0.10137
 C358 C 0.49980 0.59731 0.12361
 C359 C 0.50868 0.56729 0.13754
 C360 C 0.48995 0.54250 0.12264
 H361 H 0.50941 0.62229 0.12921
 H362 H 0.48942 0.51581 0.12817
 H363 H 0.44953 0.57807 0.04675
 H364 H 0.42019 0.58487 0.08351
 N365 N 0.46212 -0.04768 0.00412
 N366 N 0.48929 -0.04133 -0.01340
 C367 C 0.49019 -0.06043 -0.04195
 C368 C 0.46205 -0.07969 -0.04238
 C369 C 0.44464 -0.07088 -0.01284
 H370 H 0.51079 -0.06202 -0.05990
 H371 H 0.42240 -0.08257 -0.00314
 Cu372 Cu 0.52390 -0.01319 0.00431
 Cu373 Cu 0.45519 -0.02919 0.04955
 Cu374 Cu 0.51531 0.01133 0.08876
 N375 N 0.55637 0.01471 0.02719
 N376 N 0.55394 0.02295 0.05960
 C377 C 0.58159 0.03887 0.06815
 C378 C 0.60200 0.04098 0.03966
 C379 C 0.58523 0.02565 0.01420
 H380 H 0.58672 0.04794 0.09322
 H381 H 0.59406 0.02159 -0.01161
 N382 N 0.47514 -0.00302 0.11283
 N383 N 0.45261 -0.02074 0.09777
 C384 C 0.43008 -0.03115 0.12088
 C385 C 0.43850 -0.01853 0.15193
 C386 C 0.46712 -0.00067 0.14604
 H387 H 0.40936 -0.04708 0.11559
 H388 H 0.48193 0.01133 0.16472
 H389 H 0.49734 0.01409 0.04167
 H390 H 0.51398 -0.02769 0.05333
 N391 N 0.98832 0.38203 0.51622
 N392 N 1.01429 0.38821 0.49674
 C393 C 1.01483 0.36632 0.47001
 C394 C 0.98776 0.34540 0.47344
 C395 C 0.97161 0.35607 0.50296
 H396 H 1.03334 0.36576 0.44974
 H397 H 0.94919 0.34577 0.51383
 Cu398 Cu 1.04431 0.42493 0.50844
 Cu399 Cu 0.97802 0.40875 0.55667
 Cu400 Cu 1.03977 0.44663 0.59405
 N401 N 1.07859 0.45079 0.53104
 N402 N 1.07809 0.45651 0.56393
 C403 C 1.10463 0.47479 0.57157
 C404 C 1.12217 0.48144 0.54205
 C405 C 1.10504 0.46592 0.51685
 H406 H 1.10934 0.48494 0.59638
 H407 H 1.11093 0.46645 0.49012
 N408 N 0.99485 0.45061 0.61263
 N409 N 0.97052 0.43795 0.59601
 C410 C 0.94214 0.44766 0.61145
 C411 C 0.94900 0.46665 0.63978
 C412 C 0.98267 0.46794 0.64012
 H413 H 0.91826 0.44135 0.60279
 H414 H 0.99710 0.48197 0.65781
 H415 H 1.02004 0.45155 0.54859
 H416 H 1.03761 0.40894 0.55571
 C417 C 0.35470 0.02236 0.30796
 C418 C 0.33406 -0.00986 0.31160
 C419 C 0.35143 -0.03898 0.30697
 C420 C 0.38783 -0.03352 0.29868
 C421 C 0.38201 0.01876 0.33242
 C422 C 0.39956 -0.01042 0.32743
 C423 C 0.37177 0.01869 0.27274
 C424 C 0.38879 -0.01083 0.26801
 H425 H 0.30813 -0.00949 0.31800
 H426 H 0.40183 -0.05744 0.29447
 H427 H 0.38737 0.03823 0.35104
 H428 H 0.36834 0.03565 0.25241
 C429 C 0.16634 -0.02799 0.72406
 C430 C 0.18205 0.00634 0.73271
 C431 C 0.16180 0.03325 0.73037
 C432 C 0.12791 0.02372 0.71874
 C433 C 0.13526 -0.02938 0.74681
 C434 C 0.11507 -0.00236 0.74403
 C435 C 0.15452 -0.02430 0.68837
 C436 C 0.13468 0.00309 0.68581
 H437 H 0.20639 0.00878 0.74179
 H438 H 0.11161 0.04582 0.71619
 H439 H 0.12987 -0.05026 0.76317
 H440 H 0.16254 -0.04003 0.66686
 C441 C 0.63669 0.48266 0.21257
 C442 C 0.65725 0.51374 0.22214
 C443 C 0.63972 0.53820 0.23995
 C444 C 0.60349 0.52946 0.24622
 C445 C 0.62114 0.47070 0.24589
 C446 C 0.60377 0.49521 0.26338
 C447 C 0.60834 0.49696 0.19350
 C448 C 0.59125 0.52168 0.21112
 H449 H 0.68318 0.51549 0.21628
 H450 H 0.58919 0.54931 0.26070
 H451 H 0.62495 0.44572 0.25553
 H452 H 0.60410 0.49045 0.16751
 C453 C 0.85722 0.54451 0.78502
 C454 C 0.83774 0.51188 0.79104
 C455 C 0.85524 0.48321 0.78326
 C456 C 0.89031 0.48962 0.76987
 C457 C 0.88797 0.54094 0.80515
 C458 C 0.90515 0.51206 0.79721
 C459 C 0.86945 0.54182 0.74805
 C460 C 0.88671 0.51312 0.74029
 H461 H 0.81313 0.51156 0.80209
 H462 H 0.90410 0.46600 0.76319
 H463 H 0.89524 0.55959 0.82379
 H464 H 0.86485 0.56053 0.72956
 C465 C 0.27622 0.33366 0.04659
 C466 C 0.28936 0.32170 0.01157
 C467 C 0.28440 0.34450 -0.01261
 C468 C 0.26675 0.37690 0.00011
 C469 C 0.29223 0.36845 0.05291
 C470 C 0.28697 0.39099 0.02855
 C471 C 0.23992 0.34143 0.04199
 C472 C 0.23538 0.36425 0.01782
 H473 H 0.30107 0.29741 0.00641
 H474 H 0.26260 0.39509 -0.01998
 H475 H 0.30486 0.37501 0.07542
 H476 H 0.21960 0.33045 0.05606
 C477 C 0.73124 0.11862 -0.05165
 C478 C 0.74485 0.14288 -0.02470
 C479 C 0.75111 0.12715 0.00424
 C480 C 0.74288 0.08922 0.00406
 C481 C 0.75623 0.08987 -0.05609
 C482 C 0.76230 0.07449 -0.02691
 C483 C 0.70105 0.10266 -0.03446
 C484 C 0.70706 0.08749 -0.00521
 H485 H 0.75075 0.16926 -0.02835
 H486 H 0.74780 0.07677 0.02791
 H487 H 0.76801 0.08265 -0.08012
 H488 H 0.67683 0.10522 -0.04362
 C489 C 0.19709 0.62297 0.46871
 C490 C 0.21192 0.64115 0.49884
 C491 C 0.23022 0.62054 0.51724
 C492 C 0.23198 0.58350 0.50376
 C493 C 0.22585 0.60663 0.44862
 C494 C 0.24432 0.58608 0.46677
 C495 C 0.17779 0.59315 0.48340
 C496 C 0.19608 0.57254 0.50183
 H497 H 0.20821 0.66786 0.50467
 H498 H 0.24656 0.56650 0.51881
 H499 H 0.23108 0.61115 0.42223
 H500 H 0.15190 0.58953 0.48078
 C501 C 0.74562 0.82685 0.54072
 C502 C 0.75497 0.81474 0.50454
 C503 C 0.77069 0.83881 0.48602
 C504 C 0.77524 0.87277 0.50503
 C505 C 0.77770 0.83940 0.55497
 C506 C 0.79316 0.86345 0.53632
 C507 C 0.72506 0.85880 0.53695
 C508 C 0.74082 0.88281 0.51837
 H509 H 0.75119 0.78910 0.49509
 H510 H 0.78738 0.89230 0.48936
 H511 H 0.78748 0.82954 0.57745
 H512 H 0.70093 0.86244 0.54866
 C513 C 0.00168 0.23326 0.33001
 C514 C -0.03025 0.24144 0.31326
 C515 C -0.05697 0.24169 0.33468
 C516 C -0.04970 0.23317 0.37072
 C517 C 0.00342 0.25922 0.35935
 C518 C -0.02357 0.25902 0.38072
 C519 C -0.00452 0.19902 0.34655
 C520 C -0.03154 0.19915 0.36778
 H521 H -0.03133 0.24876 0.28739
 H522 H -0.07171 0.23287 0.38803
 H523 H 0.02422 0.27558 0.36290
 H524 H 0.01064 0.17685 0.34157
 C525 C -0.01752 0.74569 0.12194
 C526 C 0.00603 0.75920 0.14816
 C527 C 0.03606 0.76715 0.13448
 C528 C 0.04001 0.76061 0.09635
 C529 C -0.01791 0.77305 0.09544
 C530 C 0.01226 0.78078 0.08195
 C531 C 0.00023 0.71556 0.10426
 C532 C 0.03026 0.72340 0.09087
 H533 H -0.00054 0.76364 0.17450
 H534 H 0.06462 0.76672 0.08538
 H535 H -0.04018 0.78448 0.08783
 H536 H -0.01007 0.69030 0.10273
 C537 C 0.48469 0.25464 0.62098
 C538 C 0.51116 0.26134 0.64644
 C539 C 0.53853 0.27591 0.63251
 C540 C 0.53740 0.28151 0.59476
 C541 C 0.47887 0.28909 0.60526
 C542 C 0.50672 0.30319 0.59177
 C543 C 0.50146 0.23279 0.59281
 C544 C 0.52910 0.24671 0.57921
 H545 H 0.50717 0.25854 0.67327
 H546 H 0.56007 0.29280 0.58356
 H547 H 0.45561 0.30202 0.60702
 H548 H 0.49345 0.20749 0.58600
 C549 C 0.52414 0.77604 0.87791
 C550 C 0.50786 0.76451 0.84584
 C551 C 0.47499 0.76824 0.84769
 C552 C 0.46118 0.78282 0.88167
 C553 C 0.51292 0.81253 0.88514
 C554 C 0.47985 0.81613 0.88790
 C555 C 0.50719 0.75533 0.90583
 C556 C 0.47412 0.75877 0.90756
 H557 H 0.52104 0.75315 0.82416
 H558 H 0.43427 0.78561 0.88316
 H559 H 0.52984 0.83247 0.89150
 H560 H 0.51994 0.73807 0.92117
 N561 N 0.02971 0.24506 0.27556
 N562 N 0.05899 0.24332 0.26033
 C563 C 0.07911 0.23058 0.28244
 C564 C 0.06119 0.22456 0.31197
 N565 N 0.03034 0.23386 0.30652
 H566 H 0.06957 0.21443 0.33497
 N567 N 0.57725 0.75711 0.89726
 N568 N 0.60833 0.75626 0.88674
 C569 C 0.61050 0.77205 0.85717
 C570 C 0.57982 0.78277 0.84990
 N571 N 0.55969 0.77267 0.87537
 H572 H 0.57249 0.79501 0.82752
 N573 N 0.46319 0.73030 0.80047
 N574 N 0.44023 0.72497 0.77871
 C575 C 0.41682 0.74826 0.78615
 C576 C 0.42600 0.76800 0.81329
 N577 N 0.45508 0.75596 0.82140
 H578 H 0.41327 0.78942 0.82535
 N579 N -0.10950 0.26982 0.34551
 N580 N -0.13466 0.27993 0.32870
 C581 C -0.12907 0.26903 0.29653
 C582 C -0.09977 0.25191 0.29413
 N583 N -0.08827 0.25308 0.32516
 H584 H -0.08760 0.24044 0.27192
 N585 N -0.07190 0.72126 0.11536
 N586 N -0.09909 0.71433 0.13308
 C587 C -0.09478 0.72571 0.16474
 C588 C -0.06409 0.73986 0.16597
 N589 N -0.05044 0.73643 0.13458
 H590 H -0.05292 0.75091 0.18773
 N591 N 0.44265 0.20989 0.62437
 N592 N 0.41690 0.20108 0.64337
 C593 C 0.41273 0.22548 0.66755
 C594 C 0.43668 0.24980 0.66268
 N595 N 0.45502 0.23892 0.63553
 H596 H 0.44101 0.27250 0.67777
 N597 N 0.57567 0.32173 0.64552
 N598 N 0.59855 0.32953 0.66670
 C599 C 0.60070 0.30310 0.68716
 C600 C 0.57807 0.27885 0.67812
 N601 N 0.56309 0.29156 0.65199
 H602 H 0.57358 0.25419 0.68866
 N603 N 0.08501 0.80133 0.13970
 N604 N 0.10501 0.81198 0.16287
 C605 C 0.09356 0.79944 0.19225
 C606 C 0.06579 0.78080 0.18644
 N607 N 0.06131 0.78266 0.15331
 H608 H 0.05083 0.76672 0.20431
 N609 N 0.31647 0.05757 0.34289
 N610 N 0.29791 0.08482 0.34117
 C611 C 0.30512 0.09819 0.31103
 C612 C 0.32865 0.07836 0.29426
 N613 N 0.33496 0.05300 0.31492
 H614 H 0.33855 0.08127 0.26888
 N615 N 0.83573 0.58887 0.82500
 N616 N 0.81720 0.61635 0.82571
 C617 C 0.80773 0.62014 0.79415
 C618 C 0.82080 0.59410 0.77408
 N619 N 0.83847 0.57529 0.79418
 H620 H 0.81752 0.58928 0.74760
 N621 N 0.86090 0.42561 0.80224
 N622 N 0.84300 0.39800 0.80691
 C623 C 0.81292 0.40517 0.79703
 C624 C 0.81278 0.43810 0.78633
 N625 N 0.84317 0.44992 0.79007
 H626 H 0.79272 0.45203 0.77674
 N627 N 0.35191 -0.09822 0.32252
 N628 N 0.33176 -0.12448 0.32454
 C629 C 0.30315 -0.11427 0.31298
 C630 C 0.30630 -0.08093 0.30390
 N631 N 0.33701 -0.07186 0.31038
 H632 H 0.28804 -0.06471 0.29404
 N633 N 0.20413 -0.05810 0.75777
 N634 N 0.22339 -0.08489 0.75674
 C635 C 0.21959 -0.10117 0.72699
 C636 C 0.19713 -0.08333 0.70956
 N637 N 0.18837 -0.05630 0.72969
 H638 H 0.18870 -0.08906 0.68473
 N639 N 0.64937 0.44465 0.16320
 N640 N 0.66833 0.41847 0.15431
 C641 C 0.68706 0.41287 0.18042
 C642 C 0.67912 0.43661 0.20563
 N643 N 0.65534 0.45588 0.19395
 H644 H 0.68854 0.43875 0.23050
 N645 N 0.63783 0.58914 0.27571
 N646 N 0.65628 0.61535 0.28394
 C647 C 0.68480 0.61157 0.26606
 C648 C 0.68337 0.58211 0.24658
 N649 N 0.65358 0.56885 0.25340
 H650 H 0.70200 0.57157 0.22920
 N651 N 0.14987 0.08878 0.75661
 N652 N 0.16563 0.11637 0.76672
 C653 C 0.19729 0.11164 0.75716
 C654 C 0.20051 0.08041 0.74099
 N655 N 0.17043 0.06691 0.74124
 H656 H 0.22266 0.06835 0.73081
 N657 N 0.31256 0.30027 0.08027
 N658 N 0.31129 0.27935 0.10575
 C659 C 0.27949 0.27516 0.11461
 C660 C 0.26136 0.29407 0.09390
 N661 N 0.28282 0.30950 0.07275
 H662 H 0.23517 0.29667 0.09496
 N663 N 0.72827 0.76830 0.55299
 N664 N 0.71914 0.75016 0.57928
 C665 C 0.71465 0.77216 0.60562
 C666 C 0.72118 0.80442 0.59463
 N667 N 0.72981 0.80095 0.56165
 H668 H 0.72263 0.82763 0.60970
 N669 N 0.81081 0.84757 0.43995
 N670 N 0.81915 0.83446 0.40972
 C671 C 0.79725 0.80988 0.40333
 C672 C 0.77530 0.80819 0.43049
 N673 N 0.78465 0.83204 0.45283
 H674 H 0.75486 0.79104 0.43383
 N675 N 0.30549 0.36183 -0.06763
 N676 N 0.31071 0.34879 -0.09846
 C677 C 0.30133 0.31603 -0.09749
 C678 C 0.29051 0.30919 -0.06512
 N679 N 0.29364 0.33838 -0.04731
 H680 H 0.28082 0.28560 -0.05558
 N681 N 0.70974 0.11658 -0.10810
 N682 N 0.70466 0.13647 -0.13352
 C683 C 0.71615 0.16735 -0.12486
 C684 C 0.72844 0.16586 -0.09339
 N685 N 0.72389 0.13369 -0.08364
 H686 H 0.73906 0.18643 -0.07911
 N687 N 0.14715 0.64296 0.44245
 N688 N 0.13873 0.66628 0.42116
 C689 C 0.16592 0.68427 0.41345
 C690 C 0.19108 0.67151 0.43073
 N691 N 0.17853 0.64570 0.44841
 H692 H 0.21637 0.67938 0.42977
 N693 N 0.26654 0.61290 0.56285
 N694 N 0.27869 0.63028 0.58829
 C695 C 0.26610 0.66181 0.58806
 C696 C 0.24578 0.66326 0.56158
 N697 N 0.24677 0.63217 0.54641
 H698 H 0.23192 0.68484 0.55414
 N699 N 0.78803 0.12908 0.05012
 N700 N 0.79793 0.15062 0.07366
 C701 C 0.78192 0.17996 0.06988
 C702 C 0.76198 0.17588 0.04321
 N703 N 0.76657 0.14381 0.03160
 H704 H 0.74529 0.19405 0.03368
 N705 N 0.53669 0.35395 0.57724
 N706 N 0.53228 0.38385 0.56412
 C707 C 0.50033 0.38623 0.55835
 C708 C 0.48509 0.35665 0.56845
 N709 N 0.50882 0.33714 0.57995
 H710 H 0.45987 0.34936 0.56600
 N711 N 0.04668 0.80967 0.04027
 N712 N 0.04436 0.83210 0.01641
 C713 C 0.01281 0.84145 0.01674
 C714 C -0.00418 0.82412 0.04151
 N715 N 0.01784 0.80448 0.05561
 H716 H -0.02999 0.82552 0.04825
 N717 N 0.08283 0.69889 0.07201
 N718 N 0.09443 0.67250 0.05378
 C719 C 0.06840 0.65574 0.04218
 C720 C 0.04057 0.67241 0.05396
 N721 N 0.05057 0.69908 0.07254
 H722 H 0.01551 0.66567 0.04965
 N723 N 0.58215 0.23304 0.55164
 N724 N 0.59548 0.20921 0.53114
 C725 C 0.57090 0.18907 0.52129
 C726 C 0.54225 0.20123 0.53627
 N727 N 0.55021 0.22852 0.55520
 H728 H 0.51819 0.19019 0.53483
 N729 N -0.07390 0.16268 0.39147
 N730 N -0.07706 0.13589 0.41062
 C731 C -0.04672 0.12623 0.41757
 C732 C -0.02469 0.14781 0.40179
 N733 N -0.04272 0.17010 0.38574
 H734 H 0.00159 0.14812 0.40290
 N735 N 0.42155 0.73453 0.92436
 N736 N 0.40870 0.71317 0.94637
 C737 C 0.43281 0.70442 0.96616
 C738 C 0.46091 0.72094 0.95559
 N739 N 0.45288 0.73937 0.92930
 H740 H 0.48495 0.71865 0.96523
 N741 N 0.43354 0.84615 0.91527
 N742 N 0.42767 0.87370 0.93449
 C743 C 0.45581 0.89132 0.93484
 C744 C 0.47900 0.87386 0.91516
 N745 N 0.46430 0.84560 0.90356
 H746 H 0.50465 0.87988 0.91212
 N747 N -0.05300 0.27775 0.43210
 N748 N -0.05083 0.30027 0.45714
 C749 C -0.02308 0.31780 0.45113
 C750 C -0.00814 0.30533 0.42153
 N751 N -0.02769 0.28029 0.41046
 H752 H 0.01446 0.31374 0.40935
 N753 N 0.28134 0.57087 0.41939
 N754 N 0.30902 0.55455 0.41239
 C755 C 0.31835 0.54186 0.44139
 C756 C 0.29535 0.55092 0.46663
 N757 N 0.27264 0.56914 0.45174
 H758 H 0.29573 0.54567 0.49309
 N759 N 0.78596 0.02674 0.00055
 N760 N 0.81067 0.00528 -0.00383
 C761 C 0.82654 0.01303 -0.03303
 C762 C 0.81073 0.03983 -0.04654
 N763 N 0.78550 0.04760 -0.02483
 H764 H 0.81739 0.05283 -0.06941
 N765 N 0.68258 0.07265 0.04954
 N766 N 0.65455 0.06101 0.06267
 C767 C 0.63521 0.05485 0.03678
 C768 C 0.65215 0.06300 0.00746
 N769 N 0.68155 0.07407 0.01645
 H770 H 0.64384 0.06120 -0.01789
 N771 N 0.19171 0.53497 0.54936
 N772 N 0.17224 0.51078 0.56124
 C773 C 0.15002 0.50461 0.53799
 C774 C 0.15625 0.52586 0.51165
 N775 N 0.18237 0.54448 0.51973
 H776 H 0.14240 0.52843 0.48944
 N777 N 0.17935 0.35491 0.00235
 N778 N 0.15453 0.37271 -0.00784
 C779 C 0.16395 0.40550 -0.00706
 C780 C 0.19523 0.40739 0.00363
 N781 N 0.20390 0.37535 0.00925
 H782 H 0.21044 0.42967 0.00639
 N783 N 0.74448 0.94397 0.51347
 N784 N 0.72591 0.97001 0.50650
 C785 C 0.69604 0.95735 0.50105
 C786 C 0.69672 0.92274 0.50516
 N787 N 0.72737 0.91550 0.51296
 H788 H 0.67722 0.90456 0.50200
 N789 N 0.84276 0.86530 0.56764
 N790 N 0.87011 0.88306 0.56915
 C791 C 0.86868 0.90726 0.54609
 C792 C 0.83967 0.90388 0.53041
 N793 N 0.82418 0.87739 0.54453
 H794 H 0.83078 0.91945 0.51095
 N795 N 0.28242 0.44984 0.01371
 N796 N 0.29740 0.47924 0.01813
 C797 C 0.32223 0.47359 0.03811
 C798 C 0.32200 0.43972 0.04601
 N799 N 0.29676 0.42584 0.03018
 H800 H 0.33917 0.42630 0.06050
 N801 N 0.60659 0.47414 0.31980
 N802 N 0.58972 0.47546 0.34898
 C803 C 0.56251 0.49342 0.34433
 C804 C 0.56318 0.50328 0.31137
 N805 N 0.59108 0.49067 0.29700
 H806 H 0.54523 0.51790 0.29905
 N807 N 0.06247 0.02482 0.75807
 N808 N 0.03747 0.02248 0.78030
 C809 C 0.04441 -0.00309 0.80049
 C810 C 0.07429 -0.01635 0.78997
 N811 N 0.08480 0.00166 0.76341
 H812 H 0.08722 -0.03681 0.80094
 N813 N 0.13040 0.04372 0.64158
 N814 N 0.11353 0.04812 0.61453
 C815 C 0.09509 0.02007 0.61056
 C816 C 0.10131 -0.00179 0.63589
 N817 N 0.12353 0.01387 0.65449
 H818 H 0.08957 -0.02573 0.64142
 N819 N 0.56240 0.57471 0.20484
 N820 N 0.54093 0.58805 0.18530
 C821 C 0.53204 0.56308 0.16378
 C822 C 0.54872 0.53400 0.17063
 N823 N 0.56747 0.54237 0.19637
 H824 H 0.54772 0.50944 0.15784
 N825 N 0.39669 -0.05350 0.22321
 N826 N 0.40900 -0.05635 0.19190
 C827 C 0.42227 -0.02603 0.18446
 C828 C 0.41758 -0.00432 0.21205
 N829 N 0.40148 -0.02249 0.23564
 H830 H 0.42460 0.02208 0.21457
 N831 N 0.88139 0.51002 0.67987
 N832 N 0.89715 0.49750 0.65250
 C833 C 0.92503 0.48398 0.66254
 C834 C 0.92588 0.48823 0.69693
 N835 N 0.89817 0.50456 0.70669
 H836 H 0.94438 0.47981 0.71323
 N837 N 0.95262 0.47644 0.80321
 N838 N 0.97700 0.47299 0.82338
 C839 C 0.97365 0.49786 0.84721
 C840 C 0.94654 0.51678 0.84105
 N841 N 0.93410 0.50258 0.81332
 H842 H 0.93667 0.53829 0.85562
 N843 N 0.44523 -0.04619 0.34087
 N844 N 0.47097 -0.04533 0.35970
 C845 C 0.46974 -0.01552 0.37716
 C846 C 0.44247 0.00185 0.36851
 N847 N 0.42781 -0.01810 0.34573
 H848 H 0.43479 0.02696 0.37718
   
