data_POSCAR
  _audit_creation_date              2014-09-24
  _audit_creation_method            'ToBaCCo'
  _symmetry_space_group_name_H-M    'P1'
  _symmetry_Int_Tables_number       1
  _symmetry_cell_setting            triclinic
  loop_
  _symmetry_equiv_pos_as_xyz
 x,y,z
_cell_length_a 19.1097
_cell_length_b 30.2557
_cell_length_c 19.3263
_cell_angle_alpha 90.196100
_cell_angle_beta 89.808500
_cell_angle_gamma 89.876300
loop_
  _atom_site_label
  _atom_site_type_symbol
  _atom_site_fract_x
  _atom_site_fract_y
  _atom_site_fract_z
N1 N 0.12203 0.04720 0.07350
 N2 N 0.16498 0.08090 0.08189
 N3 N 0.07381 -0.04549 0.12291
 N4 N 0.08212 -0.07895 0.16583
 N5 N 0.12278 -0.04583 0.07504
 N6 N 0.16578 -0.07954 0.08403
 N7 N 0.07308 0.04751 0.12136
 N8 N 0.08130 0.08142 0.16369
 C9 C 0.13877 0.10174 0.13829
 C10 C 0.13969 -0.09968 0.14086
 N11 N -0.12513 -0.04621 0.07407
 N12 N -0.16770 -0.08006 0.08274
 N13 N -0.07761 0.04740 0.12075
 N14 N -0.08642 0.08163 0.16254
 N15 N -0.12583 0.04677 0.07254
 N16 N -0.17091 0.08267 0.08124
 N17 N -0.07690 -0.04564 0.12233
 N18 N -0.08527 -0.07908 0.16523
 Mn19 Mn -0.00192 0.00095 0.12267
 C20 C -0.14211 -0.10002 0.13981
 C21 C -0.14360 0.10270 0.13769
 N22 N 0.12395 -0.04704 -0.07397
 N23 N 0.16915 -0.08287 -0.08255
 N24 N 0.07492 0.04527 -0.12394
 N25 N 0.08330 0.07874 -0.16684
 N26 N 0.12308 0.04591 -0.07559
 N27 N 0.16558 0.07981 -0.08425
 N28 N 0.07570 -0.04781 -0.12213
 N29 N 0.08461 -0.08207 -0.16383
 Mn30 Mn 0.12380 0.00006 -0.00025
 C31 C 0.14188 -0.10298 -0.13891
 C32 C 0.14007 0.09977 -0.14138
 N33 N -0.12466 0.04535 -0.07653
 N34 N -0.16747 0.07915 -0.08541
 N35 N -0.07516 -0.04821 -0.12274
 N36 N -0.08311 -0.08245 -0.16462
 N37 N -0.12410 -0.04760 -0.07492
 N38 N -0.16876 -0.08351 -0.08396
 N39 N -0.07581 0.04487 -0.12450
 N40 N -0.08397 0.07834 -0.16739
 Mn41 Mn -0.12576 -0.00041 -0.00122
 Mn42 Mn -0.00008 -0.00149 -0.12418
 Cl43 Cl -0.00099 -0.00022 -0.00075
 C44 C -0.14137 0.09918 -0.14230
 C45 C -0.14049 -0.10354 -0.14018
 N46 N 0.62488 0.54668 0.57490
 N47 N 0.66807 0.58026 0.58339
 N48 N 0.57612 0.45381 0.62289
 N49 N 0.58446 0.42005 0.66517
 N50 N 0.62470 0.45364 0.57465
 N51 N 0.66749 0.41975 0.58273
 N52 N 0.57627 0.54685 0.62314
 N53 N 0.58504 0.58057 0.66580
 C54 C 0.64248 0.60091 0.64026
 C55 C 0.64165 0.39933 0.63939
 N56 N 0.37676 0.45400 0.57554
 N57 N 0.33389 0.42024 0.58390
 N58 N 0.42546 0.54702 0.62370
 N59 N 0.41682 0.58072 0.66647
 N60 N 0.37682 0.54703 0.57584
 N61 N 0.33370 0.58074 0.58466
 N62 N 0.42537 0.45398 0.62345
 N63 N 0.41695 0.42020 0.66575
 Mn64 Mn 0.50080 0.50042 0.62413
 C65 C 0.35968 0.39967 0.64037
 C66 C 0.35941 0.60124 0.64135
 N67 N 0.62464 0.45339 0.42557
 N68 N 0.66762 0.41958 0.41675
 N69 N 0.57611 0.54647 0.37801
 N70 N 0.58452 0.58017 0.33564
 N71 N 0.62478 0.54643 0.42585
 N72 N 0.66769 0.58014 0.41739
 N73 N 0.57599 0.45346 0.37771
 N74 N 0.58450 0.41971 0.33497
 Mn75 Mn 0.62559 0.50003 0.50024
 C76 C 0.64183 0.39908 0.36006
 C77 C 0.64182 0.60065 0.36093
 N78 N 0.37679 0.54701 0.42679
 N79 N 0.33384 0.58083 0.41857
 N80 N 0.42529 0.45386 0.37826
 N81 N 0.41660 0.42023 0.33548
 N82 N 0.37669 0.45397 0.42647
 N83 N 0.33352 0.42040 0.41788
 N84 N 0.42541 0.54687 0.37857
 N85 N 0.41691 0.58058 0.33618
 Mn86 Mn 0.37592 0.50050 0.50117
 Mn87 Mn 0.50070 0.50016 0.37732
 Cl88 Cl 0.50076 0.50028 0.50072
 C89 C 0.35961 0.60126 0.36186
 C90 C 0.35920 0.39988 0.36096
 C91 C 0.22144 0.21376 0.22155
 N92 N 0.28320 0.22993 0.19803
 N93 N 0.31009 0.26659 0.22544
 C94 C 0.27602 0.28817 0.27717
 N95 N 0.21426 0.27201 0.30068
 N96 N 0.18737 0.23535 0.27327
 C97 C 0.19252 0.17431 0.19212
 C98 C 0.16809 0.14116 0.16748
 C99 C 0.30504 0.32756 0.30673
 C100 C 0.32962 0.36061 0.33152
 C101 C 0.77668 0.78776 0.22314
 N102 N 0.71824 0.76922 0.19614
 N103 N 0.69197 0.73236 0.22329
 C104 C 0.72338 0.71295 0.27822
 N105 N 0.78182 0.73150 0.30523
 N106 N 0.80809 0.76836 0.27807
 C107 C 0.80503 0.82735 0.19384
 C108 C 0.82902 0.86056 0.16918
 C109 C 0.69502 0.67335 0.30745
 C110 C 0.67093 0.64011 0.33192
 C111 C 0.77708 0.21158 0.77501
 N112 N 0.81212 0.23361 0.72472
 N113 N 0.78565 0.27058 0.69803
 C114 C 0.72336 0.28661 0.72087
 N115 N 0.68832 0.26457 0.77115
 N116 N 0.71479 0.22761 0.79783
 C117 C 0.80567 0.17191 0.80391
 C118 C 0.82977 0.13865 0.82836
 C119 C 0.69484 0.32636 0.69216
 C120 C 0.67069 0.35972 0.66807
 C121 C 0.22088 0.78807 0.77999
 N122 N 0.27884 0.76943 0.80791
 N123 N 0.30591 0.73262 0.78074
 C124 C 0.27581 0.71334 0.72485
 N125 N 0.21784 0.73198 0.69692
 N126 N 0.19077 0.76879 0.72410
 C127 C 0.19188 0.82771 0.80923
 C128 C 0.16774 0.86102 0.83403
 C129 C 0.30508 0.67381 0.69551
 C130 C 0.32982 0.64064 0.67083
 C131 C 0.22244 0.21220 0.77609
 N132 N 0.28511 0.22761 0.79828
 N133 N 0.31198 0.26448 0.77168
 C134 C 0.27698 0.28709 0.72210
 N135 N 0.21431 0.27168 0.69990
 N136 N 0.18744 0.23481 0.72650
 C137 C 0.19342 0.17254 0.80490
 C138 C 0.16908 0.13928 0.82928
 C139 C 0.30598 0.32679 0.69340
 C140 C 0.33042 0.36009 0.66926
 C141 C 0.78166 0.78741 0.77836
 N142 N 0.73467 0.76318 0.81473
 N143 N 0.70758 0.72646 0.78765
 C144 C 0.72664 0.71284 0.72335
 N145 N 0.77364 0.73706 0.68696
 N146 N 0.80073 0.77379 0.71405
 C147 C 0.81050 0.82709 0.80752
 C148 C 0.83427 0.86043 0.83243
 C149 C 0.69718 0.67337 0.69409
 C150 C 0.67228 0.64027 0.66956
 C151 C 0.22233 0.78825 0.22441
 N152 N 0.28190 0.77038 0.19802
 N153 N 0.30873 0.73361 0.22507
 C154 C 0.27681 0.71360 0.27933
 N155 N 0.21724 0.73147 0.30572
 N156 N 0.19041 0.76824 0.27866
 C157 C 0.19333 0.82779 0.19514
 C158 C 0.16891 0.86094 0.17044
 C159 C 0.30576 0.67400 0.30845
 C160 C 0.33022 0.64077 0.33285
 C161 C 0.77830 0.21183 0.21975
 N162 N 0.80993 0.23148 0.27450
 N163 N 0.78337 0.26834 0.30210
 C164 C 0.72437 0.28666 0.27578
 N165 N 0.69275 0.26701 0.22103
 N166 N 0.71931 0.23016 0.19343
 C167 C 0.80683 0.17211 0.19002
 C168 C 0.83068 0.13875 0.16493
 C169 C 0.69562 0.32630 0.30557
 C170 C 0.67123 0.35955 0.33048
   
