data_POSCAR
  _audit_creation_date              2014-09-24
  _audit_creation_method            'ToBaCCo'
  _symmetry_space_group_name_H-M    'P1'
  _symmetry_Int_Tables_number       1
  _symmetry_cell_setting            triclinic
  loop_
  _symmetry_equiv_pos_as_xyz
 x,y,z
_cell_length_a 35.8998
_cell_length_b 39.8543
_cell_length_c 43.1689
_cell_angle_alpha 90.229700
_cell_angle_beta 92.059400
_cell_angle_gamma 90.292900
loop_
  _atom_site_label
  _atom_site_type_symbol
  _atom_site_fract_x
  _atom_site_fract_y
  _atom_site_fract_z
C1 C 0.16669 0.14882 0.22026
 N2 N 0.19394 0.13540 0.20324
 C3 C 0.20415 0.15009 0.17656
 N4 N 0.18679 0.17860 0.16683
 C5 C 0.15938 0.19232 0.18369
 N6 N 0.14946 0.17737 0.21042
 C7 C -0.15725 0.82355 0.21202
 N8 N -0.18708 0.84201 0.20178
 C9 C -0.20563 0.83409 0.17474
 N10 N -0.19411 0.80753 0.15789
 C11 C -0.16440 0.78902 0.16754
 N12 N -0.14592 0.79704 0.19471
 C13 C -0.11856 0.14165 -0.19595
 N14 N -0.14477 0.13000 -0.17421
 C15 C -0.15265 0.14783 -0.14853
 N16 N -0.13522 0.17743 -0.14274
 C17 C -0.10976 0.19045 -0.16187
 N18 N -0.10106 0.17367 -0.18807
 C19 C 0.10612 0.84265 -0.20493
 N20 N 0.13446 0.85899 -0.18917
 C21 C 0.14545 0.84858 -0.16026
 N22 N 0.12834 0.82192 -0.14760
 C23 C 0.10064 0.80521 -0.16322
 N24 N 0.08960 0.81560 -0.19195
 C25 C 0.09177 1.13653 0.80283
 N26 N 0.12326 1.12092 0.81339
 C27 C 0.14213 1.13214 0.83914
 N28 N 0.12949 1.15944 0.85441
 C29 C 0.09777 1.17509 0.84424
 N30 N 0.07904 1.16348 0.81846
 C31 C 0.86520 0.82959 0.78812
 N32 N 0.83498 0.84861 0.79453
 C33 C 0.81428 0.84175 0.81944
 N34 N 0.82396 0.81566 0.83812
 C35 C 0.85405 0.79650 0.83219
 N36 N 0.87458 0.80348 0.80704
 C37 C 0.15115 0.83867 1.21730
 N38 N 0.13989 0.81101 1.20123
 C39 C 0.15694 0.80158 1.17516
 N40 N 0.18563 0.82035 1.16473
 C41 C 0.19711 0.84850 1.18052
 N42 N 0.17984 0.85748 1.20687
 C43 C 0.84507 1.18614 1.22511
 N44 N 0.81647 1.16980 1.21024
 C45 C 0.80418 1.17931 1.18158
 N46 N 0.82057 1.20596 1.16753
 C47 C 0.84939 1.22260 1.18248
 N48 N 0.86143 1.21237 1.21107
 N49 N 0.54384 1.04122 1.03156
 N50 N 0.57235 1.04516 1.05169
 N51 N 0.46865 1.07307 1.00998
 N52 N 0.44290 1.09630 1.01297
 N53 N 0.46600 1.05023 1.03167
 N54 N 0.43831 1.05719 1.04986
 N55 N 0.54597 1.06327 1.00915
 N56 N 0.57578 1.08233 1.01304
 C57 C 0.59209 1.07083 1.03944
 C58 C 0.42431 1.08606 1.03799
 N59 N 0.46041 1.04905 0.92189
 N60 N 0.42905 1.05435 0.90571
 N61 N 0.54314 1.06220 0.94286
 N62 N 0.57610 1.07665 0.94012
 N63 N 0.53791 1.03884 0.92163
 N64 N 0.56682 1.03673 0.90386
 N65 N 0.46549 1.07234 0.94324
 N66 N 0.43805 1.09420 0.94200
 Mn67 Mn 0.50586 1.06809 0.97629
 C68 C 0.41574 1.08285 0.91835
 C69 C 0.59024 1.06052 0.91549
 N70 N 0.45412 0.97823 1.03264
 N71 N 0.42852 0.97444 1.05378
 N72 N 0.52654 0.94558 1.01058
 N73 N 0.55056 0.92093 1.01491
 N74 N 0.53180 0.96887 1.03198
 N75 N 0.55939 0.96061 1.05148
 N76 N 0.44912 0.95580 1.01045
 N77 N 0.42019 0.93648 1.01568
 Mn78 Mn 0.49903 1.00966 1.03243
 C79 C 0.40739 0.94841 1.04255
 C80 C 0.57083 0.93067 1.04045
 N81 N 0.52678 0.96756 0.92220
 N82 N 0.55535 0.96052 0.90481
 N83 N 0.44554 0.95537 0.94356
 N84 N 0.41299 0.93985 0.93974
 N85 N 0.44940 0.97802 0.92193
 N86 N 0.41999 0.97864 0.90288
 N87 N 0.52333 0.94478 0.94381
 N88 N 0.54924 0.92165 0.94170
 Mn89 Mn 0.49366 1.00839 0.92159
 Mn90 Mn 0.48600 0.95001 0.97709
 Cl91 Cl 0.49614 1.00899 0.97695
 C92 C 0.56883 0.93163 0.91721
 C93 C 0.39758 0.95477 0.91413
 N94 N 0.06480 0.45963 0.05715
 N95 N 0.06598 0.43310 0.07549
 N96 N 0.09932 0.52791 0.03620
 N97 N 0.12317 0.55319 0.03850
 N98 N 0.07410 0.53022 0.05738
 N99 N 0.07988 0.55750 0.07440
 N100 N 0.09094 0.45789 0.03671
 N101 N 0.11049 0.43022 0.04044
 C102 C 0.09477 0.41509 0.06470
 C103 C 0.11080 0.57132 0.06252
 N104 N 0.07265 0.52694 -0.05336
 N105 N 0.07531 0.55427 -0.07007
 N106 N 0.09008 0.45634 -0.02942
 N107 N 0.10770 0.42741 -0.03009
 N108 N 0.06323 0.45711 -0.05085
 N109 N 0.06185 0.42871 -0.06671
 N110 N 0.09812 0.52689 -0.03076
 N111 N 0.11863 0.55456 -0.03154
 Mn112 Mn 0.09510 0.49240 0.00316
 C113 C 0.10424 0.57110 -0.05656
 C114 C 0.08998 0.41059 -0.05355
 N115 N -0.00501 0.53836 0.05582
 N116 N -0.00579 0.56301 0.07615
 N117 N -0.04189 0.47235 0.03345
 N118 N -0.06776 0.44890 0.03535
 N119 N -0.01569 0.46834 0.05518
 N120 N -0.02333 0.44213 0.07260
 N121 N -0.03064 0.54247 0.03367
 N122 N -0.04995 0.57012 0.03872
 Mn123 Mn 0.02954 0.49892 0.05679
 C124 C -0.03378 0.58263 0.06534
 C125 C -0.05603 0.43040 0.05993
 N126 N -0.01634 0.46631 -0.05308
 N127 N -0.02318 0.43937 -0.07017
 N128 N -0.03101 0.54114 -0.03422
 N129 N -0.04877 0.56970 -0.03974
 N130 N -0.00612 0.53590 -0.05527
 N131 N -0.00611 0.56055 -0.07547
 N132 N -0.04247 0.47078 -0.03298
 N133 N -0.06776 0.44661 -0.03577
 Mn134 Mn 0.02836 0.49633 -0.05340
 Mn135 Mn -0.03705 0.50703 -0.00004
 Cl136 Cl 0.02890 0.49872 0.00170
 C137 C -0.05542 0.42744 -0.05924
 C138 C -0.03271 0.58139 -0.06565
 N139 N 0.92591 0.03132 0.53695
 N140 N 0.90663 0.03402 0.56246
 N141 N 0.94204 0.05697 0.47038
 N142 N 0.93404 0.07673 0.44667
 N143 N 0.91803 0.03209 0.47141
 N144 N 0.89303 0.03419 0.44833
 N145 N 0.94910 0.05672 0.53490
 N146 N 0.94581 0.07766 0.55822
 C147 C 0.91949 0.06325 0.57525
 C148 C 0.90331 0.06225 0.43326
 N149 N 1.04918 0.04178 0.46514
 N150 N 1.06843 0.04786 0.44021
 N151 N 1.02843 0.06194 0.53205
 N152 N 1.03087 0.07870 0.55850
 N153 N 1.05615 0.04076 0.53023
 N154 N 1.07834 0.04277 0.55515
 N155 N 1.02145 0.06292 0.46693
 N156 N 1.02104 0.08401 0.44350
 Mn157 Mn 0.98527 0.05996 0.50101
 C158 C 1.05046 0.07438 0.42709
 C159 C 1.06246 0.06671 0.57238
 N160 N 0.92387 -0.03994 0.46969
 N161 N 0.90014 -0.04334 0.44581
 N162 N 0.95863 -0.06245 0.53338
 N163 N 0.95981 -0.08146 0.55855
 N164 N 0.93120 -0.04086 0.53471
 N165 N 0.91289 -0.04472 0.56032
 N166 N 0.95158 -0.06116 0.46750
 N167 N 0.94743 -0.07944 0.44193
 Mn168 Mn 0.92427 -0.00444 0.50326
 C169 C 0.91498 -0.06817 0.42881
 C170 C 0.93075 -0.07016 0.57491
 N171 N 1.06211 -0.03126 0.52907
 N172 N 1.08438 -0.03147 0.55410
 N173 N 1.03194 -0.05526 0.46401
 N174 N 1.03692 -0.07469 0.43952
 N175 N 1.05542 -0.02988 0.46415
 N176 N 1.07683 -0.03119 0.44012
 N177 N 1.03837 -0.05646 0.52960
 N178 N 1.04373 -0.07421 0.55512
 Mn179 Mn 1.05613 0.00535 0.49713
 Mn180 Mn 0.99515 -0.05941 0.49853
 Cl181 Cl 0.99017 0.00029 0.49996
 C182 C 1.07279 -0.05854 0.56997
 C183 C 1.06511 -0.05909 0.42495
 C184 C 1.15725 0.13300 0.24762
 C185 C 1.12909 0.14446 0.26638
 C186 C 1.11939 0.12743 0.29539
 C187 C 1.08316 0.13071 0.30601
 C188 C 1.07295 0.11512 0.33336
 C189 C 1.09914 0.09639 0.35103
 C190 C 1.13534 0.09299 0.34034
 C191 C 1.14552 0.10852 0.31292
 C192 C 1.08954 0.07995 0.38041
 C193 C 1.06034 0.09081 0.39822
 H194 H 1.11226 0.16562 0.25888
 H195 H 1.06252 0.14505 0.29286
 H196 H 1.04441 0.11747 0.34018
 H197 H 1.15601 0.07872 0.35352
 H198 H 1.17403 0.10617 0.30594
 H199 H 1.10691 0.05957 0.38891
 H200 H 1.17225 0.11042 0.25399
 H201 H 1.04402 0.11240 0.39124
 C202 C 0.86159 -0.16865 0.24020
 C203 C 0.85114 -0.14163 0.25889
 C204 C 0.86907 -0.13224 0.28937
 C205 C 0.85940 -0.10142 0.30267
 C206 C 0.87427 -0.09154 0.33168
 C207 C 0.89902 -0.11251 0.34848
 C208 C 0.90931 -0.14310 0.33500
 C209 C 0.89439 -0.15302 0.30586
 C210 C 0.91502 -0.10284 0.37958
 C211 C 0.89834 -0.07937 0.39879
 H212 H 0.82844 -0.12583 0.25061
 H213 H 0.84023 -0.08473 0.29050
 H214 H 0.86658 -0.06722 0.34051
 H215 H 0.92856 -0.15963 0.34728
 H216 H 0.90240 -0.17712 0.29678
 H217 H 0.94025 -0.11516 0.38792
 H218 H 0.88495 -0.18416 0.24732
 H219 H 0.87198 -0.06827 0.39178
 C220 C 0.88790 0.12028 0.77353
 C221 C 0.91020 0.13037 0.74971
 C222 C 0.91071 0.11121 0.72027
 C223 C 0.92834 0.12528 0.69496
 C224 C 0.92704 0.10902 0.66623
 C225 C 0.90807 0.07819 0.66217
 C226 C 0.89176 0.06339 0.68780
 C227 C 0.89278 0.07982 0.71656
 C228 C 0.90628 0.06075 0.63173
 C229 C 0.90783 0.07855 0.60415
 H230 H 0.92518 0.15405 0.75166
 H231 H 0.94278 0.14914 0.69729
 H232 H 0.94143 0.12056 0.64740
 H233 H 0.87760 0.03940 0.68542
 H234 H 0.87924 0.06803 0.73573
 H235 H 0.90546 0.03357 0.63110
 H236 H 0.88619 0.13258 0.78847
 H237 H 0.90763 0.10569 0.60478
 C238 C 1.09366 -0.14726 0.76362
 C239 C 1.11117 -0.12215 0.74694
 C240 C 1.09977 -0.11358 0.71455
 C241 C 1.12581 -0.09833 0.69555
 C242 C 1.11639 -0.09063 0.66467
 C243 C 1.08039 -0.09765 0.65224
 C244 C 1.05422 -0.11253 0.67136
 C245 C 1.06363 -0.12021 0.70221
 C246 C 1.06910 -0.09030 0.61959
 C247 C 1.08732 -0.06714 0.60119
 H248 H 1.13557 -0.10978 0.75723
 H249 H 1.15378 -0.09288 0.70449
 H250 H 1.13763 -0.07979 0.65061
 H251 H 1.02621 -0.11798 0.66247
 H252 H 1.04231 -0.13089 0.71629
 H253 H 1.04388 -0.10219 0.61023
 H254 H 1.07093 -0.16151 0.75288
 H255 H 1.11105 -0.05302 0.61037
 C256 C 0.23242 1.13554 1.15991
 C257 C 0.24585 1.14908 1.13265
 C258 C 0.27677 1.13342 1.11614
 C259 C 0.30022 1.15362 1.09868
 C260 C 0.33083 1.13971 1.08421
 C261 C 0.33819 1.10515 1.08666
 C262 C 0.31408 1.08488 1.10338
 C263 C 0.28353 1.09873 1.11776
 C264 C 0.37123 1.08937 1.07333
 C265 C 0.39195 1.10357 1.04999
 H266 H 0.23523 1.17291 1.12427
 H267 H 0.29544 1.18037 1.09695
 H268 H 0.34907 1.15631 1.07197
 H269 H 0.31893 1.05815 1.10540
 H270 H 0.26527 1.08212 1.12998
 H271 H 0.37899 1.06470 1.08177
 H272 H 0.24501 1.11301 1.16941
 H273 H 0.38390 1.12714 1.03948
 C274 C 0.17552 0.86272 0.85634
 C275 C 0.19890 0.88749 0.84513
 C276 C 0.23397 0.89669 0.86226
 C277 C 0.24823 0.92933 0.86005
 C278 C 0.28135 0.93836 0.87608
 C279 C 0.30122 0.91459 0.89416
 C280 C 0.28683 0.88203 0.89645
 C281 C 0.25379 0.87303 0.88047
 C282 C 0.33714 0.92273 0.91045
 C283 C 0.36093 0.94732 0.89969
 H284 H 0.19156 0.90030 0.82368
 H285 H 0.23345 0.94796 0.84623
 H286 H 0.29098 0.96403 0.87448
 H287 H 0.30166 0.86326 0.91008
 H288 H 0.24434 0.84728 0.88194
 H289 H 0.34635 0.90739 0.92990
 H290 H 0.18187 0.85239 0.87908
 H291 H 0.35328 0.96129 0.87902
 C292 C 0.76388 0.85326 1.16440
 C293 C 0.74326 0.84510 1.13722
 C294 C 0.71126 0.86464 1.12449
 C295 C 0.68666 0.84892 1.10294
 C296 C 0.65696 0.86651 1.08912
 C297 C 0.65149 0.90059 1.09617
 C298 C 0.67578 0.91622 1.11809
 C299 C 0.70548 0.89852 1.13206
 C300 C 0.62076 0.92040 1.08147
 C301 C 0.60128 0.91059 1.05431
 H302 H 0.75017 0.82245 1.12473
 H303 H 0.69037 0.82280 1.09678
 H304 H 0.63835 0.85302 1.07321
 H305 H 0.67215 0.94240 1.12406
 H306 H 0.72421 0.91173 1.14811
 H307 H 0.61393 0.94423 1.09198
 H308 H 0.75600 0.87458 1.17826
 H309 H 0.60844 0.88783 1.04228
 C310 C 0.81915 1.13757 0.87068
 C311 C 0.79690 1.10955 0.86378
 C312 C 0.76074 1.10391 0.87802
 C313 C 0.73209 1.08905 0.85982
 C314 C 0.69675 1.08481 0.87148
 C315 C 0.68952 1.09449 0.90208
 C316 C 0.71828 1.10929 0.92039
 C317 C 0.75369 1.11394 0.90851
 C318 C 0.65235 1.08970 0.91518
 C319 C 0.62714 1.06596 0.90321
 H320 H 0.80317 1.09400 0.84399
 H321 H 0.73679 1.08154 0.83613
 H322 H 0.67516 1.07459 0.85606
 H323 H 0.71340 1.11702 0.94398
 H324 H 0.77545 1.12503 0.92329
 H325 H 0.64523 1.10419 0.93541
 H326 H 0.81233 1.15384 0.88979
 H327 H 0.63471 1.04952 0.88452
 C328 C 0.14065 0.22342 0.17358
 C329 C 0.14875 0.23902 0.14570
 C330 C 0.13180 0.27087 0.13471
 C331 C 0.13533 0.27959 0.10351
 C332 C 0.12153 0.31002 0.09222
 C333 C 0.10428 0.33279 0.11207
 C334 C 0.09979 0.32377 0.14310
 C335 C 0.11363 0.29323 0.15444
 C336 C 0.09101 0.36595 0.10099
 C337 C 0.10740 0.38245 0.07650
 H338 H 0.16826 0.22696 0.13070
 H339 H 0.14894 0.26278 0.08775
 H340 H 0.12430 0.31546 0.06788
 H341 H 0.08641 0.34080 0.15880
 H342 H 0.11082 0.28783 0.17876
 H343 H 0.06923 0.37841 0.11335
 H344 H 0.11983 0.23369 0.18835
 H345 H 0.13100 0.37141 0.06545
 C346 C -0.09331 0.22375 -0.15490
 C347 C -0.10547 0.24271 -0.12987
 C348 C -0.09293 0.27716 -0.12165
 C349 C -0.11297 0.29484 -0.09958
 C350 C -0.10212 0.32706 -0.09014
 C351 C -0.07069 0.34245 -0.10258
 C352 C -0.05086 0.32492 -0.12496
 C353 C -0.06169 0.29255 -0.13435
 C354 C -0.05697 0.37606 -0.09244
 C355 C -0.07318 0.39596 -0.06985
 H356 H -0.12681 0.23206 -0.11570
 H357 H -0.13721 0.28360 -0.08944
 H358 H -0.11846 0.33934 -0.07298
 H359 H -0.02656 0.33615 -0.13498
 H360 H -0.04514 0.27971 -0.15108
 H361 H -0.03180 0.38525 -0.10275
 H362 H -0.07304 0.23370 -0.17039
 H363 H -0.09831 0.38834 -0.05878
 C364 C 0.08588 0.77388 -0.15050
 C365 C 0.09979 0.76160 -0.12210
 C366 C 0.09572 0.72644 -0.11212
 C367 C 0.12225 0.71352 -0.09071
 C368 C 0.12127 0.67980 -0.08214
 C369 C 0.09338 0.65839 -0.09468
 C370 C 0.06622 0.67160 -0.11542
 C371 C 0.06724 0.70529 -0.12403
 C372 C 0.09112 0.62237 -0.08700
 C373 C 0.11344 0.60580 -0.06473
 H374 H 0.11863 0.77731 -0.10818
 H375 H 0.14443 0.72939 -0.08114
 H376 H 0.14272 0.67082 -0.06612
 H377 H 0.04413 0.65572 -0.12515
 H378 H 0.04570 0.71450 -0.13990
 H379 H 0.06912 0.60817 -0.09899
 H380 H 0.06740 0.75884 -0.16528
 H381 H 0.13554 0.61850 -0.05163
 C382 C -0.15339 0.76060 0.14800
 C383 C -0.12094 0.74209 0.15321
 C384 C -0.10994 0.71436 0.13237
 C385 C -0.07216 0.70596 0.13100
 C386 C -0.06073 0.67988 0.11181
 C387 C -0.08704 0.66108 0.09390
 C388 C -0.12479 0.66974 0.09496
 C389 C -0.13622 0.69590 0.11412
 C390 C -0.07602 0.63211 0.07451
 C391 C -0.04438 0.61326 0.08184
 H392 H -0.10190 0.74938 0.17211
 H393 H -0.05132 0.71986 0.14462
 H394 H -0.03122 0.67481 0.11092
 H395 H -0.14562 0.65569 0.08147
 H396 H -0.16572 0.70097 0.11504
 H397 H -0.09470 0.62379 0.05572
 H398 H -0.17108 0.75527 0.12774
 H399 H -0.02722 0.61977 0.10210
 C400 C 1.07463 0.12742 0.77456
 C401 C 1.09000 0.10327 0.75538
 C402 C 1.07978 0.10040 0.72213
 C403 C 1.10763 0.09148 0.70180
 C404 C 1.09991 0.08971 0.66999
 C405 C 1.06370 0.09595 0.65787
 C406 C 1.03582 0.10498 0.67827
 C407 C 1.04370 0.10717 0.71017
 C408 C 1.05396 0.09274 0.62438
 C409 C 1.07543 0.07448 0.60408
 H410 H 1.11433 0.08950 0.76362
 H411 H 1.13576 0.08661 0.71050
 H412 H 1.12265 0.08389 0.65520
 H413 H 1.00779 0.10997 0.66952
 H414 H 1.02148 0.11367 0.72535
 H415 H 1.02744 0.10264 0.61594
 H416 H 1.05108 0.14206 0.76612
 H417 H 1.10079 0.06234 0.61210
 C418 C 0.88631 -0.16366 0.76215
 C419 C 0.87893 -0.13603 0.74300
 C420 C 0.89865 -0.12818 0.71425
 C421 C 0.89556 -0.09556 0.70242
 C422 C 0.91023 -0.08739 0.67393
 C423 C 0.92784 -0.11187 0.65612
 C424 C 0.93276 -0.14412 0.66857
 C425 C 0.91809 -0.15234 0.69734
 C426 C 0.93992 -0.10420 0.62432
 C427 C 0.92008 -0.08140 0.60574
 H428 H 0.85760 -0.11849 0.74958
 H429 H 0.88117 -0.07633 0.71510
 H430 H 0.90735 -0.06185 0.66579
 H431 H 0.94662 -0.16332 0.65548
 H432 H 0.92078 -0.17785 0.70554
 H433 H 0.96328 -0.11753 0.61505
 H434 H 0.90922 -0.18017 0.75725
 H435 H 0.89511 -0.07016 0.61441
 C436 C 1.13291 -0.15331 0.24429
 C437 C 1.14324 -0.12667 0.26384
 C438 C 1.12432 -0.12008 0.29317
 C439 C 1.14459 -0.10482 0.31775
 C440 C 1.12780 -0.09824 0.34578
 C441 C 1.08994 -0.10609 0.34963
 C442 C 1.06972 -0.12177 0.32519
 C443 C 1.08662 -0.12852 0.29712
 C444 C 1.07104 -0.09753 0.37859
 C445 C 1.08233 -0.06986 0.39633
 H446 H 1.16756 -0.11171 0.25878
 H447 H 1.17370 -0.09835 0.31539
 H448 H 1.14473 -0.08724 0.36445
 H449 H 1.04057 -0.12806 0.32756
 H450 H 1.06983 -0.13964 0.27843
 H451 H 1.04662 -0.11168 0.38489
 H452 H 1.11035 -0.16970 0.25075
 H453 H 1.10466 -0.05402 0.38851
 C454 C 0.85788 0.17641 0.25454
 C455 C 0.84221 0.14951 0.27026
 C456 C 0.85586 0.13826 0.30119
 C457 C 0.84810 0.10528 0.31027
 C458 C 0.86105 0.09338 0.33904
 C459 C 0.88167 0.11450 0.35951
 C460 C 0.88901 0.14761 0.35059
 C461 C 0.87603 0.15952 0.32183
 C462 C 0.89731 0.10265 0.38962
 C463 C 0.88462 0.07418 0.40470
 H464 H 0.82010 0.13489 0.25889
 H465 H 0.83255 0.08845 0.29480
 H466 H 0.85556 0.06746 0.34465
 H467 H 0.90476 0.16438 0.36598
 H468 H 0.88158 0.18541 0.31616
 H469 H 0.91975 0.11725 0.40054
 H470 H 0.88126 0.19009 0.26495
 H471 H 0.86088 0.06004 0.39558
 C472 C 0.08562 0.20435 -0.14167
 C473 C 0.10577 0.22021 -0.11748
 C474 C 0.09715 0.25452 -0.10697
 C475 C 0.12642 0.27488 -0.09537
 C476 C 0.11999 0.30817 -0.08708
 C477 C 0.08384 0.32159 -0.08968
 C478 C 0.05442 0.30100 -0.10069
 C479 C 0.06089 0.26772 -0.10915
 C480 C 0.07604 0.35697 -0.08187
 C481 C 0.09899 0.37599 -0.06182
 H482 H 0.13138 0.20898 -0.10852
 H483 H 0.15460 0.26529 -0.09359
 H484 H 0.14362 0.32338 -0.07946
 H485 H 0.02632 0.31067 -0.10264
 H486 H 0.03745 0.25247 -0.11720
 H487 H 0.05038 0.36792 -0.09104
 H488 H 0.06109 0.21634 -0.15177
 H489 H 0.12313 0.36493 -0.05027
 C490 C -0.13285 0.25031 0.16982
 C491 C -0.14287 0.26524 0.14152
 C492 C -0.12360 0.29583 0.13030
 C493 C -0.12488 0.30318 0.09849
 C494 C -0.10635 0.33143 0.08725
 C495 C -0.08629 0.35306 0.10771
 C496 C -0.08531 0.34591 0.13946
 C497 C -0.10412 0.31798 0.15072
 C498 C -0.06561 0.38283 0.09684
 C499 C -0.07618 0.40041 0.07016
 H500 H -0.16452 0.25381 0.12680
 H501 H -0.13977 0.28673 0.08224
 H502 H -0.10714 0.33580 0.06252
 H503 H -0.07033 0.36230 0.15572
 H504 H -0.10360 0.31431 0.17552
 H505 H -0.04265 0.39241 0.11133
 H506 H -0.10961 0.26065 0.18341
 H507 H -0.10074 0.39277 0.05662
 C508 C -0.13709 0.76995 -0.14789
 C509 C -0.10603 0.74941 -0.15111
 C510 C -0.09720 0.72095 -0.13005
 C511 C -0.06031 0.70963 -0.12733
 C512 C -0.05105 0.68217 -0.10859
 C513 C -0.07871 0.66495 -0.09253
 C514 C -0.11547 0.67669 -0.09469
 C515 C -0.12475 0.70423 -0.11342
 C516 C -0.07011 0.63441 -0.07409
 C517 C -0.04130 0.61298 -0.08173
 H518 H -0.08653 0.75507 -0.16898
 H519 H -0.03850 0.72214 -0.13968
 H520 H -0.02216 0.67465 -0.10668
 H521 H -0.13728 0.66390 -0.08257
 H522 H -0.15367 0.71162 -0.11543
 H523 H -0.08846 0.62728 -0.05582
 H524 H -0.15509 0.76586 -0.12866
 H525 H -0.02470 0.61861 -0.10150
 C526 C 0.14344 0.77097 0.15927
 C527 C 0.16110 0.75555 0.13480
 C528 C 0.14740 0.72308 0.12180
 C529 C 0.17278 0.70016 0.10986
 C530 C 0.16080 0.66830 0.09979
 C531 C 0.12298 0.65899 0.10115
 C532 C 0.09752 0.68234 0.11218
 C533 C 0.10945 0.71411 0.12210
 C534 C 0.10904 0.62514 0.09221
 C535 C 0.12733 0.60361 0.07236
 H536 H 0.18710 0.76586 0.12699
 H537 H 0.20212 0.70652 0.10926
 H538 H 0.18141 0.65085 0.09189
 H539 H 0.06821 0.67596 0.11317
 H540 H 0.08880 0.73153 0.13003
 H541 H 0.08202 0.61757 0.10028
 H542 H 0.11939 0.75894 0.16891
 H543 H 0.15299 0.61127 0.06202
 C544 C 0.17746 1.11600 0.84849
 C545 C 0.20298 1.13085 0.86950
 C546 C 0.24108 1.11772 0.87525
 C547 C 0.26945 1.14010 0.88494
 C548 C 0.30602 1.12896 0.88975
 C549 C 0.31484 1.09492 0.88552
 C550 C 0.28642 1.07250 0.87592
 C551 C 0.24984 1.08368 0.87100
 C552 C 0.35310 1.08194 0.89093
 C553 C 0.37960 1.09802 0.91024
 H554 H 0.19614 1.15477 0.87983
 H555 H 0.26344 1.16647 0.88823
 H556 H 0.32722 1.14728 0.89627
 H557 H 0.29244 1.04614 0.87260
 H558 H 0.22856 1.06550 0.86429
 H559 H 0.35972 1.05761 0.88133
 H560 H 0.18489 1.09350 0.83610
 H561 H 0.37287 1.12105 0.92204
 C562 C 0.22782 0.86964 1.16941
 C563 C 0.24724 0.86152 1.14292
 C564 C 0.27794 0.88202 1.13030
 C565 C 0.30003 0.86740 1.10779
 C566 C 0.32844 0.88567 1.09423
 C567 C 0.33524 0.91942 1.10248
 C568 C 0.31377 0.93395 1.12550
 C569 C 0.28523 0.91558 1.13917
 C570 C 0.36474 0.93950 1.08761
 C571 C 0.37579 0.93239 1.05763
 H572 H 0.24006 0.83830 1.13093
 H573 H 0.29535 0.84158 1.10065
 H574 H 0.34524 0.87301 1.07753
 H575 H 0.31858 0.95980 1.13247
 H576 H 0.26864 0.92807 1.15609
 H577 H 0.37739 0.96047 1.10015
 H578 H 0.23525 0.89182 1.18278
 H579 H 0.36132 0.91299 1.04429
 C580 C 0.77343 1.15976 1.16689
 C581 C 0.75980 1.16411 1.13658
 C582 C 0.72946 1.14263 1.12290
 C583 C 0.70660 1.15537 1.09878
 C584 C 0.67733 1.13608 1.08581
 C585 C 0.67063 1.10321 1.09633
 C586 C 0.69355 1.09040 1.12038
 C587 C 0.72288 1.10970 1.13335
 C588 C 0.63958 1.08228 1.08305
 C589 C 0.62599 1.08678 1.05277
 H590 H 0.77046 1.18461 1.12301
 H591 H 0.71096 1.18060 1.09035
 H592 H 0.65957 1.14737 1.06801
 H593 H 0.68906 1.06522 1.12888
 H594 H 0.74056 1.09846 1.15121
 H595 H 0.62746 1.06298 1.09720
 H596 H 0.76108 1.14072 1.18114
 H597 H 0.63965 1.10456 1.03803
 C598 C 0.78134 0.86236 0.82577
 C599 C 0.75992 0.85659 0.85165
 C600 C 0.72607 0.87569 0.85939
 C601 C 0.71219 0.87193 0.88915
 C602 C 0.67972 0.88826 0.89750
 C603 C 0.65991 0.90851 0.87605
 C604 C 0.67410 0.91288 0.84644
 C605 C 0.70673 0.89650 0.83805
 C606 C 0.62493 0.92565 0.88416
 C607 C 0.60214 0.91385 0.90731
 H608 H 0.76882 0.83715 0.86770
 H609 H 0.72661 0.85630 0.90614
 H610 H 0.67063 0.88520 0.92093
 H611 H 0.65953 0.92853 0.82956
 H612 H 0.71607 0.89976 0.81473
 H613 H 0.61640 0.94761 0.87106
 H614 H 0.77444 0.88248 0.80989
 H615 H 0.60889 0.89073 0.91922
   
