data_POSCAR
  _audit_creation_date              2014-09-24
  _audit_creation_method            'ToBaCCo'
  _symmetry_space_group_name_H-M    'P1'
  _symmetry_Int_Tables_number       1
  _symmetry_cell_setting            triclinic
  loop_
  _symmetry_equiv_pos_as_xyz
 x,y,z
_cell_length_a 35.2827
_cell_length_b 35.1509
_cell_length_c 34.5444
_cell_angle_alpha 90.200200
_cell_angle_beta 88.984100
_cell_angle_gamma 89.358900
loop_
  _atom_site_label
  _atom_site_type_symbol
  _atom_site_fract_x
  _atom_site_fract_y
  _atom_site_fract_z
C1 C 0.19505 0.19447 0.23099
 N2 N 0.23117 0.18694 0.21864
 C3 C 0.24544 0.20269 0.18562
 N4 N 0.22321 0.22686 0.16517
 C5 C 0.18761 0.23575 0.17784
 N6 N 0.17354 0.21934 0.21050
 C7 C -0.20112 0.79067 0.25956
 N8 N -0.23270 0.80644 0.24398
 C9 C -0.25183 0.78852 0.21559
 N10 N -0.23887 0.75425 0.20266
 C11 C -0.20781 0.73749 0.21814
 N12 N -0.18895 0.75588 0.24660
 C13 C -0.20090 0.19175 -0.25761
 N14 N -0.18713 0.22577 -0.24576
 C15 C -0.20154 0.24359 -0.21370
 N16 N -0.22985 0.22680 -0.19298
 C17 C -0.24428 0.19291 -0.20436
 N18 N -0.22963 0.17576 -0.23680
 C19 C 0.18774 0.82637 -0.19514
 N20 N 0.16687 0.80168 -0.17385
 C21 C 0.18096 0.78581 -0.14129
 N22 N 0.21602 0.79567 -0.12926
 C23 C 0.23720 0.82091 -0.15002
 N24 N 0.22294 0.83560 -0.18327
 C25 C 0.21315 1.20480 0.75007
 N26 N 0.19410 1.23276 0.76939
 C27 C 0.20620 1.24671 0.80365
 N28 N 0.23846 1.23178 0.81907
 C29 C 0.25814 1.20347 0.80000
 N30 N 0.24521 1.19037 0.76563
 C31 C 0.80678 0.79707 0.74596
 N32 N 0.81532 0.76083 0.75645
 C33 C 0.79501 0.74288 0.78471
 N34 N 0.76508 0.76157 0.80194
 C35 C 0.75547 0.79750 0.79097
 N36 N 0.77679 0.81504 0.76344
 C37 C 0.17783 0.80943 1.21227
 N38 N 0.15693 0.78711 1.18882
 C39 C 0.16964 0.77759 1.15269
 N40 N 0.20307 0.79159 1.13929
 C41 C 0.22406 0.81432 1.16222
 N42 N 0.21161 0.82269 1.19873
 C43 C 0.81675 1.19277 1.26271
 N44 N 0.83106 1.22479 1.24616
 C45 C 0.81539 1.23980 1.21382
 N46 N 0.78596 1.22156 1.19735
 C47 C 0.77159 1.18947 1.21314
 N48 N 0.78673 1.17549 1.24608
 O49 O 0.54747 0.98631 0.92441
 O50 O 0.47292 0.96785 1.07989
 O51 O 0.56238 0.94132 1.03636
 O52 O 0.43706 0.98563 0.97885
 O53 O 0.54331 0.96842 1.08841
 O54 O 0.48623 0.96114 0.95112
 O55 O 0.43257 1.00114 1.04680
 O56 O 0.55612 0.94947 0.97043
 C57 C 0.56238 0.95647 0.93590
 C58 C 0.44001 0.97308 1.06816
 C59 C 0.56054 0.94188 1.07201
 C60 C 0.45198 0.95934 0.95924
 O61 O 0.48227 1.02351 0.91306
 O62 O 0.54482 1.04024 1.08413
 O63 O 0.58441 1.02268 0.97488
 O64 O 0.46639 1.06959 1.03113
 O65 O 0.47324 1.04198 1.08508
 O66 O 0.53444 1.05181 0.95319
 O67 O 0.46722 1.05549 0.96445
 O68 O 0.58898 1.01338 1.04624
 Co69 Co 0.50887 1.00684 0.95471
 Co70 Co 0.50855 1.00456 1.07747
 Co71 Co 0.56824 0.98369 1.00719
 Co72 Co 0.45578 1.02590 1.00599
 O73 O 0.51206 1.00369 1.01379
 C74 C 0.46034 1.04911 0.92925
 C75 C 0.57895 1.03646 1.07318
 C76 C 0.56960 1.05046 0.95723
 C77 C 0.46335 1.07070 1.06674
 O78 O 0.03676 0.46546 0.04840
 O79 O 0.03110 0.53742 -0.05716
 O80 O 0.00353 0.42216 -0.05358
 O81 O -0.01482 0.57714 0.02256
 O82 O 0.03951 0.46943 -0.06227
 O83 O 0.03046 0.53874 0.03992
 O84 O -0.01524 0.57561 -0.04706
 O85 O 0.00831 0.41927 0.01752
 C86 C 0.03412 0.43108 0.03931
 C87 C 0.01931 0.57065 -0.05393
 C88 C 0.03527 0.43463 -0.06289
 C89 C 0.01846 0.57178 0.03425
 O90 O -0.03958 0.53325 0.06879
 O91 O -0.03195 0.46340 -0.09277
 O92 O -0.06469 0.43136 0.02544
 O93 O -0.08006 0.53450 -0.04496
 O94 O -0.03856 0.53166 -0.09039
 O95 O -0.03439 0.46281 0.07017
 O96 O -0.08160 0.54037 0.02547
 O97 O -0.06896 0.44359 -0.04678
 Co98 Co -0.00319 0.50014 0.05004
 Co99 Co -0.00166 0.50021 -0.07040
 Co100 Co -0.02960 0.43559 -0.01451
 Co101 Co -0.04564 0.55191 -0.01126
 O102 O -0.01992 0.49668 -0.01110
 C103 C -0.07290 0.54170 0.06007
 C104 C -0.06262 0.44814 -0.08196
 C105 C -0.05961 0.43957 0.06022
 C106 C -0.07226 0.53789 -0.07986
 O107 O 1.09190 0.02734 0.46694
 O108 O 0.94022 0.00491 0.54166
 O109 O 0.99295 0.03703 0.44476
 O110 O 1.04576 0.05683 0.55399
 O111 O 0.94376 0.01415 0.47150
 O112 O 1.09661 0.02610 0.53937
 O113 O 0.98058 0.04775 0.54525
 O114 O 1.05335 0.00809 0.42212
 C115 C 1.08030 0.02847 0.43281
 C116 C 0.94748 0.03832 0.55029
 C117 C 0.95866 0.03994 0.45187
 C118 C 1.08079 0.05491 0.55352
 O119 O 1.08985 -0.04608 0.54161
 O120 O 0.96896 -0.05773 0.46198
 O121 O 1.03421 -0.05903 0.44498
 O122 O 0.98654 -0.02346 0.58030
 O123 O 0.97353 -0.06302 0.53409
 O124 O 1.08995 -0.04696 0.46646
 O125 O 1.05392 -0.01441 0.58411
 O126 O 0.98446 -0.02621 0.40890
 Co127 Co 1.08538 -0.00985 0.50347
 Co128 Co 0.96282 -0.02360 0.50248
 Co129 Co 1.01286 -0.01087 0.44883
 Co130 Co 1.01666 0.01501 0.56137
 O131 O 1.02285 -0.00590 0.50567
 C132 C 1.07794 -0.04059 0.57582
 C133 C 0.96251 -0.05129 0.42620
 C134 C 1.06884 -0.06638 0.44563
 C135 C 0.97513 -0.05566 0.56942
 C136 C 1.14724 0.12942 0.32142
 C137 C 1.18669 0.12899 0.31556
 C138 C 1.20260 0.15135 0.28604
 C139 C 1.17943 0.17473 0.26281
 C140 C 1.13995 0.17605 0.27058
 C141 C 1.12369 0.15283 0.29918
 C142 C 1.13019 0.10416 0.35078
 C143 C 1.09056 0.10300 0.35510
 C144 C 1.07445 0.07772 0.38182
 C145 C 1.09773 0.05471 0.40490
 C146 C 1.13738 0.05690 0.40112
 C147 C 1.15380 0.08111 0.37345
 C148 C 1.08420 0.15170 0.30519
 C149 C 1.06789 0.12698 0.33246
 C150 C 1.20940 0.10562 0.33884
 C151 C 1.19326 0.08233 0.36752
 H152 H 1.06569 0.16959 0.28818
 H153 H 1.03730 0.12656 0.33576
 H154 H 1.23992 0.10518 0.33473
 H155 H 1.21178 0.06468 0.38476
 H156 H 1.23301 0.15017 0.28105
 H157 H 1.12148 0.19365 0.25320
 H158 H 1.04387 0.07623 0.38509
 H159 H 1.15523 0.03899 0.41886
 C160 C 0.86554 -0.14408 0.33471
 C161 C 0.87387 -0.18297 0.32987
 C162 C 0.85144 -0.20489 0.30522
 C163 C 0.82015 -0.18835 0.28626
 C164 C 0.81155 -0.14943 0.29297
 C165 C 0.83458 -0.12709 0.31633
 C166 C 0.89008 -0.12048 0.35897
 C167 C 0.88289 -0.08116 0.36203
 C168 C 0.90715 -0.05863 0.38389
 C169 C 0.93738 -0.07545 0.40370
 C170 C 0.94365 -0.11497 0.40145
 C171 C 0.92053 -0.13759 0.37826
 C172 C 0.82772 -0.08784 0.32090
 C173 C 0.85168 -0.06519 0.34306
 C174 C 0.90477 -0.19902 0.34943
 C175 C 0.92747 -0.17679 0.37350
 H176 H 0.80395 -0.07439 0.30672
 H177 H 0.84572 -0.03496 0.34539
 H178 H 0.91147 -0.22902 0.34610
 H179 H 0.95098 -0.19031 0.38805
 H180 H 0.85846 -0.23473 0.30088
 H181 H 0.78786 -0.13584 0.27874
 H182 H 0.90232 -0.02815 0.38601
 H183 H 0.96696 -0.12781 0.41691
 C184 C 0.85425 0.13084 0.65165
 C185 C 0.82304 0.11461 0.67084
 C186 C 0.80381 0.13551 0.69999
 C187 C 0.81599 0.17228 0.71058
 C188 C 0.84680 0.18838 0.68993
 C189 C 0.86609 0.16774 0.66073
 C190 C 0.87591 0.10820 0.62256
 C191 C 0.90806 0.12396 0.60458
 C192 C 0.93009 0.10150 0.57905
 C193 C 0.92044 0.06339 0.57171
 C194 C 0.88722 0.04847 0.58874
 C195 C 0.86503 0.07069 0.61455
 C196 C 0.89775 0.18291 0.64123
 C197 C 0.91840 0.16137 0.61366
 C198 C 0.81240 0.07734 0.66130
 C199 C 0.83306 0.05575 0.63368
 H200 H 0.90710 0.21141 0.64789
 H201 H 0.94311 0.17386 0.59990
 H202 H 0.78832 0.06447 0.67584
 H203 H 0.82434 0.02687 0.62781
 H204 H 0.78015 0.12249 0.71515
 H205 H 0.85663 0.21660 0.69717
 H206 H 0.95561 0.11320 0.56608
 H207 H 0.87972 0.01911 0.58345
 C208 C 1.14048 -0.12106 0.70470
 C209 C 1.17986 -0.12702 0.70626
 C210 C 1.19533 -0.14411 0.73920
 C211 C 1.17156 -0.15595 0.76995
 C212 C 1.13206 -0.15037 0.76753
 C213 C 1.11641 -0.13246 0.73521
 C214 C 1.12417 -0.10197 0.67075
 C215 C 1.08499 -0.09447 0.67003
 C216 C 1.06988 -0.07478 0.63849
 C217 C 1.09356 -0.06353 0.60749
 C218 C 1.13257 -0.07228 0.60805
 C219 C 1.14816 -0.09096 0.64000
 C220 C 1.07724 -0.12526 0.73301
 C221 C 1.06182 -0.10636 0.70109
 C222 C 1.20294 -0.11561 0.67491
 C223 C 1.18733 -0.09810 0.64225
 H224 H 1.05839 -0.13390 0.75639
 H225 H 1.03154 -0.10092 0.70077
 H226 H 1.23333 -0.12018 0.67566
 H227 H 1.20616 -0.08966 0.61877
 H228 H 1.22572 -0.14853 0.74077
 H229 H 1.11360 -0.15910 0.79122
 H230 H 1.03979 -0.06816 0.63799
 H231 H 1.15088 -0.06319 0.58438
 C232 C 0.35029 1.16342 1.14042
 C233 C 0.34004 1.15494 1.17886
 C234 C 0.30582 1.16931 1.19428
 C235 C 0.28177 1.19223 1.17164
 C236 C 0.29387 1.20245 1.13386
 C237 C 0.32763 1.18737 1.11784
 C238 C 0.38398 1.14476 1.12271
 C239 C 0.39230 1.15039 1.08322
 C240 C 0.42127 1.12861 1.06529
 C241 C 0.44130 1.10113 1.08665
 C242 C 0.43468 1.09830 1.12687
 C243 C 0.40550 1.11938 1.14487
 C244 C 0.33817 1.19416 1.07906
 C245 C 0.36984 1.17579 1.06196
 C246 C 0.36335 1.13080 1.20061
 C247 C 0.39567 1.11344 1.18394
 H248 H 0.32100 1.21273 1.06136
 H249 H 0.37611 1.18064 1.03158
 H250 H 0.35593 1.12437 1.23043
 H251 H 0.41221 1.09401 1.20133
 H252 H 0.29757 1.16166 1.22359
 H253 H 0.27604 1.22019 1.11594
 H254 H 0.42620 1.13102 1.03433
 H255 H 0.45010 1.07739 1.14362
 C256 C 0.33795 0.86687 0.89340
 C257 C 0.31582 0.84334 0.91729
 C258 C 0.28352 0.82608 0.90207
 C259 C 0.27225 0.83373 0.86373
 C260 C 0.29562 0.85676 0.84008
 C261 C 0.32846 0.87314 0.85466
 C262 C 0.37060 0.88685 0.90976
 C263 C 0.39213 0.91105 0.88595
 C264 C 0.42135 0.93212 0.90218
 C265 C 0.42811 0.93015 0.94206
 C266 C 0.40720 0.90503 0.96547
 C267 C 0.37843 0.88299 0.94932
 C268 C 0.35129 0.89678 0.83153
 C269 C 0.38271 0.91527 0.84687
 C270 C 0.32560 0.83881 0.95632
 C271 C 0.35625 0.85843 0.97210
 H272 H 0.34438 0.90162 0.80150
 H273 H 0.39911 0.93388 0.82825
 H274 H 0.30880 0.82075 0.97513
 H275 H 0.36219 0.85488 1.00255
 H276 H 0.26612 0.80854 0.92086
 H277 H 0.28803 0.86260 0.81039
 H278 H 0.43706 0.95211 0.88442
 H279 H 0.41258 0.90361 0.99620
 C280 C 0.65978 0.84642 1.15949
 C281 C 0.67466 0.81276 1.14308
 C282 C 0.70265 0.79238 1.16289
 C283 C 0.71714 0.80649 1.19801
 C284 C 0.70124 0.84010 1.21419
 C285 C 0.67239 0.85989 1.19528
 C286 C 0.63155 0.86882 1.13809
 C287 C 0.61698 0.90259 1.15452
 C288 C 0.59171 0.92482 1.13340
 C289 C 0.58203 0.91438 1.09545
 C290 C 0.59629 0.88008 1.07951
 C291 C 0.62090 0.85694 1.10097
 C292 C 0.65662 0.89350 1.21103
 C293 C 0.62916 0.91437 1.19110
 C294 C 0.66221 0.80092 1.10656
 C295 C 0.63604 0.82280 1.08570
 H296 H 0.66596 0.90403 1.23875
 H297 H 0.61808 0.94045 1.20398
 H298 H 0.67351 0.77499 1.09355
 H299 H 0.62795 0.81316 1.05722
 H300 H 0.71442 0.76667 1.14982
 H301 H 0.71143 0.85119 1.24137
 H302 H 0.58128 0.95142 1.14576
 H303 H 0.58900 0.87196 1.05028
 C304 C 0.67280 1.13669 0.86335
 C305 C 0.68280 1.12255 0.82646
 C306 C 0.71012 1.14150 0.80409
 C307 C 0.72721 1.17495 0.81790
 C308 C 0.71594 1.18925 0.85479
 C309 C 0.68922 1.16985 0.87783
 C310 C 0.64504 1.11593 0.88751
 C311 C 0.63604 1.12903 0.92516
 C312 C 0.61054 1.10817 0.94848
 C313 C 0.59396 1.07511 0.93367
 C314 C 0.60276 1.06294 0.89578
 C315 C 0.62857 1.08291 0.87270
 C316 C 0.67907 1.18253 0.91534
 C317 C 0.65315 1.16234 0.93868
 C318 C 0.66558 1.08941 0.81273
 C319 C 0.63878 1.07001 0.83540
 H320 H 0.69162 1.20804 0.92696
 H321 H 0.64654 1.17286 0.96756
 H322 H 0.67300 1.07828 0.78427
 H323 H 0.62629 1.04444 0.82382
 H324 H 0.71791 1.13003 0.77584
 H325 H 0.72869 1.21477 0.86619
 H326 H 0.60395 1.11725 0.97788
 H327 H 0.59012 1.03727 0.88463
 C328 C 0.12361 0.31929 0.11736
 C329 C 0.12537 0.32094 0.15795
 C330 C 0.14549 0.29268 0.17759
 C331 C 0.16485 0.26383 0.15684
 C332 C 0.16339 0.26276 0.11616
 C333 C 0.14211 0.29013 0.09623
 C334 C 0.10189 0.34861 0.09666
 C335 C 0.09845 0.34604 0.05624
 C336 C 0.07626 0.37321 0.03699
 C337 C 0.05938 0.40354 0.05787
 C338 C 0.06400 0.40623 0.09810
 C339 C 0.08454 0.37841 0.11780
 C340 C 0.13882 0.28895 0.05573
 C341 C 0.11701 0.31621 0.03611
 C342 C 0.10726 0.35099 0.17807
 C343 C 0.08744 0.37946 0.15827
 H344 H 0.15289 0.26656 0.03912
 H345 H 0.11483 0.31404 0.00492
 H346 H 0.10859 0.35262 0.20934
 H347 H 0.07395 0.40225 0.17482
 H348 H 0.14706 0.29368 0.20891
 H349 H 0.17829 0.24036 0.10025
 H350 H 0.07214 0.37089 0.00608
 H351 H 0.05018 0.42915 0.11426
 C352 C -0.14973 0.34397 -0.16899
 C353 C -0.13259 0.32482 -0.20054
 C354 C -0.15045 0.29290 -0.21620
 C355 C -0.18486 0.27969 -0.19998
 C356 C -0.20216 0.30007 -0.16909
 C357 C -0.18467 0.33209 -0.15340
 C358 C -0.12970 0.37565 -0.15046
 C359 C -0.14590 0.39321 -0.11748
 C360 C -0.12498 0.42024 -0.09737
 C361 C -0.08780 0.42913 -0.10948
 C362 C -0.07291 0.41328 -0.14409
 C363 C -0.09361 0.38600 -0.16445
 C364 C -0.20072 0.35157 -0.12143
 C365 C -0.18165 0.38163 -0.10377
 C366 C -0.09721 0.33705 -0.21479
 C367 C -0.07802 0.36708 -0.19701
 H368 H -0.22777 0.34283 -0.10930
 H369 H -0.19447 0.39511 -0.07842
 H370 H -0.08373 0.32261 -0.23923
 H371 H -0.05026 0.37478 -0.20816
 H372 H -0.13679 0.27756 -0.23996
 H373 H -0.22872 0.29045 -0.15652
 H374 H -0.13658 0.43241 -0.07075
 H375 H -0.04417 0.41970 -0.15333
 C376 C 0.11323 0.69844 -0.09129
 C377 C 0.09584 0.73184 -0.10484
 C378 C 0.11847 0.76110 -0.11943
 C379 C 0.15820 0.75735 -0.12025
 C380 C 0.17538 0.72457 -0.10467
 C381 C 0.15290 0.69462 -0.09071
 C382 C 0.08939 0.66619 -0.07931
 C383 C 0.10663 0.63178 -0.06823
 C384 C 0.08373 0.60032 -0.05963
 C385 C 0.04396 0.60358 -0.06144
 C386 C 0.02726 0.63875 -0.07115
 C387 C 0.04979 0.66992 -0.08072
 C388 C 0.16912 0.66032 -0.07780
 C389 C 0.14639 0.62938 -0.06691
 C390 C 0.05612 0.73477 -0.10494
 C391 C 0.03347 0.70439 -0.09284
 H392 H 0.19966 0.65700 -0.07705
 H393 H 0.16007 0.60318 -0.05798
 H394 H 0.04243 0.76052 -0.11510
 H395 H 0.00292 0.70758 -0.09392
 H396 H 0.10517 0.78641 -0.13118
 H397 H 0.20599 0.72146 -0.10559
 H398 H 0.09671 0.57342 -0.05171
 H399 H -0.00332 0.64151 -0.07262
 C400 C -0.15906 0.64003 0.16085
 C401 C -0.14184 0.65423 0.19423
 C402 C -0.15885 0.68495 0.21427
 C403 C -0.19265 0.70163 0.20085
 C404 C -0.21040 0.68568 0.16838
 C405 C -0.19350 0.65527 0.14801
 C406 C -0.13952 0.61029 0.13757
 C407 C -0.15543 0.59810 0.10270
 C408 C -0.13479 0.57294 0.07856
 C409 C -0.09834 0.56040 0.08896
 C410 C -0.08393 0.57098 0.12523
 C411 C -0.10412 0.59643 0.14934
 C412 C -0.20949 0.64102 0.11400
 C413 C -0.19070 0.61298 0.09164
 C414 C -0.10710 0.63852 0.20589
 C415 C -0.08859 0.61004 0.18386
 H416 H -0.23617 0.65248 0.10392
 H417 H -0.20339 0.60368 0.06494
 H418 H -0.09362 0.64903 0.23169
 H419 H -0.06132 0.59946 0.19327
 H420 H -0.14499 0.69676 0.23927
 H421 H -0.23650 0.69799 0.15774
 H422 H -0.14611 0.56494 0.05075
 H423 H -0.05588 0.56155 0.13352
 C424 C 1.16323 0.15171 0.65453
 C425 C 1.19977 0.14037 0.66553
 C426 C 1.21710 0.15918 0.69627
 C427 C 1.19804 0.18908 0.71623
 C428 C 1.16214 0.20132 0.70316
 C429 C 1.14440 0.18233 0.67287
 C430 C 1.14348 0.12977 0.62473
 C431 C 1.10591 0.13944 0.61570
 C432 C 1.08597 0.11620 0.59021
 C433 C 1.10342 0.08347 0.57402
 C434 C 1.14181 0.07551 0.58168
 C435 C 1.16178 0.09820 0.60750
 C436 C 1.10747 0.19229 0.66176
 C437 C 1.08847 0.17109 0.63377
 C438 C 1.21765 0.10944 0.64660
 C439 C 1.19900 0.08876 0.61797
 H440 H 1.09270 0.21599 0.67565
 H441 H 1.05960 0.17900 0.62690
 H442 H 1.24594 0.10056 0.65462
 H443 H 1.21343 0.06450 0.60476
 H444 H 1.24485 0.14957 0.70536
 H445 H 1.14697 0.22442 0.71767
 H446 H 1.05647 0.12255 0.58443
 H447 H 1.15549 0.05033 0.56946
 C448 C 0.87960 -0.14219 0.67106
 C449 C 0.85114 -0.12276 0.69232
 C450 C 0.82608 -0.14339 0.71573
 C451 C 0.83020 -0.18320 0.71961
 C452 C 0.85919 -0.20224 0.69802
 C453 C 0.88352 -0.18188 0.67319
 C454 C 0.90577 -0.12047 0.64607
 C455 C 0.93316 -0.13985 0.62314
 C456 C 0.95686 -0.11889 0.59806
 C457 C 0.95397 -0.07895 0.59743
 C458 C 0.92726 -0.06012 0.62158
 C459 C 0.90253 -0.08068 0.64524
 C460 C 0.91175 -0.20030 0.65050
 C461 C 0.93586 -0.17969 0.62558
 C462 C 0.84854 -0.08293 0.69025
 C463 C 0.87406 -0.06219 0.66736
 H464 H 0.91503 -0.23095 0.65174
 H465 H 0.95688 -0.19507 0.60825
 H466 H 0.82678 -0.06763 0.70669
 H467 H 0.87120 -0.03147 0.66663
 H468 H 0.80431 -0.12798 0.73209
 H469 H 0.86271 -0.23283 0.70020
 H470 H 0.97729 -0.13336 0.57922
 H471 H 0.92449 -0.02937 0.62054
 C472 C 1.13427 -0.15211 0.32007
 C473 C 1.11070 -0.17236 0.29525
 C474 C 1.12582 -0.18691 0.26030
 C475 C 1.16388 -0.17976 0.24919
 C476 C 1.18720 -0.15998 0.27509
 C477 C 1.17263 -0.14640 0.31057
 C478 C 1.11803 -0.13481 0.35571
 C479 C 1.14149 -0.11373 0.37994
 C480 C 1.12544 -0.09458 0.41190
 C481 C 1.08593 -0.09491 0.41879
 C482 C 1.06300 -0.11757 0.39522
 C483 C 1.07897 -0.13770 0.36362
 C484 C 1.19543 -0.12613 0.33620
 C485 C 1.18017 -0.11026 0.37043
 C486 C 1.07210 -0.17631 0.30514
 C487 C 1.05643 -0.15901 0.33858
 H488 H 1.22516 -0.12182 0.32935
 H489 H 1.19854 -0.09406 0.38896
 H490 H 1.05359 -0.19192 0.28625
 H491 H 1.02630 -0.16167 0.34444
 H492 H 1.10730 -0.20202 0.24099
 H493 H 1.21662 -0.15464 0.26758
 H494 H 1.14339 -0.07702 0.42959
 H495 H 1.03262 -0.11786 0.40014
 C496 C 0.87216 0.13770 0.35435
 C497 C 0.83555 0.12648 0.34437
 C498 C 0.81686 0.14554 0.31458
 C499 C 0.83420 0.17619 0.29501
 C500 C 0.87026 0.18832 0.30700
 C501 C 0.88971 0.16854 0.33593
 C502 C 0.89320 0.11554 0.38328
 C503 C 0.93099 0.12475 0.39098
 C504 C 0.95202 0.10125 0.41564
 C505 C 0.93524 0.06910 0.43275
 C506 C 0.89670 0.06165 0.42647
 C507 C 0.87579 0.08427 0.40110
 C508 C 0.92699 0.17797 0.34570
 C509 C 0.94739 0.15624 0.37249
 C510 C 0.81877 0.09558 0.36352
 C511 C 0.83847 0.07496 0.39160
 H512 H 0.94091 0.20168 0.33167
 H513 H 0.97646 0.16376 0.37826
 H514 H 0.79041 0.08682 0.35625
 H515 H 0.82479 0.05085 0.40513
 H516 H 0.78898 0.13605 0.30641
 H517 H 0.88423 0.21171 0.29244
 H518 H 0.98172 0.10703 0.42028
 H519 H 0.88373 0.03665 0.43908
 C520 C 0.13688 0.32943 -0.13979
 C521 C 0.12538 0.31291 -0.17455
 C522 C 0.14903 0.28627 -0.19314
 C523 C 0.18401 0.27491 -0.17710
 C524 C 0.19513 0.29181 -0.14188
 C525 C 0.17168 0.31937 -0.12327
 C526 C 0.11170 0.35754 -0.12020
 C527 C 0.12312 0.37473 -0.08557
 C528 C 0.09875 0.40147 -0.06712
 C529 C 0.06294 0.40956 -0.08267
 C530 C 0.05200 0.39196 -0.11714
 C531 C 0.07638 0.36631 -0.13631
 C532 C 0.18206 0.33698 -0.08843
 C533 C 0.15831 0.36430 -0.07002
 C534 C 0.09012 0.32292 -0.19005
 C535 C 0.06591 0.34900 -0.17110
 H536 H 0.20878 0.32961 -0.07525
 H537 H 0.16743 0.37708 -0.04322
 H538 H 0.08099 0.31018 -0.21688
 H539 H 0.03875 0.35567 -0.18377
 H540 H 0.13944 0.27392 -0.21999
 H541 H 0.22181 0.28373 -0.12900
 H542 H 0.10696 0.41500 -0.04035
 H543 H 0.02438 0.39834 -0.12899
 C544 C -0.13850 0.33571 0.15806
 C545 C -0.17213 0.31985 0.14458
 C546 C -0.18768 0.28865 0.16386
 C547 C -0.16991 0.27286 0.19653
 C548 C -0.13680 0.29017 0.21051
 C549 C -0.12076 0.32131 0.19106
 C550 C -0.12057 0.36673 0.13602
 C551 C -0.08573 0.38126 0.14808
 C552 C -0.06701 0.40817 0.12481
 C553 C -0.08272 0.41956 0.08945
 C554 C -0.11862 0.40631 0.07902
 C555 C -0.13751 0.37966 0.10197
 C556 C -0.08668 0.33757 0.20315
 C557 C -0.06941 0.36696 0.18197
 C558 C -0.18900 0.33467 0.11127
 C559 C -0.17197 0.36412 0.09030
 H560 H -0.07274 0.32685 0.22865
 H561 H -0.04261 0.37793 0.19169
 H562 H -0.21511 0.32278 0.10077
 H563 H -0.18532 0.37404 0.06413
 H564 H -0.21336 0.27633 0.15274
 H565 H -0.12270 0.27874 0.23563
 H566 H -0.03916 0.41799 0.13269
 H567 H -0.13084 0.41514 0.05185
 C568 C -0.16082 0.64151 -0.16836
 C569 C -0.14510 0.65585 -0.20283
 C570 C -0.16129 0.68832 -0.21953
 C571 C -0.19278 0.70703 -0.20174
 C572 C -0.20958 0.69066 -0.16836
 C573 C -0.19331 0.65832 -0.15123
 C574 C -0.14141 0.60991 -0.14848
 C575 C -0.15549 0.59742 -0.11249
 C576 C -0.13444 0.57064 -0.09152
 C577 C -0.09917 0.55707 -0.10601
 C578 C -0.08691 0.56784 -0.14338
 C579 C -0.10762 0.59471 -0.16449
 C580 C -0.20768 0.64365 -0.11620
 C581 C -0.18904 0.61379 -0.09711
 C582 C -0.11230 0.63862 -0.21894
 C583 C -0.09389 0.60853 -0.20010
 H584 H -0.23284 0.65620 -0.10274
 H585 H -0.20033 0.60427 -0.06947
 H586 H -0.10006 0.64927 -0.24571
 H587 H -0.06796 0.59692 -0.21285
 H588 H -0.14818 0.69981 -0.24553
 H589 H -0.23394 0.70418 -0.15430
 H590 H -0.14417 0.56252 -0.06280
 H591 H -0.05986 0.55757 -0.15483
 C592 C 0.10505 0.69627 0.09116
 C593 C 0.08627 0.72480 0.11297
 C594 C 0.10766 0.75217 0.13201
 C595 C 0.14744 0.75148 0.12888
 C596 C 0.16583 0.72386 0.10540
 C597 C 0.14472 0.69565 0.08700
 C598 C 0.08284 0.66551 0.07392
 C599 C 0.10172 0.63537 0.05458
 C600 C 0.08059 0.60459 0.04108
 C601 C 0.04093 0.60465 0.04594
 C602 C 0.02235 0.63585 0.06377
 C603 C 0.04322 0.66599 0.07858
 C604 C 0.16249 0.66600 0.06586
 C605 C 0.14136 0.63622 0.05012
 C606 C 0.04656 0.72469 0.11632
 C607 C 0.02535 0.69590 0.09915
 H608 H 0.19306 0.66526 0.06231
 H609 H 0.15621 0.61342 0.03483
 H610 H 0.03179 0.74671 0.13284
 H611 H -0.00522 0.69651 0.10286
 H612 H 0.09346 0.77360 0.14986
 H613 H 0.19652 0.72311 0.10323
 H614 H 0.09482 0.58062 0.02707
 H615 H -0.00821 0.63574 0.06779
 C616 C 0.35020 1.14261 0.85209
 C617 C 0.33964 1.13356 0.81428
 C618 C 0.31054 1.15461 0.79703
 C619 C 0.29152 1.18431 0.81744
 C620 C 0.30314 1.19353 0.85512
 C621 C 0.33240 1.17268 0.87261
 C622 C 0.37978 1.11952 0.87093
 C623 C 0.38975 1.12812 0.90903
 C624 C 0.41690 1.10542 0.92727
 C625 C 0.43390 1.07401 0.90791
 C626 C 0.42407 1.06605 0.86946
 C627 C 0.39688 1.08877 0.85081
 C628 C 0.34364 1.18068 0.91056
 C629 C 0.37186 1.15881 0.92844
 C630 C 0.35778 1.10304 0.79478
 C631 C 0.38586 1.08100 0.81274
 H632 H 0.33024 1.20378 0.92674
 H633 H 0.37941 1.16570 0.95789
 H634 H 0.34986 1.09580 0.76552
 H635 H 0.39877 1.05747 0.79682
 H636 H 0.30214 1.14711 0.76799
 H637 H 0.28885 1.21619 0.87119
 H638 H 0.42435 1.11194 0.95685
 H639 H 0.43688 1.04187 0.85446
 C640 C 0.31919 0.87621 1.11961
 C641 C 0.32058 0.85985 1.15662
 C642 C 0.28966 0.83867 1.17019
 C643 C 0.25815 0.83299 1.14655
 C644 C 0.25785 0.84826 1.10895
 C645 C 0.28801 0.87060 1.09560
 C646 C 0.35050 0.90055 1.10619
 C647 C 0.34800 0.91882 1.07023
 C648 C 0.37713 0.94313 1.05830
 C649 C 0.40921 0.94802 1.08138
 C650 C 0.41163 0.92892 1.11702
 C651 C 0.38197 0.90568 1.12991
 C652 C 0.28708 0.88846 1.05929
 C653 C 0.31638 0.91251 1.04700
 C654 C 0.35251 0.86567 1.17955
 C655 C 0.38286 0.88790 1.16626
 H656 H 0.26318 0.88436 1.04052
 H657 H 0.31432 0.92617 1.01903
 H658 H 0.35400 0.85305 1.20806
 H659 H 0.40695 0.89170 1.18486
 H660 H 0.28987 0.82689 1.19915
 H661 H 0.23332 0.84440 1.09095
 H662 H 0.37520 0.95771 1.03079
 H663 H 0.43611 0.93292 1.13507
 C664 C 0.68856 1.12525 1.15320
 C665 C 0.71475 1.14697 1.13200
 C666 C 0.74110 1.16887 1.15194
 C667 C 0.74205 1.16823 1.19271
 C668 C 0.71578 1.14607 1.21352
 C669 C 0.68859 1.12489 1.19389
 C670 C 0.66070 1.10226 1.13239
 C671 C 0.63383 1.08140 1.15366
 C672 C 0.60698 1.06017 1.13380
 C673 C 0.60764 1.05882 1.09310
 C674 C 0.63516 1.07915 1.07207
 C675 C 0.66146 1.10155 1.09167
 C676 C 0.66152 1.10328 1.21409
 C677 C 0.63441 1.08213 1.19431
 C678 C 0.71434 1.14599 1.09131
 C679 C 0.68831 1.12346 1.07148
 H680 H 0.66117 1.10284 1.24546
 H681 H 0.61388 1.06601 1.21099
 H682 H 0.73450 1.16256 1.07463
 H683 H 0.68909 1.12336 1.04010
 H684 H 0.76158 1.18551 1.13572
 H685 H 0.71635 1.14558 1.24488
 H686 H 0.58589 1.04418 1.14991
 H687 H 0.63541 1.07825 1.04069
 C688 C 0.66669 0.86152 0.84851
 C689 C 0.67881 0.82677 0.86435
 C690 C 0.70705 0.80525 0.84488
 C691 C 0.72358 0.81859 0.81013
 C692 C 0.71055 0.85330 0.79444
 C693 C 0.68216 0.87486 0.81350
 C694 C 0.63800 0.88491 0.86954
 C695 C 0.62637 0.92001 0.85408
 C696 C 0.60014 0.94282 0.87498
 C697 C 0.58629 0.93095 0.91139
 C698 C 0.59775 0.89531 0.92603
 C699 C 0.62357 0.87219 0.90525
 C700 C 0.66946 0.90985 0.79863
 C701 C 0.64200 0.93201 0.81854
 C702 C 0.66304 0.81467 0.89978
 C703 C 0.63596 0.83704 0.91993
 H704 H 0.68114 0.92040 0.77156
 H705 H 0.63335 0.95901 0.80628
 H706 H 0.67209 0.78793 0.91233
 H707 H 0.62494 0.82692 0.94746
 H708 H 0.71685 0.77873 0.85735
 H709 H 0.72280 0.86385 0.76762
 H710 H 0.59156 0.97021 0.86359
 H711 H 0.58722 0.88593 0.95405
   
