data_POSCAR
  _audit_creation_date              2014-09-24
  _audit_creation_method            'ToBaCCo'
  _symmetry_space_group_name_H-M    'P1'
  _symmetry_Int_Tables_number       1
  _symmetry_cell_setting            triclinic
  loop_
  _symmetry_equiv_pos_as_xyz
 x,y,z
_cell_length_a 59.3295
_cell_length_b 59.2001
_cell_length_c 34.5932
_cell_angle_alpha 90.341900
_cell_angle_beta 89.702600
_cell_angle_gamma 89.574800
loop_
  _atom_site_label
  _atom_site_type_symbol
  _atom_site_fract_x
  _atom_site_fract_y
  _atom_site_fract_z
O1 O 0.01514 0.28139 -0.02451
 O2 O -0.03028 0.28072 0.04934
 O3 O 0.01393 0.28440 0.05095
 O4 O -0.02903 0.27855 -0.02529
 O5 O -0.02584 0.24146 -0.02170
 O6 O 0.01672 0.24728 0.05419
 O7 O -0.02666 0.24372 0.05289
 O8 O 0.01763 0.24426 -0.02094
 Cu9 Cu -0.00775 0.28504 0.01231
 Cu10 Cu -0.00415 0.24051 0.01646
 C11 C 0.02403 0.26279 -0.03543
 C12 C -0.03645 0.26191 0.06337
 C13 C 0.02263 0.26677 0.06563
 C14 C -0.03496 0.25894 -0.03610
 O15 O 0.48090 0.77527 0.50399
 O16 O 0.52750 0.76799 0.43353
 O17 O 0.48343 0.76825 0.42973
 O18 O 0.52526 0.77426 0.50797
 O19 O 0.52456 0.73739 0.51671
 O20 O 0.48303 0.73145 0.43931
 O21 O 0.52658 0.73114 0.44246
 O22 O 0.48084 0.73844 0.51348
 Cu23 Cu 0.50431 0.77517 0.46797
 Cu24 Cu 0.50368 0.73096 0.47898
 C25 C 0.47285 0.75800 0.52063
 C26 C 0.53497 0.74827 0.42597
 C27 C 0.47607 0.74873 0.42125
 C28 C 0.53225 0.75671 0.52539
 O29 O 1.03155 0.71359 -0.00427
 O30 O 0.98303 0.71497 -0.07099
 O31 O 1.02726 0.71714 -0.07893
 O32 O 0.98738 0.71265 0.00331
 O33 O 0.98806 0.74974 0.00993
 O34 O 1.02410 0.75421 -0.07598
 O35 O 0.98085 0.75194 -0.06327
 O36 O 1.03135 0.75080 -0.00268
 Cu37 Cu 1.00749 0.71083 -0.03827
 Cu38 Cu 1.00600 0.75535 -0.03256
 C39 C 1.04019 0.73207 0.00706
 C40 C 0.97312 0.73370 -0.07721
 C41 C 1.03258 0.73657 -0.09146
 C42 C 0.98085 0.73060 0.02050
 O43 O 0.51518 0.21482 0.54388
 O44 O 0.46966 0.21214 0.47095
 O45 O 0.51421 0.21022 0.46870
 O46 O 0.47085 0.21581 0.54552
 O47 O 0.47150 0.25283 0.53866
 O48 O 0.51538 0.24734 0.46443
 O49 O 0.47135 0.24917 0.46506
 O50 O 0.51508 0.25196 0.53895
 Cu51 Cu 0.49250 0.20947 0.50769
 Cu52 Cu 0.49354 0.25398 0.50102
 C53 C 0.52277 0.23401 0.55396
 C54 C 0.46227 0.23046 0.45653
 C55 C 0.52258 0.22796 0.45414
 C56 C 0.46334 0.23535 0.55437
 O57 O 0.71500 0.01556 -0.02733
 O58 O 0.71762 -0.03231 0.04075
 O59 O 0.71455 0.01192 0.04781
 O60 O 0.71788 -0.02835 -0.03415
 O61 O 0.75497 -0.02595 -0.03332
 O62 O 0.75168 0.01369 0.04836
 O63 O 0.75465 -0.02988 0.04135
 O64 O 0.75212 0.01742 -0.02658
 Cu65 Cu 0.71251 -0.00849 0.00684
 Cu66 Cu 0.75703 -0.00594 0.00762
 C67 C 0.73323 0.02455 -0.03878
 C68 C 0.73667 -0.03947 0.05244
 C69 C 0.73264 0.01975 0.06195
 C70 C 0.73708 -0.03399 -0.04774
 O71 O 0.22181 0.53725 0.47273
 O72 O 0.21568 0.49439 0.54958
 O73 O 0.21703 0.53870 0.54733
 O74 O 0.22050 0.49285 0.47453
 O75 O 0.25746 0.49202 0.48110
 O76 O 0.25394 0.53701 0.55445
 O77 O 0.25265 0.49339 0.55597
 O78 O 0.25867 0.53598 0.48050
 Cu79 Cu 0.21502 0.51584 0.51032
 Cu80 Cu 0.25935 0.51436 0.51856
 C81 C 0.24140 0.54430 0.46422
 C82 C 0.23323 0.48662 0.56591
 C83 C 0.23498 0.54585 0.56300
 C84 C 0.23965 0.48457 0.46545
 O85 O 0.27977 1.03654 0.04826
 O86 O 0.28072 0.99350 -0.02922
 O87 O 0.27784 1.03810 -0.02636
 O88 O 0.28091 0.99209 0.04596
 O89 O 0.24374 0.99116 0.04736
 O90 O 0.24079 1.03626 -0.02384
 O91 O 0.24358 0.99229 -0.02766
 O92 O 0.24270 1.03474 0.05046
 Cu93 Cu 0.28356 1.01513 0.00936
 Cu94 Cu 0.23904 1.01340 0.01159
 C95 C 0.26104 1.04327 0.06233
 C96 C 0.26232 0.98534 -0.04136
 C97 C 0.25857 1.04551 -0.03653
 C98 C 0.26264 0.98381 0.05889
 O99 O 0.78934 0.51444 0.53869
 O100 O 0.79428 0.46895 0.46528
 O101 O 0.79472 0.51356 0.46413
 O102 O 0.78820 0.46983 0.53934
 O103 O 0.75127 0.47149 0.53213
 O104 O 0.75786 0.51368 0.45594
 O105 O 0.75731 0.46959 0.45871
 O106 O 0.75247 0.51503 0.53047
 Cu107 Cu 0.79538 0.49168 0.50261
 Cu108 Cu 0.75109 0.49265 0.49331
 C109 C 0.76999 0.52256 0.54685
 C110 C 0.77642 0.46095 0.45056
 C111 C 0.77723 0.52123 0.44749
 C112 C 0.76855 0.46301 0.54812
 C113 C 0.19598 0.21716 0.24201
 C114 C 0.21857 0.21077 0.24652
 C115 C 0.23376 0.22631 0.26241
 C116 C 0.22631 0.24774 0.27584
 C117 C 0.20328 0.25348 0.27149
 C118 C 0.18824 0.23846 0.25394
 C119 C 0.24241 0.26392 0.29446
 C120 C 0.23802 0.28743 0.29479
 C121 C 0.25252 0.30250 0.31359
 C122 C 0.27228 0.29413 0.33044
 C123 C 0.27730 0.27096 0.33021
 C124 C 0.26213 0.25596 0.31284
 H125 H 0.18447 0.20573 0.22772
 H126 H 0.25131 0.22148 0.26424
 H127 H 0.19667 0.26942 0.28211
 H128 H 0.22344 0.29431 0.28028
 H129 H 0.28367 0.30574 0.34449
 H130 H 0.26558 0.23806 0.31489
 C131 C 0.79984 0.77431 0.18721
 C132 C 0.77953 0.78310 0.20185
 C133 C 0.76447 0.76857 0.22057
 C134 C 0.76877 0.74507 0.22275
 C135 C 0.78913 0.73666 0.20654
 C136 C 0.80499 0.75126 0.18999
 C137 C 0.75214 0.72951 0.24174
 C138 C 0.75895 0.70820 0.25607
 C139 C 0.74330 0.69342 0.27268
 C140 C 0.72093 0.70057 0.27760
 C141 C 0.71373 0.72180 0.26479
 C142 C 0.72919 0.73582 0.24583
 H143 H 0.81146 0.78535 0.17232
 H144 H 0.74957 0.77595 0.23370
 H145 H 0.79298 0.71881 0.20667
 H146 H 0.77634 0.70276 0.25440
 H147 H 0.70923 0.68972 0.29270
 H148 H 0.72296 0.75151 0.23406
 C149 C 0.78976 0.19089 0.23737
 C150 C 0.79633 0.21337 0.24215
 C151 C 0.78186 0.22847 0.26169
 C152 C 0.76160 0.22102 0.27904
 C153 C 0.75565 0.19807 0.27420
 C154 C 0.76940 0.18317 0.25278
 C155 C 0.74710 0.23706 0.30243
 C156 C 0.72409 0.23243 0.31000
 C157 C 0.71095 0.24704 0.33317
 C158 C 0.72031 0.26732 0.34612
 C159 C 0.74297 0.27234 0.33949
 C160 C 0.75635 0.25701 0.31841
 H161 H 0.80029 0.17944 0.22053
 H162 H 0.78681 0.24595 0.26347
 H163 H 0.74065 0.19131 0.28744
 H164 H 0.71625 0.21741 0.29871
 H165 H 0.70979 0.27936 0.36173
 H166 H 0.77409 0.26064 0.31573
 C167 C 0.22556 0.78931 0.15958
 C168 C 0.21940 0.76644 0.15922
 C169 C 0.23273 0.75075 0.17946
 C170 C 0.25201 0.75780 0.19979
 C171 C 0.25777 0.78085 0.19947
 C172 C 0.24485 0.79658 0.17903
 C173 C 0.26631 0.74135 0.22128
 C174 C 0.28973 0.74478 0.22414
 C175 C 0.30321 0.73076 0.24707
 C176 C 0.29328 0.71242 0.26581
 C177 C 0.27003 0.70842 0.26322
 C178 C 0.25662 0.72293 0.24080
 H179 H 0.21545 0.80158 0.14415
 H180 H 0.22843 0.73302 0.17842
 H181 H 0.27216 0.78681 0.21561
 H182 H 0.29761 0.75853 0.20875
 H183 H 0.30363 0.70154 0.28358
 H184 H 0.23857 0.72043 0.24006
 C185 C 0.71084 0.27594 0.69299
 C186 C 0.70258 0.25574 0.70834
 C187 C 0.71699 0.24200 0.73029
 C188 C 0.73991 0.24757 0.73535
 C189 C 0.74786 0.26769 0.71840
 C190 C 0.73332 0.28225 0.69836
 C191 C 0.75547 0.23252 0.75800
 C192 C 0.77530 0.24121 0.77485
 C193 C 0.79054 0.22706 0.79420
 C194 C 0.78526 0.20426 0.79899
 C195 C 0.76537 0.19530 0.78393
 C196 C 0.75081 0.20930 0.76284
 H197 H 0.69989 0.28651 0.67570
 H198 H 0.70998 0.22718 0.74371
 H199 H 0.76535 0.27236 0.72074
 H200 H 0.77924 0.25894 0.77297
 H201 H 0.79638 0.19354 0.81569
 H202 H 0.73615 0.20171 0.74985
 C203 C 0.28961 0.73488 0.68979
 C204 C 0.29461 0.75798 0.68925
 C205 C 0.27823 0.77367 0.70202
 C206 C 0.25738 0.76631 0.71722
 C207 C 0.25325 0.74285 0.71856
 C208 C 0.26894 0.72716 0.70391
 C209 C 0.23988 0.78277 0.73173
 C210 C 0.21685 0.77691 0.73159
 C211 C 0.20041 0.79119 0.74801
 C212 C 0.20688 0.81231 0.76243
 C213 C 0.22946 0.81914 0.76137
 C214 C 0.24595 0.80409 0.74684
 H215 H 0.30164 0.72287 0.67774
 H216 H 0.28190 0.79149 0.70002
 H217 H 0.23790 0.73648 0.73129
 H218 H 0.21144 0.76117 0.71878
 H219 H 0.19439 0.82318 0.77612
 H220 H 0.26344 0.80905 0.74774
 C221 C 0.28409 0.30888 0.72008
 C222 C 0.26479 0.31716 0.73896
 C223 C 0.25092 0.30216 0.75908
 C224 C 0.25579 0.27879 0.75947
 C225 C 0.27498 0.27078 0.73919
 C226 C 0.28923 0.28573 0.71959
 C227 C 0.24064 0.26273 0.78006
 C228 C 0.24930 0.24264 0.79616
 C229 C 0.23509 0.22723 0.81484
 C230 C 0.21203 0.23242 0.81830
 C231 C 0.20314 0.25264 0.80377
 C232 C 0.21740 0.26743 0.78398
 H233 H 0.29486 0.32055 0.70476
 H234 H 0.23646 0.30894 0.77457
 H235 H 0.27850 0.25284 0.73738
 H236 H 0.26722 0.23917 0.79509
 H237 H 0.20090 0.22082 0.83293
 H238 H 0.21015 0.28246 0.77128
 C239 C 0.71222 0.70797 0.69224
 C240 C 0.73507 0.70321 0.69841
 C241 C 0.74857 0.71955 0.71633
 C242 C 0.73918 0.74006 0.73026
 C243 C 0.71594 0.74412 0.72434
 C244 C 0.70257 0.72842 0.70463
 C245 C 0.75347 0.75699 0.75114
 C246 C 0.74723 0.78006 0.75254
 C247 C 0.75997 0.79576 0.77344
 C248 C 0.77983 0.78861 0.79146
 C249 C 0.78664 0.76592 0.79030
 C250 C 0.77325 0.75017 0.77067
 H251 H 0.70201 0.69591 0.67658
 H252 H 0.76635 0.71599 0.71949
 H253 H 0.70787 0.75925 0.73549
 H254 H 0.73253 0.78615 0.73736
 H255 H 0.78982 0.80076 0.80727
 H256 H 0.77808 0.73256 0.77193
 C257 C 0.28011 0.07256 0.10012
 C258 C 0.27892 0.09140 0.12475
 C259 C 0.25826 0.09840 0.14057
 C260 C 0.23876 0.08603 0.13212
 C261 C 0.23980 0.06750 0.10705
 C262 C 0.26042 0.06069 0.09014
 N263 N 0.25704 0.11886 0.16287
 N264 N 0.23934 0.12404 0.18197
 C265 C 0.23642 0.14511 0.20192
 C266 C 0.21720 0.14810 0.22490
 C267 C 0.21204 0.16920 0.24085
 C268 C 0.22594 0.18787 0.23369
 C269 C 0.24586 0.18463 0.21205
 C270 C 0.25109 0.16336 0.19624
 H271 H 0.29632 0.06789 0.08782
 H272 H 0.29408 0.10081 0.13096
 H273 H 0.22254 0.09113 0.14385
 H274 H 0.22428 0.05879 0.10043
 H275 H 0.20580 0.13415 0.22948
 H276 H 0.19681 0.17107 0.25801
 H277 H 0.25681 0.19872 0.20585
 H278 H 0.26600 0.16143 0.17833
 C279 C 0.74689 0.54489 0.59387
 C280 C 0.74335 0.56412 0.61662
 C281 C 0.76015 0.58042 0.62001
 C282 C 0.78117 0.57673 0.60199
 C283 C 0.78489 0.55721 0.57968
 C284 C 0.76753 0.54144 0.57461
 N285 N 0.75468 0.60108 0.63965
 N286 N 0.76738 0.61831 0.63944
 C287 C 0.76034 0.63903 0.65763
 C288 C 0.77322 0.65854 0.65258
 C289 C 0.76541 0.67943 0.66665
 C290 C 0.74454 0.68104 0.68601
 C291 C 0.73215 0.66126 0.69237
 C292 C 0.73991 0.64049 0.67828
 H293 H 0.73328 0.53294 0.59063
 H294 H 0.72711 0.56680 0.63042
 H295 H 0.79441 0.58913 0.60433
 H296 H 0.80092 0.55496 0.56496
 H297 H 0.78895 0.65767 0.63663
 H298 H 0.77527 0.69440 0.66118
 H299 H 0.71625 0.66190 0.70787
 H300 H 0.72969 0.62567 0.68288
 C301 C 0.71869 0.92936 0.08714
 C302 C 0.72054 0.90962 0.10906
 C303 C 0.74162 0.90203 0.12178
 C304 C 0.76088 0.91470 0.11301
 C305 C 0.75913 0.93424 0.09080
 C306 C 0.73806 0.94171 0.07699
 N307 N 0.74335 0.88073 0.14114
 N308 N 0.76194 0.87387 0.15529
 C309 C 0.76478 0.85195 0.17196
 C310 C 0.78588 0.84608 0.18687
 C311 C 0.79035 0.82396 0.19857
 C312 C 0.77373 0.80725 0.19540
 C313 C 0.75215 0.81347 0.18234
 C314 C 0.74770 0.83565 0.17064
 H315 H 0.70216 0.93452 0.07723
 H316 H 0.70557 0.89998 0.11552
 H317 H 0.77739 0.90918 0.12237
 H318 H 0.77446 0.94326 0.08397
 H319 H 0.79917 0.85850 0.18808
 H320 H 0.80702 0.81977 0.20904
 H321 H 0.73907 0.80093 0.17926
 H322 H 0.73126 0.83979 0.15912
 C323 C 0.21175 0.45634 0.60059
 C324 C 0.21126 0.43823 0.62647
 C325 C 0.23028 0.43286 0.64852
 C326 C 0.24957 0.44638 0.64550
 C327 C 0.25014 0.46429 0.61952
 C328 C 0.23143 0.46917 0.59617
 N329 N 0.23056 0.41247 0.67069
 N330 N 0.24771 0.40688 0.69053
 C331 C 0.24975 0.38559 0.70961
 C332 C 0.27033 0.38014 0.72690
 C333 C 0.27473 0.35811 0.73906
 C334 C 0.25847 0.34122 0.73439
 C335 C 0.23715 0.34709 0.71984
 C336 C 0.23284 0.36913 0.70729
 H337 H 0.19708 0.45972 0.58297
 H338 H 0.19632 0.42789 0.62837
 H339 H 0.26452 0.44262 0.66213
 H340 H 0.26549 0.47399 0.61706
 H341 H 0.28348 0.39267 0.72880
 H342 H 0.29124 0.35398 0.75038
 H343 H 0.22442 0.33430 0.71568
 H344 H 0.21679 0.37297 0.69401
 C345 C 0.93207 0.28002 0.09838
 C346 C 0.91277 0.27809 0.12165
 C347 C 0.90680 0.25718 0.13722
 C348 C 0.92065 0.23827 0.12999
 C349 C 0.93964 0.24005 0.10643
 C350 C 0.94547 0.26086 0.08969
 N351 N 0.88607 0.25500 0.15833
 N352 N 0.88145 0.23668 0.17562
 C353 C 0.86050 0.23259 0.19484
 C354 C 0.85818 0.21241 0.21513
 C355 C 0.83749 0.20654 0.23125
 C356 C 0.81855 0.22072 0.22704
 C357 C 0.82104 0.24137 0.20759
 C358 C 0.84190 0.24729 0.19154
 H359 H 0.93599 0.29634 0.08615
 H360 H 0.90224 0.29281 0.12697
 H361 H 0.91644 0.22188 0.14161
 H362 H 0.94952 0.22490 0.10086
 H363 H 0.87241 0.20098 0.21781
 H364 H 0.83623 0.19075 0.24673
 H365 H 0.80673 0.25256 0.20367
 H366 H 0.84332 0.26292 0.17567
 C367 C 0.44916 0.74302 0.57437
 C368 C 0.43023 0.74424 0.59840
 C369 C 0.41532 0.76258 0.59624
 C370 C 0.42000 0.78029 0.57061
 C371 C 0.43922 0.77926 0.54686
 C372 C 0.45374 0.76037 0.54802
 N373 N 0.39511 0.76197 0.61900
 N374 N 0.37899 0.77614 0.61573
 C375 C 0.35869 0.77374 0.63804
 C376 C 0.33963 0.78679 0.62898
 C377 C 0.31884 0.78255 0.64694
 C378 C 0.31692 0.76518 0.67428
 C379 C 0.33639 0.75312 0.68496
 C380 C 0.35702 0.75729 0.66700
 H381 H 0.46010 0.72833 0.57610
 H382 H 0.42678 0.73050 0.61805
 H383 H 0.40869 0.79465 0.56851
 H384 H 0.44230 0.79285 0.52673
 H385 H 0.34066 0.79954 0.60675
 H386 H 0.30410 0.79204 0.63807
 H387 H 0.33548 0.73992 0.70645
 H388 H 0.37150 0.74714 0.67497
 C389 C 0.06976 0.71169 0.04249
 C390 C 0.09021 0.71190 0.06264
 C391 C 0.10147 0.73226 0.06912
 C392 C 0.09152 0.75257 0.05695
 C393 C 0.07092 0.75249 0.03775
 C394 C 0.05994 0.73202 0.02939
 N395 N 0.12311 0.73222 0.08736
 N396 N 0.13693 0.74806 0.08052
 C397 C 0.15840 0.75013 0.09875
 C398 C 0.17383 0.76527 0.08305
 C399 C 0.19409 0.76965 0.10174
 C400 C 0.19914 0.75933 0.13721
 C401 C 0.18398 0.74339 0.15227
 C402 C 0.16374 0.73876 0.13309
 H403 H 0.06180 0.69560 0.03692
 H404 H 0.09763 0.69612 0.07212
 H405 H 0.09975 0.76855 0.06220
 H406 H 0.06399 0.76854 0.02846
 H407 H 0.16992 0.77404 0.05649
 H408 H 0.20562 0.78152 0.08873
 H409 H 0.18731 0.73524 0.17961
 H410 H 0.15193 0.72705 0.14580
 C411 C 0.54559 0.25679 0.60010
 C412 C 0.56432 0.25948 0.62381
 C413 C 0.57911 0.24144 0.63021
 C414 C 0.57438 0.22017 0.61395
 C415 C 0.55542 0.21736 0.59042
 C416 C 0.54116 0.23583 0.58251
 N417 N 0.59954 0.24582 0.65070
 N418 N 0.61496 0.23105 0.65540
 C419 C 0.63587 0.23671 0.67356
 C420 C 0.65310 0.22047 0.67516
 C421 C 0.67459 0.22637 0.68819
 C422 C 0.67915 0.24868 0.69977
 C423 C 0.66149 0.26465 0.69996
 C424 C 0.64007 0.25875 0.68697
 H425 H 0.53484 0.27130 0.59480
 H426 H 0.56780 0.27594 0.63616
 H427 H 0.58563 0.20596 0.61851
 H428 H 0.55245 0.20104 0.57718
 H429 H 0.65013 0.20346 0.66484
 H430 H 0.68789 0.21375 0.68744
 H431 H 0.66441 0.28187 0.70930
 H432 H 0.62702 0.27161 0.68629
 C433 C 0.71269 0.05569 0.92664
 C434 C 0.71277 0.07439 0.90201
 C435 C 0.73271 0.08103 0.88360
 C436 C 0.75259 0.06851 0.88970
 C437 C 0.75259 0.05004 0.91455
 C438 C 0.73271 0.04354 0.93360
 N439 N 0.73288 0.10127 0.86103
 N440 N 0.75034 0.10702 0.84205
 C441 C 0.75206 0.12798 0.82185
 C442 C 0.77246 0.13300 0.80354
 C443 C 0.77630 0.15456 0.78892
 C444 C 0.75967 0.17149 0.79231
 C445 C 0.73860 0.16602 0.80835
 C446 C 0.73483 0.14440 0.82321
 H447 H 0.69712 0.05109 0.94095
 H448 H 0.69736 0.08396 0.89775
 H449 H 0.76827 0.07331 0.87602
 H450 H 0.76825 0.04094 0.91909
 H451 H 0.78585 0.12047 0.80228
 H452 H 0.79260 0.15830 0.77638
 H453 H 0.72559 0.17883 0.81153
 H454 H 0.71890 0.14089 0.83727
 C455 C 0.26566 0.57320 0.43300
 C456 C 0.26851 0.59215 0.40991
 C457 C 0.25041 0.60117 0.38933
 C458 C 0.22924 0.59077 0.39152
 C459 C 0.22624 0.57183 0.41519
 C460 C 0.24442 0.56301 0.43648
 N461 N 0.25409 0.62155 0.36834
 N462 N 0.24041 0.62985 0.34394
 C463 C 0.24573 0.65079 0.32549
 C464 C 0.23663 0.65596 0.28926
 C465 C 0.24384 0.67519 0.26925
 C466 C 0.26005 0.68957 0.28557
 C467 C 0.26787 0.68507 0.32304
 C468 C 0.26096 0.66583 0.34262
 H469 H 0.28001 0.56696 0.44905
 H470 H 0.28487 0.60011 0.40847
 H471 H 0.21499 0.59761 0.37592
 H472 H 0.20968 0.56436 0.41734
 H473 H 0.22476 0.64459 0.27582
 H474 H 0.23747 0.67827 0.24047
 H475 H 0.27977 0.69621 0.33700
 H476 H 0.26781 0.66251 0.37099
 C477 C 0.28233 0.95414 0.92272
 C478 C 0.28200 0.93543 0.89782
 C479 C 0.26217 0.92949 0.87865
 C480 C 0.24266 0.94278 0.88418
 C481 C 0.24288 0.96128 0.90946
 C482 C 0.26264 0.96701 0.92934
 N483 N 0.26179 0.90925 0.85569
 N484 N 0.24506 0.90457 0.83428
 C485 C 0.24329 0.88381 0.81309
 C486 C 0.22517 0.88118 0.78787
 C487 C 0.22133 0.86044 0.76980
 C488 C 0.23546 0.84176 0.77698
 C489 C 0.25424 0.84466 0.80114
 C490 C 0.25814 0.86555 0.81908
 H491 H 0.29778 0.95807 0.93780
 H492 H 0.29712 0.92529 0.89396
 H493 H 0.22707 0.93850 0.86986
 H494 H 0.22747 0.97089 0.91391
 H495 H 0.21363 0.89512 0.78297
 H496 H 0.20696 0.85887 0.75081
 H497 H 0.26531 0.83056 0.80750
 H498 H 0.27222 0.86718 0.83865
 C499 C 0.79808 0.43087 0.41387
 C500 C 0.79873 0.40949 0.39614
 C501 C 0.77883 0.39721 0.39146
 C502 C 0.75813 0.40718 0.40182
 C503 C 0.75740 0.42859 0.41864
 C504 C 0.77739 0.44037 0.42613
 N505 N 0.77962 0.37418 0.37864
 N506 N 0.76580 0.36025 0.39324
 C507 C 0.76369 0.33723 0.38130
 C508 C 0.75113 0.32288 0.40480
 C509 C 0.74565 0.30126 0.39212
 C510 C 0.75227 0.29371 0.35514
 C511 C 0.76600 0.30768 0.33231
 C512 C 0.77172 0.32937 0.34535
 H513 H 0.81375 0.43959 0.41919
 H514 H 0.81480 0.40202 0.38806
 H515 H 0.74254 0.39809 0.39783
 H516 H 0.74118 0.43537 0.42759
 H517 H 0.74492 0.32879 0.43260
 H518 H 0.73550 0.29071 0.41072
 H519 H 0.77127 0.30232 0.30365
 H520 H 0.78136 0.34033 0.32667
 C521 C 0.04797 0.24192 0.91664
 C522 C 0.06642 0.24068 0.89158
 C523 C 0.07967 0.25969 0.88491
 C524 C 0.07365 0.28041 0.90234
 C525 C 0.05496 0.28175 0.92721
 C526 C 0.04227 0.26235 0.93529
 N527 N 0.10001 0.25684 0.86295
 N528 N 0.11426 0.27255 0.85821
 C529 C 0.13528 0.26838 0.83874
 C530 C 0.15167 0.28526 0.83860
 C531 C 0.17350 0.28052 0.82518
 C532 C 0.17923 0.25876 0.81166
 C533 C 0.16234 0.24228 0.80957
 C534 C 0.14058 0.24702 0.82304
 H535 H 0.03842 0.22673 0.92201
 H536 H 0.07092 0.22463 0.87835
 H537 H 0.08370 0.29534 0.89760
 H538 H 0.05095 0.29770 0.94120
 H539 H 0.14784 0.30177 0.85066
 H540 H 0.18620 0.29351 0.82739
 H541 H 0.16616 0.22550 0.79866
 H542 H 0.12817 0.23371 0.82250
 C543 C 0.55905 0.72336 0.38393
 C544 C 0.57772 0.71990 0.35983
 C545 C 0.59168 0.73790 0.34996
 C546 C 0.58632 0.75976 0.36341
 C547 C 0.56744 0.76331 0.38723
 C548 C 0.55386 0.74505 0.39830
 N549 N 0.61182 0.73316 0.32832
 N550 N 0.62677 0.74797 0.32162
 C551 C 0.64739 0.74224 0.30197
 C552 C 0.66493 0.75792 0.30133
 C553 C 0.68628 0.75169 0.28731
 C554 C 0.69035 0.72962 0.27351
 C555 C 0.67228 0.71440 0.27188
 C556 C 0.65104 0.72060 0.28612
 H557 H 0.54884 0.70898 0.39171
 H558 H 0.58170 0.70299 0.34968
 H559 H 0.59690 0.77395 0.35614
 H560 H 0.56388 0.78021 0.39789
 H561 H 0.66235 0.77465 0.31345
 H562 H 0.69986 0.76375 0.28924
 H563 H 0.67475 0.69744 0.26067
 H564 H 0.63769 0.70823 0.28585
 C565 C 0.94449 0.71573 0.87902
 C566 C 0.92338 0.71617 0.86097
 C567 C 0.90910 0.73497 0.86531
 C568 C 0.91655 0.75375 0.88658
 C569 C 0.93769 0.75351 0.90394
 C570 C 0.95177 0.73438 0.90092
 N571 N 0.88709 0.73486 0.84841
 N572 N 0.87196 0.74856 0.86052
 C573 C 0.84994 0.75036 0.84415
 C574 C 0.83410 0.76422 0.86287
 C575 C 0.81315 0.76838 0.84623
 C576 C 0.80773 0.75896 0.81008
 C577 C 0.82331 0.74424 0.79199
 C578 C 0.84432 0.73994 0.80892
 H579 H 0.95500 0.70077 0.87617
 H580 H 0.91791 0.70163 0.84445
 H581 H 0.90597 0.76862 0.88996
 H582 H 0.94273 0.76811 0.92071
 H583 H 0.83824 0.77224 0.89012
 H584 H 0.80134 0.77938 0.86131
 H585 H 0.81964 0.73684 0.76404
 H586 H 0.85639 0.72921 0.79391
 C587 C 0.43147 0.21042 0.42020
 C588 C 0.41036 0.21104 0.40205
 C589 C 0.39927 0.23172 0.39634
 C590 C 0.41017 0.25185 0.40640
 C591 C 0.43129 0.25130 0.42370
 C592 C 0.44190 0.23059 0.43196
 N593 N 0.37662 0.23229 0.38216
 N594 N 0.36356 0.24844 0.39236
 C595 C 0.34107 0.25144 0.37859
 C596 C 0.32730 0.26730 0.39742
 C597 C 0.30612 0.27275 0.38280
 C598 C 0.29845 0.26272 0.34840
 C599 C 0.31194 0.24602 0.33032
 C600 C 0.33313 0.24036 0.34538
 H601 H 0.43924 0.19421 0.42614
 H602 H 0.40220 0.19538 0.39418
 H603 H 0.40209 0.26805 0.40162
 H604 H 0.43881 0.26717 0.43224
 H605 H 0.33324 0.27586 0.42314
 H606 H 0.29595 0.28524 0.39800
 H607 H 0.30656 0.23809 0.30368
 H608 H 0.34363 0.22811 0.33028
 C609 C 0.75959 0.94646 0.90063
 C610 C 0.76205 0.92967 0.87242
 C611 C 0.74401 0.91565 0.86311
 C612 C 0.72299 0.91923 0.88119
 C613 C 0.72043 0.93620 0.90928
 C614 C 0.73888 0.94962 0.91993
 N615 N 0.74821 0.89671 0.83814
 N616 N 0.73337 0.88196 0.83050
 C617 C 0.73891 0.86203 0.80860
 C618 C 0.72313 0.84463 0.80619
 C619 C 0.72951 0.82335 0.79187
 C620 C 0.75184 0.81925 0.77976
 C621 C 0.76709 0.83730 0.77920
 C622 C 0.76072 0.85849 0.79356
 H623 H 0.77407 0.95663 0.90794
 H624 H 0.77833 0.92701 0.85877
 H625 H 0.70881 0.90852 0.87450
 H626 H 0.70427 0.93826 0.92362
 H627 H 0.70628 0.84712 0.81769
 H628 H 0.71745 0.80973 0.79286
 H629 H 0.78430 0.83469 0.76944
 H630 H 0.77319 0.87173 0.79470
 C631 C 0.26249 0.45911 0.42227
 C632 C 0.26450 0.44018 0.39818
 C633 C 0.24556 0.42738 0.38883
 C634 C 0.22426 0.43426 0.40267
 C635 C 0.22217 0.45337 0.42653
 C636 C 0.24135 0.46572 0.43723
 N637 N 0.24881 0.40668 0.36782
 N638 N 0.23292 0.39286 0.36130
 C639 C 0.23710 0.37146 0.34284
 C640 C 0.21996 0.35534 0.34222
 C641 C 0.22459 0.33314 0.33028
 C642 C 0.24649 0.32677 0.31862
 C643 C 0.26322 0.34344 0.31655
 C644 C 0.25861 0.36555 0.32869
 H645 H 0.27757 0.46832 0.42977
 H646 H 0.28101 0.43502 0.38776
 H647 H 0.20936 0.42460 0.39584
 H648 H 0.20567 0.45803 0.43761
 H649 H 0.20331 0.35966 0.35303
 H650 H 0.21138 0.32067 0.33246
 H651 H 0.28013 0.33916 0.30699
 H652 H 0.27210 0.37776 0.32843
 C653 C 0.23495 0.07337 0.93128
 C654 C 0.23250 0.09403 0.91271
 C655 C 0.25137 0.10630 0.90141
 C656 C 0.27301 0.09727 0.90756
 C657 C 0.27558 0.07658 0.92671
 C658 C 0.25652 0.06463 0.93977
 N659 N 0.24776 0.12855 0.88676
 N660 N 0.26270 0.14012 0.86953
 C661 C 0.25743 0.16273 0.85786
 C662 C 0.26777 0.17194 0.82515
 C663 C 0.26099 0.19318 0.81151
 C664 C 0.24406 0.20569 0.83097
 C665 C 0.23484 0.19687 0.86520
 C666 C 0.24125 0.17556 0.87822
 H667 H 0.21979 0.06477 0.94040
 H668 H 0.21575 0.10085 0.90804
 H669 H 0.28784 0.10660 0.89906
 H670 H 0.29246 0.07040 0.93249
 H671 H 0.28036 0.16227 0.80929
 H672 H 0.26840 0.19939 0.78499
 H673 H 0.22240 0.20631 0.88178
 H674 H 0.23343 0.16899 0.90412
 C675 C 0.79800 0.55393 0.41868
 C676 C 0.79811 0.57339 0.39582
 C677 C 0.77945 0.57886 0.37296
 C678 C 0.76098 0.56413 0.37206
 C679 C 0.76075 0.54487 0.39510
 C680 C 0.77903 0.53981 0.41929
 N681 N 0.77873 0.60015 0.35338
 N682 N 0.76214 0.60539 0.33195
 C683 C 0.75952 0.62700 0.31415
 C684 C 0.74064 0.63061 0.29098
 C685 C 0.73587 0.65204 0.27655
 C686 C 0.74993 0.67038 0.28516
 C687 C 0.76946 0.66659 0.30715
 C688 C 0.77421 0.64502 0.32169
 H689 H 0.81228 0.55051 0.43717
 H690 H 0.81243 0.58460 0.39687
 H691 H 0.74633 0.56790 0.35465
 H692 H 0.74596 0.53427 0.39479
 H693 H 0.72921 0.61685 0.28500
 H694 H 0.72090 0.65440 0.25918
 H695 H 0.78051 0.68044 0.31437
 H696 H 0.78888 0.64261 0.33974
 C697 C 0.06102 0.72003 0.86486
 C698 C 0.07926 0.72300 0.83954
 C699 C 0.08515 0.74463 0.82704
 C700 C 0.07194 0.76323 0.83877
 C701 C 0.05397 0.76039 0.86442
 C702 C 0.04864 0.73883 0.87879
 N703 N 0.10579 0.74767 0.80599
 N704 N 0.11119 0.76684 0.79241
 C705 C 0.13274 0.77113 0.77521
 C706 C 0.13689 0.79262 0.76028
 C707 C 0.15866 0.79877 0.74921
 C708 C 0.17677 0.78350 0.75320
 C709 C 0.17231 0.76147 0.76610
 C710 C 0.15047 0.75532 0.77703
 H711 H 0.05743 0.70316 0.87499
 H712 H 0.08933 0.70850 0.83076
 H713 H 0.07611 0.78015 0.82955
 H714 H 0.04475 0.77530 0.87393
 H715 H 0.12336 0.80496 0.75876
 H716 H 0.16148 0.81573 0.73879
 H717 H 0.18590 0.74939 0.76988
 H718 H 0.14770 0.73864 0.78870
 C719 C 0.54932 0.20546 0.41181
 C720 C 0.56950 0.20402 0.39055
 C721 C 0.58258 0.22333 0.38488
 C722 C 0.57445 0.24435 0.39799
 C723 C 0.55422 0.24590 0.41842
 C724 C 0.54182 0.22638 0.42681
 N725 N 0.60496 0.22139 0.36949
 N726 N 0.62025 0.23371 0.38405
 C727 C 0.64312 0.23426 0.37108
 C728 C 0.65899 0.24338 0.39620
 C729 C 0.68112 0.24647 0.38415
 C730 C 0.68779 0.24112 0.34609
 C731 C 0.67200 0.23114 0.32108
 C732 C 0.64973 0.22764 0.33359
 H733 H 0.54005 0.19016 0.41766
 H734 H 0.57557 0.18770 0.38056
 H735 H 0.58421 0.25951 0.39348
 H736 H 0.54892 0.26228 0.42935
 H737 H 0.65405 0.24842 0.42520
 H738 H 0.69297 0.25352 0.40457
 H739 H 0.67662 0.22686 0.29161
 H740 H 0.63756 0.22068 0.31369
 C741 C 0.94422 0.23546 0.91594
 C742 C 0.92578 0.23194 0.89182
 C743 C 0.90951 0.24888 0.88704
 C744 C 0.91237 0.26992 0.90532
 C745 C 0.93103 0.27359 0.92908
 C746 C 0.94685 0.25619 0.93530
 N747 N 0.88973 0.24366 0.86537
 N748 N 0.87266 0.25675 0.86374
 C749 C 0.85276 0.25024 0.84330
 C750 C 0.83328 0.26365 0.84632
 C751 C 0.81306 0.25651 0.82962
 C752 C 0.81213 0.23580 0.80959
 C753 C 0.83195 0.22285 0.80537
 C754 C 0.85204 0.22994 0.82211
 H755 H 0.95619 0.22179 0.92001
 H756 H 0.92374 0.21568 0.87782
 H757 H 0.89999 0.28328 0.90192
 H758 H 0.93262 0.28971 0.94376
 H759 H 0.83359 0.27931 0.86263
 H760 H 0.79804 0.26678 0.83353
 H761 H 0.83185 0.20705 0.78943
 H762 H 0.86688 0.21933 0.81905
 C763 C 0.45352 0.72419 0.37720
 C764 C 0.43607 0.72115 0.35083
 C765 C 0.42358 0.73965 0.33768
 C766 C 0.42934 0.76152 0.35005
 C767 C 0.44697 0.76463 0.37627
 C768 C 0.45891 0.74592 0.39075
 N769 N 0.40414 0.73548 0.31445
 N770 N 0.39075 0.75113 0.30389
 C771 C 0.37040 0.74624 0.28344
 C772 C 0.35474 0.76363 0.27745
 C773 C 0.33325 0.75880 0.26337
 C774 C 0.32712 0.73639 0.25491
 C775 C 0.34343 0.71918 0.25845
 C776 C 0.36485 0.72403 0.27269
 H777 H 0.46249 0.70944 0.38758
 H778 H 0.43174 0.70422 0.34157
 H779 H 0.41988 0.77610 0.34029
 H780 H 0.45074 0.78156 0.38617
 H781 H 0.35878 0.78081 0.28568
 H782 H 0.32102 0.77240 0.26133
 H783 H 0.33934 0.70183 0.25153
 H784 H 0.37674 0.71029 0.27671
 C785 C 0.24350 0.96050 0.10868
 C786 C 0.24194 0.94079 0.13033
 C787 C 0.25957 0.92503 0.13008
 C788 C 0.27955 0.92985 0.10975
 C789 C 0.28124 0.94978 0.08827
 C790 C 0.26288 0.96489 0.08654
 N791 N 0.25557 0.90344 0.14706
 N792 N 0.26992 0.88737 0.14630
 C793 C 0.26424 0.86534 0.16012
 C794 C 0.28037 0.84800 0.15810
 C795 C 0.27435 0.82571 0.16618
 C796 C 0.25199 0.82044 0.17609
 C797 C 0.23610 0.83802 0.17989
 C798 C 0.24216 0.86028 0.17208
 H799 H 0.22916 0.97193 0.10816
 H800 H 0.22648 0.93724 0.14583
 H801 H 0.29340 0.91784 0.10913
 H802 H 0.29634 0.95274 0.07138
 H803 H 0.29740 0.85164 0.14876
 H804 H 0.28689 0.81244 0.16279
 H805 H 0.21882 0.83444 0.18791
 H806 H 0.22934 0.87335 0.17393
 C807 C 0.74447 0.44132 0.59387
 C808 C 0.74022 0.42194 0.61540
 C809 C 0.75664 0.40502 0.61862
 C810 C 0.77799 0.40823 0.60178
 C811 C 0.78241 0.42785 0.58065
 C812 C 0.76545 0.44427 0.57562
 N813 N 0.75057 0.38431 0.63699
 N814 N 0.76320 0.36683 0.63673
 C815 C 0.75602 0.34607 0.65385
 C816 C 0.76982 0.32685 0.65066
 C817 C 0.76262 0.30609 0.66523
 C818 C 0.74141 0.30424 0.68331
 C819 C 0.72778 0.32367 0.68699
 C820 C 0.73497 0.34436 0.67240
 H821 H 0.73112 0.45373 0.59058
 H822 H 0.72373 0.41967 0.62833
 H823 H 0.79098 0.39538 0.60404
 H824 H 0.79867 0.42963 0.56667
 H825 H 0.78603 0.32790 0.63625
 H826 H 0.77342 0.29139 0.66162
 H827 H 0.71154 0.32290 0.70135
 H828 H 0.72398 0.35894 0.67536
 C829 C 0.71209 0.04905 0.10172
 C830 C 0.71229 0.06655 0.12915
 C831 C 0.73203 0.07151 0.14945
 C832 C 0.75143 0.05823 0.14293
 C833 C 0.75132 0.04096 0.11532
 C834 C 0.73180 0.03646 0.09388
 N835 N 0.73274 0.09125 0.17364
 N836 N 0.75019 0.09591 0.19330
 C837 C 0.75267 0.11656 0.21452
 C838 C 0.77314 0.12049 0.23314
 C839 C 0.77803 0.14186 0.24798
 C840 C 0.76240 0.15967 0.24455
 C841 C 0.74117 0.15530 0.22840
 C842 C 0.73635 0.13389 0.21328
 H843 H 0.69681 0.04598 0.08558
 H844 H 0.69725 0.07672 0.13373
 H845 H 0.76694 0.06171 0.15811
 H846 H 0.76672 0.03145 0.11015
 H847 H 0.78584 0.10728 0.23425
 H848 H 0.79444 0.14477 0.26060
 H849 H 0.72892 0.16881 0.22521
 H850 H 0.72040 0.13123 0.19896
 C851 C 0.21466 0.57883 0.59345
 C852 C 0.21499 0.59884 0.61521
 C853 C 0.23465 0.60548 0.63424
 C854 C 0.25377 0.59134 0.63268
 C855 C 0.25351 0.57145 0.61081
 C856 C 0.23413 0.56524 0.59019
 N857 N 0.23554 0.62747 0.65169
 N858 N 0.25315 0.63444 0.66875
 C859 C 0.25526 0.65707 0.68305
 C860 C 0.27568 0.66353 0.69969
 C861 C 0.27974 0.68620 0.70847
 C862 C 0.26335 0.70282 0.70072
 C863 C 0.24234 0.69611 0.68612
 C864 C 0.23832 0.67341 0.67725
 H865 H 0.19948 0.57453 0.57787
 H866 H 0.20017 0.60961 0.61607
 H867 H 0.26919 0.59606 0.64711
 H868 H 0.26874 0.56129 0.60909
 H869 H 0.28885 0.65110 0.70429
 H870 H 0.29596 0.69084 0.72017
 H871 H 0.22947 0.70856 0.67955
 H872 H 0.22241 0.66883 0.66433
 C873 C 0.96155 0.74774 0.07789
 C874 C 0.94320 0.74892 0.10324
 C875 C 0.92655 0.73234 0.10238
 C876 C 0.92918 0.71363 0.07750
 C877 C 0.94779 0.71223 0.05248
 C878 C 0.96374 0.72967 0.05160
 N879 N 0.90641 0.73611 0.12451
 N880 N 0.88901 0.72376 0.12166
 C881 C 0.86863 0.72929 0.14223
 C882 C 0.84920 0.71655 0.13567
 C883 C 0.82852 0.72318 0.15207
 C884 C 0.82703 0.74274 0.17523
 C885 C 0.84675 0.75493 0.18298
 C886 C 0.86732 0.74832 0.16666
 H887 H 0.97363 0.76138 0.07793
 H888 H 0.94135 0.76340 0.12230
 H889 H 0.91651 0.70058 0.07643
 H890 H 0.94901 0.69819 0.03233
 H891 H 0.84994 0.70191 0.11679
 H892 H 0.81358 0.71353 0.14546
 H893 H 0.84617 0.76985 0.20126
 H894 H 0.88207 0.75843 0.17241
 C895 C 0.43565 0.21966 0.60255
 C896 C 0.41606 0.22220 0.62511
 C897 C 0.40453 0.24293 0.62625
 C898 C 0.41343 0.26143 0.60621
 C899 C 0.43305 0.25904 0.58431
 C900 C 0.44414 0.23803 0.58151
 N901 N 0.38355 0.24500 0.64672
 N902 N 0.36989 0.26087 0.63827
 C903 C 0.34898 0.26498 0.65782
 C904 C 0.33428 0.28097 0.64217
 C905 C 0.31449 0.28703 0.66156
 C906 C 0.30918 0.27741 0.69750
 C907 C 0.32362 0.26073 0.71267
 C908 C 0.34342 0.25451 0.69291
 H909 H 0.44387 0.20328 0.60100
 H910 H 0.40946 0.20783 0.64061
 H911 H 0.40503 0.27772 0.60708
 H912 H 0.43910 0.27355 0.56853
 H913 H 0.33837 0.28904 0.61504
 H914 H 0.30348 0.29949 0.64861
 H915 H 0.32001 0.25311 0.74038
 H916 H 0.35466 0.24214 0.70554
 C917 C 0.05215 0.28882 0.10106
 C918 C 0.06999 0.28973 0.12738
 C919 C 0.07577 0.27073 0.14923
 C920 C 0.06311 0.25089 0.14515
 C921 C 0.04552 0.24987 0.11859
 C922 C 0.04006 0.26869 0.09584
 N923 N 0.09560 0.27119 0.17274
 N924 N 0.10065 0.25472 0.19461
 C925 C 0.12139 0.25333 0.21544
 C926 C 0.12563 0.23396 0.23724
 C927 C 0.14706 0.22984 0.25216
 C928 C 0.16465 0.24512 0.24553
 C929 C 0.15997 0.26539 0.22608
 C930 C 0.13848 0.26946 0.21096
 H931 H 0.04834 0.30357 0.08386
 H932 H 0.07968 0.30509 0.13006
 H933 H 0.06727 0.23592 0.16152
 H934 H 0.03642 0.23417 0.11542
 H935 H 0.11260 0.22143 0.24088
 H936 H 0.15020 0.21419 0.26736
 H937 H 0.17328 0.27736 0.22036
 H938 H 0.13558 0.28455 0.19415
 C939 C 0.56290 0.77813 0.55916
 C940 C 0.58137 0.77858 0.58422
 C941 C 0.58713 0.75946 0.60581
 C942 C 0.57364 0.74010 0.60317
 C943 C 0.55532 0.73959 0.57804
 C944 C 0.55002 0.75841 0.55514
 N945 N 0.60765 0.75934 0.62755
 N946 N 0.61367 0.74215 0.64700
 C947 C 0.63492 0.74059 0.66629
 C948 C 0.64047 0.72039 0.68483
 C949 C 0.66217 0.71684 0.69910
 C950 C 0.67872 0.73355 0.69515
 C951 C 0.67275 0.75436 0.67852
 C952 C 0.65102 0.75785 0.66403
 H953 H 0.55925 0.79289 0.54187
 H954 H 0.59165 0.79358 0.58587
 H955 H 0.57768 0.72509 0.61951
 H956 H 0.54565 0.72419 0.57583
 H957 H 0.62821 0.70698 0.68676
 H958 H 0.66625 0.70075 0.71218
 H959 H 0.68522 0.76745 0.67488
 H960 H 0.64710 0.77361 0.64976
   
