data_POSCAR
  _audit_creation_date              2014-09-24
  _audit_creation_method            'ToBaCCo'
  _symmetry_space_group_name_H-M    'P1'
  _symmetry_Int_Tables_number       1
  _symmetry_cell_setting            triclinic
  loop_
  _symmetry_equiv_pos_as_xyz
 x,y,z
_cell_length_a 43.5879
_cell_length_b 43.2074
_cell_length_c 43.8618
_cell_angle_alpha 90.032500
_cell_angle_beta 90.001100
_cell_angle_gamma 90.002300
loop_
  _atom_site_label
  _atom_site_type_symbol
  _atom_site_fract_x
  _atom_site_fract_y
  _atom_site_fract_z
N1 N 0.64277 0.64599 0.64728
 N2 N 0.89319 0.39788 0.10497
 N3 N 0.39316 0.10185 -0.10535
 N4 N 0.14269 0.85374 0.35245
 N5 N 0.08780 0.17532 0.11125
 N6 N 0.07574 0.16344 0.13613
 C7 C 0.05114 0.18046 0.14431
 C8 C 0.04786 0.20404 0.12341
 C9 C 0.07136 0.20024 0.10277
 H10 H 0.03680 0.17618 0.16399
 H11 H 0.07622 0.21462 0.08318
 Cu12 Cu 0.09359 0.12708 0.15546
 Cu13 Cu 0.12407 0.15798 0.09178
 Cu14 Cu 0.15554 0.09254 0.12490
 N15 N 0.11114 0.08979 0.17330
 N16 N 0.13540 0.07651 0.16115
 C17 C 0.14286 0.05134 0.17760
 C18 C 0.12219 0.04880 0.20119
 C19 C 0.10231 0.07341 0.19796
 H20 H 0.16181 0.03596 0.17273
 H21 H 0.08293 0.07885 0.21240
 N22 N 0.17271 0.11211 0.08817
 N23 N 0.16075 0.13707 0.07548
 C24 C 0.17774 0.14489 0.05097
 C25 C 0.20130 0.12382 0.04832
 C26 C 0.19759 0.10340 0.07210
 H27 H 0.17345 0.16448 0.03624
 H28 H 0.21206 0.08378 0.07731
 H29 H 0.11684 0.11327 0.10676
 H30 H 0.14242 0.13820 0.13053
 N31 N 0.40704 0.82501 0.61225
 N32 N 0.41809 0.83756 0.63728
 C33 C 0.44314 0.82165 0.64611
 C34 C 0.44782 0.79803 0.62555
 C35 C 0.42466 0.80067 0.60431
 H36 H 0.45707 0.82690 0.66585
 H37 H 0.42103 0.78615 0.58455
 Cu38 Cu 0.39900 0.87368 0.65568
 Cu39 Cu 0.37093 0.84147 0.59177
 Cu40 Cu 0.33703 0.90667 0.62350
 N41 N 0.38016 0.91054 0.67285
 N42 N 0.35593 0.92342 0.66025
 C43 C 0.34769 0.94842 0.67673
 C44 C 0.36792 0.95114 0.70076
 C45 C 0.38819 0.92690 0.69774
 H46 H 0.32848 0.96340 0.67168
 H47 H 0.40726 0.92165 0.71262
 N48 N 0.32134 0.88628 0.58638
 N49 N 0.33428 0.86144 0.57437
 C50 C 0.31851 0.85309 0.54927
 C51 C 0.29467 0.87361 0.54546
 C52 C 0.29697 0.89436 0.56920
 H53 H 0.32394 0.83363 0.53474
 H54 H 0.28206 0.91389 0.57351
 H55 H 0.37654 0.88669 0.60643
 H56 H 0.35096 0.86144 0.62980
 N57 N 0.90691 0.67476 0.38737
 N58 N 0.91794 0.66224 0.36231
 C59 C 0.94297 0.67817 0.35347
 C60 C 0.94767 0.70178 0.37406
 C61 C 0.92453 0.69909 0.39531
 H62 H 0.95689 0.67295 0.33372
 H63 H 0.92092 0.71359 0.41510
 Cu64 Cu 0.89885 0.62613 0.34389
 Cu65 Cu 0.87084 0.65825 0.40787
 Cu66 Cu 0.83696 0.59304 0.37613
 N67 N 0.88003 0.58926 0.32672
 N68 N 0.85583 0.57634 0.33935
 C69 C 0.84761 0.55133 0.32286
 C70 C 0.86781 0.54865 0.29881
 C71 C 0.88805 0.57292 0.30182
 H72 H 0.82843 0.53632 0.32793
 H73 H 0.90711 0.57820 0.28692
 N74 N 0.82129 0.61339 0.41327
 N75 N 0.83422 0.63822 0.42529
 C76 C 0.81847 0.64655 0.45041
 C77 C 0.79465 0.62601 0.45423
 C78 C 0.79694 0.60527 0.43047
 H79 H 0.82390 0.66601 0.46495
 H80 H 0.78204 0.58574 0.42616
 H81 H 0.87648 0.61304 0.39316
 H82 H 0.85084 0.63828 0.36984
 N83 N 0.58687 0.32525 -0.11063
 N84 N 0.57410 0.33784 -0.13482
 C85 C 0.54953 0.32081 -0.14304
 C86 C 0.54698 0.29648 -0.12287
 C87 C 0.57089 0.29986 -0.10263
 H88 H 0.53471 0.32557 -0.16225
 H89 H 0.57633 0.28488 -0.08364
 Cu90 Cu 0.59105 0.37510 -0.15327
 Cu91 Cu 0.62338 0.34232 -0.09141
 Cu92 Cu 0.65495 0.40767 -0.12460
 N93 N 0.60959 0.41142 -0.17203
 N94 N 0.63460 0.42394 -0.16062
 C95 C 0.64257 0.44862 -0.17755
 C96 C 0.62147 0.45162 -0.20071
 C97 C 0.60080 0.42779 -0.19672
 H98 H 0.66214 0.46338 -0.17329
 H99 H 0.58089 0.42291 -0.21063
 N100 N 0.67230 0.38791 -0.08805
 N101 N 0.66029 0.36299 -0.07533
 C102 C 0.67738 0.35506 -0.05092
 C103 C 0.70106 0.37602 -0.04837
 C104 C 0.69730 0.39649 -0.07210
 H105 H 0.67306 0.33550 -0.03617
 H106 H 0.71181 0.41608 -0.07734
 H107 H 0.61660 0.38745 -0.10525
 H108 H 0.64054 0.36242 -0.13056
 C109 C -0.05393 0.32237 0.11659
 N110 N -0.03174 0.32210 0.13827
 N111 N -0.01261 0.29816 0.14057
 C112 C -0.01507 0.27376 0.12125
 N113 N -0.03730 0.27400 0.09962
 N114 N -0.05644 0.29794 0.09732
 C115 C -0.07340 0.34890 0.11302
 C116 C -0.08918 0.37154 0.10948
 C117 C 0.00656 0.24877 0.12265
 C118 C 0.02518 0.22815 0.12329
 C119 C 0.56730 0.69811 0.63435
 N120 N 0.56738 0.72114 0.61336
 N121 N 0.54330 0.73994 0.61064
 C122 C 0.51840 0.73627 0.62884
 N123 N 0.51829 0.71319 0.64978
 N124 N 0.54238 0.69439 0.65250
 C125 C 0.59387 0.67895 0.63840
 C126 C 0.61650 0.66339 0.64233
 C127 C 0.49316 0.75750 0.62702
 C128 C 0.47229 0.77578 0.62604
 C129 C 1.06717 0.80168 0.36532
 N130 N 1.06718 0.77872 0.38639
 N131 N 1.04308 0.75993 0.38909
 C132 C 1.01825 0.76353 0.37080
 N133 N 1.01821 0.78654 0.34978
 N134 N 1.04231 0.80533 0.34707
 C135 C 1.09375 0.82082 0.36129
 C136 C 1.11640 0.83636 0.35738
 C137 C 0.99301 0.74230 0.37261
 C138 C 0.97213 0.72403 0.37357
 C139 C 0.44585 0.17753 -0.11682
 N140 N 0.46869 0.17753 -0.13782
 N141 N 0.48773 0.20157 -0.14001
 C142 C 0.48450 0.22633 -0.12125
 N143 N 0.46161 0.22635 -0.10030
 N144 N 0.44257 0.20232 -0.09812
 C145 C 0.42646 0.15093 -0.11332
 C146 C 0.41073 0.12823 -0.10983
 C147 C 0.50599 0.25146 -0.12249
 C148 C 0.52447 0.27220 -0.12297
 C149 C 0.12920 -0.06973 0.30185
 N150 N 0.14803 -0.04492 0.30484
 N151 N 0.14528 -0.02073 0.28620
 C152 C 0.12361 -0.02061 0.26401
 N153 N 0.10473 -0.04538 0.26107
 N154 N 0.10748 -0.06957 0.27971
 C155 C 0.13347 -0.09659 0.32059
 C156 C 0.13758 -0.11955 0.33568
 C157 C 0.12211 0.00444 0.24259
 C158 C 0.12167 0.02497 0.22400
 C159 C 0.62914 0.56961 -0.30192
 N160 N 0.60701 0.56936 -0.28018
 N161 N 0.60416 0.54526 -0.26145
 C162 C 0.62335 0.52067 -0.26389
 N163 N 0.64542 0.52088 -0.28569
 N164 N 0.64827 0.54499 -0.30443
 C165 C 0.63347 0.59641 -0.32074
 C166 C 0.63762 0.61932 -0.33589
 C167 C 0.62171 0.49573 -0.24236
 C168 C 0.62113 0.47531 -0.22366
 C169 C 0.37794 1.05184 0.81864
 N170 N 0.35566 1.02993 0.81832
 N171 N 0.35233 1.01136 0.79427
 C172 C 0.37117 1.01414 0.76982
 N173 N 0.39339 1.03611 0.77011
 N174 N 0.39673 1.05469 0.79415
 C175 C 0.38283 1.07042 0.84533
 C176 C 0.38745 1.08533 0.86813
 C177 C 0.36903 0.99272 0.74491
 C178 C 0.36805 0.97407 0.72447
 C179 C 0.87791 0.44794 0.18094
 N180 N 0.89664 0.44506 0.20547
 N181 N 0.89329 0.46364 0.22951
 C182 C 0.87110 0.48565 0.22975
 N183 N 0.85232 0.48846 0.20526
 N184 N 0.85567 0.46988 0.18122
 C185 C 0.88282 0.42934 0.15427
 C186 C 0.88746 0.41442 0.13148
 C187 C 0.86895 0.50708 0.25466
 C188 C 0.86796 0.52572 0.27509
 C189 C 0.31865 0.11491 -0.05261
 N190 N 0.31900 0.13652 -0.03017
 N191 N 0.29530 0.13926 -0.01117
 C192 C 0.27053 0.12049 -0.01404
 N193 N 0.27015 0.09893 -0.03653
 N194 N 0.29385 0.09618 -0.05553
 C195 C 0.34486 0.11083 -0.07199
 C196 C 0.36721 0.10686 -0.08773
 C197 C 0.24574 0.12233 0.00741
 C198 C 0.22526 0.12331 0.02586
 C199 C 0.69472 0.63351 0.57235
 N200 N 0.69124 0.65226 0.54780
 N201 N 0.71003 0.64977 0.52396
 C202 C 0.73288 0.62846 0.52394
 N203 N 0.73632 0.60966 0.54846
 N204 N 0.71752 0.61216 0.57231
 C205 C 0.67560 0.63737 0.59871
 C206 C 0.66009 0.64116 0.62118
 C207 C 0.75412 0.62692 0.49899
 C208 C 0.77239 0.62619 0.47838
 C209 C 0.81866 0.38468 0.05229
 N210 N 0.81929 0.36361 0.02937
 N211 N 0.79555 0.36088 0.01041
 C212 C 0.77047 0.37915 0.01379
 N213 N 0.76982 0.40017 0.03676
 N214 N 0.79356 0.40290 0.05572
 C215 C 0.84489 0.38880 0.07165
 C216 C 0.86724 0.39280 0.08737
 C217 C 0.74562 0.37736 -0.00759
 C218 C 0.72510 0.37644 -0.02598
 C219 C 0.19468 0.86606 0.42738
 N220 N 0.19138 0.84712 0.45181
 N221 N 0.21018 0.84961 0.47565
 C222 C 0.23286 0.87110 0.47578
 N223 N 0.23613 0.89008 0.45138
 N224 N 0.21732 0.88760 0.42754
 C225 C 0.17555 0.86225 0.40103
 C226 C 0.16003 0.85850 0.37856
 C227 C 0.25411 0.87265 0.50072
 C228 C 0.27240 0.87339 0.52133
   
