data_POSCAR
  _audit_creation_date              2014-09-24
  _audit_creation_method            'ToBaCCo'
  _symmetry_space_group_name_H-M    'P1'
  _symmetry_Int_Tables_number       1
  _symmetry_cell_setting            triclinic
  loop_
  _symmetry_equiv_pos_as_xyz
 x,y,z
_cell_length_a 20.0026
_cell_length_b 20.3323
_cell_length_c 35.7088
_cell_angle_alpha 86.041200
_cell_angle_beta 90.932600
_cell_angle_gamma 120.002400
loop_
  _atom_site_label
  _atom_site_type_symbol
  _atom_site_fract_x
  _atom_site_fract_y
  _atom_site_fract_z
C1 C 0.00360 0.07023 0.56529
 H2 H 0.01358 0.02732 0.57944
 C3 C 0.00267 0.12562 0.58595
 H4 H 0.00999 0.12407 0.61606
 C5 C -0.01259 0.12852 0.50865
 H6 H -0.01575 0.13059 0.47836
 C7 C -0.01366 0.18507 0.52822
 H8 H -0.01889 0.23021 0.51303
 N9 N -0.00307 0.07324 0.52729
 C10 C 0.09344 -0.06877 0.52653
 H11 H 0.14282 -0.02865 0.50919
 C12 C 0.09241 -0.13219 0.54516
 H13 H 0.14152 -0.14047 0.54253
 C14 C -0.03340 -0.11056 0.54924
 H15 H -0.08307 -0.10278 0.54968
 C16 C -0.03658 -0.17397 0.56845
 H17 H -0.08840 -0.21461 0.58425
 Zn18 Zn 0.01818 0.01206 0.49787
 N19 N 0.03043 -0.06010 0.52849
 C20 C 0.17098 0.12867 0.48883
 N21 N 0.10797 0.08077 0.46950
 C22 C 0.10424 0.09187 0.43167
 C23 C 0.16406 0.15549 0.41208
 C24 C 0.23197 0.19311 0.47033
 C25 C -0.05210 -0.09302 0.44527
 C26 C -0.11098 -0.14468 0.42357
 C27 C -0.19294 -0.09826 0.44464
 C28 C -0.13209 -0.04732 0.46608
 N29 N -0.06343 -0.04575 0.46592
 H30 H 0.17145 0.11949 0.51902
 H31 H 0.05273 0.05453 0.41703
 H32 H 0.15896 0.16606 0.38231
 H33 H 0.28019 0.23307 0.48619
 H34 H 0.00286 -0.09127 0.44619
 H35 H -0.09846 -0.17980 0.40682
 H36 H -0.24842 -0.10175 0.44761
 H37 H -0.14081 -0.01138 0.48398
 C38 C 0.02578 -0.18653 0.56544
 C39 C -0.00388 0.18489 0.56715
 C40 C -0.18342 -0.14834 0.42254
 C41 C 0.22729 0.20807 0.43178
 C42 C 1.16427 0.08706 0.11351
 H43 H 1.17285 0.14411 0.11184
 C44 C 1.21831 0.07313 0.09702
 H45 H 1.26875 0.11955 0.08255
 C46 C 1.08974 -0.04255 0.13599
 H47 H 1.04076 -0.08692 0.15207
 C48 C 1.14177 -0.05920 0.11948
 H49 H 1.13261 -0.11649 0.12300
 N50 N 1.10215 0.02974 0.13290
 C51 C 0.93008 0.09823 0.13754
 H52 H 0.93066 0.10690 0.16712
 C53 C 0.87041 0.09453 0.11545
 H54 H 0.82563 0.10170 0.12789
 C55 C 0.98211 0.06861 0.08627
 H56 H 1.02310 0.05414 0.07571
 C57 C 0.92313 0.06416 0.06318
 H58 H 0.91955 0.04751 0.03472
 Zn59 Zn 1.03825 0.05667 0.15797
 N60 N 0.98281 0.08293 0.12301
 C61 C 1.11084 0.20796 0.18171
 N62 N 1.10275 0.13750 0.18763
 C63 C 1.14518 0.12323 0.21361
 C64 C 1.19737 0.18067 0.23547
 C65 C 1.16318 0.26744 0.20273
 C66 C 0.90683 -0.08543 0.16919
 C67 C 0.84224 -0.14457 0.18834
 C68 C 0.89212 -0.08301 0.24602
 C69 C 0.95566 -0.02463 0.22571
 N70 N 0.96169 -0.02682 0.18795
 H71 H 1.07811 0.21850 0.16016
 H72 H 1.13877 0.06706 0.21708
 H73 H 1.23083 0.16853 0.25606
 H74 H 1.17056 0.32378 0.19731
 H75 H 0.91215 -0.08482 0.13905
 H76 H 0.79813 -0.19024 0.17306
 H77 H 0.88689 -0.08037 0.27595
 H78 H 0.99848 0.02345 0.23997
 C79 C 0.86533 0.07468 0.07833
 C80 C 1.20742 -0.00066 0.10021
 C81 C 0.83416 -0.14286 0.22705
 C82 C 1.20661 0.25371 0.23021
 C83 C 0.03580 0.88211 0.87712
 H84 H -0.00866 0.83047 0.86583
 C85 C 0.09010 0.87901 0.90104
 H86 H 0.08777 0.82508 0.90761
 C87 C 0.09515 1.01559 0.88079
 H88 H 0.09792 1.06890 0.87226
 C89 C 0.14946 1.01466 0.90575
 H90 H 0.19325 1.06735 0.91660
 N91 N 0.03927 0.94964 0.86730
 C92 C -0.18440 0.92226 0.83685
 H93 H -0.17898 0.92826 0.80653
 C94 C -0.24515 0.92442 0.85435
 H95 H -0.28827 0.92852 0.83721
 C96 C -0.13337 0.91147 0.89580
 H97 H -0.08785 0.90970 0.91178
 C98 C -0.19354 0.91272 0.91447
 H99 H -0.19358 0.91120 0.94485
 Zn100 Zn -0.03560 0.94471 0.83242
 N101 N -0.12868 0.91867 0.85768
 C102 C -0.11406 0.80245 0.79898
 N103 N -0.04832 0.87136 0.79903
 C104 C 0.01555 0.88679 0.77884
 C105 C 0.01500 0.83200 0.75729
 C106 C -0.11648 0.74514 0.77845
 C107 C -0.00263 1.09567 0.82605
 C108 C 0.00498 1.16208 0.80775
 C109 C 0.00668 1.11276 0.74835
 C110 C -0.00115 1.04718 0.76775
 N111 N -0.00588 1.03969 0.80595
 H112 H -0.16318 0.79072 0.81629
 H113 H 0.06781 0.94122 0.78041
 H114 H 0.06666 0.84497 0.74170
 H115 H -0.16775 0.68930 0.77999
 H116 H -0.01012 1.08696 0.85626
 H117 H 0.00477 1.20506 0.82398
 H118 H 0.00836 1.11731 0.71793
 H119 H -0.00735 1.00100 0.75208
 C120 C -0.24808 0.92394 0.89372
 C121 C 0.14680 0.94550 0.91636
 C122 C 0.00912 1.17069 0.76844
 C123 C -0.05125 0.75984 0.75725
 C124 C 0.41518 -0.04662 -0.00140
 C125 C 0.44139 -0.03481 0.03625
 C126 C 0.51678 -0.01600 0.04491
 C127 C 0.56659 -0.01394 0.01749
 C128 C 0.53925 -0.03544 -0.01886
 C129 C 0.46459 -0.04993 -0.02822
 H130 H 0.44461 -0.06460 -0.05645
 H131 H 0.53642 -0.00454 0.07347
 C132 C 0.00264 0.42549 0.64697
 C133 C -0.00597 0.41838 0.68644
 C134 C -0.01900 0.47029 0.70439
 C135 C -0.02098 0.53055 0.68374
 C136 C -0.00631 0.54085 0.64447
 C137 C 0.00461 0.48765 0.62654
 H138 H 0.01448 0.49453 0.59640
 H139 H -0.02765 0.46369 0.73462
 C140 C 0.56811 0.61657 0.30954
 C141 C 0.56782 0.61254 0.34920
 C142 C 0.51017 0.54780 0.36941
 C143 C 0.45014 0.48868 0.35078
 C144 C 0.44787 0.49503 0.31111
 C145 C 0.50786 0.55796 0.29091
 H146 H 0.50773 0.56132 0.26047
 H147 H 0.51192 0.54348 0.39980
 C148 C -0.06102 0.31546 0.60815
 C149 C -0.06302 0.25699 0.58921
 C150 C 0.00183 0.24799 0.58781
 C151 C 0.07084 0.30029 0.60515
 C152 C 0.07281 0.36001 0.62433
 C153 C 0.00589 0.36665 0.62617
 C154 C 0.14234 0.41208 0.64048
 N155 N 0.20547 0.40418 0.63781
 N156 N 0.20381 0.34821 0.61978
 C157 C 0.13892 0.29630 0.60320
 H158 H -0.11247 0.32035 0.60920
 H159 H -0.11586 0.21792 0.57579
 H160 H 0.14726 0.45938 0.65482
 H161 H 0.14156 0.25305 0.58838
 C162 C 0.70634 0.68507 0.29075
 C163 C 0.77072 0.74352 0.27137
 C164 C 0.76418 0.79736 0.24747
 C165 C 0.69143 0.79284 0.24335
 C166 C 0.62585 0.73351 0.26329
 C167 C 0.63374 0.67936 0.28725
 C168 C 0.55480 0.73144 0.25909
 N169 N 0.55019 0.78518 0.23632
 N170 N 0.61177 0.84090 0.21762
 C171 C 0.68219 0.84670 0.22040
 H172 H 0.71316 0.64371 0.30869
 H173 H 0.82603 0.74637 0.27473
 H174 H 0.50303 0.68812 0.27387
 H175 H 0.73028 0.89363 0.20488
 C176 C 0.34488 -0.00727 -0.04691
 C177 C 0.28365 -0.00813 -0.06707
 C178 C 0.20521 -0.05670 -0.05822
 C179 C 0.18397 -0.10585 -0.02593
 C180 C 0.26026 -0.10251 0.00200
 C181 C 0.33822 -0.05345 -0.01418
 C182 C 0.18345 -0.20895 0.06551
 N183 N 0.09162 -0.24418 0.05927
 N184 N 0.05293 -0.22497 0.02634
 C185 C 0.08523 -0.16749 -0.01170
 H186 H 0.40213 0.03247 -0.05836
 H187 H 0.29903 0.03030 -0.09208
 H188 H 0.20537 -0.22700 0.08993
 H189 H 0.04189 -0.16530 -0.02926
 C190 C 0.06007 0.68073 0.63085
 C191 C 0.06877 0.74650 0.61154
 C192 C 0.01926 0.74202 0.58246
 C193 C -0.03856 0.66956 0.57175
 C194 C -0.04847 0.60259 0.59190
 C195 C 0.00111 0.60854 0.62195
 C196 C -0.10896 0.53189 0.58166
 N197 N -0.15409 0.52885 0.55233
 N198 N -0.14307 0.59159 0.53262
 C199 C -0.08687 0.66171 0.54123
 H200 H 0.09915 0.68619 0.65335
 H201 H 0.11336 0.80143 0.61993
 H202 H -0.12134 0.47898 0.59675
 H203 H -0.08019 0.71047 0.52392
 C204 C 0.40038 0.39115 0.26808
 C205 C 0.34207 0.33244 0.24913
 C206 C 0.26536 0.31630 0.25171
 C207 C 0.24732 0.36061 0.27406
 C208 C 0.30719 0.42184 0.29248
 C209 C 0.38393 0.43583 0.29008
 C210 C 0.28823 0.46752 0.31259
 N211 N 0.21361 0.45016 0.31574
 N212 N 0.15691 0.39060 0.29990
 C213 C 0.17111 0.34518 0.27927
 H214 H 0.45882 0.40134 0.26591
 H215 H 0.35702 0.29935 0.23213
 H216 H 0.33203 0.51697 0.32568
 H217 H 0.12262 0.29726 0.26743
 C218 C 0.60356 -0.10604 -0.03571
 C219 C 0.65746 -0.11411 -0.05592
 C220 C 0.69646 -0.06525 -0.08764
 C221 C 0.67998 -0.00578 -0.09860
 C222 C 0.62379 0.00138 -0.07797
 C223 C 0.58705 -0.04805 -0.04577
 C224 C 0.60909 0.06057 -0.08914
 N225 N 0.64999 0.11116 -0.11806
 N226 N 0.70523 0.10713 -0.13622
 C227 C 0.72233 0.05139 -0.12723
 H228 H 0.57581 -0.14438 -0.01114
 H229 H 0.66785 -0.16013 -0.04683
 H230 H 0.56633 0.06791 -0.07483
 H231 H 0.77054 0.05436 -0.14190
 C232 C 0.40268 0.01490 0.08760
 C233 C 0.34353 0.02692 0.09956
 C234 C 0.26771 -0.01561 0.08702
 C235 C 0.25001 -0.07553 0.06464
 C236 C 0.31355 -0.10512 0.06181
 C237 C 0.38787 -0.04679 0.06663
 C238 C 0.30134 -0.17964 0.03709
 N239 N 0.22993 -0.22576 0.01212
 N240 N 0.16448 -0.20988 0.00877
 C241 C 0.16934 -0.11824 0.03972
 H242 H 0.46178 0.05823 0.09223
 H243 H 0.35857 0.07415 0.11669
 H244 H 0.34787 -0.19222 0.03657
 H245 H 0.12803 -0.09812 0.04173
 C246 C 0.68629 0.66521 0.38633
 C247 C 0.74923 0.72476 0.40243
 C248 C 0.75688 0.79778 0.40314
 C249 C 0.69917 0.80973 0.38471
 C250 C 0.63365 0.74759 0.36953
 C251 C 0.62839 0.67558 0.36979
 C252 C 0.57591 0.75994 0.35340
 N253 N 0.58638 0.83122 0.34948
 N254 N 0.65079 0.89079 0.36048
 C255 C 0.70778 0.88275 0.37733
 H256 H 0.68313 0.61041 0.38642
 H257 H 0.78975 0.71124 0.41641
 H258 H 0.52304 0.71368 0.34341
 H259 H 0.76013 0.93396 0.38361
 C260 C -0.05908 0.28203 0.70667
 C261 C -0.05438 0.22251 0.72576
 C262 C 0.00888 0.23670 0.74828
 C263 C 0.06896 0.31273 0.75141
 C264 C 0.06408 0.37345 0.73201
 C265 C -0.00043 0.35758 0.70930
 C266 C 0.12523 0.44820 0.73529
 N267 N 0.18687 0.46073 0.75646
 N268 N 0.19170 0.40368 0.77439
 C269 C 0.13511 0.33020 0.77249
 H270 H -0.10872 0.26906 0.68946
 H271 H -0.10090 0.16470 0.72318
 H272 H 0.12513 0.49675 0.72098
 H273 H 0.14287 0.28624 0.78714
 C274 C 0.65805 -0.04144 0.05264
 C275 C 0.73040 -0.01981 0.06726
 C276 C 0.79331 0.05280 0.05804
 C277 C 0.78390 0.10382 0.03261
 C278 C 0.70997 0.08210 0.01794
 C279 C 0.64665 0.00898 0.02838
 C280 C 0.70152 0.13556 -0.00570
 N281 N 0.76366 0.20509 -0.01473
 N282 N 0.83333 0.22498 -0.00137
 C283 C 0.84553 0.17686 0.02213
 H284 H 0.60996 -0.09723 0.06109
 H285 H 0.73697 -0.05924 0.08686
 H286 H 0.64613 0.12295 -0.01684
 H287 H 0.90311 0.19603 0.03243
 C288 C 0.38929 0.34994 0.36701
 C289 C 0.33571 0.28227 0.38638
 C290 C 0.28436 0.28168 0.41269
 C291 C 0.28636 0.35063 0.41931
 C292 C 0.34086 0.41959 0.39952
 C293 C 0.39253 0.41892 0.37302
 C294 C 0.34018 0.48665 0.40625
 N295 N 0.28850 0.48437 0.43115
 N296 N 0.23722 0.41962 0.44963
 C297 C 0.23416 0.35274 0.44449
 H298 H 0.42866 0.34853 0.34703
 H299 H 0.33433 0.22987 0.38087
 H300 H 0.37949 0.54074 0.39170
 H301 H 0.19051 0.30190 0.45992
 C302 C 0.01814 0.62798 0.72992
 C303 C 0.01148 0.68400 0.74694
 C304 C -0.04874 0.69856 0.73803
 C305 C -0.10438 0.65411 0.71174
 C306 C -0.09935 0.59476 0.69567
 C307 C -0.03586 0.58374 0.70383
 C308 C -0.15833 0.54819 0.67182
 N309 N -0.21542 0.56353 0.66270
 N310 N -0.21777 0.62187 0.67609
 C311 C -0.16418 0.66778 0.70016
 H312 H 0.06684 0.62011 0.73659
 H313 H 0.05426 0.71679 0.76716
 H314 H -0.15956 0.49972 0.66043
 H315 H -0.16865 0.71475 0.70968
   
