data_POSCAR
  _audit_creation_date              2014-09-24
  _audit_creation_method            'ToBaCCo'
  _symmetry_space_group_name_H-M    'P1'
  _symmetry_Int_Tables_number       1
  _symmetry_cell_setting            triclinic
  loop_
  _symmetry_equiv_pos_as_xyz
 x,y,z
_cell_length_a 57.7148
_cell_length_b 57.6602
_cell_length_c 55.2845
_cell_angle_alpha 90.157000
_cell_angle_beta 89.964800
_cell_angle_gamma 90.009700
loop_
  _atom_site_label
  _atom_site_type_symbol
  _atom_site_fract_x
  _atom_site_fract_y
  _atom_site_fract_z
C1 C 0.28561 0.28193 0.24064
 H2 H 0.28679 0.28237 0.26017
 C3 C 0.30042 0.29563 0.22672
 H4 H 0.31279 0.30683 0.23572
 C5 C 0.26781 0.26691 0.20531
 H6 H 0.25537 0.25540 0.19700
 C7 C 0.28227 0.28032 0.19069
 H8 H 0.28077 0.27896 0.17122
 N9 N 0.26950 0.26818 0.22982
 C10 C 0.21527 0.25893 0.28395
 H11 H 0.21428 0.24020 0.28448
 C12 C 0.20048 0.27223 0.29839
 H13 H 0.18834 0.26357 0.31026
 C14 C 0.23250 0.29287 0.26790
 H15 H 0.24468 0.30088 0.25567
 C16 C 0.21805 0.30683 0.28203
 H17 H 0.21933 0.32551 0.28049
 Zn18 Zn 0.25024 0.25007 0.25008
 N19 N 0.23107 0.26936 0.26933
 C20 C 0.26880 0.23312 0.29435
 N21 N 0.26988 0.23184 0.26980
 C22 C 0.28564 0.21801 0.25853
 C23 C 0.30070 0.20422 0.27203
 C24 C 0.28356 0.21965 0.30855
 C25 C 0.21444 0.24143 0.21715
 C26 C 0.19926 0.22822 0.20308
 C27 C 0.21693 0.19350 0.21901
 C28 C 0.23180 0.20737 0.23275
 N29 N 0.23050 0.23088 0.23136
 H30 H 0.25653 0.24460 0.30300
 H31 H 0.28643 0.21766 0.23898
 H32 H 0.31318 0.19339 0.26270
 H33 H 0.28213 0.22058 0.32806
 H34 H 0.21348 0.26016 0.21675
 H35 H 0.18653 0.23695 0.19198
 H36 H 0.21853 0.17482 0.22004
 H37 H 0.24430 0.19928 0.24454
 C38 C 0.20183 0.29654 0.29762
 C39 C 0.29879 0.29501 0.20138
 C40 C 0.20044 0.20390 0.20385
 C41 C 0.29971 0.20486 0.29741
 C42 C 0.78599 0.78194 0.24035
 H43 H 0.78700 0.78251 0.25989
 C44 C 0.80083 0.79565 0.22649
 H45 H 0.81249 0.80713 0.23604
 C46 C 0.76844 0.76678 0.20507
 H47 H 0.75617 0.75509 0.19674
 C48 C 0.78289 0.78020 0.19046
 H49 H 0.78148 0.77793 0.17110
 N50 N 0.76999 0.76812 0.22954
 C51 C 0.71559 0.75878 0.28348
 H52 H 0.71466 0.74005 0.28404
 C53 C 0.70072 0.77206 0.29785
 H54 H 0.68859 0.76339 0.30971
 C55 C 0.73274 0.79274 0.26739
 H56 H 0.74493 0.80077 0.25519
 C57 C 0.71822 0.80669 0.28146
 H58 H 0.71944 0.82536 0.27989
 Zn59 Zn 0.75072 0.74998 0.24976
 N60 N 0.73140 0.76924 0.26888
 C61 C 0.76916 0.73318 0.29415
 N62 N 0.77035 0.73188 0.26961
 C63 C 0.78620 0.71807 0.25843
 C64 C 0.80124 0.70434 0.27201
 C65 C 0.78389 0.71976 0.30844
 C66 C 0.71513 0.74106 0.21664
 C67 C 0.70011 0.72773 0.20251
 C68 C 0.71790 0.69316 0.21865
 C69 C 0.73257 0.70715 0.23248
 N70 N 0.73115 0.73065 0.23100
 H71 H 0.75683 0.74462 0.30274
 H72 H 0.78707 0.71771 0.23888
 H73 H 0.81378 0.69353 0.26276
 H74 H 0.78237 0.72070 0.32794
 H75 H 0.71415 0.75979 0.21607
 H76 H 0.68780 0.73636 0.19082
 H77 H 0.71919 0.67449 0.22021
 H78 H 0.74494 0.69917 0.24450
 C79 C 0.70200 0.79637 0.29703
 C80 C 0.79950 0.79518 0.20096
 C81 C 0.70146 0.70342 0.20332
 C82 C 0.80013 0.70499 0.29739
 C83 C 0.78571 0.28161 0.74113
 H84 H 0.78683 0.28191 0.76066
 C85 C 0.80055 0.29542 0.72737
 H86 H 0.81320 0.30622 0.73647
 C87 C 0.76824 0.26660 0.70561
 H88 H 0.75581 0.25516 0.69717
 C89 C 0.78277 0.28009 0.69115
 H90 H 0.78100 0.27921 0.67167
 N91 N 0.76974 0.26782 0.73014
 C92 C 0.71510 0.25831 0.78377
 H93 H 0.71411 0.23958 0.78420
 C94 C 0.70011 0.27155 0.79805
 H95 H 0.68751 0.26285 0.80935
 C96 C 0.73230 0.29233 0.76786
 H97 H 0.74465 0.30040 0.75586
 C98 C 0.71763 0.30623 0.78180
 H99 H 0.71923 0.32491 0.78071
 Zn100 Zn 0.75039 0.24961 0.75021
 N101 N 0.73098 0.26882 0.76929
 C102 C 0.76871 0.23273 0.79458
 N103 N 0.76995 0.23146 0.77011
 C104 C 0.78583 0.21773 0.75904
 C105 C 0.80086 0.20399 0.77262
 C106 C 0.78341 0.21935 0.80895
 C107 C 0.71487 0.24082 0.71701
 C108 C 0.69981 0.22756 0.70286
 C109 C 0.71754 0.19291 0.71888
 C110 C 0.73229 0.20684 0.73270
 N111 N 0.73089 0.23035 0.73131
 H112 H 0.75622 0.24403 0.80311
 H113 H 0.78688 0.21755 0.73950
 H114 H 0.81366 0.19425 0.76261
 H115 H 0.78058 0.22031 0.82823
 H116 H 0.71383 0.25955 0.71661
 H117 H 0.68709 0.23623 0.69170
 H118 H 0.71920 0.17423 0.71993
 H119 H 0.74476 0.19880 0.74456
 C120 C 0.70131 0.29586 0.79722
 C121 C 0.79912 0.29485 0.70201
 C122 C 0.70107 0.20325 0.70364
 C123 C 0.80000 0.20430 0.79828
 C124 C 0.28572 0.78209 0.74094
 H125 H 0.28692 0.78239 0.76047
 C126 C 0.30055 0.79584 0.72712
 H127 H 0.31328 0.80660 0.73616
 C128 C 0.26805 0.76714 0.70551
 H129 H 0.25555 0.75575 0.69712
 C130 C 0.28257 0.78058 0.69098
 H131 H 0.28072 0.77971 0.67151
 N132 N 0.26965 0.76836 0.73002
 C133 C 0.21524 0.75907 0.78395
 H134 H 0.21424 0.74034 0.78446
 C135 C 0.20040 0.77238 0.79833
 H136 H 0.18822 0.76372 0.81016
 C137 C 0.23252 0.79302 0.76796
 H138 H 0.24475 0.80103 0.75578
 C139 C 0.21804 0.80698 0.78204
 H140 H 0.21932 0.82565 0.78051
 Zn141 Zn 0.25032 0.75022 0.75020
 N142 N 0.23109 0.76951 0.76938
 C143 C 0.26872 0.73324 0.79453
 N144 N 0.26990 0.73200 0.76998
 C145 C 0.28572 0.71819 0.75876
 C146 C 0.30073 0.70438 0.77230
 C147 C 0.28343 0.71975 0.80877
 C148 C 0.21463 0.74154 0.71713
 C149 C 0.19948 0.72831 0.70306
 C150 C 0.21714 0.69362 0.71909
 C151 C 0.23197 0.70752 0.73283
 N152 N 0.23066 0.73103 0.73140
 H153 H 0.25642 0.74469 0.80315
 H154 H 0.28658 0.71788 0.73921
 H155 H 0.31325 0.69357 0.76301
 H156 H 0.28192 0.72064 0.82828
 H157 H 0.21367 0.76028 0.71671
 H158 H 0.18677 0.73701 0.69192
 H159 H 0.21873 0.67494 0.72016
 H160 H 0.24444 0.69945 0.74467
 C161 C 0.20176 0.79669 0.79757
 C162 C 0.29902 0.79528 0.70177
 C163 C 0.20066 0.70400 0.70388
 C164 C 0.29963 0.70497 0.79767
 C165 C 0.03116 0.03600 0.00907
 H166 H 0.03155 0.03700 -0.01047
 C167 C 0.04486 0.05098 0.02285
 H168 H 0.05566 0.06361 0.01376
 C169 C 0.01605 0.01870 0.04456
 H170 H 0.00462 0.00629 0.05298
 C171 C 0.02943 0.03337 0.05905
 H172 H 0.02847 0.03172 0.07852
 N173 N 0.01738 0.02005 0.02004
 C174 C 0.00834 -0.03500 -0.03343
 H175 H -0.01036 -0.03605 -0.03401
 C176 C 0.02170 -0.05001 -0.04756
 H177 H 0.01311 -0.06271 -0.05891
 C178 C 0.04219 -0.01759 -0.01730
 H179 H 0.05014 -0.00515 -0.00527
 C180 C 0.05620 -0.03229 -0.03109
 H181 H 0.07485 -0.03061 -0.02986
 Zn182 Zn -0.00065 0.00048 -0.00008
 N183 N 0.01871 -0.01900 -0.01892
 C184 C -0.01734 0.01840 -0.04474
 N185 N -0.01874 0.01986 -0.02022
 C186 C -0.03260 0.03582 -0.00928
 C187 C -0.04627 0.05072 -0.02311
 C188 C -0.03072 0.03295 -0.05926
 C189 C -0.00946 -0.03487 0.03324
 C190 C -0.02273 -0.04990 0.04736
 C191 C -0.05733 -0.03241 0.03095
 C192 C -0.04340 -0.01770 0.01717
 N193 N -0.01991 -0.01898 0.01876
 H194 H -0.00575 0.00607 -0.05313
 H195 H -0.03314 0.03683 0.01025
 H196 H -0.05755 0.06297 -0.01403
 H197 H -0.02925 0.03163 -0.07874
 H198 H 0.00925 -0.03583 0.03380
 H199 H -0.01408 -0.06252 0.05867
 H200 H -0.07599 -0.03084 0.02974
 H201 H -0.05142 -0.00534 0.00517
 C202 C 0.04598 -0.04872 -0.04655
 C203 C 0.04419 0.04971 0.04821
 C204 C -0.04702 -0.04874 0.04637
 C205 C -0.04552 0.04933 -0.04846
 C206 C 0.03153 0.53559 0.50972
 H207 H 0.03216 0.53652 0.49019
 C208 C 0.04516 0.55053 0.52363
 H209 H 0.05651 0.56273 0.51463
 C210 C 0.01610 0.51832 0.54508
 H211 H 0.00446 0.50604 0.55339
 C212 C 0.02944 0.53292 0.55968
 H213 H 0.02789 0.53167 0.57915
 N214 N 0.01761 0.51968 0.52057
 C215 C 0.00862 0.46474 0.46696
 H216 H -0.01009 0.46376 0.46629
 C217 C 0.02198 0.44973 0.45283
 H218 H 0.01339 0.43710 0.44141
 C219 C 0.04246 0.48199 0.48328
 H220 H 0.05041 0.49438 0.49537
 C221 C 0.05648 0.46729 0.46950
 H222 H 0.07512 0.46890 0.47080
 Zn223 Zn -0.00038 0.50020 0.50032
 N224 N 0.01899 0.48067 0.48155
 C225 C -0.01680 0.51824 0.45561
 N226 N -0.01831 0.51966 0.48013
 C227 C -0.03219 0.53564 0.49102
 C228 C -0.04576 0.55059 0.47715
 C229 C -0.03008 0.53284 0.44105
 C230 C -0.00948 0.46486 0.53359
 C231 C -0.02287 0.44993 0.54771
 C232 C -0.05733 0.46762 0.53120
 C233 C -0.04328 0.48220 0.51739
 N234 N -0.01981 0.48079 0.51906
 H235 H -0.00520 0.50590 0.44726
 H236 H -0.03281 0.53662 0.51055
 H237 H -0.05706 0.56285 0.48618
 H238 H -0.02853 0.53155 0.42157
 H239 H 0.00923 0.46389 0.53431
 H240 H -0.01430 0.43770 0.55953
 H241 H -0.07597 0.46889 0.52949
 H242 H -0.05119 0.49449 0.50524
 C243 C 0.04626 0.45094 0.45393
 C244 C 0.04431 0.54923 0.54898
 C245 C -0.04715 0.45127 0.54670
 C246 C -0.04489 0.54923 0.45179
 C247 C 0.53177 0.03535 0.50913
 H248 H 0.53239 0.03630 0.48959
 C249 C 0.54545 0.05023 0.52305
 H250 H 0.55682 0.06240 0.51406
 C251 C 0.51629 0.01807 0.54446
 H252 H 0.50463 0.00581 0.55277
 C253 C 0.52968 0.03261 0.55908
 H254 H 0.52814 0.03134 0.57855
 N255 N 0.51780 0.01946 0.51995
 C256 C 0.50869 -0.03542 0.46630
 H257 H 0.48998 -0.03636 0.46563
 C258 C 0.52201 -0.05045 0.45216
 H259 H 0.51340 -0.06306 0.44073
 C260 C 0.54257 -0.01825 0.48263
 H261 H 0.55054 -0.00589 0.49473
 C262 C 0.55655 -0.03297 0.46884
 H263 H 0.57520 -0.03140 0.47014
 Zn264 Zn 0.49977 0.00003 0.49970
 N265 N 0.51909 -0.01952 0.48091
 C266 C 0.48335 0.01812 0.45501
 N267 N 0.48186 0.01954 0.47952
 C268 C 0.46802 0.03554 0.49043
 C269 C 0.45444 0.05050 0.47657
 C270 C 0.47006 0.03274 0.44046
 C271 C 0.49060 -0.03531 0.53294
 C272 C 0.47719 -0.05022 0.54705
 C273 C 0.44276 -0.03245 0.53057
 C274 C 0.45684 -0.01789 0.51676
 N275 N 0.48031 -0.01935 0.51842
 H276 H 0.49493 0.00577 0.44664
 H277 H 0.46741 0.03651 0.50996
 H278 H 0.44316 0.06276 0.48562
 H279 H 0.47159 0.03143 0.42098
 H280 H 0.50931 -0.03632 0.53365
 H281 H 0.48574 -0.06247 0.55887
 H282 H 0.42412 -0.03113 0.52887
 H283 H 0.44894 -0.00558 0.50462
 C284 C 0.54630 -0.04929 0.45326
 C285 C 0.54460 0.04889 0.54840
 C286 C 0.45291 -0.04882 0.54606
 C287 C 0.45527 0.04913 0.45122
 C288 C 0.53164 0.53556 0.00898
 H289 H 0.53200 0.53653 -0.01056
 C290 C 0.54540 0.55053 0.02272
 H291 H 0.55621 0.56312 0.01359
 C292 C 0.51654 0.51835 0.04452
 H293 H 0.50510 0.50598 0.05298
 C294 C 0.52999 0.53301 0.05897
 H295 H 0.52906 0.53139 0.07845
 N296 N 0.51784 0.51966 0.02000
 C297 C 0.50856 0.46459 -0.03339
 H298 H 0.48984 0.46359 -0.03393
 C299 C 0.52184 0.44954 -0.04755
 H300 H 0.51319 0.43686 -0.05887
 C301 C 0.54248 0.48192 -0.01735
 H302 H 0.55049 0.49435 -0.00536
 C303 C 0.55642 0.46718 -0.03117
 H304 H 0.57508 0.46880 -0.03000
 Zn305 Zn 0.49973 0.50013 -0.00007
 N306 N 0.51900 0.48057 -0.01892
 C307 C 0.48303 0.51805 -0.04472
 N308 N 0.48166 0.51954 -0.02020
 C309 C 0.46786 0.53555 -0.00926
 C310 C 0.45422 0.55047 -0.02308
 C311 C 0.46967 0.53263 -0.05924
 C312 C 0.49084 0.46483 0.03331
 C313 C 0.47753 0.44984 0.04744
 C314 C 0.44297 0.46741 0.03102
 C315 C 0.45694 0.48208 0.01723
 N316 N 0.48042 0.48074 0.01882
 H317 H 0.49457 0.50568 -0.05311
 H318 H 0.46736 0.53658 0.01027
 H319 H 0.44298 0.56276 -0.01401
 H320 H 0.47111 0.53128 -0.07872
 H321 H 0.50955 0.46383 0.03387
 H322 H 0.48616 0.43721 0.05875
 H323 H 0.42432 0.46902 0.02981
 H324 H 0.44895 0.49445 0.00522
 C325 C 0.54612 0.45076 -0.04661
 C326 C 0.54476 0.54929 0.04808
 C327 C 0.45324 0.45106 0.04645
 C328 C 0.45493 0.54905 -0.04844
 C329 C 0.18024 -0.15491 -0.16151
 C330 C 0.15699 -0.16108 -0.15839
 C331 C 0.14833 -0.18107 -0.16961
 C332 C 0.16287 -0.19484 -0.18391
 C333 C 0.18629 -0.18877 -0.18720
 C334 C 0.19481 -0.16864 -0.17581
 C335 C 0.14203 -0.14686 -0.14372
 C336 C 0.12960 -0.13484 -0.13144
 C337 C 0.11518 -0.12065 -0.11704
 C338 C 0.10296 -0.10842 -0.10475
 C339 C 0.08849 -0.09371 -0.09006
 C340 C 0.06821 -0.08418 -0.09969
 C341 C 0.05432 -0.06964 -0.08552
 C342 C 0.06056 -0.06441 -0.06152
 C343 C 0.08095 -0.07416 -0.05198
 C344 C 0.09480 -0.08871 -0.06618
 H345 H 0.18714 -0.13951 -0.15285
 H346 H 0.13034 -0.18597 -0.16738
 H347 H 0.15572 -0.21005 -0.19268
 H348 H 0.21281 -0.16367 -0.17771
 H349 H 0.06321 -0.08787 -0.11819
 H350 H 0.03890 -0.06217 -0.09348
 H351 H 0.08606 -0.07074 -0.03348
 H352 H 0.11044 -0.09604 -0.05852
 C353 C 0.14850 0.31876 0.33062
 C354 C 0.15718 0.33875 0.34182
 C355 C 0.18043 0.34493 0.33861
 C356 C 0.19495 0.33121 0.32426
 C357 C 0.18640 0.31108 0.31290
 C358 C 0.16300 0.30499 0.31627
 C359 C 0.14226 0.35296 0.35654
 C360 C 0.12987 0.36496 0.36887
 C361 C 0.11546 0.37913 0.38331
 C362 C 0.10325 0.39134 0.39564
 C363 C 0.08878 0.40603 0.41035
 C364 C 0.09504 0.41090 0.43428
 C365 C 0.08118 0.42543 0.44850
 C366 C 0.06085 0.43527 0.43895
 C367 C 0.05466 0.43016 0.41490
 C368 C 0.06855 0.41565 0.40071
 H369 H 0.13052 0.31385 0.33293
 H370 H 0.18734 0.36033 0.34725
 H371 H 0.21294 0.33619 0.32229
 H372 H 0.15583 0.28978 0.30753
 H373 H 0.11064 0.40350 0.44195
 H374 H 0.08625 0.42876 0.46704
 H375 H 0.03928 0.43770 0.40692
 H376 H 0.06359 0.41205 0.38217
 C377 C 0.64858 -0.18151 0.32996
 C378 C 0.65720 -0.16149 0.34113
 C379 C 0.68043 -0.15525 0.33794
 C380 C 0.69500 -0.16894 0.32361
 C381 C 0.68651 -0.18910 0.31227
 C382 C 0.66313 -0.19525 0.31563
 C383 C 0.64224 -0.14730 0.35584
 C384 C 0.62982 -0.13531 0.36817
 C385 C 0.61541 -0.12115 0.38260
 C386 C 0.60320 -0.10895 0.39493
 C387 C 0.58875 -0.09426 0.40966
 C388 C 0.59500 -0.08941 0.43359
 C389 C 0.58117 -0.07487 0.44782
 C390 C 0.56085 -0.06498 0.43827
 C391 C 0.55466 -0.07006 0.41422
 C392 C 0.56853 -0.08459 0.40002
 H393 H 0.63061 -0.18646 0.33225
 H394 H 0.68730 -0.13981 0.34656
 H395 H 0.71298 -0.16392 0.32165
 H396 H 0.65600 -0.21049 0.30690
 H397 H 0.61059 -0.09684 0.44125
 H398 H 0.58624 -0.07156 0.46636
 H399 H 0.53930 -0.06249 0.40625
 H400 H 0.56357 -0.08817 0.38148
 C401 C 0.66592 0.31769 -0.14945
 C402 C 0.65627 0.33799 -0.15893
 C403 C 0.66118 0.34445 -0.18277
 C404 C 0.67575 0.33073 -0.19707
 C405 C 0.68562 0.31033 -0.18769
 C406 C 0.68049 0.30393 -0.16373
 C407 C 0.64148 0.35229 -0.14415
 C408 C 0.62919 0.36437 -0.13178
 C409 C 0.61489 0.37862 -0.11732
 C410 C 0.60277 0.39090 -0.10497
 C411 C 0.58840 0.40567 -0.09024
 C412 C 0.56812 0.41525 -0.09981
 C413 C 0.55430 0.42983 -0.08560
 C414 C 0.56063 0.43504 -0.06161
 C415 C 0.58102 0.42524 -0.05214
 C416 C 0.59479 0.41065 -0.06638
 H417 H 0.66230 0.31257 -0.13099
 H418 H 0.65375 0.36009 -0.19030
 H419 H 0.67911 0.33595 -0.21554
 H420 H 0.68805 0.28850 -0.15589
 H421 H 0.56305 0.41157 -0.11829
 H422 H 0.53888 0.43734 -0.09351
 H423 H 0.58619 0.42865 -0.03365
 H424 H 0.61043 0.40328 -0.05877
 C425 C -0.16696 0.18154 -0.14911
 C426 C -0.15595 0.16239 -0.15941
 C427 C -0.15945 0.15725 -0.18378
 C428 C -0.17395 0.17113 -0.19789
 C429 C -0.18554 0.19073 -0.18795
 C430 C -0.18151 0.19551 -0.16306
 C431 C -0.14117 0.14790 -0.14491
 C432 C -0.12888 0.13568 -0.13278
 C433 C -0.11457 0.12129 -0.11859
 C434 C -0.10242 0.10891 -0.10647
 C435 C -0.08799 0.09404 -0.09201
 C436 C -0.08495 0.07079 -0.09858
 C437 C -0.07109 0.05626 -0.08447
 C438 C -0.06009 0.06481 -0.06356
 C439 C -0.06323 0.08824 -0.05714
 C440 C -0.07709 0.10274 -0.07129
 H441 H -0.16416 0.18583 -0.13024
 H442 H -0.15117 0.14226 -0.19190
 H443 H -0.17673 0.16535 -0.21625
 H444 H -0.18852 0.21063 -0.15412
 H445 H -0.09337 0.06385 -0.11454
 H446 H -0.06927 0.03825 -0.08972
 H447 H -0.05476 0.09542 -0.04133
 H448 H -0.07929 0.12073 -0.06607
 C449 C -0.16480 0.65345 0.31923
 C450 C -0.15500 0.66228 0.34050
 C451 C -0.15974 0.68509 0.34763
 C452 C -0.17427 0.69903 0.33360
 C453 C -0.18426 0.69030 0.31221
 C454 C -0.17932 0.66736 0.30517
 C455 C -0.14022 0.64785 0.35506
 C456 C -0.12794 0.63567 0.36724
 C457 C -0.11365 0.62129 0.38148
 C458 C -0.10153 0.60892 0.39363
 C459 C -0.08716 0.59403 0.40812
 C460 C -0.07632 0.60271 0.42890
 C461 C -0.06252 0.58818 0.44309
 C462 C -0.05938 0.56475 0.43665
 C463 C -0.07031 0.55623 0.41568
 C464 C -0.08410 0.57078 0.40154
 H465 H -0.16130 0.63579 0.31358
 H466 H -0.15220 0.69211 0.36404
 H467 H -0.17749 0.71670 0.33935
 H468 H -0.18698 0.66003 0.28899
 H469 H -0.07852 0.62069 0.43413
 H470 H -0.05411 0.59534 0.45894
 H471 H -0.06848 0.53822 0.41042
 H472 H -0.09248 0.56387 0.38553
 C473 C 0.33486 0.15329 0.31906
 C474 C 0.34477 0.16211 0.34026
 C475 C 0.34008 0.18493 0.34743
 C476 C 0.32549 0.19887 0.33348
 C477 C 0.31539 0.19016 0.31215
 C478 C 0.32027 0.16721 0.30507
 C479 C 0.35961 0.14767 0.35475
 C480 C 0.37195 0.13549 0.36687
 C481 C 0.38630 0.12113 0.38106
 C482 C 0.39847 0.10877 0.39317
 C483 C 0.41290 0.09390 0.40762
 C484 C 0.42377 0.10258 0.42837
 C485 C 0.43761 0.08807 0.44253
 C486 C 0.44075 0.06465 0.43609
 C487 C 0.42979 0.05611 0.41515
 C488 C 0.41595 0.07065 0.40103
 H489 H 0.33831 0.13562 0.31339
 H490 H 0.34771 0.19194 0.36379
 H491 H 0.32231 0.21655 0.33924
 H492 H 0.31253 0.15989 0.28893
 H493 H 0.42157 0.12057 0.43360
 H494 H 0.44605 0.09524 0.45836
 H495 H 0.43161 0.03810 0.40990
 H496 H 0.40755 0.06372 0.38505
 C497 C 0.33979 0.68493 -0.15217
 C498 C 0.34451 0.66213 -0.15936
 C499 C 0.33468 0.65336 -0.18064
 C500 C 0.32015 0.66730 -0.19465
 C501 C 0.31524 0.69024 -0.18755
 C502 C 0.32525 0.69891 -0.16615
 C503 C 0.35930 0.64766 -0.14486
 C504 C 0.37160 0.63546 -0.13273
 C505 C 0.38592 0.62107 -0.11853
 C506 C 0.39807 0.60869 -0.10642
 C507 C 0.41249 0.59381 -0.09197
 C508 C 0.41547 0.57054 -0.09851
 C509 C 0.42932 0.55600 -0.08441
 C510 C 0.44037 0.56456 -0.06353
 C511 C 0.43730 0.58800 -0.05713
 C512 C 0.42345 0.60251 -0.07128
 H513 H 0.34736 0.69191 -0.13576
 H514 H 0.33815 0.63570 -0.18633
 H515 H 0.31247 0.66002 -0.21084
 H516 H 0.32206 0.71657 -0.16036
 H517 H 0.40700 0.56360 -0.11445
 H518 H 0.43109 0.53798 -0.08964
 H519 H 0.44581 0.59518 -0.04135
 H520 H 0.42130 0.62052 -0.06608
 C521 C -0.14984 -0.16872 0.18093
 C522 C -0.15662 -0.16252 0.15759
 C523 C -0.17778 -0.17036 0.14849
 C524 C -0.19218 -0.18432 0.16265
 C525 C -0.18575 -0.19078 0.18641
 C526 C -0.16417 -0.18265 0.19520
 C527 C -0.14194 -0.14797 0.14303
 C528 C -0.12973 -0.13572 0.13083
 C529 C -0.11553 -0.12128 0.11653
 C530 C -0.10348 -0.10888 0.10431
 C531 C -0.08919 -0.09399 0.08971
 C532 C -0.09557 -0.08904 0.06586
 C533 C -0.08184 -0.07439 0.05173
 C534 C -0.06151 -0.06448 0.06129
 C535 C -0.05521 -0.06963 0.08527
 C536 C -0.06898 -0.08428 0.09938
 H537 H -0.13336 -0.16289 0.18810
 H538 H -0.18330 -0.16548 0.13048
 H539 H -0.20876 -0.18909 0.15504
 H540 H -0.15766 -0.18761 0.21277
 H541 H -0.11115 -0.09652 0.05818
 H542 H -0.08699 -0.07102 0.03324
 H543 H -0.03984 -0.06205 0.09325
 H544 H -0.06393 -0.08793 0.11785
 C545 C -0.16612 0.34650 0.67984
 C546 C -0.15657 0.33776 0.65840
 C547 C -0.16139 0.31496 0.65125
 C548 C -0.17574 0.30096 0.66544
 C549 C -0.18546 0.30961 0.68701
 C550 C -0.18046 0.33254 0.69406
 C551 C -0.14198 0.35225 0.64369
 C552 C -0.12984 0.36448 0.63139
 C553 C -0.11572 0.37893 0.61702
 C554 C -0.10373 0.39137 0.60478
 C555 C -0.08952 0.40635 0.59019
 C556 C -0.06951 0.39772 0.57906
 C557 C -0.05570 0.41230 0.56492
 C558 C -0.06178 0.43573 0.56170
 C559 C -0.08195 0.44422 0.57297
 C560 C -0.09571 0.42962 0.58712
 H561 H -0.16257 0.36415 0.68550
 H562 H -0.15404 0.30800 0.63471
 H563 H -0.17901 0.28330 0.65968
 H564 H -0.18792 0.33980 0.71038
 H565 H -0.06460 0.37972 0.58127
 H566 H -0.04046 0.40517 0.55623
 H567 H -0.08692 0.46224 0.57111
 H568 H -0.11113 0.43650 0.59571
 C569 C 0.33390 -0.15321 0.67945
 C570 C 0.34333 -0.16199 0.65798
 C571 C 0.33840 -0.18476 0.65084
 C572 C 0.32404 -0.19870 0.66509
 C573 C 0.31443 -0.19002 0.68669
 C574 C 0.31955 -0.16711 0.69373
 C575 C 0.35794 -0.14756 0.64321
 C576 C 0.37009 -0.13537 0.63088
 C577 C 0.38423 -0.12097 0.61648
 C578 C 0.39623 -0.10857 0.60421
 C579 C 0.41046 -0.09363 0.58960
 C580 C 0.43045 -0.10231 0.57845
 C581 C 0.44427 -0.08777 0.56429
 C582 C 0.43826 -0.06432 0.56107
 C583 C 0.41812 -0.05578 0.57236
 C584 C 0.40433 -0.07035 0.58652
 H585 H 0.33754 -0.13557 0.68510
 H586 H 0.34566 -0.19175 0.63428
 H587 H 0.32068 -0.21635 0.65934
 H588 H 0.31218 -0.15982 0.71008
 H589 H 0.43531 -0.12033 0.58066
 H590 H 0.45949 -0.09494 0.55559
 H591 H 0.41319 -0.03775 0.57051
 H592 H 0.38894 -0.06343 0.59513
 C593 C 0.35205 0.32658 0.17808
 C594 C 0.34320 0.33764 0.15757
 C595 C 0.31989 0.33470 0.15130
 C596 C 0.30547 0.32078 0.16549
 C597 C 0.31418 0.30963 0.18619
 C598 C 0.33765 0.31267 0.19232
 C599 C 0.35796 0.35212 0.14304
 C600 C 0.37023 0.36433 0.13086
 C601 C 0.38450 0.37871 0.11658
 C602 C 0.39660 0.39107 0.10437
 C603 C 0.41095 0.40592 0.08978
 C604 C 0.40460 0.41087 0.06592
 C605 C 0.41837 0.42549 0.05179
 C606 C 0.43871 0.43536 0.06136
 C607 C 0.44499 0.43019 0.08535
 C608 C 0.43118 0.41558 0.09945
 H609 H 0.37008 0.32870 0.18307
 H610 H 0.31284 0.34324 0.13551
 H611 H 0.28742 0.31904 0.16048
 H612 H 0.34495 0.30408 0.20795
 H613 H 0.38900 0.40344 0.05823
 H614 H 0.41323 0.42887 0.03330
 H615 H 0.46038 0.43774 0.09333
 H616 H 0.43621 0.41192 0.11792
 C617 C 0.16453 0.18219 0.15090
 C618 C 0.15498 0.16186 0.16042
 C619 C 0.16013 0.15534 0.18418
 C620 C 0.17483 0.16904 0.19835
 C621 C 0.18459 0.18948 0.18892
 C622 C 0.17923 0.19593 0.16504
 C623 C 0.14010 0.14757 0.14576
 C624 C 0.12773 0.13552 0.13345
 C625 C 0.11337 0.12130 0.11903
 C626 C 0.10121 0.10908 0.10668
 C627 C 0.08681 0.09438 0.09192
 C628 C 0.06401 0.08957 0.09894
 C629 C 0.05011 0.07510 0.08472
 C630 C 0.05884 0.06526 0.06325
 C631 C 0.08177 0.07026 0.05632
 C632 C 0.09564 0.08472 0.07058
 H633 H 0.16073 0.18736 0.13249
 H634 H 0.15279 0.13966 0.19176
 H635 H 0.17837 0.16377 0.21676
 H636 H 0.18670 0.21139 0.15715
 H637 H 0.05698 0.09700 0.11540
 H638 H 0.03244 0.07183 0.09037
 H639 H 0.08910 0.06271 0.04008
 H640 H 0.11329 0.08826 0.06502
 C641 C 0.16476 0.68214 0.65098
 C642 C 0.15520 0.66185 0.66058
 C643 C 0.16033 0.65540 0.68436
 C644 C 0.17504 0.66913 0.69849
 C645 C 0.18482 0.68953 0.68899
 C646 C 0.17946 0.69592 0.66508
 C647 C 0.14030 0.64751 0.64597
 C648 C 0.12791 0.63540 0.63376
 C649 C 0.11351 0.62109 0.61947
 C650 C 0.10130 0.60877 0.60729
 C651 C 0.08683 0.59392 0.59277
 C652 C 0.08367 0.57070 0.59927
 C653 C 0.06979 0.55619 0.58509
 C654 C 0.05888 0.56472 0.56416
 C655 C 0.06213 0.58812 0.55781
 C656 C 0.07601 0.60261 0.57204
 H657 H 0.16096 0.68726 0.63256
 H658 H 0.15298 0.63975 0.69199
 H659 H 0.17857 0.66392 0.71692
 H660 H 0.18694 0.71135 0.65715
 H661 H 0.09203 0.56378 0.61524
 H662 H 0.06789 0.53819 0.59028
 H663 H 0.05373 0.59528 0.54200
 H664 H 0.07830 0.62058 0.56687
 C665 C 0.66530 0.18140 0.65065
 C666 C 0.65576 0.16107 0.66020
 C667 C 0.66089 0.15458 0.68397
 C668 C 0.67556 0.16832 0.69814
 C669 C 0.68531 0.18876 0.68869
 C670 C 0.67996 0.19517 0.66479
 C671 C 0.64086 0.14676 0.64556
 C672 C 0.62846 0.13468 0.63332
 C673 C 0.61404 0.12043 0.61900
 C674 C 0.60180 0.10815 0.60680
 C675 C 0.58729 0.09337 0.59225
 C676 C 0.58406 0.07015 0.59871
 C677 C 0.57012 0.05570 0.58451
 C678 C 0.55924 0.06431 0.56360
 C679 C 0.56256 0.08770 0.55729
 C680 C 0.57650 0.10213 0.57153
 H681 H 0.66150 0.18654 0.63224
 H682 H 0.65356 0.13891 0.69156
 H683 H 0.67908 0.16308 0.71656
 H684 H 0.68742 0.21063 0.65690
 H685 H 0.59240 0.06318 0.61466
 H686 H 0.56816 0.03771 0.58967
 H687 H 0.55418 0.09492 0.54149
 H688 H 0.57884 0.12009 0.56639
 C689 C 0.67959 0.65498 0.16268
 C690 C 0.65631 0.66115 0.15979
 C691 C 0.64775 0.68114 0.17109
 C692 C 0.66240 0.69491 0.18525
 C693 C 0.68584 0.68884 0.18829
 C694 C 0.69427 0.66871 0.17683
 C695 C 0.64125 0.64695 0.14522
 C696 C 0.62877 0.63495 0.13299
 C697 C 0.61429 0.62078 0.11863
 C698 C 0.60205 0.60859 0.10635
 C699 C 0.58758 0.59391 0.09164
 C700 C 0.56478 0.58917 0.09871
 C701 C 0.55081 0.57472 0.08454
 C702 C 0.55948 0.56482 0.06306
 C703 C 0.58241 0.56976 0.05609
 C704 C 0.59635 0.58420 0.07030
 H705 H 0.68641 0.63959 0.15395
 H706 H 0.62974 0.68604 0.16903
 H707 H 0.65533 0.71013 0.19407
 H708 H 0.71228 0.66375 0.17855
 H709 H 0.55780 0.59665 0.11518
 H710 H 0.53315 0.57150 0.09023
 H711 H 0.58969 0.56216 0.03984
 H712 H 0.61400 0.58769 0.06470
   
