data_POSCAR
  _audit_creation_date              2014-09-24
  _audit_creation_method            'ToBaCCo'
  _symmetry_space_group_name_H-M    'P1'
  _symmetry_Int_Tables_number       1
  _symmetry_cell_setting            triclinic
  loop_
  _symmetry_equiv_pos_as_xyz
 x,y,z
_cell_length_a 51.1068
_cell_length_b 51.6796
_cell_length_c 51.1274
_cell_angle_alpha 89.992600
_cell_angle_beta 89.982200
_cell_angle_gamma 89.890500
loop_
  _atom_site_label
  _atom_site_type_symbol
  _atom_site_fract_x
  _atom_site_fract_y
  _atom_site_fract_z
C1 C 0.19109 0.15966 0.19145
 C2 C 0.18009 0.14882 0.21404
 C3 C 0.15777 0.15989 0.22585
 C4 C 0.14656 0.18217 0.21444
 C5 C 0.15696 0.19279 0.19141
 C6 C 0.17936 0.18154 0.17992
 C7 C 0.21360 0.14880 0.18019
 C8 C 0.22426 0.15901 0.15694
 C9 C 0.21206 0.18064 0.14532
 C10 C 0.19000 0.19213 0.15684
 C11 C 0.17836 0.21405 0.14556
 C12 C 0.15592 0.22520 0.15674
 C13 C 0.14522 0.21440 0.17959
 H14 H 0.18923 0.13184 0.22254
 H15 H 0.12933 0.19099 0.22307
 H16 H 0.22245 0.13203 0.18937
 H17 H 0.21993 0.18894 0.12750
 H18 H 0.18652 0.22219 0.12780
 H19 H 0.12795 0.22304 0.18832
 C20 C -0.19123 0.84162 0.19209
 C21 C -0.17864 0.85407 0.21293
 C22 C -0.15427 0.84519 0.22227
 C23 C -0.14253 0.82366 0.20998
 C24 C -0.15535 0.81054 0.18966
 C25 C -0.17994 0.81937 0.18086
 C26 C -0.21488 0.85128 0.18220
 C27 C -0.22796 0.83867 0.16154
 C28 C -0.21723 0.81552 0.15150
 C29 C -0.19318 0.80604 0.16075
 C30 C -0.18188 0.78369 0.14990
 C31 C -0.15719 0.77500 0.15832
 C32 C -0.14400 0.78863 0.17810
 H33 H -0.18781 0.87094 0.22163
 H34 H -0.12372 0.81651 0.21666
 H35 H -0.22300 0.86877 0.19068
 H36 H -0.22702 0.80532 0.13578
 H37 H -0.19200 0.77342 0.13444
 H38 H -0.12505 0.78192 0.18482
 C39 C -0.18982 0.15717 -0.18828
 C40 C -0.17708 0.14462 -0.20905
 C41 C -0.15613 0.15658 -0.22208
 C42 C -0.14730 0.18086 -0.21352
 C43 C -0.15947 0.19336 -0.19243
 C44 C -0.18122 0.18179 -0.18014
 C45 C -0.21108 0.14550 -0.17562
 C46 C -0.22456 0.15838 -0.15534
 C47 C -0.21604 0.18323 -0.14772
 C48 C -0.19424 0.19477 -0.15965
 C49 C -0.18495 0.21889 -0.15107
 C50 C -0.16247 0.22986 -0.16237
 C51 C -0.15007 0.21714 -0.18327
 H52 H -0.18392 0.12583 -0.21553
 H53 H -0.13080 0.18994 -0.22316
 H54 H -0.21735 0.12649 -0.18202
 H55 H -0.22590 0.19344 -0.13202
 H56 H -0.19459 0.22863 -0.13494
 H57 H -0.13297 0.22571 -0.19233
 C58 C 0.18947 0.84301 -0.18901
 C59 C 0.17775 0.85424 -0.21104
 C60 C 0.15766 0.84135 -0.22472
 C61 C 0.14923 0.81698 -0.21560
 C62 C 0.16018 0.80593 -0.19301
 C63 C 0.18056 0.81887 -0.17982
 C64 C 0.21010 0.85551 -0.17611
 C65 C 0.22229 0.84394 -0.15443
 C66 C 0.21299 0.82015 -0.14501
 C67 C 0.19193 0.80775 -0.15732
 C68 C 0.18190 0.78454 -0.14734
 C69 C 0.16104 0.77196 -0.15988
 C70 C 0.15073 0.78240 -0.18310
 H71 H 0.18474 0.87290 -0.21774
 H72 H 0.13364 0.80680 -0.22561
 H73 H 0.21716 0.87393 -0.18339
 H74 H 0.22199 0.81140 -0.12796
 H75 H 0.19025 0.77632 -0.12969
 H76 H 0.13467 0.77273 -0.19288
 C77 C 0.15795 1.19298 0.80813
 C78 C 0.14584 1.17992 0.78733
 C79 C 0.15545 1.15587 0.77843
 C80 C 0.17732 1.14491 0.79115
 C81 C 0.19013 1.15819 0.81136
 C82 C 0.18061 1.18245 0.81969
 C83 C 0.14761 1.21632 0.81763
 C84 C 0.15998 1.22984 0.83815
 C85 C 0.18353 1.21984 0.84849
 C86 C 0.19366 1.19611 0.83969
 C87 C 0.21637 1.18557 0.85094
 C88 C 0.22572 1.16120 0.84303
 C89 C 0.21242 1.14760 0.82330
 H90 H 0.12869 1.18849 0.77830
 H91 H 0.18500 1.12635 0.78485
 H92 H 0.12983 1.22390 0.80893
 H93 H 0.19356 1.22993 0.86412
 H94 H 0.22637 1.19602 0.86636
 H95 H 0.21964 1.12888 0.81697
 C96 C 0.84212 0.80801 0.80600
 C97 C 0.85186 0.81793 0.78240
 C98 C 0.83914 0.83857 0.76954
 C99 C 0.81587 0.84858 0.78043
 C100 C 0.80636 0.83932 0.80441
 C101 C 0.81974 0.81920 0.81744
 C102 C 0.85463 0.78718 0.81843
 C103 C 0.84566 0.77784 0.84276
 C104 C 0.82399 0.79009 0.85461
 C105 C 0.81081 0.81040 0.84198
 C106 C 0.78878 0.82200 0.85346
 C107 C 0.77516 0.84184 0.84044
 C108 C 0.78394 0.85023 0.81582
 H109 H 0.86946 0.80950 0.77414
 H110 H 0.80560 0.86433 0.77086
 H111 H 0.87158 0.77849 0.80916
 H112 H 0.81679 0.78341 0.87338
 H113 H 0.78198 0.81532 0.87238
 H114 H 0.77371 0.86575 0.80583
 C115 C 0.15706 0.80467 1.19106
 C116 C 0.14518 0.81716 1.21233
 C117 C 0.15476 0.84097 1.22144
 C118 C 0.17617 0.85251 1.20876
 C119 C 0.18860 0.83994 1.18781
 C120 C 0.17924 0.81574 1.17915
 C121 C 0.14694 0.78136 1.18145
 C122 C 0.15908 0.76835 1.16044
 C123 C 0.18211 0.77893 1.14959
 C124 C 0.19198 0.80268 1.15852
 C125 C 0.21411 0.81383 1.14681
 C126 C 0.22320 0.83820 1.15496
 C127 C 0.21030 0.85114 1.17545
 H128 H 0.12833 0.80845 1.22170
 H129 H 0.18357 0.87094 1.21563
 H130 H 0.12954 0.77339 1.19050
 H131 H 0.19189 0.76924 1.13351
 H132 H 0.22385 0.80387 1.13088
 H133 H 0.21739 0.86981 1.18201
 C134 C 0.84256 1.19437 1.19225
 C135 C 0.85503 1.18306 1.21389
 C136 C 0.84645 1.15915 1.22403
 C137 C 0.82517 1.14665 1.21185
 C138 C 0.81205 1.15815 1.19075
 C139 C 0.82059 1.18222 1.18103
 C140 C 0.85193 1.21751 1.18145
 C141 C 0.83928 1.22900 1.15997
 C142 C 0.81656 1.21752 1.14974
 C143 C 0.80728 1.19404 1.15996
 C144 C 0.78521 1.18193 1.14916
 C145 C 0.77680 1.15779 1.15862
 C146 C 0.79044 1.14595 1.17926
 H147 H 0.87169 1.19281 1.22252
 H148 H 0.81825 1.12819 1.21916
 H149 H 0.86920 1.22654 1.18968
 H150 H 0.80672 1.22631 1.13319
 H151 H 0.77495 1.19097 1.13300
 H152 H 0.78391 1.12742 1.18673
 O153 O 0.46336 1.04480 1.04975
 O154 O 0.43474 1.02271 1.02326
 C155 C 0.43995 1.03926 1.04158
 O156 O 0.53864 1.04776 0.95826
 O157 O 0.56647 1.02137 0.98143
 C158 C 0.56185 1.03968 0.96470
 O159 O 0.46499 1.05136 0.95935
 O160 O 0.43566 1.02470 0.98005
 C161 C 0.44132 1.04392 0.96481
 O162 O 0.53676 1.04169 1.05277
 O163 O 0.56549 1.01880 1.02705
 C164 C 0.56023 1.03486 1.04582
 Zr165 Zr 0.50013 1.03026 1.03715
 O166 O 0.50230 1.07091 1.04146
 O167 O 0.49850 1.02441 1.07802
 Zr168 Zr 0.50132 1.03509 0.97120
 O169 O 0.50312 1.07561 0.97646
 O170 O 0.49960 1.03877 0.93000
 O171 O 0.47753 1.03809 1.00411
 O172 O 0.52355 1.03694 1.00485
 O173 O 0.53543 0.95098 1.04667
 O174 O 0.56493 0.97623 1.02435
 C175 C 0.55911 0.95817 1.04097
 O176 O 0.46344 0.95598 0.95319
 O177 O 0.43483 0.98045 0.97749
 C178 C 0.44000 0.96309 0.95995
 O179 O 0.53715 0.95800 0.95129
 O180 O 0.56563 0.97846 0.97912
 C181 C 0.56056 0.96341 0.95952
 O182 O 0.46189 0.95013 1.04290
 O183 O 0.43409 0.97770 1.02120
 C184 C 0.43867 0.95824 1.03654
 Zr185 Zr 0.49910 0.96506 1.03243
 O186 O 0.50134 0.92424 1.02975
 O187 O 0.49589 0.96276 1.07364
 Zr188 Zr 0.50028 0.96970 0.96640
 O189 O 0.50296 0.92896 0.96302
 O190 O 0.49771 0.97311 0.92521
 Zr191 Zr 0.46140 1.00076 1.00109
 Zr192 Zr 0.53903 0.99929 1.00243
 O193 O 0.52230 0.96224 0.99947
 O194 O 0.47633 0.96277 0.99868
 O195 O 0.52286 0.99692 1.04024
 O196 O 0.47823 1.00312 0.96361
 O197 O 0.47671 0.99781 1.03915
 O198 O 0.52418 1.00231 0.96408
 H199 H 0.53558 1.05190 1.00606
 H200 H 0.46664 1.00432 0.94812
 H201 H 0.53391 0.94688 0.99862
 H202 H 0.46449 0.99705 1.05418
 H203 H 0.51355 1.02766 0.92264
 H204 H 0.51283 0.98350 0.91932
 H205 H 0.48893 0.92147 0.97394
 H206 H 0.48698 0.91846 1.01820
 H207 H 0.50911 0.97463 1.08110
 H208 H 0.49845 1.04189 1.08597
 H209 H 0.49311 1.07854 1.02627
 H210 H 0.50351 1.08322 0.95867
 O211 O 0.04426 0.53693 -0.04926
 O212 O 0.02246 0.56500 -0.02204
 C213 C 0.03853 0.56002 -0.04103
 O214 O -0.05035 0.46623 -0.04780
 O215 O -0.02500 0.43665 -0.02575
 C216 C -0.04344 0.44269 -0.04205
 O217 O -0.04537 0.53898 -0.04919
 O218 O -0.02228 0.56601 -0.02206
 C219 C -0.03868 0.56180 -0.04090
 O220 O 0.04640 0.46430 -0.04797
 O221 O 0.01990 0.43574 -0.02609
 C222 C 0.03865 0.44105 -0.04231
 Zr223 Zr 0.03192 0.50053 -0.03481
 O224 O 0.03220 0.49896 -0.07617
 O225 O 0.07328 0.50303 -0.03424
 Zr226 Zr -0.03414 0.50195 -0.03513
 O227 O -0.03118 0.50139 -0.07636
 O228 O -0.07533 0.50575 -0.03693
 O229 O -0.00067 0.52451 -0.03925
 O230 O -0.00156 0.47883 -0.04045
 O231 O 0.04613 0.46164 0.04215
 O232 O 0.01966 0.43446 0.01853
 C233 C 0.03828 0.43879 0.03516
 O234 O -0.04671 0.53618 0.04646
 O235 O -0.02167 0.56475 0.02288
 C236 C -0.03910 0.55943 0.04048
 O237 O -0.05021 0.46357 0.04208
 O238 O -0.02489 0.43536 0.01829
 C239 C -0.04328 0.44042 0.03500
 O240 O 0.04530 0.53424 0.04658
 O241 O 0.02125 0.56385 0.02318
 C242 C 0.03847 0.55777 0.04075
 Zr243 Zr 0.03168 0.49857 0.03125
 O244 O 0.03070 0.49454 0.07245
 O245 O 0.07304 0.50053 0.03204
 Zr246 Zr -0.03455 0.49995 0.03100
 O247 O -0.03457 0.49592 0.07221
 O248 O -0.07582 0.50374 0.03096
 Zr249 Zr -0.00056 0.53868 -0.00062
 Zr250 Zr -0.00201 0.46176 -0.00309
 O251 O -0.00188 0.47670 0.03522
 O252 O -0.00102 0.52211 0.03704
 O253 O 0.03650 0.47634 -0.00248
 O254 O -0.03871 0.52347 -0.00140
 O255 O 0.03700 0.52192 -0.00110
 O256 O -0.03991 0.47801 -0.00278
 H257 H -0.00177 0.46752 -0.05610
 H258 H -0.05390 0.53541 -0.00118
 H259 H -0.00214 0.46461 0.05026
 H260 H 0.05258 0.53330 -0.00080
 H261 H -0.08269 0.49402 -0.02357
 H262 H -0.08304 0.48935 0.02046
 H263 H -0.02376 0.51008 0.07943
 H264 H 0.02135 0.50974 0.07960
 H265 H 0.07974 0.48721 0.01987
 H266 H 0.07999 0.48783 -0.02457
 H267 H 0.01822 0.51071 -0.08238
 H268 H -0.04937 0.50185 -0.08304
 O269 O 0.95911 0.05072 0.46357
 O270 O 0.98072 0.02405 0.43484
 C271 C 0.96514 0.04314 0.44009
 O272 O 1.04982 0.04345 0.53814
 O273 O 1.02425 0.01958 0.56608
 C274 C 1.04263 0.03620 0.56139
 O275 O 1.04818 0.04725 0.46463
 O276 O 1.02522 0.02242 0.43534
 C277 C 1.04196 0.04035 0.44101
 O278 O 0.95533 0.04687 0.53719
 O279 O 0.97850 0.02105 0.56558
 C280 C 0.96138 0.03890 0.56055
 Zr281 Zr 0.96945 0.03422 0.50030
 O282 O 0.96973 0.07507 0.50260
 O283 O 0.92797 0.03395 0.50115
 Zr284 Zr 1.03549 0.03187 0.50094
 O285 O 1.03499 0.07272 0.50296
 O286 O 1.07685 0.03076 0.49878
 O287 O 1.00294 0.03834 0.47736
 O288 O 1.00239 0.03731 0.52350
 O289 O 0.95073 -0.04275 0.53524
 O290 O 0.97766 -0.02225 0.56459
 C291 C 0.95838 -0.03750 0.55887
 O292 O 1.04519 -0.04847 0.46289
 O293 O 1.02354 -0.02145 0.43453
 C294 C 1.03934 -0.04044 0.43952
 O295 O 1.04668 -0.04754 0.53654
 O296 O 1.02293 -0.02271 0.56531
 C297 C 1.04016 -0.04038 0.56001
 O298 O 0.95419 -0.04417 0.46178
 O299 O 0.98024 -0.02075 0.43389
 C300 C 0.96223 -0.03774 0.43857
 Zr301 Zr 0.96712 -0.03119 0.49901
 O302 O 0.96647 -0.07210 0.50126
 O303 O 0.92584 -0.03015 0.49614
 Zr304 Zr 1.03327 -0.03371 0.49981
 O305 O 1.03236 -0.07459 0.50190
 O306 O 1.07463 -0.03444 0.49742
 Zr307 Zr 1.00184 0.00086 0.46119
 Zr308 Zr 1.00099 -0.00041 0.53882
 O309 O 0.99974 -0.03756 0.52202
 O310 O 1.00029 -0.03716 0.47604
 O311 O 0.96302 0.00129 0.52288
 O312 O 1.03947 -0.00070 0.47780
 O313 O 0.96376 0.00211 0.47680
 O314 O 1.03931 -0.00149 0.52366
 H315 H 1.00276 0.05230 0.53558
 H316 H 1.05498 -0.00101 0.46617
 H317 H 0.99902 -0.05292 0.53360
 H318 H 0.94875 0.00280 0.46459
 H319 H 1.08306 0.01945 0.51310
 H320 H 1.08148 -0.02517 0.51289
 H321 H 1.02012 -0.08067 0.48826
 H322 H 0.97537 -0.07890 0.48550
 H323 H 0.91979 -0.01545 0.50698
 H324 H 0.92134 0.03149 0.48316
 H325 H 0.98597 0.08095 0.49394
 H326 H 1.05354 0.07827 0.50305
 C327 C 1.12518 0.12632 0.29145
 N328 N 1.11704 0.14998 0.28326
 N329 N 1.12750 0.16083 0.26205
 C330 C 1.14678 0.14863 0.24840
 N331 N 1.15502 0.12506 0.25692
 N332 N 1.14431 0.11404 0.27787
 C333 C 1.11317 0.11385 0.31422
 N334 N 1.11347 0.08769 0.31648
 N335 N 1.10225 0.07616 0.33688
 C336 C 1.09069 0.09040 0.35597
 N337 N 1.09058 0.11659 0.35385
 N338 N 1.10147 0.12812 0.33322
 C339 C 1.07817 0.07753 0.37822
 N340 N 1.07540 0.08984 0.40152
 N341 N 1.06411 0.07792 0.42171
 C342 C 1.05486 0.05344 0.41913
 N343 N 1.05749 0.04123 0.39578
 N344 N 1.06912 0.05299 0.37575
 C345 C 0.88083 -0.11979 0.28573
 N346 N 0.85597 -0.11361 0.27884
 N347 N 0.84481 -0.12466 0.25813
 C348 C 0.85789 -0.14261 0.24368
 N349 N 0.88279 -0.14877 0.25075
 N350 N 0.89411 -0.13745 0.27124
 C351 C 0.89302 -0.10774 0.30864
 N352 N 0.91946 -0.10644 0.31076
 N353 N 0.93051 -0.09537 0.33153
 C354 C 0.91551 -0.08558 0.35110
 N355 N 0.88908 -0.08705 0.34908
 N356 N 0.87803 -0.09779 0.32813
 C357 C 0.92768 -0.07338 0.37394
 N358 N 0.91456 -0.07161 0.39697
 N359 N 0.92565 -0.06049 0.41770
 C360 C 0.95010 -0.05042 0.41599
 N361 N 0.96316 -0.05207 0.39293
 N362 N 0.95222 -0.06351 0.37232
 C363 C 0.87830 0.12103 0.71272
 N364 N 0.87799 0.14719 0.71501
 N365 N 0.86727 0.15844 0.73586
 C366 C 0.85624 0.14398 0.75511
 N367 N 0.85647 0.11780 0.75273
 N368 N 0.86743 0.10653 0.73200
 C369 C 0.89020 0.10866 0.68978
 N370 N 0.89645 0.08313 0.69018
 N371 N 0.90749 0.07197 0.66944
 C372 C 0.91240 0.08586 0.64745
 N373 N 0.90600 0.11136 0.64698
 N374 N 0.89520 0.12259 0.66783
 C375 C 0.92477 0.07357 0.62471
 N376 N 0.92426 0.08520 0.60089
 N377 N 0.93568 0.07405 0.58032
 C378 C 0.94823 0.05102 0.58293
 N379 N 0.94879 0.03946 0.60676
 N380 N 0.93715 0.05046 0.62725
 C381 C 1.12380 -0.12478 0.71044
 N382 N 1.11847 -0.14975 0.71666
 N383 N 1.12930 -0.16067 0.73766
 C384 C 1.14617 -0.14720 0.75307
 N385 N 1.15158 -0.12226 0.74655
 N386 N 1.14049 -0.11122 0.72580
 C387 C 1.11151 -0.11244 0.68772
 N388 N 1.10946 -0.08628 0.68647
 N389 N 1.09809 -0.07494 0.66602
 C390 C 1.08871 -0.08933 0.64591
 N391 N 1.09094 -0.11549 0.64705
 N392 N 1.10199 -0.12686 0.66769
 C393 C 1.07618 -0.07671 0.62348
 N394 N 1.07463 -0.08887 0.59999
 N395 N 1.06337 -0.07721 0.57963
 C396 C 1.05297 -0.05315 0.58216
 N397 N 1.05437 -0.04109 0.60570
 N398 N 1.06594 -0.05259 0.62594
 C399 C 0.28955 1.12567 1.12331
 N400 N 0.27561 1.14391 1.11024
 N401 N 0.25469 1.15485 1.12120
 C402 C 0.24660 1.14772 1.14550
 N403 N 0.26061 1.12932 1.15843
 N404 N 0.28175 1.11865 1.14764
 C405 C 0.31244 1.11347 1.11118
 N406 N 0.33134 1.10243 1.12615
 N407 N 0.35203 1.09114 1.11509
 C408 C 0.35433 1.09017 1.08865
 N409 N 0.33536 1.10109 1.07369
 N410 N 0.31488 1.11271 1.08476
 C411 C 0.37670 1.07716 1.07642
 N412 N 0.37480 1.06774 1.05172
 N413 N 0.39495 1.05553 1.04069
 C414 C 0.41783 1.05262 1.05384
 N415 N 0.41983 1.06223 1.07847
 N416 N 0.39954 1.07412 1.08964
 C417 C 0.28755 0.87945 0.87963
 N418 N 0.26843 0.89391 0.86837
 N419 N 0.24764 0.88264 0.85762
 C420 C 0.24502 0.85649 0.85801
 N421 N 0.26408 0.84206 0.86947
 N422 N 0.28501 0.85332 0.87998
 C423 C 0.31058 0.89191 0.89113
 N424 N 0.33263 0.87806 0.89613
 N425 N 0.35358 0.88947 0.90645
 C426 C 0.35312 0.91508 0.91237
 N427 N 0.33104 0.92888 0.90747
 N428 N 0.31020 0.91754 0.89689
 C429 C 0.37590 0.92762 0.92430
 N430 N 0.37317 0.95066 0.93673
 N431 N 0.39366 0.96194 0.94802
 C432 C 0.41769 0.95075 0.94702
 N433 N 0.42049 0.92779 0.93440
 N434 N 0.39991 0.91636 0.92335
 C435 C 0.70640 0.87176 1.12832
 N436 N 0.72059 0.88477 1.14643
 N437 N 0.74142 0.87382 1.15750
 C438 C 0.74919 0.84955 1.15069
 N439 N 0.73485 0.83657 1.13252
 N440 N 0.71377 0.84739 1.12169
 C441 C 0.68400 0.88430 1.11560
 N442 N 0.66469 0.87007 1.10444
 N443 N 0.64448 0.88168 1.09281
 C444 C 0.64311 0.90790 1.09160
 N445 N 0.66249 0.92209 1.10263
 N446 N 0.68248 0.91050 1.11457
 C447 C 0.62121 0.92081 1.07840
 N448 N 0.62406 0.94517 1.06892
 N449 N 0.60429 0.95698 1.05683
 C450 C 0.58083 0.94501 1.05414
 N451 N 0.57791 0.92070 1.06379
 N452 N 0.59781 0.90874 1.07556
 C453 C 0.71253 1.12357 0.88102
 N454 N 0.72780 1.11004 0.86417
 N455 N 0.74797 1.12135 0.85232
 C456 C 0.75396 1.14655 0.85709
 N457 N 0.73866 1.15996 0.87417
 N458 N 0.71825 1.14876 0.88575
 C459 C 0.69016 1.11112 0.89385
 N460 N 0.67004 1.12551 0.90333
 N461 N 0.64956 1.11414 0.91462
 C462 C 0.64864 1.08801 0.91714
 N463 N 0.66887 1.07364 0.90784
 N464 N 0.68918 1.08498 0.89624
 C465 C 0.62611 1.07548 0.92957
 N466 N 0.62832 1.05131 0.93975
 N467 N 0.60787 1.03996 0.95111
 C468 C 0.58439 1.05223 0.95236
 N469 N 0.58214 1.07633 0.94203
 N470 N 0.60268 1.08782 0.93098
 C471 C 0.12102 0.28947 0.12086
 N472 N 0.10621 0.27194 0.13394
 N473 N 0.11733 0.25165 0.14562
 C474 C 0.14362 0.24799 0.14438
 N475 N 0.15839 0.26551 0.13121
 N476 N 0.14732 0.28595 0.11980
 C477 C 0.10880 0.31174 0.10789
 N478 N 0.12333 0.33263 0.10100
 N479 N 0.11222 0.35286 0.08924
 C480 C 0.08625 0.35279 0.08364
 N481 N 0.07176 0.33184 0.09040
 N482 N 0.08281 0.31173 0.10243
 C483 C 0.07400 0.37505 0.07068
 N484 N 0.05034 0.37263 0.05888
 N485 N 0.03911 0.39288 0.04727
 C486 C 0.05102 0.41635 0.04728
 N487 N 0.07464 0.41879 0.05917
 N488 N 0.08600 0.39846 0.07052
 C489 C -0.12914 0.29661 -0.12996
 N490 N -0.11407 0.27875 -0.14231
 N491 N -0.12481 0.25785 -0.15301
 C492 C -0.15102 0.25382 -0.15157
 N493 N -0.16612 0.27171 -0.13920
 N494 N -0.15540 0.29280 -0.12871
 C495 C -0.11690 0.31905 -0.11736
 N496 N -0.13124 0.34007 -0.11029
 N497 N -0.11988 0.36017 -0.09855
 C498 C -0.09384 0.35979 -0.09320
 N499 N -0.07958 0.33874 -0.10021
 N500 N -0.09086 0.31881 -0.11219
 C501 C -0.08115 0.38147 -0.07974
 N502 N -0.05751 0.37801 -0.06819
 N503 N -0.04571 0.39751 -0.05599
 C504 C -0.05696 0.42129 -0.05514
 N505 N -0.08058 0.42485 -0.06679
 N506 N -0.09255 0.40522 -0.07876
 C507 C 0.12601 0.70707 -0.12547
 N508 N 0.12543 0.71030 -0.15182
 N509 N 0.13671 0.73082 -0.16286
 C510 C 0.14927 0.74868 -0.14797
 N511 N 0.15002 0.74526 -0.12164
 N512 N 0.13852 0.72491 -0.11059
 C513 C 0.11294 0.68498 -0.11311
 N514 N 0.10736 0.68542 -0.08716
 N515 N 0.09523 0.66556 -0.07587
 C516 C 0.08849 0.64442 -0.09006
 N517 N 0.09419 0.64390 -0.11600
 N518 N 0.10607 0.66390 -0.12737
 C519 C 0.07531 0.62251 -0.07749
 N520 N 0.07467 0.59897 -0.08922
 N521 N 0.06298 0.57902 -0.07758
 C522 C 0.05129 0.58199 -0.05392
 N523 N 0.05177 0.60558 -0.04227
 N524 N 0.06370 0.62545 -0.05378
 C525 C -0.12230 0.70942 0.12473
 N526 N -0.10740 0.72865 0.13492
 N527 N -0.11852 0.74940 0.14566
 C528 C -0.14497 0.75189 0.14639
 N529 N -0.15988 0.73269 0.13605
 N530 N -0.14875 0.71179 0.12553
 C531 C -0.10989 0.68662 0.11286
 N532 N -0.12387 0.66480 0.10812
 N533 N -0.11249 0.64418 0.09729
 C534 C -0.08678 0.64475 0.09059
 N535 N -0.07285 0.66660 0.09526
 N536 N -0.08415 0.68710 0.10633
 C537 C -0.07427 0.62236 0.07805
 N538 N -0.05109 0.62513 0.06541
 N539 N -0.03987 0.60502 0.05355
 C540 C -0.05127 0.58133 0.05415
 N541 N -0.07436 0.57848 0.06697
 N542 N -0.08572 0.59867 0.07861
 C543 C 1.12199 0.11941 0.71483
 N544 N 1.13980 0.10688 0.72990
 N545 N 1.15058 0.11863 0.75044
 C546 C 1.14370 0.14324 0.75701
 N547 N 1.12558 0.15556 0.74198
 N548 N 1.11509 0.14397 0.72122
 C549 C 1.11057 0.10674 0.69181
 N550 N 1.10112 0.12106 0.67164
 N551 N 1.09100 0.10960 0.65062
 C552 C 1.08963 0.08341 0.64915
 N553 N 1.09891 0.06908 0.66940
 N554 N 1.10940 0.08054 0.69026
 C555 C 1.07803 0.07084 0.62618
 N556 N 1.06755 0.04679 0.62806
 N557 N 1.05637 0.03569 0.60737
 C558 C 1.05566 0.04806 0.58395
 N559 N 1.06638 0.07200 0.58200
 N560 N 1.07721 0.08326 0.60278
 C561 C 0.87202 -0.12750 0.70427
 N562 N 0.88535 -0.14565 0.71807
 N563 N 0.87448 -0.15702 0.73875
 C564 C 0.84997 -0.15045 0.74676
 N565 N 0.83666 -0.13229 0.73278
 N566 N 0.84739 -0.12116 0.71186
 C567 C 0.88447 -0.11429 0.68216
 N568 N 0.86985 -0.10265 0.66335
 N569 N 0.88132 -0.09034 0.64352
 C570 C 0.90781 -0.08889 0.64206
 N571 N 0.92240 -0.10041 0.66095
 N572 N 0.91094 -0.11302 0.68055
 C573 C 0.92059 -0.07504 0.62054
 N574 N 0.94527 -0.06584 0.62346
 N575 N 0.95710 -0.05348 0.60391
 C576 C 0.94481 -0.05019 0.58061
 N577 N 0.92015 -0.05948 0.57764
 N578 N 0.90817 -0.07152 0.59733
 C579 C 1.12081 -0.12377 0.28707
 N580 N 1.13237 -0.10923 0.26822
 N581 N 1.14321 -0.12040 0.24737
 C582 C 1.14262 -0.14652 0.24444
 N583 N 1.13092 -0.16101 0.26326
 N584 N 1.12032 -0.14986 0.28423
 C585 C 1.10897 -0.11147 0.31009
 N586 N 1.10317 -0.12563 0.33171
 N587 N 1.09238 -0.11444 0.35259
 C588 C 1.08678 -0.08876 0.35249
 N589 N 1.09249 -0.07464 0.33084
 N590 N 1.10352 -0.08576 0.31007
 C591 C 1.07448 -0.07640 0.37524
 N592 N 1.06301 -0.05283 0.37281
 N593 N 1.05169 -0.04154 0.39331
 C594 C 1.05166 -0.05326 0.41707
 N595 N 1.06326 -0.07679 0.41957
 N596 N 1.07435 -0.08823 0.39897
 C597 C 0.88200 0.12645 0.28862
 N598 N 0.86435 0.11287 0.27439
 N599 N 0.85284 0.12347 0.25363
 C600 C 0.85876 0.14797 0.24596
 N601 N 0.87665 0.16144 0.26020
 N602 N 0.88791 0.15096 0.28121
 C603 C 0.89457 0.11460 0.31148
 N604 N 0.90497 0.12943 0.33078
 N605 N 0.91614 0.11847 0.35159
 C606 C 0.91761 0.09230 0.35364
 N607 N 0.90735 0.07753 0.33426
 N608 N 0.89587 0.08847 0.31366
 C609 C 0.93026 0.07997 0.37619
 N610 N 0.93968 0.05551 0.37411
 N611 N 0.95104 0.04401 0.39446
 C612 C 0.95309 0.05641 0.41776
 N613 N 0.94353 0.08086 0.41995
 N614 N 0.93248 0.09251 0.39944
 C615 C 0.12560 0.29478 -0.12949
 N616 N 0.11256 0.28026 -0.14731
 N617 N 0.12389 0.25965 -0.15814
 C618 C 0.14859 0.25245 -0.15136
 N619 N 0.16159 0.26713 -0.13351
 N620 N 0.15040 0.28797 -0.12293
 C621 C 0.11277 0.31701 -0.11698
 N622 N 0.12712 0.33617 -0.10589
 N623 N 0.11537 0.35616 -0.09428
 C624 C 0.08886 0.35748 -0.09300
 N625 N 0.07453 0.33825 -0.10397
 N626 N 0.08627 0.31846 -0.11590
 C627 C 0.07586 0.37922 -0.07979
 N628 N 0.05116 0.37663 -0.07038
 N629 N 0.03939 0.39627 -0.05822
 C630 C 0.05176 0.41932 -0.05537
 N631 N 0.07640 0.42197 -0.06494
 N632 N 0.08831 0.40220 -0.07677
 C633 C -0.12773 0.29360 0.12301
 N634 N -0.11245 0.27622 0.13577
 N635 N -0.12306 0.25598 0.14787
 C636 C -0.14933 0.25218 0.14747
 N637 N -0.16464 0.26957 0.13464
 N638 N -0.15405 0.29001 0.12277
 C639 C -0.11575 0.31557 0.10933
 N640 N -0.13014 0.33667 0.10261
 N641 N -0.11899 0.35661 0.09038
 C642 C -0.09315 0.35599 0.08416
 N643 N -0.07886 0.33481 0.09073
 N644 N -0.08992 0.31504 0.10320
 C645 C -0.08066 0.37787 0.07081
 N646 N -0.05731 0.37467 0.05856
 N647 N -0.04563 0.39454 0.04683
 C648 C -0.05672 0.41842 0.04716
 N649 N -0.08005 0.42167 0.05946
 N650 N -0.09190 0.40171 0.07095
 C651 C -0.11915 0.71460 -0.12247
 N652 N -0.11284 0.72157 -0.14725
 N653 N -0.12393 0.74219 -0.15831
 C654 C -0.14207 0.75649 -0.14521
 N655 N -0.14836 0.74934 -0.12038
 N656 N -0.13700 0.72894 -0.10917
 C657 C -0.10708 0.69177 -0.11036
 N658 N -0.10601 0.68943 -0.08393
 N659 N -0.09502 0.66871 -0.07295
 C660 C -0.08506 0.64941 -0.08799
 N661 N -0.08629 0.65166 -0.11441
 N662 N -0.09695 0.67256 -0.12540
 C663 C -0.07306 0.62656 -0.07584
 N664 N -0.07123 0.60387 -0.08912
 N665 N -0.06045 0.58312 -0.07796
 C666 C -0.05076 0.58446 -0.05327
 N667 N -0.05245 0.60719 -0.04008
 N668 N -0.06357 0.62782 -0.05109
 C669 C 0.12522 0.70305 0.12870
 N670 N 0.14966 0.71033 0.12142
 N671 N 0.16070 0.73131 0.13176
 C672 C 0.14791 0.74567 0.15007
 N673 N 0.12357 0.73801 0.15753
 N674 N 0.11239 0.71727 0.14694
 C675 C 0.11244 0.68076 0.11644
 N676 N 0.08593 0.67928 0.11569
 N677 N 0.07416 0.65946 0.10395
 C678 C 0.08847 0.64022 0.09288
 N679 N 0.11498 0.64155 0.09385
 N680 N 0.12677 0.66158 0.10526
 C681 C 0.07541 0.61862 0.07966
 N682 N 0.08761 0.59542 0.07691
 N683 N 0.07569 0.57588 0.06481
 C684 C 0.05133 0.57899 0.05470
 N685 N 0.03920 0.60223 0.05732
 N686 N 0.05096 0.62164 0.06976
 C687 C 0.29150 1.12813 0.87911
 N688 N 0.27269 1.11300 0.86834
 N689 N 0.25194 1.12355 0.85672
 C690 C 0.24903 1.14965 0.85564
 N691 N 0.26782 1.16480 0.86653
 N692 N 0.28873 1.15424 0.87794
 C693 C 0.31419 1.11625 0.89206
 N694 N 0.33593 1.13031 0.89764
 N695 N 0.35646 1.11925 0.90928
 C696 C 0.35585 1.09382 0.91598
 N697 N 0.33407 1.07986 0.91050
 N698 N 0.31369 1.09083 0.89865
 C699 C 0.37819 1.08139 0.92901
 N700 N 0.37507 1.05813 0.94089
 N701 N 0.39519 1.04647 0.95251
 C702 C 0.41927 1.05748 0.95249
 N703 N 0.42248 1.08075 0.94054
 N704 N 0.40225 1.09257 0.92912
 C705 C 0.28747 0.87286 1.11797
 N706 N 0.28525 0.84670 1.11884
 N707 N 0.26477 0.83565 1.13048
 C708 C 0.24590 0.85035 1.14193
 N709 N 0.24823 0.87651 1.14112
 N710 N 0.26856 0.88756 1.12926
 C711 C 0.30995 0.88515 1.10513
 N712 N 0.30924 0.91069 1.09895
 N713 N 0.32964 0.92196 1.08743
 C714 C 0.35159 0.90819 1.08192
 N715 N 0.35236 0.88266 1.08818
 N716 N 0.33185 0.87131 1.09947
 C717 C 0.37418 0.92085 1.06965
 N718 N 0.39815 0.90944 1.06989
 N719 N 0.41873 0.92130 1.05930
 C720 C 0.41602 0.94487 1.04785
 N721 N 0.39201 0.95616 1.04743
 N722 N 0.37151 0.94442 1.05824
 C723 C 0.71152 1.12071 1.12620
 N724 N 0.73158 1.10674 1.13638
 N725 N 0.75228 1.11855 1.14670
 C726 C 0.75387 1.14479 1.14697
 N727 N 0.73385 1.15876 1.13660
 N728 N 0.71300 1.14694 1.12652
 C729 C 0.68866 1.10761 1.11499
 N730 N 0.66592 1.12065 1.11102
 N731 N 0.64518 1.10867 1.10092
 C732 C 0.64652 1.08329 1.09420
 N733 N 0.66929 1.07028 1.09806
 N734 N 0.68993 1.08218 1.10843
 C735 C 0.62390 1.07024 1.08244
 N736 N 0.62706 1.04770 1.06915
 N737 N 0.60670 1.03627 1.05773
 C738 C 0.58240 1.04677 1.05948
 N739 N 0.57919 1.06916 1.07301
 N740 N 0.59960 1.08075 1.08418
 C741 C 0.71008 0.87741 0.87525
 N742 N 0.71243 0.87649 0.84883
 N743 N 0.73310 0.86516 0.83776
 C744 C 0.75205 0.85409 0.85269
 N745 N 0.74955 0.85486 0.87913
 N746 N 0.72902 0.86641 0.89020
 C747 C 0.68762 0.89034 0.88751
 N748 N 0.68829 0.89679 0.91323
 N749 N 0.66806 0.90879 0.92437
 C750 C 0.64633 0.91456 0.91025
 N751 N 0.64559 0.90799 0.88455
 N752 N 0.66593 0.89622 0.87334
 C753 C 0.62405 0.92763 0.92270
 N754 N 0.60018 0.92804 0.91103
 N755 N 0.57990 0.93950 0.92268
 C756 C 0.58286 0.95120 0.94627
 N757 N 0.60677 0.95095 0.95781
 N758 N 0.62697 0.93928 0.94630
   
