data_POSCAR
  _audit_creation_date              2014-09-24
  _audit_creation_method            'ToBaCCo'
  _symmetry_space_group_name_H-M    'P1'
  _symmetry_Int_Tables_number       1
  _symmetry_cell_setting            triclinic
  loop_
  _symmetry_equiv_pos_as_xyz
 x,y,z
_cell_length_a 54.2347
_cell_length_b 53.2909
_cell_length_c 53.7146
_cell_angle_alpha 89.891900
_cell_angle_beta 90.014500
_cell_angle_gamma 89.816100
loop_
  _atom_site_label
  _atom_site_type_symbol
  _atom_site_fract_x
  _atom_site_fract_y
  _atom_site_fract_z
C1 C 0.61375 0.64660 0.61543
 C2 C 0.63509 0.63606 0.60502
 C3 C 0.64564 0.61489 0.61567
 C4 C 0.63498 0.60402 0.63687
 C5 C 0.61387 0.61445 0.64716
 C6 C 0.60320 0.63586 0.63637
 C7 C 0.59954 0.66707 0.60902
 N8 N 0.58078 0.66884 0.62556
 C9 C 0.58273 0.64996 0.64236
 C10 C 0.60764 0.60008 0.66754
 N11 N 0.62446 0.58137 0.66967
 C12 C 0.64126 0.58347 0.65114
 C13 C 0.66607 0.60877 0.60170
 N14 N 0.66801 0.62572 0.58299
 C15 C 0.64928 0.64248 0.58474
 H16 H 0.60256 0.67973 0.59353
 H17 H 0.57019 0.64678 0.65772
 H18 H 0.59210 0.60300 0.67988
 H19 H 0.65684 0.57104 0.64830
 H20 H 0.67857 0.59319 0.60483
 H21 H 0.64624 0.65811 0.57219
 C22 C 0.88708 0.35317 0.11489
 C23 C 0.86566 0.36380 0.10466
 C24 C 0.85516 0.38485 0.11549
 C25 C 0.86594 0.39553 0.13668
 C26 C 0.88711 0.38504 0.14680
 C27 C 0.89775 0.36373 0.13584
 C28 C 0.90125 0.33274 0.10830
 N29 N 0.92009 0.33084 0.12476
 C30 C 0.91825 0.34957 0.14167
 C31 C 0.89343 0.39921 0.16723
 N32 N 0.87660 0.41788 0.16959
 C33 C 0.85972 0.41591 0.15112
 C34 C 0.83463 0.39107 0.10167
 N35 N 0.83259 0.37429 0.08289
 C36 C 0.85135 0.35754 0.08444
 H37 H 0.89811 0.32022 0.09276
 H38 H 0.93085 0.35263 0.15701
 H39 H 0.90902 0.39619 0.17948
 H40 H 0.84411 0.42836 0.14847
 H41 H 0.82213 0.40660 0.10497
 H42 H 0.85432 0.34202 0.07179
 C43 C 0.38688 0.14615 -0.11507
 C44 C 0.36559 0.13560 -0.10462
 C45 C 0.35491 0.11473 -0.11549
 C46 C 0.36537 0.10416 -0.13693
 C47 C 0.38640 0.11459 -0.14725
 C48 C 0.39722 0.13571 -0.13626
 C49 C 0.40119 0.16639 -0.10850
 N50 N 0.41978 0.16831 -0.12520
 C51 C 0.41764 0.14976 -0.14224
 C52 C 0.39246 0.10052 -0.16787
 N53 N 0.37558 0.08199 -0.17012
 C54 C 0.35893 0.08391 -0.15143
 C55 C 0.33456 0.10855 -0.10145
 N56 N 0.33281 0.12518 -0.08250
 C57 C 0.35157 0.14180 -0.08415
 H58 H 0.39833 0.17879 -0.09280
 H59 H 0.43001 0.14678 -0.15779
 H60 H 0.40793 0.10352 -0.18027
 H61 H 0.34337 0.07154 -0.14861
 H62 H 0.32198 0.09317 -0.10472
 H63 H 0.35473 0.15719 -0.07142
 C64 C 0.11226 0.85359 0.38531
 C65 C 0.13356 0.86409 0.39574
 C66 C 0.14416 0.88509 0.38497
 C67 C 0.13360 0.89584 0.36362
 C68 C 0.11255 0.88547 0.35330
 C69 C 0.10181 0.86423 0.36421
 C70 C 0.09803 0.83324 0.39180
 N71 N 0.07938 0.83145 0.37514
 C72 C 0.08139 0.85018 0.35819
 C73 C 0.10643 0.89968 0.33275
 N74 N 0.12328 0.91825 0.33054
 C75 C 0.13997 0.91621 0.34919
 C76 C 0.16454 0.89119 0.39898
 N77 N 0.16639 0.87439 0.41784
 C78 C 0.14766 0.85774 0.41614
 H79 H 0.10102 0.82068 0.40741
 H80 H 0.06896 0.85332 0.34270
 H81 H 0.09096 0.89674 0.32034
 H82 H 0.15555 0.92856 0.35200
 H83 H 0.17706 0.90664 0.39576
 H84 H 0.14457 0.84223 0.42881
 N85 N 0.09620 0.16430 0.11222
 N86 N 0.08598 0.15354 0.13170
 C87 C 0.06588 0.16683 0.13843
 C88 C 0.06354 0.18680 0.12227
 C89 C 0.08296 0.18476 0.10587
 H90 H 0.05387 0.16240 0.15388
 H91 H 0.08713 0.19721 0.09053
 Cu92 Cu 0.09998 0.12331 0.14644
 Cu93 Cu 0.12584 0.15102 0.09657
 Cu94 Cu 0.15183 0.09777 0.12304
 N95 N 0.11517 0.09381 0.16144
 N96 N 0.13546 0.08393 0.15221
 C97 C 0.14205 0.06390 0.16605
 C98 C 0.12498 0.06123 0.18484
 C99 C 0.10818 0.08040 0.18151
 H100 H 0.15804 0.05220 0.16275
 H101 H 0.09216 0.08424 0.19288
 N102 N 0.16570 0.11450 0.09347
 N103 N 0.15581 0.13481 0.08340
 C104 C 0.16939 0.14169 0.06353
 C105 C 0.18859 0.12490 0.06114
 C106 C 0.18583 0.10792 0.08027
 H107 H 0.16563 0.15764 0.05164
 H108 H 0.19759 0.09198 0.08419
 H109 H 0.12091 0.11411 0.10728
 H110 H 0.13976 0.13422 0.12836
 N111 N 0.40323 0.83584 0.61279
 N112 N 0.41344 0.84673 0.63217
 C113 C 0.43360 0.83355 0.63898
 C114 C 0.43599 0.81351 0.62298
 C115 C 0.41653 0.81540 0.60659
 H116 H 0.44563 0.83809 0.65438
 H117 H 0.41236 0.80286 0.59136
 Cu118 Cu 0.39937 0.87695 0.64672
 Cu119 Cu 0.37350 0.84893 0.59709
 Cu120 Cu 0.34726 0.90208 0.62329
 N121 N 0.38401 0.90638 0.66156
 N122 N 0.36362 0.91609 0.65234
 C123 C 0.35695 0.93611 0.66607
 C124 C 0.37408 0.93896 0.68478
 C125 C 0.39100 0.91991 0.68151
 H126 H 0.34087 0.94770 0.66273
 H127 H 0.40709 0.91622 0.69285
 N128 N 0.33344 0.88521 0.59384
 N129 N 0.34344 0.86495 0.58385
 C130 C 0.32989 0.85799 0.56401
 C131 C 0.31059 0.87466 0.56156
 C132 C 0.31326 0.89166 0.58062
 H133 H 0.33374 0.84207 0.55217
 H134 H 0.30141 0.90754 0.58447
 H135 H 0.37824 0.88590 0.60756
 H136 H 0.35959 0.86572 0.62882
 N137 N 0.90347 0.66581 0.38695
 N138 N 0.91335 0.65535 0.36713
 C139 C 0.93334 0.66862 0.36025
 C140 C 0.93595 0.68829 0.37664
 C141 C 0.91681 0.68607 0.39334
 H142 H 0.94513 0.66435 0.34458
 H143 H 0.91293 0.69824 0.40896
 Cu144 Cu 0.89908 0.62541 0.35238
 Cu145 Cu 0.87415 0.65237 0.40303
 Cu146 Cu 0.84848 0.59893 0.37705
 N147 N 0.88450 0.59546 0.33794
 N148 N 0.86469 0.58520 0.34771
 C149 C 0.85841 0.56490 0.33426
 C150 C 0.87519 0.56244 0.31517
 C151 C 0.89150 0.58201 0.31791
 H152 H 0.84283 0.55287 0.33805
 H153 H 0.90719 0.58608 0.30618
 N154 N 0.83477 0.61559 0.40672
 N155 N 0.84453 0.63597 0.41660
 C156 C 0.83105 0.64280 0.43656
 C157 C 0.81206 0.62593 0.43921
 C158 C 0.81484 0.60893 0.42015
 H159 H 0.83471 0.65882 0.44831
 H160 H 0.80319 0.59295 0.41640
 H161 H 0.87947 0.61560 0.39206
 H162 H 0.85961 0.63560 0.37166
 N163 N 0.59729 0.33424 -0.11332
 N164 N 0.58790 0.34424 -0.13364
 C165 C 0.56794 0.33096 -0.14054
 C166 C 0.56484 0.31176 -0.12363
 C167 C 0.58366 0.31427 -0.10660
 H168 H 0.55649 0.33490 -0.15657
 H169 H 0.58714 0.30247 -0.09056
 Cu170 Cu 0.60260 0.37368 -0.14904
 Cu171 Cu 0.62642 0.34783 -0.09710
 Cu172 Cu 0.65243 0.40093 -0.12351
 N173 N 0.61708 0.40382 -0.16327
 N174 N 0.63656 0.41439 -0.15320
 C175 C 0.64276 0.43479 -0.16661
 C176 C 0.62625 0.43701 -0.18599
 C177 C 0.61019 0.41719 -0.18345
 H178 H 0.65808 0.44707 -0.16260
 H179 H 0.59472 0.41290 -0.19540
 N180 N 0.66582 0.38456 -0.09348
 N181 N 0.65592 0.36431 -0.08342
 C182 C 0.66922 0.35761 -0.06327
 C183 C 0.68824 0.37445 -0.06067
 C184 C 0.68567 0.39127 -0.07998
 H185 H 0.66545 0.34169 -0.05137
 H186 H 0.69744 0.40715 -0.08387
 H187 H 0.62109 0.38436 -0.10908
 H188 H 0.64164 0.36411 -0.12846
 C189 C 0.00984 0.24097 0.12297
 C190 C 0.01452 0.26449 0.13421
 C191 C -0.00418 0.28324 0.13456
 C192 C -0.02745 0.27837 0.12365
 C193 C -0.03211 0.25486 0.11237
 C194 C -0.01342 0.23610 0.11204
 C195 C -0.01852 0.21275 0.10067
 C196 C -0.04144 0.20806 0.08993
 C197 C -0.05971 0.22639 0.09026
 C198 C -0.05521 0.24956 0.10132
 C199 C 0.00092 0.30660 0.14592
 C200 C 0.02385 0.31131 0.15661
 C201 C 0.04214 0.29299 0.15626
 C202 C 0.03763 0.26981 0.14522
 C203 C -0.04656 0.29751 0.12404
 C204 C -0.06245 0.31339 0.12438
 C205 C 0.02892 0.22177 0.12270
 C206 C 0.04473 0.20582 0.12249
 H207 H -0.00490 0.19789 0.09994
 H208 H -0.04503 0.19009 0.08132
 H209 H -0.07749 0.22266 0.08189
 H210 H -0.07001 0.26323 0.10110
 H211 H -0.01271 0.32146 0.14665
 H212 H 0.02744 0.32929 0.16522
 H213 H 0.05992 0.29674 0.16460
 H214 H 0.05244 0.25616 0.14541
 C215 C 0.48987 0.75955 0.62403
 C216 C 0.48343 0.73394 0.62662
 C217 C 0.50218 0.71523 0.62698
 C218 C 0.52724 0.72223 0.62473
 C219 C 0.53368 0.74784 0.62215
 C220 C 0.51494 0.76655 0.62180
 C221 C 0.52183 0.79202 0.61922
 C222 C 0.54652 0.79881 0.61702
 C223 C 0.56484 0.78052 0.61734
 C224 C 0.55861 0.75530 0.61987
 C225 C 0.49529 0.68977 0.62960
 C226 C 0.47059 0.68297 0.63180
 C227 C 0.45227 0.70126 0.63144
 C228 C 0.45851 0.72648 0.62888
 C229 C 0.54639 0.70312 0.62505
 C230 C 0.56229 0.68726 0.62530
 C231 C 0.47072 0.77867 0.62365
 C232 C 0.45485 0.79456 0.62334
 H233 H 0.50825 0.80694 0.61886
 H234 H 0.55147 0.81838 0.61505
 H235 H 0.58400 0.78589 0.61563
 H236 H 0.57352 0.74176 0.62002
 H237 H 0.50888 0.67486 0.62999
 H238 H 0.46566 0.66341 0.63379
 H239 H 0.43311 0.69589 0.63315
 H240 H 0.44359 0.74002 0.62870
 C241 C 0.98972 0.74202 0.37609
 C242 C 0.98336 0.76751 0.37209
 C243 C 1.00204 0.78616 0.37191
 C244 C 1.02699 0.77922 0.37575
 C245 C 1.03335 0.75374 0.37976
 C246 C 1.01466 0.73509 0.37992
 C247 C 1.02148 0.70974 0.38395
 C248 C 1.04605 0.70301 0.38772
 C249 C 1.06432 0.72125 0.38758
 C250 C 1.05815 0.74635 0.38365
 C251 C 0.99523 0.81150 0.36787
 C252 C 0.97066 0.81824 0.36412
 C253 C 0.95239 0.80001 0.36430
 C254 C 0.95856 0.77491 0.36823
 C255 C 1.04608 0.79827 0.37554
 C256 C 1.06194 0.81408 0.37535
 C257 C 0.97063 0.72297 0.37627
 C258 C 0.95480 0.70714 0.37643
 H259 H 1.00794 0.69488 0.38423
 H260 H 1.05094 0.68353 0.39077
 H261 H 1.08337 0.71592 0.39052
 H262 H 1.07301 0.75985 0.38371
 H263 H 1.00877 0.82636 0.36756
 H264 H 0.96577 0.83771 0.36105
 H265 H 0.93333 0.80533 0.36138
 H266 H 0.94369 0.76141 0.36821
 C267 C 0.51082 0.25829 -0.12408
 C268 C 0.50205 0.24877 -0.14702
 C269 C 0.48329 0.23020 -0.14722
 C270 C 0.47338 0.22128 -0.12449
 C271 C 0.48215 0.23081 -0.10155
 C272 C 0.50093 0.24936 -0.10135
 C273 C 0.50940 0.25859 -0.07819
 C274 C 0.49960 0.24975 -0.05587
 C275 C 0.48123 0.23162 -0.05607
 C276 C 0.47253 0.22219 -0.07859
 C277 C 0.47483 0.22095 -0.17038
 C278 C 0.48463 0.22980 -0.19270
 C279 C 0.50296 0.24796 -0.19250
 C280 C 0.51165 0.25740 -0.16998
 C281 C 0.45420 0.20233 -0.12470
 C282 C 0.43828 0.18660 -0.12492
 C283 C 0.52999 0.27726 -0.12388
 C284 C 0.54590 0.29300 -0.12375
 H285 H 0.52366 0.27270 -0.07707
 H286 H 0.50629 0.25701 -0.03832
 H287 H 0.47368 0.22482 -0.03868
 H288 H 0.45823 0.20811 -0.07778
 H289 H 0.46060 0.20682 -0.17150
 H290 H 0.47795 0.22252 -0.21025
 H291 H 0.51051 0.25477 -0.20990
 H292 H 0.52593 0.27151 -0.17079
 C293 C 0.12434 0.00759 0.23950
 C294 C 0.10404 -0.00893 0.24161
 C295 C 0.10381 -0.02754 0.26060
 C296 C 0.12387 -0.02954 0.27737
 C297 C 0.14417 -0.01302 0.27526
 C298 C 0.14441 0.00559 0.25626
 C299 C 0.16491 0.02187 0.25453
 C300 C 0.18461 0.01983 0.27108
 C301 C 0.18437 0.00164 0.28965
 C302 C 0.16443 -0.01465 0.29181
 C303 C 0.08332 -0.04384 0.26233
 C304 C 0.06362 -0.04180 0.24579
 C305 C 0.06384 -0.02360 0.22723
 C306 C 0.08377 -0.00730 0.22507
 C307 C 0.12363 -0.04856 0.29676
 C308 C 0.12346 -0.06437 0.31285
 C309 C 0.12458 0.02662 0.22010
 C310 C 0.12477 0.04241 0.20400
 H311 H 0.16594 0.03633 0.24039
 H312 H 0.20014 0.03244 0.26948
 H313 H 0.19971 0.00013 0.30246
 H314 H 0.16509 -0.02849 0.30656
 H315 H 0.08229 -0.05830 0.27646
 H316 H 0.04809 -0.05442 0.24738
 H317 H 0.04849 -0.02209 0.21442
 H318 H 0.08309 0.00656 0.21033
 C319 C 0.62537 0.49112 -0.24018
 C320 C 0.64519 0.49282 -0.25725
 C321 C 0.64495 0.51161 -0.27607
 C322 C 0.62488 0.52861 -0.27770
 C323 C 0.60505 0.52690 -0.26065
 C324 C 0.60529 0.50809 -0.24184
 C325 C 0.58525 0.50675 -0.22501
 C326 C 0.56554 0.52351 -0.22672
 C327 C 0.56531 0.54189 -0.24510
 C328 C 0.58478 0.54365 -0.26193
 C329 C 0.66497 0.51293 -0.29292
 C330 C 0.68467 0.49617 -0.29123
 C331 C 0.68491 0.47780 -0.27283
 C332 C 0.66546 0.47605 -0.25598
 C333 C 0.62467 0.54784 -0.29688
 C334 C 0.62455 0.56381 -0.31282
 C335 C 0.62565 0.47194 -0.22094
 C336 C 0.62591 0.45600 -0.20498
 H337 H 0.58460 0.49278 -0.21039
 H338 H 0.55037 0.52221 -0.21369
 H339 H 0.54995 0.55486 -0.24635
 H340 H 0.58376 0.55827 -0.27591
 H341 H 0.66562 0.52690 -0.30756
 H342 H 0.69983 0.49745 -0.30427
 H343 H 0.70026 0.46482 -0.27160
 H344 H 0.66649 0.46144 -0.24200
 C345 C 0.37464 0.99276 0.73906
 C346 C 0.39617 0.99654 0.75348
 C347 C 0.39638 1.01518 0.77238
 C348 C 0.37506 1.02992 0.77676
 C349 C 0.35354 1.02616 0.76232
 C350 C 0.35333 1.00753 0.74341
 C351 C 0.33161 1.00413 0.72922
 C352 C 0.31068 1.01870 0.73359
 C353 C 0.31088 1.03691 0.75208
 C354 C 0.33200 1.04068 0.76634
 C355 C 0.41812 1.01861 0.78654
 C356 C 0.43905 1.00404 0.78216
 C357 C 0.43884 0.98581 0.76370
 C358 C 0.41770 0.98202 0.74946
 C359 C 0.37525 1.04892 0.79611
 C360 C 0.37541 1.06468 0.81219
 C361 C 0.37442 0.97369 0.71978
 C362 C 0.37425 0.95784 0.70379
 H363 H 0.33055 0.99020 0.71463
 H364 H 0.29422 1.01585 0.72255
 H365 H 0.29457 1.04818 0.75540
 H366 H 0.33126 1.05507 0.78051
 H367 H 0.41919 1.03256 0.80111
 H368 H 0.45552 1.00692 0.79317
 H369 H 0.45515 0.97454 0.76037
 H370 H 0.41845 0.96761 0.73531
 C371 C 0.87602 0.50836 0.26116
 C372 C 0.89620 0.50665 0.24453
 C373 C 0.89639 0.48795 0.22568
 C374 C 0.87638 0.47107 0.22358
 C375 C 0.85622 0.47275 0.24024
 C376 C 0.85604 0.49145 0.25909
 C377 C 0.83568 0.49275 0.27553
 C378 C 0.81606 0.47607 0.27341
 C379 C 0.81623 0.45780 0.25498
 C380 C 0.83603 0.45607 0.23854
 C381 C 0.91677 0.48661 0.20928
 C382 C 0.93641 0.50327 0.21142
 C383 C 0.93622 0.52155 0.22984
 C384 C 0.91640 0.52331 0.24625
 C385 C 0.87652 0.45203 0.20426
 C386 C 0.87658 0.43623 0.18822
 C387 C 0.87577 0.52753 0.28034
 C388 C 0.87553 0.54346 0.29624
 H389 H 0.83470 0.50664 0.29018
 H390 H 0.80064 0.47733 0.28615
 H391 H 0.80095 0.44489 0.25341
 H392 H 0.83532 0.44154 0.22451
 H393 H 0.91776 0.47271 0.19466
 H394 H 0.95185 0.50198 0.19872
 H395 H 0.95152 0.53445 0.23143
 H396 H 0.91710 0.53785 0.26027
 C397 C 0.24247 0.12508 0.00778
 C398 C 0.25321 0.14801 0.00011
 C399 C 0.27188 0.14804 -0.01847
 C400 C 0.27969 0.12514 -0.02928
 C401 C 0.26896 0.10221 -0.02160
 C402 C 0.25030 0.10218 -0.00301
 C403 C 0.23987 0.07901 0.00437
 C404 C 0.24763 0.05653 -0.00631
 C405 C 0.26586 0.05656 -0.02450
 C406 C 0.27647 0.07908 -0.03212
 C407 C 0.28235 0.17120 -0.02582
 C408 C 0.27459 0.19369 -0.01514
 C409 C 0.25633 0.19366 0.00302
 C410 C 0.24570 0.17114 0.01062
 C411 C 0.29871 0.12518 -0.04831
 C412 C 0.31449 0.12519 -0.06412
 C413 C 0.22337 0.12504 0.02673
 C414 C 0.20750 0.12499 0.04245
 H415 H 0.22564 0.07802 0.01845
 H416 H 0.23945 0.03898 -0.00045
 H417 H 0.27182 0.03905 -0.03274
 H418 H 0.29058 0.07814 -0.04633
 H419 H 0.29661 0.17219 -0.03987
 H420 H 0.28279 0.21123 -0.02098
 H421 H 0.25036 0.21117 0.01126
 H422 H 0.23156 0.17208 0.02481
 C423 C 0.75845 0.62597 0.49284
 C424 C 0.74759 0.64888 0.50053
 C425 C 0.72894 0.64885 0.51913
 C426 C 0.72127 0.62591 0.52994
 C427 C 0.73213 0.60300 0.52225
 C428 C 0.75077 0.60303 0.50364
 C429 C 0.76133 0.57989 0.49625
 C430 C 0.75372 0.55737 0.50695
 C431 C 0.73551 0.55734 0.52515
 C432 C 0.72477 0.57984 0.53278
 C433 C 0.71835 0.67198 0.52649
 C434 C 0.72597 0.69450 0.51580
 C435 C 0.74420 0.69454 0.49763
 C436 C 0.75496 0.67204 0.49000
 C437 C 0.70222 0.62587 0.54893
 C438 C 0.68640 0.62581 0.56469
 C439 C 0.77748 0.62599 0.47382
 C440 C 0.79327 0.62598 0.45803
 H441 H 0.77556 0.57894 0.48216
 H442 H 0.76200 0.53984 0.50107
 H443 H 0.72966 0.53979 0.53340
 H444 H 0.71067 0.57885 0.54700
 H445 H 0.70409 0.67292 0.54055
 H446 H 0.71767 0.71203 0.52165
 H447 H 0.75006 0.71208 0.48938
 H448 H 0.76907 0.67303 0.47580
 C449 C 0.74173 0.37435 -0.00689
 C450 C 0.74952 0.39728 0.00378
 C451 C 0.76819 0.39726 0.02236
 C452 C 0.77898 0.37433 0.03015
 C453 C 0.77117 0.35139 0.01952
 C454 C 0.75248 0.35141 0.00095
 C455 C 0.74497 0.32825 -0.00940
 C456 C 0.75562 0.30572 -0.00164
 C457 C 0.77390 0.30571 0.01650
 C458 C 0.78165 0.32823 0.02702
 C459 C 0.77566 0.42042 0.03276
 C460 C 0.76500 0.44294 0.02501
 C461 C 0.74675 0.44295 0.00684
 C462 C 0.73903 0.42044 -0.00372
 C463 C 0.79814 0.37432 0.04905
 C464 C 0.81407 0.37431 0.06471
 C465 C 0.72273 0.37437 -0.02594
 C466 C 0.70698 0.37440 -0.04178
 H467 H 0.73081 0.32729 -0.02356
 H468 H 0.74965 0.28818 -0.00975
 H469 H 0.78211 0.28816 0.02247
 H470 H 0.79593 0.32725 0.04108
 H471 H 0.78978 0.42137 0.04696
 H472 H 0.77093 0.46048 0.03316
 H473 H 0.73853 0.46050 0.00089
 H474 H 0.72477 0.42142 -0.01779
 C475 C 0.25675 0.87431 0.50814
 C476 C 0.23850 0.89338 0.50794
 C477 C 0.21985 0.89335 0.48934
 C478 C 0.21955 0.87425 0.47105
 C479 C 0.23778 0.85517 0.47127
 C480 C 0.25643 0.85520 0.48987
 C481 C 0.27446 0.83594 0.48970
 C482 C 0.27408 0.81718 0.47167
 C483 C 0.25584 0.81714 0.45349
 C484 C 0.23785 0.83587 0.45320
 C485 C 0.20183 0.91262 0.48951
 C486 C 0.20221 0.93138 0.50755
 C487 C 0.22044 0.93141 0.52573
 C488 C 0.23843 0.91268 0.52602
 C489 C 0.20052 0.87426 0.45201
 C490 C 0.18473 0.87430 0.43621
 C491 C 0.27584 0.87439 0.52711
 C492 C 0.29170 0.87449 0.54284
 H493 H 0.28902 0.83516 0.50346
 H494 H 0.28801 0.80259 0.47181
 H495 H 0.25562 0.80253 0.43952
 H496 H 0.22404 0.83504 0.43868
 H497 H 0.18727 0.91341 0.47575
 H498 H 0.18828 0.94597 0.50740
 H499 H 0.22066 0.94602 0.53970
 H500 H 0.25223 0.91350 0.54055
   
