data_POSCAR
  _audit_creation_date              2014-09-24
  _audit_creation_method            'ToBaCCo'
  _symmetry_space_group_name_H-M    'P1'
  _symmetry_Int_Tables_number       1
  _symmetry_cell_setting            triclinic
  loop_
  _symmetry_equiv_pos_as_xyz
 x,y,z
_cell_length_a 12.1169
_cell_length_b 12.1188
_cell_length_c 30.7287
_cell_angle_alpha 90.693800
_cell_angle_beta 89.730600
_cell_angle_gamma 120.276500
loop_
  _atom_site_label
  _atom_site_type_symbol
  _atom_site_fract_x
  _atom_site_fract_y
  _atom_site_fract_z
C1 C -0.04119 0.07389 0.52838
 C2 C -0.14604 -0.02075 0.49681
 C3 C -0.10893 -0.09351 0.47304
 C4 C 0.02777 -0.06373 0.48274
 C5 C -0.00759 -0.00842 0.55592
 C6 C 0.02514 -0.08315 0.53240
 C7 C 0.07526 0.15267 0.50031
 C8 C 0.11167 0.08250 0.47612
 H9 H -0.24146 -0.03388 0.49521
 H10 H 0.05932 -0.12112 0.46353
 H11 H -0.02897 -0.02245 0.59054
 H12 H 0.11847 0.25555 0.49677
 C13 C 0.91890 -0.12037 0.19583
 C14 C 1.01572 -0.12908 0.16506
 C15 C 1.08773 -0.01893 0.14176
 C16 C 1.05501 0.08637 0.15138
 C17 C 0.99364 -0.00828 0.22259
 C18 C 1.07136 0.10475 0.19852
 C19 C 0.83909 -0.08743 0.16666
 C20 C 0.90868 0.01986 0.14314
 H21 H 1.02976 -0.21072 0.16336
 H22 H 1.11165 0.17542 0.13251
 H23 H 1.00901 -0.01415 0.25719
 H24 H 0.73629 -0.14872 0.16274
 C25 C 0.12498 1.05070 0.86253
 C26 C 0.13562 1.15441 0.83124
 C27 C 0.02596 1.11550 0.80738
 C28 C -0.08114 0.97830 0.81672
 C29 C 0.00740 1.01597 0.88998
 C30 C -0.09985 0.98146 0.86637
 C31 C 0.08884 0.93414 0.83417
 C32 C -0.01754 0.89588 0.80993
 H33 H 0.21774 1.25043 0.82999
 H34 H -0.16982 0.94532 0.79739
 H35 H 0.01348 1.03789 0.92465
 H36 H 0.14877 0.89135 0.83079
 O37 O 0.59073 -0.04610 0.03985
 O38 O 0.37211 -0.03277 -0.04041
 O39 O 0.55755 -0.08109 -0.04341
 O40 O 0.35889 -0.07610 0.04373
 O41 O 0.46341 0.13504 0.04548
 O42 O 0.67344 0.13009 -0.04262
 O43 O 0.48642 0.17830 -0.03825
 O44 O 0.69805 0.16488 0.04252
 Cu45 Cu 0.45867 -0.07817 0.00006
 Cu46 Cu 0.59159 0.17230 0.00236
 C47 C 0.68380 0.05895 0.05413
 C48 C 0.39426 0.07620 -0.05327
 C49 C 0.64862 0.02134 -0.05797
 C50 C 0.37276 0.02741 0.05873
 O51 O -0.12714 0.33296 0.71094
 O52 O -0.12401 0.54404 0.62312
 O53 O -0.16845 0.31137 0.62656
 O54 O -0.15836 0.53782 0.70762
 O55 O 0.05263 0.64371 0.70668
 O56 O 0.04263 0.41011 0.62622
 O57 O 0.08737 0.64279 0.62356
 O58 O 0.08405 0.44341 0.71064
 Cu59 Cu -0.16520 0.42150 0.66781
 Cu60 Cu 0.08569 0.54331 0.66700
 C61 C -0.01932 0.35236 0.72483
 C62 C -0.01537 0.62892 0.60837
 C63 C -0.06577 0.32207 0.61238
 C64 C -0.05298 0.63086 0.72010
 O65 O 0.58456 0.62365 0.29232
 O66 O 0.35585 0.39990 0.37255
 O67 O 0.55749 0.63432 0.37632
 O68 O 0.35084 0.43677 0.28923
 O69 O 0.44653 0.32219 0.28701
 O70 O 0.66516 0.53164 0.37508
 O71 O 0.46080 0.29480 0.37163
 O72 O 0.68244 0.51133 0.29087
 Cu73 Cu 0.45333 0.53332 0.33317
 Cu74 Cu 0.57289 0.40368 0.33143
 C75 C 0.67188 0.60376 0.27781
 C76 C 0.36933 0.30747 0.38516
 C77 C 0.64849 0.62153 0.38974
 C78 C 0.36192 0.34678 0.27312
 C79 C -0.06754 0.15685 0.55590
 C80 C -0.07159 0.23148 0.58100
 C81 C 0.83621 0.76942 0.22258
 C82 C 0.76188 0.68975 0.24705
 C83 C 0.23378 0.07864 -0.10982
 C84 C 0.31141 0.08297 -0.08463
 C85 C 0.01006 0.80453 0.55330
 C86 C -0.00526 0.71832 0.57635
 C87 C 0.18030 0.19567 0.21848
 C88 C 0.26931 0.26681 0.24122
 C89 C 0.80152 -0.00426 -0.11280
 C90 C 0.72935 0.01087 -0.08986
 C91 C 0.19315 0.00261 0.11381
 C92 C 0.27895 0.01912 0.08955
 C93 C 0.80612 0.80140 0.44479
 C94 C 0.73569 0.71558 0.42043
 C95 C 0.00558 0.19911 0.77952
 C96 C -0.01064 0.26786 0.75542
 C97 C 0.84361 0.04887 0.10999
 C98 C 0.77405 0.05740 0.08397
 C99 C 0.20378 0.14706 0.44208
 C100 C 0.27989 0.21660 0.41546
 C101 C -0.04545 0.80123 0.77632
 C102 C -0.05282 0.72296 0.75005
   
