data_POSCAR
  _audit_creation_date              2014-09-24
  _audit_creation_method            'ToBaCCo'
  _symmetry_space_group_name_H-M    'P1'
  _symmetry_Int_Tables_number       1
  _symmetry_cell_setting            triclinic
  loop_
  _symmetry_equiv_pos_as_xyz
 x,y,z
_cell_length_a 47.6264
_cell_length_b 47.6350
_cell_length_c 47.7061
_cell_angle_alpha 90.015300
_cell_angle_beta 89.979100
_cell_angle_gamma 89.852800
loop_
  _atom_site_label
  _atom_site_type_symbol
  _atom_site_fract_x
  _atom_site_fract_y
  _atom_site_fract_z
C1 C 0.36670 0.32538 0.34640
 C2 C 0.34590 0.32544 0.36721
 C3 C 0.32531 0.34606 0.36722
 C4 C 0.32528 0.36685 0.34641
 C5 C 0.34585 0.36679 0.32586
 C6 C 0.36668 0.34593 0.32585
 C7 C 0.38825 0.30703 0.34028
 N8 N 0.40112 0.31610 0.31666
 C9 C 0.38820 0.33976 0.30756
 C10 C 0.33972 0.38831 0.30758
 N11 N 0.31608 0.40127 0.31668
 C12 C 0.30697 0.38842 0.34029
 C13 C 0.30703 0.33999 0.38874
 N14 N 0.31617 0.31635 0.40163
 C15 C 0.33981 0.30718 0.38873
 H16 H 0.39369 0.28812 0.35166
 H17 H 0.39360 0.35113 0.28867
 H18 H 0.35111 0.39369 0.28869
 H19 H 0.28806 0.39390 0.35168
 H20 H 0.28811 0.35142 0.39417
 H21 H 0.35122 0.28826 0.39415
 C22 C 0.36680 0.82534 -0.15486
 C23 C 0.34600 0.82540 -0.13405
 C24 C 0.32538 0.84598 -0.13406
 C25 C 0.32532 0.86676 -0.15488
 C26 C 0.34588 0.86670 -0.17546
 C27 C 0.36674 0.84587 -0.17545
 C28 C 0.38841 0.80704 -0.16092
 N29 N 0.40129 0.81614 -0.18453
 C30 C 0.38831 0.83974 -0.19371
 C31 C 0.33973 0.88824 -0.19374
 N32 N 0.31609 0.90119 -0.18458
 C33 C 0.30699 0.88832 -0.16096
 C34 C 0.30714 0.83995 -0.11249
 N35 N 0.31633 0.81635 -0.09956
 C36 C 0.33996 0.80718 -0.11247
 H37 H 0.39389 0.78817 -0.14946
 H38 H 0.39371 0.85114 -0.21260
 H39 H 0.35114 0.89363 -0.21263
 H40 H 0.28810 0.89378 -0.14952
 H41 H 0.28823 0.85139 -0.10705
 H42 H 0.35141 0.78829 -0.10702
 C43 C 0.86668 0.32535 -0.15470
 C44 C 0.84588 0.32540 -0.13388
 C45 C 0.82530 0.34602 -0.13385
 C46 C 0.82527 0.36684 -0.15463
 C47 C 0.84582 0.36679 -0.17521
 C48 C 0.86665 0.34592 -0.17525
 C49 C 0.88825 0.30702 -0.16080
 N50 N 0.90113 0.31613 -0.18440
 C51 C 0.88820 0.33978 -0.19353
 C52 C 0.83972 0.38837 -0.19344
 N53 N 0.81611 0.40135 -0.18426
 C54 C 0.80698 0.38846 -0.16066
 C55 C 0.80706 0.33997 -0.11228
 N56 N 0.81622 0.31633 -0.09940
 C57 C 0.83983 0.30715 -0.11234
 H58 H 0.89369 0.28812 -0.14938
 H59 H 0.89361 0.35120 -0.21240
 H60 H 0.85114 0.39377 -0.21232
 H61 H 0.78810 0.39393 -0.14921
 H62 H 0.78817 0.35142 -0.10681
 H63 H 0.85126 0.28824 -0.10693
 C64 C 0.86708 0.82569 0.34603
 C65 C 0.84628 0.82572 0.36684
 C66 C 0.82564 0.84629 0.36685
 C67 C 0.82556 0.86708 0.34604
 C68 C 0.84612 0.86705 0.32547
 C69 C 0.86700 0.84624 0.32546
 C70 C 0.88869 0.80740 0.33993
 N71 N 0.90155 0.81653 0.31632
 C72 C 0.88856 0.84014 0.30718
 C73 C 0.83997 0.88858 0.30719
 N74 N 0.81631 0.90150 0.31634
 C75 C 0.80721 0.88863 0.33996
 C76 C 0.80741 0.84023 0.38842
 N77 N 0.81662 0.81663 0.40134
 C78 C 0.84026 0.80748 0.38841
 H79 H 0.89418 0.78852 0.35136
 H80 H 0.89392 0.85155 0.28829
 H81 H 0.85137 0.89397 0.28830
 H82 H 0.78831 0.89407 0.35139
 H83 H 0.78850 0.85165 0.39387
 H84 H 0.85173 0.78860 0.39385
 C85 C 0.63337 0.67487 0.34629
 C86 C 0.65415 0.67481 0.36711
 C87 C 0.67469 0.65414 0.36716
 C88 C 0.67469 0.63330 0.34640
 C89 C 0.65415 0.63335 0.32584
 C90 C 0.63337 0.65426 0.32578
 C91 C 0.61186 0.69323 0.34012
 N92 N 0.59899 0.68412 0.31651
 C93 C 0.61187 0.66042 0.30748
 C94 C 0.66025 0.61177 0.30760
 N95 N 0.68385 0.59878 0.31674
 C96 C 0.69296 0.61167 0.34034
 C97 C 0.69295 0.66020 0.38870
 N98 N 0.68385 0.68389 0.40155
 C99 C 0.66025 0.69309 0.38861
 H100 H 0.60643 0.71218 0.35146
 H101 H 0.60646 0.64900 0.28861
 H102 H 0.64887 0.60637 0.28871
 H103 H 0.71185 0.60618 0.35174
 H104 H 0.71182 0.64872 0.39416
 H105 H 0.64887 0.71205 0.39400
 C106 C 0.63292 0.17455 -0.15456
 C107 C 0.65372 0.17454 -0.13376
 C108 C 0.67433 0.15394 -0.13375
 C109 C 0.67439 0.13312 -0.15452
 C110 C 0.65383 0.13312 -0.17509
 C111 C 0.63298 0.15396 -0.17511
 C112 C 0.61131 0.19284 -0.16064
 N113 N 0.59843 0.18368 -0.18423
 C114 C 0.61140 0.16005 -0.19336
 C115 C 0.65998 0.11154 -0.19333
 N116 N 0.68362 0.09861 -0.18416
 C117 C 0.69271 0.11153 -0.16057
 C118 C 0.69257 0.16001 -0.11220
 N119 N 0.68340 0.18364 -0.09931
 C120 C 0.65978 0.19280 -0.11222
 H121 H 0.60584 0.21173 -0.14922
 H122 H 0.60600 0.14860 -0.21222
 H123 H 0.64858 0.10611 -0.21221
 H124 H 0.71160 0.10610 -0.14913
 H125 H 0.71147 0.14857 -0.10676
 H126 H 0.64834 0.21171 -0.10679
 C127 C 0.13311 0.67449 -0.15450
 C128 C 0.15394 0.67444 -0.13373
 C129 C 0.17453 0.65383 -0.13376
 C130 C 0.17453 0.63301 -0.15455
 C131 C 0.15394 0.63306 -0.17508
 C132 C 0.13311 0.65392 -0.17506
 C133 C 0.11153 0.69282 -0.16054
 N134 N 0.09861 0.68371 -0.18412
 C135 C 0.11153 0.66006 -0.19329
 C136 C 0.16002 0.61147 -0.19334
 N137 N 0.18365 0.59850 -0.18422
 C138 C 0.19281 0.61140 -0.16064
 C139 C 0.19280 0.65989 -0.11223
 N140 N 0.18365 0.68353 -0.09932
 C141 C 0.16002 0.69269 -0.11220
 H142 H 0.10611 0.71172 -0.14911
 H143 H 0.10610 0.64865 -0.21216
 H144 H 0.14857 0.60607 -0.21220
 H145 H 0.21171 0.60593 -0.14924
 H146 H 0.21171 0.64845 -0.10681
 H147 H 0.14859 0.71161 -0.10676
 C148 C 0.13336 0.17481 0.34545
 C149 C 0.15408 0.17469 0.36633
 C150 C 0.17469 0.15409 0.36633
 C151 C 0.17483 0.13337 0.34544
 C152 C 0.15435 0.13349 0.32480
 C153 C 0.13350 0.15432 0.32481
 C154 C 0.11179 0.19313 0.33937
 N155 N 0.09900 0.18409 0.31568
 C156 C 0.11200 0.16050 0.30649
 C157 C 0.16054 0.11200 0.30648
 N158 N 0.18414 0.09901 0.31565
 C159 C 0.19317 0.11181 0.33934
 C160 C 0.19284 0.16006 0.38798
 N161 N 0.18361 0.18363 0.40095
 C162 C 0.16003 0.19285 0.38799
 H163 H 0.10627 0.21198 0.35086
 H164 H 0.10669 0.14915 0.28755
 H165 H 0.14919 0.10667 0.28754
 H166 H 0.21202 0.10630 0.35082
 H167 H 0.21173 0.14861 0.39344
 H168 H 0.14856 0.21172 0.39346
 C169 C 0.63321 0.32527 0.65394
 C170 C 0.65399 0.32530 0.63310
 C171 C 0.67452 0.34586 0.63310
 C172 C 0.67452 0.36663 0.65393
 C173 C 0.65399 0.36661 0.67452
 C174 C 0.63321 0.34580 0.67452
 C175 C 0.61172 0.30698 0.66006
 N176 N 0.59884 0.31605 0.68371
 C177 C 0.61172 0.33966 0.69283
 C178 C 0.66011 0.38810 0.69283
 N179 N 0.68371 0.40099 0.68370
 C180 C 0.69279 0.38814 0.66005
 C181 C 0.69280 0.33977 0.61155
 N182 N 0.68371 0.31617 0.59864
 C183 C 0.66011 0.30704 0.61155
 H184 H 0.60631 0.28810 0.64865
 H185 H 0.60631 0.35103 0.71174
 H186 H 0.64874 0.39349 0.71175
 H187 H 0.71168 0.39356 0.64864
 H188 H 0.71168 0.35117 0.60613
 H189 H 0.64875 0.28814 0.60612
 C190 C 0.63258 0.82536 1.15442
 C191 C 0.65334 0.82535 1.13357
 C192 C 0.67397 0.84581 1.13362
 C193 C 0.67410 0.86651 1.15451
 C194 C 0.65360 0.86652 1.17513
 C195 C 0.63271 0.84583 1.17509
 C196 C 0.61097 0.80717 1.16047
 N197 N 0.59816 0.81627 1.18415
 C198 C 0.61117 0.83977 1.19338
 C199 C 0.65984 0.88796 1.19347
 N200 N 0.68348 0.90077 1.18433
 C201 C 0.69247 0.88792 1.16064
 C202 C 0.69219 0.83973 1.11202
 N203 N 0.68297 0.81622 1.09903
 C204 C 0.65934 0.80715 1.11193
 H205 H 0.60546 0.78837 1.14896
 H206 H 0.60584 0.85113 1.21233
 H207 H 0.64851 0.89337 1.21241
 H208 H 0.71135 0.89331 1.14920
 H209 H 0.71111 0.85106 1.10661
 H210 H 0.64788 0.78833 1.10644
 C211 C 0.13271 0.32518 1.15428
 C212 C 0.15343 0.32528 1.13339
 C213 C 0.17390 0.34591 1.13333
 C214 C 0.17389 0.36668 1.15416
 C215 C 0.15342 0.36659 1.17482
 C216 C 0.13270 0.34572 1.17488
 C217 C 0.11128 0.30682 1.16043
 N218 N 0.09844 0.31588 1.18411
 C219 C 0.11126 0.33952 1.19324
 C220 C 0.15950 0.38813 1.19308
 N221 N 0.18302 0.40112 1.18387
 C222 C 0.19209 0.38827 1.16020
 C223 C 0.19211 0.33988 1.11171
 N224 N 0.18305 0.31625 1.09883
 C225 C 0.15953 0.30705 1.11181
 H226 H 0.10591 0.28794 1.14899
 H227 H 0.10587 0.35090 1.21217
 H228 H 0.14816 0.39350 1.21202
 H229 H 0.21090 0.39378 1.14872
 H230 H 0.21094 0.35134 1.10623
 H231 H 0.14820 0.28813 1.10642
 C232 C 0.13358 0.82599 0.65440
 C233 C 0.15428 0.82608 0.63350
 C234 C 0.17483 0.84663 0.63350
 C235 C 0.17491 0.86733 0.65440
 C236 C 0.15443 0.86724 0.67507
 C237 C 0.13365 0.84644 0.67506
 C238 C 0.11209 0.80768 0.66049
 N239 N 0.09929 0.81667 0.68421
 C240 C 0.11220 0.84024 0.69340
 C241 C 0.16059 0.88869 0.69342
 N242 N 0.18415 0.90162 0.68422
 C243 C 0.19320 0.88884 0.66051
 C244 C 0.19302 0.84061 0.61185
 N245 N 0.18386 0.81705 0.59889
 C246 C 0.16030 0.80790 0.61186
 H247 H 0.10663 0.78886 0.64902
 H248 H 0.10684 0.85154 0.71236
 H249 H 0.14925 0.89401 0.71238
 H250 H 0.21203 0.89430 0.64902
 H251 H 0.21189 0.85201 0.60640
 H252 H 0.14891 0.78903 0.60641
 C253 C 0.36678 0.67430 0.65369
 C254 C 0.34602 0.67430 0.63285
 C255 C 0.32543 0.65380 0.63286
 C256 C 0.32535 0.63305 0.65372
 C257 C 0.34587 0.63306 0.67431
 C258 C 0.36670 0.65381 0.67430
 C259 C 0.38829 0.69257 0.65981
 N260 N 0.40110 0.68351 0.68348
 C261 C 0.38817 0.65994 0.69262
 C262 C 0.33968 0.61162 0.69264
 N263 N 0.31606 0.59876 0.68353
 C264 C 0.30701 0.61160 0.65986
 C265 C 0.30719 0.65993 0.61130
 N266 N 0.31637 0.68350 0.59839
 C267 C 0.33998 0.69256 0.61130
 H268 H 0.39374 0.71143 0.64839
 H269 H 0.39352 0.64861 0.71156
 H270 H 0.35102 0.60622 0.71156
 H271 H 0.28813 0.60620 0.64845
 H272 H 0.28827 0.64860 0.60589
 H273 H 0.35141 0.71142 0.60587
 C274 C 0.36654 0.17394 1.15395
 C275 C 0.34575 0.17395 1.13315
 C276 C 0.32513 0.15348 1.13320
 C277 C 0.32506 0.13274 1.15406
 C278 C 0.34561 0.13273 1.17463
 C279 C 0.36647 0.15345 1.17457
 C280 C 0.38812 0.19215 1.16000
 N281 N 0.40098 0.18307 1.18364
 C282 C 0.38802 0.15953 1.19282
 C283 C 0.33945 0.11128 1.19297
 N284 N 0.31580 0.09845 1.18386
 C285 C 0.30671 0.11130 1.16021
 C286 C 0.30688 0.15959 1.11166
 N287 N 0.31606 0.18313 1.09870
 C288 C 0.33970 0.19219 1.11157
 H289 H 0.39360 0.21098 1.14854
 H290 H 0.39340 0.14818 1.21174
 H291 H 0.35084 0.10589 1.21187
 H292 H 0.28781 0.10593 1.14880
 H293 H 0.28795 0.14826 1.10627
 H294 H 0.35114 0.21102 1.10609
 C295 C 0.86681 0.67467 1.15413
 C296 C 0.84608 0.67453 1.13327
 C297 C 0.82566 0.65386 1.13321
 C298 C 0.82573 0.63308 1.15402
 C299 C 0.84622 0.63321 1.17465
 C300 C 0.86688 0.65413 1.17470
 C301 C 0.88820 0.69307 1.16028
 N302 N 0.90107 0.68406 1.18394
 C303 C 0.88831 0.66038 1.19303
 C304 C 0.84018 0.61167 1.19292
 N305 N 0.81667 0.59865 1.18374
 C306 C 0.80756 0.61147 1.16009
 C307 C 0.80740 0.65986 1.11164
 N308 N 0.81639 0.68352 1.09877
 C309 C 0.83991 0.69277 1.11172
 H310 H 0.89354 0.71198 1.14889
 H311 H 0.89375 0.64903 1.21194
 H312 H 0.85153 0.60634 1.21185
 H313 H 0.78874 0.60594 1.14864
 H314 H 0.78859 0.64837 1.10618
 H315 H 0.85119 0.71173 1.10633
 C316 C 0.86746 0.17475 0.65452
 C317 C 0.84680 0.17464 0.63359
 C318 C 0.82626 0.15408 0.63357
 C319 C 0.82614 0.13340 0.65448
 C320 C 0.84656 0.13350 0.67516
 C321 C 0.86735 0.15430 0.67519
 C322 C 0.88894 0.19307 0.66064
 N323 N 0.90170 0.18405 0.68438
 C324 C 0.88876 0.16049 0.69356
 C325 C 0.84034 0.11207 0.69350
 N326 N 0.81679 0.09914 0.68429
 C327 C 0.80784 0.11192 0.66056
 C328 C 0.80810 0.16008 0.61192
 N329 N 0.81725 0.18363 0.59897
 C330 C 0.84079 0.19281 0.61194
 H331 H 0.89441 0.21189 0.64915
 H332 H 0.89407 0.14918 0.71254
 H333 H 0.85160 0.10674 0.71249
 H334 H 0.78903 0.10644 0.64907
 H335 H 0.78924 0.14867 0.60646
 H336 H 0.85218 0.21169 0.60650
 C337 C 0.32500 0.36642 0.65451
 C338 C 0.32503 0.34560 0.63373
 C339 C 0.34562 0.32499 0.63373
 C340 C 0.36643 0.32496 0.65452
 C341 C 0.36640 0.34554 0.67506
 C342 C 0.34556 0.36640 0.67506
 C343 C 0.30672 0.38804 0.66057
 N344 N 0.31582 0.40096 0.68415
 C345 C 0.33945 0.38800 0.69328
 C346 C 0.38799 0.33943 0.69329
 N347 N 0.40095 0.31579 0.68416
 C348 C 0.38803 0.30668 0.66058
 C349 C 0.33956 0.30674 0.61218
 N350 N 0.31594 0.31592 0.59928
 C351 C 0.30678 0.33955 0.61218
 H352 H 0.28783 0.39352 0.64916
 H353 H 0.35086 0.39344 0.71214
 H354 H 0.39344 0.35085 0.71214
 H355 H 0.39351 0.28779 0.64917
 H356 H 0.35100 0.28784 0.60674
 H357 H 0.28788 0.35100 0.60674
 C358 C 0.32527 0.86755 0.15330
 C359 C 0.32528 0.84672 0.13251
 C360 C 0.34592 0.82616 0.13246
 C361 C 0.36679 0.82617 0.15320
 C362 C 0.36677 0.84675 0.17374
 C363 C 0.34589 0.86756 0.17379
 C364 C 0.30694 0.88910 0.15945
 N365 N 0.31609 0.90202 0.18302
 C366 C 0.33977 0.88911 0.19206
 C367 C 0.38837 0.84066 0.19195
 N368 N 0.40133 0.81703 0.18282
 C369 C 0.38840 0.80789 0.15925
 C370 C 0.33984 0.80787 0.11096
 N371 N 0.31616 0.81698 0.09812
 C372 C 0.30698 0.84061 0.11103
 H373 H 0.28800 0.89454 0.14811
 H374 H 0.35122 0.89456 0.21089
 H375 H 0.39379 0.85207 0.21081
 H376 H 0.39386 0.78898 0.14787
 H377 H 0.35130 0.78898 0.10550
 H378 H 0.28804 0.85200 0.10564
 C379 C 0.82593 0.36638 0.15353
 C380 C 0.82597 0.34557 0.13274
 C381 C 0.84659 0.32498 0.13272
 C382 C 0.86742 0.32497 0.15349
 C383 C 0.86738 0.34555 0.17403
 C384 C 0.84652 0.36637 0.17405
 C385 C 0.80760 0.38794 0.15965
 N386 N 0.81671 0.40084 0.18324
 C387 C 0.84038 0.38792 0.19232
 C388 C 0.88895 0.33946 0.19227
 N389 N 0.90192 0.31582 0.18316
 C390 C 0.88902 0.30669 0.15958
 C391 C 0.84051 0.30671 0.11118
 N392 N 0.81686 0.31586 0.09831
 C393 C 0.80770 0.33949 0.11122
 H394 H 0.78868 0.39338 0.14828
 H395 H 0.85178 0.39334 0.21118
 H396 H 0.89436 0.35088 0.21113
 H397 H 0.89451 0.28779 0.14819
 H398 H 0.85195 0.28781 0.10574
 H399 H 0.78878 0.35091 0.10581
 C400 C 0.82569 0.86706 0.65453
 C401 C 0.82577 0.84629 0.63370
 C402 C 0.84638 0.82570 0.63369
 C403 C 0.86715 0.82563 0.65451
 C404 C 0.86707 0.84617 0.67510
 C405 C 0.84622 0.86700 0.67511
 C406 C 0.80737 0.88863 0.66063
 N407 N 0.81643 0.90149 0.68426
 C408 C 0.84005 0.88853 0.69339
 C409 C 0.88861 0.84002 0.69337
 N410 N 0.90158 0.81640 0.68423
 C411 C 0.88873 0.80733 0.66060
 C412 C 0.84035 0.80747 0.61211
 N413 N 0.81674 0.81664 0.59919
 C414 C 0.80755 0.84025 0.61212
 H415 H 0.78849 0.89412 0.64921
 H416 H 0.85142 0.89393 0.71228
 H417 H 0.89399 0.85139 0.71227
 H418 H 0.89423 0.78846 0.64917
 H419 H 0.85180 0.78857 0.60666
 H420 H 0.78864 0.85168 0.60669
 C421 C 0.67494 0.63333 0.65441
 C422 C 0.67493 0.65415 0.63363
 C423 C 0.65432 0.67474 0.63362
 C424 C 0.63348 0.67475 0.65439
 C425 C 0.63349 0.65418 0.67493
 C426 C 0.65434 0.63334 0.67493
 C427 C 0.69323 0.61173 0.66048
 N428 N 0.68409 0.59881 0.68405
 C429 C 0.66044 0.61176 0.69316
 C430 C 0.61188 0.66028 0.69314
 N431 N 0.59892 0.68391 0.68402
 C432 C 0.61186 0.69303 0.66045
 C433 C 0.66039 0.69299 0.61209
 N434 N 0.68404 0.68385 0.59920
 C435 C 0.69321 0.66022 0.61210
 H436 H 0.71214 0.60626 0.64909
 H437 H 0.64900 0.60631 0.71200
 H438 H 0.60642 0.64887 0.71199
 H439 H 0.60639 0.71192 0.64905
 H440 H 0.64894 0.71189 0.60665
 H441 H 0.71212 0.64879 0.60666
 C442 C 0.67512 0.13259 0.15371
 C443 C 0.67504 0.15336 0.13288
 C444 C 0.65434 0.17387 0.13281
 C445 C 0.63349 0.17387 0.15356
 C446 C 0.63357 0.15335 0.17415
 C447 C 0.65450 0.13259 0.17422
 C448 C 0.69349 0.11110 0.15989
 N449 N 0.68438 0.09823 0.18350
 C450 C 0.66067 0.11111 0.19253
 C451 C 0.61197 0.15944 0.19238
 N452 N 0.59896 0.18302 0.18322
 C453 C 0.61184 0.19211 0.15961
 C454 C 0.66037 0.19211 0.11125
 N455 N 0.68407 0.18303 0.09840
 C456 C 0.69331 0.15947 0.11136
 H457 H 0.71244 0.10567 0.14854
 H458 H 0.64924 0.10569 0.21139
 H459 H 0.60659 0.14807 0.21128
 H460 H 0.60634 0.21098 0.14819
 H461 H 0.64886 0.21096 0.10577
 H462 H 0.71229 0.14810 0.10597
 C463 C 0.17413 0.63366 0.15358
 C464 C 0.17414 0.65449 0.13282
 C465 C 0.15364 0.67519 0.13290
 C466 C 0.13288 0.67530 0.15376
 C467 C 0.13287 0.65471 0.17428
 C468 C 0.15361 0.63377 0.17419
 C469 C 0.19236 0.61200 0.15961
 N470 N 0.18326 0.59914 0.18322
 C471 C 0.15969 0.61218 0.19241
 C472 C 0.11138 0.66091 0.19260
 N473 N 0.09851 0.68462 0.18356
 C474 C 0.11139 0.69370 0.15994
 C475 C 0.15974 0.69344 0.11137
 N476 N 0.18330 0.68417 0.09839
 C477 C 0.19238 0.66048 0.11124
 H478 H 0.21122 0.60647 0.14817
 H479 H 0.14833 0.60682 0.21132
 H480 H 0.10595 0.64951 0.21146
 H481 H 0.10596 0.71263 0.14858
 H482 H 0.14839 0.71241 0.10599
 H483 H 0.21122 0.64896 0.10574
 C484 C 0.17410 0.13265 0.65413
 C485 C 0.17406 0.15344 0.63332
 C486 C 0.15346 0.17405 0.63334
 C487 C 0.13267 0.17411 0.65416
 C488 C 0.13271 0.15356 0.67472
 C489 C 0.15355 0.13270 0.67470
 C490 C 0.19241 0.11107 0.66020
 N491 N 0.18333 0.09819 0.68381
 C492 C 0.15970 0.11115 0.69296
 C493 C 0.11116 0.15971 0.69299
 N494 N 0.09822 0.18335 0.68388
 C495 C 0.11110 0.19242 0.66026
 C496 C 0.15952 0.19230 0.61180
 N497 N 0.18315 0.18313 0.59888
 C498 C 0.19231 0.15950 0.61177
 H499 H 0.21129 0.10558 0.64877
 H500 H 0.14832 0.10575 0.71185
 H501 H 0.10575 0.14833 0.71188
 H502 H 0.10562 0.21131 0.64886
 H503 H 0.14810 0.21122 0.60638
 H504 H 0.21122 0.14806 0.60633
 C505 C 0.32555 0.63353 0.34544
 C506 C 0.32557 0.65431 0.36625
 C507 C 0.34610 0.67487 0.36622
 C508 C 0.36686 0.67489 0.34537
 C509 C 0.36685 0.65434 0.32480
 C510 C 0.34607 0.63354 0.32483
 C511 C 0.30730 0.61198 0.33939
 N512 N 0.31638 0.59908 0.31576
 C513 C 0.33996 0.61199 0.30658
 C514 C 0.38837 0.66045 0.30651
 N515 N 0.40126 0.68405 0.31564
 C516 C 0.38838 0.69315 0.33927
 C517 C 0.34002 0.69313 0.38779
 N518 N 0.31644 0.68400 0.40073
 C519 C 0.30733 0.66040 0.38783
 H520 H 0.28845 0.60654 0.35085
 H521 H 0.35132 0.60656 0.28767
 H522 H 0.39380 0.64906 0.28761
 H523 H 0.39382 0.71201 0.35069
 H524 H 0.35140 0.71201 0.39321
 H525 H 0.28846 0.64900 0.39330
 C526 C 0.32562 0.13231 0.84612
 C527 C 0.32554 0.15315 0.86689
 C528 C 0.34611 0.17367 0.86693
 C529 C 0.36701 0.17360 0.84622
 C530 C 0.36709 0.15300 0.82569
 C531 C 0.34627 0.13223 0.82564
 C532 C 0.30736 0.11080 0.83998
 N533 N 0.31656 0.09784 0.81643
 C534 C 0.34023 0.11068 0.80738
 C535 C 0.38870 0.15905 0.80749
 N536 N 0.40156 0.18267 0.81662
 C537 C 0.38857 0.19183 0.84017
 C538 C 0.33993 0.19200 0.88841
 N539 N 0.31625 0.18295 0.90123
 C540 C 0.30718 0.15933 0.88833
 H541 H 0.28842 0.10543 0.85131
 H542 H 0.35170 0.10520 0.78855
 H543 H 0.39419 0.14763 0.78863
 H544 H 0.39394 0.21074 0.85155
 H545 H 0.35131 0.21087 0.89385
 H546 H 0.28826 0.14797 0.89371
 C547 C 0.82607 0.63266 0.84641
 C548 C 0.82596 0.65355 0.86713
 C549 C 0.84649 0.67411 0.86712
 C550 C 0.86738 0.67403 0.84640
 C551 C 0.86749 0.65339 0.82592
 C552 C 0.84672 0.63258 0.82593
 C553 C 0.80783 0.61113 0.84031
 N554 N 0.81705 0.59814 0.81678
 C555 C 0.84069 0.61099 0.80770
 C556 C 0.88908 0.65943 0.80770
 N557 N 0.90191 0.68309 0.81677
 C558 C 0.88891 0.69229 0.84031
 C559 C 0.84027 0.69248 0.88856
 N560 N 0.81661 0.68341 0.90140
 C561 C 0.80758 0.65974 0.88856
 H562 H 0.78889 0.60576 0.85165
 H563 H 0.85216 0.60551 0.78887
 H564 H 0.89459 0.64797 0.78887
 H565 H 0.89425 0.71123 0.85164
 H566 H 0.85162 0.71139 0.89396
 H567 H 0.78869 0.64837 0.89396
 C568 C 0.82672 0.13255 0.34609
 C569 C 0.82671 0.15337 0.36686
 C570 C 0.84724 0.17394 0.36682
 C571 C 0.86803 0.17391 0.34601
 C572 C 0.86805 0.15332 0.32547
 C573 C 0.84727 0.13252 0.32551
 C574 C 0.80846 0.11102 0.34003
 N575 N 0.81757 0.09809 0.31642
 C576 C 0.84117 0.11097 0.30726
 C577 C 0.88956 0.15941 0.30717
 N578 N 0.90243 0.18304 0.31625
 C579 C 0.88954 0.19218 0.33987
 C580 C 0.84110 0.19225 0.38833
 N581 N 0.81750 0.18315 0.40125
 C582 C 0.80842 0.15951 0.38839
 H583 H 0.78958 0.10562 0.35144
 H584 H 0.85255 0.10552 0.28837
 H585 H 0.89500 0.14800 0.28829
 H586 H 0.89494 0.21109 0.35124
 H587 H 0.85247 0.21115 0.39372
 H588 H 0.78954 0.14812 0.39384
 C589 C 0.67451 0.36649 0.34593
 C590 C 0.67454 0.34568 0.36671
 C591 C 0.65402 0.32511 0.36670
 C592 C 0.63322 0.32510 0.34590
 C593 C 0.63320 0.34567 0.32535
 C594 C 0.65396 0.36648 0.32537
 C595 C 0.69275 0.38803 0.33985
 N596 N 0.68364 0.40093 0.31625
 C597 C 0.66005 0.38802 0.30711
 C598 C 0.61167 0.33956 0.30709
 N599 N 0.59881 0.31594 0.31619
 C600 C 0.61172 0.30682 0.33979
 C601 C 0.66016 0.30683 0.38822
 N602 N 0.68376 0.31596 0.40112
 C603 C 0.69282 0.33959 0.38823
 H604 H 0.71163 0.39346 0.35125
 H605 H 0.64866 0.39345 0.28823
 H606 H 0.60622 0.35096 0.28821
 H607 H 0.60632 0.28793 0.35118
 H608 H 0.64880 0.28793 0.39364
 H609 H 0.71169 0.35100 0.39367
 C610 C 0.67374 0.86751 0.84644
 C611 C 0.67377 0.84666 0.86719
 C612 C 0.65320 0.82613 0.86716
 C613 C 0.63238 0.82621 0.84640
 C614 C 0.63235 0.84681 0.82589
 C615 C 0.65316 0.86759 0.82592
 C616 C 0.69203 0.88902 0.84036
 N617 N 0.68290 0.90197 0.81679
 C618 C 0.65926 0.88914 0.80768
 C619 C 0.61082 0.84075 0.80762
 N620 N 0.59795 0.81712 0.81669
 C621 C 0.61086 0.80795 0.84026
 C622 C 0.65935 0.80778 0.88861
 N623 N 0.68299 0.81682 0.90149
 C624 C 0.69208 0.84046 0.88865
 H625 H 0.71094 0.89438 0.85173
 H626 H 0.64785 0.89461 0.78882
 H627 H 0.60539 0.85218 0.78876
 H628 H 0.60547 0.78902 0.85160
 H629 H 0.64796 0.78888 0.89399
 H630 H 0.71099 0.85181 0.89408
 C631 C 0.17355 0.36718 0.84628
 C632 C 0.17360 0.34630 0.86700
 C633 C 0.15307 0.32574 0.86696
 C634 C 0.13224 0.32580 0.84619
 C635 C 0.13219 0.34643 0.82571
 C636 C 0.15296 0.36724 0.82575
 C637 C 0.19180 0.38872 0.84022
 N638 N 0.18265 0.40169 0.81667
 C639 C 0.15903 0.38882 0.80754
 C640 C 0.11064 0.34037 0.80745
 N641 N 0.09780 0.31671 0.81650
 C642 C 0.11074 0.30754 0.84006
 C643 C 0.15924 0.30739 0.88841
 N644 N 0.18286 0.31646 0.90130
 C645 C 0.19192 0.34013 0.88847
 H646 H 0.21070 0.39410 0.85160
 H647 H 0.14762 0.39430 0.78868
 H648 H 0.10518 0.35181 0.78861
 H649 H 0.10536 0.28861 0.85139
 H650 H 0.14788 0.28848 0.89378
 H651 H 0.21080 0.35151 0.89391
 C652 C 0.17418 0.86811 0.34609
 C653 C 0.17423 0.84731 0.36689
 C654 C 0.15365 0.82680 0.36695
 C655 C 0.13279 0.82683 0.34622
 C656 C 0.13274 0.84739 0.32567
 C657 C 0.15356 0.86815 0.32560
 C658 C 0.19247 0.88960 0.33993
 N659 N 0.18330 0.90251 0.31635
 C660 C 0.15964 0.88966 0.30731
 C661 C 0.11117 0.84131 0.30746
 N662 N 0.09829 0.81771 0.31660
 C663 C 0.11124 0.80859 0.34018
 C664 C 0.15981 0.80850 0.38845
 N665 N 0.18348 0.81755 0.40126
 C666 C 0.19258 0.84116 0.38835
 H667 H 0.21140 0.89499 0.35126
 H668 H 0.14820 0.89510 0.28846
 H669 H 0.10570 0.85269 0.28858
 H670 H 0.10585 0.78970 0.35158
 H671 H 0.14842 0.78963 0.39390
 H672 H 0.21150 0.85250 0.39371
 O673 O 0.28546 0.97360 0.24670
 O674 O 0.24706 1.02850 0.28543
 O675 O 0.24697 0.97376 0.28540
 O676 O 0.28561 1.02834 0.24678
 O677 O 0.25269 1.02851 0.21409
 O678 O 0.21405 0.97392 0.25271
 O679 O 0.21415 1.02867 0.25274
 O680 O 0.25254 0.97377 0.21402
 Cu681 Cu 0.26960 1.00103 0.26937
 Cu682 Cu 0.23003 1.00124 0.23009
 C683 C 0.27543 0.96435 0.22388
 C684 C 0.22417 1.03792 0.27557
 C685 C 0.22404 0.96455 0.27552
 C686 C 0.27562 1.03770 0.22396
 O687 O 0.21352 0.47312 0.75314
 O688 O 0.25225 0.52761 0.71448
 O689 O 0.25223 0.47286 0.71467
 O690 O 0.21364 0.52788 0.75307
 O691 O 0.24645 0.52782 0.78586
 O692 O 0.28503 0.47282 0.74747
 O693 O 0.28506 0.52757 0.74728
 O694 O 0.24632 0.47307 0.78594
 Cu695 Cu 0.22960 0.50037 0.73053
 Cu696 Cu 0.26902 0.50032 0.76995
 C697 C 0.22344 0.46381 0.77600
 C698 C 0.27514 0.53685 0.72440
 C699 C 0.27509 0.46348 0.72464
 C700 C 0.22359 0.53721 0.77590
 O701 O 0.74757 -0.02821 0.21489
 O702 O 0.78652 0.02644 0.25311
 O703 O 0.78628 -0.02830 0.25335
 O704 O 0.74791 0.02652 0.21456
 O705 O 0.71511 0.02694 0.24738
 O706 O 0.75348 -0.02790 0.28618
 O707 O 0.75372 0.02685 0.28593
 O708 O 0.71477 -0.02779 0.24772
 Cu709 Cu 0.77039 -0.00093 0.23067
 Cu710 Cu 0.73096 -0.00043 0.27012
 C711 C 0.72465 -0.03729 0.22490
 C712 C 0.77664 0.03595 0.27592
 C713 C 0.77631 -0.03743 0.27625
 C714 C 0.72508 0.03605 0.22447
 O715 O 0.78623 0.52670 0.75319
 O716 O 0.74749 0.47219 0.71457
 O717 O 0.74761 0.52693 0.71466
 O718 O 0.78612 0.47194 0.75310
 O719 O 0.75330 0.47205 0.78590
 O720 O 0.71478 0.52704 0.74746
 O721 O 0.71466 0.47229 0.74737
 O722 O 0.75341 0.52680 0.78599
 Cu723 Cu 0.77018 0.49943 0.73057
 Cu724 Cu 0.73073 0.49955 0.76999
 C725 C 0.77630 0.53603 0.77605
 C726 C 0.72459 0.46297 0.72451
 C727 C 0.72475 0.53634 0.72462
 C728 C 0.77616 0.46264 0.77593
 O729 O 0.21397 0.52765 0.24687
 O730 O 0.25248 0.47293 0.28567
 O731 O 0.25264 0.52767 0.28535
 O732 O 0.21386 0.47289 0.24713
 O733 O 0.24668 0.47257 0.21431
 O734 O 0.28545 0.52734 0.25253
 O735 O 0.28529 0.47260 0.25286
 O736 O 0.24678 0.52732 0.21406
 Cu737 Cu 0.22993 0.50032 0.26956
 Cu738 Cu 0.26936 0.49992 0.23013
 C739 C 0.22393 0.53680 0.22398
 C740 C 0.27534 0.46346 0.27576
 C741 C 0.27554 0.53682 0.27534
 C742 C 0.22378 0.46341 0.22432
 O743 O 0.74664 1.02804 0.78612
 O744 O 0.78540 0.97311 0.74778
 O745 O 0.78552 1.02785 0.74782
 O746 O 0.74664 0.97329 0.78620
 O747 O 0.71397 0.97338 0.75327
 O748 O 0.75286 1.02796 0.71488
 O749 O 0.75273 0.97322 0.71484
 O750 O 0.71397 1.02813 0.75318
 Cu751 Cu 0.76934 1.00057 0.77030
 Cu752 Cu 0.73008 1.00068 0.73072
 C753 C 0.72381 1.03743 0.77607
 C754 C 0.77555 0.96383 0.72488
 C755 C 0.77571 1.03718 0.72492
 C756 C 0.72380 0.96405 0.77616
 O757 O 0.78592 0.47226 0.24699
 O758 O 0.74742 0.52703 0.28578
 O759 O 0.74732 0.47229 0.28558
 O760 O 0.78597 0.52700 0.24716
 O761 O 0.75310 0.52722 0.21443
 O762 O 0.71445 0.47251 0.25284
 O763 O 0.71455 0.52726 0.25305
 O764 O 0.75305 0.47248 0.21425
 Cu765 Cu 0.76997 0.49962 0.26968
 Cu766 Cu 0.73047 0.49989 0.23034
 C767 C 0.77593 0.46306 0.22412
 C768 C 0.72454 0.53646 0.27591
 C769 C 0.72441 0.46310 0.27564
 C770 C 0.77600 0.53642 0.22436
 O771 O 0.24712 -0.02824 0.71427
 O772 O 0.28577 0.02640 0.75282
 O773 O 0.28583 -0.02836 0.75272
 O774 O 0.24707 0.02651 0.71436
 O775 O 0.21430 0.02652 0.74722
 O776 O 0.25306 -0.02835 0.78558
 O777 O 0.25300 0.02640 0.78568
 O778 O 0.21435 -0.02823 0.74713
 Cu779 Cu 0.26975 -0.00092 0.73023
 Cu780 Cu 0.23037 -0.00091 0.76972
 C781 C 0.22426 -0.03752 0.72425
 C782 C 0.27586 0.03570 0.77570
 C783 C 0.27593 -0.03769 0.77558
 C784 C 0.22420 0.03585 0.72437
 O785 O 0.24663 0.28544 0.97257
 O786 O 0.28528 0.24676 1.02720
 O787 O 0.28527 0.24674 0.97254
 O788 O 0.24665 0.28544 1.02723
 O789 O 0.21383 0.25268 1.02725
 O790 O 0.25246 0.21398 0.97256
 O791 O 0.25246 0.21400 1.02722
 O792 O 0.21381 0.25268 0.97258
 Cu793 Cu 0.26927 0.26940 0.99988
 Cu794 Cu 0.22983 0.23003 0.99990
 C795 C 0.22374 0.27554 0.96329
 C796 C 0.27534 0.22391 1.03651
 C797 C 0.27534 0.22388 0.96325
 C798 C 0.22378 0.27554 1.03655
 O799 O 0.21438 0.75357 0.52712
 O800 O 0.25286 0.71490 0.47230
 O801 O 0.25283 0.71471 0.52697
 O802 O 0.21431 0.75368 0.47246
 O803 O 0.24724 0.78634 0.47252
 O804 O 0.28576 0.74736 0.52705
 O805 O 0.28578 0.74755 0.47238
 O806 O 0.24731 0.78622 0.52719
 Cu807 Cu 0.23027 0.73092 0.49970
 Cu808 Cu 0.26985 0.77016 0.49979
 C809 C 0.22441 0.77636 0.53649
 C810 C 0.27576 0.72475 0.46302
 C811 C 0.27574 0.72451 0.53629
 C812 C 0.22432 0.77654 0.46322
 O813 O 0.28564 0.75300 -0.02786
 O814 O 0.24698 0.71463 0.02689
 O815 O 0.24712 0.71440 -0.02778
 O816 O 0.28554 0.75320 0.02681
 O817 O 0.25264 0.78606 0.02665
 O818 O 0.21422 0.74725 -0.02795
 O819 O 0.21408 0.74749 0.02672
 O820 O 0.25274 0.78585 -0.02802
 Cu821 Cu 0.26964 0.73050 -0.00046
 Cu822 Cu 0.23010 0.76998 -0.00067
 C823 C 0.27566 0.77585 -0.03726
 C824 C 0.22406 0.72464 0.03612
 C825 C 0.22424 0.72433 -0.03716
 C826 C 0.27553 0.77612 0.03602
 O827 O 0.21400 0.24691 0.47283
 O828 O 0.25245 0.28535 0.52768
 O829 O 0.25252 0.28551 0.47301
 O830 O 0.21389 0.24678 0.52751
 O831 O 0.24678 0.21393 0.52746
 O832 O 0.28541 0.25266 0.47295
 O833 O 0.28534 0.25249 0.52762
 O834 O 0.24689 0.21406 0.47278
 Cu835 Cu 0.22989 0.26945 0.50027
 Cu836 Cu 0.26942 0.22997 0.50020
 C837 C 0.22402 0.22406 0.46347
 C838 C 0.27534 0.27535 0.53697
 C839 C 0.27543 0.27556 0.46370
 C840 C 0.22387 0.22387 0.53677
 O841 O 0.74670 0.78577 0.97277
 O842 O 0.78539 0.74710 1.02737
 O843 O 0.78542 0.74714 0.97272
 O844 O 0.74660 0.78562 1.02744
 O845 O 0.71388 0.75276 1.02734
 O846 O 0.75269 0.71429 0.97263
 O847 O 0.75267 0.71423 1.02729
 O848 O 0.71397 0.75292 0.97268
 Cu849 Cu 0.76933 0.76972 1.00008
 Cu850 Cu 0.73000 0.73023 0.99997
 C851 C 0.72386 0.77583 0.96344
 C852 C 0.77550 0.72420 1.03662
 C853 C 0.77556 0.72426 0.96338
 C854 C 0.72375 0.77562 1.03670
 O855 O 0.74751 0.28536 0.47254
 O856 O 0.78634 0.24700 0.52726
 O857 O 0.78636 0.24688 0.47259
 O858 O 0.74749 0.28546 0.52720
 O859 O 0.71484 0.25252 0.52724
 O860 O 0.75372 0.21395 0.47264
 O861 O 0.75369 0.21406 0.52731
 O862 O 0.71487 0.25243 0.47258
 Cu863 Cu 0.77022 0.26950 0.49989
 Cu864 Cu 0.73099 0.22991 0.49994
 C865 C 0.72469 0.27533 0.46326
 C866 C 0.77651 0.22411 0.53660
 C867 C 0.77655 0.22395 0.46333
 C868 C 0.72466 0.27544 0.53651
 O869 O 0.78574 0.25266 -0.02797
 O870 O 0.74741 0.21389 0.02673
 O871 O 0.74714 0.21413 -0.02795
 O872 O 0.78597 0.25246 0.02670
 O873 O 0.75310 0.28534 0.02698
 O874 O 0.71427 0.24701 -0.02766
 O875 O 0.71454 0.24677 0.02701
 O876 O 0.75287 0.28554 -0.02769
 Cu877 Cu 0.76988 0.22997 -0.00065
 Cu878 Cu 0.73038 0.26948 -0.00031
 C879 C 0.77572 0.27558 -0.03714
 C880 C 0.72456 0.22385 0.03618
 C881 C 0.72421 0.22415 -0.03711
 C882 C 0.77603 0.27532 0.03614
 O883 O 0.78607 0.75312 0.47293
 O884 O 0.74756 0.71455 0.52764
 O885 O 0.74749 0.71457 0.47297
 O886 O 0.78610 0.75313 0.52761
 O887 O 0.75322 0.78600 0.52766
 O888 O 0.71461 0.74744 0.47302
 O889 O 0.71468 0.74741 0.52770
 O890 O 0.75318 0.78599 0.47298
 Cu891 Cu 0.77012 0.73053 0.50028
 Cu892 Cu 0.73060 0.77003 0.50035
 C893 C 0.77607 0.77601 0.46364
 C894 C 0.72467 0.72452 0.53698
 C895 C 0.72458 0.72455 0.46370
 C896 C 0.77612 0.77601 0.53694
 O897 O 0.97379 0.25241 0.21406
 O898 O 1.02870 0.21407 0.25277
 O899 O 0.97394 0.21390 0.25270
 O900 O 1.02855 0.25267 0.21421
 O901 O 1.02826 0.28554 0.24695
 O902 O 0.97368 0.24677 0.28544
 O903 O 1.02843 0.24694 0.28552
 O904 O 0.97351 0.28528 0.24680
 Cu905 Cu 1.00128 0.22994 0.23013
 Cu906 Cu 1.00095 0.26945 0.26948
 C907 C 0.96431 0.27526 0.22395
 C908 C 1.03790 0.22407 0.27562
 C909 C 0.96452 0.22385 0.27552
 C910 C 1.03769 0.27560 0.22413
 O911 O 0.52751 0.28509 0.74738
 O912 O 0.47297 0.24633 0.78596
 O913 O 0.52774 0.24646 0.78590
 O914 O 0.47275 0.28502 0.74750
 O915 O 0.47285 0.25223 0.71467
 O916 O 0.52784 0.21367 0.75308
 O917 O 0.47307 0.21354 0.75313
 O918 O 0.52761 0.25230 0.71455
 Cu919 Cu 0.50024 0.26903 0.77000
 Cu920 Cu 0.50035 0.22963 0.73055
 C921 C 0.53684 0.27518 0.72450
 C922 C 0.46373 0.22345 0.77600
 C923 C 0.53714 0.22361 0.77592
 C924 C 0.46344 0.27508 0.72466
 O925 O 0.02651 0.24709 0.71447
 O926 O -0.02839 0.28584 0.75285
 O927 O 0.02637 0.28583 0.75291
 O928 O -0.02824 0.24710 0.71442
 O929 O -0.02821 0.21437 0.74729
 O930 O 0.02640 0.25310 0.78579
 O931 O -0.02836 0.25312 0.78573
 O932 O 0.02654 0.21436 0.74735
 Cu933 Cu -0.00094 0.26977 0.73035
 Cu934 Cu -0.00091 0.23044 0.76986
 C935 C 0.03587 0.22424 0.72448
 C936 C -0.03772 0.27597 0.77572
 C937 C 0.03568 0.27594 0.77580
 C938 C -0.03751 0.22425 0.72440
 O939 O 0.52724 0.24663 0.21412
 O940 O 0.47250 0.28520 0.25289
 O941 O 0.52724 0.28518 0.25273
 O942 O 0.47248 0.24663 0.21429
 O943 O 0.47264 0.21376 0.24703
 O944 O 0.52740 0.25232 0.28547
 O945 O 0.47265 0.25233 0.28563
 O946 O 0.52740 0.21376 0.24686
 Cu947 Cu 0.49985 0.26922 0.23020
 Cu948 Cu 0.50004 0.22972 0.26955
 C949 C 0.53663 0.22374 0.22400
 C950 C 0.46327 0.27523 0.27575
 C951 C 0.53663 0.27521 0.27554
 C952 C 0.46324 0.22374 0.22422
 O953 O 1.02818 0.71401 0.75320
 O954 O 0.97330 0.75273 0.71482
 O955 O 1.02805 0.75282 0.71485
 O956 O 0.97342 0.71401 0.75326
 O957 O 0.97332 0.74672 0.78617
 O958 O 1.02794 0.78552 0.74776
 O959 O 0.97318 0.78544 0.74773
 O960 O 1.02808 0.74672 0.78611
 Cu961 Cu 1.00075 0.73009 0.73071
 Cu962 Cu 1.00062 0.76940 0.77026
 C963 C 1.03746 0.72388 0.77608
 C964 C 0.96391 0.77556 0.72485
 C965 C 1.03728 0.77567 0.72487
 C966 C 0.96407 0.72388 0.77614
 O967 O 0.47270 0.74771 0.28506
 O968 O 0.52755 0.78633 0.24674
 O969 O 0.47278 0.78631 0.24650
 O970 O 0.52746 0.74780 0.28537
 O971 O 0.52774 0.71493 0.25262
 O972 O 0.47305 0.75344 0.21375
 O973 O 0.52782 0.75346 0.21399
 O974 O 0.47299 0.71484 0.25230
 Cu975 Cu 0.50009 0.77035 0.26922
 Cu976 Cu 0.50043 0.73085 0.22986
 C977 C 0.46352 0.72481 0.27510
 C978 C 0.53701 0.77635 0.22395
 C979 C 0.46361 0.77632 0.22363
 C980 C 0.53689 0.72491 0.27551
 O981 O 0.02697 0.75397 0.28596
 O982 O -0.02763 0.71520 0.24751
 O983 O 0.02711 0.71540 0.24736
 O984 O -0.02779 0.75378 0.28611
 O985 O -0.02806 0.78664 0.25337
 O986 O 0.02684 0.74825 0.21461
 O987 O -0.02790 0.74805 0.21476
 O988 O 0.02670 0.78683 0.25322
 Cu989 Cu -0.00031 0.73127 0.27004
 Cu990 Cu -0.00064 0.77076 0.23069
 C991 C 0.03613 0.77688 0.27602
 C992 C -0.03705 0.72513 0.22469
 C993 C 0.03630 0.72539 0.22449
 C994 C -0.03727 0.77664 0.27622
 O995 O 0.47193 0.78603 0.75284
 O996 O 0.52699 0.74746 0.71451
 O997 O 0.47224 0.74733 0.71436
 O998 O 0.52668 0.78615 0.75299
 O999 O 0.52673 0.75339 0.78583
 O1000 O 0.47229 0.71457 0.74721
 O1001 O 0.52704 0.71470 0.74735
 O1002 O 0.47198 0.75328 0.78568
 Cu1003 Cu 0.49945 0.77005 0.73036
 Cu1004 Cu 0.49952 0.73068 0.76983
 C1005 C 0.46259 0.77612 0.77568
 C1006 C 0.53638 0.72462 0.72452
 C1007 C 0.46301 0.72445 0.72432
 C1008 C 0.53597 0.77626 0.77588
 C1009 C 0.42295 0.30212 0.30271
 C1010 C 0.44152 0.28995 0.29053
 C1011 C 0.42203 0.80295 0.80235
 C1012 C 0.44071 0.79082 0.79028
 C1013 C -0.07817 0.30291 0.80244
 C1014 C -0.05954 0.29073 0.79034
 C1015 C -0.07774 0.80336 0.30313
 C1016 C -0.05910 0.79126 0.29097
 C1017 C 0.57718 0.69808 0.30253
 C1018 C 0.55862 0.71023 0.29032
 C1019 C 0.57769 0.19683 0.80264
 C1020 C 0.55901 0.20894 0.79055
 C1021 C 1.07791 0.69694 0.80276
 C1022 C 1.05928 0.70912 0.79069
 C1023 C 1.07833 0.19730 0.30251
 C1024 C 1.05971 0.20944 0.29036
 C1025 C 0.57706 0.30210 0.69764
 C1026 C 0.55853 0.28993 0.70979
 C1027 C 0.57746 0.80314 0.19728
 C1028 C 0.55883 0.79104 0.20936
 C1029 C 1.07788 0.30261 0.19732
 C1030 C 1.05937 0.29040 0.20945
 C1031 C 1.07751 0.80268 0.69812
 C1032 C 1.05898 0.79047 0.71022
 C1033 C 0.42286 0.69747 0.69744
 C1034 C 0.44136 0.70966 0.70960
 C1035 C 0.42285 0.19695 0.19750
 C1036 C 0.44146 0.20906 0.20958
 C1037 C -0.07720 0.69809 0.19788
 C1038 C -0.05871 0.71032 0.21001
 C1039 C -0.07773 0.19729 0.69758
 C1040 C -0.05921 0.20948 0.70972
 C1041 C 0.30214 0.42312 0.30273
 C1042 C 0.29001 0.44170 0.29054
 C1043 C 0.30287 -0.07812 0.80228
 C1044 C 0.29069 -0.05950 0.79020
 C1045 C 0.80294 0.42209 0.80263
 C1046 C 0.79083 0.44077 0.79056
 C1047 C 0.80309 -0.07783 0.30317
 C1048 C 0.79096 -0.05922 0.29102
 C1049 C 0.30207 0.57701 0.69749
 C1050 C 0.28989 0.55851 0.70966
 C1051 C 0.30255 1.07789 0.19708
 C1052 C 0.29037 1.05938 0.20924
 C1053 C 0.80281 0.57678 0.19763
 C1054 C 0.79071 0.55819 0.20973
 C1055 C 0.80277 1.07738 0.69819
 C1056 C 0.79054 1.05887 0.71029
 C1057 C 0.69777 0.57688 0.30283
 C1058 C 0.70988 0.55826 0.29067
 C1059 C 0.69685 1.07790 0.80273
 C1060 C 0.70904 1.05926 0.79067
 C1061 C 0.19680 0.57776 0.80263
 C1062 C 0.20891 0.55908 0.79053
 C1063 C 0.19737 1.07834 0.30247
 C1064 C 0.20951 1.05973 0.29032
 C1065 C 0.69766 0.42277 0.69765
 C1066 C 0.70983 0.44129 0.70979
 C1067 C 0.69752 -0.07748 0.19824
 C1068 C 0.70978 -0.05898 0.21031
 C1069 C 0.19691 0.42300 0.19771
 C1070 C 0.20904 0.44162 0.20976
 C1071 C 0.19737 -0.07778 0.69742
 C1072 C 0.20953 -0.05924 0.70956
 C1073 C 0.30225 0.30244 0.42345
 C1074 C 0.29012 0.29030 0.44200
 C1075 C 0.30246 0.80251 -0.07767
 C1076 C 0.29036 0.79045 -0.05905
 C1077 C 0.80237 0.30245 -0.07752
 C1078 C 0.79031 0.29032 -0.05892
 C1079 C 0.80278 0.80277 0.42323
 C1080 C 0.79071 0.79067 0.44185
 C1081 C 0.69768 0.30225 0.57681
 C1082 C 0.70987 0.29013 0.55824
 C1083 C 0.69685 0.80233 1.07712
 C1084 C 0.70899 0.79025 1.05849
 C1085 C 0.19697 0.30237 1.07694
 C1086 C 0.20909 0.29025 1.05833
 C1087 C 0.19771 0.80318 0.57696
 C1088 C 0.20978 0.79107 0.55831
 C1089 C 0.30248 0.69747 0.57656
 C1090 C 0.29039 0.70968 0.55800
 C1091 C 0.30217 0.19705 1.07684
 C1092 C 0.29004 0.20919 1.05826
 C1093 C 0.80242 0.69739 1.07693
 C1094 C 0.79024 0.70949 1.05836
 C1095 C 0.80338 0.19747 0.57704
 C1096 C 0.79125 0.20952 0.55840
 C1097 C 0.69776 0.69777 0.42338
 C1098 C 0.70988 0.70988 0.44196
 C1099 C 0.69730 0.19751 -0.07745
 C1100 C 0.70945 0.20957 -0.05886
 C1101 C 0.19754 0.69743 -0.07748
 C1102 C 0.20962 0.70958 -0.05890
 C1103 C 0.19739 0.19743 0.42292
 C1104 C 0.20941 0.20946 0.44161
 C1105 C 0.30192 0.42292 0.69798
 C1106 C 0.28979 0.44160 0.71003
 C1107 C 0.30218 0.92390 0.19695
 C1108 C 0.29007 0.94253 0.20912
 C1109 C 0.80276 0.42270 0.19718
 C1110 C 0.79061 0.44129 0.20935
 C1111 C 0.80247 0.92338 0.69815
 C1112 C 0.79031 0.94201 0.71025
 C1113 C 0.69798 0.57687 0.69791
 C1114 C 0.71009 0.55820 0.70999
 C1115 C 0.69833 0.07640 0.19747
 C1116 C 0.71044 0.05782 0.20967
 C1117 C 0.19716 0.57722 0.19710
 C1118 C 0.20927 0.55859 0.20923
 C1119 C 0.19727 0.07630 0.69768
 C1120 C 0.20944 0.05766 0.70975
 C1121 C 0.30246 0.57721 0.30193
 C1122 C 0.29030 0.55861 0.28989
 C1123 C 0.30268 0.07601 0.80251
 C1124 C 0.29056 0.05743 0.79038
 C1125 C 0.80316 0.57631 0.80287
 C1126 C 0.79103 0.55774 0.79074
 C1127 C 0.80363 0.07626 0.30255
 C1128 C 0.79145 0.05769 0.29049
 C1129 C 0.69755 0.42277 0.30236
 C1130 C 0.70969 0.44135 0.29027
 C1131 C 0.69684 0.92379 0.80289
 C1132 C 0.70901 0.94234 0.79079
 C1133 C 0.19657 0.42353 0.80279
 C1134 C 0.20871 0.44210 0.79069
 C1135 C 0.19720 0.92430 0.30240
 C1136 C 0.20933 0.94285 0.29024
 C1137 C 0.42290 0.30189 0.69799
 C1138 C 0.44157 0.28977 0.71005
 C1139 C 0.42322 0.80310 0.19672
 C1140 C 0.44183 0.79098 0.20886
 C1141 C 0.92383 0.30194 0.19706
 C1142 C 0.94248 0.28987 0.20921
 C1143 C 0.92347 0.80246 0.69811
 C1144 C 0.94210 0.79030 0.71021
 C1145 C 0.57698 0.30203 0.30230
 C1146 C 0.55840 0.28990 0.29019
 C1147 C 0.57616 0.80319 0.80274
 C1148 C 0.55764 0.79103 0.79058
 C1149 C 0.07597 0.30281 0.80258
 C1150 C 0.05741 0.29068 0.79046
 C1151 C 0.07644 0.80379 0.30274
 C1152 C 0.05787 0.79163 0.29066
 C1153 C 0.57696 0.69781 0.69786
 C1154 C 0.55827 0.70993 0.70992
 C1155 C 0.57705 0.19693 0.19711
 C1156 C 0.55843 0.20906 0.20926
 C1157 C 0.07668 0.69859 0.19752
 C1158 C 0.05809 0.71073 0.20971
 C1159 C 0.07632 0.19730 0.69776
 C1160 C 0.05769 0.20948 0.70985
 C1161 C 0.42313 0.69795 0.30176
 C1162 C 0.44173 0.71009 0.28969
 C1163 C 0.42342 0.19658 0.80275
 C1164 C 0.44200 0.20872 0.79066
 C1165 C 0.92375 0.69699 0.80288
 C1166 C 0.94233 0.70913 0.79078
 C1167 C 0.92425 0.19695 0.30232
 C1168 C 0.94280 0.20910 0.29019
 C1169 C 0.30207 0.30206 0.57740
 C1170 C 0.28999 0.28999 0.55878
 C1171 C 0.30226 0.80305 0.07630
 C1172 C 0.29016 0.79089 0.05774
 C1173 C 0.80295 0.30198 0.07647
 C1174 C 0.79080 0.28991 0.05789
 C1175 C 0.80288 0.80277 0.57731
 C1176 C 0.79079 0.79068 0.55871
 C1177 C 0.30254 0.69791 0.42261
 C1178 C 0.29043 0.71004 0.44123
 C1179 C 0.30226 0.19693 0.92301
 C1180 C 0.29007 0.20912 0.94154
 C1181 C 0.80259 0.69739 0.92316
 C1182 C 0.79037 0.70956 0.94168
 C1183 C 0.80354 0.19710 0.42306
 C1184 C 0.79134 0.20925 0.44161
 C1185 C 0.69771 0.30206 0.42294
 C1186 C 0.70990 0.28996 0.44151
 C1187 C 0.69695 0.80280 0.92325
 C1188 C 0.70911 0.79059 0.94176
 C1189 C 0.19683 0.30248 0.92307
 C1190 C 0.20900 0.29029 0.94159
 C1191 C 0.19746 0.80358 0.42303
 C1192 C 0.20962 0.79137 0.44155
 C1193 C 0.69792 0.69773 0.57734
 C1194 C 0.71002 0.70984 0.55874
 C1195 C 0.69792 0.19694 0.07654
 C1196 C 0.70997 0.20910 0.05794
 C1197 C 0.19721 0.69800 0.07652
 C1198 C 0.20934 0.71004 0.05790
 C1199 C 0.19705 0.19702 0.57705
 C1200 C 0.20918 0.20915 0.55848
   
