data_POSCAR
  _audit_creation_date              2014-09-24
  _audit_creation_method            'ToBaCCo'
  _symmetry_space_group_name_H-M    'P1'
  _symmetry_Int_Tables_number       1
  _symmetry_cell_setting            triclinic
  loop_
  _symmetry_equiv_pos_as_xyz
 x,y,z
_cell_length_a 53.4557
_cell_length_b 31.4974
_cell_length_c 18.6838
_cell_angle_alpha 89.984700
_cell_angle_beta 89.830300
_cell_angle_gamma 90.190900
loop_
  _atom_site_label
  _atom_site_type_symbol
  _atom_site_fract_x
  _atom_site_fract_y
  _atom_site_fract_z
C1 C 0.74869 0.24623 0.46678
 C2 C 0.74881 0.24695 0.53977
 C3 C 0.72771 0.26500 0.58175
 C4 C 0.77013 0.22967 0.58125
 C5 C 0.76863 0.22438 0.42533
 C6 C 0.72882 0.26758 0.42477
 C7 C 0.73242 0.29644 0.63329
 C8 C 0.71274 0.31428 0.67227
 C9 C 0.68810 0.30063 0.66057
 C10 C 0.68333 0.26863 0.61018
 C11 C 0.70305 0.25076 0.57126
 C12 C 0.79464 0.24443 0.56933
 C13 C 0.81468 0.22664 0.60656
 C14 C 0.81038 0.19430 0.65657
 C15 C 0.78593 0.18027 0.67005
 C16 C 0.76589 0.19800 0.63279
 C17 C 0.77410 0.18135 0.43743
 C18 C 0.79361 0.16170 0.40017
 C19 C 0.80765 0.18471 0.34995
 C20 C 0.80186 0.22727 0.33635
 C21 C 0.78239 0.24697 0.37362
 C22 C 0.71533 0.24454 0.37334
 C23 C 0.69627 0.26405 0.33443
 C24 C 0.69065 0.30687 0.34609
 C25 C 0.70437 0.33028 0.39627
 C26 C 0.72346 0.31081 0.43518
 H27 H 0.75132 0.30764 0.64247
 H28 H 0.71680 0.33893 0.71110
 H29 H 0.66441 0.25754 0.60062
 H30 H 0.69908 0.22595 0.53277
 H31 H 0.79823 0.26938 0.53071
 H32 H 0.83351 0.23786 0.59597
 H33 H 0.74712 0.18640 0.64299
 H34 H 0.76341 0.16318 0.47616
 H35 H 0.79785 0.12870 0.41087
 H36 H 0.81256 0.24535 0.29749
 H37 H 0.77837 0.28009 0.36328
 H38 H 0.71930 0.21127 0.36423
 H39 H 0.68580 0.24568 0.29562
 H40 H 0.70025 0.36349 0.40547
 H41 H 0.73399 0.32935 0.47357
 H42 H 0.78241 0.15533 0.70876
 C43 C 0.24931 0.74605 0.46238
 C44 C 0.24919 0.74532 0.53538
 C45 C 0.22935 0.76676 0.57767
 C46 C 0.26910 0.72340 0.57651
 C47 C 0.27060 0.72866 0.42055
 C48 C 0.22825 0.76424 0.42075
 C49 C 0.22407 0.81002 0.56735
 C50 C 0.20495 0.82954 0.60635
 C51 C 0.19111 0.80615 0.65652
 C52 C 0.19665 0.76330 0.66816
 C53 C 0.21575 0.74374 0.62916
 C54 C 0.28290 0.74595 0.62790
 C55 C 0.30237 0.72620 0.66477
 C56 C 0.30811 0.68363 0.65109
 C57 C 0.29402 0.66064 0.60122
 C58 C 0.27451 0.68035 0.56436
 C59 C 0.26630 0.69698 0.36917
 C60 C 0.28631 0.67912 0.33162
 C61 C 0.31078 0.69303 0.34465
 C62 C 0.31513 0.72538 0.39450
 C63 C 0.29513 0.74330 0.43203
 C64 C 0.20355 0.75015 0.43164
 C65 C 0.18389 0.76822 0.39308
 C66 C 0.18874 0.80020 0.34276
 C67 C 0.21337 0.81371 0.33063
 C68 C 0.23303 0.79572 0.36919
 H69 H 0.23468 0.82854 0.52890
 H70 H 0.20089 0.86277 0.59716
 H71 H 0.18609 0.74495 0.70697
 H72 H 0.21965 0.71045 0.63820
 H73 H 0.27893 0.77909 0.63828
 H74 H 0.31312 0.74425 0.70337
 H75 H 0.26378 0.66221 0.52587
 H76 H 0.24750 0.68547 0.35932
 H77 H 0.28274 0.65417 0.29303
 H78 H 0.33398 0.73651 0.40475
 H79 H 0.29876 0.76825 0.47053
 H80 H 0.19952 0.72533 0.47014
 H81 H 0.16491 0.75739 0.40268
 H82 H 0.21735 0.83837 0.29176
 H83 H 0.25195 0.80683 0.35970
 H84 H 0.29822 0.62763 0.59045
 C85 C 0.24927 0.25346 -0.53863
 C86 C 0.24943 0.25271 -0.46564
 C87 C 0.22838 0.23437 -0.42354
 C88 C 0.27073 0.27024 -0.42413
 C89 C 0.26925 0.27541 -0.58014
 C90 C 0.22928 0.23211 -0.58047
 C91 C 0.20372 0.24848 -0.43350
 C92 C 0.18408 0.23052 -0.39404
 C93 C 0.18894 0.19860 -0.34372
 C94 C 0.21355 0.18501 -0.33267
 C95 C 0.23317 0.20291 -0.37214
 C96 C 0.26641 0.30169 -0.37235
 C97 C 0.28639 0.31940 -0.33451
 C98 C 0.31084 0.30559 -0.34764
 C99 C 0.31522 0.27355 -0.39803
 C100 C 0.29525 0.25577 -0.43585
 C101 C 0.28301 0.25287 -0.63167
 C102 C 0.30263 0.27257 -0.66865
 C103 C 0.30858 0.31515 -0.65493
 C104 C 0.29449 0.33815 -0.60493
 C105 C 0.27484 0.31845 -0.56800
 C106 C 0.22380 0.18886 -0.57009
 C107 C 0.20442 0.16948 -0.60822
 C108 C 0.19049 0.19301 -0.65766
 C109 C 0.19628 0.23587 -0.66945
 C110 C 0.21565 0.25526 -0.63127
 H111 H 0.19970 0.27330 -0.47186
 H112 H 0.16515 0.24149 -0.40297
 H113 H 0.21761 0.16040 -0.29386
 H114 H 0.25207 0.19181 -0.36337
 H115 H 0.24763 0.31306 -0.36229
 H116 H 0.28280 0.34411 -0.29552
 H117 H 0.29889 0.23098 -0.47463
 H118 H 0.27890 0.21974 -0.64202
 H119 H 0.31331 0.25440 -0.70730
 H120 H 0.29879 0.37116 -0.59399
 H121 H 0.26416 0.33659 -0.52938
 H122 H 0.23443 0.17026 -0.53215
 H123 H 0.20024 0.13625 -0.59879
 H124 H 0.18572 0.25445 -0.70765
 H125 H 0.21971 0.28855 -0.64033
 H126 H 0.33406 0.26251 -0.40835
 C127 C -0.25104 0.75443 -0.46649
 C128 C -0.25127 0.75487 -0.53949
 C129 C -0.23131 0.77652 -0.58133
 C130 C -0.27132 0.73350 -0.58117
 C131 C -0.27202 0.73608 -0.42422
 C132 C -0.22975 0.77234 -0.42525
 C133 C -0.22577 0.81966 -0.57012
 C134 C -0.20616 0.83911 -0.60754
 C135 C -0.19209 0.81575 -0.65707
 C136 C -0.19799 0.77306 -0.66985
 C137 C -0.21757 0.75360 -0.63238
 C138 C -0.28478 0.75655 -0.63251
 C139 C -0.30394 0.73708 -0.67136
 C140 C -0.30974 0.69421 -0.65973
 C141 C -0.29607 0.67080 -0.60953
 C142 C -0.27687 0.69028 -0.57072
 C143 C -0.26718 0.70447 -0.37316
 C144 C -0.28680 0.68610 -0.33431
 C145 C -0.31145 0.69940 -0.34569
 C146 C -0.31634 0.73161 -0.39545
 C147 C -0.29671 0.75002 -0.43426
 C148 C -0.20518 0.75808 -0.43694
 C149 C -0.18522 0.77634 -0.39962
 C150 C -0.18965 0.80866 -0.34975
 C151 C -0.21415 0.82223 -0.33661
 C152 C -0.23411 0.80405 -0.37395
 H153 H -0.23646 0.83805 -0.53186
 H154 H -0.20188 0.87222 -0.59734
 H155 H -0.18731 0.75462 -0.70814
 H156 H -0.22166 0.72039 -0.64200
 H157 H -0.28067 0.78981 -0.64167
 H158 H -0.31431 0.75558 -0.71011
 H159 H -0.26638 0.67172 -0.53240
 H160 H -0.24826 0.69349 -0.36437
 H161 H -0.28272 0.66129 -0.29590
 H162 H -0.33531 0.74235 -0.40459
 H163 H -0.30076 0.77494 -0.47241
 H164 H -0.20147 0.73312 -0.47534
 H165 H -0.16635 0.76545 -0.40995
 H166 H -0.21780 0.84713 -0.29801
 H167 H -0.25293 0.81527 -0.36390
 H168 H -0.30025 0.63756 -0.60019
 O169 O -0.03476 0.92633 0.13043
 O170 O -0.06192 0.96490 0.06143
 C171 C -0.05705 0.93762 0.11125
 O172 O 0.03531 1.07734 0.12813
 O173 O 0.06292 1.03740 0.06228
 C174 C 0.05774 1.06625 0.10938
 O175 O -0.03482 1.07259 0.13312
 O176 O -0.06223 1.03555 0.06185
 C177 C -0.05721 1.06186 0.11312
 O178 O 0.03527 0.92260 0.12415
 O179 O 0.06310 0.96352 0.06015
 C180 C 0.05776 0.93389 0.10588
 Zr181 Zr 0.00030 0.94667 0.08973
 O182 O 0.00243 0.94616 0.20285
 O183 O -0.00264 0.87962 0.08745
 Zr184 Zr 0.00044 1.05427 0.09090
 O185 O 0.00032 1.05958 0.20378
 O186 O -0.00026 1.12103 0.08015
 O187 O -0.02185 1.00039 0.10402
 O188 O 0.02205 1.00034 0.10387
 O189 O 0.03591 0.92397 -0.12515
 O190 O 0.06339 0.96427 -0.05925
 C191 C 0.05830 0.93518 -0.10603
 O192 O -0.03393 1.07544 -0.13000
 O193 O -0.06180 1.03662 -0.06239
 C194 C -0.05643 1.06424 -0.11154
 O195 O 0.03633 1.07923 -0.12220
 O196 O 0.06363 1.03774 -0.05822
 C197 C 0.05867 1.06758 -0.10378
 O198 O -0.03436 0.92786 -0.13235
 O199 O -0.06200 0.96597 -0.06344
 C200 C -0.05680 0.93887 -0.11344
 Zr201 Zr 0.00072 0.94767 -0.09113
 O202 O 0.00380 0.94829 -0.20412
 O203 O -0.00225 0.88062 -0.09155
 Zr204 Zr 0.00106 1.05505 -0.08937
 O205 O 0.00414 1.05577 -0.20236
 O206 O -0.00117 1.12213 -0.08746
 Zr207 Zr -0.03661 1.00093 -0.00056
 Zr208 Zr 0.03791 1.00072 0.00072
 O209 O 0.02265 1.00138 -0.10301
 O210 O -0.02135 1.00150 -0.10476
 O211 O 0.02282 0.93877 -0.00052
 O212 O -0.02114 1.06241 0.00064
 O213 O -0.02128 0.93949 -0.00109
 O214 O 0.02320 1.06274 0.00138
 H215 H 0.03330 0.99988 0.14587
 H216 H -0.03254 1.08716 0.00107
 H217 H 0.03405 1.00163 -0.14491
 H218 H -0.03268 0.91462 -0.00156
 H219 H -0.00118 1.13250 0.12945
 H220 H 0.01149 1.13241 -0.05295
 H221 H -0.00973 1.03836 -0.22157
 H222 H -0.01002 0.96588 -0.22277
 H223 H 0.01180 0.86937 -0.06300
 H224 H 0.01170 0.86873 0.05948
 H225 H -0.01082 0.96524 0.22104
 H226 H 0.00647 1.03239 0.22319
 O227 O 0.46574 0.42720 0.13179
 O228 O 0.43824 0.46508 0.06255
 C229 C 0.44334 0.43828 0.11295
 O230 O 0.53636 0.57821 0.12099
 O231 O 0.56381 0.53735 0.05616
 C232 C 0.55875 0.56684 0.10225
 O233 O 0.46645 0.57405 0.12927
 O234 O 0.43873 0.53574 0.06112
 C235 C 0.44400 0.56307 0.11065
 O236 O 0.53595 0.42360 0.12599
 O237 O 0.56347 0.46354 0.05927
 C238 C 0.55834 0.43475 0.10666
 Zr239 Zr 0.50105 0.44709 0.09080
 O240 O 0.50286 0.44924 0.20396
 O241 O 0.50238 0.37982 0.09317
 Zr242 Zr 0.50124 0.55466 0.08615
 O243 O 0.50198 0.56228 0.19858
 O244 O 0.50043 0.62117 0.07158
 O245 O 0.47896 0.50099 0.10293
 O246 O 0.52286 0.50107 0.10143
 O247 O 0.53604 0.42018 -0.12282
 O248 O 0.56369 0.46232 -0.06092
 C249 C 0.55848 0.43202 -0.10541
 O250 O 0.46568 0.57147 -0.13463
 O251 O 0.43820 0.53371 -0.06409
 C252 C 0.44328 0.56034 -0.11497
 O253 O 0.53607 0.57608 -0.12864
 O254 O 0.56376 0.53587 -0.06363
 C255 C 0.55852 0.56499 -0.11024
 O256 O 0.46613 0.42385 -0.13012
 O257 O 0.43859 0.46290 -0.06260
 C258 C 0.44374 0.43512 -0.11153
 Zr259 Zr 0.50102 0.44486 -0.08988
 O260 O 0.50386 0.44344 -0.20290
 O261 O 0.49867 0.37781 -0.08609
 Zr262 Zr 0.50092 0.55218 -0.09395
 O263 O 0.50366 0.55068 -0.20699
 O264 O 0.49843 0.61923 -0.09584
 Zr265 Zr 0.46371 0.49947 -0.00113
 Zr266 Zr 0.53834 0.49982 -0.00215
 O267 O 0.52271 0.49847 -0.10538
 O268 O 0.47866 0.49820 -0.10570
 O269 O 0.52334 0.43791 0.00047
 O270 O 0.47913 0.56100 -0.00363
 O271 O 0.47915 0.43815 0.00094
 O272 O 0.52350 0.56172 -0.00447
 H273 H 0.53418 0.50151 0.14331
 H274 H 0.46771 0.58572 -0.00421
 H275 H 0.53400 0.49795 -0.14751
 H276 H 0.46756 0.41359 0.00134
 H277 H 0.50013 0.63365 0.12023
 H278 H 0.51115 0.63034 -0.06229
 H279 H 0.48955 0.53336 -0.22498
 H280 H 0.49017 0.46107 -0.22219
 H281 H 0.51017 0.36819 -0.04804
 H282 H 0.48688 0.36835 0.07170
 H283 H 0.48890 0.46722 0.22101
 H284 H 0.50586 0.53425 0.21932
 C285 C 0.32829 0.33385 0.31081
 C286 C 0.34588 0.35010 0.28078
 C287 C 0.36660 0.36886 0.24579
 C288 C 0.38432 0.38474 0.21587
 C289 C 0.40504 0.40329 0.18056
 C290 C 0.42262 0.41918 0.15001
 C291 C -0.17242 0.83419 0.30827
 C292 C -0.15483 0.85018 0.27793
 C293 C -0.13410 0.86863 0.24271
 C294 C -0.11634 0.88428 0.21274
 C295 C -0.09556 0.90262 0.17761
 C296 C -0.07789 0.91845 0.14746
 C297 C 0.67122 0.67554 0.30339
 C298 C 0.65423 0.65921 0.27105
 C299 C 0.63420 0.64018 0.23367
 C300 C 0.61700 0.62386 0.20232
 C301 C 0.59675 0.60449 0.16640
 C302 C 0.57941 0.58759 0.13657
 C303 C 0.17115 1.17448 0.30661
 C304 C 0.15390 1.15821 0.27543
 C305 C 0.13357 1.13920 0.23942
 C306 C 0.11616 1.12289 0.20907
 C307 C 0.09574 1.10357 0.17395
 C308 C 0.07834 1.08676 0.14430
 C309 C 0.66964 0.31813 -0.30417
 C310 C 0.65269 0.33469 -0.27197
 C311 C 0.63289 0.35457 -0.23485
 C312 C 0.61597 0.37190 -0.20380
 C313 C 0.59608 0.39257 -0.16834
 C314 C 0.57899 0.41046 -0.13901
 C315 C 0.17097 0.82591 -0.30472
 C316 C 0.15395 0.84233 -0.27277
 C317 C 0.13386 0.86152 -0.23598
 C318 C 0.11661 0.87799 -0.20516
 C319 C 0.09632 0.89750 -0.16980
 C320 C 0.07895 0.91447 -0.14028
 C321 C 0.32875 0.66384 -0.31267
 C322 C 0.34621 0.64763 -0.28258
 C323 C 0.36678 0.62896 -0.24750
 C324 C 0.38439 0.61319 -0.21751
 C325 C 0.40502 0.59483 -0.18221
 C326 C 0.42256 0.57915 -0.15175
 C327 C -0.16894 1.17491 -0.30695
 C328 C -0.15165 1.15828 -0.27682
 C329 C -0.13144 1.13848 -0.24188
 C330 C -0.11421 1.12143 -0.21216
 C331 C -0.09406 1.10139 -0.17736
 C332 C -0.07687 1.08434 -0.14747
 C333 C 0.66940 0.68055 -0.30928
 C334 C 0.65251 0.66343 -0.27744
 C335 C 0.63278 0.64295 -0.24069
 C336 C 0.61591 0.62522 -0.20982
 C337 C 0.59607 0.60426 -0.17435
 C338 C 0.57900 0.58631 -0.14470
 C339 C 0.16981 1.18042 -0.30622
 C340 C 0.15295 1.16391 -0.27329
 C341 C 0.13324 1.14413 -0.23530
 C342 C 0.11637 1.12692 -0.20354
 C343 C 0.09649 1.10645 -0.16738
 C344 C 0.07934 1.08878 -0.13762
 C345 C 0.33143 0.32483 -0.31021
 C346 C 0.34862 0.34136 -0.27921
 C347 C 0.36871 0.36104 -0.24324
 C348 C 0.38586 0.37802 -0.21277
 C349 C 0.40597 0.39799 -0.17733
 C350 C 0.42319 0.41501 -0.14722
 C351 C -0.16907 0.82836 -0.31279
 C352 C -0.15188 0.84519 -0.28212
 C353 C -0.13180 0.86515 -0.24640
 C354 C -0.11465 0.88226 -0.21600
 C355 C -0.09455 0.90224 -0.18040
 C356 C -0.07734 0.91913 -0.14991
 C357 C 0.33143 0.67352 0.30787
 C358 C 0.34870 0.65681 0.27749
 C359 C 0.36889 0.63697 0.24226
 C360 C 0.38612 0.61991 0.21229
 C361 C 0.40629 0.59993 0.17715
 C362 C 0.42352 0.58298 0.14696
 C363 C -0.17173 1.16498 0.31323
 C364 C -0.15429 1.14881 0.28273
 C365 C -0.13373 1.13019 0.24715
 C366 C -0.11612 1.11448 0.21677
 C367 C -0.09550 1.09619 0.18102
 C368 C -0.07795 1.08058 0.15023
 C369 C 0.67060 0.32660 0.30726
 C370 C 0.65365 0.34295 0.27515
 C371 C 0.63365 0.36202 0.23809
 C372 C 0.61648 0.37835 0.20698
 C373 C 0.59626 0.39764 0.17124
 C374 C 0.57896 0.41438 0.14136
 C375 C 0.16848 0.81963 0.30431
 C376 C 0.15159 0.83638 0.27244
 C377 C 0.13186 0.85643 0.23561
 C378 C 0.11500 0.87387 0.20472
 C379 C 0.09518 0.89458 0.16931
 C380 C 0.07817 0.91245 0.13985
   
