data_POSCAR
  _audit_creation_date              2014-09-24
  _audit_creation_method            'ToBaCCo'
  _symmetry_space_group_name_H-M    'P1'
  _symmetry_Int_Tables_number       1
  _symmetry_cell_setting            triclinic
  loop_
  _symmetry_equiv_pos_as_xyz
 x,y,z
_cell_length_a 40.4240
_cell_length_b 40.1255
_cell_length_c 48.7144
_cell_angle_alpha 89.143300
_cell_angle_beta 91.994400
_cell_angle_gamma 90.101800
loop_
  _atom_site_label
  _atom_site_type_symbol
  _atom_site_fract_x
  _atom_site_fract_y
  _atom_site_fract_z
C1 C 1.21174 0.26873 0.29469
 H2 H 1.21288 0.24190 0.29306
 C3 C 1.19232 0.28304 0.31450
 H4 H 1.17837 0.26722 0.32813
 C5 C 1.22903 0.32212 0.27926
 H6 H 1.24375 0.33721 0.26577
 C7 C 1.20990 0.33748 0.29884
 H8 H 1.20973 0.36440 0.30024
 N9 N 1.22938 0.28830 0.27743
 C10 C 1.24383 0.22528 0.20658
 H11 H 1.27050 0.22613 0.20548
 C12 C 1.22517 0.20644 0.18776
 H13 H 1.23746 0.19270 0.17209
 C14 C 1.19512 0.24203 0.22838
 H15 H 1.18344 0.25614 0.24405
 C16 C 1.17554 0.22351 0.20995
 H17 H 1.14889 0.22322 0.21165
 Zn18 Zn 1.25583 0.26584 0.25221
 N19 N 1.22868 0.24211 0.22668
 C20 C 1.28157 0.20237 0.26898
 N21 N 1.28295 0.23582 0.27321
 C22 C 1.30244 0.24880 0.29374
 C23 C 1.32196 0.22793 0.31079
 C24 C 1.30068 0.18058 0.28556
 C25 C 1.26691 0.31859 0.21485
 C26 C 1.28547 0.33980 0.19829
 C27 C 1.33538 0.31419 0.21735
 C28 C 1.31592 0.29347 0.23353
 N29 N 1.28231 0.29604 0.23207
 H30 H 1.26529 0.19243 0.25308
 H31 H 1.30258 0.27542 0.29696
 H32 H 1.33726 0.23861 0.32714
 H33 H 1.29920 0.15398 0.28209
 H34 H 1.24016 0.31971 0.21368
 H35 H 1.27301 0.35739 0.18440
 H36 H 1.36207 0.31163 0.21839
 H37 H 1.32775 0.27487 0.24674
 C38 C 1.19073 0.20534 0.18962
 C39 C 1.19138 0.31772 0.31661
 C40 C 1.32003 0.33746 0.19948
 C41 C 1.32104 0.19347 0.30669
 C42 C 0.70560 -0.22304 0.28738
 H43 H 0.70535 -0.25000 0.28775
 C44 C 0.68528 -0.20548 0.30459
 H45 H 0.66921 -0.21890 0.31827
 C46 C 0.72760 -0.17255 0.26969
 H47 H 0.74462 -0.15986 0.25648
 C48 C 0.70767 -0.15399 0.28664
 H49 H 0.70917 -0.12703 0.28630
 N50 N 0.72605 -0.20645 0.27028
 C51 C 0.74449 -0.27898 0.20703
 H52 H 0.77124 -0.28016 0.20820
 C53 C 0.72668 -0.29860 0.18822
 H54 H 0.73969 -0.31503 0.17485
 C55 C 0.69472 -0.25599 0.22285
 H56 H 0.68233 -0.23902 0.23606
 C57 C 0.67599 -0.27515 0.20434
 H58 H 0.64925 -0.27312 0.20357
 Zn59 Zn 0.75391 -0.23296 0.24934
 N60 N 0.72832 -0.25859 0.22414
 C61 C 0.77387 -0.29469 0.27399
 N62 N 0.77739 -0.26096 0.27475
 C63 C 0.79501 -0.24604 0.29548
 C64 C 0.80992 -0.26522 0.31661
 C65 C 0.78840 -0.31479 0.29472
 C66 C 0.76876 -0.18584 0.20912
 C67 C 0.78845 -0.16554 0.19287
 C68 C 0.83693 -0.18727 0.21743
 C69 C 0.81629 -0.20720 0.23328
 N70 N 0.78285 -0.20592 0.22899
 H71 H 0.75899 -0.30605 0.25784
 H72 H 0.79676 -0.21915 0.29590
 H73 H 0.82353 -0.25313 0.33324
 H74 H 0.78509 -0.34157 0.29422
 H75 H 0.74214 -0.18569 0.20592
 H76 H 0.77701 -0.14967 0.17706
 H77 H 0.86353 -0.18846 0.22084
 H78 H 0.82703 -0.22382 0.24878
 C79 C 0.69212 -0.29677 0.18701
 C80 C 0.68640 -0.17068 0.30425
 C81 C 0.82283 -0.16625 0.19707
 C82 C 0.80633 -0.29988 0.31633
 C83 C 0.69474 0.27684 -0.21008
 H84 H 0.69570 0.24999 -0.20789
 C85 C 0.67578 0.29544 -0.19241
 H86 H 0.66204 0.28289 -0.17659
 C87 C 0.71189 0.32611 -0.23306
 H88 H 0.72635 0.33801 -0.24866
 C89 C 0.69323 0.34566 -0.21580
 H90 H 0.69321 0.37253 -0.21829
 N91 N 0.71207 0.29230 -0.23007
 C92 C 0.72524 0.21737 -0.29263
 H93 H 0.75182 0.21878 -0.29429
 C94 C 0.70677 0.19606 -0.30957
 H95 H 0.71913 0.18094 -0.32434
 C96 C 0.67654 0.23578 -0.27168
 H97 H 0.66483 0.25166 -0.25720
 C98 C 0.65711 0.21477 -0.28829
 H99 H 0.63048 0.21436 -0.28643
 Zn100 Zn 0.73763 0.26502 -0.25273
 N101 N 0.71001 0.23645 -0.27398
 C102 C 0.76490 0.20538 -0.22952
 N103 N 0.76676 0.23927 -0.22951
 C104 C 0.78839 0.25538 -0.21223
 C105 C 0.80972 0.23725 -0.19443
 C106 C 0.78575 0.18635 -0.21206
 C107 C 0.74365 0.30885 -0.29743
 C108 C 0.75955 0.32638 -0.31819
 C109 C 0.81211 0.30706 -0.29884
 C110 C 0.79519 0.28990 -0.27844
 N111 N 0.76156 0.29113 -0.27808
 H112 H 0.74701 0.19296 -0.24279
 H113 H 0.78899 0.28234 -0.21229
 H114 H 0.82688 0.25025 -0.18075
 H115 H 0.78403 0.15940 -0.21218
 H116 H 0.71691 0.30883 -0.29699
 H117 H 0.74492 0.34011 -0.33362
 H118 H 0.83888 0.30555 -0.29908
 H119 H 0.80894 0.27499 -0.26336
 C120 C 0.67242 0.19472 -0.30737
 C121 C 0.67497 0.33016 -0.19531
 C122 C 0.79412 0.32532 -0.31903
 C123 C 0.80840 0.20240 -0.19439
 C124 C 1.19021 -0.22227 -0.20862
 H125 H 1.18840 -0.24917 -0.20777
 C126 C 1.17111 -0.20298 -0.19154
 H127 H 1.15449 -0.21504 -0.17751
 C128 C 1.21447 -0.17365 -0.22758
 H129 H 1.23173 -0.16230 -0.24134
 C130 C 1.19583 -0.15344 -0.21083
 H131 H 1.19865 -0.12660 -0.21191
 N132 N 1.21114 -0.20742 -0.22638
 C133 C 1.22438 -0.27901 -0.29182
 H134 H 1.25112 -0.28033 -0.29144
 C135 C 1.20581 -0.29657 -0.31152
 H136 H 1.21825 -0.31164 -0.32627
 C137 C 1.17548 -0.25714 -0.27351
 H138 H 1.16377 -0.24127 -0.25901
 C139 C 1.15595 -0.27433 -0.29291
 H140 H 1.12926 -0.27191 -0.29309
 Zn141 Zn 1.23673 -0.23542 -0.24852
 N142 N 1.20907 -0.25996 -0.27319
 C143 C 1.25959 -0.29831 -0.22727
 N144 N 1.26177 -0.26460 -0.22481
 C145 C 1.28196 -0.25061 -0.20522
 C146 C 1.30183 -0.27066 -0.18772
 C147 C 1.27904 -0.31928 -0.21017
 C148 C 1.25147 -0.18913 -0.28998
 C149 C 1.27128 -0.17141 -0.30808
 C150 C 1.31962 -0.19662 -0.28589
 C151 C 1.29892 -0.21388 -0.26819
 N152 N 1.26549 -0.20979 -0.27047
 H153 H 1.24293 -0.30904 -0.24254
 H154 H 1.28294 -0.22377 -0.20348
 H155 H 1.31815 -0.25927 -0.17244
 H156 H 1.27743 -0.34605 -0.21245
 H157 H 1.22482 -0.18685 -0.29172
 H158 H 1.25989 -0.15529 -0.32373
 H159 H 1.34615 -0.20032 -0.28415
 H160 H 1.30961 -0.23105 -0.25311
 C161 C 1.17128 -0.29418 -0.31211
 C162 C 1.17389 -0.16823 -0.19268
 C163 C 1.30566 -0.17532 -0.30609
 C164 C 1.30055 -0.30531 -0.19036
 C165 C 0.26760 0.19119 0.70863
 H166 H 0.24083 0.19182 0.70761
 C167 C 0.28467 0.17239 0.68989
 H168 H 0.27108 0.15835 0.67437
 C169 C 0.31816 0.20936 0.72970
 H170 H 0.33109 0.22428 0.74492
 C171 C 0.33621 0.19089 0.71133
 H172 H 0.36302 0.19138 0.71257
 N173 N 0.28448 0.20898 0.72812
 C174 C 0.21523 0.22355 0.79281
 H175 H 0.21616 0.25045 0.79386
 C176 C 0.19686 0.20540 0.81153
 H177 H 0.18338 0.21838 0.82697
 C178 C 0.23277 0.17375 0.77203
 H179 H 0.24747 0.16157 0.75706
 C180 C 0.21471 0.15457 0.79044
 H181 H 0.21525 0.12761 0.78938
 Zn182 Zn 0.25936 0.23483 0.75169
 N183 N 0.23261 0.20760 0.77356
 C184 C 0.19947 0.26338 0.73040
 N185 N 0.23309 0.26421 0.72962
 C186 C 0.24886 0.28515 0.71215
 C187 C 0.23067 0.30686 0.69483
 C188 C 0.18036 0.28468 0.71342
 C189 C 0.30535 0.24026 0.79503
 C190 C 0.32343 0.25592 0.81606
 C191 C 0.30341 0.30910 0.79844
 C192 C 0.28568 0.29245 0.77771
 N193 N 0.28692 0.25862 0.77646
 H194 H 0.18738 0.24598 0.74389
 H195 H 0.27559 0.28485 0.71166
 H196 H 0.24336 0.32342 0.68092
 H197 H 0.15360 0.28382 0.71405
 H198 H 0.30523 0.21336 0.79387
 H199 H 0.33760 0.24112 0.83106
 H200 H 0.30186 0.33599 0.79968
 H201 H 0.27013 0.30648 0.76326
 C202 C 0.19678 0.17061 0.81045
 C203 C 0.31927 0.17229 0.69127
 C204 C 0.32215 0.29060 0.81791
 C205 C 0.19612 0.30659 0.69552
 C206 C 0.77311 0.68843 0.70942
 H207 H 0.74640 0.68745 0.70731
 C208 C 0.79241 0.66929 0.69242
 H209 H 0.78057 0.65347 0.67715
 C210 C 0.82129 0.71066 0.73156
 H211 H 0.83246 0.72720 0.74653
 C212 C 0.84151 0.69193 0.71497
 H213 H 0.86818 0.69392 0.71733
 N214 N 0.78774 0.70836 0.72867
 C215 C 0.71420 0.72168 0.79060
 H216 H 0.71339 0.74862 0.79082
 C217 C 0.69605 0.70316 0.80928
 H218 H 0.68100 0.71591 0.82382
 C219 C 0.73587 0.67224 0.77207
 H220 H 0.75206 0.66037 0.75801
 C221 C 0.71811 0.65271 0.79047
 H222 H 0.72040 0.62581 0.79029
 Zn223 Zn 0.75982 0.73396 0.75050
 N224 N 0.73354 0.70608 0.77246
 C225 C 0.69922 0.75811 0.72650
 N226 N 0.73280 0.76097 0.72668
 C227 C 0.74798 0.78236 0.70919
 C228 C 0.72920 0.80249 0.69094
 C229 C 0.67953 0.77778 0.70857
 C230 C 0.80348 0.74358 0.79496
 C231 C 0.82053 0.76093 0.81563
 C232 C 0.79926 0.81247 0.79573
 C233 C 0.78258 0.79413 0.77536
 N234 N 0.78503 0.76029 0.77535
 H235 H 0.68761 0.74041 0.74003
 H236 H 0.77472 0.78374 0.70947
 H237 H 0.74147 0.81952 0.67714
 H238 H 0.65283 0.77537 0.70856
 H239 H 0.80439 0.71663 0.79477
 H240 H 0.83488 0.74739 0.83132
 H241 H 0.79692 0.83936 0.79586
 H242 H 0.76709 0.80688 0.76007
 C243 C 0.69818 0.66838 0.80934
 C244 C 0.82692 0.67103 0.69527
 C245 C 0.81821 0.79566 0.81612
 C246 C 0.69466 0.80021 0.69069
 C247 C 0.76112 0.19320 0.21243
 H248 H 0.73439 0.19323 0.21304
 C249 C 0.77682 0.17391 0.19317
 H250 H 0.76219 0.15884 0.17901
 C251 C 0.81279 0.21407 0.22923
 H252 H 0.82662 0.23046 0.24277
 C253 C 0.82949 0.19515 0.21023
 H254 H 0.85619 0.19676 0.20939
 N255 N 0.77917 0.21280 0.22992
 C256 C 0.71104 0.23327 0.29525
 H257 H 0.71103 0.26024 0.29468
 C258 C 0.69197 0.21608 0.31422
 H259 H 0.67716 0.22981 0.32831
 C260 C 0.73062 0.18234 0.27784
 H261 H 0.74606 0.16927 0.26392
 C262 C 0.71193 0.16420 0.29649
 H263 H 0.71282 0.13721 0.29671
 Zn264 Zn 0.75500 0.24133 0.25238
 N265 N 0.72958 0.21626 0.27735
 C266 C 0.69360 0.26529 0.22903
 N267 N 0.72719 0.26660 0.22797
 C268 C 0.74230 0.28378 0.20762
 C269 C 0.72351 0.30066 0.18728
 C270 C 0.67385 0.28185 0.20904
 C271 C 0.80499 0.25512 0.29199
 C272 C 0.82601 0.27478 0.30842
 C273 C 0.80273 0.32388 0.28594
 C274 C 0.78214 0.30332 0.26991
 N275 N 0.78376 0.26957 0.27308
 H276 H 0.68204 0.25077 0.24490
 H277 H 0.76903 0.28381 0.20696
 H278 H 0.73577 0.31401 0.17102
 H279 H 0.64714 0.28042 0.20980
 H280 H 0.80541 0.22827 0.29439
 H281 H 0.84273 0.26306 0.32350
 H282 H 0.80114 0.35071 0.28341
 H283 H 0.76461 0.31440 0.25526
 C284 C 0.69235 0.18122 0.31478
 C285 C 0.81128 0.17512 0.19190
 C286 C 0.82486 0.30948 0.30537
 C287 C 0.68899 0.29951 0.18791
 C288 C 0.25908 0.69216 0.20551
 H289 H 0.23230 0.69245 0.20521
 C290 C 0.27555 0.67334 0.18643
 H291 H 0.26149 0.65892 0.17144
 C292 C 0.31014 0.71171 0.22469
 H293 H 0.32345 0.72734 0.23918
 C294 C 0.32763 0.69323 0.20590
 H295 H 0.35441 0.69442 0.20612
 N296 N 0.27646 0.71081 0.22414
 C297 C 0.20582 0.72781 0.28793
 H298 H 0.20591 0.75476 0.28832
 C299 C 0.18593 0.70972 0.30569
 H300 H 0.17059 0.72273 0.31984
 C301 C 0.22600 0.67781 0.26926
 H302 H 0.24199 0.66545 0.25534
 C303 C 0.20649 0.65877 0.28669
 H304 H 0.20733 0.63181 0.28598
 Zn305 Zn 0.25129 0.73808 0.24672
 N306 N 0.22502 0.71170 0.26997
 C307 C 0.19062 0.76225 0.22263
 N308 N 0.22424 0.76432 0.22254
 C309 C 0.23981 0.78289 0.20326
 C310 C 0.22144 0.80043 0.18304
 C311 C 0.17131 0.77942 0.20274
 C312 C 0.29912 0.74972 0.28840
 C313 C 0.31894 0.76840 0.30652
 C314 C 0.29661 0.81872 0.28519
 C315 C 0.27722 0.79906 0.26746
 N316 N 0.27892 0.76521 0.26929
 H317 H 0.17872 0.74663 0.23760
 H318 H 0.26657 0.78349 0.20333
 H319 H 0.23404 0.81486 0.16759
 H320 H 0.14458 0.77735 0.20269
 H321 H 0.29957 0.72278 0.28968
 H322 H 0.33477 0.75571 0.32175
 H323 H 0.29482 0.84565 0.28365
 H324 H 0.26046 0.81090 0.25259
 C325 C 0.18621 0.67490 0.30497
 C326 C 0.31011 0.67407 0.18652
 C327 C 0.31762 0.80325 0.30496
 C328 C 0.18691 0.79847 0.18267
 O329 O 1.05134 0.02753 0.04073
 O330 O 0.93769 -0.01944 0.02273
 O331 O 0.97399 0.06929 0.02924
 O332 O 1.03092 -0.06681 0.00816
 O333 O 0.93309 0.03995 0.01142
 O334 O 1.04472 -0.02882 0.03481
 O335 O 0.98360 -0.04321 0.03407
 O336 O 1.03515 0.07381 0.02259
 C337 C 1.04961 0.05816 0.04160
 C338 C 0.95486 -0.03620 0.03969
 C339 C 0.94461 0.05967 0.02937
 C340 C 1.04746 -0.05840 0.02867
 O341 O 1.05813 -0.02238 -0.02091
 O342 O 0.94923 0.02604 -0.04122
 O343 O 1.02597 0.07022 -0.02976
 O344 O 0.97080 -0.07551 -0.00971
 O345 O 0.95035 -0.03201 -0.03111
 O346 O 1.06591 0.03761 -0.01312
 O347 O 1.01000 -0.03979 -0.03638
 O348 O 0.96410 0.07277 -0.02392
 Co349 Co 1.05072 0.00379 0.00947
 Co350 Co 0.94755 0.00414 -0.00851
 Co351 Co 0.99967 0.06568 -0.00034
 Co352 Co 0.99578 -0.03954 -0.00124
 O353 O 0.99994 0.01067 0.00066
 C354 C 1.04026 -0.03538 -0.03979
 C355 C 0.95102 0.05676 -0.04313
 C356 C 1.05500 0.05936 -0.03023
 C357 C 0.94813 -0.06299 -0.02610
 O358 O 1.05870 0.52680 0.53249
 O359 O 0.92715 0.46281 0.50649
 O360 O 0.97154 0.55862 0.52233
 O361 O 1.02208 0.44409 0.54093
 O362 O 0.94957 0.51181 0.53317
 O363 O 1.06701 0.46580 0.52666
 O364 O 0.96586 0.44956 0.53375
 O365 O 1.02966 0.56589 0.51188
 C366 C 1.04851 0.55604 0.53147
 C367 C 0.93625 0.44664 0.52712
 C368 C 0.95590 0.54114 0.53896
 C369 C 1.05216 0.44868 0.54371
 O370 O 1.06397 0.47254 0.47412
 O371 O 0.91591 0.52276 0.48870
 O372 O 1.01518 0.54578 0.45951
 O373 O 0.97150 0.43636 0.47795
 O374 O 0.95229 0.48407 0.46267
 O375 O 1.06236 0.53493 0.47892
 O376 O 1.03213 0.43084 0.48733
 O377 O 0.95810 0.54363 0.46841
 Co378 Co 1.05725 0.49993 0.50288
 Co379 Co 0.95281 0.49902 0.49793
 Co380 Co 0.99434 0.54859 0.49161
 Co381 Co 0.99795 0.44472 0.50907
 O382 O 1.00290 0.49644 0.50134
 C383 C 1.05475 0.44269 0.47256
 C384 C 0.92760 0.54590 0.47304
 C385 C 1.04568 0.54505 0.45849
 C386 C 0.95745 0.45373 0.45905
 O387 O 0.55994 0.03147 0.52237
 O388 O 0.43613 -0.04630 0.51611
 O389 O 0.45822 0.05584 0.51464
 O390 O 0.53784 -0.07094 0.51928
 O391 O 0.44072 0.00968 0.52988
 O392 O 0.55430 -0.02516 0.53601
 O393 O 0.48180 -0.06487 0.53315
 O394 O 0.51320 0.05008 0.53402
 C395 C 0.54301 0.04636 0.53928
 C396 C 0.45182 -0.06051 0.53543
 C397 C 0.44399 0.03987 0.53282
 C398 C 0.55186 -0.05561 0.53841
 O399 O 0.56204 -0.04373 0.48255
 O400 O 0.43622 0.02994 0.47568
 O401 O 0.53720 0.05783 0.48307
 O402 O 0.46114 -0.07166 0.47977
 O403 O 0.44371 -0.02603 0.46245
 O404 O 0.55621 0.01264 0.46831
 O405 O 0.51685 -0.06369 0.46603
 O406 O 0.48239 0.05018 0.46368
 Co407 Co 0.55245 -0.00629 0.50202
 Co408 Co 0.44485 -0.00807 0.49631
 Co409 Co 0.49783 0.04746 0.49888
 Co410 Co 0.49932 -0.06177 0.49954
 O411 O 0.49863 -0.00716 0.49919
 C412 C 0.54655 -0.05792 0.46345
 C413 C 0.45267 0.04565 0.45854
 C414 C 0.55275 0.04293 0.46542
 C415 C 0.44722 -0.05630 0.46025
 O416 O 0.55337 0.52470 0.03940
 O417 O 0.43994 0.47643 0.02326
 O418 O 0.47573 0.56574 0.02664
 O419 O 0.53339 0.42873 0.01031
 O420 O 0.43501 0.53522 0.00998
 O421 O 0.54714 0.46813 0.03550
 O422 O 0.48599 0.45360 0.03562
 O423 O 0.53687 0.57009 0.01988
 C424 C 0.55152 0.55534 0.03928
 C425 C 0.45708 0.46061 0.04086
 C426 C 0.44643 0.55594 0.02716
 C427 C 0.54994 0.43822 0.03046
 O428 O 0.56029 0.47188 -0.02044
 O429 O 0.45102 0.51883 -0.04209
 O430 O 0.52768 0.56390 -0.03233
 O431 O 0.47332 0.41902 -0.00696
 O432 O 0.45266 0.46125 -0.02997
 O433 O 0.56781 0.53227 -0.01471
 O434 O 0.51219 0.45345 -0.03499
 O435 O 0.46580 0.56651 -0.02655
 Co436 Co 0.55284 0.49948 0.00903
 Co437 Co 0.44963 0.49851 -0.00871
 Co438 Co 0.50143 0.56071 -0.00276
 Co439 Co 0.49813 0.45547 0.00014
 O440 O 0.50199 0.50577 0.00014
 C441 C 0.54234 0.45801 -0.03879
 C442 C 0.45210 0.54950 -0.04488
 C443 C 0.55683 0.55330 -0.03242
 C444 C 0.45060 0.43056 -0.02378
 C445 C 1.13538 0.14830 0.13667
 N446 N 1.14615 0.11765 0.12977
 N447 N 1.12853 0.09918 0.11204
 C448 C 1.09956 0.11076 0.10075
 N449 N 1.08878 0.14140 0.10768
 N450 N 1.10640 0.15987 0.12540
 C451 C 1.15471 0.16846 0.15532
 C452 C 1.17109 0.18535 0.17093
 C453 C 1.08136 0.09155 0.08069
 C454 C 1.06655 0.07594 0.06322
 C455 C 1.11846 0.65493 0.62902
 N456 N 1.09704 0.63039 0.63593
 N457 N 1.08174 0.61237 0.61652
 C458 C 1.08733 0.61837 0.58959
 N459 N 1.10869 0.64297 0.58268
 N460 N 1.12399 0.66098 0.60209
 C461 C 1.13627 0.67322 0.64995
 C462 C 1.15188 0.68822 0.66737
 C463 C 1.07254 0.59750 0.56880
 C464 C 1.06103 0.57910 0.55157
 C465 C 0.61981 0.13451 0.64038
 N466 N 0.58919 0.14321 0.63055
 N467 N 0.57345 0.12461 0.61178
 C468 C 0.58784 0.09673 0.60230
 N469 N 0.61842 0.08798 0.61218
 N470 N 0.63417 0.10658 0.63094
 C471 C 0.63757 0.15550 0.65940
 C472 C 0.65309 0.17334 0.67484
 C473 C 0.57177 0.07794 0.58083
 C474 C 0.55853 0.06299 0.56218
 C475 C 0.63825 0.64613 0.13324
 N476 N 0.60472 0.64578 0.13366
 N477 N 0.58711 0.62747 0.11581
 C478 C 0.60255 0.60894 0.09704
 N479 N 0.63607 0.60929 0.09664
 N480 N 0.65367 0.62759 0.11448
 C481 C 0.65722 0.66615 0.15218
 C482 C 0.67318 0.68303 0.16804
 C483 C 0.58375 0.58986 0.07733
 C484 C 0.56860 0.57398 0.06026
 C485 C 0.87891 -0.11040 0.14574
 N486 N 0.86629 -0.08191 0.13432
 N487 N 0.88268 -0.06535 0.11514
 C488 C 0.91221 -0.07675 0.10684
 N489 N 0.92489 -0.10516 0.11834
 N490 N 0.90851 -0.12173 0.13752
 C491 C 0.85999 -0.12964 0.16468
 C492 C 0.84341 -0.14621 0.17982
 C493 C 0.92819 -0.06089 0.08427
 C494 C 0.94082 -0.04882 0.06439
 C495 C 0.84103 0.37004 0.62079
 N496 N 0.84093 0.40372 0.61793
 N497 N 0.85793 0.41854 0.59819
 C498 C 0.87545 0.40014 0.58064
 N499 N 0.87549 0.36646 0.58347
 N500 N 0.85850 0.35164 0.60321
 C501 C 0.82368 0.35409 0.64265
 C502 C 0.80943 0.34045 0.66107
 C503 C 0.89557 0.41623 0.56061
 C504 C 0.91351 0.42995 0.54469
 C505 C 0.36401 -0.12955 0.63789
 N506 N 0.35658 -0.09866 0.62784
 N507 N 0.37476 -0.08470 0.60845
 C508 C 0.40095 -0.10120 0.59852
 N509 N 0.40842 -0.13207 0.60860
 N510 N 0.39024 -0.14603 0.62799
 C511 C 0.34369 -0.14514 0.65801
 C512 C 0.32643 -0.15864 0.67456
 C513 C 0.41964 -0.08674 0.57680
 C514 C 0.43472 -0.07473 0.55814
 C515 C 0.37596 0.39176 0.14671
 N516 N 0.40689 0.38121 0.14127
 N517 N 0.42439 0.39668 0.12218
 C518 C 0.41155 0.42326 0.10798
 N519 N 0.38067 0.43389 0.11350
 N520 N 0.36316 0.41842 0.13259
 C521 C 0.35626 0.37359 0.16588
 C522 C 0.33968 0.35755 0.18143
 C523 C 0.42900 0.43782 0.08556
 C524 C 0.44258 0.44892 0.06572
 C525 C 0.86675 0.14635 -0.14152
 N526 N 0.85958 0.11362 -0.13757
 N527 N 0.87731 0.09524 -0.11943
 C528 C 0.90283 0.10899 -0.10473
 N529 N 0.91004 0.14170 -0.10872
 N530 N 0.89231 0.16009 -0.12686
 C531 C 0.84680 0.16641 -0.16030
 C532 C 0.82956 0.18303 -0.17588
 C533 C 0.92062 0.08976 -0.08397
 C534 C 0.93490 0.07422 -0.06578
 C535 C 0.84509 0.64286 0.37935
 N536 N 0.84062 0.60936 0.37948
 N537 N 0.85443 0.59042 0.39943
 C538 C 0.87299 0.60443 0.41994
 N539 N 0.87737 0.63795 0.41985
 N540 N 0.86356 0.65689 0.39990
 C541 C 0.83139 0.66308 0.35726
 C542 C 0.82005 0.67999 0.33858
 C543 C 0.89035 0.58381 0.43993
 C544 C 0.90645 0.56646 0.45573
 C545 C 0.37226 0.13407 0.35750
 N546 N 0.35744 0.10737 0.36929
 N547 N 0.37390 0.08864 0.38799
 C548 C 0.40568 0.09602 0.39542
 N549 N 0.42052 0.12267 0.38358
 N550 N 0.40407 0.14140 0.36489
 C551 C 0.35397 0.15527 0.33851
 C552 C 0.33830 0.17347 0.32304
 C553 C 0.42265 0.07725 0.41687
 C554 C 0.43655 0.06231 0.43554
 C555 C 0.35993 0.63592 -0.14032
 N556 N 0.34825 0.60726 -0.12912
 N557 N 0.36732 0.58904 -0.11182
 C558 C 0.39871 0.59884 -0.10524
 N559 N 0.41040 0.62747 -0.11648
 N560 N 0.39133 0.64569 -0.13379
 C561 C 0.33897 0.65625 -0.15815
 C562 C 0.32139 0.67362 -0.17288
 C563 C 0.41842 0.58046 -0.08510
 C564 C 0.43429 0.56580 -0.06730
 C565 C 1.12022 -0.11178 -0.14112
 N566 N 1.13441 -0.08554 -0.12796
 N567 N 1.11764 -0.06860 -0.10965
 C568 C 1.08612 -0.07728 -0.10400
 N569 N 1.07191 -0.10346 -0.11722
 N570 N 1.08866 -0.12040 -0.13552
 C571 C 1.13890 -0.13120 -0.15971
 C572 C 1.15478 -0.14792 -0.17490
 C573 C 1.06910 -0.06091 -0.08255
 C574 C 1.05547 -0.04842 -0.06359
 C575 C 1.13650 0.35981 0.37575
 N576 N 1.14699 0.35780 0.40247
 N577 N 1.12971 0.37211 0.42190
 C578 C 1.10131 0.38875 0.41521
 N579 N 1.09078 0.39071 0.38848
 N580 N 1.10807 0.37640 0.36906
 C581 C 1.15562 0.34514 0.35476
 C582 C 1.17187 0.33280 0.33726
 C583 C 1.08392 0.40612 0.43586
 C584 C 1.07009 0.42198 0.45289
 C585 C 0.63105 -0.12199 0.35911
 N586 N 0.64464 -0.09770 0.37496
 N587 N 0.62740 -0.08418 0.39476
 C588 C 0.59611 -0.09458 0.39932
 N589 N 0.58250 -0.11881 0.38343
 N590 N 0.59973 -0.13233 0.36362
 C591 C 0.65029 -0.13807 0.33905
 C592 C 0.66667 -0.15245 0.32282
 C593 C 0.57825 -0.08127 0.42152
 C594 C 0.56358 -0.07048 0.44053
 C595 C 0.62144 0.38409 -0.14195
 N596 N 0.63483 0.41115 -0.12940
 N597 N 0.61818 0.42721 -0.11050
 C598 C 0.58759 0.41677 -0.10360
 N599 N 0.57417 0.38975 -0.11620
 N600 N 0.59081 0.37369 -0.13510
 C601 C 0.64009 0.36568 -0.16122
 C602 C 0.65593 0.34974 -0.17696
 C603 C 0.57074 0.43250 -0.08176
 C604 C 0.55730 0.44476 -0.06261
 C605 C 1.14793 0.12177 -0.13163
 N606 N 1.15956 0.12309 -0.10522
 N607 N 1.14221 0.10982 -0.08503
 C608 C 1.11269 0.09491 -0.09068
 N609 N 1.10110 0.09350 -0.11710
 N610 N 1.11846 0.10677 -0.13729
 C611 C 1.16556 0.13797 -0.15301
 C612 C 1.18024 0.15274 -0.17049
 C613 C 1.09323 0.08209 -0.06895
 C614 C 1.07618 0.07166 -0.05099
 C615 C 1.12982 0.62172 0.35785
 N616 N 1.09994 0.63349 0.36502
 N617 N 1.08236 0.61721 0.38359
 C618 C 1.09410 0.58864 0.39551
 N619 N 1.12394 0.57683 0.38830
 N620 N 1.14152 0.59311 0.36972
 C621 C 1.14942 0.64008 0.33886
 C622 C 1.16612 0.65582 0.32327
 C623 C 1.07626 0.57239 0.41684
 C624 C 1.06190 0.55946 0.43547
 C625 C 0.63812 0.12945 0.37033
 N626 N 0.61404 0.10793 0.36192
 N627 N 0.59674 0.09088 0.38026
 C628 C 0.60300 0.09485 0.40756
 N629 N 0.62707 0.11638 0.41594
 N630 N 0.64436 0.13342 0.39762
 C631 C 0.65698 0.14766 0.35064
 C632 C 0.67302 0.16297 0.33425
 C633 C 0.58469 0.07632 0.42741
 C634 C 0.56980 0.06095 0.44451
 C635 C 0.64970 0.61814 -0.13309
 N636 N 0.62082 0.60218 -0.13911
 N637 N 0.60359 0.58813 -0.11917
 C638 C 0.61473 0.58964 -0.09263
 N639 N 0.64365 0.60553 -0.08661
 N640 N 0.66088 0.61957 -0.10655
 C641 C 0.66723 0.63502 -0.15425
 C642 C 0.68179 0.65021 -0.17162
 C643 C 0.59523 0.57617 -0.07109
 C644 C 0.57813 0.56547 -0.05322
 C645 C 0.86411 -0.15371 -0.12138
 N646 N 0.85157 -0.12454 -0.11268
 N647 N 0.86699 -0.10781 -0.09255
 C648 C 0.89534 -0.11984 -0.08045
 N649 N 0.90785 -0.14904 -0.08913
 N650 N 0.89242 -0.16577 -0.10925
 C651 C 0.84795 -0.17133 -0.14346
 C652 C 0.83444 -0.18622 -0.16200
 C653 C 0.91309 -0.10073 -0.06012
 C654 C 0.92869 -0.08395 -0.04395
 C655 C 0.88163 0.36793 0.35633
 N656 N 0.87183 0.39939 0.36180
 N657 N 0.88864 0.41757 0.38026
 C658 C 0.91584 0.40491 0.39375
 N659 N 0.92570 0.37349 0.38820
 N660 N 0.90889 0.35530 0.36975
 C661 C 0.86224 0.34756 0.33782
 C662 C 0.84544 0.33027 0.32280
 C663 C 0.93200 0.42324 0.41551
 C664 C 0.94439 0.43776 0.43480
 C665 C 0.36918 -0.14300 0.35865
 N666 N 0.39502 -0.15665 0.37332
 N667 N 0.41125 -0.13907 0.39250
 C668 C 0.40216 -0.10728 0.39758
 N669 N 0.37635 -0.09362 0.38288
 N670 N 0.36012 -0.11121 0.36370
 C671 C 0.35087 -0.16238 0.33876
 C672 C 0.33508 -0.17882 0.32240
 C673 C 0.41865 -0.08889 0.41911
 C674 C 0.43199 -0.07379 0.43765
 C675 C 0.36810 0.33778 -0.11796
 N676 N 0.39938 0.32962 -0.10949
 N677 N 0.41455 0.34622 -0.08918
 C678 C 0.39882 0.37133 -0.07668
 N679 N 0.36750 0.37941 -0.08510
 N680 N 0.35232 0.36281 -0.10540
 C681 C 0.35226 0.32090 -0.14051
 C682 C 0.33875 0.30703 -0.15955
 C683 C 0.41615 0.39106 -0.05661
 C684 C 0.43145 0.40859 -0.04088
 C685 C 1.13316 -0.15391 0.12163
 N686 N 1.14880 -0.13983 0.10017
 N687 N 1.13167 -0.12308 0.08061
 C688 C 1.09835 -0.12004 0.08188
 N689 N 1.08270 -0.13420 0.10330
 N690 N 1.09983 -0.15095 0.12286
 C691 C 1.15177 -0.17084 0.14317
 C692 C 1.16765 -0.18483 0.16127
 C693 C 1.08027 -0.09986 0.06203
 C694 C 1.06520 -0.08166 0.04621
 C695 C 1.14116 0.36554 0.64277
 N696 N 1.10794 0.36105 0.64021
 N697 N 1.09006 0.37867 0.62167
 C698 C 1.10487 0.40131 0.60519
 N699 N 1.13807 0.40586 0.60780
 N700 N 1.15596 0.38824 0.62634
 C701 C 1.16056 0.34541 0.66174
 C702 C 1.17683 0.32796 0.67731
 C703 C 1.08597 0.41881 0.58418
 C704 C 1.07034 0.43283 0.56598
 C705 C 0.63839 -0.14322 0.63673
 N706 N 0.64881 -0.11261 0.62856
 N707 N 0.63093 -0.09476 0.61016
 C708 C 0.60205 -0.10696 0.59940
 N709 N 0.59160 -0.13755 0.60760
 N710 N 0.60949 -0.15539 0.62601
 C711 C 0.65813 -0.16287 0.65593
 C712 C 0.67479 -0.17959 0.67185
 C713 C 0.58363 -0.08843 0.57860
 C714 C 0.56874 -0.07322 0.56058
 C715 C 0.63473 0.34580 0.12638
 N716 N 0.65007 0.35688 0.10365
 N717 N 0.63308 0.37317 0.08374
 C718 C 0.60020 0.37876 0.08590
 N719 N 0.58485 0.36761 0.10860
 N720 N 0.60184 0.35132 0.12852
 C721 C 0.65331 0.32929 0.14820
 C722 C 0.66932 0.31569 0.16644
 C723 C 0.58239 0.39827 0.06540
 C724 C 0.56753 0.41582 0.04892
 C725 C 0.85707 0.12693 0.13067
 N726 N 0.87820 0.10124 0.13597
 N727 N 0.89383 0.08694 0.11558
 C728 C 0.88874 0.09785 0.08928
 N729 N 0.86756 0.12350 0.08398
 N730 N 0.85193 0.13778 0.10436
 C731 C 0.84108 0.14315 0.15265
 C732 C 0.82763 0.15738 0.17080
 C733 C 0.90710 0.08377 0.06760
 C734 C 0.92356 0.07249 0.04981
 C735 C 0.88290 0.61797 0.64333
 N736 N 0.87407 0.58646 0.63649
 N737 N 0.89050 0.57014 0.61763
 C738 C 0.91631 0.58480 0.60508
 N739 N 0.92521 0.61627 0.61199
 N740 N 0.90878 0.63259 0.63085
 C741 C 0.86379 0.63635 0.66221
 C742 C 0.84719 0.65205 0.67752
 C743 C 0.93185 0.56850 0.58291
 C744 C 0.94362 0.55553 0.56335
 C745 C 0.36907 0.12055 0.63457
 N746 N 0.35809 0.09019 0.62644
 N747 N 0.37336 0.07394 0.60689
 C748 C 0.40005 0.08760 0.59489
 N749 N 0.41107 0.11794 0.60304
 N750 N 0.39580 0.13418 0.62259
 C751 C 0.35197 0.13850 0.65490
 C752 C 0.33724 0.15380 0.67167
 C753 C 0.41583 0.07060 0.57329
 C754 C 0.42881 0.05648 0.55490
 C755 C 0.35788 0.62592 0.12645
 N756 N 0.37701 0.59875 0.13199
 N757 N 0.39296 0.58410 0.11196
 C758 C 0.39017 0.59610 0.08581
 N759 N 0.37099 0.62323 0.08027
 N760 N 0.35504 0.63788 0.10029
 C761 C 0.34134 0.64226 0.14803
 C762 C 0.32730 0.65650 0.16584
 C763 C 0.40875 0.58143 0.06459
 C764 C 0.42535 0.56956 0.04717
   
