data_POSCAR
  _audit_creation_date              2014-09-24
  _audit_creation_method            'ToBaCCo'
  _symmetry_space_group_name_H-M    'P1'
  _symmetry_Int_Tables_number       1
  _symmetry_cell_setting            triclinic
  loop_
  _symmetry_equiv_pos_as_xyz
 x,y,z
_cell_length_a 16.0895
_cell_length_b 16.9060
_cell_length_c 16.7377
_cell_angle_alpha 79.011300
_cell_angle_beta 100.140300
_cell_angle_gamma 91.810300
loop_
  _atom_site_label
  _atom_site_type_symbol
  _atom_site_fract_x
  _atom_site_fract_y
  _atom_site_fract_z
C1 C -0.05303 0.56966 1.02217
 C2 C 0.03270 0.57591 1.01346
 C3 C 0.07253 0.51120 0.99405
 C4 C 0.02893 0.43958 0.98567
 C5 C -0.05570 0.43216 0.99780
 C6 C -0.09597 0.49706 1.01583
 H7 H -0.16232 0.49243 1.02091
 H8 H 0.13752 0.51684 0.98447
 C9 C 0.44848 0.03523 0.52822
 C10 C 0.42580 0.00320 0.45544
 C11 C 0.48961 -0.02491 0.41998
 C12 C 0.57478 -0.02071 0.45641
 C13 C 0.59708 0.01739 0.52465
 C14 C 0.53350 0.04614 0.55933
 H15 H 0.54979 0.07219 0.61436
 H16 H 0.47289 -0.05430 0.36723
 C17 C 0.11469 -0.01793 0.19530
 H18 H 0.09524 -0.01626 0.12982
 C19 C 0.20047 -0.01697 0.22899
 H20 H 0.24732 -0.01423 0.18936
 C21 C 0.07737 -0.02342 0.32711
 H22 H 0.02905 -0.02544 0.36489
 C23 C 0.16253 -0.02126 0.36317
 H24 H 0.17922 -0.02212 0.42888
 N25 N 0.05523 -0.02185 0.24454
 C26 C -0.15889 -0.11674 0.09341
 H27 H -0.20587 -0.07102 0.08903
 C28 C -0.17974 -0.18282 0.05519
 H29 H -0.24226 -0.18711 0.01962
 C30 C -0.02146 -0.16922 0.14801
 H31 H 0.03925 -0.16506 0.18655
 C32 C -0.04074 -0.23768 0.11281
 H33 H 0.00516 -0.28555 0.12459
 Zn34 Zn -0.05961 -0.02203 0.19322
 N35 N -0.08015 -0.10998 0.13702
 C36 C -0.11692 0.08437 0.03902
 N37 N -0.08322 0.07862 0.12048
 C38 C -0.06485 0.14573 0.15399
 C39 C -0.08190 0.22229 0.10561
 C40 C -0.13693 0.15973 -0.01104
 C41 C -0.12847 -0.11184 0.32176
 C42 C -0.18821 -0.13458 0.37280
 C43 C -0.25365 -0.00356 0.32395
 C44 C -0.19305 0.01651 0.27271
 N45 N -0.13254 -0.03792 0.27213
 H46 H -0.12845 0.03091 0.01243
 H47 H -0.03721 0.13956 0.21865
 H48 H -0.06709 0.27512 0.13314
 H49 H -0.16432 0.16383 -0.07561
 H50 H -0.08064 -0.15435 0.31906
 H51 H -0.18588 -0.19445 0.41035
 H52 H -0.30261 0.03935 0.32271
 H53 H -0.19641 0.07428 0.23144
 C54 C -0.12034 -0.24388 0.06445
 C55 C 0.22506 -0.01812 0.31357
 C56 C -0.25212 -0.08074 0.37341
 C57 C -0.11923 0.22949 0.02220
 C58 C 0.08776 0.19026 0.82349
 H59 H 0.08459 0.20051 0.75723
 C60 C 0.08595 0.25562 0.86305
 H61 H 0.08134 0.31612 0.82682
 C62 C 0.08810 0.09865 0.94989
 H63 H 0.08459 0.03751 0.98268
 C64 C 0.08511 0.16225 0.99158
 H65 H 0.08009 0.14981 1.05645
 N66 N 0.08816 0.11362 0.86707
 C67 C 0.14035 -0.03069 0.69093
 H68 H 0.09041 -0.07454 0.69772
 C69 C 0.19509 -0.03574 0.63623
 H70 H 0.18767 -0.08361 0.60080
 C71 C 0.21277 0.08387 0.73061
 H72 H 0.22037 0.12938 0.76867
 C73 C 0.26987 0.08025 0.67736
 H74 H 0.32087 0.12345 0.67438
 Zn75 Zn 0.07096 0.02811 0.80792
 N76 N 0.14914 0.02914 0.73578
 C77 C -0.05812 0.04151 0.66518
 N78 N -0.04036 0.03840 0.74828
 C79 C -0.10274 0.04080 0.79307
 C80 C -0.18718 0.04327 0.75484
 C81 C -0.14178 0.04243 0.62479
 C82 C 0.15501 -0.08802 0.93667
 C83 C 0.16751 -0.16299 0.98905
 C84 C 0.03222 -0.20575 0.92300
 C85 C 0.02137 -0.12938 0.87312
 N86 N 0.08244 -0.07241 0.88079
 H87 H -0.00784 0.04213 0.63010
 H88 H -0.08670 0.03907 0.85893
 H89 H -0.23664 0.04366 0.79107
 H90 H -0.15523 0.04295 0.55899
 H91 H 0.20315 -0.04207 0.94036
 H92 H 0.22518 -0.17494 1.03381
 H93 H -0.01635 -0.25077 0.91549
 H94 H -0.03487 -0.11645 0.82689
 C95 C 0.26078 0.01969 0.62950
 C96 C 0.08218 0.24146 0.94772
 C97 C 0.10622 -0.22285 0.98178
 C98 C -0.20714 0.04225 0.67036
 N99 N -0.09699 -0.36760 0.02595
 N100 N -0.14427 -0.31136 0.02522
 N101 N -0.09916 0.36778 -0.01571
 N102 N -0.13804 0.30661 -0.03004
 N103 N 0.38762 0.05042 0.57650
 N104 N 0.31997 0.00960 0.57779
 N105 N -0.31592 0.02083 0.56190
 N106 N -0.29381 0.03927 0.63282
 N107 N 0.07677 -0.35931 1.02362
 N108 N 0.12128 -0.30026 1.03413
 N109 N 0.06736 0.37862 0.95543
 N110 N 0.05954 0.30445 0.98593
 N111 N -0.36869 -0.06369 0.43616
 N112 N -0.31583 -0.10808 0.42216
 N113 N 0.33826 -0.00124 0.41986
 N114 N 0.31321 -0.01466 0.34722
   
