data_POSCAR
  _audit_creation_date              2014-09-24
  _audit_creation_method            'ToBaCCo'
  _symmetry_space_group_name_H-M    'P1'
  _symmetry_Int_Tables_number       1
  _symmetry_cell_setting            triclinic
  loop_
  _symmetry_equiv_pos_as_xyz
 x,y,z
_cell_length_a 26.1847
_cell_length_b 34.6123
_cell_length_c 26.4220
_cell_angle_alpha 90.008200
_cell_angle_beta 90.061700
_cell_angle_gamma 89.980500
loop_
  _atom_site_label
  _atom_site_type_symbol
  _atom_site_fract_x
  _atom_site_fract_y
  _atom_site_fract_z
O1 O 0.18293 0.21413 0.23989
 O2 O 0.24879 0.28672 0.31822
 O3 O 0.18589 0.28919 0.24249
 O4 O 0.24531 0.21151 0.31696
 O5 O 0.31151 0.21132 0.26511
 O6 O 0.25059 0.28743 0.18884
 O7 O 0.31396 0.28597 0.26507
 O8 O 0.24925 0.21215 0.18824
 Cu9 Cu 0.20910 0.25039 0.28472
 Cu10 Cu 0.28787 0.24913 0.22140
 C11 C 0.20500 0.20081 0.20085
 C12 C 0.29256 0.29864 0.30480
 C13 C 0.20810 0.30138 0.20298
 C14 C 0.28871 0.19852 0.30400
 O15 O 0.81488 0.28516 0.23808
 O16 O 0.74719 0.21237 0.31417
 O17 O 0.81295 0.21013 0.24096
 O18 O 0.74923 0.28751 0.31256
 O19 O 0.68561 0.28726 0.25748
 O20 O 0.75048 0.21118 0.18459
 O21 O 0.68457 0.21159 0.25802
 O22 O 0.75082 0.28616 0.18351
 Cu23 Cu 0.78741 0.24891 0.28208
 Cu24 Cu 0.71136 0.24908 0.21543
 C25 C 0.79435 0.29794 0.19788
 C26 C 0.70475 0.19922 0.29861
 C27 C 0.79256 0.19766 0.20056
 C28 C 0.70657 0.30041 0.29722
 O29 O 0.74860 0.78826 0.68772
 O30 O 0.81325 0.71388 0.76425
 O31 O 0.74969 0.71316 0.68812
 O32 O 0.81322 0.78908 0.76226
 O33 O 0.74967 0.78830 0.81726
 O34 O 0.68481 0.71357 0.74160
 O35 O 0.74795 0.71324 0.81722
 O36 O 0.68487 0.78923 0.74252
 Cu37 Cu 0.78768 0.75102 0.72014
 Cu38 Cu 0.71024 0.75114 0.78500
 C39 C 0.70602 0.80163 0.70251
 C40 C 0.79136 0.70082 0.80355
 C41 C 0.70656 0.70048 0.70225
 C42 C 0.79234 0.80150 0.80240
 O43 O 0.31148 0.78934 0.73656
 O44 O 0.25040 0.71298 0.81214
 O45 O 0.31409 0.71466 0.73626
 O46 O 0.24906 0.78818 0.81322
 O47 O 0.18287 0.78633 0.76129
 O48 O 0.24907 0.71408 0.68280
 O49 O 0.18587 0.71136 0.75814
 O50 O 0.24537 0.78930 0.68442
 Cu51 Cu 0.28780 0.75136 0.77997
 Cu52 Cu 0.20920 0.75029 0.71628
 C53 C 0.28871 0.80222 0.69765
 C54 C 0.20793 0.69910 0.79775
 C55 C 0.29282 0.70213 0.69635
 C56 C 0.20475 0.79949 0.80058
 C57 C 0.97568 -0.00214 0.00170
 C58 C 1.02790 -0.00188 0.00140
 C59 C 1.05745 0.02948 0.02651
 C60 C 1.05771 -0.03285 -0.02418
 C61 C 0.94574 -0.03042 -0.02864
 C62 C 0.94570 0.02603 0.03212
 C63 C 1.04665 0.06854 0.01661
 C64 C 1.07128 0.09769 0.04387
 C65 C 1.10798 0.08826 0.08057
 C66 C 1.12097 0.04940 0.08834
 C67 C 1.09580 0.02020 0.06163
 C68 C 1.09557 -0.02304 -0.05949
 C69 C 1.12093 -0.05187 -0.08669
 C70 C 1.10859 -0.09088 -0.07924
 C71 C 1.07242 -0.10083 -0.04236
 C72 C 1.04763 -0.07206 -0.01460
 C73 C 0.90718 -0.05224 -0.00531
 C74 C 0.87957 -0.07956 -0.03298
 C75 C 0.89009 -0.08548 -0.08443
 C76 C 0.92801 -0.06330 -0.10804
 C77 C 0.95513 -0.03557 -0.08057
 C78 C 0.95559 0.03147 0.08394
 C79 C 0.92870 0.05936 0.11133
 C80 C 0.89059 0.08143 0.08776
 C81 C 0.87953 0.07517 0.03646
 C82 C 0.90687 0.04768 0.00888
 H83 H 1.01825 0.07641 -0.01138
 H84 H 1.06135 0.12748 0.03640
 H85 H 1.14971 0.04164 0.11605
 H86 H 1.10516 -0.00970 0.06942
 H87 H 1.10440 0.00697 -0.06707
 H88 H 1.14926 -0.04371 -0.11454
 H89 H 1.01963 -0.08033 0.01353
 H90 H 0.89910 -0.04857 0.03460
 H91 H 0.85070 -0.09645 -0.01385
 H92 H 0.93657 -0.06747 -0.14776
 H93 H 0.98384 -0.01843 -0.09966
 H94 H 0.98458 0.01449 0.10294
 H95 H 0.93767 0.06380 0.15093
 H96 H 0.85051 0.09195 0.01733
 H97 H 0.89845 0.04381 -0.03095
 H98 H 1.06304 -0.13075 -0.03511
 C99 C 0.47541 0.50105 0.49925
 C100 C 0.52763 0.50128 0.49824
 C101 C 0.55786 0.52886 0.52946
 C102 C 0.55683 0.47391 0.46580
 C103 C 0.44545 0.46971 0.47462
 C104 C 0.44588 0.53215 0.52489
 C105 C 0.59637 0.55117 0.50688
 C106 C 0.62317 0.57858 0.53523
 C107 C 0.61189 0.58406 0.58663
 C108 C 0.57426 0.56121 0.60955
 C109 C 0.54800 0.53341 0.58141
 C110 C 0.54504 0.46964 0.41418
 C111 C 0.56995 0.44178 0.38497
 C112 C 0.60788 0.41839 0.40660
 C113 C 0.62160 0.42402 0.45739
 C114 C 0.59619 0.45150 0.48683
 C115 C 0.45668 0.43066 0.48408
 C116 C 0.43101 0.40151 0.45782
 C117 C 0.39288 0.41093 0.42260
 C118 C 0.37966 0.44978 0.41520
 C119 C 0.40585 0.47898 0.44088
 C120 C 0.40729 0.52253 0.55952
 C121 C 0.38122 0.55149 0.58575
 C122 C 0.39357 0.59046 0.57804
 C123 C 0.43073 0.60022 0.54206
 C124 C 0.45625 0.57131 0.51524
 H125 H 0.60480 0.54802 0.46696
 H126 H 0.65183 0.59600 0.51662
 H127 H 0.56510 0.56503 0.64919
 H128 H 0.51928 0.51592 0.59994
 H129 H 0.51582 0.48738 0.39678
 H130 H 0.55936 0.43854 0.34562
 H131 H 0.60631 0.45460 0.52638
 H132 H 0.48606 0.42280 0.51106
 H133 H 0.44122 0.37172 0.46495
 H134 H 0.34989 0.45752 0.38857
 H135 H 0.39614 0.50887 0.43345
 H136 H 0.39821 0.49256 0.56711
 H137 H 0.35218 0.54348 0.61294
 H138 H 0.44020 0.63011 0.53467
 H139 H 0.48476 0.57944 0.48756
 H140 H 0.65123 0.40651 0.47451
 C141 C 0.02756 0.49985 -0.00036
 C142 C -0.02465 0.49903 -0.00092
 C143 C -0.05378 0.46785 0.02500
 C144 C -0.05514 0.52918 -0.02748
 C145 C 0.05712 0.52813 -0.03096
 C146 C 0.05791 0.47230 0.03073
 C147 C -0.04252 0.42869 0.01626
 C148 C -0.06743 0.39982 0.04372
 C149 C -0.10487 0.40959 0.07945
 C150 C -0.11811 0.44851 0.08621
 C151 C -0.09265 0.47744 0.05934
 C152 C -0.09319 0.51818 -0.06206
 C153 C -0.12055 0.54609 -0.08899
 C154 C -0.11032 0.58549 -0.08174
 C155 C -0.07303 0.59660 -0.04651
 C156 C -0.04618 0.56871 -0.01900
 C157 C 0.09529 0.55045 -0.00773
 C158 C 0.12259 0.57778 -0.03562
 C159 C 0.11215 0.58319 -0.08719
 C160 C 0.07464 0.56049 -0.11070
 C161 C 0.04784 0.53276 -0.08300
 C162 C 0.04802 0.46741 0.08260
 C163 C 0.07500 0.43988 0.11056
 C164 C 0.11326 0.41767 0.08750
 C165 C 0.12447 0.42351 0.03618
 C166 C 0.09700 0.45063 0.00802
 H167 H -0.01373 0.42055 -0.01114
 H168 H -0.05730 0.36996 0.03702
 H169 H -0.14741 0.45653 0.11314
 H170 H -0.10240 0.50740 0.06624
 H171 H -0.10091 0.48789 -0.06903
 H172 H -0.14889 0.53676 -0.11618
 H173 H -0.01783 0.57793 0.00830
 H174 H 0.10329 0.54719 0.03227
 H175 H 0.15111 0.59510 -0.01656
 H176 H 0.06611 0.56431 -0.15051
 H177 H 0.01944 0.51523 -0.10200
 H178 H 0.01884 0.48443 0.10118
 H179 H 0.06590 0.43575 0.15016
 H180 H 0.15361 0.40659 0.01748
 H181 H 0.10546 0.45411 -0.03184
 H182 H -0.06465 0.62689 -0.04040
 C183 C 0.52629 1.00146 0.49990
 C184 C 0.47409 1.00140 0.50002
 C185 C 0.44419 0.97161 0.52772
 C186 C 0.44386 1.03112 0.47245
 C187 C 0.55598 1.02930 0.46865
 C188 C 0.55636 0.97373 0.53104
 C189 C 0.45326 0.93199 0.52037
 C190 C 0.42587 0.90455 0.54804
 C191 C 0.38800 0.91624 0.58228
 C192 C 0.37791 0.95573 0.58859
 C193 C 0.40578 0.98319 0.56152
 C194 C 0.40535 1.01947 0.43875
 C195 C 0.37721 1.04687 0.41176
 C196 C 0.38714 1.08638 0.41807
 C197 C 0.42510 1.09816 0.45223
 C198 C 0.45275 1.07077 0.47982
 C199 C 0.59400 1.05199 0.49148
 C200 C 0.62058 1.07956 0.46330
 C201 C 0.60960 1.08488 0.41179
 C202 C 0.57239 1.06170 0.38863
 C203 C 0.54630 1.03372 0.41662
 C204 C 0.54700 0.96930 0.58310
 C205 C 0.57338 0.94138 0.61101
 C206 C 0.61059 0.91829 0.58773
 C207 C 0.62132 0.92367 0.53621
 C208 C 0.59444 0.95118 0.50811
 H209 H 0.48188 0.92235 0.49364
 H210 H 0.43417 0.87416 0.54275
 H211 H 0.34918 0.96550 0.61505
 H212 H 0.39797 1.01357 0.56756
 H213 H 0.39767 0.98907 0.43271
 H214 H 0.34842 1.03704 0.38535
 H215 H 0.48146 1.08047 0.50648
 H216 H 0.60227 1.04894 0.53146
 H217 H 0.64890 1.09720 0.48215
 H218 H 0.56348 1.06536 0.34888
 H219 H 0.51795 1.01595 0.39793
 H220 H 0.51864 0.98698 0.60188
 H221 H 0.56465 0.93766 0.65077
 H222 H 0.64964 0.90609 0.51729
 H223 H 0.60248 0.95426 0.46811
 H224 H 0.43328 1.12856 0.45751
 C225 C 1.13883 0.11639 0.16998
 C226 C 1.19534 0.12893 0.16479
 C227 C 1.17856 0.17135 0.16905
 C228 C 1.12240 0.15918 0.17465
 C229 C 1.17259 0.17422 0.11129
 C230 C 1.18905 0.13135 0.10662
 C231 C 1.13286 0.11913 0.11209
 C232 C 1.11609 0.16168 0.11646
 H233 H 1.12466 0.09235 0.19397
 H234 H 1.22815 0.11576 0.18509
 H235 H 1.09513 0.17083 0.20295
 H236 H 1.18676 0.19835 0.08747
 H237 H 1.21625 0.11968 0.07828
 H238 H 1.08338 0.17561 0.09694
 C239 C 0.65939 0.60909 0.67078
 C240 C 0.70789 0.63194 0.65584
 C241 C 0.68128 0.66956 0.67196
 C242 C 0.63308 0.64711 0.68736
 C243 C 0.66034 0.67543 0.61818
 C244 C 0.68664 0.63744 0.60160
 C245 C 0.63834 0.61490 0.61689
 C246 C 0.61178 0.65257 0.63317
 H247 H 0.65897 0.58150 0.69220
 H248 H 0.74769 0.62374 0.66561
 H249 H 0.61121 0.65135 0.72290
 H250 H 0.66086 0.70309 0.59693
 H251 H 0.70933 0.63362 0.56651
 H252 H 0.57197 0.66080 0.62348
 C253 C -0.18647 0.36646 0.10315
 C254 C -0.16988 0.32374 0.10933
 C255 C -0.17818 0.32724 0.16673
 C256 C -0.19510 0.36952 0.16096
 C257 C -0.12238 0.33973 0.17442
 C258 C -0.11373 0.33661 0.11659
 C259 C -0.13063 0.37902 0.11070
 C260 C -0.13893 0.38240 0.16823
 H261 H -0.21260 0.37768 0.07349
 H262 H -0.18290 0.29927 0.08542
 H263 H -0.22879 0.38276 0.17963
 H264 H -0.09618 0.32854 0.20405
 H265 H -0.08014 0.32264 0.09869
 H266 H -0.12591 0.40676 0.19233
 C267 C 0.38465 0.86428 0.65680
 C268 C 0.33565 0.87049 0.68858
 C269 C 0.31376 0.83282 0.66678
 C270 C 0.36239 0.82624 0.63542
 C271 C 0.28880 0.85495 0.62281
 C272 C 0.31104 0.89306 0.64426
 C273 C 0.35981 0.88655 0.61280
 C274 C 0.33779 0.84880 0.59104
 H275 H 0.42437 0.86842 0.67051
 H276 H 0.33451 0.87908 0.72904
 H277 H 0.38320 0.79840 0.63210
 H278 H 0.24910 0.85085 0.60906
 H279 H 0.28925 0.92041 0.64807
 H280 H 0.33881 0.84011 0.55062
 C281 C -0.11249 0.63816 -0.15579
 C282 C -0.16141 0.63250 -0.18799
 C283 C -0.18302 0.67017 -0.16589
 C284 C -0.13448 0.67624 -0.13412
 C285 C -0.20837 0.64783 -0.12235
 C286 C -0.18644 0.60976 -0.14412
 C287 C -0.13778 0.61572 -0.11224
 C288 C -0.15950 0.65347 -0.09019
 H289 H -0.07276 0.63387 -0.16930
 H290 H -0.16241 0.62420 -0.22857
 H291 H -0.11341 0.70391 -0.13033
 H292 H -0.24808 0.65205 -0.10875
 H293 H -0.20852 0.58259 -0.14841
 H294 H -0.15865 0.66188 -0.04965
 C295 C 0.38340 1.13821 0.34344
 C296 C 0.33431 1.13191 0.31171
 C297 C 0.31244 1.16958 0.33347
 C298 C 0.36115 1.17631 0.36473
 C299 C 0.28760 1.14754 0.37753
 C300 C 0.30987 1.10940 0.35616
 C301 C 0.35874 1.11601 0.38754
 C302 C 0.33672 1.15379 0.40921
 H303 H 0.42308 1.13407 0.32970
 H304 H 0.33306 1.12319 0.27128
 H305 H 0.38194 1.20415 0.36796
 H306 H 0.24795 1.15160 0.39138
 H307 H 0.28815 1.08203 0.35248
 H308 H 0.33786 1.16255 0.44961
 C309 C 1.18986 -0.13351 -0.10594
 C310 C 1.17358 -0.17637 -0.11132
 C311 C 1.17945 -0.17289 -0.16900
 C312 C 1.19610 -0.13051 -0.16408
 C313 C 1.12322 -0.16083 -0.17454
 C314 C 1.11701 -0.16389 -0.11638
 C315 C 1.13360 -0.12135 -0.11129
 C316 C 1.13950 -0.11804 -0.16913
 H317 H 1.21702 -0.12204 -0.07737
 H318 H 1.18785 -0.20070 -0.08783
 H319 H 1.22883 -0.11705 -0.18412
 H320 H 1.09590 -0.17222 -0.20302
 H321 H 1.08437 -0.17805 -0.09711
 H322 H 1.12520 -0.09381 -0.19274
 C323 C 0.64039 0.34550 0.39568
 C324 C 0.62441 0.33012 0.34300
 C325 C 0.68054 0.33167 0.32624
 C326 C 0.69690 0.34665 0.37860
 C327 C 0.67365 0.37319 0.30679
 C328 C 0.61714 0.37205 0.32388
 C329 C 0.63347 0.38715 0.37633
 C330 C 0.68967 0.38859 0.35956
 H331 H 0.62638 0.33428 0.43249
 H332 H 0.59785 0.30570 0.33600
 H333 H 0.72990 0.33592 0.40094
 H334 H 0.68773 0.38424 0.26991
 H335 H 0.58424 0.38209 0.30088
 H336 H 0.71628 0.41297 0.36655
 C337 C 0.88797 -0.15336 -0.13233
 C338 C 0.83990 -0.17633 -0.11610
 C339 C 0.81697 -0.16956 -0.16887
 C340 C 0.86469 -0.14702 -0.18555
 C341 C 0.79111 -0.13216 -0.15090
 C342 C 0.81443 -0.13850 -0.09761
 C343 C 0.86225 -0.11587 -0.11416
 C344 C 0.83917 -0.10920 -0.16706
 H345 H 0.92808 -0.16180 -0.12434
 H346 H 0.84005 -0.20430 -0.09551
 H347 H 0.88525 -0.15070 -0.22195
 H348 H 0.75101 -0.12371 -0.15894
 H349 H 0.79313 -0.13518 -0.06159
 H350 H 0.83897 -0.08130 -0.18776
 C351 C 0.38321 0.33748 0.38735
 C352 C 0.32677 0.32516 0.39392
 C353 C 0.31941 0.32802 0.33633
 C354 C 0.37549 0.33997 0.32935
 C355 C 0.30301 0.37050 0.34089
 C356 C 0.31072 0.36811 0.39891
 C357 C 0.36685 0.38009 0.39203
 C358 C 0.35945 0.38281 0.33431
 H359 H 0.41629 0.32341 0.40608
 H360 H 0.31301 0.30110 0.41809
 H361 H 0.40200 0.32820 0.30043
 H362 H 0.26979 0.38376 0.32137
 H363 H 0.28433 0.37992 0.42789
 H364 H 0.37320 0.40676 0.30994
 C365 C 0.18696 0.63682 -0.10071
 C366 C 0.20988 0.63087 -0.15419
 C367 C 0.18325 0.66807 -0.17181
 C368 C 0.16066 0.67442 -0.11883
 C369 C 0.13578 0.64509 -0.18820
 C370 C 0.16209 0.60748 -0.17012
 C371 C 0.13938 0.61377 -0.11704
 C372 C 0.11287 0.65105 -0.13484
 H373 H 0.20863 0.63360 -0.06485
 H374 H 0.25005 0.62288 -0.16257
 H375 H 0.16027 0.70234 -0.09813
 H376 H 0.11488 0.64871 -0.22447
 H377 H 0.16256 0.57964 -0.19098
 H378 H 0.07269 0.65910 -0.12655
 C379 C 0.68398 1.13860 0.39784
 C380 C 0.70655 1.13274 0.34423
 C381 C 0.68001 1.17010 0.32698
 C382 C 0.65777 1.17635 0.38011
 C383 C 0.63235 1.14733 0.31059
 C384 C 0.65857 1.10955 0.32838
 C385 C 0.63621 1.11570 0.38165
 C386 C 0.60974 1.15312 0.36420
 H387 H 0.70594 1.13522 0.43350
 H388 H 0.74663 1.12460 0.33562
 H389 H 0.65754 1.20417 0.40104
 H390 H 0.61124 1.15113 0.27448
 H391 H 0.65887 1.08179 0.30735
 H392 H 0.56965 1.16122 0.37278
 C393 C 0.18810 0.36406 0.10160
 C394 C 0.21038 0.36979 0.15543
 C395 C 0.18364 0.33248 0.17241
 C396 C 0.16168 0.32636 0.11908
 C397 C 0.13593 0.35537 0.18833
 C398 C 0.16237 0.39308 0.17090
 C399 C 0.14029 0.38701 0.11747
 C400 C 0.11366 0.34963 0.13462
 H401 H 0.21018 0.36745 0.06606
 H402 H 0.25044 0.37775 0.16441
 H403 H 0.16157 0.29854 0.09816
 H404 H 0.11462 0.35157 0.22429
 H405 H 0.16255 0.42083 0.19197
 H406 H 0.07359 0.34160 0.12573
 C407 C 0.68491 0.86434 0.60160
 C408 C 0.70741 0.86993 0.65534
 C409 C 0.68066 0.83261 0.67232
 C410 C 0.65846 0.82665 0.61905
 C411 C 0.63310 0.85554 0.68855
 C412 C 0.65955 0.89327 0.67110
 C413 C 0.63725 0.88737 0.61772
 C414 C 0.61056 0.84999 0.63487
 H415 H 0.70691 0.86776 0.56602
 H416 H 0.74752 0.87784 0.66416
 H417 H 0.65815 0.79888 0.59801
 H418 H 0.61194 0.85168 0.72457
 H419 H 0.65996 0.92096 0.69230
 H420 H 0.57043 0.84205 0.62612
 C421 C 0.81546 0.13484 0.10038
 C422 C 0.79234 0.12915 0.15378
 C423 C 0.81846 0.16664 0.17109
 C424 C 0.84127 0.17270 0.11815
 C425 C 0.86607 0.14406 0.18806
 C426 C 0.84027 0.10615 0.17029
 C427 C 0.86318 0.11216 0.11724
 C428 C 0.88923 0.14971 0.13471
 H429 H 0.79393 0.13129 0.06449
 H430 H 0.75221 0.12100 0.16206
 H431 H 0.84152 0.20046 0.09709
 H432 H 0.88670 0.14811 0.22440
 H433 H 0.83995 0.07847 0.19148
 H434 H 0.92937 0.15791 0.12652
 C435 C 0.31126 0.63294 0.60200
 C436 C 0.30366 0.63038 0.66000
 C437 C 0.31981 0.67289 0.66476
 C438 C 0.32708 0.67592 0.60719
 C439 C 0.37598 0.66108 0.67172
 C440 C 0.36018 0.61820 0.66657
 C441 C 0.36747 0.62109 0.60886
 C442 C 0.38359 0.66373 0.61373
 H443 H 0.28489 0.62112 0.57296
 H444 H 0.27054 0.61697 0.67945
 H445 H 0.31314 0.70000 0.58310
 H446 H 0.40246 0.67285 0.70071
 H447 H 0.37411 0.59424 0.69086
 H448 H 0.41659 0.67790 0.59508
   
