data_POSCAR
  _audit_creation_date              2014-09-24
  _audit_creation_method            'ToBaCCo'
  _symmetry_space_group_name_H-M    'P1'
  _symmetry_Int_Tables_number       1
  _symmetry_cell_setting            triclinic
  loop_
  _symmetry_equiv_pos_as_xyz
 x,y,z
_cell_length_a 26.1195
_cell_length_b 25.5085
_cell_length_c 26.1572
_cell_angle_alpha 88.370100
_cell_angle_beta 89.610800
_cell_angle_gamma 88.735200
loop_
  _atom_site_label
  _atom_site_type_symbol
  _atom_site_fract_x
  _atom_site_fract_y
  _atom_site_fract_z
C1 C 0.32346 0.38263 1.38916
 N2 N 0.34260 0.33467 1.40373
 C3 C 0.37721 0.30915 1.37414
 N4 N 0.39285 0.33205 1.32944
 C5 C 0.37474 0.38035 1.31464
 N6 N 0.33982 0.40572 1.34450
 C7 C 1.18743 0.63335 0.88161
 N8 N 1.17173 0.61328 0.83678
 C9 C 1.12780 0.63119 0.81417
 N10 N 1.09963 0.66975 0.83638
 C11 C 1.11483 0.69033 0.88099
 N12 N 1.15871 0.67180 0.90355
 C13 C 0.69015 -0.13094 0.11949
 N14 N 0.66901 -0.17479 0.10125
 C15 C 0.62982 -0.19841 0.12678
 N16 N 0.61230 -0.17811 0.17116
 C17 C 0.63383 -0.13498 0.19029
 N18 N 0.67253 -0.11131 0.16426
 C19 C -0.18417 1.12078 -0.38888
 N20 N -0.16266 1.16676 -0.40395
 C21 C -0.12539 1.18786 -0.37555
 N22 N -0.10970 1.16249 -0.33188
 C23 C -0.13086 1.11647 -0.31652
 N24 N -0.16838 1.09590 -0.34488
 C25 C 0.68278 0.60042 0.61165
 N26 N 0.65870 0.64335 0.59048
 C27 C 0.61496 0.66308 0.61162
 N28 N 0.59514 0.63928 0.65442
 C29 C 0.61899 0.59602 0.67570
 N30 N 0.66289 0.57713 0.65435
 C31 C 0.82683 0.40102 0.12982
 N32 N 0.84365 0.35380 0.11234
 C33 C 0.88492 0.32852 0.13407
 N34 N 0.90870 0.35056 0.17393
 C35 C 0.89196 0.39734 0.19198
 N36 N 0.85125 0.42253 0.16956
 C37 C 0.29853 0.13558 0.85891
 N38 N 0.31901 0.18253 0.86961
 C39 C 0.35855 0.20132 0.84104
 N40 N 0.37768 0.17296 0.80215
 C41 C 0.35839 0.12552 0.79171
 N42 N 0.31842 0.10713 0.81985
 C43 C 0.19454 0.87580 0.37960
 N44 N 0.17527 0.90014 0.33670
 C45 C 0.13144 0.88349 0.31551
 N46 N 0.10690 0.84195 0.33728
 C47 C 0.12563 0.81733 0.38007
 N48 N 0.16950 0.83453 0.40105
 Zn49 Zn 0.02341 0.99764 -0.05918
 Zn50 Zn 0.03647 1.04952 0.04108
 Zn51 Zn -0.06833 1.03939 -0.00394
 Zn52 Zn -0.01153 0.94392 0.03558
 O53 O -0.00499 1.00785 0.00355
 O54 O 0.08331 1.02849 -0.06651
 O55 O 0.00487 1.11028 0.05806
 O56 O -0.08480 1.05252 -0.06983
 O57 O 0.09460 1.06699 0.00720
 O58 O -0.01541 1.02333 -0.10999
 O59 O -0.07267 1.10184 0.02591
 O60 O -0.07657 0.92847 0.04934
 O61 O 0.05611 1.01797 0.10067
 O62 O -0.11873 1.00065 0.02350
 O63 O 0.01973 0.94071 0.09565
 O64 O 0.01489 0.89035 0.00026
 O65 O 0.03693 0.93028 -0.07238
 C66 C 0.11006 1.05567 -0.03741
 C67 C -0.04035 1.12798 0.05013
 C68 C -0.05941 1.04537 -0.11068
 C69 C -0.11792 0.95497 0.04419
 C70 C 0.04643 0.97281 0.11958
 C71 C 0.03375 0.88905 -0.04451
 Zn72 Zn 0.47718 0.00618 0.43350
 Zn73 Zn 0.46673 -0.05053 0.53499
 Zn74 Zn 0.57034 -0.03891 0.48505
 Zn75 Zn 0.51648 0.05418 0.52658
 O76 O 0.50763 -0.00753 0.49512
 O77 O 0.41644 -0.02356 0.42899
 O78 O 0.49862 -0.11188 0.55275
 O79 O 0.58463 -0.04876 0.41860
 O80 O 0.40848 -0.06683 0.50308
 O81 O 0.51411 -0.01739 0.38119
 O82 O 0.57452 -0.10221 0.51557
 O83 O 0.58166 0.06665 0.54066
 O84 O 0.44634 -0.02053 0.59374
 O85 O 0.62240 -0.00297 0.51058
 O86 O 0.48348 0.05641 0.58576
 O87 O 0.49358 0.11000 0.49044
 O88 O 0.46560 0.07461 0.42004
 C89 C 0.39117 -0.05289 0.45940
 C90 C 0.54353 -0.12901 0.54251
 C91 C 0.55809 -0.03913 0.37875
 C92 C 0.62261 0.04044 0.53316
 C93 C 0.45551 0.02450 0.61058
 C94 C 0.47339 0.11441 0.44665
 Zn95 Zn 1.02461 0.43667 0.47818
 Zn96 Zn 1.07161 0.53093 0.52080
 Zn97 Zn 0.96893 0.54046 0.46936
 Zn98 Zn 0.98084 0.48409 0.57152
 O99 O 1.01132 0.49823 0.50984
 O100 O 1.09109 0.42586 0.46494
 O101 O 1.07194 0.59476 0.49216
 O102 O 0.95320 0.51074 0.40950
 O103 O 1.12598 0.49752 0.49379
 O104 O 0.99416 0.43410 0.41779
 O105 O 0.99718 0.60285 0.45296
 O106 O 0.91901 0.51426 0.57589
 O107 O 1.08494 0.53990 0.58726
 O108 O 0.90865 0.55522 0.50064
 O109 O 1.01606 0.50704 0.62470
 O110 O 0.97084 0.41549 0.58356
 O111 O 1.00268 0.38045 0.51346
 C112 C 1.12968 0.45417 0.47129
 C113 C 1.04020 0.62123 0.46488
 C114 C 0.96580 0.46604 0.39240
 C115 C 0.89221 0.54230 0.54503
 C116 C 1.05874 0.52954 0.62722
 C117 C 0.98049 0.37589 0.55651
 Zn118 Zn 0.46784 0.48519 0.94068
 Zn119 Zn 0.56336 0.52352 0.98754
 Zn120 Zn 0.46136 0.54046 1.04030
 Zn121 Zn 0.50991 0.43342 1.03478
 O122 O 0.50052 0.49597 1.00084
 O123 O 0.50373 0.50667 0.88546
 O124 O 0.57028 0.58534 1.01662
 O125 O 0.40196 0.56132 1.00974
 O126 O 0.57429 0.53566 0.92055
 O127 O 0.40862 0.52053 0.93642
 O128 O 0.49500 0.59916 1.05421
 O129 O 0.48516 0.43442 1.09801
 O130 O 0.61612 0.48223 1.00961
 O131 O 0.44448 0.51136 1.10190
 O132 O 0.57551 0.41299 1.04060
 O133 O 0.47818 0.38119 1.00563
 O134 O 0.45063 0.41806 0.93302
 C135 C 0.54711 0.52805 0.88155
 C136 C 0.54004 0.61360 1.04294
 C137 C 0.38414 0.55044 0.96629
 C138 C 0.45789 0.46727 1.12207
 C139 C 0.61665 0.43649 1.03015
 C140 C 0.45481 0.37862 0.96360
 C141 C 1.28474 0.40498 0.41890
 C142 C 1.26202 0.45149 0.40799
 C143 C 1.21570 0.46949 0.43568
 C144 C 1.17917 0.43616 0.45065
 H145 H 1.27682 0.47695 0.37779
 H146 H 1.20909 0.51137 0.43869
 H147 H 1.27144 0.38209 0.45175
 H148 H 1.18337 0.39483 0.44267
 C149 C 0.23308 0.61582 0.90490
 C150 C 0.26359 0.57880 0.88438
 C151 C 0.31318 0.55944 0.90536
 C152 C 0.33390 0.57272 0.94997
 H153 H 0.25269 0.56148 0.84881
 H154 H 0.33364 0.53175 0.88163
 H155 H 0.24376 0.63377 0.94012
 H156 H 0.31425 0.59952 0.97509
 C157 C -0.26952 0.89234 0.09265
 C158 C -0.25002 0.93838 0.10541
 C159 C -0.20534 0.96125 0.07904
 C160 C -0.16537 0.93176 0.06383
 H161 H -0.26781 0.96122 0.13526
 H162 H -0.20305 1.00362 0.07722
 H163 H -0.25403 0.87232 0.05977
 H164 H -0.16547 0.88963 0.07042
 C165 C 0.77356 0.10024 0.58121
 C166 C 0.75787 0.05076 0.58707
 C167 C 0.71236 0.03110 0.56113
 C168 C 0.67066 0.06137 0.55221
 H169 H 0.77918 0.02316 0.61142
 H170 H 0.71130 -0.01054 0.55430
 H171 H 0.75488 0.12674 0.55375
 H172 H 0.66999 0.10194 0.56342
 C173 C 0.39563 0.25971 0.39011
 C174 C 0.42624 0.22955 0.36118
 C175 C 0.44453 0.17715 0.37902
 C176 C 0.45762 0.16698 0.42773
 H177 H 0.43574 0.24169 0.32231
 H178 H 0.44899 0.14699 0.35090
 H179 H 0.38317 0.24484 0.42729
 H180 H 0.45708 0.19833 0.45485
 C181 C 0.89575 0.23553 0.60873
 C182 C 0.92810 0.26178 0.63786
 C183 C 0.94822 0.31321 0.62172
 C184 C 0.96389 0.32356 0.57379
 H185 H 0.93708 0.24770 0.67629
 H186 H 0.95174 0.34248 0.65062
 H187 H 0.88380 0.25266 0.57220
 H188 H 0.96403 0.29284 0.54600
 C189 C 0.08621 0.73172 -0.09847
 C190 C 0.09692 0.75266 -0.05339
 C191 C 0.06952 0.79938 -0.03398
 C192 C 0.05378 0.83936 -0.06475
 H193 H 0.12624 0.73490 -0.02900
 H194 H 0.06744 0.80329 0.00712
 H195 H 0.05407 0.74744 -0.12046
 H196 H 0.06035 0.83774 -0.10562
 C197 C 0.60780 0.75625 1.10887
 C198 C 0.62400 0.73271 1.06626
 C199 C 0.60342 0.68311 1.04807
 C200 C 0.55750 0.66421 1.06133
 H201 H 0.65596 0.74846 1.04462
 H202 H 0.62746 0.66187 1.02144
 H203 H 0.57739 0.73924 1.13174
 H204 H 0.53169 0.68608 1.08569
 C205 C 0.39263 0.40272 1.26546
 C206 C 0.38306 0.45228 1.24899
 C207 C 0.40201 0.47331 1.19896
 C208 C 0.44210 0.45187 1.17425
 H209 H 0.35903 0.47787 1.27172
 H210 H 0.38187 0.50699 1.18201
 H211 H 0.41446 0.37603 1.24200
 H212 H 0.46368 0.41946 1.19156
 C213 C 0.61523 -0.11503 0.23930
 C214 C 0.64399 -0.08563 0.26898
 C215 C 0.62610 -0.06812 0.31944
 C216 C 0.57720 -0.05437 0.32827
 H217 H 0.68307 -0.07726 0.25789
 H218 H 0.65432 -0.06480 0.34927
 H219 H 0.57801 -0.12766 0.25267
 H220 H 0.54994 -0.05367 0.29719
 C221 C -0.11423 1.08969 -0.26872
 C222 C -0.06870 1.09919 -0.24820
 C223 C -0.05037 1.07423 -0.20016
 C224 C -0.08088 1.06445 -0.15979
 H225 H -0.04223 1.12456 -0.26850
 H226 H -0.00930 1.06862 -0.19648
 H227 H -0.13910 1.06090 -0.25100
 H228 H -0.12137 1.07447 -0.16157
 C229 C 1.11018 0.60952 0.76585
 C230 C 1.14102 0.58157 0.73522
 C231 C 1.12405 0.56243 0.68541
 C232 C 1.07663 0.54541 0.67770
 H233 H 1.18108 0.57588 0.74477
 H234 H 1.15215 0.56092 0.65482
 H235 H 1.07130 0.61907 0.75412
 H236 H 1.04970 0.54326 0.70934
 C237 C 0.73168 0.58028 0.59083
 C238 C 0.75630 0.60376 0.55150
 C239 C 0.80746 0.58634 0.53297
 C240 C 0.84105 0.55937 0.56258
 H241 H 0.73840 0.63697 0.53142
 H242 H 0.81841 0.59840 0.49447
 H243 H 0.74794 0.54546 0.60951
 H244 H 0.83144 0.54946 0.60191
 C245 C 0.78424 0.42753 1.10863
 C246 C 0.75318 0.40644 1.07466
 C247 C 0.70680 0.43528 1.05684
 C248 C 0.66548 0.40946 1.04280
 H249 H 0.75982 0.36657 1.06247
 H250 H 0.70510 0.47769 1.05882
 H251 H 0.77471 0.46626 1.12249
 H252 H 0.66610 0.36694 1.04496
 C253 C 0.25348 1.11753 -0.11173
 C254 C 0.22909 1.07387 -0.12345
 C255 C 0.18052 1.05666 -0.09984
 C256 C 0.16004 1.07443 -0.05618
 H257 H 0.24332 1.05054 -0.15468
 H258 H 0.16083 1.02680 -0.12026
 H259 H 0.23890 1.14244 -0.08194
 H260 H 0.17996 1.10224 -0.03353
 C261 C 0.24058 -0.10886 0.40101
 C262 C 0.26859 -0.06991 0.38063
 C263 C 0.31893 -0.05404 0.39978
 C264 C 0.34053 -0.07104 0.44385
 H265 H 0.25529 -0.04890 0.34649
 H266 H 0.33893 -0.02591 0.37561
 H267 H 0.25397 -0.13079 0.43445
 H268 H 0.32102 -0.09784 0.46967
 C269 C 0.59310 -0.29106 0.59004
 C270 C 0.55217 -0.26567 0.60971
 C271 C 0.53257 -0.21428 0.58911
 C272 C 0.56173 -0.18080 0.56196
 H273 H 0.53184 -0.28266 0.64217
 H274 H 0.49365 -0.20283 0.59899
 H275 H 0.61162 -0.27528 0.55601
 H276 H 0.60145 -0.19059 0.55418
 C277 C 1.10087 0.77324 0.40027
 C278 C 1.11848 0.74601 0.44140
 C279 C 1.09790 0.69577 0.46098
 C280 C 1.05432 0.67402 0.44590
 H281 H 1.15227 0.75899 0.46078
 H282 H 1.12142 0.67524 0.48938
 H283 H 1.06756 0.76026 0.38028
 H284 H 1.02896 0.69419 0.41903
 C285 C -0.09690 1.27995 0.11686
 C286 C -0.11874 1.25458 0.07858
 C287 C -0.10139 1.20246 0.06044
 C288 C -0.05522 1.18000 0.06978
 H289 H -0.15263 1.27140 0.06030
 H290 H -0.12816 1.18246 0.03674
 H291 H -0.06427 1.26229 0.13652
 H292 H -0.02693 1.20015 0.09140
 C293 C 0.38059 0.25243 0.85072
 C294 C 0.38474 0.27027 0.89780
 C295 C 0.41036 0.31990 0.90648
 C296 C 0.43077 0.32890 0.95188
 H297 H 0.37151 0.24686 0.93034
 H298 H 0.41342 0.34865 0.87533
 H299 H 0.39752 0.27394 0.81874
 H300 H 0.42936 0.29882 0.98197
 C301 C 0.60001 0.57084 0.72333
 C302 C 0.55332 0.58073 0.74269
 C303 C 0.53523 0.55706 0.79165
 C304 C 0.56649 0.54581 0.83113
 H305 H 0.52655 0.60582 0.72144
 H306 H 0.49426 0.55321 0.79665
 H307 H 0.62537 0.54262 0.74259
 H308 H 0.60687 0.55423 0.82800
 C309 C 0.38011 0.09490 0.74938
 C310 C 0.42275 0.11048 0.72507
 C311 C 0.44548 0.08674 0.67931
 C312 C 0.43252 0.04105 0.65938
 H313 H 0.44169 0.14522 0.73747
 H314 H 0.47499 0.10975 0.66070
 H315 H 0.36020 0.06051 0.73780
 H316 H 0.40457 0.01617 0.67795
 C317 C 0.11249 0.90905 0.26782
 C318 C 0.07134 0.89171 0.24370
 C319 C 0.05264 0.91200 0.19366
 C320 C 0.06673 0.95704 0.17033
 H321 H 0.05109 0.85849 0.25986
 H322 H 0.02482 0.88788 0.17549
 H323 H 0.13435 0.94104 0.25161
 H324 H 0.09267 0.98313 0.18846
 C325 C 0.91663 0.41837 0.23742
 C326 C 0.89815 0.46052 0.26181
 C327 C 0.91885 0.47919 0.31064
 C328 C 0.94750 0.44897 0.34252
 H329 H 0.86589 0.48261 0.24584
 H330 H 0.90747 0.51835 0.32177
 H331 H 0.95004 0.39703 0.25162
 H332 H 0.95731 0.40902 0.33299
   
