data_POSCAR
  _audit_creation_date              2014-09-24
  _audit_creation_method            'ToBaCCo'
  _symmetry_space_group_name_H-M    'P1'
  _symmetry_Int_Tables_number       1
  _symmetry_cell_setting            triclinic
  loop_
  _symmetry_equiv_pos_as_xyz
 x,y,z
_cell_length_a 48.4423
_cell_length_b 46.0999
_cell_length_c 46.0784
_cell_angle_alpha 89.928500
_cell_angle_beta 89.978500
_cell_angle_gamma 89.983100
loop_
  _atom_site_label
  _atom_site_type_symbol
  _atom_site_fract_x
  _atom_site_fract_y
  _atom_site_fract_z
C1 C 0.29185 0.28950 0.23882
 H2 H 0.29295 0.29005 0.26227
 C3 C 0.30980 0.30652 0.22230
 H4 H 0.32474 0.32034 0.23300
 C5 C 0.27128 0.27058 0.19614
 H6 H 0.25655 0.25624 0.18601
 C7 C 0.28885 0.28725 0.17881
 H8 H 0.28740 0.28591 0.15539
 N9 N 0.27284 0.27226 0.22560
 C10 C 0.20737 0.26053 0.28963
 H11 H 0.20619 0.23711 0.29025
 C12 C 0.18952 0.27712 0.30668
 H13 H 0.17458 0.26649 0.32058
 C14 C 0.22805 0.30311 0.27053
 H15 H 0.24279 0.31319 0.25611
 C16 C 0.21057 0.32051 0.28721
 H17 H 0.21211 0.34391 0.28581
 Zn18 Zn 0.24958 0.24959 0.24964
 N19 N 0.22639 0.27368 0.27229
 C20 C 0.27105 0.22861 0.30323
 N21 N 0.27271 0.22686 0.27378
 C22 C 0.29171 0.20952 0.26064
 C23 C 0.30955 0.19246 0.27726
 C24 C 0.28852 0.21191 0.32064
 C25 C 0.20748 0.23875 0.20954
 C26 C 0.18963 0.22220 0.19247
 C27 C 0.21056 0.17876 0.21197
 C28 C 0.22803 0.19611 0.22868
 N29 N 0.22643 0.22555 0.22691
 H30 H 0.25634 0.24303 0.31329
 H31 H 0.29289 0.20892 0.23720
 H32 H 0.32448 0.17856 0.26663
 H33 H 0.28700 0.21330 0.34406
 H34 H 0.20634 0.26218 0.20892
 H35 H 0.17473 0.23288 0.17854
 H36 H 0.21204 0.15535 0.21338
 H37 H 0.24271 0.18600 0.24312
 C38 C 0.19122 0.30738 0.30551
 C39 C 0.30821 0.30544 0.19202
 C40 C 0.19126 0.19194 0.19364
 C41 C 0.30786 0.19361 0.30753
 C42 C 0.79248 0.79073 0.23852
 H43 H 0.79362 0.79127 0.26196
 C44 C 0.81030 0.80789 0.22197
 H45 H 0.82515 0.82179 0.23272
 C46 C 0.77193 0.77171 0.19588
 H47 H 0.75725 0.75729 0.18577
 C48 C 0.78936 0.78850 0.17850
 H49 H 0.78780 0.78712 0.15508
 N50 N 0.77354 0.77339 0.22533
 C51 C 0.70815 0.76142 0.28941
 H52 H 0.70704 0.73799 0.29002
 C53 C 0.69025 0.77795 0.30648
 H54 H 0.67535 0.76726 0.32038
 C55 C 0.72870 0.80408 0.27033
 H56 H 0.74340 0.81421 0.25592
 C57 C 0.71118 0.82141 0.28702
 H58 H 0.71264 0.84482 0.28563
 Zn59 Zn 0.75038 0.75063 0.24940
 N60 N 0.72713 0.77464 0.27208
 C61 C 0.77189 0.72964 0.30296
 N62 N 0.77358 0.72796 0.27352
 C63 C 0.79261 0.71067 0.26036
 C64 C 0.81044 0.69357 0.27696
 C65 C 0.78934 0.71290 0.32036
 C66 C 0.70827 0.73964 0.20934
 C67 C 0.69043 0.72303 0.19231
 C68 C 0.71148 0.67967 0.21185
 C69 C 0.72894 0.69709 0.22851
 N70 N 0.72727 0.72652 0.22671
 H71 H 0.75715 0.74402 0.31305
 H72 H 0.79381 0.71012 0.23692
 H73 H 0.82538 0.67969 0.26632
 H74 H 0.78777 0.71421 0.34378
 H75 H 0.70707 0.76307 0.20869
 H76 H 0.67550 0.73365 0.17839
 H77 H 0.71302 0.65627 0.21330
 H78 H 0.74365 0.68703 0.24296
 C79 C 0.69187 0.80821 0.30533
 C80 C 0.80864 0.80684 0.19168
 C81 C 0.69214 0.69278 0.19353
 C82 C 0.80869 0.69463 0.30723
 C83 C 0.79301 0.28932 0.73992
 H84 H 0.79411 0.28985 0.76337
 C85 C 0.81088 0.30646 0.72342
 H86 H 0.82574 0.32035 0.73414
 C87 C 0.77251 0.27037 0.69722
 H88 H 0.75784 0.25599 0.68706
 C89 C 0.79001 0.28716 0.67991
 H90 H 0.78854 0.28586 0.65648
 N91 N 0.77407 0.27202 0.72667
 C92 C 0.70854 0.26018 0.79063
 H93 H 0.70740 0.23675 0.79126
 C94 C 0.69061 0.27675 0.80762
 H95 H 0.67566 0.26610 0.82149
 C96 C 0.72918 0.30279 0.77153
 H97 H 0.74391 0.31288 0.75714
 C98 C 0.71162 0.32016 0.78815
 H99 H 0.71310 0.34357 0.78672
 Zn100 Zn 0.75082 0.24929 0.75068
 N101 N 0.72757 0.27335 0.77332
 C102 C 0.77221 0.22821 0.80426
 N103 N 0.77393 0.22655 0.77482
 C104 C 0.79296 0.20926 0.76168
 C105 C 0.81076 0.19212 0.77826
 C106 C 0.78961 0.21145 0.82169
 C107 C 0.70875 0.23848 0.71054
 C108 C 0.69093 0.22195 0.69342
 C109 C 0.71188 0.17849 0.71286
 C110 C 0.72933 0.19583 0.72962
 N111 N 0.72770 0.22527 0.72790
 H112 H 0.75747 0.24260 0.81433
 H113 H 0.79418 0.20873 0.73824
 H114 H 0.82568 0.17827 0.76749
 H115 H 0.78792 0.21285 0.84512
 H116 H 0.70760 0.26191 0.70996
 H117 H 0.67603 0.23263 0.67951
 H118 H 0.71338 0.15508 0.71423
 H119 H 0.74401 0.18570 0.74405
 C120 C 0.69226 0.30701 0.80642
 C121 C 0.80927 0.30544 0.69314
 C122 C 0.69259 0.19169 0.69454
 C123 C 0.80901 0.19314 0.80858
 C124 C 0.29199 0.79026 0.73954
 H125 H 0.29308 0.79080 0.76299
 C126 C 0.30986 0.80739 0.72303
 H127 H 0.32472 0.82129 0.73374
 C128 C 0.27152 0.77126 0.69684
 H129 H 0.25686 0.75685 0.68669
 C130 C 0.28902 0.78803 0.67953
 H131 H 0.28757 0.78671 0.65610
 N132 N 0.27307 0.77293 0.72630
 C133 C 0.20756 0.76094 0.79024
 H134 H 0.20646 0.73750 0.79086
 C135 C 0.18960 0.77746 0.80723
 H136 H 0.17465 0.76677 0.82109
 C137 C 0.22814 0.80360 0.77120
 H138 H 0.24287 0.81373 0.75682
 C139 C 0.21055 0.82092 0.78782
 H140 H 0.21199 0.84433 0.78641
 Zn141 Zn 0.24986 0.75016 0.75031
 N142 N 0.22657 0.77416 0.77296
 C143 C 0.27130 0.72909 0.80388
 N144 N 0.27302 0.72746 0.77444
 C145 C 0.29209 0.71022 0.76128
 C146 C 0.30992 0.69312 0.77787
 C147 C 0.28875 0.71235 0.82128
 C148 C 0.20783 0.73924 0.71015
 C149 C 0.19005 0.72266 0.69303
 C150 C 0.21107 0.67926 0.71252
 C151 C 0.22847 0.69665 0.72927
 N152 N 0.22679 0.72608 0.72753
 H153 H 0.25653 0.74343 0.81397
 H154 H 0.29332 0.70970 0.73784
 H155 H 0.32490 0.67929 0.76722
 H156 H 0.28716 0.71363 0.84470
 H157 H 0.20663 0.76267 0.70955
 H158 H 0.17515 0.73331 0.67909
 H159 H 0.21262 0.65586 0.71390
 H160 H 0.24316 0.68656 0.74373
 C161 C 0.19119 0.80772 0.80606
 C162 C 0.30827 0.80633 0.69275
 C163 C 0.19177 0.69241 0.69416
 C164 C 0.30815 0.69413 0.80814
 Si165 Si -0.00100 0.00028 -0.00044
 Si166 Si 0.00014 0.50017 0.49999
 Si167 Si 0.50042 0.00024 0.50016
 Si168 Si 0.50047 0.49983 0.00011
 C169 C 0.17299 -0.17481 -0.17652
 C170 C 0.15783 -0.16011 -0.16190
 C171 C 0.13982 -0.14249 -0.14440
 C172 C 0.12681 -0.15437 -0.12002
 C173 C 0.10949 -0.13720 -0.10288
 C174 C 0.10499 -0.10786 -0.10991
 C175 C 0.11813 -0.09614 -0.13452
 C176 C 0.13542 -0.11336 -0.15163
 C177 C 0.08680 -0.08952 -0.09157
 C178 C 0.09413 -0.06069 -0.08516
 C179 C 0.07708 -0.04349 -0.06776
 C180 C 0.05249 -0.05482 -0.05656
 C181 C 0.04497 -0.08344 -0.06284
 C182 C 0.06200 -0.10070 -0.08022
 C183 C 0.03507 -0.03712 -0.03853
 C184 C 0.02058 -0.02224 -0.02337
 H185 H 0.13015 -0.17688 -0.11418
 H186 H 0.09997 -0.14675 -0.08387
 H187 H 0.11480 -0.07375 -0.14072
 H188 H 0.14535 -0.10397 -0.17051
 H189 H 0.11325 -0.05158 -0.09323
 H190 H 0.08314 -0.02139 -0.06295
 H191 H 0.02594 -0.09241 -0.05434
 H192 H 0.05561 -0.12267 -0.08507
 C193 C 0.17317 0.32491 0.32303
 C194 C 0.15813 0.33966 0.33775
 C195 C 0.14028 0.35732 0.35537
 C196 C 0.12610 0.34504 0.37882
 C197 C 0.10891 0.36224 0.39608
 C198 C 0.10571 0.39200 0.39010
 C199 C 0.12003 0.40412 0.36643
 C200 C 0.13718 0.38687 0.34919
 C201 C 0.08763 0.41034 0.40855
 C202 C 0.09580 0.43856 0.41638
 C203 C 0.07884 0.45577 0.43386
 C204 C 0.05350 0.44505 0.44373
 C205 C 0.04515 0.41704 0.43605
 C206 C 0.06209 0.39978 0.41858
 C207 C 0.03614 0.46276 0.46183
 C208 C 0.02170 0.47765 0.47703
 H209 H 0.12842 0.32221 0.38385
 H210 H 0.09846 0.35236 0.41436
 H211 H 0.11771 0.42686 0.36104
 H212 H 0.14802 0.39658 0.33104
 H213 H 0.11549 0.44717 0.40934
 H214 H 0.08554 0.47740 0.43977
 H215 H 0.02553 0.40856 0.44352
 H216 H 0.05506 0.37830 0.41264
 C217 C 0.67377 -0.17432 0.32286
 C218 C 0.65870 -0.15962 0.33759
 C219 C 0.64082 -0.14201 0.35522
 C220 C 0.64002 -0.11194 0.35118
 C221 C 0.62284 -0.09476 0.36847
 C222 C 0.60620 -0.10747 0.39005
 C223 C 0.60709 -0.13775 0.39387
 C224 C 0.62430 -0.15488 0.37658
 C225 C 0.58810 -0.08922 0.40857
 C226 C 0.56132 -0.09853 0.41591
 C227 C 0.54435 -0.08135 0.43343
 C228 C 0.55391 -0.05468 0.44385
 C229 C 0.58049 -0.04522 0.43668
 C230 C 0.59749 -0.06235 0.41915
 C231 C 0.53650 -0.03705 0.46197
 C232 C 0.52201 -0.02222 0.47718
 H233 H 0.65268 -0.10176 0.33466
 H234 H 0.62235 -0.07157 0.36473
 H235 H 0.59480 -0.14814 0.41054
 H236 H 0.62483 -0.17814 0.37995
 H237 H 0.55338 -0.11892 0.40782
 H238 H 0.52378 -0.08884 0.43880
 H239 H 0.58813 -0.02465 0.44471
 H240 H 0.61812 -0.05476 0.41421
 C241 C 0.67412 0.32453 -0.17615
 C242 C 0.65901 0.33928 -0.16151
 C243 C 0.64107 0.35696 -0.14400
 C244 C 0.62811 0.34513 -0.11955
 C245 C 0.61084 0.36235 -0.10240
 C246 C 0.60633 0.39168 -0.10949
 C247 C 0.61943 0.40334 -0.13415
 C248 C 0.63667 0.38607 -0.15128
 C249 C 0.58817 0.41006 -0.09115
 C250 C 0.59552 0.43890 -0.08481
 C251 C 0.57850 0.45613 -0.06741
 C252 C 0.55393 0.44482 -0.05614
 C253 C 0.54640 0.41619 -0.06236
 C254 C 0.56339 0.39890 -0.07974
 C255 C 0.53654 0.46253 -0.03808
 C256 C 0.52207 0.47740 -0.02289
 H257 H 0.63145 0.32264 -0.11367
 H258 H 0.60136 0.35285 -0.08335
 H259 H 0.61609 0.42572 -0.14039
 H260 H 0.64655 0.39542 -0.17019
 H261 H 0.61462 0.44799 -0.09294
 H262 H 0.58456 0.47824 -0.06265
 H263 H 0.52739 0.40724 -0.05379
 H264 H 0.55700 0.37692 -0.08452
 C265 C -0.17467 0.17711 -0.17548
 C266 C -0.15971 0.16228 -0.16073
 C267 C -0.14197 0.14450 -0.14306
 C268 C -0.15307 0.12147 -0.12705
 C269 C -0.13591 0.10420 -0.10981
 C270 C -0.10737 0.10974 -0.10838
 C271 C -0.09642 0.13294 -0.12459
 C272 C -0.11363 0.15020 -0.14180
 C273 C -0.08914 0.09140 -0.09005
 C274 C -0.06288 0.08295 -0.10003
 C275 C -0.04581 0.06556 -0.08281
 C276 C -0.05473 0.05641 -0.05539
 C277 C -0.08077 0.06474 -0.04524
 C278 C -0.09788 0.08211 -0.06243
 C279 C -0.03723 0.03838 -0.03773
 C280 C -0.02269 0.02322 -0.02288
 H281 H -0.17497 0.11683 -0.12793
 H282 H -0.14491 0.08628 -0.09791
 H283 H -0.07461 0.13798 -0.12365
 H284 H -0.10484 0.16802 -0.15404
 H285 H -0.05571 0.08944 -0.12133
 H286 H -0.02572 0.05916 -0.09091
 H287 H -0.08784 0.05783 -0.02401
 H288 H -0.11781 0.08856 -0.05397
 C289 C -0.17334 0.67700 0.32477
 C290 C -0.15839 0.66216 0.33953
 C291 C -0.14069 0.64437 0.35721
 C292 C -0.11238 0.65021 0.35872
 C293 C -0.09520 0.63294 0.37595
 C294 C -0.10615 0.60959 0.39194
 C295 C -0.13464 0.60390 0.39025
 C296 C -0.15177 0.62118 0.37300
 C297 C -0.08795 0.59125 0.41030
 C298 C -0.09682 0.58177 0.43781
 C299 C -0.07974 0.56440 0.45503
 C300 C -0.05359 0.55627 0.44502
 C301 C -0.04454 0.56561 0.41772
 C302 C -0.06159 0.58300 0.40046
 C303 C -0.03612 0.53824 0.46271
 C304 C -0.02157 0.52308 0.47756
 H305 H -0.10360 0.66816 0.34665
 H306 H -0.07342 0.63810 0.37708
 H307 H -0.14363 0.58586 0.40198
 H308 H -0.17365 0.61642 0.37192
 H309 H -0.11684 0.58806 0.44616
 H310 H -0.08691 0.55735 0.47617
 H311 H -0.02437 0.55936 0.40972
 H312 H -0.05431 0.58963 0.37925
 C313 C 0.32591 0.17608 0.32509
 C314 C 0.34093 0.16135 0.33985
 C315 C 0.35876 0.14370 0.35754
 C316 C 0.34783 0.12052 0.37345
 C317 C 0.36508 0.10338 0.39070
 C318 C 0.39356 0.10919 0.39226
 C319 C 0.40436 0.13254 0.37615
 C320 C 0.38705 0.14967 0.35892
 C321 C 0.41190 0.09098 0.41059
 C322 C 0.43826 0.08280 0.40067
 C323 C 0.45542 0.06552 0.41790
 C324 C 0.44651 0.05621 0.44525
 C325 C 0.42037 0.06428 0.45536
 C326 C 0.40317 0.08154 0.43816
 C327 C 0.46409 0.03827 0.46291
 C328 C 0.47869 0.02316 0.47774
 H329 H 0.32596 0.11566 0.37248
 H330 H 0.35621 0.08533 0.40253
 H331 H 0.42612 0.13779 0.37718
 H332 H 0.39572 0.16762 0.34676
 H333 H 0.44543 0.08941 0.37940
 H334 H 0.47559 0.05932 0.40983
 H335 H 0.41330 0.05724 0.47654
 H336 H 0.38316 0.08778 0.44658
 C337 C 0.32615 0.67653 -0.17433
 C338 C 0.34115 0.66172 -0.15961
 C339 C 0.35894 0.64397 -0.14198
 C340 C 0.34780 0.62148 -0.12525
 C341 C 0.36503 0.60422 -0.10808
 C342 C 0.39368 0.60923 -0.10743
 C343 C 0.40468 0.63188 -0.12436
 C344 C 0.38740 0.64913 -0.14150
 C345 C 0.41198 0.59089 -0.08917
 C346 C 0.43786 0.58172 -0.09961
 C347 C 0.45499 0.56433 -0.08246
 C348 C 0.44652 0.55590 -0.05466
 C349 C 0.42086 0.56495 -0.04405
 C350 C 0.40369 0.58233 -0.06117
 C351 C 0.46407 0.53787 -0.03706
 C352 C 0.47867 0.52272 -0.02227
 H353 H 0.32580 0.61725 -0.12553
 H354 H 0.35598 0.58672 -0.09561
 H355 H 0.42659 0.63651 -0.12404
 H356 H 0.39623 0.66653 -0.15431
 H357 H 0.44467 0.58764 -0.12120
 H358 H 0.47478 0.55736 -0.09091
 H359 H 0.41414 0.55861 -0.02253
 H360 H 0.38407 0.58935 -0.05237
 C361 C -0.17435 -0.17643 0.17511
 C362 C -0.15938 -0.16155 0.16041
 C363 C -0.14164 -0.14371 0.14281
 C364 C -0.14920 -0.11511 0.13641
 C365 C -0.13209 -0.09778 0.11918
 C366 C -0.10713 -0.10884 0.10812
 C367 C -0.09969 -0.13761 0.11474
 C368 C -0.11685 -0.15492 0.13196
 C369 C -0.08901 -0.09047 0.08971
 C370 C -0.06014 -0.09129 0.09308
 C371 C -0.04312 -0.07393 0.07577
 C372 C -0.05470 -0.05555 0.05486
 C373 C -0.08337 -0.05460 0.05131
 C374 C -0.10043 -0.07192 0.06860
 C375 C -0.03721 -0.03763 0.03708
 C376 C -0.02267 -0.02255 0.02214
 H377 H -0.16831 -0.10619 0.14476
 H378 H -0.13821 -0.07561 0.11480
 H379 H -0.08080 -0.14687 0.10626
 H380 H -0.11084 -0.17706 0.13672
 H381 H -0.05075 -0.10506 0.10937
 H382 H -0.02095 -0.07477 0.07875
 H383 H -0.09254 -0.04051 0.03513
 H384 H -0.12253 -0.07109 0.06521
 C385 C -0.17271 0.32312 0.67570
 C386 C -0.15772 0.33801 0.66105
 C387 C -0.13993 0.35587 0.64352
 C388 C -0.12103 0.34306 0.62447
 C389 C -0.10390 0.36042 0.60727
 C390 C -0.10549 0.39086 0.60889
 C391 C -0.12453 0.40351 0.62818
 C392 C -0.14162 0.38612 0.64536
 C393 C -0.08745 0.40934 0.59048
 C394 C -0.09795 0.43458 0.57728
 C395 C -0.08099 0.45194 0.55992
 C396 C -0.05334 0.44434 0.55552
 C397 C -0.04268 0.41930 0.56854
 C398 C -0.05961 0.40188 0.58590
 C399 C -0.03594 0.46226 0.53763
 C400 C -0.02147 0.47734 0.52262
 H401 H -0.11962 0.31967 0.62280
 H402 H -0.08971 0.35003 0.59238
 H403 H -0.12598 0.42686 0.63021
 H404 H -0.15613 0.39625 0.66010
 H405 H -0.11937 0.44069 0.58006
 H406 H -0.08947 0.47124 0.54986
 H407 H -0.02128 0.41326 0.56533
 H408 H -0.05084 0.38280 0.59605
 C409 C 0.32632 -0.17604 0.67530
 C410 C 0.34135 -0.16121 0.66062
 C411 C 0.35916 -0.14343 0.64304
 C412 C 0.38603 -0.15262 0.63671
 C413 C 0.40329 -0.13540 0.61952
 C414 C 0.39386 -0.10873 0.60840
 C415 C 0.36682 -0.09967 0.61494
 C416 C 0.34961 -0.11692 0.63214
 C417 C 0.41211 -0.09045 0.59003
 C418 C 0.40152 -0.07603 0.56551
 C419 C 0.41868 -0.05876 0.54827
 C420 C 0.44662 -0.05564 0.55529
 C421 C 0.45737 -0.06991 0.57961
 C422 C 0.44026 -0.08721 0.59688
 C423 C 0.46418 -0.03773 0.53758
 C424 C 0.47875 -0.02264 0.52269
 H425 H 0.39360 -0.17315 0.64497
 H426 H 0.42387 -0.14313 0.61458
 H427 H 0.35908 -0.07909 0.60704
 H428 H 0.32887 -0.10956 0.63697
 H429 H 0.38005 -0.07840 0.55944
 H430 H 0.41016 -0.04787 0.52944
 H431 H 0.47896 -0.06757 0.58529
 H432 H 0.44894 -0.09773 0.61581
 C433 C 0.32638 0.32292 0.17456
 C434 C 0.34154 0.33760 0.15989
 C435 C 0.35956 0.35519 0.14235
 C436 C 0.38094 0.37094 0.15529
 C437 C 0.39833 0.38819 0.13827
 C438 C 0.39454 0.38989 0.10803
 C439 C 0.37301 0.37390 0.09523
 C440 C 0.35564 0.35669 0.11230
 C441 C 0.41287 0.40835 0.08993
 C442 C 0.42211 0.39863 0.06265
 C443 C 0.43917 0.41614 0.04553
 C444 C 0.44721 0.44355 0.05541
 C445 C 0.43821 0.45338 0.08252
 C446 C 0.42117 0.43591 0.09970
 C447 C 0.46453 0.46166 0.03763
 C448 C 0.47894 0.47687 0.02269
 H449 H 0.38419 0.36988 0.17853
 H450 H 0.41493 0.39993 0.14871
 H451 H 0.36933 0.37506 0.07208
 H452 H 0.33909 0.34466 0.10207
 H453 H 0.41638 0.37738 0.05470
 H454 H 0.44608 0.40829 0.02460
 H455 H 0.44425 0.47461 0.09033
 H456 H 0.41412 0.44416 0.12041
 C457 C 0.17320 0.17446 0.17611
 C458 C 0.15815 0.15975 0.16139
 C459 C 0.14027 0.14214 0.14376
 C460 C 0.14385 0.11203 0.14296
 C461 C 0.12664 0.09490 0.12570
 C462 C 0.10557 0.10768 0.10900
 C463 C 0.10210 0.13798 0.11001
 C464 C 0.11936 0.15507 0.12727
 C465 C 0.08737 0.08951 0.09052
 C466 C 0.05890 0.09534 0.08866
 C467 C 0.04182 0.07822 0.07123
 C468 C 0.05293 0.05509 0.05543
 C469 C 0.08121 0.04912 0.05712
 C470 C 0.09833 0.06619 0.07455
 C471 C 0.03537 0.03749 0.03746
 C472 C 0.02077 0.02269 0.02237
 H473 H 0.15994 0.10179 0.15570
 H474 H 0.12959 0.07162 0.12569
 H475 H 0.08631 0.14850 0.09712
 H476 H 0.11646 0.17837 0.12767
 H477 H 0.04979 0.11290 0.10097
 H478 H 0.01994 0.08298 0.07013
 H479 H 0.09004 0.03132 0.04491
 H480 H 0.12020 0.06139 0.07521
 C481 C 0.17379 0.67488 0.67659
 C482 C 0.15880 0.66014 0.66183
 C483 C 0.14101 0.64247 0.64417
 C484 C 0.14478 0.61239 0.64327
 C485 C 0.12763 0.59519 0.62599
 C486 C 0.10646 0.60789 0.60937
 C487 C 0.10281 0.63816 0.61048
 C488 C 0.12000 0.65531 0.62776
 C489 C 0.08833 0.58965 0.59089
 C490 C 0.05982 0.59529 0.58913
 C491 C 0.04279 0.57811 0.57170
 C492 C 0.05401 0.55511 0.55580
 C493 C 0.08233 0.54932 0.55739
 C494 C 0.09939 0.56646 0.57481
 C495 C 0.03650 0.53745 0.53784
 C496 C 0.02192 0.52261 0.52276
 H497 H 0.16094 0.60221 0.65595
 H498 H 0.13073 0.57193 0.62591
 H499 H 0.08693 0.64861 0.59765
 H500 H 0.11696 0.67859 0.62823
 H501 H 0.05063 0.61275 0.60152
 H502 H 0.02088 0.58272 0.57069
 H503 H 0.09123 0.53162 0.54509
 H504 H 0.12129 0.56181 0.57540
 C505 C 0.67454 0.17421 0.67698
 C506 C 0.65950 0.15952 0.66223
 C507 C 0.64164 0.14193 0.64457
 C508 C 0.62059 0.15486 0.62827
 C509 C 0.60334 0.13779 0.61098
 C510 C 0.60695 0.10752 0.60976
 C511 C 0.62815 0.09474 0.62628
 C512 C 0.64536 0.11185 0.64356
 C513 C 0.58875 0.08937 0.59126
 C514 C 0.59975 0.06621 0.57508
 C515 C 0.58263 0.04916 0.55763
 C516 C 0.55432 0.05499 0.55612
 C517 C 0.54317 0.07795 0.57212
 C518 C 0.56025 0.09505 0.58958
 C519 C 0.53677 0.03742 0.53812
 C520 C 0.52217 0.02263 0.52300
 H521 H 0.61758 0.17814 0.62883
 H522 H 0.58744 0.14831 0.59824
 H523 H 0.63122 0.07147 0.62610
 H524 H 0.66155 0.10161 0.65616
 H525 H 0.62165 0.06152 0.57560
 H526 H 0.59149 0.03148 0.54525
 H527 H 0.52126 0.08260 0.57117
 H528 H 0.55111 0.11248 0.60205
 C529 C 0.67408 0.67521 0.17607
 C530 C 0.65904 0.66043 0.16141
 C531 C 0.64118 0.64271 0.14388
 C532 C 0.64074 0.61261 0.14778
 C533 C 0.62356 0.59534 0.13062
 C534 C 0.60656 0.60798 0.10931
 C535 C 0.60711 0.63828 0.10562
 C536 C 0.62433 0.65551 0.12279
 C537 C 0.58843 0.58963 0.09093
 C538 C 0.56149 0.59870 0.08399
 C539 C 0.54449 0.58143 0.06662
 C540 C 0.55417 0.55491 0.05596
 C541 C 0.58093 0.54568 0.06274
 C542 C 0.59796 0.56290 0.08011
 C543 C 0.53672 0.53719 0.03799
 C544 C 0.52218 0.52231 0.02290
 H545 H 0.65366 0.60249 0.16409
 H546 H 0.62333 0.57213 0.13424
 H547 H 0.59455 0.64862 0.08915
 H548 H 0.62458 0.67879 0.11954
 H549 H 0.55344 0.61898 0.09228
 H550 H 0.52378 0.58874 0.06156
 H551 H 0.58866 0.52522 0.05451
 H552 H 0.61871 0.55549 0.08474
   
