data_POSCAR
  _audit_creation_date              2014-09-24
  _audit_creation_method            'ToBaCCo'
  _symmetry_space_group_name_H-M    'P1'
  _symmetry_Int_Tables_number       1
  _symmetry_cell_setting            triclinic
  loop_
  _symmetry_equiv_pos_as_xyz
 x,y,z
_cell_length_a 53.3795
_cell_length_b 30.0073
_cell_length_c 18.0043
_cell_angle_alpha 89.401800
_cell_angle_beta 89.974800
_cell_angle_gamma 89.895600
loop_
  _atom_site_label
  _atom_site_type_symbol
  _atom_site_fract_x
  _atom_site_fract_y
  _atom_site_fract_z
C1 C 0.72846 0.26487 0.53441
 C2 C 0.73082 0.26546 0.45557
 C3 C 0.75268 0.24875 0.42265
 C4 C 0.77239 0.23080 0.46502
 C5 C 0.77122 0.23364 0.54398
 C6 C 0.74904 0.24966 0.57699
 H7 H 0.74786 0.25066 0.63699
 H8 H 0.75379 0.24801 0.36255
 C9 C 0.22946 0.76779 0.53855
 C10 C 0.22890 0.76593 0.46003
 C11 C 0.24777 0.74288 0.42244
 C12 C 0.26740 0.72162 0.46045
 C13 C 0.26871 0.72438 0.53916
 C14 C 0.24984 0.74832 0.57651
 H15 H 0.25029 0.75003 0.63661
 H16 H 0.24730 0.74185 0.36222
 C17 C 0.27040 0.26483 -0.54111
 C18 C 0.27056 0.26750 -0.46297
 C19 C 0.25036 0.25007 -0.42237
 C20 C 0.23043 0.22785 -0.45749
 C21 C 0.23028 0.22522 -0.53690
 C22 C 0.25074 0.24298 -0.57686
 H23 H 0.25057 0.24311 -0.63710
 H24 H 0.25124 0.25084 -0.36221
 C25 C -0.23226 0.77268 -0.54187
 C26 C -0.23190 0.77588 -0.46380
 C27 C -0.25147 0.75707 -0.42230
 C28 C -0.27093 0.73321 -0.45670
 C29 C -0.27168 0.73120 -0.53607
 C30 C -0.25177 0.75006 -0.57691
 H31 H -0.25218 0.75018 -0.63712
 H32 H -0.25031 0.75790 -0.36219
 O33 O -0.03472 0.91645 0.12730
 O34 O -0.06242 0.96302 0.06781
 C35 C -0.05724 0.93046 0.11326
 O36 O 0.03889 1.07066 0.13581
 O37 O 0.06450 1.03043 0.05905
 C38 C 0.06088 1.05870 0.11202
 O39 O -0.03118 1.07266 0.15125
 O40 O -0.06072 1.03770 0.08005
 C41 C -0.05420 1.06376 0.13368
 O42 O 0.03462 0.90906 0.11172
 O43 O 0.06247 0.95380 0.04912
 C44 C 0.05721 0.92066 0.09345
 Zr45 Zr -0.00007 0.93835 0.08362
 O46 O 0.00359 0.92760 0.19945
 O47 O -0.00270 0.86934 0.06271
 Zr48 Zr 0.00262 1.05039 0.10219
 O49 O 0.00659 1.04370 0.21879
 O50 O 0.00332 1.12073 0.10705
 O51 O -0.02081 0.99493 0.11094
 O52 O 0.02311 0.99200 0.10388
 O53 O 0.03116 0.92717 -0.14908
 O54 O 0.06058 0.96174 -0.07689
 C55 C 0.05416 0.93585 -0.13081
 O56 O -0.03585 1.08826 -0.11688
 O57 O -0.06302 1.04532 -0.04816
 C58 C -0.05832 1.07670 -0.09608
 O59 O 0.03503 1.08866 -0.11736
 O60 O 0.06245 1.03862 -0.06418
 C61 C 0.05750 1.07348 -0.10480
 O62 O -0.03876 0.93517 -0.14336
 O63 O -0.06430 0.97205 -0.06203
 C64 C -0.06073 0.94685 -0.11916
 Zr65 Zr -0.00267 0.95085 -0.10217
 O66 O -0.00200 0.95749 -0.21931
 O67 O -0.00632 0.88082 -0.11011
 Zr68 Zr -0.00022 1.06268 -0.08372
 O69 O 0.00107 1.06970 -0.20082
 O70 O -0.00115 1.13278 -0.07256
 Zr71 Zr -0.03745 1.00304 0.00562
 Zr72 Zr 0.03725 0.99793 -0.00476
 O73 O 0.02012 1.00632 -0.10934
 O74 O -0.02398 1.00920 -0.10425
 O75 O 0.02092 0.93443 -0.01363
 O76 O -0.02046 1.06602 0.01364
 O77 O -0.02348 0.93803 -0.00752
 O78 O 0.02377 1.06349 0.00760
 H79 H 0.03485 0.98858 0.14616
 H80 H -0.03109 1.09290 0.01902
 H81 H 0.03070 1.00882 -0.15441
 H82 H -0.03542 0.91286 -0.01041
 H83 H 0.00467 1.12827 0.16036
 H84 H 0.01066 1.14034 -0.03229
 H85 H -0.01413 1.05550 -0.22109
 H86 H -0.01475 0.98001 -0.23328
 H87 H 0.00749 0.86719 -0.08104
 H88 H -0.00228 0.85426 0.11193
 H89 H -0.00727 0.94967 0.22419
 H90 H -0.00748 1.02514 0.23696
 O91 O 0.53427 0.42480 -0.14273
 O92 O 0.56233 0.46278 -0.07078
 C93 C 0.55701 0.43536 -0.12361
 O94 O 0.46486 0.58549 -0.12343
 O95 O 0.43740 0.54110 -0.05843
 C96 C 0.44237 0.57317 -0.10489
 O97 O 0.53489 0.58090 -0.13370
 O98 O 0.56258 0.53708 -0.06837
 C99 C 0.55741 0.56797 -0.11682
 O100 O 0.46363 0.42245 -0.13201
 O101 O 0.43703 0.46451 -0.06113
 C102 C 0.44133 0.43469 -0.11116
 Zr103 Zr 0.49931 0.44552 -0.09708
 O104 O 0.49622 0.44574 -0.21424
 O105 O 0.49998 0.37515 -0.09191
 Zr106 Zr 0.50003 0.55824 -0.09199
 O107 O 0.49657 0.55958 -0.20918
 O108 O 0.50312 0.62855 -0.09026
 O109 O 0.52190 0.50171 -0.11070
 O110 O 0.47785 0.50277 -0.10677
 O111 O 0.46552 0.41556 0.12493
 O112 O 0.43779 0.46163 0.06429
 C113 C 0.44297 0.42869 0.10894
 O114 O 0.53729 0.57317 0.13527
 O115 O 0.56386 0.53356 0.06062
 C116 C 0.55958 0.56133 0.11379
 O117 O 0.46700 0.57934 0.13430
 O118 O 0.43846 0.53925 0.06744
 C119 C 0.44420 0.56881 0.11669
 O120 O 0.53532 0.42200 0.13480
 O121 O 0.56291 0.45981 0.05961
 C122 C 0.55781 0.43277 0.11414
 Zr123 Zr 0.50041 0.44143 0.08955
 O124 O 0.49778 0.43513 0.20639
 O125 O 0.50323 0.37126 0.08115
 Zr126 Zr 0.50149 0.55401 0.09524
 O127 O 0.49957 0.55105 0.21270
 O128 O 0.50490 0.62425 0.09831
 Zr129 Zr 0.53765 0.49883 -0.00343
 Zr130 Zr 0.46288 0.50105 0.00147
 O131 O 0.47928 0.49800 0.10766
 O132 O 0.52326 0.49683 0.10568
 O133 O 0.47729 0.43567 -0.00286
 O134 O 0.52260 0.56364 0.00058
 O135 O 0.52184 0.43473 -0.00522
 O136 O 0.47842 0.56558 0.00352
 H137 H 0.46636 0.50406 -0.14995
 H138 H 0.53404 0.58959 0.00132
 H139 H 0.46833 0.49711 0.15209
 H140 H 0.53326 0.40867 -0.00629
 H141 H 0.49004 0.63983 -0.05635
 H142 H 0.49069 0.63709 0.07002
 H143 H 0.51442 0.53440 0.23073
 H144 H 0.50737 0.46009 0.22764
 H145 H 0.48944 0.36127 0.04861
 H146 H 0.49957 0.36498 -0.14407
 H147 H 0.50841 0.46779 -0.23352
 H148 H 0.51127 0.54391 -0.22994
 C149 C 0.29200 0.33446 0.41714
 C150 C 0.31017 0.35653 0.37484
 C151 C 0.32632 0.33250 0.32888
 C152 C 0.32371 0.28596 0.32424
 C153 C 0.30520 0.26393 0.36555
 C154 C 0.28948 0.28800 0.41305
 N155 N 0.34535 0.35601 0.28844
 N156 N 0.36371 0.33596 0.25841
 C157 C 0.38284 0.35943 0.21835
 C158 C 0.40543 0.33760 0.20354
 C159 C 0.42497 0.36012 0.16779
 C160 C 0.42197 0.40469 0.14468
 C161 C 0.39900 0.42623 0.15757
 C162 C 0.37964 0.40391 0.19482
 H163 H 0.27987 0.35356 0.45314
 H164 H 0.31197 0.39237 0.37876
 H165 H 0.33590 0.26673 0.28872
 H166 H 0.30345 0.22808 0.36169
 H167 H 0.40808 0.30330 0.22119
 H168 H 0.44240 0.34261 0.15802
 H169 H 0.39622 0.46059 0.14046
 H170 H 0.36224 0.42135 0.20526
 C171 C -0.21160 0.84195 0.41124
 C172 C -0.19323 0.86341 0.36885
 C173 C -0.17604 0.83851 0.32767
 C174 C -0.17788 0.79177 0.32741
 C175 C -0.19660 0.77034 0.36852
 C176 C -0.21328 0.79530 0.41160
 N177 N -0.15670 0.86131 0.28761
 N178 N -0.13705 0.84122 0.26600
 C179 C -0.11763 0.86368 0.22582
 C180 C -0.09391 0.84405 0.22246
 C181 C -0.07427 0.86582 0.18609
 C182 C -0.07821 0.90733 0.15091
 C183 C -0.10231 0.92629 0.15229
 C184 C -0.12181 0.90493 0.19027
 H185 H -0.22447 0.86163 0.44399
 H186 H -0.19201 0.89942 0.36931
 H187 H -0.16489 0.77192 0.29545
 H188 H -0.19774 0.73431 0.36822
 H189 H -0.09054 0.81214 0.24933
 H190 H -0.05601 0.85001 0.18527
 H191 H -0.10606 0.95779 0.12465
 H192 H -0.14014 0.92042 0.19144
 C193 C 0.68264 0.72379 0.44910
 C194 C 0.66195 0.70677 0.41151
 C195 C 0.66523 0.68088 0.34826
 C196 C 0.68955 0.67298 0.32161
 C197 C 0.71032 0.69017 0.35890
 C198 C 0.70725 0.71492 0.42450
 N199 N 0.64358 0.66278 0.31271
 N200 N 0.64520 0.63697 0.25730
 C201 C 0.62350 0.61865 0.22231
 C202 C 0.62674 0.58954 0.16297
 C203 C 0.60600 0.57081 0.12785
 C204 C 0.58153 0.58104 0.15152
 C205 C 0.57835 0.61039 0.21123
 C206 C 0.59914 0.62901 0.24638
 H207 H 0.67927 0.74463 0.49681
 H208 H 0.64327 0.71365 0.43194
 H209 H 0.69254 0.65318 0.27247
 H210 H 0.72882 0.68229 0.33807
 H211 H 0.64541 0.58128 0.14396
 H212 H 0.60918 0.54840 0.08204
 H213 H 0.55980 0.61898 0.23091
 H214 H 0.59616 0.65145 0.29224
 C215 C 0.18466 1.22037 0.44423
 C216 C 0.16409 1.20397 0.40539
 C217 C 0.16754 1.17697 0.34350
 C218 C 0.19196 1.16734 0.31941
 C219 C 0.21263 1.18389 0.35798
 C220 C 0.20933 1.20969 0.42237
 N221 N 0.14594 1.15944 0.30699
 N222 N 0.14750 1.13303 0.25234
 C223 C 0.12563 1.11536 0.21725
 C224 C 0.12850 1.08553 0.15866
 C225 C 0.10750 1.06712 0.12422
 C226 C 0.08319 1.07838 0.14794
 C227 C 0.08041 1.10859 0.20661
 C228 C 0.10141 1.12688 0.24097
 H229 H 0.18119 1.24207 0.49079
 H230 H 0.14534 1.21218 0.42379
 H231 H 0.19509 1.14665 0.27138
 H232 H 0.23120 1.17474 0.33920
 H233 H 0.14707 1.07636 0.13991
 H234 H 0.11036 1.04402 0.07917
 H235 H 0.06200 1.11805 0.22629
 H236 H 0.09868 1.14989 0.28619
 C237 C 0.68230 0.26826 -0.45457
 C238 C 0.66077 0.28448 -0.41948
 C239 C 0.66273 0.31170 -0.35718
 C240 C 0.68661 0.32155 -0.32900
 C241 C 0.70813 0.30528 -0.36373
 C242 C 0.70642 0.27929 -0.42840
 N243 N 0.64041 0.32946 -0.32405
 N244 N 0.64153 0.35631 -0.26987
 C245 C 0.61989 0.37531 -0.23518
 C246 C 0.62354 0.40495 -0.17689
 C247 C 0.60314 0.42445 -0.14122
 C248 C 0.57845 0.41466 -0.16315
 C249 C 0.57477 0.38483 -0.22202
 C250 C 0.59534 0.36530 -0.25785
 H251 H 0.67999 0.24652 -0.50166
 H252 H 0.64249 0.27603 -0.44122
 H253 H 0.68870 0.34238 -0.28068
 H254 H 0.72615 0.31513 -0.34182
 H255 H 0.64235 0.41295 -0.15896
 H256 H 0.60681 0.44712 -0.09612
 H257 H 0.55604 0.37653 -0.24029
 H258 H 0.59207 0.34245 -0.30294
 C259 C 0.19920 0.76341 -0.35546
 C260 C 0.18003 0.78109 -0.31201
 C261 C 0.16945 0.82239 -0.33011
 C262 C 0.17880 0.84672 -0.39116
 C263 C 0.19863 0.82971 -0.43332
 C264 C 0.20875 0.78741 -0.41676
 N265 N 0.14951 0.83905 -0.28503
 N266 N 0.13301 0.86573 -0.31056
 C267 C 0.11343 0.88272 -0.26441
 C268 C 0.09087 0.89634 -0.29713
 C269 C 0.07129 0.91240 -0.25326
 C270 C 0.07433 0.91643 -0.17613
 C271 C 0.09713 0.90350 -0.14342
 C272 C 0.11643 0.88614 -0.18710
 H273 H 0.20650 0.73071 -0.34134
 H274 H 0.17301 0.76213 -0.26493
 H275 H 0.17113 0.87916 -0.40515
 H276 H 0.20612 0.84974 -0.47842
 H277 H 0.08838 0.89399 -0.35664
 H278 H 0.05398 0.92270 -0.27979
 H279 H 0.09990 0.90648 -0.08407
 H280 H 0.13381 0.87612 -0.16081
 C281 C 0.29519 0.65888 -0.43394
 C282 C 0.31399 0.63805 -0.39211
 C283 C 0.32602 0.66083 -0.33502
 C284 C 0.31846 0.70441 -0.31831
 C285 C 0.29921 0.72494 -0.35878
 C286 C 0.28769 0.70293 -0.41858
 N287 N 0.34574 0.63901 -0.29474
 N288 N 0.36188 0.66065 -0.25769
 C289 C 0.38141 0.63865 -0.21688
 C290 C 0.40306 0.66244 -0.19877
 C291 C 0.42294 0.64126 -0.16202
 C292 C 0.42108 0.59621 -0.14084
 C293 C 0.39900 0.57275 -0.15685
 C294 C 0.37942 0.59364 -0.19537
 H295 H 0.28599 0.63988 -0.47679
 H296 H 0.31940 0.60416 -0.40477
 H297 H 0.32736 0.72249 -0.27381
 H298 H 0.29409 0.75884 -0.34516
 H299 H 0.40476 0.69718 -0.21482
 H300 H 0.43972 0.66008 -0.14995
 H301 H 0.39717 0.53791 -0.14142
 H302 H 0.36276 0.57472 -0.20825
 C303 C -0.18339 1.23666 -0.43267
 C304 C -0.16246 1.22423 -0.39092
 C305 C -0.16523 1.19928 -0.32561
 C306 C -0.18943 1.18849 -0.30042
 C307 C -0.21048 1.20117 -0.34189
 C308 C -0.20774 1.22401 -0.41028
 N309 N -0.14321 1.18357 -0.28812
 N310 N -0.14436 1.15808 -0.23133
 C311 C -0.12240 1.14061 -0.19576
 C312 C -0.12534 1.11109 -0.13592
 C313 C -0.10449 1.09101 -0.10283
 C314 C -0.08015 1.10023 -0.12900
 C315 C -0.07719 1.13077 -0.18813
 C316 C -0.09815 1.15075 -0.22139
 H317 H -0.18046 1.25632 -0.48269
 H318 H -0.14393 1.23330 -0.41037
 H319 H -0.19205 1.16933 -0.24975
 H320 H -0.22875 1.19058 -0.32248
 H321 H -0.14391 1.10296 -0.11578
 H322 H -0.10753 1.06781 -0.05725
 H323 H -0.05875 1.13857 -0.20965
 H324 H -0.09542 1.17349 -0.26774
 C325 C 0.70648 0.66391 -0.42854
 C326 C 0.68880 0.64037 -0.38674
 C327 C 0.67644 0.66086 -0.32785
 C328 C 0.68308 0.70439 -0.30786
 C329 C 0.70137 0.72759 -0.34816
 C330 C 0.71252 0.70833 -0.41113
 N331 N 0.65665 0.63744 -0.29098
 N332 N 0.63903 0.65803 -0.25828
 C333 C 0.61901 0.63488 -0.22198
 C334 C 0.59667 0.65772 -0.20796
 C335 C 0.57644 0.63571 -0.17494
 C336 C 0.57854 0.59070 -0.15363
 C337 C 0.60114 0.56798 -0.16642
 C338 C 0.62116 0.58976 -0.20118
 H339 H 0.71546 0.64732 -0.47463
 H340 H 0.68406 0.60660 -0.40195
 H341 H 0.67393 0.72055 -0.26169
 H342 H 0.70559 0.76157 -0.33285
 H343 H 0.59483 0.69250 -0.22376
 H344 H 0.55929 0.65405 -0.16498
 H345 H 0.60319 0.53325 -0.15047
 H346 H 0.63833 0.57153 -0.21125
 C347 C 0.20513 1.16153 -0.42831
 C348 C 0.18671 1.14030 -0.38580
 C349 C 0.17513 1.16248 -0.32717
 C350 C 0.18306 1.20557 -0.30884
 C351 C 0.20201 1.22649 -0.35002
 C352 C 0.21267 1.20540 -0.41217
 N353 N 0.15523 1.14069 -0.28787
 N354 N 0.13899 1.16216 -0.25071
 C355 C 0.11915 1.13983 -0.21184
 C356 C 0.09770 1.16388 -0.19202
 C357 C 0.07752 1.14240 -0.15735
 C358 C 0.07884 1.09667 -0.14019
 C359 C 0.10067 1.07286 -0.15830
 C360 C 0.12055 1.09414 -0.19451
 H361 H 0.21362 1.14344 -0.47360
 H362 H 0.18100 1.10680 -0.39974
 H363 H 0.17455 1.22308 -0.26298
 H364 H 0.20733 1.26014 -0.33565
 H365 H 0.09641 1.19913 -0.20499
 H366 H 0.06097 1.16155 -0.14358
 H367 H 0.10214 1.03754 -0.14598
 H368 H 0.13701 1.07493 -0.20889
 C369 C 0.31665 0.26827 -0.43702
 C370 C 0.33747 0.28461 -0.39919
 C371 C 0.33461 0.31757 -0.34552
 C372 C 0.31051 0.33414 -0.32989
 C373 C 0.28965 0.31791 -0.36802
 C374 C 0.29258 0.28509 -0.42238
 N375 N 0.35643 0.33361 -0.30812
 N376 N 0.35517 0.36250 -0.25703
 C377 C 0.37701 0.37892 -0.22016
 C378 C 0.37402 0.41034 -0.16411
 C379 C 0.39488 0.42791 -0.12805
 C380 C 0.41927 0.41439 -0.14763
 C381 C 0.42221 0.38239 -0.20352
 C382 C 0.40126 0.36477 -0.23950
 H383 H 0.31931 0.24225 -0.47751
 H384 H 0.35589 0.27144 -0.41149
 H385 H 0.30783 0.35964 -0.28854
 H386 H 0.27125 0.33119 -0.35566
 H387 H 0.35544 0.42148 -0.14870
 H388 H 0.39185 0.45245 -0.08529
 H389 H 0.44068 0.37124 -0.21998
 H390 H 0.40404 0.34043 -0.28271
 C391 C -0.18593 0.77871 -0.43757
 C392 C -0.16529 0.79692 -0.40138
 C393 C -0.16847 0.83149 -0.35077
 C394 C -0.19271 0.84772 -0.33634
 C395 C -0.21343 0.82957 -0.37284
 C396 C -0.21015 0.79521 -0.42433
 N397 N -0.14676 0.84911 -0.31487
 N398 N -0.14794 0.87980 -0.26672
 C399 C -0.12588 0.89672 -0.23149
 C400 C -0.12838 0.92888 -0.17628
 C401 C -0.10724 0.94537 -0.13994
 C402 C -0.08312 0.93000 -0.15854
 C403 C -0.08068 0.89804 -0.21467
 C404 C -0.10184 0.88148 -0.25071
 H405 H -0.18302 0.75155 -0.47576
 H406 H -0.14674 0.78393 -0.41255
 H407 H -0.19562 0.87437 -0.29719
 H408 H -0.23197 0.84256 -0.36156
 H409 H -0.14679 0.94098 -0.16107
 H410 H -0.10982 0.97014 -0.09726
 H411 H -0.06242 0.88547 -0.23040
 H412 H -0.09938 0.85670 -0.29337
 C413 C 0.28114 0.66763 0.36364
 C414 C 0.29974 0.64828 0.31986
 C415 C 0.32467 0.66202 0.32615
 C416 C 0.33086 0.69557 0.37694
 C417 C 0.31227 0.71493 0.42077
 C418 C 0.28729 0.70085 0.41484
 N419 N 0.34330 0.64136 0.28072
 N420 N 0.36621 0.65282 0.28348
 C421 C 0.38512 0.63221 0.23907
 C422 C 0.40991 0.64618 0.24700
 C423 C 0.42903 0.62603 0.20644
 C424 C 0.42365 0.59140 0.15684
 C425 C 0.39860 0.57787 0.14803
 C426 C 0.37948 0.59806 0.18893
 H427 H 0.26195 0.65648 0.35810
 H428 H 0.29474 0.62251 0.28092
 H429 H 0.35001 0.70684 0.38271
 H430 H 0.31732 0.74095 0.45918
 H431 H 0.41445 0.67251 0.28538
 H432 H 0.44806 0.63744 0.21447
 H433 H 0.39381 0.55129 0.11040
 H434 H 0.36039 0.58674 0.18182
 C435 C -0.20075 1.16463 0.45448
 C436 C -0.18189 1.14099 0.41820
 C437 C -0.17003 1.15927 0.35581
 C438 C -0.17794 1.20083 0.32790
 C439 C -0.19738 1.22394 0.36263
 C440 C -0.20861 1.20675 0.42775
 N441 N -0.15011 1.13508 0.32146
 N442 N -0.13274 1.15494 0.28589
 C443 C -0.11311 1.13100 0.24964
 C444 C -0.09039 1.15258 0.23528
 C445 C -0.07092 1.13018 0.19951
 C446 C -0.07424 1.08620 0.17547
 C447 C -0.09715 1.06473 0.18914
 C448 C -0.11636 1.08674 0.22688
 H449 H -0.20956 1.14951 0.50271
 H450 H -0.17616 1.10869 0.43960
 H451 H -0.16917 1.21524 0.27905
 H452 H -0.20281 1.25623 0.34045
 H453 H -0.08772 1.18676 0.25230
 H454 H -0.05351 1.14760 0.18884
 H455 H -0.10012 1.03092 0.17101
 H456 H -0.13389 1.06959 0.23690
 C457 C 0.70328 0.26169 0.34304
 C458 C 0.68522 0.28003 0.29566
 C459 C 0.67484 0.32178 0.31054
 C460 C 0.68349 0.34610 0.37162
 C461 C 0.70217 0.32843 0.41767
 C462 C 0.71173 0.28548 0.40506
 N463 N 0.65513 0.33836 0.26415
 N464 N 0.63864 0.36486 0.28925
 C465 C 0.61879 0.38184 0.24383
 C466 C 0.59651 0.39506 0.27796
 C467 C 0.57648 0.41063 0.23525
 C468 C 0.57878 0.41455 0.15778
 C469 C 0.60136 0.40236 0.12351
 C470 C 0.62117 0.38540 0.16622
 H471 H 0.71041 0.22861 0.33192
 H472 H 0.67870 0.26107 0.24863
 H473 H 0.67592 0.37877 0.38332
 H474 H 0.70886 0.34792 0.46387
 H475 H 0.59456 0.39260 0.33773
 H476 H 0.55933 0.42047 0.26287
 H477 H 0.60353 0.40541 0.06384
 H478 H 0.63839 0.37567 0.13897
 C479 C 0.21613 0.82236 0.36507
 C480 C 0.19827 0.84195 0.31842
 C481 C 0.17348 0.82700 0.31945
 C482 C 0.16656 0.79256 0.36908
 C483 C 0.18443 0.77316 0.41633
 C484 C 0.20935 0.78787 0.41434
 N485 N 0.15579 0.84733 0.26971
 N486 N 0.13362 0.83254 0.26257
 C487 C 0.11562 0.85316 0.21421
 C488 C 0.09155 0.83512 0.21097
 C489 C 0.07289 0.85605 0.16901
 C490 C 0.07798 0.89564 0.12920
 C491 C 0.10249 0.91278 0.12999
 C492 C 0.12118 0.89175 0.17233
 H493 H 0.23532 0.83395 0.36267
 H494 H 0.20380 0.86848 0.28067
 H495 H 0.14746 0.78058 0.37112
 H496 H 0.17895 0.74632 0.45358
 H497 H 0.08708 0.80531 0.24268
 H498 H 0.05427 0.84177 0.16939
 H499 H 0.10699 0.94329 0.10024
 H500 H 0.13973 0.90624 0.17378
   
