data_POSCAR
  _audit_creation_date              2014-09-24
  _audit_creation_method            'ToBaCCo'
  _symmetry_space_group_name_H-M    'P1'
  _symmetry_Int_Tables_number       1
  _symmetry_cell_setting            triclinic
  loop_
  _symmetry_equiv_pos_as_xyz
 x,y,z
_cell_length_a 26.5186
_cell_length_b 26.7905
_cell_length_c 26.8466
_cell_angle_alpha 90.003300
_cell_angle_beta 89.966000
_cell_angle_gamma 90.029800
loop_
  _atom_site_label
  _atom_site_type_symbol
  _atom_site_fract_x
  _atom_site_fract_y
  _atom_site_fract_z
C1 C 0.28564 0.24906 0.21509
 N2 N 0.28548 0.21327 0.25089
 C3 C 0.24963 0.21347 0.28703
 N4 N 0.21382 0.24971 0.28728
 C5 C 0.21380 0.28563 0.25157
 N6 N 0.24976 0.28517 0.21555
 C7 C 0.71391 -0.24916 0.21273
 N8 N 0.71407 -0.21337 0.24862
 C9 C 0.74949 -0.21393 0.28513
 N10 N 0.78499 -0.25041 0.28563
 C11 C 0.78539 -0.28623 0.24980
 N12 N 0.74971 -0.28547 0.21347
 C13 C 0.71518 0.24909 0.78501
 N14 N 0.71501 0.21360 0.74893
 C15 C 0.75040 0.21427 0.71236
 N16 N 0.78598 0.25077 0.71189
 C17 C 0.78646 0.28640 0.74794
 N18 N 0.75098 0.28531 0.78446
 C19 C 0.28728 -0.24913 0.78738
 N20 N 0.25147 -0.28546 0.78666
 C21 C 0.21545 -0.28579 0.75072
 N22 N 0.21545 -0.24974 0.71520
 C23 C 0.25112 -0.21339 0.71552
 N24 N 0.28689 -0.21310 0.75171
 C25 C 0.71348 -0.24928 0.78672
 N26 N 0.74915 -0.28570 0.78585
 C27 C 0.78473 -0.28664 0.74939
 N28 N 0.78437 -0.25084 0.71353
 C29 C 0.74898 -0.21422 0.71413
 N30 N 0.71366 -0.21351 0.75079
 C31 C 0.28530 0.24857 0.78570
 N32 N 0.24929 0.28459 0.78531
 C33 C 0.21338 0.28502 0.74927
 N34 N 0.21359 0.24918 0.71348
 C35 C 0.24951 0.21304 0.71363
 N36 N 0.28531 0.21286 0.74980
 C37 C 0.28631 -0.24954 0.21259
 N38 N 0.25034 -0.28575 0.21319
 C39 C 0.21458 -0.28651 0.24949
 N40 N 0.21507 -0.25081 0.28544
 C41 C 0.25074 -0.21443 0.28512
 N42 N 0.28623 -0.21387 0.24862
 C43 C 0.71598 0.24983 0.21475
 N44 N 0.71581 0.21434 0.25084
 C45 C 0.75116 0.21500 0.28740
 N46 N 0.78676 0.25150 0.28785
 C47 C 0.78727 0.28715 0.25179
 N48 N 0.75179 0.28606 0.21528
 O49 O 0.29182 0.04734 0.45124
 O50 O 0.29245 -0.04922 0.54881
 O51 O 0.29238 -0.04943 0.45119
 O52 O 0.29192 0.04745 0.54860
 O53 O 0.20859 0.04749 0.54822
 O54 O 0.20906 -0.05031 0.45177
 O55 O 0.20912 -0.05007 0.54846
 O56 O 0.20849 0.04737 0.45178
 Cu57 Cu 0.30052 -0.00097 0.49992
 Cu58 Cu 0.20044 -0.00149 0.50004
 C59 C 0.25007 0.06391 0.43509
 C60 C 0.25087 -0.06601 0.56526
 C61 C 0.25078 -0.06635 0.43494
 C62 C 0.25018 0.06402 0.56486
 O63 O 0.79174 0.04798 0.54795
 O64 O 0.79135 -0.04953 0.45131
 O65 O 0.79198 0.04817 0.45159
 O66 O 0.79122 -0.04970 0.54797
 O67 O 0.70790 -0.04888 0.54837
 O68 O 0.70865 0.04806 0.45102
 O69 O 0.70803 -0.04873 0.45077
 O70 O 0.70840 0.04787 0.54831
 Cu71 Cu 0.79995 -0.00088 0.49971
 Cu72 Cu 0.69987 -0.00044 0.49960
 C73 C 0.75012 0.06450 0.56453
 C74 C 0.74964 -0.06557 0.43449
 C75 C 0.75043 0.06477 0.43495
 C76 C 0.74945 -0.06577 0.56470
 O77 O 0.45145 0.28945 0.04853
 O78 O 0.54979 0.28931 -0.04817
 O79 O 0.45126 0.28933 -0.04799
 O80 O 0.55001 0.28957 0.04831
 O81 O 0.54962 0.20709 0.04893
 O82 O 0.45171 0.20685 -0.04835
 O83 O 0.54941 0.20682 -0.04850
 O84 O 0.45188 0.20697 0.04913
 Cu85 Cu 0.50062 0.29772 0.00016
 Cu86 Cu 0.50064 0.19862 0.00032
 C87 C 0.43505 0.24824 0.06536
 C88 C 0.56622 0.24807 -0.06486
 C89 C 0.43482 0.24807 -0.06466
 C90 C 0.56652 0.24839 0.06507
 O91 O 0.54920 0.79284 0.04905
 O92 O 0.45171 0.79282 -0.04866
 O93 O 0.45153 0.79273 0.04904
 O94 O 0.54928 0.79294 -0.04866
 O95 O 0.54995 0.71046 -0.04806
 O96 O 0.45093 0.71025 0.04829
 O97 O 0.45115 0.71034 -0.04810
 O98 O 0.54984 0.71036 0.04834
 Cu99 Cu 0.50043 0.80112 0.00022
 Cu100 Cu 0.50048 0.70207 0.00013
 C101 C 0.56619 0.75159 0.06516
 C102 C 0.43481 0.75157 -0.06489
 C103 C 0.43450 0.75144 0.06512
 C104 C 0.56628 0.75171 -0.06488
 O105 O 0.04860 0.45317 0.29286
 O106 O -0.04927 0.55064 0.29224
 O107 O -0.04896 0.45273 0.29307
 O108 O 0.04844 0.55091 0.29199
 O109 O 0.04920 0.54931 0.20970
 O110 O -0.05004 0.45304 0.21076
 O111 O -0.04980 0.54959 0.20993
 O112 O 0.04848 0.45262 0.21054
 Cu113 Cu -0.00030 0.50198 0.30082
 Cu114 Cu -0.00054 0.50115 0.20196
 C115 C 0.06511 0.43629 0.25177
 C116 C -0.06625 0.56657 0.25099
 C117 C -0.06609 0.43629 0.25207
 C118 C 0.06559 0.56656 0.25067
 O119 O 0.04767 0.54872 0.79025
 O120 O -0.05108 0.45216 0.78906
 O121 O 0.04746 0.45194 0.78973
 O122 O -0.05116 0.54867 0.78962
 O123 O -0.04988 0.54977 0.70732
 O124 O 0.04772 0.45192 0.70741
 O125 O -0.04980 0.45182 0.70675
 O126 O 0.04792 0.54949 0.70794
 Cu127 Cu -0.00181 0.50038 0.79794
 Cu128 Cu -0.00099 0.50086 0.69907
 C129 C 0.06457 0.56553 0.74929
 C130 C -0.06702 0.43541 0.74773
 C131 C 0.06419 0.43533 0.74861
 C132 C -0.06723 0.56570 0.74846
 N133 N 0.33323 0.29024 0.14839
 C134 C 0.32442 0.24878 0.17614
 N135 N 0.35209 0.20710 0.16725
 N136 N 0.38716 0.20681 0.13169
 C137 C 0.39616 0.24836 0.10414
 N138 N 0.36867 0.29012 0.11321
 N139 N 0.64480 0.79023 0.17122
 C140 C 0.67720 0.75120 0.17563
 N141 N 0.67290 0.71237 0.14334
 N142 N 0.63731 0.71237 0.10833
 C143 C 0.60522 0.75154 0.10379
 N144 N 0.60972 0.79058 0.13571
 N145 N 0.64900 0.20692 -0.16687
 C146 C 0.67668 0.24862 -0.17578
 N147 N 0.66797 0.29005 -0.14797
 N148 N 0.63261 0.28990 -0.11271
 C149 C 0.60510 0.24814 -0.10364
 N150 N 0.61402 0.20660 -0.13123
 N151 N 0.35641 0.79024 -0.17105
 C152 C 0.32411 0.75112 -0.17563
 N153 N 0.32843 0.71221 -0.14346
 N154 N 0.36394 0.71222 -0.10837
 C155 C 0.39591 0.75149 -0.10364
 N156 N 0.39141 0.79059 -0.13546
 N157 N 0.16641 0.35234 0.21023
 C158 C 0.17514 0.32477 0.25175
 N159 N 0.14761 0.33410 0.29337
 N160 N 0.11276 0.36991 0.29351
 C161 C 0.10384 0.39728 0.25188
 N162 N 0.13118 0.38776 0.21020
 N163 N 0.14878 0.66679 0.70870
 C164 C 0.17652 0.67529 0.75033
 N165 N 0.16731 0.64752 0.79164
 N166 N 0.13143 0.61268 0.79141
 C167 C 0.10387 0.60403 0.74969
 N168 N 0.11329 0.63158 0.70830
 N169 N -0.14548 0.67245 0.28927
 C170 C -0.17775 0.67675 0.25020
 N171 N -0.17313 0.64447 0.21143
 N172 N -0.13737 0.60955 0.21154
 C173 C -0.10541 0.60513 0.25075
 N174 N -0.11023 0.63705 0.28971
 N175 N -0.14487 0.32878 0.70853
 C176 C -0.17701 0.32373 0.74764
 N177 N -0.17284 0.35582 0.78661
 N178 N -0.13762 0.39127 0.78670
 C179 C -0.10578 0.39647 0.74747
 N180 N -0.11013 0.36474 0.70829
 N181 N 0.20784 0.16588 0.35338
 C182 C 0.24968 0.17467 0.32558
 N183 N 0.29161 0.14686 0.33392
 N184 N 0.29181 0.11172 0.36902
 C185 C 0.24988 0.10273 0.39662
 N186 N 0.20785 0.13035 0.38811
 N187 N 0.70846 0.14748 0.66560
 C188 C 0.75029 0.17556 0.67373
 N189 N 0.79208 0.16694 0.64582
 N190 N 0.79213 0.13131 0.61119
 C191 C 0.75022 0.10342 0.60289
 N192 N 0.70833 0.11225 0.63059
 N193 N 0.20922 -0.16679 0.64872
 C194 C 0.25105 -0.17483 0.67671
 N195 N 0.29288 -0.14696 0.66786
 N196 N 0.29294 -0.11246 0.63211
 C197 C 0.25101 -0.10426 0.60430
 N198 N 0.20910 -0.13191 0.61336
 N199 N 0.70775 -0.14721 0.33233
 C200 C 0.74948 -0.17531 0.32389
 N201 N 0.79123 -0.16717 0.35198
 N202 N 0.79136 -0.13199 0.38706
 C203 C 0.74954 -0.10410 0.39570
 N204 N 0.70769 -0.11241 0.36780
 N205 N 0.64461 0.79030 -0.17134
 C206 C 0.67690 0.75120 -0.17596
 N207 N 0.67266 0.71239 -0.14364
 N208 N 0.63724 0.71245 -0.10841
 C209 C 0.60525 0.75169 -0.10367
 N210 N 0.60970 0.79072 -0.13561
 N211 N 0.33282 0.28982 -0.14757
 C212 C 0.32407 0.24834 -0.17532
 N213 N 0.35183 0.20672 -0.16643
 N214 N 0.38690 0.20650 -0.13091
 C215 C 0.39583 0.24808 -0.10337
 N216 N 0.36826 0.28977 -0.11243
 N217 N 0.35567 0.78985 0.17125
 C218 C 0.32314 0.75086 0.17551
 N219 N 0.32743 0.71213 0.14309
 N220 N 0.36311 0.71218 0.10811
 C221 C 0.39534 0.75132 0.10373
 N222 N 0.39084 0.79025 0.13578
 N223 N 0.66860 0.29063 0.14769
 C224 C 0.67742 0.24927 0.17556
 N225 N 0.64972 0.20755 0.16683
 N226 N 0.61463 0.20713 0.13134
 C227 C 0.60559 0.24860 0.10369
 N228 N 0.63313 0.29039 0.11257
 N229 N -0.14623 0.67171 0.70987
 C230 C -0.17852 0.67620 0.74895
 N231 N -0.17403 0.64395 0.78776
 N232 N -0.13838 0.60892 0.78770
 C233 C -0.10638 0.60432 0.74850
 N234 N -0.11107 0.63619 0.70948
 N235 N -0.17192 0.35662 0.21313
 C236 C -0.17616 0.32452 0.25209
 N237 N -0.14406 0.32958 0.29120
 N238 N -0.10931 0.36554 0.29147
 C239 C -0.10489 0.39729 0.25230
 N240 N -0.13668 0.39208 0.21305
 N241 N 0.16567 0.35172 0.79052
 C242 C 0.17459 0.32407 0.74906
 N243 N 0.14708 0.33322 0.70741
 N244 N 0.11211 0.36892 0.70717
 C245 C 0.10301 0.39636 0.74873
 N246 N 0.13032 0.38703 0.79045
 N247 N 0.17280 0.64431 0.21101
 C248 C 0.17752 0.67657 0.24981
 N249 N 0.14518 0.67232 0.28886
 N250 N 0.10978 0.63702 0.28929
 C251 C 0.10486 0.60512 0.25032
 N252 N 0.13689 0.60949 0.21110
 N253 N 0.70735 -0.14741 0.66690
 C254 C 0.74903 -0.17560 0.67532
 N255 N 0.79079 -0.16753 0.64717
 N256 N 0.79100 -0.13236 0.61208
 C257 C 0.74924 -0.10437 0.60348
 N258 N 0.70737 -0.11262 0.63142
 N259 N 0.20909 -0.16780 0.35220
 C260 C 0.25084 -0.17592 0.32405
 N261 N 0.29263 -0.14790 0.33259
 N262 N 0.29274 -0.11321 0.36817
 C263 C 0.25088 -0.10491 0.39611
 N264 N 0.20901 -0.13273 0.38738
 N265 N 0.70910 0.14814 0.33405
 C266 C 0.75095 0.17622 0.32603
 N267 N 0.79267 0.16749 0.35398
 N268 N 0.79261 0.13176 0.38852
 C269 C 0.75066 0.10385 0.39670
 N270 N 0.70885 0.11280 0.36897
 N271 N 0.20787 0.16565 0.64706
 C272 C 0.24968 0.17436 0.67490
 N273 N 0.29166 0.14665 0.66638
 N274 N 0.29191 0.11168 0.63109
 C275 C 0.25001 0.10278 0.60345
 N276 N 0.20794 0.13029 0.61215
   
