data_POSCAR
  _audit_creation_date              2014-09-24
  _audit_creation_method            'ToBaCCo'
  _symmetry_space_group_name_H-M    'P1'
  _symmetry_Int_Tables_number       1
  _symmetry_cell_setting            triclinic
  loop_
  _symmetry_equiv_pos_as_xyz
 x,y,z
_cell_length_a 42.6182
_cell_length_b 37.0412
_cell_length_c 32.6740
_cell_angle_alpha 90.036600
_cell_angle_beta 90.214800
_cell_angle_gamma 86.590700
loop_
  _atom_site_label
  _atom_site_type_symbol
  _atom_site_fract_x
  _atom_site_fract_y
  _atom_site_fract_z
C1 C 1.23049 0.22264 0.21064
 C2 C 1.24888 0.24751 0.18331
 C3 C 1.26560 0.27149 0.20489
 C4 C 1.26251 0.26852 0.25166
 C5 C 1.25509 0.20456 0.23951
 C6 C 1.27183 0.22860 0.26091
 C7 C 1.21016 0.24816 0.23786
 C8 C 1.22688 0.27212 0.25925
 H9 H 1.24929 0.24573 0.15013
 H10 H 1.27611 0.28808 0.26918
 H11 H 1.25928 0.17544 0.24224
 H12 H 1.18474 0.24755 0.23980
 C13 C 0.73012 -0.27608 0.19888
 C14 C 0.74904 -0.24787 0.17760
 C15 C 0.76296 -0.22530 0.20427
 C16 C 0.75659 -0.23301 0.24995
 C17 C 0.75307 -0.29574 0.22845
 C18 C 0.76684 -0.27334 0.25524
 C19 C 0.70676 -0.25457 0.22613
 C20 C 0.72046 -0.23221 0.25293
 H21 H 0.75212 -0.24667 0.14464
 H22 H 0.76787 -0.21460 0.27164
 H23 H 0.75727 -0.32498 0.22908
 H24 H 0.68158 -0.25790 0.22551
 C25 C 0.72486 0.23027 -0.30034
 C26 C 0.74584 0.25249 -0.32311
 C27 C 0.76708 0.27072 -0.29707
 C28 C 0.76331 0.26319 -0.25334
 C29 C 0.74518 0.20544 -0.27609
 C30 C 0.76639 0.22363 -0.25007
 C31 C 0.70897 0.25449 -0.27099
 C32 C 0.73011 0.27263 -0.24513
 H33 H 0.74486 0.25616 -0.35612
 H34 H 0.77978 0.27729 -0.23315
 H35 H 0.74395 0.17619 -0.27653
 H36 H 0.68355 0.25923 -0.26922
 C37 C 1.23224 -0.27203 -0.29672
 C38 C 1.25879 -0.25487 -0.31972
 C39 C 1.27690 -0.23469 -0.29512
 C40 C 1.26674 -0.23333 -0.24985
 C41 C 1.24845 -0.29350 -0.26188
 C42 C 1.26646 -0.27333 -0.23740
 C43 C 1.21373 -0.24064 -0.27581
 C44 C 1.23169 -0.22044 -0.25114
 H45 H 1.26321 -0.25882 -0.35220
 H46 H 1.28141 -0.21677 -0.22989
 H47 H 1.24744 -0.32261 -0.25846
 H48 H 1.18829 -0.23658 -0.27762
 C49 C 0.23237 0.22143 0.79138
 C50 C 0.24886 0.24569 0.81771
 C51 C 0.26630 0.27098 0.79542
 C52 C 0.26422 0.26748 0.75109
 C53 C 0.21202 0.24603 0.76285
 C54 C 0.22874 0.27014 0.74178
 C55 C 0.25762 0.20338 0.76353
 C56 C 0.27430 0.22760 0.74244
 H57 H 0.24893 0.24410 0.85093
 H58 H 0.27776 0.28713 0.73372
 H59 H 0.18664 0.24508 0.76029
 H60 H 0.26208 0.17427 0.76100
 C61 C 0.72902 0.72442 0.79987
 C62 C 0.74681 0.75115 0.82107
 C63 C 0.76219 0.77458 0.79346
 C64 C 0.75675 0.76668 0.74994
 C65 C 0.70726 0.74486 0.77304
 C66 C 0.72243 0.76806 0.74544
 C67 C 0.75128 0.70503 0.77294
 C68 C 0.76655 0.72827 0.74534
 H69 H 0.74956 0.75228 0.85414
 H70 H 0.76859 0.78484 0.72855
 H71 H 0.68199 0.74193 0.77255
 H72 H 0.75533 0.67574 0.77258
 C73 C 0.72456 0.22880 0.29998
 C74 C 0.74669 0.25174 0.32449
 C75 C 0.76726 0.26901 0.30054
 C76 C 0.76400 0.26167 0.25431
 C77 C 0.70870 0.25480 0.26891
 C78 C 0.72926 0.27195 0.24509
 C79 C 0.74598 0.20291 0.27454
 C80 C 0.76654 0.22012 0.25057
 H81 H 0.74528 0.25532 0.35746
 H82 H 0.78083 0.27568 0.23487
 H83 H 0.68334 0.25944 0.26612
 H84 H 0.74423 0.17376 0.27430
 C85 C 0.23096 0.72533 0.29567
 C86 C 0.25656 0.74373 0.31957
 C87 C 0.27487 0.76397 0.29547
 C88 C 0.26578 0.76415 0.24966
 C89 C 0.21239 0.75586 0.27314
 C90 C 0.23047 0.77613 0.24893
 C91 C 0.24845 0.70361 0.26214
 C92 C 0.26664 0.72381 0.23811
 H93 H 0.26037 0.74034 0.35227
 H94 H 0.28057 0.78074 0.23005
 H95 H 0.18690 0.75959 0.27407
 H96 H 0.24785 0.67443 0.25906
 O97 O 1.03991 0.06123 0.07180
 O98 O 1.07574 0.02682 0.03373
 C99 C 1.06839 0.05113 0.06119
 O100 O 0.95561 -0.06685 0.06823
 O101 O 0.91964 -0.03098 0.03170
 C102 C 0.92711 -0.05655 0.05775
 O103 O 1.04304 -0.06636 0.07303
 O104 O 1.07728 -0.03525 0.03420
 C105 C 1.07110 -0.05827 0.06254
 O106 O 0.95247 0.06756 0.06732
 O107 O 0.91803 0.03380 0.03155
 C108 C 0.92440 0.05916 0.05723
 Zr109 Zr 0.99658 0.04381 0.04971
 O110 O 0.99585 0.03725 0.11393
 O111 O 0.99577 0.10068 0.05605
 Zr112 Zr 0.99874 -0.04648 0.05023
 O113 O 0.99748 -0.03947 0.11441
 O114 O 1.00099 -0.10336 0.05680
 O115 O 1.02610 -0.00231 0.05804
 O116 O 0.96967 -0.00027 0.05708
 O117 O 0.95274 0.06630 -0.07358
 O118 O 0.91821 0.03371 -0.03694
 C119 C 0.92464 0.05849 -0.06322
 O120 O 1.04335 -0.06633 -0.07609
 O121 O 1.07744 -0.03530 -0.03660
 C122 C 1.07135 -0.05819 -0.06514
 O123 O 0.95567 -0.06651 -0.07339
 O124 O 0.91967 -0.03006 -0.03797
 C125 C 0.92713 -0.05594 -0.06363
 O126 O 1.04037 0.06011 -0.07591
 O127 O 1.07598 0.02611 -0.03682
 C128 C 1.06878 0.05007 -0.06471
 Zr129 Zr 0.99681 0.04354 -0.05388
 O130 O 0.99365 0.04164 -0.11855
 O131 O 0.99830 0.10055 -0.05529
 Zr132 Zr 0.99892 -0.04727 -0.05333
 O133 O 0.99556 -0.04692 -0.11801
 O134 O 1.00339 -0.10451 -0.05290
 Zr135 Zr 1.04491 -0.00326 -0.00161
 Zr136 Zr 0.95043 0.00016 -0.00230
 O137 O 0.97031 -0.00083 -0.06122
 O138 O 1.02614 -0.00292 -0.06146
 O139 O 0.96862 0.05193 -0.00236
 O140 O 1.02630 -0.05463 -0.00135
 O141 O 1.02372 0.04952 -0.00193
 O142 O 0.97103 -0.05310 -0.00177
 H143 H 0.95513 0.00036 0.08071
 H144 H 1.04088 -0.07647 -0.00127
 H145 H 0.95620 -0.00027 -0.08541
 H146 H 1.03707 0.07051 -0.00206
 H147 H 1.00569 -0.11372 0.02951
 H148 H 0.98621 -0.11306 -0.03580
 H149 H 1.01294 -0.03307 -0.12858
 H150 H 1.01307 0.02884 -0.12886
 H151 H 0.98193 0.11060 -0.03638
 H152 H 1.00064 0.11059 0.02891
 H153 H 0.99429 0.06199 0.12557
 H154 H 0.99732 -0.06408 0.12622
 O155 O 1.04038 0.56445 0.57556
 O156 O 1.07560 0.52960 0.53699
 C157 C 1.06865 0.55422 0.56420
 O158 O 0.95555 0.43636 0.57350
 O159 O 0.91924 0.47266 0.53809
 C160 C 0.92696 0.44664 0.56347
 O161 O 1.04288 0.43710 0.57699
 O162 O 1.07678 0.46846 0.53789
 C163 C 1.07080 0.44522 0.56602
 O164 O 0.95290 0.57212 0.57227
 O165 O 0.91790 0.53816 0.53779
 C166 C 0.92468 0.56405 0.56254
 Zr167 Zr 0.99661 0.54734 0.55475
 O168 O 0.99633 0.54055 0.61894
 O169 O 0.99651 0.60410 0.56174
 Zr170 Zr 0.99842 0.45712 0.55521
 O171 O 0.99773 0.46415 0.61939
 O172 O 1.00077 0.40026 0.56201
 O173 O 1.02603 0.50111 0.56245
 O174 O 0.96953 0.50344 0.56273
 O175 O 0.95147 0.57059 0.43317
 O176 O 0.91725 0.53783 0.47010
 C177 C 0.92351 0.56296 0.44425
 O178 O 1.04146 0.43695 0.42809
 O179 O 1.07611 0.46835 0.46627
 C180 C 1.06960 0.44510 0.43829
 O181 O 0.95400 0.43732 0.43284
 O182 O 0.91846 0.47399 0.46875
 C183 C 0.92565 0.44797 0.44322
 O184 O 1.03894 0.56407 0.42873
 O185 O 1.07486 0.52965 0.46686
 C186 C 1.06743 0.55400 0.43950
 Zr187 Zr 0.99565 0.54718 0.45118
 O188 O 0.99166 0.54469 0.38660
 O189 O 0.99732 0.60415 0.44886
 Zr190 Zr 0.99747 0.45643 0.45165
 O191 O 0.99331 0.45713 0.38704
 O192 O 1.00175 0.39919 0.45168
 Zr193 Zr 1.04411 0.50012 0.50239
 Zr194 Zr 0.94971 0.50399 0.50372
 O195 O 0.96885 0.50299 0.44437
 O196 O 1.02474 0.50065 0.44292
 O197 O 0.96817 0.55562 0.50324
 O198 O 1.02539 0.44885 0.50309
 O199 O 1.02310 0.55299 0.50259
 O200 O 0.97017 0.45068 0.50375
 H201 H 0.95508 0.50419 0.58646
 H202 H 1.03995 0.42698 0.50286
 H203 H 0.95437 0.50371 0.42055
 H204 H 1.03639 0.57403 0.50226
 H205 H 1.00489 0.38983 0.53460
 H206 H 0.98506 0.39063 0.46962
 H207 H 1.01071 0.47079 0.37618
 H208 H 1.01145 0.53304 0.37590
 H209 H 0.98208 0.61439 0.46915
 H210 H 1.00017 0.61423 0.53435
 H211 H 0.99517 0.56525 0.63069
 H212 H 0.99761 0.43955 0.63122
 O213 O 0.55838 -0.05335 0.57268
 O214 O 0.53073 -0.09380 0.53572
 C215 C 0.55205 -0.08582 0.56231
 O216 O 0.44030 0.04888 0.57205
 O217 O 0.46839 0.08906 0.53570
 C218 C 0.44684 0.08132 0.56169
 O219 O 0.44695 -0.05132 0.57635
 O220 O 0.47608 -0.09272 0.53744
 C221 C 0.45539 -0.08407 0.56544
 O222 O 0.55828 0.04617 0.56708
 O223 O 0.52548 0.08772 0.53326
 C224 C 0.54927 0.07893 0.55688
 Zr225 Zr 0.53926 -0.00319 0.55145
 O226 O 0.53418 -0.00157 0.61573
 O227 O 0.58875 -0.00537 0.55758
 Zr228 Zr 0.46125 -0.00157 0.55392
 O229 O 0.46858 -0.00052 0.61789
 O230 O 0.41206 -0.00138 0.56231
 O231 O 0.50163 -0.03537 0.56052
 O232 O 0.49930 0.03005 0.56011
 O233 O 0.55446 0.04636 0.42970
 O234 O 0.52379 0.08776 0.46651
 C235 C 0.54618 0.07903 0.44095
 O236 O 0.44386 -0.05127 0.42848
 O237 O 0.47456 -0.09272 0.46555
 C238 C 0.45277 -0.08405 0.43873
 O239 O 0.43812 0.04903 0.43206
 O240 O 0.46715 0.08912 0.46750
 C241 C 0.44493 0.08145 0.44223
 O242 O 0.55503 -0.05355 0.42547
 O243 O 0.52883 -0.09391 0.46407
 C244 C 0.54903 -0.08598 0.43629
 Zr245 Zr 0.53718 -0.00323 0.44790
 O246 O 0.53289 0.00104 0.38343
 O247 O 0.58678 -0.00762 0.44329
 Zr248 Zr 0.45875 -0.00156 0.45052
 O249 O 0.45888 0.00234 0.38584
 O250 O 0.40922 -0.00372 0.45095
 Zr251 Zr 0.50118 -0.05713 0.50077
 Zr252 Zr 0.49720 0.05217 0.50085
 O253 O 0.49672 0.02964 0.44176
 O254 O 0.49899 -0.03520 0.44114
 O255 O 0.54343 0.02848 0.49944
 O256 O 0.45524 -0.03288 0.50237
 O257 O 0.54537 -0.03464 0.49947
 O258 O 0.45248 0.03064 0.50240
 H259 H 0.49937 0.04699 0.58361
 H260 H 0.43708 -0.04834 0.50282
 H261 H 0.49580 0.04630 0.41801
 H262 H 0.56480 -0.05069 0.49878
 H263 H 0.40275 -0.00700 0.53551
 H264 H 0.40085 0.01489 0.47043
 H265 H 0.47029 -0.01965 0.37501
 H266 H 0.52473 -0.02171 0.37310
 H267 H 0.59516 0.00826 0.46456
 H268 H 0.59753 -0.01059 0.53014
 H269 H 0.55570 -0.00041 0.62703
 H270 H 0.44738 0.00109 0.63035
 O271 O 0.54363 0.55672 0.07167
 O272 O 0.57861 0.52230 0.03242
 C273 C 0.57182 0.54656 0.05999
 O274 O 0.45856 0.42898 0.06748
 O275 O 0.42242 0.46605 0.03273
 C276 C 0.43001 0.43970 0.05767
 O277 O 0.54625 0.42965 0.07097
 O278 O 0.57997 0.46147 0.03211
 C279 C 0.57413 0.43802 0.06000
 O280 O 0.45615 0.56452 0.06851
 O281 O 0.42122 0.53111 0.03324
 C282 C 0.42796 0.55661 0.05847
 Zr283 Zr 0.49983 0.53988 0.05068
 O284 O 0.49956 0.53219 0.11475
 O285 O 0.50002 0.59650 0.05865
 Zr286 Zr 0.50157 0.44970 0.04965
 O287 O 0.50086 0.45584 0.11394
 O288 O 0.50388 0.39278 0.05567
 O289 O 0.52920 0.49355 0.05762
 O290 O 0.47273 0.49597 0.05782
 O291 O 0.45472 0.56479 -0.07069
 O292 O 0.42055 0.53141 -0.03449
 C293 C 0.42678 0.55694 -0.05977
 O294 O 0.54479 0.43101 -0.07750
 O295 O 0.57923 0.46186 -0.03841
 C296 C 0.57289 0.43900 -0.06679
 O297 O 0.45705 0.43114 -0.07272
 O298 O 0.42173 0.46689 -0.03542
 C299 C 0.42877 0.44137 -0.06156
 O300 O 0.54238 0.55816 -0.07481
 O301 O 0.57808 0.52300 -0.03718
 C302 C 0.57081 0.54784 -0.06396
 Zr303 Zr 0.49889 0.54102 -0.05318
 O304 O 0.49497 0.53877 -0.11778
 O305 O 0.50064 0.59797 -0.05543
 Zr306 Zr 0.50059 0.45029 -0.05405
 O307 O 0.49639 0.45219 -0.11862
 O308 O 0.50485 0.39306 -0.05547
 Zr309 Zr 0.54711 0.49332 -0.00249
 Zr310 Zr 0.45297 0.49736 -0.00127
 O311 O 0.47198 0.49695 -0.06066
 O312 O 0.52793 0.49455 -0.06206
 O313 O 0.47150 0.54893 -0.00088
 O314 O 0.52843 0.44202 -0.00261
 O315 O 0.52620 0.54621 -0.00148
 O316 O 0.47338 0.44400 -0.00198
 H317 H 0.45829 0.49649 0.08156
 H318 H 0.54295 0.42012 -0.00308
 H319 H 0.45734 0.49783 -0.08432
 H320 H 0.53944 0.56730 -0.00140
 H321 H 0.50800 0.38265 0.02813
 H322 H 0.48869 0.38422 -0.03690
 H323 H 0.51419 0.46533 -0.12921
 H324 H 0.51508 0.52801 -0.12856
 H325 H 0.48573 0.60820 -0.03474
 H326 H 0.50174 0.60708 0.03108
 H327 H 0.49839 0.55673 0.12692
 H328 H 0.50094 0.43105 0.12532
 C329 C 1.17418 0.15217 0.15057
 C330 C 1.18025 0.11205 0.16165
 C331 C 1.15989 0.08995 0.14327
 C332 C 1.13550 0.11018 0.11566
 C333 C 1.15484 0.13127 0.08527
 C334 C 1.17518 0.15335 0.10363
 C335 C 1.13963 0.16118 0.16157
 C336 C 1.11934 0.13915 0.14326
 C337 C 1.19552 0.17637 0.17071
 C338 C 1.21192 0.19696 0.18816
 C339 C 1.11299 0.08707 0.09606
 C340 C 1.09326 0.06967 0.08012
 H341 H 1.19891 0.10190 0.18205
 H342 H 1.16111 0.06089 0.14793
 H343 H 1.15280 0.12898 0.05225
 H344 H 1.19055 0.16998 0.08635
 H345 H 1.13178 0.18297 0.18202
 H346 H 1.09412 0.14210 0.14805
 C347 C 1.17444 0.66052 0.64256
 C348 C 1.17502 0.65899 0.59565
 C349 C 1.15468 0.63566 0.57954
 C350 C 1.13586 0.61627 0.61204
 C351 C 1.11973 0.64668 0.63767
 C352 C 1.14001 0.66993 0.65371
 C353 C 1.18095 0.62120 0.65659
 C354 C 1.16062 0.59789 0.64051
 C355 C 1.19581 0.68548 0.66084
 C356 C 1.21263 0.70535 0.67846
 C357 C 1.11345 0.59185 0.59510
 C358 C 1.09365 0.57347 0.58123
 H359 H 1.19008 0.67471 0.57679
 H360 H 1.15229 0.63136 0.54683
 H361 H 1.09455 0.64968 0.64281
 H362 H 1.13222 0.69287 0.67257
 H363 H 1.19990 0.61243 0.67726
 H364 H 1.16211 0.56917 0.64737
 C365 C 0.65795 0.17977 0.63685
 C366 C 0.65645 0.18356 0.59007
 C367 C 0.63252 0.16598 0.57257
 C368 C 0.61253 0.14645 0.60365
 C369 C 0.60126 0.17564 0.63440
 C370 C 0.62515 0.19318 0.65187
 C371 C 0.65994 0.13896 0.64492
 C372 C 0.63612 0.12147 0.62751
 C373 C 0.68344 0.19816 0.65671
 C374 C 0.70343 0.21296 0.67546
 C375 C 0.58735 0.12629 0.58556
 C376 C 0.56849 0.10649 0.57189
 H377 H 0.67268 0.19868 0.57231
 H378 H 0.62822 0.16608 0.53980
 H379 H 0.57674 0.18207 0.64171
 H380 H 0.62106 0.21467 0.67418
 H381 H 0.67849 0.12497 0.66269
 H382 H 0.63429 0.09247 0.63042
 C383 C 0.67829 0.65276 0.13566
 C384 C 0.64413 0.66108 0.14884
 C385 C 0.62382 0.63767 0.13338
 C386 C 0.63963 0.60820 0.10624
 C387 C 0.66558 0.58981 0.13292
 C388 C 0.68597 0.61331 0.14845
 C389 C 0.67740 0.65223 0.08874
 C390 C 0.65699 0.62870 0.07319
 C391 C 0.69920 0.67818 0.15370
 C392 C 0.71436 0.69919 0.17209
 C393 C 0.61704 0.58376 0.09005
 C394 C 0.59698 0.56555 0.07674
 H395 H 0.63654 0.68345 0.16866
 H396 H 0.59882 0.63996 0.13996
 H397 H 0.66780 0.56096 0.13898
 H398 H 0.70573 0.60460 0.16785
 H399 H 0.69158 0.66868 0.06951
 H400 H 0.65365 0.62496 0.04054
 C401 C 0.82273 -0.15457 0.15383
 C402 C 0.85734 -0.16240 0.16559
 C403 C 0.87737 -0.14122 0.14560
 C404 C 0.86089 -0.11421 0.11573
 C405 C 0.83629 -0.09270 0.14170
 C406 C 0.81620 -0.11394 0.16175
 C407 C 0.82179 -0.15856 0.10704
 C408 C 0.84182 -0.13738 0.08705
 C409 C 0.80128 -0.17812 0.17468
 C410 C 0.78381 -0.19889 0.18966
 C411 C 0.88300 -0.09199 0.09412
 C412 C 0.90239 -0.07507 0.07691
 H413 H 0.86541 -0.18274 0.18776
 H414 H 0.90260 -0.14346 0.15067
 H415 H 0.83477 -0.06342 0.14412
 H416 H 0.79751 -0.10285 0.18135
 H417 H 0.80663 -0.17644 0.09099
 H418 H 0.84379 -0.13712 0.05393
 C419 C 0.82502 0.34116 0.65323
 C420 C 0.82379 0.33976 0.60627
 C421 C 0.84322 0.36262 0.58772
 C422 C 0.86203 0.38471 0.61789
 C423 C 0.87924 0.35647 0.64566
 C424 C 0.85982 0.33362 0.66419
 C425 C 0.81778 0.38116 0.66406
 C426 C 0.83725 0.40406 0.64549
 C427 C 0.80417 0.31612 0.67283
 C428 C 0.78696 0.29500 0.68770
 C429 C 0.88352 0.40875 0.59785
 C430 C 0.90252 0.42701 0.58175
 H431 H 0.80893 0.32234 0.58907
 H432 H 0.84495 0.36479 0.55468
 H433 H 0.90452 0.35458 0.65034
 H434 H 0.86847 0.31218 0.68469
 H435 H 0.79900 0.39064 0.68447
 H436 H 0.83514 0.43314 0.64999
 C437 C 0.35176 -0.18486 0.65560
 C438 C 0.38476 -0.19708 0.67126
 C439 C 0.40833 -0.17964 0.65292
 C440 C 0.39650 -0.15178 0.62077
 C441 C 0.37263 -0.12643 0.64351
 C442 C 0.34917 -0.14378 0.66176
 C443 C 0.35325 -0.19027 0.60902
 C444 C 0.37675 -0.17288 0.59073
 C445 C 0.32588 -0.20303 0.67480
 C446 C 0.30383 -0.21742 0.68930
 C447 C 0.42089 -0.13167 0.60084
 C448 C 0.43840 -0.11182 0.58441
 H449 H 0.38920 -0.21758 0.69463
 H450 H 0.43296 -0.18521 0.66054
 H451 H 0.37407 -0.09730 0.64521
 H452 H 0.33057 -0.12954 0.67904
 H453 H 0.33730 -0.20644 0.59192
 H454 H 0.38093 -0.17419 0.55799
 C455 C 0.32471 0.33947 0.14816
 C456 C 0.35916 0.33130 0.16049
 C457 C 0.37947 0.35279 0.14154
 C458 C 0.36339 0.38041 0.11206
 C459 C 0.33853 0.40149 0.13800
 C460 C 0.31818 0.37995 0.15700
 C461 C 0.32427 0.33633 0.10130
 C462 C 0.34460 0.35785 0.08232
 C463 C 0.30311 0.31594 0.16861
 C464 C 0.28585 0.29597 0.18528
 C465 C 0.38578 0.40308 0.09184
 C466 C 0.40533 0.42053 0.07582
 H467 H 0.36693 0.31048 0.18226
 H468 H 0.40464 0.35036 0.14710
 H469 H 0.33703 0.43072 0.14114
 H470 H 0.29924 0.39072 0.17643
 H471 H 0.30926 0.31879 0.08450
 H472 H 0.34700 0.35877 0.04927
 C473 C 0.82293 0.16346 -0.17349
 C474 C 0.82094 0.12304 -0.18302
 C475 C 0.83987 0.10096 -0.15890
 C476 C 0.85899 0.12138 -0.12753
 C477 C 0.83454 0.14485 -0.10342
 C478 C 0.81557 0.16698 -0.12759
 C479 C 0.85792 0.17040 -0.17704
 C480 C 0.87684 0.14834 -0.15294
 C481 C 0.80264 0.18693 -0.20013
 C482 C 0.78587 0.20495 -0.22311
 C483 C 0.88015 0.09769 -0.10223
 C484 C 0.89934 0.07904 -0.08326
 H485 H 0.80591 0.11265 -0.20664
 H486 H 0.84103 0.07171 -0.16187
 H487 H 0.83230 0.14413 -0.07035
 H488 H 0.79711 0.18521 -0.11519
 H489 H 0.86707 0.19090 -0.19671
 H490 H 0.90219 0.14999 -0.15204
 C491 C 0.82331 0.67200 0.33854
 C492 C 0.81771 0.67737 0.38462
 C493 C 0.83627 0.65450 0.40849
 C494 C 0.85847 0.62865 0.38378
 C495 C 0.87703 0.65332 0.35629
 C496 C 0.85856 0.67608 0.33252
 C497 C 0.81860 0.63176 0.33076
 C498 C 0.83707 0.60900 0.35452
 C499 C 0.80354 0.69548 0.31168
 C500 C 0.78707 0.71176 0.28707
 C501 C 0.87915 0.60403 0.40821
 C502 C 0.89821 0.58443 0.42594
 H503 H 0.80076 0.69730 0.39733
 H504 H 0.83520 0.65479 0.44168
 H505 H 0.90252 0.65302 0.35565
 H506 H 0.86818 0.69527 0.31159
 H507 H 0.80206 0.62199 0.30858
 H508 H 0.83638 0.57979 0.35272
 C509 C 0.34190 0.18635 0.33647
 C510 C 0.34340 0.14525 0.33045
 C511 C 0.36570 0.12729 0.35370
 C512 C 0.38451 0.15205 0.38090
 C513 C 0.35966 0.17394 0.40608
 C514 C 0.33723 0.19200 0.38269
 C515 C 0.37541 0.19750 0.32796
 C516 C 0.39785 0.17943 0.35135
 C517 C 0.31743 0.20442 0.31071
 C518 C 0.29682 0.21669 0.28847
 C519 C 0.40809 0.13098 0.40528
 C520 C 0.42598 0.11016 0.42340
 H521 H 0.32822 0.13138 0.30966
 H522 H 0.36958 0.09805 0.35278
 H523 H 0.35975 0.17526 0.43927
 H524 H 0.31810 0.20879 0.39585
 H525 H 0.38100 0.21787 0.30570
 H526 H 0.42265 0.18432 0.34914
 C527 C 0.32413 0.66780 -0.15904
 C528 C 0.34518 0.64213 -0.18537
 C529 C 0.36433 0.61889 -0.16321
 C530 C 0.36062 0.62351 -0.11682
 C531 C 0.32558 0.61960 -0.10854
 C532 C 0.30634 0.64294 -0.13080
 C533 C 0.34675 0.68689 -0.13085
 C534 C 0.36598 0.66356 -0.10860
 C535 C 0.30367 0.69200 -0.18411
 C536 C 0.28684 0.70947 -0.20723
 C537 C 0.38197 0.59850 -0.09401
 C538 C 0.40139 0.57868 -0.07733
 H539 H 0.34505 0.64220 -0.21861
 H540 H 0.38059 0.59903 -0.17746
 H541 H 0.31669 0.60034 -0.08709
 H542 H 0.28091 0.64370 -0.12841
 H543 H 0.34752 0.71605 -0.12846
 H544 H 0.38326 0.67275 -0.08708
 C545 C 1.18052 -0.15186 -0.17487
 C546 C 1.18261 -0.11091 -0.18043
 C547 C 1.16179 -0.09074 -0.15685
 C548 C 1.14096 -0.11355 -0.13009
 C549 C 1.16405 -0.13830 -0.10518
 C550 C 1.18486 -0.15847 -0.12874
 C551 C 1.14600 -0.15888 -0.18353
 C552 C 1.12528 -0.13881 -0.16008
 C553 C 1.20186 -0.17434 -0.20084
 C554 C 1.21694 -0.19449 -0.22330
 C555 C 1.11776 -0.09245 -0.10535
 C556 C 1.09722 -0.07625 -0.08629
 H557 H 1.19904 -0.09885 -0.20089
 H558 H 1.16038 -0.06138 -0.15712
 H559 H 1.16413 -0.13975 -0.07199
 H560 H 1.20277 -0.17718 -0.11574
 H561 H 1.13845 -0.17801 -0.20621
 H562 H 1.10003 -0.14078 -0.16268
 C563 C 1.17577 0.34400 0.33200
 C564 C 1.17217 0.38299 0.31597
 C565 C 1.15207 0.40497 0.33854
 C566 C 1.13757 0.38576 0.37490
 C567 C 1.16572 0.36944 0.39954
 C568 C 1.18584 0.34745 0.37695
 C569 C 1.14219 0.33131 0.33365
 C570 C 1.12217 0.35319 0.35613
 C571 C 1.19648 0.31974 0.30722
 C572 C 1.21148 0.29860 0.28584
 C573 C 1.11512 0.40874 0.39871
 C574 C 1.09509 0.42617 0.41732
 H575 H 1.18440 0.39252 0.28935
 H576 H 1.14709 0.43332 0.33125
 H577 H 1.16955 0.37476 0.43180
 H578 H 1.20690 0.33393 0.38985
 H579 H 1.13475 0.30715 0.31845
 H580 H 1.09761 0.34776 0.36017
 C581 C 0.65791 -0.18171 0.33205
 C582 C 0.62513 -0.19335 0.31975
 C583 C 0.60133 -0.17759 0.34249
 C584 C 0.61262 -0.15176 0.37531
 C585 C 0.63183 -0.12466 0.35197
 C586 C 0.65558 -0.14038 0.32928
 C587 C 0.66081 -0.19018 0.37798
 C588 C 0.63696 -0.17438 0.40078
 C589 C 0.68295 -0.19850 0.30652
 C590 C 0.70157 -0.21303 0.28323
 C591 C 0.58733 -0.13329 0.39904
 C592 C 0.56823 -0.11404 0.41703
 H593 H 0.62101 -0.21241 0.29533
 H594 H 0.57687 -0.18313 0.33762
 H595 H 0.62719 -0.09553 0.35325
 H596 H 0.67127 -0.12479 0.31120
 H597 H 0.67988 -0.20701 0.39137
 H598 H 0.63555 -0.17772 0.43371
 C599 C 0.68345 0.34187 -0.16997
 C600 C 0.68568 0.38255 -0.17752
 C601 C 0.66447 0.40363 -0.15552
 C602 C 0.64319 0.38187 -0.12825
 C603 C 0.66584 0.35812 -0.10151
 C604 C 0.68705 0.33704 -0.12350
 C605 C 0.64907 0.33453 -0.17915
 C606 C 0.62798 0.35549 -0.15730
 C607 C 0.70479 0.31839 -0.19469
 C608 C 0.71870 0.29747 -0.21738
 C609 C 0.61953 0.40379 -0.10529
 C610 C 0.59871 0.42049 -0.08740
 H611 H 0.70252 0.39378 -0.19807
 H612 H 0.66311 0.43295 -0.15724
 H613 H 0.66536 0.35803 -0.06829
 H614 H 0.70475 0.31889 -0.10917
 H615 H 0.64187 0.31451 -0.20103
 H616 H 0.60278 0.35342 -0.16046
 C617 C 1.17571 0.15068 -0.15059
 C618 C 1.18186 0.11062 -0.16186
 C619 C 1.16121 0.08849 -0.14440
 C620 C 1.13649 0.10865 -0.11743
 C621 C 1.12076 0.13780 -0.14527
 C622 C 1.14134 0.15986 -0.16267
 C623 C 1.17608 0.15163 -0.10363
 C624 C 1.15545 0.12952 -0.08618
 C625 C 1.19730 0.17493 -0.16977
 C626 C 1.21381 0.19562 -0.18661
 C627 C 1.11370 0.08559 -0.09874
 C628 C 1.09376 0.06834 -0.08333
 H629 H 1.20079 0.10053 -0.18171
 H630 H 1.16242 0.05945 -0.14930
 H631 H 1.09562 0.14083 -0.15089
 H632 H 1.13381 0.18179 -0.18316
 H633 H 1.19125 0.16811 -0.08568
 H634 H 1.15296 0.12705 -0.05326
 C635 C 1.17275 0.65856 0.35683
 C636 C 1.17354 0.65818 0.40379
 C637 C 1.15322 0.63533 0.42067
 C638 C 1.13417 0.61516 0.38887
 C639 C 1.15877 0.59603 0.36093
 C640 C 1.17907 0.61886 0.34407
 C641 C 1.13825 0.66775 0.34546
 C642 C 1.11799 0.64497 0.36228
 C643 C 1.19418 0.68308 0.33788
 C644 C 1.21112 0.70272 0.32017
 C645 C 1.11179 0.59116 0.40675
 C646 C 1.09216 0.57306 0.42147
 H647 H 1.18871 0.67434 0.42213
 H648 H 1.15101 0.63190 0.45351
 H649 H 1.16016 0.56714 0.35498
 H650 H 1.19789 0.60951 0.32367
 H651 H 1.13040 0.69022 0.32590
 H652 H 1.09279 0.64792 0.35709
 C653 C 0.65497 0.17860 0.36139
 C654 C 0.65631 0.13789 0.35276
 C655 C 0.63217 0.12079 0.36965
 C656 C 0.60898 0.14604 0.39357
 C657 C 0.59817 0.17572 0.36310
 C658 C 0.62239 0.19288 0.34616
 C659 C 0.65352 0.18198 0.40819
 C660 C 0.62928 0.16481 0.42515
 C661 C 0.68087 0.19650 0.34230
 C662 C 0.70137 0.21090 0.32444
 C663 C 0.58362 0.12625 0.41131
 C664 C 0.56489 0.10656 0.42517
 H665 H 0.67464 0.12369 0.33496
 H666 H 0.62983 0.09191 0.36626
 H667 H 0.57372 0.18272 0.35561
 H668 H 0.61868 0.21463 0.32409
 H669 H 0.66998 0.19659 0.42633
 H670 H 0.62493 0.16474 0.45787
 C671 C 0.67692 0.65502 -0.13888
 C672 C 0.68393 0.61576 -0.15283
 C673 C 0.66355 0.59222 -0.13755
 C674 C 0.63822 0.61033 -0.10990
 C675 C 0.62227 0.64059 -0.13597
 C676 C 0.64258 0.66404 -0.15118
 C677 C 0.67681 0.65349 -0.09197
 C678 C 0.65641 0.62992 -0.07667
 C679 C 0.69797 0.68046 -0.15670
 C680 C 0.71340 0.70128 -0.17499
 C681 C 0.61563 0.58574 -0.09392
 C682 C 0.59571 0.56730 -0.08072
 H683 H 0.70327 0.60720 -0.17282
 H684 H 0.66538 0.56350 -0.14443
 H685 H 0.59716 0.64336 -0.14197
 H686 H 0.63486 0.68694 -0.17020
 H687 H 0.69145 0.66937 -0.07254
 H688 H 0.65356 0.62557 -0.04407
 C689 C 0.82198 -0.15608 -0.15752
 C690 C 0.85657 -0.16468 -0.16862
 C691 C 0.87681 -0.14303 -0.14941
 C692 C 0.86058 -0.11478 -0.12087
 C693 C 0.84124 -0.13672 -0.09139
 C694 C 0.82101 -0.15837 -0.11060
 C695 C 0.81586 -0.11568 -0.16724
 C696 C 0.83615 -0.09398 -0.14799
 C697 C 0.80022 -0.18007 -0.17767
 C698 C 0.78243 -0.20084 -0.19236
 C699 C 0.88292 -0.09197 -0.09997
 C700 C 0.90237 -0.07465 -0.08303
 H701 H 0.86449 -0.18587 -0.18982
 H702 H 0.90204 -0.14575 -0.15420
 H703 H 0.84321 -0.13533 -0.05829
 H704 H 0.80568 -0.17548 -0.09389
 H705 H 0.79727 -0.10507 -0.18746
 H706 H 0.83489 -0.06481 -0.15173
 C707 C 0.82479 0.34166 0.35274
 C708 C 0.85979 0.33399 0.34347
 C709 C 0.87874 0.35730 0.36225
 C710 C 0.86087 0.38608 0.38852
 C711 C 0.84151 0.36462 0.41844
 C712 C 0.82254 0.34128 0.39964
 C713 C 0.81768 0.38137 0.34055
 C714 C 0.83667 0.40475 0.35938
 C715 C 0.80453 0.31616 0.33282
 C716 C 0.78780 0.29476 0.31744
 C717 C 0.88194 0.41053 0.40874
 C718 C 0.90090 0.42882 0.42493
 H719 H 0.86890 0.31220 0.32380
 H720 H 0.90410 0.35545 0.35864
 H721 H 0.84252 0.36757 0.45147
 H722 H 0.80731 0.32423 0.41660
 H723 H 0.79935 0.39032 0.31905
 H724 H 0.83462 0.43372 0.35405
 C725 C 0.34879 -0.18504 0.34717
 C726 C 0.34510 -0.14378 0.34321
 C727 C 0.36839 -0.12634 0.36201
 C728 C 0.39327 -0.15175 0.38308
 C729 C 0.40517 -0.17795 0.34933
 C730 C 0.38178 -0.19547 0.33045
 C731 C 0.35126 -0.19223 0.39341
 C732 C 0.37460 -0.17475 0.41227
 C733 C 0.32313 -0.20344 0.32722
 C734 C 0.30138 -0.21817 0.31199
 C735 C 0.41764 -0.13158 0.40351
 C736 C 0.43535 -0.11179 0.42003
 H737 H 0.32588 -0.12948 0.32695
 H738 H 0.36906 -0.09708 0.36181
 H739 H 0.42974 -0.18237 0.34105
 H740 H 0.38634 -0.21488 0.30596
 H741 H 0.33604 -0.20962 0.40990
 H742 H 0.37936 -0.17719 0.44485
 C743 C 0.32336 0.33925 -0.14935
 C744 C 0.35787 0.33074 -0.16082
 C745 C 0.37804 0.35290 -0.14250
 C746 C 0.36177 0.38147 -0.11446
 C747 C 0.34289 0.35991 -0.08405
 C748 C 0.32268 0.33770 -0.10241
 C749 C 0.31681 0.37938 -0.16001
 C750 C 0.33704 0.40161 -0.14164
 C751 C 0.30201 0.31501 -0.16922
 C752 C 0.28506 0.29453 -0.18575
 C753 C 0.38410 0.40475 -0.09493
 C754 C 0.40378 0.42240 -0.07937
 H755 H 0.36579 0.30919 -0.18156
 H756 H 0.40324 0.35033 -0.14758
 H757 H 0.34513 0.36196 -0.05103
 H758 H 0.30761 0.32071 -0.08512
 H759 H 0.29796 0.38944 -0.18016
 H760 H 0.33552 0.43071 -0.14603
 C761 C 1.17966 -0.15443 0.17236
 C762 C 1.14503 -0.16095 0.18066
 C763 C 1.12448 -0.14038 0.15727
 C764 C 1.14039 -0.11512 0.12767
 C765 C 1.16318 -0.14005 0.10268
 C766 C 1.18382 -0.16071 0.12617
 C767 C 1.18221 -0.11358 0.17836
 C768 C 1.16156 -0.09290 0.15486
 C769 C 1.20088 -0.17742 0.19832
 C770 C 1.21588 -0.19779 0.22084
 C771 C 1.11733 -0.09343 0.10293
 C772 C 1.09692 -0.07677 0.08382
 H773 H 1.13729 -0.18014 0.20304
 H774 H 1.09920 -0.14198 0.15967
 H775 H 1.16317 -0.14126 0.06948
 H776 H 1.20148 -0.17961 0.11308
 H777 H 1.19883 -0.10193 0.19908
 H778 H 1.16051 -0.06355 0.15548
 C779 C 1.17774 0.34273 0.66967
 C780 C 1.14297 0.33649 0.67712
 C781 C 1.12290 0.35876 0.65505
 C782 C 1.13946 0.38519 0.62756
 C783 C 1.16194 0.36127 0.60103
 C784 C 1.18210 0.33890 0.62321
 C785 C 1.18100 0.38303 0.67870
 C786 C 1.16083 0.40541 0.65651
 C787 C 1.19844 0.31810 0.69407
 C788 C 1.21339 0.29673 0.71527
 C789 C 1.11692 0.40852 0.60426
 C790 C 1.09666 0.42616 0.58620
 H791 H 1.13480 0.31629 0.69800
 H792 H 1.09755 0.35763 0.65703
 H793 H 1.16209 0.36192 0.56782
 H794 H 1.19953 0.32039 0.60902
 H795 H 1.19771 0.39309 0.70045
 H796 H 1.16025 0.43465 0.65924
 C797 C 0.66211 -0.18178 0.66615
 C798 C 0.66448 -0.19098 0.62036
 C799 C 0.64064 -0.17505 0.59737
 C800 C 0.61682 -0.15157 0.62251
 C801 C 0.63668 -0.12456 0.64525
 C802 C 0.66042 -0.14041 0.66813
 C803 C 0.62921 -0.19253 0.67879
 C804 C 0.60545 -0.17665 0.65589
 C805 C 0.68705 -0.19881 0.69207
 C806 C 0.70523 -0.21360 0.71596
 C807 C 0.59138 -0.13301 0.59870
 C808 C 0.57192 -0.11383 0.58094
 H809 H 0.68320 -0.20839 0.60718
 H810 H 0.63891 -0.17887 0.56451
 H811 H 0.63248 -0.09539 0.64345
 H812 H 0.67651 -0.12489 0.68583
 H813 H 0.62498 -0.21111 0.70359
 H814 H 0.58092 -0.18162 0.66102
 C815 C 0.68356 0.34127 0.16550
 C816 C 0.68699 0.33470 0.11930
 C817 C 0.66624 0.35565 0.09629
 C818 C 0.64422 0.38098 0.12190
 C819 C 0.66609 0.40295 0.14833
 C820 C 0.68683 0.38200 0.17133
 C821 C 0.64899 0.33536 0.17483
 C822 C 0.62838 0.35618 0.15198
 C823 C 0.70432 0.31808 0.19130
 C824 C 0.71782 0.29758 0.21484
 C825 C 0.62099 0.40278 0.09811
 C826 C 0.60020 0.41947 0.08006
 H827 H 0.70423 0.31549 0.10586
 H828 H 0.66568 0.35441 0.06310
 H829 H 0.66543 0.43229 0.14879
 H830 H 0.70399 0.39336 0.19150
 H831 H 0.64132 0.31638 0.19751
 H832 H 0.60309 0.35505 0.15509
 C833 C 0.82321 0.16049 0.17063
 C834 C 0.81972 0.11977 0.17643
 C835 C 0.83849 0.09860 0.15132
 C836 C 0.85892 0.12018 0.12282
 C837 C 0.87711 0.14448 0.15141
 C838 C 0.85837 0.16563 0.17649
 C839 C 0.81690 0.16739 0.12487
 C840 C 0.83571 0.14617 0.09971
 C841 C 0.80319 0.18301 0.19826
 C842 C 0.78673 0.20057 0.22179
 C843 C 0.87991 0.09744 0.09661
 C844 C 0.89908 0.07936 0.07723
 H845 H 0.80383 0.10856 0.19828
 H846 H 0.83865 0.06928 0.15165
 H847 H 0.90255 0.14507 0.15185
 H848 H 0.86774 0.18430 0.19836
 H849 H 0.79924 0.18715 0.11328
 H850 H 0.83414 0.14773 0.06658
 C851 C 0.82360 0.67402 0.66599
 C852 C 0.82028 0.63381 0.67549
 C853 C 0.83917 0.61099 0.65247
 C854 C 0.85960 0.63051 0.62211
 C855 C 0.87761 0.65690 0.64831
 C856 C 0.85871 0.67974 0.67135
 C857 C 0.81739 0.67759 0.61977
 C858 C 0.83637 0.65467 0.59664
 C859 C 0.80327 0.69758 0.69208
 C860 C 0.78628 0.71388 0.71604
 C861 C 0.88063 0.60575 0.59835
 C862 C 0.89966 0.58594 0.58091
 H863 H 0.80436 0.62408 0.69830
 H864 H 0.83942 0.58179 0.65553
 H865 H 0.90304 0.65766 0.64862
 H866 H 0.86792 0.70004 0.69134
 H867 H 0.79974 0.69643 0.60643
 H868 H 0.83496 0.65385 0.56348
 C869 C 0.34455 0.18596 0.66766
 C870 C 0.34514 0.14475 0.67215
 C871 C 0.36739 0.12686 0.64897
 C872 C 0.38705 0.15181 0.62338
 C873 C 0.40060 0.17793 0.65441
 C874 C 0.37821 0.19593 0.67773
 C875 C 0.34058 0.19302 0.62155
 C876 C 0.36297 0.17503 0.59823
 C877 C 0.32012 0.20389 0.69327
 C878 C 0.29944 0.21597 0.71528
 C879 C 0.41050 0.13081 0.59904
 C880 C 0.42820 0.10999 0.58081
 H881 H 0.32940 0.13076 0.69190
 H882 H 0.37067 0.09756 0.64891
 H883 H 0.42549 0.18204 0.65765
 H884 H 0.38392 0.21546 0.70098
 H885 H 0.32196 0.21068 0.60842
 H886 H 0.36353 0.17728 0.56512
 C887 C 0.32533 0.66562 0.16034
 C888 C 0.32086 0.62539 0.16837
 C889 C 0.34020 0.60260 0.14589
 C890 C 0.36213 0.62224 0.11754
 C891 C 0.37967 0.64752 0.14569
 C892 C 0.36034 0.67030 0.16818
 C893 C 0.32091 0.67034 0.11394
 C894 C 0.34032 0.64748 0.09137
 C895 C 0.30464 0.68939 0.18560
 C896 C 0.28751 0.70666 0.20851
 C897 C 0.38358 0.59771 0.09424
 C898 C 0.40287 0.57820 0.07693
 H899 H 0.30387 0.61564 0.18979
 H900 H 0.33979 0.57338 0.14801
 H901 H 0.40510 0.64759 0.14770
 H902 H 0.36918 0.68988 0.18941
 H903 H 0.30409 0.68986 0.10007
 H904 H 0.34011 0.64737 0.05815
   
