data_POSCAR
  _audit_creation_date              2014-09-24
  _audit_creation_method            'ToBaCCo'
  _symmetry_space_group_name_H-M    'P1'
  _symmetry_Int_Tables_number       1
  _symmetry_cell_setting            triclinic
  loop_
  _symmetry_equiv_pos_as_xyz
 x,y,z
_cell_length_a 46.7366
_cell_length_b 47.1581
_cell_length_c 49.2256
_cell_angle_alpha 90.001500
_cell_angle_beta 89.983800
_cell_angle_gamma 90.021700
loop_
  _atom_site_label
  _atom_site_type_symbol
  _atom_site_fract_x
  _atom_site_fract_y
  _atom_site_fract_z
O1 O 0.34696 0.38712 0.02919
 O2 O 0.38277 0.34783 -0.02574
 O3 O 0.34556 0.38849 -0.02405
 O4 O 0.38411 0.34586 0.02694
 O5 O 0.34767 0.31611 0.02877
 O6 O 0.31139 0.35631 -0.02530
 O7 O 0.34888 0.31525 -0.02413
 O8 O 0.31066 0.35721 0.02749
 Cu9 Cu 0.36832 0.37054 0.00165
 Cu10 Cu 0.32612 0.33309 0.00167
 C11 C 0.32253 0.37907 0.03750
 C12 C 0.37217 0.32460 -0.03401
 C13 C 0.32207 0.37946 -0.03383
 C14 C 0.37229 0.32386 0.03677
 O15 O 0.65347 0.61013 0.02321
 O16 O 0.61387 0.65019 -0.02880
 O17 O 0.65206 0.61020 -0.02922
 O18 O 0.61417 0.64947 0.02430
 O19 O 0.64748 0.68261 0.02354
 O20 O 0.68656 0.64206 -0.02881
 O21 O 0.64817 0.68231 -0.02951
 O22 O 0.68655 0.64357 0.02406
 Cu23 Cu 0.62990 0.62683 -0.00256
 Cu24 Cu 0.67055 0.66595 -0.00276
 C25 C 0.67678 0.62005 0.03249
 C26 C 0.62442 0.67297 -0.03828
 C27 C 0.67601 0.61909 -0.03798
 C28 C 0.62425 0.67274 0.03311
 O29 O 0.65128 0.38249 0.97232
 O30 O 0.61232 0.34639 1.02730
 O31 O 0.65159 0.38542 1.02549
 O32 O 0.61246 0.34297 0.97466
 O33 O 0.64654 0.31067 0.97614
 O34 O 0.68487 0.35241 1.02765
 O35 O 0.64573 0.31339 1.02877
 O36 O 0.68560 0.35046 0.97489
 Cu37 Cu 0.62860 0.36767 0.99973
 Cu38 Cu 0.66909 0.32848 1.00196
 C39 C 0.67516 0.37274 0.96432
 C40 C 0.62223 0.32360 1.03730
 C41 C 0.67481 0.37604 1.03554
 C42 C 0.62278 0.31942 0.96683
 O43 O 0.34733 0.61626 0.97328
 O44 O 0.38632 0.65524 1.02648
 O45 O 0.34734 0.61571 1.02615
 O46 O 0.38696 0.65562 0.97423
 O47 O 0.35357 0.68875 0.97453
 O48 O 0.31298 0.64770 1.02541
 O49 O 0.35183 0.68724 1.02751
 O50 O 0.31449 0.64991 0.97238
 Cu51 Cu 0.37028 0.63232 0.99998
 Cu52 Cu 0.32980 0.67166 1.00000
 C53 C 0.32443 0.62663 0.96357
 C54 C 0.37567 0.67790 1.03606
 C55 C 0.32334 0.62472 1.03470
 C56 C 0.37727 0.67918 0.96582
 O57 O -0.02594 0.38607 0.34381
 O58 O 0.02759 0.34812 0.38472
 O59 O 0.02970 0.38679 0.34681
 O60 O -0.02760 0.34703 0.38162
 O61 O -0.02365 0.31287 0.35129
 O62 O 0.03005 0.35469 0.31418
 O63 O 0.03190 0.31607 0.35227
 O64 O -0.02547 0.35135 0.31371
 Cu65 Cu 0.00069 0.37042 0.36734
 Cu66 Cu 0.00353 0.33041 0.32970
 C67 C -0.03513 0.37499 0.32197
 C68 C 0.03895 0.32567 0.37544
 C69 C 0.03923 0.37776 0.32423
 C70 C -0.03504 0.32279 0.37273
 O71 O 0.02585 0.65202 0.61632
 O72 O -0.02880 0.61339 0.65593
 O73 O -0.02996 0.65076 0.61670
 O74 O 0.02698 0.61454 0.65496
 O75 O 0.02611 0.64865 0.68567
 O76 O -0.03031 0.68533 0.64682
 O77 O -0.02933 0.64816 0.68590
 O78 O 0.02502 0.68655 0.64660
 Cu79 Cu -0.00148 0.62923 0.63293
 Cu80 Cu -0.00211 0.67060 0.66929
 C81 C 0.03455 0.67603 0.62466
 C82 C -0.03829 0.62419 0.67782
 C83 C -0.03977 0.67437 0.62499
 C84 C 0.03610 0.62528 0.67697
 O85 O 0.96965 0.64931 0.38740
 O86 O 1.02508 0.61463 0.34561
 O87 O 1.02555 0.65100 0.38560
 O88 O 0.96954 0.61259 0.34801
 O89 O 0.96690 0.64777 0.31859
 O90 O 1.02339 0.68589 0.35590
 O91 O 1.02233 0.64958 0.31595
 O92 O 0.96809 0.68475 0.35813
 Cu93 Cu 0.99773 0.62840 0.36966
 Cu94 Cu 0.99493 0.67050 0.33418
 C95 C 0.95958 0.67309 0.37993
 C96 C 1.03295 0.62607 0.32345
 C97 C 1.03407 0.67509 0.37728
 C98 C 0.95870 0.62354 0.32681
 O99 O 0.97543 0.34928 0.61270
 O100 O 1.02998 0.38628 0.65393
 O101 O 1.03142 0.35098 0.61312
 O102 O 0.97472 0.38553 0.65305
 O103 O 0.97349 0.34876 0.68079
 O104 O 1.03283 0.31597 0.64273
 O105 O 1.02899 0.35107 0.68342
 O106 O 0.97759 0.31279 0.64071
 Cu107 Cu 1.00281 0.37155 0.63020
 Cu108 Cu 1.00324 0.32857 0.66480
 C109 C 0.96761 0.32444 0.61950
 C110 C 1.03837 0.37515 0.67606
 C111 C 1.04210 0.32765 0.62116
 C112 C 0.96449 0.37310 0.67376
 O113 O 0.38939 0.02421 0.34803
 O114 O 0.35314 -0.03247 0.38609
 O115 O 0.38949 -0.03086 0.34590
 O116 O 0.35248 0.02296 0.38753
 O117 O 0.31712 0.02399 0.35788
 O118 O 0.35352 -0.03016 0.31691
 O119 O 0.31709 -0.03102 0.35719
 O120 O 0.35399 0.02489 0.31841
 Cu121 Cu 0.37466 -0.00417 0.36989
 Cu122 Cu 0.33186 -0.00307 0.33466
 C123 C 0.37800 0.03418 0.32664
 C124 C 0.32883 -0.04129 0.37828
 C125 C 0.37782 -0.03957 0.32412
 C126 C 0.32854 0.03282 0.37970
 O127 O 0.60995 0.03141 0.65437
 O128 O 0.64721 -0.02238 0.61323
 O129 O 0.61039 -0.02294 0.65335
 O130 O 0.64629 0.03316 0.61415
 O131 O 0.68211 0.03294 0.64331
 O132 O 0.64642 -0.02363 0.68237
 O133 O 0.68303 -0.02235 0.64237
 O134 O 0.64601 0.03155 0.68337
 Cu135 Cu 0.62500 0.00477 0.63067
 Cu136 Cu 0.66804 0.00456 0.66572
 C137 C 0.62154 0.04044 0.67604
 C138 C 0.67148 -0.03162 0.62078
 C139 C 0.62200 -0.03248 0.67480
 C140 C 0.67022 0.04286 0.62213
 O141 O 0.35289 1.02574 0.61129
 O142 O 0.38822 0.97157 0.65370
 O143 O 0.35272 0.97023 0.61268
 O144 O 0.38879 1.02668 0.65137
 O145 O 0.35240 1.02822 0.67988
 O146 O 0.31659 0.97120 0.64151
 O147 O 0.35197 0.97316 0.68237
 O148 O 0.31628 1.02614 0.63965
 Cu149 Cu 0.37426 0.99834 0.62933
 Cu150 Cu 0.33069 0.99977 0.66372
 C151 C 0.32852 1.03517 0.61832
 C152 C 0.37619 0.96334 0.67549
 C153 C 0.32849 0.96105 0.62042
 C154 C 0.37676 1.03718 0.67221
 O155 O 0.64978 1.02704 0.38687
 O156 O 0.61384 0.97352 0.34423
 O157 O 0.64971 0.97173 0.38446
 O158 O 0.61255 1.02790 0.34661
 O159 O 0.64774 1.02906 0.31669
 O160 O 0.68672 0.97539 0.35680
 O161 O 0.65080 0.97386 0.31626
 O162 O 0.68417 1.03065 0.35643
 Cu163 Cu 0.62797 1.00001 0.36861
 Cu164 Cu 0.67099 1.00243 0.33366
 C165 C 0.67305 1.03826 0.37881
 C166 C 0.62635 0.96447 0.32303
 C167 C 0.67461 0.96406 0.37723
 C168 C 0.62334 1.03745 0.32477
 C169 C 0.81795 0.78363 0.48876
 C170 C 0.81945 0.78616 0.51734
 C171 C 0.80223 0.80632 0.53051
 C172 C 0.78359 0.82389 0.51575
 C173 C 0.78228 0.82125 0.48717
 C174 C 0.79916 0.80091 0.47404
 H175 H 0.79868 0.79944 0.45205
 H176 H 0.80308 0.80811 0.55245
 C177 C 0.18107 0.21530 0.48469
 C178 C 0.18345 0.21720 0.51339
 C179 C 0.20309 0.19976 0.52701
 C180 C 0.22028 0.18055 0.51278
 C181 C 0.21853 0.17908 0.48421
 C182 C 0.19897 0.19647 0.47049
 H183 H 0.19721 0.19481 0.44859
 H184 H 0.20456 0.20064 0.54898
 C185 C 0.17858 0.78206 0.51412
 C186 C 0.17867 0.78208 0.48538
 C187 C 0.19844 0.79926 0.47159
 C188 C 0.21763 0.81660 0.48580
 C189 C 0.21746 0.81664 0.51448
 C190 C 0.19808 0.79912 0.52833
 H191 H 0.19747 0.79953 0.55035
 H192 H 0.19851 0.79964 0.44956
 C193 C 0.82321 0.21661 0.51089
 C194 C 0.82376 0.21331 0.48239
 C195 C 0.80435 0.19466 0.47002
 C196 C 0.78455 0.17896 0.48538
 C197 C 0.78369 0.18278 0.51398
 C198 C 0.80296 0.20169 0.52628
 H199 H 0.80284 0.20412 0.54819
 H200 H 0.80521 0.19178 0.44818
 C201 C 0.48619 0.83169 0.79629
 C202 C 0.51652 0.83185 0.79504
 C203 C 0.53194 0.81271 0.81127
 C204 C 0.51798 0.79417 0.82923
 C205 C 0.48776 0.79522 0.83159
 C206 C 0.47234 0.81363 0.81471
 H207 H 0.44920 0.81422 0.81618
 H208 H 0.55510 0.81244 0.81021
 C209 C 0.48201 0.17201 0.20786
 C210 C 0.51230 0.17088 0.20675
 C211 C 0.52686 0.18902 0.18889
 C212 C 0.51205 0.20766 0.17167
 C213 C 0.48170 0.20771 0.17177
 C214 C 0.46717 0.19005 0.19013
 H215 H 0.44398 0.19019 0.19057
 H216 H 0.55004 0.18854 0.18823
 C217 C 0.50964 0.17219 0.79475
 C218 C 0.47947 0.17456 0.79242
 C219 C 0.46461 0.19266 0.81015
 C220 C 0.47903 0.20820 0.83017
 C221 C 0.50902 0.20576 0.83265
 C222 C 0.52391 0.18787 0.81486
 H223 H 0.54693 0.18595 0.81686
 H224 H 0.44155 0.19448 0.80851
 C225 C 0.51978 0.82813 0.20470
 C226 C 0.48944 0.82845 0.20450
 C227 C 0.47468 0.81019 0.18692
 C228 C 0.48916 0.79147 0.16957
 C229 C 0.51946 0.79077 0.17006
 C230 C 0.53430 0.80916 0.18750
 H231 H 0.55750 0.80885 0.18749
 H232 H 0.45149 0.81081 0.18654
 C233 C 0.78960 0.47884 0.82632
 C234 C 0.79068 0.50868 0.82816
 C235 C 0.80953 0.52368 0.81136
 C236 C 0.82736 0.50966 0.79271
 C237 C 0.82626 0.47962 0.79084
 C238 C 0.80707 0.46470 0.80759
 H239 H 0.80655 0.44173 0.80690
 H240 H 0.81009 0.54664 0.81258
 C241 C 0.21332 0.48911 0.17661
 C242 C 0.21089 0.51882 0.17359
 C243 C 0.19130 0.53371 0.18980
 C244 C 0.17428 0.51963 0.20906
 C245 C 0.17723 0.48999 0.21234
 C246 C 0.19688 0.47509 0.19626
 H247 H 0.19835 0.45222 0.19812
 H248 H 0.18941 0.55651 0.18754
 C249 C 0.79138 0.51294 0.16982
 C250 C 0.79018 0.48295 0.17111
 C251 C 0.80767 0.46852 0.18964
 C252 C 0.82574 0.48320 0.20759
 C253 C 0.82560 0.51329 0.20743
 C254 C 0.80870 0.52768 0.18832
 H255 H 0.80924 0.55066 0.18771
 H256 H 0.80739 0.44554 0.18987
 C257 C 0.21098 0.51709 0.82715
 C258 C 0.21004 0.48703 0.82833
 C259 C 0.19087 0.47233 0.81149
 C260 C 0.17305 0.48670 0.79316
 C261 C 0.17464 0.51654 0.79142
 C262 C 0.19357 0.53135 0.80830
 H263 H 0.19386 0.55433 0.80749
 H264 H 0.19002 0.44937 0.81243
 C265 C 0.27896 0.42518 0.09958
 C266 C 0.30893 0.42642 0.09819
 C267 C 0.32323 0.41160 0.07771
 C268 C 0.30775 0.39521 0.05901
 C269 C 0.27784 0.39443 0.06122
 N270 N 0.26435 0.40949 0.08097
 C271 C 0.26276 0.44132 0.12011
 N272 N 0.23735 0.45323 0.11289
 C273 C 0.22133 0.46849 0.13067
 C274 C 0.23051 0.47201 0.15753
 C275 C 0.25621 0.45940 0.16570
 C276 C 0.27262 0.44425 0.14692
 H277 H 0.34635 0.41274 0.07665
 H278 H 0.26514 0.38222 0.04703
 H279 H 0.20144 0.47786 0.12388
 H280 H 0.26372 0.46170 0.18640
 H281 H 0.32110 0.43915 0.11238
 H282 H 0.29249 0.43458 0.15338
 C283 C 0.72561 0.57376 0.09042
 C284 C 0.70888 0.55902 0.07145
 C285 C 0.69231 0.57417 0.05292
 C286 C 0.69294 0.60388 0.05293
 C287 C 0.70988 0.61782 0.07231
 N288 N 0.72540 0.60261 0.09056
 C289 C 0.74336 0.55844 0.11022
 N290 N 0.74331 0.56668 0.13671
 C291 C 0.75874 0.55277 0.15596
 C292 C 0.77556 0.52925 0.14882
 C293 C 0.77692 0.52138 0.12135
 C294 C 0.76047 0.53558 0.10209
 H295 H 0.67952 0.56271 0.03820
 H296 H 0.71066 0.64075 0.07304
 H297 H 0.75741 0.55969 0.17689
 H298 H 0.79045 0.50403 0.11486
 H299 H 0.70846 0.53605 0.07116
 H300 H 0.76137 0.52903 0.08102
 C301 C 0.72166 0.41601 0.90232
 C302 C 0.69173 0.41823 0.90307
 C303 C 0.67649 0.40419 0.92342
 C304 C 0.69097 0.38755 0.94261
 C305 C 0.72088 0.38564 0.94095
 N306 N 0.73532 0.40002 0.92133
 C307 C 0.73874 0.43158 0.88205
 N308 N 0.76396 0.44353 0.88981
 C309 C 0.78051 0.45859 0.87229
 C310 C 0.77205 0.46187 0.84520
 C311 C 0.74660 0.44915 0.83649
 C312 C 0.72966 0.43421 0.85497
 H313 H 0.65342 0.40620 0.92407
 H314 H 0.73281 0.37321 0.95556
 H315 H 0.80022 0.46805 0.87949
 H316 H 0.73967 0.45126 0.81559
 H317 H 0.68033 0.43122 0.88853
 H318 H 0.70993 0.42454 0.84812
 C319 C 0.27828 0.58225 0.90232
 C320 C 0.27910 0.61196 0.90173
 C321 C 0.29418 0.62652 0.92181
 C322 C 0.30900 0.61147 0.94194
 C323 C 0.30812 0.58176 0.94149
 N324 N 0.29260 0.56805 0.92218
 C325 C 0.26119 0.56617 0.88253
 N326 N 0.24444 0.54451 0.89147
 C327 C 0.22800 0.52893 0.87431
 C328 C 0.22855 0.53425 0.84623
 C329 C 0.24561 0.55661 0.83665
 C330 C 0.26182 0.57275 0.85477
 H331 H 0.29440 0.64949 0.92157
 H332 H 0.31910 0.56950 0.95687
 H333 H 0.21450 0.51243 0.88262
 H334 H 0.24657 0.56140 0.81515
 H335 H 0.26754 0.62376 0.88637
 H336 H 0.27512 0.58979 0.84714
 C337 C 0.09871 0.27936 0.42346
 C338 C 0.07803 0.29623 0.43628
 C339 C 0.05891 0.31186 0.42054
 C340 C 0.06004 0.31027 0.39211
 C341 C 0.08112 0.29323 0.38006
 N342 N 0.09989 0.27859 0.39583
 C343 C 0.11927 0.26260 0.43943
 N344 N 0.14713 0.26151 0.43149
 C345 C 0.16711 0.24665 0.44564
 C346 C 0.15933 0.23153 0.46908
 C347 C 0.13046 0.23153 0.47693
 C348 C 0.11048 0.24740 0.46244
 H349 H 0.04290 0.32475 0.43057
 H350 H 0.08277 0.29167 0.35818
 H351 H 0.18911 0.24687 0.43875
 H352 H 0.12336 0.21924 0.49425
 H353 H 0.07688 0.29754 0.45822
 H354 H 0.08830 0.24733 0.46881
 C355 C 0.09468 0.72264 0.57717
 C356 C 0.07541 0.73719 0.59397
 C357 C 0.05608 0.72190 0.60980
 C358 C 0.05555 0.69220 0.60853
 C359 C 0.07515 0.67842 0.59142
 N360 N 0.09421 0.69377 0.57658
 C361 C 0.11572 0.73811 0.56052
 N362 N 0.14302 0.72819 0.55870
 C363 C 0.16347 0.74192 0.54408
 C364 C 0.15661 0.76670 0.52982
 C365 C 0.12859 0.77707 0.53104
 C366 C 0.10809 0.76292 0.54653
 H367 H 0.04127 0.73329 0.62274
 H368 H 0.07551 0.65551 0.59009
 H369 H 0.18497 0.73343 0.54339
 H370 H 0.12274 0.79618 0.52017
 H371 H 0.07561 0.76012 0.59517
 H372 H 0.08644 0.77106 0.54732
 C373 C 0.89728 0.71618 0.42794
 C374 C 0.89883 0.68649 0.42913
 C375 C 0.91943 0.67227 0.41370
 C376 C 0.93796 0.68760 0.39675
 C377 C 0.93560 0.71724 0.39611
 N378 N 0.91581 0.73062 0.41172
 C379 C 0.87645 0.73233 0.44422
 N380 N 0.88455 0.75767 0.45501
 C381 C 0.86629 0.77405 0.46965
 C382 C 0.83794 0.76539 0.47354
 C383 C 0.82889 0.73965 0.46228
 C384 C 0.84823 0.72282 0.44786
 H385 H 0.92066 0.64937 0.41475
 H386 H 0.94973 0.72981 0.38350
 H387 H 0.87376 0.79398 0.47795
 H388 H 0.80699 0.73260 0.46482
 H389 H 0.88466 0.67447 0.44219
 H390 H 0.84103 0.70303 0.43905
 C391 C 0.90809 0.27828 0.57085
 C392 C 0.92810 0.26362 0.58675
 C393 C 0.94736 0.27878 0.60272
 C394 C 0.94709 0.30852 0.60257
 C395 C 0.92687 0.32244 0.58624
 N396 N 0.90786 0.30716 0.57121
 C397 C 0.88689 0.26275 0.55438
 N398 N 0.85930 0.27203 0.55349
 C399 C 0.83862 0.25778 0.53962
 C400 C 0.84545 0.23298 0.52534
 C401 C 0.87379 0.22338 0.52551
 C402 C 0.89456 0.23813 0.54010
 H403 H 0.96263 0.26725 0.61504
 H404 H 0.92588 0.34536 0.58577
 H405 H 0.81690 0.26575 0.53972
 H406 H 0.87968 0.20429 0.51463
 H407 H 0.92846 0.24067 0.58726
 H408 H 0.91639 0.23047 0.54014
 C409 C 0.42151 0.09795 0.28069
 C410 C 0.43339 0.08833 0.30523
 C411 C 0.41905 0.06774 0.32035
 C412 C 0.39295 0.05660 0.31113
 C413 C 0.38176 0.06683 0.28656
 N414 N 0.39620 0.08680 0.27211
 C415 C 0.43643 0.11864 0.26304
 N416 N 0.43029 0.11883 0.23600
 C417 C 0.44390 0.13628 0.21822
 C418 C 0.46532 0.15473 0.22740
 C419 C 0.47123 0.15577 0.25529
 C420 C 0.45688 0.13778 0.27319
 H421 H 0.42858 0.06032 0.33910
 H422 H 0.36176 0.05877 0.27863
 H423 H 0.43864 0.13509 0.19684
 H424 H 0.48725 0.17024 0.26311
 H425 H 0.45389 0.09587 0.31241
 H426 H 0.46175 0.13904 0.29462
 C427 C 0.57639 0.09883 0.72632
 C428 C 0.60641 0.09917 0.72621
 C429 C 0.62125 0.08005 0.70980
 C430 C 0.60621 0.06110 0.69314
 C431 C 0.57620 0.06164 0.69365
 N432 N 0.56221 0.08002 0.71026
 C433 C 0.55988 0.11802 0.74396
 N434 N 0.53616 0.10804 0.75685
 C435 C 0.51999 0.12470 0.77335
 C436 C 0.52700 0.15341 0.77698
 C437 C 0.55139 0.16405 0.76385
 C438 C 0.56795 0.14642 0.74745
 H439 H 0.64442 0.08017 0.71000
 H440 H 0.56388 0.04708 0.68130
 H441 H 0.50174 0.11551 0.78362
 H442 H 0.55746 0.18609 0.76613
 H443 H 0.61824 0.11360 0.73911
 H444 H 0.58651 0.15502 0.73716
 C445 C 0.41905 0.90497 0.72799
 C446 C 0.39181 0.91514 0.73504
 C447 C 0.37774 0.93389 0.71774
 C448 C 0.39056 0.94248 0.69331
 C449 C 0.41748 0.93124 0.68663
 N450 N 0.43085 0.91304 0.70390
 C451 C 0.43533 0.88579 0.74606
 N452 N 0.45535 0.86822 0.73507
 C453 C 0.47152 0.85051 0.75054
 C454 C 0.46827 0.85020 0.77887
 C455 C 0.44778 0.86808 0.79062
 C456 C 0.43137 0.88595 0.77436
 H457 H 0.35687 0.94177 0.72360
 H458 H 0.42805 0.93711 0.66789
 H459 H 0.48702 0.83684 0.74078
 H460 H 0.44494 0.86862 0.81246
 H461 H 0.38125 0.90858 0.75356
 H462 H 0.41638 0.90021 0.78403
 C463 C 0.58420 0.90412 0.27254
 C464 C 0.61413 0.90344 0.27465
 C465 C 0.62803 0.92327 0.29108
 C466 C 0.61207 0.94317 0.30584
 C467 C 0.58217 0.94290 0.30341
 N468 N 0.56916 0.92387 0.28676
 C469 C 0.56869 0.88428 0.25478
 N470 N 0.54670 0.89411 0.23932
 C471 C 0.53122 0.87682 0.22285
 C472 C 0.53695 0.84759 0.22201
 C473 C 0.55969 0.83710 0.23769
 C474 C 0.57572 0.85540 0.25396
 H475 H 0.65116 0.92292 0.29242
 H476 H 0.56921 0.95819 0.31426
 H477 H 0.51443 0.88590 0.21049
 H478 H 0.56478 0.81470 0.23762
 H479 H 0.62662 0.88818 0.26327
 H480 H 0.59293 0.84698 0.26628
 C481 C 0.41610 0.27696 0.90529
 C482 C 0.41963 0.30649 0.90633
 C483 C 0.40534 0.32206 0.92624
 C484 C 0.38717 0.30833 0.94473
 C485 C 0.38401 0.27881 0.94283
 N486 N 0.39865 0.26400 0.92362
 C487 C 0.43173 0.25959 0.88531
 N488 N 0.44246 0.23401 0.89309
 C489 C 0.45757 0.21726 0.87579
 C490 C 0.46217 0.22593 0.84894
 C491 C 0.45073 0.25179 0.84024
 C492 C 0.43571 0.26887 0.85847
 H493 H 0.40836 0.34481 0.92710
 H494 H 0.37039 0.26746 0.95691
 H495 H 0.46601 0.19723 0.88296
 H496 H 0.45387 0.25890 0.81953
 H497 H 0.43379 0.31732 0.89235
 H498 H 0.42702 0.28890 0.85159
 C499 C 0.57987 0.71962 0.90036
 C500 C 0.56825 0.69407 0.91010
 C501 C 0.58285 0.67875 0.93000
 C502 C 0.60893 0.68879 0.94034
 C503 C 0.61980 0.71440 0.93008
 N504 N 0.60514 0.72899 0.91078
 C505 C 0.56478 0.73756 0.88027
 N506 N 0.57106 0.76575 0.87930
 C507 C 0.55724 0.78395 0.86240
 C508 C 0.53538 0.77405 0.84540
 C509 C 0.52937 0.74493 0.84511
 C510 C 0.54398 0.72660 0.86249
 H511 H 0.57357 0.65920 0.93746
 H512 H 0.63979 0.72299 0.93751
 H513 H 0.56256 0.80628 0.86300
 H514 H 0.51297 0.73652 0.83182
 H515 H 0.54778 0.68624 0.90313
 H516 H 0.53896 0.70423 0.86187
 C517 C 0.42187 0.72480 0.09557
 C518 C 0.39187 0.72495 0.09619
 C519 C 0.37667 0.70967 0.07668
 C520 C 0.39136 0.69378 0.05707
 C521 C 0.42137 0.69389 0.05739
 N522 N 0.43571 0.70952 0.07616
 C523 C 0.43871 0.74163 0.11501
 N524 N 0.46170 0.75659 0.10594
 C525 C 0.47797 0.77270 0.12282
 C526 C 0.47185 0.77375 0.15074
 C527 C 0.44826 0.75837 0.16046
 C528 C 0.43154 0.74243 0.14265
 H529 H 0.35350 0.71011 0.07698
 H530 H 0.43339 0.68211 0.04235
 H531 H 0.49551 0.78482 0.11439
 H532 H 0.44288 0.75860 0.18186
 H533 H 0.38034 0.73728 0.11118
 H534 H 0.41352 0.73049 0.15043
 C535 C 0.57536 0.27918 0.09860
 C536 C 0.56515 0.30537 0.08904
 C537 C 0.58060 0.32002 0.06925
 C538 C 0.60612 0.30869 0.05887
 C539 C 0.61563 0.28254 0.06904
 N540 N 0.60015 0.26860 0.08821
 C541 C 0.55930 0.26192 0.11854
 N542 N 0.56402 0.23344 0.11923
 C543 C 0.54963 0.21591 0.13634
 C544 C 0.52891 0.22687 0.15403
 C545 C 0.52429 0.25623 0.15437
 C546 C 0.53939 0.27384 0.13667
 H547 H 0.57236 0.34004 0.06185
 H548 H 0.63514 0.27296 0.06156
 H549 H 0.55388 0.19335 0.13568
 H550 H 0.50886 0.26545 0.16822
 H551 H 0.54512 0.31419 0.09606
 H552 H 0.53562 0.29645 0.13746
 C553 C 0.28602 0.09890 0.57204
 C554 C 0.31594 0.09678 0.57061
 C555 C 0.32993 0.07559 0.58533
 C556 C 0.31416 0.05695 0.60174
 C557 C 0.28429 0.05976 0.60250
 N558 N 0.27114 0.08021 0.58764
 C559 C 0.27009 0.12049 0.55662
 N560 N 0.24402 0.11357 0.54623
 C561 C 0.22791 0.13246 0.53215
 C562 C 0.23770 0.16022 0.52835
 C563 C 0.26415 0.16812 0.53931
 C564 C 0.28062 0.14817 0.55325
 H565 H 0.35302 0.07405 0.58423
 H566 H 0.27138 0.04560 0.61472
 H567 H 0.20744 0.12589 0.52400
 H568 H 0.27210 0.18953 0.53675
 H569 H 0.32832 0.11102 0.55797
 H570 H 0.30101 0.15445 0.56177
 C571 C 0.71632 0.09855 0.42631
 C572 C 0.69308 0.08392 0.43753
 C573 C 0.67807 0.06444 0.42158
 C574 C 0.68683 0.05887 0.39474
 C575 C 0.71034 0.07417 0.38442
 N576 N 0.72409 0.09352 0.40016
 C577 C 0.73283 0.11895 0.44245
 N578 N 0.73568 0.14609 0.43351
 C579 C 0.75156 0.16558 0.44719
 C580 C 0.76625 0.15793 0.47098
 C581 C 0.76420 0.12972 0.47998
 C582 C 0.74700 0.11035 0.46610
 H583 H 0.66015 0.05325 0.43052
 H584 H 0.71778 0.07095 0.36382
 H585 H 0.75279 0.18702 0.43943
 H586 H 0.77609 0.12258 0.49755
 H587 H 0.68655 0.08769 0.45834
 H588 H 0.74551 0.08866 0.47320
 C589 C 0.71558 0.90570 0.57385
 C590 C 0.68846 0.91511 0.56542
 C591 C 0.67402 0.93553 0.58072
 C592 C 0.68649 0.94671 0.60434
 C593 C 0.71373 0.93694 0.61190
 N594 N 0.72737 0.91708 0.59666
 C595 C 0.73214 0.88427 0.55845
 N596 N 0.76105 0.88319 0.56187
 C597 C 0.77779 0.86411 0.54860
 C598 C 0.76551 0.84457 0.53060
 C599 C 0.73573 0.84481 0.52719
 C600 C 0.71898 0.86460 0.54100
 H601 H 0.65316 0.94263 0.57399
 H602 H 0.72425 0.94508 0.62986
 H603 H 0.80069 0.86440 0.55188
 H604 H 0.72543 0.82947 0.51407
 H605 H 0.67860 0.90734 0.54700
 H606 H 0.69602 0.86396 0.53838
 C607 C 0.28493 0.89534 0.42417
 C608 C 0.31458 0.89863 0.42742
 C609 C 0.32897 0.91932 0.41243
 C610 C 0.31396 0.93647 0.39401
 C611 C 0.28436 0.93237 0.39127
 N612 N 0.27075 0.91239 0.40640
 C613 C 0.26849 0.87451 0.44021
 N614 N 0.24108 0.88082 0.44736
 C615 C 0.22464 0.86269 0.46209
 C616 C 0.23563 0.83641 0.47016
 C617 C 0.26349 0.82906 0.46251
 C618 C 0.28015 0.84819 0.44773
 H619 H 0.35181 0.92188 0.41522
 H620 H 0.27196 0.94533 0.37747
 H621 H 0.20301 0.86872 0.46743
 H622 H 0.27226 0.80860 0.46801
 H623 H 0.32642 0.88586 0.44182
 H624 H 0.30161 0.84220 0.44178
 C625 C 0.09575 0.42059 0.72787
 C626 C 0.08461 0.39440 0.73636
 C627 C 0.06618 0.37947 0.71930
 C628 C 0.05881 0.39043 0.69375
 C629 C 0.07085 0.41643 0.68578
 N630 N 0.08881 0.43060 0.70277
 C631 C 0.11520 0.43739 0.74529
 N632 N 0.13437 0.45527 0.73340
 C633 C 0.15293 0.47127 0.74815
 C634 C 0.15264 0.46998 0.77661
 C635 C 0.13299 0.45189 0.78931
 C636 C 0.11417 0.43566 0.77378
 H637 H 0.05759 0.35940 0.72623
 H638 H 0.06590 0.42557 0.66617
 H639 H 0.16817 0.48461 0.73766
 H640 H 0.13210 0.45052 0.81126
 H641 H 0.09028 0.38525 0.75577
 H642 H 0.09874 0.42236 0.78407
 C643 C 0.09342 0.58359 0.27249
 C644 C 0.08067 0.60888 0.26356
 C645 C 0.06118 0.62286 0.28031
 C646 C 0.05432 0.61182 0.30597
 C647 C 0.06791 0.58675 0.31434
 N648 N 0.08689 0.57351 0.29767
 C649 C 0.11407 0.56775 0.25548
 N650 N 0.13388 0.55097 0.26783
 C651 C 0.15334 0.53559 0.25355
 C652 C 0.15333 0.53630 0.22507
 C653 C 0.13313 0.55338 0.21188
 C654 C 0.11341 0.56904 0.22695
 H655 H 0.05139 0.64225 0.27308
 H656 H 0.06342 0.57758 0.33404
 H657 H 0.16896 0.52305 0.26443
 H658 H 0.13240 0.55427 0.18990
 H659 H 0.08590 0.61809 0.24405
 H660 H 0.09754 0.58146 0.21629
 C661 C 0.90264 0.41875 0.27466
 C662 C 0.90258 0.38901 0.27500
 C663 C 0.92302 0.37463 0.29039
 C664 C 0.94296 0.38986 0.30588
 C665 C 0.94202 0.41958 0.30529
 N666 N 0.92240 0.43313 0.28959
 C667 C 0.88238 0.43475 0.25768
 N668 N 0.89201 0.45742 0.24326
 C669 C 0.87448 0.47298 0.22706
 C670 C 0.84520 0.46647 0.22533
 C671 C 0.83488 0.44316 0.24012
 C672 C 0.85342 0.42714 0.25617
 H673 H 0.92315 0.35166 0.29035
 H674 H 0.95727 0.43201 0.31678
 H675 H 0.88347 0.49030 0.21545
 H676 H 0.81244 0.43747 0.23938
 H677 H 0.88736 0.37707 0.26299
 H678 H 0.84516 0.40935 0.26765
 C679 C 0.90256 0.57809 0.72727
 C680 C 0.91184 0.60509 0.73544
 C681 C 0.93077 0.62021 0.71909
 C682 C 0.94048 0.60868 0.69448
 C683 C 0.93005 0.58197 0.68661
 N684 N 0.91162 0.56754 0.70298
 C685 C 0.88331 0.56085 0.74451
 N686 N 0.86546 0.54162 0.73268
 C687 C 0.84736 0.52509 0.74748
 C688 C 0.84686 0.52723 0.77591
 C689 C 0.86521 0.54671 0.78848
 C690 C 0.88350 0.56343 0.77294
 H691 H 0.93797 0.64087 0.72586
 H692 H 0.93679 0.57239 0.66769
 H693 H 0.83336 0.51037 0.73709
 H694 H 0.86564 0.54868 0.81041
 H695 H 0.90444 0.61464 0.75414
 H696 H 0.89799 0.57776 0.78321
 C697 C 0.72107 0.57144 0.90368
 C698 C 0.69425 0.56201 0.91281
 C699 C 0.67927 0.57790 0.93199
 C700 C 0.69083 0.60325 0.94233
 C701 C 0.71783 0.61186 0.93269
 N702 N 0.73206 0.59591 0.91403
 C703 C 0.73814 0.55508 0.88375
 N704 N 0.76711 0.55824 0.88351
 C705 C 0.78420 0.54374 0.86598
 C706 C 0.77223 0.52470 0.84729
 C707 C 0.74242 0.52164 0.84667
 C708 C 0.72531 0.53670 0.86485
 H709 H 0.65868 0.57011 0.93883
 H710 H 0.72781 0.63110 0.94005
 H711 H 0.80714 0.54685 0.86681
 H712 H 0.73237 0.50787 0.83188
 H713 H 0.68510 0.54226 0.90580
 H714 H 0.70233 0.53431 0.86364
 C715 C 0.27913 0.42544 0.90517
 C716 C 0.30524 0.43563 0.91540
 C717 C 0.31951 0.42043 0.93563
 C718 C 0.30791 0.39503 0.94584
 C719 C 0.28164 0.38572 0.93508
 N720 N 0.26813 0.40098 0.91548
 C721 C 0.26250 0.44103 0.88434
 N722 N 0.23375 0.43662 0.88285
 C723 C 0.21682 0.45053 0.86479
 C724 C 0.22870 0.47041 0.84686
 C725 C 0.25841 0.47462 0.84732
 C726 C 0.27537 0.46006 0.86604
 H727 H 0.33956 0.42871 0.94329
 H728 H 0.27166 0.36639 0.94224
 H729 H 0.19400 0.44660 0.86491
 H730 H 0.26839 0.48936 0.83335
 H731 H 0.31436 0.45541 0.90843
 H732 H 0.29824 0.46353 0.86587
 C733 C 0.27848 0.57885 0.09448
 C734 C 0.30501 0.56886 0.08515
 C735 C 0.31982 0.58401 0.06530
 C736 C 0.30836 0.60919 0.05452
 C737 C 0.28152 0.61823 0.06419
 N738 N 0.26748 0.60301 0.08353
 C739 C 0.26186 0.56348 0.11544
 N740 N 0.23287 0.56640 0.11603
 C741 C 0.21624 0.55264 0.13450
 C742 C 0.22876 0.53466 0.15382
 C743 C 0.25861 0.53202 0.15413
 C744 C 0.27523 0.54629 0.13499
 H745 H 0.34026 0.57589 0.05844
 H746 H 0.27161 0.63734 0.05646
 H747 H 0.19326 0.55539 0.13384
 H748 H 0.26907 0.51906 0.16932
 H749 H 0.31411 0.54928 0.09265
 H750 H 0.29825 0.54421 0.13591
 C751 C 0.71901 0.42198 0.09571
 C752 C 0.69347 0.43296 0.08494
 C753 C 0.67877 0.41779 0.06497
 C754 C 0.68941 0.39169 0.05551
 C755 C 0.71518 0.38164 0.06674
 N756 N 0.72908 0.39684 0.08611
 C757 C 0.73608 0.43733 0.11637
 N758 N 0.76447 0.43121 0.11867
 C759 C 0.78186 0.44482 0.13654
 C760 C 0.77088 0.46621 0.15333
 C761 C 0.74152 0.47216 0.15212
 C762 C 0.72405 0.45784 0.13366
 H763 H 0.65914 0.42663 0.05689
 H764 H 0.72442 0.36174 0.06016
 H765 H 0.80440 0.43956 0.13704
 H766 H 0.73225 0.48819 0.16519
 H767 H 0.68511 0.45328 0.09130
 H768 H 0.70146 0.46274 0.13322
 C769 C 0.89786 0.71780 0.57939
 C770 C 0.90753 0.69115 0.57061
 C771 C 0.92804 0.67664 0.58581
 C772 C 0.93909 0.68852 0.60984
 C773 C 0.92874 0.71527 0.61788
 N774 N 0.90889 0.72905 0.60260
 C775 C 0.87683 0.73454 0.56359
 N776 N 0.87693 0.76333 0.56593
 C777 C 0.85865 0.78013 0.55168
 C778 C 0.83881 0.76803 0.53374
 C779 C 0.83767 0.73841 0.53166
 C780 C 0.85665 0.72159 0.54644
 H781 H 0.93536 0.65621 0.57854
 H782 H 0.93658 0.72547 0.63612
 H783 H 0.85993 0.80292 0.55401
 H784 H 0.82197 0.72829 0.51872
 H785 H 0.89998 0.68180 0.55187
 H786 H 0.85513 0.69878 0.54472
 C787 C 0.90478 0.27407 0.41607
 C788 C 0.91632 0.26355 0.39173
 C789 C 0.93607 0.27978 0.37727
 C790 C 0.94438 0.30669 0.38675
 C791 C 0.93177 0.31670 0.41088
 N792 N 0.91264 0.30039 0.42466
 C793 C 0.88405 0.25763 0.43255
 N794 N 0.86674 0.27173 0.45026
 C795 C 0.84738 0.25815 0.46626
 C796 C 0.84476 0.22855 0.46512
 C797 C 0.86240 0.21353 0.44718
 C798 C 0.88215 0.22790 0.43099
 H799 H 0.94483 0.27113 0.35865
 H800 H 0.93722 0.33734 0.41901
 H801 H 0.83393 0.27046 0.47972
 H802 H 0.86117 0.19062 0.44602
 H803 H 0.91001 0.24319 0.38359
 H804 H 0.89605 0.21567 0.41793
 C805 C 0.10630 0.28694 0.57548
 C806 C 0.09524 0.31301 0.56650
 C807 C 0.07422 0.32673 0.58181
 C808 C 0.06394 0.31457 0.60604
 C809 C 0.07580 0.28856 0.61434
 N810 N 0.09615 0.27562 0.59902
 C811 C 0.12748 0.27041 0.55958
 N812 N 0.13017 0.24221 0.56495
 C813 C 0.14833 0.22516 0.55093
 C814 C 0.16508 0.23627 0.52985
 C815 C 0.16343 0.26539 0.52439
 C816 C 0.14468 0.28256 0.53918
 H817 H 0.06576 0.34665 0.57438
 H818 H 0.06872 0.27823 0.63279
 H819 H 0.14914 0.20278 0.55578
 H820 H 0.17646 0.27475 0.50855
 H821 H 0.10197 0.32250 0.54757
 H822 H 0.14398 0.30498 0.53469
 C823 C 0.09643 0.71958 0.42193
 C824 C 0.08431 0.73207 0.39877
 C825 C 0.06389 0.71723 0.38377
 C826 C 0.05516 0.68995 0.39186
 C827 C 0.06795 0.67820 0.41517
 N828 N 0.08794 0.69306 0.42932
 C829 C 0.11792 0.73499 0.43844
 N830 N 0.12210 0.76327 0.43440
 C831 C 0.14129 0.77854 0.44909
 C832 C 0.15773 0.76537 0.46930
 C833 C 0.15410 0.73619 0.47360
 C834 C 0.13408 0.72099 0.45839
 H835 H 0.05479 0.72732 0.36599
 H836 H 0.06211 0.65725 0.42226
 H837 H 0.14351 0.80102 0.44517
 H838 H 0.16692 0.72513 0.48853
 H839 H 0.09059 0.75309 0.39221
 H840 H 0.13152 0.69848 0.46203
 C841 C 0.57692 0.90959 0.72566
 C842 C 0.56160 0.92883 0.70955
 C843 C 0.57638 0.94716 0.69233
 C844 C 0.60637 0.94675 0.69158
 C845 C 0.62091 0.92705 0.70790
 N846 N 0.60600 0.90897 0.72416
 C847 C 0.56184 0.89023 0.74425
 N848 N 0.56909 0.86229 0.74495
 C849 C 0.55513 0.84340 0.76111
 C850 C 0.53260 0.85242 0.77792
 C851 C 0.52578 0.88140 0.77834
 C852 C 0.53999 0.90025 0.76121
 H853 H 0.56442 0.96214 0.68013
 H854 H 0.64405 0.92603 0.70770
 H855 H 0.56128 0.82128 0.76047
 H856 H 0.50933 0.88943 0.79177
 H857 H 0.53845 0.92953 0.71018
 H858 H 0.53423 0.92249 0.76144
 C859 C 0.42239 0.90238 0.27244
 C860 C 0.39495 0.91186 0.26517
 C861 C 0.38031 0.93044 0.28223
 C862 C 0.39274 0.93957 0.30666
 C863 C 0.41986 0.92896 0.31360
 N864 N 0.43380 0.91091 0.29656
 C865 C 0.43920 0.88344 0.25452
 N866 N 0.45928 0.86599 0.26562
 C867 C 0.47556 0.84824 0.25023
 C868 C 0.47225 0.84768 0.22190
 C869 C 0.45188 0.86561 0.21006
 C870 C 0.43544 0.88356 0.22620
 H871 H 0.35931 0.93781 0.27617
 H872 H 0.43015 0.93526 0.33234
 H873 H 0.49099 0.83456 0.26007
 H874 H 0.44899 0.86596 0.18823
 H875 H 0.38468 0.90489 0.24665
 H876 H 0.42043 0.89774 0.21645
 C877 C 0.57570 0.09408 0.27466
 C878 C 0.56121 0.07513 0.29178
 C879 C 0.57684 0.05721 0.30871
 C880 C 0.60684 0.05775 0.30821
 C881 C 0.62053 0.07715 0.29092
 N882 N 0.60482 0.09482 0.27494
 C883 C 0.55975 0.11312 0.25641
 N884 N 0.56763 0.14082 0.25426
 C885 C 0.55304 0.15948 0.23837
 C886 C 0.52915 0.15046 0.22335
 C887 C 0.52160 0.12167 0.22438
 C888 C 0.53651 0.10307 0.24120
 H889 H 0.56549 0.04247 0.32170
 H890 H 0.64365 0.07828 0.29014
 H891 H 0.55976 0.18144 0.23787
 H892 H 0.50400 0.11362 0.21234
 H893 H 0.53805 0.07437 0.29219
 H894 H 0.53020 0.08099 0.24207
 C895 C 0.41939 0.10163 0.71820
 C896 C 0.43162 0.09186 0.69386
 C897 C 0.41757 0.07106 0.67873
 C898 C 0.39138 0.05987 0.68771
 C899 C 0.37979 0.07033 0.71203
 N900 N 0.39397 0.09046 0.72651
 C901 C 0.43412 0.12230 0.73605
 N902 N 0.42747 0.12255 0.76298
 C903 C 0.44096 0.13977 0.78102
 C904 C 0.46285 0.15793 0.77230
 C905 C 0.46930 0.15900 0.74451
 C906 C 0.45502 0.14122 0.72631
 H907 H 0.42740 0.06351 0.66016
 H908 H 0.35969 0.06227 0.71977
 H909 H 0.43526 0.13857 0.80231
 H910 H 0.48570 0.17323 0.73703
 H911 H 0.45219 0.09941 0.68686
 H912 H 0.46036 0.14243 0.70497
 C913 C 0.57995 0.71850 0.09538
 C914 C 0.56900 0.69246 0.08619
 C915 C 0.58349 0.67751 0.06595
 C916 C 0.60881 0.68840 0.05469
 C917 C 0.61898 0.71453 0.06436
 N918 N 0.60445 0.72874 0.08404
 C919 C 0.56499 0.73591 0.11606
 N920 N 0.57035 0.76429 0.11693
 C921 C 0.55677 0.78194 0.13454
 C922 C 0.53615 0.77126 0.15252
 C923 C 0.53102 0.74197 0.15278
 C924 C 0.54536 0.72422 0.13462
 H925 H 0.57473 0.65753 0.05899
 H926 H 0.63837 0.72378 0.05621
 H927 H 0.56141 0.80442 0.13392
 H928 H 0.51565 0.73295 0.16680
 H929 H 0.54914 0.68389 0.09391
 H930 H 0.54111 0.70170 0.13534
 C931 C 0.41639 0.27495 0.09641
 C932 C 0.38640 0.27617 0.09700
 C933 C 0.37193 0.29199 0.07736
 C934 C 0.38732 0.30707 0.05762
 C935 C 0.41730 0.30552 0.05792
 N936 N 0.43090 0.28941 0.07684
 C937 C 0.43246 0.25772 0.11617
 N938 N 0.45504 0.24196 0.10744
 C939 C 0.47075 0.22565 0.12463
 C940 C 0.46456 0.22524 0.15257
 C941 C 0.44130 0.24135 0.16193
 C942 C 0.42511 0.25746 0.14379
 H943 H 0.34877 0.29268 0.07775
 H944 H 0.42987 0.31665 0.04282
 H945 H 0.48800 0.21296 0.11645
 H946 H 0.43586 0.24168 0.18331
 H947 H 0.37430 0.26455 0.11210
 H948 H 0.40744 0.27004 0.15133
 C949 C 0.57566 0.26824 0.91069
 C950 C 0.60156 0.25812 0.92144
 C951 C 0.61702 0.27491 0.93957
 C952 C 0.60689 0.30182 0.94701
 C953 C 0.58114 0.31135 0.93548
 N954 N 0.56646 0.29461 0.91783
 C955 C 0.55843 0.25138 0.89128
 N956 N 0.54070 0.26514 0.87372
 C957 C 0.52448 0.25113 0.85513
 C958 C 0.52546 0.22145 0.85357
 C959 C 0.54328 0.20679 0.87162
 C960 C 0.55966 0.22160 0.89058
 H961 H 0.63687 0.26677 0.94779
 H962 H 0.57262 0.33203 0.94052
 H963 H 0.51129 0.26317 0.84124
 H964 H 0.54439 0.18385 0.87108
 H965 H 0.61016 0.23771 0.91567
 H966 H 0.57277 0.20974 0.90466
 C967 C 0.42566 0.72840 0.90957
 C968 C 0.43991 0.71074 0.92805
 C969 C 0.42403 0.69424 0.94609
 C970 C 0.39407 0.69579 0.94610
 C971 C 0.38063 0.71374 0.92730
 N972 N 0.39654 0.72918 0.90950
 C973 C 0.44176 0.74593 0.89010
 N974 N 0.43293 0.74742 0.86381
 C975 C 0.44726 0.76291 0.84488
 C976 C 0.47182 0.77831 0.85216
 C977 C 0.48054 0.77788 0.87944
 C978 C 0.46588 0.76134 0.89834
 H979 H 0.43516 0.68066 0.96035
 H980 H 0.35753 0.71528 0.92659
 H981 H 0.43966 0.76295 0.82411
 H982 H 0.49869 0.79032 0.88613
 H983 H 0.46305 0.70946 0.92829
 H984 H 0.47298 0.76102 0.91929
 C985 C 0.71820 0.90037 0.42286
 C986 C 0.68819 0.90084 0.42265
 C987 C 0.67395 0.92173 0.40782
 C988 C 0.68953 0.94179 0.39283
 C989 C 0.71951 0.94043 0.39338
 N990 N 0.73293 0.92024 0.40845
 C991 C 0.73414 0.87938 0.43913
 N992 N 0.75849 0.88758 0.45210
 C993 C 0.77401 0.86940 0.46764
 C994 C 0.76541 0.84109 0.47037
 C995 C 0.74081 0.83193 0.45675
 C996 C 0.72489 0.85112 0.44131
 H997 H 0.65078 0.92210 0.40793
 H998 H 0.73227 0.95569 0.38229
 H999 H 0.79312 0.87696 0.47775
 H1000 H 0.73380 0.81010 0.45837
 H1001 H 0.67588 0.88565 0.43431
 H1002 H 0.70588 0.84385 0.43084
 C1003 C 0.28540 0.89655 0.57486
 C1004 C 0.31334 0.90453 0.56757
 C1005 C 0.32747 0.92546 0.58250
 C1006 C 0.31392 0.93851 0.60467
 C1007 C 0.28599 0.92994 0.61126
 N1008 N 0.27262 0.90963 0.59633
 C1009 C 0.26892 0.87514 0.55934
 N1010 N 0.23981 0.87601 0.56036
 C1011 C 0.22311 0.85738 0.54648
 C1012 C 0.23566 0.83632 0.53032
 C1013 C 0.26554 0.83442 0.52952
 C1014 C 0.28228 0.85381 0.54392
 H1015 H 0.34893 0.93155 0.57657
 H1016 H 0.27465 0.93952 0.62808
 H1017 H 0.20007 0.85924 0.54774
 H1018 H 0.27589 0.81782 0.51795
 H1019 H 0.32403 0.89533 0.55019
 H1020 H 0.30531 0.85169 0.54328
 C1021 C 0.28538 0.09692 0.42557
 C1022 C 0.31260 0.08768 0.43389
 C1023 C 0.32671 0.06669 0.41902
 C1024 C 0.31380 0.05482 0.39593
 C1025 C 0.28646 0.06443 0.38850
 N1026 N 0.27313 0.08482 0.40333
 C1027 C 0.26914 0.11883 0.44061
 N1028 N 0.24010 0.11937 0.43825
 C1029 C 0.22363 0.13865 0.45155
 C1030 C 0.23635 0.15892 0.46848
 C1031 C 0.26625 0.15938 0.47060
 C1032 C 0.28273 0.13937 0.45679
 H1033 H 0.34768 0.05977 0.42560
 H1034 H 0.27560 0.05576 0.37095
 H1035 H 0.20060 0.13782 0.44931
 H1036 H 0.27682 0.17527 0.48290
 H1037 H 0.32278 0.09608 0.45191
 H1038 H 0.30577 0.14039 0.45848
 C1039 C 0.71248 0.10845 0.57725
 C1040 C 0.68593 0.09811 0.56818
 C1041 C 0.67201 0.07689 0.58292
 C1042 C 0.68443 0.06579 0.60661
 C1043 C 0.71089 0.07679 0.61503
 N1044 N 0.72407 0.09736 0.60029
 C1045 C 0.72930 0.12968 0.56177
 N1046 N 0.75794 0.13147 0.56656
 C1047 C 0.77533 0.14917 0.55239
 C1048 C 0.76414 0.16621 0.53164
 C1049 C 0.73455 0.16575 0.52705
 C1050 C 0.71702 0.14754 0.54205
 H1051 H 0.65169 0.06893 0.57558
 H1052 H 0.72129 0.06888 0.63315
 H1053 H 0.79807 0.14908 0.55659
 H1054 H 0.72516 0.17901 0.51146
 H1055 H 0.67623 0.10556 0.54957
 H1056 H 0.69428 0.14757 0.53808
 C1057 C 0.89696 0.57703 0.28062
 C1058 C 0.90620 0.56642 0.30580
 C1059 C 0.92602 0.58179 0.32105
 C1060 C 0.93672 0.60770 0.31136
 C1061 C 0.92676 0.61768 0.28622
 N1062 N 0.90761 0.60222 0.27163
 C1063 C 0.87727 0.56093 0.26279
 N1064 N 0.87806 0.56589 0.23554
 C1065 C 0.86142 0.55138 0.21768
 C1066 C 0.84269 0.53027 0.22696
 C1067 C 0.84076 0.52541 0.25500
 C1068 C 0.85802 0.54062 0.27298
 H1069 H 0.93325 0.57318 0.34026
 H1070 H 0.93452 0.63749 0.27790
 H1071 H 0.86333 0.55585 0.19618
 H1072 H 0.82604 0.50971 0.26292
 H1073 H 0.89901 0.54610 0.31337
 H1074 H 0.85602 0.53662 0.29453
 C1075 C 0.90250 0.41573 0.72243
 C1076 C 0.90136 0.38608 0.72022
 C1077 C 0.92165 0.37198 0.70433
 C1078 C 0.94247 0.38749 0.69017
 C1079 C 0.94255 0.41713 0.69261
 N1080 N 0.92309 0.43031 0.70876
 C1081 C 0.88245 0.43141 0.73995
 N1082 N 0.89259 0.45281 0.75580
 C1083 C 0.87525 0.46823 0.77231
 C1084 C 0.84565 0.46304 0.77286
 C1085 C 0.83482 0.44099 0.75667
 C1086 C 0.85316 0.42502 0.74034
 H1087 H 0.92101 0.34907 0.70299
 H1088 H 0.95852 0.42975 0.68222
 H1089 H 0.88463 0.48442 0.78508
 H1090 H 0.81214 0.43628 0.75653
 H1091 H 0.88544 0.37394 0.73120
 H1092 H 0.84450 0.40827 0.72773
 C1093 C 0.09843 0.58017 0.72336
 C1094 C 0.09741 0.57649 0.69509
 C1095 C 0.07711 0.59130 0.67990
 C1096 C 0.05823 0.61015 0.69273
 C1097 C 0.06022 0.61351 0.72100
 N1098 N 0.07975 0.59837 0.73546
 C1099 C 0.11865 0.56395 0.74036
 N1100 N 0.10989 0.55425 0.76506
 C1101 C 0.12735 0.53890 0.78155
 C1102 C 0.15546 0.53295 0.77353
 C1103 C 0.16522 0.54326 0.74854
 C1104 C 0.14676 0.55852 0.73170
 H1105 H 0.07617 0.58805 0.65813
 H1106 H 0.04582 0.62763 0.73167
 H1107 H 0.11937 0.53144 0.80093
 H1108 H 0.18697 0.53922 0.74200
 H1109 H 0.11162 0.56177 0.68494
 H1110 H 0.15451 0.56639 0.71239
 C1111 C 0.10082 0.42599 0.27986
 C1112 C 0.09950 0.42877 0.30823
 C1113 C 0.07928 0.41312 0.32283
 C1114 C 0.06087 0.39438 0.30926
 C1115 C 0.06309 0.39208 0.28091
 N1116 N 0.08250 0.40796 0.26709
 C1117 C 0.12102 0.44277 0.26336
 N1118 N 0.11242 0.45246 0.23862
 C1119 C 0.12995 0.46782 0.22223
 C1120 C 0.15804 0.47369 0.23032
 C1121 C 0.16764 0.46349 0.25542
 C1122 C 0.14905 0.44827 0.27220
 H1123 H 0.07815 0.41553 0.34468
 H1124 H 0.04905 0.37807 0.26969
 H1125 H 0.12208 0.47524 0.20281
 H1126 H 0.18936 0.46755 0.26204
 H1127 H 0.11345 0.44332 0.31891
 H1128 H 0.15668 0.44037 0.29153
   
