data_POSCAR
  _audit_creation_date              2014-09-24
  _audit_creation_method            'ToBaCCo'
  _symmetry_space_group_name_H-M    'P1'
  _symmetry_Int_Tables_number       1
  _symmetry_cell_setting            triclinic
  loop_
  _symmetry_equiv_pos_as_xyz
 x,y,z
_cell_length_a 20.4994
_cell_length_b 36.1898
_cell_length_c 26.7945
_cell_angle_alpha 90.000000
_cell_angle_beta 90.000000
_cell_angle_gamma 90.000000
loop_
  _atom_site_label
  _atom_site_type_symbol
  _atom_site_fract_x
  _atom_site_fract_y
  _atom_site_fract_z
B1 B -0.04040 -0.03374 0.01998
 B2 B 0.03806 -0.02788 0.03441
 B3 B 0.01651 -0.03854 -0.02388
 B4 B -0.05444 -0.01733 -0.03780
 B5 B -0.07623 0.00755 0.01391
 B6 B -0.01839 0.00044 0.05896
 B7 B 0.04039 0.03383 -0.01987
 B8 B -0.03807 0.02797 -0.03430
 B9 B -0.01652 0.03863 0.02398
 B10 B 0.05443 0.01742 0.03791
 B11 B 0.07622 -0.00746 -0.01381
 B12 B 0.01838 -0.00035 -0.05886
 B13 B 0.52673 0.48362 0.55055
 B14 B 0.44813 0.48073 0.53469
 B15 B 0.48066 0.52166 0.54915
 B16 B 0.55806 0.52314 0.52771
 B17 B 0.57262 0.48185 0.49875
 B18 B 0.50380 0.45550 0.50377
 B19 B 0.47327 0.51647 0.44956
 B20 B 0.55186 0.51936 0.46542
 B21 B 0.51933 0.47843 0.45095
 B22 B 0.44193 0.47695 0.47240
 B23 B 0.42737 0.51824 0.50136
 B24 B 0.49619 0.54459 0.49634
 B25 B 0.54039 0.03383 0.51998
 B26 B 0.46193 0.02797 0.53441
 B27 B 0.48348 0.03863 0.47612
 B28 B 0.55443 0.01742 0.46220
 B29 B 0.57622 -0.00746 0.51391
 B30 B 0.51838 -0.00035 0.55896
 B31 B 0.45960 -0.03374 0.48013
 B32 B 0.53806 -0.02788 0.46570
 B33 B 0.51651 -0.03854 0.52398
 B34 B 0.44556 -0.01733 0.53791
 B35 B 0.42377 0.00755 0.48619
 B36 B 0.48161 0.00044 0.44114
 B37 B -0.02673 0.51647 0.05055
 B38 B 0.05186 0.51936 0.03469
 B39 B 0.01933 0.47843 0.04915
 B40 B -0.05807 0.47695 0.02771
 B41 B -0.07263 0.51824 -0.00125
 B42 B -0.00381 0.54459 0.00377
 B43 B 0.02673 0.48362 -0.05044
 B44 B -0.05187 0.48073 -0.03458
 B45 B -0.01934 0.52166 -0.04905
 B46 B 0.05806 0.52314 -0.02760
 B47 B 0.07262 0.48185 0.00136
 B48 B 0.00380 0.45550 -0.00366
 B49 B 0.04039 0.46626 0.48013
 B50 B -0.03807 0.47212 0.46570
 B51 B -0.01652 0.46146 0.52398
 B52 B 0.05443 0.48267 0.53791
 B53 B 0.07622 0.50755 0.48619
 B54 B 0.01838 0.50044 0.44114
 B55 B -0.04040 0.53383 0.51998
 B56 B 0.03806 0.52797 0.53441
 B57 B 0.01651 0.53863 0.47612
 B58 B -0.05444 0.51742 0.46220
 B59 B -0.07623 0.49254 0.51391
 B60 B -0.01839 0.49965 0.55896
 B61 B 0.47327 -0.01638 -0.05044
 B62 B 0.55186 -0.01927 -0.03458
 B63 B 0.51933 0.02166 -0.04905
 B64 B 0.44193 0.02314 -0.02760
 B65 B 0.42737 -0.01815 0.00136
 B66 B 0.49619 -0.04450 -0.00366
 B67 B 0.52672 0.01647 0.05055
 B68 B 0.44813 0.01936 0.03469
 B69 B 0.48066 -0.02157 0.04915
 B70 B 0.55806 -0.02305 0.02771
 B71 B 0.57262 0.01824 -0.00125
 B72 B 0.50380 0.04459 0.00377
 B73 B 0.45960 0.53383 -0.01987
 B74 B 0.53806 0.52797 -0.03430
 B75 B 0.51651 0.53863 0.02398
 B76 B 0.44556 0.51742 0.03791
 B77 B 0.42377 0.49254 -0.01381
 B78 B 0.48161 0.49965 -0.05886
 B79 B 0.54039 0.46626 0.01998
 B80 B 0.46193 0.47212 0.03441
 B81 B 0.48348 0.46146 -0.02388
 B82 B 0.55443 0.48267 -0.03780
 B83 B 0.57622 0.50755 0.01391
 B84 B 0.51838 0.50044 0.05896
 B85 B 0.02673 0.01647 0.44956
 B86 B -0.05187 0.01936 0.46542
 B87 B -0.01934 -0.02157 0.45095
 B88 B 0.05806 -0.02305 0.47240
 B89 B 0.07262 0.01824 0.50136
 B90 B 0.00380 0.04459 0.49634
 B91 B -0.02673 -0.01638 0.55055
 B92 B 0.05186 -0.01927 0.53469
 B93 B 0.01933 0.02166 0.54915
 B94 B -0.05807 0.02314 0.52771
 B95 B -0.07263 -0.01815 0.49875
 B96 B -0.00381 -0.04450 0.50377
 B97 B 0.77128 0.28238 0.27130
 B98 B 0.69169 0.27515 0.27930
 B99 B 0.72134 0.28165 0.22219
 B100 B 0.79539 0.26218 0.21783
 B101 B 0.81124 0.24209 0.27443
 B102 B 0.74623 0.25062 0.31305
 B103 B 0.70298 0.20932 0.23486
 B104 B 0.78248 0.21702 0.22634
 B105 B 0.75307 0.20989 0.28356
 B106 B 0.67863 0.22974 0.28834
 B107 B 0.66293 0.24961 0.23157
 B108 B 0.72779 0.24107 0.19310
 B109 B 0.74692 0.79020 0.78356
 B110 B 0.71751 0.78307 0.72634
 B111 B 0.79701 0.79077 0.73486
 B112 B 0.82136 0.77035 0.78834
 B113 B 0.75376 0.74947 0.81305
 B114 B 0.68875 0.75800 0.77443
 B115 B 0.77865 0.71844 0.72219
 B116 B 0.80830 0.72494 0.77930
 B117 B 0.72871 0.71771 0.77130
 B118 B 0.70460 0.73791 0.71783
 B119 B 0.77220 0.75902 0.69310
 B120 B 0.83706 0.75048 0.73157
 B121 B 0.27128 0.21771 0.72881
 B122 B 0.19169 0.22494 0.72081
 B123 B 0.22134 0.21844 0.77792
 B124 B 0.29539 0.23791 0.78227
 B125 B 0.31124 0.25800 0.72568
 B126 B 0.24623 0.24947 0.68705
 B127 B 0.20298 0.29077 0.76524
 B128 B 0.28248 0.28307 0.77376
 B129 B 0.25307 0.29020 0.71654
 B130 B 0.17863 0.27035 0.71177
 B131 B 0.16293 0.25048 0.76853
 B132 B 0.22779 0.25902 0.80701
 B133 B 0.22871 0.78238 0.22881
 B134 B 0.30830 0.77515 0.22081
 B135 B 0.27865 0.78165 0.27792
 B136 B 0.20460 0.76218 0.28227
 B137 B 0.18875 0.74209 0.22568
 B138 B 0.25376 0.75062 0.18705
 B139 B 0.29701 0.70932 0.26524
 B140 B 0.21751 0.71702 0.27376
 B141 B 0.24692 0.70989 0.21654
 B142 B 0.32136 0.72974 0.21177
 B143 B 0.33706 0.74961 0.26853
 B144 B 0.27220 0.74107 0.30701
 B145 B 0.27865 0.71844 0.77792
 B146 B 0.30830 0.72494 0.72081
 B147 B 0.22871 0.71771 0.72881
 B148 B 0.20460 0.73791 0.78227
 B149 B 0.27220 0.75902 0.80701
 B150 B 0.33706 0.75048 0.76853
 B151 B 0.24692 0.79020 0.71654
 B152 B 0.21751 0.78307 0.77376
 B153 B 0.29701 0.79077 0.76524
 B154 B 0.32136 0.77035 0.71177
 B155 B 0.25376 0.74947 0.68705
 B156 B 0.18875 0.75800 0.72568
 B157 B 0.20298 0.20932 0.26524
 B158 B 0.28248 0.21702 0.27376
 B159 B 0.25307 0.20989 0.21654
 B160 B 0.17863 0.22974 0.21177
 B161 B 0.16293 0.24961 0.26853
 B162 B 0.22779 0.24107 0.30701
 B163 B 0.27128 0.28238 0.22881
 B164 B 0.19169 0.27515 0.22081
 B165 B 0.22134 0.28165 0.27792
 B166 B 0.29539 0.26218 0.28227
 B167 B 0.31124 0.24209 0.22568
 B168 B 0.24623 0.25062 0.18705
 B169 B 0.79701 0.70932 0.23486
 B170 B 0.71751 0.71702 0.22634
 B171 B 0.74692 0.70989 0.28356
 B172 B 0.82136 0.72974 0.28834
 B173 B 0.83706 0.74961 0.23157
 B174 B 0.77220 0.74107 0.19310
 B175 B 0.72871 0.78238 0.27130
 B176 B 0.80830 0.77515 0.27930
 B177 B 0.77865 0.78165 0.22219
 B178 B 0.70460 0.76218 0.21783
 B179 B 0.68875 0.74209 0.27443
 B180 B 0.75376 0.75062 0.31305
 B181 B 0.72134 0.21844 0.72219
 B182 B 0.69169 0.22494 0.77930
 B183 B 0.77128 0.21771 0.77130
 B184 B 0.79539 0.23791 0.71783
 B185 B 0.72779 0.25902 0.69310
 B186 B 0.66293 0.25048 0.73157
 B187 B 0.75307 0.29020 0.78356
 B188 B 0.78248 0.28307 0.72634
 B189 B 0.70298 0.29077 0.73486
 B190 B 0.67863 0.27035 0.78834
 B191 B 0.74623 0.24947 0.81305
 B192 B 0.81124 0.25800 0.77443
 C193 C 0.05281 0.46378 0.90292
 C194 C 0.07424 0.44265 0.87225
 C195 C 0.09980 0.41416 0.84202
 C196 C 0.12194 0.38778 0.82037
 C197 C 0.14834 0.35537 0.79902
 C198 C 0.17156 0.32709 0.78318
 C199 C 0.44718 0.53631 0.40292
 C200 C 0.42575 0.55744 0.37225
 C201 C 0.40019 0.58593 0.34202
 C202 C 0.37805 0.61231 0.32037
 C203 C 0.35165 0.64472 0.29902
 C204 C 0.32843 0.67300 0.28318
 C205 C 0.94718 0.96378 0.59719
 C206 C 0.92575 0.94265 0.62785
 C207 C 0.90019 0.91416 0.65809
 C208 C 0.87805 0.88778 0.67973
 C209 C 0.85165 0.85537 0.70108
 C210 C 0.82843 0.82709 0.71693
 C211 C 0.55281 0.03631 0.09719
 C212 C 0.57424 0.05744 0.12785
 C213 C 0.59980 0.08593 0.15809
 C214 C 0.62194 0.11231 0.17973
 C215 C 0.64834 0.14472 0.20108
 C216 C 0.67156 0.17300 0.21693
 C217 C 0.90044 0.04075 0.43197
 C218 C 0.86809 0.06178 0.40747
 C219 C 0.83518 0.08951 0.38041
 C220 C 0.81110 0.11510 0.35833
 C221 C 0.78731 0.14660 0.33324
 C222 C 0.77029 0.17424 0.31183
 C223 C 0.40044 0.45934 0.56813
 C224 C 0.36809 0.43831 0.59264
 C225 C 0.33518 0.41058 0.61970
 C226 C 0.31110 0.38499 0.64177
 C227 C 0.28731 0.35349 0.66686
 C228 C 0.27029 0.32585 0.68827
 C229 C 0.59955 0.95934 0.93197
 C230 C 0.63190 0.93831 0.90747
 C231 C 0.66481 0.91058 0.88041
 C232 C 0.68889 0.88499 0.85833
 C233 C 0.71268 0.85349 0.83324
 C234 C 0.72970 0.82585 0.81183
 C235 C 0.09955 0.54075 0.06813
 C236 C 0.13190 0.56178 0.09264
 C237 C 0.16481 0.58951 0.11970
 C238 C 0.18889 0.61510 0.14177
 C239 C 0.21268 0.64660 0.16686
 C240 C 0.22970 0.67424 0.18827
 C241 C 0.46063 0.95324 0.09290
 C242 C 0.44340 0.92815 0.11953
 C243 C 0.42182 0.89592 0.14457
 C244 C 0.40168 0.86748 0.16249
 C245 C 0.37519 0.83413 0.18136
 C246 C 0.34899 0.80673 0.19755
 C247 C 0.53936 0.45324 0.40721
 C248 C 0.55659 0.42815 0.38057
 C249 C 0.57817 0.39592 0.35554
 C250 C 0.59831 0.36748 0.33762
 C251 C 0.62480 0.33413 0.31874
 C252 C 0.65100 0.30673 0.30256
 C253 C 0.96063 0.54685 0.90721
 C254 C 0.94340 0.57194 0.88057
 C255 C 0.92182 0.60417 0.85554
 C256 C 0.90168 0.63261 0.83762
 C257 C 0.87519 0.66596 0.81874
 C258 C 0.84899 0.69336 0.80256
 C259 C 0.03936 0.04685 0.59290
 C260 C 0.05659 0.07194 0.61953
 C261 C 0.07817 0.10417 0.64457
 C262 C 0.09831 0.13261 0.66249
 C263 C 0.12480 0.16596 0.68136
 C264 C 0.15100 0.19336 0.69755
 C265 C 0.07887 0.43441 0.45714
 C266 C 0.10751 0.41149 0.43331
 C267 C 0.13850 0.38612 0.40156
 C268 C 0.16230 0.36469 0.37262
 C269 C 0.18663 0.33887 0.33823
 C270 C 0.20422 0.31517 0.30994
 C271 C 0.42112 0.56568 0.95714
 C272 C 0.39248 0.58860 0.93331
 C273 C 0.36149 0.61397 0.90156
 C274 C 0.33769 0.63540 0.87262
 C275 C 0.31336 0.66122 0.83823
 C276 C 0.29577 0.68492 0.80994
 C277 C 0.57887 0.06568 0.54296
 C278 C 0.60751 0.08860 0.56679
 C279 C 0.63850 0.11397 0.59854
 C280 C 0.66230 0.13540 0.62748
 C281 C 0.68663 0.16122 0.66187
 C282 C 0.70422 0.18492 0.69017
 C283 C 0.92112 0.93441 0.04296
 C284 C 0.89248 0.91149 0.06679
 C285 C 0.86149 0.88612 0.09854
 C286 C 0.83769 0.86469 0.12748
 C287 C 0.81336 0.83887 0.16187
 C288 C 0.79577 0.81517 0.19017
 C289 C 0.92719 0.05578 0.93125
 C290 C 0.90265 0.07788 0.90329
 C291 C 0.87553 0.10436 0.87056
 C292 C 0.85295 0.12780 0.84364
 C293 C 0.82645 0.15657 0.81434
 C294 C 0.80307 0.18249 0.79245
 C295 C 0.07280 0.55578 0.56886
 C296 C 0.09734 0.57788 0.59682
 C297 C 0.12446 0.60436 0.62954
 C298 C 0.14704 0.62780 0.65647
 C299 C 0.17354 0.65657 0.68576
 C300 C 0.19692 0.68249 0.70766
 C301 C 0.57280 0.94431 0.43125
 C302 C 0.59734 0.92221 0.40329
 C303 C 0.62446 0.89573 0.37056
 C304 C 0.64704 0.87229 0.34364
 C305 C 0.67354 0.84352 0.31434
 C306 C 0.69692 0.81760 0.29245
 C307 C 0.42719 0.44431 0.06886
 C308 C 0.40265 0.42221 0.09682
 C309 C 0.37553 0.39573 0.12954
 C310 C 0.35295 0.37229 0.15647
 C311 C 0.32645 0.34352 0.18576
 C312 C 0.30307 0.31760 0.20766
 C313 C 0.53541 0.57465 0.05036
 C314 C 0.55532 0.59945 0.07612
 C315 C 0.58269 0.62552 0.10909
 C316 C 0.60907 0.64615 0.13800
 C317 C 0.64308 0.66940 0.17122
 C318 C 0.67448 0.68957 0.19766
 C319 C 0.03541 0.92544 0.94975
 C320 C 0.05532 0.90064 0.92399
 C321 C 0.08269 0.87457 0.89101
 C322 C 0.10907 0.85394 0.86210
 C323 C 0.14308 0.83069 0.82888
 C324 C 0.17447 0.81052 0.80245
 C325 C 0.46458 0.07465 0.44975
 C326 C 0.44467 0.09945 0.42399
 C327 C 0.41730 0.12552 0.39101
 C328 C 0.39092 0.14615 0.36210
 C329 C 0.35691 0.16940 0.32888
 C330 C 0.32552 0.18957 0.30245
 C331 C 0.96458 0.42544 0.55036
 C332 C 0.94467 0.40064 0.57612
 C333 C 0.91730 0.37457 0.60909
 C334 C 0.89092 0.35394 0.63800
 C335 C 0.85691 0.33069 0.67122
 C336 C 0.82552 0.31052 0.69766
 C337 C 0.94718 0.53631 0.09719
 C338 C 0.92575 0.55744 0.12785
 C339 C 0.90019 0.58593 0.15809
 C340 C 0.87805 0.61231 0.17973
 C341 C 0.85165 0.64472 0.20108
 C342 C 0.82843 0.67300 0.21693
 C343 C 0.55281 0.46378 0.59719
 C344 C 0.57424 0.44265 0.62785
 C345 C 0.59980 0.41416 0.65809
 C346 C 0.62194 0.38778 0.67973
 C347 C 0.64834 0.35537 0.70108
 C348 C 0.67156 0.32709 0.71693
 C349 C 0.05281 0.03631 0.40292
 C350 C 0.07424 0.05744 0.37225
 C351 C 0.09980 0.08593 0.34202
 C352 C 0.12194 0.11231 0.32037
 C353 C 0.14834 0.14472 0.29902
 C354 C 0.17156 0.17300 0.28318
 C355 C 0.44718 0.96378 0.90292
 C356 C 0.42575 0.94265 0.87225
 C357 C 0.40019 0.91416 0.84202
 C358 C 0.37805 0.88778 0.82037
 C359 C 0.35165 0.85537 0.79902
 C360 C 0.32843 0.82709 0.78318
 C361 C 0.09955 0.95934 0.56813
 C362 C 0.13190 0.93831 0.59264
 C363 C 0.16481 0.91058 0.61970
 C364 C 0.18889 0.88499 0.64177
 C365 C 0.21268 0.85349 0.66686
 C366 C 0.22970 0.82585 0.68827
 C367 C 0.59955 0.54075 0.43197
 C368 C 0.63190 0.56178 0.40747
 C369 C 0.66481 0.58951 0.38041
 C370 C 0.68889 0.61510 0.35833
 C371 C 0.71268 0.64660 0.33324
 C372 C 0.72970 0.67424 0.31183
 C373 C 0.40044 0.04075 0.06813
 C374 C 0.36809 0.06178 0.09264
 C375 C 0.33518 0.08951 0.11970
 C376 C 0.31110 0.11510 0.14177
 C377 C 0.28731 0.14660 0.16686
 C378 C 0.27029 0.17424 0.18827
 C379 C 0.90044 0.45934 0.93197
 C380 C 0.86809 0.43831 0.90747
 C381 C 0.83518 0.41058 0.88041
 C382 C 0.81110 0.38499 0.85833
 C383 C 0.78731 0.35349 0.83324
 C384 C 0.77029 0.32585 0.81183
 C385 C 0.53936 0.04685 0.90721
 C386 C 0.55659 0.07194 0.88057
 C387 C 0.57817 0.10417 0.85554
 C388 C 0.59831 0.13261 0.83762
 C389 C 0.62480 0.16596 0.81874
 C390 C 0.65100 0.19336 0.80256
 C391 C 0.46063 0.54685 0.59290
 C392 C 0.44340 0.57194 0.61953
 C393 C 0.42182 0.60417 0.64457
 C394 C 0.40168 0.63261 0.66249
 C395 C 0.37519 0.66596 0.68136
 C396 C 0.34899 0.69336 0.69755
 C397 C 0.03936 0.45324 0.09290
 C398 C 0.05659 0.42815 0.11953
 C399 C 0.07817 0.39592 0.14457
 C400 C 0.09831 0.36748 0.16249
 C401 C 0.12480 0.33413 0.18136
 C402 C 0.15100 0.30673 0.19755
 C403 C 0.96063 0.95324 0.40721
 C404 C 0.94340 0.92815 0.38057
 C405 C 0.92182 0.89592 0.35554
 C406 C 0.90168 0.86748 0.33762
 C407 C 0.87519 0.83413 0.31874
 C408 C 0.84899 0.80673 0.30256
 C409 C 0.92112 0.56568 0.54296
 C410 C 0.89248 0.58860 0.56679
 C411 C 0.86149 0.61397 0.59854
 C412 C 0.83769 0.63540 0.62748
 C413 C 0.81336 0.66122 0.66187
 C414 C 0.79577 0.68492 0.69017
 C415 C 0.57887 0.43441 0.04296
 C416 C 0.60751 0.41149 0.06679
 C417 C 0.63850 0.38612 0.09854
 C418 C 0.66230 0.36469 0.12748
 C419 C 0.68663 0.33887 0.16187
 C420 C 0.70422 0.31517 0.19017
 C421 C 0.42112 0.93441 0.45714
 C422 C 0.39248 0.91149 0.43331
 C423 C 0.36149 0.88612 0.40156
 C424 C 0.33769 0.86469 0.37262
 C425 C 0.31336 0.83887 0.33823
 C426 C 0.29577 0.81517 0.30994
 C427 C 0.07887 0.06568 0.95714
 C428 C 0.10751 0.08860 0.93331
 C429 C 0.13850 0.11397 0.90156
 C430 C 0.16230 0.13540 0.87262
 C431 C 0.18663 0.16122 0.83823
 C432 C 0.20422 0.18492 0.80994
 C433 C 0.07280 0.94431 0.06886
 C434 C 0.09734 0.92221 0.09682
 C435 C 0.12446 0.89573 0.12954
 C436 C 0.14704 0.87229 0.15647
 C437 C 0.17354 0.84352 0.18576
 C438 C 0.19692 0.81760 0.20766
 C439 C 0.92719 0.44431 0.43125
 C440 C 0.90265 0.42221 0.40329
 C441 C 0.87553 0.39573 0.37056
 C442 C 0.85295 0.37229 0.34364
 C443 C 0.82645 0.34352 0.31434
 C444 C 0.80307 0.31760 0.29245
 C445 C 0.42719 0.05578 0.56886
 C446 C 0.40265 0.07788 0.59682
 C447 C 0.37553 0.10436 0.62954
 C448 C 0.35295 0.12780 0.65647
 C449 C 0.32645 0.15657 0.68576
 C450 C 0.30307 0.18249 0.70766
 C451 C 0.57280 0.55578 0.93125
 C452 C 0.59734 0.57788 0.90329
 C453 C 0.62446 0.60436 0.87056
 C454 C 0.64704 0.62780 0.84364
 C455 C 0.67354 0.65657 0.81434
 C456 C 0.69692 0.68249 0.79245
 C457 C 0.46458 0.42544 0.94975
 C458 C 0.44467 0.40064 0.92399
 C459 C 0.41730 0.37457 0.89101
 C460 C 0.39092 0.35394 0.86210
 C461 C 0.35691 0.33069 0.82888
 C462 C 0.32552 0.31052 0.80245
 C463 C 0.96458 0.07465 0.05036
 C464 C 0.94467 0.09945 0.07612
 C465 C 0.91730 0.12552 0.10909
 C466 C 0.89092 0.14615 0.13800
 C467 C 0.85691 0.16940 0.17122
 C468 C 0.82552 0.18957 0.19766
 C469 C 0.53541 0.92544 0.55036
 C470 C 0.55532 0.90064 0.57612
 C471 C 0.58269 0.87457 0.60909
 C472 C 0.60907 0.85394 0.63800
 C473 C 0.64308 0.83069 0.67122
 C474 C 0.67447 0.81052 0.69766
 C475 C 0.03541 0.57465 0.44975
 C476 C 0.05532 0.59945 0.42399
 C477 C 0.08269 0.62552 0.39101
 C478 C 0.10907 0.64615 0.36210
 C479 C 0.14308 0.66940 0.32888
 C480 C 0.17447 0.68957 0.30245
   
