data_POSCAR
  _audit_creation_date              2014-09-24
  _audit_creation_method            'ToBaCCo'
  _symmetry_space_group_name_H-M    'P1'
  _symmetry_Int_Tables_number       1
  _symmetry_cell_setting            triclinic
  loop_
  _symmetry_equiv_pos_as_xyz
 x,y,z
_cell_length_a 29.1621
_cell_length_b 28.4879
_cell_length_c 15.6371
_cell_angle_alpha 89.998500
_cell_angle_beta 89.951600
_cell_angle_gamma 119.652500
loop_
  _atom_site_label
  _atom_site_type_symbol
  _atom_site_fract_x
  _atom_site_fract_y
  _atom_site_fract_z
O1 O 0.56687 1.05117 0.57624
 O2 O 0.51302 0.94459 0.41294
 O3 O 0.56717 1.04938 0.40990
 O4 O 0.51021 0.94624 0.57974
 O5 O 0.43688 0.95087 0.57535
 O6 O 0.49385 1.05403 0.40660
 O7 O 0.43963 0.94914 0.40831
 O8 O 0.49354 1.05588 0.57316
 Cu9 Cu 0.54661 0.99730 0.49518
 Cu10 Cu 0.45857 1.00288 0.49058
 C11 C 0.53956 1.07173 0.60258
 C12 C 0.46750 0.92901 0.38216
 C13 C 0.54014 1.06923 0.37908
 C14 C 0.46380 0.93114 0.60664
 O15 O 0.05054 0.56496 0.41214
 O16 O -0.05299 0.51205 0.57874
 O17 O 0.04967 0.56480 0.57771
 O18 O -0.05229 0.51566 0.41118
 O19 O -0.05336 0.43768 0.40813
 O20 O 0.04894 0.48690 0.57609
 O21 O -0.05384 0.43418 0.57559
 O22 O 0.04921 0.48676 0.41065
 Cu23 Cu -0.00146 0.54705 0.49511
 Cu24 Cu -0.00265 0.45342 0.49242
 C25 C 0.06779 0.53476 0.38375
 C26 C -0.07065 0.46408 0.60623
 C27 C 0.06703 0.53460 0.60482
 C28 C -0.06988 0.46866 0.38037
 O29 O 0.43282 0.47891 0.40877
 O30 O 0.48942 0.43581 0.58164
 O31 O 0.43213 0.48270 0.57524
 O32 O 0.49120 0.43347 0.41513
 O33 O 0.56329 0.51351 0.41364
 O34 O 0.50416 0.56271 0.57314
 O35 O 0.56143 0.51591 0.58002
 O36 O 0.50492 0.55893 0.40670
 Cu37 Cu 0.45417 0.44969 0.49546
 Cu38 Cu 0.54066 0.54581 0.49324
 C39 C 0.45927 0.52616 0.37805
 C40 C 0.53506 0.46850 0.61031
 C41 C 0.45807 0.53114 0.60159
 C42 C 0.53732 0.46521 0.38698
 O43 O 0.40301 0.66190 -0.10757
 O44 O 0.40790 0.75447 -0.07941
 C45 C 0.37525 0.76324 -0.12055
 O46 O 0.32651 0.74014 -0.10295
 O47 O 0.23650 0.65257 -0.07605
 C48 C 0.22772 0.61105 -0.11903
 O49 O 0.25156 0.58467 -0.10568
 O50 O 0.33725 0.57885 -0.08010
 C51 C 0.37759 0.61166 -0.12279
 O52 O 0.40561 0.64598 0.06231
 O53 O 0.40613 0.73629 0.09054
 C54 C 0.38226 0.76194 0.10868
 O55 O 0.34225 0.75630 0.06742
 O56 O 0.25420 0.66635 0.09373
 C57 C 0.22828 0.61591 0.10715
 O58 O 0.23493 0.58199 0.06396
 O59 O 0.32308 0.58140 0.09003
 C60 C 0.37212 0.60564 0.10555
 Cr61 Cr 0.40276 0.69828 -0.00850
 Cr62 Cr 0.29132 0.70234 -0.00459
 Cr63 Cr 0.28826 0.58470 -0.00793
 O64 O 0.32746 0.66181 -0.00707
 O65 O 0.59145 0.34803 -0.07814
 O66 O 0.59384 0.25860 -0.10162
 C67 C 0.61843 0.23313 -0.11583
 O68 O 0.65882 0.24105 -0.07345
 O69 O 0.74514 0.33182 -0.10374
 C70 C 0.76907 0.38171 -0.12151
 O71 O 0.76262 0.41624 -0.07938
 O72 O 0.67330 0.41388 -0.10666
 C73 C 0.62425 0.38852 -0.12192
 O74 O 0.59445 0.33495 0.09248
 O75 O 0.59247 0.24331 0.06912
 C76 C 0.62580 0.23661 0.11225
 O77 O 0.67471 0.26113 0.09577
 O78 O 0.76346 0.34931 0.06597
 C79 C 0.76999 0.39038 0.10811
 O80 O 0.74579 0.41583 0.09091
 O81 O 0.65889 0.41843 0.06303
 C82 C 0.61891 0.38537 0.10628
 Cr83 Cr 0.59594 0.29769 -0.00458
 Cr84 Cr 0.70912 0.29734 -0.00397
 Cr85 Cr 0.70875 0.41316 -0.00791
 O86 O 0.67124 0.33606 -0.00551
 C87 C 0.44027 0.89062 -0.32474
 C88 C 0.46634 0.86847 -0.28702
 C89 C 0.44506 0.82870 -0.21625
 C90 C 0.39434 0.80255 -0.19140
 H91 H 0.50636 0.88101 -0.30695
 H92 H 0.47306 0.82010 -0.18437
 H93 H 0.40095 0.88021 -0.30436
 H94 H 0.36524 0.80896 -0.22397
 C95 C 0.10875 0.55624 -0.32991
 C96 C 0.13027 0.52780 -0.29827
 C97 C 0.17244 0.54831 -0.23270
 C98 C 0.18695 0.59294 -0.18583
 H99 H 0.11728 0.48750 -0.32235
 H100 H 0.19108 0.52412 -0.22123
 H101 H 0.12225 0.59722 -0.30941
 H102 H 0.16765 0.61669 -0.19371
 C103 C 0.43521 0.54899 -0.33727
 C104 C 0.46009 0.59954 -0.30584
 C105 C 0.43845 0.62014 -0.23919
 C106 C 0.39564 0.58921 -0.19151
 H107 H 0.49879 0.62842 -0.33007
 H108 H 0.46063 0.66321 -0.22721
 H109 H 0.39596 0.52019 -0.31562
 H110 H 0.37359 0.54596 -0.20038
 C111 C 0.56231 0.11421 -0.33172
 C112 C 0.53589 0.13732 -0.29849
 C113 C 0.55704 0.17962 -0.23149
 C114 C 0.59952 0.19161 -0.18328
 H115 H 0.49679 0.12561 -0.32223
 H116 H 0.53510 0.20054 -0.22008
 H117 H 0.60207 0.12648 -0.31136
 H118 H 0.62096 0.16998 -0.19128
 C119 C 0.89157 0.44322 -0.32878
 C120 C 0.87209 0.47187 -0.29046
 C121 C 0.83363 0.45160 -0.21889
 C122 C 0.80660 0.39980 -0.19359
 H123 H 0.88602 0.51327 -0.30991
 H124 H 0.82708 0.48137 -0.18644
 H125 H 0.87920 0.40245 -0.30826
 H126 H 0.81092 0.36891 -0.22661
 C127 C 0.55828 0.45195 -0.32051
 C128 C 0.53261 0.40270 -0.28484
 C129 C 0.55380 0.38433 -0.21441
 C130 C 0.60497 0.40816 -0.19283
 H131 H 0.49297 0.37438 -0.30593
 H132 H 0.52554 0.34837 -0.18053
 H133 H 0.59697 0.48172 -0.29814
 H134 H 0.63415 0.44270 -0.22819
 C135 C 0.89272 0.45207 0.31498
 C136 C 0.87263 0.40365 0.27668
 C137 C 0.83433 0.38547 0.20507
 C138 C 0.80787 0.41043 0.17960
 H139 H 0.88581 0.37579 0.29635
 H140 H 0.82720 0.34876 0.17299
 H141 H 0.88111 0.48087 0.29423
 H142 H 0.81272 0.44600 0.21233
 C143 C 0.56199 0.10778 0.31411
 C144 C 0.53559 0.12998 0.27721
 C145 C 0.55635 0.16970 0.20650
 C146 C 0.60734 0.19786 0.18381
 H147 H 0.49551 0.11730 0.29707
 H148 H 0.52772 0.17658 0.17294
 H149 H 0.60127 0.11864 0.29269
 H150 H 0.63695 0.19330 0.21850
 C151 C 0.56147 0.44670 0.32215
 C152 C 0.53612 0.39662 0.28952
 C153 C 0.55787 0.37625 0.22277
 C154 C 0.60014 0.40760 0.17425
 H155 H 0.49721 0.36811 0.31335
 H156 H 0.53633 0.33309 0.21151
 H157 H 0.60101 0.47542 0.30169
 H158 H 0.62128 0.45095 0.18220
 C159 C 0.10991 0.55456 0.31907
 C160 C 0.13257 0.60475 0.28692
 C161 C 0.17491 0.62566 0.22146
 C162 C 0.18749 0.59433 0.17416
 H163 H 0.12045 0.63272 0.31039
 H164 H 0.19521 0.66883 0.21020
 H165 H 0.12271 0.52654 0.29934
 H166 H 0.16634 0.55096 0.18168
 C167 C 0.44805 0.88757 0.31468
 C168 C 0.40125 0.86989 0.27617
 C169 C 0.38118 0.83004 0.20539
 C170 C 0.40314 0.80055 0.18024
 H171 H 0.37648 0.88653 0.29519
 H172 H 0.34604 0.82474 0.17326
 H173 H 0.47433 0.87298 0.29537
 H174 H 0.43723 0.80377 0.21279
 C175 C 0.43616 0.54239 0.30826
 C176 C 0.46233 0.59111 0.27106
 C177 C 0.44155 0.60926 0.19974
 C178 C 0.39065 0.58514 0.17634
 H179 H 0.50210 0.61927 0.29176
 H180 H 0.47001 0.64555 0.16678
 H181 H 0.39725 0.51273 0.28661
 H182 H 0.36114 0.55021 0.21053
   
