data_POSCAR
  _audit_creation_date              2014-09-24
  _audit_creation_method            'ToBaCCo'
  _symmetry_space_group_name_H-M    'P1'
  _symmetry_Int_Tables_number       1
  _symmetry_cell_setting            triclinic
  loop_
  _symmetry_equiv_pos_as_xyz
 x,y,z
_cell_length_a 44.0933
_cell_length_b 42.5494
_cell_length_c 45.3394
_cell_angle_alpha 91.342000
_cell_angle_beta 88.350700
_cell_angle_gamma 90.018400
loop_
  _atom_site_label
  _atom_site_type_symbol
  _atom_site_fract_x
  _atom_site_fract_y
  _atom_site_fract_z
C1 C 0.18810 1.24131 0.18432
 C2 C 0.17307 1.22962 0.20977
 C3 C 0.18386 1.20322 0.22460
 C4 C 0.21080 1.18878 0.21370
 C5 C 0.22618 1.19980 0.18854
 C6 C 0.21496 1.22601 0.17419
 H7 H 0.15397 1.24242 0.21943
 H8 H 0.21934 1.16788 0.22379
 H9 H 0.22636 1.23280 0.15389
 C10 C 0.81304 0.77377 0.19955
 C11 C 0.82299 0.78623 0.22681
 C12 C 0.80890 0.81251 0.24048
 C13 C 0.78371 0.82602 0.22764
 C14 C 0.77270 0.81389 0.20100
 C15 C 0.78755 0.78807 0.18709
 H16 H 0.84175 0.77578 0.23787
 H17 H 0.77260 0.84593 0.23865
 H18 H 0.78016 0.78074 0.16549
 C19 C 0.80973 1.21145 -0.17694
 C20 C 0.82017 1.19963 -0.20479
 C21 C 0.80529 1.17468 -0.21967
 C22 C 0.77877 1.16230 -0.20611
 C23 C 0.76814 1.17339 -0.17837
 C24 C 0.78364 1.19776 -0.16402
 H25 H 0.84170 1.20797 -0.21343
 H26 H 0.76586 1.14405 -0.21697
 H27 H 0.77423 1.20688 -0.14324
 C28 C 0.18677 0.78333 -0.20403
 C29 C 0.17673 0.79746 -0.22969
 C30 C 0.19183 0.82377 -0.24156
 C31 C 0.21808 0.83478 -0.22749
 C32 C 0.22843 0.82101 -0.20174
 C33 C 0.21257 0.79522 -0.19025
 H34 H 0.15613 0.78867 -0.23932
 H35 H 0.23130 0.85357 -0.23708
 H36 H 0.21946 0.78514 -0.16977
 C37 C 0.54063 1.02520 0.00647
 H38 H 0.53824 1.02600 0.03030
 C39 C 0.56287 1.04324 -0.00760
 H40 H 0.57711 1.05838 0.00561
 C41 C 0.52495 1.00411 -0.03946
 H42 H 0.51060 0.98821 -0.05169
 C43 C 0.54710 1.02158 -0.05446
 H44 H 0.54955 1.01886 -0.07821
 N45 N 0.52229 1.00610 -0.00952
 C46 C 0.44817 0.98806 0.05344
 H47 H 0.44941 0.96270 0.05422
 C48 C 0.42592 1.00428 0.07016
 H49 H 0.41054 0.99116 0.08425
 C50 C 0.46684 1.03570 0.03391
 H51 H 0.48230 1.04777 0.01913
 C52 C 0.44471 1.05285 0.05001
 H53 H 0.44349 1.07803 0.04736
 Zn54 Zn 0.49560 0.97976 0.01185
 N55 N 0.46816 1.00389 0.03590
 C56 C 0.51925 0.95693 0.06500
 N57 N 0.52024 0.95425 0.03502
 C58 C 0.54098 0.93543 0.02055
 C59 C 0.56158 0.91800 0.03630
 C60 C 0.53968 0.94019 0.08161
 C61 C 0.45157 0.97163 -0.02989
 C62 C 0.43177 0.95583 -0.04852
 C63 C 0.45435 0.90672 -0.03493
 C64 C 0.47350 0.92350 -0.01621
 N65 N 0.47188 0.95540 -0.01420
 H66 H 0.50328 0.97276 0.07608
 H67 H 0.54189 0.93448 -0.00332
 H68 H 0.57828 0.90356 0.02440
 H69 H 0.53882 0.94278 0.10543
 H70 H 0.45044 0.99697 -0.02748
 H71 H 0.41522 0.96933 -0.06002
 H72 H 0.45633 0.88138 -0.03652
 H73 H 0.48935 0.91093 -0.00312
 C74 C 0.42370 1.03713 0.06834
 C75 C 0.56670 1.04121 -0.03847
 C76 C 0.43294 0.92287 -0.05130
 C77 C 0.56129 0.92055 0.06722
 C78 C -0.01066 0.55605 1.02573
 H79 H 0.01381 0.55803 1.02503
 C80 C -0.02806 0.57741 1.04277
 H81 H -0.01672 0.59604 1.05481
 C82 C -0.05495 0.52990 1.00988
 H83 H -0.06540 0.51166 0.99673
 C84 C -0.07326 0.55063 1.02684
 H85 H -0.09762 0.54752 1.02701
 N86 N -0.02422 0.53264 1.01003
 C87 C 0.04575 0.46047 1.00164
 H88 H 0.04857 0.45848 0.97789
 C89 C 0.06189 0.44058 1.01958
 H90 H 0.07709 0.42322 1.00945
 C91 C 0.02111 0.48437 1.04356
 H92 H 0.00469 0.50093 1.05281
 C93 C 0.03666 0.46485 1.06230
 H94 H 0.03247 0.46706 1.08591
 Zn95 Zn 0.00197 0.50503 0.98803
 N96 N 0.02579 0.48176 1.01382
 C97 C 0.05708 0.53230 0.96655
 N98 N 0.02659 0.53023 0.96324
 C99 C 0.01225 0.54792 0.94331
 C100 C 0.02870 0.56850 0.92547
 C101 C 0.07441 0.55283 0.94932
 C102 C -0.03941 0.45598 0.98047
 C103 C -0.05569 0.43287 0.96539
 C104 C -0.03123 0.44910 0.91989
 C105 C -0.01572 0.47222 0.93583
 N106 N -0.02024 0.47540 0.96555
 H107 H 0.06793 0.51869 0.98308
 H108 H -0.01210 0.54612 0.94144
 H109 H 0.01680 0.58200 0.90949
 H110 H 0.09851 0.55475 0.95289
 H111 H -0.04207 0.45854 1.00420
 H112 H -0.07139 0.41829 0.97774
 H113 H -0.02672 0.44656 0.89637
 H114 H 0.00042 0.48711 0.92448
 C115 C 0.05712 0.44235 1.05033
 C116 C -0.05984 0.57473 1.04374
 C117 C -0.05163 0.42903 0.93464
 C118 C 0.06021 0.57143 0.92852
 C119 C 1.05053 -0.00059 0.53782
 H120 H 1.05236 0.02476 0.53767
 C121 C 1.06823 -0.01781 0.55669
 H122 H 1.08417 -0.00540 0.57042
 C123 C 1.02745 -0.04721 0.51976
 H124 H 1.01103 -0.05845 0.50575
 C125 C 1.04431 -0.06534 0.53872
 H126 H 1.04043 -0.09044 0.53911
 N127 N 1.03073 -0.01544 0.51980
 C128 C 1.01355 0.05609 0.45484
 H129 H 0.98908 0.05758 0.45676
 C130 C 1.02935 0.07456 0.43453
 H131 H 1.01679 0.09081 0.42152
 C132 C 1.05934 0.03283 0.46952
 H133 H 1.07087 0.01587 0.48255
 C134 C 1.07601 0.05050 0.44916
 H135 H 1.10025 0.04680 0.44691
 Zn136 Zn 1.00536 0.00989 0.49733
 N137 N 1.02868 0.03602 0.47210
 C138 C 0.98044 0.06589 0.52444
 N139 N 0.98099 0.03393 0.52455
 C140 C 0.96524 0.01774 0.54546
 C141 C 0.94780 0.03366 0.56719
 C142 C 0.96304 0.08277 0.54562
 C143 C 0.99590 -0.03013 0.44946
 C144 C 0.97968 -0.04665 0.42819
 C145 C 0.93332 -0.03403 0.45567
 C146 C 0.95041 -0.01719 0.47619
 N147 N 0.98112 -0.01546 0.47263
 H148 H 0.99370 0.07846 0.50819
 H149 H 0.96661 -0.00765 0.54544
 H150 H 0.93606 0.02023 0.58398
 H151 H 0.96257 0.10817 0.54481
 H152 H 1.02031 -0.02814 0.44708
 H153 H 0.99169 -0.05760 0.40947
 H154 H 0.90884 -0.03474 0.45833
 H155 H 0.93905 -0.00493 0.49447
 C156 C 1.06105 0.07174 0.43124
 C157 C 1.06492 -0.05065 0.55776
 C158 C 0.94799 -0.04845 0.43105
 C159 C 0.94648 0.06667 0.56750
 C160 C 0.19483 0.28621 1.15087
 C161 C 0.18269 0.31091 1.13514
 C162 C 0.15168 0.31751 1.13709
 C163 C 0.13278 0.29917 1.15516
 C164 C 0.14472 0.27437 1.17079
 C165 C 0.17607 0.26716 1.16896
 N166 N 0.13977 0.34234 1.12000
 N167 N 0.11203 0.35053 1.12237
 C168 C 0.09939 0.37457 1.10488
 C169 C 0.06906 0.38314 1.11006
 C170 C 0.05551 0.40557 1.09270
 C171 C 0.07211 0.41975 1.06965
 C172 C 0.10270 0.41133 1.06465
 C173 C 0.11629 0.38898 1.08217
 H174 H 0.21914 0.28297 1.14933
 H175 H 0.19757 0.32505 1.12142
 H176 H 0.10859 0.30354 1.15677
 H177 H 0.12876 0.26010 1.18310
 H178 H 0.05578 0.37208 1.12740
 H179 H 0.03180 0.41121 1.09681
 H180 H 0.11610 0.42205 1.04720
 H181 H 0.13980 0.38269 1.07774
 C182 C -0.14026 0.74237 1.18976
 C183 C -0.12450 0.71860 1.17407
 C184 C -0.13879 0.70051 1.15251
 C185 C -0.16952 0.70580 1.14729
 C186 C -0.18554 0.72932 1.16315
 C187 C -0.17118 0.74858 1.18450
 N188 N -0.12142 0.67740 1.13595
 N189 N -0.13157 0.66318 1.11328
 C190 C -0.11379 0.64039 1.09670
 C191 C -0.12433 0.62889 1.06972
 C192 C -0.10695 0.60750 1.05251
 C193 C -0.07874 0.59699 1.06221
 C194 C -0.06854 0.60818 1.08965
 C195 C -0.08580 0.62977 1.10666
 H196 H -0.12731 0.75671 1.20481
 H197 H -0.10071 0.71482 1.17817
 H198 H -0.18123 0.69168 1.13102
 H199 H -0.20944 0.73152 1.15896
 H200 H -0.14583 0.63696 1.06176
 H201 H -0.11534 0.59974 1.03136
 H202 H -0.04727 0.60011 1.09811
 H203 H -0.07727 0.63811 1.12758
 C204 C -0.17482 0.23819 0.86915
 C205 C -0.15906 0.26208 0.88377
 C206 C -0.14307 0.28471 0.86786
 C207 C -0.14262 0.28305 0.83692
 C208 C -0.15792 0.25887 0.82215
 C209 C -0.17451 0.23596 0.83797
 N210 N -0.12722 0.30882 0.88370
 N211 N -0.11618 0.33289 0.87117
 C212 C -0.09995 0.35652 0.88729
 C213 C -0.09337 0.38515 0.87398
 C214 C -0.07786 0.40878 0.88932
 C215 C -0.06821 0.40396 0.91821
 C216 C -0.07453 0.37491 0.93130
 C217 C -0.09040 0.35152 0.91609
 H218 H -0.18606 0.22075 0.88256
 H219 H -0.15929 0.26295 0.90767
 H220 H -0.13038 0.30038 0.82414
 H221 H -0.15761 0.25905 0.79828
 H222 H -0.10064 0.38930 0.85180
 H223 H -0.07384 0.43095 0.87867
 H224 H -0.06688 0.37001 0.95319
 H225 H -0.09491 0.32942 0.92672
 C226 C 0.13746 0.75967 0.81306
 C227 C 0.12097 0.73606 0.82719
 C228 C 0.13575 0.70976 0.83788
 C229 C 0.16741 0.70714 0.83411
 C230 C 0.18399 0.73089 0.82017
 C231 C 0.16917 0.75744 0.80959
 N232 N 0.11816 0.68667 0.85323
 N233 N 0.12950 0.66111 0.86192
 C234 C 0.11167 0.63875 0.87801
 C235 C 0.12441 0.60968 0.88445
 C236 C 0.10770 0.58764 0.90058
 C237 C 0.07792 0.59446 0.91079
 C238 C 0.06526 0.62378 0.90429
 C239 C 0.08190 0.64564 0.88799
 H240 H 0.12550 0.78007 0.80553
 H241 H 0.09660 0.73840 0.83010
 H242 H 0.17934 0.68704 0.84227
 H243 H 0.20839 0.72854 0.81764
 H244 H 0.14733 0.60408 0.87688
 H245 H 0.11802 0.56518 0.90483
 H246 H 0.04267 0.63013 0.91229
 H247 H 0.07161 0.66807 0.88355
 C248 C 1.13567 0.19403 0.25204
 C249 C 1.11945 0.18060 0.27547
 C250 C 1.13450 0.16439 0.29711
 C251 C 1.16621 0.16176 0.29518
 C252 C 1.18252 0.17469 0.27151
 C253 C 1.16757 0.19101 0.24930
 N254 N 1.11699 0.14982 0.32009
 N255 N 1.12902 0.13871 0.34280
 C256 C 1.11137 0.12295 0.36497
 C257 C 1.12446 0.11645 0.39188
 C258 C 1.10803 0.10036 0.41363
 C259 C 1.07824 0.08997 0.40861
 C260 C 1.06524 0.09658 0.38143
 C261 C 1.08154 0.11307 0.35992
 H262 H 1.12274 0.20525 0.23530
 H263 H 1.09495 0.18250 0.27658
 H264 H 1.17836 0.14936 0.31175
 H265 H 1.20697 0.17257 0.27129
 H266 H 1.14745 0.12396 0.39604
 H267 H 1.11864 0.09621 0.43441
 H268 H 1.04268 0.08840 0.37642
 H269 H 1.07105 0.11749 0.33913
 C270 C 1.18476 -0.12772 0.73077
 C271 C 1.17181 -0.11165 0.70778
 C272 C 1.15457 -0.12765 0.68692
 C273 C 1.15046 -0.16020 0.68912
 C274 C 1.16293 -0.17635 0.71243
 C275 C 1.18024 -0.16040 0.73390
 N276 N 1.14039 -0.10996 0.66465
 N277 N 1.12841 -0.12275 0.64216
 C278 C 1.11317 -0.10434 0.62105
 C279 C 1.10647 -0.11774 0.59354
 C280 C 1.09126 -0.10028 0.57275
 C281 C 1.08194 -0.06917 0.57938
 C282 C 1.08853 -0.05600 0.60726
 C283 C 1.10417 -0.07327 0.62775
 H284 H 1.19680 -0.11387 0.74697
 H285 H 1.17485 -0.08646 0.70646
 H286 H 1.13720 -0.17307 0.67315
 H287 H 1.15954 -0.20151 0.71299
 H288 H 1.11327 -0.14168 0.58811
 H289 H 1.08702 -0.11111 0.55143
 H290 H 1.08107 -0.03251 0.61359
 H291 H 1.10869 -0.06253 0.64905
 C292 C 0.82823 -0.19088 0.29185
 C293 C 0.84207 -0.17702 0.31634
 C294 C 0.85032 -0.14524 0.31623
 C295 C 0.84354 -0.12708 0.29177
 C296 C 0.82920 -0.14074 0.26759
 C297 C 0.82184 -0.17284 0.26723
 N298 N 0.86630 -0.13204 0.34065
 N299 N 0.88107 -0.10649 0.33823
 C300 C 0.89729 -0.09243 0.36203
 C301 C 0.91854 -0.06899 0.35561
 C302 C 0.93520 -0.05496 0.37808
 C303 C 0.93035 -0.06373 0.40749
 C304 C 0.90860 -0.08685 0.41408
 C305 C 0.89235 -0.10139 0.39143
 H306 H 0.82263 -0.21566 0.29205
 H307 H 0.84711 -0.19125 0.33507
 H308 H 0.84950 -0.10242 0.29126
 H309 H 0.82465 -0.12644 0.24876
 H310 H 0.92242 -0.06183 0.33306
 H311 H 0.95164 -0.03695 0.37255
 H312 H 0.90453 -0.09393 0.43664
 H313 H 0.87585 -0.11935 0.39688
 C314 C 0.81110 0.13015 0.74438
 C315 C 0.82437 0.11679 0.71871
 C316 C 0.84457 0.13403 0.70124
 C317 C 0.85065 0.16540 0.70914
 C318 C 0.83714 0.17905 0.73462
 C319 C 0.81746 0.16156 0.75325
 N320 N 0.85926 0.11882 0.67620
 N321 N 0.88122 0.13139 0.66199
 C322 C 0.89627 0.11569 0.63740
 C323 C 0.92316 0.12842 0.62575
 C324 C 0.93933 0.11274 0.60287
 C325 C 0.92864 0.08409 0.59097
 C326 C 0.90114 0.07182 0.60227
 C327 C 0.88518 0.08737 0.62536
 H328 H 0.79723 0.11485 0.75785
 H329 H 0.81965 0.09248 0.71290
 H330 H 0.86583 0.17941 0.69564
 H331 H 0.84183 0.20362 0.73905
 H332 H 0.93198 0.15018 0.63492
 H333 H 0.96060 0.12268 0.59507
 H334 H 0.89190 0.05018 0.59328
 H335 H 0.86429 0.07718 0.63384
 C336 C 0.27926 1.19876 0.16695
 C337 C 0.30405 1.18240 0.15423
 C338 C 0.30277 1.14974 0.14994
 C339 C 0.27653 1.13344 0.15906
 C340 C 0.25189 1.14971 0.17204
 C341 C 0.25293 1.18255 0.17593
 N342 N 0.32805 1.13372 0.13586
 N343 N 0.32653 1.10483 0.12810
 C344 C 0.35139 1.08832 0.11387
 C345 C 0.34648 1.05794 0.10263
 C346 C 0.36992 1.04132 0.08796
 C347 C 0.39897 1.05469 0.08456
 C348 C 0.40392 1.08515 0.09627
 C349 C 0.38032 1.10189 0.11070
 H350 H 0.28064 1.22406 0.16985
 H351 H 0.32415 1.19522 0.14733
 H352 H 0.27499 1.10819 0.15602
 H353 H 0.23174 1.13670 0.17843
 H354 H 0.32424 1.04730 0.10485
 H355 H 0.36505 1.01822 0.07876
 H356 H 0.42609 1.09600 0.09448
 H357 H 0.38469 1.12530 0.11941
 C358 C 0.71479 1.15260 -0.17965
 C359 C 0.68967 1.13846 -0.16583
 C360 C 0.69059 1.13020 -0.13616
 C361 C 0.71688 1.13662 -0.12027
 C362 C 0.74187 1.15091 -0.13398
 C363 C 0.74116 1.15892 -0.16384
 N364 N 0.66483 1.11507 -0.12271
 N365 N 0.66553 1.10492 -0.09656
 C366 C 0.64027 1.08960 -0.08252
 C367 C 0.64409 1.07691 -0.05473
 C368 C 0.62022 1.06132 -0.04044
 C369 C 0.59183 1.05836 -0.05364
 C370 C 0.58798 1.07138 -0.08155
 C371 C 0.61202 1.08682 -0.09592
 H372 H 0.71353 1.15880 -0.20261
 H373 H 0.66953 1.13370 -0.17830
 H374 H 0.71818 1.13049 -0.09730
 H375 H 0.76201 1.15522 -0.12137
 H376 H 0.66581 1.07880 -0.04426
 H377 H 0.62423 1.05106 -0.01928
 H378 H 0.56634 1.06985 -0.09217
 H379 H 0.60851 1.09661 -0.11738
 C380 C 0.26006 0.86716 -0.18555
 C381 C 0.28453 0.87998 -0.17056
 C382 C 0.30407 0.86064 -0.15542
 C383 C 0.29932 0.82799 -0.15596
 C384 C 0.27512 0.81501 -0.17141
 C385 C 0.25499 0.83447 -0.18622
 N386 N 0.32819 0.87488 -0.13940
 N387 N 0.34328 0.86009 -0.12066
 C388 C 0.36708 0.87508 -0.10470
 C389 C 0.37776 0.86103 -0.07942
 C390 C 0.39946 0.87623 -0.06227
 C391 C 0.41127 0.90563 -0.07044
 C392 C 0.40129 0.91902 -0.09656
 C393 C 0.37926 0.90404 -0.11338
 H394 H 0.24476 0.88300 -0.19608
 H395 H 0.28791 0.90520 -0.17017
 H396 H 0.31434 0.81255 -0.14459
 H397 H 0.27228 0.78974 -0.17184
 H398 H 0.36853 0.83871 -0.07249
 H399 H 0.40622 0.86535 -0.04215
 H400 H 0.41039 0.94118 -0.10401
 H401 H 0.37166 0.91517 -0.13309
 C402 C 0.74281 0.86177 0.18807
 C403 C 0.71830 0.87583 0.17465
 C404 C 0.69711 0.85747 0.15969
 C405 C 0.70042 0.82463 0.15862
 C406 C 0.72476 0.81047 0.17229
 C407 C 0.74638 0.82888 0.18704
 N408 N 0.67275 0.87280 0.14554
 N409 N 0.65476 0.85808 0.12866
 C410 C 0.63060 0.87371 0.11445
 C411 C 0.61462 0.85744 0.09267
 C412 C 0.59183 0.87250 0.07747
 C413 C 0.58440 0.90403 0.08418
 C414 C 0.60000 0.92010 0.10654
 C415 C 0.62301 0.90514 0.12146
 H416 H 0.75926 0.87672 0.19877
 H417 H 0.71604 0.90118 0.17553
 H418 H 0.68418 0.80992 0.14733
 H419 H 0.72654 0.78509 0.17147
 H420 H 0.62021 0.83319 0.08712
 H421 H 0.58000 0.85953 0.06049
 H422 H 0.59493 0.94450 0.11193
 H423 H 0.63498 0.91819 0.13827
   
