data_POSCAR
  _audit_creation_date              2014-09-24
  _audit_creation_method            'ToBaCCo'
  _symmetry_space_group_name_H-M    'P1'
  _symmetry_Int_Tables_number       1
  _symmetry_cell_setting            triclinic
  loop_
  _symmetry_equiv_pos_as_xyz
 x,y,z
_cell_length_a 34.8900
_cell_length_b 26.0983
_cell_length_c 27.3631
_cell_angle_alpha 90.040500
_cell_angle_beta 90.083500
_cell_angle_gamma 89.992100
loop_
  _atom_site_label
  _atom_site_type_symbol
  _atom_site_fract_x
  _atom_site_fract_y
  _atom_site_fract_z
C1 C 0.24949 0.27646 0.25199
 C2 C 0.25160 0.22448 0.24595
 C3 C 0.22608 0.19651 0.21124
 C4 C 0.27929 0.19332 0.27465
 C5 C 0.27876 0.30507 0.28097
 C6 C 0.21731 0.30683 0.23105
 C7 C 0.20693 0.15226 0.22642
 C8 C 0.18108 0.12751 0.19538
 C9 C 0.17285 0.14651 0.14790
 C10 C 0.19368 0.19041 0.13265
 C11 C 0.22022 0.21423 0.16348
 C12 C 0.28052 0.19697 0.32584
 C13 C 0.30941 0.17233 0.35222
 C14 C 0.33727 0.14292 0.32795
 C15 C 0.33452 0.13681 0.27697
 C16 C 0.30573 0.16174 0.25058
 C17 C 0.31820 0.29671 0.27378
 C18 C 0.34519 0.32022 0.30416
 C19 C 0.33329 0.35427 0.34076
 C20 C 0.29413 0.36517 0.34604
 C21 C 0.26706 0.34046 0.31666
 C22 C 0.22493 0.35154 0.20425
 C23 C 0.19501 0.37892 0.18254
 C24 C 0.15705 0.36174 0.18693
 C25 C 0.14930 0.31783 0.21477
 C26 C 0.17909 0.29119 0.23744
 H27 H 0.21154 0.13711 0.26280
 H28 H 0.16830 0.09273 0.20907
 H29 H 0.18922 0.20857 0.09775
 H30 H 0.23546 0.24764 0.15038
 H31 H 0.25976 0.22022 0.34518
 H32 H 0.31009 0.17664 0.39156
 H33 H 0.30504 0.15813 0.21115
 H34 H 0.32806 0.27106 0.24534
 H35 H 0.37535 0.31204 0.29902
 H36 H 0.28445 0.39155 0.37401
 H37 H 0.23690 0.34801 0.32261
 H38 H 0.25413 0.36456 0.19924
 H39 H 0.20160 0.41267 0.16113
 H40 H 0.12015 0.30434 0.21914
 H41 H 0.17239 0.25773 0.25919
 H42 H 0.35551 0.11430 0.25727
 C43 C 0.75051 0.22261 0.24870
 C44 C 0.75085 0.27476 0.25260
 C45 C 0.78011 0.30703 0.22783
 C46 C 0.72201 0.30213 0.28272
 C47 C 0.72441 0.19123 0.27923
 C48 C 0.77726 0.19466 0.21589
 C49 C 0.81939 0.29580 0.23178
 C50 C 0.84629 0.32463 0.20598
 C51 C 0.83454 0.36632 0.17728
 C52 C 0.79558 0.37940 0.17549
 C53 C 0.76854 0.34982 0.20038
 C54 C 0.73410 0.33293 0.32182
 C55 C 0.70725 0.35832 0.35085
 C56 C 0.66799 0.35401 0.34061
 C57 C 0.65581 0.32366 0.30123
 C58 C 0.68268 0.29784 0.27242
 C59 C 0.69719 0.15920 0.25714
 C60 C 0.67086 0.13225 0.28577
 C61 C 0.67163 0.13646 0.33702
 C62 C 0.69996 0.16714 0.35900
 C63 C 0.72615 0.19416 0.33038
 C64 C 0.78048 0.20753 0.16623
 C65 C 0.80881 0.18493 0.13722
 C66 C 0.83415 0.14855 0.15717
 C67 C 0.82936 0.13374 0.20622
 C68 C 0.80117 0.15648 0.23520
 H69 H 0.82917 0.26423 0.25420
 H70 H 0.87633 0.31450 0.20853
 H71 H 0.78597 0.41145 0.15353
 H72 H 0.73847 0.35962 0.19734
 H73 H 0.76432 0.33670 0.33021
 H74 H 0.71705 0.38162 0.38117
 H75 H 0.67289 0.27450 0.24213
 H76 H 0.69555 0.15644 0.21770
 H77 H 0.64911 0.10964 0.26766
 H78 H 0.70185 0.17039 0.39837
 H79 H 0.74749 0.21796 0.34806
 H80 H 0.76175 0.23612 0.15033
 H81 H 0.81101 0.19627 0.09929
 H82 H 0.84837 0.10593 0.22279
 H83 H 0.79907 0.14581 0.27335
 H84 H 0.62560 0.31940 0.29319
 C85 C 0.75120 0.77953 0.75018
 C86 C 0.75012 0.72749 0.75452
 C87 C 0.72173 0.69717 0.72639
 C88 C 0.77781 0.69861 0.78518
 C89 C 0.78229 0.81162 0.77163
 C90 C 0.72041 0.80645 0.72319
 C91 C 0.69228 0.67094 0.75044
 C92 C 0.66425 0.64485 0.72356
 C93 C 0.66538 0.64436 0.67213
 C94 C 0.69570 0.66973 0.64843
 C95 C 0.72357 0.69579 0.67527
 C96 C 0.78381 0.71161 0.83439
 C97 C 0.81291 0.68786 0.86128
 C98 C 0.83631 0.65030 0.83956
 C99 C 0.82876 0.63550 0.79105
 C100 C 0.79973 0.65931 0.76421
 C101 C 0.82097 0.79768 0.76697
 C102 C 0.84963 0.82632 0.78982
 C103 C 0.84070 0.87146 0.81586
 C104 C 0.80196 0.88690 0.81785
 C105 C 0.77320 0.85708 0.79646
 C106 C 0.72714 0.82505 0.67594
 C107 C 0.69708 0.84598 0.64867
 C108 C 0.66019 0.84974 0.66885
 C109 C 0.65393 0.83284 0.71689
 C110 C 0.68376 0.81081 0.74369
 H111 H 0.69051 0.67173 0.78995
 H112 H 0.64138 0.62637 0.74327
 H113 H 0.69810 0.66910 0.60899
 H114 H 0.74653 0.71523 0.65619
 H115 H 0.76663 0.74113 0.85154
 H116 H 0.81721 0.69921 0.89894
 H117 H 0.79546 0.64854 0.72636
 H118 H 0.82910 0.76427 0.74594
 H119 H 0.87901 0.81375 0.78561
 H120 H 0.79326 0.92054 0.83810
 H121 H 0.74364 0.86906 0.80027
 H122 H 0.75534 0.82178 0.65972
 H123 H 0.70258 0.85921 0.61183
 H124 H 0.62568 0.83528 0.73309
 H125 H 0.67823 0.79648 0.78014
 H126 H 0.84622 0.60677 0.77319
 C127 C 0.24754 0.72283 0.74859
 C128 C 0.24623 0.77463 0.74321
 C129 C 0.27429 0.80195 0.71230
 C130 C 0.21744 0.80677 0.76829
 C131 C 0.22153 0.69478 0.78243
 C132 C 0.27498 0.69180 0.71963
 C133 C 0.31206 0.80905 0.72853
 C134 C 0.33822 0.83597 0.69967
 C135 C 0.32711 0.85506 0.65383
 C136 C 0.28949 0.84703 0.63730
 C137 C 0.26306 0.82135 0.66673
 C138 C 0.22928 0.84204 0.80360
 C139 C 0.20243 0.87135 0.82894
 C140 C 0.16265 0.86705 0.81913
 C141 C 0.15153 0.83305 0.78130
 C142 C 0.17849 0.80277 0.75689
 C143 C 0.20240 0.65079 0.76620
 C144 C 0.17779 0.62405 0.79725
 C145 C 0.17086 0.64082 0.84564
 C146 C 0.19098 0.68483 0.86176
 C147 C 0.21638 0.71063 0.83095
 C148 C 0.27303 0.69153 0.66845
 C149 C 0.29956 0.66361 0.64118
 C150 C 0.32827 0.63476 0.66457
 C151 C 0.32959 0.63419 0.71596
 C152 C 0.30306 0.66239 0.74324
 H153 H 0.32102 0.79428 0.76372
 H154 H 0.36718 0.84167 0.71293
 H155 H 0.28037 0.86172 0.60214
 H156 H 0.23395 0.81612 0.65386
 H157 H 0.25944 0.84637 0.81211
 H158 H 0.21375 0.89881 0.85469
 H159 H 0.16899 0.77617 0.72897
 H160 H 0.20645 0.63701 0.72921
 H161 H 0.16493 0.58951 0.78298
 H162 H 0.18707 0.70087 0.89774
 H163 H 0.23195 0.74326 0.84518
 H164 H 0.25095 0.71302 0.64963
 H165 H 0.29739 0.66420 0.60170
 H166 H 0.35156 0.61282 0.73509
 H167 H 0.30482 0.66204 0.78277
 H168 H 0.12210 0.82803 0.77071
 O169 O 1.04073 -0.04342 -0.03090
 O170 O 0.96448 0.01358 0.04440
 O171 O 0.96676 -0.04662 -0.03329
 O172 O 1.03916 0.01461 0.04500
 O173 O 1.04136 0.08038 -0.00564
 O174 O 0.96258 0.02384 -0.07761
 O175 O 0.96628 0.08353 -0.00076
 O176 O 1.03660 0.02199 -0.08203
 Cu177 Cu 1.00239 -0.02225 0.01131
 Cu178 Cu 1.00138 0.05952 -0.04609
 C179 C 1.05119 -0.02062 -0.06961
 C180 C 0.95311 0.05889 0.03552
 C181 C 0.95253 -0.02202 -0.06898
 C182 C 1.05375 0.05700 0.03193
 O183 O 0.46245 0.49385 0.44521
 O184 O 0.53684 0.55980 0.51698
 O185 O 0.53743 0.49575 0.44379
 O186 O 0.46209 0.55703 0.51729
 O187 O 0.46302 0.49163 0.56836
 O188 O 0.54033 0.43194 0.49657
 O189 O 0.53791 0.49550 0.56928
 O190 O 0.46566 0.42772 0.49534
 Cu191 Cu 0.49971 0.53311 0.47560
 Cu192 Cu 0.50190 0.45520 0.53761
 C193 C 0.45116 0.44970 0.45827
 C194 C 0.55009 0.53898 0.55542
 C195 C 0.55210 0.45373 0.45792
 C196 C 0.44911 0.53435 0.55482
 O197 O -0.03862 0.44738 0.02195
 O198 O 0.04019 0.50270 -0.04892
 O199 O 0.03459 0.44413 0.02848
 O200 O -0.03430 0.50870 -0.05310
 O201 O -0.03275 0.57702 -0.00557
 O202 O 0.03475 0.51199 0.07673
 O203 O 0.04191 0.56966 0.00043
 O204 O -0.03943 0.51566 0.06967
 Cu205 Cu 0.00046 0.46913 -0.01801
 Cu206 Cu 0.00101 0.55055 0.03999
 C207 C -0.05212 0.47155 0.05827
 C208 C 0.05486 0.54515 -0.03614
 C209 C 0.04596 0.46688 0.06695
 C210 C -0.04516 0.55405 -0.04330
 O211 O 0.53925 0.99329 0.43786
 O212 O 0.45846 0.93465 0.50446
 O213 O 0.46518 0.99804 0.43182
 O214 O 0.53331 0.92780 0.50936
 O215 O 0.53335 0.99157 0.56236
 O216 O 0.46543 1.06228 0.48432
 O217 O 0.45952 0.99872 0.55713
 O218 O 0.53959 1.05726 0.49065
 Cu219 Cu 0.49907 0.95685 0.46573
 Cu220 Cu 0.49961 1.03389 0.52888
 C221 C 0.55287 1.03572 0.45267
 C222 C 0.44518 0.95686 0.54219
 C223 C 0.45376 1.04223 0.44464
 C224 C 0.54484 0.94750 0.54918
 C225 C 1.12166 0.08417 0.13642
 C226 C 1.14622 0.12293 0.11841
 C227 C 1.14171 0.13477 0.06780
 C228 C 1.11205 0.11310 0.03955
 C229 C 1.08604 0.07828 0.06022
 C230 C 1.09284 0.06238 0.10805
 C231 C 1.06531 0.05958 0.14944
 C232 C 1.09629 0.08373 0.18072
 H233 H 1.16062 0.16056 0.04876
 H234 H 1.10918 0.12430 0.00161
 H235 H 1.05875 0.01936 0.15984
 H236 H 1.03987 0.08466 0.14415
 H237 H 1.10679 0.05733 0.20965
 H238 H 1.08893 0.12295 0.19358
 C239 C 0.62340 0.56767 0.65393
 C240 C 0.63581 0.61740 0.64250
 C241 C 0.62257 0.63864 0.59804
 C242 C 0.59531 0.61286 0.56906
 C243 C 0.58063 0.56491 0.58355
 C244 C 0.59692 0.54203 0.62490
 C245 C 0.57820 0.51691 0.66746
 C246 C 0.60654 0.54555 0.69958
 H247 H 0.63218 0.67616 0.58647
 H248 H 0.58485 0.63135 0.53623
 H249 H 0.58271 0.47474 0.66752
 H250 H 0.54800 0.52945 0.67261
 H251 H 0.62691 0.51981 0.71891
 H252 H 0.59210 0.57453 0.72295
 C253 C -0.11199 0.36929 0.11697
 C254 C -0.13730 0.39471 0.14774
 C255 C -0.13466 0.44893 0.14824
 C256 C -0.10687 0.47479 0.11925
 C257 C -0.08193 0.44698 0.08813
 C258 C -0.08629 0.39399 0.08831
 C259 C -0.07072 0.34558 0.06737
 C260 C -0.10022 0.31756 0.09958
 H261 H -0.15351 0.47114 0.17145
 H262 H -0.10513 0.51617 0.12099
 H263 H -0.04051 0.33867 0.07854
 H264 H -0.07659 0.34209 0.02757
 H265 H -0.08697 0.29413 0.12899
 H266 H -0.12329 0.29828 0.07838
 C267 C 0.36080 0.87225 0.57484
 C268 C 0.35427 0.88474 0.62384
 C269 C 0.37420 0.92689 0.64353
 C270 C 0.40276 0.95187 0.61616
 C271 C 0.41250 0.93447 0.56891
 C272 C 0.38953 0.89615 0.54818
 C273 C 0.40045 0.84744 0.52316
 C274 C 0.36896 0.82134 0.55233
 H275 H 0.36868 0.93929 0.68064
 H276 H 0.41859 0.98284 0.63311
 H277 H 0.42973 0.83420 0.53317
 H278 H 0.39440 0.84873 0.48328
 H279 H 0.37998 0.79313 0.57933
 H280 H 0.34480 0.80759 0.52929
 C281 C -0.11839 0.57760 -0.14277
 C282 C -0.13069 0.62779 -0.13353
 C283 C -0.10949 0.65649 -0.09903
 C284 C -0.08063 0.63310 -0.07068
 C285 C -0.07210 0.58058 -0.07639
 C286 C -0.08989 0.55462 -0.11498
 C287 C -0.10973 0.50395 -0.11565
 C288 C -0.14095 0.52914 -0.14613
 H289 H -0.11588 0.69655 -0.09276
 H290 H -0.06616 0.65567 -0.04303
 H291 H -0.11962 0.49186 -0.07880
 H292 H -0.09318 0.47459 -0.13616
 H293 H -0.16899 0.53170 -0.12700
 H294 H -0.14234 0.51422 -0.18414
 C295 C 0.38578 1.07319 0.34111
 C296 C 0.36983 1.12011 0.35527
 C297 C 0.38672 1.14534 0.39561
 C298 C 0.41506 1.12090 0.42400
 C299 C 0.42717 1.07071 0.41263
 C300 C 0.41358 1.04908 0.36910
 C301 C 0.39705 0.99727 0.35947
 C302 C 0.36660 1.02375 0.32874
 H303 H 0.37723 1.18323 0.40625
 H304 H 0.42619 1.14044 0.45592
 H305 H 0.38542 0.97895 0.39301
 H306 H 0.41669 0.97285 0.33757
 H307 H 0.33728 1.02081 0.34439
 H308 H 0.36875 1.01458 0.28916
 C309 C 1.09849 -0.09156 -0.17292
 C310 C 1.13546 -0.10286 -0.15446
 C311 C 1.14483 -0.08014 -0.10863
 C312 C 1.11786 -0.05163 -0.08190
 C313 C 1.08085 -0.04372 -0.10022
 C314 C 1.07242 -0.06167 -0.14694
 C315 C 1.03863 -0.09183 -0.16328
 C316 C 1.06661 -0.12540 -0.19094
 H317 H 1.17189 -0.08722 -0.09069
 H318 H 1.12543 -0.03765 -0.04586
 H319 H 1.01942 -0.06926 -0.18753
 H320 H 1.02407 -0.11198 -0.13270
 H321 H 1.06275 -0.12295 -0.23121
 H322 H 1.06826 -0.16497 -0.17599
 C323 C 0.62023 0.42398 0.35442
 C324 C 0.64011 0.38108 0.37159
 C325 C 0.63492 0.36701 0.42081
 C326 C 0.60672 0.39123 0.44953
 C327 C 0.58375 0.43067 0.42975
 C328 C 0.59293 0.44838 0.38293
 C329 C 0.56774 0.45887 0.33998
 C330 C 0.59765 0.43202 0.30868
 H331 H 0.65135 0.33574 0.43626
 H332 H 0.60211 0.37796 0.48654
 H333 H 0.56534 0.50054 0.33216
 H334 H 0.54000 0.43796 0.34187
 H335 H 0.61240 0.45826 0.28285
 H336 H 0.58700 0.39573 0.29233
 C337 C 0.90407 -0.12378 -0.14514
 C338 C 0.86993 -0.10010 -0.16054
 C339 C 0.86651 -0.04683 -0.15095
 C340 C 0.89417 -0.02074 -0.12273
 C341 C 0.92513 -0.04748 -0.10185
 C342 C 0.93049 -0.09841 -0.11596
 C343 C 0.93879 -0.14492 -0.08616
 C344 C 0.90991 -0.17298 -0.11803
 H345 H 0.84252 -0.02498 -0.16487
 H346 H 0.89015 0.01962 -0.11503
 H347 H 0.92940 -0.14095 -0.04753
 H348 H 0.96864 -0.15877 -0.09121
 H349 H 0.88387 -0.18541 -0.09786
 H350 H 0.92325 -0.20303 -0.14126
 C351 C 0.36221 0.43064 0.38160
 C352 C 0.36146 0.37768 0.37420
 C353 C 0.38782 0.34745 0.40061
 C354 C 0.41647 0.37070 0.42950
 C355 C 0.41987 0.42452 0.43123
 C356 C 0.39102 0.45351 0.40886
 C357 C 0.39351 0.49821 0.37501
 C358 C 0.36181 0.47315 0.34518
 H359 H 0.38696 0.30607 0.39775
 H360 H 0.43710 0.34667 0.44822
 H361 H 0.42136 0.50010 0.35538
 H362 H 0.38439 0.53447 0.39288
 H363 H 0.37125 0.46057 0.30826
 H364 H 0.33444 0.49494 0.34596
 C365 C 0.12004 0.57591 -0.14199
 C366 C 0.14495 0.61381 -0.12335
 C367 C 0.14284 0.62245 -0.07204
 C368 C 0.11422 0.59928 -0.04323
 C369 C 0.08731 0.56583 -0.06429
 C370 C 0.09238 0.55242 -0.11319
 C371 C 0.06349 0.55148 -0.15330
 C372 C 0.09333 0.57747 -0.18498
 H373 H 0.16259 0.64745 -0.05326
 H374 H 0.11260 0.60861 -0.00471
 H375 H 0.03816 0.57603 -0.14555
 H376 H 0.05673 0.51178 -0.16526
 H377 H 0.08540 0.61722 -0.19560
 H378 H 0.10306 0.55267 -0.21557
 C379 C 0.62741 1.06253 0.35622
 C380 C 0.64219 1.11079 0.36748
 C381 C 0.62669 1.13451 0.40977
 C382 C 0.59797 1.11000 0.43807
 C383 C 0.58387 1.06092 0.42507
 C384 C 0.60010 1.03893 0.38363
 C385 C 0.59923 0.99233 0.35232
 C386 C 0.63025 1.01878 0.32131
 H387 H 0.63603 1.17242 0.42055
 H388 H 0.58661 1.12983 0.46965
 H389 H 0.57138 0.98780 0.33301
 H390 H 0.60970 0.95779 0.37197
 H391 H 0.62016 1.02878 0.28399
 H392 H 0.65862 0.99949 0.32311
 C393 C 0.09831 0.36178 0.13457
 C394 C 0.12556 0.38884 0.16184
 C395 C 0.12235 0.44266 0.16341
 C396 C 0.09530 0.46821 0.13390
 C397 C 0.07170 0.44044 0.10139
 C398 C 0.07233 0.38693 0.10468
 C399 C 0.07506 0.34681 0.06592
 C400 C 0.10351 0.31913 0.09882
 H401 H 0.14173 0.46501 0.18584
 H402 H 0.09453 0.50969 0.13439
 H403 H 0.08812 0.36140 0.03159
 H404 H 0.04766 0.32564 0.06117
 H405 H 0.13302 0.31762 0.08358
 H406 H 0.09245 0.28211 0.11308
 C407 C 0.60273 0.90620 0.65929
 C408 C 0.62799 0.87008 0.63966
 C409 C 0.62136 0.85347 0.59133
 C410 C 0.59304 0.87708 0.56228
 C411 C 0.57140 0.91848 0.58073
 C412 C 0.57546 0.93025 0.63040
 C413 C 0.58115 0.98048 0.65553
 C414 C 0.61098 0.95402 0.68729
 H415 H 0.63898 0.82362 0.57548
 H416 H 0.58974 0.86496 0.52465
 H417 H 0.55529 0.99258 0.67622
 H418 H 0.59351 1.01017 0.63106
 H419 H 0.60224 0.95078 0.72621
 H420 H 0.64061 0.96840 0.68129
 C421 C 0.88060 0.07808 0.13659
 C422 C 0.86645 0.12749 0.12795
 C423 C 0.88552 0.15713 0.09227
 C424 C 0.91439 0.13538 0.06279
 C425 C 0.92499 0.08351 0.06839
 C426 C 0.90901 0.05667 0.10762
 C427 C 0.89081 0.00495 0.10903
 C428 C 0.85968 0.02840 0.14081
 H429 H 0.87762 0.19672 0.08622
 H430 H 0.92741 0.15872 0.03464
 H431 H 0.90881 -0.02344 0.12881
 H432 H 0.88029 -0.00773 0.07259
 H433 H 0.85980 0.01349 0.17884
 H434 H 0.83107 0.02936 0.12285
 C435 C 0.36911 0.62465 0.58993
 C436 C 0.35662 0.60579 0.63505
 C437 C 0.37171 0.55825 0.65053
 C438 C 0.40133 0.53411 0.62405
 C439 C 0.41664 0.55716 0.58170
 C440 C 0.39834 0.60114 0.56408
 C441 C 0.41466 0.65126 0.54802
 C442 C 0.38252 0.67702 0.57633
 H443 H 0.36148 0.54038 0.68372
 H444 H 0.41314 0.49856 0.63779
 H445 H 0.41227 0.65673 0.50785
 H446 H 0.44357 0.65870 0.56364
 H447 H 0.36163 0.69720 0.55242
 H448 H 0.39275 0.69940 0.60840
   
