data_POSCAR
  _audit_creation_date              2014-09-24
  _audit_creation_method            'ToBaCCo'
  _symmetry_space_group_name_H-M    'P1'
  _symmetry_Int_Tables_number       1
  _symmetry_cell_setting            triclinic
  loop_
  _symmetry_equiv_pos_as_xyz
 x,y,z
_cell_length_a 34.4886
_cell_length_b 20.9379
_cell_length_c 20.8642
_cell_angle_alpha 89.841500
_cell_angle_beta 90.099100
_cell_angle_gamma 89.903600
loop_
  _atom_site_label
  _atom_site_type_symbol
  _atom_site_fract_x
  _atom_site_fract_y
  _atom_site_fract_z
O1 O 0.05474 0.10837 0.11766
 O2 O 0.09713 0.05146 0.05536
 C3 C 0.08958 0.09188 0.10063
 O4 O -0.05418 -0.11891 0.10869
 O5 O -0.09664 -0.05655 0.05139
 C6 C -0.08905 -0.10183 0.09204
 O7 O 0.05507 -0.11245 0.11532
 O8 O 0.09721 -0.05401 0.05430
 C9 C 0.09003 -0.09572 0.09888
 O10 O -0.05439 0.11511 0.11119
 O11 O -0.09676 0.05441 0.05257
 C12 C -0.08924 0.09860 0.09419
 Zr13 Zr 0.00018 0.07921 0.08105
 O14 O -0.00426 0.07772 0.18223
 O15 O 0.00465 0.18003 0.08208
 Zr16 Zr 0.00035 -0.08234 0.07936
 O17 O -0.00408 -0.08354 0.18055
 O18 O 0.00498 -0.18317 0.07833
 O19 O 0.03480 -0.00175 0.09277
 O20 O -0.03340 -0.00171 0.09192
 O21 O -0.05454 0.11799 -0.11045
 O22 O -0.09683 0.05573 -0.05324
 C23 C -0.08935 0.10100 -0.09387
 O24 O 0.05468 -0.10942 -0.11939
 O25 O 0.09710 -0.05259 -0.05705
 C26 C 0.08953 -0.09298 -0.10235
 O27 O -0.05442 -0.11600 -0.11299
 O28 O -0.09678 -0.05524 -0.05441
 C29 C -0.08927 -0.09942 -0.09604
 O30 O 0.05458 0.11152 -0.11710
 O31 O 0.09705 0.05290 -0.05602
 C32 C 0.08946 0.09454 -0.10044
 Zr33 Zr 0.00007 0.08134 -0.08111
 O34 O -0.00457 0.08249 -0.18230
 O35 O 0.00453 0.18217 -0.08006
 Zr36 Zr 0.00015 -0.08022 -0.08278
 O37 O -0.00448 -0.07886 -0.18396
 O38 O 0.00476 -0.18105 -0.08366
 Zr39 Zr 0.05770 -0.00054 -0.00086
 Zr40 Zr -0.05732 -0.00045 -0.00090
 O41 O -0.03358 0.00075 -0.09370
 O42 O 0.03461 0.00069 -0.09449
 O43 O -0.03439 0.09282 0.00008
 O44 O 0.03394 -0.09300 -0.00183
 O45 O 0.03379 0.09195 0.00011
 O46 O -0.03425 -0.09376 -0.00184
 H47 H -0.05108 -0.00217 0.12930
 H48 H 0.05169 -0.13027 -0.00217
 H49 H -0.05132 0.00125 -0.13109
 H50 H 0.05146 0.12921 0.00049
 H51 H -0.01658 -0.19964 0.05183
 H52 H -0.01684 -0.19819 -0.05773
 H53 H 0.01704 -0.05243 -0.20056
 H54 H 0.01711 0.05674 -0.19943
 H55 H -0.01699 0.19866 -0.05355
 H56 H -0.01696 0.19721 0.05598
 H57 H 0.01739 0.05138 0.19882
 H58 H 0.01760 -0.05784 0.19770
 O59 O 0.55421 0.61201 0.61435
 O60 O 0.59657 0.55503 0.55213
 C61 C 0.58906 0.59582 0.59709
 O62 O 0.44535 0.38406 0.60931
 O63 O 0.40290 0.44667 0.55230
 C64 C 0.41048 0.40152 0.59317
 O65 O 0.55439 0.39109 0.61605
 O66 O 0.59675 0.44865 0.55415
 C67 C 0.58922 0.40782 0.59927
 O68 O 0.44507 0.61808 0.60777
 O69 O 0.40267 0.55661 0.54998
 C70 C 0.41023 0.60137 0.59094
 Zr71 Zr 0.49965 0.58166 0.57854
 O72 O 0.49519 0.58088 0.67974
 O73 O 0.50396 0.68249 0.57883
 Zr74 Zr 0.49975 0.42012 0.57903
 O75 O 0.49582 0.41727 0.68022
 O76 O 0.50192 0.31942 0.57330
 O77 O 0.53423 0.50091 0.59143
 O78 O 0.46606 0.50097 0.59043
 O79 O 0.44497 0.61771 0.38614
 O80 O 0.40267 0.55634 0.44429
 C81 C 0.41013 0.60098 0.40294
 O82 O 0.55420 0.38917 0.38159
 O83 O 0.59656 0.44641 0.44364
 C84 C 0.58905 0.40543 0.39883
 O85 O 0.44518 0.38293 0.38834
 O86 O 0.40269 0.44523 0.44514
 C87 C 0.41031 0.39999 0.40472
 O88 O 0.55422 0.61076 0.37990
 O89 O 0.59664 0.55287 0.44184
 C90 C 0.58908 0.59384 0.39681
 Zr91 Zr 0.49960 0.58153 0.41632
 O92 O 0.49506 0.58148 0.31513
 O93 O 0.50409 0.68237 0.41607
 Zr94 Zr 0.49967 0.42000 0.41701
 O95 O 0.49515 0.42119 0.31579
 O96 O 0.50333 0.31913 0.41666
 Zr97 Zr 0.55720 0.50079 0.49786
 Zr98 Zr 0.44215 0.50091 0.49760
 O99 O 0.46592 0.50074 0.40483
 O100 O 0.53420 0.50065 0.40417
 O101 O 0.46513 0.59416 0.49730
 O102 O 0.53346 0.40834 0.49826
 O103 O 0.53324 0.59328 0.49739
 O104 O 0.46517 0.40773 0.49810
 H105 H 0.44853 0.50113 0.62800
 H106 H 0.55110 0.37094 0.49873
 H107 H 0.44813 0.50056 0.36748
 H108 H 0.55081 0.63067 0.49703
 H109 H 0.50201 0.30365 0.61812
 H110 H 0.48661 0.30349 0.45181
 H111 H 0.51769 0.44507 0.29899
 H112 H 0.51633 0.55454 0.29846
 H113 H 0.48233 0.69926 0.44181
 H114 H 0.48291 0.69930 0.55129
 H115 H 0.51764 0.55667 0.69671
 H116 H 0.51517 0.44771 0.69713
 C117 C 0.18622 0.17927 0.19761
 C118 C 0.19239 0.13287 0.15011
 C119 C 0.16105 0.10429 0.11893
 C120 C 0.12277 0.12143 0.13449
 C121 C 0.11660 0.16741 0.18238
 C122 C 0.14795 0.19600 0.21354
 C123 C 0.21948 0.21055 0.22978
 N124 N 0.21363 0.25592 0.27516
 N125 N 0.24350 0.28470 0.30340
 C126 C 0.28053 0.26936 0.28746
 N127 N 0.28638 0.22386 0.24220
 N128 N 0.25651 0.19508 0.21397
 C129 C 0.31377 0.30208 0.31819
 C130 C 0.35205 0.28657 0.30107
 C131 C 0.38337 0.31812 0.32929
 C132 C 0.37716 0.36597 0.37528
 C133 C 0.33888 0.38121 0.39271
 C134 C 0.30757 0.34964 0.36451
 H135 H 0.22147 0.11873 0.13668
 H136 H 0.16690 0.06890 0.08242
 H137 H 0.08751 0.18169 0.19564
 H138 H 0.14211 0.23148 0.24993
 H139 H 0.35790 0.25016 0.26561
 H140 H 0.41245 0.30511 0.31478
 H141 H 0.33300 0.41768 0.42812
 H142 H 0.27850 0.36277 0.37893
 C143 C 0.81409 0.80136 0.17888
 C144 C 0.85232 0.78535 0.19618
 C145 C 0.88377 0.81648 0.16782
 C146 C 0.87773 0.86439 0.12154
 C147 C 0.83949 0.88006 0.10391
 C148 C 0.80807 0.84892 0.13223
 C149 C 0.78070 0.76918 0.20977
 N150 N 0.74374 0.78517 0.19373
 N151 N 0.71373 0.75691 0.22209
 C152 C 0.71937 0.71142 0.26771
 N153 N 0.75633 0.69531 0.28362
 N154 N 0.78635 0.72357 0.25527
 C155 C 0.68598 0.68062 0.29996
 C156 C 0.69198 0.63394 0.34752
 C157 C 0.66055 0.60566 0.37868
 C158 C 0.62232 0.62335 0.36305
 C159 C 0.61629 0.66969 0.31517
 C160 C 0.64775 0.69800 0.28401
 H161 H 0.85804 0.74890 0.23189
 H162 H 0.91282 0.80315 0.18249
 H163 H 0.83372 0.91659 0.06828
 H164 H 0.77904 0.86243 0.11765
 H165 H 0.72100 0.61931 0.36098
 H166 H 0.66631 0.57000 0.41520
 H167 H 0.58725 0.68440 0.30187
 H168 H 0.64204 0.73373 0.24758
 C169 C 0.81383 0.19856 0.81893
 C170 C 0.80776 0.15084 0.86536
 C171 C 0.83916 0.11942 0.89382
 C172 C 0.87740 0.13497 0.87654
 C173 C 0.88348 0.18302 0.83048
 C174 C 0.85206 0.21442 0.80200
 C175 C 0.78049 0.23106 0.78787
 N176 N 0.78623 0.27679 0.74257
 N177 N 0.75629 0.30536 0.71402
 C178 C 0.71930 0.28945 0.72951
 N179 N 0.71356 0.24385 0.77493
 N180 N 0.74350 0.21528 0.80349
 C181 C 0.68598 0.32054 0.69700
 C182 C 0.64773 0.30335 0.71254
 C183 C 0.61634 0.33186 0.68110
 C184 C 0.62244 0.37823 0.63333
 C185 C 0.66068 0.39577 0.61812
 C186 C 0.69206 0.36727 0.64957
 H187 H 0.77872 0.13745 0.87965
 H188 H 0.83339 0.08279 0.92927
 H189 H 0.91253 0.19627 0.81608
 H190 H 0.85782 0.25097 0.76648
 H191 H 0.64196 0.26759 0.74885
 H192 H 0.58728 0.31725 0.69407
 H193 H 0.66648 0.43145 0.58170
 H194 H 0.72111 0.38176 0.63643
 C195 C 0.18611 0.82000 0.80023
 C196 C 0.19230 0.86608 0.84804
 C197 C 0.16099 0.89449 0.87941
 C198 C 0.12270 0.87751 0.86372
 C199 C 0.11650 0.83180 0.81558
 C200 C 0.14783 0.80338 0.78423
 C201 C 0.21935 0.78899 0.76776
 N202 N 0.21348 0.74396 0.72204
 N203 N 0.24335 0.71548 0.69349
 C204 C 0.28038 0.73079 0.70942
 N205 N 0.28625 0.77595 0.75502
 N206 N 0.25638 0.80443 0.78357
 C207 C 0.31363 0.69840 0.67834
 C208 C 0.35191 0.71390 0.69548
 C209 C 0.38324 0.68265 0.66695
 C210 C 0.37705 0.63513 0.62062
 C211 C 0.33877 0.61993 0.60314
 C212 C 0.30744 0.65119 0.63165
 H213 H 0.22139 0.88012 0.86154
 H214 H 0.16686 0.92965 0.91613
 H215 H 0.08741 0.81765 0.80222
 H216 H 0.14197 0.76813 0.74761
 H217 H 0.35776 0.75005 0.73120
 H218 H 0.41232 0.69563 0.68151
 H219 H 0.33290 0.58369 0.56749
 H220 H 0.27836 0.63809 0.61720
 C221 C 0.18613 0.18360 0.80373
 C222 C 0.19230 0.13632 0.85067
 C223 C 0.16097 0.10732 0.88154
 C224 C 0.12266 0.12486 0.86624
 C225 C 0.11648 0.17184 0.81903
 C226 C 0.14783 0.20086 0.78818
 C227 C 0.21942 0.21500 0.77157
 N228 N 0.21357 0.26091 0.72643
 N229 N 0.24345 0.28952 0.69799
 C230 C 0.28049 0.27348 0.71345
 N231 N 0.28634 0.22750 0.75852
 N232 N 0.25647 0.19889 0.78696
 C233 C 0.31378 0.30579 0.68221
 C234 C 0.35209 0.28951 0.69876
 C235 C 0.38345 0.32039 0.66980
 C236 C 0.37727 0.36836 0.62360
 C237 C 0.33895 0.38445 0.60684
 C238 C 0.30761 0.35356 0.63578
 H239 H 0.22138 0.12174 0.86383
 H240 H 0.16685 0.07120 0.91753
 H241 H 0.08739 0.18650 0.80597
 H242 H 0.14196 0.23703 0.75224
 H243 H 0.35796 0.25294 0.73428
 H244 H 0.41255 0.30672 0.68385
 H245 H 0.33306 0.42106 0.57133
 H246 H 0.27852 0.36731 0.62177
 C247 C 0.81386 0.80531 0.81493
 C248 C 0.80780 0.85200 0.86220
 C249 C 0.83920 0.88268 0.89119
 C250 C 0.87747 0.86746 0.87364
 C251 C 0.88354 0.82052 0.82665
 C252 C 0.85212 0.78984 0.79765
 C253 C 0.78050 0.77334 0.78354
 N254 N 0.78624 0.72842 0.73765
 N255 N 0.75630 0.70014 0.70907
 C256 C 0.71929 0.71554 0.72510
 N257 N 0.71354 0.76038 0.77107
 N258 N 0.74349 0.78866 0.79966
 C259 C 0.68593 0.68446 0.69281
 C260 C 0.64765 0.70094 0.70907
 C261 C 0.61623 0.67212 0.67819
 C262 C 0.62232 0.62613 0.63026
 C263 C 0.66061 0.60944 0.61420
 C264 C 0.69201 0.63824 0.64509
 H265 H 0.77875 0.86509 0.87680
 H266 H 0.83339 0.91848 0.92732
 H267 H 0.91260 0.80753 0.81198
 H268 H 0.85790 0.75410 0.76148
 H269 H 0.64186 0.73629 0.74560
 H270 H 0.58716 0.68610 0.69183
 H271 H 0.66643 0.57410 0.57763
 H272 H 0.72107 0.62429 0.63136
 C273 C 0.18457 0.81819 0.19246
 C274 C 0.14637 0.80185 0.20896
 C275 C 0.11482 0.83057 0.17803
 C276 C 0.12052 0.87668 0.12940
 C277 C 0.15906 0.89309 0.11338
 C278 C 0.19049 0.86427 0.14444
 C279 C 0.21806 0.78707 0.22476
 N280 N 0.25501 0.80247 0.20847
 N281 N 0.28507 0.77412 0.23699
 C282 C 0.27949 0.72911 0.28307
 N283 N 0.24254 0.71380 0.29945
 N284 N 0.21249 0.74215 0.27093
 C285 C 0.31298 0.69699 0.31435
 C286 C 0.30708 0.65009 0.36168
 C287 C 0.33857 0.61919 0.39051
 C288 C 0.37679 0.63442 0.37277
 C289 C 0.38272 0.68161 0.32575
 C290 C 0.35120 0.71249 0.29688
 H291 H 0.14072 0.76657 0.24581
 H292 H 0.08596 0.81615 0.19246
 H293 H 0.16528 0.92824 0.07660
 H294 H 0.21952 0.87813 0.13052
 H295 H 0.27807 0.63696 0.37642
 H296 H 0.33287 0.58322 0.42668
 H297 H 0.41174 0.69460 0.31094
 H298 H 0.35686 0.74840 0.26066
 C299 C 0.81389 0.19434 0.18274
 C300 C 0.80783 0.14755 0.13557
 C301 C 0.83922 0.11669 0.10676
 C302 C 0.87750 0.13183 0.12440
 C303 C 0.88357 0.17886 0.17131
 C304 C 0.85216 0.20971 0.20013
 C305 C 0.78053 0.22655 0.21388
 N306 N 0.78627 0.27163 0.25962
 N307 N 0.75632 0.30013 0.28796
 C308 C 0.71931 0.28482 0.27182
 N309 N 0.71357 0.23981 0.22600
 N310 N 0.74352 0.21131 0.19766
 C311 C 0.68595 0.31615 0.30383
 C312 C 0.64767 0.29971 0.28750
 C313 C 0.61625 0.32875 0.31814
 C314 C 0.62233 0.37493 0.36588
 C315 C 0.66061 0.39160 0.38200
 C316 C 0.69201 0.36257 0.35136
 H317 H 0.77878 0.13453 0.12089
 H318 H 0.83342 0.08084 0.07069
 H319 H 0.91264 0.19178 0.18604
 H320 H 0.85794 0.24552 0.23623
 H321 H 0.64189 0.26421 0.25111
 H322 H 0.58718 0.31478 0.30445
 H323 H 0.66641 0.42708 0.41843
 H324 H 0.72107 0.37650 0.36513
   
