data_POSCAR
  _audit_creation_date              2014-09-24
  _audit_creation_method            'ToBaCCo'
  _symmetry_space_group_name_H-M    'P1'
  _symmetry_Int_Tables_number       1
  _symmetry_cell_setting            triclinic
  loop_
  _symmetry_equiv_pos_as_xyz
 x,y,z
_cell_length_a 37.0339
_cell_length_b 37.2929
_cell_length_c 37.6846
_cell_angle_alpha 90.100200
_cell_angle_beta 92.137400
_cell_angle_gamma 89.849100
loop_
  _atom_site_label
  _atom_site_type_symbol
  _atom_site_fract_x
  _atom_site_fract_y
  _atom_site_fract_z
C1 C 0.03218 0.43754 0.22722
 H2 H 0.04948 0.44363 0.25004
 C3 C 0.03782 0.40577 0.20867
 H4 H 0.06023 0.38906 0.21761
 C5 C -0.01540 0.45386 0.18700
 H6 H -0.03563 0.47310 0.17815
 C7 C -0.01095 0.42222 0.16770
 H8 H -0.02955 0.41752 0.14544
 N9 N 0.00499 0.46024 0.21705
 C10 C -0.03242 0.56826 0.22670
 H11 H -0.05048 0.56353 0.24807
 C12 C -0.03228 0.60164 0.21018
 H13 H -0.05101 0.62210 0.21843
 C14 C 0.01465 0.54763 0.19083
 H15 H 0.03355 0.52669 0.18428
 C16 C 0.01580 0.58078 0.17364
 H17 H 0.03566 0.58510 0.15374
 Zn18 Zn -0.00516 0.50088 0.24574
 N19 N -0.00877 0.54232 0.21726
 C20 C 0.05636 0.53541 0.27563
 N21 N 0.03330 0.50756 0.27998
 C22 C 0.03924 0.48319 0.30640
 C23 C 0.07049 0.48508 0.32827
 C24 C 0.08798 0.53818 0.29667
 C25 C -0.07924 0.48516 0.24752
 C26 C -0.11315 0.48213 0.26203
 C27 C -0.08650 0.49880 0.31910
 C28 C -0.05290 0.50121 0.30348
 N29 N -0.04987 0.49446 0.26820
 H30 H 0.05123 0.55472 0.25475
 H31 H 0.02045 0.46134 0.30945
 H32 H 0.07514 0.46492 0.34856
 H33 H 0.10686 0.55938 0.29117
 H34 H -0.07668 0.48063 0.21951
 H35 H -0.13595 0.47432 0.24496
 H36 H -0.08851 0.50532 0.34695
 H37 H -0.02954 0.50958 0.31937
 C38 C -0.00733 0.60856 0.18390
 C39 C 0.01528 0.39663 0.17898
 C40 C -0.11729 0.48942 0.29820
 C41 C 0.09593 0.51227 0.32282
 C42 C 0.02587 0.54347 0.80802
 H43 H 0.04385 0.52191 0.81615
 C44 C 0.02583 0.57538 0.82765
 H45 H 0.04362 0.57762 0.85097
 C46 C -0.02018 0.56587 0.76895
 H47 H -0.03864 0.56239 0.74657
 C48 C -0.02037 0.59841 0.78701
 H49 H -0.03812 0.61933 0.77678
 N50 N 0.00371 0.53962 0.77864
 C51 C 0.03097 0.42933 0.76878
 H52 H 0.04969 0.43246 0.74771
 C53 C 0.03001 0.39700 0.78721
 H54 H 0.04827 0.37559 0.78025
 C55 C -0.01690 0.45260 0.80205
 H56 H -0.03529 0.47438 0.80733
 C57 C -0.01909 0.42042 0.82089
 H58 H -0.03900 0.41766 0.84102
 Zn59 Zn 0.00848 0.49865 0.74878
 N60 N 0.00780 0.45635 0.77648
 C61 C 0.08390 0.49936 0.74853
 N62 N 0.05375 0.50161 0.72691
 C63 C 0.05624 0.50574 0.69125
 C64 C 0.09004 0.50857 0.67621
 C65 C 0.11816 0.50129 0.73458
 C66 C -0.05400 0.46903 0.71546
 C67 C -0.08631 0.46938 0.69523
 C68 C -0.06921 0.52637 0.67094
 C69 C -0.03682 0.52439 0.69109
 N70 N -0.03068 0.49699 0.71429
 H71 H 0.08140 0.49513 0.77666
 H72 H 0.03213 0.50698 0.67432
 H73 H 0.09121 0.51287 0.64789
 H74 H 0.14159 0.49829 0.75237
 H75 H -0.04852 0.44702 0.73345
 H76 H -0.10473 0.44758 0.69970
 H77 H -0.07272 0.54894 0.65319
 H78 H -0.01743 0.54594 0.68967
 C79 C 0.00461 0.39215 0.81347
 C80 C 0.00312 0.60391 0.81666
 C81 C -0.09571 0.49927 0.67357
 C82 C 0.12170 0.50625 0.69794
 C83 C 0.21164 0.03641 0.45021
 H84 H 0.22564 0.05959 0.46100
 C85 C 0.19303 0.03908 0.41739
 H86 H 0.19289 0.06439 0.40335
 C87 C 0.19450 -0.02440 0.45540
 H88 H 0.19540 -0.04928 0.46990
 C89 C 0.17552 -0.02290 0.42268
 H90 H 0.16242 -0.04688 0.41240
 N91 N 0.21295 0.00472 0.46810
 C92 C 0.23674 -0.00614 0.58201
 H93 H 0.26554 -0.01088 0.58144
 C94 C 0.21969 -0.00554 0.61435
 H95 H 0.23548 -0.01012 0.63870
 C96 C 0.18122 0.00559 0.55075
 H97 H 0.16653 0.01019 0.52583
 C98 C 0.16291 0.00591 0.58260
 H99 H 0.13408 0.01091 0.58209
 Zn100 Zn 0.24422 0.00061 0.50932
 N101 N 0.21755 0.00005 0.55116
 C102 C 0.27470 0.06421 0.53854
 N103 N 0.27605 0.04090 0.51080
 C104 C 0.29678 0.04802 0.48257
 C105 C 0.31604 0.08020 0.48096
 C106 C 0.29382 0.09637 0.53821
 C107 C 0.25010 -0.07347 0.51479
 C108 C 0.26573 -0.10745 0.51333
 C109 C 0.32233 -0.07976 0.49943
 C110 C 0.30543 -0.04614 0.50079
 N111 N 0.26971 -0.04368 0.50777
 H112 H 0.25774 0.05870 0.56052
 H113 H 0.29687 0.02952 0.46043
 H114 H 0.33092 0.08602 0.45748
 H115 H 0.29205 0.11445 0.56059
 H116 H 0.22217 -0.07082 0.52177
 H117 H 0.24953 -0.13078 0.51888
 H118 H 0.35061 -0.08140 0.49326
 H119 H 0.32084 -0.02219 0.49604
 C120 C 0.18237 0.00082 0.61493
 C121 C 0.17535 0.00892 0.40280
 C122 C 0.30221 -0.11097 0.50527
 C123 C 0.31411 0.10528 0.50875
 C124 C 0.82040 0.00572 0.53528
 H125 H 0.83445 0.01042 0.51117
 C126 C 0.83990 0.00515 0.56782
 H127 H 0.86879 0.00961 0.56835
 C128 C 0.76633 -0.00785 0.56402
 H129 H 0.73793 -0.01436 0.56235
 C130 C 0.78462 -0.00857 0.59691
 H131 H 0.76957 -0.01408 0.62036
 N132 N 0.78412 -0.00031 0.53404
 C133 C 0.77899 -0.03079 0.42716
 H134 H 0.75963 -0.05159 0.43223
 C135 C 0.79722 -0.03149 0.39549
 H136 H 0.79032 -0.05280 0.37704
 C137 C 0.80741 0.02359 0.44405
 H138 H 0.81063 0.04544 0.46281
 C139 C 0.82653 0.02388 0.41276
 H140 H 0.84546 0.04547 0.40935
 Zn141 Zn 0.75537 -0.00230 0.49134
 N142 N 0.78414 -0.00348 0.45066
 C143 C 0.72381 0.05944 0.45934
 N144 N 0.72384 0.03815 0.48864
 C145 C 0.70327 0.04660 0.51665
 C146 C 0.68354 0.07855 0.51687
 C147 C 0.70436 0.09156 0.45836
 C148 C 0.74914 -0.07499 0.50197
 C149 C 0.73266 -0.10831 0.50465
 C150 C 0.67526 -0.08039 0.48893
 C151 C 0.69289 -0.04735 0.48688
 N152 N 0.72921 -0.04543 0.49329
 H153 H 0.73942 0.05196 0.43684
 H154 H 0.70286 0.02920 0.53941
 H155 H 0.66881 0.08549 0.54020
 H156 H 0.70520 0.10833 0.43499
 H157 H 0.77801 -0.07257 0.50681
 H158 H 0.74906 -0.13161 0.51128
 H159 H 0.64633 -0.08172 0.48386
 H160 H 0.67770 -0.02338 0.48006
 C161 C 0.82144 -0.00374 0.38729
 C162 C 0.82194 -0.00219 0.59918
 C163 C 0.69528 -0.11131 0.49809
 C164 C 0.68462 0.10197 0.48779
 C165 C 0.54611 0.20585 0.97550
 H166 H 0.52504 0.19972 0.95578
 C167 C 0.57878 0.18699 0.97567
 H168 H 0.58210 0.16573 0.95649
 C169 C 0.56709 0.24116 1.02428
 H170 H 0.56284 0.26293 1.04262
 C171 C 0.60033 0.22351 1.02500
 H172 H 0.62119 0.23221 1.04394
 N173 N 0.54073 0.23204 0.99989
 C174 C 0.42448 0.24797 1.00157
 H175 H 0.42471 0.27698 1.00086
 C176 C 0.39189 0.22984 1.00390
 H177 H 0.36745 0.24578 1.00367
 C178 C 0.45684 0.19322 1.00076
 H179 H 0.48232 0.17912 1.00044
 C180 C 0.42469 0.17382 1.00275
 H181 H 0.42655 0.14493 1.00440
 Zn182 Zn 0.49741 0.25899 0.99778
 N183 N 0.45604 0.22963 0.99977
 C184 C 0.47035 0.27591 0.92914
 N185 N 0.49597 0.28467 0.95446
 C186 C 0.52250 0.30861 0.94774
 C187 C 0.52401 0.32467 0.91429
 C188 C 0.47099 0.29109 0.89541
 C189 C 0.49341 0.27083 1.06904
 C190 C 0.49051 0.28917 1.10097
 C191 C 0.49310 0.34509 1.06883
 C192 C 0.49569 0.32553 1.03723
 N193 N 0.49593 0.28905 1.03805
 H194 H 0.45004 0.25616 0.93455
 H195 H 0.54306 0.31446 0.96806
 H196 H 0.54577 0.34304 0.90905
 H197 H 0.45054 0.28349 0.87553
 H198 H 0.49350 0.24182 1.06881
 H199 H 0.48887 0.27404 1.12536
 H200 H 0.49268 0.37411 1.06796
 H201 H 0.49715 0.33944 1.01219
 C202 C 0.39125 0.19200 1.00451
 C203 C 0.60662 0.19589 1.00055
 C204 C 0.49014 0.32676 1.10117
 C205 C 0.49833 0.31543 0.88747
 C206 C 0.44293 0.78705 0.97408
 H207 H 0.45923 0.78938 0.95096
 C208 C 0.40862 0.80290 0.97398
 H209 H 0.39957 0.81664 0.95006
 C210 C 0.43480 0.76299 1.03113
 H211 H 0.44461 0.74693 1.05326
 C212 C 0.40066 0.77871 1.03245
 H213 H 0.38645 0.77549 1.05673
 N214 N 0.45513 0.76703 1.00215
 C215 C 0.57268 0.75589 1.00302
 H216 H 0.57427 0.72780 1.00993
 C217 C 0.60432 0.77586 1.00159
 H218 H 0.63008 0.76275 1.00691
 C219 C 0.53707 0.80737 0.98996
 H220 H 0.51079 0.81959 0.98574
 C221 C 0.56822 0.82856 0.98864
 H222 H 0.56568 0.85692 0.98294
 Zn223 Zn 0.49926 0.74069 0.99965
 N224 N 0.53989 0.77156 0.99655
 C225 C 0.52681 0.69430 0.94680
 N226 N 0.49637 0.70983 0.95903
 C227 C 0.46399 0.70576 0.94117
 C228 C 0.46176 0.68736 0.90882
 C229 C 0.52581 0.67567 0.91455
 C230 C 0.51502 0.73367 1.07171
 C231 C 0.51844 0.71708 1.10477
 C232 C 0.50485 0.66032 1.07633
 C233 C 0.50167 0.67809 1.04364
 N234 N 0.50627 0.71421 1.04211
 H235 H 0.55225 0.69729 0.96130
 H236 H 0.43982 0.71733 0.95161
 H237 H 0.43581 0.68499 0.89484
 H238 H 0.55070 0.66497 0.90463
 H239 H 0.51837 0.76239 1.06968
 H240 H 0.52412 0.73342 1.12808
 H241 H 0.50080 0.63160 1.07721
 H242 H 0.49480 0.66322 1.01967
 C243 C 0.60241 0.81263 0.99409
 C244 C 0.38618 0.79855 1.00330
 C245 C 0.51297 0.67997 1.10753
 C246 C 0.49311 0.67273 0.89466
 B247 B 1.00019 1.03950 0.02232
 B248 B 1.02085 1.00140 0.03955
 B249 B 0.97450 1.00385 0.03657
 B250 B 0.96222 1.02596 -0.00208
 B251 B 1.00099 1.03754 -0.02318
 B252 B 1.03773 1.02204 0.00227
 B253 B 0.99792 0.96235 -0.02058
 B254 B 0.97654 1.00084 -0.03793
 B255 B 1.02282 0.99847 -0.03498
 B256 B 1.03527 0.97581 0.00460
 B257 B 0.99620 0.96463 0.02519
 B258 B 0.95953 0.98000 -0.00084
 B259 B 0.53880 0.49992 0.47547
 B260 B 0.50040 0.52343 0.46192
 B261 B 0.50069 0.47726 0.46024
 B262 B 0.52548 0.46162 0.49813
 B263 B 0.54018 0.49938 0.52169
 B264 B 0.52452 0.53701 0.49997
 B265 B 0.46438 0.49854 0.52081
 B266 B 0.50273 0.47535 0.53478
 B267 B 0.50223 0.52141 0.53606
 B268 B 0.47763 0.53661 0.49892
 B269 B 0.46329 0.49967 0.47485
 B270 B 0.47872 0.46157 0.49692
 C271 C 1.01952 1.29326 0.13037
 C272 C 1.03419 1.29888 0.16474
 C273 C 1.03347 1.33281 0.18034
 C274 C 1.01810 1.36258 0.16203
 C275 C 1.00446 1.35677 0.12692
 C276 C 1.00512 1.32268 0.11144
 C277 C 1.01814 1.25658 0.11494
 C278 C 1.02436 1.25079 0.07879
 C279 C 1.02220 1.21627 0.06435
 C280 C 1.01393 1.18683 0.08578
 C281 C 1.00793 1.19257 0.12192
 C282 C 1.00992 1.22705 0.13630
 C283 C 1.01064 1.15035 0.07038
 C284 C 1.02441 1.12051 0.08878
 C285 C 1.02017 1.08609 0.07465
 C286 C 1.00233 1.07970 0.04131
 C287 C 0.98736 1.11039 0.02426
 C288 C 0.99181 1.14488 0.03806
 H289 H 1.04593 1.27684 0.17990
 H290 H 1.04339 1.33468 0.20760
 H291 H 0.99373 1.37844 0.11068
 H292 H 0.99357 1.31925 0.08483
 H293 H 1.03121 1.27291 0.06174
 H294 H 1.02728 1.21251 0.03647
 H295 H 1.00082 1.17050 0.13891
 H296 H 1.00422 1.23066 0.16405
 H297 H 1.03826 1.12367 0.11442
 H298 H 1.02847 1.06485 0.09175
 H299 H 0.97008 1.10833 0.00108
 H300 H 0.97932 1.16723 0.02392
 C301 C 1.00065 0.71489 0.14034
 C302 C 1.00396 0.68459 0.11839
 C303 C 1.00151 0.65004 0.13244
 C304 C 0.99562 0.64508 0.16871
 C305 C 0.99280 0.67539 0.19069
 C306 C 0.99523 0.70986 0.17667
 C307 C 1.00160 0.75162 0.12530
 C308 C 1.01910 0.77967 0.14403
 C309 C 1.01841 0.81458 0.13052
 C310 C 1.00011 0.82213 0.09807
 C311 C 0.98323 0.79394 0.07906
 C312 C 0.98391 0.75912 0.09254
 C313 C 0.99825 0.85916 0.08387
 C314 C 0.96623 0.87194 0.06771
 C315 C 0.96512 0.90529 0.05117
 C316 C 0.99585 0.92742 0.04936
 C317 C 1.02708 0.91512 0.06863
 C318 C 1.02845 0.88161 0.08520
 H319 H 1.00854 0.68761 0.09034
 H320 H 1.00367 0.62723 0.11483
 H321 H 0.98891 0.67247 0.21887
 H322 H 0.99217 0.73262 0.19420
 H323 H 1.03333 0.77462 0.16915
 H324 H 1.03158 0.83577 0.14578
 H325 H 0.96946 0.79882 0.05366
 H326 H 0.96988 0.73821 0.07763
 H327 H 0.94198 0.85574 0.06712
 H328 H 0.93996 0.91191 0.03787
 H329 H 1.05129 0.93089 0.07098
 H330 H 1.05358 0.87286 0.09804
 C331 C 0.99920 1.28801 -0.13793
 C332 C 1.03254 1.30547 -0.14110
 C333 C 1.03414 1.33959 -0.15610
 C334 C 1.00245 1.35725 -0.16799
 C335 C 0.96897 1.34046 -0.16375
 C336 C 0.96736 1.30612 -0.14897
 C337 C 0.99795 1.25078 -0.12393
 C338 C 0.97027 1.23987 -0.10179
 C339 C 0.96988 1.20502 -0.08807
 C340 C 0.99728 1.18050 -0.09604
 C341 C 1.02454 1.19116 -0.11863
 C342 C 1.02479 1.22581 -0.13254
 C343 C 0.99840 1.14438 -0.07975
 C344 C 1.03076 1.13090 -0.06498
 C345 C 1.03196 1.09741 -0.04861
 C346 C 1.00117 1.07550 -0.04620
 C347 C 0.96894 1.08947 -0.06250
 C348 C 0.96744 1.12320 -0.07862
 H349 H 1.05750 1.29271 -0.13204
 H350 H 1.06026 1.35217 -0.15856
 H351 H 0.94415 1.35336 -0.17303
 H352 H 0.94128 1.29333 -0.14723
 H353 H 0.94940 1.25851 -0.09434
 H354 H 0.94876 1.19754 -0.07041
 H355 H 1.04567 1.17258 -0.12562
 H356 H 1.04599 1.23298 -0.15021
 H357 H 1.05526 1.14669 -0.06537
 H358 H 1.05765 1.08990 -0.03823
 H359 H 0.94457 1.07433 -0.06372
 H360 H 0.94207 1.13253 -0.09055
 C361 C 1.00709 0.70917 -0.13449
 C362 C 1.03753 0.68645 -0.13270
 C363 C 1.03629 0.65228 -0.14816
 C364 C 1.00428 0.63946 -0.16501
 C365 C 0.97360 0.66179 -0.16570
 C366 C 0.97523 0.69627 -0.15153
 C367 C 1.00805 0.74590 -0.11853
 C368 C 0.97625 0.76153 -0.10629
 C369 C 0.97639 0.79607 -0.09234
 C370 C 1.00867 0.81572 -0.08827
 C371 C 1.04068 0.80017 -0.10023
 C372 C 1.04029 0.76589 -0.11557
 C373 C 1.00826 0.85167 -0.07079
 C374 C 1.03314 0.87870 -0.07804
 C375 C 1.03080 0.91231 -0.06143
 C376 C 1.00146 0.92208 -0.04003
 C377 C 0.98027 0.89280 -0.03025
 C378 C 0.98303 0.85888 -0.04511
 H379 H 1.06243 0.69487 -0.11929
 H380 H 1.06073 0.63631 -0.14738
 H381 H 0.94805 0.65290 -0.17738
 H382 H 0.95132 0.71284 -0.15451
 H383 H 0.95094 0.74712 -0.10701
 H384 H 0.95084 0.80722 -0.08465
 H385 H 1.06620 0.81410 -0.09738
 H386 H 1.06531 0.75529 -0.12523
 H387 H 1.05494 0.87396 -0.09579
 H388 H 1.05393 0.92951 -0.06342
 H389 H 0.96102 0.89479 -0.01073
 H390 H 0.96542 0.83813 -0.03568
 C391 C 1.12892 1.00901 0.29603
 C392 C 1.11133 0.99148 0.32350
 C393 C 1.12597 0.99197 0.35826
 C394 C 1.15851 1.01004 0.36637
 C395 C 1.17578 1.02803 0.33899
 C396 C 1.16116 1.02753 0.30426
 C397 C 1.11411 1.00742 0.25883
 C398 C 1.11514 1.03767 0.23667
 C399 C 1.10156 1.03599 0.20158
 C400 C 1.08662 1.00403 0.18784
 C401 C 1.08566 0.97376 0.20996
 C402 C 1.09925 0.97543 0.24503
 C403 C 1.07143 1.00241 0.15082
 C404 C 1.03902 0.98447 0.14309
 C405 C 1.02416 0.98374 0.10856
 C406 C 1.04078 1.00069 0.07980
 C407 C 1.07362 1.01853 0.08846
 C408 C 1.08870 1.01931 0.12303
 H409 H 1.08612 0.97750 0.31815
 H410 H 1.11175 0.97828 0.37883
 H411 H 1.20122 1.04165 0.34418
 H412 H 1.17567 1.04084 0.28364
 H413 H 1.12595 1.06285 0.24664
 H414 H 1.10212 1.05993 0.18539
 H415 H 1.07480 0.94860 0.20000
 H416 H 1.09865 0.95147 0.26118
 H417 H 1.02464 0.97138 0.16393
 H418 H 0.99965 0.96882 0.10504
 H419 H 1.08731 1.03397 0.06947
 H420 H 1.11383 1.03355 0.12803
 C421 C 1.13193 1.00338 -0.28405
 C422 C 1.16350 1.02309 -0.28944
 C423 C 1.17962 1.02245 -0.32236
 C424 C 1.16425 1.00247 -0.35070
 C425 C 1.13220 0.98343 -0.34561
 C426 C 1.11634 0.98364 -0.31248
 C427 C 1.11593 1.00281 -0.24858
 C428 C 1.10582 0.97021 -0.23333
 C429 C 1.09197 0.96946 -0.19934
 C430 C 1.08746 1.00137 -0.17998
 C431 C 1.09723 1.03405 -0.19555
 C432 C 1.11152 1.03472 -0.22936
 C433 C 1.07227 1.00046 -0.14394
 C434 C 1.08348 1.02475 -0.11744
 C435 C 1.06824 1.02421 -0.08404
 C436 C 1.04299 0.99803 -0.07417
 C437 C 1.03028 0.97579 -0.10266
 C438 C 1.04496 0.97628 -0.13620
 H439 H 1.17618 1.03833 -0.26792
 H440 H 1.20417 1.03760 -0.32570
 H441 H 1.11994 0.96770 -0.36701
 H442 H 1.09185 0.96842 -0.30903
 H443 H 1.10942 0.94518 -0.24740
 H444 H 1.08530 0.94376 -0.18802
 H445 H 1.09338 1.05924 -0.18187
 H446 H 1.11876 1.06025 -0.24072
 H447 H 1.10378 1.04474 -0.12253
 H448 H 1.07602 1.04568 -0.06705
 H449 H 1.00676 0.95919 -0.10032
 H450 H 1.03353 0.95874 -0.15658
 C451 C 0.86906 0.99860 0.28596
 C452 C 0.86690 1.02993 0.30633
 C453 C 0.85192 1.02918 0.33982
 C454 C 0.83883 0.99685 0.35415
 C455 C 0.84262 0.96524 0.33372
 C456 C 0.85717 0.96624 0.30011
 C457 C 0.88287 0.99976 0.24965
 C458 C 0.86366 0.98299 0.22144
 C459 C 0.87623 0.98451 0.18700
 C460 C 0.90855 1.00249 0.18010
 C461 C 0.92790 1.01900 0.20852
 C462 C 0.91504 1.01787 0.24288
 C463 C 0.92217 1.00397 0.14352
 C464 C 0.93945 1.03457 0.13141
 C465 C 0.95366 1.03535 0.09765
 C466 C 0.95167 1.00592 0.07401
 C467 C 0.93201 0.97634 0.08638
 C468 C 0.91795 0.97501 0.12022
 H469 H 0.87563 1.05534 0.29576
 H470 H 0.84907 1.05460 0.35319
 H471 H 0.83525 0.93920 0.34362
 H472 H 0.85940 0.94152 0.28519
 H473 H 0.83851 0.96927 0.22597
 H474 H 0.86029 0.97208 0.16572
 H475 H 0.95326 1.03243 0.20431
 H476 H 0.93050 1.03068 0.26429
 H477 H 0.94191 1.05826 0.14797
 H478 H 0.96531 1.05995 0.09109
 H479 H 0.92633 0.95395 0.07016
 H480 H 0.90432 0.95084 0.12819
 C481 C 0.87392 0.99735 -0.29684
 C482 C 0.84785 0.97149 -0.30630
 C483 C 0.83200 0.97093 -0.34042
 C484 C 0.84156 0.99648 -0.36578
 C485 C 0.86865 1.02158 -0.35671
 C486 C 0.88478 1.02193 -0.32253
 C487 C 0.88849 0.99934 -0.25982
 C488 C 0.92574 1.00280 -0.25240
 C489 C 0.93921 1.00384 -0.21725
 C490 C 0.91560 1.00185 -0.18889
 C491 C 0.87829 0.99901 -0.19650
 C492 C 0.86492 0.99760 -0.23156
 C493 C 0.92977 1.00248 -0.15153
 C494 C 0.91428 0.98132 -0.12565
 C495 C 0.92774 0.98193 -0.09057
 C496 C 0.95770 1.00272 -0.07921
 C497 C 0.97207 1.02466 -0.10616
 C498 C 0.95859 1.02460 -0.14122
 H499 H 0.83956 0.95180 -0.28716
 H500 H 0.81195 0.95063 -0.34685
 H501 H 0.87642 1.04174 -0.37558
 H502 H 0.90476 1.04222 -0.31576
 H503 H 0.94445 1.00393 -0.27378
 H504 H 0.96814 1.00554 -0.21228
 H505 H 0.85930 0.99826 -0.17536
 H506 H 0.83601 0.99556 -0.23663
 H507 H 0.89132 0.96436 -0.13232
 H508 H 0.91153 0.96884 -0.07262
 H509 H 0.99570 1.04077 -0.10166
 H510 H 0.97111 1.04182 -0.16030
 C511 C 1.29021 1.13783 0.00681
 C512 C 1.32035 1.12082 -0.00730
 C513 C 1.35382 1.13814 -0.00735
 C514 C 1.35803 1.17322 0.00646
 C515 C 1.32773 1.18945 0.02167
 C516 C 1.29450 1.17202 0.02185
 C517 C 1.25413 1.12055 0.00527
 C518 C 1.22300 1.14115 -0.00254
 C519 C 1.18887 1.12541 -0.00329
 C520 C 1.18505 1.08867 0.00362
 C521 C 1.21614 1.06785 0.01085
 C522 C 1.25037 1.08366 0.01171
 C523 C 1.14865 1.07231 0.00341
 C524 C 1.14201 1.03940 -0.01329
 C525 C 1.10744 1.02457 -0.01406
 C526 C 1.07806 1.04128 0.00256
 C527 C 1.08551 1.07508 0.01830
 C528 C 1.11998 1.09011 0.01898
 H529 H 1.31778 1.09456 -0.01942
 H530 H 1.37563 1.12451 -0.02014
 H531 H 1.32955 1.21533 0.03457
 H532 H 1.27208 1.18535 0.03403
 H533 H 1.22505 1.16947 -0.00843
 H534 H 1.16544 1.14194 -0.00967
 H535 H 1.21389 1.03951 0.01653
 H536 H 1.27381 1.06717 0.01813
 H537 H 1.16339 1.02537 -0.02645
 H538 H 1.10391 0.99954 -0.02818
 H539 H 1.06498 1.09168 0.02835
 H540 H 1.12409 1.11596 0.03161
 C541 C 0.71190 1.14555 -0.00001
 C542 C 0.69718 1.15690 0.03201
 C543 C 0.66278 1.17230 0.03226
 C544 C 0.64237 1.17746 0.00044
 C545 C 0.65694 1.16584 -0.03155
 C546 C 0.69108 1.14982 -0.03173
 C547 C 0.74889 1.12977 -0.00035
 C548 C 0.77119 1.13576 -0.02921
 C549 C 0.80573 1.12069 -0.02973
 C550 C 0.81902 1.09998 -0.00110
 C551 C 0.79722 1.09430 0.02798
 C552 C 0.76238 1.10874 0.02822
 C553 C 0.85514 1.08337 -0.00207
 C554 C 0.88064 1.08847 0.02567
 C555 C 0.91444 1.07185 0.02486
 C556 C 0.92420 1.04929 -0.00340
 C557 C 0.89737 1.04416 -0.03057
 C558 C 0.86390 1.06132 -0.03039
 H559 H 0.71245 1.15452 0.05694
 H560 H 0.65227 1.18022 0.05752
 H561 H 0.64235 1.16972 -0.05667
 H562 H 0.70111 1.14079 -0.05684
 H563 H 0.76219 1.15244 -0.05131
 H564 H 0.82230 1.12552 -0.05232
 H565 H 0.80688 1.07795 0.05011
 H566 H 0.74586 1.10288 0.05056
 H567 H 0.87441 1.10538 0.04805
 H568 H 0.93233 1.07686 0.04695
 H569 H 0.90131 1.02656 -0.05210
 H570 H 0.84433 1.05637 -0.05192
 C571 C 1.27908 0.84237 0.00457
 C572 C 1.28953 0.81410 0.02721
 C573 C 1.32432 0.79955 0.02654
 C574 C 1.35037 0.81303 0.00343
 C575 C 1.33931 0.84127 -0.01957
 C576 C 1.30433 0.85546 -0.01909
 C577 C 1.24245 0.85890 0.00641
 C578 C 1.23789 0.89601 0.00162
 C579 C 1.20394 0.91189 0.00417
 C580 C 1.17351 0.89131 0.01219
 C581 C 1.17786 0.85411 0.01667
 C582 C 1.21191 0.83809 0.01372
 C583 C 1.13776 0.90921 0.01564
 C584 C 1.10517 0.89281 0.00482
 C585 C 1.07271 0.91233 0.00463
 C586 C 1.07190 0.94976 0.01133
 C587 C 1.10351 0.96265 0.02900
 C588 C 1.13592 0.94362 0.03014
 H589 H 1.27096 0.80338 0.04597
 H590 H 1.32988 0.77693 0.04374
 H591 H 1.35770 0.85380 -0.03731
 H592 H 1.29716 0.87693 -0.03735
 H593 H 1.26070 0.91306 -0.00351
 H594 H 1.20158 0.94050 -0.00027
 H595 H 1.15516 0.83740 0.02304
 H596 H 1.21423 0.80935 0.01707
 H597 H 1.10453 0.86508 -0.00369
 H598 H 1.04843 0.89703 0.00088
 H599 H 1.10480 0.98848 0.04051
 H600 H 1.15973 0.95628 0.04202
 C601 C 0.70242 0.87135 -0.00802
 C602 C 0.67279 0.88555 0.00965
 C603 C 0.63988 0.86707 0.00955
 C604 C 0.63618 0.83381 -0.00779
 C605 C 0.66567 0.81993 -0.02583
 C606 C 0.69833 0.83851 -0.02604
 C607 C 0.73788 0.88995 -0.00710
 C608 C 0.75803 0.89206 -0.03787
 C609 C 0.79250 0.90722 -0.03665
 C610 C 0.80786 0.92045 -0.00454
 C611 C 0.78730 0.91922 0.02609
 C612 C 0.75265 0.90420 0.02480
 C613 C 0.84539 0.93477 -0.00303
 C614 C 0.85452 0.96506 0.01725
 C615 C 0.88963 0.97884 0.01760
 C616 C 0.91773 0.96293 -0.00174
 C617 C 0.90712 0.93303 -0.02262
 C618 C 0.87225 0.91890 -0.02292
 H619 H 0.67511 0.91093 0.02354
 H620 H 0.61764 0.87826 0.02384
 H621 H 0.66350 0.79449 -0.03965
 H622 H 0.72075 0.82671 -0.03961
 H623 H 0.74710 0.88187 -0.06296
 H624 H 0.80713 0.90861 -0.06095
 H625 H 0.79841 0.92890 0.05129
 H626 H 0.73788 0.90264 0.04901
 H627 H 0.83431 0.97875 0.03233
 H628 H 0.89399 1.00242 0.03350
 H629 H 0.92391 0.92261 -0.04264
 H630 H 0.86619 0.89590 -0.03966
 C631 C 0.77682 0.48750 0.34239
 C632 C 0.80724 0.47541 0.36246
 C633 C 0.84156 0.47583 0.34816
 C634 C 0.84627 0.48844 0.31351
 C635 C 0.81580 0.50042 0.29347
 C636 C 0.78153 0.49979 0.30765
 C637 C 0.74045 0.48817 0.35784
 C638 C 0.71660 0.51684 0.35056
 C639 C 0.68283 0.51816 0.36579
 C640 C 0.67216 0.49101 0.38896
 C641 C 0.69568 0.46197 0.39575
 C642 C 0.72944 0.46055 0.38035
 C643 C 0.63746 0.49377 0.40735
 C644 C 0.61610 0.46363 0.41282
 C645 C 0.58478 0.46651 0.43226
 C646 C 0.57471 0.49849 0.44972
 C647 C 0.59344 0.52899 0.43833
 C648 C 0.62490 0.52685 0.41920
 H649 H 0.80465 0.46619 0.38946
 H650 H 0.86438 0.46607 0.36419
 H651 H 0.81844 0.51084 0.26690
 H652 H 0.75867 0.50887 0.29129
 H653 H 0.72430 0.53875 0.33365
 H654 H 0.66515 0.54061 0.35950
 H655 H 0.68837 0.44076 0.41369
 H656 H 0.74692 0.43782 0.38610
 H657 H 0.62311 0.43793 0.40151
 H658 H 0.56783 0.44311 0.43273
 H659 H 0.58437 0.55527 0.44284
 H660 H 0.63935 0.55134 0.41386
 C661 C 0.20304 0.51156 0.37146
 C662 C 0.18498 0.47926 0.36379
 C663 C 0.14982 0.47951 0.34908
 C664 C 0.13177 0.51210 0.34200
 C665 C 0.14948 0.54441 0.35091
 C666 C 0.18482 0.54414 0.36528
 C667 C 0.24115 0.51111 0.38481
 C668 C 0.26680 0.53372 0.36991
 C669 C 0.30314 0.53195 0.38129
 C670 C 0.31448 0.50768 0.40797
 C671 C 0.28856 0.48563 0.42333
 C672 C 0.25237 0.48718 0.41173
 C673 C 0.35302 0.50535 0.42019
 C674 C 0.36847 0.47224 0.42926
 C675 C 0.40329 0.47021 0.44449
 C676 C 0.42466 0.50103 0.45122
 C677 C 0.40944 0.53383 0.43895
 C678 C 0.37434 0.53609 0.42419
 H679 H 0.19857 0.45378 0.36795
 H680 H 0.13737 0.45415 0.34194
 H681 H 0.13617 0.56997 0.34641
 H682 H 0.19799 0.56940 0.37148
 H683 H 0.25889 0.55212 0.34880
 H684 H 0.32245 0.54905 0.36869
 H685 H 0.29619 0.46732 0.44460
 H686 H 0.23304 0.46982 0.42399
 H687 H 0.35311 0.44772 0.42582
 H688 H 0.41088 0.44441 0.45373
 H689 H 0.42455 0.55818 0.43937
 H690 H 0.36368 0.56218 0.41675
 C691 C 0.79755 0.50986 0.63138
 C692 C 0.81987 0.54001 0.63548
 C693 C 0.85578 0.53646 0.64795
 C694 C 0.87053 0.50251 0.65756
 C695 C 0.84804 0.47226 0.65155
 C696 C 0.81246 0.47593 0.63861
 C697 C 0.75876 0.51343 0.62005
 C698 C 0.73298 0.49021 0.63399
 C699 C 0.69711 0.49113 0.62140
 C700 C 0.68603 0.51573 0.59511
 C701 C 0.71102 0.54030 0.58239
 C702 C 0.74719 0.53907 0.59464
 C703 C 0.64974 0.51242 0.57808
 C704 C 0.62395 0.53959 0.57996
 C705 C 0.58943 0.53485 0.56410
 C706 C 0.57972 0.50351 0.54433
 C707 C 0.60634 0.47655 0.54454
 C708 C 0.64040 0.48066 0.56076
 H709 H 0.80922 0.56665 0.63037
 H710 H 0.87052 0.56110 0.65251
 H711 H 0.85783 0.44519 0.65551
 H712 H 0.79658 0.45189 0.63412
 H713 H 0.74062 0.47085 0.65431
 H714 H 0.67810 0.47202 0.63154
 H715 H 0.70293 0.55918 0.56176
 H716 H 0.76630 0.55720 0.58317
 H717 H 0.63032 0.56429 0.59398
 H718 H 0.57094 0.55685 0.56693
 H719 H 0.60040 0.45036 0.53644
 H720 H 0.65939 0.45851 0.56034
 C721 C 0.22717 0.51221 0.65349
 C722 C 0.19802 0.49727 0.63383
 C723 C 0.16396 0.49509 0.64831
 C724 C 0.15811 0.50848 0.68256
 C725 C 0.18748 0.52373 0.70206
 C726 C 0.22176 0.52519 0.68779
 C727 C 0.26303 0.51423 0.63784
 C728 C 0.29347 0.49873 0.65508
 C729 C 0.32658 0.49766 0.63836
 C730 C 0.32980 0.51252 0.60433
 C731 C 0.29963 0.52980 0.58818
 C732 C 0.26652 0.53026 0.60457
 C733 C 0.36349 0.50816 0.58450
 C734 C 0.36130 0.50176 0.54799
 C735 C 0.39233 0.49813 0.52868
 C736 C 0.42749 0.49976 0.54457
 C737 C 0.42894 0.50520 0.58189
 C738 C 0.39776 0.50945 0.60142
 H739 H 0.20181 0.48674 0.60742
 H740 H 0.14240 0.48240 0.63277
 H741 H 0.18398 0.53498 0.72819
 H742 H 0.24391 0.53707 0.70324
 H743 H 0.29121 0.48616 0.68079
 H744 H 0.34916 0.48393 0.65143
 H745 H 0.30140 0.54248 0.56248
 H746 H 0.24345 0.54284 0.59112
 H747 H 0.33534 0.49937 0.53399
 H748 H 0.38737 0.49423 0.50135
 H749 H 0.45394 0.50466 0.59709
 H750 H 0.40062 0.51392 0.62977
 C751 C 0.51202 0.63412 0.21255
 C752 C 0.48757 0.62223 0.18561
 C753 C 0.48857 0.63628 0.15128
 C754 C 0.51408 0.66253 0.14304
 C755 C 0.53926 0.67357 0.16969
 C756 C 0.53822 0.65958 0.20403
 C757 C 0.50954 0.62075 0.24957
 C758 C 0.54089 0.61382 0.27070
 C759 C 0.53836 0.60122 0.30548
 C760 C 0.50444 0.59516 0.31983
 C761 C 0.47312 0.60248 0.29887
 C762 C 0.47564 0.61518 0.26420
 C763 C 0.50168 0.57971 0.35590
 C764 C 0.47684 0.55250 0.36195
 C765 C 0.47556 0.53623 0.39514
 C766 C 0.49901 0.54620 0.42405
 C767 C 0.52261 0.57500 0.41762
 C768 C 0.52424 0.59121 0.38426
 H769 H 0.46744 0.60219 0.19112
 H770 H 0.46858 0.62741 0.13150
 H771 H 0.55959 0.69338 0.16411
 H772 H 0.55731 0.66949 0.22415
 H773 H 0.56742 0.61742 0.26013
 H774 H 0.56295 0.59531 0.32083
 H775 H 0.44661 0.59853 0.30939
 H776 H 0.45096 0.62101 0.24897
 H777 H 0.45943 0.54243 0.34047
 H778 H 0.45792 0.51352 0.39640
 H779 H 0.53874 0.58686 0.43870
 H780 H 0.54290 0.61313 0.38079
 C781 C 0.49267 0.62698 0.78920
 C782 C 0.51339 0.61130 0.81713
 C783 C 0.51313 0.62571 0.85144
 C784 C 0.49207 0.65610 0.85867
 C785 C 0.47093 0.67143 0.83083
 C786 C 0.47124 0.65706 0.79655
 C787 C 0.49387 0.61244 0.75243
 C788 C 0.49449 0.63569 0.72311
 C789 C 0.49610 0.62210 0.68858
 C790 C 0.49717 0.58492 0.68252
 C791 C 0.49633 0.56166 0.71182
 C792 C 0.49473 0.57525 0.74635
 C793 C 0.49941 0.57041 0.64585
 C794 C 0.52125 0.54078 0.63901
 C795 C 0.52284 0.52677 0.60474
 C796 C 0.50308 0.54157 0.57539
 C797 C 0.48144 0.57162 0.58311
 C798 C 0.47973 0.58589 0.61737
 H799 H 0.53044 0.58829 0.81232
 H800 H 0.52946 0.61306 0.87233
 H801 H 0.45475 0.69511 0.83533
 H802 H 0.45463 0.66953 0.77575
 H803 H 0.49446 0.66447 0.72690
 H804 H 0.49725 0.64074 0.66666
 H805 H 0.49648 0.53287 0.70802
 H806 H 0.49370 0.55660 0.76828
 H807 H 0.53755 0.52848 0.66014
 H808 H 0.54078 0.50472 0.60172
 H809 H 0.46480 0.58437 0.56352
 H810 H 0.46209 0.60857 0.62168
 C811 C 0.48525 0.37797 0.20325
 C812 C 0.46162 0.34984 0.19382
 C813 C 0.46245 0.33411 0.16025
 C814 C 0.48685 0.34619 0.13525
 C815 C 0.50942 0.37533 0.14402
 C816 C 0.50868 0.39105 0.17775
 C817 C 0.48638 0.39249 0.24001
 C818 C 0.49060 0.42940 0.24638
 C819 C 0.49236 0.44271 0.28111
 C820 C 0.48998 0.41938 0.31020
 C821 C 0.48552 0.38253 0.30383
 C822 C 0.48380 0.36923 0.26915
 C823 C 0.49262 0.43327 0.34712
 C824 C 0.46979 0.42066 0.37295
 C825 C 0.47215 0.43417 0.40759
 C826 C 0.49840 0.45953 0.41906
 C827 C 0.51938 0.47327 0.39127
 C828 C 0.51726 0.46007 0.35664
 H829 H 0.44267 0.33973 0.21256
 H830 H 0.44425 0.31213 0.15394
 H831 H 0.52865 0.38499 0.12533
 H832 H 0.52741 0.41251 0.18431
 H833 H 0.49216 0.44804 0.22449
 H834 H 0.49519 0.47134 0.28518
 H835 H 0.48412 0.36387 0.32572
 H836 H 0.48122 0.34058 0.26518
 H837 H 0.44913 0.40106 0.36611
 H838 H 0.45205 0.42463 0.42419
 H839 H 0.53644 0.49626 0.39483
 H840 H 0.53471 0.47141 0.33716
 C841 C 0.50351 0.35676 0.78105
 C842 C 0.49705 0.32018 0.78704
 C843 C 0.49554 0.30689 0.82155
 C844 C 0.50067 0.32978 0.85096
 C845 C 0.50775 0.36622 0.84512
 C846 C 0.50901 0.37961 0.81052
 C847 C 0.50417 0.37094 0.74421
 C848 C 0.52892 0.39766 0.73528
 C849 C 0.52921 0.41120 0.70074
 C850 C 0.50486 0.39825 0.67423
 C851 C 0.48030 0.37133 0.68306
 C852 C 0.47990 0.35791 0.71764
 C853 C 0.50446 0.41369 0.63788
 C854 C 0.47192 0.41978 0.61879
 C855 C 0.47163 0.43716 0.58599
 C856 C 0.50333 0.45098 0.57156
 C857 C 0.53591 0.44074 0.58941
 C858 C 0.53663 0.42321 0.62212
 H859 H 0.49350 0.30169 0.76502
 H860 H 0.49074 0.27854 0.82527
 H861 H 0.51152 0.38449 0.86731
 H862 H 0.51356 0.40801 0.80687
 H863 H 0.54826 0.40799 0.75496
 H864 H 0.54813 0.43230 0.69496
 H865 H 0.46143 0.36051 0.66322
 H866 H 0.46016 0.33766 0.72368
 H867 H 0.44639 0.41209 0.62959
 H868 H 0.44587 0.44031 0.57309
 H869 H 0.56130 0.44676 0.57907
 H870 H 0.56251 0.41726 0.63514
 C871 C 0.64699 0.78413 0.50351
 C872 C 0.67148 0.79596 0.53039
 C873 C 0.68674 0.83008 0.52883
 C874 C 0.67768 0.85323 0.50050
 C875 C 0.65279 0.84175 0.47390
 C876 C 0.63773 0.80748 0.47530
 C877 C 0.63105 0.74768 0.50500
 C878 C 0.59479 0.74206 0.49430
 C879 C 0.57964 0.70793 0.49583
 C880 C 0.60024 0.67856 0.50842
 C881 C 0.63658 0.68406 0.51901
 C882 C 0.65184 0.71825 0.51726
 C883 C 0.58341 0.64256 0.51036
 C884 C 0.60241 0.61123 0.50241
 C885 C 0.58472 0.57811 0.50148
 C886 C 0.54704 0.57516 0.50559
 C887 C 0.53054 0.60611 0.51923
 C888 C 0.54773 0.63924 0.52057
 H889 H 0.67862 0.77897 0.55285
 H890 H 0.70552 0.83849 0.54992
 H891 H 0.64574 0.85891 0.45154
 H892 H 0.61937 0.79903 0.45389
 H893 H 0.57789 0.76415 0.48513
 H894 H 0.55172 0.70452 0.48691
 H895 H 0.65311 0.66209 0.52910
 H896 H 0.68001 0.72157 0.52526
 H897 H 0.63078 0.61217 0.49654
 H898 H 0.60129 0.55462 0.49848
 H899 H 0.50409 0.60577 0.52900
 H900 H 0.53294 0.66233 0.52983
 C901 C 0.63647 0.20704 0.49515
 C902 C 0.66934 0.20212 0.47830
 C903 C 0.68450 0.16799 0.47536
 C904 C 0.66710 0.13784 0.48906
 C905 C 0.63385 0.14263 0.50530
 C906 C 0.61869 0.17686 0.50831
 C907 C 0.62121 0.24364 0.49929
 C908 C 0.58386 0.24988 0.49480
 C909 C 0.56985 0.28458 0.49767
 C910 C 0.59291 0.31376 0.50496
 C911 C 0.63012 0.30744 0.51013
 C912 C 0.64410 0.27278 0.50741
 C913 C 0.57829 0.35077 0.50598
 C914 C 0.59618 0.37896 0.48998
 C915 C 0.58136 0.41340 0.48945
 C916 C 0.54702 0.42156 0.50277
 C917 C 0.53223 0.39312 0.52281
 C918 C 0.54669 0.35847 0.52348
 H919 H 0.68344 0.22472 0.46736
 H920 H 0.71037 0.16538 0.46313
 H921 H 0.61957 0.11993 0.51579
 H922 H 0.59345 0.17977 0.52162
 H923 H 0.56556 0.22808 0.48818
 H924 H 0.54108 0.28876 0.49321
 H925 H 0.64844 0.32931 0.51645
 H926 H 0.67288 0.26878 0.51184
 H927 H 0.62207 0.37463 0.47820
 H928 H 0.59987 0.43386 0.48260
 H929 H 0.50753 0.39591 0.53649
 H930 H 0.53290 0.33762 0.53763
 C931 C 0.34949 0.78332 0.50037
 C932 C 0.36785 0.81143 0.51832
 C933 C 0.35281 0.84585 0.51947
 C934 C 0.31887 0.85289 0.50311
 C935 C 0.30047 0.82491 0.48523
 C936 C 0.31565 0.79060 0.48373
 C937 C 0.36573 0.74674 0.49872
 C938 C 0.34402 0.71583 0.49977
 C939 C 0.35944 0.68156 0.49792
 C940 C 0.39696 0.67736 0.49514
 C941 C 0.41862 0.70829 0.49446
 C942 C 0.40323 0.74244 0.49597
 C943 C 0.41387 0.64111 0.49352
 C944 C 0.44422 0.63548 0.47335
 C945 C 0.46303 0.60314 0.47527
 C946 C 0.45286 0.57425 0.49693
 C947 C 0.42048 0.57985 0.51516
 C948 C 0.40165 0.61252 0.51383
 H949 H 0.39363 0.80674 0.53202
 H950 H 0.36736 0.86680 0.53384
 H951 H 0.27444 0.82970 0.47200
 H952 H 0.30104 0.76991 0.46906
 H953 H 0.31509 0.71805 0.50239
 H954 H 0.34192 0.65839 0.49835
 H955 H 0.44771 0.70620 0.49316
 H956 H 0.42079 0.76551 0.49462
 H957 H 0.45436 0.65657 0.45673
 H958 H 0.48747 0.60274 0.46186
 H959 H 0.41096 0.56141 0.53395
 H960 H 0.37861 0.61592 0.53039
 C961 C 0.36278 0.21023 0.50122
 C962 C 0.38022 0.17979 0.48776
 C963 C 0.36469 0.14572 0.49033
 C964 C 0.33129 0.14127 0.50635
 C965 C 0.31389 0.17176 0.51968
 C966 C 0.32948 0.20568 0.51734
 C967 C 0.37907 0.24661 0.49864
 C968 C 0.35703 0.27696 0.49247
 C969 C 0.37208 0.31125 0.49122
 C970 C 0.40955 0.31604 0.49574
 C971 C 0.43171 0.28578 0.50137
 C972 C 0.41664 0.25147 0.50293
 C973 C 0.42550 0.35249 0.49485
 C974 C 0.45666 0.35891 0.47615
 C975 C 0.47213 0.39299 0.47609
 C976 C 0.45792 0.42217 0.49538
 C977 C 0.42561 0.41515 0.51284
 C978 C 0.40977 0.38114 0.51273
 H979 H 0.40570 0.18232 0.47483
 H980 H 0.37899 0.12284 0.48000
 H981 H 0.28784 0.16958 0.53159
 H982 H 0.31549 0.22834 0.52848
 H983 H 0.32810 0.27421 0.48827
 H984 H 0.35442 0.33404 0.48628
 H985 H 0.46067 0.28874 0.50534
 H986 H 0.43439 0.22885 0.50827
 H987 H 0.46913 0.33757 0.46135
 H988 H 0.49618 0.39603 0.46106
 H989 H 0.41151 0.43550 0.52638
 H990 H 0.38537 0.37716 0.52718
   
