data_POSCAR
  _audit_creation_date              2014-09-24
  _audit_creation_method            'ToBaCCo'
  _symmetry_space_group_name_H-M    'P1'
  _symmetry_Int_Tables_number       1
  _symmetry_cell_setting            triclinic
  loop_
  _symmetry_equiv_pos_as_xyz
 x,y,z
_cell_length_a 57.4287
_cell_length_b 57.5261
_cell_length_c 44.0444
_cell_angle_alpha 89.993200
_cell_angle_beta 89.778100
_cell_angle_gamma 87.985500
loop_
  _atom_site_label
  _atom_site_type_symbol
  _atom_site_fract_x
  _atom_site_fract_y
  _atom_site_fract_z
O1 O -0.02394 0.29833 0.03329
 O2 O 0.02309 0.29709 -0.02415
 O3 O -0.02236 0.29869 -0.02571
 O4 O 0.02160 0.29753 0.03499
 O5 O 0.02221 0.25918 0.03459
 O6 O -0.02226 0.26035 -0.02538
 O7 O 0.02292 0.25879 -0.02450
 O8 O -0.02328 0.25998 0.03334
 Cu9 Cu -0.00040 0.30176 0.00466
 Cu10 Cu -0.00002 0.25575 0.00459
 C11 C -0.03183 0.27929 0.04288
 C12 C 0.03101 0.27766 -0.03431
 C13 C -0.02998 0.27972 -0.03577
 C14 C 0.02959 0.27815 0.04500
 O15 O 0.47638 0.79787 0.52487
 O16 O 0.52347 0.79458 0.46753
 O17 O 0.47790 0.79584 0.46594
 O18 O 0.52187 0.79710 0.52658
 O19 O 0.52233 0.75879 0.52898
 O20 O 0.47829 0.75754 0.46851
 O21 O 0.52382 0.75628 0.47035
 O22 O 0.47710 0.75956 0.52744
 Cu23 Cu 0.49987 0.80019 0.49594
 Cu24 Cu 0.50040 0.75422 0.49899
 C25 C 0.46866 0.77921 0.53590
 C26 C 0.53189 0.77479 0.45944
 C27 C 0.47037 0.77649 0.45707
 C28 C 0.52972 0.77814 0.53806
 O29 O 1.02464 0.70478 0.02436
 O30 O 0.97722 0.70789 -0.03187
 O31 O 1.02271 0.70521 -0.03466
 O32 O 0.97920 0.70779 0.02731
 O33 O 0.98049 0.74605 0.02741
 O34 O 1.02357 0.74347 -0.03444
 O35 O 0.97812 0.74619 -0.03125
 O36 O 1.02570 0.74303 0.02437
 Cu37 Cu 1.00082 0.70257 -0.00376
 Cu38 Cu 1.00209 0.74849 -0.00353
 C39 C 1.03343 0.72338 0.03392
 C40 C 0.96938 0.72762 -0.04090
 C41 C 1.03079 0.72395 -0.04501
 C42 C 0.97235 0.72743 0.03789
 O43 O 0.47602 0.21538 0.48064
 O44 O 0.52420 0.21820 0.53562
 O45 O 0.47881 0.21866 0.53945
 O46 O 0.52151 0.21426 0.47691
 O47 O 0.52037 0.25247 0.47254
 O48 O 0.47775 0.25691 0.53505
 O49 O 0.52334 0.25641 0.53112
 O50 O 0.47513 0.25366 0.47700
 Cu51 Cu 0.50025 0.21277 0.50857
 Cu52 Cu 0.49915 0.25869 0.50359
 C53 C 0.46710 0.23414 0.46983
 C54 C 0.53218 0.23784 0.54246
 C55 C 0.47066 0.23853 0.54753
 C56 C 0.52835 0.23261 0.46413
 O57 O 0.70347 0.02218 -0.03360
 O58 O 0.70342 -0.02323 0.02546
 O59 O 0.70510 0.02213 0.02548
 O60 O 0.70194 -0.02309 -0.03373
 O61 O 0.74033 -0.02583 -0.03520
 O62 O 0.74347 0.01934 0.02345
 O63 O 0.74176 -0.02586 0.02354
 O64 O 0.74185 0.01944 -0.03537
 Cu65 Cu 0.69962 -0.00024 -0.00389
 Cu66 Cu 0.74568 -0.00349 -0.00609
 C67 C 0.72271 0.02869 -0.04445
 C68 C 0.72259 -0.03249 0.03451
 C69 C 0.72488 0.02860 0.03442
 C70 C 0.72067 -0.03232 -0.04442
 O71 O 0.22197 0.52084 0.46728
 O72 O 0.22475 0.47860 0.53035
 O73 O 0.22398 0.52381 0.52611
 O74 O 0.22208 0.47552 0.47133
 O75 O 0.26046 0.47438 0.46859
 O76 O 0.26234 0.52296 0.52277
 O77 O 0.26312 0.47768 0.52745
 O78 O 0.26034 0.51930 0.46425
 Cu79 Cu 0.21934 0.49975 0.49906
 Cu80 Cu 0.26541 0.49841 0.49557
 C81 C 0.24075 0.52734 0.45504
 C82 C 0.24448 0.47093 0.53970
 C83 C 0.24349 0.53183 0.53353
 C84 C 0.24095 0.46672 0.46052
 O85 O 0.27609 1.02028 0.03076
 O86 O 0.27520 0.97792 -0.03219
 O87 O 0.27566 1.02328 -0.02829
 O88 O 0.27660 0.97511 0.02684
 O89 O 0.23817 0.97633 0.02788
 O90 O 0.23730 1.02497 -0.02646
 O91 O 0.23679 0.97959 -0.03101
 O92 O 0.23770 1.02124 0.03195
 Cu93 Cu 0.27974 0.99900 -0.00094
 Cu94 Cu 0.23366 1.00061 0.00056
 C95 C 0.25696 1.02802 0.04220
 C96 C 0.25575 0.97139 -0.04220
 C97 C 0.25633 1.03272 -0.03643
 C98 C 0.25754 0.96752 0.03688
 O99 O 0.80034 0.47216 0.46502
 O100 O 0.80169 0.51814 0.52333
 O101 O 0.80178 0.47268 0.52388
 O102 O 0.80050 0.51754 0.46406
 O103 O 0.76210 0.51920 0.46621
 O104 O 0.76337 0.47408 0.52545
 O105 O 0.76328 0.51934 0.52500
 O106 O 0.76192 0.47390 0.46645
 Cu107 Cu 0.80494 0.49503 0.49392
 Cu108 Cu 0.75883 0.49676 0.49593
 C109 C 0.78086 0.46508 0.45588
 C110 C 0.78266 0.52666 0.53408
 C111 C 0.78278 0.46555 0.53470
 C112 C 0.78106 0.52615 0.45505
 C113 C 0.27683 0.28953 0.31893
 C114 C 0.29419 0.27255 0.31895
 C115 C 0.28558 0.25365 0.30361
 N116 N 0.26360 0.25858 0.29414
 C117 C 0.25826 0.28056 0.30332
 C118 C 0.29743 0.23181 0.30036
 C119 C 0.28956 0.21396 0.28128
 C120 C 0.29801 0.19107 0.28171
 C121 C 0.28695 0.17966 0.25876
 C122 C 0.27190 0.19584 0.24512
 N123 N 0.27371 0.21673 0.25882
 C124 C 0.25788 0.19129 0.21971
 C125 C 0.23899 0.20593 0.21042
 C126 C 0.22623 0.20293 0.18415
 C127 C 0.20862 0.21964 0.18451
 C128 C 0.21121 0.23232 0.21097
 N129 N 0.22971 0.22383 0.22686
 C130 C 0.19581 0.25051 0.22079
 C131 C 0.20031 0.26513 0.24574
 C132 C 0.18406 0.28044 0.25897
 C133 C 0.19550 0.29219 0.28132
 C134 C 0.21840 0.28368 0.28120
 N135 N 0.22122 0.26737 0.25925
 C136 C 0.23627 0.29202 0.29982
 H137 H 0.27775 0.30646 0.32946
 H138 H 0.31113 0.27392 0.32934
 H139 H 0.23701 0.26011 0.25174
 H140 H 0.31091 0.18337 0.29686
 H141 H 0.28967 0.16151 0.25279
 H142 H 0.22917 0.18991 0.16667
 H143 H 0.19535 0.22209 0.16731
 H144 H 0.18784 0.30561 0.29582
 H145 H 0.26652 0.23244 0.25107
 H146 H 0.16589 0.28302 0.25299
 C147 C 0.71710 0.70395 0.30540
 C148 C 0.70073 0.72184 0.30413
 C149 C 0.71132 0.74026 0.28999
 N150 N 0.73357 0.73420 0.28253
 C151 C 0.73714 0.71200 0.29196
 C152 C 0.70108 0.76279 0.28647
 C153 C 0.71081 0.77994 0.26776
 C154 C 0.70424 0.80337 0.26806
 C155 C 0.71687 0.81382 0.24559
 C156 C 0.73089 0.79651 0.23230
 N157 N 0.72697 0.77589 0.24580
 C158 C 0.74592 0.79987 0.20734
 C159 C 0.76357 0.78352 0.19845
 C160 C 0.77677 0.78496 0.17215
 C161 C 0.79290 0.76683 0.17300
 C162 C 0.78904 0.75492 0.19981
 N163 N 0.77115 0.76519 0.21539
 C164 C 0.80298 0.73592 0.21042
 C165 C 0.79727 0.72261 0.23617
 C166 C 0.81265 0.70756 0.25125
 C167 C 0.80021 0.69742 0.27418
 C168 C 0.77753 0.70640 0.27227
 N169 N 0.77588 0.72167 0.24894
 C170 C 0.75880 0.69958 0.29082
 H171 H 0.71460 0.68700 0.31531
 H172 H 0.68312 0.72141 0.31289
 H173 H 0.76058 0.72913 0.24023
 H174 H 0.69160 0.81205 0.28285
 H175 H 0.71584 0.83210 0.23970
 H176 H 0.77507 0.79785 0.15431
 H177 H 0.80612 0.76301 0.15597
 H178 H 0.80711 0.68478 0.29030
 H179 H 0.73310 0.75966 0.23831
 H180 H 0.83095 0.70427 0.24630
 C181 C 0.76281 0.21126 0.16489
 C182 C 0.78034 0.22683 0.16563
 C183 C 0.77679 0.24016 0.19156
 N184 N 0.75778 0.23316 0.20676
 C185 C 0.74913 0.21556 0.19041
 C186 C 0.79173 0.25761 0.20148
 C187 C 0.78649 0.27289 0.22592
 C188 C 0.80233 0.28736 0.23926
 C189 C 0.79034 0.30015 0.26097
 C190 C 0.76751 0.29307 0.26046
 N191 N 0.76527 0.27663 0.23879
 C192 C 0.74929 0.30266 0.27875
 C193 C 0.72736 0.29256 0.28227
 C194 C 0.70898 0.30222 0.29906
 C195 C 0.69168 0.28639 0.29877
 C196 C 0.70003 0.26756 0.28179
 N197 N 0.72190 0.27132 0.27194
 C198 C 0.68810 0.24674 0.27762
 C199 C 0.69606 0.22830 0.25857
 C200 C 0.68673 0.20639 0.25805
 C201 C 0.69850 0.19388 0.23584
 C202 C 0.71468 0.20849 0.22336
 N203 N 0.71291 0.22950 0.23713
 C204 C 0.72980 0.20244 0.19897
 H205 H 0.76048 0.19819 0.14759
 H206 H 0.79415 0.22813 0.14900
 H207 H 0.72096 0.24445 0.23011
 H208 H 0.82063 0.28870 0.23379
 H209 H 0.79764 0.31325 0.27538
 H210 H 0.70822 0.31875 0.31080
 H211 H 0.67501 0.28838 0.31019
 H212 H 0.69543 0.17606 0.22957
 H213 H 0.74973 0.27022 0.23100
 H214 H 0.67281 0.20006 0.27210
 C215 C 0.27803 0.70065 0.31414
 C216 C 0.29514 0.71664 0.31444
 C217 C 0.28945 0.73296 0.29226
 N218 N 0.26934 0.72745 0.27861
 C219 C 0.26227 0.70773 0.29192
 C220 C 0.30307 0.75226 0.28491
 C221 C 0.29744 0.76891 0.26209
 C222 C 0.31227 0.78600 0.25254
 C223 C 0.30097 0.79825 0.22987
 C224 C 0.27953 0.78831 0.22596
 N225 N 0.27736 0.77072 0.24610
 C226 C 0.26293 0.79571 0.20392
 C227 C 0.24246 0.78387 0.19671
 C228 C 0.22711 0.79048 0.17377
 C229 C 0.21014 0.77435 0.17329
 C230 C 0.21552 0.75841 0.19604
 N231 N 0.23530 0.76427 0.21022
 C232 C 0.20172 0.73936 0.20372
 C233 C 0.20708 0.72306 0.22701
 C234 C 0.19180 0.70670 0.23748
 C235 C 0.20296 0.69461 0.26037
 C236 C 0.22482 0.70386 0.26340
 N237 N 0.22734 0.72092 0.24257
 C238 C 0.24144 0.69633 0.28531
 H239 H 0.27718 0.68564 0.32887
 H240 H 0.31007 0.71624 0.32938
 H241 H 0.24254 0.72937 0.23776
 H242 H 0.32961 0.78918 0.26073
 H243 H 0.30798 0.81264 0.21738
 H244 H 0.22812 0.80527 0.15869
 H245 H 0.19547 0.77444 0.15793
 H246 H 0.19561 0.68078 0.27359
 H247 H 0.26249 0.76155 0.25007
 H248 H 0.17423 0.70396 0.22977
 C249 C 0.72002 0.30012 0.69477
 C250 C 0.70369 0.28329 0.69446
 C251 C 0.71378 0.26385 0.70845
 N252 N 0.73565 0.26831 0.71742
 C253 C 0.73946 0.29051 0.70925
 C254 C 0.70340 0.24199 0.71077
 C255 C 0.71297 0.22333 0.72817
 C256 C 0.70614 0.20048 0.72627
 C257 C 0.71861 0.18807 0.74780
 C258 C 0.73281 0.20363 0.76214
 N259 N 0.72917 0.22511 0.75019
 C260 C 0.74774 0.19795 0.78665
 C261 C 0.76563 0.21235 0.79652
 C262 C 0.77885 0.20855 0.82243
 C263 C 0.79515 0.22539 0.82283
 C264 C 0.79135 0.23893 0.79716
 N265 N 0.77336 0.23086 0.78103
 C266 C 0.80528 0.25750 0.78819
 C267 C 0.79943 0.27289 0.76416
 C268 C 0.81448 0.28848 0.75132
 C269 C 0.80193 0.30095 0.72990
 C270 C 0.77956 0.29260 0.73022
 N271 N 0.77815 0.27565 0.75137
 C272 C 0.76085 0.30163 0.71254
 H273 H 0.71787 0.31737 0.68517
 H274 H 0.68646 0.28512 0.68470
 H275 H 0.76296 0.26824 0.75895
 H276 H 0.69343 0.19346 0.71103
 H277 H 0.71734 0.16967 0.75238
 H278 H 0.77703 0.19498 0.83921
 H279 H 0.80837 0.22736 0.84000
 H280 H 0.80850 0.31475 0.71592
 H281 H 0.73543 0.24047 0.75885
 H282 H 0.83259 0.29076 0.75693
 C283 C 0.28426 0.70135 0.69072
 C284 C 0.30105 0.71770 0.69165
 C285 C 0.29122 0.73688 0.70654
 N286 N 0.26893 0.73291 0.71439
 C287 C 0.26463 0.71118 0.70477
 C288 C 0.30227 0.75819 0.71060
 C289 C 0.29311 0.77653 0.72886
 C290 C 0.30148 0.79885 0.72937
 C291 C 0.28892 0.81097 0.75123
 C292 C 0.27325 0.79571 0.76347
 N293 N 0.27605 0.77472 0.74989
 C294 C 0.25780 0.80108 0.78770
 C295 C 0.23898 0.78717 0.79588
 C296 C 0.22510 0.79066 0.82140
 C297 C 0.20818 0.77446 0.82019
 C298 C 0.21228 0.76160 0.79397
 N299 N 0.23105 0.76947 0.77907
 C300 C 0.19793 0.74391 0.78334
 C301 C 0.20387 0.72927 0.75852
 C302 C 0.18843 0.71521 0.74368
 C303 C 0.20106 0.70306 0.72192
 C304 C 0.22391 0.70994 0.72416
 N305 N 0.22547 0.72583 0.74665
 C306 C 0.24273 0.70072 0.70657
 H307 H 0.28624 0.68427 0.68054
 H308 H 0.31844 0.71573 0.68222
 H309 H 0.24077 0.73205 0.75556
 H310 H 0.31535 0.80566 0.71566
 H311 H 0.29119 0.82893 0.75752
 H312 H 0.22689 0.80362 0.83898
 H313 H 0.19435 0.77247 0.83666
 H314 H 0.19418 0.69055 0.70629
 H315 H 0.26863 0.75942 0.75692
 H316 H 0.16997 0.71384 0.74808
 C317 C 0.27993 0.29678 0.68982
 C318 C 0.29680 0.27937 0.69078
 C319 C 0.29243 0.26625 0.71649
 N320 N 0.27372 0.27542 0.73155
 C321 C 0.26594 0.29399 0.71518
 C322 C 0.30651 0.24710 0.72657
 C323 C 0.30059 0.23277 0.75137
 C324 C 0.31564 0.21660 0.76507
 C325 C 0.30295 0.20531 0.78672
 C326 C 0.28039 0.21467 0.78549
 N327 N 0.27910 0.23133 0.76381
 C328 C 0.26148 0.20682 0.80301
 C329 C 0.24001 0.21948 0.80592
 C330 C 0.22030 0.21136 0.82016
 C331 C 0.20408 0.22942 0.82036
 C332 C 0.21423 0.24788 0.80579
 N333 N 0.23624 0.24182 0.79719
 C334 C 0.20373 0.27031 0.80252
 C335 C 0.21286 0.28785 0.78392
 C336 C 0.20470 0.31083 0.78337
 C337 C 0.21686 0.32178 0.76088
 C338 C 0.23214 0.30520 0.74833
 N339 N 0.22946 0.28455 0.76233
 C340 C 0.24713 0.30921 0.72351
 H341 H 0.27834 0.31013 0.67257
 H342 H 0.31079 0.27688 0.67446
 H343 H 0.23656 0.26863 0.75518
 H344 H 0.33384 0.21303 0.75988
 H345 H 0.30959 0.19159 0.80147
 H346 H 0.21787 0.19428 0.82970
 H347 H 0.18681 0.22898 0.83022
 H348 H 0.21459 0.33986 0.75437
 H349 H 0.26388 0.23925 0.75555
 H350 H 0.19112 0.31884 0.79737
 C351 C 0.70780 0.72308 0.67658
 C352 C 0.72510 0.70605 0.67551
 C353 C 0.73829 0.70851 0.70151
 N354 N 0.72961 0.72640 0.71848
 C355 C 0.71100 0.73538 0.70321
 C356 C 0.75696 0.69333 0.71019
 C357 C 0.77188 0.69782 0.73477
 C358 C 0.78695 0.68148 0.74804
 C359 C 0.79897 0.69290 0.77015
 C360 C 0.79099 0.71594 0.76963
 N361 N 0.77455 0.71880 0.74790
 C362 C 0.79967 0.73385 0.78793
 C363 C 0.78805 0.75577 0.79128
 C364 C 0.79749 0.77501 0.80486
 C365 C 0.78003 0.79185 0.80627
 C366 C 0.76051 0.78236 0.79345
 N367 N 0.76545 0.76032 0.78426
 C368 C 0.73811 0.79335 0.79277
 C369 C 0.71977 0.78525 0.77471
 C370 C 0.69663 0.79282 0.77703
 C371 C 0.68471 0.78165 0.75458
 C372 C 0.70087 0.76742 0.73935
 N373 N 0.72221 0.76988 0.75157
 C374 C 0.69584 0.75344 0.71400
 H375 H 0.69428 0.72592 0.65980
 H376 H 0.72754 0.69318 0.65774
 H377 H 0.73786 0.76329 0.74263
 H378 H 0.78908 0.66321 0.74239
 H379 H 0.81212 0.68511 0.78485
 H380 H 0.81506 0.77666 0.81319
 H381 H 0.78148 0.80904 0.81590
 H382 H 0.66625 0.78372 0.75004
 H383 H 0.76740 0.73459 0.74030
 H384 H 0.68909 0.80519 0.79311
 C385 C 0.23572 0.05315 0.07821
 C386 C 0.23547 0.06977 0.10125
 C387 C 0.25631 0.07809 0.11280
 C388 C 0.27761 0.06886 0.10130
 C389 C 0.27789 0.05221 0.07810
 C390 C 0.25692 0.04427 0.06603
 C391 C 0.25472 0.09634 0.13661
 C392 C 0.27225 0.10999 0.14429
 C393 C 0.26925 0.12978 0.16573
 C394 C 0.28446 0.14832 0.16348
 C395 C 0.28116 0.16808 0.18166
 C396 C 0.26264 0.16956 0.20243
 C397 C 0.24801 0.15075 0.20576
 C398 C 0.25137 0.13092 0.18777
 H399 H 0.21915 0.04746 0.06980
 H400 H 0.21881 0.07640 0.10981
 H401 H 0.29411 0.07421 0.11012
 H402 H 0.29459 0.04564 0.06962
 H403 H 0.23768 0.09971 0.14651
 H404 H 0.28884 0.10808 0.13272
 H405 H 0.29851 0.14779 0.14698
 H406 H 0.29265 0.18248 0.17899
 H407 H 0.23381 0.15161 0.22203
 H408 H 0.23987 0.11667 0.19120
 C409 C 0.80401 0.55334 0.56857
 C410 C 0.80405 0.57159 0.58958
 C411 C 0.78305 0.58228 0.59964
 C412 C 0.76194 0.57444 0.58793
 C413 C 0.76189 0.55618 0.56705
 C414 C 0.78291 0.54547 0.55703
 C415 C 0.78387 0.60229 0.62089
 C416 C 0.76576 0.60926 0.63844
 C417 C 0.76524 0.63027 0.65813
 C418 C 0.74632 0.63365 0.67818
 C419 C 0.74393 0.65388 0.69560
 C420 C 0.76044 0.67116 0.69332
 C421 C 0.77965 0.66776 0.67392
 C422 C 0.78202 0.64756 0.65631
 H423 H 0.82050 0.54552 0.56122
 H424 H 0.82057 0.57744 0.59794
 H425 H 0.74538 0.58270 0.59406
 H426 H 0.74534 0.55073 0.55835
 H427 H 0.80014 0.61110 0.62221
 H428 H 0.75030 0.59906 0.63870
 H429 H 0.73309 0.62076 0.68001
 H430 H 0.72898 0.65629 0.71048
 H431 H 0.79245 0.68106 0.67181
 H432 H 0.79663 0.64608 0.64084
 C433 C 0.70168 0.94202 0.06895
 C434 C 0.70181 0.92369 0.08983
 C435 C 0.72282 0.91259 0.09880
 C436 C 0.74382 0.92022 0.08629
 C437 C 0.74373 0.93860 0.06556
 C438 C 0.72265 0.94967 0.05637
 C439 C 0.72197 0.89240 0.11979
 C440 C 0.74042 0.88414 0.13560
 C441 C 0.74037 0.86302 0.15506
 C442 C 0.75948 0.85861 0.17431
 C443 C 0.76109 0.83831 0.19169
 C444 C 0.74359 0.82200 0.19015
 C445 C 0.72428 0.82637 0.17139
 C446 C 0.72270 0.84661 0.15383
 H447 H 0.68506 0.95000 0.06251
 H448 H 0.68537 0.91806 0.09887
 H449 H 0.76038 0.91174 0.09164
 H450 H 0.76026 0.94378 0.05629
 H451 H 0.70529 0.88450 0.12245
 H452 H 0.75651 0.89333 0.13475
 H453 H 0.77341 0.87079 0.17562
 H454 H 0.77613 0.83514 0.20607
 H455 H 0.71072 0.81381 0.16984
 H456 H 0.70793 0.84884 0.13887
 C457 C 0.26747 0.44395 0.57371
 C458 C 0.26881 0.42742 0.59690
 C459 C 0.24861 0.42031 0.61177
 C460 C 0.22697 0.43065 0.60345
 C461 C 0.22562 0.44716 0.58013
 C462 C 0.24584 0.45387 0.56486
 C463 C 0.25109 0.40220 0.63569
 C464 C 0.23355 0.38925 0.64544
 C465 C 0.23682 0.36971 0.66721
 C466 C 0.22061 0.35198 0.66718
 C467 C 0.22370 0.33258 0.68601
 C468 C 0.24300 0.33065 0.70532
 C469 C 0.25875 0.34870 0.70640
 C470 C 0.25565 0.36815 0.68763
 H471 H 0.28341 0.44879 0.56251
 H472 H 0.28573 0.41991 0.60297
 H473 H 0.21103 0.42631 0.61493
 H474 H 0.20872 0.45469 0.57409
 H475 H 0.26854 0.39836 0.64385
 H476 H 0.21647 0.39163 0.63545
 H477 H 0.20583 0.35286 0.65197
 H478 H 0.21134 0.31881 0.68506
 H479 H 0.27357 0.34754 0.72152
 H480 H 0.26803 0.38182 0.68927
 C481 C 0.93924 0.30044 0.07679
 C482 C 0.91981 0.30050 0.09606
 C483 C 0.90925 0.27964 0.10378
 C484 C 0.91861 0.25863 0.09173
 C485 C 0.93807 0.25856 0.07264
 C486 C 0.94850 0.27946 0.06473
 C487 C 0.88781 0.28065 0.12279
 C488 C 0.87966 0.26219 0.13759
 C489 C 0.85737 0.26237 0.15483
 C490 C 0.85318 0.24357 0.17424
 C491 C 0.83198 0.24217 0.18965
 C492 C 0.81453 0.25954 0.18590
 C493 C 0.81858 0.27847 0.16681
 C494 C 0.83975 0.27986 0.15124
 H495 H 0.94682 0.31685 0.07104
 H496 H 0.91287 0.31695 0.10475
 H497 H 0.91064 0.24221 0.09608
 H498 H 0.94459 0.24211 0.06346
 H499 H 0.87879 0.29739 0.12481
 H500 H 0.88985 0.24602 0.13764
 H501 H 0.86629 0.22977 0.17728
 H502 H 0.82906 0.22742 0.20432
 H503 H 0.80515 0.29193 0.16356
 H504 H 0.84184 0.29432 0.13593
 C505 C 0.43711 0.80122 0.56454
 C506 C 0.41818 0.80176 0.58465
 C507 C 0.41145 0.78142 0.59939
 C508 C 0.42395 0.76043 0.59347
 C509 C 0.44273 0.75986 0.57323
 C510 C 0.44945 0.78021 0.55841
 C511 C 0.39045 0.78228 0.61906
 C512 C 0.38717 0.76718 0.64175
 C513 C 0.36537 0.76662 0.65978
 C514 C 0.36610 0.75686 0.68901
 C515 C 0.34564 0.75463 0.70590
 C516 C 0.32412 0.76184 0.69360
 C517 C 0.32325 0.77164 0.66449
 C518 C 0.34370 0.77403 0.64767
 H519 H 0.44177 0.81717 0.55334
 H520 H 0.40867 0.81808 0.58858
 H521 H 0.41885 0.74425 0.60363
 H522 H 0.45180 0.74336 0.56889
 H523 H 0.37756 0.79608 0.61491
 H524 H 0.40109 0.75490 0.64786
 H525 H 0.38252 0.75078 0.69869
 H526 H 0.34649 0.74688 0.72830
 H527 H 0.30667 0.77704 0.65465
 H528 H 0.34233 0.78094 0.62488
 C529 C 0.06108 0.70075 0.06534
 C530 C 0.07992 0.69978 0.08539
 C531 C 0.08990 0.72024 0.09567
 C532 C 0.08078 0.74179 0.08522
 C533 C 0.06198 0.74280 0.06518
 C534 C 0.05189 0.72230 0.05481
 C535 C 0.11053 0.71843 0.11582
 C536 C 0.11676 0.73566 0.13432
 C537 C 0.13818 0.73484 0.15308
 C538 C 0.13978 0.75065 0.17723
 C539 C 0.16022 0.75171 0.19419
 C540 C 0.17948 0.73704 0.18716
 C541 C 0.17796 0.72099 0.16340
 C542 C 0.15752 0.71991 0.14638
 H543 H 0.05392 0.68455 0.05790
 H544 H 0.08677 0.68296 0.09285
 H545 H 0.08845 0.75794 0.09172
 H546 H 0.05560 0.75974 0.05751
 H547 H 0.12045 0.70209 0.11578
 H548 H 0.10552 0.75108 0.13639
 H549 H 0.12526 0.76245 0.18274
 H550 H 0.16122 0.76426 0.21243
 H551 H 0.19282 0.70972 0.15759
 H552 H 0.15734 0.70796 0.12747
 C553 C 0.56438 0.25992 0.56555
 C554 C 0.58429 0.26093 0.58352
 C555 C 0.59236 0.24138 0.59990
 C556 C 0.58017 0.22065 0.59788
 C557 C 0.56037 0.21955 0.57958
 C558 C 0.55234 0.23916 0.56313
 C559 C 0.61420 0.24294 0.61736
 C560 C 0.61903 0.23016 0.64212
 C561 C 0.64092 0.23252 0.65927
 C562 C 0.64077 0.22977 0.69092
 C563 C 0.66107 0.23276 0.70770
 C564 C 0.68193 0.23811 0.69298
 C565 C 0.68231 0.23997 0.66122
 C566 C 0.66198 0.23729 0.64449
 H567 H 0.55875 0.27529 0.55300
 H568 H 0.59348 0.27704 0.58454
 H569 H 0.58626 0.20509 0.60963
 H570 H 0.55152 0.20328 0.57804
 H571 H 0.62623 0.25602 0.61031
 H572 H 0.60609 0.21880 0.65125
 H573 H 0.62479 0.22585 0.70272
 H574 H 0.66050 0.23112 0.73219
 H575 H 0.69834 0.24371 0.64944
 H576 H 0.66283 0.23876 0.62002
 C577 C 0.70195 0.05694 0.92071
 C578 C 0.70218 0.07539 0.90005
 C579 C 0.72329 0.08478 0.89072
 C580 C 0.74427 0.07524 0.90260
 C581 C 0.74404 0.05673 0.92312
 C582 C 0.72289 0.04748 0.93258
 C583 C 0.72255 0.10528 0.87020
 C584 C 0.74099 0.11223 0.85416
 C585 C 0.74112 0.13376 0.83552
 C586 C 0.76007 0.13692 0.81583
 C587 C 0.76197 0.15755 0.79942
 C588 C 0.74492 0.17544 0.80239
 C589 C 0.72573 0.17231 0.82150
 C590 C 0.72386 0.15174 0.83809
 H591 H 0.68535 0.05025 0.92760
 H592 H 0.68576 0.08250 0.89152
 H593 H 0.76091 0.08236 0.89697
 H594 H 0.76047 0.05000 0.93209
 H595 H 0.70598 0.11464 0.86816
 H596 H 0.75693 0.10166 0.85432
 H597 H 0.77368 0.12351 0.81350
 H598 H 0.77693 0.15977 0.78477
 H599 H 0.71254 0.18610 0.82418
 H600 H 0.70927 0.15048 0.85346
 C601 C 0.26040 0.54958 0.41407
 C602 C 0.26008 0.56662 0.39150
 C603 C 0.23947 0.57933 0.38477
 C604 C 0.21884 0.57399 0.40025
 C605 C 0.21912 0.55679 0.42272
 C606 C 0.23998 0.54463 0.43016
 C607 C 0.24033 0.59797 0.36163
 C608 C 0.22592 0.61683 0.36178
 C609 C 0.22882 0.63671 0.34086
 C610 C 0.22144 0.65906 0.35047
 C611 C 0.22519 0.67843 0.33218
 C612 C 0.23611 0.67568 0.30385
 C613 C 0.24272 0.65336 0.29359
 C614 C 0.23906 0.63397 0.31190
 H615 H 0.27673 0.54041 0.41907
 H616 H 0.27615 0.57024 0.37971
 H617 H 0.20247 0.58295 0.39500
 H618 H 0.20307 0.55324 0.43456
 H619 H 0.25475 0.59706 0.34572
 H620 H 0.21294 0.61888 0.37956
 H621 H 0.21334 0.66160 0.37253
 H622 H 0.21994 0.69561 0.34028
 H623 H 0.25100 0.65103 0.27161
 H624 H 0.24425 0.61694 0.30331
 C625 C 0.23361 0.94545 0.92363
 C626 C 0.23284 0.92794 0.90177
 C627 C 0.25343 0.91819 0.88919
 C628 C 0.27492 0.92700 0.89820
 C629 C 0.27569 0.94452 0.92018
 C630 C 0.25505 0.95375 0.93338
 C631 C 0.25150 0.89895 0.86697
 C632 C 0.26902 0.88377 0.86006
 C633 C 0.26621 0.86329 0.84006
 C634 C 0.28235 0.84445 0.84249
 C635 C 0.27982 0.82436 0.82515
 C636 C 0.26112 0.82281 0.80500
 C637 C 0.24536 0.84178 0.80172
 C638 C 0.24794 0.86193 0.81891
 H639 H 0.21736 0.95224 0.93322
 H640 H 0.21604 0.92168 0.89507
 H641 H 0.29118 0.92059 0.88837
 H642 H 0.29248 0.95073 0.92697
 H643 H 0.23435 0.89632 0.85783
 H644 H 0.28567 0.88520 0.87114
 H645 H 0.29671 0.84509 0.85832
 H646 H 0.29220 0.80986 0.82777
 H647 H 0.23102 0.84089 0.78591
 H648 H 0.23564 0.87631 0.81536
 C649 C 0.80055 0.43348 0.42487
 C650 C 0.79959 0.41482 0.40462
 C651 C 0.77832 0.40866 0.39187
 C652 C 0.75791 0.42147 0.39995
 C653 C 0.75883 0.44000 0.42036
 C654 C 0.78013 0.44616 0.43316
 C655 C 0.77778 0.38800 0.37183
 C656 C 0.76148 0.38532 0.35050
 C657 C 0.75997 0.36406 0.33173
 C658 C 0.74895 0.36565 0.30336
 C659 C 0.74600 0.34575 0.28577
 C660 C 0.75377 0.32391 0.29649
 C661 C 0.76477 0.32217 0.32478
 C662 C 0.76789 0.34207 0.34229
 H663 H 0.81721 0.43769 0.43448
 H664 H 0.81552 0.40508 0.39899
 H665 H 0.74109 0.41681 0.39133
 H666 H 0.74277 0.44933 0.42642
 H667 H 0.79166 0.37491 0.37433
 H668 H 0.74902 0.39944 0.34593
 H669 H 0.74247 0.38233 0.29488
 H670 H 0.73729 0.34729 0.26406
 H671 H 0.77058 0.30533 0.33346
 H672 H 0.77579 0.34004 0.36443
 C673 C 0.05690 0.25547 0.93140
 C674 C 0.07475 0.25457 0.90979
 C675 C 0.08527 0.27493 0.90022
 C676 C 0.07708 0.29644 0.91198
 C677 C 0.05900 0.29742 0.93339
 C678 C 0.04880 0.27690 0.94365
 C679 C 0.10453 0.27299 0.87783
 C680 C 0.12200 0.28782 0.87682
 C681 C 0.14243 0.28421 0.85656
 C682 C 0.16421 0.29163 0.86624
 C683 C 0.18410 0.28733 0.84847
 C684 C 0.18242 0.27593 0.82050
 C685 C 0.16060 0.26926 0.81015
 C686 C 0.14072 0.27334 0.82804
 H687 H 0.04948 0.23926 0.93844
 H688 H 0.08064 0.23781 0.90088
 H689 H 0.08438 0.31254 0.90444
 H690 H 0.05317 0.31428 0.94202
 H691 H 0.10534 0.25765 0.86356
 H692 H 0.12251 0.30182 0.89323
 H693 H 0.16593 0.30019 0.88798
 H694 H 0.20087 0.29264 0.85665
 H695 H 0.15908 0.26059 0.78845
 H696 H 0.12408 0.26803 0.81950
 C697 C 0.56425 0.75192 0.43416
 C698 C 0.58389 0.75047 0.41541
 C699 C 0.59118 0.77003 0.39947
 C700 C 0.57842 0.79122 0.40265
 C701 C 0.55889 0.79277 0.42178
 C702 C 0.55168 0.77314 0.43785
 C703 C 0.61289 0.76788 0.38137
 C704 C 0.61728 0.78093 0.35693
 C705 C 0.63910 0.77759 0.33924
 C706 C 0.63867 0.78012 0.30754
 C707 C 0.65885 0.77563 0.29030
 C708 C 0.67985 0.76897 0.30461
 C709 C 0.68053 0.76754 0.33640
 C710 C 0.66035 0.77174 0.35357
 H711 H 0.55927 0.73651 0.44636
 H712 H 0.59352 0.73399 0.41348
 H713 H 0.58390 0.80677 0.39121
 H714 H 0.54960 0.80938 0.42427
 H715 H 0.62529 0.75409 0.38765
 H716 H 0.60405 0.79311 0.34845
 H717 H 0.62254 0.78486 0.29608
 H718 H 0.65804 0.77693 0.26579
 H719 H 0.69667 0.76280 0.34786
 H720 H 0.66141 0.77040 0.37804
 C721 C 0.93701 0.75027 0.93370
 C722 C 0.91738 0.75149 0.91509
 C723 C 0.91010 0.73172 0.89966
 C724 C 0.92281 0.71056 0.90326
 C725 C 0.94230 0.70925 0.92226
 C726 C 0.94953 0.72908 0.93777
 C727 C 0.88842 0.73353 0.88165
 C728 C 0.88433 0.72025 0.85739
 C729 C 0.86241 0.72282 0.83995
 C730 C 0.86285 0.71986 0.80831
 C731 C 0.84246 0.72323 0.79132
 C732 C 0.82125 0.72915 0.80583
 C733 C 0.82065 0.73111 0.83759
 C734 C 0.84103 0.72808 0.85449
 H735 H 0.94203 0.76582 0.94550
 H736 H 0.90776 0.76794 0.91285
 H737 H 0.91733 0.69486 0.89224
 H738 H 0.95156 0.69266 0.92504
 H739 H 0.87578 0.74715 0.88791
 H740 H 0.89780 0.70826 0.84895
 H741 H 0.87909 0.71556 0.79669
 H742 H 0.84324 0.72155 0.76684
 H743 H 0.80439 0.73530 0.84923
 H744 H 0.84002 0.72974 0.87895
 C745 C 0.43278 0.25379 0.44502
 C746 C 0.41271 0.25323 0.42735
 C747 C 0.40639 0.23258 0.41321
 C748 C 0.42046 0.21231 0.41724
 C749 C 0.44040 0.21276 0.43541
 C750 C 0.44672 0.23353 0.44949
 C751 C 0.38447 0.23269 0.39578
 C752 C 0.38120 0.21918 0.37151
 C753 C 0.35945 0.22099 0.35370
 C754 C 0.36048 0.21899 0.32198
 C755 C 0.34030 0.22227 0.30458
 C756 C 0.31874 0.22715 0.31876
 C757 C 0.31754 0.22805 0.35056
 C758 C 0.33772 0.22511 0.36790
 H759 H 0.43706 0.27001 0.45579
 H760 H 0.40205 0.26902 0.42472
 H761 H 0.41573 0.19599 0.40713
 H762 H 0.45077 0.19687 0.43860
 H763 H 0.37107 0.24557 0.40202
 H764 H 0.39537 0.20802 0.36305
 H765 H 0.37702 0.21562 0.31061
 H766 H 0.34152 0.22138 0.28006
 H767 H 0.30099 0.23143 0.36190
 H768 H 0.33631 0.22608 0.39239
 C769 C 0.69879 0.94411 0.91782
 C770 C 0.69801 0.92587 0.89682
 C771 C 0.71796 0.91184 0.89080
 C772 C 0.73899 0.91696 0.90517
 C773 C 0.73986 0.93532 0.92579
 C774 C 0.71973 0.94893 0.93265
 C775 C 0.71667 0.89216 0.86928
 C776 C 0.72903 0.87224 0.87355
 C777 C 0.72888 0.85218 0.85253
 C778 C 0.73455 0.82998 0.86408
 C779 C 0.73663 0.81081 0.84475
 C780 C 0.73353 0.81352 0.81335
 C781 C 0.72740 0.83560 0.80170
 C782 C 0.72503 0.85482 0.82113
 H783 H 0.68303 0.95440 0.92247
 H784 H 0.68168 0.92240 0.88575
 H785 H 0.75485 0.90690 0.90031
 H786 H 0.75628 0.93866 0.93669
 H787 H 0.70449 0.89373 0.85062
 H788 H 0.73928 0.87012 0.89404
 H789 H 0.73769 0.82752 0.88812
 H790 H 0.74130 0.79389 0.85416
 H791 H 0.72511 0.83804 0.77749
 H792 H 0.72115 0.87177 0.81139
 C793 C 0.26076 0.43938 0.42361
 C794 C 0.26021 0.42117 0.40269
 C795 C 0.23927 0.41034 0.39631
 C796 C 0.21867 0.41854 0.41073
 C797 C 0.21919 0.43689 0.43152
 C798 C 0.24027 0.44742 0.43833
 C799 C 0.23964 0.39091 0.37422
 C800 C 0.22432 0.37384 0.37477
 C801 C 0.22623 0.35345 0.35426
 C802 C 0.21837 0.33199 0.36456
 C803 C 0.22118 0.31207 0.34655
 C804 C 0.23150 0.31344 0.31776
 C805 C 0.23851 0.33498 0.30682
 C806 C 0.23590 0.35488 0.32491
 H807 H 0.27726 0.44721 0.42817
 H808 H 0.27628 0.41531 0.39171
 H809 H 0.20208 0.41108 0.40571
 H810 H 0.20307 0.44281 0.44231
 H811 H 0.25417 0.38976 0.35848
 H812 H 0.21117 0.37364 0.39244
 H813 H 0.21069 0.33049 0.38694
 H814 H 0.21569 0.29551 0.35523
 H815 H 0.24643 0.33625 0.28455
 H816 H 0.24146 0.37128 0.31588
 C817 C 0.23489 0.06428 0.93752
 C818 C 0.23474 0.08454 0.92003
 C819 C 0.25549 0.09281 0.90799
 C820 C 0.27655 0.08045 0.91377
 C821 C 0.27682 0.06040 0.93174
 C822 C 0.25600 0.05211 0.94410
 C823 C 0.25478 0.11508 0.89122
 C824 C 0.26938 0.11971 0.86838
 C825 C 0.26810 0.14218 0.85207
 C826 C 0.27162 0.14262 0.82054
 C827 C 0.26958 0.16362 0.80458
 C828 C 0.26457 0.18456 0.82005
 C829 C 0.26207 0.18422 0.85177
 C830 C 0.26361 0.16321 0.86763
 H831 H 0.21848 0.05857 0.94656
 H832 H 0.21832 0.09387 0.91598
 H833 H 0.29291 0.08669 0.90530
 H834 H 0.29343 0.05160 0.93624
 H835 H 0.24104 0.12771 0.89705
 H836 H 0.28156 0.10631 0.86020
 H837 H 0.27533 0.12663 0.80818
 H838 H 0.27167 0.16354 0.78013
 H839 H 0.25858 0.20024 0.86417
 H840 H 0.26147 0.16342 0.89206
 C841 C 0.80046 0.54979 0.41493
 C842 C 0.79986 0.56780 0.39355
 C843 C 0.77937 0.58135 0.38905
 C844 C 0.75920 0.57596 0.40542
 C845 C 0.75971 0.55780 0.42647
 C846 C 0.78041 0.54470 0.43174
 C847 C 0.77935 0.60081 0.36706
 C848 C 0.76666 0.62050 0.37164
 C849 C 0.76631 0.64048 0.35046
 C850 C 0.76125 0.66279 0.36211
 C851 C 0.75949 0.68199 0.34279
 C852 C 0.76226 0.67919 0.31132
 C853 C 0.76748 0.65693 0.29954
 C854 C 0.76956 0.63770 0.31895
 H855 H 0.81662 0.53988 0.41833
 H856 H 0.81554 0.57149 0.38096
 H857 H 0.74294 0.58565 0.40182
 H858 H 0.74393 0.55423 0.43893
 H859 H 0.79110 0.59941 0.34780
 H860 H 0.75686 0.62263 0.39259
 H861 H 0.75858 0.66535 0.38626
 H862 H 0.75553 0.69904 0.35232
 H863 H 0.76949 0.65442 0.27528
 H864 H 0.77293 0.62066 0.30916
 C865 C 0.05666 0.70179 0.92035
 C866 C 0.07470 0.70112 0.89890
 C867 C 0.08451 0.72170 0.88859
 C868 C 0.07580 0.74309 0.90023
 C869 C 0.05774 0.74380 0.92156
 C870 C 0.04805 0.72316 0.93223
 C871 C 0.10473 0.72008 0.86745
 C872 C 0.11160 0.73795 0.85035
 C873 C 0.13314 0.73764 0.83150
 C874 C 0.13655 0.75645 0.81179
 C875 C 0.15733 0.75817 0.79551
 C876 C 0.17513 0.74106 0.79859
 C877 C 0.17171 0.72193 0.81756
 C878 C 0.15097 0.72024 0.83403
 H879 H 0.04974 0.68549 0.92792
 H880 H 0.08119 0.68440 0.89054
 H881 H 0.08330 0.75936 0.89382
 H882 H 0.05178 0.76062 0.93020
 H883 H 0.11401 0.70345 0.86609
 H884 H 0.10102 0.75387 0.85002
 H885 H 0.12326 0.77016 0.80945
 H886 H 0.15977 0.77308 0.78097
 H887 H 0.18542 0.70868 0.82030
 H888 H 0.14949 0.70568 0.84931
 C889 C 0.55752 0.20951 0.43292
 C890 C 0.57536 0.20821 0.41124
 C891 C 0.58200 0.22818 0.39560
 C892 C 0.57041 0.24958 0.40210
 C893 C 0.55267 0.25090 0.42390
 C894 C 0.54614 0.23092 0.43973
 C895 C 0.60211 0.22641 0.37443
 C896 C 0.60528 0.24138 0.35156
 C897 C 0.62640 0.24083 0.33209
 C898 C 0.62511 0.25085 0.30303
 C899 C 0.64505 0.25213 0.28488
 C900 C 0.66662 0.24363 0.29568
 C901 C 0.66804 0.23349 0.32456
 C902 C 0.64811 0.23207 0.34266
 H903 H 0.55299 0.19381 0.44482
 H904 H 0.58416 0.19158 0.40686
 H905 H 0.57549 0.26549 0.39121
 H906 H 0.54435 0.26769 0.42875
 H907 H 0.61446 0.21198 0.37766
 H908 H 0.59180 0.25439 0.34642
 H909 H 0.60868 0.25794 0.29452
 H910 H 0.64380 0.26021 0.26271
 H911 H 0.68469 0.22715 0.33329
 H912 H 0.64998 0.22492 0.36527
 C913 C 0.94335 0.30128 0.92813
 C914 C 0.92543 0.30162 0.90671
 C915 C 0.91561 0.28086 0.89713
 C916 C 0.92405 0.25968 0.90963
 C917 C 0.94199 0.25934 0.93096
 C918 C 0.95175 0.28013 0.94059
 C919 C 0.89574 0.28211 0.87567
 C920 C 0.88939 0.26403 0.85871
 C921 C 0.86840 0.26419 0.83912
 C922 C 0.86615 0.24593 0.81826
 C923 C 0.84591 0.24412 0.80108
 C924 C 0.82751 0.26057 0.80447
 C925 C 0.82976 0.27913 0.82470
 C926 C 0.84996 0.28091 0.84203
 H927 H 0.95044 0.31762 0.93515
 H928 H 0.91911 0.31819 0.89771
 H929 H 0.91647 0.24334 0.90380
 H930 H 0.94789 0.24277 0.94035
 H931 H 0.88642 0.29870 0.87367
 H932 H 0.90009 0.24818 0.85885
 H933 H 0.87995 0.23273 0.81566
 H934 H 0.84436 0.22964 0.78560
 H935 H 0.81555 0.29182 0.82772
 H936 H 0.85056 0.29493 0.85830
 C937 C 0.44229 0.79688 0.42169
 C938 C 0.42384 0.79653 0.40111
 C939 C 0.41461 0.77540 0.39192
 C940 C 0.42431 0.75451 0.40379
 C941 C 0.44276 0.75486 0.42440
 C942 C 0.45183 0.77605 0.43378
 C943 C 0.39402 0.77597 0.37161
 C944 C 0.38779 0.75783 0.35469
 C945 C 0.36637 0.75790 0.33594
 C946 C 0.36498 0.74167 0.31223
 C947 C 0.34461 0.74019 0.29517
 C948 C 0.32519 0.75478 0.30174
 C949 C 0.32647 0.77114 0.32517
 C950 C 0.34683 0.77267 0.34223
 H951 H 0.44881 0.81352 0.42851
 H952 H 0.41659 0.81288 0.39253
 H953 H 0.41729 0.73787 0.39810
 H954 H 0.44958 0.73851 0.43347
 H955 H 0.38402 0.79223 0.37022
 H956 H 0.39900 0.74233 0.35384
 H957 H 0.37965 0.72997 0.30707
 H958 H 0.34382 0.72740 0.27719
 H959 H 0.31149 0.78236 0.33064
 H960 H 0.34686 0.78490 0.36087
 C961 C 0.23695 0.94040 0.07150
 C962 C 0.23721 0.92234 0.09271
 C963 C 0.25832 0.91160 0.10197
 C964 C 0.27931 0.91966 0.09001
 C965 C 0.27906 0.93779 0.06883
 C966 C 0.25787 0.94830 0.05926
 C967 C 0.25761 0.89249 0.12450
 C968 C 0.27454 0.87598 0.12752
 C969 C 0.27262 0.85608 0.14865
 C970 C 0.28415 0.83486 0.14140
 C971 C 0.28156 0.81533 0.15982
 C972 C 0.26767 0.81686 0.18603
 C973 C 0.25690 0.83821 0.19408
 C974 C 0.25940 0.85772 0.17562
 H975 H 0.22032 0.94819 0.06475
 H976 H 0.22080 0.91660 0.10174
 H977 H 0.29598 0.91234 0.09725
 H978 H 0.29550 0.94362 0.06004
 H979 H 0.24173 0.89118 0.13762
 H980 H 0.28944 0.87585 0.11241
 H981 H 0.29461 0.83322 0.12093
 H982 H 0.28992 0.79889 0.15335
 H983 H 0.24619 0.83960 0.21434
 H984 H 0.25093 0.87398 0.18250
 C985 C 0.80412 0.43466 0.56489
 C986 C 0.80426 0.41610 0.58539
 C987 C 0.78359 0.40954 0.59960
 C988 C 0.76268 0.42189 0.59281
 C989 C 0.76251 0.44034 0.57214
 C990 C 0.78320 0.44684 0.55781
 C991 C 0.78419 0.38882 0.61962
 C992 C 0.76857 0.38552 0.64178
 C993 C 0.76820 0.36403 0.66030
 C994 C 0.75804 0.36499 0.68935
 C995 C 0.75619 0.34479 0.70674
 C996 C 0.76420 0.32328 0.69511
 C997 C 0.77437 0.32218 0.66617
 C998 C 0.77639 0.34237 0.64887
 H999 H 0.82034 0.43915 0.55411
 H1000 H 0.82055 0.40673 0.59001
 H1001 H 0.74628 0.41692 0.60259
 H1002 H 0.74608 0.44929 0.56705
 H1003 H 0.79836 0.37615 0.61629
 H1004 H 0.75581 0.39922 0.64717
 H1005 H 0.75138 0.38140 0.69852
 H1006 H 0.74811 0.34582 0.72898
 H1007 H 0.78036 0.30560 0.65682
 H1008 H 0.78364 0.34080 0.62622
 C1009 C 0.74823 0.05540 0.06597
 C1010 C 0.74980 0.07361 0.08672
 C1011 C 0.72966 0.08429 0.09935
 C1012 C 0.70778 0.07580 0.09138
 C1013 C 0.70621 0.05757 0.07051
 C1014 C 0.72641 0.04730 0.05739
 C1015 C 0.73247 0.10396 0.12072
 C1016 C 0.71542 0.11960 0.12790
 C1017 C 0.71906 0.14019 0.14746
 C1018 C 0.70341 0.15944 0.14511
 C1019 C 0.70668 0.17955 0.16218
 C1020 C 0.72563 0.18070 0.18200
 C1021 C 0.74091 0.16133 0.18520
 C1022 C 0.73760 0.14118 0.16826
 H1023 H 0.76416 0.04784 0.05639
 H1024 H 0.76688 0.07961 0.09260
 H1025 H 0.69184 0.08295 0.10126
 H1026 H 0.68915 0.05157 0.06460
 H1027 H 0.74987 0.10639 0.12918
 H1028 H 0.69849 0.11840 0.11747
 H1029 H 0.68885 0.15909 0.12957
 H1030 H 0.69468 0.19435 0.15960
 H1031 H 0.75545 0.16190 0.20075
 H1032 H 0.74955 0.12649 0.17174
 C1033 C 0.26482 0.56424 0.55751
 C1034 C 0.26527 0.58397 0.57595
 C1035 C 0.24534 0.59159 0.59212
 C1036 C 0.22479 0.57917 0.58932
 C1037 C 0.22425 0.55958 0.57057
 C1038 C 0.24425 0.55195 0.55440
 C1039 C 0.24630 0.61317 0.61028
 C1040 C 0.23305 0.61742 0.63492
 C1041 C 0.23472 0.63906 0.65280
 C1042 C 0.23144 0.63838 0.68438
 C1043 C 0.23382 0.65844 0.70189
 C1044 C 0.23909 0.67958 0.68797
 C1045 C 0.24139 0.68049 0.65626
 C1046 C 0.23933 0.66041 0.63883
 H1047 H 0.28046 0.55890 0.54519
 H1048 H 0.28124 0.59335 0.57756
 H1049 H 0.20895 0.58491 0.60087
 H1050 H 0.20812 0.55052 0.56852
 H1051 H 0.25928 0.62551 0.60387
 H1052 H 0.22178 0.60416 0.64340
 H1053 H 0.22761 0.62218 0.69558
 H1054 H 0.23187 0.65745 0.72632
 H1055 H 0.24510 0.69674 0.64510
 H1056 H 0.24119 0.66166 0.61442
 C1057 C 0.94572 0.75061 0.07231
 C1058 C 0.92832 0.75214 0.09449
 C1059 C 0.91918 0.73201 0.10719
 C1060 C 0.92838 0.71015 0.09771
 C1061 C 0.94579 0.70862 0.07538
 C1062 C 0.95451 0.72884 0.06227
 C1063 C 0.90015 0.73492 0.12999
 C1064 C 0.88617 0.71793 0.13881
 C1065 C 0.86583 0.72204 0.15930
 C1066 C 0.84743 0.70659 0.15817
 C1067 C 0.82724 0.71071 0.17549
 C1068 C 0.82518 0.73032 0.19429
 C1069 C 0.84384 0.74526 0.19656
 C1070 C 0.86409 0.74109 0.17943
 H1071 H 0.95209 0.76655 0.06279
 H1072 H 0.92173 0.76921 0.10144
 H1073 H 0.92241 0.69417 0.10744
 H1074 H 0.95238 0.69159 0.06833
 H1075 H 0.89663 0.75243 0.13815
 H1076 H 0.88833 0.70078 0.12897
 H1077 H 0.84839 0.69166 0.14319
 H1078 H 0.81297 0.69898 0.17362
 H1079 H 0.84256 0.76032 0.21131
 H1080 H 0.87819 0.75288 0.18204
 C1081 C 0.43601 0.25928 0.57038
 C1082 C 0.41690 0.25995 0.59009
 C1083 C 0.41380 0.24199 0.61107
 C1084 C 0.43017 0.22326 0.61209
 C1085 C 0.44901 0.22230 0.59182
 C1086 C 0.45201 0.24025 0.57067
 C1087 C 0.39249 0.24246 0.62996
 C1088 C 0.39206 0.23482 0.65865
 C1089 C 0.37038 0.23630 0.67676
 C1090 C 0.37081 0.24491 0.70654
 C1091 C 0.35008 0.24811 0.72303
 C1092 C 0.32878 0.24202 0.71027
 C1093 C 0.32851 0.23232 0.68107
 C1094 C 0.34911 0.22968 0.66430
 H1095 H 0.43775 0.27323 0.55409
 H1096 H 0.40438 0.27445 0.58881
 H1097 H 0.42793 0.20897 0.62770
 H1098 H 0.46107 0.20740 0.59241
 H1099 H 0.37684 0.25053 0.62034
 H1100 H 0.40807 0.22905 0.66968
 H1101 H 0.38707 0.24998 0.71655
 H1102 H 0.35054 0.25567 0.74554
 H1103 H 0.31221 0.22748 0.67096
 H1104 H 0.34845 0.22261 0.64155
 C1105 C 0.05556 0.29842 0.08138
 C1106 C 0.07353 0.29796 0.10272
 C1107 C 0.08419 0.27680 0.11190
 C1108 C 0.07649 0.25599 0.09912
 C1109 C 0.05847 0.25644 0.07787
 C1110 C 0.04790 0.27765 0.06860
 C1111 C 0.10409 0.27728 0.13331
 C1112 C 0.11158 0.25879 0.14961
 C1113 C 0.13254 0.25841 0.16932
 C1114 C 0.13593 0.23970 0.18952
 C1115 C 0.15619 0.23749 0.20688
 C1116 C 0.17347 0.25398 0.20435
 C1117 C 0.17007 0.27296 0.18475
 C1118 C 0.14985 0.27515 0.16724
 H1119 H 0.04783 0.31507 0.07467
 H1120 H 0.07924 0.31426 0.11195
 H1121 H 0.08469 0.23933 0.10465
 H1122 H 0.05315 0.24015 0.06822
 H1123 H 0.11244 0.29371 0.13587
 H1124 H 0.10188 0.24303 0.14891
 H1125 H 0.12302 0.22648 0.19150
 H1126 H 0.15864 0.22267 0.22184
 H1127 H 0.18342 0.28569 0.18237
 H1128 H 0.14840 0.28952 0.15149
 C1129 C 0.55590 0.79970 0.57292
 C1130 C 0.57376 0.79994 0.59442
 C1131 C 0.58395 0.77907 0.60543
 C1132 C 0.57590 0.75786 0.59431
 C1133 C 0.55802 0.75762 0.57291
 C1134 C 0.54791 0.77852 0.56181
 C1135 C 0.60381 0.78015 0.62685
 C1136 C 0.61065 0.76238 0.64488
 C1137 C 0.63177 0.76203 0.66435
 C1138 C 0.63549 0.74304 0.68406
 C1139 C 0.65598 0.74064 0.70092
 C1140 C 0.67315 0.75724 0.69848
 C1141 C 0.66935 0.77660 0.67963
 C1142 C 0.64891 0.77897 0.66257
 H1143 H 0.54854 0.81612 0.56477
 H1144 H 0.57976 0.81652 0.60232
 H1145 H 0.58376 0.74136 0.60124
 H1146 H 0.55244 0.74101 0.56459
 H1147 H 0.61276 0.79634 0.62767
 H1148 H 0.60037 0.74699 0.64549
 H1149 H 0.62272 0.72968 0.68590
 H1150 H 0.65872 0.72555 0.71535
 H1151 H 0.68258 0.78946 0.67739
 H1152 H 0.64718 0.79370 0.64746
   
