data_POSCAR
  _audit_creation_date              2014-09-24
  _audit_creation_method            'ToBaCCo'
  _symmetry_space_group_name_H-M    'P1'
  _symmetry_Int_Tables_number       1
  _symmetry_cell_setting            triclinic
  loop_
  _symmetry_equiv_pos_as_xyz
 x,y,z
_cell_length_a 12.2836
_cell_length_b 12.7868
_cell_length_c 12.5314
_cell_angle_alpha 90.836300
_cell_angle_beta 87.269900
_cell_angle_gamma 117.648100
loop_
  _atom_site_label
  _atom_site_type_symbol
  _atom_site_fract_x
  _atom_site_fract_y
  _atom_site_fract_z
O1 O 0.32101 0.49229 0.36562
 O2 O 0.12105 0.50610 0.34052
 C3 C 0.10470 0.58617 0.39109
 O4 O 0.15240 0.69343 0.36071
 O5 O 0.35402 0.88968 0.31898
 C6 C 0.43447 0.90219 0.38421
 O7 O 0.48850 0.83839 0.38205
 O8 O 0.50905 0.64348 0.35747
 C9 C 0.42914 0.54526 0.39674
 O10 O 0.36878 0.50006 0.15056
 O11 O 0.16530 0.50583 0.12280
 C12 C 0.09798 0.55387 0.10984
 O13 O 0.11900 0.65072 0.15349
 O14 O 0.33842 0.83826 0.11146
 C15 C 0.45573 0.89313 0.10419
 O16 O 0.52371 0.87812 0.16930
 O17 O 0.53243 0.68011 0.14490
 C18 C 0.47250 0.57635 0.10978
 Cr19 Cr 0.24719 0.50747 0.24493
 Cr20 Cr 0.24449 0.76454 0.23585
 Cr21 Cr 0.50674 0.75683 0.26308
 O22 O 0.33286 0.67517 0.24798
 O23 O 0.51025 0.37049 0.63034
 O24 O 0.52630 0.17279 0.60223
 C25 C 0.58226 0.11045 0.59998
 O26 O 0.66060 0.12110 0.66707
 O27 O 0.86656 0.31564 0.65490
 C28 C 0.91667 0.42359 0.62783
 O29 O 0.89569 0.50111 0.67720
 O30 O 0.70157 0.51669 0.62929
 C31 C 0.59494 0.46814 0.59394
 O32 O 0.46522 0.31941 0.84047
 O33 O 0.46745 0.11901 0.81048
 C34 C 0.52771 0.09688 0.87816
 O35 O 0.64446 0.14940 0.87838
 O36 O 0.86017 0.33576 0.87027
 C37 C 0.86162 0.42110 0.92369
 O38 O 0.81959 0.48670 0.88968
 O39 O 0.62675 0.50035 0.83936
 C40 C 0.52222 0.42269 0.87730
 Cr41 Cr 0.49920 0.24887 0.72148
 Cr42 Cr 0.75527 0.23457 0.76689
 Cr43 Cr 0.75829 0.49491 0.75837
 O44 O 0.67111 0.32670 0.74827
 N45 N 0.46580 -0.00578 0.46045
 N46 N 0.55358 0.02033 0.52207
 N47 N 1.02822 0.55472 0.48676
 N48 N 0.99734 0.45745 0.53474
 N49 N 0.46025 0.48905 0.47924
 N50 N 0.56899 0.52787 0.51082
 N51 N 0.51717 -0.02027 1.02279
 N52 N 0.46013 0.00752 0.95628
 N53 N 0.99827 0.49584 1.06493
 N54 N 0.89477 0.43241 1.03254
 N55 N 0.52582 0.54576 1.01897
 N56 N 0.46603 0.45157 0.96725
   
