data_POSCAR
  _audit_creation_date              2014-09-24
  _audit_creation_method            'ToBaCCo'
  _symmetry_space_group_name_H-M    'P1'
  _symmetry_Int_Tables_number       1
  _symmetry_cell_setting            triclinic
  loop_
  _symmetry_equiv_pos_as_xyz
 x,y,z
_cell_length_a 39.4219
_cell_length_b 39.6332
_cell_length_c 39.7175
_cell_angle_alpha 90.021300
_cell_angle_beta 90.051900
_cell_angle_gamma 90.000400
loop_
  _atom_site_label
  _atom_site_type_symbol
  _atom_site_fract_x
  _atom_site_fract_y
  _atom_site_fract_z
C1 C 0.28023 0.42084 -0.01377
 C2 C 0.28000 0.42042 0.02065
 C3 C 0.29040 0.38848 0.03023
 N4 N 0.29697 0.36923 0.00280
 C5 C 0.29024 0.38891 -0.02423
 C6 C 0.29121 0.37681 0.06379
 C7 C 0.31047 0.34853 0.07354
 C8 C 0.30790 0.33175 0.10406
 C9 C 0.33263 0.30716 0.10404
 C10 C 0.34948 0.30977 0.07351
 N11 N 0.33587 0.33504 0.05518
 C12 C 0.37791 0.29063 0.06372
 C13 C 0.38956 0.28989 0.03012
 C14 C 0.42163 0.27952 0.02047
 C15 C 0.42198 0.27985 -0.01396
 C16 C 0.38987 0.28989 -0.02435
 N17 N 0.37016 0.29653 0.00274
 C18 C 0.37847 0.29067 -0.05824
 C19 C 0.35024 0.31066 -0.06796
 C20 C 0.33118 0.30620 -0.09702
 C21 C 0.30651 0.33070 -0.09700
 C22 C 0.31102 0.34960 -0.06792
 N23 N 0.33761 0.33705 -0.05025
 C24 C 0.29089 0.37763 -0.05813
 H25 H 0.27394 0.44239 -0.02928
 H26 H 0.27321 0.44134 0.03683
 H27 H 0.34813 0.34748 -0.02852
 H28 H 0.29020 0.33675 0.12426
 H29 H 0.33767 0.28953 0.12423
 H30 H 0.44269 0.27269 0.03659
 H31 H 0.44361 0.27360 -0.02952
 H32 H 0.28681 0.33334 -0.11578
 H33 H 0.34565 0.34482 0.03287
 H34 H 0.33384 0.28664 -0.11583
 C35 C 0.76688 0.63253 -0.01416
 C36 C 0.76555 0.63174 0.02033
 C37 C 0.73191 0.63658 0.02903
 N38 N 0.71265 0.64060 0.00113
 C39 C 0.73387 0.63735 -0.02541
 C40 C 0.71826 0.63321 0.06171
 C41 C 0.68874 0.65132 0.07054
 C42 C 0.66734 0.64510 0.09754
 C43 C 0.64312 0.67031 0.09734
 C44 C 0.65053 0.69111 0.07023
 N45 N 0.67818 0.67921 0.05411
 C46 C 0.63348 0.72106 0.06095
 C47 C 0.63752 0.73425 0.02815
 C48 C 0.63171 0.76737 0.01856
 C49 C 0.63291 0.76795 -0.01597
 C50 C 0.63938 0.73515 -0.02626
 N51 N 0.64277 0.71472 0.00075
 C52 C 0.63709 0.72294 -0.05958
 C53 C 0.65456 0.69318 -0.06876
 C54 C 0.64750 0.67250 -0.09602
 C55 C 0.67165 0.64730 -0.09595
 C56 C 0.69300 0.65343 -0.06873
 N57 N 0.68202 0.68122 -0.05224
 C58 C 0.72235 0.63491 -0.05920
 H59 H 0.78964 0.62980 -0.02913
 H60 H 0.78688 0.62799 0.03709
 H61 H 0.69431 0.69303 -0.03214
 H62 H 0.66842 0.62440 0.11521
 H63 H 0.62223 0.67244 0.11483
 H64 H 0.62665 0.78879 0.03470
 H65 H 0.62891 0.78989 -0.03168
 H66 H 0.67220 0.62640 -0.11340
 H67 H 0.69105 0.69122 0.03453
 H68 H 0.62663 0.67447 -0.11358
 C69 C 0.71964 0.41972 1.01667
 C70 C 0.71925 0.41947 0.98226
 C71 C 0.70844 0.38766 0.97268
 N72 N 0.70227 0.36830 1.00009
 C73 C 0.70958 0.38781 1.02713
 C74 C 0.70689 0.37627 0.93905
 C75 C 0.68727 0.34821 0.92932
 C76 C 0.68928 0.33180 0.89857
 C77 C 0.66458 0.30720 0.89874
 C78 C 0.64826 0.30940 0.92960
 N79 N 0.66218 0.33452 0.94798
 C80 C 0.62023 0.28971 0.93965
 C81 C 0.60928 0.28790 0.97348
 C82 C 0.57842 0.27479 0.98387
 C83 C 0.57893 0.27476 1.01835
 C84 C 0.61009 0.28785 1.02794
 N85 N 0.62858 0.29605 1.00048
 C86 C 0.62217 0.28929 1.06140
 C87 C 0.65028 0.30923 1.07093
 C88 C 0.66812 0.30587 1.10081
 C89 C 0.69267 0.33056 1.10083
 C90 C 0.68895 0.34859 1.07106
 N91 N 0.66305 0.33531 1.05298
 C92 C 0.70896 0.37661 1.06109
 H93 H 0.72625 0.44120 1.03217
 H94 H 0.72587 0.44044 0.96609
 H95 H 0.65277 0.34531 1.03098
 H96 H 0.70665 0.33699 0.87813
 H97 H 0.65931 0.28972 0.87846
 H98 H 0.55768 0.26609 0.96826
 H99 H 0.55866 0.26600 1.03449
 H100 H 0.71151 0.33414 1.12031
 H101 H 0.65285 0.34407 0.97057
 H102 H 0.66427 0.28725 1.12035
 C103 C 0.28196 0.57603 1.01501
 C104 C 0.28150 0.57640 0.98058
 C105 C 0.29157 0.60841 0.97091
 N106 N 0.29817 0.62775 0.99829
 C107 C 0.29178 0.60806 1.02538
 C108 C 0.29203 0.62001 0.93731
 C109 C 0.31096 0.64844 0.92738
 C110 C 0.30810 0.66507 0.89679
 C111 C 0.33253 0.68997 0.89668
 C112 C 0.34946 0.68772 0.92721
 N113 N 0.33626 0.66232 0.94565
 C114 C 0.37757 0.70735 0.93695
 C115 C 0.38935 0.70835 0.97051
 C116 C 0.42125 0.71941 0.98004
 C117 C 0.42177 0.71917 1.01446
 C118 C 0.38994 0.70846 1.02496
 N119 N 0.37023 0.70134 0.99796
 C120 C 0.37876 0.70764 1.05890
 C121 C 0.35115 0.68700 1.06895
 C122 C 0.33243 0.69105 1.09824
 C123 C 0.30807 0.66623 1.09833
 C124 C 0.31247 0.64751 1.06911
 N125 N 0.33870 0.66048 1.05127
 C126 C 0.29247 0.61937 1.05929
 H127 H 0.27592 0.55447 1.03059
 H128 H 0.27474 0.55541 0.96448
 H129 H 0.34906 0.65033 1.02936
 H130 H 0.29039 0.65979 0.87663
 H131 H 0.33730 0.70759 0.87642
 H132 H 0.44206 0.72670 0.96384
 H133 H 0.44329 0.72599 1.02996
 H134 H 0.28861 0.66329 1.11728
 H135 H 0.34622 0.65277 0.96798
 H136 H 0.33506 0.71056 1.11711
 C137 C -0.01682 0.28326 0.42292
 C138 C 0.01785 0.28232 0.42228
 C139 C 0.02748 0.29256 0.39038
 N140 N -0.00014 0.29976 0.37138
 C141 C -0.02736 0.29356 0.39116
 C142 C 0.06121 0.29262 0.37848
 C143 C 0.07121 0.31179 0.35034
 C144 C 0.10175 0.30871 0.33331
 C145 C 0.10201 0.33350 0.30895
 C146 C 0.07162 0.35086 0.31194
 N147 N 0.05313 0.33754 0.33724
 C148 C 0.06209 0.37943 0.29310
 C149 C 0.02851 0.39176 0.29288
 C150 C 0.01934 0.42394 0.28289
 C151 C -0.01534 0.42500 0.28352
 C152 C -0.02633 0.39320 0.29336
 N153 N 0.00061 0.37298 0.29959
 C154 C -0.06065 0.38245 0.29402
 C155 C -0.07091 0.35449 0.31385
 C156 C -0.10046 0.33600 0.30930
 C157 C -0.10072 0.31127 0.33355
 C158 C -0.07131 0.31519 0.35239
 N159 N -0.05320 0.34148 0.34007
 C160 C -0.06155 0.29475 0.38007
 H161 H -0.03245 0.27717 0.44446
 H162 H 0.03414 0.27511 0.44302
 H163 H -0.03109 0.35150 0.35048
 H164 H 0.12178 0.29064 0.33797
 H165 H 0.12228 0.33823 0.29121
 H166 H 0.03593 0.44458 0.27603
 H167 H -0.03066 0.44683 0.27751
 H168 H -0.11987 0.29190 0.33602
 H169 H 0.03095 0.34768 0.34726
 H170 H -0.11939 0.33900 0.28980
 C171 C 0.01677 0.72073 0.58092
 C172 C -0.01797 0.72048 0.58149
 C173 C -0.02740 0.70769 0.61259
 N174 N 0.00040 0.69993 0.63098
 C175 C 0.02746 0.70808 0.61168
 C176 C -0.06104 0.70625 0.62471
 C177 C -0.07038 0.68667 0.65291
 C178 C -0.10030 0.69024 0.67081
 C179 C -0.10003 0.66591 0.69552
 C180 C -0.07008 0.64780 0.69180
 N181 N -0.05214 0.66077 0.66578
 C182 C -0.05982 0.61991 0.71180
 C183 C -0.02556 0.60885 0.71216
 C184 C -0.01475 0.57694 0.72187
 C185 C 0.01992 0.57743 0.72139
 C186 C 0.02929 0.60937 0.71084
 N187 N 0.00151 0.62857 0.70491
 C188 C 0.06307 0.62104 0.70936
 C189 C 0.07265 0.64898 0.68963
 C190 C 0.10353 0.66562 0.69143
 C191 C 0.10312 0.68996 0.66665
 C192 C 0.07200 0.68739 0.65050
 N193 N 0.05371 0.66227 0.66458
 C194 C 0.06160 0.70676 0.62253
 H195 H 0.03234 0.72935 0.56021
 H196 H -0.03439 0.72892 0.56133
 H197 H 0.03099 0.65247 0.65547
 H198 H -0.12003 0.70881 0.66688
 H199 H -0.11945 0.66264 0.71445
 H200 H -0.03017 0.55531 0.72831
 H201 H 0.03639 0.55654 0.72778
 H202 H 0.12340 0.70752 0.66123
 H203 H -0.03006 0.65066 0.65551
 H204 H 0.12419 0.66074 0.70870
 C205 C 1.01455 0.71486 0.42365
 C206 C 0.97986 0.71549 0.42317
 C207 C 0.97015 0.70629 0.39096
 N208 N 0.99773 0.70003 0.37161
 C209 C 1.02499 0.70577 0.39151
 C210 C 0.93637 0.70639 0.37917
 C211 C 0.92649 0.68843 0.35017
 C212 C 0.89591 0.69200 0.33327
 C213 C 0.89587 0.66838 0.30777
 C214 C 0.92643 0.65119 0.30996
 N215 N 0.94483 0.66350 0.33585
 C216 C 0.93608 0.62345 0.28999
 C217 C 0.96971 0.61125 0.28930
 C218 C 0.97894 0.57936 0.27845
 C219 C 1.01360 0.57830 0.27919
 C220 C 1.02455 0.60982 0.28995
 N221 N 0.99758 0.62985 0.29665
 C222 C 1.05889 0.62045 0.29135
 C223 C 1.06896 0.64781 0.31213
 C224 C 1.09852 0.66645 0.30842
 C225 C 1.09857 0.69041 0.33346
 C226 C 1.06907 0.68584 0.35195
 N227 N 1.05107 0.65994 0.33862
 C228 C 1.05913 0.70533 0.38027
 H229 H 1.03026 0.72039 0.44531
 H230 H 0.96362 0.72184 0.44420
 H231 H 1.02894 0.64953 0.34854
 H232 H 0.87570 0.70963 0.33878
 H233 H 0.87560 0.66425 0.28984
 H234 H 0.96238 0.55885 0.27107
 H235 H 1.02892 0.55658 0.27276
 H236 H 1.11770 0.70969 0.33672
 H237 H 0.96709 0.65308 0.34541
 H238 H 1.11758 0.66403 0.28900
 C239 C 0.97889 0.27867 0.57800
 C240 C 1.01363 0.27874 0.57850
 C241 C 1.02326 0.29126 0.60968
 N242 N 0.99557 0.29902 0.62819
 C243 C 0.96839 0.29114 0.60888
 C244 C 1.05694 0.29229 0.62179
 C245 C 1.06658 0.31152 0.65018
 C246 C 1.09659 0.30753 0.66790
 C247 C 1.09667 0.33159 0.69289
 C248 C 1.06682 0.34993 0.68954
 N249 N 1.04860 0.33739 0.66345
 C250 C 1.05687 0.37759 0.71002
 C251 C 1.02260 0.38865 0.71091
 C252 C 1.01190 0.42033 0.72146
 C253 C 0.97722 0.41991 0.72113
 C254 C 0.96771 0.38825 0.70983
 N255 N 0.99543 0.36916 0.70331
 C256 C 0.93387 0.37671 0.70821
 C257 C 0.92402 0.34920 0.68797
 C258 C 0.89308 0.33267 0.68963
 C259 C 0.89317 0.30879 0.66440
 C260 C 0.92417 0.31151 0.64813
 N261 N 0.94270 0.33629 0.66257
 C262 C 0.93431 0.29248 0.61985
 H263 H 0.96318 0.27023 0.55728
 H264 H 1.02994 0.27032 0.55826
 H265 H 0.96542 0.34615 0.65355
 H266 H 1.11616 0.28887 0.66368
 H267 H 1.11622 0.33450 0.71178
 H268 H 1.02739 0.44180 0.72833
 H269 H 0.96083 0.44068 0.72810
 H270 H 0.87277 0.29141 0.65878
 H271 H 1.02651 0.34775 0.65342
 H272 H 0.87257 0.33731 0.70713
 C273 C 0.27545 0.01593 0.42087
 C274 C 0.27621 -0.01861 0.42053
 C275 C 0.28915 -0.02807 0.38949
 N276 N 0.29650 -0.00046 0.37089
 C277 C 0.28795 0.02650 0.39002
 C278 C 0.29102 -0.06162 0.37760
 C279 C 0.31080 -0.07096 0.34946
 C280 C 0.30761 -0.10097 0.33187
 C281 C 0.33196 -0.10061 0.30705
 C282 C 0.34968 -0.07048 0.31039
 N283 N 0.33650 -0.05257 0.33632
 C284 C 0.37731 -0.05995 0.29004
 C285 C 0.38795 -0.02573 0.28950
 C286 C 0.41982 -0.01464 0.27954
 C287 C 0.41886 0.01983 0.27978
 C288 C 0.38667 0.02879 0.29041
 N289 N 0.36778 0.00096 0.29664
 C290 C 0.37449 0.06223 0.29172
 C291 C 0.34636 0.07154 0.31147
 C292 C 0.32926 0.10204 0.30957
 C293 C 0.30493 0.10152 0.33447
 C294 C 0.30799 0.07073 0.35079
 N295 N 0.33336 0.05272 0.33669
 C296 C 0.28885 0.06039 0.37897
 H297 H 0.26661 0.03147 0.44149
 H298 H 0.26801 -0.03490 0.44082
 H299 H 0.34358 0.03034 0.34592
 H300 H 0.28927 -0.12084 0.33604
 H301 H 0.33546 -0.12007 0.28829
 H302 H 0.44172 -0.02976 0.27305
 H303 H 0.43960 0.03645 0.27316
 H304 H 0.28709 0.12154 0.33987
 H305 H 0.34632 -0.03031 0.34631
 H306 H 0.33386 0.12253 0.29217
 C307 C 0.71878 -0.01683 0.57788
 C308 C 0.71882 0.01773 0.57715
 C309 C 0.70656 0.02843 0.60806
 N310 N 0.69885 0.00154 0.62760
 C311 C 0.70649 -0.02616 0.60921
 C312 C 0.70529 0.06243 0.61881
 C313 C 0.68646 0.07277 0.64720
 C314 C 0.68940 0.10373 0.66326
 C315 C 0.66556 0.10412 0.68862
 C316 C 0.64884 0.07339 0.68726
 N317 N 0.66161 0.05454 0.66192
 C318 C 0.62126 0.06383 0.70768
 C319 C 0.60969 0.03019 0.70949
 C320 C 0.57783 0.02075 0.72064
 C321 C 0.57751 -0.01373 0.72128
 C322 C 0.60946 -0.02435 0.71103
 N323 N 0.62902 0.00263 0.70332
 C324 C 0.62072 -0.05837 0.71055
 C325 C 0.64839 -0.06848 0.69003
 C326 C 0.66687 -0.09813 0.69355
 C327 C 0.69074 -0.09840 0.66829
 C328 C 0.68651 -0.06879 0.65024
 N329 N 0.66068 -0.05072 0.66359
 C330 C 0.70546 -0.05959 0.62152
 H331 H 0.72704 -0.03320 0.55767
 H332 H 0.72708 0.03319 0.55625
 H333 H 0.65012 -0.02889 0.65341
 H334 H 0.70689 0.12393 0.65741
 H335 H 0.66108 0.12467 0.70600
 H336 H 0.55685 0.03706 0.72731
 H337 H 0.55595 -0.02915 0.72815
 H338 H 0.70944 -0.11793 0.66410
 H339 H 0.65159 0.03190 0.65310
 H340 H 0.66415 -0.11733 0.71268
 C341 C 0.27812 0.97946 0.57873
 C342 C 0.27770 1.01395 0.57837
 C343 C 0.28783 1.02457 0.61016
 N344 N 0.29522 0.99756 0.62969
 C345 C 0.28900 0.96999 0.61049
 C346 C 0.28849 1.05863 0.62126
 C347 C 0.30881 1.06865 0.64904
 C348 C 0.30520 1.09839 0.66724
 C349 C 0.33017 1.09847 0.69146
 C350 C 0.34814 1.06867 0.68770
 N351 N 0.33503 1.05067 0.66182
 C352 C 0.37658 1.05923 0.70716
 C353 C 0.38874 1.02573 0.70844
 C354 C 0.41998 1.01618 0.72135
 C355 C 0.42042 0.98162 0.72152
 C356 C 0.38945 0.97116 0.70869
 N357 N 0.37015 0.99818 0.70052
 C358 C 0.37833 0.93729 0.70736
 C359 C 0.35008 0.92712 0.68805
 C360 C 0.33362 0.89630 0.69071
 C361 C 0.30856 0.89606 0.66651
 C362 C 0.31051 0.92673 0.64986
 N363 N 0.33591 0.94540 0.66302
 C364 C 0.29060 0.93634 0.62200
 H365 H 0.27151 0.96317 0.55784
 H366 H 0.27106 1.02938 0.55688
 H367 H 0.34518 0.96793 0.65319
 H368 H 0.28615 1.11777 0.66410
 H369 H 0.33421 1.11801 0.71007
 H370 H 0.44029 1.03240 0.72998
 H371 H 0.44114 0.96599 0.73028
 H372 H 0.29098 0.87563 0.66175
 H373 H 0.34527 1.02871 0.65161
 H374 H 0.33903 0.87611 0.70824
 C375 C 0.63394 1.01682 0.23699
 C376 C 0.63562 0.98240 0.23447
 C377 C 0.63740 0.97007 0.26706
 N378 N 0.63673 0.99590 0.28938
 C379 C 0.63404 1.02451 0.27106
 C380 C 0.63687 0.93565 0.27642
 C381 C 0.65490 0.92407 0.30511
 C382 C 0.65805 0.89062 0.31497
 C383 C 0.67983 0.89005 0.34197
 C384 C 0.68941 0.92315 0.34817
 N385 N 0.67465 0.94354 0.32515
 C386 C 0.71215 0.93340 0.37381
 C387 C 0.71805 0.96749 0.38322
 C388 C 0.73774 0.97695 0.41054
 C389 C 0.73658 1.01124 0.41227
 C390 C 0.71655 1.02231 0.38562
 N391 N 0.70437 0.99525 0.36857
 C392 C 0.70716 1.05662 0.37985
 C393 C 0.67842 1.06449 0.35973
 C394 C 0.65574 1.09069 0.36519
 C395 C 0.63325 1.09058 0.33868
 C396 C 0.64297 1.06466 0.31725
 N397 N 0.67005 1.04843 0.33079
 C398 C 0.62853 1.05689 0.28530
 H399 H 0.63320 1.03417 0.21597
 H400 H 0.63684 0.96855 0.21108
 H401 H 0.68432 1.02966 0.31903
 H402 H 0.64742 0.86844 0.30317
 H403 H 0.68803 0.86753 0.35500
 H404 H 0.75040 0.96089 0.42862
 H405 H 0.74739 1.02574 0.43267
 H406 H 0.61173 1.10731 0.33642
 H407 H 0.67988 0.96890 0.32153
 H408 H 0.65423 1.10739 0.38664
 O409 O 0.81268 0.85968 0.53462
 O410 O 0.85981 0.81134 0.47158
 O411 O 0.81313 0.85688 0.46937
 O412 O 0.85912 0.81271 0.53650
 O413 O 0.82009 0.77272 0.53704
 O414 O 0.77250 0.81850 0.47106
 O415 O 0.82014 0.77195 0.47154
 O416 O 0.77299 0.82037 0.53629
 Cu417 Cu 0.84007 0.83911 0.50310
 Cu418 Cu 0.79242 0.79187 0.50419
 C419 C 0.78462 0.84875 0.54579
 C420 C 0.84829 0.78345 0.46089
 C421 C 0.78486 0.84553 0.45906
 C422 C 0.84805 0.78474 0.54751
 O423 O 0.13655 0.18539 0.46917
 O424 O 0.18201 0.13744 0.53371
 O425 O 0.13582 0.18461 0.53422
 O426 O 0.18226 0.13838 0.46897
 O427 O 0.22308 0.17657 0.47020
 O428 O 0.17536 0.22411 0.53490
 O429 O 0.22206 0.17638 0.53569
 O430 O 0.17660 0.22437 0.46953
 Cu431 Cu 0.15514 0.15764 0.50152
 Cu432 Cu 0.20336 0.20431 0.50271
 C433 C 0.14849 0.21312 0.45855
 C434 C 0.21001 0.14822 0.54522
 C435 C 0.14713 0.21254 0.54512
 C436 C 0.21081 0.14913 0.45892
 O437 O 0.13886 0.81257 0.53169
 O438 O 0.18440 0.85879 0.46587
 O439 O 0.13764 0.81223 0.46701
 O440 O 0.18522 0.85876 0.53094
 O441 O 0.22507 0.81956 0.53094
 O442 O 0.17736 0.77294 0.46526
 O443 O 0.22471 0.82008 0.46551
 O444 O 0.17782 0.77250 0.53077
 Cu445 Cu 0.15764 0.83954 0.49882
 Cu446 Cu 0.20529 0.79227 0.49801
 C447 C 0.15012 0.78443 0.54201
 C448 C 0.21260 0.84787 0.45502
 C449 C 0.14882 0.78443 0.45573
 C450 C 0.21328 0.84741 0.54170
 O451 O 0.85681 0.18677 0.52914
 O452 O 0.81193 0.14070 0.46286
 O453 O 0.85880 0.18709 0.46453
 O454 O 0.81088 0.14015 0.52781
 O455 O 0.77078 0.17909 0.52741
 O456 O 0.81896 0.22624 0.46247
 O457 O 0.77137 0.17914 0.46190
 O458 O 0.81772 0.22671 0.52796
 Cu459 Cu 0.83850 0.15976 0.49604
 Cu460 Cu 0.79064 0.20679 0.49481
 C461 C 0.84542 0.21488 0.53940
 C462 C 0.78374 0.15136 0.45167
 C463 C 0.84766 0.21490 0.45326
 C464 C 0.78261 0.15126 0.53822
 O465 O 0.46747 0.86130 0.81510
 O466 O 0.53213 0.81699 0.86396
 O467 O 0.53268 0.86316 0.81682
 O468 O 0.46706 0.81509 0.86101
 O469 O 0.47036 0.77474 0.82275
 O470 O 0.53556 0.82408 0.77724
 O471 O 0.53676 0.77800 0.82444
 O472 O 0.46977 0.82203 0.77566
 Cu473 Cu 0.49969 0.84304 0.84312
 Cu474 Cu 0.50329 0.79559 0.79611
 C475 C 0.45786 0.84965 0.78694
 C476 C 0.54524 0.78995 0.85293
 C477 C 0.54469 0.85239 0.78918
 C478 C 0.45789 0.78653 0.84983
 O479 O 0.53388 0.18234 0.14072
 O480 O 0.46640 0.13838 0.18658
 O481 O 0.46848 0.18423 0.14041
 O482 O 0.53154 0.13515 0.18670
 O483 O 0.53477 0.17451 0.22597
 O484 O 0.46915 0.22354 0.17987
 O485 O 0.46851 0.17669 0.22695
 O486 O 0.53495 0.22226 0.17954
 Cu487 Cu 0.50008 0.15614 0.15969
 Cu488 Cu 0.50206 0.20320 0.20715
 C489 C 0.54519 0.21025 0.15169
 C490 C 0.45632 0.14964 0.21475
 C491 C 0.45816 0.21224 0.15192
 C492 C 0.54355 0.14592 0.21431
 O493 O 0.52979 0.13919 0.81376
 O494 O 0.46491 0.18420 0.86192
 O495 O 0.46419 0.13818 0.81476
 O496 O 0.53003 0.18425 0.86084
 O497 O 0.52870 0.22499 0.82289
 O498 O 0.46339 0.17758 0.77544
 O499 O 0.46277 0.22411 0.82316
 O500 O 0.52928 0.17907 0.77491
 Cu501 Cu 0.49719 0.15742 0.84159
 Cu502 Cu 0.49585 0.20550 0.79515
 C503 C 0.54048 0.15117 0.78612
 C504 C 0.45337 0.21213 0.85133
 C505 C 0.45316 0.14944 0.78693
 C506 C 0.54013 0.21269 0.85020
 O507 O 0.46320 0.81757 0.13594
 O508 O 0.53154 0.86318 0.17889
 O509 O 0.52782 0.81617 0.13379
 O510 O 0.46574 0.86427 0.18246
 O511 O 0.46458 0.82453 0.22140
 O512 O 0.53128 0.77830 0.17448
 O513 O 0.53067 0.82591 0.22023
 O514 O 0.46494 0.77733 0.17438
 Cu515 Cu 0.49679 0.84433 0.15396
 Cu516 Cu 0.49781 0.79757 0.20170
 C517 C 0.45343 0.78912 0.14687
 C518 C 0.54251 0.85264 0.20701
 C519 C 0.54017 0.78916 0.14570
 C520 C 0.45465 0.85288 0.21019
 O521 O 0.81351 0.46660 0.86243
 O522 O 0.86195 0.53106 0.81736
 O523 O 0.81612 0.53140 0.86486
 O524 O 0.85912 0.46620 0.81586
 O525 O 0.81926 0.46885 0.77679
 O526 O 0.77617 0.53583 0.82607
 O527 O 0.82210 0.53439 0.77834
 O528 O 0.77259 0.46983 0.82453
 Cu529 Cu 0.84165 0.49865 0.84397
 Cu530 Cu 0.79335 0.50247 0.79755
 C531 C 0.78470 0.45746 0.85153
 C532 C 0.85083 0.54319 0.78991
 C533 C 0.78880 0.54450 0.85423
 C534 C 0.84694 0.45663 0.78789
 O535 O 0.13810 0.53377 0.18493
 O536 O 0.18526 0.46825 0.14009
 O537 O 0.13911 0.46889 0.18624
 O538 O 0.18502 0.53312 0.13831
 O539 O 0.22485 0.53535 0.17741
 O540 O 0.17844 0.47014 0.22589
 O541 O 0.22553 0.46965 0.17879
 O542 O 0.17752 0.53579 0.22445
 Cu543 Cu 0.15794 0.50104 0.15850
 Cu544 Cu 0.20563 0.50294 0.20562
 C545 C 0.14911 0.54532 0.21266
 C546 C 0.21354 0.45804 0.15140
 C547 C 0.15058 0.45881 0.21434
 C548 C 0.21304 0.54461 0.14909
 O549 O 0.86137 0.46792 0.18588
 O550 O 0.81314 0.52948 0.13711
 O551 O 0.85905 0.53278 0.18399
 O552 O 0.81505 0.46505 0.13907
 O553 O 0.77409 0.46541 0.17699
 O554 O 0.82021 0.53180 0.22406
 O555 O 0.77381 0.53162 0.17668
 O556 O 0.82111 0.46627 0.22450
 Cu557 Cu 0.84115 0.49874 0.15769
 Cu558 Cu 0.79314 0.49865 0.20447
 C559 C 0.84994 0.45691 0.21361
 C560 C 0.78537 0.54102 0.14831
 C561 C 0.84770 0.54332 0.21197
 C562 C 0.78667 0.45439 0.14965
 O563 O 0.13672 0.46461 0.81604
 O564 O 0.18506 0.52911 0.86128
 O565 O 0.13909 0.52959 0.81497
 O566 O 0.18382 0.46429 0.86263
 O567 O 0.22364 0.46171 0.82362
 O568 O 0.17825 0.52774 0.77525
 O569 O 0.22520 0.52737 0.82252
 O570 O 0.17613 0.46203 0.77662
 Cu571 Cu 0.15721 0.49690 0.84259
 Cu572 Cu 0.20482 0.49443 0.79550
 C573 C 0.14757 0.45288 0.78835
 C574 C 0.21345 0.53900 0.84999
 C575 C 0.15071 0.53962 0.78693
 C576 C 0.21172 0.45252 0.85188
 N577 N 0.28364 0.40610 0.11842
 C578 C 0.27018 0.39478 0.08897
 N579 N 0.23757 0.40271 0.08146
 N580 N 0.21930 0.42182 0.10214
 C581 C 0.23286 0.43373 0.13119
 N582 N 0.26529 0.42528 0.13917
 N583 N 0.75363 0.58323 0.07278
 C584 C 0.73453 0.60878 0.08535
 N585 N 0.73135 0.61142 0.11939
 N586 N 0.74686 0.58952 0.13983
 C587 C 0.76647 0.56450 0.12690
 N588 N 0.76950 0.56178 0.09307
 N589 N 0.71400 0.40648 0.88485
 C590 C 0.72780 0.39424 0.91376
 N591 N 0.76070 0.40134 0.92081
 N592 N 0.77896 0.42051 0.90020
 C593 C 0.76510 0.43334 0.87169
 N594 N 0.73235 0.42573 0.86416
 N595 N 0.28401 0.59063 0.88275
 C596 C 0.27083 0.60188 0.91232
 N597 N 0.23830 0.59390 0.92007
 N598 N 0.21984 0.57485 0.89948
 C599 C 0.23311 0.56304 0.87027
 N600 N 0.26547 0.57150 0.86207
 N601 N 0.11644 0.28355 0.40693
 C602 C 0.08625 0.27100 0.39610
 N603 N 0.07789 0.23881 0.40423
 N604 N 0.09846 0.22010 0.42308
 C605 C 0.12828 0.23278 0.43450
 N606 N 0.13710 0.26476 0.42583
 N607 N 0.11625 0.71424 0.59270
 C608 C 0.08683 0.72773 0.60441
 N609 N 0.07963 0.76042 0.59719
 N610 N 0.10054 0.77870 0.57831
 C611 C 0.12957 0.76510 0.56602
 N612 N 0.13725 0.73261 0.57380
 N613 N 0.91942 0.75922 0.40665
 C614 C 0.91126 0.72723 0.39760
 N615 N 0.88115 0.71418 0.40803
 N616 N 0.86033 0.73235 0.42738
 C617 C 0.86894 0.76416 0.43691
 N618 N 0.89870 0.77730 0.42592
 N619 N 0.91603 0.23887 0.59456
 C620 C 0.90895 0.27159 0.60173
 N621 N 0.87951 0.28513 0.59006
 N622 N 0.85838 0.26678 0.57121
 C623 C 0.86595 0.23423 0.56348
 N624 N 0.89500 0.22060 0.57575
 N625 N 0.39931 0.08056 0.23817
 C626 C 0.39197 0.08777 0.27075
 N627 N 0.40409 0.11685 0.28435
 N628 N 0.42353 0.13751 0.26616
 C629 C 0.43148 0.12977 0.23378
 N630 N 0.41868 0.10113 0.22006
 N631 N 0.59191 0.11858 0.71574
 C632 C 0.60385 0.08925 0.72894
 N633 N 0.59663 0.08178 0.76150
 N634 N 0.57752 0.10232 0.77994
 C635 C 0.56493 0.13123 0.76663
 N636 N 0.57277 0.13924 0.73429
 N637 N 0.40258 0.91941 0.76144
 C638 C 0.39616 0.91221 0.72866
 N639 N 0.40834 0.88294 0.71552
 N640 N 0.42698 0.86208 0.73434
 C641 C 0.43396 0.86977 0.76696
 N642 N 0.42117 0.89866 0.78017
 N643 N 0.59548 0.88861 0.27438
 C644 C 0.61433 0.91185 0.25751
 N645 N 0.60962 0.91481 0.22378
 N646 N 0.58721 0.89554 0.20764
 C647 C 0.56865 0.87228 0.22458
 N648 N 0.57331 0.86901 0.25825
 N649 N 0.40957 0.24042 0.92752
 C650 C 0.39510 0.26997 0.91778
 N651 N 0.39807 0.27932 0.88491
 N652 N 0.41576 0.26055 0.86321
 C653 C 0.43064 0.23138 0.87342
 N654 N 0.42691 0.22156 0.90587
 N655 N 0.61671 0.73755 0.88258
 C656 C 0.61327 0.74003 0.91659
 N657 N 0.58716 0.75862 0.92892
 N658 N 0.56585 0.77453 0.90844
 C659 C 0.56929 0.77204 0.87463
 N660 N 0.59495 0.75304 0.86193
 N661 N 0.39927 0.71996 0.11528
 C662 C 0.39498 0.72910 0.08249
 N663 N 0.40797 0.75916 0.07230
 N664 N 0.42524 0.77871 0.09340
 C665 C 0.43043 0.76910 0.12571
 N666 N 0.41695 0.73943 0.13642
 N667 N 0.59779 0.23511 0.07971
 C668 C 0.60526 0.26776 0.08696
 N669 N 0.59489 0.28074 0.11690
 N670 N 0.57694 0.26199 0.13835
 C671 C 0.56882 0.22958 0.13064
 N672 N 0.57983 0.21643 0.10107
 N673 N 0.27734 0.11529 0.60083
 C674 C 0.26772 0.08248 0.60447
 N675 N 0.23794 0.07260 0.59031
 N676 N 0.21912 0.09405 0.57262
 C677 C 0.22923 0.12641 0.56821
 N678 N 0.25860 0.13678 0.58282
 N679 N 0.75990 0.07694 0.40280
 C680 C 0.72679 0.08269 0.39517
 N681 N 0.71390 0.11373 0.40243
 N682 N 0.73232 0.13658 0.41913
 C683 C 0.76474 0.12957 0.42842
 N684 N 0.77835 0.09962 0.41926
 N685 N 0.75947 0.92200 0.59646
 C686 C 0.72683 0.91469 0.60449
 N687 N 0.71381 0.88441 0.59489
 N688 N 0.73254 0.86266 0.57721
 C689 C 0.76497 0.87040 0.56861
 N690 N 0.77812 0.90034 0.57880
 N691 N 0.28323 0.88295 0.40541
 C692 C 0.26976 0.91260 0.39460
 N693 N 0.23684 0.91953 0.40185
 N694 N 0.21835 0.89816 0.41998
 C695 C 0.23196 0.86890 0.43144
 N696 N 0.26465 0.86148 0.42355
 N697 N 0.11397 0.39776 0.72118
 C698 C 0.08098 0.39422 0.73072
 N699 N 0.07119 0.40828 0.76037
 N700 N 0.09288 0.42579 0.77914
 C701 C 0.12544 0.43010 0.76912
 N702 N 0.13572 0.41558 0.73987
 N703 N 0.07307 0.59016 0.24078
 C704 C 0.08293 0.60393 0.27055
 N705 N 0.11593 0.60026 0.28007
 N706 N 0.13760 0.58251 0.26126
 C707 C 0.12721 0.56825 0.23189
 N708 N 0.09467 0.57275 0.22189
 N709 N 0.92599 0.41340 0.24370
 C710 C 0.91563 0.39928 0.27310
 N711 N 0.88241 0.40260 0.28194
 N712 N 0.86094 0.42021 0.26274
 C713 C 0.87179 0.43469 0.23369
 N714 N 0.90460 0.43067 0.22444
 N715 N 0.92669 0.58841 0.76180
 C716 C 0.91642 0.60292 0.73251
 N717 N 0.88333 0.59940 0.72330
 N718 N 0.86193 0.58119 0.74194
 C719 C 0.87270 0.56621 0.77079
 N720 N 0.90535 0.57049 0.78051
 N721 N 0.73252 0.61256 0.88443
 C722 C 0.73923 0.61273 0.91809
 N723 N 0.76247 0.59030 0.92983
 N724 N 0.77836 0.56910 0.90930
 C725 C 0.77145 0.56893 0.87594
 N726 N 0.74810 0.59096 0.86377
 N727 N 0.24034 0.40865 0.92788
 C728 C 0.26996 0.39420 0.91799
 N729 N 0.27920 0.39718 0.88509
 N730 N 0.26026 0.41486 0.86349
 C731 C 0.23104 0.42975 0.87386
 N732 N 0.22131 0.42600 0.90634
 N733 N 0.28082 0.59965 0.11603
 C734 C 0.27158 0.60271 0.08312
 N735 N 0.24193 0.58832 0.07315
 N736 N 0.22287 0.57099 0.09463
 C737 C 0.23258 0.56718 0.12713
 N738 N 0.26184 0.58198 0.13757
 N739 N 0.71961 0.39796 0.11740
 C740 C 0.72961 0.39357 0.08487
 N741 N 0.75957 0.40734 0.07509
 N742 N 0.77820 0.42545 0.09633
 C743 C 0.76769 0.43073 0.12836
 N744 N 0.73815 0.41645 0.13868
 N745 N 0.88305 0.71447 0.59735
 C746 C 0.91309 0.72762 0.60784
 N747 N 0.92029 0.76027 0.60039
 N748 N 0.89881 0.77879 0.58234
 C749 C 0.86916 0.76549 0.57117
 N750 N 0.86148 0.73307 0.57929
 N751 N 0.92422 0.24411 0.41022
 C752 C 0.91433 0.27385 0.39633
 N753 N 0.88120 0.28310 0.39947
 N754 N 0.85939 0.26402 0.41675
 C755 C 0.86978 0.23465 0.43105
 N756 N 0.90249 0.22496 0.42715
 N757 N 0.07489 0.23812 0.59734
 C758 C 0.08249 0.27068 0.60481
 N759 N 0.11272 0.28346 0.59444
 N760 N 0.13411 0.26456 0.57651
 C761 C 0.12606 0.23222 0.56841
 N762 N 0.09620 0.21931 0.57941
 N763 N 0.11619 0.71705 0.40028
 C764 C 0.08299 0.72607 0.39713
 N765 N 0.07273 0.75538 0.41165
 N766 N 0.09419 0.77435 0.42916
 C767 C 0.12696 0.76488 0.43306
 N768 N 0.13772 0.73594 0.41816
 N769 N 0.58989 0.92799 0.76102
 C770 C 0.60411 0.91790 0.73152
 N771 N 0.60056 0.88500 0.72228
 N772 N 0.58255 0.86362 0.74108
 C773 C 0.56782 0.87420 0.77013
 N774 N 0.57217 0.90666 0.77990
 N775 N 0.40816 0.92724 0.23945
 C776 C 0.39439 0.91671 0.26899
 N777 N 0.39883 0.88388 0.27809
 N778 N 0.41725 0.86300 0.25906
 C779 C 0.43150 0.87406 0.22994
 N780 N 0.42625 0.90643 0.22036
 N781 N 0.60651 0.11377 0.27553
 C782 C 0.60754 0.08030 0.26765
 N783 N 0.58737 0.06940 0.24210
 N784 N 0.56759 0.09051 0.22511
 C785 C 0.56664 0.12370 0.23305
 N786 N 0.58633 0.13503 0.25876
 N787 N 0.40082 0.07737 0.76133
 C788 C 0.39349 0.08477 0.72876
 N789 N 0.40393 0.11483 0.71599
 N790 N 0.42181 0.13626 0.73490
 C791 C 0.42978 0.12840 0.76725
 N792 N 0.41870 0.09870 0.78015
 N793 N 0.58288 0.75606 0.07099
 C794 C 0.60885 0.73780 0.08408
 N795 N 0.61165 0.73570 0.11818
 N796 N 0.58950 0.75144 0.13819
 C797 C 0.56405 0.77023 0.12474
 N798 N 0.56117 0.77218 0.09084
 N799 N 0.40400 0.23719 0.08115
 C800 C 0.39594 0.26955 0.08886
 N801 N 0.40688 0.28261 0.11862
 N802 N 0.42580 0.26411 0.13952
 C803 C 0.43435 0.23192 0.13137
 N804 N 0.42285 0.21878 0.10196
 N805 N 0.59518 0.23612 0.92086
 C806 C 0.60215 0.26898 0.91427
 N807 N 0.59034 0.28282 0.88522
 N808 N 0.57158 0.26459 0.86397
 C809 C 0.56405 0.23190 0.87102
 N810 N 0.57643 0.21798 0.89970
 N811 N 0.40722 0.71551 0.88254
 C812 C 0.39518 0.72869 0.91179
 N813 N 0.40219 0.76136 0.91924
 N814 N 0.42111 0.77997 0.89870
 C815 C 0.43376 0.76671 0.86985
 N816 N 0.42623 0.73420 0.86192
 N817 N 0.76535 0.90797 0.39377
 C818 C 0.73094 0.90707 0.39276
 N819 N 0.71437 0.88424 0.41225
 N820 N 0.73161 0.86339 0.43231
 C821 C 0.76599 0.86497 0.43389
 N822 N 0.78253 0.88747 0.41410
 N823 N 0.28332 0.88136 0.59309
 C824 C 0.26968 0.91082 0.60425
 N825 N 0.23698 0.91803 0.59640
 N826 N 0.21880 0.89706 0.57748
 C827 C 0.23254 0.86799 0.56573
 N828 N 0.26505 0.86029 0.57414
 N829 N 0.23499 0.07828 0.40457
 C830 C 0.26779 0.08548 0.39713
 N831 N 0.28131 0.11492 0.40849
 N832 N 0.26285 0.13598 0.42723
 C833 C 0.23024 0.12834 0.43519
 N834 N 0.21661 0.09926 0.42329
 N835 N 0.71234 0.11692 0.58897
 C836 C 0.72603 0.08755 0.60031
 N837 N 0.75880 0.08045 0.59267
 N838 N 0.77697 0.10143 0.57380
 C839 C 0.76320 0.13045 0.56193
 N840 N 0.73060 0.13801 0.57008
 N841 N 0.91824 0.59844 0.23625
 C842 C 0.91057 0.60620 0.26864
 N843 N 0.88077 0.59504 0.28172
 N844 N 0.85984 0.57611 0.26325
 C845 C 0.86798 0.56775 0.23108
 N846 N 0.89738 0.57956 0.21785
 N847 N 0.87919 0.40647 0.71655
 C848 C 0.90849 0.39397 0.72966
 N849 N 0.91594 0.40036 0.76238
 N850 N 0.89543 0.41919 0.78112
 C851 C 0.86657 0.43235 0.76795
 N852 N 0.85857 0.42537 0.73540
 N853 N 0.08125 0.59611 0.76292
 C854 C 0.08861 0.60340 0.73036
 N855 N 0.11789 0.59130 0.71691
 N856 N 0.13861 0.57199 0.73523
 C857 C 0.13072 0.56413 0.76760
 N858 N 0.10187 0.57686 0.78115
 N859 N 0.11753 0.40770 0.28462
 C860 C 0.08744 0.39691 0.27179
 N861 N 0.07946 0.40494 0.23954
 N862 N 0.10032 0.42361 0.22102
 C863 C 0.13005 0.43499 0.23395
 N864 N 0.13848 0.42646 0.26602
   
