data_POSCAR
  _audit_creation_date              2014-09-24
  _audit_creation_method            'ToBaCCo'
  _symmetry_space_group_name_H-M    'P1'
  _symmetry_Int_Tables_number       1
  _symmetry_cell_setting            triclinic
  loop_
  _symmetry_equiv_pos_as_xyz
 x,y,z
_cell_length_a 35.9096
_cell_length_b 18.9373
_cell_length_c 13.1708
_cell_angle_alpha 90.391000
_cell_angle_beta 89.855100
_cell_angle_gamma 88.710700
loop_
  _atom_site_label
  _atom_site_type_symbol
  _atom_site_fract_x
  _atom_site_fract_y
  _atom_site_fract_z
C1 C 0.67094 0.28848 0.58917
 C2 C 0.65260 0.30066 0.49646
 C3 C 0.66925 0.28327 0.40342
 C4 C 0.70625 0.25659 0.40086
 C5 C 0.72685 0.25058 0.49223
 C6 C 0.70923 0.26637 0.58674
 C7 C 0.73104 0.26269 0.67511
 C8 C 0.76754 0.23697 0.67262
 C9 C 0.78593 0.22194 0.58029
 C10 C 0.76520 0.22877 0.48882
 C11 C 0.72318 0.23582 0.30907
 C12 C 0.75998 0.21195 0.30633
 C13 C 0.78237 0.21236 0.39392
 C14 C 0.82067 0.19186 0.39027
 C15 C 0.83938 0.17906 0.48200
 C16 C 0.82354 0.19623 0.57664
 H17 H 0.72062 0.28049 0.74797
 H18 H 0.78057 0.22825 0.74516
 H19 H 0.70805 0.23708 0.23815
 H20 H 0.77022 0.19140 0.23460
 H21 H 0.62363 0.31802 0.49594
 H22 H 0.86855 0.16337 0.47979
 C23 C 0.17198 0.78341 0.60028
 C24 C 0.15399 0.80121 0.50977
 C25 C 0.17222 0.79500 0.41585
 C26 C 0.21066 0.77566 0.41311
 C27 C 0.22932 0.75813 0.50477
 C28 C 0.20954 0.75999 0.59810
 C29 C 0.22777 0.73795 0.68682
 C30 C 0.26501 0.71681 0.68471
 C31 C 0.28638 0.72105 0.59526
 C32 C 0.26778 0.73827 0.50322
 C33 C 0.23116 0.77452 0.32191
 C34 C 0.26850 0.75289 0.31986
 C35 C 0.28734 0.73448 0.40956
 C36 C 0.32495 0.71067 0.40822
 C37 C 0.34296 0.69498 0.49940
 C38 C 0.32515 0.70374 0.59369
 H39 H 0.21330 0.73591 0.75886
 H40 H 0.27637 0.69514 0.75393
 H41 H 0.21875 0.79089 0.25098
 H42 H 0.28240 0.75082 0.24694
 H43 H 0.12473 0.81666 0.51230
 H44 H 0.37235 0.68081 0.49618
 C45 C 0.18265 0.17165 -0.41890
 C46 C 0.16591 0.15642 -0.51234
 C47 C 0.18189 0.17662 -0.60509
 C48 C 0.21762 0.20776 -0.60303
 C49 C 0.23355 0.22813 -0.50899
 C50 C 0.21579 0.21079 -0.41666
 C51 C 0.23172 0.23300 -0.32463
 C52 C 0.26514 0.26881 -0.32308
 C53 C 0.28355 0.28591 -0.41362
 C54 C 0.26778 0.26475 -0.50742
 C55 C 0.23938 0.21385 -0.69131
 C56 C 0.27287 0.24899 -0.68982
 C57 C 0.28634 0.27936 -0.59981
 C58 C 0.31953 0.31866 -0.59875
 C59 C 0.33562 0.33569 -0.50503
 C60 C 0.31775 0.32187 -0.41305
 H61 H 0.21844 0.22339 -0.25244
 H62 H 0.27662 0.28186 -0.24971
 H63 H 0.23145 0.18932 -0.76214
 H64 H 0.28867 0.25016 -0.75979
 H65 H 0.13957 0.12973 -0.51174
 H66 H 0.36069 0.36649 -0.50316
 C67 C -0.18403 0.83261 -0.59587
 C68 C -0.16568 0.84172 -0.50288
 C69 C -0.18218 0.82352 -0.41073
 C70 C -0.21804 0.79441 -0.41020
 C71 C -0.23562 0.77801 -0.50317
 C72 C -0.21870 0.79717 -0.59643
 C73 C -0.23611 0.77704 -0.68725
 C74 C -0.27010 0.74355 -0.68674
 C75 C -0.28704 0.72265 -0.59554
 C76 C -0.27009 0.74183 -0.50259
 C77 C -0.23722 0.78313 -0.31900
 C78 C -0.27155 0.75088 -0.31862
 C79 C -0.28749 0.72542 -0.40891
 C80 C -0.32168 0.68885 -0.40823
 C81 C -0.33928 0.67504 -0.50140
 C82 C -0.32141 0.68665 -0.59486
 H83 H -0.22349 0.78539 -0.76052
 H84 H -0.28308 0.73545 -0.75963
 H85 H -0.22631 0.80073 -0.24688
 H86 H -0.28575 0.74755 -0.24643
 H87 H -0.13865 0.86603 -0.50107
 H88 H -0.36492 0.64592 -0.50116
 O89 O -0.06078 0.90191 0.18741
 O90 O -0.09704 0.96675 0.07720
 C91 C -0.09283 0.92550 0.15443
 O92 O 0.05505 1.12731 0.16371
 O93 O 0.09416 1.04767 0.08207
 C94 C 0.08779 1.10094 0.14247
 O95 O -0.04961 1.13849 0.16508
 O96 O -0.09183 1.08146 0.06457
 C97 C -0.08326 1.12607 0.13498
 O98 O 0.04345 0.87148 0.18899
 O99 O 0.08829 0.92480 0.09350
 C100 C 0.07781 0.88150 0.16298
 Zr101 Zr -0.00598 0.91900 0.13066
 O102 O -0.00415 0.92431 0.29120
 O103 O -0.01303 0.80854 0.13209
 Zr104 Zr 0.00216 1.09594 0.11203
 O105 O 0.00478 1.10810 0.27166
 O106 O 0.00250 1.20708 0.09532
 O107 O -0.03508 1.01519 0.13761
 O108 O 0.03014 1.00202 0.14295
 O109 O 0.04772 0.85059 -0.16150
 O110 O 0.09095 0.91706 -0.07784
 C111 C 0.08163 0.86575 -0.13766
 O112 O -0.04446 1.12345 -0.20874
 O113 O -0.08917 1.07310 -0.10943
 C114 C -0.07881 1.11399 -0.18204
 O115 O 0.05996 1.10573 -0.19313
 O116 O 0.09641 1.03715 -0.08793
 C117 C 0.09206 1.08179 -0.16122
 O118 O -0.05519 0.87484 -0.18017
 O119 O -0.09437 0.95426 -0.09854
 C120 C -0.08787 0.90157 -0.15983
 Zr121 Zr -0.00275 0.90438 -0.12449
 O122 O 0.00300 0.89684 -0.28432
 O123 O -0.01059 0.79424 -0.11457
 Zr124 Zr 0.00528 1.08150 -0.14366
 O125 O 0.01061 1.07203 -0.30331
 O126 O 0.00692 1.19297 -0.15290
 Zr127 Zr -0.05552 1.01133 -0.01243
 Zr128 Zr 0.05506 0.98927 -0.00108
 O129 O 0.03361 0.98535 -0.14956
 O130 O -0.03165 0.99832 -0.15775
 O131 O 0.02824 0.89166 0.00784
 O132 O -0.02796 1.10807 -0.02011
 O133 O -0.03730 0.90548 0.00136
 O134 O 0.03756 1.09587 -0.01394
 H135 H 0.04599 1.00189 0.20442
 H136 H -0.04300 1.15243 -0.02494
 H137 H 0.05088 0.97827 -0.20771
 H138 H -0.05591 0.86773 0.00501
 H139 H 0.02593 1.21891 0.06030
 H140 H 0.02903 1.20837 -0.11473
 H141 H -0.01073 1.04464 -0.32797
 H142 H -0.01779 0.92439 -0.31490
 H143 H 0.00364 0.77736 -0.05489
 H144 H -0.01538 0.79542 0.20449
 H145 H -0.02267 0.96071 0.31331
 H146 H -0.01455 1.07800 0.30115
 O147 O 0.43975 0.39512 0.18359
 O148 O 0.40324 0.46783 0.08464
 C149 C 0.40775 0.42143 0.15542
 O150 O 0.55899 0.61311 0.18013
 O151 O 0.59550 0.53736 0.08360
 C152 C 0.59101 0.58586 0.15272
 O153 O 0.45469 0.63783 0.18370
 O154 O 0.41024 0.58356 0.08748
 C155 C 0.42042 0.62749 0.15715
 O156 O 0.54277 0.35864 0.17124
 O157 O 0.58798 0.41690 0.08340
 C158 C 0.57720 0.36970 0.14731
 Zr159 Zr 0.49367 0.41262 0.12391
 O160 O 0.49698 0.40596 0.28395
 O161 O 0.48464 0.30311 0.10968
 Zr162 Zr 0.50479 0.59005 0.12735
 O163 O 0.50787 0.58970 0.28785
 O164 O 0.50845 0.70147 0.12571
 O165 O 0.46639 0.51008 0.14599
 O166 O 0.53113 0.49263 0.14433
 O167 O 0.54361 0.36187 -0.18288
 O168 O 0.58827 0.41659 -0.08739
 C169 C 0.57786 0.37149 -0.15546
 O170 O 0.45503 0.63520 -0.18875
 O171 O 0.41074 0.58525 -0.08757
 C172 C 0.42090 0.62693 -0.15926
 O173 O 0.55921 0.61376 -0.18188
 O174 O 0.59573 0.53799 -0.08738
 C175 C 0.59126 0.58685 -0.15520
 O176 O 0.43956 0.39447 -0.18926
 O177 O 0.40324 0.46904 -0.09056
 C178 C 0.40757 0.42201 -0.16162
 Zr179 Zr 0.49383 0.41343 -0.13193
 O180 O 0.49752 0.41166 -0.29240
 O181 O 0.48386 0.30370 -0.13037
 Zr182 Zr 0.50502 0.59056 -0.12914
 O183 O 0.50908 0.59454 -0.28926
 O184 O 0.50797 0.70202 -0.12061
 Zr185 Zr 0.44441 0.51641 -0.00195
 Zr186 Zr 0.55440 0.48719 -0.00238
 O187 O 0.53144 0.49345 -0.14915
 O188 O 0.46655 0.51083 -0.15034
 O189 O 0.52610 0.39092 -0.00426
 O190 O 0.47353 0.61163 -0.00068
 O191 O 0.46065 0.40900 -0.00386
 O192 O 0.53894 0.59522 -0.00084
 H193 H 0.54742 0.48758 0.20456
 H194 H 0.45923 0.65700 -0.00040
 H195 H 0.54790 0.48903 -0.20945
 H196 H 0.44122 0.37265 -0.00428
 H197 H 0.53143 0.71311 0.08841
 H198 H 0.53202 0.71351 -0.08869
 H199 H 0.49003 0.56289 -0.31692
 H200 H 0.47866 0.44573 -0.31855
 H201 H 0.50210 0.28181 -0.08324
 H202 H 0.48296 0.28492 0.17986
 H203 H 0.48245 0.44653 0.31209
 H204 H 0.48536 0.56645 0.31351
 N205 N 0.33974 0.40290 0.16581
 N206 N 0.31518 0.37168 0.23314
 C207 C 0.33522 0.34683 0.31245
 C208 C 0.37258 0.36190 0.29735
 C209 C 0.37414 0.39618 0.20510
 H210 H 0.39579 0.34960 0.34694
 H211 H 0.33217 0.42696 0.09755
 H212 H 0.28621 0.37472 0.22648
 N213 N -0.16154 0.92025 0.17231
 N214 N -0.18706 0.89334 0.24102
 C215 C -0.16771 0.86121 0.31607
 C216 C -0.12965 0.86832 0.29742
 C217 C -0.12710 0.90456 0.20663
 H218 H -0.10667 0.84937 0.34357
 H219 H -0.16858 0.94867 0.10717
 H220 H -0.21569 0.90411 0.23867
 N221 N 0.65941 0.59494 0.17274
 N222 N 0.68385 0.62383 0.24282
 C223 C 0.66340 0.65627 0.31648
 C224 C 0.62574 0.64746 0.29568
 C225 C 0.62455 0.60994 0.20487
 H226 H 0.60216 0.66566 0.34091
 H227 H 0.66738 0.56558 0.10856
 H228 H 0.71262 0.61437 0.24217
 N229 N 0.13734 1.18921 0.15127
 N230 N 0.16343 1.21089 0.22251
 C231 C 0.16132 1.16793 0.30395
 C232 C 0.13330 1.11938 0.28652
 C233 C 0.11965 1.13402 0.19051
 H234 H 0.12372 1.07860 0.33679
 H235 H 0.13161 1.21433 0.08253
 H236 H 0.17827 1.25746 0.21653
 N237 N 0.62821 0.27990 -0.16388
 N238 N 0.65466 0.25712 -0.23535
 C239 C 0.64986 0.29624 -0.32010
 C240 C 0.61930 0.34192 -0.30552
 C241 C 0.60708 0.33047 -0.20756
 H242 H 0.60830 0.38116 -0.35748
 H243 H 0.62570 0.26055 -0.09016
 H244 H 0.67206 0.21273 -0.22611
 N245 N 0.11472 0.75334 -0.18210
 N246 N 0.13862 0.73141 -0.25263
 C247 C 0.15019 0.78788 -0.30466
 C248 C 0.13326 0.84840 -0.26517
 C249 C 0.11124 0.82414 -0.18716
 H250 H 0.13427 0.90153 -0.29474
 H251 H 0.09974 0.72008 -0.13492
 H252 H 0.14516 0.67846 -0.26853
 N253 N 0.36829 0.71303 -0.16118
 N254 N 0.34076 0.73352 -0.22998
 C255 C 0.34708 0.69766 -0.31768
 C256 C 0.37957 0.65668 -0.30773
 C257 C 0.39147 0.66737 -0.20943
 H258 H 0.39175 0.61988 -0.36232
 H259 H 0.36969 0.72946 -0.08544
 H260 H 0.32109 0.77391 -0.21621
 N261 N -0.12405 1.21397 -0.19307
 N262 N -0.15210 1.23642 -0.25922
 C263 C -0.15314 1.18980 -0.33722
 C264 C -0.12500 1.13859 -0.32380
 C265 C -0.10799 1.15533 -0.23302
 H266 H -0.11843 1.09359 -0.37228
 H267 H -0.11704 1.23908 -0.12515
 H268 H -0.16625 1.28506 -0.25320
 N269 N 0.65961 0.60143 -0.17302
 N270 N 0.68380 0.63127 -0.24282
 C271 C 0.66319 0.65984 -0.31855
 C272 C 0.62567 0.64795 -0.29870
 C273 C 0.62470 0.61225 -0.20695
 H274 H 0.60200 0.66289 -0.34522
 H275 H 0.66779 0.57454 -0.10750
 H276 H 0.71274 0.62470 -0.24051
 N277 N 0.16064 1.08312 -0.18672
 N278 N 0.18447 1.10646 -0.25448
 C279 C 0.16552 1.14334 -0.32548
 C280 C 0.12779 1.14270 -0.30238
 C281 C 0.12597 1.10413 -0.21354
 H282 H 0.10489 1.16471 -0.34608
 H283 H 0.16804 1.05136 -0.12512
 H284 H 0.21303 1.09474 -0.25395
 N285 N 0.33903 0.42200 -0.18906
 N286 N 0.31522 0.39455 -0.25374
 C287 C 0.33413 0.35241 -0.31972
 C288 C 0.37182 0.35394 -0.29650
 C289 C 0.37367 0.39863 -0.21316
 H290 H 0.39475 0.32886 -0.33751
 H291 H 0.33164 0.45799 -0.13160
 H292 H 0.28681 0.40762 -0.25558
 N293 N -0.12957 0.80105 -0.18213
 N294 N -0.15440 0.78002 -0.24886
 C295 C -0.16025 0.83201 -0.31674
 C296 C -0.13815 0.88871 -0.29208
 C297 C -0.11945 0.86686 -0.20592
 H298 H -0.13434 0.93679 -0.33450
 H299 H -0.11853 0.76957 -0.12421
 H300 H -0.16546 0.72949 -0.25090
 N301 N 0.38206 0.73635 0.18866
 N302 N 0.35570 0.75776 0.25284
 C303 C 0.34746 0.70368 0.31439
 C304 C 0.36966 0.64546 0.28855
 C305 C 0.39106 0.66854 0.20880
 H306 H 0.37141 0.59481 0.32607
 H307 H 0.39428 0.76822 0.13400
 H308 H 0.34501 0.80943 0.25756
 N309 N -0.13720 1.20984 0.14401
 N310 N -0.16477 1.22710 0.21533
 C311 C -0.15837 1.18763 0.29906
 C312 C -0.12600 1.14703 0.28369
 C313 C -0.11399 1.16236 0.18701
 H314 H -0.11344 1.10848 0.33417
 H315 H -0.13544 1.23050 0.07090
 H316 H -0.18412 1.26858 0.20679
 N317 N 0.60948 0.25644 0.18966
 N318 N 0.63409 0.23369 0.25708
 C319 C 0.64606 0.28941 0.31107
 C320 C 0.62841 0.35038 0.27641
 C321 C 0.60573 0.32705 0.19889
 H322 H 0.63000 0.40330 0.30747
 H323 H 0.59465 0.22385 0.14073
 H324 H 0.64113 0.18059 0.26908
 N325 N 0.12483 0.78412 0.17582
 N326 N 0.15016 0.76183 0.24151
 C327 C 0.14947 0.80546 0.32298
 C328 C 0.12171 0.85669 0.30948
 C329 C 0.10703 0.84123 0.21527
 H330 H 0.11351 0.89929 0.36059
 H331 H 0.11959 0.76004 0.10586
 H332 H 0.16684 0.71641 0.23144
   
