data_POSCAR
  _audit_creation_date              2014-09-24
  _audit_creation_method            'ToBaCCo'
  _symmetry_space_group_name_H-M    'P1'
  _symmetry_Int_Tables_number       1
  _symmetry_cell_setting            triclinic
  loop_
  _symmetry_equiv_pos_as_xyz
 x,y,z
_cell_length_a 28.8364
_cell_length_b 30.0976
_cell_length_c 20.3949
_cell_angle_alpha 94.638800
_cell_angle_beta 90.305000
_cell_angle_gamma 90.614700
loop_
  _atom_site_label
  _atom_site_type_symbol
  _atom_site_fract_x
  _atom_site_fract_y
  _atom_site_fract_z
C1 C 0.28718 0.27824 0.14790
 C2 C 0.26611 0.25043 0.19148
 C3 C 0.22214 0.26112 0.21677
 C4 C 0.19889 0.29887 0.19888
 C5 C 0.21955 0.32599 0.15448
 C6 C 0.26328 0.31537 0.12784
 C7 C 0.28725 0.20808 0.20756
 C8 C 0.33070 0.20733 0.23870
 C9 C 0.34702 0.16755 0.26231
 C10 C 0.31964 0.12852 0.25284
 C11 C 0.27625 0.12891 0.22131
 C12 C 0.26080 0.16873 0.19817
 H13 H 0.32049 0.26942 0.12650
 H14 H 0.20596 0.23986 0.25073
 H15 H 0.35019 0.23817 0.24741
 H16 H 0.22704 0.16973 0.17471
 H17 H 0.20101 0.35454 0.13906
 H18 H 0.33192 0.09804 0.27127
 C19 C 0.78326 0.76427 0.27378
 C20 C 0.74118 0.75897 0.30653
 C21 C 0.71917 0.79653 0.33688
 C22 C 0.73979 0.83917 0.33657
 C23 C 0.78175 0.84367 0.30208
 C24 C 0.80377 0.80649 0.27034
 C25 C 0.72002 0.71383 0.30540
 C26 C 0.74832 0.67704 0.31449
 C27 C 0.73204 0.63350 0.29872
 C28 C 0.68608 0.62674 0.27715
 C29 C 0.65677 0.66296 0.27024
 C30 C 0.67375 0.70656 0.28507
 H31 H 0.79858 0.73519 0.24837
 H32 H 0.68677 0.79214 0.36238
 H33 H 0.78416 0.68248 0.32961
 H34 H 0.65236 0.73474 0.27561
 H35 H 0.79747 0.87618 0.29909
 H36 H 0.67314 0.59322 0.26447
 C37 C 0.79869 0.28566 0.76604
 C38 C 0.75793 0.28238 0.80248
 C39 C 0.72293 0.31402 0.79765
 C40 C 0.72834 0.34890 0.75604
 C41 C 0.76956 0.35113 0.71927
 C42 C 0.80503 0.32003 0.72448
 C43 C 0.75274 0.24505 0.84478
 C44 C 0.78784 0.23726 0.89010
 C45 C 0.78880 0.19740 0.92176
 C46 C 0.75234 0.16628 0.90949
 C47 C 0.71566 0.17482 0.86657
 C48 C 0.71639 0.21410 0.83390
 H49 H 0.82523 0.26094 0.77034
 H50 H 0.69167 0.31129 0.82640
 H51 H 0.81607 0.26123 0.89640
 H52 H 0.68949 0.21994 0.79837
 H53 H 0.77522 0.37782 0.68777
 H54 H 0.75271 0.13515 0.93272
 C55 C 0.24957 0.83082 0.65490
 C56 C 0.22159 0.79399 0.66872
 C57 C 0.17619 0.80142 0.69154
 C58 C 0.15901 0.84465 0.70188
 C59 C 0.18692 0.88080 0.68740
 C60 C 0.23245 0.87463 0.66348
 C61 C 0.24056 0.74809 0.66636
 C62 C 0.28504 0.74104 0.69219
 C63 C 0.30015 0.69771 0.70107
 C64 C 0.27067 0.66143 0.68323
 C65 C 0.22628 0.66766 0.65753
 C66 C 0.21192 0.71090 0.64728
 H67 H 0.28462 0.82525 0.63746
 H68 H 0.15531 0.77376 0.70592
 H69 H 0.30642 0.76937 0.70966
 H70 H 0.17735 0.71574 0.62826
 H71 H 0.17296 0.91379 0.69745
 H72 H 0.28201 0.62803 0.69087
 C73 C 0.08125 0.04585 0.07808
 H74 H 0.06832 0.06290 0.03711
 C75 C 0.12322 0.05941 0.10811
 H76 H 0.14225 0.08712 0.09014
 C77 C 0.07241 -0.01130 0.15050
 H78 H 0.05254 -0.03881 0.16705
 C79 C 0.11451 0.00086 0.18150
 H80 H 0.12615 -0.01734 0.22202
 N81 N 0.05700 0.01067 0.09897
 C82 C -0.01124 -0.06603 -0.06357
 H83 H -0.04541 -0.07078 -0.04350
 C84 C 0.00225 -0.09183 -0.12026
 H85 H -0.02222 -0.11555 -0.14384
 C86 C 0.06279 -0.03122 -0.05479
 H87 H 0.08693 -0.00861 -0.02861
 C88 C 0.07754 -0.05596 -0.11143
 H89 H 0.11281 -0.05162 -0.12795
 Zn90 Zn 0.00234 -0.00938 0.05219
 N91 N 0.01921 -0.03690 -0.03144
 C92 C -0.07495 0.03311 -0.00003
 N93 N -0.03832 0.03893 0.04225
 C94 C -0.03063 0.07863 0.07761
 C95 C -0.05880 0.11507 0.06847
 C96 C -0.10424 0.06864 -0.01035
 C97 C -0.00943 -0.09413 0.09669
 C98 C -0.03214 -0.12830 0.12639
 C99 C -0.09300 -0.07677 0.15947
 C100 C -0.06916 -0.04358 0.12890
 N101 N -0.02835 -0.05291 0.09798
 H102 H -0.08105 0.00108 -0.02666
 H103 H -0.00249 0.08224 0.11286
 H104 H -0.05150 0.14645 0.09652
 H105 H -0.13240 0.06374 -0.04563
 H106 H 0.02309 -0.10056 0.07166
 H107 H -0.01638 -0.16081 0.12432
 H108 H -0.12580 -0.06897 0.18306
 H109 H -0.08348 -0.01051 0.12929
 C110 C 0.04759 -0.08756 -0.14403
 C111 C 0.14074 0.03634 0.15976
 C112 C -0.07485 -0.11995 0.15761
 C113 C -0.09560 0.11056 0.02294
 C114 C 0.05975 0.55115 0.47165
 H115 H 0.05735 0.55446 0.41932
 C116 C 0.09352 0.57548 0.50958
 H117 H 0.11726 0.59732 0.48619
 C118 C 0.03309 0.51747 0.56566
 H119 H 0.00943 0.49518 0.58787
 C120 C 0.06621 0.54076 0.60502
 H121 H 0.06750 0.53588 0.65700
 N122 N 0.03168 0.52143 0.49975
 C123 C 0.00136 0.40795 0.35953
 H124 H -0.03523 0.40422 0.36952
 C125 C 0.02383 0.37543 0.31931
 H126 H 0.00395 0.34717 0.29786
 C127 C 0.07149 0.44902 0.37718
 H128 H 0.09023 0.47707 0.40115
 C129 C 0.09536 0.41732 0.33681
 H130 H 0.13232 0.42149 0.32990
 Zn131 Zn -0.00847 0.48171 0.44848
 N132 N 0.02530 0.44372 0.38788
 C133 C -0.06232 0.50152 0.33924
 N134 N -0.05358 0.51339 0.40392
 C135 C -0.08002 0.54409 0.43865
 C136 C -0.11911 0.56160 0.40953
 C137 C -0.10131 0.51758 0.30865
 C138 C -0.01168 0.41258 0.53135
 C139 C -0.03125 0.38225 0.57172
 C140 C -0.10606 0.41511 0.55526
 C141 C -0.08509 0.44465 0.51479
 N142 N -0.03858 0.44319 0.50423
 H143 H -0.04035 0.47801 0.31188
 H144 H -0.07218 0.55310 0.48997
 H145 H -0.14113 0.58445 0.43850
 H146 H -0.10864 0.50641 0.25783
 H147 H 0.02515 0.41187 0.52158
 H148 H -0.00890 0.35869 0.59329
 H149 H -0.14310 0.41688 0.56340
 H150 H -0.10612 0.46854 0.49185
 C151 C 0.07165 0.37951 0.30844
 C152 C 0.09807 0.56893 0.57665
 C153 C -0.07910 0.38333 0.58417
 C154 C -0.13105 0.54682 0.34460
 C155 C 0.58368 0.07234 0.62790
 H156 H 0.59573 0.07472 0.57816
 C157 C 0.60948 0.09235 0.68056
 H158 H 0.64084 0.11074 0.67078
 C159 C 0.52995 0.04300 0.70101
 H160 H 0.49956 0.02286 0.70888
 C161 C 0.55520 0.06189 0.75522
 H162 H 0.54325 0.05681 0.80429
 N163 N 0.54462 0.04827 0.63875
 C164 C 0.55024 -0.04666 0.46563
 H165 H 0.51789 -0.04307 0.43988
 C166 C 0.58663 -0.06989 0.43359
 H167 H 0.58212 -0.08380 0.38327
 C168 C 0.59716 -0.03090 0.56052
 H169 H 0.60152 -0.01583 0.61000
 C170 C 0.63450 -0.05277 0.52994
 H171 H 0.66740 -0.05363 0.55569
 Zn172 Zn 0.51444 0.01699 0.56497
 N173 N 0.55679 -0.02604 0.52703
 C174 C 0.46785 0.04039 0.45292
 N175 N 0.49702 0.05717 0.50165
 C176 C 0.50893 0.10125 0.50739
 C177 C 0.49204 0.12994 0.46240
 C178 C 0.44975 0.06794 0.40750
 C179 C 0.44672 -0.05295 0.58239
 C180 C 0.40173 -0.06745 0.59702
 C181 C 0.38248 0.00876 0.63147
 C182 C 0.42728 0.02166 0.61615
 N183 N 0.45824 -0.00889 0.59161
 H184 H 0.45705 0.00582 0.45085
 H185 H 0.53030 0.11481 0.54780
 H186 H 0.50128 0.16496 0.46882
 H187 H 0.42592 0.05395 0.36991
 H188 H 0.47186 -0.07658 0.56202
 H189 H 0.39252 -0.10240 0.58824
 H190 H 0.35900 0.03416 0.65113
 H191 H 0.43734 0.05649 0.62253
 C192 C 0.62983 -0.07118 0.46506
 C193 C 0.59581 0.08657 0.74519
 C194 C 0.36866 -0.03617 0.62062
 C195 C 0.46169 0.11336 0.41195
 C196 C 0.54959 0.53753 0.03269
 H197 H 0.57224 0.51669 0.00185
 C198 C 0.56818 0.56425 0.08569
 H199 H 0.60510 0.56326 0.09540
 C200 C 0.47456 0.56590 0.05578
 H201 H 0.43813 0.56669 0.04297
 C202 C 0.49177 0.59351 0.10886
 H203 H 0.46814 0.61503 0.13716
 N204 N 0.50352 0.53893 0.01869
 C205 C 0.53038 0.48939 -0.17206
 H206 H 0.50855 0.51384 -0.19231
 C207 C 0.56560 0.46981 -0.21055
 H208 H 0.57020 0.47983 -0.25984
 C209 C 0.54950 0.44581 -0.08437
 H210 H 0.54290 0.43673 -0.03499
 C211 C 0.58528 0.42529 -0.12130
 H212 H 0.60638 0.40063 -0.09982
 Zn213 Zn 0.47760 0.50805 -0.05733
 N214 N 0.52381 0.47816 -0.10951
 C215 C 0.47768 0.58715 -0.11944
 N216 N 0.44987 0.55244 -0.10518
 C217 C 0.40427 0.55092 -0.12258
 C218 C 0.38543 0.58454 -0.15748
 C219 C 0.46020 0.62162 -0.15392
 C220 C 0.42658 0.45854 0.03103
 C221 C 0.39248 0.42850 0.04879
 C222 C 0.37388 0.41223 -0.06635
 C223 C 0.40893 0.44188 -0.08196
 N224 N 0.43334 0.46544 -0.03339
 H225 H 0.51369 0.58785 -0.10419
 H226 H 0.38229 0.52388 -0.10928
 H227 H 0.34908 0.58260 -0.17120
 H228 H 0.48323 0.64848 -0.16531
 H229 H 0.44722 0.47668 0.06884
 H230 H 0.38665 0.42421 0.10033
 H231 H 0.35392 0.39470 -0.10563
 H232 H 0.41587 0.44711 -0.13286
 C233 C 0.59437 0.43805 -0.18473
 C234 C 0.53932 0.59329 0.12378
 C235 C 0.36485 0.40590 -0.00014
 C236 C 0.41347 0.62047 -0.17363
 C237 C 0.11411 -0.14700 -0.26512
 C238 C 0.07613 -0.17536 -0.26919
 C239 C 0.04449 -0.15602 -0.22654
 C240 C 0.06569 -0.11738 -0.19922
 O241 O 0.10775 -0.11195 -0.22299
 H242 H 0.07232 -0.20678 -0.29857
 H243 H 0.01095 -0.16968 -0.21502
 C244 C 0.15243 0.30890 0.22523
 C245 C 0.11824 0.27723 0.23170
 C246 C 0.08236 0.29973 0.26135
 C247 C 0.09745 0.34354 0.27133
 O248 O 0.14003 0.34912 0.24917
 H249 H 0.11969 0.24185 0.21743
 H250 H 0.04997 0.28532 0.27630
 C251 C 0.71907 -0.12382 0.37127
 C252 C 0.74000 -0.08232 0.38463
 C253 C 0.70924 -0.05776 0.42198
 C254 C 0.67153 -0.08540 0.42821
 O255 O 0.67713 -0.12547 0.39775
 H256 H 0.77413 -0.07110 0.37126
 H257 H 0.71364 -0.02362 0.44232
 C258 C 0.69360 0.38132 -0.24708
 C259 C 0.69224 0.41386 -0.29137
 C260 C 0.65419 0.43855 -0.27529
 C261 C 0.63475 0.41975 -0.22222
 O262 O 0.65849 0.38496 -0.20525
 H263 H 0.71571 0.41953 -0.33104
 H264 H 0.64310 0.46765 -0.29867
 C265 C -0.17301 0.18731 -0.03894
 C266 C -0.13978 0.21766 -0.01364
 C267 C -0.10763 0.19324 0.01613
 C268 C -0.12299 0.14961 0.00668
 O269 O -0.16284 0.14601 -0.02612
 H270 H -0.13848 0.25337 -0.01649
 H271 H -0.07569 0.20581 0.03911
 C272 C -0.23539 0.59591 0.29862
 C273 C -0.23961 0.55683 0.25850
 C274 C -0.20068 0.53341 0.26969
 C275 C -0.17552 0.55977 0.31594
 O276 O -0.19651 0.59769 0.33362
 H277 H -0.26703 0.54699 0.22375
 H278 H -0.19196 0.50080 0.24721
 C279 C 0.39036 0.16638 0.30171
 C280 C 0.42210 0.20088 0.31356
 C281 C 0.45407 0.18571 0.35584
 C282 C 0.43963 0.14303 0.36667
 O283 O 0.40126 0.13137 0.33367
 H284 H 0.42199 0.23342 0.29466
 H285 H 0.48404 0.20385 0.37640
 C286 C 0.34429 0.68930 -0.26499
 C287 C 0.38145 0.71847 -0.25576
 C288 C 0.41333 0.69670 -0.22067
 C289 C 0.39315 0.65590 -0.21083
 O290 O 0.35147 0.65156 -0.23779
 H291 H 0.38507 0.75153 -0.27247
 H292 H 0.44682 0.70956 -0.20369
 C293 C -0.15516 -0.18781 0.23461
 C294 C -0.12767 -0.22165 0.20649
 C295 C -0.09302 -0.20090 0.17528
 C296 C -0.10159 -0.15589 0.18614
 O297 O -0.13903 -0.14799 0.22227
 H298 H -0.13172 -0.25729 0.20792
 H299 H -0.06564 -0.21712 0.14668
 C300 C -0.15124 0.32476 0.68743
 C301 C -0.11360 0.29668 0.68781
 C302 C -0.08123 0.31453 0.64891
 C303 C -0.10129 0.35224 0.62745
 O304 O -0.14369 0.35831 0.65060
 H305 H -0.10958 0.26680 0.71325
 H306 H -0.04726 0.30121 0.63759
 C307 C 0.26078 -0.08843 0.65091
 C308 C 0.24561 -0.04488 0.65122
 C309 C 0.28361 -0.02004 0.63924
 C310 C 0.31986 -0.04960 0.63259
 O311 O 0.30599 -0.09128 0.63875
 H312 H 0.21101 -0.03197 0.65812
 H313 H 0.28418 0.01555 0.63513
 C314 C 0.28141 0.34051 0.07435
 C315 C 0.25594 0.34849 0.01924
 C316 C 0.28456 0.37260 -0.01748
 C317 C 0.32529 0.37800 0.01831
 O318 O 0.32350 0.35840 0.07419
 H319 H 0.22063 0.33802 0.00752
 H320 H 0.27608 0.38602 -0.06365
 C321 C 0.24506 0.08925 0.21520
 C322 C 0.25099 0.05033 0.24574
 C323 C 0.21261 0.02479 0.22940
 C324 C 0.18602 0.04991 0.19005
 O325 O 0.20574 0.08881 0.18142
 H326 H 0.27921 0.04159 0.27717
 H327 H 0.20526 -0.00820 0.24438
 C328 C 0.19346 0.62946 0.64892
 C329 C 0.19360 0.59440 0.68856
 C330 C 0.15750 0.56772 0.66730
 C331 C 0.13770 0.58821 0.61604
 O332 O 0.15946 0.62586 0.60467
 H333 H 0.21678 0.58922 0.72908
 H334 H 0.14737 0.53655 0.68636
 C335 C 0.67777 0.14193 0.85243
 C336 C 0.66091 0.11299 0.89596
 C337 C 0.62661 0.08900 0.86252
 C338 C 0.62530 0.10485 0.80082
 O339 O 0.65625 0.13701 0.79483
 H340 H 0.67215 0.10981 0.94604
 H341 H 0.60608 0.06232 0.88053
 C342 C 0.61086 0.65447 0.23931
 C343 C 0.57287 0.68187 0.24652
 C344 C 0.53960 0.66193 0.20587
 C345 C 0.55998 0.62401 0.17655
 O346 O 0.60303 0.61957 0.19708
 H347 H 0.56995 0.71285 0.27696
 H348 H 0.50534 0.67457 0.19716
   
