data_POSCAR
  _audit_creation_date              2014-09-24
  _audit_creation_method            'ToBaCCo'
  _symmetry_space_group_name_H-M    'P1'
  _symmetry_Int_Tables_number       1
  _symmetry_cell_setting            triclinic
  loop_
  _symmetry_equiv_pos_as_xyz
 x,y,z
_cell_length_a 42.4141
_cell_length_b 42.1322
_cell_length_c 42.8280
_cell_angle_alpha 90.144300
_cell_angle_beta 90.799600
_cell_angle_gamma 89.986800
loop_
  _atom_site_label
  _atom_site_type_symbol
  _atom_site_fract_x
  _atom_site_fract_y
  _atom_site_fract_z
C1 C 0.19789 0.52502 1.03331
 H2 H 0.19606 0.54380 1.01620
 C3 C 0.17782 0.52478 1.05882
 H4 H 0.16020 0.54326 1.06007
 C5 C 0.22190 0.47724 1.05009
 H6 H 0.23894 0.45860 1.04649
 C7 C 0.20226 0.47594 1.07594
 H8 H 0.20586 0.45670 1.09224
 N9 N 0.21957 0.50167 1.02956
 C10 C 0.29161 0.54492 0.97204
 H11 H 0.29205 0.52838 0.95268
 C12 C 0.31264 0.57040 0.97304
 H13 H 0.32941 0.57319 0.95443
 C14 C 0.27024 0.56027 1.02063
 H15 H 0.25417 0.55589 1.03947
 C16 C 0.29086 0.58603 1.02260
 H17 H 0.28997 0.60159 1.04272
 Zn18 Zn 0.24514 0.50378 0.99383
 N19 N 0.27096 0.54035 0.99560
 C20 C 0.21677 0.53081 0.93952
 N21 N 0.21769 0.50512 0.95870
 C22 C 0.19747 0.48038 0.95453
 C23 C 0.17562 0.48052 0.92988
 C24 C 0.19498 0.53213 0.91479
 C25 C 0.29405 0.46503 1.01531
 C26 C 0.31501 0.43951 1.01548
 C27 C 0.29127 0.42111 0.96713
 C28 C 0.27072 0.44700 0.96790
 N29 N 0.27221 0.46811 0.99197
 H30 H 0.23248 0.55060 0.94369
 H31 H 0.19820 0.46061 0.97060
 H32 H 0.15950 0.46076 0.92705
 H33 H 0.19440 0.55276 0.89977
 H34 H 0.29514 0.48252 1.03383
 H35 H 0.33243 0.43770 1.03412
 H36 H 0.28949 0.40433 0.94800
 H37 H 0.25378 0.45024 0.94914
 C38 C 0.31261 0.59121 0.99872
 C39 C 0.17955 0.49992 1.08088
 C40 C 0.31374 0.41707 0.99120
 C41 C 0.17410 0.50673 0.90977
 C42 C 0.79692 0.52468 -0.03622
 H43 H 0.79719 0.54332 -0.01880
 C44 C 0.81736 0.52618 -0.06144
 H45 H 0.83337 0.54608 -0.06337
 C46 C 0.77660 0.47539 -0.05417
 H47 H 0.76110 0.45537 -0.05092
 C48 C 0.79703 0.47569 -0.07949
 H49 H 0.79675 0.45608 -0.09588
 N50 N 0.77686 0.49973 -0.03322
 C51 C 0.70581 0.53610 0.03008
 H52 H 0.70668 0.51751 0.04745
 C53 C 0.68368 0.56043 0.03249
 H54 H 0.66777 0.56065 0.05204
 C55 C 0.72493 0.55774 -0.01705
 H56 H 0.74032 0.55604 -0.03686
 C57 C 0.70324 0.58268 -0.01545
 H58 H 0.70224 0.60005 -0.03402
 Zn59 Zn 0.75146 0.49846 0.00274
 N60 N 0.72571 0.53502 0.00550
 C61 C 0.78203 0.52012 0.05838
 N62 N 0.77912 0.49578 0.03762
 C63 C 0.79769 0.46959 0.03983
 C64 C 0.81997 0.46687 0.06392
 C65 C 0.80450 0.51867 0.08254
 C66 C 0.70232 0.46300 -0.02290
 C67 C 0.67931 0.43941 -0.02480
 C68 C 0.70072 0.41635 0.02253
 C69 C 0.72330 0.44054 0.02362
 N70 N 0.72369 0.46323 0.00104
 H71 H 0.76765 0.54114 0.05568
 H72 H 0.79524 0.45082 0.02269
 H73 H 0.83399 0.44545 0.06545
 H74 H 0.80717 0.53881 0.09808
 H75 H 0.70289 0.48156 -0.04029
 H76 H 0.66243 0.43973 -0.04400
 H77 H 0.70023 0.39893 0.04106
 H78 H 0.73983 0.44161 0.04299
 C79 C 0.68190 0.58386 0.00929
 C80 C 0.81771 0.50135 -0.08331
 C81 C 0.67810 0.41586 -0.00170
 C82 C 0.82405 0.49184 0.08546
 C83 C -0.02059 0.28846 0.45862
 H84 H -0.04136 0.28715 0.47293
 C85 C -0.02075 0.30752 0.43203
 H86 H -0.04179 0.32119 0.42709
 C87 C 0.03244 0.27378 0.45011
 H88 H 0.05329 0.26098 0.45755
 C89 C 0.03347 0.29274 0.42346
 H90 H 0.05502 0.29277 0.41027
 N91 N 0.00564 0.27193 0.46701
 C92 C -0.04252 0.21279 0.53334
 H93 H -0.03003 0.21979 0.55444
 C94 C -0.06874 0.19298 0.53515
 H95 H -0.07661 0.18556 0.55792
 C96 C -0.04717 0.21430 0.47817
 H97 H -0.03816 0.22219 0.45601
 C98 C -0.07311 0.19390 0.47885
 H99 H -0.08366 0.18613 0.45699
 Zn100 Zn 0.00429 0.24843 0.50446
 N101 N -0.03253 0.22333 0.50520
 C102 C -0.02440 0.28837 0.54847
 N103 N 0.00390 0.27838 0.53757
 C104 C 0.03129 0.29175 0.54791
 C105 C 0.03101 0.31482 0.57140
 C106 C -0.02583 0.31178 0.57151
 C107 C 0.04348 0.20125 0.48169
 C108 C 0.06792 0.17912 0.48141
 C109 C 0.08158 0.19447 0.53426
 C110 C 0.05691 0.21651 0.53346
 N111 N 0.03884 0.21992 0.50716
 H112 H -0.04601 0.27871 0.53873
 H113 H 0.05343 0.28463 0.53783
 H114 H 0.05323 0.32433 0.57989
 H115 H -0.04871 0.31976 0.57919
 H116 H 0.02811 0.20366 0.46146
 H117 H 0.07114 0.16448 0.46088
 H118 H 0.09597 0.19228 0.55523
 H119 H 0.05195 0.23038 0.55404
 C120 C -0.08421 0.18281 0.50764
 C121 C 0.00669 0.31036 0.41390
 C122 C 0.08746 0.17561 0.50788
 C123 C 0.00213 0.32524 0.58354
 C124 C 0.97455 0.70013 0.52498
 H125 H 0.96003 0.69627 0.50435
 C126 C 0.97258 0.67930 0.55016
 H127 H 0.95676 0.65922 0.54830
 C128 C 1.01413 0.73000 0.55121
 H129 H 1.03074 0.74938 0.55140
 C130 C 1.01245 0.71015 0.57721
 H131 H 1.02733 0.71522 0.59733
 N132 N 0.99515 0.72483 0.52585
 C133 C 0.95994 0.79719 0.46213
 H134 H 0.97906 0.79803 0.44570
 C135 C 0.93519 0.81887 0.45973
 H136 H 0.93524 0.83625 0.44115
 C137 C 0.93722 0.77400 0.50690
 H138 H 0.93853 0.75694 0.52567
 C139 C 0.91193 0.79524 0.50533
 H140 H 0.89402 0.79446 0.52308
 Zn141 Zn 0.99715 0.75011 0.48938
 N142 N 0.96070 0.77559 0.48564
 C143 C 0.97760 0.72137 0.43199
 N144 N 0.99993 0.72192 0.45511
 C145 C 1.02388 0.70049 0.45584
 C146 C 1.02590 0.67709 0.43287
 C147 C 0.97873 0.69833 0.40849
 C148 C 1.03377 0.80016 0.51375
 C149 C 1.05892 0.82152 0.51544
 C150 C 1.08021 0.79753 0.46899
 C151 C 1.05493 0.77627 0.46848
 N152 N 1.03248 0.77775 0.49084
 H153 H 0.95837 0.73818 0.43220
 H154 H 1.04110 0.70126 0.47470
 H155 H 1.04510 0.66017 0.43395
 H156 H 0.96027 0.69764 0.39078
 H157 H 1.01512 0.80150 0.53068
 H158 H 1.05960 0.83924 0.53381
 H159 H 1.09791 0.79608 0.45105
 H160 H 1.05309 0.75891 0.44995
 C161 C 0.91107 0.81845 0.48187
 C162 C 0.99167 0.68412 0.57686
 C163 C 1.08246 0.82039 0.49279
 C164 C 1.00287 0.67551 0.40903
 C165 C 0.46514 -0.01580 0.29918
 H166 H 0.48295 -0.03414 0.29819
 C167 C 0.44117 -0.01778 0.32109
 H168 H 0.44062 -0.03775 0.33694
 C169 C 0.44503 0.03321 0.28055
 H170 H 0.44699 0.05338 0.26519
 C171 C 0.42090 0.03241 0.30244
 H172 H 0.40409 0.05173 0.30334
 N173 N 0.46639 0.00916 0.27914
 C174 C 0.52463 -0.02809 0.20407
 H175 H 0.54195 -0.00931 0.20265
 C176 C 0.52592 -0.05378 0.18349
 H177 H 0.54407 -0.05349 0.16603
 C178 C 0.47879 -0.04877 0.22727
 H179 H 0.46014 -0.04657 0.24403
 C180 C 0.47910 -0.07491 0.20717
 H181 H 0.46121 -0.09283 0.21031
 Zn182 Zn 0.50087 0.01044 0.25140
 N183 N 0.50149 -0.02614 0.22557
 C184 C 0.56089 -0.00950 0.27546
 N185 N 0.53766 0.01275 0.27664
 C186 C 0.53834 0.03637 0.29832
 C187 C 0.56252 0.03768 0.32066
 C188 C 0.58584 -0.00878 0.29713
 C189 C 0.47178 0.04865 0.20636
 C190 C 0.46945 0.07257 0.18400
 C191 C 0.52173 0.09015 0.19891
 C192 C 0.52279 0.06624 0.22149
 N193 N 0.49811 0.04593 0.22456
 H194 H 0.55960 -0.02847 0.25849
 H195 H 0.51938 0.05353 0.29889
 H196 H 0.56226 0.05609 0.33835
 H197 H 0.60367 -0.02717 0.29662
 H198 H 0.45269 0.03188 0.20897
 H199 H 0.44800 0.07441 0.17013
 H200 H 0.54220 0.10513 0.19598
 H201 H 0.54383 0.06314 0.23570
 C202 C 0.50283 -0.07794 0.18450
 C203 C 0.41875 0.00660 0.32297
 C204 C 0.49492 0.09336 0.17946
 C205 C 0.58636 0.01462 0.32049
 C206 C 0.54997 -0.03439 0.71036
 H207 H 0.53356 -0.05405 0.70966
 C208 C 0.57591 -0.03425 0.69064
 H209 H 0.57924 -0.05386 0.67462
 C210 C 0.56433 0.01601 0.73075
 H211 H 0.55933 0.03591 0.74582
 C212 C 0.59048 0.01717 0.71137
 H213 H 0.60569 0.03780 0.71214
 N214 N 0.54458 -0.00941 0.72974
 C215 C 0.47870 -0.04770 0.79709
 H216 H 0.45915 -0.03157 0.79339
 C217 C 0.47671 -0.07136 0.81967
 H218 H 0.45514 -0.07367 0.83267
 C219 C 0.53049 -0.06386 0.78448
 H220 H 0.55170 -0.06028 0.77125
 C221 C 0.52972 -0.08758 0.80725
 H222 H 0.55052 -0.10197 0.81127
 Zn223 Zn 0.50681 -0.00932 0.75264
 N224 N 0.50523 -0.04442 0.77998
 C225 C 0.45262 -0.03539 0.72174
 N226 N 0.47297 -0.01044 0.72322
 C227 C 0.47060 0.01407 0.70270
 C228 C 0.44630 0.01477 0.68040
 C229 C 0.42817 -0.03584 0.69953
 C230 C 0.52700 0.03037 0.80096
 C231 C 0.52677 0.05632 0.82126
 C232 C 0.48041 0.07598 0.79421
 C233 C 0.48145 0.04954 0.77449
 N234 N 0.50471 0.02754 0.77799
 H235 H 0.45545 -0.05516 0.73754
 H236 H 0.48758 0.03320 0.70383
 H237 H 0.44472 0.03451 0.66431
 H238 H 0.41200 -0.05572 0.69882
 H239 H 0.54489 0.01223 0.80359
 H240 H 0.54441 0.05774 0.83972
 H241 H 0.46193 0.09341 0.79079
 H242 H 0.46346 0.04656 0.75665
 C243 C 0.50267 -0.09136 0.82549
 C244 C 0.59625 -0.00796 0.69062
 C245 C 0.50324 0.07961 0.81805
 C246 C 0.42466 -0.01039 0.67868
 Si247 Si 0.25496 -0.00453 0.50125
 Si248 Si 0.74919 0.00254 0.50415
 Si249 Si 0.49429 0.25139 0.99230
 Si250 Si 0.49938 0.74979 0.01161
 Si251 Si 1.00791 0.48837 0.24939
 Si252 Si -0.00959 0.50852 0.74691
 C253 C 0.16004 0.10479 0.50686
 C254 C 0.15576 0.12462 0.48085
 C255 C 0.13237 0.14812 0.48156
 C256 C 0.11328 0.15182 0.50801
 C257 C 0.11824 0.13202 0.53408
 C258 C 0.14149 0.10833 0.53356
 C259 C 0.18396 0.07941 0.50586
 C260 C 0.18764 0.05901 0.53154
 C261 C 0.20971 0.03431 0.53005
 C262 C 0.22812 0.03021 0.50333
 C263 C 0.22427 0.05081 0.47780
 C264 C 0.20217 0.07554 0.47895
 C265 C 0.14620 0.08773 0.55896
 C266 C 0.16884 0.06345 0.55794
 C267 C 0.17466 0.12025 0.45449
 C268 C 0.19747 0.09612 0.45356
 H269 H 0.13204 0.09021 0.57969
 H270 H 0.17151 0.04789 0.57791
 H271 H 0.17161 0.13544 0.43430
 H272 H 0.21137 0.09340 0.43268
 H273 H 0.12894 0.16349 0.46155
 H274 H 0.10342 0.13443 0.55436
 H275 H 0.21236 0.01804 0.54950
 H276 H 0.23772 0.04715 0.45681
 C277 C 0.60761 0.65282 0.01047
 C278 C 0.60093 0.62084 0.01674
 C279 C 0.62545 0.59861 0.01653
 C280 C 0.65648 0.60803 0.00991
 C281 C 0.66280 0.64018 0.00340
 C282 C 0.63839 0.66275 0.00382
 C283 C 0.58181 0.67628 0.01074
 C284 C 0.58833 0.70834 0.00465
 C285 C 0.56356 0.73052 0.00504
 C286 C 0.53259 0.72064 0.01130
 C287 C 0.52654 0.68836 0.01693
 C288 C 0.55103 0.66613 0.01690
 C289 C 0.64404 0.69503 -0.00226
 C290 C 0.61946 0.71743 -0.00181
 C291 C 0.56982 0.61165 0.02292
 C292 C 0.54526 0.63391 0.02293
 H293 H 0.66767 0.70305 -0.00740
 H294 H 0.62485 0.74206 -0.00660
 H295 H 0.56440 0.58702 0.02772
 H296 H 0.52157 0.62584 0.02774
 H297 H 0.62030 0.57384 0.02099
 H298 H 0.68667 0.64759 -0.00161
 H299 H 0.56826 0.75524 0.00001
 H300 H 0.50292 0.68021 0.02141
 C301 C 0.84243 -0.10710 0.48577
 C302 C 0.83254 -0.13862 0.48968
 C303 C 0.85491 -0.16317 0.48792
 C304 C 0.88682 -0.15620 0.48206
 C305 C 0.89606 -0.12445 0.47770
 C306 C 0.87405 -0.09984 0.47964
 C307 C 0.81939 -0.08110 0.48875
 C308 C 0.82961 -0.04963 0.48561
 C309 C 0.80803 -0.02497 0.48955
 C310 C 0.77649 -0.03140 0.49705
 C311 C 0.76611 -0.06306 0.49854
 C312 C 0.78771 -0.08813 0.49499
 C313 C 0.88321 -0.06805 0.47612
 C314 C 0.86134 -0.04334 0.47906
 C315 C 0.80060 -0.14482 0.49560
 C316 C 0.77854 -0.12002 0.49808
 H317 H 0.90755 -0.06220 0.47135
 H318 H 0.86941 -0.01910 0.47651
 H319 H 0.79260 -0.16904 0.49855
 H320 H 0.75421 -0.12583 0.50287
 H321 H 0.84761 -0.18758 0.49112
 H322 H 0.92062 -0.11882 0.47374
 H323 H 0.81608 -0.00082 0.48672
 H324 H 0.74155 -0.06812 0.50300
 C325 C 0.38176 0.34180 0.99017
 C326 C 0.37351 0.35710 0.96213
 C327 C 0.35070 0.38118 0.96247
 C328 C 0.33635 0.39017 0.99063
 C329 C 0.34453 0.37413 1.01844
 C330 C 0.36733 0.35002 1.01836
 C331 C 0.40678 0.31749 0.99020
 C332 C 0.41586 0.30302 1.01845
 C333 C 0.44100 0.28138 1.01867
 C334 C 0.45696 0.27449 0.99095
 C335 C 0.44709 0.28848 0.96270
 C336 C 0.42203 0.31014 0.96220
 C337 C 0.37647 0.33444 1.04602
 C338 C 0.40036 0.31136 1.04607
 C339 C 0.38880 0.34855 0.93446
 C340 C 0.41268 0.32548 0.93450
 H341 H 0.36543 0.34050 1.06790
 H342 H 0.40711 0.30033 1.06799
 H343 H 0.38260 0.36014 0.91267
 H344 H 0.42426 0.31997 0.91275
 H345 H 0.34489 0.39364 0.94104
 H346 H 0.33333 0.38058 1.04014
 H347 H 0.44893 0.27102 1.04053
 H348 H 0.45984 0.28361 0.94146
 C349 C 0.84157 0.11355 0.51011
 C350 C 0.84064 0.13721 0.48711
 C351 C 0.86442 0.16039 0.48686
 C352 C 0.88941 0.15954 0.50897
 C353 C 0.88973 0.13557 0.53191
 C354 C 0.86581 0.11274 0.53274
 C355 C 0.81726 0.08856 0.50996
 C356 C 0.81856 0.06469 0.53276
 C357 C 0.79638 0.04018 0.53166
 C358 C 0.77382 0.03883 0.50740
 C359 C 0.77199 0.06332 0.48525
 C360 C 0.79382 0.08838 0.48643
 C361 C 0.86604 0.08871 0.55541
 C362 C 0.84270 0.06516 0.55551
 C363 C 0.81627 0.13684 0.46451
 C364 C 0.79335 0.11275 0.46408
 H365 H 0.88458 0.08792 0.57305
 H366 H 0.84392 0.04682 0.57318
 H367 H 0.81523 0.15500 0.44666
 H368 H 0.77535 0.11299 0.44589
 H369 H 0.86353 0.17890 0.46936
 H370 H 0.90905 0.13403 0.54864
 H371 H 0.79764 0.02124 0.54874
 H372 H 0.75437 0.06245 0.46674
 C373 C 0.38374 0.66321 0.00576
 C374 C 0.36825 0.65808 -0.02300
 C375 C 0.34443 0.63504 -0.02506
 C376 C 0.33623 0.61709 0.00135
 C377 C 0.35169 0.62301 0.03012
 C378 C 0.37553 0.64593 0.03243
 C379 C 0.40978 0.68633 0.00775
 C380 C 0.42603 0.69056 0.03625
 C381 C 0.45191 0.71115 0.03758
 C382 C 0.46164 0.72723 0.01066
 C383 C 0.44467 0.72349 -0.01752
 C384 C 0.41872 0.70287 -0.01916
 C385 C 0.39187 0.65136 0.06070
 C386 C 0.41673 0.67329 0.06257
 C387 C 0.37736 0.67562 -0.04924
 C388 C 0.40218 0.69763 -0.04736
 H389 H 0.38571 0.63821 0.08145
 H390 H 0.42907 0.67640 0.08469
 H391 H 0.36552 0.67196 -0.07154
 H392 H 0.40880 0.71028 -0.06826
 H393 H 0.33244 0.63088 -0.04721
 H394 H 0.34592 0.60901 0.05046
 H395 H 0.46532 0.71370 0.05918
 H396 H 0.45232 0.73553 -0.03840
 C397 C 0.15710 -0.11117 0.49526
 C398 C 0.14029 -0.11647 0.46724
 C399 C 0.11633 -0.13941 0.46642
 C400 C 0.10873 -0.15646 0.49352
 C401 C 0.12578 -0.15082 0.52145
 C402 C 0.15016 -0.12832 0.52239
 C403 C 0.18202 -0.08676 0.49636
 C404 C 0.19877 -0.08134 0.52441
 C405 C 0.22191 -0.05753 0.52551
 C406 C 0.22791 -0.03913 0.49893
 C407 C 0.21079 -0.04463 0.47113
 C408 C 0.18804 -0.06872 0.46957
 C409 C 0.16756 -0.12237 0.54996
 C410 C 0.19151 -0.09935 0.55093
 C411 C 0.14744 -0.09836 0.44076
 C412 C 0.17079 -0.07476 0.44195
 H413 H 0.16250 -0.13550 0.57103
 H414 H 0.20422 -0.09537 0.57271
 H415 H 0.13461 -0.10220 0.41902
 H416 H 0.17528 -0.06104 0.42112
 H417 H 0.10302 -0.14344 0.44498
 H418 H 0.12010 -0.16406 0.54230
 H419 H 0.23436 -0.05265 0.54724
 H420 H 0.21491 -0.02988 0.45088
 C421 C 0.60301 0.34770 0.99687
 C422 C 0.59649 0.37976 0.99065
 C423 C 0.62120 0.40177 0.99113
 C424 C 0.65232 0.39204 0.99787
 C425 C 0.65846 0.35981 1.00436
 C426 C 0.63384 0.33747 1.00375
 C427 C 0.57703 0.32443 0.99613
 C428 C 0.58343 0.29227 1.00210
 C429 C 0.55852 0.27025 1.00107
 C430 C 0.52759 0.28037 0.99415
 C431 C 0.52166 0.31273 0.98866
 C432 C 0.54626 0.33483 0.98945
 C433 C 0.63935 0.30512 1.00975
 C434 C 0.61459 0.28291 1.00890
 C435 C 0.56535 0.38922 0.98409
 C436 C 0.54064 0.36713 0.98355
 H437 H 0.66301 0.29687 1.01507
 H438 H 0.61989 0.25821 1.01359
 H439 H 0.56004 0.41391 0.97932
 H440 H 0.51695 0.37539 0.97836
 H441 H 0.61617 0.42659 0.98667
 H442 H 0.68238 0.35211 1.00941
 H443 H 0.56311 0.24540 1.00577
 H444 H 0.49804 0.32099 0.98355
 C445 C 0.49342 0.16016 1.10365
 C446 C 0.47790 0.13092 1.10031
 C447 C 0.47857 0.10935 1.12511
 C448 C 0.49408 0.11693 1.15352
 C449 C 0.50926 0.14665 1.15655
 C450 C 0.50921 0.16824 1.13157
 C451 C 0.49334 0.18261 1.07728
 C452 C 0.50947 0.21162 1.08023
 C453 C 0.50978 0.23258 1.05472
 C454 C 0.49389 0.22458 1.02676
 C455 C 0.47726 0.19582 1.02453
 C456 C 0.47724 0.17454 1.04954
 C457 C 0.52476 0.19766 1.13382
 C458 C 0.52499 0.21892 1.10856
 C459 C 0.46214 0.12368 1.07212
 C460 C 0.46166 0.14521 1.04721
 H461 H 0.53705 0.20422 1.15522
 H462 H 0.53745 0.24123 1.11122
 H463 H 0.45003 0.10119 1.06930
 H464 H 0.44922 0.13872 1.02587
 H465 H 0.46748 0.08638 1.12197
 H466 H 0.52098 0.15307 1.17830
 H467 H 0.52218 0.25498 1.05667
 H468 H 0.46459 0.18971 1.00327
 C469 C -0.01058 0.61669 0.65200
 C470 C 0.01774 0.63231 0.64532
 C471 C 0.01827 0.65451 0.62099
 C472 C -0.00938 0.66157 0.60363
 C473 C -0.03777 0.64615 0.61133
 C474 C -0.03839 0.62337 0.63514
 C475 C -0.01092 0.59224 0.67658
 C476 C -0.03887 0.57543 0.68216
 C477 C -0.03857 0.55096 0.70430
 C478 C -0.01087 0.54400 0.72129
 C479 C 0.01679 0.56137 0.71587
 C480 C 0.01698 0.58538 0.69328
 C481 C -0.06613 0.60669 0.64202
 C482 C -0.06630 0.58295 0.66498
 C483 C 0.04512 0.62498 0.66270
 C484 C 0.04471 0.60201 0.68637
 H485 H -0.08775 0.61163 0.62917
 H486 H -0.08804 0.57025 0.66916
 H487 H 0.06711 0.63694 0.65781
 H488 H 0.06640 0.59689 0.69905
 H489 H 0.04045 0.66557 0.61510
 H490 H -0.05939 0.65167 0.59872
 H491 H -0.05964 0.53696 0.70791
 H492 H 0.03846 0.55536 0.72815
 C493 C 0.50093 0.84188 -0.09885
 C494 C 0.48544 0.87116 -0.09594
 C495 C 0.48626 0.89276 -0.12068
 C496 C 0.50195 0.88519 -0.14855
 C497 C 0.51721 0.85553 -0.15112
 C498 C 0.51692 0.83386 -0.12623
 C499 C 0.50050 0.81929 -0.07261
 C500 C 0.51640 0.79015 -0.07519
 C501 C 0.51622 0.76896 -0.04990
 C502 C 0.50012 0.77691 -0.02249
 C503 C 0.48381 0.80584 -0.02056
 C504 C 0.48420 0.82731 -0.04540
 C505 C 0.53233 0.80437 -0.12810
 C506 C 0.53216 0.78293 -0.10298
 C507 C 0.46951 0.87835 -0.06827
 C508 C 0.46877 0.85672 -0.04347
 H509 H 0.54477 0.79786 -0.14909
 H510 H 0.54447 0.76054 -0.10534
 H511 H 0.45745 0.90087 -0.06579
 H512 H 0.45618 0.86316 -0.02254
 H513 H 0.47507 0.91570 -0.11796
 H514 H 0.52909 0.84920 -0.17249
 H515 H 0.52832 0.74640 -0.05160
 H516 H 0.47101 0.81182 0.00036
 C517 C 1.00874 0.37601 0.33907
 C518 C 0.98012 0.36171 0.34696
 C519 C 0.97966 0.33933 0.37113
 C520 C 1.00759 0.33117 0.38783
 C521 C 1.03629 0.34534 0.37860
 C522 C 1.03691 0.36786 0.35459
 C523 C 1.00905 0.40087 0.31490
 C524 C 1.03749 0.41627 0.30813
 C525 C 1.03727 0.44137 0.28676
 C526 C 1.00892 0.45095 0.27225
 C527 C 0.98077 0.43479 0.27853
 C528 C 0.98066 0.40974 0.30004
 C529 C 1.06506 0.38321 0.34653
 C530 C 1.06533 0.40707 0.32374
 C531 C 0.95233 0.37056 0.33095
 C532 C 0.95259 0.39419 0.30790
 H533 H 1.08699 0.37713 0.35834
 H534 H 1.08743 0.41875 0.31866
 H535 H 0.93007 0.35955 0.33669
 H536 H 0.93055 0.40075 0.29656
 H537 H 0.95745 0.32802 0.37638
 H538 H 1.05805 0.34069 0.39126
 H539 H 1.05882 0.45437 0.28248
 H540 H 0.95881 0.44256 0.26782
 C541 C 0.50283 0.84658 0.11855
 C542 C 0.47458 0.85536 0.13279
 C543 C 0.47478 0.87992 0.15493
 C544 C 0.50303 0.89618 0.16300
 C545 C 0.53128 0.88636 0.14849
 C546 C 0.53125 0.86182 0.12627
 C547 C 0.50250 0.82146 0.09447
 C548 C 0.53064 0.81324 0.07958
 C549 C 0.52989 0.79040 0.05567
 C550 C 0.50130 0.77587 0.04680
 C551 C 0.47338 0.78415 0.06218
 C552 C 0.47384 0.80691 0.08607
 C553 C 0.55909 0.85247 0.11135
 C554 C 0.55878 0.82864 0.08835
 C555 C 0.44642 0.83989 0.12408
 C556 C 0.44605 0.81610 0.10109
 H557 H 0.58125 0.86396 0.11719
 H558 H 0.58068 0.82249 0.07710
 H559 H 0.42441 0.84646 0.13489
 H560 H 0.42378 0.80505 0.09480
 H561 H 0.45240 0.88724 0.16436
 H562 H 0.55366 0.89706 0.15483
 H563 H 0.55131 0.78467 0.04348
 H564 H 0.45106 0.77401 0.05474
 C565 C -0.00202 0.39930 0.65260
 C566 C -0.02446 0.37485 0.65291
 C567 C -0.02262 0.35038 0.63073
 C568 C 0.00103 0.35060 0.60784
 C569 C 0.02325 0.37552 0.60793
 C570 C 0.02200 0.39974 0.63039
 C571 C -0.00388 0.42513 0.67580
 C572 C 0.01874 0.44944 0.67561
 C573 C 0.01684 0.47395 0.69763
 C574 C -0.00769 0.47450 0.71933
 C575 C -0.03047 0.45028 0.71905
 C576 C -0.02844 0.42523 0.69749
 C577 C 0.04415 0.42454 0.63090
 C578 C 0.04264 0.44889 0.65324
 C579 C -0.04844 0.37550 0.67523
 C580 C -0.05051 0.40037 0.69703
 H581 H 0.06282 0.42512 0.61390
 H582 H 0.06018 0.46757 0.65284
 H583 H -0.06593 0.35678 0.67570
 H584 H -0.06951 0.40010 0.71366
 H585 H -0.03956 0.33117 0.63141
 H586 H 0.04119 0.37650 0.59021
 H587 H 0.03425 0.49279 0.69772
 H588 H -0.04979 0.45093 0.73525
 C589 C 0.49960 0.15596 0.88444
 C590 C 0.47142 0.14212 0.87349
 C591 C 0.47274 0.11760 0.85136
 C592 C 0.50197 0.10684 0.84016
 C593 C 0.52997 0.12146 0.85102
 C594 C 0.52893 0.14590 0.87331
 C595 C 0.49840 0.18084 0.90868
 C596 C 0.52662 0.19396 0.92044
 C597 C 0.52539 0.21644 0.94464
 C598 C 0.49622 0.22566 0.95693
 C599 C 0.46816 0.21287 0.94438
 C600 C 0.46910 0.19030 0.92035
 C601 C 0.55664 0.16009 0.88511
 C602 C 0.55551 0.18366 0.90833
 C603 C 0.44252 0.15260 0.88539
 C604 C 0.44137 0.17632 0.90842
 H605 H 0.57942 0.15259 0.87666
 H606 H 0.57745 0.19363 0.91713
 H607 H 0.42061 0.14215 0.87709
 H608 H 0.41862 0.18345 0.91725
 H609 H 0.45107 0.10626 0.84359
 H610 H 0.55257 0.11372 0.84227
 H611 H 0.54707 0.22600 0.95434
 H612 H 0.44566 0.21954 0.95411
 C613 C 1.00368 0.59890 0.34295
 C614 C 0.99650 0.62965 0.33248
 C615 C 0.99623 0.65478 0.35411
 C616 C 1.00322 0.64920 0.38592
 C617 C 1.01020 0.61813 0.39591
 C618 C 1.01049 0.59293 0.37456
 C619 C 1.00413 0.57241 0.32039
 C620 C 1.01128 0.54172 0.33098
 C621 C 1.01195 0.51667 0.30952
 C622 C 1.00580 0.52209 0.27763
 C623 C 0.99824 0.55289 0.26736
 C624 C 0.99746 0.57825 0.28870
 C625 C 1.01741 0.56185 0.38426
 C626 C 1.01779 0.53666 0.36282
 C627 C 0.98981 0.63459 0.30060
 C628 C 0.99028 0.60933 0.27910
 H629 H 1.02264 0.55697 0.40861
 H630 H 1.02332 0.51304 0.37123
 H631 H 0.98422 0.65819 0.29220
 H632 H 0.98506 0.61419 0.25474
 H633 H 0.99101 0.67864 0.34619
 H634 H 1.01499 0.61348 0.42040
 H635 H 1.01754 0.49313 0.31787
 H636 H 0.99286 0.55705 0.24291
 C637 C 1.11512 0.49614 0.15570
 C638 C 1.12886 0.46802 0.14483
 C639 C 1.15064 0.46943 0.12055
 C640 C 1.15871 0.49876 0.10661
 C641 C 1.14481 0.52682 0.11857
 C642 C 1.12303 0.52559 0.14285
 C643 C 1.09128 0.49462 0.18038
 C644 C 1.07682 0.52270 0.19062
 C645 C 1.05294 0.52092 0.21286
 C646 C 1.04359 0.49138 0.22473
 C647 C 1.05865 0.46353 0.21463
 C648 C 1.08254 0.46500 0.19243
 C649 C 1.10864 0.55328 0.15425
 C650 C 1.08587 0.55185 0.17769
 C651 C 1.11994 0.43886 0.15790
 C652 C 1.09714 0.43737 0.18128
 H653 H 1.11465 0.57622 0.14463
 H654 H 1.07496 0.57370 0.18543
 H655 H 1.13037 0.41694 0.14971
 H656 H 1.09060 0.41437 0.19040
 H657 H 1.15969 0.44726 0.11157
 H658 H 1.15131 0.54989 0.10968
 H659 H 1.04109 0.54237 0.22006
 H660 H 1.05086 0.44060 0.22288
 C661 C 0.66639 -0.00200 0.61987
 C662 C 0.66296 -0.03049 0.63642
 C663 C 0.64056 -0.03220 0.66020
 C664 C 0.62175 -0.00563 0.66738
 C665 C 0.62610 0.02293 0.65097
 C666 C 0.64822 0.02483 0.62709
 C667 C 0.68863 -0.00052 0.59376
 C668 C 0.69104 0.02760 0.57647
 C669 C 0.71072 0.02831 0.55055
 C670 C 0.72757 0.00111 0.54166
 C671 C 0.72618 -0.02646 0.56000
 C672 C 0.70628 -0.02756 0.58593
 C673 C 0.65191 0.05279 0.60973
 C674 C 0.67295 0.05414 0.58480
 C675 C 0.68153 -0.05684 0.62838
 C676 C 0.70288 -0.05537 0.60361
 H677 H 0.63805 0.07365 0.61514
 H678 H 0.67470 0.07599 0.57164
 H679 H 0.67923 -0.07892 0.64105
 H680 H 0.71638 -0.07638 0.59789
 H681 H 0.63751 -0.05418 0.67288
 H682 H 0.61139 0.04332 0.65596
 H683 H 0.71199 0.04965 0.53652
 H684 H 0.73966 -0.04723 0.55378
 C685 C -0.11450 0.50305 0.84358
 C686 C -0.13342 0.52988 0.84871
 C687 C -0.15583 0.52912 0.87249
 C688 C -0.15955 0.50167 0.89078
 C689 C -0.14072 0.47482 0.88499
 C690 C -0.11792 0.47549 0.86161
 C691 C -0.09021 0.50406 0.81929
 C692 C -0.07048 0.47768 0.81502
 C693 C -0.04671 0.47919 0.79269
 C694 C -0.04318 0.50644 0.77422
 C695 C -0.06309 0.53268 0.77869
 C696 C -0.08666 0.53166 0.80134
 C697 C -0.09808 0.44938 0.85626
 C698 C -0.07465 0.45052 0.83346
 C699 C -0.12928 0.55700 0.83018
 C700 C -0.10635 0.55785 0.80684
 H701 H -0.10046 0.42801 0.87005
 H702 H -0.05961 0.43000 0.83032
 H703 H -0.14378 0.57782 0.83385
 H704 H -0.10383 0.57929 0.79319
 H705 H -0.17040 0.54977 0.87679
 H706 H -0.14324 0.45380 0.89929
 H707 H -0.03074 0.45932 0.78987
 H708 H -0.05970 0.55417 0.76537
 C709 C 0.34864 0.00278 0.39390
 C710 C 0.35378 -0.02399 0.37504
 C711 C 0.37658 -0.02254 0.35167
 C712 C 0.39391 0.00551 0.34693
 C713 C 0.38814 0.03227 0.36577
 C714 C 0.36571 0.03095 0.38949
 C715 C 0.32530 0.00114 0.41905
 C716 C 0.32093 0.02758 0.43855
 C717 C 0.29937 0.02558 0.46296
 C718 C 0.28177 -0.00225 0.46739
 C719 C 0.28637 -0.02858 0.44776
 C720 C 0.30824 -0.02704 0.42352
 C721 C 0.36034 0.05705 0.40921
 C722 C 0.33843 0.05534 0.43341
 C723 C 0.33619 -0.05173 0.38015
 C724 C 0.31376 -0.05320 0.40392
 H725 H 0.37339 0.07889 0.40608
 H726 H 0.33519 0.07591 0.44826
 H727 H 0.33989 -0.07252 0.36572
 H728 H 0.30079 -0.07507 0.40714
 H729 H 0.38082 -0.04313 0.33708
 H730 H 0.40169 0.05379 0.36248
 H731 H 0.29629 0.04562 0.47856
 H732 H 0.27362 -0.05042 0.45176
 C733 C 0.10206 0.50922 0.83885
 C734 C 0.10703 0.53595 0.85795
 C735 C 0.13124 0.53531 0.88057
 C736 C 0.14998 0.50798 0.88449
 C737 C 0.14480 0.48145 0.86501
 C738 C 0.12092 0.48199 0.84205
 C739 C 0.07616 0.50949 0.81554
 C740 C 0.07099 0.48265 0.79661
 C741 C 0.04581 0.48274 0.77504
 C742 C 0.02585 0.50927 0.77273
 C743 C 0.03124 0.53592 0.79181
 C744 C 0.05657 0.53628 0.81316
 C745 C 0.11521 0.45571 0.82250
 C746 C 0.09072 0.45607 0.80011
 C747 C 0.08730 0.56254 0.85446
 C748 C 0.06241 0.56266 0.83252
 H749 H 0.12966 0.43460 0.82468
 H750 H 0.08697 0.43523 0.78566
 H751 H 0.09089 0.58329 0.86908
 H752 H 0.04750 0.58348 0.83082
 H753 H 0.13489 0.55563 0.89577
 H754 H 0.15934 0.46045 0.86782
 H755 H 0.04129 0.46191 0.76080
 H756 H 0.01553 0.55618 0.79021
 C757 C 0.65386 0.01000 0.39548
 C758 C 0.66455 0.00942 0.36458
 C759 C 0.64242 0.01085 0.33989
 C760 C 0.61001 0.01347 0.34615
 C761 C 0.59980 0.01425 0.37725
 C762 C 0.62158 0.01225 0.40201
 C763 C 0.67686 0.00806 0.42152
 C764 C 0.66601 0.00790 0.45233
 C765 C 0.68785 0.00578 0.47701
 C766 C 0.72034 0.00464 0.47111
 C767 C 0.73097 0.00474 0.44016
 C768 C 0.70922 0.00628 0.41516
 C769 C 0.61168 0.01222 0.43315
 C770 C 0.63352 0.00993 0.45791
 C771 C 0.69709 0.00742 0.35909
 C772 C 0.71906 0.00602 0.38395
 H773 H 0.58682 0.01386 0.43844
 H774 H 0.62492 0.00988 0.48161
 H775 H 0.70567 0.00702 0.33538
 H776 H 0.74393 0.00460 0.37869
 H777 H 0.65029 0.01029 0.31593
 H778 H 0.57482 0.01578 0.38211
 H779 H 0.67933 0.00509 0.50065
 H780 H 0.75602 0.00356 0.43564
 C781 C 0.89821 0.48844 0.15482
 C782 C 0.90263 0.47415 0.12557
 C783 C 0.87837 0.47547 0.10313
 C784 C 0.84946 0.49040 0.10981
 C785 C 0.84534 0.50432 0.13952
 C786 C 0.86976 0.50363 0.16201
 C787 C 0.92403 0.48775 0.17823
 C788 C 0.92004 0.50273 0.20726
 C789 C 0.94510 0.50268 0.22909
 C790 C 0.97366 0.48758 0.22188
 C791 C 0.97691 0.47196 0.19310
 C792 C 0.95235 0.47233 0.17099
 C793 C 0.86643 0.51796 0.19148
 C794 C 0.89118 0.51763 0.21366
 C795 C 0.93134 0.45899 0.11921
 C796 C 0.95573 0.45795 0.14161
 H797 H 0.84460 0.52976 0.19735
 H798 H 0.88772 0.52920 0.23597
 H799 H 0.93499 0.44784 0.09673
 H800 H 0.97753 0.44604 0.13578
 H801 H 0.88232 0.46534 0.08024
 H802 H 0.82316 0.51553 0.14522
 H803 H 0.94243 0.51433 0.25147
 H804 H 0.99870 0.45994 0.18760
 C805 C 0.35136 -0.00928 0.60879
 C806 C 0.35709 0.01806 0.62681
 C807 C 0.38097 0.01749 0.64980
 C808 C 0.39889 -0.01022 0.65493
 C809 C 0.39253 -0.03756 0.63691
 C810 C 0.36894 -0.03714 0.61363
 C811 C 0.32689 -0.00854 0.58399
 C812 C 0.32189 -0.03555 0.56528
 C813 C 0.29943 -0.03431 0.54099
 C814 C 0.28182 -0.00654 0.53576
 C815 C 0.28682 0.02024 0.55481
 C816 C 0.30948 0.01941 0.57897
 C817 C 0.36288 -0.06385 0.59476
 C818 C 0.33983 -0.06303 0.57092
 C819 C 0.33901 0.04548 0.62128
 C820 C 0.31558 0.04613 0.59780
 H821 H 0.37630 -0.08547 0.59824
 H822 H 0.33614 -0.08403 0.55668
 H823 H 0.34315 0.06670 0.63508
 H824 H 0.30233 0.06783 0.59415
 H825 H 0.38556 0.03850 0.66379
 H826 H 0.40648 -0.05883 0.64051
 H827 H 0.29591 -0.05473 0.52589
 H828 H 0.27389 0.04195 0.55028
   
