data_POSCAR
  _audit_creation_date              2014-09-24
  _audit_creation_method            'ToBaCCo'
  _symmetry_space_group_name_H-M    'P1'
  _symmetry_Int_Tables_number       1
  _symmetry_cell_setting            triclinic
  loop_
  _symmetry_equiv_pos_as_xyz
 x,y,z
_cell_length_a 37.0062
_cell_length_b 35.2446
_cell_length_c 35.2438
_cell_angle_alpha 89.903100
_cell_angle_beta 90.025200
_cell_angle_gamma 89.975100
loop_
  _atom_site_label
  _atom_site_type_symbol
  _atom_site_fract_x
  _atom_site_fract_y
  _atom_site_fract_z
C1 C 0.30479 0.30193 0.23552
 H2 H 0.30631 0.30252 0.26617
 C3 C 0.32819 0.32434 0.21395
 H4 H 0.34775 0.34239 0.22798
 C5 C 0.27775 0.27741 0.17966
 H6 H 0.25845 0.25870 0.16637
 C7 C 0.30066 0.29935 0.15705
 H8 H 0.29867 0.29776 0.12642
 N9 N 0.27989 0.27944 0.21818
 C10 C 0.19432 0.26381 0.30191
 H11 H 0.19273 0.23317 0.30258
 C12 C 0.17105 0.28544 0.32437
 H13 H 0.15153 0.27147 0.34253
 C14 C 0.22142 0.31959 0.27717
 H15 H 0.24069 0.33283 0.25836
 C16 C 0.19865 0.34227 0.29915
 H17 H 0.20072 0.37289 0.29748
 Zn18 Zn 0.24949 0.24967 0.24954
 N19 N 0.21919 0.28108 0.27930
 C20 C 0.27768 0.22198 0.31949
 N21 N 0.27980 0.21982 0.28099
 C22 C 0.30465 0.19719 0.26374
 C23 C 0.32804 0.17480 0.28539
 C24 C 0.30057 0.20006 0.34219
 C25 C 0.19429 0.23573 0.19712
 C26 C 0.17091 0.21419 0.17470
 C27 C 0.19835 0.15726 0.19996
 C28 C 0.22123 0.17985 0.22190
 N29 N 0.21912 0.21836 0.21975
 H30 H 0.25844 0.24080 0.33271
 H31 H 0.30617 0.19651 0.23309
 H32 H 0.34756 0.15666 0.27144
 H33 H 0.29860 0.20178 0.37281
 H34 H 0.19280 0.26638 0.19643
 H35 H 0.15141 0.22824 0.15654
 H36 H 0.20030 0.12663 0.20166
 H37 H 0.24047 0.16653 0.24072
 C38 C 0.17336 0.32501 0.32306
 C39 C 0.32599 0.32312 0.17437
 C40 C 0.17308 0.17461 0.17605
 C41 C 0.32586 0.17617 0.32497
 C42 C 0.80560 0.80328 0.23491
 H43 H 0.80716 0.80396 0.26555
 C44 C 0.82885 0.82577 0.21324
 H45 H 0.84831 0.84396 0.22726
 C46 C 0.77858 0.77844 0.17919
 H47 H 0.75936 0.75957 0.16600
 C48 C 0.80132 0.80045 0.15644
 H49 H 0.79920 0.79868 0.12582
 N50 N 0.78078 0.78060 0.21769
 C51 C 0.69532 0.76475 0.30151
 H52 H 0.69383 0.73410 0.30218
 C53 C 0.67198 0.78628 0.32398
 H54 H 0.65251 0.77224 0.34214
 C55 C 0.72224 0.82062 0.27678
 H56 H 0.74147 0.83393 0.25797
 C57 C 0.69940 0.84321 0.29877
 H58 H 0.70137 0.87384 0.29711
 Zn59 Zn 0.75053 0.75077 0.24917
 N60 N 0.72014 0.78211 0.27890
 C61 C 0.77874 0.72319 0.31915
 N62 N 0.78094 0.72106 0.28065
 C63 C 0.80583 0.69845 0.26343
 C64 C 0.82912 0.67598 0.28512
 C65 C 0.80154 0.70119 0.34188
 C66 C 0.69532 0.73647 0.19683
 C67 C 0.67201 0.71478 0.17449
 C68 C 0.69967 0.65803 0.19989
 C69 C 0.72249 0.68077 0.22175
 N70 N 0.72024 0.71927 0.21948
 H71 H 0.75947 0.74200 0.33235
 H72 H 0.80739 0.69778 0.23279
 H73 H 0.84864 0.65780 0.27120
 H74 H 0.79948 0.70284 0.37250
 H75 H 0.69371 0.76712 0.19606
 H76 H 0.65244 0.72869 0.15631
 H77 H 0.70175 0.62741 0.20167
 H78 H 0.74178 0.66759 0.24059
 C79 C 0.67417 0.82587 0.32268
 C80 C 0.82658 0.82444 0.17363
 C81 C 0.67432 0.67520 0.17595
 C82 C 0.82682 0.67727 0.32469
 C83 C 0.80610 0.30119 0.73674
 H84 H 0.80768 0.30184 0.76738
 C85 C 0.82936 0.32366 0.71507
 H86 H 0.84888 0.34182 0.72900
 C87 C 0.77898 0.27649 0.68100
 H88 H 0.75971 0.25770 0.66779
 C89 C 0.80175 0.29849 0.65829
 H90 H 0.79967 0.29685 0.62767
 N91 N 0.78121 0.27860 0.71951
 C92 C 0.69566 0.26312 0.80330
 H93 H 0.69408 0.23248 0.80405
 C94 C 0.67233 0.28480 0.82564
 H95 H 0.65277 0.27088 0.84380
 C96 C 0.72276 0.31884 0.77843
 H97 H 0.74203 0.33204 0.75960
 C98 C 0.69992 0.34157 0.80029
 H99 H 0.70196 0.37218 0.79851
 Zn100 Zn 0.75085 0.24887 0.75096
 N101 N 0.72055 0.28034 0.78067
 C102 C 0.77898 0.22115 0.82092
 N103 N 0.78114 0.21901 0.78242
 C104 C 0.80596 0.19634 0.76518
 C105 C 0.82926 0.17384 0.78682
 C106 C 0.80176 0.19914 0.84366
 C107 C 0.69559 0.23494 0.69861
 C108 C 0.67224 0.21343 0.67615
 C109 C 0.69971 0.15647 0.70131
 C110 C 0.72257 0.17904 0.72331
 N111 N 0.72044 0.21755 0.72120
 H112 H 0.75976 0.24001 0.83412
 H113 H 0.80749 0.19568 0.73453
 H114 H 0.84871 0.15568 0.77270
 H115 H 0.79962 0.20095 0.87429
 H116 H 0.69409 0.26559 0.69797
 H117 H 0.65273 0.22749 0.65800
 H118 H 0.70169 0.12584 0.70295
 H119 H 0.74182 0.16570 0.74210
 C120 C 0.67460 0.32438 0.82419
 C121 C 0.82704 0.32239 0.67549
 C122 C 0.67444 0.17384 0.67742
 C123 C 0.82705 0.17514 0.82645
 C124 C 0.30477 0.80269 0.73611
 H125 H 0.30628 0.80337 0.76675
 C126 C 0.32814 0.82507 0.71448
 H127 H 0.34766 0.84320 0.72844
 C128 C 0.27779 0.77793 0.68033
 H129 H 0.25855 0.75912 0.66709
 C130 C 0.30067 0.79984 0.65765
 H131 H 0.29870 0.79813 0.62702
 N132 N 0.27992 0.78009 0.71883
 C133 C 0.19440 0.76433 0.80263
 H134 H 0.19292 0.73368 0.80336
 C135 C 0.17102 0.78591 0.82499
 H136 H 0.15151 0.77191 0.84315
 C137 C 0.22133 0.82015 0.77779
 H138 H 0.24057 0.83342 0.75896
 C139 C 0.19844 0.84279 0.79967
 H140 H 0.20039 0.87341 0.79792
 Zn141 Zn 0.24961 0.75028 0.75026
 N142 N 0.21924 0.78164 0.78000
 C143 C 0.27786 0.72253 0.82018
 N144 N 0.28001 0.72050 0.78167
 C145 C 0.30491 0.69799 0.76436
 C146 C 0.32830 0.67554 0.78594
 C147 C 0.30076 0.70055 0.84282
 C148 C 0.19443 0.73611 0.69785
 C149 C 0.17116 0.71447 0.67542
 C150 C 0.19875 0.65766 0.70076
 C151 C 0.22153 0.68035 0.72271
 N152 N 0.21931 0.71886 0.72051
 H153 H 0.25856 0.74126 0.83346
 H154 H 0.30642 0.69740 0.73371
 H155 H 0.34785 0.65747 0.77194
 H156 H 0.29876 0.70214 0.87345
 H157 H 0.19285 0.76676 0.69712
 H158 H 0.15163 0.72843 0.65722
 H159 H 0.20081 0.62704 0.70249
 H160 H 0.24080 0.66712 0.74156
 C161 C 0.17317 0.82550 0.82357
 C162 C 0.32596 0.82371 0.67490
 C163 C 0.17346 0.67489 0.67680
 C164 C 0.32609 0.67676 0.82552
 C165 C -0.00127 0.00025 -0.00044
 C166 C -0.00002 0.49982 0.50012
 C167 C 0.50045 -0.00003 0.50007
 C168 C 0.50054 0.49975 -0.00003
 C169 C 0.06412 -0.06620 -0.11154
 C170 C 0.10598 -0.06543 -0.11087
 C171 C 0.10624 -0.10902 -0.11048
 C172 C 0.06475 -0.11016 -0.11152
 C173 C 0.06401 -0.06676 -0.06795
 C174 C 0.06426 -0.11034 -0.06755
 C175 C 0.10549 -0.06563 -0.06692
 C176 C 0.10612 -0.10958 -0.06689
 C177 C 0.12992 -0.13248 -0.13409
 C178 C 0.14956 -0.15168 -0.15343
 C179 C 0.04067 -0.04314 -0.04417
 C180 C 0.02163 -0.02360 -0.02449
 H181 H 0.04659 -0.04809 -0.12961
 H182 H 0.12340 -0.04723 -0.12895
 H183 H 0.04827 -0.12874 -0.13012
 H184 H 0.04684 -0.12853 -0.04947
 H185 H 0.12198 -0.04705 -0.04831
 H186 H 0.12365 -0.12767 -0.04880
 C187 C 0.06523 0.43383 0.38875
 C188 C 0.10709 0.43415 0.38952
 C189 C 0.10694 0.39056 0.38948
 C190 C 0.06544 0.38987 0.38834
 C191 C 0.06501 0.43285 0.43232
 C192 C 0.06485 0.38926 0.43230
 C193 C 0.10651 0.43354 0.43346
 C194 C 0.10671 0.38959 0.43306
 C195 C 0.13043 0.36709 0.36570
 C196 C 0.14992 0.34787 0.34621
 C197 C 0.04181 0.45647 0.45625
 C198 C 0.02285 0.47599 0.47602
 H199 H 0.04790 0.45230 0.37081
 H200 H 0.12472 0.45235 0.37166
 H201 H 0.04882 0.37165 0.36951
 H202 H 0.04722 0.37108 0.45016
 H203 H 0.12312 0.45176 0.45229
 H204 H 0.12403 0.37113 0.45102
 C205 C 0.60703 -0.06514 0.43243
 C206 C 0.60817 -0.10908 0.43280
 C207 C 0.60757 -0.10889 0.38921
 C208 C 0.60679 -0.06531 0.38848
 C209 C 0.56555 -0.06681 0.43216
 C210 C 0.56495 -0.06661 0.38857
 C211 C 0.56632 -0.11039 0.43291
 C212 C 0.56609 -0.11056 0.38894
 C213 C 0.63113 -0.13223 0.36538
 C214 C 0.65067 -0.15137 0.34586
 C215 C 0.54230 -0.04330 0.45614
 C216 C 0.52332 -0.02382 0.47594
 H217 H 0.62359 -0.04620 0.45059
 H218 H 0.62620 -0.12680 0.45072
 H219 H 0.62370 -0.04703 0.36994
 H220 H 0.54690 -0.04888 0.37067
 H221 H 0.54941 -0.12865 0.45145
 H222 H 0.54952 -0.12951 0.37078
 C223 C 0.60721 0.43423 -0.06709
 C224 C 0.60831 0.39029 -0.06636
 C225 C 0.60785 0.39014 -0.10995
 C226 C 0.60711 0.43372 -0.11103
 C227 C 0.56573 0.43259 -0.06748
 C228 C 0.56526 0.43245 -0.11107
 C229 C 0.56646 0.38902 -0.06639
 C230 C 0.56637 0.38850 -0.11035
 C231 C 0.63147 0.36659 -0.13352
 C232 C 0.65105 0.34730 -0.15283
 C233 C 0.54244 0.45629 -0.04373
 C234 C 0.52343 0.47588 -0.02407
 H235 H 0.62373 0.45330 -0.04902
 H236 H 0.62628 0.37270 -0.04824
 H237 H 0.62409 0.45183 -0.12965
 H238 H 0.54729 0.45006 -0.12917
 H239 H 0.54948 0.37092 -0.04776
 H240 H 0.54984 0.36943 -0.12841
 C241 C -0.06706 0.06728 -0.11117
 C242 C -0.10891 0.06725 -0.11000
 C243 C -0.10848 0.11084 -0.10997
 C244 C -0.06699 0.11125 -0.11151
 C245 C -0.06642 0.06804 -0.06759
 C246 C -0.06598 0.11162 -0.06755
 C247 C -0.10791 0.06764 -0.06607
 C248 C -0.10784 0.11159 -0.06639
 C249 C -0.13205 0.13460 -0.13348
 C250 C -0.15161 0.15408 -0.15274
 C251 C -0.04316 0.04413 -0.04392
 C252 C -0.02417 0.02436 -0.02433
 H253 H -0.05002 0.04879 -0.12931
 H254 H -0.12682 0.04927 -0.12772
 H255 H -0.05043 0.12945 -0.13046
 H256 H -0.04807 0.12959 -0.04982
 H257 H -0.12446 0.04944 -0.04711
 H258 H -0.12487 0.13007 -0.04824
 C259 C -0.10652 0.56737 0.43427
 C260 C -0.10641 0.61132 0.43407
 C261 C -0.10686 0.61069 0.39048
 C262 C -0.10733 0.56710 0.39033
 C263 C -0.06503 0.56774 0.43295
 C264 C -0.06547 0.56709 0.38937
 C265 C -0.06456 0.61132 0.43311
 C266 C -0.06536 0.61106 0.38915
 C267 C -0.13030 0.63453 0.36691
 C268 C -0.14976 0.65406 0.34762
 C269 C -0.04187 0.54376 0.45666
 C270 C -0.02292 0.52395 0.47625
 H271 H -0.12318 0.54913 0.45310
 H272 H -0.12351 0.62977 0.45218
 H273 H -0.12517 0.54918 0.37247
 H274 H -0.04837 0.54863 0.37127
 H275 H -0.04670 0.62922 0.45098
 H276 H -0.04870 0.62929 0.37033
 C277 C 0.39366 0.06719 0.43470
 C278 C 0.39364 0.11114 0.43421
 C279 C 0.39285 0.11022 0.39064
 C280 C 0.39251 0.06663 0.39077
 C281 C 0.43514 0.06768 0.43301
 C282 C 0.43436 0.06675 0.38944
 C283 C 0.43549 0.11126 0.43290
 C284 C 0.43434 0.11072 0.38895
 C285 C 0.36915 0.13383 0.36712
 C286 C 0.34949 0.15317 0.34786
 C287 C 0.45850 0.04387 0.45668
 C288 C 0.47755 0.02413 0.47623
 H289 H 0.37721 0.04902 0.45378
 H290 H 0.37663 0.12965 0.45236
 H291 H 0.37458 0.04854 0.37318
 H292 H 0.45138 0.04823 0.37132
 H293 H 0.45343 0.12933 0.45049
 H294 H 0.45079 0.12889 0.36987
 C295 C 0.39378 0.56714 -0.06529
 C296 C 0.39384 0.61109 -0.06556
 C297 C 0.39301 0.61039 -0.10914
 C298 C 0.39259 0.56680 -0.10923
 C299 C 0.43526 0.56756 -0.06702
 C300 C 0.43444 0.56685 -0.11059
 C301 C 0.43568 0.61114 -0.06692
 C302 C 0.43449 0.61082 -0.11087
 C303 C 0.36932 0.63416 -0.13251
 C304 C 0.34969 0.65363 -0.15167
 C305 C 0.45861 0.54363 -0.04346
 C306 C 0.47764 0.52386 -0.02393
 H307 H 0.37732 0.54891 -0.04628
 H308 H 0.37688 0.62955 -0.04731
 H309 H 0.37461 0.54884 -0.12688
 H310 H 0.45141 0.54838 -0.12883
 H311 H 0.45368 0.62909 -0.04926
 H312 H 0.45096 0.62905 -0.12988
 C313 C -0.10774 -0.06827 0.06417
 C314 C -0.10662 -0.11219 0.06561
 C315 C -0.10824 -0.11037 0.10913
 C316 C -0.10972 -0.06681 0.10804
 C317 C -0.06630 -0.06755 0.06672
 C318 C -0.06792 -0.06572 0.11024
 C319 C -0.06481 -0.11110 0.06780
 C320 C -0.06680 -0.10965 0.11169
 C321 C -0.13175 -0.13414 0.13266
 C322 C -0.15124 -0.15362 0.15194
 C323 C -0.04310 -0.04363 0.04303
 C324 C -0.02414 -0.02386 0.02345
 H325 H -0.12430 -0.05098 0.04435
 H326 H -0.12279 -0.13156 0.04752
 H327 H -0.12844 -0.04887 0.12485
 H328 H -0.05173 -0.04634 0.12831
 H329 H -0.04608 -0.12902 0.05098
 H330 H -0.05023 -0.12694 0.13150
 C331 C -0.06532 0.43253 0.61088
 C332 C -0.10718 0.43255 0.60991
 C333 C -0.10670 0.38896 0.60975
 C334 C -0.06520 0.38856 0.61108
 C335 C -0.06491 0.43190 0.56730
 C336 C -0.06442 0.38831 0.56712
 C337 C -0.10640 0.43229 0.56597
 C338 C -0.10628 0.38834 0.56616
 C339 C -0.13012 0.36512 0.63330
 C340 C -0.14956 0.34560 0.65258
 C341 C -0.04178 0.45587 0.54359
 C342 C -0.02287 0.47568 0.52400
 H343 H -0.04821 0.45098 0.62898
 H344 H -0.12501 0.45047 0.62777
 H345 H -0.04852 0.37031 0.62990
 H346 H -0.04658 0.37041 0.54925
 H347 H -0.12308 0.45054 0.54715
 H348 H -0.12338 0.36990 0.54804
 C349 C 0.43457 -0.06704 0.61063
 C350 C 0.39272 -0.06672 0.60945
 C351 C 0.39291 -0.11031 0.60934
 C352 C 0.43440 -0.11101 0.61088
 C353 C 0.43517 -0.06773 0.56705
 C354 C 0.43537 -0.11131 0.56692
 C355 C 0.39369 -0.06703 0.56551
 C356 C 0.39352 -0.11098 0.56575
 C357 C 0.36921 -0.13393 0.63280
 C358 C 0.34957 -0.15328 0.65203
 C359 C 0.45852 -0.04390 0.54343
 C360 C 0.47756 -0.02417 0.52390
 H361 H 0.45172 -0.04870 0.62880
 H362 H 0.37492 -0.04864 0.62720
 H363 H 0.45086 -0.12936 0.62980
 H364 H 0.45318 -0.12937 0.54917
 H365 H 0.37722 -0.04868 0.54659
 H366 H 0.37637 -0.12931 0.54756
 C367 C 0.43455 0.43266 0.11050
 C368 C 0.39270 0.43291 0.10923
 C369 C 0.39297 0.38932 0.10905
 C370 C 0.43445 0.38869 0.11069
 C371 C 0.43524 0.43204 0.06692
 C372 C 0.43551 0.38846 0.06673
 C373 C 0.39376 0.43266 0.06530
 C374 C 0.39367 0.38871 0.06547
 C375 C 0.36927 0.36561 0.13243
 C376 C 0.34962 0.34620 0.15158
 C377 C 0.45860 0.45591 0.04336
 C378 C 0.47764 0.47566 0.02384
 H379 H 0.45164 0.45101 0.12873
 H380 H 0.37484 0.45093 0.12697
 H381 H 0.45092 0.37035 0.12962
 H382 H 0.45339 0.37046 0.04899
 H383 H 0.37730 0.45101 0.04636
 H384 H 0.37659 0.37037 0.04722
 C385 C 0.06478 0.11073 0.06631
 C386 C 0.06471 0.11106 0.11027
 C387 C 0.10619 0.10931 0.10988
 C388 C 0.10663 0.10934 0.06629
 C389 C 0.06398 0.06716 0.06721
 C390 C 0.10546 0.06541 0.06682
 C391 C 0.06353 0.06711 0.11079
 C392 C 0.10538 0.06573 0.11077
 C393 C 0.12986 0.13269 0.13357
 C394 C 0.14948 0.15184 0.15298
 C395 C 0.04065 0.04360 0.04336
 C396 C 0.02162 0.02409 0.02364
 H397 H 0.04782 0.12896 0.04775
 H398 H 0.04822 0.13010 0.12841
 H399 H 0.12462 0.12697 0.04826
 H400 H 0.12194 0.04637 0.04869
 H401 H 0.04554 0.04948 0.12881
 H402 H 0.12233 0.04749 0.12932
 C403 C 0.06569 0.56558 0.61137
 C404 C 0.10754 0.56566 0.61019
 C405 C 0.10699 0.60924 0.61054
 C406 C 0.06550 0.60954 0.61209
 C407 C 0.06504 0.56687 0.56780
 C408 C 0.06448 0.61045 0.56814
 C409 C 0.10653 0.56657 0.56626
 C410 C 0.10633 0.61052 0.56697
 C411 C 0.13050 0.63276 0.63426
 C412 C 0.15000 0.65201 0.65369
 C413 C 0.04183 0.54320 0.54393
 C414 C 0.02286 0.52365 0.52420
 H415 H 0.04870 0.54683 0.62935
 H416 H 0.12550 0.54750 0.62775
 H417 H 0.04889 0.62748 0.63120
 H418 H 0.04651 0.62859 0.55057
 H419 H 0.12312 0.54864 0.54714
 H420 H 0.12331 0.62926 0.54897
 C421 C 0.56561 0.11027 0.56811
 C422 C 0.56624 0.10956 0.61207
 C423 C 0.60773 0.10868 0.61092
 C424 C 0.60747 0.10976 0.56734
 C425 C 0.56563 0.06668 0.56799
 C426 C 0.60712 0.06581 0.56684
 C427 C 0.56589 0.06560 0.61156
 C428 C 0.60774 0.06509 0.61078
 C429 C 0.63134 0.13200 0.63474
 C430 C 0.65090 0.15110 0.65425
 C431 C 0.54235 0.04319 0.54401
 C432 C 0.52334 0.02375 0.52421
 H433 H 0.54801 0.12856 0.55029
 H434 H 0.54970 0.12781 0.63094
 H435 H 0.62482 0.12817 0.54942
 H436 H 0.62366 0.04755 0.54797
 H437 H 0.54852 0.04717 0.62947
 H438 H 0.62533 0.04678 0.62860
 C439 C 0.60712 0.56661 0.06586
 C440 C 0.60693 0.61056 0.06646
 C441 C 0.60769 0.60938 0.11003
 C442 C 0.60824 0.56580 0.10979
 C443 C 0.56564 0.56691 0.06751
 C444 C 0.56639 0.56572 0.11108
 C445 C 0.56508 0.61049 0.06774
 C446 C 0.56620 0.60968 0.11169
 C447 C 0.63126 0.63296 0.13363
 C448 C 0.65081 0.65226 0.15296
 C449 C 0.54239 0.54319 0.04373
 C450 C 0.52341 0.52361 0.02404
 H451 H 0.62368 0.54863 0.04674
 H452 H 0.62386 0.62925 0.04838
 H453 H 0.62625 0.54768 0.12734
 H454 H 0.54945 0.54701 0.12914
 H455 H 0.54707 0.62858 0.05018
 H456 H 0.54964 0.62766 0.13080
   
