data_POSCAR
  _audit_creation_date              2014-09-24
  _audit_creation_method            'ToBaCCo'
  _symmetry_space_group_name_H-M    'P1'
  _symmetry_Int_Tables_number       1
  _symmetry_cell_setting            triclinic
  loop_
  _symmetry_equiv_pos_as_xyz
 x,y,z
_cell_length_a 44.1957
_cell_length_b 41.9647
_cell_length_c 41.2914
_cell_angle_alpha 89.938700
_cell_angle_beta 90.866700
_cell_angle_gamma 118.853200
loop_
  _atom_site_label
  _atom_site_type_symbol
  _atom_site_fract_x
  _atom_site_fract_y
  _atom_site_fract_z
O1 O -0.03645 0.43247 -0.02591
 O2 O -0.01615 0.50400 0.03553
 O3 O -0.03748 0.49403 -0.02483
 O4 O -0.01689 0.44197 0.03502
 O5 O 0.03746 0.46968 0.01956
 O6 O 0.01670 0.52168 -0.04068
 O7 O 0.03810 0.53172 0.01980
 O8 O 0.01789 0.46045 -0.04138
 Cu9 Cu -0.03223 0.46529 0.00641
 Cu10 Cu 0.03297 0.49868 -0.01226
 C11 C -0.01276 0.43448 -0.04426
 C12 C 0.01466 0.52977 0.03840
 C13 C -0.01405 0.51651 -0.04317
 C14 C 0.01384 0.44736 0.03787
 O15 O 0.54503 0.50129 -0.01897
 O16 O 0.47885 0.45620 0.04288
 O17 O 0.48737 0.44057 -0.01624
 O18 O 0.53635 0.51683 0.04031
 O19 O 0.50788 0.54447 0.02197
 O20 O 0.45961 0.46859 -0.03539
 O21 O 0.45056 0.48378 0.02394
 O22 O 0.51722 0.52959 -0.03737
 Cu23 Cu 0.51476 0.47595 0.01383
 Cu24 Cu 0.48098 0.50938 -0.00865
 C25 C 0.54226 0.52289 -0.03885
 C26 C 0.45367 0.46269 0.04419
 C27 C 0.46544 0.44173 -0.03574
 C28 C 0.53003 0.54329 0.04120
 O29 O 0.51131 0.97627 -0.04138
 O30 O 0.44655 0.95744 0.02152
 O31 O 0.45440 0.97955 -0.03849
 O32 O 0.50345 0.95326 0.01802
 O33 O 0.53323 1.01013 0.03528
 O34 O 0.48416 1.03646 -0.02140
 O35 O 0.47633 1.01427 0.03881
 O36 O 0.54092 1.03316 -0.02409
 Cu37 Cu 0.47586 0.96088 -0.01169
 Cu38 Cu 0.51152 1.02918 0.00902
 C39 C 0.53695 1.00801 -0.04362
 C40 C 0.45054 0.98266 0.04099
 C41 C 0.46143 1.01261 -0.04012
 C42 C 0.52677 0.97718 0.03614
 O43 O 1.00914 0.47048 0.53612
 O44 O 1.03019 0.54433 0.47731
 O45 O 1.00809 0.53167 0.53672
 O46 O 1.03314 0.48411 0.47717
 O47 O 0.97963 0.45525 0.45793
 O48 O 0.95437 0.50285 0.51786
 O49 O 0.97656 0.51550 0.45827
 O50 O 0.95559 0.44190 0.51689
 Cu51 Cu 1.02552 0.51048 0.50872
 Cu52 Cu 0.96118 0.47601 0.48577
 C53 C 0.97858 0.44395 0.53688
 C54 C 1.00696 0.54221 0.45752
 C55 C 0.97690 0.52493 0.53782
 C56 C 1.01090 0.46202 0.45705
 O57 O 0.53928 0.55660 0.46946
 O58 O 0.49303 0.48354 0.52804
 O59 O 0.47964 0.49743 0.46973
 O60 O 0.55197 0.54280 0.52841
 O61 O 0.52719 0.57309 0.54850
 O62 O 0.45530 0.52828 0.48955
 O63 O 0.46816 0.51388 0.54785
 O64 O 0.51501 0.58740 0.48953
 Cu65 Cu 0.51850 0.51711 0.49682
 Cu66 Cu 0.48902 0.55384 0.52079
 C67 C 0.53490 0.58436 0.46939
 C68 C 0.47287 0.48634 0.54802
 C69 C 0.45511 0.50511 0.46972
 C70 C 0.55155 0.56523 0.54881
 O71 O 0.48081 0.02614 0.45665
 O72 O 0.55220 0.05073 0.51527
 O73 O 0.53625 0.01971 0.45851
 O74 O 0.49577 0.05601 0.51431
 O75 O 0.46718 0.00187 0.53672
 O76 O 0.50760 -0.03441 0.48094
 O77 O 0.52374 -0.00340 0.53776
 O78 O 0.45227 -0.02812 0.47893
 Cu79 Cu 0.51908 0.04362 0.48401
 Cu80 Cu 0.48475 -0.02137 0.51099
 C81 C 0.45473 -0.00539 0.45737
 C82 C 0.55025 0.02785 0.53636
 C83 C 0.52862 -0.01362 0.46002
 C84 C 0.47467 0.03511 0.53514
 C85 C 0.13275 0.41188 0.25313
 C86 C 0.14608 0.40489 0.22497
 C87 C 0.17743 0.40416 0.22700
 C88 C 0.19717 0.41307 0.25603
 C89 C 0.18339 0.42049 0.28379
 C90 C 0.15087 0.41876 0.28281
 C91 C 0.23250 0.41613 0.25681
 C92 C 0.24772 0.41244 0.28595
 C93 C 0.28128 0.41674 0.28659
 C94 C 0.29935 0.42324 0.25751
 C95 C 0.28452 0.42619 0.22821
 C96 C 0.25189 0.42393 0.22827
 H97 H 0.10935 0.41394 0.25171
 H98 H 0.18649 0.39718 0.20537
 H99 H 0.19802 0.42837 0.30632
 H100 H 0.23379 0.40630 0.30841
 H101 H 0.32570 0.42811 0.25789
 H102 H 0.24209 0.42881 0.20573
 C103 C 0.59432 0.72538 0.24766
 C104 C 0.58867 0.73955 0.21878
 C105 C 0.59105 0.77410 0.21920
 C106 C 0.60110 0.79573 0.24758
 C107 C 0.60768 0.78127 0.27598
 C108 C 0.60360 0.74600 0.27643
 C109 C 0.60383 0.83277 0.24773
 C110 C 0.59801 0.84747 0.27623
 C111 C 0.60025 0.88197 0.27635
 C112 C 0.60634 0.90115 0.24718
 C113 C 0.61166 0.88693 0.21841
 C114 C 0.61125 0.85334 0.21908
 H115 H 0.58957 0.69760 0.24805
 H116 H 0.58452 0.78367 0.19723
 H117 H 0.61584 0.79719 0.29811
 H118 H 0.59109 0.83202 0.29843
 H119 H 0.60476 0.92604 0.24655
 H120 H 0.61634 0.84326 0.19687
 C121 C 0.28954 0.86801 0.24765
 C122 C 0.27048 0.85470 0.21863
 C123 C 0.23748 0.82412 0.21960
 C124 C 0.22402 0.80527 0.24876
 C125 C 0.24412 0.81884 0.27732
 C126 C 0.27614 0.85066 0.27716
 C127 C 0.18996 0.77081 0.24922
 C128 C 0.17062 0.75889 0.27783
 C129 C 0.14023 0.72526 0.27906
 C130 C 0.12775 0.70413 0.25067
 C131 C 0.14576 0.71606 0.22158
 C132 C 0.17717 0.74862 0.22135
 H133 H 0.31552 0.89056 0.24717
 H134 H 0.22266 0.81501 0.19723
 H135 H 0.23543 0.80453 0.29996
 H136 H 0.17919 0.77536 0.29962
 H137 H 0.10522 0.67755 0.25154
 H138 H 0.19181 0.75601 0.19927
 C139 C 0.86464 0.56908 0.75377
 C140 C 0.84652 0.56586 0.72467
 C141 C 0.81618 0.56858 0.72518
 C142 C 0.80464 0.57677 0.75401
 C143 C 0.82388 0.58100 0.78281
 C144 C 0.85325 0.57627 0.78309
 C145 C 0.77197 0.57941 0.75409
 C146 C 0.75166 0.57078 0.78203
 C147 C 0.72067 0.57233 0.78214
 C148 C 0.70868 0.58059 0.75335
 C149 C 0.72812 0.58877 0.72498
 C150 C 0.76000 0.58907 0.72584
 H151 H 0.88635 0.56394 0.75373
 H152 H 0.80143 0.56367 0.70286
 H153 H 0.81605 0.58766 0.80537
 H154 H 0.75934 0.56205 0.80383
 H155 H 0.68339 0.57860 0.75261
 H156 H 0.77514 0.59651 0.70406
 C157 C 0.40567 0.29720 0.74626
 C158 C 0.41273 0.28428 0.71757
 C159 C 0.41348 0.25125 0.71795
 C160 C 0.40537 0.22987 0.74613
 C161 C 0.39684 0.24279 0.77422
 C162 C 0.39789 0.27671 0.77477
 C163 C 0.40732 0.19515 0.74672
 C164 C 0.41499 0.18283 0.77587
 C165 C 0.41662 0.15037 0.77705
 C166 C 0.41271 0.13088 0.74831
 C167 C 0.40602 0.14298 0.71869
 C168 C 0.40268 0.17461 0.71821
 H169 H 0.40831 0.32416 0.74685
 H170 H 0.42123 0.24288 0.69624
 H171 H 0.38978 0.22688 0.79616
 H172 H 0.42028 0.19861 0.79795
 H173 H 0.41684 0.10751 0.74878
 H174 H 0.39654 0.18299 0.69538
 C175 C 0.70271 0.10885 0.74756
 C176 C 0.72107 0.11858 0.71852
 C177 C 0.75413 0.14906 0.71809
 C178 C 0.76862 0.17079 0.74602
 C179 C 0.74925 0.16078 0.77469
 C180 C 0.71691 0.12943 0.77591
 C181 C 0.80323 0.20437 0.74518
 C182 C 0.82372 0.21732 0.77354
 C183 C 0.85462 0.25041 0.77402
 C184 C 0.86652 0.26985 0.74506
 C185 C 0.84746 0.25665 0.71600
 C186 C 0.81550 0.22457 0.71649
 H187 H 0.67655 0.08662 0.74767
 H188 H 0.76828 0.15575 0.69572
 H189 H 0.75885 0.17759 0.79624
 H190 H 0.81548 0.20207 0.79580
 H191 H 0.88947 0.29611 0.74537
 H192 H 0.80002 0.21597 0.69445
 C193 C 0.02199 0.42841 0.06373
 C194 C 0.05530 0.43370 0.06919
 C195 C 0.06499 0.42103 0.09887
 N196 N 0.09780 0.42691 0.10302
 N197 N 0.10772 0.41812 0.13070
 C198 C 0.08520 0.40316 0.15535
 N199 N 0.05229 0.39698 0.15110
 N200 N 0.04235 0.40569 0.12337
 C201 C 0.09666 0.39644 0.18711
 C202 C 0.13023 0.40229 0.19244
 H203 H 0.07546 0.44953 0.05221
 H204 H 0.07867 0.38847 0.20683
 H205 H 0.00163 0.41182 0.08027
 H206 H 0.14660 0.40722 0.17168
 C207 C 0.54804 0.57205 0.06569
 C208 C 0.53952 0.59957 0.07100
 C209 C 0.55344 0.62462 0.09893
 N210 N 0.54307 0.64980 0.10409
 N211 N 0.55420 0.67147 0.13010
 C212 C 0.57611 0.66872 0.15195
 N213 N 0.58662 0.64369 0.14669
 N214 N 0.57550 0.62205 0.12070
 C215 C 0.58769 0.69135 0.18150
 C216 C 0.57832 0.71798 0.18830
 H217 H 0.52067 0.60162 0.05531
 H218 H 0.60424 0.68679 0.19830
 H219 H 0.56682 0.56996 0.08143
 H220 H 0.56400 0.72421 0.17018
 C221 C 0.42566 0.97541 0.06699
 C222 C 0.39626 0.94165 0.07054
 C223 C 0.37369 0.93292 0.09878
 N224 N 0.34557 0.89951 0.10117
 N225 N 0.32600 0.89046 0.12740
 C226 C 0.33382 0.91451 0.15225
 N227 N 0.36178 0.94802 0.14975
 N228 N 0.38133 0.95709 0.12350
 C229 C 0.31426 0.90396 0.18255
 C230 C 0.28563 0.86964 0.18666
 H231 H 0.39026 0.92041 0.05271
 H232 H 0.32384 0.92324 0.20246
 H233 H 0.43133 0.99691 0.08443
 H234 H 0.27472 0.85206 0.16566
 C235 C 0.96700 0.54203 0.56357
 C236 C 0.93260 0.53183 0.56964
 C237 C 0.92230 0.54307 0.59937
 N238 N 0.88836 0.53098 0.60513
 N239 N 0.87855 0.53929 0.63278
 C240 C 0.90233 0.55991 0.65574
 N241 N 0.93627 0.57214 0.64991
 N242 N 0.94609 0.56386 0.62226
 C243 C 0.89192 0.56839 0.68681
 C244 C 0.85751 0.55761 0.69357
 H245 H 0.91243 0.51311 0.55330
 H246 H 0.91202 0.58402 0.70449
 H247 H 0.98715 0.56075 0.57992
 H248 H 0.83804 0.54432 0.67473
 C249 C 0.45514 0.45788 0.57222
 C250 C 0.46142 0.42851 0.57552
 C251 C 0.44702 0.40235 0.60210
 N252 N 0.45649 0.37626 0.60603
 N253 N 0.44484 0.35334 0.63084
 C254 C 0.42323 0.35568 0.65259
 N255 N 0.41354 0.38158 0.64850
 N256 N 0.42523 0.40452 0.62373
 C257 C 0.41134 0.33181 0.68094
 C258 C 0.42194 0.30603 0.68752
 H259 H 0.47878 0.42554 0.55906
 H260 H 0.39418 0.33523 0.69726
 H261 H 0.43805 0.46112 0.58882
 H262 H 0.43709 0.30114 0.66979
 C263 C 0.57912 0.03834 0.55949
 C264 C 0.57887 0.01503 0.58368
 C265 C 0.60613 0.02717 0.60886
 N266 N 0.60279 0.00514 0.63418
 N267 N 0.62612 0.01673 0.65828
 C268 C 0.65373 0.05067 0.65784
 N269 N 0.65734 0.07252 0.63226
 N270 N 0.63400 0.06097 0.60820
 C271 C 0.67699 0.06447 0.68626
 C272 C 0.70466 0.09983 0.68766
 H273 H 0.55723 -0.01223 0.58526
 H274 H 0.67032 0.04735 0.70747
 H275 H 0.60070 0.06564 0.55799
 H276 H 0.71316 0.11539 0.66554
 C277 C 0.44470 0.02252 0.93635
 C278 C 0.45294 0.05865 0.93103
 C279 C 0.44076 0.06961 0.90194
 N280 N 0.45171 0.10536 0.89638
 N281 N 0.44274 0.11589 0.86911
 C282 C 0.42253 0.09102 0.84638
 N283 N 0.41136 0.05525 0.85205
 N284 N 0.42033 0.04473 0.87931
 C285 C 0.41360 0.10221 0.81554
 C286 C 0.42438 0.13858 0.80841
 H287 H 0.47093 0.07993 0.94719
 H288 H 0.39808 0.08111 0.79813
 H289 H 0.42629 0.00145 0.92028
 H290 H 0.43772 0.15909 0.82698
 C291 C 0.56766 0.53977 0.93541
 C292 C 0.59369 0.53072 0.93031
 C293 C 0.61615 0.54353 0.90198
 N294 N 0.63946 0.53183 0.89697
 N295 N 0.65904 0.54199 0.87074
 C296 C 0.65600 0.56424 0.84854
 N297 N 0.63283 0.57611 0.85365
 N298 N 0.61323 0.56592 0.87987
 C299 C 0.67664 0.57488 0.81898
 C300 C 0.70040 0.56294 0.81223
 H301 H 0.59666 0.51219 0.94669
 H302 H 0.67299 0.59270 0.80232
 H303 H 0.56449 0.55812 0.91896
 H304 H 0.70530 0.54710 0.83023
 C305 C 0.97931 0.40736 0.92995
 C306 C 0.94646 0.37770 0.92555
 C307 C 0.93681 0.35446 0.89645
 N308 N 0.90451 0.32578 0.89342
 N309 N 0.89451 0.30604 0.86626
 C310 C 0.91642 0.31427 0.84106
 N311 N 0.94883 0.34277 0.84419
 N312 N 0.95887 0.36247 0.87140
 C313 C 0.90461 0.29479 0.80989
 C314 C 0.87140 0.26546 0.80586
 H315 H 0.92661 0.37246 0.94307
 H316 H 0.92186 0.30507 0.78962
 H317 H 0.99946 0.41200 0.91297
 H318 H 0.85595 0.25402 0.82721
 C319 C 0.54270 0.97192 0.43828
 C320 C 0.56580 0.99291 0.41443
 C321 C 0.57757 0.97695 0.38913
 N322 N 0.60030 0.99891 0.36682
 N323 N 0.61004 0.98492 0.34279
 C324 C 0.59740 0.94844 0.34011
 N325 N 0.57479 0.92640 0.36253
 N326 N 0.56508 0.94042 0.38662
 C327 C 0.60710 0.93368 0.31227
 C328 C 0.59368 0.89643 0.30663
 H329 H 0.57478 1.02191 0.41345
 H330 H 0.62484 0.95306 0.29523
 H331 H 0.53460 0.94312 0.43959
 H332 H 0.57815 0.87730 0.32500
 C333 C 0.42612 0.48751 0.44637
 C334 C 0.42430 0.46219 0.42351
 C335 C 0.39699 0.44695 0.39828
 N336 N 0.39861 0.42542 0.37464
 N337 N 0.37521 0.41296 0.35062
 C338 C 0.34916 0.42135 0.34943
 N339 N 0.34726 0.44255 0.37329
 N340 N 0.37073 0.45509 0.39728
 C341 C 0.32568 0.41025 0.32103
 C342 C 0.29838 0.41800 0.31810
 H343 H 0.44437 0.45441 0.42314
 H344 H 0.33156 0.39765 0.30099
 H345 H 0.40617 0.49547 0.44670
 H346 H 0.29044 0.42721 0.33922
 C347 C 0.01522 0.57001 0.43243
 C348 C 0.04827 0.59951 0.42921
 C349 C 0.05827 0.62307 0.40049
 N350 N 0.09098 0.65101 0.39821
 N351 N 0.10120 0.67087 0.37138
 C352 C 0.07908 0.66352 0.34578
 N353 N 0.04627 0.63580 0.34818
 N354 N 0.03604 0.61598 0.37504
 C355 C 0.09086 0.68288 0.31486
 C356 C 0.12445 0.71132 0.31102
 H357 H 0.06806 0.60419 0.44726
 H358 H 0.07310 0.67306 0.29437
 H359 H -0.00476 0.56576 0.41475
 H360 H 0.14069 0.72279 0.33239
 C361 C 0.97803 0.53519 0.93312
 C362 C 0.94484 0.53098 0.92900
 C363 C 0.93496 0.54619 0.90118
 N364 N 0.90250 0.54181 0.89902
 N365 N 0.89231 0.55323 0.87305
 C366 C 0.91419 0.56944 0.84819
 N367 N 0.94675 0.57406 0.85045
 N368 N 0.95698 0.56272 0.87647
 C369 C 0.90236 0.57925 0.81813
 C370 C 0.86920 0.57525 0.81470
 H371 H 0.92482 0.51468 0.94596
 H372 H 0.91974 0.58821 0.79788
 H373 H 0.99823 0.55272 0.91681
 H374 H 0.85344 0.56944 0.83603
 C375 C 0.44859 0.41348 0.94187
 C376 C 0.42592 0.41365 0.91801
 C377 C 0.41323 0.38709 0.89112
 N378 N 0.39587 0.39174 0.86578
 N379 N 0.38660 0.36964 0.84008
 C380 C 0.39418 0.34194 0.83883
 N381 N 0.41110 0.33695 0.86441
 N382 N 0.42044 0.35910 0.89006
 C383 C 0.38707 0.32027 0.80891
 C384 C 0.39487 0.29188 0.80623
 H385 H 0.41940 0.43544 0.91745
 H386 H 0.37764 0.32858 0.78798
 H387 H 0.45496 0.39157 0.94210
 H388 H 0.40112 0.28169 0.82802
 C389 C 0.56175 0.01554 0.93029
 C390 C 0.58893 0.05040 0.92482
 C391 C 0.61145 0.05893 0.89661
 N392 N 0.63619 0.09373 0.89132
 N393 N 0.65594 0.10210 0.86525
 C394 C 0.65166 0.07593 0.84350
 N395 N 0.62705 0.04110 0.84889
 N396 N 0.60730 0.03274 0.87494
 C397 C 0.67229 0.08472 0.81396
 C398 C 0.69756 0.12007 0.80659
 H399 H 0.59302 0.07253 0.94094
 H400 H 0.66719 0.06250 0.79760
 H401 H 0.55750 -0.00659 0.91412
 H402 H 0.70411 0.14154 0.82431
 C403 C 0.02082 0.44579 0.43302
 C404 C 0.05517 0.45385 0.42943
 C405 C 0.06695 0.44188 0.40113
 N406 N 0.10112 0.45315 0.39777
 N407 N 0.11257 0.44417 0.37153
 C408 C 0.09024 0.42357 0.34763
 N409 N 0.05603 0.41207 0.35108
 N410 N 0.04457 0.42109 0.37732
 C411 C 0.10259 0.41443 0.31800
 C412 C 0.13762 0.42659 0.31282
 H413 H 0.07466 0.47144 0.44688
 H414 H 0.08345 0.39764 0.30002
 H415 H 0.00142 0.42789 0.41566
 H416 H 0.15609 0.44141 0.33203
 C417 C 0.55223 0.61309 0.44528
 C418 C 0.57218 0.61005 0.42088
 C419 C 0.58475 0.63549 0.39359
 N420 N 0.59983 0.62845 0.36821
 N421 N 0.60913 0.64977 0.34225
 C422 C 0.60384 0.67902 0.34077
 N423 N 0.58918 0.68636 0.36636
 N424 N 0.57982 0.66500 0.39229
 C425 C 0.61109 0.70012 0.31071
 C426 C 0.60563 0.73011 0.30790
 H427 H 0.57672 0.58688 0.42048
 H428 H 0.61892 0.69040 0.28990
 H429 H 0.54740 0.63606 0.44561
 H430 H 0.60094 0.74145 0.32960
 C431 C 0.42793 0.98428 0.43200
 C432 C 0.40141 0.94860 0.42819
 C433 C 0.37894 0.93658 0.39914
 N434 N 0.35546 0.90091 0.39518
 N435 N 0.33630 0.88925 0.36816
 C436 C 0.33995 0.91286 0.34407
 N437 N 0.36324 0.94856 0.34812
 N438 N 0.38241 0.96022 0.37514
 C439 C 0.31996 0.90031 0.31358
 C440 C 0.29587 0.86388 0.30799
 H441 H 0.39855 0.92826 0.44585
 H442 H 0.32434 0.92046 0.29525
 H443 H 0.43094 1.00459 0.41425
 H444 H 0.29009 0.84452 0.32743
 C445 C 0.54590 0.96596 0.05860
 C446 C 0.57087 0.99020 0.08028
 C447 C 0.58661 0.97776 0.10543
 N448 N 0.60684 1.00110 0.12906
 N449 N 0.61913 0.98949 0.15335
 C450 C 0.61182 0.95418 0.15477
 N451 N 0.59206 0.93098 0.13082
 N452 N 0.57972 0.94256 0.10660
 C453 C 0.62198 0.94081 0.18361
 C454 C 0.61337 0.90430 0.18677
 H455 H 0.57749 1.01865 0.08017
 H456 H 0.63370 0.95946 0.20377
 H457 H 0.53905 0.93745 0.05892
 H458 H 0.60483 0.88690 0.16548
 C459 C 0.42872 0.44648 0.07034
 C460 C 0.40286 0.45579 0.07541
 C461 C 0.38212 0.44535 0.10489
 N462 N 0.35877 0.45705 0.10961
 N463 N 0.34106 0.44944 0.13695
 C464 C 0.34611 0.42989 0.16060
 N465 N 0.36932 0.41801 0.15580
 N466 N 0.38703 0.42562 0.12846
 C467 C 0.32759 0.42221 0.19132
 C468 C 0.30320 0.43346 0.19735
 H469 H 0.39913 0.47322 0.05830
 H470 H 0.33312 0.40694 0.20938
 H471 H 0.43250 0.42903 0.08740
 H472 H 0.29621 0.44644 0.17816
 C473 C 0.02331 0.55680 0.06444
 C474 C 0.05729 0.58363 0.07055
 C475 C 0.06758 0.60687 0.09965
 N476 N 0.10140 0.63098 0.10506
 N477 N 0.11152 0.65110 0.13200
 C478 C 0.08818 0.64782 0.15457
 N479 N 0.05430 0.62384 0.14909
 N480 N 0.04417 0.60368 0.12213
 C481 C 0.09913 0.66923 0.18481
 C482 C 0.13370 0.69415 0.19140
 H483 H 0.07751 0.58641 0.05440
 H484 H 0.07937 0.66547 0.20190
 H485 H 0.00296 0.55394 0.08044
 H486 H 0.15268 0.69908 0.17301
 C487 C 0.45943 0.05012 0.55797
 C488 C 0.43720 0.02905 0.58230
 C489 C 0.42520 0.04462 0.60779
 N490 N 0.40658 0.02337 0.63263
 N491 N 0.39714 0.03735 0.65693
 C492 C 0.40579 0.07308 0.65723
 N493 N 0.42411 0.09432 0.63218
 N494 N 0.43362 0.08035 0.60790
 C495 C 0.39779 0.08855 0.68573
 C496 C 0.40574 0.12499 0.68770
 H497 H 0.42971 0.00042 0.58380
 H498 H 0.38693 0.07099 0.70641
 H499 H 0.46710 0.07879 0.55643
 H500 H 0.41343 0.14142 0.66602
 C501 C 0.57871 0.58154 0.57404
 C502 C 0.60587 0.57361 0.57654
 C503 C 0.62901 0.58401 0.60520
 N504 N 0.65474 0.57515 0.60668
 N505 N 0.67427 0.58195 0.63338
 C506 C 0.66876 0.59785 0.65964
 N507 N 0.64324 0.60701 0.65805
 N508 N 0.62376 0.60028 0.63133
 C509 C 0.68787 0.60240 0.69035
 C510 C 0.71423 0.59323 0.69338
 H511 H 0.60906 0.55739 0.55788
 H512 H 0.67964 0.61145 0.71133
 H513 H 0.57596 0.59843 0.59232
 H514 H 0.72417 0.58742 0.67164
 C515 C 0.96967 0.41615 0.56212
 C516 C 0.93567 0.38901 0.56677
 C517 C 0.92521 0.36506 0.59522
 N518 N 0.89133 0.34102 0.59956
 N519 N 0.88114 0.32038 0.62594
 C520 C 0.90450 0.32301 0.64900
 N521 N 0.93842 0.34687 0.64455
 N522 N 0.94860 0.36754 0.61818
 C523 C 0.89364 0.30145 0.67891
 C524 C 0.85906 0.27705 0.68524
 H525 H 0.91555 0.38659 0.55002
 H526 H 0.91363 0.30514 0.69632
 H527 H 0.98986 0.41880 0.57888
 H528 H 0.83973 0.27189 0.66655
   
