data_POSCAR
  _audit_creation_date              2014-09-24
  _audit_creation_method            'ToBaCCo'
  _symmetry_space_group_name_H-M    'P1'
  _symmetry_Int_Tables_number       1
  _symmetry_cell_setting            triclinic
  loop_
  _symmetry_equiv_pos_as_xyz
 x,y,z
_cell_length_a 39.6990
_cell_length_b 39.6828
_cell_length_c 39.6528
_cell_angle_alpha 89.673600
_cell_angle_beta 89.702600
_cell_angle_gamma 90.431000
loop_
  _atom_site_label
  _atom_site_type_symbol
  _atom_site_fract_x
  _atom_site_fract_y
  _atom_site_fract_z
C1 C 0.28597 0.47002 0.99917
 C2 C 0.26864 0.50063 1.00049
 C3 C 0.28663 0.53113 1.00177
 C4 C 0.32193 0.53104 1.00169
 C5 C 0.33919 0.50036 1.00040
 C6 C 0.32123 0.46986 0.99915
 C7 C 0.23166 0.50076 1.00049
 C8 C 0.21383 0.50017 1.03110
 C9 C 0.17853 0.50022 1.03112
 C10 C 0.16110 0.50093 1.00045
 C11 C 0.17891 0.50155 0.96984
 C12 C 0.21417 0.50143 0.96987
 H13 H 0.27202 0.44645 0.99819
 H14 H 0.27312 0.55477 1.00276
 H15 H 0.22747 0.49962 1.05473
 H16 H 0.22800 0.50190 0.94622
 H17 H 0.36653 0.50017 1.00036
 H18 H 0.13377 0.50098 1.00034
 C19 C 0.71459 0.46966 -0.00024
 C20 C 0.73252 0.50024 -0.00087
 C21 C 0.71510 0.53084 -0.00156
 C22 C 0.67984 0.53088 -0.00165
 C23 C 0.66198 0.50028 -0.00099
 C24 C 0.67933 0.46967 -0.00027
 C25 C 0.76949 0.50021 -0.00081
 C26 C 0.78735 0.49892 -0.03137
 C27 C 0.82264 0.49888 -0.03134
 C28 C 0.84005 0.50007 -0.00067
 C29 C 0.82222 0.50133 0.02989
 C30 C 0.78696 0.50142 0.02980
 H31 H 0.72808 0.44601 0.00032
 H32 H 0.72898 0.55448 -0.00207
 H33 H 0.77373 0.49799 -0.05500
 H34 H 0.77311 0.50240 0.05341
 H35 H 0.63465 0.50030 -0.00103
 H36 H 0.86738 0.50002 -0.00053
 C37 C 0.03049 0.21494 0.50140
 C38 C -0.00001 0.23240 0.49931
 C39 C -0.03051 0.21450 0.49727
 C40 C -0.03053 0.17922 0.49747
 C41 C -0.00001 0.16182 0.49940
 C42 C 0.03051 0.17966 0.50129
 C43 C -0.00001 0.26939 0.49932
 C44 C -0.00182 0.28724 0.46877
 C45 C -0.00166 0.32255 0.46875
 C46 C 0.00000 0.33998 0.49938
 C47 C 0.00165 0.32216 0.52993
 C48 C 0.00180 0.28689 0.52988
 H49 H 0.05407 0.22880 0.50290
 H50 H -0.05409 0.22802 0.49576
 H51 H -0.00313 0.27360 0.44518
 H52 H 0.00311 0.27305 0.55349
 H53 H -0.00001 0.13449 0.49945
 H54 H 0.00002 0.36733 0.49949
 C55 C 1.03078 0.78645 0.49917
 C56 C 1.00028 0.76844 0.50046
 C57 C 0.96967 0.78577 0.50182
 C58 C 0.96952 0.82104 0.50180
 C59 C 1.00002 0.83902 0.50060
 C60 C 1.03070 0.82176 0.49932
 C61 C 1.00041 0.73145 0.50042
 C62 C 0.99928 0.71357 0.53101
 C63 C 0.99951 0.67826 0.53100
 C64 C 1.00069 0.66087 0.50033
 C65 C 1.00172 0.67873 0.46974
 C66 C 1.00168 0.71400 0.46981
 H67 H 1.05442 0.77294 0.49817
 H68 H 0.94609 0.77181 0.50278
 H69 H 0.99834 0.72718 0.55464
 H70 H 1.00251 0.72787 0.44617
 H71 H 0.99983 0.86637 0.50065
 H72 H 1.00079 0.63353 0.50021
 C73 C 0.49766 0.02972 0.21387
 C74 C 0.49972 -0.00080 0.23170
 C75 C 0.50173 -0.03129 0.21414
 C76 C 0.50151 -0.03128 0.17883
 C77 C 0.49962 -0.00073 0.16107
 C78 C 0.49778 0.02979 0.17857
 C79 C 0.49976 -0.00082 0.26871
 C80 C 0.46929 0.00139 0.28658
 C81 C 0.46930 0.00127 0.32188
 C82 C 0.49983 -0.00073 0.33934
 C83 C 0.53032 -0.00277 0.32153
 C84 C 0.53026 -0.00298 0.28623
 H85 H 0.49620 0.05330 0.22747
 H86 H 0.50323 -0.05489 0.22794
 H87 H 0.44571 0.00299 0.27301
 H88 H 0.55382 -0.00458 0.27239
 H89 H 0.49958 -0.00070 0.13371
 H90 H 0.49986 -0.00068 0.36670
 C91 C 0.50022 0.02980 0.78657
 C92 C 0.49926 -0.00080 0.76909
 C93 C 0.49837 -0.03137 0.78698
 C94 C 0.49850 -0.03137 0.82231
 C95 C 0.49938 -0.00072 0.83973
 C96 C 0.50020 0.02986 0.82187
 C97 C 0.49923 -0.00082 0.73208
 C98 C 0.52979 0.00029 0.71421
 C99 C 0.52978 0.00023 0.67891
 C100 C 0.49919 -0.00079 0.66146
 C101 C 0.46862 -0.00183 0.67927
 C102 C 0.46866 -0.00191 0.71458
 H103 H 0.50088 0.05342 0.77270
 H104 H 0.49767 -0.05499 0.77334
 H105 H 0.55343 0.00110 0.72777
 H106 H 0.44504 -0.00272 0.72843
 H107 H 0.49943 -0.00059 0.86710
 H108 H 0.49917 -0.00077 0.63410
 C109 C 0.30048 0.03064 0.46358
 H110 H 0.29923 0.04937 0.48326
 C111 C 0.32617 0.03229 0.43949
 H112 H 0.34464 0.05250 0.44041
 C113 C 0.27931 -0.01992 0.43972
 H114 H 0.26174 -0.04084 0.44070
 C115 C 0.30471 -0.01924 0.41514
 H116 H 0.30639 -0.03945 0.39698
 N117 N 0.27794 0.00465 0.46350
 C118 C 0.19828 0.03877 0.53080
 H119 H 0.19941 0.01902 0.54967
 C120 C 0.17291 0.06285 0.53241
 H121 H 0.15457 0.06183 0.55272
 C122 C 0.21942 0.06287 0.47995
 H123 H 0.23684 0.06200 0.45895
 C124 C 0.19434 0.08743 0.48058
 H125 H 0.19275 0.10568 0.46024
 Zn126 Zn 0.24904 0.00119 0.50134
 N127 N 0.22065 0.03898 0.50469
 C128 C 0.27938 0.02213 0.56286
 N129 N 0.27765 -0.00239 0.53905
 C130 C 0.29967 -0.02849 0.53880
 C131 C 0.32519 -0.03031 0.56277
 C132 C 0.30463 0.02128 0.58731
 C133 C 0.19782 -0.03621 0.47203
 C134 C 0.17218 -0.06036 0.47034
 C135 C 0.19290 -0.08517 0.52197
 C136 C 0.21826 -0.06053 0.52269
 N137 N 0.21999 -0.03652 0.49807
 H138 H 0.26223 0.04313 0.56200
 H139 H 0.29815 -0.04718 0.51910
 H140 H 0.34324 -0.05063 0.56173
 H141 H 0.30663 0.04145 0.60551
 H142 H 0.19936 -0.01637 0.45325
 H143 H 0.15405 -0.05931 0.45004
 H144 H 0.19095 -0.10358 0.54218
 H145 H 0.23554 -0.05975 0.54364
 C146 C 0.17058 0.08705 0.50679
 C147 C 0.32864 0.00683 0.41540
 C148 C 0.16938 -0.08474 0.49580
 C149 C 0.32803 -0.00492 0.58690
 C150 C 0.69886 0.02761 0.53658
 H151 H 0.70035 0.04632 0.51667
 C152 C 0.67320 0.02925 0.56067
 H153 H 0.65502 0.04945 0.55951
 C154 C 0.71939 -0.02286 0.56110
 H155 H 0.73670 -0.04373 0.56041
 C156 C 0.69401 -0.02219 0.58569
 H157 H 0.69208 -0.04236 0.60414
 N158 N 0.72107 0.00168 0.53701
 C159 C 0.80117 0.03628 0.46948
 H160 H 0.79991 0.01652 0.45083
 C161 C 0.82672 0.06056 0.46761
 H162 H 0.84506 0.05969 0.44732
 C163 C 0.78016 0.06022 0.52002
 H164 H 0.76271 0.05922 0.54101
 C165 C 0.80541 0.08498 0.51913
 H166 H 0.80710 0.10327 0.53924
 Zn167 Zn 0.74998 -0.00162 0.49925
 N168 N 0.77878 0.03632 0.49556
 C169 C 0.71995 0.01938 0.43754
 N170 N 0.72139 -0.00524 0.46153
 C171 C 0.69905 -0.03140 0.46196
 C172 C 0.67350 -0.03319 0.43802
 C173 C 0.69468 0.01857 0.41310
 C174 C 0.80078 -0.03885 0.52896
 C175 C 0.82628 -0.06277 0.53080
 C176 C 0.80545 -0.08747 0.47929
 C177 C 0.78023 -0.06306 0.47843
 N178 N 0.77864 -0.03920 0.50290
 H179 H 0.73735 0.04043 0.43824
 H180 H 0.70034 -0.05017 0.48180
 H181 H 0.65518 -0.05355 0.43922
 H182 H 0.69292 0.03881 0.39477
 H183 H 0.79936 -0.01911 0.54761
 H184 H 0.84443 -0.06164 0.55108
 H185 H 0.80733 -0.10572 0.45917
 H186 H 0.76298 -0.06230 0.45745
 C187 C 0.82918 0.08480 0.49294
 C188 C 0.67043 0.00385 0.58511
 C189 C 0.82897 -0.08695 0.50546
 C190 C 0.67095 -0.00769 0.41372
 C191 C 0.46885 0.19897 1.03713
 H192 H 0.44998 0.20034 1.01759
 C193 C 0.46719 0.17330 1.06127
 H194 H 0.44684 0.15498 1.06052
 C195 C 0.51973 0.21979 1.06059
 H196 H 0.54076 0.23721 1.05943
 C197 C 0.51905 0.19441 1.08520
 H198 H 0.53938 0.19258 1.10322
 N199 N 0.49499 0.22132 1.03699
 C200 C 0.46078 0.30101 0.96969
 H201 H 0.48031 0.29968 0.95063
 C202 C 0.43687 0.32656 0.96823
 H203 H 0.43780 0.34483 0.94782
 C204 C 0.43711 0.28023 1.02087
 H205 H 0.43809 0.26289 1.04194
 C206 C 0.41273 0.30549 1.02039
 H207 H 0.39472 0.30729 1.04091
 Zn208 Zn 0.49834 0.25013 0.99905
 N209 N 0.46070 0.27874 0.99590
 C210 C 0.47682 0.21962 0.93779
 N211 N 0.50150 0.22137 0.96143
 C212 C 0.52751 0.19925 0.96161
 C213 C 0.52909 0.17362 0.93775
 C214 C 0.47741 0.19425 0.91344
 C215 C 0.53631 0.30120 1.02794
 C216 C 0.56058 0.32674 1.02934
 C217 C 0.58473 0.30585 0.97749
 C218 C 0.55998 0.28058 0.97707
 N219 N 0.53623 0.27898 1.00194
 H220 H 0.45589 0.23686 0.93869
 H221 H 0.54634 0.20079 0.98118
 H222 H 0.54935 0.15551 0.93874
 H223 H 0.45713 0.19225 0.89537
 H224 H 0.51667 0.29977 1.04692
 H225 H 0.55982 0.34492 1.04961
 H226 H 0.60291 0.30770 0.95709
 H227 H 0.55889 0.26328 0.95616
 C228 C 0.41299 0.32916 0.99409
 C229 C 0.49280 0.17066 1.08517
 C230 C 0.58468 0.32941 1.00362
 C231 C 0.50354 0.17076 0.91380
 C232 C 0.47198 0.80056 -0.03684
 H233 H 0.45317 0.79886 -0.01704
 C234 C 0.47029 0.82630 -0.06085
 H235 H 0.44997 0.84434 -0.05975
 C236 C 0.52271 0.78047 -0.06112
 H237 H 0.54368 0.76329 -0.06035
 C238 C 0.52200 0.80595 -0.08563
 H239 H 0.54224 0.80809 -0.10396
 N240 N 0.49805 0.77852 -0.03718
 C241 C 0.46347 0.69799 0.02990
 H242 H 0.48306 0.69931 0.04872
 C243 C 0.43931 0.67231 0.03152
 H244 H 0.44010 0.65392 0.05180
 C245 C 0.43983 0.71900 -0.02081
 H246 H 0.44090 0.73650 -0.04177
 C247 C 0.41520 0.69361 -0.02017
 H248 H 0.39708 0.69188 -0.04043
 Zn249 Zn 0.50130 0.74949 0.00053
 N250 N 0.46351 0.72045 0.00386
 C251 C 0.47980 0.77927 0.06219
 N252 N 0.50452 0.77801 0.03833
 C253 C 0.53058 0.80046 0.03809
 C254 C 0.53216 0.82595 0.06212
 C255 C 0.48039 0.80447 0.08671
 C256 C 0.53909 0.69900 -0.02903
 C257 C 0.56317 0.67364 -0.03071
 C258 C 0.58726 0.69444 0.02110
 C259 C 0.56271 0.71952 0.02180
 N260 N 0.53907 0.72106 -0.00290
 H261 H 0.45883 0.76177 0.06134
 H262 H 0.54945 0.79931 0.01835
 H263 H 0.55245 0.84435 0.06107
 H264 H 0.46007 0.80609 0.10495
 H265 H 0.51952 0.70036 -0.04787
 H266 H 0.56234 0.65555 -0.05106
 H267 H 0.60533 0.69260 0.04139
 H268 H 0.56165 0.73669 0.04282
 C269 C 0.41529 0.66978 0.00599
 C270 C 0.49579 0.82935 -0.08513
 C271 C 0.58713 0.67100 -0.00514
 C272 C 0.50656 0.82832 0.08629
 C273 C 1.03760 0.47203 0.19876
 H274 H 1.01794 0.45305 0.20030
 C275 C 1.06170 0.47063 0.17309
 H276 H 1.06079 0.45034 0.15494
 C277 C 1.06144 0.52294 0.21919
 H278 H 1.06047 0.54388 0.23646
 C279 C 1.08602 0.52252 0.19380
 H280 H 1.10420 0.54294 0.19182
 N281 N 1.03768 0.49806 0.22093
 C282 C 0.97034 0.46312 0.30109
 H283 H 0.95154 0.48266 0.29967
 C284 C 0.96862 0.43902 0.32680
 H285 H 0.94828 0.43981 0.34510
 C286 C 1.02111 0.43958 0.28034
 H287 H 1.04212 0.44068 0.26293
 C288 C 1.02037 0.41500 0.30577
 H289 H 1.04062 0.39695 0.30764
 Zn290 Zn 0.99988 0.50104 0.24983
 N291 N 0.99646 0.46319 0.27875
 C292 C 0.93849 0.47926 0.21969
 N293 N 0.96220 0.50417 0.22116
 C294 C 0.96236 0.53032 0.19882
 C295 C 0.93843 0.53179 0.17323
 C296 C 0.91408 0.47975 0.19439
 C297 C 1.02926 0.53865 0.30065
 C298 C 1.03092 0.56260 0.32621
 C299 C 0.97925 0.58677 0.30545
 C300 C 0.97857 0.56235 0.28016
 N301 N 1.00321 0.53873 0.27850
 H302 H 0.93941 0.45824 0.23709
 H303 H 0.98198 0.54933 0.20014
 H304 H 0.93942 0.55215 0.15493
 H305 H 0.89597 0.45929 0.19261
 H306 H 1.04805 0.51910 0.29919
 H307 H 1.05121 0.56168 0.34436
 H308 H 0.95900 0.60481 0.30738
 H309 H 0.95760 0.56136 0.26291
 C310 C 0.99414 0.41509 0.32950
 C311 C 1.08579 0.49637 0.17025
 C312 C 1.00542 0.58652 0.32897
 C313 C 0.91442 0.50600 0.17066
 C314 C -0.03685 0.47023 0.80120
 H315 H -0.01737 0.45136 0.79984
 C316 C -0.06095 0.46865 0.82691
 H317 H -0.06023 0.44834 0.84526
 C318 C -0.06021 0.52106 0.78032
 H319 H -0.05903 0.54205 0.76287
 C320 C -0.08478 0.52045 0.80573
 H321 H -0.10274 0.54078 0.80753
 N322 N -0.03668 0.49632 0.77880
 C323 C 0.03051 0.46225 0.69897
 H324 H 0.04945 0.48193 0.70031
 C325 C 0.03207 0.43833 0.67338
 H326 H 0.05243 0.43940 0.65509
 C327 C -0.02046 0.43819 0.71978
 H328 H -0.04149 0.43903 0.73717
 C329 C -0.01988 0.41379 0.69447
 H330 H -0.04028 0.39562 0.69266
 Zn331 Zn 0.00117 0.49969 0.74991
 N332 N 0.00436 0.46199 0.72128
 C333 C 0.06240 0.47832 0.78027
 N334 N 0.03885 0.50304 0.77858
 C335 C 0.03884 0.52911 0.80070
 C336 C 0.06278 0.53071 0.82629
 C337 C 0.08681 0.47895 0.80558
 C338 C -0.02794 0.53721 0.69879
 C339 C -0.02951 0.56129 0.67309
 C340 C 0.02226 0.58591 0.69373
 C341 C 0.02285 0.56135 0.71916
 N342 N -0.00190 0.53745 0.72095
 H343 H 0.06135 0.45735 0.76305
 H344 H 0.01935 0.54796 0.79922
 H345 H 0.06192 0.55101 0.84442
 H346 H 0.10479 0.45864 0.80753
 H347 H -0.04682 0.51746 0.70037
 H348 H -0.04981 0.56027 0.65496
 H349 H 0.04258 0.60421 0.69171
 H350 H 0.04380 0.56050 0.73643
 C351 C 0.00637 0.41424 0.67077
 C352 C -0.08478 0.49427 0.82952
 C353 C -0.00391 0.58553 0.67021
 C354 C 0.08663 0.50513 0.82908
 C355 C 0.06181 0.16164 0.50288
 C356 C 0.08769 0.14599 0.50402
 C357 C 0.11743 0.12676 0.50516
 C358 C 0.14215 0.10932 0.50599
 C359 C 0.66184 0.56223 -0.00244
 C360 C 0.64618 0.58813 -0.00310
 C361 C 0.62692 0.61788 -0.00386
 C362 C 0.60944 0.64258 -0.00448
 C363 C 0.93812 -0.16108 0.50285
 C364 C 0.91215 -0.14554 0.50361
 C365 C 0.88231 -0.12644 0.50437
 C366 C 0.85751 -0.10911 0.50492
 C367 C 0.33910 0.43846 0.99791
 C368 C 0.35461 0.41248 0.99692
 C369 C 0.37365 0.38261 0.99584
 C370 C 0.39092 0.35776 0.99499
 C371 C 0.93816 0.16075 0.49601
 C372 C 0.91226 0.14473 0.49501
 C373 C 0.88248 0.12511 0.49408
 C374 C 0.85771 0.10738 0.49346
 C375 C 0.33950 0.56064 0.00277
 C376 C 0.35552 0.58655 0.00365
 C377 C 0.37512 0.61636 0.00458
 C378 C 0.39280 0.64117 0.00528
 C379 C 0.06030 -0.16065 0.49839
 C380 C 0.08622 -0.14462 0.49767
 C381 C 0.11601 -0.12500 0.49693
 C382 C 0.14081 -0.10728 0.49638
 C383 C 0.66083 0.43833 1.00052
 C384 C 0.64478 0.41243 1.00120
 C385 C 0.62511 0.38266 1.00204
 C386 C 0.60732 0.35790 1.00276
 C387 C 0.49630 0.06114 1.16022
 C388 C 0.49526 0.08713 1.14438
 C389 C 0.49425 0.11705 1.12501
 C390 C 0.49352 0.14196 1.10750
 C391 C -0.00130 0.66081 0.56070
 C392 C -0.00194 0.64493 0.58671
 C393 C -0.00264 0.62550 0.61664
 C394 C -0.00322 0.60793 0.64154
 C395 C 0.49786 0.93894 -0.16024
 C396 C 0.49736 0.91293 -0.14438
 C397 C 0.49681 0.88299 -0.12500
 C398 C 0.49635 0.85806 -0.10747
 C399 C 0.99714 0.33997 0.43907
 C400 C 0.99625 0.35583 0.41306
 C401 C 0.99538 0.37522 0.38313
 C402 C 0.99475 0.39274 0.35821
 C403 C 0.50295 0.93741 0.16075
 C404 C 0.50398 0.91148 0.14509
 C405 C 0.50500 0.88166 0.12590
 C406 C 0.50576 0.85685 0.10852
 C407 C 0.00297 0.34017 0.56132
 C408 C 0.00391 0.35575 0.58732
 C409 C 0.00487 0.37483 0.61724
 C410 C 0.00559 0.39213 0.64212
 C411 C 0.50097 0.06126 0.83985
 C412 C 0.50157 0.08727 0.85540
 C413 C 0.50225 0.11721 0.87445
 C414 C 0.50283 0.14211 0.89171
 C415 C 1.00270 0.66074 0.43833
 C416 C 1.00341 0.64515 0.41233
 C417 C 1.00417 0.62602 0.38244
 C418 C 1.00476 0.60868 0.35758
 C419 C 1.16111 0.49949 0.06082
 C420 C 1.14523 0.49881 0.08682
 C421 C 1.12578 0.49797 0.11672
 C422 C 1.10820 0.49724 0.14160
 C423 C 0.56113 0.00114 0.66050
 C424 C 0.58708 0.00183 0.64459
 C425 C 0.61695 0.00258 0.62513
 C426 C 0.64181 0.00318 0.60754
 C427 C -0.15992 0.49775 0.93900
 C428 C -0.14405 0.49682 0.91301
 C429 C -0.12464 0.49581 0.88311
 C430 C -0.10711 0.49505 0.85822
 C431 C 0.43801 0.00293 0.34028
 C432 C 0.41207 0.00410 0.35615
 C433 C 0.38220 0.00526 0.37555
 C434 C 0.35732 0.00607 0.39307
 C435 C 0.16089 0.50232 0.93843
 C436 C 0.14527 0.50298 0.91244
 C437 C 0.12612 0.50375 0.88256
 C438 C 0.10878 0.50440 0.85770
 C439 C 0.56165 -0.00430 0.33957
 C440 C 0.58760 -0.00537 0.35517
 C441 C 0.61747 -0.00638 0.37429
 C442 C 0.64233 -0.00706 0.39160
 C443 C 0.84022 0.50246 0.06129
 C444 C 0.85582 0.50335 0.08728
 C445 C 0.87495 0.50434 0.11717
 C446 C 0.89228 0.50513 0.14203
 C447 C 0.43725 -0.00266 0.66123
 C448 C 0.41129 -0.00328 0.64561
 C449 C 0.38143 -0.00392 0.62645
 C450 C 0.35660 -0.00440 0.60909
   
