data_POSCAR
  _audit_creation_date              2014-09-24
  _audit_creation_method            'ToBaCCo'
  _symmetry_space_group_name_H-M    'P1'
  _symmetry_Int_Tables_number       1
  _symmetry_cell_setting            triclinic
  loop_
  _symmetry_equiv_pos_as_xyz
 x,y,z
_cell_length_a 38.8686
_cell_length_b 45.3646
_cell_length_c 6.7046
_cell_angle_alpha 89.761300
_cell_angle_beta 100.230700
_cell_angle_gamma 90.113900
loop_
  _atom_site_label
  _atom_site_type_symbol
  _atom_site_fract_x
  _atom_site_fract_y
  _atom_site_fract_z
C1 C 0.15772 0.24862 0.07154
 C2 C 0.17726 0.22235 0.08308
 C3 C 0.21323 0.22381 0.16150
 C4 C 0.22875 0.24954 0.25195
 C5 C 0.20818 0.27481 0.25103
 C6 C 0.17319 0.27490 0.15409
 C7 C 0.26651 0.24989 0.34335
 C8 C 0.28645 0.27566 0.34457
 C9 C 0.32219 0.27567 0.42625
 C10 C 0.33856 0.24926 0.49906
 C11 C 0.31932 0.22280 0.49484
 C12 C 0.28304 0.22396 0.42394
 H13 H 0.13015 0.24865 0.00778
 H14 H 0.22948 0.20488 0.14709
 H15 H 0.21915 0.29455 0.32788
 H16 H 0.27436 0.29585 0.28086
 H17 H 0.36666 0.24935 0.54669
 H18 H 0.26727 0.20462 0.43597
 C19 C 0.84445 0.24873 0.25284
 C20 C 0.82745 0.27507 0.28428
 C21 C 0.79183 0.27428 0.29904
 C22 C 0.77209 0.24793 0.26866
 C23 C 0.79010 0.22170 0.23739
 C24 C 0.82609 0.22198 0.23122
 C25 C 0.73298 0.24821 0.26332
 C26 C 0.71439 0.22213 0.29230
 C27 C 0.67757 0.22195 0.27694
 C28 C 0.65974 0.24910 0.24552
 C29 C 0.67761 0.27548 0.22585
 C30 C 0.71370 0.27470 0.22683
 H31 H 0.87190 0.24906 0.24084
 H32 H 0.77996 0.29462 0.33493
 H33 H 0.77638 0.20102 0.20793
 H34 H 0.72844 0.20168 0.32193
 H35 H 0.63201 0.25025 0.24847
 H36 H 0.72620 0.29510 0.19622
 C37 C 0.66231 0.75296 0.46043
 C38 C 0.67869 0.72550 0.49831
 C39 C 0.71281 0.72456 0.61036
 C40 C 0.72909 0.75030 0.69887
 C41 C 0.71002 0.77672 0.68083
 C42 C 0.67696 0.77841 0.55842
 C43 C 0.76584 0.74998 0.80946
 C44 C 0.78706 0.77508 0.80810
 C45 C 0.82214 0.77563 0.90966
 C46 C 0.83654 0.74893 0.99649
 C47 C 0.81616 0.72331 0.98770
 C48 C 0.78060 0.72441 0.90525
 H49 H 0.63740 0.75432 0.35913
 H50 H 0.72630 0.70372 0.63151
 H51 H 0.72080 0.79598 0.76410
 H52 H 0.77652 0.79374 0.71690
 H53 H 0.86354 0.74741 1.07017
 H54 H 0.76509 0.70463 0.90833
 C55 C 0.34469 0.74850 0.74771
 C56 C 0.32800 0.77489 0.78201
 C57 C 0.29265 0.77417 0.80308
 C58 C 0.27289 0.74779 0.77893
 C59 C 0.29061 0.72151 0.74381
 C60 C 0.32639 0.72170 0.73067
 C61 C 0.23390 0.74816 0.78088
 C62 C 0.21543 0.72200 0.80999
 C63 C 0.17864 0.72174 0.79708
 C64 C 0.16076 0.74891 0.77007
 C65 C 0.17851 0.77541 0.75185
 C66 C 0.21450 0.77469 0.74855
 H67 H 0.37184 0.74887 0.72945
 H68 H 0.28111 0.79456 0.84092
 H69 H 0.27675 0.70086 0.71596
 H70 H 0.22953 0.70156 0.83769
 H71 H 0.13314 0.74992 0.77631
 H72 H 0.22681 0.79523 0.71956
 O73 O 1.04387 -0.02970 0.04253
 O74 O 0.98347 0.02870 0.14904
 O75 O 0.98332 -0.03050 0.14076
 O76 O 1.04501 0.02656 0.05056
 O77 O 1.02209 0.02846 -0.27512
 O78 O 0.95632 -0.02566 -0.17644
 O79 O 0.96138 0.03230 -0.17668
 O80 O 1.01735 -0.02993 -0.27604
 Cu81 Cu 1.01587 -0.00117 0.12755
 Cu82 Cu 0.98672 0.00135 -0.25735
 C83 C 1.04036 -0.04026 -0.13464
 C84 C 0.96324 0.04133 0.00407
 C85 C 0.95990 -0.03845 -0.00559
 C86 C 1.04459 0.03702 -0.12519
 O87 O 0.45648 0.47537 0.28404
 O88 O 0.52173 0.52921 0.19250
 O89 O 0.51737 0.47080 0.18549
 O90 O 0.46108 0.53283 0.28673
 O91 O 0.48217 0.52885 0.61383
 O92 O 0.54264 0.47049 0.50683
 O93 O 0.54369 0.52774 0.52046
 O94 O 0.48106 0.47044 0.60446
 Cu95 Cu 0.48686 0.50201 0.20651
 Cu96 Cu 0.51473 0.49912 0.59296
 C97 C 0.45802 0.46292 0.45465
 C98 C 0.54288 0.53857 0.34536
 C99 C 0.53980 0.46018 0.32898
 C100 C 0.46219 0.54153 0.46781
 O101 O -0.02146 0.53175 0.27753
 O102 O 0.04316 0.47581 0.19840
 O103 O 0.04097 0.53313 0.18158
 O104 O -0.01726 0.47303 0.29122
 O105 O -0.04174 0.47104 -0.03190
 O106 O 0.01650 0.53106 -0.14138
 O107 O 0.01911 0.47220 -0.12555
 O108 O -0.04441 0.52743 -0.04629
 Cu109 Cu 0.01376 0.50393 0.26964
 Cu110 Cu -0.01473 0.50045 -0.11895
 C111 C -0.04415 0.53920 0.12469
 C112 C 0.04085 0.46359 0.02707
 C113 C 0.03841 0.54248 0.00083
 C114 C -0.03891 0.46141 0.14847
 O115 O 0.48096 1.03110 0.77280
 O116 O 0.54413 0.97574 0.66701
 O117 O 0.54159 1.03251 0.65932
 O118 O 0.48440 0.97218 0.77666
 O119 O 0.45665 0.97188 0.45993
 O120 O 0.51426 1.03193 0.34153
 O121 O 0.51630 0.97316 0.35003
 O122 O 0.45397 1.02837 0.45437
 Cu123 Cu 0.51518 1.00318 0.75117
 Cu124 Cu 0.48291 1.00145 0.36803
 C125 C 0.45681 1.03931 0.62993
 C126 C 0.54006 0.96441 0.49223
 C127 C 0.53757 1.04258 0.47998
 C128 C 0.46128 0.96134 0.63817
 C129 C 1.12796 0.14039 -0.06608
 C130 C 1.15792 0.14176 0.08452
 C131 C 1.17477 0.16880 0.12699
 C132 C 1.16138 0.19488 0.02544
 C133 C 1.13126 0.19285 -0.12697
 C134 C 1.11464 0.16568 -0.17376
 C135 C 1.10916 0.11223 -0.10476
 C136 C 1.07842 0.11102 -0.25110
 C137 C 1.05885 0.08486 -0.27398
 C138 C 1.06948 0.06062 -0.14702
 C139 C 1.10127 0.06169 -0.00897
 C140 C 1.12112 0.08752 0.01400
 C141 C 1.08442 0.16345 -0.32276
 C142 C 1.06668 0.13653 -0.36162
 C143 C 1.16969 0.11634 0.19620
 C144 C 1.15151 0.08964 0.16177
 H145 H 1.07400 0.18284 -0.40710
 H146 H 1.04302 0.13591 -0.47467
 H147 H 1.19264 0.11726 0.31444
 H148 H 1.16082 0.07073 0.25513
 H149 H 1.19689 0.16964 0.25046
 H150 H 1.12096 0.21219 -0.21209
 H151 H 1.03393 0.08426 -0.37654
 H152 H 1.10933 0.04303 0.08996
 C153 C 0.62017 0.64547 0.37789
 C154 C 0.65610 0.64513 0.37247
 C155 C 0.67504 0.67161 0.39976
 C156 C 0.65847 0.69801 0.44082
 C157 C 0.62229 0.69765 0.44503
 C158 C 0.60299 0.67169 0.41060
 C159 C 0.60024 0.61777 0.35362
 C160 C 0.56427 0.61836 0.35865
 C161 C 0.54565 0.59200 0.34307
 C162 C 0.56279 0.56523 0.32758
 C163 C 0.59875 0.56457 0.32317
 C164 C 0.61765 0.59109 0.33290
 C165 C 0.56698 0.67138 0.41408
 C166 C 0.54783 0.64513 0.38653
 C167 C 0.67247 0.61819 0.34527
 C168 C 0.65364 0.59157 0.32782
 H169 H 0.55357 0.69150 0.44117
 H170 H 0.52017 0.64564 0.39317
 H171 H 0.70030 0.61757 0.34418
 H172 H 0.66750 0.57117 0.31481
 H173 H 0.70262 0.67148 0.39180
 H174 H 0.60914 0.71732 0.48322
 H175 H 0.51806 0.59207 0.35211
 H176 H 0.61182 0.54363 0.31526
 C177 C -0.11766 0.35702 0.26386
 C178 C -0.10147 0.33401 0.38616
 C179 C -0.11965 0.30734 0.39645
 C180 C -0.15387 0.30377 0.28622
 C181 C -0.16992 0.32745 0.16873
 C182 C -0.15186 0.35397 0.15552
 C183 C -0.09806 0.38447 0.24227
 C184 C -0.11369 0.40678 0.11084
 C185 C -0.09439 0.43220 0.08337
 C186 C -0.06003 0.43570 0.18974
 C187 C -0.04511 0.41356 0.32617
 C188 C -0.06380 0.38757 0.34956
 C189 C -0.16700 0.37718 0.03102
 C190 C -0.14814 0.40301 0.00734
 C191 C -0.06726 0.33807 0.49336
 C192 C -0.04879 0.36439 0.47549
 H193 H -0.19344 0.37510 -0.05247
 H194 H -0.16056 0.42010 -0.09381
 H195 H -0.05446 0.32056 0.58868
 H196 H -0.02229 0.36640 0.55795
 H197 H -0.10729 0.28943 0.49023
 H198 H -0.19618 0.32490 0.08379
 H199 H -0.10598 0.44920 -0.02149
 H200 H -0.01844 0.41596 0.40578
 C201 C 0.38317 0.85661 0.75626
 C202 C 0.39984 0.83330 0.87377
 C203 C 0.38156 0.80673 0.88631
 C204 C 0.34682 0.80354 0.78283
 C205 C 0.33032 0.82753 0.67082
 C206 C 0.34845 0.85395 0.65519
 C207 C 0.40268 0.88409 0.73410
 C208 C 0.38644 0.90680 0.60854
 C209 C 0.40558 0.93231 0.58073
 C210 C 0.44040 0.93553 0.68141
 C211 C 0.45608 0.91280 0.81000
 C212 C 0.43746 0.88681 0.83453
 C213 C 0.33277 0.87752 0.53644
 C214 C 0.35151 0.90337 0.51178
 C215 C 0.43461 0.83694 0.97333
 C216 C 0.45306 0.86322 0.95414
 H217 H 0.30589 0.87577 0.45928
 H218 H 0.33857 0.92079 0.41580
 H219 H 0.44779 0.81922 1.06516
 H220 H 0.47993 0.86494 1.03143
 H221 H 0.39426 0.78859 0.97625
 H222 H 0.30367 0.82527 0.59073
 H223 H 0.39355 0.94958 0.47957
 H224 H 0.48319 0.91483 0.88313
 C225 C -0.13181 0.64069 0.08350
 C226 C -0.12680 0.66133 0.24174
 C227 C -0.14455 0.68837 0.21400
 C228 C -0.16712 0.69437 0.03008
 C229 C -0.17225 0.67324 -0.12520
 C230 C -0.15454 0.64646 -0.09990
 C231 C -0.11171 0.61309 0.10636
 C232 C -0.11585 0.59324 -0.05593
 C233 C -0.09534 0.56799 -0.03926
 C234 C -0.06978 0.56279 0.13459
 C235 C -0.06677 0.58221 0.30032
 C236 C -0.08769 0.60766 0.28615
 C237 C -0.15839 0.62576 -0.25712
 C238 C -0.13928 0.59954 -0.23556
 C239 C -0.10338 0.65483 0.42148
 C240 C -0.08413 0.62843 0.44348
 H241 H -0.17576 0.63011 -0.39953
 H242 H -0.14224 0.58441 -0.36221
 H243 H -0.09952 0.67044 0.54549
 H244 H -0.06593 0.62446 0.58341
 H245 H -0.14045 0.70491 0.33171
 H246 H -0.18911 0.67815 -0.26904
 H247 H -0.09815 0.55313 -0.16759
 H248 H -0.04725 0.57831 0.43487
 C249 C 0.37184 1.14149 0.61629
 C250 C 0.38589 1.16677 0.71985
 C251 C 0.36800 1.19360 0.68418
 C252 C 0.33606 1.19539 0.54592
 C253 C 0.32216 1.16928 0.44714
 C254 C 0.33997 1.14251 0.48080
 C255 C 0.39173 1.11374 0.64226
 C256 C 0.37865 1.08900 0.52825
 C257 C 0.39915 1.06361 0.53844
 C258 C 0.43259 1.06297 0.65989
 C259 C 0.44456 1.08722 0.78285
 C260 C 0.42434 1.11294 0.77237
 C261 C 0.32720 1.11701 0.37387
 C262 C 0.34630 1.09069 0.39689
 C263 C 0.41807 1.16493 0.85306
 C264 C 0.43694 1.13844 0.87902
 H265 H 0.30262 1.11756 0.26818
 H266 H 0.33605 1.07166 0.30859
 H267 H 0.42910 1.18429 0.93440
 H268 H 0.46197 1.13815 0.97983
 H269 H 0.37895 1.21287 0.76671
 H270 H 0.29876 1.16986 0.33207
 H271 H 0.39000 1.04497 0.44255
 H272 H 0.47065 1.08696 0.87267
 C273 C 1.12215 -0.14340 -0.22998
 C274 C 1.10795 -0.16547 -0.36669
 C275 C 1.12670 -0.19180 -0.37561
 C276 C 1.15967 -0.19592 -0.25125
 C277 C 1.17378 -0.17318 -0.11866
 C278 C 1.15498 -0.14704 -0.10583
 C279 C 1.10190 -0.11625 -0.21287
 C280 C 1.11548 -0.09478 -0.06990
 C281 C 1.09558 -0.06953 -0.04939
 C282 C 1.06251 -0.06548 -0.17209
 C283 C 1.04963 -0.08689 -0.31797
 C284 C 1.06905 -0.11254 -0.33710
 C285 C 1.16793 -0.12483 0.03335
 C286 C 1.14843 -0.09925 0.05203
 C287 C 1.07501 -0.16089 -0.48886
 C288 C 1.05599 -0.13487 -0.47471
 H289 H 1.19328 -0.12736 0.12946
 H290 H 1.15925 -0.08282 0.16258
 H291 H 1.06367 -0.17768 -0.59505
 H292 H 1.03057 -0.13238 -0.57016
 H293 H 1.11574 -0.20903 -0.47964
 H294 H 1.19884 -0.17631 -0.02046
 H295 H 1.10564 -0.05315 0.06347
 H296 H 1.02406 -0.08409 -0.41151
 C297 C 0.62160 0.35680 0.23983
 C298 C 0.60789 0.33504 0.09932
 C299 C 0.62657 0.30864 0.09131
 C300 C 0.65894 0.30418 0.22092
 C301 C 0.67263 0.32663 0.35678
 C302 C 0.65392 0.35282 0.36828
 C303 C 0.60146 0.38407 0.25503
 C304 C 0.61454 0.40522 0.40133
 C305 C 0.59468 0.43056 0.41996
 C306 C 0.56210 0.43497 0.29284
 C307 C 0.54997 0.41407 0.14138
 C308 C 0.56933 0.38831 0.12409
 C309 C 0.66637 0.37470 0.51097
 C310 C 0.64696 0.40037 0.52787
 C311 C 0.57560 0.34005 -0.02844
 C312 C 0.55676 0.36625 -0.01685
 H313 H 0.69118 0.37179 0.61200
 H314 H 0.65739 0.41651 0.64148
 H315 H 0.56479 0.32361 -0.13911
 H316 H 0.53186 0.36908 -0.11706
 H317 H 0.61597 0.29155 -0.01483
 H318 H 0.69714 0.32314 0.46010
 H319 H 0.60437 0.44672 0.53499
 H320 H 0.52483 0.41722 0.04378
 C321 C 0.88076 -0.14486 -0.04349
 C322 C 0.89842 -0.17194 -0.02641
 C323 C 0.87909 -0.19821 -0.04720
 C324 C 0.84203 -0.19783 -0.07931
 C325 C 0.82509 -0.16999 -0.09742
 C326 C 0.84420 -0.14370 -0.08268
 C327 C 0.90093 -0.11720 -0.01997
 C328 C 0.88319 -0.09007 -0.04475
 C329 C 0.90258 -0.06384 -0.03067
 C330 C 0.93921 -0.06483 0.01369
 C331 C 0.95663 -0.09203 0.04389
 C332 C 0.93760 -0.11838 0.02314
 C333 C 0.82733 -0.11617 -0.10448
 C334 C 0.84652 -0.08980 -0.08791
 C335 C 0.93518 -0.17219 0.01144
 C336 C 0.95446 -0.14587 0.03760
 H337 H 0.79905 -0.11501 -0.13684
 H338 H 0.83253 -0.06906 -0.10931
 H339 H 0.94918 -0.19293 0.02113
 H340 H 0.98276 -0.14703 0.06652
 H341 H 0.89333 -0.21872 -0.04335
 H342 H 0.79697 -0.16829 -0.11386
 H343 H 0.88939 -0.04279 -0.05820
 H344 H 0.98499 -0.09261 0.07133
 C345 C 0.37795 0.35712 0.45053
 C346 C 0.35473 0.34956 0.27277
 C347 C 0.33727 0.32250 0.26267
 C348 C 0.34253 0.30328 0.43071
 C349 C 0.36612 0.31108 0.60746
 C350 C 0.38404 0.33798 0.61779
 C351 C 0.39648 0.38550 0.46036
 C352 C 0.42043 0.39286 0.63589
 C353 C 0.43927 0.41932 0.63977
 C354 C 0.43417 0.43810 0.46972
 C355 C 0.40889 0.43092 0.29938
 C356 C 0.39039 0.40449 0.29228
 C357 C 0.40781 0.34619 0.79159
 C358 C 0.42584 0.37315 0.80055
 C359 C 0.34927 0.36924 0.10846
 C360 C 0.36671 0.39635 0.11813
 H361 H 0.41265 0.33156 0.92147
 H362 H 0.44442 0.37847 0.93602
 H363 H 0.33146 0.36359 -0.02912
 H364 H 0.36183 0.41102 -0.01131
 H365 H 0.31940 0.31653 0.12590
 H366 H 0.36994 0.29648 0.73782
 H367 H 0.45870 0.42474 0.77138
 H368 H 0.40475 0.44527 0.16775
 C369 C 0.12116 0.64343 -0.13998
 C370 C 0.10569 0.66606 -0.26790
 C371 C 0.12490 0.69180 -0.28863
 C372 C 0.15989 0.69506 -0.18608
 C373 C 0.17519 0.67134 -0.06330
 C374 C 0.15578 0.64585 -0.03721
 C375 C 0.10046 0.61692 -0.10977
 C376 C 0.11534 0.59494 0.02682
 C377 C 0.09500 0.57043 0.06171
 C378 C 0.06038 0.56752 -0.04263
 C379 C 0.04624 0.58929 -0.18386
 C380 C 0.06598 0.61432 -0.21522
 C381 C 0.17012 0.62292 0.09304
 C382 C 0.15016 0.59807 0.12622
 C383 C 0.07115 0.66259 -0.37155
 C384 C 0.05172 0.63711 -0.34647
 H385 H 0.19688 0.62438 0.17242
 H386 H 0.16207 0.58122 0.23117
 H387 H 0.05892 0.67979 -0.47224
 H388 H 0.02514 0.63542 -0.42833
 H389 H 0.11270 0.70890 -0.39007
 H390 H 0.20142 0.67323 0.02321
 H391 H 0.10604 0.55353 0.16883
 H392 H 0.01953 0.58721 -0.26410
 C393 C 0.62015 1.14373 0.34197
 C394 C 0.60480 1.16621 0.21198
 C395 C 0.62394 1.19197 0.19147
 C396 C 0.65877 1.19539 0.29620
 C397 C 0.67402 1.17177 0.42006
 C398 C 0.65466 1.14626 0.44603
 C399 C 0.59953 1.11714 0.37095
 C400 C 0.61436 1.09519 0.50761
 C401 C 0.59413 1.07054 0.54061
 C402 C 0.55960 1.06749 0.43462
 C403 C 0.54553 1.08926 0.29339
 C404 C 0.56523 1.11436 0.26310
 C405 C 0.66889 1.12347 0.57785
 C406 C 0.64899 1.09854 0.60980
 C407 C 0.57041 1.16262 0.10683
 C408 C 0.55109 1.13706 0.13081
 H409 H 0.69554 1.12510 0.65893
 H410 H 0.66084 1.08176 0.71548
 H411 H 0.55826 1.17975 0.00520
 H412 H 0.52473 1.13519 0.04653
 H413 H 0.61185 1.20892 0.08811
 H414 H 0.70015 1.17376 0.50743
 H415 H 0.60514 1.05380 0.64913
 H416 H 0.51885 1.08720 0.21323
 C417 C 0.11636 0.35583 0.09028
 C418 C 0.09943 0.32989 0.13555
 C419 C 0.11816 0.30342 0.15915
 C420 C 0.15336 0.30282 0.13474
 C421 C 0.16993 0.32912 0.09094
 C422 C 0.15164 0.35572 0.07011
 C423 C 0.09673 0.38362 0.06222
 C424 C 0.11386 0.40974 0.02102
 C425 C 0.09522 0.43630 0.00072
 C426 C 0.05980 0.43631 0.01696
 C427 C 0.04291 0.41013 0.05629
 C428 C 0.06130 0.38363 0.08026
 C429 C 0.16790 0.38216 0.02820
 C430 C 0.14937 0.40880 0.00536
 C431 C 0.06405 0.33090 0.15473
 C432 C 0.04523 0.35737 0.12725
 H433 H 0.19516 0.38224 0.01269
 H434 H 0.16287 0.42877 -0.02581
 H435 H 0.05072 0.31104 0.18926
 H436 H 0.01794 0.35728 0.14317
 H437 H 0.10542 0.28342 0.19744
 H438 H 0.19695 0.32882 0.07020
 H439 H 0.10819 0.45685 -0.02362
 H440 H 0.01580 0.41069 0.07590
 C441 C 0.61878 0.85890 0.49985
 C442 C 0.60111 0.83189 0.49851
 C443 C 0.62037 0.80579 0.52088
 C444 C 0.65702 0.80640 0.53794
 C445 C 0.67432 0.83374 0.53734
 C446 C 0.65536 0.86011 0.52275
 C447 C 0.59864 0.88645 0.48178
 C448 C 0.61639 0.91361 0.49627
 C449 C 0.59703 0.93975 0.48953
 C450 C 0.56042 0.93847 0.46287
 C451 C 0.54298 0.91128 0.44291
 C452 C 0.56202 0.88509 0.45693
 C453 C 0.67221 0.88763 0.53246
 C454 C 0.65306 0.91398 0.52173
 C455 C 0.56450 0.83144 0.47590
 C456 C 0.54521 0.85765 0.45362
 H457 H 0.70042 0.88882 0.54890
 H458 H 0.66701 0.93476 0.53037
 H459 H 0.55060 0.81066 0.47259
 H460 H 0.51695 0.85644 0.43381
 H461 H 0.60675 0.78506 0.52797
 H462 H 0.70246 0.83457 0.54867
 H463 H 0.61026 0.96088 0.51092
 H464 H 0.51479 0.91057 0.43144
 C465 C 0.88219 0.14385 0.12842
 C466 C 0.88122 0.16784 -0.00617
 C467 C 0.86239 0.19318 0.02728
 C468 C 0.84435 0.19450 0.19179
 C469 C 0.84511 0.17010 0.32355
 C470 C 0.86403 0.14465 0.29205
 C471 C 0.90371 0.11779 0.10264
 C472 C 0.90578 0.09415 0.24086
 C473 C 0.92612 0.06931 0.21267
 C474 C 0.94287 0.06764 0.04291
 C475 C 0.94014 0.09146 -0.09450
 C476 C 0.92137 0.11685 -0.06261
 C477 C 0.86600 0.12029 0.42437
 C478 C 0.88669 0.09559 0.40002
 C479 C 0.90003 0.16631 -0.16664
 C480 C 0.91957 0.14117 -0.19497
 H481 H 0.85204 0.12057 0.55086
 H482 H 0.88761 0.07739 0.50589
 H483 H 0.89984 0.18472 -0.27052
 H484 H 0.93322 0.14067 -0.32277
 H485 H 0.86230 0.21219 -0.07084
 H486 H 0.83243 0.17142 0.45606
 H487 H 0.92776 0.05087 0.31669
 H488 H 0.95263 0.09024 -0.22727
 C489 C 0.38162 0.64359 0.61101
 C490 C 0.38047 0.66800 0.48005
 C491 C 0.36202 0.69331 0.51917
 C492 C 0.34437 0.69421 0.68559
 C493 C 0.34520 0.66931 0.81311
 C494 C 0.36385 0.64391 0.77618
 C495 C 0.40247 0.61741 0.57736
 C496 C 0.40464 0.59334 0.71182
 C497 C 0.42470 0.56858 0.67829
 C498 C 0.44116 0.56742 0.50691
 C499 C 0.43838 0.59171 0.37344
 C500 C 0.41978 0.61700 0.41056
 C501 C 0.36582 0.61905 0.90403
 C502 C 0.38623 0.59439 0.87427
 C503 C 0.39861 0.66686 0.31659
 C504 C 0.41802 0.64185 0.28315
 H505 H 0.35196 0.61887 1.03061
 H506 H 0.38728 0.57586 0.97751
 H507 H 0.39800 0.68551 0.21451
 H508 H 0.43151 0.64183 0.15486
 H509 H 0.36179 0.71256 0.42291
 H510 H 0.33261 0.67018 0.94557
 H511 H 0.42676 0.55002 0.78195
 H512 H 0.45125 0.59110 0.24247
   
