data_POSCAR
  _audit_creation_date              2014-09-24
  _audit_creation_method            'ToBaCCo'
  _symmetry_space_group_name_H-M    'P1'
  _symmetry_Int_Tables_number       1
  _symmetry_cell_setting            triclinic
  loop_
  _symmetry_equiv_pos_as_xyz
 x,y,z
_cell_length_a 43.4305
_cell_length_b 43.2184
_cell_length_c 43.0527
_cell_angle_alpha 89.737300
_cell_angle_beta 88.309600
_cell_angle_gamma 91.474500
loop_
  _atom_site_label
  _atom_site_type_symbol
  _atom_site_fract_x
  _atom_site_fract_y
  _atom_site_fract_z
C1 C 0.71778 0.67308 0.95541
 H2 H 0.74019 0.67377 0.94374
 C3 C 0.69339 0.68892 0.94279
 H4 H 0.69705 0.70204 0.92144
 C5 C 0.68494 0.65344 0.99629
 H6 H 0.68137 0.63875 1.01648
 C7 C 0.65997 0.66893 0.98447
 H8 H 0.63744 0.66633 0.99580
 N9 N 0.71310 0.65554 0.98154
 C10 C 0.80287 0.63606 1.01896
 H11 H 0.79957 0.61127 1.02149
 C12 C 0.83018 0.65031 1.02829
 H13 H 0.84794 0.63649 1.03819
 C14 C 0.78362 0.68434 1.00307
 H15 H 0.76531 0.69743 0.99337
 C16 C 0.81073 0.69959 1.01218
 H17 H 0.81328 0.72446 1.00951
 Zn18 Zn 0.74519 0.62994 0.99429
 N19 N 0.78042 0.65305 1.00632
 C20 C 0.78512 0.60697 0.94758
 N21 N 0.75598 0.60461 0.96003
 C22 C 0.73399 0.58640 0.94675
 C23 C 0.74113 0.56943 0.91997
 C24 C 0.79318 0.59046 0.92098
 C25 C 0.72656 0.62260 1.05586
 C26 C 0.71637 0.60757 1.08312
 C27 C 0.71760 0.55886 1.05569
 C28 C 0.72785 0.57490 1.02885
 N29 N 0.73168 0.60626 1.02937
 H30 H 0.80206 0.62221 0.95775
 H31 H 0.71081 0.58547 0.95669
 H32 H 0.72353 0.55513 0.90938
 H33 H 0.81640 0.59270 0.91117
 H34 H 0.73015 0.64746 1.05564
 H35 H 0.71202 0.62102 1.10392
 H36 H 0.71423 0.53393 1.05499
 H37 H 0.73258 0.56232 1.00769
 C38 C 0.83424 0.68231 1.02477
 C39 C 0.66413 0.68646 0.95725
 C40 C 0.71167 0.57543 1.08305
 C41 C 0.77102 0.57165 0.90696
 C42 C 0.72931 0.32793 0.52007
 H43 H 0.75094 0.32590 0.53166
 C44 C 0.70301 0.31186 0.53157
 H45 H 0.70440 0.29728 0.55199
 C46 C 0.70043 0.35099 0.48062
 H47 H 0.69916 0.36703 0.46144
 C48 C 0.67365 0.33535 0.49133
 H49 H 0.65203 0.33923 0.48019
 N50 N 0.72752 0.34726 0.49518
 C51 C 0.82056 0.36595 0.45724
 H52 H 0.81986 0.39095 0.45640
 C53 C 0.84672 0.35097 0.44625
 H54 H 0.86624 0.36442 0.43680
 C55 C 0.79585 0.31787 0.47041
 H56 H 0.77589 0.30512 0.47967
 C57 C 0.82165 0.30191 0.45961
 H58 H 0.82155 0.27686 0.46058
 Zn59 Zn 0.76227 0.37273 0.48385
 N60 N 0.79596 0.34936 0.46933
 C61 C 0.80232 0.39188 0.53089
 N62 N 0.77357 0.39508 0.51974
 C63 C 0.75209 0.41200 0.53528
 C64 C 0.75935 0.42673 0.56313
 C65 C 0.81049 0.40620 0.55850
 C66 C 0.74720 0.38546 0.42324
 C67 C 0.73692 0.40250 0.39820
 C68 C 0.73761 0.44821 0.43035
 C69 C 0.74800 0.43028 0.45488
 N70 N 0.75181 0.39934 0.45107
 H71 H 0.81883 0.37767 0.51885
 H72 H 0.72917 0.41359 0.52631
 H73 H 0.74212 0.43995 0.57553
 H74 H 0.83338 0.40327 0.56727
 H75 H 0.75056 0.36086 0.42088
 H76 H 0.73228 0.39100 0.37646
 H77 H 0.73353 0.47260 0.43377
 H78 H 0.75216 0.44090 0.47707
 C79 C 0.84735 0.31869 0.44756
 C80 C 0.67486 0.31595 0.51728
 C81 C 0.73160 0.43402 0.40192
 C82 C 0.78883 0.42364 0.57484
 C83 C 0.22543 -0.17497 0.02841
 H84 H 0.24701 -0.17746 0.03998
 C85 C 0.19906 -0.19137 0.03926
 H86 H 0.20033 -0.20665 0.05917
 C87 C 0.19681 -0.15069 -0.01051
 H88 H 0.19569 -0.13414 -0.02926
 C89 C 0.16998 -0.16664 -0.00044
 H90 H 0.14846 -0.16248 -0.01166
 N91 N 0.22382 -0.15497 0.00404
 C92 C 0.31715 -0.13752 -0.03324
 H93 H 0.31716 -0.11249 -0.03313
 C94 C 0.34266 -0.15285 -0.04526
 H95 H 0.36241 -0.13958 -0.05449
 C96 C 0.29112 -0.18537 -0.02192
 H97 H 0.27081 -0.19788 -0.01315
 C98 C 0.31627 -0.20168 -0.03385
 H99 H 0.31533 -0.22675 -0.03418
 Zn100 Zn 0.25890 -0.12988 -0.00698
 N101 N 0.29215 -0.15384 -0.02168
 C102 C 0.29901 -0.11086 0.04030
 N103 N 0.27032 -0.10767 0.02900
 C104 C 0.24889 -0.09043 0.04425
 C105 C 0.25613 -0.07534 0.07190
 C106 C 0.30717 -0.09617 0.06774
 C107 C 0.24382 -0.11639 -0.06756
 C108 C 0.23405 -0.09887 -0.09250
 C109 C 0.23635 -0.05333 -0.06010
 C110 C 0.24619 -0.07179 -0.03571
 N111 N 0.24896 -0.10284 -0.03967
 H112 H 0.31547 -0.12529 0.02847
 H113 H 0.22603 -0.08880 0.03514
 H114 H 0.23890 -0.06191 0.08407
 H115 H 0.32999 -0.09912 0.07667
 H116 H 0.24643 -0.14109 -0.07006
 H117 H 0.22907 -0.11022 -0.11427
 H118 H 0.23321 -0.02880 -0.05642
 H119 H 0.25084 -0.06142 -0.01350
 C120 C 0.34226 -0.18519 -0.04559
 C121 C 0.17104 -0.18690 0.02485
 C122 C 0.22979 -0.06712 -0.08863
 C123 C 0.28556 -0.07836 0.08376
 C124 C 0.22213 0.17167 0.46112
 H125 H 0.24463 0.17283 0.44964
 C126 C 0.19716 0.18565 0.44748
 H127 H 0.20046 0.19786 0.42556
 C128 C 0.18971 0.15243 0.50252
 H129 H 0.18658 0.13851 0.52331
 C130 C 0.16419 0.16607 0.48970
 H131 H 0.14164 0.16290 0.50089
 N132 N 0.21793 0.15515 0.48796
 C133 C 0.30811 0.13981 0.52625
 H134 H 0.30538 0.11506 0.52958
 C135 C 0.33499 0.15503 0.53530
 H136 H 0.35300 0.14197 0.54577
 C137 C 0.28782 0.18704 0.50869
 H138 H 0.26924 0.19933 0.49846
 C139 C 0.31451 0.20326 0.51752
 H140 H 0.31651 0.22808 0.51409
 Zn141 Zn 0.25077 0.13119 0.50173
 N142 N 0.28533 0.15580 0.51296
 C143 C 0.29133 0.10752 0.45591
 N144 N 0.26222 0.10497 0.46840
 C145 C 0.24057 0.08592 0.45568
 C146 C 0.24801 0.06831 0.42942
 C147 C 0.29969 0.09037 0.42982
 C148 C 0.23206 0.12523 0.56356
 C149 C 0.22222 0.11066 0.59118
 C150 C 0.22531 0.06130 0.56523
 C151 C 0.23517 0.07685 0.53797
 N152 N 0.23790 0.10831 0.53758
 H153 H 0.30798 0.12339 0.46562
 H154 H 0.21739 0.08484 0.46563
 H155 H 0.23067 0.05337 0.41925
 H156 H 0.32288 0.09279 0.41995
 H157 H 0.23477 0.15018 0.56263
 H158 H 0.21719 0.12440 0.61161
 H159 H 0.22273 0.03631 0.56536
 H160 H 0.24045 0.06382 0.51723
 C161 C 0.33834 0.18698 0.53083
 C162 C 0.16785 0.18238 0.46168
 C163 C 0.21864 0.07844 0.59199
 C164 C 0.27786 0.07074 0.41634
 C165 C 0.16976 0.46761 0.22211
 H166 H 0.16907 0.45576 0.24432
 C167 C 0.18761 0.45618 0.19737
 H168 H 0.20084 0.43556 0.20055
 C169 C 0.15174 0.50769 0.19008
 H170 H 0.13698 0.52710 0.18692
 C171 C 0.16927 0.49707 0.16480
 H172 H 0.16809 0.50851 0.14244
 N173 N 0.15207 0.49276 0.21799
 C174 C 0.12656 0.52963 0.30915
 H175 H 0.10193 0.53063 0.30631
 C176 C 0.13953 0.54045 0.33640
 H177 H 0.12489 0.54995 0.35461
 C178 C 0.17578 0.51644 0.28865
 H179 H 0.18979 0.50732 0.26984
 C180 C 0.18974 0.52710 0.31562
 H181 H 0.21451 0.52618 0.31756
 Zn182 Zn 0.12406 0.50387 0.25039
 N183 N 0.14467 0.51767 0.28608
 C184 C 0.09901 0.45680 0.28990
 N185 N 0.09948 0.46817 0.26036
 C186 C 0.08496 0.45277 0.23721
 C187 C 0.06944 0.42452 0.24337
 C188 C 0.08371 0.42883 0.29704
 C189 C 0.11486 0.56457 0.23272
 C190 C 0.09931 0.58993 0.22152
 C191 C 0.05278 0.55808 0.22026
 C192 C 0.06923 0.53323 0.23159
 N193 N 0.09985 0.53679 0.23697
 H194 H 0.11131 0.46879 0.30782
 H195 H 0.08625 0.46199 0.21379
 H196 H 0.05861 0.41196 0.22473
 H197 H 0.08410 0.41965 0.32049
 H198 H 0.13914 0.56676 0.23744
 H199 H 0.11166 0.61175 0.21746
 H200 H 0.02861 0.55497 0.21523
 H201 H 0.05768 0.51106 0.23554
 C202 C 0.17137 0.53912 0.33972
 C203 C 0.18701 0.47084 0.16835
 C204 C 0.06810 0.58658 0.21491
 C205 C 0.06910 0.41237 0.27356
 C206 C -0.17608 0.02768 0.21707
 H207 H -0.17715 0.03814 0.23985
 C208 C -0.19209 0.04056 0.19266
 H209 H -0.20573 0.06087 0.19675
 C210 C -0.15559 -0.01046 0.18344
 H211 H -0.14058 -0.02968 0.17961
 C212 C -0.17120 0.00165 0.15843
 H213 H -0.16838 -0.00860 0.13562
 N214 N -0.15814 0.00274 0.21203
 C215 C -0.13909 -0.03827 0.30189
 H216 H -0.11438 -0.03958 0.29846
 C217 C -0.15318 -0.04979 0.32915
 H218 H -0.13930 -0.06007 0.34678
 C219 C -0.18732 -0.02341 0.28295
 H220 H -0.20045 -0.01329 0.26473
 C221 C -0.20244 -0.03475 0.31006
 H222 H -0.22723 -0.03330 0.31276
 Zn223 Zn -0.13293 -0.01067 0.24435
 N224 N -0.15613 -0.02513 0.27961
 C225 C -0.10952 0.03424 0.28534
 N226 N -0.10753 0.02348 0.25572
 C227 C -0.08894 0.03788 0.23376
 C228 C -0.07097 0.06392 0.24151
 C229 C -0.09201 0.06007 0.29401
 C230 C -0.12511 -0.07091 0.22449
 C231 C -0.10964 -0.09706 0.21441
 C232 C -0.06143 -0.06820 0.21781
 C233 C -0.07785 -0.04250 0.22788
 N234 N -0.10916 -0.04423 0.23058
 H235 H -0.12503 0.02319 0.30226
 H236 H -0.08825 0.02923 0.21022
 H237 H -0.05625 0.07531 0.22397
 H238 H -0.09385 0.06848 0.31765
 H239 H -0.14995 -0.07172 0.22727
 H240 H -0.12258 -0.11807 0.20919
 H241 H -0.03655 -0.06663 0.21529
 H242 H -0.06557 -0.02131 0.23349
 C243 C -0.18508 -0.04795 0.33338
 C244 C -0.18932 0.02761 0.16298
 C245 C -0.07755 -0.09564 0.21090
 C246 C -0.07259 0.07505 0.27196
 C247 C 0.32714 0.53077 0.71673
 H248 H 0.32588 0.54193 0.73916
 C249 C 0.31084 0.54251 0.69195
 H250 H 0.29677 0.56263 0.69534
 C251 C 0.34843 0.49212 0.68424
 H252 H 0.36388 0.47316 0.68096
 C253 C 0.33253 0.50310 0.65891
 H254 H 0.33553 0.49231 0.63639
 N255 N 0.34565 0.50613 0.71243
 C256 C 0.36586 0.46856 0.80360
 H257 H 0.39064 0.46793 0.80044
 C258 C 0.35184 0.45749 0.83111
 H259 H 0.36582 0.44817 0.84919
 C260 C 0.31736 0.48120 0.78370
 H261 H 0.30409 0.49024 0.76502
 C262 C 0.30233 0.47026 0.81098
 H263 H 0.27746 0.47089 0.81332
 Zn264 Zn 0.37136 0.49444 0.74503
 N265 N 0.34863 0.48036 0.78071
 C266 C 0.39260 0.54166 0.78457
 N267 N 0.39553 0.52984 0.75541
 C268 C 0.41346 0.54446 0.73306
 C269 C 0.42960 0.57195 0.73987
 C270 C 0.40828 0.56894 0.79231
 C271 C 0.38026 0.43392 0.72719
 C272 C 0.39587 0.40793 0.71693
 C273 C 0.44357 0.43800 0.71739
 C274 C 0.42701 0.46353 0.72772
 N275 N 0.39585 0.46112 0.73191
 H276 H 0.37757 0.53040 0.80178
 H277 H 0.41484 0.53499 0.70986
 H278 H 0.44373 0.58356 0.72200
 H279 H 0.40563 0.57819 0.81556
 H280 H 0.35552 0.43262 0.73102
 H281 H 0.38314 0.38655 0.71270
 H282 H 0.46830 0.44012 0.71353
 H283 H 0.43900 0.48521 0.73212
 C284 C 0.31983 0.45840 0.83490
 C285 C 0.31388 0.52874 0.66270
 C286 C 0.42776 0.41003 0.71176
 C287 C 0.42683 0.58430 0.76979
 C288 C 0.67998 0.97250 0.72111
 H289 H 0.67904 0.96120 0.74361
 C290 C 0.69721 0.95985 0.69661
 H291 H 0.70977 0.93887 0.70028
 C292 C 0.66274 1.01213 0.68803
 H293 H 0.64834 1.03174 0.68440
 C294 C 0.67966 1.00024 0.66293
 H295 H 0.67843 1.01093 0.64020
 N296 N 0.66285 0.99790 0.71632
 C297 C 0.63524 1.03484 0.80665
 H298 H 0.61086 1.03632 0.80261
 C299 C 0.64696 1.04492 0.83472
 H300 H 0.63155 1.05441 0.85229
 C301 C 0.68506 1.02083 0.78845
 H302 H 0.69974 1.01157 0.77025
 C303 C 0.69782 1.03074 0.81632
 H304 H 0.72239 1.02916 0.81949
 Zn305 Zn 0.63449 1.00942 0.74809
 N306 N 0.65421 1.02280 0.78436
 C307 C 0.60950 0.96213 0.78696
 N308 N 0.60953 0.97390 0.75760
 C309 C 0.59460 0.95884 0.73448
 C310 C 0.57893 0.93063 0.74057
 C311 C 0.59412 0.93422 0.79401
 C312 C 0.62676 1.07018 0.73022
 C313 C 0.61172 1.09615 0.71970
 C314 C 0.56434 1.06556 0.71883
 C315 C 0.58031 1.04007 0.72946
 N316 N 0.61107 1.04276 0.73442
 H317 H 0.62218 0.97376 0.80484
 H318 H 0.59559 0.96834 0.71116
 H319 H 0.56752 0.91845 0.72203
 H320 H 0.59466 0.92487 0.81738
 H321 H 0.65113 1.07167 0.73467
 H322 H 0.62456 1.11771 0.71580
 H323 H 0.54000 1.06321 0.71426
 H324 H 0.56823 1.01818 0.73342
 C325 C 0.67848 1.04274 0.83969
 C326 C 0.69656 0.97354 0.66713
 C327 C 0.58031 1.09377 0.71373
 C328 C 0.57898 0.91818 0.77062
 C329 C 0.03327 0.22632 -0.15791
 H330 H 0.04456 0.24889 -0.15975
 C331 C 0.04603 0.20103 -0.17325
 H332 H 0.06711 0.20413 -0.18711
 C333 C -0.00700 0.19420 -0.13618
 H334 H -0.02709 0.19137 -0.12096
 C335 C 0.00498 0.16834 -0.15112
 H336 H -0.00612 0.14581 -0.14758
 N337 N 0.00732 0.22246 -0.13966
 C338 C -0.03135 0.31369 -0.12533
 H339 H -0.03320 0.31323 -0.10022
 C340 C -0.04230 0.33882 -0.14172
 H341 H -0.05265 0.35781 -0.12921
 C342 C -0.01632 0.28909 -0.17234
 H343 H -0.00660 0.26943 -0.18413
 C344 C -0.02709 0.31386 -0.18969
 H345 H -0.02556 0.31329 -0.21484
 Zn346 Zn -0.00608 0.25639 -0.11554
 N347 N -0.01852 0.28957 -0.14073
 C348 C 0.03915 0.29865 -0.09442
 N349 N 0.02736 0.26931 -0.09114
 C350 C 0.04080 0.24823 -0.07261
 C351 C 0.06725 0.25644 -0.05645
 C352 C 0.06541 0.30779 -0.07868
 C353 C -0.06686 0.23784 -0.10635
 C354 C -0.09378 0.22799 -0.09051
 C355 C -0.06698 0.23209 -0.04216
 C356 C -0.04044 0.24203 -0.05902
 N357 N -0.04080 0.24416 -0.09058
 H358 H 0.02878 0.31482 -0.10988
 H359 H 0.03133 0.22486 -0.07095
 H360 H 0.07813 0.23947 -0.04210
 H361 H 0.07486 0.33108 -0.08180
 H362 H -0.06650 0.24005 -0.13140
 H363 H -0.11418 0.22242 -0.10354
 H364 H -0.06635 0.22976 -0.01711
 H365 H -0.01960 0.24766 -0.04694
 C366 C -0.04022 0.33891 -0.17416
 C367 C 0.03191 0.17172 -0.16953
 C368 C -0.09384 0.22479 -0.05816
 C369 C 0.07971 0.28648 -0.05973
 C370 C 0.45634 0.21997 0.18185
 H371 H 0.44415 0.24139 0.18420
 C372 C 0.44474 0.19308 0.19677
 H373 H 0.42368 0.19383 0.21084
 C374 C 0.49747 0.19213 0.15900
 H375 H 0.51735 0.19141 0.14342
 C376 C 0.48673 0.16485 0.17352
 H377 H 0.49863 0.14347 0.16929
 N378 N 0.48209 0.21895 0.16311
 C379 C 0.51782 0.31291 0.14499
 H380 H 0.51944 0.31124 0.11993
 C381 C 0.52806 0.33979 0.15957
 H382 H 0.53770 0.35888 0.14572
 C383 C 0.50372 0.28978 0.19362
 H384 H 0.49447 0.27006 0.20668
 C385 C 0.51383 0.31639 0.20922
 H386 H 0.51237 0.31720 0.23436
 Zn387 Zn 0.49381 0.25392 0.13825
 N388 N 0.50577 0.28868 0.16202
 C389 C 0.44700 0.29240 0.11776
 N390 N 0.45951 0.26403 0.11424
 C391 C 0.44654 0.24229 0.09552
 C392 C 0.42017 0.24900 0.07904
 C393 C 0.42079 0.30001 0.10178
 C394 C 0.55513 0.24060 0.12851
 C395 C 0.58186 0.23162 0.11269
 C396 C 0.55395 0.23130 0.06492
 C397 C 0.52764 0.24043 0.08169
 N398 N 0.52858 0.24417 0.11304
 H399 H 0.45691 0.30907 0.13341
 H400 H 0.45649 0.21966 0.09368
 H401 H 0.40992 0.23163 0.06421
 H402 H 0.41101 0.32265 0.10484
 H403 H 0.55524 0.24396 0.15340
 H404 H 0.60261 0.22790 0.12541
 H405 H 0.55289 0.22737 0.04014
 H406 H 0.50644 0.24384 0.06978
 C407 C 0.52609 0.34161 0.19193
 C408 C 0.45989 0.16518 0.19217
 C409 C 0.58117 0.22651 0.08071
 C410 C 0.40722 0.27816 0.08229
 C411 C 0.96266 0.72226 0.68934
 H412 H 0.95104 0.74406 0.69104
 C413 C 0.94998 0.69595 0.70444
 H414 H 0.92863 0.69752 0.71793
 C415 C 1.00328 0.69285 0.66771
 H416 H 1.02334 0.69132 0.65245
 C417 C 0.99146 0.66610 0.68245
 H418 H 1.00265 0.64426 0.67865
 N419 N 0.98861 0.72016 0.67103
 C420 C 1.02651 0.81309 0.65200
 H421 H 1.02845 0.81124 0.62696
 C422 C 1.03679 0.83999 0.66654
 H423 H 1.04678 0.85892 0.65271
 C424 C 1.01138 0.79048 0.70059
 H425 H 1.00164 0.77100 0.71367
 C426 C 1.02147 0.81711 0.71615
 H427 H 1.01951 0.81815 0.74126
 Zn428 Zn 1.00111 0.75443 0.64562
 N429 N 1.01388 0.78914 0.66903
 C430 C 0.95521 0.79375 0.62452
 N431 N 0.96690 0.76495 0.62173
 C432 C 0.95325 0.74306 0.60366
 C433 C 0.92706 0.75005 0.58704
 C434 C 0.92920 0.80166 0.60837
 C435 C 1.06204 0.73891 0.63469
 C436 C 1.08818 0.72970 0.61795
 C437 C 1.05925 0.73169 0.57090
 C438 C 1.03357 0.74094 0.58856
 N439 N 1.03527 0.74370 0.61996
 H440 H 0.96569 0.81058 0.63964
 H441 H 0.96259 0.72012 0.60238
 H442 H 0.91630 0.73259 0.57269
 H443 H 0.92011 0.82466 0.61080
 H444 H 1.06280 0.74161 0.65962
 H445 H 1.10913 0.72509 0.63002
 H446 H 1.05756 0.72867 0.54604
 H447 H 1.01227 0.74542 0.57722
 C448 C 1.03421 0.84209 0.69887
 C449 C 0.96427 0.66752 0.70050
 C450 C 1.08668 0.72572 0.58584
 C451 C 0.91498 0.77967 0.58950
 C452 C 0.53800 0.72562 0.33889
 H453 H 0.55011 0.74780 0.33768
 C454 C 0.54937 0.70049 0.32219
 H455 H 0.57024 0.70333 0.30795
 C456 C 0.49702 0.69421 0.36031
 H457 H 0.47721 0.69153 0.37592
 C458 C 0.50760 0.66854 0.34401
 H459 H 0.49572 0.64632 0.34693
 N460 N 0.51237 0.72203 0.35764
 C461 C 0.47783 0.81412 0.37668
 H462 H 0.47688 0.81283 0.40180
 C463 C 0.46699 0.84013 0.36164
 H464 H 0.45762 0.85891 0.37525
 C465 C 0.49018 0.79063 0.32836
 H466 H 0.49869 0.77102 0.31556
 C467 C 0.47946 0.81627 0.31230
 H468 H 0.47983 0.81633 0.28712
 Zn469 Zn 0.50078 0.75538 0.38347
 N470 N 0.48916 0.79009 0.35999
 C471 C 0.54835 0.79481 0.40484
 N472 N 0.53519 0.76597 0.40764
 C473 C 0.54793 0.74376 0.42535
 C474 C 0.57498 0.75028 0.44124
 C475 C 0.57527 0.80227 0.42032
 C476 C 0.43948 0.73894 0.39257
 C477 C 0.41239 0.72908 0.40810
 C478 C 0.43966 0.72920 0.45624
 C479 C 0.46640 0.73922 0.43974
 N480 N 0.46588 0.74332 0.40837
 H481 H 0.53853 0.81189 0.38998
 H482 H 0.53741 0.72081 0.42660
 H483 H 0.58518 0.73245 0.45506
 H484 H 0.58572 0.82521 0.41768
 H485 H 0.43971 0.74262 0.36769
 H486 H 0.39168 0.72501 0.39513
 H487 H 0.44027 0.72523 0.48107
 H488 H 0.48753 0.74326 0.45190
 C489 C 0.46764 0.84118 0.32916
 C490 C 0.53420 0.67162 0.32507
 C491 C 0.41249 0.72387 0.44014
 C492 C 0.58881 0.77980 0.43851
 Si493 Si 0.36695 -0.00753 0.25266
 Si494 Si 0.12860 1.00883 0.76293
 Si495 Si 0.62450 0.50728 0.25235
 Si496 Si 0.86452 0.49443 0.74668
 Si497 Si 0.25090 0.36868 0.00605
 Si498 Si 0.74099 0.12970 1.00780
 Si499 Si 0.24286 0.62905 0.50497
 Si500 Si 0.75593 0.86332 0.50836
 Si501 Si 0.00859 0.23811 0.35737
 Si502 Si 0.99983 0.74600 0.11572
 Si503 Si 0.50692 0.25199 0.61667
 Si504 Si 0.50567 0.74818 0.85549
 C505 C 0.42518 -0.08823 0.28979
 C506 C 0.44025 -0.06293 0.27490
 C507 C 0.42313 -0.03850 0.26349
 C508 C 0.45485 -0.13454 0.31443
 C509 C 0.37601 -0.06470 0.28193
 C510 C 0.39304 -0.08900 0.29323
 C511 C 0.44219 -0.11319 0.30255
 C512 C 0.39090 -0.03935 0.26697
 H513 H 0.46514 -0.06203 0.27226
 H514 H 0.43500 -0.01910 0.25204
 H515 H 0.35115 -0.06567 0.28487
 H516 H 0.38114 -0.10834 0.30484
 C517 C 0.91974 0.41070 0.78188
 C518 C 0.88834 0.40746 0.77590
 C519 C 0.87232 0.43257 0.76471
 C520 C 0.94705 0.36414 0.80891
 C521 C 0.91915 0.46427 0.76467
 C522 C 0.93522 0.43908 0.77595
 C523 C 0.93527 0.38541 0.79596
 C524 C 0.88747 0.46126 0.75958
 H525 H 0.87609 0.38568 0.78048
 H526 H 0.84790 0.42978 0.76070
 H527 H 0.93139 0.48606 0.76046
 H528 H 0.95952 0.44187 0.78056
 C529 C 0.07482 1.09548 0.79647
 C530 C 0.10662 1.09386 0.80014
 C531 C 0.12234 1.06777 0.79016
 C532 C 0.04623 1.14486 0.81743
 C533 C 0.07450 1.04450 0.77303
 C534 C 0.05873 1.07068 0.78304
 C535 C 0.05885 1.12228 0.80745
 C536 C 0.10653 1.04306 0.77613
 H537 H 0.11925 1.11267 0.81095
 H538 H 0.14680 1.06676 0.79395
 H539 H 0.06155 1.02555 0.76304
 H540 H 0.03403 1.07151 0.78046
 C541 C 0.57378 0.59506 0.28781
 C542 C 0.60569 0.59283 0.29007
 C543 C 0.62047 0.56646 0.27942
 C544 C 0.54722 0.64472 0.31075
 C545 C 0.57149 0.54411 0.26432
 C546 C 0.55665 0.57059 0.27502
 C547 C 0.55883 0.62203 0.29980
 C548 C 0.60360 0.54204 0.26610
 H549 H 0.61913 0.61136 0.30040
 H550 H 0.64504 0.56497 0.28227
 H551 H 0.55777 0.52540 0.25492
 H552 H 0.53186 0.57189 0.27355
 C553 C 0.56353 0.42034 0.22866
 C554 C 0.55880 0.44866 0.21381
 C555 C 0.57603 0.47505 0.22190
 C556 C 0.53787 0.36905 0.20680
 C557 C 0.60216 0.44510 0.26031
 C558 C 0.58491 0.41875 0.25224
 C559 C 0.54889 0.39242 0.21754
 C560 C 0.59821 0.47337 0.24486
 H561 H 0.54260 0.45009 0.19523
 H562 H 0.57297 0.49644 0.20930
 H563 H 0.61928 0.44287 0.27783
 H564 H 0.58903 0.39691 0.26365
 C565 C 0.07001 0.92116 0.73648
 C566 C 0.06552 0.94944 0.72148
 C567 C 0.08198 0.97603 0.73039
 C568 C 0.04556 0.86967 0.71379
 C569 C 0.10687 0.94632 0.76986
 C570 C 0.09038 0.91978 0.76099
 C571 C 0.05608 0.89312 0.72481
 C572 C 0.10316 0.97458 0.75432
 H573 H 0.05009 0.95072 0.70223
 H574 H 0.07917 0.99741 0.71770
 H575 H 0.12324 0.94427 0.78813
 H576 H 0.09430 0.89797 0.77255
 C577 C 0.92073 0.58613 0.72586
 C578 C 0.90465 0.57132 0.70223
 C579 C 0.88850 0.54350 0.70820
 C580 C 0.94944 0.63927 0.71173
 C581 C 0.90462 0.54481 0.76158
 C582 C 0.92081 0.57276 0.75557
 C583 C 0.93663 0.61516 0.71918
 C584 C 0.88842 0.52997 0.73789
 H585 H 0.90429 0.58151 0.67920
 H586 H 0.87567 0.53307 0.68966
 H587 H 0.90437 0.53499 0.78477
 H588 H 0.93308 0.58406 0.77409
 C589 C 0.42155 0.08258 0.22197
 C590 C 0.42131 0.07285 0.25304
 C591 C 0.40618 0.04507 0.26191
 C592 C 0.44671 0.13645 0.20414
 C593 C 0.39233 0.03619 0.20857
 C594 C 0.40747 0.06391 0.19970
 C595 C 0.43549 0.11196 0.21283
 C596 C 0.39093 0.02692 0.23987
 H597 H 0.43233 0.08696 0.27045
 H598 H 0.40585 0.03826 0.28611
 H599 H 0.38144 0.02238 0.19093
 H600 H 0.40776 0.07104 0.17553
 C601 C 0.28299 0.42019 -0.08510
 C602 C 0.27619 0.38838 -0.08512
 C603 C 0.26660 0.37333 -0.05764
 C604 C 0.30540 0.44617 -0.13698
 C605 C 0.27027 0.42186 -0.02983
 C606 C 0.27995 0.43696 -0.05742
 C607 C 0.29462 0.43494 -0.11325
 C608 C 0.26374 0.38992 -0.02983
 H609 H 0.27865 0.37513 -0.10631
 H610 H 0.26158 0.34865 -0.05804
 H611 H 0.26821 0.43504 -0.00859
 H612 H 0.28538 0.46156 -0.05711
 C613 C 0.78253 0.91410 0.41509
 C614 C 0.75349 0.91837 0.42924
 C615 C 0.74572 0.90360 0.45756
 C616 C 0.80074 0.93981 0.36162
 C617 C 0.79596 0.88052 0.45755
 C618 C 0.80369 0.89521 0.42938
 C619 C 0.79120 0.92862 0.38586
 C620 C 0.76700 0.88473 0.47196
 H621 H 0.73688 0.93284 0.41833
 H622 H 0.72305 0.90668 0.46809
 H623 H 0.81255 0.86550 0.46760
 H624 H 0.82616 0.89161 0.41857
 C625 C 0.77433 0.06982 1.09009
 C626 C 0.78859 0.06761 1.06059
 C627 C 0.77789 0.08483 1.03569
 C628 C 0.79753 0.04132 1.13827
 C629 C 0.73840 0.10614 1.06962
 C630 C 0.74908 0.08893 1.09446
 C631 C 0.78664 0.05394 1.11625
 C632 C 0.75279 0.10428 1.04008
 H633 H 0.80834 0.05310 1.05699
 H634 H 0.78959 0.08348 1.01319
 H635 H 0.71944 0.12141 1.07389
 H636 H 0.73806 0.09106 1.11724
 C637 C 0.27618 0.56948 0.58750
 C638 C 0.29011 0.56674 0.55790
 C639 C 0.27932 0.58374 0.53288
 C640 C 0.29977 0.54220 0.63616
 C641 C 0.24035 0.60580 0.56690
 C642 C 0.25109 0.58881 0.59184
 C643 C 0.28874 0.55416 0.61386
 C644 C 0.25448 0.60351 0.53727
 H645 H 0.30974 0.55206 0.55433
 H646 H 0.29082 0.58204 0.51031
 H647 H 0.22160 0.62132 0.57120
 H648 H 0.24033 0.59136 0.61468
 C649 C 0.20684 0.57745 0.41781
 C650 C 0.21810 0.56016 0.44247
 C651 C 0.22884 0.57521 0.46897
 C652 C 0.18493 0.55127 0.36737
 C653 C 0.21677 0.62468 0.44621
 C654 C 0.20612 0.60971 0.41985
 C655 C 0.19534 0.56251 0.39052
 C656 C 0.22845 0.60760 0.47079
 H657 H 0.21853 0.53515 0.44123
 H658 H 0.23740 0.56159 0.48783
 H659 H 0.21613 0.64969 0.44733
 H660 H 0.19728 0.62330 0.40103
 C661 C 0.70868 0.07860 0.91899
 C662 C 0.71994 0.06119 0.94356
 C663 C 0.72915 0.07599 0.97080
 C664 C 0.69003 0.05345 0.86678
 C665 C 0.71532 0.12536 0.94898
 C666 C 0.70618 0.11064 0.92192
 C667 C 0.69907 0.06408 0.89078
 C668 C 0.72722 0.10823 0.97340
 H669 H 0.72170 0.03632 0.94162
 H670 H 0.73797 0.06233 0.98950
 H671 H 0.71358 0.15026 0.95065
 H672 H 0.69729 0.12431 0.90318
 C673 C 0.73023 0.92596 0.59257
 C674 C 0.73752 0.93977 0.56366
 C675 C 0.74554 0.92136 0.53812
 C676 C 0.71010 0.95821 0.64068
 C677 C 0.73924 0.87548 0.57050
 C678 C 0.73132 0.89381 0.59593
 C679 C 0.71998 0.94420 0.61856
 C680 C 0.74598 0.88907 0.54137
 H681 H 0.73668 0.96465 0.56081
 H682 H 0.75115 0.93235 0.51599
 H683 H 0.73975 0.85060 0.57347
 H684 H 0.72563 0.88286 0.61813
 C685 C 0.22469 0.43049 0.09115
 C686 C 0.20917 0.43334 0.06329
 C687 C 0.21810 0.41605 0.03736
 C688 C 0.20200 0.45739 0.14157
 C689 C 0.25900 0.39396 0.06657
 C690 C 0.25003 0.41124 0.09255
 C691 C 0.21310 0.44553 0.11870
 C692 C 0.24245 0.39544 0.03906
 H693 H 0.18961 0.44830 0.06187
 H694 H 0.20542 0.41835 0.01634
 H695 H 0.27845 0.37907 0.06843
 H696 H 0.26235 0.40897 0.11392
 C697 C -0.07627 0.27680 0.41200
 C698 C -0.04733 0.29167 0.41374
 C699 C -0.02165 0.27930 0.39837
 C700 C -0.12584 0.30310 0.43591
 C701 C -0.05367 0.23687 0.37999
 C702 C -0.07929 0.24921 0.39537
 C703 C -0.10319 0.29082 0.42548
 C704 C -0.02470 0.25194 0.38121
 H705 H -0.04476 0.31319 0.42632
 H706 H 0.00040 0.29151 0.39918
 H707 H -0.05690 0.21608 0.36651
 H708 H -0.10161 0.23766 0.39362
 C709 C 0.41804 0.77828 0.91204
 C710 C 0.43337 0.79890 0.89142
 C711 C 0.45973 0.78997 0.87494
 C712 C 0.36827 0.79924 0.94084
 C713 C 0.45589 0.73947 0.89959
 C714 C 0.42932 0.74847 0.91618
 C715 C 0.39072 0.78839 0.92837
 C716 C 0.47139 0.76029 0.87904
 H717 H 0.42475 0.82193 0.88786
 H718 H 0.47053 0.80631 0.85870
 H719 H 0.46423 0.71628 0.90264
 H720 H 0.41755 0.73224 0.93198
 C721 C 1.09123 0.77674 0.06375
 C722 C 1.09039 0.77140 0.09584
 C723 C 1.06290 0.76191 0.11097
 C724 C 1.14298 0.79905 0.03751
 C725 C 1.03681 0.76260 0.06198
 C726 C 1.06443 0.77219 0.04678
 C727 C 1.11932 0.78837 0.04889
 C728 C 1.03593 0.75773 0.09421
 H729 H 1.11091 0.77498 0.10922
 H730 H 1.06259 0.75818 0.13588
 H731 H 1.01621 0.75943 0.04868
 H732 H 1.06480 0.77641 0.02195
 C733 C 0.59571 0.28218 0.55980
 C734 C 0.56886 0.27448 0.54391
 C735 C 0.54187 0.26537 0.56055
 C736 C 0.64683 0.30272 0.53092
 C737 C 0.56868 0.27162 0.60880
 C738 C 0.59552 0.28063 0.59225
 C739 C 0.62335 0.29282 0.54337
 C740 C 0.54165 0.26420 0.59312
 H741 H 0.56876 0.27567 0.51878
 H742 H 0.52134 0.25936 0.54804
 H743 H 0.56897 0.27059 0.63394
 H744 H 0.61609 0.28660 0.60480
 C745 C 0.41869 0.22209 0.56403
 C746 C 0.43163 0.25186 0.55938
 C747 C 0.45886 0.26053 0.57418
 C748 C 0.36612 0.20234 0.54082
 C749 C 0.46029 0.20963 0.59780
 C750 C 0.43330 0.20100 0.58302
 C751 C 0.38998 0.21271 0.55057
 C752 C 0.47327 0.23946 0.59359
 H753 H 0.42045 0.26844 0.54484
 H754 H 0.46827 0.28382 0.57107
 H755 H 0.47031 0.19308 0.61316
 H756 H 0.42342 0.17798 0.58695
 C757 C 0.91464 0.71877 0.05707
 C758 C 0.91612 0.74758 0.07170
 C759 C 0.94244 0.75655 0.08765
 C760 C 0.86235 0.69691 0.03485
 C761 C 0.96645 0.70856 0.07326
 C762 C 0.94014 0.69960 0.05728
 C763 C 0.88620 0.70760 0.04432
 C764 C 0.96742 0.73664 0.08946
 H765 H 0.89658 0.76267 0.07162
 H766 H 0.94276 0.77872 0.09918
 H767 H 0.98543 0.69296 0.07375
 H768 H 0.93928 0.67725 0.04600
 C769 C 0.58989 0.71952 0.91292
 C770 C 0.59197 0.72130 0.88047
 C771 C 0.56654 0.72994 0.86372
 C772 C 0.63794 0.69942 0.94270
 C773 C 0.53669 0.73543 0.91174
 C774 C 0.56224 0.72671 0.92857
 C775 C 0.61592 0.70912 0.92968
 C776 C 0.53866 0.73671 0.87918
 H777 H 0.61319 0.71575 0.86810
 H778 H 0.56855 0.73112 0.83860
 H779 H 0.51558 0.74104 0.92415
 H780 H 0.56038 0.72538 0.95369
 C781 C 0.09239 0.20963 0.41544
 C782 C 0.06692 0.22286 0.43050
 C783 C 0.04135 0.23102 0.41347
 C784 C 0.14122 0.19319 0.44620
 C785 C 0.06652 0.21231 0.36648
 C786 C 0.09201 0.20419 0.38344
 C787 C 0.11885 0.20113 0.43260
 C788 C 0.04123 0.22614 0.38128
 H789 H 0.06687 0.22691 0.45531
 H790 H 0.02194 0.24129 0.42545
 H791 H 0.06671 0.20820 0.34167
 H792 H 0.11146 0.19376 0.37159
 C793 C 0.54158 0.16763 0.67231
 C794 C 0.54277 0.16797 0.63982
 C795 C 0.53217 0.19337 0.62361
 C796 C 0.56526 0.11983 0.70064
 C797 C 0.51895 0.21842 0.67229
 C798 C 0.52967 0.19290 0.68858
 C799 C 0.55386 0.14174 0.68847
 C800 C 0.52005 0.21865 0.63970
 H801 H 0.55217 0.14869 0.62700
 H802 H 0.53343 0.19330 0.59844
 H803 H 0.51012 0.23789 0.68514
 H804 H 0.52894 0.19299 0.71375
 C805 C 1.02929 0.65909 0.17122
 C806 C 1.03505 0.66143 0.13917
 C807 C 1.02554 0.68725 0.12282
 C808 C 1.05272 0.61191 0.20084
 C809 C 1.00417 0.70858 0.17045
 C810 C 1.01377 0.68267 0.18687
 C811 C 1.04126 0.63338 0.18795
 C812 C 1.00986 0.71094 0.13823
 H813 H 1.04754 0.64361 0.12690
 H814 H 1.03136 0.68909 0.09825
 H815 H 0.99292 0.72682 0.18312
 H816 H 1.00962 0.68131 0.21178
 C817 C 0.96460 0.82891 0.17456
 C818 C 0.99178 0.83234 0.15647
 C819 C 1.00328 0.80716 0.13999
 C820 C 0.93841 0.87791 0.19920
 C821 C 0.96094 0.77478 0.16037
 C822 C 0.94943 0.79998 0.17683
 C823 C 0.95083 0.85557 0.18853
 C824 C 0.98772 0.77829 0.14151
 H825 H 1.00351 0.85471 0.15430
 H826 H 1.02365 0.81074 0.12524
 H827 H 0.94826 0.75287 0.16136
 H828 H 0.92818 0.79715 0.19049
 C829 C 0.46987 0.33521 0.67383
 C830 C 0.49589 0.33933 0.65417
 C831 C 0.50775 0.31423 0.63784
 C832 C 0.44368 0.38379 0.69946
 C833 C 0.46796 0.28056 0.66122
 C834 C 0.45608 0.30571 0.67755
 C835 C 0.45603 0.36161 0.68829
 C836 C 0.49376 0.28471 0.64113
 H837 H 0.50653 0.36211 0.65084
 H838 H 0.52726 0.31826 0.62204
 H839 H 0.45660 0.25804 0.66368
 H840 H 0.43573 0.30231 0.69245
 C841 C 0.46924 0.66361 0.79933
 C842 C 0.45602 0.69261 0.79577
 C843 C 0.46788 0.71833 0.81155
 C844 C 0.44247 0.61276 0.77787
 C845 C 0.50651 0.68623 0.83391
 C846 C 0.49475 0.66062 0.81810
 C847 C 0.45492 0.63628 0.78660
 C848 C 0.49298 0.71520 0.83099
 H849 H 0.43600 0.69512 0.78163
 H850 H 0.45688 0.74041 0.80937
 H851 H 0.52546 0.68292 0.84919
 H852 H 0.50488 0.63823 0.82139
 C853 C -0.02674 0.15071 0.30510
 C854 C -0.01966 0.17788 0.28815
 C855 C -0.00798 0.20411 0.30330
 C856 C -0.05510 0.10205 0.28106
 C857 C -0.00995 0.17576 0.35206
 C858 C -0.02145 0.14964 0.33697
 C859 C -0.04153 0.12446 0.29085
 C860 C -0.00366 0.20327 0.33545
 H861 H -0.02380 0.17898 0.26349
 H862 H -0.00311 0.22509 0.29006
 H863 H -0.00671 0.17472 0.37689
 H864 H -0.02698 0.12882 0.35034
 C865 C 0.03846 0.32654 0.30086
 C866 C 0.00827 0.31461 0.29905
 C867 C -0.00027 0.28697 0.31453
 C868 C 0.05612 0.38212 0.28059
 C869 C 0.05166 0.28299 0.33296
 C870 C 0.06019 0.31035 0.31737
 C871 C 0.04705 0.35666 0.28863
 C872 C 0.02128 0.27128 0.33201
 H873 H -0.00884 0.32712 0.28659
 H874 H -0.02393 0.27852 0.31391
 H875 H 0.06869 0.27184 0.34660
 H876 H 0.08352 0.31953 0.31920
 C877 C 0.54273 0.83602 0.80211
 C878 C 0.54426 0.83371 0.83442
 C879 C 0.53348 0.80700 0.84976
 C880 C 0.56480 0.88856 0.77809
 C881 C 0.51976 0.78424 0.80053
 C882 C 0.53064 0.81120 0.78506
 C883 C 0.55414 0.86411 0.78737
 C884 C 0.52088 0.78226 0.83302
 H885 H 0.55371 0.85268 0.84782
 H886 H 0.53461 0.80582 0.87484
 H887 H 0.51035 0.76526 0.78721
 H888 H 0.52957 0.81270 0.75999
 C889 C 0.67777 0.53757 0.16081
 C890 C 0.65861 0.51103 0.16100
 C891 C 0.64360 0.50109 0.18861
 C892 C 0.70108 0.56143 0.10830
 C893 C 0.66763 0.54361 0.21608
 C894 C 0.68265 0.55350 0.18852
 C895 C 0.69081 0.54978 0.13204
 C896 C 0.64730 0.51784 0.21621
 H897 H 0.65477 0.49841 0.13971
 H898 H 0.62884 0.48063 0.18804
 H899 H 0.67161 0.55648 0.23706
 H900 H 0.69754 0.57401 0.18869
 C901 C 0.18353 1.03996 0.67263
 C902 C 0.16576 1.01250 0.67277
 C903 C 0.15033 1.00238 0.70007
 C904 C 0.20719 1.06348 0.62010
 C905 C 0.17125 1.04658 0.72745
 C906 C 0.18668 1.05668 0.70017
 C907 C 0.19686 1.05215 0.64397
 C908 C 0.15222 1.01985 0.72743
 H909 H 0.16328 0.99926 0.65163
 H910 H 0.13667 0.98117 0.69946
 H911 H 0.17380 1.06008 0.74829
 H912 H 0.20049 1.07791 0.70038
 C913 C 0.18866 0.97681 0.84428
 C914 C 0.20220 0.98078 0.81453
 C915 C 0.18472 0.99161 0.79013
 C916 C 0.21762 0.94879 0.88917
 C917 C 0.14039 0.99514 0.82537
 C918 C 0.15785 0.98442 0.84971
 C919 C 0.20519 0.96231 0.86864
 C920 C 0.15359 0.99835 0.79539
 H921 H 0.22595 0.97466 0.81002
 H922 H 0.19523 0.99370 0.76709
 H923 H 0.11633 1.00006 0.82977
 H924 H 0.14706 0.98118 0.87254
 C925 C 0.68684 0.47676 0.33253
 C926 C 0.69960 0.48023 0.30240
 C927 C 0.68135 0.49029 0.27825
 C928 C 0.71751 0.45076 0.37740
 C929 C 0.63780 0.49389 0.31447
 C930 C 0.65601 0.48394 0.33855
 C931 C 0.70428 0.46336 0.35683
 C932 C 0.65025 0.49676 0.28416
 H933 H 0.72335 0.47442 0.29744
 H934 H 0.69131 0.49214 0.25496
 H935 H 0.61379 0.49867 0.31938
 H936 H 0.64583 0.48107 0.36170
 C937 C 0.81900 0.45964 0.65613
 C938 C 0.85099 0.45970 0.65908
 C939 C 0.86417 0.47019 0.68636
 C940 C 0.79717 0.43742 0.60387
 C941 C 0.81343 0.48069 0.70813
 C942 C 0.80017 0.47011 0.68071
 C943 C 0.80607 0.44802 0.62795
 C944 C 0.84554 0.48092 0.71095
 H945 H 0.86577 0.45149 0.64032
 H946 H 0.88898 0.47001 0.68824
 H947 H 0.79864 0.48854 0.72699
 H948 H 0.77536 0.46994 0.67875
 C949 C 0.31454 -0.04371 0.16612
 C950 C 0.33362 -0.06326 0.18235
 C951 C 0.34828 -0.05277 0.20884
 C952 C 0.29368 -0.06451 0.11285
 C953 C 0.32413 -0.00319 0.20375
 C954 C 0.30953 -0.01370 0.17702
 C955 C 0.30220 -0.05424 0.13723
 C956 C 0.34391 -0.02256 0.21968
 H957 H 0.33791 -0.08641 0.17398
 H958 H 0.36373 -0.06816 0.22006
 H959 H 0.32100 0.02044 0.21119
 H960 H 0.29507 0.00178 0.16445
 C961 C 0.31087 0.02647 0.33957
 C962 C 0.29644 0.02470 0.31090
 C963 C 0.31250 0.01351 0.28470
 C964 C 0.28661 0.05388 0.38887
 C965 C 0.35702 0.00546 0.31605
 C966 C 0.34102 0.01641 0.34209
 C967 C 0.29633 0.04083 0.36606
 C968 C 0.34314 0.00438 0.28705
 H969 H 0.27314 0.03259 0.30865
 H970 H 0.30117 0.01270 0.26272
 H971 H 0.38056 -0.00162 0.31856
 H972 H 0.35249 0.01781 0.36407
 C973 C 0.80212 0.52815 0.82884
 C974 C 0.80092 0.54242 0.79962
 C975 C 0.81823 0.53103 0.77444
 C976 C 0.77945 0.55535 0.87904
 C977 C 0.83716 0.49055 0.80739
 C978 C 0.81980 0.50186 0.83248
 C979 C 0.78863 0.54256 0.85587
 C980 C 0.83691 0.50538 0.77833
 H981 H 0.78765 0.56306 0.79663
 H982 H 0.81808 0.54303 0.75230
 H983 H 0.85174 0.47111 0.81129
 H984 H 0.82127 0.49090 0.85506
 C985 C 0.15952 0.68559 0.54154
 C986 C 0.18746 0.70119 0.53398
 C987 C 0.21261 0.68472 0.52228
 C988 C 0.11258 0.71335 0.56892
 C989 C 0.18167 0.63726 0.52528
 C990 C 0.15663 0.65367 0.53684
 C991 C 0.13417 0.70154 0.55584
 C992 C 0.20992 0.65256 0.51842
 H993 H 0.18995 0.72591 0.53759
 H994 H 0.23409 0.69701 0.51678
 H995 H 0.17915 0.61246 0.52226
 H996 H 0.13518 0.64134 0.54268
 C997 C 0.65601 0.18588 1.04077
 C998 C 0.65392 0.15370 1.03773
 C999 C 0.67955 0.13732 1.02764
 C1000 C 0.60770 0.21397 1.06501
 C1001 C 0.70959 0.18525 1.02306
 C1002 C 0.68385 0.20171 1.03327
 C1003 C 0.62991 0.20199 1.05328
 C1004 C 0.70762 0.15291 1.02065
 H1005 H 0.63257 0.14121 1.04358
 H1006 H 0.67757 0.11238 1.02564
 H1007 H 0.73091 0.19776 1.01735
 H1008 H 0.68573 0.22662 1.03563
 C1009 C 0.83003 0.18607 0.97756
 C1010 C 0.81503 0.16695 0.95640
 C1011 C 0.78812 0.15067 0.96534
 C1012 C 0.88151 0.21339 0.95629
 C1013 C 0.79065 0.17271 1.01686
 C1014 C 0.81781 0.18906 1.00786
 C1015 C 0.85822 0.20171 0.96748
 C1016 C 0.77560 0.15350 0.99557
 H1017 H 0.82440 0.16428 0.93298
 H1018 H 0.77767 0.13548 0.94857
 H1019 H 0.78161 0.17474 1.04046
 H1020 H 0.82935 0.20369 1.02450
 C1021 C 0.33283 0.68439 0.47553
 C1022 C 0.31732 0.66618 0.45392
 C1023 C 0.29007 0.65026 0.46256
 C1024 C 0.38502 0.71131 0.45546
 C1025 C 0.29328 0.67089 0.51462
 C1026 C 0.32073 0.68686 0.50593
 C1027 C 0.36139 0.69967 0.46593
 C1028 C 0.27775 0.65254 0.49292
 H1029 H 0.32656 0.66393 0.43040
 H1030 H 0.27916 0.63576 0.44549
 H1031 H 0.28440 0.67249 0.53831
 H1032 H 0.33263 0.70077 0.52291
 C1033 C 0.66882 0.80739 0.47846
 C1034 C 0.66694 0.82743 0.50383
 C1035 C 0.69336 0.84290 0.51402
 C1036 C 0.61720 0.78733 0.45349
 C1037 C 0.72403 0.81741 0.47430
 C1038 C 0.69751 0.80198 0.46403
 C1039 C 0.64092 0.79544 0.46524
 C1040 C 0.72200 0.83837 0.49901
 H1041 H 0.64483 0.83212 0.51491
 H1042 H 0.69094 0.85935 0.53271
 H1043 H 0.74587 0.81396 0.46218
 H1044 H 0.69920 0.78682 0.44412
 C1045 C 0.15939 0.31950 -0.02336
 C1046 C 0.16506 0.35095 -0.02937
 C1047 C 0.19241 0.36522 -0.02022
 C1048 C 0.10784 0.29563 -0.04512
 C1049 C 0.20887 0.31664 0.00117
 C1050 C 0.18134 0.30226 -0.00810
 C1051 C 0.13148 0.30534 -0.03436
 C1052 C 0.21441 0.34834 -0.00458
 H1053 H 0.14850 0.36440 -0.04164
 H1054 H 0.19662 0.38932 -0.02618
 H1055 H 0.22572 0.30287 0.01244
 H1056 H 0.17734 0.27776 -0.00371
 C1057 C 0.33088 0.30787 0.03943
 C1058 C 0.33499 0.32622 0.01270
 C1059 C 0.31053 0.34305 0.00164
 C1060 C 0.37993 0.28618 0.06620
 C1061 C 0.27728 0.32223 0.04323
 C1062 C 0.30182 0.30545 0.05436
 C1063 C 0.35731 0.29495 0.05358
 C1064 C 0.28165 0.34170 0.01719
 H1065 H 0.35746 0.32859 0.00119
 H1066 H 0.31479 0.35812 -0.01821
 H1067 H 0.25537 0.32129 0.05592
 H1068 H 0.29847 0.29169 0.07534
 C1069 C 0.84002 0.81187 0.54634
 C1070 C 0.84056 0.84408 0.54306
 C1071 C 0.81534 0.85893 0.53117
 C1072 C 0.88801 0.78812 0.57315
 C1073 C 0.78875 0.80940 0.52525
 C1074 C 0.81411 0.79445 0.53733
 C1075 C 0.86576 0.79760 0.56040
 C1076 C 0.78933 0.84175 0.52217
 H1077 H 0.86034 0.85781 0.55016
 H1078 H 0.81605 0.88394 0.52922
 H1079 H 0.76869 0.79580 0.51881
 H1080 H 0.81336 0.76951 0.54003
   
