data_POSCAR
  _audit_creation_date              2014-09-24
  _audit_creation_method            'ToBaCCo'
  _symmetry_space_group_name_H-M    'P1'
  _symmetry_Int_Tables_number       1
  _symmetry_cell_setting            triclinic
  loop_
  _symmetry_equiv_pos_as_xyz
 x,y,z
_cell_length_a 32.4268
_cell_length_b 34.6301
_cell_length_c 33.2031
_cell_angle_alpha 86.277900
_cell_angle_beta 95.181100
_cell_angle_gamma 93.974300
loop_
  _atom_site_label
  _atom_site_type_symbol
  _atom_site_fract_x
  _atom_site_fract_y
  _atom_site_fract_z
C1 C 0.21626 0.28339 0.28542
 C2 C 0.24308 0.30832 0.25673
 C3 C 0.26551 0.28713 0.23441
 C4 C 0.25923 0.24302 0.24266
 C5 C 0.18946 0.25560 0.25825
 C6 C 0.21204 0.23453 0.23594
 C7 C 0.24649 0.25777 0.31116
 C8 C 0.26891 0.23669 0.28870
 H9 H 0.24409 0.33981 0.25414
 H10 H 0.27757 0.22583 0.22443
 H11 H 0.15579 0.25266 0.25699
 H12 H 0.24959 0.25615 0.34408
 C13 C 0.71687 0.78457 0.28384
 C14 C 0.74352 0.80940 0.25492
 C15 C 0.76567 0.78813 0.23242
 C16 C 0.75931 0.74403 0.24074
 C17 C 0.68977 0.75682 0.25686
 C18 C 0.71208 0.73566 0.23437
 C19 C 0.74718 0.75888 0.30937
 C20 C 0.76932 0.73770 0.28674
 H21 H 0.74460 0.84089 0.25230
 H22 H 0.77744 0.72677 0.22236
 H23 H 0.65612 0.75393 0.25590
 H24 H 0.75041 0.75716 0.34229
 C25 C 0.71746 0.28714 0.78332
 C26 C 0.74272 0.31096 0.75617
 C27 C 0.76637 0.28889 0.73278
 C28 C 0.76062 0.24709 0.74062
 C29 C 0.69066 0.25905 0.75634
 C30 C 0.71341 0.23806 0.73400
 C31 C 0.74767 0.26147 0.80923
 C32 C 0.77024 0.24047 0.78674
 H33 H 0.74348 0.34246 0.75352
 H34 H 0.77907 0.22994 0.72241
 H35 H 0.65702 0.25572 0.75536
 H36 H 0.75044 0.25957 0.84215
 C37 C 0.21589 0.78519 0.78324
 C38 C 0.24341 0.80988 0.75502
 C39 C 0.26581 0.78847 0.73291
 C40 C 0.25882 0.74438 0.74088
 C41 C 0.18902 0.75782 0.75566
 C42 C 0.21158 0.73650 0.73356
 C43 C 0.24541 0.75906 0.80921
 C44 C 0.26780 0.73774 0.78697
 H45 H 0.24480 0.84138 0.75250
 H46 H 0.27716 0.72703 0.72282
 H47 H 0.15534 0.75509 0.75420
 H48 H 0.24760 0.75684 0.84213
 C49 C 0.06489 0.05325 0.01496
 H50 H 0.06613 0.05685 -0.01753
 C51 C 0.08908 0.07830 0.04020
 H52 H 0.10880 0.10125 0.02683
 C53 C 0.03586 0.02023 0.07153
 H54 H 0.01444 -0.00180 0.08367
 C55 C 0.05947 0.04460 0.09785
 H56 H 0.05658 0.04035 0.13009
 N57 N 0.03900 0.02485 0.03090
 C58 C 0.01479 -0.05996 -0.06164
 H59 H -0.01878 -0.06172 -0.06468
 C60 C 0.03639 -0.08296 -0.08443
 H61 H 0.01917 -0.10260 -0.10483
 C62 C 0.07785 -0.03298 -0.03030
 H63 H 0.09391 -0.01380 -0.00886
 C64 C 0.10070 -0.05550 -0.05243
 H65 H 0.13425 -0.05277 -0.04831
 Zn66 Zn 0.00413 -0.00545 -0.00548
 N67 N 0.03569 -0.03527 -0.03559
 C68 C -0.02717 0.03042 -0.08111
 N69 N -0.02686 0.02962 -0.04006
 C70 C -0.04795 0.05512 -0.02171
 C71 C -0.07131 0.08227 -0.04476
 C72 C -0.05027 0.05710 -0.10540
 C73 C -0.01515 -0.06782 0.04947
 C74 C -0.04036 -0.09241 0.07330
 C75 C -0.10010 -0.06092 0.04144
 C76 C -0.07377 -0.03690 0.01832
 N77 N -0.03203 -0.04005 0.02345
 H78 H -0.00941 0.01057 -0.09514
 H79 H -0.04678 0.05412 0.01101
 H80 H -0.08855 0.10175 -0.02950
 H81 H -0.05006 0.05748 -0.13801
 H82 H 0.01811 -0.07007 0.05253
 H83 H -0.02614 -0.11326 0.09502
 H84 H -0.13321 -0.05769 0.03717
 H85 H -0.08679 -0.01551 -0.00339
 C86 C 0.07997 -0.08082 -0.08006
 C87 C 0.08627 0.07435 0.08225
 C88 C -0.08341 -0.08865 0.06996
 C89 C -0.07279 0.08345 -0.08722
 C90 C 0.06453 0.55222 0.51525
 H91 H 0.06567 0.55541 0.48273
 C92 C 0.08869 0.57766 0.54007
 H93 H 0.10829 0.60049 0.52637
 C94 C 0.03575 0.51983 0.57228
 H95 H 0.01443 0.49789 0.58474
 C96 C 0.05933 0.54461 0.59820
 H97 H 0.05652 0.54076 0.63048
 N98 N 0.03878 0.52395 0.53161
 C99 C 0.01458 0.43808 0.44013
 H100 H -0.01899 0.43625 0.43711
 C101 C 0.03622 0.41489 0.41757
 H102 H 0.01902 0.39505 0.39737
 C103 C 0.07762 0.46541 0.47117
 H104 H 0.09365 0.48482 0.49240
 C105 C 0.10049 0.44272 0.44926
 H106 H 0.13405 0.44553 0.45334
 Zn107 Zn 0.00388 0.49319 0.49567
 N108 N 0.03545 0.46304 0.46591
 C109 C -0.02766 0.52829 0.41970
 N110 N -0.02720 0.52792 0.46074
 C111 C -0.04819 0.55366 0.47887
 C112 C -0.07158 0.58064 0.45560
 C113 C -0.05081 0.55479 0.39520
 C114 C -0.01533 0.43141 0.55140
 C115 C -0.04053 0.40704 0.57545
 C116 C -0.10029 0.43821 0.54315
 C117 C -0.07397 0.46200 0.51981
 N118 N -0.03222 0.45890 0.52503
 H119 H -0.01000 0.50824 0.40585
 H120 H -0.04690 0.55300 0.51158
 H121 H -0.08872 0.60033 0.47069
 H122 H -0.05074 0.55483 0.36259
 H123 H 0.01794 0.42920 0.55453
 H124 H -0.02631 0.38641 0.59740
 H125 H -0.13341 0.44138 0.53877
 H126 H -0.08699 0.48316 0.49785
 C127 C 0.07980 0.41712 0.42189
 C128 C 0.08598 0.57423 0.58215
 C129 C -0.08360 0.41075 0.57197
 C130 C -0.07320 0.58140 0.41315
 C131 C 0.56726 0.05304 0.51613
 H132 H 0.56833 0.05635 0.48361
 C133 C 0.59141 0.07844 0.54101
 H134 H 0.61092 0.10136 0.52733
 C135 C 0.53864 0.02041 0.57313
 H136 H 0.51738 -0.00159 0.58556
 C137 C 0.56222 0.04515 0.59909
 H138 H 0.55947 0.04120 0.63138
 N139 N 0.54158 0.02469 0.53245
 C140 C 0.51718 -0.06079 0.44059
 H141 H 0.48361 -0.06254 0.43758
 C142 C 0.53874 -0.08381 0.41778
 H143 H 0.52149 -0.10287 0.39680
 C144 C 0.58030 -0.03344 0.47145
 H145 H 0.59638 -0.01426 0.49288
 C146 C 0.60310 -0.05591 0.44923
 H147 H 0.63664 -0.05375 0.45388
 Zn148 Zn 0.50663 -0.00595 0.49643
 N149 N 0.53812 -0.03590 0.46641
 C150 C 0.47476 0.02935 0.42069
 N151 N 0.47543 0.02888 0.46175
 C152 C 0.45442 0.05446 0.48008
 C153 C 0.43071 0.08132 0.45699
 C154 C 0.45130 0.05574 0.39637
 C155 C 0.48743 -0.06792 0.55203
 C156 C 0.46216 -0.09239 0.57592
 C157 C 0.40244 -0.06128 0.54344
 C158 C 0.42883 -0.03738 0.52028
 N159 N 0.47059 -0.04040 0.52567
 H160 H 0.49245 0.00943 0.40668
 H161 H 0.45587 0.05370 0.51280
 H162 H 0.41351 0.10084 0.47224
 H163 H 0.45116 0.05583 0.36374
 H164 H 0.52071 -0.07008 0.55528
 H165 H 0.47632 -0.11305 0.59788
 H166 H 0.36932 -0.05817 0.53892
 H167 H 0.41583 -0.01623 0.49829
 C168 C 0.58232 -0.08141 0.42182
 C169 C 0.58878 0.07488 0.58309
 C170 C 0.41908 -0.08875 0.57228
 C171 C 0.42880 0.08212 0.41453
 C172 C 0.56360 0.55283 0.01539
 H173 H 0.56463 0.55617 -0.01714
 C174 C 0.58776 0.57822 0.04026
 H175 H 0.60723 0.60118 0.02659
 C176 C 0.53521 0.52004 0.07241
 H177 H 0.51404 0.49797 0.08487
 C178 C 0.55879 0.54478 0.09837
 H179 H 0.55614 0.54074 0.13067
 N180 N 0.53809 0.52435 0.03173
 C181 C 0.51463 0.43904 -0.06041
 H182 H 0.48106 0.43690 -0.06335
 C183 C 0.53648 0.41631 -0.08329
 H184 H 0.51944 0.39652 -0.10364
 C185 C 0.57748 0.46666 -0.02927
 H186 H 0.59336 0.48598 -0.00787
 C187 C 0.60055 0.44444 -0.05149
 H188 H 0.63410 0.44754 -0.04748
 Zn189 Zn 0.50345 0.49338 -0.00424
 N190 N 0.53531 0.46392 -0.03442
 C191 C 0.47086 0.52857 -0.07982
 N192 N 0.47155 0.52780 -0.03874
 C193 C 0.44973 0.55259 -0.02021
 C194 C 0.42480 0.57859 -0.04310
 C195 C 0.44633 0.55425 -0.10395
 C196 C 0.48517 0.43137 0.05174
 C197 C 0.46022 0.40679 0.07586
 C198 C 0.40000 0.43674 0.04289
 C199 C 0.42607 0.46076 0.01953
 N200 N 0.46791 0.45844 0.02509
 H201 H 0.48910 0.50923 -0.09399
 H202 H 0.45147 0.55183 0.01252
 H203 H 0.40768 0.59806 -0.02769
 H204 H 0.44540 0.55393 -0.13661
 H205 H 0.51851 0.42971 0.05510
 H206 H 0.47469 0.38656 0.09809
 H207 H 0.36680 0.43935 0.03826
 H208 H 0.41273 0.48149 -0.00273
 C209 C 0.58006 0.41894 -0.07906
 C210 C 0.58529 0.57455 0.08237
 C211 C 0.41704 0.40984 0.07212
 C212 C 0.42254 0.57942 -0.08557
 C213 C 0.14884 -0.14999 -0.14984
 C214 C 0.11337 -0.13279 -0.16778
 C215 C 0.09088 -0.11039 -0.14509
 C216 C 0.19181 -0.19179 -0.19292
 C217 C 0.13932 -0.12238 -0.08633
 C218 C 0.16173 -0.14479 -0.10908
 C219 C 0.17216 -0.17279 -0.17329
 C220 C 0.10365 -0.10487 -0.10410
 H221 H 0.10320 -0.13654 -0.19936
 H222 H 0.06389 -0.09690 -0.15977
 H223 H 0.14961 -0.11912 -0.05473
 H224 H 0.18909 -0.15807 -0.09487
 C225 C 0.14891 0.34779 0.35249
 C226 C 0.11330 0.36473 0.33451
 C227 C 0.09071 0.38715 0.35709
 C228 C 0.19212 0.30618 0.30944
 C229 C 0.13931 0.37569 0.41584
 C230 C 0.16183 0.35326 0.39320
 C231 C 0.17237 0.32507 0.32910
 C232 C 0.10352 0.39296 0.39801
 H233 H 0.10311 0.36078 0.30298
 H234 H 0.06363 0.40045 0.34236
 H235 H 0.14965 0.37918 0.44739
 H236 H 0.18930 0.34020 0.40744
 C237 C 0.65080 -0.15047 0.35152
 C238 C 0.61476 -0.16646 0.36800
 C239 C 0.59246 -0.14406 0.39088
 C240 C 0.69309 -0.19251 0.30805
 C241 C 0.64229 -0.08955 0.38091
 C242 C 0.66450 -0.11199 0.35803
 C243 C 0.67372 -0.17345 0.32790
 C244 C 0.60598 -0.10532 0.39761
 H245 H 0.60394 -0.19626 0.36323
 H246 H 0.56495 -0.15719 0.40375
 H247 H 0.65319 -0.05969 0.38508
 H248 H 0.69230 -0.09929 0.34530
 C249 C 0.64972 0.35083 -0.14922
 C250 C 0.66265 0.35610 -0.10848
 C251 C 0.63998 0.37815 -0.08561
 C252 C 0.69317 0.30976 -0.19260
 C253 C 0.59118 0.38964 -0.14419
 C254 C 0.61393 0.36760 -0.16701
 C255 C 0.67330 0.32843 -0.17282
 C256 C 0.60399 0.39523 -0.10322
 H257 H 0.69026 0.34315 -0.09439
 H258 H 0.65033 0.38147 -0.05403
 H259 H 0.56394 0.40281 -0.15876
 H260 H 0.60372 0.36380 -0.19856
 C261 C -0.14896 0.16474 -0.15699
 C262 C -0.12443 0.17619 -0.12243
 C263 C -0.09910 0.14998 -0.10017
 C264 C -0.20071 0.21355 -0.19483
 C265 C -0.12214 0.10082 -0.14743
 C266 C -0.14754 0.12711 -0.16964
 C267 C -0.17686 0.19119 -0.17823
 C268 C -0.09799 0.11185 -0.11216
 H269 H -0.12529 0.20525 -0.11238
 H270 H -0.08042 0.15951 -0.07352
 H271 H -0.12228 0.07157 -0.15717
 H272 H -0.16657 0.11789 -0.19624
 C273 C -0.14952 0.66225 0.34290
 C274 C -0.12476 0.67399 0.37721
 C275 C -0.09936 0.64792 0.39959
 C276 C -0.20151 0.71084 0.30505
 C277 C -0.12278 0.59832 0.35297
 C278 C -0.14825 0.62447 0.33063
 C279 C -0.17755 0.68856 0.32162
 C280 C -0.09842 0.60965 0.38800
 H281 H -0.12550 0.70317 0.38698
 H282 H -0.08051 0.65768 0.42606
 H283 H -0.12305 0.56895 0.34353
 H284 H -0.16747 0.61503 0.30423
 C285 C 0.35103 0.16215 0.34487
 C286 C 0.37589 0.17412 0.37902
 C287 C 0.40177 0.14833 0.40121
 C288 C 0.29836 0.21017 0.30715
 C289 C 0.37860 0.09856 0.35470
 C290 C 0.35266 0.12442 0.33255
 C291 C 0.32261 0.18816 0.32371
 C292 C 0.40308 0.11011 0.38957
 H293 H 0.37489 0.20326 0.38880
 H294 H 0.42069 0.15825 0.42756
 H295 H 0.37861 0.06922 0.34524
 H296 H 0.33338 0.11481 0.30627
 C297 C 0.34390 0.65862 -0.15543
 C298 C 0.38298 0.65261 -0.16781
 C299 C 0.40850 0.62650 -0.14543
 C300 C 0.29547 0.70975 -0.19427
 C301 C 0.35567 0.61219 -0.09846
 C302 C 0.33026 0.63820 -0.12086
 C303 C 0.31795 0.68638 -0.17728
 C304 C 0.39522 0.60624 -0.11029
 H305 H 0.39389 0.66838 -0.19446
 H306 H 0.43892 0.62280 -0.15507
 H307 H 0.34430 0.59658 -0.07194
 H308 H 0.30003 0.64257 -0.11106
 C309 C -0.16089 -0.15583 0.15064
 C310 C -0.16788 -0.11692 0.14015
 C311 C -0.14296 -0.09529 0.11362
 C312 C -0.20782 -0.19385 0.20311
 C313 C -0.10392 -0.15155 0.10764
 C314 C -0.12896 -0.17318 0.13425
 C315 C -0.18613 -0.17730 0.17895
 C316 C -0.11059 -0.11229 0.09712
 H317 H -0.19236 -0.10314 0.15283
 H318 H -0.14847 -0.06500 0.10673
 H319 H -0.07951 -0.16556 0.09515
 H320 H -0.12329 -0.20331 0.14218
 C321 C -0.16130 0.34404 0.65281
 C322 C -0.16831 0.38289 0.64202
 C323 C -0.14329 0.40438 0.61547
 C324 C -0.20848 0.30615 0.70516
 C325 C -0.10410 0.34809 0.61010
 C326 C -0.12924 0.32660 0.63672
 C327 C -0.18669 0.32267 0.68107
 C328 C -0.11080 0.38729 0.59925
 H329 H -0.19289 0.39673 0.65447
 H330 H -0.14883 0.43463 0.60832
 H331 H -0.07961 0.33401 0.59782
 H332 H -0.12356 0.29652 0.64488
 C333 C 0.34085 -0.15572 0.65242
 C334 C 0.33394 -0.11682 0.64174
 C335 C 0.35917 -0.09525 0.61546
 C336 C 0.29297 -0.19364 0.70410
 C337 C 0.39842 -0.15151 0.61015
 C338 C 0.37306 -0.17309 0.63651
 C339 C 0.31513 -0.17716 0.68032
 C340 C 0.39177 -0.11229 0.59938
 H341 H 0.30924 -0.10303 0.65405
 H342 H 0.35366 -0.06498 0.60838
 H343 H 0.42301 -0.16554 0.59798
 H344 H 0.37867 -0.20320 0.64459
 C345 C 0.33964 0.34306 0.15317
 C346 C 0.33217 0.38173 0.14187
 C347 C 0.35713 0.40323 0.11530
 C348 C 0.29230 0.30519 0.20536
 C349 C 0.39725 0.34736 0.11093
 C350 C 0.37216 0.32585 0.13759
 C351 C 0.31420 0.32169 0.18137
 C352 C 0.39003 0.38635 0.09954
 H353 H 0.30723 0.39540 0.15393
 H354 H 0.35119 0.43333 0.10774
 H355 H 0.42208 0.33345 0.09904
 H356 H 0.37820 0.29592 0.14615
 C357 C 0.15376 0.15520 0.16077
 C358 C 0.11296 0.14221 0.16731
 C359 C 0.09117 0.11579 0.14193
 C360 C 0.19277 0.20635 0.20896
 C361 C 0.15101 0.11507 0.10326
 C362 C 0.17280 0.14154 0.12875
 C363 C 0.17558 0.18292 0.18676
 C364 C 0.10991 0.10191 0.10956
 H365 H 0.09786 0.15275 0.19189
 H366 H 0.05937 0.10676 0.14720
 H367 H 0.16641 0.10464 0.07886
 H368 H 0.20440 0.15139 0.12345
 C369 C 0.15329 0.65636 0.65934
 C370 C 0.17232 0.64232 0.62752
 C371 C 0.15059 0.61543 0.60246
 C372 C 0.19228 0.70810 0.70684
 C373 C 0.09082 0.61651 0.64117
 C374 C 0.11256 0.64335 0.66611
 C375 C 0.17509 0.68443 0.68493
 C376 C 0.10955 0.60224 0.60901
 H377 H 0.20387 0.65218 0.62204
 H378 H 0.16598 0.60471 0.57821
 H379 H 0.05907 0.60746 0.64661
 H380 H 0.09747 0.65416 0.69054
 C381 C 0.65577 0.15720 0.66026
 C382 C 0.67484 0.14328 0.62840
 C383 C 0.65324 0.11630 0.60338
 C384 C 0.69438 0.20936 0.70749
 C385 C 0.59351 0.11702 0.64221
 C386 C 0.61512 0.14396 0.66712
 C387 C 0.67738 0.18548 0.68572
 C388 C 0.61227 0.10290 0.61000
 H389 H 0.70633 0.15333 0.62285
 H390 H 0.66865 0.10569 0.57909
 H391 H 0.56181 0.10782 0.64770
 H392 H 0.60000 0.15469 0.69157
 C393 C 0.65314 0.65603 0.15993
 C394 C 0.61244 0.64300 0.16684
 C395 C 0.59052 0.61639 0.14176
 C396 C 0.69252 0.70739 0.20763
 C397 C 0.65001 0.61559 0.10262
 C398 C 0.67193 0.64225 0.12782
 C399 C 0.67513 0.68389 0.18565
 C400 C 0.60902 0.60238 0.10932
 H401 H 0.59753 0.65362 0.19150
 H402 H 0.55881 0.60731 0.14733
 H403 H 0.66523 0.60506 0.07816
 H404 H 0.70345 0.65213 0.12222
   
