data_POSCAR
  _audit_creation_date              2014-09-24
  _audit_creation_method            'ToBaCCo'
  _symmetry_space_group_name_H-M    'P1'
  _symmetry_Int_Tables_number       1
  _symmetry_cell_setting            triclinic
  loop_
  _symmetry_equiv_pos_as_xyz
 x,y,z
_cell_length_a 28.3697
_cell_length_b 21.8307
_cell_length_c 22.3452
_cell_angle_alpha 89.354300
_cell_angle_beta 89.573500
_cell_angle_gamma 87.748300
loop_
  _atom_site_label
  _atom_site_type_symbol
  _atom_site_fract_x
  _atom_site_fract_y
  _atom_site_fract_z
C1 C 1.22151 0.19531 0.20697
 C2 C 1.24616 0.23422 0.15972
 C3 C 1.27052 0.28075 0.18238
 C4 C 1.26779 0.28455 0.25107
 C5 C 1.26019 0.17429 0.25106
 C6 C 1.28444 0.22070 0.27463
 C7 C 1.19028 0.24119 0.24246
 C8 C 1.21446 0.28783 0.26624
 H9 H 1.24307 0.22681 0.11206
 H10 H 1.28758 0.32316 0.26832
 H11 H 1.26618 0.12675 0.26414
 H12 H 1.15347 0.23429 0.25230
 C13 C 0.72568 -0.30816 0.21033
 C14 C 0.74770 -0.26694 0.16324
 C15 C 0.77128 -0.22000 0.18619
 C16 C 0.77071 -0.21823 0.25515
 C17 C 0.76600 -0.32862 0.25181
 C18 C 0.78924 -0.28190 0.27603
 C19 C 0.69419 -0.26458 0.24859
 C20 C 0.71794 -0.21750 0.27258
 H21 H 0.74357 -0.27326 0.11554
 H22 H 0.79082 -0.18007 0.27316
 H23 H 0.77021 -0.37528 0.26869
 H24 H 0.65780 -0.27300 0.25958
 C25 C 0.71616 0.18492 -0.28590
 C26 C 0.73943 0.21548 -0.33577
 C27 C 0.76822 0.26482 -0.31743
 C28 C 0.76759 0.27366 -0.25215
 C29 C 0.75385 0.16558 -0.24521
 C30 C 0.78199 0.21419 -0.22545
 C31 C 0.68955 0.23402 -0.25548
 C32 C 0.71759 0.28262 -0.23535
 H33 H 0.73670 0.20153 -0.38183
 H34 H 0.78928 0.31202 -0.23897
 H35 H 0.75912 0.11855 -0.22993
 H36 H 0.65201 0.23245 -0.24668
 C37 C 1.22396 -0.31231 -0.28964
 C38 C 1.24569 -0.27373 -0.33931
 C39 C 1.26998 -0.22600 -0.31924
 C40 C 1.27075 -0.22129 -0.25059
 C41 C 1.26472 -0.33182 -0.24825
 C42 C 1.28908 -0.28440 -0.22696
 C43 C 1.19376 -0.26658 -0.25275
 C44 C 1.21835 -0.21893 -0.23196
 H45 H 1.24048 -0.28204 -0.38648
 H46 H 1.29058 -0.18180 -0.23531
 H47 H 1.27118 -0.37888 -0.23388
 H48 H 1.15746 -0.27386 -0.24034
 C49 C 0.23113 0.21460 0.81240
 C50 C 0.25616 0.26108 0.84300
 C51 C 0.28063 0.30102 0.80399
 C52 C 0.27430 0.28830 0.74066
 C53 C 0.19771 0.25020 0.76947
 C54 C 0.22023 0.28853 0.73142
 C55 C 0.26733 0.18213 0.77116
 C56 C 0.28940 0.22063 0.73297
 H57 H 0.25414 0.26753 0.89102
 H58 H 0.29336 0.31981 0.71053
 H59 H 0.16062 0.24186 0.76524
 H60 H 0.26940 0.13278 0.76587
 C61 C 0.72989 0.71192 0.81151
 C62 C 0.75384 0.76405 0.83517
 C63 C 0.77097 0.80501 0.78984
 C64 C 0.75910 0.78593 0.72868
 C65 C 0.69270 0.73794 0.77342
 C66 C 0.70817 0.77818 0.72767
 C67 C 0.76354 0.68275 0.76992
 C68 C 0.77963 0.72314 0.72347
 H69 H 0.76080 0.76898 0.88242
 H70 H 0.77019 0.81782 0.69309
 H71 H 0.65749 0.72093 0.77195
 H72 H 0.77241 0.63405 0.77088
 C73 C 0.72979 0.20224 0.30866
 C74 C 0.75496 0.25294 0.33999
 C75 C 0.77608 0.29210 0.30202
 C76 C 0.77037 0.27717 0.23559
 C77 C 0.69530 0.23583 0.26513
 C78 C 0.71683 0.27458 0.22643
 C79 C 0.76691 0.17112 0.26798
 C80 C 0.78777 0.21021 0.22925
 H81 H 0.75406 0.25920 0.38806
 H82 H 0.78860 0.30945 0.20541
 H83 H 0.65865 0.22505 0.26042
 H84 H 0.77025 0.12178 0.26314
 C85 C 0.22663 0.70739 0.30738
 C86 C 0.25311 0.75778 0.33823
 C87 C 0.27578 0.79517 0.29963
 C88 C 0.26964 0.77941 0.23353
 C89 C 0.19339 0.74161 0.26316
 C90 C 0.21591 0.77887 0.22420
 C91 C 0.26360 0.67421 0.26756
 C92 C 0.28590 0.71194 0.22881
 H93 H 0.25237 0.76474 0.38618
 H94 H 0.28876 0.81029 0.20289
 H95 H 0.15622 0.73347 0.25934
 H96 H 0.26713 0.62471 0.26477
 O97 O 1.06445 0.08423 0.11661
 O98 O 1.11561 0.02653 0.05819
 C99 C 1.10652 0.06374 0.10175
 O100 O 0.92343 -0.11452 0.08509
 O101 O 0.87669 -0.04613 0.03061
 C102 C 0.88263 -0.09193 0.06786
 O103 O 1.05677 -0.12693 0.09794
 O104 O 1.11164 -0.07174 0.04712
 C105 C 1.10013 -0.11384 0.08460
 O106 O 0.93338 0.10640 0.10406
 O107 O 0.88175 0.06189 0.04057
 C108 C 0.89148 0.09872 0.08351
 Zr109 Zr 0.99846 0.06503 0.07765
 O110 O 0.99244 0.04441 0.16992
 O111 O 1.00063 0.15999 0.09538
 Zr112 Zr 0.99228 -0.08770 0.06170
 O113 O 0.98358 -0.09953 0.15519
 O114 O 0.99319 -0.18378 0.04952
 O115 O 1.03675 -0.01780 0.08368
 O116 O 0.95349 -0.00690 0.07722
 O117 O 0.94484 0.13216 -0.09822
 O118 O 0.88664 0.07310 -0.05881
 C119 C 0.90110 0.12007 -0.08935
 O120 O 1.06678 -0.10229 -0.12194
 O121 O 1.11687 -0.06174 -0.05406
 C122 C 1.10862 -0.09344 -0.10102
 O123 O 0.93399 -0.09021 -0.12760
 O124 O 0.88107 -0.03388 -0.06990
 C125 C 0.89147 -0.07101 -0.11360
 O126 O 1.07575 0.10707 -0.09685
 O127 O 1.12150 0.03808 -0.04254
 C128 C 1.11619 0.08380 -0.07915
 Zr129 Zr 1.00641 0.08254 -0.07297
 O130 O 1.00552 0.09096 -0.16750
 O131 O 1.01532 0.17791 -0.06571
 Zr132 Zr 0.99969 -0.07082 -0.08884
 O133 O 1.00018 -0.06411 -0.18332
 O134 O 1.00019 -0.16765 -0.09400
 Zr135 Zr 1.06848 -0.01116 -0.00159
 Zr136 Zr 0.92885 0.00661 -0.01093
 O137 O 0.96275 0.01277 -0.09471
 O138 O 1.04536 0.00195 -0.09025
 O139 O 0.96130 0.09092 0.00070
 O140 O 1.03634 -0.09555 -0.01215
 O141 O 1.04335 0.08011 0.00615
 O142 O 0.95330 -0.08565 -0.01762
 H143 H 0.93048 -0.00735 0.11078
 H144 H 1.05660 -0.13349 -0.01430
 H145 H 0.94333 0.02042 -0.13090
 H146 H 1.06616 0.11282 0.01102
 H147 H 0.96535 -0.19293 0.02525
 H148 H 0.96927 -0.18103 -0.07913
 H149 H 1.02229 -0.03190 -0.19434
 H150 H 1.03496 0.07098 -0.18306
 H151 H 0.99612 0.19196 -0.03097
 H152 H 1.02293 0.17812 0.06668
 H153 H 0.99272 0.08424 0.19069
 H154 H 1.00585 -0.07247 0.17478
 O155 O 1.06498 0.58202 0.62460
 O156 O 1.11454 0.52512 0.56336
 C157 C 1.10651 0.56117 0.60797
 O158 O 0.92435 0.38060 0.59826
 O159 O 0.87575 0.44932 0.54693
 C160 C 0.88296 0.40121 0.58107
 O161 O 1.05859 0.37485 0.60750
 O162 O 1.11131 0.42782 0.55072
 C163 C 1.10143 0.38760 0.59086
 O164 O 0.93421 0.61051 0.61399
 O165 O 0.88016 0.56211 0.55707
 C166 C 0.89162 0.60256 0.59599
 Zr167 Zr 0.99792 0.56468 0.58818
 O168 O 0.99202 0.54538 0.68073
 O169 O 1.00645 0.65852 0.60570
 Zr170 Zr 0.99206 0.41169 0.57421
 O171 O 0.98581 0.40071 0.66810
 O172 O 0.99185 0.31613 0.56040
 O173 O 1.03670 0.48215 0.59297
 O174 O 0.95298 0.49234 0.59123
 O175 O 0.93782 0.62589 0.40882
 O176 O 0.88217 0.57116 0.45924
 C177 C 0.89470 0.61515 0.42362
 O178 O 1.06074 0.39583 0.38626
 O179 O 1.11254 0.43970 0.44965
 C180 C 1.10322 0.40677 0.40385
 O181 O 0.92740 0.40426 0.39107
 O182 O 0.87716 0.46503 0.44828
 C183 C 0.88562 0.42532 0.40648
 O184 O 1.06973 0.60564 0.40849
 O185 O 1.11705 0.53783 0.46194
 C186 C 1.11077 0.58285 0.42464
 Zr187 Zr 1.00116 0.58089 0.43671
 O188 O 0.99839 0.58973 0.34230
 O189 O 1.00959 0.67636 0.44499
 Zr190 Zr 0.99458 0.42720 0.42323
 O191 O 0.99069 0.43509 0.32892
 O192 O 0.99545 0.33044 0.41747
 Zr193 Zr 1.06560 0.48822 0.50607
 Zr194 Zr 0.92592 0.50530 0.50448
 O195 O 0.95709 0.51028 0.41873
 O196 O 1.03976 0.50031 0.41858
 O197 O 0.95854 0.58995 0.51268
 O198 O 1.03382 0.40338 0.49815
 O199 O 1.04044 0.57947 0.51424
 O200 O 0.95079 0.41329 0.49711
 H201 H 0.93009 0.49183 0.62494
 H202 H 1.05438 0.36577 0.49502
 H203 H 0.93662 0.51661 0.38328
 H204 H 1.06317 0.61247 0.51823
 H205 H 0.99230 0.29696 0.60081
 H206 H 0.97047 0.31594 0.44471
 H207 H 1.01495 0.46382 0.31602
 H208 H 1.02606 0.56666 0.32555
 H209 H 0.98290 0.69299 0.46940
 H210 H 0.99998 0.68082 0.56776
 H211 H 0.99369 0.58535 0.70100
 H212 H 1.00842 0.42824 0.68637
 O213 O 0.55872 0.06823 0.63595
 O214 O 0.61408 0.02726 0.57114
 C215 C 0.60190 0.05531 0.62017
 O216 O 0.41859 -0.11318 0.58667
 O217 O 0.37368 -0.04203 0.53316
 C218 C 0.37847 -0.08951 0.56870
 O219 O 0.54958 -0.13297 0.59951
 O220 O 0.60912 -0.07683 0.55944
 C221 C 0.59382 -0.12184 0.59136
 O222 O 0.43196 0.10692 0.61233
 O223 O 0.38060 0.06718 0.54544
 C224 C 0.39040 0.10227 0.58977
 Zr225 Zr 0.49661 0.06504 0.58574
 O226 O 0.48466 0.06339 0.67924
 O227 O 0.50787 0.16004 0.58960
 Zr228 Zr 0.48766 -0.08658 0.56743
 O229 O 0.47839 -0.09446 0.66134
 O230 O 0.47904 -0.18207 0.55917
 O231 O 0.53307 -0.01942 0.59260
 O232 O 0.45016 -0.00518 0.58322
 O233 O 0.44778 0.13574 0.40918
 O234 O 0.38744 0.07870 0.44628
 C235 C 0.40349 0.12498 0.41610
 O236 O 0.56571 -0.10239 0.38644
 O237 O 0.61586 -0.06317 0.45520
 C238 C 0.60754 -0.09466 0.40787
 O239 O 0.43273 -0.09004 0.38099
 O240 O 0.38132 -0.02729 0.43414
 C241 C 0.39057 -0.06806 0.39371
 O242 O 0.57807 0.10572 0.41410
 O243 O 0.62252 0.03566 0.46921
 C244 C 0.61799 0.08094 0.43165
 Zr245 Zr 0.50823 0.08444 0.43690
 O246 O 0.50937 0.09561 0.34262
 O247 O 0.51924 0.17903 0.44717
 Zr248 Zr 0.49893 -0.06756 0.41780
 O249 O 0.49998 -0.05333 0.32393
 O250 O 0.49832 -0.16362 0.40640
 Zr251 Zr 0.56797 -0.01242 0.50927
 Zr252 Zr 0.42764 0.01077 0.49480
 O253 O 0.46343 0.01679 0.41224
 O254 O 0.54626 0.00306 0.42003
 O255 O 0.46136 0.09363 0.50859
 O256 O 0.53360 -0.09474 0.49520
 O257 O 0.54408 0.07955 0.51720
 O258 O 0.45087 -0.08184 0.48709
 H259 H 0.42641 -0.00565 0.61594
 H260 H 0.55310 -0.13317 0.49183
 H261 H 0.44462 0.02487 0.37560
 H262 H 0.56752 0.11114 0.52417
 H263 H 0.50342 -0.19863 0.53127
 H264 H 0.47359 -0.17910 0.43344
 H265 H 0.52903 -0.03169 0.31388
 H266 H 0.53690 0.07138 0.32704
 H267 H 0.49830 0.19355 0.48010
 H268 H 0.50787 0.17036 0.63265
 H269 H 0.48528 0.01980 0.69163
 H270 H 0.50795 -0.08260 0.68060
 O271 O 0.57175 0.57881 0.12215
 O272 O 0.62174 0.52157 0.06162
 C273 C 0.61335 0.55785 0.10617
 O274 O 0.42700 0.38651 0.08709
 O275 O 0.38145 0.45853 0.03557
 C276 C 0.38649 0.41087 0.07085
 O277 O 0.55982 0.37053 0.09856
 O278 O 0.61576 0.42247 0.04622
 C279 C 0.60337 0.38115 0.08416
 O280 O 0.44009 0.60579 0.11181
 O281 O 0.38798 0.56593 0.04587
 C282 C 0.39806 0.60066 0.09017
 Zr283 Zr 0.50528 0.56451 0.08292
 O284 O 0.49729 0.55237 0.17653
 O285 O 0.51310 0.65992 0.09125
 Zr286 Zr 0.49613 0.41171 0.06281
 O287 O 0.49067 0.39023 0.15504
 O288 O 0.49225 0.31820 0.04086
 O289 O 0.54180 0.47973 0.08652
 O290 O 0.45938 0.49358 0.08155
 O291 O 0.45203 0.63699 -0.09131
 O292 O 0.39307 0.57805 -0.05371
 C293 C 0.40809 0.62513 -0.08359
 O294 O 0.56881 0.40022 -0.12237
 O295 O 0.62077 0.43954 -0.05589
 C296 C 0.61133 0.40880 -0.10328
 O297 O 0.43417 0.41265 -0.12141
 O298 O 0.38552 0.47345 -0.06258
 C299 C 0.39253 0.43394 -0.10471
 O300 O 0.58300 0.60905 -0.08883
 O301 O 0.62783 0.53599 -0.03854
 C302 C 0.62338 0.58399 -0.07263
 Zr303 Zr 0.51291 0.58507 -0.06730
 O304 O 0.51237 0.59403 -0.16178
 O305 O 0.52298 0.68009 -0.05977
 Zr306 Zr 0.50229 0.43266 -0.08724
 O307 O 0.50060 0.44519 -0.18122
 O308 O 0.50150 0.33647 -0.09770
 Zr309 Zr 0.57340 0.48730 0.00119
 Zr310 Zr 0.43444 0.51081 -0.00565
 O311 O 0.46728 0.51749 -0.09013
 O312 O 0.54978 0.50367 -0.08694
 O313 O 0.46825 0.59370 0.00707
 O314 O 0.53958 0.40446 -0.01172
 O315 O 0.55018 0.57918 0.01154
 O316 O 0.45650 0.41797 -0.01540
 H317 H 0.43640 0.49312 0.11513
 H318 H 0.55933 0.36621 -0.01546
 H319 H 0.44735 0.52579 -0.12577
 H320 H 0.57320 0.61147 0.01764
 H321 H 0.49113 0.29567 0.07953
 H322 H 0.47495 0.32169 -0.07322
 H323 H 0.52583 0.47343 -0.19182
 H324 H 0.54275 0.57645 -0.17708
 H325 H 0.50922 0.69260 -0.02076
 H326 H 0.51219 0.66838 0.13473
 H327 H 0.52113 0.52068 0.18937
 H328 H 0.48430 0.42932 0.17598
 N329 N 1.19118 0.05961 0.12789
 N330 N 1.22122 0.09423 0.15517
 C331 C 1.19731 0.14239 0.17959
 C332 C 1.14960 0.13813 0.16727
 C333 C 1.14744 0.08504 0.13414
 H334 H 1.12114 0.17115 0.17665
 H335 H 1.20093 0.02058 0.10339
 H336 H 1.25776 0.08619 0.15486
 N337 N 1.19078 0.55182 0.63491
 N338 N 1.22170 0.58498 0.66230
 C339 C 1.19892 0.63443 0.68596
 C340 C 1.15131 0.63274 0.67300
 C341 C 1.14786 0.57981 0.64040
 H342 H 1.12390 0.66760 0.68106
 H343 H 1.19944 0.51223 0.61070
 H344 H 1.25806 0.57542 0.66200
 N345 N 0.62878 0.07115 0.71943
 N346 N 0.66125 0.10818 0.74568
 C347 C 0.68647 0.13465 0.70167
 C348 C 0.67274 0.11153 0.64649
 C349 C 0.63600 0.07289 0.65992
 H350 H 0.68298 0.12705 0.60230
 H351 H 0.60117 0.05062 0.74230
 H352 H 0.66181 0.11831 0.79126
 N353 N 0.69846 0.55610 0.12960
 N354 N 0.72788 0.59187 0.15651
 C355 C 0.70294 0.63813 0.18283
 C356 C 0.65537 0.63142 0.17236
 C357 C 0.65424 0.57901 0.13818
 H358 H 0.62621 0.66282 0.18330
 H359 H 0.70886 0.51842 0.10355
 H360 H 0.76459 0.58608 0.15458
 N361 N 0.79677 -0.11178 0.07000
 N362 N 0.76745 -0.14493 0.10172
 C363 C 0.79143 -0.17318 0.14669
 C364 C 0.83833 -0.15807 0.14307
 C365 C 0.84023 -0.11926 0.09341
 H366 H 0.86722 -0.17508 0.17078
 H367 H 0.78729 -0.08609 0.03193
 H368 H 0.73179 -0.14911 0.09187
 N369 N 0.81148 0.34486 0.55645
 N370 N 0.78266 0.30637 0.58248
 C371 C 0.79289 0.30164 0.64132
 C372 C 0.83091 0.33862 0.65269
 C373 C 0.84165 0.36494 0.59737
 H374 H 0.84947 0.34374 0.69435
 H375 H 0.81152 0.35536 0.51071
 H376 H 0.75600 0.28471 0.55988
 N377 N 0.29490 -0.12018 0.56148
 N378 N 0.26673 -0.15735 0.59052
 C379 C 0.28922 -0.17997 0.63945
 C380 C 0.33373 -0.15660 0.64153
 C381 C 0.33608 -0.11926 0.59093
 H382 H 0.36129 -0.16757 0.67360
 H383 H 0.28665 -0.09801 0.52101
 H384 H 0.23293 -0.16760 0.57649
 N385 N 0.30074 0.38969 0.06808
 N386 N 0.27056 0.35530 0.09706
 C387 C 0.29288 0.32634 0.14294
 C388 C 0.33978 0.34252 0.14274
 C389 C 0.34333 0.38266 0.09407
 H390 H 0.36759 0.32581 0.17229
 H391 H 0.29245 0.41613 0.03009
 H392 H 0.23529 0.35131 0.08512
 N393 N 0.87456 0.22414 -0.12213
 N394 N 0.84407 0.24932 -0.16033
 C395 C 0.81678 0.20519 -0.18133
 C396 C 0.83019 0.14960 -0.15367
 C397 C 0.86701 0.16381 -0.11687
 H398 H 0.81783 0.10431 -0.16223
 H399 H 0.90148 0.24763 -0.10191
 H400 H 0.84373 0.29557 -0.17262
 N401 N 0.81762 0.67377 0.42468
 N402 N 0.79111 0.70524 0.38584
 C403 C 0.81395 0.70711 0.33274
 C404 C 0.85702 0.67571 0.33814
 C405 C 0.85784 0.65527 0.39696
 H406 H 0.88191 0.66380 0.30280
 H407 H 0.80743 0.66325 0.46850
 H408 H 0.75642 0.72078 0.39426
 N409 N 0.37998 0.22871 0.37857
 N410 N 0.34964 0.25385 0.34014
 C411 C 0.32060 0.21059 0.32170
 C412 C 0.33267 0.15548 0.35103
 C413 C 0.37066 0.16912 0.38640
 H414 H 0.31839 0.11085 0.34440
 H415 H 0.40794 0.25158 0.39715
 H416 H 0.35060 0.29923 0.32520
 N417 N 0.38276 0.72817 -0.12109
 N418 N 0.35269 0.75186 -0.16065
 C419 C 0.32500 0.70731 -0.17949
 C420 C 0.33757 0.65297 -0.14924
 C421 C 0.37446 0.66831 -0.11292
 H422 H 0.32451 0.60768 -0.15595
 H423 H 0.41001 0.75211 -0.10216
 H424 H 0.35294 0.79716 -0.17599
 N425 N 1.19472 -0.10735 -0.11838
 N426 N 1.22372 -0.13961 -0.15331
 C427 C 1.19799 -0.17369 -0.18977
 C428 C 1.15040 -0.16236 -0.17766
 C429 C 1.15003 -0.12018 -0.13201
 H430 H 1.12039 -0.18265 -0.19815
 H431 H 1.20560 -0.07760 -0.08536
 H432 H 1.26041 -0.13931 -0.15046
 N433 N 1.18892 0.39745 0.38175
 N434 N 1.21811 0.36733 0.34535
 C435 C 1.19297 0.33176 0.30959
 C436 C 1.14525 0.34003 0.32405
 C437 C 1.14442 0.38195 0.37025
 H438 H 1.11553 0.31793 0.30482
 H439 H 1.19962 0.42776 0.41439
 H440 H 1.25470 0.37030 0.34674
 N441 N 0.69370 -0.11118 0.39139
 N442 N 0.72263 -0.14254 0.35559
 C443 C 0.69700 -0.17481 0.31737
 C444 C 0.64932 -0.16327 0.32959
 C445 C 0.64892 -0.12257 0.37691
 H446 H 0.61930 -0.18196 0.30762
 H447 H 0.70470 -0.08258 0.42531
 H448 H 0.75931 -0.14258 0.35877
 N449 N 0.69665 0.40114 -0.13102
 N450 N 0.72488 0.36867 -0.16699
 C451 C 0.69900 0.32875 -0.19715
 C452 C 0.65183 0.33746 -0.17980
 C453 C 0.65207 0.38333 -0.13761
 H454 H 0.62153 0.31305 -0.19412
 H455 H 0.70801 0.43464 -0.10201
 H456 H 0.76135 0.37305 -0.16864
 N457 N 1.20274 0.09588 -0.08167
 N458 N 1.23276 0.13135 -0.10933
 C459 C 1.20837 0.17035 -0.14586
 C460 C 1.16078 0.15961 -0.14090
 C461 C 1.15892 0.11204 -0.10023
 H462 H 1.13131 0.18219 -0.16361
 H463 H 1.21231 0.06134 -0.05085
 H464 H 1.26932 0.12818 -0.10393
 N465 N 1.19745 0.59360 0.41846
 N466 N 1.22762 0.62682 0.38834
 C467 C 1.20339 0.66469 0.35065
 C468 C 1.15548 0.65552 0.35755
 C469 C 1.15343 0.60997 0.40067
 H470 H 1.12604 0.67802 0.33470
 H471 H 1.20706 0.56034 0.45055
 H472 H 1.26422 0.62306 0.39314
 N473 N 0.70496 0.08835 0.42141
 N474 N 0.73423 0.12044 0.38860
 C475 C 0.70873 0.15849 0.35225
 C476 C 0.66138 0.15092 0.36278
 C477 C 0.66060 0.10613 0.40655
 H478 H 0.63138 0.17441 0.34199
 H479 H 0.71534 0.05505 0.45310
 H480 H 0.77097 0.11615 0.39097
 N481 N 0.70870 0.58901 -0.08326
 N482 N 0.73911 0.62663 -0.11499
 C483 C 0.71255 0.67077 -0.14306
 C484 C 0.66537 0.66340 -0.12748
 C485 C 0.66432 0.61119 -0.09248
 H486 H 0.63471 0.69086 -0.14124
 H487 H 0.71912 0.54925 -0.05964
 H488 H 0.77553 0.61860 -0.11898
 N489 N 0.85262 -0.07668 -0.21205
 N490 N 0.82125 -0.11031 -0.23837
 C491 C 0.80166 -0.14737 -0.19703
 C492 C 0.82130 -0.13504 -0.14135
 C493 C 0.85359 -0.09026 -0.15321
 H494 H 0.81631 -0.15885 -0.09920
 H495 H 0.87458 -0.04672 -0.23469
 H496 H 0.81527 -0.10873 -0.28435
 N497 N 0.80058 0.42698 0.38089
 N498 N 0.77169 0.39278 0.35107
 C499 C 0.79711 0.34738 0.32429
 C500 C 0.84428 0.35246 0.33786
 C501 C 0.84486 0.40341 0.37422
 H502 H 0.87321 0.32034 0.32770
 H503 H 0.78972 0.46399 0.40754
 H504 H 0.73495 0.39827 0.35215
 N505 N 0.30623 -0.06373 0.36470
 N506 N 0.27590 -0.09971 0.33961
 C507 C 0.29940 -0.15033 0.31997
 C508 C 0.34695 -0.14666 0.33303
 C509 C 0.34970 -0.09089 0.36179
 H510 H 0.37460 -0.18171 0.32721
 H511 H 0.29680 -0.02252 0.38577
 H512 H 0.23946 -0.09094 0.33852
 N513 N 0.30815 0.42924 -0.11028
 N514 N 0.27604 0.39132 -0.13617
 C515 C 0.29983 0.35409 -0.17432
 C516 C 0.34781 0.36627 -0.17289
 C517 C 0.35161 0.41264 -0.13081
 H518 H 0.37643 0.33978 -0.19363
 H519 H 0.29955 0.46054 -0.07652
 H520 H 0.24048 0.38961 -0.12400
 N521 N 1.18438 -0.14485 0.08714
 N522 N 1.21518 -0.17096 0.12408
 C523 C 1.19207 -0.19061 0.17297
 C524 C 1.14390 -0.17691 0.16648
 C525 C 1.14082 -0.14724 0.11141
 H526 H 1.11577 -0.18429 0.19841
 H527 H 1.19347 -0.12444 0.04635
 H528 H 1.25135 -0.17482 0.11531
 N529 N 1.18678 0.36199 0.59368
 N530 N 1.21841 0.33871 0.63123
 C531 C 1.19594 0.31867 0.68040
 C532 C 1.14744 0.32923 0.67357
 C533 C 1.14334 0.35723 0.61790
 H534 H 1.11953 0.32051 0.70543
 H535 H 1.19518 0.38209 0.55250
 H536 H 1.25464 0.33658 0.62259
 N537 N 0.61780 -0.22601 0.62324
 N538 N 0.64880 -0.25312 0.65915
 C539 C 0.67958 -0.21166 0.67737
 C540 C 0.66821 -0.15534 0.65014
 C541 C 0.62774 -0.16658 0.61761
 H542 H 0.68249 -0.11131 0.65985
 H543 H 0.58871 -0.24735 0.60563
 H544 H 0.64746 -0.29901 0.67264
 N545 N 0.68632 0.34410 0.08587
 N546 N 0.71654 0.31809 0.12362
 C547 C 0.69322 0.30261 0.17385
 C548 C 0.64551 0.31872 0.16744
 C549 C 0.64296 0.34568 0.11097
 H550 H 0.61758 0.31518 0.20040
 H551 H 0.69572 0.36205 0.04410
 H552 H 0.75254 0.31162 0.11464
 N553 N 0.81009 0.14520 0.08604
 N554 N 0.78332 0.17700 0.12407
 C555 C 0.80856 0.18683 0.17363
 C556 C 0.85314 0.16017 0.16734
 C557 C 0.85263 0.13432 0.11110
 H558 H 0.88104 0.15716 0.20015
 H559 H 0.79901 0.13042 0.04432
 H560 H 0.74779 0.18918 0.11722
 N561 N 0.84634 0.70131 0.59092
 N562 N 0.81821 0.73497 0.62589
 C563 C 0.80854 0.70222 0.67584
 C564 C 0.83188 0.64496 0.67193
 C565 C 0.85510 0.64644 0.61735
 H566 H 0.83379 0.60841 0.70502
 H567 H 0.86059 0.71659 0.55043
 H568 H 0.80633 0.77947 0.61488
 N569 N 0.31258 0.15895 0.58853
 N570 N 0.28710 0.19345 0.62580
 C571 C 0.31059 0.19692 0.67775
 C572 C 0.35254 0.16323 0.67385
 C573 C 0.35246 0.14005 0.61654
 H574 H 0.37848 0.15470 0.70854
 H575 H 0.30258 0.14843 0.54505
 H576 H 0.25338 0.21192 0.61660
 N577 N 0.32101 0.65772 0.08483
 N578 N 0.29210 0.68857 0.12105
 C579 C 0.31102 0.68800 0.17607
 C580 C 0.35405 0.65577 0.17515
 C581 C 0.35899 0.63748 0.11618
 H582 H 0.37748 0.64548 0.21223
 H583 H 0.31461 0.65050 0.03952
 H584 H 0.25927 0.70773 0.10861
   
