data_POSCAR
  _audit_creation_date              2014-09-24
  _audit_creation_method            'ToBaCCo'
  _symmetry_space_group_name_H-M    'P1'
  _symmetry_Int_Tables_number       1
  _symmetry_cell_setting            triclinic
  loop_
  _symmetry_equiv_pos_as_xyz
 x,y,z
_cell_length_a 46.4871
_cell_length_b 46.7492
_cell_length_c 46.4432
_cell_angle_alpha 87.524900
_cell_angle_beta 87.443000
_cell_angle_gamma 88.196400
loop_
  _atom_site_label
  _atom_site_type_symbol
  _atom_site_fract_x
  _atom_site_fract_y
  _atom_site_fract_z
C1 C 0.80158 0.63990 1.00197
 C2 C 0.80625 0.61586 0.98071
 C3 C 0.78276 0.59981 0.97777
 C4 C 0.75643 0.60924 0.99673
 C5 C 0.77530 0.65702 0.99052
 C6 C 0.75123 0.64123 0.98800
 C7 C 0.79057 0.62517 1.03010
 C8 C 0.76690 0.60932 1.02767
 H9 H 0.82508 0.61433 0.96619
 H10 H 0.73796 0.59524 0.99508
 H11 H 0.77674 0.67911 0.98299
 H12 H 0.80056 0.62772 1.05043
 C13 C 0.79298 0.35672 0.47813
 C14 C 0.79871 0.37780 0.50137
 C15 C 0.77575 0.39507 0.50880
 C16 C 0.74852 0.38945 0.49242
 C17 C 0.76682 0.34023 0.49070
 C18 C 0.74330 0.35718 0.49776
 C19 C 0.78129 0.37530 0.45313
 C20 C 0.75800 0.39228 0.46030
 H21 H 0.81896 0.37807 0.51202
 H22 H 0.72985 0.40368 0.49824
 H23 H 0.76721 0.31738 0.49522
 H24 H 0.79063 0.37457 0.43138
 C25 C 0.29854 -0.13905 -0.02900
 C26 C 0.30493 -0.11825 -0.00787
 C27 C 0.28049 -0.10112 0.00176
 C28 C 0.25420 -0.10755 -0.01294
 C29 C 0.27472 -0.15537 -0.01611
 C30 C 0.24985 -0.13830 -0.00735
 C31 C 0.28638 -0.12138 -0.05236
 C32 C 0.26146 -0.10425 -0.04405
 H33 H 0.32610 -0.11642 0.00045
 H34 H 0.23583 -0.09397 -0.00583
 H35 H 0.27496 -0.17855 -0.01590
 H36 H 0.29799 -0.11758 -0.07280
 C37 C 0.28877 0.14437 0.50707
 C38 C 0.29550 0.12566 0.48123
 C39 C 0.27322 0.10971 0.47378
 C40 C 0.24604 0.11337 0.49351
 C41 C 0.26163 0.16203 0.49849
 C42 C 0.23931 0.14587 0.49103
 C43 C 0.27811 0.12373 0.53128
 C44 C 0.25584 0.10746 0.52459
 H45 H 0.31541 0.12712 0.46829
 H46 H 0.22832 0.09978 0.48751
 H47 H 0.26057 0.18509 0.49641
 H48 H 0.28622 0.12384 0.55278
 C49 C 0.13991 0.50346 0.29739
 C50 C 0.11504 0.48260 0.30123
 C51 C 0.10058 0.47909 0.27681
 C52 C 0.11215 0.49718 0.25064
 C53 C 0.15866 0.49125 0.27236
 C54 C 0.14419 0.48810 0.24782
 C55 C 0.12635 0.53119 0.28489
 C56 C 0.11200 0.52821 0.26038
 H57 H 0.11235 0.46820 0.31997
 H58 H 0.10012 0.49440 0.23090
 H59 H 0.18105 0.48467 0.27429
 H60 H 0.12826 0.55158 0.29476
 C61 C -0.13851 -0.02613 0.29155
 C62 C -0.11914 -0.00128 0.29724
 C63 C -0.10158 0.00685 0.27437
 C64 C -0.10537 -0.01051 0.24734
 C65 C -0.15503 -0.01517 0.26500
 C66 C -0.13780 -0.00733 0.24153
 C67 C -0.11911 -0.04867 0.28119
 C68 C -0.10087 -0.04058 0.25669
 H69 H -0.12008 0.00968 0.31736
 H70 H -0.09074 -0.00316 0.22931
 H71 H -0.17811 -0.01176 0.26530
 H72 H -0.12104 -0.07059 0.28935
 C73 C 0.35930 0.47681 0.79697
 C74 C 0.37893 0.50139 0.80273
 C75 C 0.39626 0.50987 0.77978
 C76 C 0.39199 0.49318 0.75249
 C77 C 0.34252 0.48799 0.77073
 C78 C 0.35948 0.49619 0.74723
 C79 C 0.37959 0.45322 0.78526
 C80 C 0.39667 0.46154 0.76206
 H81 H 0.37861 0.51164 0.82323
 H82 H 0.40638 0.49993 0.73393
 H83 H 0.31941 0.49094 0.77098
 H84 H 0.37906 0.43126 0.79369
 C85 C 0.64114 1.00538 0.79430
 C86 C 0.61871 0.98221 0.79991
 C87 C 0.60266 0.97756 0.77687
 C88 C 0.61048 0.99685 0.75011
 C89 C 0.65900 0.99491 0.76778
 C90 C 0.64294 0.99047 0.74454
 C91 C 0.62514 1.03051 0.78397
 C92 C 0.60808 1.02639 0.75962
 H93 H 0.61814 0.96828 0.81918
 H94 H 0.59719 0.99202 0.73187
 H95 H 0.68176 0.98946 0.76787
 H96 H 0.62878 1.05130 0.79225
 C97 C -0.02001 0.29332 -0.14386
 C98 C 0.00468 0.29918 -0.12443
 C99 C 0.01264 0.27660 -0.10680
 C100 C -0.00465 0.24955 -0.11060
 C101 C -0.00912 0.26691 -0.16032
 C102 C -0.00148 0.24379 -0.14305
 C103 C -0.04415 0.28214 -0.12325
 C104 C -0.03634 0.25928 -0.10591
 H105 H 0.01541 0.31945 -0.12515
 H106 H 0.00168 0.23130 -0.09597
 H107 H -0.00610 0.26671 -0.18347
 H108 H -0.06610 0.29056 -0.12389
 C109 C 0.50517 0.29561 0.14552
 C110 C 0.48367 0.30025 0.12156
 C111 C 0.47968 0.27670 0.10614
 C112 C 0.49804 0.25042 0.11590
 C113 C 0.49326 0.26980 0.16368
 C114 C 0.48970 0.24611 0.14814
 C115 C 0.53273 0.28400 0.13043
 C116 C 0.52931 0.26030 0.11513
 H117 H 0.46996 0.31935 0.11969
 H118 H 0.49486 0.23139 0.10308
 H119 H 0.48673 0.27039 0.18626
 H120 H 0.55340 0.29365 0.13235
 C121 C 1.00281 0.79461 0.63882
 C122 C 0.98117 0.80143 0.61778
 C123 C 0.97444 0.77807 0.60056
 C124 C 0.99183 0.75212 0.60732
 C125 C 0.99232 0.76937 0.65552
 C126 C 0.98567 0.74567 0.63823
 C127 C 1.02779 0.78372 0.62237
 C128 C 1.02224 0.76028 0.60476
 H129 H 0.96802 0.82096 0.61859
 H130 H 0.98742 0.73531 0.59248
 H131 H 0.99438 0.76649 0.67849
 H132 H 1.04937 0.78992 0.62673
 C133 C 0.46995 0.79416 0.35670
 C134 C 0.49411 0.80124 0.37632
 C135 C 0.50343 0.77890 0.39355
 C136 C 0.48765 0.75104 0.38961
 C137 C 0.48197 0.76831 0.34000
 C138 C 0.49164 0.74577 0.35706
 C139 C 0.44643 0.78148 0.37705
 C140 C 0.45543 0.75916 0.39448
 H141 H 0.50386 0.82202 0.37557
 H142 H 0.49520 0.73326 0.40418
 H143 H 0.48147 0.76701 0.31693
 H144 H 0.42415 0.78891 0.37662
 C145 C 0.38395 -0.00987 0.27040
 H146 H 0.38164 0.01028 0.28100
 C147 C 0.39897 -0.03295 0.28343
 H148 H 0.40842 -0.03055 0.30406
 C149 C 0.37338 -0.03812 0.23119
 H150 H 0.36285 -0.04028 0.21118
 C151 C 0.38822 -0.06170 0.24348
 H152 H 0.38923 -0.08187 0.23278
 N153 N 0.37152 -0.01283 0.24475
 C154 C 0.35968 0.07198 0.20332
 H155 H 0.33726 0.07112 0.19817
 C156 C 0.37539 0.09617 0.19506
 H157 H 0.36508 0.11402 0.18350
 C158 C 0.40055 0.04982 0.22473
 H159 H 0.41033 0.03168 0.23614
 C160 C 0.41705 0.07362 0.21686
 H161 H 0.43945 0.07379 0.22235
 Zn162 Zn 0.34882 0.01827 0.22983
 N163 N 0.37225 0.04964 0.21832
 C164 C 0.32061 0.05686 0.26748
 N165 N 0.32225 0.02906 0.25988
 C166 C 0.30885 0.00818 0.27634
 C167 C 0.29435 0.01479 0.30243
 C168 C 0.30613 0.06439 0.29308
 C169 C 0.34780 0.00391 0.17291
 C170 C 0.33683 -0.00559 0.14772
 C171 C 0.28984 -0.00815 0.17202
 C172 C 0.30173 0.00158 0.19690
 N173 N 0.33035 0.00696 0.19693
 H174 H 0.33181 0.07310 0.25462
 H175 H 0.31100 -0.01385 0.27015
 H176 H 0.28517 -0.00213 0.31625
 H177 H 0.30616 0.08639 0.29954
 H178 H 0.37045 0.00838 0.17357
 H179 H 0.35110 -0.00851 0.12891
 H180 H 0.26723 -0.01310 0.17223
 H181 H 0.28831 0.00425 0.21628
 C182 C 0.40426 0.09709 0.20212
 C183 C 0.40096 -0.05913 0.26991
 C184 C 0.30769 -0.01195 0.14729
 C185 C 0.29359 0.04311 0.31111
 C186 C 0.07170 1.03983 0.78785
 H187 H 0.06967 1.01882 0.79831
 C188 C 0.05711 1.06349 0.79963
 H189 H 0.04362 1.06071 0.81912
 C190 C 0.09292 1.06950 0.75051
 H191 H 0.10755 1.07194 0.73192
 C192 C 0.07872 1.09367 0.76156
 H193 H 0.08221 1.11456 0.75121
 N194 N 0.08927 1.04325 0.76379
 C195 C 0.10370 0.95884 0.72890
 H196 H 0.12700 0.95873 0.72767
 C197 C 0.08923 0.93591 0.71884
 H198 H 0.10140 0.91804 0.70978
 C199 C 0.05940 0.98266 0.74160
 H200 H 0.04796 1.00115 0.75011
 C201 C 0.04399 0.96005 0.73165
 H202 H 0.02066 0.96108 0.73257
 Zn203 Zn 0.11175 1.01131 0.75141
 N204 N 0.08873 0.98152 0.74013
 C205 C 0.12992 0.97138 0.79477
 N206 N 0.13396 0.99812 0.78281
 C207 C 0.15246 1.01624 0.79407
 C208 C 0.16844 1.00729 0.81782
 C209 C 0.14538 0.96164 0.81848
 C210 C 0.12132 1.02942 0.69414
 C211 C 0.13679 1.03655 0.66854
 C212 C 0.18098 1.02711 0.69326
 C213 C 0.16464 1.02012 0.71848
 N214 N 0.13534 1.02170 0.71852
 H215 H 0.11450 0.95759 0.78618
 H216 H 0.15480 1.03761 0.78454
 H217 H 0.18343 1.02163 0.82644
 H218 H 0.14223 0.94020 0.82765
 H219 H 0.09802 1.03003 0.69468
 H220 H 0.12541 1.04293 0.64934
 H221 H 0.20428 1.02604 0.69339
 H222 H 0.17538 1.01328 0.73785
 C223 C 0.05915 0.93651 0.72014
 C224 C 0.06091 1.09068 0.78649
 C225 C 0.16688 1.03543 0.66809
 C226 C 0.16487 0.97968 0.83006
 C227 C 0.57513 0.54504 0.28884
 H228 H 0.57240 0.52400 0.29904
 C229 C 0.56050 0.56884 0.30031
 H230 H 0.54625 0.56614 0.31927
 C231 C 0.59804 0.57461 0.25248
 H232 H 0.61329 0.57696 0.23438
 C233 C 0.58384 0.59891 0.26322
 H234 H 0.58794 0.61979 0.25311
 N235 N 0.59350 0.54832 0.26536
 C236 C 0.60744 0.46451 0.22871
 H237 H 0.63073 0.46443 0.22734
 C238 C 0.59293 0.44160 0.21863
 H239 H 0.60507 0.42380 0.20940
 C240 C 0.56319 0.48799 0.24222
 H241 H 0.55178 0.50625 0.25122
 C242 C 0.54775 0.46538 0.23231
 H243 H 0.52443 0.46619 0.23375
 Zn244 Zn 0.61568 0.51613 0.25296
 N245 N 0.59252 0.48695 0.24047
 C246 C 0.63223 0.47477 0.29561
 N247 N 0.63690 0.50179 0.28467
 C248 C 0.65542 0.51913 0.29700
 C249 C 0.67081 0.50906 0.32080
 C250 C 0.64708 0.46393 0.31930
 C251 C 0.62708 0.53520 0.19626
 C252 C 0.64337 0.54318 0.17142
 C253 C 0.68664 0.53303 0.19746
 C254 C 0.66951 0.52520 0.22188
 N255 N 0.64027 0.52680 0.22094
 H256 H 0.61681 0.46158 0.28618
 H257 H 0.65828 0.54073 0.28828
 H258 H 0.68582 0.52279 0.33028
 H259 H 0.64341 0.44228 0.32764
 H260 H 0.60381 0.53585 0.19601
 H261 H 0.63265 0.55022 0.15201
 H262 H 0.70989 0.53206 0.19841
 H263 H 0.67959 0.51784 0.24147
 C264 C 0.56286 0.44196 0.22049
 C265 C 0.56510 0.59604 0.28748
 C266 C 0.67341 0.54220 0.17205
 C267 C 0.66662 0.48114 0.33194
 C268 C 0.89429 0.48868 0.76954
 H269 H 0.89241 0.50886 0.78013
 C270 C 0.91020 0.46580 0.78180
 H271 H 0.92078 0.46838 0.80180
 C272 C 0.88149 0.46007 0.73139
 H273 H 0.86963 0.45765 0.71223
 C274 C 0.89718 0.43666 0.74293
 H275 H 0.89754 0.41638 0.73247
 N276 N 0.88024 0.48541 0.74486
 C277 C 0.86237 0.57105 0.70770
 H278 H 0.83942 0.56985 0.70518
 C279 C 0.87672 0.59581 0.69852
 H280 H 0.86482 0.61379 0.68885
 C281 C 0.90603 0.54899 0.72312
 H282 H 0.91741 0.53060 0.73244
 C283 C 0.92122 0.57338 0.71420
 H284 H 0.94425 0.57375 0.71678
 Zn285 Zn 0.85563 0.51589 0.73207
 N286 N 0.87706 0.54842 0.72006
 C287 C 0.83009 0.55138 0.77434
 N288 N 0.83061 0.52457 0.76398
 C289 C 0.81723 0.50263 0.77883
 C290 C 0.80372 0.50699 0.80589
 C291 C 0.81668 0.55668 0.80110
 C292 C 0.85198 0.50198 0.67527
 C293 C 0.83983 0.49269 0.65058
 C294 C 0.79393 0.48980 0.67699
 C295 C 0.80698 0.49931 0.70132
 N296 N 0.83564 0.50472 0.70007
 H297 H 0.84143 0.56837 0.76274
 H298 H 0.81858 0.48137 0.77044
 H299 H 0.79440 0.48914 0.81826
 H300 H 0.81751 0.57780 0.80970
 H301 H 0.87467 0.50654 0.67492
 H302 H 0.85322 0.48999 0.63112
 H303 H 0.77130 0.48484 0.67819
 H304 H 0.79441 0.50184 0.72124
 C305 C 0.90637 0.59702 0.70192
 C306 C 0.91139 0.43949 0.76851
 C307 C 0.81065 0.48627 0.65147
 C308 C 0.80403 0.53417 0.81734
 C309 C 0.27408 0.38729 -0.00574
 H310 H 0.28463 0.38513 0.01457
 C311 C 0.28670 0.40317 -0.02886
 H312 H 0.30697 0.41341 -0.02637
 C313 C 0.23545 0.37552 -0.03435
 H314 H 0.21587 0.36417 -0.03665
 C315 C 0.24733 0.39119 -0.05799
 H316 H 0.23674 0.39202 -0.07833
 N317 N 0.24893 0.37384 -0.00887
 C318 C 0.21004 0.35816 0.07732
 H319 H 0.20682 0.33536 0.07696
 C320 C 0.20092 0.37323 0.10154
 H321 H 0.19066 0.36204 0.11996
 C322 C 0.22709 0.40073 0.05366
 H323 H 0.23698 0.41143 0.03486
 C324 C 0.21827 0.41661 0.07745
 H325 H 0.22158 0.43947 0.07698
 Zn326 Zn 0.23493 0.34992 0.02218
 N327 N 0.22318 0.37196 0.05416
 C328 C 0.27561 0.32368 0.05910
 N329 N 0.26576 0.32438 0.03192
 C330 C 0.28050 0.31070 0.01028
 C331 C 0.30696 0.29668 0.01533
 C332 C 0.30178 0.30977 0.06509
 C333 C 0.17814 0.34747 0.00795
 C334 C 0.15342 0.33626 -0.00245
 C335 C 0.17867 0.29048 -0.00628
 C336 C 0.20305 0.30258 0.00438
 N337 N 0.20242 0.33078 0.01071
 H338 H 0.26412 0.33525 0.07585
 H339 H 0.27256 0.31219 -0.01130
 H340 H 0.31931 0.28716 -0.00233
 H341 H 0.31006 0.31052 0.08648
 H342 H 0.17831 0.36981 0.01313
 H343 H 0.13445 0.34999 -0.00530
 H344 H 0.17945 0.26828 -0.01214
 H345 H 0.22258 0.28972 0.00684
 C346 C 0.20519 0.40270 0.10164
 C347 C 0.27327 0.40494 -0.05526
 C348 C 0.15376 0.30764 -0.01001
 C349 C 0.31795 0.29680 0.04288
 C350 C 0.79032 0.07553 1.03992
 H351 H 0.80015 0.07464 1.01841
 C352 C 0.80271 0.05998 1.06284
 H353 H 0.82204 0.04691 1.05899
 C354 C 0.75389 0.09467 1.07160
 H355 H 0.73537 0.10880 1.07512
 C356 C 0.76556 0.07948 1.09506
 H357 H 0.75577 0.08173 1.11649
 N358 N 0.76637 0.09247 1.04467
 C359 C 0.72744 0.10876 0.96176
 H360 H 0.72556 0.13186 0.96221
 C361 C 0.71712 0.09470 0.93866
 H362 H 0.70720 0.10698 0.92123
 C363 C 0.74238 0.06450 0.98415
 H364 H 0.75198 0.05288 1.00209
 C365 C 0.73227 0.04953 0.96136
 H366 H 0.73416 0.02637 0.96171
 Zn367 Zn 0.75266 0.11576 1.01355
 N368 N 0.74001 0.09362 0.98375
 C369 C 0.79391 0.13593 0.97154
 N370 N 0.78357 0.13854 0.99922
 C371 C 0.79627 0.15585 1.01745
 C372 C 0.82006 0.17179 1.00783
 C373 C 0.81758 0.15143 0.96109
 C374 C 0.69621 0.12440 1.03453
 C375 C 0.67132 0.13950 1.04367
 C376 C 0.69648 0.18365 1.03448
 C377 C 0.72096 0.16770 1.02549
 N378 N 0.72047 0.13858 1.02603
 H379 H 0.78417 0.12147 0.95759
 H380 H 0.78801 0.15708 1.03953
 H381 H 0.83005 0.18555 1.02242
 H382 H 0.82565 0.14917 0.93903
 H383 H 0.69631 0.10127 1.03432
 H384 H 0.65223 0.12799 1.05074
 H385 H 0.69707 0.20681 1.03432
 H386 H 0.74022 0.17860 1.01806
 C387 C 0.71960 0.06486 0.93841
 C388 C 0.79030 0.06217 1.09069
 C389 C 0.67148 0.16939 1.04374
 C390 C 0.83079 0.16949 0.97937
 C391 C 0.28587 0.57480 0.54503
 H392 H 0.29583 0.57354 0.52360
 C393 C 0.29839 0.56003 0.56835
 H394 H 0.31792 0.54717 0.56488
 C395 C 0.24902 0.59420 0.57605
 H396 H 0.23029 0.60816 0.57913
 C397 C 0.26082 0.57979 0.59992
 H398 H 0.25091 0.58244 0.62124
 N399 N 0.26168 0.59153 0.54927
 C400 C 0.22398 0.60605 0.46558
 H401 H 0.22205 0.62917 0.46568
 C402 C 0.21395 0.59165 0.44258
 H403 H 0.20424 0.60368 0.42487
 C404 C 0.23870 0.56212 0.48877
 H405 H 0.24808 0.55077 0.50700
 C406 C 0.22886 0.54679 0.46608
 H407 H 0.23078 0.52363 0.46676
 Zn408 Zn 0.24820 0.61403 0.51754
 N409 N 0.23629 0.59124 0.48792
 C410 C 0.28989 0.63398 0.47588
 N411 N 0.27899 0.63698 0.50332
 C412 C 0.29093 0.65497 0.52141
 C413 C 0.31447 0.67131 0.51185
 C414 C 0.31333 0.64986 0.46551
 C415 C 0.19133 0.62265 0.53744
 C416 C 0.16587 0.63785 0.54463
 C417 C 0.19057 0.68198 0.53355
 C418 C 0.21561 0.66594 0.52656
 N419 N 0.21557 0.63681 0.52883
 H420 H 0.28074 0.61899 0.46208
 H421 H 0.28222 0.65651 0.54330
 H422 H 0.32382 0.68567 0.52629
 H423 H 0.32182 0.64734 0.44362
 H424 H 0.19178 0.59948 0.53853
 H425 H 0.14671 0.62640 0.55156
 H426 H 0.19073 0.70515 0.53177
 H427 H 0.23486 0.67677 0.51898
 C428 C 0.21643 0.56179 0.44278
 C429 C 0.28585 0.56277 0.59607
 C430 C 0.16549 0.66778 0.54263
 C431 C 0.32571 0.66868 0.48361
 C432 C 0.76952 0.89059 0.48874
 H433 H 0.77958 0.88872 0.50933
 C434 C 0.78293 0.90570 0.46554
 H435 H 0.80329 0.91568 0.46826
 C436 C 0.73146 0.87862 0.45951
 H437 H 0.71184 0.86741 0.45698
 C438 C 0.74414 0.89352 0.43577
 H439 H 0.73410 0.89393 0.41514
 N440 N 0.74431 0.87735 0.48533
 C441 C 0.70396 0.86233 0.57109
 H442 H 0.70035 0.83961 0.57052
 C443 C 0.69496 0.87733 0.59539
 H444 H 0.68438 0.86617 0.61365
 C445 C 0.72209 0.90470 0.54798
 H446 H 0.73244 0.91534 0.52938
 C447 C 0.71341 0.92052 0.57188
 H448 H 0.71726 0.94326 0.57169
 Zn449 Zn 0.72961 0.85381 0.51639
 N450 N 0.71762 0.87604 0.54819
 C451 C 0.76958 0.82758 0.55408
 N452 N 0.76012 0.82812 0.52675
 C453 C 0.77517 0.81432 0.50538
 C454 C 0.80162 0.80047 0.51085
 C455 C 0.79570 0.81382 0.56049
 C456 C 0.67312 0.85169 0.50107
 C457 C 0.64835 0.84042 0.49082
 C458 C 0.67303 0.79420 0.48874
 C459 C 0.69747 0.80638 0.49919
 N460 N 0.69714 0.83478 0.50464
 H461 H 0.75784 0.83922 0.57061
 H462 H 0.76755 0.81569 0.48368
 H463 H 0.81427 0.79095 0.49339
 H464 H 0.80370 0.81476 0.58198
 H465 H 0.67350 0.87418 0.50561
 H466 H 0.62956 0.85426 0.48745
 H467 H 0.67353 0.77177 0.48373
 H468 H 0.71680 0.79336 0.50232
 C469 C 0.69989 0.90665 0.59585
 C470 C 0.77023 0.90693 0.43876
 C471 C 0.64836 0.81153 0.48429
 C472 C 0.81225 0.80083 0.53854
 C473 C -0.01239 0.27294 0.38671
 H474 H 0.00787 0.28376 0.38433
 C475 C -0.03532 0.28489 0.40300
 H476 H -0.03275 0.30494 0.41332
 C477 C -0.04097 0.23421 0.37517
 H478 H -0.04332 0.21483 0.36377
 C479 C -0.06445 0.24544 0.39126
 H480 H -0.08474 0.23457 0.39236
 N481 N -0.01557 0.24803 0.37322
 C482 C 0.07073 0.21113 0.35784
 H483 H 0.07052 0.20807 0.33489
 C484 C 0.09487 0.20241 0.37316
 H485 H 0.11337 0.19260 0.36202
 C486 C 0.04675 0.22731 0.40055
 H487 H 0.02785 0.23666 0.41123
 C488 C 0.07045 0.21888 0.41668
 H489 H 0.06980 0.22194 0.43969
 Zn490 Zn 0.01557 0.23481 0.34924
 N491 N 0.04745 0.22364 0.37160
 C492 C 0.05236 0.27609 0.32278
 N493 N 0.02528 0.26578 0.32336
 C494 C 0.00373 0.28007 0.30930
 C495 C 0.00875 0.30657 0.29505
 C496 C 0.05832 0.30228 0.30864
 C497 C 0.00141 0.17816 0.34720
 C498 C -0.00779 0.15313 0.33577
 C499 C -0.00960 0.17786 0.28904
 C500 C -0.00021 0.20256 0.30139
 N501 N 0.00462 0.20230 0.33011
 H502 H 0.06902 0.26493 0.33464
 H503 H -0.01776 0.27175 0.31068
 H504 H -0.00884 0.31857 0.28525
 H505 H 0.07961 0.31092 0.30950
 H506 H 0.00551 0.17858 0.36992
 H507 H -0.01084 0.13420 0.34973
 H508 H -0.01408 0.17826 0.26634
 H509 H 0.00268 0.22198 0.28822
 C510 C 0.09475 0.20644 0.40282
 C511 C -0.06162 0.27107 0.40515
 C512 C -0.01361 0.15301 0.30652
 C513 C 0.03618 0.31801 0.29531
 C514 C 1.04773 0.79030 0.07323
 H515 H 1.02658 0.80031 0.07118
 C516 C 1.07163 0.80232 0.05848
 H517 H 1.06888 0.82153 0.04486
 C518 C 1.07751 0.75382 0.09448
 H519 H 1.07993 0.73544 0.10914
 C520 C 1.10190 0.76512 0.08014
 H521 H 1.12290 0.75514 0.08354
 N522 N 1.05108 0.76650 0.09083
 C523 C 0.96681 0.72876 0.10486
 H524 H 0.96656 0.72692 0.12817
 C525 C 0.94399 0.71858 0.09021
 H526 H 0.92608 0.70881 0.10225
 C527 C 0.99071 0.74338 0.06070
 H528 H 1.00914 0.75278 0.04937
 C529 C 0.96822 0.73337 0.04513
 H530 H 0.96928 0.73515 0.02177
 Zn531 Zn 1.01878 0.75317 0.11323
 N532 N 0.98943 0.74107 0.09006
 C533 C 0.97718 0.79452 0.13198
 N534 N 1.00442 0.78385 0.13569
 C535 C 1.02216 0.79595 0.15397
 C536 C 1.01242 0.81937 0.16987
 C537 C 0.96664 0.81785 0.14740
 C538 C 1.03795 0.69679 0.12249
 C539 C 1.04617 0.67177 0.13785
 C540 C 1.03653 0.69624 0.18221
 C541 C 1.02845 0.72087 0.16599
 N542 N 1.02969 0.72079 0.13665
 H543 H 0.96365 0.78528 0.11676
 H544 H 1.04392 0.78745 0.15607
 H545 H 1.02659 0.82881 0.18449
 H546 H 0.94491 0.82612 0.14433
 H547 H 1.03832 0.69722 0.09917
 H548 H 1.05310 0.65291 0.12636
 H549 H 1.03587 0.69651 0.20554
 H550 H 1.02124 0.73994 0.17684
 C551 C 0.94465 0.72090 0.06011
 C552 C 1.09898 0.78970 0.06217
 C553 C 1.04558 0.67152 0.16797
 C554 C 0.98437 0.83038 0.16652
 C555 C 0.53871 0.28828 0.57834
 H556 H 0.51762 0.29860 0.57704
 C557 C 0.56234 0.30008 0.56296
 H558 H 0.55947 0.31944 0.54961
 C559 C 0.56865 0.25126 0.59844
 H560 H 0.57125 0.23277 0.61293
 C561 C 0.59278 0.26232 0.58344
 H562 H 0.61377 0.25208 0.58618
 N563 N 0.54227 0.26434 0.59572
 C564 C 0.45785 0.22789 0.61280
 H565 H 0.45841 0.22607 0.63607
 C566 C 0.43432 0.21804 0.59901
 H567 H 0.41666 0.20853 0.61168
 C568 C 0.48044 0.24216 0.56785
 H569 H 0.49864 0.25130 0.55588
 C570 C 0.45721 0.23249 0.55314
 H571 H 0.45746 0.23425 0.52980
 Zn572 Zn 0.51053 0.25156 0.61922
 N573 N 0.48017 0.23987 0.59719
 C574 C 0.47029 0.29368 0.63877
 N575 N 0.49744 0.28253 0.64187
 C576 C 0.51602 0.29453 0.65938
 C577 C 0.50728 0.31843 0.67504
 C578 C 0.46074 0.31749 0.65398
 C579 C 0.52888 0.19496 0.62791
 C580 C 0.53697 0.16973 0.64296
 C581 C 0.52948 0.19429 0.68755
 C582 C 0.52149 0.21914 0.67162
 N583 N 0.52169 0.21908 0.64230
 H584 H 0.45610 0.28451 0.62413
 H585 H 0.53769 0.28564 0.66096
 H586 H 0.52212 0.32786 0.68898
 H587 H 0.43909 0.32619 0.65135
 H588 H 0.52843 0.19543 0.60462
 H589 H 0.54296 0.15073 0.63127
 H590 H 0.52957 0.19449 0.71086
 H591 H 0.51512 0.23834 0.68268
 C592 C 0.43396 0.22037 0.56896
 C593 C 0.58966 0.28709 0.56577
 C594 C 0.53736 0.16940 0.67304
 C595 C 0.47937 0.33000 0.67223
 C596 C 0.49273 0.76945 0.89438
 H597 H 0.51285 0.78055 0.89247
 C598 C 0.46918 0.78125 0.90992
 H599 H 0.47114 0.80147 0.92012
 C600 C 0.46499 0.73040 0.88204
 H601 H 0.46315 0.71102 0.87050
 C602 C 0.44093 0.74146 0.89736
 H603 H 0.42073 0.73048 0.89768
 N604 N 0.49020 0.74454 0.88070
 C605 C 0.57694 0.70889 0.86463
 H606 H 0.57647 0.70590 0.84169
 C607 C 0.60136 0.70039 0.87958
 H608 H 0.61980 0.69077 0.86816
 C609 C 0.55336 0.72473 0.90768
 H610 H 0.53450 0.73393 0.91860
 C611 C 0.57737 0.71650 0.92347
 H612 H 0.57699 0.71948 0.94649
 Zn613 Zn 0.52158 0.73202 0.85662
 N614 N 0.55370 0.72110 0.87873
 C615 C 0.55778 0.77389 0.83019
 N616 N 0.53080 0.76331 0.83096
 C617 C 0.50907 0.77731 0.81691
 C618 C 0.51383 0.80365 0.80228
 C619 C 0.56348 0.79996 0.81569
 C620 C 0.50824 0.67511 0.85362
 C621 C 0.49847 0.65046 0.84191
 C622 C 0.49518 0.67634 0.79591
 C623 C 0.50519 0.70062 0.80851
 N624 N 0.51093 0.69965 0.83704
 H625 H 0.57459 0.76297 0.84204
 H626 H 0.48766 0.76879 0.81844
 H627 H 0.49612 0.81537 0.79236
 H628 H 0.58472 0.80878 0.81629
 H629 H 0.51299 0.67499 0.87622
 H630 H 0.49564 0.63125 0.85553
 H631 H 0.48979 0.67738 0.77343
 H632 H 0.50762 0.72034 0.79574
 C633 C 0.60161 0.70433 0.90924
 C634 C 0.44298 0.76725 0.91116
 C635 C 0.49150 0.65115 0.81293
 C636 C 0.54119 0.81530 0.80219
 C637 C 0.43763 -0.12941 0.31053
 C638 C 0.45102 -0.15141 0.29491
 C639 C 0.46184 -0.17612 0.30927
 C640 C 0.45916 -0.17929 0.33963
 C641 C 0.44616 -0.15658 0.35501
 C642 C 0.43540 -0.13197 0.34061
 C643 C 0.42548 -0.10448 0.29578
 C644 C 0.41466 -0.08370 0.28381
 H645 H 0.45299 -0.14953 0.27157
 H646 H 0.47225 -0.19227 0.29625
 H647 H 0.44412 -0.15806 0.37835
 H648 H 0.42515 -0.11503 0.35296
 C649 C 0.94860 0.36938 0.80881
 C650 C 0.95451 0.34423 0.79414
 C651 C 0.96496 0.31960 0.80887
 C652 C 0.96995 0.31985 0.83862
 C653 C 0.96361 0.34535 0.85309
 C654 C 0.95319 0.36989 0.83830
 C655 C 0.93639 0.39424 0.79403
 C656 C 0.92543 0.41497 0.78212
 H657 H 0.95053 0.34349 0.77137
 H658 H 0.96822 0.30049 0.79680
 H659 H 0.96642 0.34616 0.87606
 H660 H 0.94830 0.38914 0.84998
 C661 C 0.02703 1.16316 0.82240
 C662 C 0.03630 1.17100 0.84912
 C663 C 0.02681 1.19701 0.86054
 C664 C 0.00807 1.21572 0.84528
 C665 C -0.00161 1.20725 0.81868
 C666 C 0.00789 1.18124 0.80732
 C667 C 0.03806 1.13714 0.80996
 C668 C 0.04802 1.11573 0.79933
 H669 H 0.05117 1.15717 0.86097
 H670 H 0.03471 1.20253 0.88099
 H671 H -0.01669 1.22059 0.80664
 H672 H 0.00047 1.17534 0.78666
 C673 C 0.52884 0.66837 0.32178
 C674 C 0.52990 0.69426 0.30560
 C675 C 0.51810 0.71938 0.31712
 C676 C 0.50482 0.71903 0.34505
 C677 C 0.50446 0.69288 0.36127
 C678 C 0.51625 0.66777 0.34969
 C679 C 0.54108 0.64256 0.30987
 C680 C 0.55171 0.62116 0.29975
 H681 H 0.53994 0.69506 0.28409
 H682 H 0.51983 0.73909 0.30417
 H683 H 0.49489 0.69143 0.38279
 H684 H 0.51552 0.64787 0.36252
 C685 C 0.52639 0.37318 0.18717
 C686 C 0.52091 0.34828 0.20407
 C687 C 0.51325 0.32328 0.19113
 C688 C 0.51073 0.32289 0.16099
 C689 C 0.51631 0.34821 0.14434
 C690 C 0.52388 0.37311 0.15731
 C691 C 0.53736 0.39794 0.19987
 C692 C 0.54808 0.41833 0.20969
 H693 H 0.52343 0.34793 0.22716
 H694 H 0.51049 0.30424 0.20483
 H695 H 0.51549 0.34852 0.12106
 H696 H 0.52862 0.39209 0.14393
 C697 C 0.02380 0.86946 0.68282
 C698 C 0.03066 0.86705 0.65346
 C699 C 0.02324 0.84277 0.63942
 C700 C 0.00919 0.81984 0.65452
 C701 C 0.00103 0.82339 0.68395
 C702 C 0.00863 0.84783 0.69796
 C703 C 0.03405 0.89346 0.69735
 C704 C 0.04447 0.91335 0.70836
 H705 H 0.04223 0.88379 0.64144
 H706 H 0.02897 0.84165 0.61661
 H707 H -0.01134 0.80776 0.69650
 H708 H 0.00289 0.84971 0.72068
 C709 C 0.94802 0.66896 0.67287
 C710 C 0.95004 0.69248 0.69011
 C711 C 0.96281 0.71752 0.67888
 C712 C 0.97387 0.71967 0.64996
 C713 C 0.97177 0.69534 0.63310
 C714 C 0.95904 0.67042 0.64446
 C715 C 0.93377 0.64360 0.68382
 C716 C 0.92148 0.62233 0.69234
 H717 H 0.94131 0.69167 0.71215
 H718 H 0.96277 0.73535 0.69291
 H719 H 0.97993 0.69471 0.61112
 H720 H 0.95760 0.65227 0.63089
 C721 C 0.44901 0.16899 0.17935
 C722 C 0.43990 0.19533 0.19039
 C723 C 0.45367 0.22043 0.18094
 C724 C 0.47667 0.21945 0.16025
 C725 C 0.48606 0.19282 0.14977
 C726 C 0.47230 0.16776 0.15926
 C727 C 0.43373 0.14343 0.18774
 C728 C 0.42053 0.12218 0.19439
 H729 H 0.42180 0.19654 0.20585
 H730 H 0.44565 0.24066 0.18907
 H731 H 0.50396 0.19136 0.13412
 H732 H 0.47956 0.14749 0.15060
 C733 C 0.31308 0.44355 -0.12601
 C734 C 0.34256 0.44842 -0.12592
 C735 C 0.35699 0.45947 -0.15075
 C736 C 0.34216 0.46616 -0.17613
 C737 C 0.31241 0.46090 -0.17595
 C738 C 0.29804 0.44982 -0.15102
 C739 C 0.29864 0.43075 -0.10087
 C740 C 0.28690 0.41937 -0.07995
 H741 H 0.35451 0.44328 -0.10677
 H742 H 0.37997 0.46248 -0.15029
 H743 H 0.30008 0.46443 -0.19496
 H744 H 0.27527 0.44565 -0.15143
 C745 C 0.81270 0.94258 0.36794
 C746 C 0.84161 0.94942 0.36947
 C747 C 0.85697 0.95969 0.34484
 C748 C 0.84358 0.96378 0.31824
 C749 C 0.81453 0.95620 0.31692
 C750 C 0.79922 0.94591 0.34163
 C751 C 0.79733 0.93080 0.39305
 C752 C 0.78479 0.92031 0.41399
 H753 H 0.85243 0.94643 0.38962
 H754 H 0.87953 0.96417 0.34650
 H755 H 0.80359 0.95733 0.29688
 H756 H 0.77698 0.94007 0.34010
 C757 C 0.82715 0.02437 1.16145
 C758 C 0.81140 0.00571 1.17994
 C759 C 0.82297 -0.00494 1.20566
 C760 C 0.85047 0.00310 1.21347
 C761 C 0.86641 0.02123 1.19421
 C762 C 0.85477 0.03187 1.16850
 C763 C 0.81447 0.03681 1.13593
 C764 C 0.80357 0.04794 1.11502
 H765 H 0.79004 -0.00038 1.17463
 H766 H 0.81031 -0.01957 1.21930
 H767 H 0.88761 0.02783 1.19902
 H768 H 0.86718 0.04631 1.15433
 C769 C 0.32344 0.52709 0.66743
 C770 C 0.30859 0.50742 0.68557
 C771 C 0.32047 0.49709 0.71126
 C772 C 0.34738 0.50645 0.71934
 C773 C 0.36243 0.52569 0.70052
 C774 C 0.35049 0.53602 0.67483
 C775 C 0.31045 0.53892 0.64181
 C776 C 0.29931 0.54941 0.62074
 H777 H 0.28769 0.50023 0.68000
 H778 H 0.30856 0.48165 0.72465
 H779 H 0.38313 0.53335 0.70573
 H780 H 0.36219 0.55127 0.66094
 C781 C 0.18319 0.52509 0.37405
 C782 C 0.19734 0.52774 0.34691
 C783 C 0.18372 0.51988 0.32234
 C784 C 0.15583 0.50876 0.32454
 C785 C 0.14179 0.50640 0.35208
 C786 C 0.15547 0.51426 0.37659
 C787 C 0.19579 0.53627 0.39879
 C788 C 0.20561 0.54707 0.41916
 H789 H 0.21854 0.53679 0.34460
 H790 H 0.19470 0.52339 0.30150
 H791 H 0.11980 0.49956 0.35476
 H792 H 0.14401 0.51284 0.39741
 C793 C 0.68517 0.02842 0.87014
 C794 C 0.70069 0.02629 0.84378
 C795 C 0.68700 0.01809 0.81934
 C796 C 0.65754 0.01153 0.82100
 C797 C 0.64223 0.01394 0.84775
 C798 C 0.65597 0.02208 0.87208
 C799 C 0.69831 0.03969 0.89453
 C800 C 0.70845 0.05042 0.91476
 H801 H 0.72318 0.03183 0.84190
 H802 H 0.69940 0.01806 0.79911
 H803 H 0.61934 0.01025 0.84968
 H804 H 0.64358 0.02425 0.89223
 C805 C 0.67453 0.94996 0.66762
 C806 C 0.68606 0.94189 0.69420
 C807 C 0.67629 0.95548 0.71919
 C808 C 0.65480 0.97732 0.71790
 C809 C 0.64365 0.98553 0.69105
 C810 C 0.65346 0.97195 0.66608
 C811 C 0.68369 0.93512 0.64213
 C812 C 0.69113 0.92233 0.62093
 H813 H 0.70227 0.92479 0.69567
 H814 H 0.68495 0.94829 0.73960
 H815 H 0.62741 1.00248 0.68931
 H816 H 0.64440 0.97841 0.64562
 C817 C 0.17839 0.44681 0.17241
 C818 C 0.18778 0.43786 0.19965
 C819 C 0.17726 0.45174 0.22420
 C820 C 0.15713 0.47473 0.22177
 C821 C 0.14821 0.48389 0.19426
 C822 C 0.15878 0.47000 0.16974
 C823 C 0.18814 0.43161 0.14734
 C824 C 0.19601 0.41857 0.12644
 H825 H 0.20286 0.41984 0.20197
 H826 H 0.18417 0.44387 0.24512
 H827 H 0.13303 0.50176 0.19169
 H828 H 0.15141 0.47714 0.14875
 C829 C -0.13122 0.30988 0.44537
 C830 C -0.13003 0.33894 0.45090
 C831 C -0.15438 0.35357 0.46205
 C832 C -0.18036 0.33932 0.46833
 C833 C -0.18130 0.31001 0.46242
 C834 C -0.15684 0.29543 0.45122
 C835 C -0.10663 0.29548 0.43204
 C836 C -0.08606 0.28404 0.42015
 H837 H -0.11043 0.35047 0.44600
 H838 H -0.15309 0.37629 0.46524
 H839 H -0.20093 0.29832 0.46537
 H840 H -0.15813 0.27303 0.44646
 C841 C 0.37062 0.80748 0.94433
 C842 C 0.36766 0.81585 0.97285
 C843 C 0.34372 0.83256 0.98187
 C844 C 0.32277 0.84229 0.96215
 C845 C 0.32504 0.83137 0.93412
 C846 C 0.34893 0.81466 0.92524
 C847 C 0.39625 0.79241 0.93410
 C848 C 0.41767 0.78057 0.92429
 H849 H 0.38398 0.80970 0.98806
 H850 H 0.34188 0.83800 1.00430
 H851 H 0.30850 0.83584 0.91875
 H852 H 0.35063 0.80759 0.90330
 C853 C 1.17200 0.82530 0.02626
 C854 C 1.17167 0.85316 0.01413
 C855 C 1.19719 0.86527 0.00305
 C856 C 1.22378 0.84970 0.00391
 C857 C 1.22354 0.82148 0.01616
 C858 C 1.19797 0.80951 0.02723
 C859 C 1.14583 0.81301 0.03821
 C860 C 1.12424 0.80250 0.04874
 H861 H 1.15161 0.86553 0.01307
 H862 H 1.19539 0.88642 -0.00713
 H863 H 1.24316 0.80867 0.01828
 H864 H 1.19852 0.78796 0.03681
 C865 C 0.66249 0.32251 0.52939
 C866 C 0.68121 0.30652 0.51151
 C867 C 0.70732 0.31784 0.50109
 C868 C 0.71525 0.34535 0.50856
 C869 C 0.69592 0.36141 0.52612
 C870 C 0.66982 0.35003 0.53653
 C871 C 0.63630 0.31029 0.54130
 C872 C 0.61476 0.29983 0.55199
 H873 H 0.67571 0.28522 0.50575
 H874 H 0.72111 0.30507 0.48696
 H875 H 0.70093 0.38258 0.53233
 H876 H 0.65550 0.36259 0.55042
 C877 C 0.36468 0.18668 0.53332
 C878 C 0.36516 0.15721 0.52949
 C879 C 0.34063 0.14410 0.52081
 C880 C 0.31510 0.16021 0.51557
 C881 C 0.31491 0.18998 0.51953
 C882 C 0.33957 0.20305 0.52829
 C883 C 0.38938 0.19957 0.54437
 C884 C 0.40992 0.20950 0.55483
 H885 H 0.38437 0.14424 0.53371
 H886 H 0.34144 0.12113 0.51844
 H887 H 0.29589 0.20338 0.51664
 H888 H 0.33886 0.22586 0.53165
 C889 C 0.87702 0.68594 0.02281
 C890 C 0.87985 0.65769 0.01418
 C891 C 0.85570 0.64325 0.00646
 C892 C 0.82823 0.65698 0.00669
 C893 C 0.82569 0.68546 0.01554
 C894 C 0.84993 0.69986 0.02331
 C895 C 0.90128 0.69936 0.03416
 C896 C 0.92133 0.70967 0.04514
 H897 H 0.90059 0.64644 0.01444
 H898 H 0.85848 0.62094 0.00137
 H899 H 0.80487 0.69635 0.01759
 H900 H 0.84736 0.72150 0.03070
 C901 C 0.67260 0.67595 0.95186
 C902 C 0.69341 0.69440 0.96037
 C903 C 0.71855 0.68329 0.97271
 C904 C 0.72354 0.65339 0.97646
 C905 C 0.70168 0.63527 0.96865
 C906 C 0.67665 0.64644 0.95638
 C907 C 0.64747 0.68692 0.93758
 C908 C 0.62648 0.69522 0.92497
 H909 H 0.69036 0.71738 0.95721
 H910 H 0.73386 0.69840 0.97920
 H911 H 0.70353 0.61232 0.97128
 H912 H 0.66058 0.63193 0.95001
 C913 C 0.16445 0.17954 0.44825
 C914 C 0.19017 0.19436 0.44569
 C915 C 0.21435 0.18383 0.46008
 C916 C 0.21312 0.15828 0.47732
 C917 C 0.18701 0.14378 0.47985
 C918 C 0.16288 0.15435 0.46550
 C919 C 0.13992 0.18953 0.43244
 C920 C 0.11933 0.19741 0.41902
 H921 H 0.19169 0.21377 0.43217
 H922 H 0.23418 0.19526 0.45685
 H923 H 0.18505 0.12417 0.49274
 H924 H 0.14309 0.14265 0.46757
 C925 C 0.56595 0.09721 0.71691
 C926 C 0.57380 0.09897 0.74539
 C927 C 0.58673 0.07538 0.75968
 C928 C 0.59250 0.04935 0.74569
 C929 C 0.58302 0.04760 0.71730
 C930 C 0.57014 0.07136 0.70306
 C931 C 0.55495 0.12237 0.70161
 C932 C 0.54656 0.14377 0.68875
 H933 H 0.57028 0.11877 0.75651
 H934 H 0.59175 0.07789 0.78189
 H935 H 0.58649 0.02861 0.70513
 H936 H 0.56405 0.06975 0.68095
 C937 C 1.07568 0.60069 0.21307
 C938 C 1.06222 0.57426 0.21360
 C939 C 1.07403 0.55053 0.22889
 C940 C 1.09939 0.55307 0.24389
 C941 C 1.11282 0.57969 0.24297
 C942 C 1.10102 0.60327 0.22772
 C943 C 1.06402 0.62524 0.19727
 C944 C 1.05518 0.64624 0.18404
 H945 H 1.04260 0.57201 0.20226
 H946 H 1.06309 0.53041 0.22937
 H947 H 1.13271 0.58225 0.25371
 H948 H 1.11177 0.62353 0.22727
 C949 C 0.94938 0.89682 0.21182
 C950 C 0.94187 0.89231 0.24105
 C951 C 0.92604 0.91326 0.25598
 C952 C 0.91720 0.93931 0.24194
 C953 C 0.92595 0.94392 0.21259
 C954 C 0.94174 0.92279 0.19772
 C955 C 0.96307 0.87397 0.19595
 C956 C 0.97341 0.85429 0.18264
 H957 H 0.94781 0.87232 0.25225
 H958 H 0.92113 0.90889 0.27868
 H959 H 0.91930 0.96292 0.20026
 H960 H 0.94722 0.92639 0.17495
 C961 C 0.44696 0.39840 0.71616
 C962 C 0.44538 0.39712 0.74632
 C963 C 0.42993 0.41830 0.76132
 C964 C 0.41577 0.44101 0.74630
 C965 C 0.41838 0.44275 0.71602
 C966 C 0.43382 0.42148 0.70104
 C967 C 0.45987 0.37483 0.70080
 C968 C 0.46946 0.35456 0.68792
 H969 H 0.45540 0.37933 0.75825
 H970 H 0.42861 0.41662 0.78467
 H971 H 0.40742 0.45976 0.70386
 H972 H 0.43472 0.42255 0.67767
 C973 C 0.45209 0.57989 0.78898
 C974 C 0.44970 0.55823 0.81061
 C975 C 0.43237 0.53493 0.80707
 C976 C 0.41711 0.53293 0.78180
 C977 C 0.42058 0.55410 0.75961
 C978 C 0.43786 0.57759 0.76326
 C979 C 0.46704 0.60538 0.79474
 C980 C 0.47870 0.62649 0.80183
 H981 H 0.46056 0.55979 0.83063
 H982 H 0.43045 0.51871 0.82436
 H983 H 0.40892 0.55326 0.74010
 H984 H 0.43939 0.59435 0.74645
 C985 C -0.04920 0.07957 0.28282
 C986 C -0.05003 0.05768 0.30432
 C987 C -0.06614 0.03346 0.30096
 C988 C -0.08166 0.03076 0.27598
 C989 C -0.07976 0.05222 0.25391
 C990 C -0.06371 0.07662 0.25737
 C991 C -0.03568 0.10591 0.28849
 C992 C -0.02518 0.12768 0.29549
 H993 H -0.03898 0.05977 0.32415
 H994 H -0.06705 0.01711 0.31819
 H995 H -0.09184 0.05092 0.23472
 H996 H -0.06345 0.09355 0.24070
 C997 C 0.05512 0.40117 0.27593
 C998 C 0.04964 0.41989 0.29838
 C999 C 0.06286 0.44633 0.29770
 C1000 C 0.08177 0.45438 0.27452
 C1001 C 0.08558 0.43638 0.25107
 C1002 C 0.07245 0.40980 0.25188
 C1003 C 0.04667 0.37187 0.27997
 C1004 C 0.04113 0.34719 0.28567
 H1005 H 0.03645 0.41337 0.31721
 H1006 H 0.05948 0.45989 0.31596
 H1007 H 0.10031 0.44184 0.23310
 H1008 H 0.07713 0.39536 0.23453
 C1009 C 0.55924 0.89824 0.78048
 C1010 C 0.57477 0.90691 0.75523
 C1011 C 0.58726 0.93383 0.75311
 C1012 C 0.58461 0.95211 0.77641
 C1013 C 0.56760 0.94389 0.80096
 C1014 C 0.55499 0.91713 0.80295
 C1015 C 0.55121 0.86890 0.78540
 C1016 C 0.54593 0.84430 0.79181
 H1017 H 0.57848 0.89233 0.73785
 H1018 H 0.60059 0.93947 0.73412
 H1019 H 0.56517 0.95766 0.81913
 H1020 H 0.54320 0.91059 0.82267
 C1021 C 0.72061 0.57181 0.10136
 C1022 C 0.72212 0.55787 0.07521
 C1023 C 0.73734 0.56991 0.05118
 C1024 C 0.75124 0.59600 0.05311
 C1025 C 0.74958 0.60976 0.07953
 C1026 C 0.73442 0.59773 0.10343
 C1027 C 0.70430 0.56025 0.12600
 C1028 C 0.69041 0.55156 0.14694
 H1029 H 0.71145 0.53780 0.07336
 H1030 H 0.73846 0.55866 0.03125
 H1031 H 0.75949 0.63017 0.08162
 H1032 H 0.73320 0.60883 0.12347
 C1033 C 0.21133 1.06170 0.59430
 C1034 C 0.19598 1.07376 0.57130
 C1035 C 0.21059 1.08719 0.54771
 C1036 C 0.24072 1.08897 0.54690
 C1037 C 0.25605 1.07536 0.56941
 C1038 C 0.24144 1.06193 0.59299
 C1039 C 0.19611 1.05125 0.62014
 C1040 C 0.18305 1.04359 0.64201
 H1041 H 0.17265 1.07376 0.57210
 H1042 H 0.19811 1.09747 0.53101
 H1043 H 0.27933 1.07584 0.56923
 H1044 H 0.25358 1.05258 0.61060
 C1045 C 0.21332 0.94428 0.89413
 C1046 C 0.20954 0.95007 0.92336
 C1047 C 0.22556 0.93451 0.94394
 C1048 C 0.24568 0.91272 0.93559
 C1049 C 0.24921 0.90757 0.90581
 C1050 C 0.23327 0.92314 0.88548
 C1051 C 0.19600 0.95869 0.87272
 C1052 C 0.18176 0.96913 0.85368
 H1053 H 0.19412 0.96650 0.93029
 H1054 H 0.22231 0.94036 0.96610
 H1055 H 0.26330 0.89060 0.89782
 H1056 H 0.23611 0.91821 0.86292
 C1057 C 0.71197 0.44220 0.39651
 C1058 C 0.71403 0.45248 0.42421
 C1059 C 0.72903 0.43630 0.44512
 C1060 C 0.74213 0.40973 0.43844
 C1061 C 0.73975 0.39963 0.41057
 C1062 C 0.72483 0.41575 0.38982
 C1063 C 0.69609 0.45793 0.37480
 C1064 C 0.68275 0.46943 0.35564
 H1065 H 0.70404 0.47291 0.42964
 H1066 H 0.73068 0.44472 0.46632
 H1067 H 0.74898 0.37897 0.40488
 H1068 H 0.72313 0.40745 0.36855
 C1069 C 0.78499 0.44983 0.57915
 C1070 C 0.75965 0.43468 0.57741
 C1071 C 0.75579 0.41797 0.55362
 C1072 C 0.77738 0.41604 0.53159
 C1073 C 0.80215 0.43233 0.53296
 C1074 C 0.80590 0.44910 0.55656
 C1075 C 0.79134 0.46373 0.60510
 C1076 C 0.79893 0.47447 0.62654
 H1077 H 0.74344 0.43488 0.59490
 H1078 H 0.73677 0.40535 0.55333
 H1079 H 0.81902 0.43138 0.51614
 H1080 H 0.82565 0.46063 0.55770
 C1081 C 0.28699 -0.04897 0.07356
 C1082 C 0.26015 -0.05911 0.06703
 C1083 C 0.25752 -0.07530 0.04259
 C1084 C 0.28191 -0.08203 0.02455
 C1085 C 0.30849 -0.07049 0.03096
 C1086 C 0.31093 -0.05423 0.05514
 C1087 C 0.29113 -0.03492 0.09998
 C1088 C 0.29727 -0.02399 0.12186
 H1089 H 0.24147 -0.05531 0.08128
 H1090 H 0.23670 -0.08401 0.03933
 H1091 H 0.32764 -0.07363 0.01725
 H1092 H 0.33179 -0.04625 0.05981
 C1093 C 0.27478 0.07146 0.39133
 C1094 C 0.26201 0.05699 0.41548
 C1095 C 0.26102 0.06952 0.44247
 C1096 C 0.27322 0.09632 0.44547
 C1097 C 0.28531 0.11083 0.42092
 C1098 C 0.28610 0.09848 0.39416
 C1099 C 0.27831 0.05871 0.36368
 C1100 C 0.28386 0.05036 0.33981
 H1101 H 0.25326 0.03600 0.41354
 H1102 H 0.25142 0.05805 0.46106
 H1103 H 0.29411 0.13186 0.42237
 H1104 H 0.29597 0.10990 0.37566
 C1105 C 0.78455 0.55281 0.90083
 C1106 C 0.80693 0.54894 0.91995
 C1107 C 0.80543 0.56264 0.94615
 C1108 C 0.78151 0.58041 0.95352
 C1109 C 0.75833 0.58267 0.93507
 C1110 C 0.75989 0.56904 0.90880
 C1111 C 0.78908 0.54413 0.87159
 C1112 C 0.79477 0.53869 0.84681
 H1113 H 0.82626 0.53668 0.91390
 H1114 H 0.82358 0.56055 0.96000
 H1115 H 0.74002 0.59669 0.93978
 H1116 H 0.74263 0.57256 0.89401
 C1117 C 0.09278 0.71379 0.56629
 C1118 C 0.09520 0.74268 0.57183
 C1119 C 0.07161 0.75820 0.58337
 C1120 C 0.04494 0.74510 0.58994
 C1121 C 0.04248 0.71625 0.58266
 C1122 C 0.06625 0.70075 0.57119
 C1123 C 0.11798 0.69735 0.55712
 C1124 C 0.13953 0.68383 0.55022
 H1125 H 0.11554 0.75315 0.56775
 H1126 H 0.07453 0.78061 0.58691
 H1127 H 0.02299 0.70474 0.58727
 H1128 H 0.06414 0.67832 0.56694
 C1129 C 0.60119 0.21393 1.07612
 C1130 C 0.60423 0.22787 1.10179
 C1131 C 0.58087 0.24288 1.11440
 C1132 C 0.55401 0.24430 1.10148
 C1133 C 0.55102 0.23008 1.07576
 C1134 C 0.57452 0.21501 1.06312
 C1135 C 0.62551 0.19829 1.06367
 C1136 C 0.64634 0.18521 1.05416
 H1137 H 0.62468 0.22699 1.11217
 H1138 H 0.58379 0.25299 1.13456
 H1139 H 0.53070 0.23094 1.06520
 H1140 H 0.57191 0.20424 1.04326
 C1141 C 0.89927 0.21378 0.94497
 C1142 C 0.89803 0.24373 0.94294
 C1143 C 0.91954 0.25863 0.92721
 C1144 C 0.94254 0.24372 0.91324
 C1145 C 0.94413 0.21367 0.91621
 C1146 C 0.92256 0.19880 0.93193
 C1147 C 0.87558 0.19841 0.95846
 C1148 C 0.85530 0.18539 0.96862
 H1149 H 0.88007 0.25554 0.95289
 H1150 H 0.91794 0.28179 0.92561
 H1151 H 0.96132 0.20157 0.90537
 H1152 H 0.92360 0.17560 0.93317
 C1153 C 0.39315 0.71401 0.44862
 C1154 C 0.39099 0.74385 0.44517
 C1155 C 0.41193 0.75868 0.42854
 C1156 C 0.43525 0.74380 0.41497
 C1157 C 0.43785 0.71397 0.41965
 C1158 C 0.41688 0.69916 0.43627
 C1159 C 0.36983 0.69844 0.46253
 C1160 C 0.34986 0.68509 0.47286
 H1161 H 0.37271 0.75559 0.45462
 H1162 H 0.40956 0.78174 0.42586
 H1163 H 0.45524 0.70185 0.40944
 H1164 H 0.41867 0.67602 0.43865
 C1165 C 0.57605 0.78848 0.44577
 C1166 C 0.57271 0.76275 0.43209
 C1167 C 0.54848 0.75912 0.41584
 C1168 C 0.52758 0.78135 0.41295
 C1169 C 0.53074 0.80673 0.42750
 C1170 C 0.55479 0.81024 0.44378
 C1171 C 0.60201 0.79392 0.46016
 C1172 C 0.62343 0.80072 0.47155
 H1173 H 0.58914 0.74584 0.43333
 H1174 H 0.54672 0.73947 0.40462
 H1175 H 0.51477 0.82404 0.42599
 H1176 H 0.55715 0.83026 0.45424
 C1177 C 0.08260 0.28535 -0.05088
 C1178 C 0.07948 0.25951 -0.06444
 C1179 C 0.05606 0.25614 -0.08185
 C1180 C 0.03577 0.27868 -0.08610
 C1181 C 0.03861 0.30415 -0.07156
 C1182 C 0.06185 0.30743 -0.05412
 C1183 C 0.10800 0.29054 -0.03550
 C1184 C 0.12909 0.29711 -0.02342
 H1185 H 0.09552 0.24233 -0.06224
 H1186 H 0.05458 0.23644 -0.09290
 H1187 H 0.02306 0.32173 -0.07403
 H1188 H 0.06405 0.32753 -0.04376
 C1189 C 0.40120 0.27754 0.06161
 C1190 C 0.40973 0.25300 0.07777
 C1191 C 0.43647 0.25175 0.09058
 C1192 C 0.45472 0.27523 0.08761
 C1193 C 0.44672 0.29902 0.06989
 C1194 C 0.42013 0.30014 0.05699
 C1195 C 0.37183 0.28165 0.05334
 C1196 C 0.34713 0.28731 0.04786
 H1197 H 0.39513 0.23551 0.08177
 H1198 H 0.44190 0.23331 0.10441
 H1199 H 0.46046 0.31731 0.06717
 H1200 H 0.41369 0.31933 0.04469
 C1201 C 0.89552 0.78323 0.55825
 C1202 C 0.91163 0.80766 0.56056
 C1203 C 0.93834 0.80568 0.57314
 C1204 C 0.94958 0.77911 0.58387
 C1205 C 0.93392 0.75429 0.57957
 C1206 C 0.90698 0.75644 0.56714
 C1207 C 0.86619 0.78663 0.54967
 C1208 C 0.84148 0.79179 0.54390
 H1209 H 0.90307 0.82852 0.55356
 H1210 H 0.94998 0.82521 0.57465
 H1211 H 0.94102 0.73338 0.58774
 H1212 H 0.89456 0.73737 0.56564
   
