data_POSCAR
  _audit_creation_date              2014-09-24
  _audit_creation_method            'ToBaCCo'
  _symmetry_space_group_name_H-M    'P1'
  _symmetry_Int_Tables_number       1
  _symmetry_cell_setting            triclinic
  loop_
  _symmetry_equiv_pos_as_xyz
 x,y,z
_cell_length_a 32.0665
_cell_length_b 31.9002
_cell_length_c 32.1046
_cell_angle_alpha 89.944900
_cell_angle_beta 89.970400
_cell_angle_gamma 90.113300
loop_
  _atom_site_label
  _atom_site_type_symbol
  _atom_site_fract_x
  _atom_site_fract_y
  _atom_site_fract_z
N1 N 0.31007 0.24696 0.18952
 N2 N 0.28781 0.28006 0.17956
 C3 C 0.30311 0.29706 0.14432
 C4 C 0.33713 0.27378 0.13186
 C5 C 0.34074 0.24218 0.16125
 H6 H 0.28954 0.32341 0.12803
 H7 H 0.36223 0.21610 0.16056
 Cu8 Cu 0.23928 0.29625 0.21178
 Cu9 Cu 0.29412 0.20939 0.23491
 Cu10 Cu 0.20017 0.23083 0.28378
 N11 N 0.18382 0.30421 0.23456
 N12 N 0.16874 0.27844 0.26277
 C13 C 0.12985 0.29043 0.27285
 C14 C 0.12008 0.32560 0.24984
 C15 C 0.15504 0.33360 0.22572
 H16 H 0.10997 0.27469 0.29517
 H17 H 0.15919 0.35848 0.20321
 N18 N 0.23646 0.18410 0.30044
 N19 N 0.27196 0.17542 0.28148
 C20 C 0.28788 0.14008 0.29806
 C21 C 0.26134 0.12621 0.32907
 C22 C 0.22909 0.15486 0.32980
 H23 H 0.31624 0.12494 0.28786
 H24 H 0.20152 0.15356 0.34913
 H25 H 0.23154 0.22227 0.22796
 H26 H 0.25996 0.25131 0.26979
 N27 N 0.69506 -0.24308 0.18195
 N28 N 0.71869 -0.27423 0.16933
 C29 C 0.70148 -0.29168 0.13523
 C30 C 0.66504 -0.27056 0.12612
 C31 C 0.66164 -0.24004 0.15670
 H32 H 0.71516 -0.31682 0.11728
 H33 H 0.63844 -0.21558 0.15873
 Cu34 Cu 0.77122 -0.28721 0.19685
 Cu35 Cu 0.71341 -0.20470 0.22555
 Cu36 Cu 0.80268 -0.23123 0.28002
 N37 N 0.82239 -0.30065 0.22651
 N38 N 0.83453 -0.27842 0.25878
 C39 C 0.87122 -0.29326 0.27264
 C40 C 0.88259 -0.32678 0.24801
 C41 C 0.85083 -0.33077 0.21899
 H42 H 0.88854 -0.28052 0.29864
 H43 H 0.84886 -0.35327 0.19392
 N44 N 0.76628 -0.18437 0.29629
 N45 N 0.73255 -0.17372 0.27523
 C46 C 0.71651 -0.13861 0.29210
 C47 C 0.74119 -0.12678 0.32533
 C48 C 0.77243 -0.15651 0.32719
 H49 H 0.68954 -0.12202 0.28045
 H50 H 0.79873 -0.15671 0.34821
 H51 H 0.77734 -0.21574 0.22358
 H52 H 0.74509 -0.25036 0.25775
 N53 N 0.69348 0.24175 0.80787
 N54 N 0.71377 0.27684 0.81516
 C55 C 0.69941 0.29406 0.85066
 C56 C 0.66793 0.26881 0.86603
 C57 C 0.66492 0.23586 0.83811
 H58 H 0.71175 0.32219 0.86490
 H59 H 0.64532 0.20839 0.84103
 Cu60 Cu 0.75849 0.29559 0.77889
 Cu61 Cu 0.70959 0.20359 0.76308
 Cu62 Cu 0.79978 0.22933 0.70913
 N63 N 0.81212 0.30668 0.75314
 N64 N 0.82867 0.28008 0.72665
 C65 C 0.86709 0.29345 0.71613
 C66 C 0.87495 0.33051 0.73697
 C67 C 0.83923 0.33815 0.76015
 H68 H 0.88816 0.27699 0.69556
 H69 H 0.83394 0.36341 0.78193
 N70 N 0.76596 0.17948 0.69605
 N71 N 0.73181 0.16937 0.71681
 C72 C 0.71715 0.13266 0.70205
 C73 C 0.74306 0.11933 0.67035
 C74 C 0.77367 0.14975 0.66732
 H75 H 0.68998 0.11637 0.71381
 H76 H 0.80027 0.14959 0.64663
 H77 H 0.77122 0.22168 0.76653
 H78 H 0.73919 0.24600 0.72434
 N79 N 0.30371 -0.24245 0.81116
 N80 N 0.28310 -0.27731 0.81875
 C81 C 0.29758 -0.29461 0.85419
 C82 C 0.32946 -0.26966 0.86916
 C83 C 0.33257 -0.23681 0.84109
 H84 H 0.28513 -0.32262 0.86863
 H85 H 0.35251 -0.20956 0.84369
 Cu86 Cu 0.23800 -0.29573 0.78278
 Cu87 Cu 0.28779 -0.20419 0.76641
 Cu88 Cu 0.19738 -0.22915 0.71275
 N89 N 0.18436 -0.30641 0.75684
 N90 N 0.16813 -0.27967 0.73026
 C91 C 0.12977 -0.29287 0.71939
 C92 C 0.12163 -0.33000 0.74005
 C93 C 0.15709 -0.33784 0.76353
 H94 H 0.10898 -0.27632 0.69860
 H95 H 0.16214 -0.36328 0.78521
 N96 N 0.23151 -0.17955 0.69959
 N97 N 0.26578 -0.16975 0.72022
 C98 C 0.28071 -0.13315 0.70538
 C99 C 0.25484 -0.11958 0.67377
 C100 C 0.22398 -0.14973 0.67086
 H101 H 0.30805 -0.11711 0.71703
 H102 H 0.19735 -0.14934 0.65024
 H103 H 0.22601 -0.22172 0.77013
 H104 H 0.25778 -0.24646 0.72797
 N105 N 0.69717 -0.23736 0.82275
 N106 N 0.71823 -0.27117 0.83287
 C107 C 0.70371 -0.28609 0.86936
 C108 C 0.67162 -0.26045 0.88247
 C109 C 0.66830 -0.22979 0.85218
 H110 H 0.71573 -0.31337 0.88535
 H111 H 0.64730 -0.20332 0.85204
 Cu112 Cu 0.76284 -0.29212 0.79772
 Cu113 Cu 0.71012 -0.20437 0.77353
 Cu114 Cu 0.79787 -0.23318 0.71783
 N115 N 0.81584 -0.30366 0.77089
 N116 N 0.82967 -0.28031 0.74004
 C117 C 0.86755 -0.29418 0.72844
 C118 C 0.87792 -0.32812 0.75317
 C119 C 0.84428 -0.33336 0.77983
 H120 H 0.88637 -0.28045 0.70398
 H121 H 0.84093 -0.35628 0.80444
 N122 N 0.76123 -0.18643 0.70090
 N123 N 0.72831 -0.17501 0.72281
 C124 C 0.71197 -0.14008 0.70593
 C125 C 0.73535 -0.12922 0.67155
 C126 C 0.76636 -0.15925 0.66911
 H127 H 0.68583 -0.12283 0.71845
 H128 H 0.79205 -0.15983 0.64729
 H129 H 0.73935 -0.25036 0.73849
 H130 H 0.77284 -0.22001 0.77550
 N131 N 0.30030 0.23605 0.82560
 N132 N 0.27893 0.26959 0.83589
 C133 C 0.29342 0.28447 0.87237
 C134 C 0.32580 0.25906 0.88528
 C135 C 0.32930 0.22858 0.85489
 H136 H 0.28133 0.31166 0.88841
 H137 H 0.35069 0.20245 0.85446
 Cu138 Cu 0.23428 0.29050 0.80072
 Cu139 Cu 0.28806 0.20355 0.77602
 Cu140 Cu 0.20136 0.23283 0.71906
 N141 N 0.18187 0.30225 0.77281
 N142 N 0.16910 0.27965 0.74104
 C143 C 0.13149 0.29359 0.72870
 C144 C 0.12018 0.32674 0.75392
 C145 C 0.15290 0.33146 0.78167
 H146 H 0.11335 0.28028 0.70356
 H147 H 0.15510 0.35369 0.80697
 N148 N 0.23829 0.18625 0.70248
 N149 N 0.27077 0.17460 0.72490
 C150 C 0.28719 0.13961 0.70828
 C151 C 0.26432 0.12894 0.67357
 C152 C 0.23353 0.15916 0.67063
 H153 H 0.31295 0.12212 0.72127
 H154 H 0.20812 0.15983 0.64852
 H155 H 0.25924 0.25001 0.74122
 H156 H 0.22516 0.21875 0.77702
 N157 N 0.29843 -0.23211 0.17950
 N158 N 0.27496 -0.26427 0.16906
 C159 C 0.28795 -0.27919 0.13200
 C160 C 0.32142 -0.25527 0.11883
 C161 C 0.32724 -0.22564 0.14972
 H162 H 0.27400 -0.30521 0.11552
 H163 H 0.34987 -0.20049 0.15005
 Cu164 Cu 0.22922 -0.28229 0.20474
 Cu165 Cu 0.28824 -0.19882 0.22922
 Cu166 Cu 0.20138 -0.22570 0.28786
 N167 N 0.18395 -0.30041 0.24104
 N168 N 0.17261 -0.27757 0.27319
 C169 C 0.13768 -0.29398 0.28992
 C170 C 0.12685 -0.32923 0.26740
 C171 C 0.15692 -0.33247 0.23662
 H172 H 0.12027 -0.28021 0.31530
 H173 H 0.15725 -0.35468 0.21121
 N174 N 0.23939 -0.17944 0.30315
 N175 N 0.27217 -0.16901 0.28044
 C176 C 0.28967 -0.13421 0.29653
 C177 C 0.26728 -0.12252 0.33125
 C178 C 0.23564 -0.15190 0.33471
 H179 H 0.31582 -0.11751 0.28313
 H180 H 0.21045 -0.15176 0.35709
 H181 H 0.25771 -0.24452 0.26382
 H182 H 0.22550 -0.21008 0.22959
 N183 N 0.70558 0.22839 0.17371
 N184 N 0.72580 0.26331 0.16545
 C185 C 0.71067 0.27985 0.12991
 C186 C 0.67915 0.25409 0.11552
 C187 C 0.67672 0.22169 0.14407
 H188 H 0.72194 0.30820 0.11521
 H189 H 0.65646 0.19460 0.14277
 Cu190 Cu 0.77104 0.28243 0.20116
 Cu191 Cu 0.72043 0.19238 0.22018
 Cu192 Cu 0.79487 0.22973 0.28899
 N193 N 0.81605 0.30063 0.23755
 N194 N 0.82577 0.27947 0.27135
 C195 C 0.86057 0.29604 0.28815
 C196 C 0.87295 0.32965 0.26394
 C197 C 0.84399 0.33173 0.23208
 H198 H 0.87672 0.28354 0.31498
 H199 H 0.84489 0.35255 0.20550
 N200 N 0.76031 0.17969 0.30043
 N201 N 0.73269 0.16502 0.27364
 C202 C 0.71676 0.12890 0.28845
 C203 C 0.73510 0.12037 0.32631
 C204 C 0.76259 0.15321 0.33310
 H205 H 0.69446 0.10932 0.27231
 H206 H 0.78421 0.15638 0.35872
 H207 H 0.73993 0.24158 0.25702
 H208 H 0.78199 0.21219 0.22934
 C209 C 0.25181 0.00140 0.39038
 C210 C 0.24606 0.03968 0.41090
 C211 C 0.24156 0.04016 0.45435
 C212 C 0.24624 0.00323 0.47830
 C213 C 0.25278 -0.03479 0.45666
 C214 C 0.25435 -0.03607 0.41306
 C215 C 0.24491 0.00437 0.52530
 C216 C 0.23878 -0.03260 0.54890
 C217 C 0.24122 -0.03229 0.59250
 C218 C 0.24623 0.00591 0.61337
 C219 C 0.25012 0.04344 0.59096
 C220 C 0.25051 0.04235 0.54733
 H221 H 0.25203 0.00066 0.35667
 H222 H 0.23447 0.06982 0.46884
 H223 H 0.25713 -0.06400 0.47306
 H224 H 0.23226 -0.06222 0.53402
 H225 H 0.24506 0.00655 0.64707
 H226 H 0.25585 0.07159 0.53124
 C227 C 0.75276 -0.00627 0.61053
 C228 C 0.75753 0.03188 0.58942
 C229 C 0.76030 0.03199 0.54584
 C230 C 0.75477 -0.00518 0.52242
 C231 C 0.74940 -0.04310 0.54471
 C232 C 0.74944 -0.04396 0.58837
 C233 C 0.75400 -0.00429 0.47536
 C234 C 0.75903 -0.04134 0.45167
 C235 C 0.75537 -0.04101 0.40815
 C236 C 0.75023 -0.00276 0.38734
 C237 C 0.74692 0.03480 0.40973
 C238 C 0.74765 0.03364 0.45337
 H239 H 0.75370 -0.00673 0.64424
 H240 H 0.76664 0.06160 0.53082
 H241 H 0.74456 -0.07250 0.52882
 H242 H 0.76574 -0.07098 0.46642
 H243 H 0.75090 -0.00219 0.35365
 H244 H 0.74281 0.06287 0.46952
 C245 C 0.39177 0.25396 0.00740
 C246 C 0.41606 0.25822 0.04344
 C247 C 0.45967 0.25728 0.04016
 C248 C 0.47963 0.25000 0.00152
 C249 C 0.45416 0.24382 -0.03381
 C250 C 0.41068 0.24741 -0.03138
 C251 C 0.52650 0.24914 -0.00198
 C252 C 0.54675 0.25550 -0.04064
 C253 C 0.59037 0.25502 -0.04389
 C254 C 0.61451 0.25042 -0.00777
 C255 C 0.59526 0.24436 0.03100
 C256 C 0.55168 0.24213 0.03337
 H257 H 0.35809 0.25353 0.00976
 H258 H 0.47749 0.26273 0.06817
 H259 H 0.46759 0.23617 -0.06370
 H260 H 0.52916 0.26132 -0.06873
 H261 H 0.64818 0.24924 -0.01005
 H262 H 0.53793 0.23492 0.06326
 C263 C 0.60781 0.74690 0.00558
 C264 C 0.58431 0.74394 0.04226
 C265 C 0.54064 0.74461 0.03999
 C266 C 0.51977 0.75029 0.00153
 C267 C 0.54452 0.75556 -0.03453
 C268 C 0.58806 0.75226 -0.03295
 C269 C 0.47276 0.75049 -0.00108
 C270 C 0.45189 0.74388 -0.03935
 C271 C 0.40822 0.74401 -0.04187
 C272 C 0.38461 0.74841 -0.00538
 C273 C 0.40441 0.75444 0.03309
 C274 C 0.44803 0.75706 0.03470
 H275 H 0.64153 0.74738 0.00727
 H276 H 0.52361 0.74017 0.06867
 H277 H 0.53055 0.76228 -0.06437
 H278 H 0.46896 0.73821 -0.06777
 H279 H 0.35092 0.74945 -0.00718
 H280 H 0.46210 0.76431 0.06438
 C281 C -0.00394 0.38806 0.24192
 C282 C 0.03441 0.40842 0.23589
 C283 C 0.03548 0.45226 0.23315
 C284 C -0.00071 0.47650 0.23962
 C285 C -0.03879 0.45515 0.24643
 C286 C -0.04072 0.41123 0.24676
 C287 C 0.00137 0.52362 0.23998
 C288 C -0.03448 0.54799 0.23212
 C289 C -0.03345 0.59176 0.23553
 C290 C 0.00452 0.61202 0.24366
 C291 C 0.04108 0.58876 0.24960
 C292 C 0.03911 0.54485 0.24871
 H293 H -0.00547 0.35418 0.24099
 H294 H 0.06501 0.46705 0.22614
 H295 H -0.06731 0.47218 0.25215
 H296 H -0.06366 0.53337 0.22353
 H297 H 0.00585 0.64593 0.24333
 H298 H 0.06737 0.52774 0.25539
 C299 C 0.00054 0.61224 0.76419
 C300 C 0.03770 0.58951 0.76020
 C301 C 0.03643 0.54562 0.76110
 C302 C -0.00127 0.52370 0.76798
 C303 C -0.03791 0.54759 0.77399
 C304 C -0.03750 0.59142 0.77035
 C305 C -0.00247 0.47645 0.76769
 C306 C -0.04010 0.45466 0.76018
 C307 C -0.04140 0.41079 0.75887
 C308 C -0.00434 0.38797 0.76316
 C309 C 0.03370 0.40867 0.76974
 C310 C 0.03410 0.45247 0.77375
 H311 H 0.00138 0.64617 0.76434
 H312 H 0.06528 0.52911 0.75563
 H313 H -0.06729 0.53261 0.78118
 H314 H -0.06886 0.47128 0.75455
 H315 H -0.00532 0.35405 0.76315
 H316 H 0.06342 0.46735 0.78128
 C317 C 0.35944 0.27794 0.09197
 C318 C 0.39642 0.25982 0.08516
 H319 H 0.34454 0.29582 0.06747
 H320 H 0.41269 0.24496 0.11077
 C321 C 0.64094 0.72383 0.09030
 C322 C 0.60513 0.74429 0.08337
 H323 H 0.65260 0.70255 0.06672
 H324 H 0.59091 0.76268 0.10788
 C325 C 0.64689 0.27323 -0.09342
 C326 C 0.60989 0.25538 -0.08570
 H327 H 0.66227 0.29154 -0.06952
 H328 H 0.59315 0.24024 -0.11088
 C329 C 0.35098 0.72578 -0.09055
 C330 C 0.38811 0.74358 -0.08338
 H331 H 0.33583 0.70753 -0.06642
 H332 H 0.40454 0.75867 -0.10883
 C333 C 0.08027 0.34839 0.25166
 C334 C 0.07382 0.38469 0.23175
 H335 H 0.05620 0.33539 0.27153
 H336 H 0.09899 0.39894 0.21421
 C337 C 0.08405 0.64783 0.73888
 C338 C 0.07861 0.61088 0.75802
 H339 H 0.05843 0.66150 0.72160
 H340 H 0.10483 0.59518 0.77241
 C341 C -0.08088 0.64992 0.25232
 C342 C -0.07226 0.61590 0.22941
 H343 H -0.05909 0.65966 0.27625
 H344 H -0.09498 0.60375 0.20757
 C345 C -0.08748 0.35271 0.73639
 C346 C -0.08230 0.38948 0.75591
 H347 H -0.06161 0.33919 0.71936
 H348 H -0.10872 0.40505 0.77006
 C349 C 0.26539 0.08712 0.35316
 C350 C 0.24256 0.07936 0.38729
 H351 H 0.28832 0.06451 0.34281
 H352 H 0.22215 0.10340 0.39951
 C353 C 0.73956 0.07958 0.64727
 C354 C 0.76127 0.07190 0.61243
 H355 H 0.71765 0.05646 0.65888
 H356 H 0.78060 0.09632 0.59904
 C357 C 0.25866 -0.07990 0.65058
 C358 C 0.23702 -0.07215 0.61573
 H359 H 0.28077 -0.05695 0.66206
 H360 H 0.21749 -0.09644 0.60245
 C361 C 0.73692 -0.08804 0.34990
 C362 C 0.75889 -0.08079 0.38468
 H363 H 0.71468 -0.06498 0.33902
 H364 H 0.77869 -0.10513 0.39734
 C365 C 0.64779 0.73542 -0.07856
 C366 C 0.61237 0.75654 -0.07185
 H367 H 0.65914 0.71347 -0.05546
 H368 H 0.59943 0.77584 -0.09641
 C369 C 0.35011 0.26353 -0.07612
 C370 C 0.38560 0.24243 -0.06966
 H371 H 0.33913 0.28581 -0.05318
 H372 H 0.39812 0.22274 -0.09410
 C373 C 0.34435 0.73996 0.07936
 C374 C 0.38034 0.76001 0.07198
 H375 H 0.33192 0.71829 0.05655
 H376 H 0.39414 0.77914 0.09618
 C377 C 0.65527 0.25953 0.07674
 C378 C 0.62000 0.23831 0.06933
 H379 H 0.66630 0.28260 0.05452
 H380 H 0.60729 0.21786 0.09314
 C381 C -0.08482 0.64928 0.75105
 C382 C -0.07711 0.61497 0.77403
 H383 H -0.06163 0.65986 0.72881
 H384 H -0.10106 0.60212 0.79414
 C385 C -0.08758 0.35306 0.26750
 C386 C -0.08182 0.39015 0.24876
 H387 H -0.06258 0.33903 0.28536
 H388 H -0.10798 0.40559 0.23395
 C389 C 0.08057 0.34999 0.75167
 C390 C 0.07335 0.38512 0.77338
 H391 H 0.05719 0.33829 0.73028
 H392 H 0.09792 0.39845 0.79235
 C393 C 0.08741 0.64725 0.27072
 C394 C 0.08220 0.60970 0.25285
 H395 H 0.06186 0.66179 0.28735
 H396 H 0.10881 0.59391 0.23925
 C397 C 0.73119 -0.09018 0.64747
 C398 C 0.74918 -0.08483 0.61025
 H399 H 0.71297 -0.06512 0.66108
 H400 H 0.76440 -0.11109 0.59524
 C401 C 0.27247 -0.08323 0.35465
 C402 C 0.25472 -0.07723 0.39186
 H403 H 0.29084 -0.05853 0.34044
 H404 H 0.23931 -0.10321 0.40730
 C405 C 0.73034 0.08113 0.35004
 C406 C 0.74620 0.07593 0.38824
 H407 H 0.71391 0.05562 0.33500
 H408 H 0.75980 0.10250 0.40428
 C409 C 0.26843 0.08979 0.64977
 C410 C 0.25065 0.08441 0.61250
 H411 H 0.28632 0.06464 0.66369
 H412 H 0.23576 0.11072 0.59722
   
