data_POSCAR
  _audit_creation_date              2014-09-24
  _audit_creation_method            'ToBaCCo'
  _symmetry_space_group_name_H-M    'P1'
  _symmetry_Int_Tables_number       1
  _symmetry_cell_setting            triclinic
  loop_
  _symmetry_equiv_pos_as_xyz
 x,y,z
_cell_length_a 40.2661
_cell_length_b 39.3928
_cell_length_c 7.3027
_cell_angle_alpha 89.529200
_cell_angle_beta 90.074300
_cell_angle_gamma 90.043100
loop_
  _atom_site_label
  _atom_site_type_symbol
  _atom_site_fract_x
  _atom_site_fract_y
  _atom_site_fract_z
C1 C 0.35103 0.23239 0.16606
 C2 C 0.35122 0.26716 0.17259
 C3 C 0.32057 0.27670 0.24065
 N4 N 0.30171 0.24906 0.27723
 C5 C 0.32046 0.22189 0.23379
 C6 C 0.31105 0.31030 0.27902
 C7 C 0.27759 0.31955 0.30565
 C8 C 0.26692 0.35022 0.37653
 C9 C 0.23286 0.35059 0.36075
 C10 C 0.22376 0.32006 0.28160
 N11 N 0.25113 0.30127 0.24898
 C12 C 0.19123 0.31131 0.22754
 C13 C 0.18191 0.27765 0.18675
 C14 C 0.15249 0.26846 0.10241
 C15 C 0.15218 0.23370 0.09726
 C16 C 0.18114 0.22270 0.18225
 N17 N 0.19946 0.24969 0.23531
 C18 C 0.18984 0.18835 0.21720
 C19 C 0.22282 0.17937 0.26679
 C20 C 0.23148 0.15030 0.36421
 C21 C 0.26545 0.15009 0.37747
 C22 C 0.27681 0.17905 0.28807
 N23 N 0.25061 0.19710 0.22305
 C24 C 0.31077 0.18781 0.26556
 H25 H 0.37110 0.21663 0.11711
 H26 H 0.37146 0.28356 0.13068
 H27 H 0.25182 0.21856 0.13867
 H28 H 0.28212 0.37051 0.43034
 H29 H 0.21672 0.37125 0.39998
 H30 H 0.13327 0.28506 0.04979
 H31 H 0.13274 0.21839 0.03750
 H32 H 0.28007 0.13093 0.44740
 H33 H 0.25201 0.27920 0.17163
 H34 H 0.21498 0.13134 0.42194
 C35 C 0.64757 0.23400 0.37671
 C36 C 0.64852 0.26878 0.37868
 C37 C 0.67987 0.27816 0.31888
 N38 N 0.69811 0.25026 0.28154
 C39 C 0.67864 0.22309 0.31930
 C40 C 0.69029 0.31200 0.28849
 C41 C 0.72324 0.32122 0.24360
 C42 C 0.73271 0.35289 0.17755
 C43 C 0.76668 0.35233 0.16042
 C44 C 0.77707 0.32035 0.21641
 N45 N 0.75046 0.30158 0.26786
 C46 C 0.81062 0.30996 0.22686
 C47 C 0.82037 0.27569 0.24518
 C48 C 0.85262 0.26486 0.27677
 C49 C 0.85182 0.23007 0.27684
 C50 C 0.81914 0.22081 0.24383
 N51 N 0.79999 0.24874 0.22387
 C52 C 0.80801 0.18707 0.22179
 C53 C 0.77411 0.17787 0.20884
 C54 C 0.76283 0.14617 0.15666
 C55 C 0.72886 0.14664 0.17191
 C56 C 0.72005 0.17877 0.23310
 N57 N 0.74796 0.19749 0.25588
 C58 C 0.68748 0.18880 0.28534
 H59 H 0.62604 0.21872 0.40942
 H60 H 0.62823 0.28524 0.41735
 H61 H 0.74951 0.22071 0.32123
 H62 H 0.71682 0.37430 0.14562
 H63 H 0.78199 0.37316 0.11242
 H64 H 0.87447 0.28039 0.29714
 H65 H 0.87293 0.21352 0.29845
 H66 H 0.71287 0.12523 0.14433
 H67 H 0.75117 0.27824 0.33492
 H68 H 0.77756 0.12458 0.11563
 C69 C 0.85195 0.76889 0.68599
 C70 C 0.85229 0.73414 0.69275
 C71 C 0.82094 0.72410 0.74878
 N72 N 0.80158 0.75151 0.77985
 C73 C 0.82063 0.77902 0.74327
 C74 C 0.81124 0.69010 0.77895
 C75 C 0.77771 0.68008 0.79588
 C76 C 0.76714 0.64845 0.85699
 C77 C 0.73318 0.64780 0.83675
 C78 C 0.72395 0.67912 0.76521
 N79 N 0.75126 0.69862 0.74034
 C80 C 0.69120 0.68827 0.71591
 C81 C 0.68140 0.72211 0.68135
 C82 C 0.65070 0.73187 0.61290
 C83 C 0.65018 0.76668 0.61493
 C84 C 0.68071 0.77698 0.68267
 N85 N 0.69969 0.74972 0.72401
 C86 C 0.68985 0.81089 0.71708
 C87 C 0.72247 0.82060 0.76524
 C88 C 0.73064 0.85104 0.84760
 C89 C 0.76463 0.85175 0.86277
 C90 C 0.77643 0.82190 0.78656
 N91 N 0.75047 0.80289 0.72872
 C92 C 0.81050 0.81314 0.76926
 H93 H 0.87245 0.78485 0.64300
 H94 H 0.87312 0.71805 0.65880
 H95 H 0.75195 0.78084 0.65142
 H96 H 0.78231 0.62782 0.90881
 H97 H 0.71716 0.62658 0.86993
 H98 H 0.63063 0.71565 0.56777
 H99 H 0.62952 0.78251 0.57333
 H100 H 0.77893 0.87192 0.92456
 H101 H 0.75221 0.72168 0.67034
 H102 H 0.71380 0.87061 0.89357
 C103 C 0.15000 0.73138 0.89983
 C104 C 0.14967 0.76617 0.90163
 C105 C 0.17912 0.77695 0.82159
 N106 N 0.19761 0.74975 0.77405
 C107 C 0.17996 0.72183 0.82215
 C108 C 0.18808 0.81128 0.78608
 C109 C 0.22107 0.82048 0.73711
 C110 C 0.23018 0.85091 0.65346
 C111 C 0.26421 0.85111 0.64284
 C112 C 0.27504 0.82047 0.71525
 N113 N 0.24866 0.80187 0.77210
 C114 C 0.30874 0.81119 0.73490
 C115 C 0.31913 0.77728 0.75901
 C116 C 0.35137 0.76715 0.79734
 C117 C 0.35154 0.73235 0.79186
 C118 C 0.31937 0.72244 0.75049
 N119 N 0.29966 0.74995 0.73002
 C120 C 0.30913 0.68868 0.71987
 C121 C 0.27548 0.67928 0.69784
 C122 C 0.26468 0.64800 0.63572
 C123 C 0.23065 0.64783 0.65074
 C124 C 0.22147 0.67920 0.72002
 N125 N 0.24899 0.69814 0.74791
 C126 C 0.18907 0.68810 0.77804
 H127 H 0.13007 0.71515 0.94725
 H128 H 0.12967 0.78165 0.95342
 H129 H 0.24994 0.72077 0.81952
 H130 H 0.21405 0.87109 0.60566
 H131 H 0.27929 0.87156 0.58846
 H132 H 0.37267 0.78317 0.82349
 H133 H 0.37299 0.71625 0.81324
 H134 H 0.21474 0.62649 0.61984
 H135 H 0.24973 0.77953 0.84883
 H136 H 0.27977 0.62709 0.58881
 O137 O 1.03199 -0.04007 0.07822
 O138 O 0.96723 0.02151 0.20287
 O139 O 0.96748 -0.03967 0.07408
 O140 O 1.03223 0.02156 0.20583
 O141 O 1.03250 0.04101 -0.07894
 O142 O 0.96765 -0.02018 -0.21076
 O143 O 0.96784 0.04101 -0.08198
 O144 O 1.03256 -0.02063 -0.20668
 Cu145 Cu 0.99974 -0.01127 0.16836
 Cu146 Cu 1.00026 0.01246 -0.17257
 C147 C 1.04316 -0.04090 -0.08390
 C148 C 0.95643 0.04157 0.07965
 C149 C 0.95650 -0.04025 -0.08862
 C150 C 1.04335 0.04171 0.08398
 O151 O 0.53257 0.46051 0.58075
 O152 O 0.46708 0.52147 0.70364
 O153 O 0.46811 0.45987 0.57618
 O154 O 0.53205 0.52218 0.70379
 O155 O 0.53197 0.54133 0.41834
 O156 O 0.46795 0.47890 0.29044
 O157 O 0.46733 0.54052 0.41795
 O158 O 0.53283 0.47962 0.29512
 Cu159 Cu 0.49989 0.48895 0.66912
 Cu160 Cu 0.49999 0.51223 0.32721
 C161 C 0.54380 0.45974 0.41876
 C162 C 0.45613 0.54136 0.58002
 C163 C 0.45728 0.45870 0.41333
 C164 C 0.54294 0.54225 0.58099
 O165 O -0.03171 0.54010 0.07845
 O166 O 0.03292 0.47849 0.20988
 O167 O 0.03276 0.53985 0.07757
 O168 O -0.03200 0.47800 0.20469
 O169 O -0.03159 0.45943 -0.08022
 O170 O 0.03326 0.52125 -0.20732
 O171 O 0.03302 0.45982 -0.07479
 O172 O -0.03165 0.52159 -0.20653
 Cu173 Cu 0.00040 0.51117 0.17036
 Cu174 Cu 0.00072 0.48841 -0.17022
 C175 C -0.04252 0.54147 -0.08442
 C176 C 0.04401 0.45875 0.08789
 C177 C 0.04402 0.54104 -0.08435
 C178 C -0.04269 0.45811 0.08202
 O179 O 0.53124 0.97793 0.70791
 O180 O 0.46709 1.03957 0.57132
 O181 O 0.46638 0.97846 0.70701
 O182 O 0.53142 1.03992 0.58189
 O183 O 0.53211 1.02125 0.29719
 O184 O 0.46700 0.95958 0.42264
 O185 O 0.46732 1.02076 0.28681
 O186 O 0.53159 0.95911 0.42354
 Cu187 Cu 0.49899 1.01105 0.66988
 Cu188 Cu 0.49963 0.98802 0.32949
 C189 C 0.54226 0.95798 0.58675
 C190 C 0.45632 1.04066 0.40826
 C191 C 0.45563 0.95863 0.58442
 C192 C 0.54265 1.04119 0.42008
 C193 C 1.11594 0.11153 0.18173
 C194 C 1.14793 0.10570 0.11481
 C195 C 1.17227 0.13091 0.12704
 C196 C 1.16515 0.16250 0.20816
 C197 C 1.13296 0.16756 0.27980
 C198 C 1.10854 0.14248 0.26445
 C199 C 1.09033 0.08643 0.15675
 C200 C 1.06884 0.06577 0.12845
 H201 H 1.15392 0.08185 0.05000
 H202 H 1.19642 0.12604 0.06755
 H203 H 1.12669 0.19079 0.35013
 H204 H 1.08381 0.14732 0.31619
 C205 C 0.61632 0.61117 0.67563
 C206 C 0.64308 0.61170 0.55306
 C207 C 0.66773 0.63650 0.56817
 C208 C 0.66569 0.66114 0.70522
 C209 C 0.63906 0.66030 0.82939
 C210 C 0.61446 0.63537 0.81472
 C211 C 0.59018 0.58668 0.65215
 C212 C 0.56845 0.56630 0.62432
 H213 H 0.64462 0.59323 0.44416
 H214 H 0.68811 0.63689 0.47142
 H215 H 0.63719 0.67920 0.93568
 H216 H 0.59380 0.63525 0.90985
 C217 C -0.11379 0.38631 0.17409
 C218 C -0.11751 0.36151 0.03923
 C219 C -0.14204 0.33661 0.05681
 C220 C -0.16310 0.33626 0.20972
 C221 C -0.15926 0.36111 0.34501
 C222 C -0.13467 0.38605 0.32726
 C223 C -0.08884 0.41221 0.15169
 C224 C -0.06781 0.43347 0.12498
 H225 H -0.10156 0.36153 -0.08015
 H226 H -0.14476 0.31768 -0.04898
 H227 H -0.17532 0.36112 0.46370
 H228 H -0.13203 0.40515 0.43210
 C229 C 0.38351 0.88812 0.67648
 C230 C 0.36107 0.88949 0.82261
 C231 C 0.33661 0.86446 0.84182
 C232 C 0.33449 0.83793 0.71499
 C233 C 0.35689 0.83689 0.56806
 C234 C 0.38130 0.86183 0.54923
 C235 C 0.40871 0.91367 0.65398
 C236 C 0.43009 0.93452 0.62707
 H237 H 0.36247 0.90985 0.92112
 H238 H 0.31943 0.86563 0.95554
 H239 H 0.35541 0.81673 0.46837
 H240 H 0.39844 0.86068 0.43521
 C241 C -0.11307 0.61375 -0.17591
 C242 C -0.11465 0.64005 -0.04821
 C243 C -0.13923 0.66494 -0.06312
 C244 C -0.16251 0.66374 -0.20612
 C245 C -0.16073 0.63746 -0.33462
 C246 C -0.13608 0.61255 -0.31964
 C247 C -0.08830 0.58767 -0.15481
 C248 C -0.06745 0.56622 -0.12840
 H249 H -0.09703 0.64114 0.06375
 H250 H -0.14029 0.68500 0.03737
 H251 H -0.17846 0.63628 -0.44592
 H252 H -0.13509 0.59233 -0.41917
 C253 C 0.38480 1.11181 0.31983
 C254 C 0.38895 1.14316 0.40541
 C255 C 0.36469 1.16829 0.38677
 C256 C 0.33550 1.16229 0.28463
 C257 C 0.33133 1.13017 0.20348
 C258 C 0.35591 1.10529 0.21987
 C259 C 0.40988 1.08609 0.33960
 C260 C 0.43107 1.06498 0.36435
 H261 H 0.41084 1.14812 0.48774
 H262 H 0.36838 1.19215 0.45659
 H263 H 0.30938 1.12457 0.12332
 H264 H 0.35241 1.08098 0.15440
 C265 C 1.11495 -0.11155 -0.17665
 C266 C 1.14606 -0.10719 -0.09470
 C267 C 1.17024 -0.13245 -0.10883
 C268 C 1.16357 -0.16287 -0.20278
 C269 C 1.13205 -0.16687 -0.28447
 C270 C 1.10802 -0.14141 -0.27168
 C271 C 1.08959 -0.08621 -0.15360
 C272 C 1.06836 -0.06529 -0.12662
 H273 H 1.15146 -0.08454 -0.01662
 H274 H 1.19385 -0.12868 -0.04073
 H275 H 1.12610 -0.18957 -0.36028
 H276 H 1.08389 -0.14522 -0.33397
 C277 C 0.61689 0.39045 0.32813
 C278 C 0.64256 0.38829 0.45720
 C279 C 0.66654 0.36283 0.44389
 C280 C 0.66513 0.33940 0.30041
 C281 C 0.63965 0.34193 0.16946
 C282 C 0.61555 0.36732 0.18370
 C283 C 0.59114 0.41537 0.35049
 C284 C 0.56950 0.43587 0.37701
 H285 H 0.64373 0.40598 0.56979
 H286 H 0.68591 0.36108 0.54672
 H287 H 0.63831 0.32403 0.05791
 H288 H 0.59566 0.36864 0.08392
 C289 C 0.88432 -0.11062 -0.17923
 C290 C 0.88751 -0.14142 -0.08446
 C291 C 0.86315 -0.16643 -0.10075
 C292 C 0.83506 -0.16118 -0.21308
 C293 C 0.83194 -0.12978 -0.30616
 C294 C 0.85640 -0.10473 -0.28910
 C295 C 0.90947 -0.08497 -0.15834
 C296 C 0.93090 -0.06417 -0.13223
 H297 H 0.90875 -0.14603 0.00353
 H298 H 0.86593 -0.18966 -0.02176
 H299 H 0.81095 -0.12490 -0.39560
 H300 H 0.85355 -0.08083 -0.36174
 C301 C 0.38679 0.38654 0.32369
 C302 C 0.36216 0.38962 0.18907
 C303 C 0.33752 0.36476 0.17413
 C304 C 0.33725 0.33669 0.29409
 C305 C 0.36205 0.33372 0.42861
 C306 C 0.38671 0.35851 0.44302
 C307 C 0.41160 0.41251 0.34454
 C308 C 0.43246 0.43391 0.37030
 H309 H 0.36188 0.41130 0.09678
 H310 H 0.31863 0.36736 0.06935
 H311 H 0.36214 0.31234 0.52291
 H312 H 0.40558 0.35595 0.54817
 C313 C 0.11644 0.61159 -0.17071
 C314 C 0.12598 0.62315 -0.34473
 C315 C 0.15025 0.64835 -0.36246
 C316 C 0.16506 0.66236 -0.20576
 C317 C 0.15541 0.65059 -0.03177
 C318 C 0.13133 0.62529 -0.01447
 C319 C 0.09097 0.58620 -0.15056
 C320 C 0.06952 0.56530 -0.12586
 H321 H 0.11459 0.61280 -0.46615
 H322 H 0.15720 0.65717 -0.49769
 H323 H 0.16664 0.66092 0.09034
 H324 H 0.12422 0.61656 0.12076
 C325 C 0.61356 1.11326 0.33442
 C326 C 0.62659 1.12149 0.16224
 C327 C 0.65099 1.14660 0.14588
 C328 C 0.66270 1.16368 0.30163
 C329 C 0.64919 1.15549 0.47401
 C330 C 0.62483 1.13037 0.48997
 C331 C 0.58864 1.08731 0.35345
 C332 C 0.56769 1.06590 0.37809
 H333 H 0.61790 1.10854 0.04085
 H334 H 0.66067 1.15294 0.01156
 H335 H 0.65779 1.16824 0.59628
 H336 H 0.61484 1.12419 0.62375
 C337 C 0.11702 0.38925 0.18346
 C338 C 0.11244 0.36192 0.30445
 C339 C 0.13675 0.33675 0.32033
 C340 C 0.16579 0.33856 0.21441
 C341 C 0.17037 0.36617 0.09417
 C342 C 0.14611 0.39140 0.07900
 C343 C 0.09126 0.41420 0.15928
 C344 C 0.06964 0.43476 0.13171
 H345 H 0.08992 0.35986 0.38472
 H346 H 0.13283 0.31564 0.41368
 H347 H 0.19253 0.36789 0.01080
 H348 H 0.14981 0.41233 -0.01599
 C349 C 0.61480 0.88798 0.68014
 C350 C 0.64213 0.88871 0.56164
 C351 C 0.66662 0.86371 0.57460
 C352 C 0.66394 0.83764 0.70587
 C353 C 0.63656 0.83703 0.82488
 C354 C 0.61206 0.86211 0.81194
 C355 C 0.58897 0.91293 0.65913
 C356 C 0.56752 0.93368 0.63200
 H357 H 0.64427 0.90835 0.45752
 H358 H 0.68745 0.86436 0.48083
 H359 H 0.63410 0.81697 0.92621
 H360 H 0.59085 0.86110 0.90289
 C361 C 0.88305 0.11064 0.16612
 C362 C 0.87854 0.13518 0.02862
 C363 C 0.85386 0.15980 0.04605
 C364 C 0.83345 0.16013 0.20151
 C365 C 0.83772 0.13524 0.33827
 C366 C 0.86247 0.11055 0.32065
 C367 C 0.90881 0.08568 0.14618
 C368 C 0.93059 0.06529 0.12101
 H369 H 0.89421 0.13535 -0.09184
 H370 H 0.85074 0.17874 -0.06089
 H371 H 0.82207 0.13519 0.45869
 H372 H 0.86567 0.09157 0.42739
 C373 C 0.38420 0.61207 0.66779
 C374 C 0.38158 0.63812 0.53698
 C375 C 0.35714 0.66301 0.55417
 C376 C 0.33503 0.66209 0.70241
 C377 C 0.33766 0.63591 0.83340
 C378 C 0.36218 0.61097 0.81606
 C379 C 0.40934 0.58643 0.64691
 C380 C 0.43063 0.56549 0.62157
 H381 H 0.39838 0.63911 0.42136
 H382 H 0.35536 0.68300 0.45202
 H383 H 0.32079 0.63493 0.94876
 H384 H 0.36393 0.59085 0.91768
   
