data_POSCAR
  _audit_creation_date              2014-09-24
  _audit_creation_method            'ToBaCCo'
  _symmetry_space_group_name_H-M    'P1'
  _symmetry_Int_Tables_number       1
  _symmetry_cell_setting            triclinic
  loop_
  _symmetry_equiv_pos_as_xyz
 x,y,z
_cell_length_a 30.8030
_cell_length_b 30.6479
_cell_length_c 47.5679
_cell_angle_alpha 87.741700
_cell_angle_beta 86.978300
_cell_angle_gamma 83.296500
loop_
  _atom_site_label
  _atom_site_type_symbol
  _atom_site_fract_x
  _atom_site_fract_y
  _atom_site_fract_z
O1 O 0.04387 0.53865 1.02276
 O2 O 0.03750 0.45719 0.96869
 O3 O 0.03442 0.54276 0.96863
 O4 O 0.04758 0.45333 1.02261
 O5 O -0.02415 0.45739 1.02939
 O6 O -0.03697 0.54944 0.97730
 O7 O -0.03430 0.46354 0.97549
 O8 O -0.02754 0.54200 1.03132
 Cu9 Cu 0.04800 0.49752 0.99483
 Cu10 Cu -0.03796 0.50366 1.00397
 C11 C 0.00928 0.55388 1.03651
 C12 C 0.00054 0.44611 0.96300
 C13 C -0.00346 0.56215 0.96410
 C14 C 0.01393 0.43982 1.03510
 O15 O 0.54047 0.02856 0.47152
 O16 O 0.45191 0.03548 0.52695
 O17 O 0.53681 0.03348 0.52609
 O18 O 0.45530 0.03197 0.47253
 O19 O 0.46017 -0.04032 0.47687
 O20 O 0.54382 -0.03896 0.52944
 O21 O 0.45915 -0.03691 0.53152
 O22 O 0.54544 -0.04374 0.47490
 Cu23 Cu 0.49559 0.03961 0.49885
 Cu24 Cu 0.50276 -0.04724 0.50351
 C25 C 0.55825 -0.00884 0.46369
 C26 C 0.44051 0.00039 0.53877
 C27 C 0.55445 -0.00241 0.53686
 C28 C 0.44326 -0.00430 0.46580
 C29 C 0.10878 -0.02571 0.26152
 H30 H 0.11264 -0.02668 0.23881
 C31 C 0.14563 -0.02807 0.27766
 H32 H 0.17785 -0.03061 0.26718
 C33 C 0.06188 -0.01974 0.30264
 H34 H 0.02923 -0.01579 0.31231
 C35 C 0.09780 -0.02184 0.31956
 H36 H 0.09229 -0.02044 0.34220
 N37 N 0.06795 -0.02212 0.27419
 C38 C -0.01121 -0.07005 0.21120
 H39 H -0.03683 -0.04280 0.20999
 C40 C -0.01067 -0.10517 0.19336
 H41 H -0.03608 -0.10496 0.17845
 C42 C 0.05328 -0.10329 0.23202
 H43 H 0.07807 -0.10245 0.24716
 C44 C 0.05464 -0.13949 0.21489
 H45 H 0.08089 -0.16607 0.21667
 Zn46 Zn 0.01964 -0.01804 0.25081
 N47 N 0.02122 -0.06905 0.22941
 C48 C 0.02644 0.02829 0.19808
 N49 N 0.02277 0.03222 0.22652
 C50 C 0.02139 0.07212 0.23831
 C51 C 0.02110 0.11037 0.22128
 C52 C 0.02615 0.06560 0.18031
 C53 C -0.04131 -0.04667 0.29111
 C54 C -0.07993 -0.04470 0.30799
 C55 C -0.10331 0.02590 0.28597
 C56 C -0.06420 0.02261 0.26956
 N57 N -0.03380 -0.01295 0.27273
 H58 H 0.02939 -0.00370 0.18902
 H59 H 0.01933 0.07428 0.26099
 H60 H 0.01834 0.14196 0.23103
 H61 H 0.02857 0.06183 0.15772
 H62 H -0.01690 -0.07491 0.29289
 H63 H -0.08467 -0.07136 0.32304
 H64 H -0.12715 0.05437 0.28302
 H65 H -0.05842 0.04840 0.25419
 C66 C 0.02287 -0.14016 0.19488
 C67 C 0.14038 -0.02612 0.30710
 C68 C -0.11147 -0.00788 0.30568
 C69 C 0.02265 0.10738 0.19185
 C70 C -0.03276 0.10701 0.76164
 H71 H -0.03089 0.11039 0.73889
 C72 C -0.03647 0.14436 0.77786
 H73 H -0.03701 0.17646 0.76743
 C74 C -0.03327 0.06083 0.80276
 H75 H -0.03284 0.02835 0.81244
 C76 C -0.03680 0.09730 0.81980
 H77 H -0.03879 0.09239 0.84248
 N78 N -0.03021 0.06622 0.77423
 C79 C 0.03967 -0.01298 0.70838
 H80 H 0.01714 -0.03701 0.70603
 C81 C 0.07724 -0.01321 0.69063
 H82 H 0.08363 -0.03759 0.67460
 C83 C 0.05878 0.04802 0.73220
 H84 H 0.05164 0.07163 0.74855
 C85 C 0.09714 0.04848 0.71522
 H86 H 0.11893 0.07298 0.71832
 Zn87 Zn -0.02248 0.01774 0.75017
 N88 N 0.03053 0.01811 0.72813
 C89 C -0.06529 0.02950 0.69836
 N90 N -0.07085 0.02320 0.72673
 C91 C -0.11137 0.02151 0.73926
 C92 C -0.14813 0.02433 0.72300
 C93 C -0.10111 0.03255 0.68132
 C94 C 0.01184 -0.04430 0.79056
 C95 C 0.01551 -0.08362 0.80657
 C96 C -0.04241 -0.10754 0.78074
 C97 C -0.04563 -0.06737 0.76563
 N98 N -0.01911 -0.03645 0.77104
 H99 H -0.03312 0.03222 0.68880
 H100 H -0.11499 0.01740 0.76192
 H101 H -0.18008 0.02272 0.73336
 H102 H -0.09579 0.03644 0.65873
 H103 H 0.03341 -0.01973 0.79387
 H104 H 0.03987 -0.08920 0.82233
 H105 H -0.06389 -0.13175 0.77638
 H106 H -0.06899 -0.06120 0.74938
 C107 C 0.10628 0.01805 0.69382
 C108 C -0.03785 0.13971 0.80736
 C109 C -0.01191 -0.11570 0.80172
 C110 C -0.14319 0.02955 0.69358
 C111 C -0.02243 -0.40654 0.07922
 C112 C -0.02040 -0.37582 0.09991
 C113 C 0.01529 -0.35133 0.10002
 C114 C 0.04984 -0.35926 0.07968
 C115 C 0.04818 -0.39054 0.05927
 C116 C 0.01178 -0.41411 0.05864
 C117 C 0.01572 -0.31800 0.12161
 C118 C 0.03236 -0.27994 0.11606
 C119 C 0.02993 -0.24493 0.13678
 C120 C 0.02499 -0.20092 0.12708
 C121 C 0.02220 -0.16696 0.14603
 C122 C 0.02536 -0.17641 0.17503
 C123 C 0.03133 -0.22045 0.18475
 C124 C 0.03331 -0.25449 0.16581
 H125 H -0.05070 -0.42452 0.07940
 H126 H -0.04720 -0.37049 0.11554
 H127 H 0.07830 -0.34160 0.07967
 H128 H 0.07510 -0.39583 0.04374
 H129 H -0.00129 -0.32340 0.14174
 H130 H 0.04507 -0.27262 0.09494
 H131 H 0.02271 -0.19282 0.10479
 H132 H 0.01817 -0.13323 0.13803
 H133 H 0.03397 -0.22847 0.20702
 H134 H 0.03815 -0.28816 0.17383
 C135 C 0.06077 0.38368 0.06341
 C136 C 0.06536 0.34822 0.08286
 C137 C 0.02837 0.33108 0.09530
 C138 C -0.01345 0.35117 0.08869
 C139 C -0.01804 0.38667 0.06933
 C140 C 0.01899 0.40306 0.05626
 C141 C 0.03448 0.29267 0.11521
 C142 C 0.00526 0.26351 0.11892
 C143 C 0.01130 0.22389 0.13780
 C144 C -0.01132 0.18814 0.13252
 C145 C -0.00726 0.15030 0.14992
 C146 C 0.01921 0.14750 0.17324
 C147 C 0.04149 0.18347 0.17880
 C148 C 0.03762 0.22133 0.16126
 H149 H 0.08997 0.39573 0.05386
 H150 H 0.09792 0.33364 0.08784
 H151 H -0.04273 0.33990 0.09861
 H152 H -0.05070 0.40116 0.06453
 H153 H 0.06520 0.28690 0.12554
 H154 H -0.02334 0.26718 0.10637
 H155 H -0.03218 0.18945 0.11480
 H156 H -0.02548 0.12345 0.14540
 H157 H 0.06212 0.18222 0.19663
 H158 H 0.05460 0.24867 0.16648
 C159 C 0.40033 -0.03296 0.57975
 C160 C 0.36586 -0.03116 0.60015
 C161 C 0.33469 0.00597 0.60160
 C162 C 0.33955 0.04213 0.58305
 C163 C 0.37448 0.04066 0.56299
 C164 C 0.40486 0.00286 0.56089
 C165 C 0.29764 0.00617 0.62268
 C166 C 0.25739 0.02507 0.61724
 C167 C 0.21940 0.02286 0.63736
 C168 C 0.17797 0.02105 0.62687
 C169 C 0.14136 0.01886 0.64526
 C170 C 0.14536 0.01950 0.67450
 C171 C 0.18667 0.02217 0.68505
 C172 C 0.22347 0.02357 0.66665
 H173 H 0.42347 -0.06237 0.57877
 H174 H 0.36294 -0.05922 0.61441
 H175 H 0.31656 0.07164 0.58415
 H176 H 0.37726 0.06880 0.54877
 H177 H 0.30290 -0.01274 0.64217
 H178 H 0.25126 0.03983 0.59654
 H179 H 0.17403 0.02085 0.60438
 H180 H 0.10973 0.01737 0.63664
 H181 H 0.19049 0.02279 0.70753
 H182 H 0.25486 0.02597 0.67533
 C183 C -0.39032 -0.04083 0.56906
 C184 C -0.35817 -0.03985 0.58863
 C185 C -0.34692 0.00032 0.59751
 C186 C -0.36951 0.03966 0.58699
 C187 C -0.40158 0.03869 0.56739
 C188 C -0.41215 -0.00155 0.55806
 C189 C -0.31212 -0.00029 0.61799
 C190 C -0.28880 0.03351 0.62085
 C191 C -0.25253 0.03223 0.64029
 C192 C -0.22060 0.06097 0.63475
 C193 C -0.18538 0.06043 0.65216
 C194 C -0.18148 0.03130 0.67569
 C195 C -0.21404 0.00329 0.68169
 C196 C -0.24927 0.00380 0.66426
 H197 H -0.39783 -0.07239 0.56241
 H198 H -0.34163 -0.07064 0.59660
 H199 H -0.36304 0.07129 0.59402
 H200 H -0.41818 0.06954 0.55958
 H201 H -0.30381 -0.03079 0.62975
 H202 H -0.29435 0.06247 0.60719
 H203 H -0.22261 0.08362 0.61667
 H204 H -0.16129 0.08300 0.64726
 H205 H -0.21191 -0.01962 0.69962
 H206 H -0.27390 -0.01786 0.66982
 C207 C -0.04920 -0.37669 0.94197
 C208 C -0.05327 -0.33898 0.92436
 C209 C -0.01688 -0.32609 0.90864
 C210 C 0.02390 -0.35145 0.91091
 C211 C 0.02825 -0.38867 0.92895
 C212 C -0.00820 -0.40172 0.94490
 C213 C -0.02172 -0.28465 0.89150
 C214 C 0.00126 -0.27901 0.86720
 C215 C -0.00301 -0.23694 0.85073
 C216 C -0.00043 -0.23737 0.82121
 C217 C -0.00393 -0.19793 0.80522
 C218 C -0.00876 -0.15745 0.81854
 C219 C -0.01048 -0.15700 0.84807
 C220 C -0.00795 -0.19639 0.86405
 H221 H -0.07807 -0.38541 0.95388
 H222 H -0.08495 -0.31972 0.92305
 H223 H 0.05277 -0.34176 0.89949
 H224 H 0.06039 -0.40691 0.93056
 H225 H -0.04614 -0.25858 0.89867
 H226 H 0.02232 -0.30646 0.85844
 H227 H 0.00381 -0.26826 0.81053
 H228 H -0.00217 -0.19898 0.78245
 H229 H -0.01419 -0.12613 0.85875
 H230 H -0.00901 -0.19511 0.88680
 C231 C 0.03680 0.39008 0.92976
 C232 C 0.03499 0.35534 0.91187
 C233 C -0.00530 0.34162 0.90584
 C234 C -0.04400 0.36367 0.91800
 C235 C -0.04218 0.39838 0.93597
 C236 C -0.00173 0.41169 0.94228
 C237 C -0.00524 0.30263 0.88833
 C238 C -0.03978 0.29367 0.87444
 C239 C -0.03899 0.25380 0.85767
 C240 C -0.06586 0.25488 0.83467
 C241 C -0.06568 0.21787 0.81835
 C242 C -0.03910 0.17876 0.82502
 C243 C -0.01300 0.17737 0.84845
 C244 C -0.01295 0.21442 0.86463
 H245 H 0.06852 0.39938 0.93424
 H246 H 0.06529 0.33877 0.90294
 H247 H -0.07564 0.35338 0.91452
 H248 H -0.07245 0.41413 0.94544
 H249 H 0.02521 0.28119 0.88617
 H250 H -0.06895 0.31704 0.87414
 H251 H -0.08665 0.28462 0.82911
 H252 H -0.08660 0.21971 0.80065
 H253 H 0.00795 0.14776 0.85404
 H254 H 0.00710 0.21187 0.88276
 C255 C -0.38768 -0.05293 0.43388
 C256 C -0.35264 -0.05585 0.41391
 C257 C -0.33607 -0.01784 0.40264
 C258 C -0.35639 0.02346 0.41097
 C259 C -0.39163 0.02648 0.43084
 C260 C -0.40747 -0.01170 0.44287
 C261 C -0.29804 -0.02272 0.38211
 C262 C -0.26911 0.00683 0.37865
 C263 C -0.22959 0.00183 0.35921
 C264 C -0.20768 0.03890 0.35272
 C265 C -0.16965 0.03584 0.33522
 C266 C -0.15240 -0.00453 0.32385
 C267 C -0.17420 -0.04172 0.33034
 C268 C -0.21224 -0.03870 0.34788
 H269 H -0.39897 -0.08315 0.44239
 H270 H -0.33788 -0.08804 0.40761
 H271 H -0.34558 0.05356 0.40200
 H272 H -0.40619 0.05886 0.43689
 H273 H -0.29333 -0.05256 0.37042
 H274 H -0.27407 0.03625 0.39083
 H275 H -0.21996 0.07042 0.36133
 H276 H -0.15326 0.06498 0.33104
 H277 H -0.16193 -0.07325 0.32177
 H278 H -0.22713 -0.06847 0.35278
 C279 C 0.38898 0.03554 0.43366
 C280 C 0.35473 0.03596 0.41553
 C281 C 0.33947 -0.00335 0.40843
 C282 C 0.35932 -0.04336 0.41991
 C283 C 0.39362 -0.04378 0.43811
 C284 C 0.40862 -0.00430 0.44534
 C285 C 0.30138 -0.00081 0.39036
 C286 C 0.29132 -0.03444 0.37568
 C287 C 0.25249 -0.03126 0.35824
 C288 C 0.25291 -0.05903 0.33544
 C289 C 0.21669 -0.05724 0.31872
 C290 C 0.17900 -0.02796 0.32470
 C291 C 0.17834 -0.00058 0.34776
 C292 C 0.21458 -0.00226 0.36440
 H293 H 0.39963 0.06657 0.43885
 H294 H 0.33985 0.06724 0.40716
 H295 H 0.34777 -0.07430 0.41563
 H296 H 0.40783 -0.07500 0.44693
 H297 H 0.28180 0.03077 0.38843
 H298 H 0.31307 -0.06482 0.37529
 H299 H 0.28146 -0.08205 0.33046
 H300 H 0.21791 -0.07923 0.30136
 H301 H 0.14987 0.02246 0.35284
 H302 H 0.21238 0.01868 0.38233
   
