data_POSCAR
  _audit_creation_date              2014-09-24
  _audit_creation_method            'ToBaCCo'
  _symmetry_space_group_name_H-M    'P1'
  _symmetry_Int_Tables_number       1
  _symmetry_cell_setting            triclinic
  loop_
  _symmetry_equiv_pos_as_xyz
 x,y,z
_cell_length_a 16.4832
_cell_length_b 12.2230
_cell_length_c 12.5180
_cell_angle_alpha 89.443600
_cell_angle_beta 90.128500
_cell_angle_gamma 89.773400
loop_
  _atom_site_label
  _atom_site_type_symbol
  _atom_site_fract_x
  _atom_site_fract_y
  _atom_site_fract_z
O1 O 0.10797 0.18925 0.19471
 O2 O 0.20004 0.08688 0.10094
 C3 C 0.18180 0.15993 0.17115
 O4 O -0.12209 -0.19921 0.17980
 O5 O -0.20757 -0.09388 0.07700
 C6 C -0.19373 -0.16859 0.14845
 O7 O 0.09891 -0.19310 0.21010
 O8 O 0.19527 -0.09415 0.11989
 C9 C 0.17248 -0.16171 0.19572
 O10 O -0.12081 0.19724 0.17421
 O11 O -0.20674 0.09203 0.07428
 C12 C -0.19294 0.16787 0.14342
 Zr13 Zr -0.00488 0.13560 0.13058
 O14 O -0.01813 0.13740 0.29880
 O15 O 0.00343 0.30841 0.12647
 Zr16 Zr -0.00703 -0.14192 0.13371
 O17 O -0.02038 -0.15396 0.30135
 O18 O -0.00346 -0.31397 0.11865
 O19 O 0.06496 -0.00375 0.15854
 O20 O -0.07638 -0.00209 0.14803
 O21 O -0.11019 0.19135 -0.19774
 O22 O -0.20153 0.08806 -0.10323
 C23 C -0.18386 0.16217 -0.17299
 O24 O 0.12088 -0.19573 -0.18490
 O25 O 0.20652 -0.10051 -0.07518
 C26 C 0.19288 -0.16886 -0.15147
 O27 O -0.10792 -0.20617 -0.19139
 O28 O -0.19960 -0.09909 -0.10226
 C29 C -0.18163 -0.17579 -0.16876
 O30 O 0.11888 0.18145 -0.19545
 O31 O 0.20536 0.08316 -0.08660
 C32 C 0.19108 0.15283 -0.16372
 Zr33 Zr 0.00370 0.13255 -0.13833
 O34 O 0.00057 0.13577 -0.30733
 O35 O 0.01274 0.30534 -0.13634
 Zr36 Zr 0.00421 -0.14470 -0.13311
 O37 O 0.00181 -0.14839 -0.30215
 O38 O 0.01226 -0.31754 -0.12595
 Zr39 Zr 0.12061 -0.00583 0.00719
 Zr40 Zr -0.12147 -0.00320 -0.00913
 O41 O -0.06541 -0.00584 -0.16010
 O42 O 0.07696 -0.00676 -0.15164
 O43 O -0.07312 0.15630 -0.00881
 O44 O 0.07043 -0.16367 0.00647
 O45 O 0.07035 0.15286 -0.00006
 O46 O -0.07441 -0.16360 -0.00413
 H47 H -0.11447 -0.00132 0.20913
 H48 H 0.10773 -0.22730 0.01178
 H49 H -0.09947 -0.00642 -0.22540
 H50 H 0.10718 0.21672 0.00001
 H51 H -0.00851 -0.34429 0.19201
 H52 H -0.03348 -0.34394 -0.08171
 H53 H 0.04736 -0.10312 -0.32830
 H54 H 0.04111 0.08203 -0.33232
 H55 H -0.03786 0.33434 -0.10484
 H56 H -0.04073 0.33617 0.07981
 H57 H 0.02873 0.09761 0.33017
 H58 H -0.00179 -0.08371 0.33090
 O59 O 0.62065 0.67990 0.69028
 O60 O 0.70597 0.58360 0.58124
 C61 C 0.69256 0.65156 0.65795
 O62 O 0.38854 0.29431 0.67992
 O63 O 0.29793 0.40637 0.59154
 C64 C 0.31519 0.32690 0.65764
 O65 O 0.61734 0.30263 0.67964
 O66 O 0.70429 0.40413 0.57652
 C67 C 0.68978 0.33210 0.64974
 O68 O 0.39187 0.69216 0.69378
 O69 O 0.29959 0.59354 0.59707
 C70 C 0.31802 0.66524 0.66830
 Zr71 Zr 0.50426 0.63122 0.63545
 O72 O 0.50182 0.61806 0.80432
 O73 O 0.50160 0.80422 0.64599
 Zr74 Zr 0.50121 0.35528 0.62394
 O75 O 0.49769 0.33838 0.79225
 O76 O 0.50328 0.18374 0.60457
 O77 O 0.57539 0.49065 0.64792
 O78 O 0.43275 0.49399 0.65152
 O79 O 0.38837 0.72289 0.32615
 O80 O 0.29895 0.61833 0.42298
 C81 C 0.31670 0.70212 0.36222
 O82 O 0.60697 0.31633 0.28869
 O83 O 0.69880 0.40779 0.39255
 C84 C 0.68080 0.34111 0.31656
 O85 O 0.37910 0.31067 0.30755
 O86 O 0.29308 0.41545 0.40819
 C87 C 0.30699 0.34058 0.33786
 O88 O 0.61101 0.69396 0.30128
 O89 O 0.70124 0.58895 0.39758
 C90 C 0.68395 0.66207 0.32584
 Zr91 Zr 0.49836 0.64427 0.36503
 O92 O 0.48790 0.63832 0.19686
 O93 O 0.50927 0.81665 0.36446
 Zr94 Zr 0.49448 0.36948 0.35446
 O95 O 0.48270 0.38262 0.18639
 O96 O 0.49960 0.19680 0.34575
 Zr97 Zr 0.61996 0.49763 0.49020
 Zr98 Zr 0.37806 0.50365 0.49938
 O99 O 0.42406 0.51043 0.34315
 O100 O 0.56845 0.50606 0.33631
 O101 O 0.43012 0.66065 0.50417
 O102 O 0.56831 0.34059 0.48597
 O103 O 0.57189 0.65663 0.49803
 O104 O 0.42494 0.34319 0.49145
 H105 H 0.39852 0.49148 0.71644
 H106 H 0.60457 0.27584 0.48289
 H107 H 0.38463 0.51636 0.28346
 H108 H 0.60989 0.71914 0.49729
 H109 H 0.50696 0.15198 0.67754
 H110 H 0.46547 0.16768 0.40432
 H111 H 0.52578 0.43254 0.16081
 H112 H 0.49050 0.71517 0.17121
 H113 H 0.48596 0.84227 0.43262
 H114 H 0.54859 0.83432 0.60671
 H115 H 0.55127 0.57827 0.82758
 H116 H 0.53533 0.39318 0.82176
 N117 N 0.24820 0.21258 0.22285
 N118 N 0.23838 0.28878 0.29014
 N119 N 0.73847 0.78187 0.19837
 N120 N 0.74993 0.71116 0.27174
 N121 N 0.74913 0.21281 0.77435
 N122 N 0.75842 0.28314 0.70046
 N123 N 0.26161 0.78257 0.79809
 N124 N 0.25174 0.71586 0.72197
 N125 N 0.25915 0.20217 0.78373
 N126 N 0.24877 0.27449 0.71080
 N127 N 0.75184 0.77209 0.77955
 N128 N 0.76143 0.69985 0.70826
 N129 N 0.22079 0.81056 0.26846
 N130 N 0.25754 0.78663 0.35125
 N131 N 0.73819 0.21951 0.19093
 N132 N 0.74752 0.29039 0.26352
   
