data_POSCAR
  _audit_creation_date              2014-09-24
  _audit_creation_method            'ToBaCCo'
  _symmetry_space_group_name_H-M    'P1'
  _symmetry_Int_Tables_number       1
  _symmetry_cell_setting            triclinic
  loop_
  _symmetry_equiv_pos_as_xyz
 x,y,z
_cell_length_a 52.4387
_cell_length_b 52.5989
_cell_length_c 52.7639
_cell_angle_alpha 89.987100
_cell_angle_beta 89.996900
_cell_angle_gamma 90.010100
loop_
  _atom_site_label
  _atom_site_type_symbol
  _atom_site_fract_x
  _atom_site_fract_y
  _atom_site_fract_z
N1 N 0.27808 0.22600 0.20763
 N2 N 0.26791 0.24632 0.19729
 C3 C 0.28223 0.25345 0.17732
 C4 C 0.30254 0.23670 0.17498
 C5 C 0.29915 0.21949 0.19463
 H6 H 0.27828 0.26980 0.16558
 H7 H 0.31121 0.20355 0.19938
 Cu8 Cu 0.23745 0.26194 0.21149
 Cu9 Cu 0.26379 0.20993 0.23770
 Cu10 Cu 0.20947 0.23738 0.26334
 N11 N 0.20697 0.27716 0.22608
 N12 N 0.19616 0.26744 0.24633
 C13 C 0.17614 0.28196 0.25299
 C14 C 0.17420 0.30203 0.23604
 C15 C 0.19415 0.29825 0.21916
 H16 H 0.16420 0.27832 0.26927
 H17 H 0.19925 0.31015 0.20328
 N18 N 0.22585 0.20693 0.27780
 N19 N 0.24650 0.19650 0.26805
 C20 C 0.25345 0.17660 0.28255
 C21 C 0.23640 0.17436 0.30251
 C22 C 0.21914 0.19396 0.29877
 H23 H 0.26994 0.16486 0.27897
 H24 H 0.20308 0.19875 0.31065
 H25 H 0.22671 0.22166 0.23177
 H26 H 0.24698 0.24233 0.25230
 N27 N 0.72155 -0.22617 0.20731
 N28 N 0.73146 -0.24678 0.19729
 C29 C 0.71722 -0.25394 0.17729
 C30 C 0.69711 -0.23692 0.17455
 C31 C 0.70067 -0.21951 0.19406
 H32 H 0.72119 -0.27045 0.16580
 H33 H 0.68890 -0.20330 0.19865
 Cu34 Cu 0.76173 -0.26237 0.21184
 Cu35 Cu 0.73589 -0.20995 0.23734
 Cu36 Cu 0.78996 -0.23782 0.26335
 N37 N 0.79202 -0.27795 0.22639
 N38 N 0.80300 -0.26814 0.24650
 C39 C 0.82310 -0.28260 0.25303
 C40 C 0.82495 -0.30278 0.23611
 C41 C 0.80479 -0.29902 0.21940
 H42 H 0.83518 -0.27871 0.26915
 H43 H 0.79956 -0.31079 0.20346
 N44 N 0.77379 -0.20712 0.27758
 N45 N 0.75325 -0.19654 0.26771
 C46 C 0.74640 -0.17657 0.28214
 C47 C 0.76338 -0.17441 0.30217
 C48 C 0.78051 -0.19414 0.29854
 H49 H 0.72998 -0.16473 0.27849
 H50 H 0.79650 -0.19901 0.31048
 H51 H 0.77296 -0.22202 0.23169
 H52 H 0.75241 -0.24220 0.25239
 N53 N 0.72268 0.22595 0.79248
 N54 N 0.73253 0.24658 0.80251
 C55 C 0.71830 0.25359 0.82258
 C56 C 0.69833 0.23648 0.82526
 C57 C 0.70186 0.21916 0.80576
 H58 H 0.72206 0.27011 0.83413
 H59 H 0.69002 0.20298 0.80123
 Cu60 Cu 0.76249 0.26273 0.78782
 Cu61 Cu 0.73686 0.21000 0.76232
 Cu62 Cu 0.79079 0.23783 0.73630
 N63 N 0.79311 0.27781 0.77335
 N64 N 0.80405 0.26798 0.75323
 C65 C 0.82421 0.28238 0.74669
 C66 C 0.82615 0.30254 0.76362
 C67 C 0.80601 0.29881 0.78036
 H68 H 0.83624 0.27848 0.73054
 H69 H 0.80079 0.31062 0.79627
 N70 N 0.77447 0.20731 0.72192
 N71 N 0.75395 0.19675 0.73182
 C72 C 0.74699 0.17683 0.71736
 C73 C 0.76391 0.17468 0.69729
 C74 C 0.78110 0.19438 0.70090
 H75 H 0.73059 0.16500 0.72107
 H76 H 0.79710 0.19921 0.68895
 H77 H 0.77392 0.22231 0.76826
 H78 H 0.75333 0.24234 0.74737
 N79 N 0.27813 -0.22637 0.79252
 N80 N 0.26779 -0.24650 0.80306
 C81 C 0.28214 -0.25364 0.82300
 C82 C 0.30265 -0.23709 0.82513
 C83 C 0.29936 -0.22001 0.80537
 H84 H 0.27801 -0.26981 0.83494
 H85 H 0.31155 -0.20421 0.80046
 Cu86 Cu 0.23688 -0.26182 0.78944
 Cu87 Cu 0.26378 -0.21027 0.76255
 Cu88 Cu 0.20955 -0.23774 0.73689
 N89 N 0.20692 -0.27746 0.77417
 N90 N 0.19630 -0.26789 0.75376
 C91 C 0.17643 -0.28255 0.74692
 C92 C 0.17437 -0.30263 0.76394
 C93 C 0.19417 -0.29860 0.78102
 H94 H 0.16470 -0.27889 0.73051
 H95 H 0.19917 -0.31023 0.79713
 N96 N 0.22583 -0.20722 0.72252
 N97 N 0.24647 -0.19678 0.73228
 C98 C 0.25337 -0.17681 0.71786
 C99 C 0.23632 -0.17454 0.69791
 C100 C 0.21908 -0.19418 0.70160
 H101 H 0.26983 -0.16503 0.72150
 H102 H 0.20300 -0.19893 0.68973
 H103 H 0.22654 -0.22173 0.76847
 H104 H 0.24687 -0.24286 0.74844
 N105 N 0.72229 -0.22616 0.79249
 N106 N 0.73229 -0.24669 0.80258
 C107 C 0.71801 -0.25389 0.82254
 C108 C 0.69794 -0.23691 0.82520
 C109 C 0.70138 -0.21954 0.80570
 H110 H 0.72184 -0.27041 0.83408
 H111 H 0.68950 -0.20339 0.80121
 Cu112 Cu 0.76249 -0.26232 0.78796
 Cu113 Cu 0.73653 -0.20997 0.76241
 Cu114 Cu 0.79054 -0.23784 0.73632
 N115 N 0.79272 -0.27792 0.77334
 N116 N 0.80360 -0.26816 0.75315
 C117 C 0.82361 -0.28268 0.74649
 C118 C 0.82550 -0.30287 0.76341
 C119 C 0.80542 -0.29908 0.78021
 H120 H 0.83564 -0.27878 0.73034
 H121 H 0.80019 -0.31089 0.79612
 N122 N 0.77435 -0.20713 0.72213
 N123 N 0.75383 -0.19656 0.73203
 C124 C 0.74696 -0.17657 0.71763
 C125 C 0.76391 -0.17442 0.69758
 C126 C 0.78105 -0.19415 0.70117
 H127 H 0.73057 -0.16473 0.72131
 H128 H 0.79703 -0.19901 0.68921
 H129 H 0.75302 -0.24229 0.74739
 H130 H 0.77359 -0.22201 0.76794
 N131 N 0.27807 0.22598 0.79233
 N132 N 0.26774 0.24614 0.80282
 C133 C 0.28205 0.25329 0.82278
 C134 C 0.30253 0.23672 0.82495
 C135 C 0.29926 0.21961 0.80523
 H136 H 0.27793 0.26948 0.83467
 H137 H 0.31145 0.20380 0.80035
 Cu138 Cu 0.23696 0.26152 0.78907
 Cu139 Cu 0.26381 0.20994 0.76229
 Cu140 Cu 0.20974 0.23758 0.73645
 N141 N 0.20706 0.27720 0.77379
 N142 N 0.19650 0.26771 0.75331
 C143 C 0.17667 0.28240 0.74647
 C144 C 0.17460 0.30233 0.76356
 C145 C 0.19427 0.29830 0.78068
 H146 H 0.16489 0.27891 0.73004
 H147 H 0.19913 0.30996 0.79681
 N148 N 0.22600 0.20707 0.72211
 N149 N 0.24658 0.19657 0.73194
 C150 C 0.25348 0.17661 0.71753
 C151 C 0.23647 0.17440 0.69754
 C152 C 0.21928 0.19407 0.70118
 H153 H 0.26988 0.16478 0.72122
 H154 H 0.20321 0.19884 0.68930
 H155 H 0.24706 0.24253 0.74815
 H156 H 0.22659 0.22145 0.76812
 N157 N 0.27828 -0.22569 0.20763
 N158 N 0.26790 -0.24585 0.19715
 C159 C 0.28219 -0.25306 0.17720
 C160 C 0.30270 -0.23653 0.17500
 C161 C 0.29947 -0.21937 0.19471
 H162 H 0.27808 -0.26931 0.16539
 H163 H 0.31172 -0.20361 0.19960
 Cu164 Cu 0.23738 -0.26107 0.21156
 Cu165 Cu 0.26413 -0.20958 0.23782
 Cu166 Cu 0.20983 -0.23726 0.26365
 N167 N 0.20718 -0.27684 0.22607
 N168 N 0.19657 -0.26736 0.24654
 C169 C 0.17672 -0.28204 0.25332
 C170 C 0.17468 -0.30196 0.23621
 C171 C 0.19440 -0.29794 0.21914
 H172 H 0.16494 -0.27857 0.26975
 H173 H 0.19935 -0.30966 0.20307
 N174 N 0.22624 -0.20680 0.27806
 N175 N 0.24686 -0.19629 0.26827
 C176 C 0.25374 -0.17635 0.28272
 C177 C 0.23669 -0.17416 0.30268
 C178 C 0.21949 -0.19382 0.29899
 H179 H 0.27015 -0.16451 0.27909
 H180 H 0.20339 -0.19858 0.31083
 H181 H 0.24727 -0.24191 0.25240
 H182 H 0.22689 -0.22100 0.23229
 N183 N 0.72199 0.22542 0.20734
 N184 N 0.73191 0.24602 0.19729
 C185 C 0.71771 0.25309 0.17725
 C186 C 0.69767 0.23608 0.17458
 C187 C 0.70114 0.21872 0.19407
 H188 H 0.72155 0.26960 0.16569
 H189 H 0.68927 0.20254 0.19856
 Cu190 Cu 0.76188 0.26213 0.21189
 Cu191 Cu 0.73619 0.20940 0.23745
 Cu192 Cu 0.79032 0.23704 0.26326
 N193 N 0.79259 0.27702 0.22624
 N194 N 0.80359 0.26712 0.24630
 C195 C 0.82377 0.28149 0.25280
 C196 C 0.82560 0.30163 0.23592
 C197 C 0.80547 0.29804 0.21925
 H198 H 0.83590 0.27768 0.26890
 H199 H 0.80029 0.31001 0.20344
 N200 N 0.77396 0.20661 0.27768
 N201 N 0.75338 0.19609 0.26786
 C202 C 0.74643 0.17621 0.28237
 C203 C 0.76341 0.17405 0.30238
 C204 C 0.78062 0.19371 0.29870
 H205 H 0.72998 0.16441 0.27874
 H206 H 0.79663 0.19856 0.31061
 H207 H 0.75280 0.24167 0.25235
 H208 H 0.77322 0.22160 0.23135
 C209 C 0.23820 0.00011 0.43204
 C210 C 0.23815 0.02301 0.44519
 C211 C 0.23808 0.02309 0.47176
 C212 C 0.23804 -0.00000 0.48583
 C213 C 0.23801 -0.02303 0.47168
 C214 C 0.23811 -0.02283 0.44512
 C215 C 0.23807 -0.00009 0.51469
 C216 C 0.23818 -0.02319 0.52876
 C217 C 0.23830 -0.02310 0.55533
 C218 C 0.23833 -0.00021 0.56848
 C219 C 0.23818 0.02273 0.55540
 C220 C 0.23803 0.02293 0.52884
 H221 H 0.23829 0.00014 0.41147
 H222 H 0.23807 0.04145 0.48075
 H223 H 0.23791 -0.04143 0.48060
 H224 H 0.23818 -0.04155 0.51977
 H225 H 0.23845 -0.00024 0.58905
 H226 H 0.23788 0.04133 0.51992
 C227 C 0.76181 -0.00004 0.56824
 C228 C 0.76180 0.02286 0.55510
 C229 C 0.76183 0.02296 0.52853
 C230 C 0.76197 -0.00012 0.51445
 C231 C 0.76210 -0.02316 0.52860
 C232 C 0.76197 -0.02298 0.55516
 C233 C 0.76194 -0.00019 0.48559
 C234 C 0.76173 -0.02328 0.47152
 C235 C 0.76166 -0.02319 0.44495
 C236 C 0.76171 -0.00029 0.43181
 C237 C 0.76193 0.02265 0.44487
 C238 C 0.76209 0.02284 0.47144
 H239 H 0.76172 -0.00002 0.58882
 H240 H 0.76174 0.04133 0.51953
 H241 H 0.76231 -0.04155 0.51968
 H242 H 0.76161 -0.04164 0.48052
 H243 H 0.76161 -0.00032 0.41123
 H244 H 0.76234 0.04123 0.48036
 C245 C 0.43149 0.23875 -0.00004
 C246 C 0.44473 0.23866 0.02278
 C247 C 0.47146 0.23855 0.02287
 C248 C 0.48560 0.23853 -0.00016
 C249 C 0.47137 0.23854 -0.02311
 C250 C 0.44465 0.23867 -0.02290
 C251 C 0.51463 0.23857 -0.00025
 C252 C 0.52878 0.23863 -0.02327
 C253 C 0.55551 0.23879 -0.02318
 C254 C 0.56874 0.23889 -0.00035
 C255 C 0.55557 0.23878 0.02251
 C256 C 0.52886 0.23862 0.02270
 H257 H 0.41079 0.23884 -0.00000
 H258 H 0.48050 0.23847 0.04117
 H259 H 0.48034 0.23845 -0.04144
 H260 H 0.51974 0.23854 -0.04158
 H261 H 0.58944 0.23902 -0.00038
 H262 H 0.51989 0.23852 0.04104
 C263 C 0.56902 0.76140 0.00035
 C264 C 0.55580 0.76145 0.02318
 C265 C 0.52907 0.76161 0.02328
 C266 C 0.51491 0.76170 0.00026
 C267 C 0.52914 0.76169 -0.02270
 C268 C 0.55586 0.76152 -0.02250
 C269 C 0.48588 0.76171 0.00019
 C270 C 0.47171 0.76171 -0.02283
 C271 C 0.44498 0.76155 -0.02273
 C272 C 0.43176 0.76141 0.00010
 C273 C 0.44493 0.76146 0.02296
 C274 C 0.47165 0.76163 0.02315
 H275 H 0.58972 0.76127 0.00038
 H276 H 0.52003 0.76164 0.04159
 H277 H 0.52016 0.76181 -0.04103
 H278 H 0.48075 0.76183 -0.04113
 H279 H 0.41105 0.76128 0.00009
 H280 H 0.48063 0.76169 0.04148
 C281 C -0.00027 0.43203 0.23749
 C282 C 0.02267 0.44525 0.23736
 C283 C 0.02274 0.47189 0.23725
 C284 C -0.00044 0.48597 0.23728
 C285 C -0.02352 0.47176 0.23739
 C286 C -0.02328 0.44513 0.23745
 C287 C -0.00056 0.51490 0.23718
 C288 C -0.02373 0.52898 0.23699
 C289 C -0.02367 0.55563 0.23696
 C290 C -0.00071 0.56885 0.23709
 C291 C 0.02230 0.55574 0.23716
 C292 C 0.02252 0.52911 0.23724
 H293 H -0.00022 0.41139 0.23759
 H294 H 0.04115 0.48093 0.23711
 H295 H -0.04198 0.48068 0.23743
 H296 H -0.04214 0.51994 0.23686
 H297 H -0.00076 0.58949 0.23710
 H298 H 0.04098 0.52018 0.23736
 C299 C 0.00015 0.56882 0.76278
 C300 C 0.02308 0.55558 0.76279
 C301 C 0.02310 0.52893 0.76275
 C302 C -0.00010 0.51487 0.76274
 C303 C -0.02316 0.52912 0.76282
 C304 C -0.02289 0.55576 0.76284
 C305 C -0.00025 0.48593 0.76270
 C306 C -0.02345 0.47186 0.76265
 C307 C -0.02341 0.44521 0.76263
 C308 C -0.00046 0.43198 0.76262
 C309 C 0.02257 0.44506 0.76271
 C310 C 0.02281 0.47170 0.76274
 H311 H 0.00024 0.58946 0.76276
 H312 H 0.04150 0.51987 0.76272
 H313 H -0.04163 0.52021 0.76288
 H314 H -0.04185 0.48091 0.76263
 H315 H -0.00053 0.41134 0.76256
 H316 H 0.04128 0.48061 0.76282
 C317 C 0.36264 0.21940 0.13848
 C318 C 0.36319 0.23838 0.11994
 C319 C 0.34399 0.25682 0.11934
 C320 C 0.32431 0.25633 0.13721
 C321 C 0.32350 0.23730 0.15599
 C322 C 0.34298 0.21885 0.15639
 C323 C 0.38291 0.23849 0.10096
 C324 C 0.39882 0.23857 0.08447
 C325 C 0.41643 0.23863 0.06424
 C326 C 0.43021 0.23866 0.04596
 H327 H 0.37731 0.20491 0.13901
 H328 H 0.34412 0.27152 0.10495
 H329 H 0.30976 0.27084 0.13612
 H330 H 0.34313 0.20387 0.17040
 C331 C 0.65658 0.74272 0.11991
 C332 C 0.63767 0.76145 0.12010
 C333 C 0.63849 0.78076 0.13826
 C334 C 0.65808 0.78134 0.15623
 C335 C 0.67733 0.76256 0.15636
 C336 C 0.67621 0.74322 0.13782
 C337 C 0.61792 0.76128 0.10113
 C338 C 0.60195 0.76122 0.08470
 C339 C 0.58423 0.76125 0.06455
 C340 C 0.57036 0.76133 0.04633
 H341 H 0.65624 0.72777 0.10579
 H342 H 0.62405 0.79548 0.13845
 H343 H 0.65794 0.79667 0.16985
 H344 H 0.69040 0.72835 0.13689
 C345 C 0.65659 0.25685 -0.11943
 C346 C 0.63744 0.23835 -0.11998
 C347 C 0.63817 0.21919 -0.13832
 C348 C 0.65794 0.21854 -0.15610
 C349 C 0.67735 0.23708 -0.15578
 C350 C 0.67638 0.25626 -0.13718
 C351 C 0.61760 0.23856 -0.10112
 C352 C 0.60159 0.23868 -0.08473
 C353 C 0.58389 0.23876 -0.06458
 C354 C 0.57005 0.23880 -0.04634
 H355 H 0.65633 0.27168 -0.10518
 H356 H 0.62354 0.20465 -0.13880
 H357 H 0.65791 0.20344 -0.16999
 H358 H 0.69088 0.27083 -0.13614
 C359 C 0.34413 0.74288 -0.11921
 C360 C 0.36331 0.76136 -0.11981
 C361 C 0.36272 0.78031 -0.13838
 C362 C 0.34308 0.78080 -0.15630
 C363 C 0.32363 0.76231 -0.15589
 C364 C 0.32446 0.74330 -0.13709
 C365 C 0.38305 0.76133 -0.10084
 C366 C 0.39899 0.76135 -0.08437
 C367 C 0.41663 0.76142 -0.06416
 C368 C 0.43044 0.76148 -0.04590
 H369 H 0.34428 0.72821 -0.10478
 H370 H 0.37736 0.79484 -0.13892
 H371 H 0.34321 0.79577 -0.17032
 H372 H 0.30994 0.72875 -0.13601
 C373 C 0.13861 0.36252 0.21833
 C374 C 0.11993 0.36348 0.23721
 C375 C 0.11892 0.34443 0.25567
 C376 C 0.13652 0.32448 0.25530
 C377 C 0.15545 0.32325 0.23639
 C378 C 0.15626 0.34258 0.21790
 C379 C 0.10111 0.38340 0.23716
 C380 C 0.08465 0.39940 0.23717
 C381 C 0.06437 0.41703 0.23721
 C382 C 0.04600 0.43080 0.23727
 H383 H 0.13944 0.37708 0.20383
 H384 H 0.10440 0.34487 0.27028
 H385 H 0.13510 0.31006 0.26982
 H386 H 0.17039 0.34238 0.20300
 C387 C 0.13941 0.63798 0.78180
 C388 C 0.12065 0.63709 0.76301
 C389 C 0.11968 0.65614 0.74458
 C390 C 0.13737 0.67601 0.74484
 C391 C 0.15648 0.67726 0.76367
 C392 C 0.15717 0.65784 0.78217
 C393 C 0.10175 0.61722 0.76309
 C394 C 0.08522 0.60128 0.76307
 C395 C 0.06487 0.58371 0.76299
 C396 C 0.04645 0.56999 0.76289
 H397 H 0.14023 0.62341 0.79629
 H398 H 0.10508 0.65576 0.73004
 H399 H 0.13576 0.69033 0.73024
 H400 H 0.17129 0.65777 0.79708
 C401 C -0.12009 0.65617 0.25498
 C402 C -0.12118 0.63713 0.23655
 C403 C -0.14007 0.63800 0.21790
 C404 C -0.15786 0.65781 0.21768
 C405 C -0.15707 0.67721 0.23619
 C406 C -0.13781 0.67601 0.25485
 C407 C -0.10230 0.61726 0.23641
 C408 C -0.08578 0.60132 0.23643
 C409 C -0.06543 0.58376 0.23658
 C410 C -0.04701 0.57006 0.23675
 H411 H -0.10539 0.65580 0.26942
 H412 H -0.14096 0.62344 0.20340
 H413 H -0.17208 0.65774 0.20285
 H414 H -0.13613 0.69031 0.26945
 C415 C -0.13893 0.36185 0.78168
 C416 C -0.12034 0.36300 0.76273
 C417 C -0.11938 0.34405 0.74419
 C418 C -0.13694 0.32406 0.74449
 C419 C -0.15593 0.32262 0.76343
 C420 C -0.15657 0.34190 0.78206
 C421 C -0.10163 0.38303 0.76276
 C422 C -0.08527 0.39914 0.76275
 C423 C -0.06507 0.41690 0.76270
 C424 C -0.04674 0.43073 0.76266
 H425 H -0.13971 0.37631 0.79628
 H426 H -0.10491 0.34463 0.72953
 H427 H -0.13540 0.30986 0.72978
 H428 H -0.17053 0.34177 0.79711
 C429 C 0.25677 0.11944 0.34477
 C430 C 0.23792 0.11993 0.36351
 C431 C 0.21852 0.13813 0.36234
 C432 C 0.21800 0.15582 0.34255
 C433 C 0.23691 0.15555 0.32357
 C434 C 0.25631 0.13709 0.32497
 C435 C 0.23801 0.10113 0.38335
 C436 C 0.23807 0.08473 0.39932
 C437 C 0.23812 0.06454 0.41696
 C438 C 0.23815 0.04625 0.43073
 H439 H 0.27176 0.10527 0.34535
 H440 H 0.20368 0.13854 0.37661
 H441 H 0.20269 0.16956 0.34220
 H442 H 0.27118 0.13610 0.31081
 C443 C 0.78145 0.13853 0.63732
 C444 C 0.76230 0.12004 0.63648
 C445 C 0.74370 0.11937 0.65546
 C446 C 0.74418 0.13710 0.67518
 C447 C 0.76336 0.15582 0.67627
 C448 C 0.78199 0.15630 0.65703
 C449 C 0.76218 0.10116 0.61672
 C450 C 0.76206 0.08469 0.60082
 C451 C 0.76193 0.06443 0.58327
 C452 C 0.76184 0.04611 0.56954
 H453 H 0.79608 0.13911 0.62283
 H454 H 0.72888 0.10501 0.65513
 H455 H 0.72952 0.13595 0.68954
 H456 H 0.79711 0.17027 0.65711
 C457 C 0.25681 -0.11962 0.65570
 C458 C 0.23797 -0.12010 0.63693
 C459 C 0.21855 -0.13828 0.63808
 C460 C 0.21799 -0.15597 0.65787
 C461 C 0.23686 -0.15571 0.67688
 C462 C 0.25630 -0.13728 0.67549
 C463 C 0.23810 -0.10128 0.61711
 C464 C 0.23820 -0.08487 0.60115
 C465 C 0.23828 -0.06466 0.58354
 C466 C 0.23831 -0.04635 0.56978
 H467 H 0.27183 -0.10549 0.65513
 H468 H 0.20374 -0.13870 0.62378
 H469 H 0.20267 -0.16971 0.65819
 H470 H 0.27116 -0.13631 0.68965
 C471 C 0.78098 -0.13852 0.36227
 C472 C 0.76182 -0.12005 0.36322
 C473 C 0.74321 -0.11928 0.34424
 C474 C 0.74369 -0.13691 0.32442
 C475 C 0.76287 -0.15562 0.32323
 C476 C 0.78151 -0.15618 0.34246
 C477 C 0.76172 -0.10128 0.38308
 C478 C 0.76165 -0.08489 0.39907
 C479 C 0.76160 -0.06472 0.41672
 C480 C 0.76160 -0.04643 0.43050
 H481 H 0.79561 -0.13917 0.37675
 H482 H 0.72839 -0.10493 0.34466
 H483 H 0.72902 -0.13569 0.31008
 H484 H 0.79663 -0.17014 0.34231
 C485 C 0.65656 0.74278 -0.11920
 C486 C 0.63767 0.76155 -0.11939
 C487 C 0.63848 0.78087 -0.13757
 C488 C 0.65804 0.78139 -0.15557
 C489 C 0.67715 0.76257 -0.15563
 C490 C 0.67614 0.74324 -0.13717
 C491 C 0.61796 0.76140 -0.10042
 C492 C 0.60201 0.76136 -0.08397
 C493 C 0.58433 0.76139 -0.06382
 C494 C 0.57046 0.76145 -0.04561
 H495 H 0.65624 0.72784 -0.10506
 H496 H 0.62407 0.79562 -0.13776
 H497 H 0.65808 0.79662 -0.16932
 H498 H 0.69042 0.72844 -0.13643
 C499 C 0.34401 0.25700 -0.11951
 C500 C 0.36318 0.23852 -0.12005
 C501 C 0.36260 0.21948 -0.13851
 C502 C 0.34295 0.21890 -0.15642
 C503 C 0.32350 0.23738 -0.15608
 C504 C 0.32434 0.25648 -0.13738
 C505 C 0.38289 0.23864 -0.10108
 C506 C 0.39877 0.23871 -0.08457
 C507 C 0.41633 0.23873 -0.06432
 C508 C 0.43009 0.23871 -0.04604
 H509 H 0.34417 0.27173 -0.10516
 H510 H 0.37724 0.20495 -0.13898
 H511 H 0.34307 0.20387 -0.17037
 H512 H 0.30983 0.27104 -0.13637
 C513 C 0.36289 0.78048 0.13855
 C514 C 0.36344 0.76140 0.12012
 C515 C 0.34423 0.74296 0.11959
 C516 C 0.32453 0.74356 0.13744
 C517 C 0.32371 0.76270 0.15609
 C518 C 0.34322 0.78113 0.15642
 C519 C 0.38314 0.76125 0.10113
 C520 C 0.39903 0.76122 0.08463
 C521 C 0.41660 0.76126 0.06438
 C522 C 0.43037 0.76134 0.04610
 H523 H 0.37757 0.79496 0.13901
 H524 H 0.34437 0.72819 0.10527
 H525 H 0.30999 0.72903 0.13643
 H526 H 0.34336 0.79619 0.17035
 C527 C 0.63762 0.21896 0.13800
 C528 C 0.63700 0.23812 0.11965
 C529 C 0.65617 0.25660 0.11917
 C530 C 0.67589 0.25597 0.13698
 C531 C 0.67675 0.23676 0.15557
 C532 C 0.65731 0.21827 0.15584
 C533 C 0.61728 0.23836 0.10070
 C534 C 0.60140 0.23852 0.08420
 C535 C 0.58386 0.23866 0.06393
 C536 C 0.57012 0.23874 0.04564
 H537 H 0.62296 0.20445 0.13843
 H538 H 0.65597 0.27144 0.10492
 H539 H 0.69039 0.27054 0.13601
 H540 H 0.65719 0.20318 0.16975
 C541 C -0.11936 0.65633 0.74459
 C542 C -0.12035 0.63732 0.76306
 C543 C -0.13924 0.63812 0.78172
 C544 C -0.15714 0.65783 0.78190
 C545 C -0.15645 0.67719 0.76334
 C546 C -0.13719 0.67606 0.74467
 C547 C -0.10140 0.61753 0.76323
 C548 C -0.08485 0.60164 0.76324
 C549 C -0.06450 0.58410 0.76313
 C550 C -0.04613 0.57033 0.76300
 H551 H -0.10466 0.65600 0.73015
 H552 H -0.14005 0.62358 0.79625
 H553 H -0.17136 0.65770 0.79672
 H554 H -0.13559 0.69033 0.73003
 C555 C -0.13884 0.36212 0.21822
 C556 C -0.12024 0.36314 0.23717
 C557 C -0.11924 0.34409 0.25563
 C558 C -0.13678 0.32411 0.25521
 C559 C -0.15564 0.32283 0.23625
 C560 C -0.15643 0.34214 0.21774
 C561 C -0.10150 0.38310 0.23719
 C562 C -0.08509 0.39913 0.23724
 C563 C -0.06486 0.41679 0.23732
 C564 C -0.04653 0.43059 0.23740
 H565 H -0.13965 0.37669 0.20372
 H566 H -0.10479 0.34460 0.27030
 H567 H -0.13540 0.30973 0.26977
 H568 H -0.17052 0.34191 0.20279
 C569 C 0.13866 0.36250 0.78159
 C570 C 0.12001 0.36350 0.76268
 C571 C 0.11919 0.34459 0.74407
 C572 C 0.13691 0.32477 0.74432
 C573 C 0.15579 0.32349 0.76327
 C574 C 0.15644 0.34268 0.78190
 C575 C 0.10107 0.38329 0.76281
 C576 C 0.08454 0.39920 0.76286
 C577 C 0.06420 0.41676 0.76285
 C578 C 0.04582 0.43051 0.76280
 H579 H 0.13935 0.37696 0.79620
 H580 H 0.10470 0.34506 0.72943
 H581 H 0.13562 0.31046 0.72968
 H582 H 0.17055 0.34247 0.79683
 C583 C 0.13878 0.63781 0.21827
 C584 C 0.12011 0.63685 0.23717
 C585 C 0.11930 0.65576 0.25577
 C586 C 0.13703 0.67558 0.25550
 C587 C 0.15591 0.67684 0.23654
 C588 C 0.15657 0.65762 0.21794
 C589 C 0.10111 0.61713 0.23702
 C590 C 0.08448 0.60132 0.23698
 C591 C 0.06404 0.58389 0.23702
 C592 C 0.04559 0.57023 0.23709
 H593 H 0.13946 0.62334 0.20367
 H594 H 0.10480 0.65531 0.27041
 H595 H 0.13574 0.68990 0.27013
 H596 H 0.17069 0.65782 0.20302
 C597 C 0.78140 -0.13856 0.63744
 C598 C 0.76225 -0.12009 0.63655
 C599 C 0.74366 -0.11933 0.65553
 C600 C 0.74416 -0.13696 0.67534
 C601 C 0.76335 -0.15566 0.67650
 C602 C 0.78196 -0.15623 0.65724
 C603 C 0.76218 -0.10125 0.61677
 C604 C 0.76212 -0.08478 0.60087
 C605 C 0.76207 -0.06452 0.58335
 C606 C 0.76203 -0.04619 0.56964
 H607 H 0.79602 -0.13919 0.62295
 H608 H 0.72885 -0.10496 0.65515
 H609 H 0.72952 -0.13574 0.68971
 H610 H 0.79707 -0.17019 0.65737
 C611 C 0.21876 -0.13809 0.36252
 C612 C 0.23800 -0.11973 0.36357
 C613 C 0.25677 -0.11906 0.34475
 C614 C 0.25638 -0.13672 0.32498
 C615 C 0.23711 -0.15534 0.32369
 C616 C 0.21831 -0.15579 0.34275
 C617 C 0.23802 -0.10092 0.38337
 C618 C 0.23805 -0.08451 0.39930
 C619 C 0.23807 -0.06431 0.41688
 C620 C 0.23809 -0.04602 0.43063
 H621 H 0.20400 -0.13865 0.37687
 H622 H 0.27166 -0.10478 0.34527
 H623 H 0.27117 -0.13561 0.31076
 H624 H 0.20312 -0.16968 0.34251
 C625 C 0.78122 0.13801 0.36228
 C626 C 0.76201 0.11960 0.36328
 C627 C 0.74327 0.11893 0.34444
 C628 C 0.74368 0.13661 0.32467
 C629 C 0.76292 0.15526 0.32342
 C630 C 0.78168 0.15572 0.34253
 C631 C 0.76201 0.10075 0.38306
 C632 C 0.76201 0.08433 0.39899
 C633 C 0.76200 0.06412 0.41659
 C634 C 0.76198 0.04584 0.43036
 H635 H 0.79595 0.13858 0.37666
 H636 H 0.72841 0.10462 0.34491
 H637 H 0.72893 0.13548 0.31041
 H638 H 0.79685 0.16963 0.34230
 C639 C 0.25669 0.11924 0.65560
 C640 C 0.23795 0.11984 0.63675
 C641 C 0.21872 0.13822 0.63771
 C642 C 0.21822 0.15597 0.65742
 C643 C 0.23697 0.15556 0.67655
 C644 C 0.25625 0.13695 0.67533
 C645 C 0.23800 0.10096 0.61702
 C646 C 0.23804 0.08449 0.60114
 C647 C 0.23809 0.06424 0.58361
 C648 C 0.23813 0.04593 0.56989
 H649 H 0.27157 0.10496 0.65516
 H650 H 0.20400 0.13873 0.62331
 H651 H 0.20305 0.16987 0.65760
 H652 H 0.27102 0.13588 0.68958
   
