data_POSCAR
  _audit_creation_date              2014-09-24
  _audit_creation_method            'ToBaCCo'
  _symmetry_space_group_name_H-M    'P1'
  _symmetry_Int_Tables_number       1
  _symmetry_cell_setting            triclinic
  loop_
  _symmetry_equiv_pos_as_xyz
 x,y,z
_cell_length_a 42.2801
_cell_length_b 42.2808
_cell_length_c 41.7044
_cell_angle_alpha 89.963400
_cell_angle_beta 89.963300
_cell_angle_gamma 90.507500
loop_
  _atom_site_label
  _atom_site_type_symbol
  _atom_site_fract_x
  _atom_site_fract_y
  _atom_site_fract_z
O1 O -0.02998 0.28090 0.03018
 O2 O 0.03138 0.28021 -0.03257
 O3 O -0.03025 0.28044 -0.03220
 O4 O 0.03166 0.28074 0.02985
 O5 O 0.03103 0.22843 0.03029
 O6 O -0.03086 0.22813 -0.03174
 O7 O 0.03074 0.22791 -0.03211
 O8 O -0.03058 0.22859 0.03062
 Cu9 Cu 0.00077 0.28586 -0.00123
 Cu10 Cu 0.00003 0.22298 -0.00069
 C11 C -0.04068 0.25485 0.04094
 C12 C 0.04144 0.25394 -0.04291
 C13 C -0.04105 0.25423 -0.04239
 C14 C 0.04181 0.25463 0.04052
 O15 O 0.46932 0.78075 0.53064
 O16 O 0.53069 0.78009 0.46791
 O17 O 0.46904 0.78038 0.46822
 O18 O 0.53099 0.78049 0.53036
 O19 O 0.53029 0.72819 0.53071
 O20 O 0.46836 0.72808 0.46859
 O21 O 0.52999 0.72779 0.46828
 O22 O 0.46865 0.72844 0.53099
 Cu23 Cu 0.50009 0.78571 0.49925
 Cu24 Cu 0.49926 0.72285 0.49968
 C25 C 0.45858 0.75470 0.54135
 C26 C 0.54072 0.75383 0.45753
 C27 C 0.45820 0.75421 0.45796
 C28 C 0.54112 0.75436 0.54100
 O29 O 1.03144 0.72246 0.03063
 O30 O 0.97000 0.72288 -0.03204
 O31 O 1.03159 0.72291 -0.03191
 O32 O 0.96984 0.72227 0.03043
 O33 O 0.97020 0.77457 0.03085
 O34 O 1.03197 0.77521 -0.03151
 O35 O 0.97038 0.77519 -0.03162
 O36 O 1.03180 0.77476 0.03103
 Cu37 Cu 1.00069 0.71736 -0.00076
 Cu38 Cu 1.00114 0.78020 -0.00027
 C39 C 1.04195 0.74855 0.04146
 C40 C 0.95982 0.74911 -0.04241
 C41 C 1.04217 0.74916 -0.04228
 C42 C 0.95960 0.74831 0.04116
 O43 O 0.46894 0.22199 0.46813
 O44 O 0.53018 0.22159 0.53086
 O45 O 0.46861 0.22134 0.53058
 O46 O 0.53050 0.22212 0.46837
 O47 O 0.53081 0.27442 0.46882
 O48 O 0.46892 0.27365 0.53104
 O49 O 0.53048 0.27390 0.53131
 O50 O 0.46925 0.27430 0.46859
 Cu51 Cu 0.49954 0.21648 0.49944
 Cu52 Cu 0.49991 0.27935 0.49999
 C53 C 0.45878 0.24821 0.45776
 C54 C 0.54062 0.24768 0.54171
 C55 C 0.45833 0.24736 0.54132
 C56 C 0.54107 0.24839 0.45806
 O57 O 0.72135 -0.03074 0.03162
 O58 O 0.72149 0.03061 -0.03115
 O59 O 0.72098 -0.03099 -0.03075
 O60 O 0.72178 0.03084 0.03137
 O61 O 0.77409 0.03093 0.03105
 O62 O 0.77329 -0.03090 -0.03107
 O63 O 0.77379 0.03068 -0.03146
 O64 O 0.77366 -0.03064 0.03130
 Cu65 Cu 0.71612 -0.00004 0.00030
 Cu66 Cu 0.77899 0.00006 -0.00008
 C67 C 0.74749 -0.04107 0.04202
 C68 C 0.74766 0.04097 -0.04194
 C69 C 0.74701 -0.04141 -0.04135
 C70 C 0.74806 0.04127 0.04174
 O71 O 0.22105 0.53002 0.46930
 O72 O 0.22090 0.46871 0.53210
 O73 O 0.22126 0.53033 0.53186
 O74 O 0.22066 0.46840 0.46969
 O75 O 0.27297 0.46856 0.46947
 O76 O 0.27356 0.53048 0.53163
 O77 O 0.27321 0.46887 0.53188
 O78 O 0.27335 0.53017 0.46909
 Cu79 Cu 0.21569 0.49938 0.50076
 Cu80 Cu 0.27854 0.49957 0.50050
 C81 C 0.24723 0.54040 0.45855
 C82 C 0.24703 0.45841 0.54255
 C83 C 0.24751 0.54082 0.54229
 C84 C 0.24672 0.45799 0.45912
 O85 O 0.27878 1.03192 0.03212
 O86 O 0.27969 0.97044 -0.03050
 O87 O 0.27923 1.03208 -0.03041
 O88 O 0.27936 0.97028 0.03189
 O89 O 0.22705 0.96940 0.03159
 O90 O 0.22693 1.03119 -0.03071
 O91 O 0.22739 0.96957 -0.03078
 O92 O 0.22648 1.03102 0.03181
 Cu93 Cu 0.28454 1.00130 0.00081
 Cu94 Cu 0.22169 1.00024 0.00045
 C95 C 0.25247 1.04184 0.04256
 C96 C 0.25368 0.95958 -0.04115
 C97 C 0.25306 1.04204 -0.04111
 C98 C 0.25322 0.95936 0.04220
 O99 O 0.77923 0.53051 0.53232
 O100 O 0.78038 0.46916 0.46973
 O101 O 0.77989 0.53075 0.46983
 O102 O 0.77982 0.46891 0.53209
 O103 O 0.72751 0.46801 0.53161
 O104 O 0.72758 0.52985 0.46936
 O105 O 0.72807 0.46827 0.46926
 O106 O 0.72692 0.52960 0.53183
 Cu107 Cu 0.78511 0.49995 0.50105
 Cu108 Cu 0.72224 0.49887 0.50047
 C109 C 0.75288 0.54040 0.54265
 C110 C 0.75440 0.45832 0.45898
 C111 C 0.75375 0.54071 0.45907
 C112 C 0.75365 0.45797 0.54230
 C113 C 0.24972 0.22625 0.22563
 C114 C 0.22632 0.24999 0.22554
 C115 C 0.22660 0.27315 0.24963
 C116 C 0.24979 0.27341 0.27366
 C117 C 0.27353 0.25000 0.27341
 C118 C 0.27308 0.22667 0.24950
 H119 H 0.29115 0.20863 0.24946
 H120 H 0.20854 0.29121 0.24966
 C121 C 0.75017 0.77235 0.22543
 C122 C 0.77476 0.74986 0.22646
 C123 C 0.77503 0.72725 0.25109
 C124 C 0.75107 0.72613 0.27437
 C125 C 0.72644 0.74858 0.27328
 C126 C 0.72620 0.77121 0.24868
 H127 H 0.70767 0.78878 0.24821
 H128 H 0.79357 0.70969 0.25157
 C129 C 0.77424 0.25052 0.22590
 C130 C 0.75056 0.22664 0.22603
 C131 C 0.72706 0.22699 0.24980
 C132 C 0.72676 0.25040 0.27362
 C133 C 0.75079 0.27392 0.27382
 C134 C 0.77410 0.27375 0.24989
 H135 H 0.79237 0.29192 0.24993
 H136 H 0.70880 0.20882 0.24976
 C137 C 0.22506 0.74935 0.22590
 C138 C 0.24895 0.77303 0.22587
 C139 C 0.27223 0.77277 0.24982
 C140 C 0.27246 0.74937 0.27367
 C141 C 0.24887 0.72539 0.27341
 C142 C 0.22543 0.72578 0.24960
 H143 H 0.20725 0.70753 0.24952
 H144 H 0.29041 0.79103 0.24990
 C145 C 0.72526 0.24849 0.72672
 C146 C 0.74919 0.27211 0.72647
 C147 C 0.77257 0.27188 0.75030
 C148 C 0.77283 0.24856 0.77421
 C149 C 0.74920 0.22463 0.77417
 C150 C 0.72566 0.22499 0.75049
 H151 H 0.70743 0.20678 0.75056
 H152 H 0.79079 0.29010 0.75023
 C153 C 0.27352 0.75062 0.72634
 C154 C 0.24987 0.72669 0.72654
 C155 C 0.22640 0.72711 0.75034
 C156 C 0.22608 0.75062 0.77408
 C157 C 0.25007 0.77420 0.77421
 C158 C 0.27336 0.77395 0.75025
 H159 H 0.29160 0.79214 0.75020
 H160 H 0.20815 0.70892 0.75039
 C161 C 0.24937 0.27185 0.72601
 C162 C 0.27388 0.24927 0.72701
 C163 C 0.27413 0.22670 0.75168
 C164 C 0.25022 0.22571 0.77502
 C165 C 0.22566 0.24823 0.77394
 C166 C 0.22544 0.27082 0.74930
 H167 H 0.20698 0.28846 0.74884
 H168 H 0.29262 0.20909 0.75215
 C169 C 0.74984 0.72663 0.72597
 C170 C 0.72636 0.75030 0.72580
 C171 C 0.72666 0.77352 0.74979
 C172 C 0.74992 0.77390 0.77377
 C173 C 0.77373 0.75057 0.77361
 C174 C 0.77327 0.72718 0.74978
 H175 H 0.79137 0.70916 0.74977
 H176 H 0.70856 0.79154 0.74982
 C177 C 0.22384 0.15717 0.17356
 C178 C 0.25089 0.15257 0.15479
 C179 C 0.27766 0.17171 0.15956
 C180 C 0.27734 0.19551 0.18282
 C181 C 0.25212 0.06445 0.06567
 C182 C 0.22349 0.18095 0.19685
 C183 C 0.25115 0.12833 0.13054
 C184 C 0.25143 0.10813 0.11015
 C185 C 0.25180 0.08454 0.08618
 C186 C 0.25014 0.20052 0.20145
 H187 H 0.20302 0.14243 0.17015
 H188 H 0.29873 0.16834 0.14521
 H189 H 0.29812 0.21033 0.18600
 H190 H 0.20244 0.18413 0.21126
 C191 C 0.72406 0.65717 0.67454
 C192 C 0.75103 0.65264 0.65567
 C193 C 0.77772 0.67196 0.66013
 C194 C 0.77739 0.69588 0.68322
 C195 C 0.75243 0.56428 0.56702
 C196 C 0.72370 0.68108 0.69767
 C197 C 0.75131 0.62830 0.63159
 C198 C 0.75161 0.60803 0.61130
 C199 C 0.75204 0.58440 0.58745
 C200 C 0.75027 0.70082 0.70196
 H201 H 0.70331 0.64228 0.67135
 H202 H 0.79873 0.66862 0.64566
 H203 H 0.79810 0.71085 0.68619
 H204 H 0.70271 0.68423 0.71219
 C205 C 0.72214 0.82604 0.15868
 C206 C 0.74838 0.84611 0.15471
 C207 C 0.77507 0.84233 0.17414
 C208 C 0.77561 0.81847 0.19734
 C209 C 0.74748 0.93491 0.06632
 C210 C 0.72266 0.80214 0.18185
 C211 C 0.74797 0.87050 0.13064
 C212 C 0.74773 0.89087 0.11041
 C213 C 0.74755 0.91466 0.08667
 C214 C 0.74952 0.79798 0.20116
 H215 H 0.70136 0.82878 0.14379
 H216 H 0.79545 0.85780 0.17135
 H217 H 0.79635 0.81596 0.21231
 H218 H 0.70231 0.78662 0.18447
 C219 C 0.22143 0.32563 0.65928
 C220 C 0.24774 0.34559 0.65525
 C221 C 0.27445 0.34170 0.67463
 C222 C 0.27494 0.31785 0.69783
 C223 C 0.24700 0.43439 0.56685
 C224 C 0.22190 0.30173 0.68246
 C225 C 0.24738 0.36998 0.63117
 C226 C 0.24718 0.39035 0.61095
 C227 C 0.24704 0.41414 0.58720
 C228 C 0.24877 0.29747 0.70172
 H229 H 0.20063 0.32845 0.64443
 H230 H 0.29489 0.35709 0.67179
 H231 H 0.29570 0.31527 0.71276
 H232 H 0.20148 0.28630 0.68513
 C233 C 0.85471 0.25332 0.18604
 C234 C 0.84642 0.25418 0.15356
 C235 C 0.81448 0.25433 0.14470
 C236 C 0.79092 0.25343 0.16822
 C237 C 0.93523 0.25505 0.06516
 C238 C 0.83117 0.25239 0.20958
 C239 C 0.87069 0.25468 0.12936
 C240 C 0.89106 0.25494 0.10912
 C241 C 0.91491 0.25508 0.08544
 C242 C 0.79909 0.25213 0.20085
 H243 H 0.87935 0.25322 0.19316
 H244 H 0.80781 0.25509 0.11963
 H245 H 0.76632 0.25369 0.16100
 H246 H 0.83794 0.25141 0.23460
 C247 C 0.35397 0.75338 0.68645
 C248 C 0.34567 0.75414 0.65397
 C249 C 0.31373 0.75425 0.64511
 C250 C 0.29017 0.75339 0.66864
 C251 C 0.43448 0.75490 0.56557
 C252 C 0.33044 0.75249 0.71000
 C253 C 0.36994 0.75460 0.62976
 C254 C 0.39030 0.75483 0.60952
 C255 C 0.41415 0.75494 0.58584
 C256 C 0.29836 0.75219 0.70127
 H257 H 0.37861 0.75331 0.69356
 H258 H 0.30705 0.75493 0.62005
 H259 H 0.26557 0.75361 0.66143
 H260 H 0.33722 0.75158 0.73502
 C261 C 0.15621 0.77512 0.17408
 C262 C 0.15158 0.74835 0.15484
 C263 C 0.17050 0.72169 0.15935
 C264 C 0.19416 0.72191 0.18277
 C265 C 0.06443 0.74842 0.06472
 C266 C 0.17984 0.77536 0.19753
 C267 C 0.12762 0.74831 0.13030
 C268 C 0.10766 0.74831 0.10965
 C269 C 0.08434 0.74834 0.08541
 C270 C 0.19925 0.74888 0.20181
 H271 H 0.14165 0.79584 0.17088
 H272 H 0.16711 0.70084 0.14463
 H273 H 0.20886 0.70126 0.18570
 H274 H 0.18310 0.79623 0.21224
 C275 C 0.65620 0.27424 0.67534
 C276 C 0.65151 0.24746 0.65614
 C277 C 0.67044 0.22080 0.66053
 C278 C 0.69420 0.22103 0.68381
 C279 C 0.56432 0.24755 0.56628
 C280 C 0.67993 0.27448 0.69866
 C281 C 0.62751 0.24743 0.63171
 C282 C 0.60752 0.24743 0.61113
 C283 C 0.58421 0.24748 0.58695
 C284 C 0.69936 0.24800 0.70281
 H285 H 0.64161 0.29495 0.67221
 H286 H 0.66699 0.19995 0.64581
 H287 H 0.70893 0.20039 0.68666
 H288 H 0.68327 0.29535 0.71336
 C289 C 0.72147 0.16985 0.84055
 C290 C 0.74812 0.15093 0.84501
 C291 C 0.77495 0.15566 0.82584
 C292 C 0.77523 0.17939 0.80247
 C293 C 0.74772 0.06345 0.93481
 C294 C 0.72173 0.19361 0.81722
 C295 C 0.74801 0.12686 0.86943
 C296 C 0.74791 0.10681 0.89000
 C297 C 0.74780 0.08341 0.91416
 C298 C 0.74873 0.19879 0.79823
 H299 H 0.70058 0.16637 0.85523
 H300 H 0.79567 0.14109 0.82901
 H301 H 0.79613 0.18273 0.78779
 H302 H 0.70107 0.20830 0.81431
 C303 C 0.27456 0.65634 0.32498
 C304 C 0.24769 0.65154 0.34408
 C305 C 0.22101 0.67042 0.33956
 C306 C 0.22129 0.69421 0.31627
 C307 C 0.24730 0.56414 0.43396
 C308 C 0.27486 0.68010 0.30165
 C309 C 0.24757 0.62748 0.36851
 C310 C 0.24748 0.60745 0.38909
 C311 C 0.24737 0.58408 0.41328
 C312 C 0.24835 0.69947 0.29737
 H313 H 0.29529 0.64181 0.32821
 H314 H 0.20009 0.66689 0.35419
 H315 H 0.20062 0.70888 0.31332
 H316 H 0.29580 0.68351 0.28704
 C317 C 0.25292 0.85473 0.81392
 C318 C 0.25358 0.84649 0.84643
 C319 C 0.25363 0.81455 0.85536
 C320 C 0.25282 0.79096 0.83188
 C321 C 0.25398 0.93543 0.93468
 C322 C 0.25207 0.83116 0.79042
 C323 C 0.25395 0.87080 0.87060
 C324 C 0.25410 0.89119 0.89080
 C325 C 0.25410 0.91507 0.91445
 C326 C 0.25169 0.79909 0.79922
 H327 H 0.25289 0.87936 0.80673
 H328 H 0.25424 0.80790 0.88044
 H329 H 0.25298 0.76637 0.83916
 H330 H 0.25123 0.83792 0.76538
 C331 C 0.75370 0.35420 0.31385
 C332 C 0.75446 0.34577 0.34630
 C333 C 0.75457 0.31381 0.35510
 C334 C 0.75370 0.29034 0.33152
 C335 C 0.75479 0.43426 0.43480
 C336 C 0.75279 0.33076 0.29025
 C337 C 0.75485 0.36993 0.37055
 C338 C 0.75499 0.39022 0.39082
 C339 C 0.75496 0.41398 0.41452
 C340 C 0.75247 0.29866 0.29892
 H341 H 0.75362 0.37887 0.30680
 H342 H 0.75525 0.30704 0.38014
 H343 H 0.75389 0.26571 0.33866
 H344 H 0.75186 0.33763 0.26525
 C345 C 0.18488 0.25291 0.85477
 C346 C 0.15300 0.25155 0.84576
 C347 C 0.14490 0.24944 0.81328
 C348 C 0.16858 0.24851 0.78989
 C349 C 0.06417 0.25365 0.93411
 C350 C 0.20857 0.25202 0.83141
 C351 C 0.12862 0.25227 0.86984
 C352 C 0.10825 0.25279 0.89005
 C353 C 0.08444 0.25330 0.91377
 C354 C 0.20061 0.24952 0.79880
 H355 H 0.19140 0.25466 0.87983
 H356 H 0.12031 0.24841 0.80605
 H357 H 0.16196 0.24664 0.76488
 H358 H 0.23312 0.25331 0.83875
 C359 C 0.68553 0.75302 0.35406
 C360 C 0.65367 0.75161 0.34500
 C361 C 0.64562 0.74953 0.31250
 C362 C 0.66933 0.74870 0.28915
 C363 C 0.56476 0.75353 0.43326
 C364 C 0.70926 0.75222 0.33073
 C365 C 0.62926 0.75226 0.36905
 C366 C 0.60886 0.75273 0.38924
 C367 C 0.58504 0.75321 0.41294
 C368 C 0.70135 0.74976 0.29810
 H369 H 0.69202 0.75475 0.37913
 H370 H 0.62104 0.74847 0.30523
 H371 H 0.66276 0.74685 0.26412
 H372 H 0.73379 0.75355 0.33811
 C373 C 0.82858 0.72299 0.83956
 C374 C 0.84767 0.74983 0.84417
 C375 C 0.84295 0.77679 0.82530
 C376 C 0.81911 0.77699 0.80208
 C377 C 0.93590 0.74929 0.93318
 C378 C 0.80471 0.72317 0.81638
 C379 C 0.87195 0.74975 0.86838
 C380 C 0.89218 0.74963 0.88875
 C381 C 0.91579 0.74945 0.91269
 C382 C 0.79957 0.75028 0.79766
 H383 H 0.83204 0.70199 0.85400
 H384 H 0.85765 0.79766 0.82858
 H385 H 0.81582 0.79798 0.78761
 H386 H 0.78992 0.70234 0.81333
 C387 C 0.32806 0.22223 0.33943
 C388 C 0.34725 0.24900 0.34400
 C389 C 0.34274 0.27594 0.32508
 C390 C 0.31897 0.27621 0.30181
 C391 C 0.43498 0.24839 0.43330
 C392 C 0.30425 0.22248 0.31620
 C393 C 0.37140 0.24886 0.36828
 C394 C 0.39151 0.24873 0.38872
 C395 C 0.41498 0.24854 0.41274
 C396 C 0.29932 0.24959 0.29744
 H397 H 0.33137 0.20125 0.35393
 H398 H 0.35753 0.29674 0.32836
 H399 H 0.31580 0.29719 0.28729
 H400 H 0.28935 0.20173 0.31316
 C401 C 0.74768 0.85417 0.81379
 C402 C 0.74679 0.84574 0.84624
 C403 C 0.74638 0.81378 0.85504
 C404 C 0.74707 0.79031 0.83147
 C405 C 0.74672 0.93439 0.93459
 C406 C 0.74841 0.83073 0.79019
 C407 C 0.74654 0.86991 0.87049
 C408 C 0.74648 0.89022 0.89073
 C409 C 0.74656 0.91404 0.91439
 C410 C 0.74843 0.79863 0.79886
 H411 H 0.74798 0.87884 0.80673
 H412 H 0.74559 0.80701 0.88009
 H413 H 0.74664 0.76568 0.83862
 H414 H 0.74943 0.83760 0.76519
 C415 C 0.24756 0.35364 0.31395
 C416 C 0.24675 0.34517 0.34640
 C417 C 0.24641 0.31317 0.35510
 C418 C 0.24708 0.28974 0.33146
 C419 C 0.24651 0.43378 0.43501
 C420 C 0.24826 0.33024 0.29029
 C421 C 0.24649 0.36931 0.37074
 C422 C 0.24639 0.38961 0.39104
 C423 C 0.24641 0.41342 0.41477
 C424 C 0.24834 0.29811 0.29885
 H425 H 0.24781 0.37832 0.30694
 H426 H 0.24569 0.30633 0.38013
 H427 H 0.24669 0.26510 0.33856
 H428 H 0.24921 0.33718 0.26530
 C429 C 0.22537 0.15624 0.82707
 C430 C 0.25208 0.15266 0.84652
 C431 C 0.27834 0.17264 0.84225
 C432 C 0.27782 0.19626 0.81879
 C433 C 0.25300 0.06472 0.93584
 C434 C 0.22483 0.17983 0.80359
 C435 C 0.25248 0.12856 0.87091
 C436 C 0.25272 0.10842 0.89138
 C437 C 0.25291 0.08485 0.91536
 C438 C 0.25093 0.20025 0.79948
 H439 H 0.20497 0.14084 0.83008
 H440 H 0.29914 0.17004 0.85714
 H441 H 0.29819 0.21173 0.81597
 H442 H 0.20405 0.18220 0.78863
 C443 C 0.77916 0.67293 0.34152
 C444 C 0.75293 0.65288 0.34566
 C445 C 0.72626 0.65646 0.32616
 C446 C 0.72571 0.68011 0.30275
 C447 C 0.75376 0.56473 0.43475
 C448 C 0.77863 0.69663 0.31812
 C449 C 0.75332 0.62872 0.36998
 C450 C 0.75354 0.60853 0.39039
 C451 C 0.75370 0.58490 0.41432
 C452 C 0.75178 0.70060 0.29876
 H453 H 0.79993 0.67034 0.35645
 H454 H 0.70589 0.64100 0.32908
 H455 H 0.70497 0.68248 0.28775
 H456 H 0.79897 0.71215 0.31539
 C457 C 0.17121 0.72301 0.84044
 C458 C 0.15236 0.74971 0.84490
 C459 C 0.15716 0.77652 0.82571
 C460 C 0.18088 0.77673 0.80234
 C461 C 0.06477 0.74937 0.93458
 C462 C 0.19497 0.72320 0.81710
 C463 C 0.12829 0.74967 0.86932
 C464 C 0.10823 0.74961 0.88987
 C465 C 0.08479 0.74950 0.91399
 C466 C 0.20022 0.75018 0.79811
 H467 H 0.16768 0.70213 0.85513
 H468 H 0.14264 0.79727 0.82888
 H469 H 0.18428 0.79762 0.78765
 H470 H 0.20962 0.70251 0.81420
 C471 C 0.67173 0.22260 0.33975
 C472 C 0.65292 0.24932 0.34430
 C473 C 0.65782 0.27621 0.32526
 C474 C 0.68160 0.27649 0.30195
 C475 C 0.56502 0.24867 0.43367
 C476 C 0.69554 0.22286 0.31647
 C477 C 0.62877 0.24919 0.36864
 C478 C 0.60863 0.24906 0.38911
 C479 C 0.58511 0.24887 0.41315
 C480 C 0.70088 0.24992 0.29762
 H481 H 0.66812 0.20165 0.35432
 H482 H 0.64333 0.29698 0.32850
 H483 H 0.68506 0.29744 0.28737
 H484 H 0.71014 0.20215 0.31349
 C485 C 0.81340 0.25243 0.85515
 C486 C 0.84529 0.25234 0.84607
 C487 C 0.85344 0.25143 0.81355
 C488 C 0.82980 0.25042 0.79017
 C489 C 0.93466 0.25407 0.93366
 C490 C 0.78973 0.25145 0.83178
 C491 C 0.86967 0.25301 0.87010
 C492 C 0.89016 0.25345 0.89015
 C493 C 0.91417 0.25384 0.91361
 C494 C 0.79777 0.25014 0.79911
 H495 H 0.80685 0.25322 0.88025
 H496 H 0.87804 0.25138 0.80629
 H497 H 0.83645 0.24944 0.76511
 H498 H 0.76516 0.25169 0.83914
 C499 C 0.31279 0.75277 0.35485
 C500 C 0.34473 0.75285 0.34592
 C501 C 0.35298 0.75225 0.31341
 C502 C 0.32941 0.75136 0.28991
 C503 C 0.43392 0.75414 0.43393
 C504 C 0.28920 0.75192 0.33137
 C505 C 0.36906 0.75338 0.37007
 C506 C 0.38949 0.75371 0.39023
 C507 C 0.41346 0.75399 0.41379
 C508 C 0.29734 0.75089 0.29871
 H509 H 0.30614 0.75333 0.37993
 H510 H 0.37761 0.75232 0.30622
 H511 H 0.33617 0.75060 0.26487
 H512 H 0.26461 0.75201 0.33865
 C513 C 0.25264 0.81376 0.14491
 C514 C 0.25239 0.84564 0.15398
 C515 C 0.25152 0.85373 0.18651
 C516 C 0.25067 0.83005 0.20990
 C517 C 0.25325 0.93507 0.06622
 C518 C 0.25182 0.79005 0.16829
 C519 C 0.25282 0.87007 0.12993
 C520 C 0.25305 0.89057 0.10984
 C521 C 0.25321 0.91459 0.08634
 C522 C 0.25051 0.79803 0.20097
 H523 H 0.25340 0.80725 0.11981
 H524 H 0.25135 0.87833 0.19379
 H525 H 0.24969 0.83667 0.23497
 H526 H 0.25215 0.76550 0.16092
 C527 C 0.75261 0.31255 0.64535
 C528 C 0.75253 0.34447 0.65430
 C529 C 0.75184 0.35267 0.68681
 C530 C 0.75100 0.32907 0.71029
 C531 C 0.75361 0.43370 0.56634
 C532 C 0.75181 0.28893 0.66881
 C533 C 0.75300 0.36881 0.63018
 C534 C 0.75328 0.38926 0.61003
 C535 C 0.75350 0.41324 0.58648
 C536 C 0.75068 0.29701 0.70146
 H537 H 0.75325 0.30595 0.62026
 H538 H 0.75180 0.37729 0.69400
 H539 H 0.75016 0.33578 0.73533
 H540 H 0.75201 0.26435 0.66153
 C541 C 0.72265 0.17195 0.15982
 C542 C 0.74926 0.15296 0.15537
 C543 C 0.77611 0.15764 0.17447
 C544 C 0.77647 0.18138 0.19777
 C545 C 0.74836 0.06518 0.06610
 C546 C 0.72299 0.19572 0.18309
 C547 C 0.74905 0.12884 0.13107
 C548 C 0.74885 0.10873 0.11061
 C549 C 0.74860 0.08524 0.08660
 C550 C 0.75002 0.20084 0.20201
 H551 H 0.70174 0.16850 0.14519
 H552 H 0.79678 0.14300 0.17129
 H553 H 0.79738 0.18468 0.21241
 H554 H 0.70237 0.21047 0.18601
 C555 C 0.22190 0.67169 0.66049
 C556 C 0.24856 0.65279 0.65592
 C557 C 0.27547 0.65763 0.67492
 C558 C 0.27583 0.68142 0.69819
 C559 C 0.24774 0.56478 0.56666
 C560 C 0.22224 0.69552 0.68373
 C561 C 0.24835 0.62860 0.63162
 C562 C 0.24816 0.60844 0.61117
 C563 C 0.24793 0.58488 0.58717
 C564 C 0.24932 0.70080 0.70254
 H565 H 0.20094 0.66814 0.64596
 H566 H 0.29619 0.64308 0.67167
 H567 H 0.29679 0.68482 0.71273
 H568 H 0.20157 0.71018 0.68672
 C569 C 0.85541 0.74942 0.18682
 C570 C 0.84720 0.74760 0.15434
 C571 C 0.81530 0.74598 0.14546
 C572 C 0.79169 0.74639 0.16893
 C573 C 0.93557 0.74806 0.06546
 C574 C 0.83182 0.74987 0.21032
 C575 C 0.87145 0.74758 0.13012
 C576 C 0.89171 0.74767 0.10976
 C577 C 0.91538 0.74786 0.08588
 C578 C 0.79976 0.74868 0.20154
 H579 H 0.88003 0.75065 0.19395
 H580 H 0.80867 0.74444 0.12042
 H581 H 0.76713 0.74498 0.16168
 H582 H 0.83852 0.75161 0.23533
 C583 C 0.35442 0.24851 0.68713
 C584 C 0.34610 0.24670 0.65468
 C585 C 0.31417 0.24517 0.64590
 C586 C 0.29064 0.24567 0.66943
 C587 C 0.43430 0.24707 0.56562
 C588 C 0.33089 0.24905 0.71070
 C589 C 0.37029 0.24662 0.63038
 C590 C 0.39050 0.24668 0.60998
 C591 C 0.41412 0.24685 0.58605
 C592 C 0.29881 0.24797 0.70202
 H593 H 0.37906 0.24967 0.69419
 H594 H 0.30748 0.24364 0.62087
 H595 H 0.26605 0.24435 0.66226
 H596 H 0.33767 0.25078 0.73569
 C597 C 0.14612 0.25250 0.18540
 C598 C 0.15460 0.25361 0.15297
 C599 C 0.18658 0.25401 0.14422
 C600 C 0.21001 0.25311 0.16783
 C601 C 0.06600 0.25470 0.06458
 C602 C 0.16952 0.25156 0.20902
 C603 C 0.13046 0.25414 0.12869
 C604 C 0.11017 0.25445 0.10844
 C605 C 0.08635 0.25465 0.08478
 C606 C 0.20164 0.25157 0.20041
 H607 H 0.12144 0.25220 0.19242
 H608 H 0.19339 0.25496 0.11919
 H609 H 0.23465 0.25356 0.16072
 H610 H 0.16261 0.25040 0.23401
 C611 C 0.64596 0.75257 0.68584
 C612 C 0.65430 0.75340 0.65335
 C613 C 0.68626 0.75367 0.64452
 C614 C 0.70979 0.75293 0.66806
 C615 C 0.56537 0.75437 0.56508
 C616 C 0.66945 0.75179 0.70940
 C617 C 0.63005 0.75384 0.62913
 C618 C 0.60968 0.75410 0.60890
 C619 C 0.58578 0.75429 0.58526
 C620 C 0.70156 0.75167 0.70070
 H621 H 0.62131 0.75238 0.69295
 H622 H 0.69299 0.75442 0.61946
 H623 H 0.73440 0.75330 0.66085
 H624 H 0.66262 0.75085 0.73442
   
