data_POSCAR
  _audit_creation_date              2014-09-24
  _audit_creation_method            'ToBaCCo'
  _symmetry_space_group_name_H-M    'P1'
  _symmetry_Int_Tables_number       1
  _symmetry_cell_setting            triclinic
  loop_
  _symmetry_equiv_pos_as_xyz
 x,y,z
_cell_length_a 46.9012
_cell_length_b 46.5356
_cell_length_c 30.6155
_cell_angle_alpha 90.146900
_cell_angle_beta 90.178900
_cell_angle_gamma 90.040500
loop_
  _atom_site_label
  _atom_site_type_symbol
  _atom_site_fract_x
  _atom_site_fract_y
  _atom_site_fract_z
O1 O 0.24034 0.27746 0.18616
 O2 O 0.28862 0.22510 0.23746
 O3 O 0.24144 0.22164 0.19191
 O4 O 0.28734 0.28039 0.23204
 O5 O 0.26258 0.28200 0.29313
 O6 O 0.21579 0.22443 0.25194
 O7 O 0.26260 0.22614 0.29745
 O8 O 0.21563 0.28031 0.24720
 Cu9 Cu 0.26688 0.25093 0.20573
 Cu10 Cu 0.23659 0.25347 0.27847
 C11 C 0.21978 0.28794 0.20790
 C12 C 0.28390 0.21675 0.27622
 C13 C 0.22059 0.21303 0.21492
 C14 C 0.28311 0.29091 0.26980
 O15 O 0.78245 0.27389 0.24173
 O16 O 0.73430 0.21832 0.28433
 O17 O 0.78100 0.21844 0.23855
 O18 O 0.73529 0.27434 0.28710
 O19 O 0.71015 0.27624 0.22618
 O20 O 0.75550 0.22011 0.17793
 O21 O 0.70874 0.22040 0.22393
 O22 O 0.75713 0.27599 0.18097
 Cu23 Cu 0.76071 0.24610 0.26909
 Cu24 Cu 0.73033 0.24837 0.19618
 C25 C 0.77827 0.28420 0.20389
 C26 C 0.71320 0.20979 0.26158
 C27 C 0.77619 0.20986 0.19978
 C28 C 0.71484 0.28482 0.26495
 O29 O 0.73326 0.78395 0.71312
 O30 O 0.77748 0.72664 0.76076
 O31 O 0.73207 0.72796 0.71140
 O32 O 0.77850 0.78245 0.76252
 O33 O 0.75197 0.78148 0.82177
 O34 O 0.70424 0.72884 0.76935
 O35 O 0.74966 0.72570 0.81869
 O36 O 0.70675 0.78457 0.77249
 Cu37 Cu 0.75803 0.75524 0.73105
 Cu38 Cu 0.72543 0.75510 0.80145
 C39 C 0.71253 0.79420 0.73474
 C40 C 0.77117 0.71636 0.79790
 C41 C 0.71000 0.71935 0.73145
 C42 C 0.77340 0.79114 0.80113
 O43 O 0.29282 0.77196 0.75911
 O44 O 0.24287 0.71864 0.80414
 O45 O 0.28828 0.71651 0.75542
 O46 O 0.24762 0.77460 0.80825
 O47 O 0.21971 0.77735 0.75039
 O48 O 0.26214 0.72136 0.69589
 O49 O 0.21651 0.72190 0.74458
 O50 O 0.26501 0.77704 0.70137
 Cu51 Cu 0.27054 0.74503 0.78771
 Cu52 Cu 0.23814 0.74979 0.71717
 C53 C 0.28743 0.78364 0.72254
 C54 C 0.22119 0.71104 0.78194
 C55 C 0.28250 0.70934 0.71633
 C56 C 0.22646 0.78578 0.78857
 C57 C 0.99502 0.07648 0.06351
 C58 C 1.02422 0.07499 0.06300
 C59 C 1.03118 0.04765 0.04842
 N60 N 1.00722 0.03246 0.03986
 C61 C 0.98511 0.05010 0.04885
 C62 C 1.05916 0.03652 0.04590
 C63 C 1.06553 0.00964 0.02670
 C64 C 1.09071 -0.00538 0.03301
 C65 C 1.08919 -0.02953 0.00711
 C66 C 1.06321 -0.02847 -0.01464
 N67 N 1.04892 -0.00451 -0.00247
 C68 C 1.05407 -0.04847 -0.04669
 C69 C 1.02556 -0.05001 -0.06167
 C70 C 1.01633 -0.06597 -0.09735
 C71 C 0.98717 -0.06381 -0.09834
 C72 C 0.97959 -0.04638 -0.06353
 N73 N 1.00305 -0.03806 -0.04107
 C74 C 0.95132 -0.04035 -0.05094
 C75 C 0.94416 -0.01985 -0.01874
 C76 C 0.91753 -0.01723 0.00040
 C77 C 0.91892 0.00609 0.02805
 C78 C 0.94632 0.01711 0.02487
 N79 N 0.96149 0.00128 -0.00393
 C80 C 0.95607 0.04220 0.04632
 H81 H 0.98251 0.09487 0.07353
 H82 H 1.03865 0.09205 0.07259
 H83 H 0.98141 0.00649 -0.01640
 H84 H 1.10836 0.00047 0.05411
 H85 H 1.10549 -0.04588 0.00441
 H86 H 1.02920 -0.07814 -0.12009
 H87 H 0.97315 -0.07412 -0.12176
 H88 H 0.90162 0.01415 0.04792
 H89 H 1.03047 0.00346 -0.01691
 H90 H 0.89897 -0.03059 -0.00519
 C91 C 0.48997 0.55708 0.60560
 C92 C 0.51916 0.55814 0.60384
 C93 C 0.52722 0.54185 0.56794
 N94 N 0.50395 0.53082 0.54787
 C95 C 0.48118 0.54003 0.57092
 C96 C 0.55545 0.53905 0.55248
 C97 C 0.56331 0.51906 0.51975
 C98 C 0.58899 0.51936 0.49741
 C99 C 0.58913 0.49554 0.47073
 C100 C 0.56346 0.48143 0.47728
 N101 N 0.54788 0.49583 0.50730
 C102 C 0.55576 0.45508 0.45741
 C103 C 0.52742 0.44479 0.45581
 C104 C 0.51933 0.41789 0.44058
 C105 C 0.49010 0.41717 0.44158
 C106 C 0.48132 0.44357 0.45765
 N107 N 0.50413 0.46048 0.46610
 C108 C 0.45260 0.45220 0.46192
 C109 C 0.44411 0.47751 0.48391
 C110 C 0.41700 0.48933 0.48189
 C111 C 0.41694 0.51268 0.50950
 C112 C 0.44403 0.51450 0.52759
 N113 N 0.46039 0.49287 0.51206
 C114 C 0.45247 0.53488 0.55936
 H115 H 0.47672 0.56778 0.62951
 H116 H 0.53285 0.56976 0.62626
 H117 H 0.48042 0.48709 0.52363
 H118 H 0.60598 0.53501 0.50018
 H119 H 0.60622 0.48931 0.44901
 H120 H 0.53303 0.40064 0.42961
 H121 H 0.47683 0.39929 0.43154
 H122 H 0.39895 0.52664 0.51573
 H123 H 0.52934 0.48845 0.52202
 H124 H 0.39904 0.48181 0.46272
 C125 C 0.00765 0.44087 0.10066
 C126 C -0.02150 0.44063 0.09706
 C127 C -0.02832 0.45751 0.06125
 N128 N -0.00432 0.46812 0.04301
 C129 C 0.01767 0.45806 0.06715
 C130 C -0.05612 0.46129 0.04423
 C131 C -0.06268 0.48164 0.01142
 C132 C -0.08790 0.48223 -0.01238
 C133 C -0.08678 0.50613 -0.03862
 C134 C -0.06082 0.51938 -0.03040
 N135 N -0.04631 0.50441 0.00026
 C136 C -0.05193 0.54550 -0.04943
 C137 C -0.02339 0.55520 -0.04889
 C138 C -0.01440 0.58184 -0.06359
 C139 C 0.01476 0.58208 -0.06009
 C140 C 0.02260 0.55560 -0.04327
 N141 N -0.00074 0.53914 -0.03667
 C142 C 0.05100 0.54647 -0.03673
 C143 C 0.05839 0.52083 -0.01481
 C144 C 0.08528 0.50847 -0.01523
 C145 C 0.08408 0.48476 0.01141
 C146 C 0.05649 0.48329 0.02741
 N147 N 0.04102 0.50547 0.01151
 C148 C 0.04676 0.46264 0.05768
 H149 H 0.02007 0.42960 0.12504
 H150 H -0.03598 0.42917 0.11825
 H151 H 0.02080 0.51151 0.02174
 H152 H -0.10541 0.46711 -0.01086
 H153 H -0.10323 0.51301 -0.06114
 H154 H -0.02745 0.59922 -0.07587
 H155 H 0.02862 0.59969 -0.06910
 H156 H 0.10159 0.47032 0.01836
 H157 H -0.02789 0.51116 0.01618
 H158 H 0.10389 0.51583 -0.03280
 C159 C 0.51098 1.07842 0.42597
 C160 C 0.48176 1.07798 0.42618
 C161 C 0.47370 1.05226 0.44539
 N162 N 0.49709 1.03681 0.45616
 C163 C 0.51989 1.05286 0.44464
 C164 C 0.44520 1.04272 0.45002
 C165 C 0.43744 1.01719 0.47217
 C166 C 0.41065 1.00456 0.47043
 C167 C 0.41132 0.98125 0.49785
 C168 C 0.43836 0.98043 0.51625
 N169 N 0.45410 1.00249 0.50056
 C170 C 0.44722 0.96044 0.54836
 C171 C 0.47604 0.95647 0.56065
 C172 C 0.48522 0.93942 0.59501
 C173 C 0.51444 0.93945 0.59378
 C174 C 0.52216 0.95678 0.55904
 N175 N 0.49868 0.96702 0.53869
 C176 C 0.55044 0.96120 0.54490
 C177 C 0.55827 0.98168 0.51310
 C178 C 0.58500 0.98350 0.49406
 C179 C 0.58453 1.00704 0.46702
 C180 C 0.55751 1.01893 0.47020
 N181 N 0.54174 1.00350 0.49865
 C182 C 0.54867 1.04423 0.44861
 H183 H 0.52413 1.09549 0.41301
 H184 H 0.46812 1.09461 0.41309
 H185 H 0.52204 1.00939 0.51111
 H186 H 0.39229 1.01140 0.45171
 H187 H 0.39373 0.96675 0.50382
 H188 H 0.47226 0.92791 0.61834
 H189 H 0.52839 0.92790 0.61581
 H190 H 0.60214 1.01460 0.44737
 H191 H 0.47383 1.00905 0.51230
 H192 H 0.60309 0.96950 0.49942
 C193 C 1.17939 0.18144 0.22441
 C194 C 1.16103 0.16022 0.20844
 C195 C 1.16533 0.14785 0.16714
 C196 C 1.18861 0.15728 0.14198
 C197 C 1.20705 0.17851 0.15796
 C198 C 1.20262 0.19105 0.19931
 C199 C 1.14424 0.12640 0.15117
 C200 C 1.14839 0.10881 0.11693
 C201 C 1.12609 0.08898 0.10026
 C202 C 1.12619 0.08152 0.05579
 C203 C 1.10471 0.06409 0.03830
 C204 C 1.08290 0.05356 0.06512
 C205 C 1.08338 0.05991 0.10993
 C206 C 1.10479 0.07744 0.12742
 H207 H 1.17514 0.19045 0.25639
 H208 H 1.14322 0.15352 0.22846
 H209 H 1.19243 0.14902 0.10952
 H210 H 1.22457 0.18535 0.13746
 H211 H 1.12411 0.12557 0.16832
 H212 H 1.16815 0.10963 0.09894
 H213 H 1.14253 0.08983 0.03430
 H214 H 1.10475 0.05923 0.00368
 H215 H 1.06696 0.05154 0.13121
 H216 H 1.10461 0.08175 0.16215
 C217 C 0.66261 0.69496 0.72568
 C218 C 0.64388 0.67594 0.70493
 C219 C 0.65291 0.65949 0.66912
 C220 C 0.68099 0.66273 0.65388
 C221 C 0.69961 0.68213 0.67421
 C222 C 0.69061 0.69840 0.71036
 C223 C 0.63219 0.64022 0.64730
 C224 C 0.63964 0.61557 0.62772
 C225 C 0.61835 0.59631 0.60720
 C226 C 0.62227 0.56645 0.60923
 C227 C 0.60192 0.54781 0.59136
 C228 C 0.57763 0.55878 0.57033
 C229 C 0.57424 0.58866 0.56683
 C230 C 0.59432 0.60728 0.58529
 H231 H 0.65499 0.70737 0.75324
 H232 H 0.62228 0.67397 0.71698
 H233 H 0.68838 0.65086 0.62566
 H234 H 0.72104 0.68441 0.66161
 H235 H 0.60982 0.64579 0.64970
 H236 H 0.66157 0.60833 0.62924
 H237 H 0.64077 0.55756 0.62559
 H238 H 0.60496 0.52482 0.59424
 H239 H 0.55587 0.59753 0.55013
 H240 H 0.59116 0.63021 0.58207
 C241 C -0.17401 0.30811 0.20446
 C242 C -0.15410 0.32692 0.18637
 C243 C -0.16130 0.34389 0.15022
 C244 C -0.18880 0.34153 0.13209
 C245 C -0.20860 0.32232 0.14975
 C246 C -0.20138 0.30540 0.18609
 C247 C -0.13921 0.36260 0.13094
 C248 C -0.14511 0.38760 0.11129
 C249 C -0.12246 0.40615 0.09317
 C250 C -0.12527 0.43611 0.09577
 C251 C -0.10372 0.45406 0.07998
 C252 C -0.07932 0.44229 0.06043
 C253 C -0.07696 0.41233 0.05645
 C254 C -0.09824 0.39439 0.07289
 H255 H -0.16774 0.29518 0.23223
 H256 H -0.13298 0.32823 0.20066
 H257 H -0.19476 0.35386 0.10356
 H258 H -0.22950 0.32059 0.13482
 H259 H -0.11715 0.35625 0.13525
 H260 H -0.16679 0.39560 0.11094
 H261 H -0.14387 0.44561 0.11090
 H262 H -0.10597 0.47713 0.08319
 H263 H -0.05851 0.40286 0.04084
 H264 H -0.09588 0.37137 0.06928
 C265 C 0.33592 0.80595 0.71933
 C266 C 0.35548 0.82481 0.70040
 C267 C 0.34704 0.84326 0.66662
 C268 C 0.31868 0.84231 0.65166
 C269 C 0.29922 0.82310 0.67010
 C270 C 0.30766 0.80470 0.70408
 C271 C 0.36862 0.86200 0.64606
 C272 C 0.36238 0.88773 0.62900
 C273 C 0.38424 0.90602 0.60822
 C274 C 0.38231 0.93600 0.61211
 C275 C 0.40285 0.95371 0.59297
 C276 C 0.42528 0.94170 0.56877
 C277 C 0.42677 0.91174 0.56384
 C278 C 0.40654 0.89403 0.58358
 H279 H 0.34310 0.79187 0.74524
 H280 H 0.37729 0.82499 0.71217
 H281 H 0.31169 0.85577 0.62490
 H282 H 0.27760 0.82255 0.65759
 H283 H 0.39060 0.85483 0.64678
 H284 H 0.34104 0.89635 0.63230
 H285 H 0.36514 0.94569 0.63057
 H286 H 0.40130 0.97679 0.59697
 H287 H 0.44367 0.90211 0.54474
 H288 H 0.40810 0.87102 0.57893
 C289 C -0.21904 0.67964 -0.14418
 C290 C -0.20136 0.65903 -0.12497
 C291 C -0.17495 0.65196 -0.14363
 C292 C -0.16664 0.66606 -0.18225
 C293 C -0.18442 0.68650 -0.20162
 C294 C -0.21071 0.69368 -0.18264
 C295 C -0.15637 0.63101 -0.12050
 C296 C -0.13320 0.61868 -0.13818
 C297 C -0.11363 0.59904 -0.11431
 C298 C -0.09323 0.58366 -0.13847
 C299 C -0.07340 0.56599 -0.11752
 C300 C -0.07360 0.56336 -0.07195
 C301 C -0.09399 0.57837 -0.04759
 C302 C -0.11373 0.59621 -0.06843
 H303 H -0.23916 0.68470 -0.12871
 H304 H -0.20828 0.64873 -0.09513
 H305 H -0.14620 0.66212 -0.19728
 H306 H -0.17726 0.69716 -0.23101
 H307 H -0.16261 0.62540 -0.08767
 H308 H -0.12821 0.62262 -0.17207
 H309 H -0.09246 0.58552 -0.17371
 H310 H -0.05771 0.55454 -0.13675
 H311 H -0.09422 0.57668 -0.01230
 H312 H -0.12837 0.60812 -0.04815
 C313 C 0.33298 1.19763 0.28738
 C314 C 0.35218 1.17950 0.30875
 C315 C 0.34239 1.15924 0.33900
 C316 C 0.31311 1.15768 0.34825
 C317 C 0.29397 1.17643 0.32784
 C318 C 0.30377 1.19646 0.29711
 C319 C 0.36322 1.14093 0.36193
 C320 C 0.35873 1.11291 0.36875
 C321 C 0.38035 1.09481 0.39032
 C322 C 0.38719 1.06790 0.37252
 C323 C 0.40840 1.05097 0.39172
 C324 C 0.42226 1.06029 0.42990
 C325 C 0.41479 1.08682 0.44847
 C326 C 0.39421 1.10412 0.42857
 H327 H 0.34104 1.21310 0.26410
 H328 H 0.37472 1.18115 0.30146
 H329 H 0.30515 1.14250 0.37205
 H330 H 0.27153 1.17521 0.33589
 H331 H 0.38356 1.15035 0.37093
 H332 H 0.33980 1.10267 0.35554
 H333 H 0.37664 1.06035 0.34312
 H334 H 0.41402 1.03059 0.37691
 H335 H 0.42527 1.09427 0.47798
 H336 H 0.38894 1.12464 0.44321
 C337 C 1.21882 -0.18101 -0.15032
 C338 C 1.20248 -0.15978 -0.12987
 C339 C 1.17690 -0.15039 -0.14877
 C340 C 1.16842 -0.16169 -0.18933
 C341 C 1.18504 -0.18237 -0.21035
 C342 C 1.21031 -0.19265 -0.19089
 C343 C 1.15944 -0.12861 -0.12611
 C344 C 1.13100 -0.13072 -0.12452
 C345 C 1.11285 -0.10942 -0.10211
 C346 C 1.08809 -0.11885 -0.08099
 C347 C 1.06959 -0.09911 -0.06167
 C348 C 1.07502 -0.06949 -0.06440
 C349 C 1.09991 -0.06001 -0.08533
 C350 C 1.11882 -0.07983 -0.10377
 H351 H 1.23821 -0.18814 -0.13438
 H352 H 1.20948 -0.15112 -0.09876
 H353 H 1.14905 -0.15431 -0.20502
 H354 H 1.17775 -0.19060 -0.24158
 H355 H 1.17023 -0.11160 -0.10834
 H356 H 1.12064 -0.14948 -0.13840
 H357 H 1.08307 -0.14155 -0.07951
 H358 H 1.05062 -0.10689 -0.04540
 H359 H 1.10440 -0.03725 -0.08804
 H360 H 1.13751 -0.07196 -0.12063
 C361 C 0.67344 0.31865 0.26020
 C362 C 0.65504 0.33873 0.27901
 C363 C 0.65882 0.34772 0.32244
 C364 C 0.68152 0.33604 0.34683
 C365 C 0.69996 0.31593 0.32798
 C366 C 0.69603 0.30691 0.28453
 C367 C 0.63780 0.36813 0.34120
 C368 C 0.64219 0.38364 0.37764
 C369 C 0.62028 0.40287 0.39675
 C370 C 0.62126 0.40865 0.44178
 C371 C 0.60048 0.42585 0.46138
 C372 C 0.57846 0.43777 0.43620
 C373 C 0.57791 0.43289 0.39099
 C374 C 0.59865 0.41565 0.37135
 H375 H 0.66975 0.31213 0.22667
 H376 H 0.63766 0.34719 0.25953
 H377 H 0.68483 0.34164 0.38075
 H378 H 0.71703 0.30712 0.34770
 H379 H 0.61769 0.37008 0.32405
 H380 H 0.66207 0.38165 0.39535
 H381 H 0.63785 0.39937 0.46198
 H382 H 0.60130 0.42956 0.49631
 H383 H 0.56131 0.44234 0.37100
 H384 H 0.59776 0.41269 0.33634
 C385 C 0.78711 -0.17996 -0.13528
 C386 C 0.80580 -0.16073 -0.11488
 C387 C 0.82916 -0.14940 -0.13753
 C388 C 0.83370 -0.15793 -0.18106
 C389 C 0.81518 -0.17736 -0.20142
 C390 C 0.79164 -0.18875 -0.17879
 C391 C 0.84922 -0.13016 -0.11411
 C392 C 0.86513 -0.11029 -0.13426
 C393 C 0.88617 -0.09205 -0.11097
 C394 C 0.89325 -0.06508 -0.12837
 C395 C 0.91397 -0.04790 -0.10826
 C396 C 0.92819 -0.05767 -0.07084
 C397 C 0.92132 -0.08458 -0.05338
 C398 C 0.90046 -0.10167 -0.07322
 H399 H 0.76933 -0.18822 -0.11660
 H400 H 0.80201 -0.15468 -0.08120
 H401 H 0.85197 -0.15029 -0.19913
 H402 H 0.81956 -0.18363 -0.23483
 H403 H 0.85013 -0.13192 -0.07886
 H404 H 0.86212 -0.10649 -0.16885
 H405 H 0.88277 -0.05735 -0.15764
 H406 H 0.91930 -0.02723 -0.12225
 H407 H 0.93244 -0.09247 -0.02477
 H408 H 0.89625 -0.12269 -0.05968
 C409 C 0.32780 0.32021 0.26476
 C410 C 0.34711 0.33998 0.28242
 C411 C 0.34183 0.35318 0.32288
 C412 C 0.31613 0.34692 0.34460
 C413 C 0.29689 0.32701 0.32704
 C414 C 0.30266 0.31321 0.28717
 C415 C 0.36358 0.37327 0.34082
 C416 C 0.36525 0.38075 0.38317
 C417 C 0.38782 0.39959 0.40197
 C418 C 0.39063 0.40090 0.44768
 C419 C 0.41161 0.41803 0.46716
 C420 C 0.43022 0.43416 0.44127
 C421 C 0.42741 0.43329 0.39572
 C422 C 0.40631 0.41634 0.37615
 H423 H 0.33286 0.31002 0.23391
 H424 H 0.36654 0.34460 0.26471
 H425 H 0.31057 0.35735 0.37497
 H426 H 0.27751 0.32235 0.34483
 H427 H 0.37968 0.38060 0.31830
 H428 H 0.35028 0.37161 0.40606
 H429 H 0.37664 0.38847 0.46845
 H430 H 0.41346 0.41861 0.50243
 H431 H 0.44149 0.44593 0.37537
 H432 H 0.40457 0.41684 0.34099
 C433 C 0.17526 0.68369 -0.22191
 C434 C 0.15591 0.66396 -0.20467
 C435 C 0.16176 0.64965 -0.16533
 C436 C 0.18789 0.65512 -0.14401
 C437 C 0.20720 0.67501 -0.16116
 C438 C 0.20104 0.68960 -0.20019
 C439 C 0.14017 0.62912 -0.14847
 C440 C 0.13976 0.61905 -0.10739
 C441 C 0.11723 0.59963 -0.09043
 C442 C 0.11358 0.59755 -0.04499
 C443 C 0.09226 0.58005 -0.02749
 C444 C 0.07424 0.56429 -0.05517
 C445 C 0.07814 0.56569 -0.10047
 C446 C 0.09955 0.58303 -0.11802
 H447 H 0.16987 0.69451 -0.25209
 H448 H 0.13611 0.66005 -0.22203
 H449 H 0.19382 0.64400 -0.11442
 H450 H 0.22703 0.67887 -0.14391
 H451 H 0.12306 0.62343 -0.17060
 H452 H 0.15551 0.62646 -0.08411
 H453 H 0.12703 0.60981 -0.02295
 H454 H 0.08956 0.57905 0.00760
 H455 H 0.06458 0.55331 -0.12218
 H456 H 0.10221 0.58302 -0.15306
 C457 C 0.67036 1.17999 0.25466
 C458 C 0.65157 1.15970 0.27199
 C459 C 0.65649 1.14759 0.31328
 C460 C 0.68122 1.15569 0.33643
 C461 C 0.69990 1.17616 0.31932
 C462 C 0.69467 1.18877 0.27830
 C463 C 0.63550 1.12652 0.33046
 C464 C 0.63373 1.11902 0.37272
 C465 C 0.61202 1.09901 0.39069
 C466 C 0.60856 1.09795 0.43626
 C467 C 0.58820 1.07992 0.45501
 C468 C 0.57088 1.06258 0.42853
 C469 C 0.57447 1.06304 0.38313
 C470 C 0.59497 1.08095 0.36428
 H471 H 0.66557 1.18900 0.22288
 H472 H 0.63289 1.15367 0.25318
 H473 H 0.68659 1.14622 0.36757
 H474 H 0.71855 1.18196 0.33837
 H475 H 0.62008 1.11822 0.30736
 H476 H 0.64787 1.12900 0.39622
 H477 H 0.62148 1.11137 0.45748
 H478 H 0.58570 1.07969 0.49017
 H479 H 0.56137 1.04951 0.36235
 H480 H 0.59735 1.08024 0.32922
 C481 C 0.20141 0.31364 0.14178
 C482 C 0.18236 0.33260 0.12178
 C483 C 0.16213 0.34760 0.14662
 C484 C 0.16108 0.34299 0.19200
 C485 C 0.17996 0.32380 0.21196
 C486 C 0.20031 0.30888 0.18706
 C487 C 0.14159 0.36659 0.12390
 C488 C 0.12924 0.38935 0.14295
 C489 C 0.10837 0.40789 0.12004
 C490 C 0.10599 0.43689 0.13226
 C491 C 0.08617 0.45482 0.11171
 C492 C 0.06810 0.44384 0.07915
 C493 C 0.07011 0.41482 0.06721
 C494 C 0.09007 0.39695 0.08744
 H495 H 0.21670 0.30235 0.12163
 H496 H 0.18342 0.33558 0.08674
 H497 H 0.14525 0.35356 0.21201
 H498 H 0.17848 0.32049 0.24688
 H499 H 0.13749 0.36225 0.08967
 H500 H 0.13550 0.39552 0.17574
 H501 H 0.11965 0.44573 0.15755
 H502 H 0.08474 0.47718 0.12137
 H503 H 0.05613 0.40603 0.04231
 H504 H 0.09070 0.37451 0.07815
 C505 C 0.67307 0.83034 0.74026
 C506 C 0.65594 0.85172 0.72189
 C507 C 0.65990 0.86034 0.67846
 C508 C 0.68207 0.84782 0.65410
 C509 C 0.69931 0.82654 0.67253
 C510 C 0.69483 0.81736 0.71567
 C511 C 0.64073 0.88249 0.65987
 C512 C 0.63441 0.88396 0.61718
 C513 C 0.61359 0.90464 0.59890
 C514 C 0.59883 0.89719 0.56054
 C515 C 0.57846 0.91571 0.54285
 C516 C 0.57286 0.94220 0.56288
 C517 C 0.58803 0.95018 0.60049
 C518 C 0.60829 0.93155 0.61844
 H519 H 0.66918 0.82391 0.77368
 H520 H 0.63919 0.86123 0.74147
 H521 H 0.68638 0.85458 0.62098
 H522 H 0.71606 0.81717 0.65285
 H523 H 0.62987 0.89654 0.68263
 H524 H 0.64305 0.86803 0.59504
 H525 H 0.60269 0.87672 0.54470
 H526 H 0.56689 0.90937 0.51371
 H527 H 0.58398 0.97069 0.61607
 H528 H 0.61989 0.93839 0.64725
 C529 C 0.78818 0.17562 0.13925
 C530 C 0.80667 0.15599 0.11951
 C531 C 0.83259 0.14847 0.13953
 C532 C 0.83957 0.16111 0.18008
 C533 C 0.82094 0.18055 0.19997
 C534 C 0.79516 0.18817 0.17966
 C535 C 0.85197 0.12844 0.11603
 C536 C 0.87493 0.11593 0.13416
 C537 C 0.89486 0.09672 0.11027
 C538 C 0.91438 0.08037 0.13471
 C539 C 0.93416 0.06260 0.11395
 C540 C 0.93482 0.06083 0.06828
 C541 C 0.91549 0.07703 0.04358
 C542 C 0.89578 0.09498 0.06427
 H543 H 0.76847 0.18106 0.12272
 H544 H 0.80076 0.14679 0.08823
 H545 H 0.85955 0.15679 0.19638
 H546 H 0.82708 0.19011 0.23089
 H547 H 0.84644 0.12355 0.08255
 H548 H 0.87931 0.11912 0.16849
 H549 H 0.91437 0.08140 0.17006
 H550 H 0.94902 0.05023 0.13345
 H551 H 0.91595 0.07604 0.00823
 H552 H 0.88189 0.10773 0.04389
 C553 C 0.29755 0.68285 0.64888
 C554 C 0.31534 0.66329 0.62753
 C555 C 0.33561 0.64738 0.65102
 C556 C 0.33782 0.65148 0.69646
 C557 C 0.32021 0.67124 0.71775
 C558 C 0.30001 0.68727 0.69417
 C559 C 0.35531 0.62829 0.62687
 C560 C 0.36786 0.60528 0.64483
 C561 C 0.38883 0.58731 0.62117
 C562 C 0.39183 0.55826 0.63259
 C563 C 0.41220 0.54103 0.61198
 C564 C 0.43019 0.55278 0.58020
 C565 C 0.42742 0.58180 0.56886
 C566 C 0.40691 0.59896 0.58913
 H567 H 0.28231 0.69499 0.62973
 H568 H 0.31340 0.66070 0.59247
 H569 H 0.35374 0.64022 0.71547
 H570 H 0.32272 0.67425 0.75264
 H571 H 0.35896 0.63305 0.59273
 H572 H 0.36204 0.59872 0.67752
 H573 H 0.37836 0.54890 0.65747
 H574 H 0.41423 0.51867 0.62118
 H575 H 0.44135 0.59117 0.54459
 H576 H 0.40580 0.62147 0.58048
   
