data_POSCAR
  _audit_creation_date              2014-09-24
  _audit_creation_method            'ToBaCCo'
  _symmetry_space_group_name_H-M    'P1'
  _symmetry_Int_Tables_number       1
  _symmetry_cell_setting            triclinic
  loop_
  _symmetry_equiv_pos_as_xyz
 x,y,z
_cell_length_a 19.1359
_cell_length_b 19.1358
_cell_length_c 19.1359
_cell_angle_alpha 89.999900
_cell_angle_beta 90.000000
_cell_angle_gamma 90.000000
loop_
  _atom_site_label
  _atom_site_type_symbol
  _atom_site_fract_x
  _atom_site_fract_y
  _atom_site_fract_z
N1 N 0.34749 0.34749 0.34749
 N2 N 0.34749 0.84749 -0.15251
 N3 N 0.84749 0.34749 -0.15251
 N4 N 0.84749 0.84749 0.34749
 N5 N 0.65251 0.65251 0.34749
 N6 N 0.65251 0.15251 -0.15251
 N7 N 0.15251 0.65251 -0.15251
 N8 N 0.15251 0.15251 0.34749
 N9 N 0.65251 0.34749 0.65251
 N10 N 0.65251 0.84749 1.15251
 N11 N 0.15251 0.34749 1.15251
 N12 N 0.15251 0.84749 0.65251
 N13 N 0.34749 0.65251 0.65251
 N14 N 0.34749 0.15251 1.15251
 N15 N 0.84749 0.65251 1.15251
 N16 N 0.84749 0.15251 0.65251
 N17 N 0.34749 0.34749 0.65251
 N18 N 0.34749 0.84749 0.15251
 N19 N 0.84749 0.34749 0.15251
 N20 N 0.84749 0.84749 0.65251
 N21 N 0.65251 0.65251 0.65251
 N22 N 0.65251 0.15251 0.15251
 N23 N 0.15251 0.65251 0.15251
 N24 N 0.15251 0.15251 0.65251
 N25 N 0.34749 0.65251 0.34749
 N26 N 0.34749 0.15251 0.84749
 N27 N 0.84749 0.65251 0.84749
 N28 N 0.84749 0.15251 0.34749
 N29 N 0.65251 0.34749 0.34749
 N30 N 0.65251 0.84749 0.84749
 N31 N 0.15251 0.34749 0.84749
 N32 N 0.15251 0.84749 0.34749
 O33 O 0.25724 1.06845 0.16169
 O34 O 0.16169 0.93156 0.25724
 O35 O 0.16169 1.06845 0.25724
 O36 O 0.25724 0.93156 0.16169
 O37 O 0.33832 0.93156 0.24276
 O38 O 0.24276 1.06845 0.33832
 O39 O 0.24276 0.93156 0.33832
 O40 O 0.33832 1.06845 0.24276
 Cu41 Cu 0.20136 1.00000 0.20137
 Cu42 Cu 0.29864 1.00000 0.29864
 C43 C 0.31351 1.09351 0.18649
 C44 C 0.18649 0.90649 0.31351
 C45 C 0.18649 1.09351 0.31351
 C46 C 0.31351 0.90649 0.18649
 O47 O 0.33832 0.43156 0.74276
 O48 O 0.24276 0.56845 0.83831
 O49 O 0.24276 0.43156 0.83832
 O50 O 0.33832 0.56844 0.74276
 O51 O 0.25724 0.56844 0.66168
 O52 O 0.16168 0.43156 0.75724
 O53 O 0.16169 0.56845 0.75724
 O54 O 0.25724 0.43156 0.66169
 Cu55 Cu 0.29864 0.50000 0.79864
 Cu56 Cu 0.20136 0.50000 0.70136
 C57 C 0.31351 0.40649 0.68649
 C58 C 0.18649 0.59351 0.81351
 C59 C 0.18649 0.40649 0.81351
 C60 C 0.31351 0.59351 0.68649
 O61 O 0.66168 0.06844 0.24276
 O62 O 0.75724 -0.06844 0.33832
 O63 O 0.75724 0.06844 0.33832
 O64 O 0.66169 -0.06845 0.24276
 O65 O 0.74276 -0.06844 0.16169
 O66 O 0.83831 0.06844 0.25724
 O67 O 0.83832 -0.06844 0.25724
 O68 O 0.74276 0.06844 0.16169
 Cu69 Cu 0.70136 -0.00000 0.29864
 Cu70 Cu 0.79864 -0.00000 0.20137
 C71 C 0.68649 0.09351 0.18649
 C72 C 0.81351 -0.09351 0.31351
 C73 C 0.81351 0.09351 0.31351
 C74 C 0.68649 -0.09351 0.18649
 O75 O 0.74276 0.43155 0.66169
 O76 O 0.83832 0.56845 0.75724
 O77 O 0.83832 0.43156 0.75724
 O78 O 0.74276 0.56844 0.66169
 O79 O 0.66169 0.56844 0.74276
 O80 O 0.75724 0.43156 0.83832
 O81 O 0.75724 0.56844 0.83832
 O82 O 0.66169 0.43155 0.74276
 Cu83 Cu 0.79864 0.50000 0.70137
 Cu84 Cu 0.70137 0.50000 0.79864
 C85 C 0.68649 0.40649 0.68649
 C86 C 0.81351 0.59351 0.81351
 C87 C 0.81351 0.40649 0.81351
 C88 C 0.68649 0.59351 0.68649
 O89 O 0.25724 0.43155 0.33831
 O90 O 0.16168 0.56844 0.24276
 O91 O 0.16169 0.43155 0.24276
 O92 O 0.25724 0.56844 0.33831
 O93 O 0.33832 0.56844 0.25724
 O94 O 0.24276 0.43155 0.16168
 O95 O 0.24276 0.56844 0.16169
 O96 O 0.33832 0.43155 0.25724
 Cu97 Cu 0.20136 0.50000 0.29864
 Cu98 Cu 0.29864 0.50000 0.20136
 C99 C 0.31351 0.40649 0.31351
 C100 C 0.18649 0.59351 0.18649
 C101 C 0.18649 0.40649 0.18649
 C102 C 0.31351 0.59351 0.31351
 O103 O 0.74276 1.06845 0.83832
 O104 O 0.83831 0.93156 0.74276
 O105 O 0.83832 1.06845 0.74276
 O106 O 0.74276 0.93156 0.83832
 O107 O 0.66168 0.93156 0.75724
 O108 O 0.75724 1.06845 0.66169
 O109 O 0.75724 0.93156 0.66169
 O110 O 0.66168 1.06845 0.75724
 Cu111 Cu 0.79864 1.00000 0.79864
 Cu112 Cu 0.70136 1.00000 0.70136
 C113 C 0.68649 1.09351 0.81351
 C114 C 0.81351 0.90649 0.68649
 C115 C 0.81351 1.09351 0.68649
 C116 C 0.68649 0.90649 0.81351
 O117 O 0.75724 0.56845 0.16168
 O118 O 0.66169 0.43156 0.25724
 O119 O 0.66169 0.56845 0.25724
 O120 O 0.75724 0.43156 0.16169
 O121 O 0.83832 0.43156 0.24276
 O122 O 0.74276 0.56845 0.33831
 O123 O 0.74276 0.43156 0.33831
 O124 O 0.83832 0.56845 0.24276
 Cu125 Cu 0.70137 0.50000 0.20136
 Cu126 Cu 0.79864 0.50000 0.29864
 C127 C 0.81351 0.59351 0.18649
 C128 C 0.68649 0.40649 0.31351
 C129 C 0.68649 0.59351 0.31351
 C130 C 0.81351 0.40649 0.18649
 O131 O 0.24276 -0.06845 0.66168
 O132 O 0.33832 0.06844 0.75724
 O133 O 0.33832 -0.06845 0.75724
 O134 O 0.24276 0.06844 0.66168
 O135 O 0.16168 0.06844 0.74276
 O136 O 0.25724 -0.06845 0.83831
 O137 O 0.25724 0.06844 0.83831
 O138 O 0.16169 -0.06845 0.74276
 Cu139 Cu 0.29864 -0.00000 0.70136
 Cu140 Cu 0.20136 -0.00000 0.79863
 C141 C 0.18649 -0.09351 0.68649
 C142 C 0.31351 0.09351 0.81351
 C143 C 0.31351 -0.09351 0.81351
 C144 C 0.18649 0.09351 0.68649
 O145 O 0.25724 0.16168 0.93155
 O146 O 0.16169 0.25724 1.06844
 O147 O 0.16168 0.25724 0.93156
 O148 O 0.25724 0.16168 1.06844
 O149 O 0.33832 0.24276 1.06844
 O150 O 0.24276 0.33832 0.93156
 O151 O 0.24276 0.33831 1.06844
 O152 O 0.33831 0.24276 0.93155
 Cu153 Cu 0.20137 0.20136 1.00000
 Cu154 Cu 0.29864 0.29864 1.00000
 C155 C 0.31351 0.18649 0.90649
 C156 C 0.18649 0.31351 1.09351
 C157 C 0.18649 0.31351 0.90649
 C158 C 0.31351 0.18649 1.09351
 O159 O 0.24276 0.83832 0.43156
 O160 O 0.33832 0.74276 0.56844
 O161 O 0.33832 0.74276 0.43155
 O162 O 0.24276 0.83831 0.56844
 O163 O 0.16169 0.75724 0.56844
 O164 O 0.25724 0.66168 0.43155
 O165 O 0.25724 0.66168 0.56844
 O166 O 0.16169 0.75724 0.43156
 Cu167 Cu 0.29864 0.79863 0.50000
 Cu168 Cu 0.20137 0.70136 0.50000
 C169 C 0.18649 0.81351 0.40649
 C170 C 0.31351 0.68649 0.59351
 C171 C 0.31351 0.68649 0.40649
 C172 C 0.18649 0.81351 0.59351
 O173 O 0.25724 0.83832 0.06844
 O174 O 0.16168 0.74276 -0.06844
 O175 O 0.16168 0.74276 0.06844
 O176 O 0.25724 0.83831 -0.06844
 O177 O 0.33832 0.75724 -0.06844
 O178 O 0.24276 0.66168 0.06845
 O179 O 0.24276 0.66168 -0.06844
 O180 O 0.33831 0.75724 0.06845
 Cu181 Cu 0.20136 0.79864 0.00000
 Cu182 Cu 0.29864 0.70136 0.00000
 C183 C 0.31351 0.81351 0.09351
 C184 C 0.18649 0.68649 -0.09351
 C185 C 0.18649 0.68649 0.09351
 C186 C 0.31351 0.81351 -0.09351
 O187 O 0.33832 0.25724 0.43156
 O188 O 0.24276 0.16169 0.56845
 O189 O 0.24276 0.16169 0.43156
 O190 O 0.33832 0.25724 0.56845
 O191 O 0.25724 0.33832 0.56844
 O192 O 0.16169 0.24276 0.43156
 O193 O 0.16169 0.24276 0.56845
 O194 O 0.25724 0.33832 0.43156
 Cu195 Cu 0.29864 0.20136 0.50000
 Cu196 Cu 0.20137 0.29864 0.50000
 C197 C 0.31351 0.31351 0.40649
 C198 C 0.18649 0.18649 0.59351
 C199 C 0.18649 0.18649 0.40649
 C200 C 0.31351 0.31351 0.59351
 O201 O 0.83832 0.74276 1.06844
 O202 O 0.74276 0.83832 0.93156
 O203 O 0.74276 0.83832 1.06844
 O204 O 0.83831 0.74276 0.93155
 O205 O 0.75724 0.66169 0.93156
 O206 O 0.66168 0.75724 1.06844
 O207 O 0.66168 0.75724 0.93156
 O208 O 0.75724 0.66169 1.06844
 Cu209 Cu 0.79863 0.79864 1.00000
 Cu210 Cu 0.70136 0.70137 1.00000
 C211 C 0.81351 0.68649 1.09351
 C212 C 0.68649 0.81351 0.90649
 C213 C 0.68649 0.81351 1.09351
 C214 C 0.81351 0.68649 0.90649
 O215 O 0.74276 0.33832 0.43156
 O216 O 0.83832 0.24276 0.56844
 O217 O 0.83831 0.24276 0.43156
 O218 O 0.74276 0.33832 0.56844
 O219 O 0.66169 0.25724 0.56845
 O220 O 0.75724 0.16169 0.43156
 O221 O 0.75724 0.16169 0.56844
 O222 O 0.66168 0.25724 0.43156
 Cu223 Cu 0.79864 0.29864 0.50000
 Cu224 Cu 0.70136 0.20136 0.50000
 C225 C 0.68649 0.31351 0.40649
 C226 C 0.81351 0.18649 0.59351
 C227 C 0.81351 0.18649 0.40649
 C228 C 0.68649 0.31351 0.59351
 O229 O 0.83832 0.25724 -0.06844
 O230 O 0.74276 0.16168 0.06845
 O231 O 0.74276 0.16168 -0.06844
 O232 O 0.83831 0.25724 0.06845
 O233 O 0.75724 0.33832 0.06845
 O234 O 0.66168 0.24276 -0.06844
 O235 O 0.66168 0.24276 0.06844
 O236 O 0.75724 0.33831 -0.06844
 Cu237 Cu 0.79864 0.20136 0.00000
 Cu238 Cu 0.70136 0.29864 0.00000
 C239 C 0.81351 0.31351 -0.09351
 C240 C 0.68649 0.18649 0.09351
 C241 C 0.68649 0.18649 -0.09351
 C242 C 0.81351 0.31351 0.09351
 O243 O 0.83832 0.75724 0.43156
 O244 O 0.74276 0.66168 0.56844
 O245 O 0.74276 0.66169 0.43156
 O246 O 0.83831 0.75724 0.56845
 O247 O 0.75724 0.83832 0.56845
 O248 O 0.66169 0.74276 0.43156
 O249 O 0.66169 0.74276 0.56844
 O250 O 0.75724 0.83832 0.43156
 Cu251 Cu 0.79864 0.70136 0.50000
 Cu252 Cu 0.70137 0.79864 0.50000
 C253 C 0.81351 0.81351 0.40649
 C254 C 0.68649 0.68649 0.59351
 C255 C 0.68649 0.68649 0.40649
 C256 C 0.81351 0.81351 0.59351
 O257 O 0.93156 0.25724 0.16169
 O258 O 1.06844 0.16168 0.25724
 O259 O 0.93156 0.16168 0.25724
 O260 O 1.06844 0.25724 0.16168
 O261 O 1.06844 0.33831 0.24276
 O262 O 0.93156 0.24276 0.33832
 O263 O 1.06844 0.24276 0.33832
 O264 O 0.93156 0.33832 0.24276
 Cu265 Cu 1.00000 0.20136 0.20137
 Cu266 Cu 1.00000 0.29864 0.29864
 C267 C 0.90649 0.31351 0.18649
 C268 C 1.09351 0.18649 0.31351
 C269 C 0.90649 0.18649 0.31351
 C270 C 1.09351 0.31351 0.18649
 O271 O 0.43156 0.25724 0.66169
 O272 O 0.56844 0.16169 0.75724
 O273 O 0.43156 0.16168 0.75724
 O274 O 0.56845 0.25724 0.66169
 O275 O 0.56845 0.33832 0.74276
 O276 O 0.43156 0.24276 0.83831
 O277 O 0.56844 0.24276 0.83832
 O278 O 0.43156 0.33832 0.74276
 Cu279 Cu 0.50000 0.20136 0.70137
 Cu280 Cu 0.50000 0.29864 0.79864
 C281 C 0.40649 0.31351 0.68649
 C282 C 0.59351 0.18649 0.81351
 C283 C 0.40649 0.18649 0.81351
 C284 C 0.59351 0.31351 0.68649
 O285 O -0.06844 0.33832 0.75724
 O286 O 0.06845 0.24276 0.66169
 O287 O -0.06844 0.24276 0.66169
 O288 O 0.06844 0.33832 0.75724
 O289 O 0.06844 0.25724 0.83832
 O290 O -0.06844 0.16168 0.74276
 O291 O 0.06845 0.16169 0.74276
 O292 O -0.06844 0.25724 0.83832
 Cu293 Cu 0.00000 0.29864 0.70137
 Cu294 Cu 0.00000 0.20136 0.79864
 C295 C -0.09351 0.31351 0.81351
 C296 C 0.09351 0.18649 0.68649
 C297 C -0.09351 0.18649 0.68649
 C298 C 0.09351 0.31351 0.81351
 O299 O 0.43156 0.16169 0.24276
 O300 O 0.56845 0.25724 0.33832
 O301 O 0.43156 0.25724 0.33832
 O302 O 0.56844 0.16168 0.24276
 O303 O 0.56844 0.24276 0.16169
 O304 O 0.43156 0.33832 0.25724
 O305 O 0.56845 0.33832 0.25724
 O306 O 0.43156 0.24276 0.16168
 Cu307 Cu 0.50000 0.20136 0.29864
 Cu308 Cu 0.50000 0.29864 0.20136
 C309 C 0.40649 0.18649 0.18649
 C310 C 0.59351 0.31351 0.31351
 C311 C 0.40649 0.31351 0.31351
 C312 C 0.59351 0.18649 0.18649
 O313 O 0.93156 0.75724 0.66169
 O314 O 1.06844 0.66169 0.75724
 O315 O 0.93156 0.66169 0.75724
 O316 O 1.06844 0.75724 0.66168
 O317 O 1.06845 0.83832 0.74276
 O318 O 0.93156 0.74276 0.83832
 O319 O 1.06845 0.74276 0.83832
 O320 O 0.93156 0.83832 0.74276
 Cu321 Cu 1.00000 0.70136 0.70136
 Cu322 Cu 1.00000 0.79864 0.79863
 C323 C 0.90649 0.81351 0.68649
 C324 C 1.09351 0.68649 0.81351
 C325 C 0.90649 0.68649 0.81351
 C326 C 1.09351 0.81351 0.68649
 O327 O 0.56845 0.66169 0.25724
 O328 O 0.43156 0.75724 0.16169
 O329 O 0.56844 0.75724 0.16168
 O330 O 0.43156 0.66168 0.25724
 O331 O 0.43156 0.74276 0.33832
 O332 O 0.56844 0.83832 0.24276
 O333 O 0.43156 0.83832 0.24276
 O334 O 0.56845 0.74276 0.33832
 Cu335 Cu 0.50000 0.70136 0.20136
 Cu336 Cu 0.50000 0.79864 0.29864
 C337 C 0.59351 0.68649 0.31351
 C338 C 0.40649 0.81351 0.18649
 C339 C 0.59351 0.81351 0.18649
 C340 C 0.40649 0.68649 0.31351
 O341 O 0.06844 0.75724 0.33832
 O342 O -0.06844 0.66169 0.24276
 O343 O 0.06844 0.66169 0.24276
 O344 O -0.06844 0.75724 0.33832
 O345 O -0.06844 0.83832 0.25724
 O346 O 0.06845 0.74276 0.16169
 O347 O -0.06844 0.74276 0.16168
 O348 O 0.06844 0.83832 0.25724
 Cu349 Cu 0.00000 0.70136 0.29864
 Cu350 Cu 0.00000 0.79864 0.20137
 C351 C 0.09351 0.81351 0.31351
 C352 C -0.09351 0.68649 0.18649
 C353 C 0.09351 0.68649 0.18649
 C354 C -0.09351 0.81351 0.31351
 O355 O 0.43156 0.83831 0.75724
 O356 O 0.56845 0.74276 0.66168
 O357 O 0.43156 0.74276 0.66168
 O358 O 0.56844 0.83832 0.75724
 O359 O 0.56844 0.75724 0.83831
 O360 O 0.43156 0.66168 0.74276
 O361 O 0.56845 0.66168 0.74276
 O362 O 0.43156 0.75724 0.83831
 Cu363 Cu 0.50000 0.79863 0.70136
 Cu364 Cu 0.50000 0.70136 0.79863
 C365 C 0.40649 0.81351 0.81351
 C366 C 0.59351 0.68649 0.68649
 C367 C 0.40649 0.68649 0.68649
 C368 C 0.59351 0.81351 0.81351
   
