data_POSCAR
  _audit_creation_date              2014-09-24
  _audit_creation_method            'ToBaCCo'
  _symmetry_space_group_name_H-M    'P1'
  _symmetry_Int_Tables_number       1
  _symmetry_cell_setting            triclinic
  loop_
  _symmetry_equiv_pos_as_xyz
 x,y,z
_cell_length_a 51.9371
_cell_length_b 52.7604
_cell_length_c 22.6295
_cell_angle_alpha 89.807100
_cell_angle_beta 90.137700
_cell_angle_gamma 119.661200
loop_
  _atom_site_label
  _atom_site_type_symbol
  _atom_site_fract_x
  _atom_site_fract_y
  _atom_site_fract_z
C1 C 0.13071 0.42675 0.51308
 C2 C 0.13330 0.42809 0.45272
 C3 C 0.15902 0.42736 0.43934
 N4 N 0.17209 0.42565 0.48971
 C5 C 0.15502 0.42549 0.53491
 C6 C 0.16953 0.42793 0.38135
 C7 C 0.19473 0.42548 0.36697
 C8 C 0.20160 0.42057 0.31034
 C9 C 0.22802 0.42065 0.31408
 C10 C 0.23678 0.42569 0.37280
 N11 N 0.21641 0.42877 0.40464
 C12 C 0.26360 0.42833 0.39437
 C13 C 0.27092 0.42984 0.45492
 C14 C 0.29726 0.43279 0.47638
 C15 C 0.29583 0.43364 0.53674
 C16 C 0.26858 0.43116 0.55047
 N17 N 0.25341 0.42860 0.50028
 C18 C 0.25918 0.43290 0.60837
 C19 C 0.23170 0.43094 0.62343
 C20 C 0.22434 0.43542 0.67998
 C21 C 0.19693 0.43319 0.67647
 C22 C 0.18808 0.42756 0.61785
 N23 N 0.20909 0.42544 0.58614
 C24 C 0.16171 0.42589 0.59567
 H25 H 0.11319 0.42722 0.53802
 H26 H 0.11792 0.42937 0.42213
 H27 H 0.20760 0.41934 0.54233
 H28 H 0.18885 0.41728 0.27034
 H29 H 0.23952 0.41748 0.27752
 H30 H 0.31571 0.43439 0.45121
 H31 H 0.31311 0.43620 0.56705
 H32 H 0.18527 0.43629 0.71284
 H33 H 0.21857 0.43585 0.44792
 H34 H 0.23763 0.44039 0.71969
 C35 C 0.55038 -0.30555 0.52226
 C36 C 0.54800 -0.30413 0.46214
 C37 C 0.55070 -0.27711 0.44944
 N38 N 0.55489 -0.26205 0.50004
 C39 C 0.55454 -0.27936 0.54470
 C40 C 0.54804 -0.26764 0.39209
 C41 C 0.54948 -0.24066 0.37824
 C42 C 0.54367 -0.23336 0.32261
 C43 C 0.54588 -0.20643 0.32731
 C44 C 0.55293 -0.19777 0.38567
 N45 N 0.55578 -0.21849 0.41603
 C46 C 0.55535 -0.17173 0.40892
 C47 C 0.55816 -0.16473 0.46972
 C48 C 0.55808 -0.14049 0.49300
 C49 C 0.55939 -0.14251 0.55323
 C50 C 0.56043 -0.16783 0.56494
 N51 N 0.55981 -0.18123 0.51381
 C52 C 0.56232 -0.17766 0.62212
 C53 C 0.56453 -0.20276 0.63493
 C54 C 0.57153 -0.20916 0.69018
 C55 C 0.57040 -0.23562 0.68555
 C56 C 0.56264 -0.24487 0.62756
 N57 N 0.55892 -0.22471 0.59717
 C58 C 0.55828 -0.27183 0.60539
 H59 H 0.54915 -0.32380 0.54664
 H60 H 0.54433 -0.32125 0.43134
 H61 H 0.54996 -0.22709 0.55528
 H62 H 0.53782 -0.24636 0.28278
 H63 H 0.54197 -0.19489 0.29191
 H64 H 0.55674 -0.12335 0.46920
 H65 H 0.55962 -0.12701 0.58476
 H66 H 0.57471 -0.24684 0.72102
 H67 H 0.56292 -0.21715 0.45917
 H68 H 0.57690 -0.19610 0.72986
 C69 C 1.15885 0.68927 0.45782
 C70 C 1.16261 0.68851 0.51772
 C71 C 1.18141 0.71708 0.53545
 N72 N 1.18894 0.73516 0.48840
 C73 C 1.17546 0.71822 0.44083
 C74 C 1.18987 0.72611 0.59455
 C75 C 1.21090 0.75486 0.61159
 C76 C 1.21551 0.76525 0.66921
 C77 C 1.23932 0.79311 0.66796
 C78 C 1.24867 0.79910 0.60964
 N79 N 1.23125 0.77561 0.57571
 C80 C 1.27402 0.82484 0.58997
 C81 C 1.27999 0.83261 0.52964
 C82 C 1.30600 0.85576 0.50798
 C83 C 1.30257 0.85616 0.44792
 C84 C 1.27449 0.83330 0.43471
 N85 N 1.26065 0.81921 0.48485
 C86 C 1.26182 0.82656 0.37746
 C87 C 1.23414 0.80200 0.36386
 C88 C 1.21899 0.79789 0.31091
 C89 C 1.19503 0.77012 0.31232
 C90 C 1.19620 0.75797 0.36599
 N91 N 1.22008 0.77758 0.39707
 C92 C 1.17695 0.72872 0.38276
 H93 H 1.14532 0.67066 0.43005
 H94 H 1.15247 0.66915 0.54518
 H95 H 1.22871 0.77327 0.43469
 H96 H 1.20330 0.75373 0.70831
 H97 H 1.24896 0.80719 0.70585
 H98 H 1.32544 0.87076 0.53287
 H99 H 1.31886 0.87161 0.41746
 H100 H 1.17898 0.75983 0.27725
 H101 H 1.23530 0.77243 0.53227
 H102 H 1.22500 0.81312 0.27446
 C103 C 0.85622 0.55354 0.55215
 C104 C 0.85700 0.55179 0.49172
 C105 C 0.83721 0.55990 0.46956
 N106 N 0.82455 0.56668 0.51441
 C107 C 0.83579 0.56245 0.56506
 C108 C 0.83214 0.56213 0.40887
 C109 C 0.81113 0.56942 0.38713
 C110 C 0.81003 0.57779 0.32941
 C111 C 0.78504 0.58045 0.32489
 C112 C 0.77148 0.57346 0.37988
 N113 N 0.78755 0.56677 0.41745
 C114 C 0.74365 0.57082 0.39248
 C115 C 0.73177 0.56711 0.44993
 C116 C 0.70298 0.56045 0.46257
 C117 C 0.70045 0.55920 0.52291
 C118 C 0.72786 0.56533 0.54530
 N119 N 0.74701 0.57047 0.50054
 C120 C 0.73506 0.56735 0.60604
 C121 C 0.76266 0.57214 0.62794
 C122 C 0.77267 0.58030 0.68541
 C123 C 0.79923 0.58056 0.68992
 C124 C 0.80470 0.57233 0.63519
 N125 N 0.78224 0.56723 0.59784
 C126 C 0.82860 0.56741 0.62262
 H127 H 0.86914 0.54869 0.58308
 H128 H 0.87075 0.54551 0.46694
 H129 H 0.77847 0.55732 0.55683
 H130 H 0.82538 0.58117 0.29397
 H131 H 0.77735 0.58616 0.28523
 H132 H 0.68556 0.55676 0.43157
 H133 H 0.68072 0.55451 0.54750
 H134 H 0.81266 0.58558 0.72943
 H135 H 0.78079 0.55709 0.45864
 H136 H 0.76175 0.58520 0.72063
 C137 C 0.45398 0.15434 0.47307
 C138 C 0.45145 0.15075 0.53320
 C139 C 0.44304 0.17025 0.55440
 N140 N 0.44008 0.18536 0.50906
 C141 C 0.44709 0.17593 0.45937
 C142 C 0.43707 0.17289 0.61435
 C143 C 0.43099 0.19452 0.63590
 C144 C 0.42028 0.19465 0.69202
 C145 C 0.41999 0.22046 0.69750
 C146 C 0.43053 0.23547 0.64460
 N147 N 0.43720 0.21950 0.60748
 C148 C 0.43592 0.26411 0.63358
 C149 C 0.44184 0.27712 0.57684
 C150 C 0.44982 0.30597 0.56546
 C151 C 0.45247 0.30955 0.50534
 C152 C 0.44605 0.28281 0.48182
 N153 N 0.43924 0.26298 0.52554
 C154 C 0.44532 0.27691 0.42085
 C155 C 0.44155 0.25048 0.39746
 C156 C 0.43603 0.24247 0.33845
 C157 C 0.43630 0.21662 0.33296
 C158 C 0.44199 0.20955 0.38875
 N159 N 0.44526 0.23036 0.42764
 C160 C 0.44615 0.18560 0.40155
 H161 H 0.46013 0.14235 0.44291
 H162 H 0.45524 0.13542 0.55839
 H163 H 0.45331 0.23267 0.47040
 H164 H 0.41389 0.17808 0.72592
 H165 H 0.41331 0.22763 0.73640
 H166 H 0.45326 0.32268 0.59716
 H167 H 0.45836 0.32956 0.48168
 H168 H 0.43316 0.20465 0.29234
 H169 H 0.44897 0.22686 0.56834
 H170 H 0.43263 0.25426 0.30285
 C171 C 0.69641 0.14776 0.54315
 C172 C 0.69529 0.14289 0.48346
 C173 C 0.72289 0.16274 0.46106
 N174 N 0.74088 0.17934 0.50521
 C175 C 0.72467 0.17050 0.55541
 C176 C 0.73125 0.16448 0.40115
 C177 C 0.75853 0.18627 0.37785
 C178 C 0.76912 0.18568 0.32191
 C179 C 0.79477 0.21191 0.31414
 C180 C 0.79910 0.22781 0.36549
 N181 N 0.77688 0.21204 0.40391
 C182 C 0.82177 0.25692 0.37392
 C183 C 0.82859 0.27132 0.42898
 C184 C 0.84879 0.30066 0.43712
 C185 C 0.84977 0.30577 0.49661
 C186 C 0.83015 0.27939 0.52296
 N187 N 0.81748 0.25833 0.48159
 C188 C 0.82547 0.27495 0.58441
 C189 C 0.80350 0.24876 0.61052
 C190 C 0.80173 0.24227 0.67033
 C191 C 0.77624 0.21591 0.67832
 C192 C 0.76309 0.20699 0.62314
 N193 N 0.77982 0.22725 0.58225
 C194 C 0.73533 0.18183 0.61247
 H195 H 0.67846 0.13588 0.57401
 H196 H 0.67632 0.12653 0.45937
 H197 H 0.77357 0.22815 0.53909
 H198 H 0.75912 0.16836 0.28962
 H199 H 0.80836 0.21873 0.27475
 H200 H 0.86159 0.31673 0.40374
 H201 H 0.86349 0.32653 0.51799
 H202 H 0.76809 0.20478 0.72013
 H203 H 0.77233 0.21984 0.44215
 H204 H 0.81699 0.25535 0.70477
 O205 O 0.98670 0.53436 -0.07826
 O206 O 1.03100 0.52981 0.10508
 O207 O 0.93895 0.48273 0.04985
 O208 O 1.07526 0.54127 -0.05245
 O209 O 0.97598 0.50654 0.11303
 O210 O 1.03897 0.54765 -0.08263
 O211 O 1.04504 0.55102 0.02075
 O212 O 0.94465 0.49556 -0.05753
 C213 C 0.95912 0.52184 -0.07422
 C214 C 1.04376 0.55276 0.07527
 C215 C 0.94981 0.49791 0.09618
 C216 C 1.06556 0.55344 -0.08994
 O217 O 1.02276 0.49343 -0.12276
 O218 O 0.97088 0.45572 0.10398
 O219 O 0.95529 0.44950 -0.07493
 O220 O 1.06111 0.51295 0.04962
 O221 O 1.02342 0.47565 0.08469
 O222 O 0.97164 0.48525 -0.13293
 O223 O 1.04194 0.48640 -0.04462
 O224 O 0.94593 0.43695 0.02449
 Co225 Co 1.00449 0.51324 -0.09464
 Co226 Co 1.00056 0.49262 0.09182
 Co227 Co 0.95061 0.46903 -0.01436
 Co228 Co 1.04156 0.51770 -0.01286
 O229 O 0.99720 0.49612 -0.00325
 C230 C 1.03597 0.48180 -0.09806
 C231 C 0.95197 0.43437 0.07611
 C232 C 0.95913 0.45857 -0.12565
 C233 C 1.05063 0.49009 0.07913
 O234 O 0.46936 0.45307 -0.07169
 O235 O 0.47069 0.49910 0.11532
 O236 O 0.50539 0.45126 0.06210
 O237 O 0.44981 0.52463 -0.04457
 O238 O 0.50718 0.48257 0.12850
 O239 O 0.45079 0.48597 -0.07312
 O240 O 0.44514 0.48833 0.03362
 O241 O 0.50855 0.45138 -0.04932
 C242 C 0.48276 0.43923 -0.06890
 C243 C 0.44609 0.48571 0.08855
 C244 C 0.50178 0.45720 0.11394
 C245 C 0.44072 0.50318 -0.08125
 O246 O 0.50455 0.52973 -0.11052
 O247 O 0.55037 0.53572 0.08829
 O248 O 0.55562 0.50295 -0.04494
 O249 O 0.47385 0.54196 0.05809
 O250 O 0.51723 0.55235 0.07647
 O251 O 0.52301 0.49520 -0.11412
 O252 O 0.50587 0.55339 -0.03289
 O253 O 0.55519 0.49903 0.06550
 Co254 Co 0.48837 0.49205 -0.08396
 Co255 Co 0.51047 0.51621 0.09477
 Co256 Co 0.52846 0.47864 0.00790
 Co257 Co 0.47635 0.51984 -0.00137
 O258 O 0.50281 0.50175 0.00687
 C259 C 0.51230 0.55355 -0.08568
 C260 C 0.56559 0.52377 0.08706
 C261 C 0.54947 0.50454 -0.09764
 C262 C 0.49735 0.55845 0.08313
 O263 O 0.54997 0.02657 -0.07758
 O264 O 0.49339 -0.02608 0.12042
 O265 O 0.55141 0.04846 0.04814
 O266 O 0.48102 -0.07024 -0.04046
 O267 O 0.52378 0.02647 0.12213
 O268 O 0.51948 -0.02921 -0.07712
 O269 O 0.50805 -0.04274 0.04813
 O270 O 0.54646 0.06400 -0.05049
 C271 C 0.56048 0.05364 -0.07642
 C272 C 0.50714 -0.03871 0.10217
 C273 C 0.54903 0.04162 0.10087
 C274 C 0.50405 -0.05723 -0.07475
 O275 O 0.47322 -0.02490 -0.11787
 O276 O 0.47998 0.03392 0.07557
 O277 O 0.49187 0.04844 -0.03627
 O278 O 0.45152 -0.05968 0.05858
 O279 O 0.44832 -0.02076 0.07178
 O280 O 0.50183 0.02966 -0.11397
 O281 O 0.44725 -0.04895 -0.04276
 O282 O 0.52140 0.07458 0.05144
 Co283 Co 0.51026 0.00073 -0.08829
 Co284 Co 0.48708 0.00315 0.09015
 Co285 Co 0.51959 0.04536 0.00857
 Co286 Co 0.47965 -0.04243 0.00108
 O287 O 0.49921 0.00145 0.00222
 C288 C 0.44882 -0.04328 -0.09642
 C289 C 0.49733 0.06140 0.08337
 C290 C 0.49092 0.04434 -0.09124
 C291 C 0.43701 -0.04789 0.07613
 C292 C 1.15467 0.43193 0.33558
 C293 C 1.14228 0.43677 0.29588
 C294 C 1.12798 0.44404 0.25004
 C295 C 1.14406 0.47017 0.21856
 C296 C 1.12955 0.47906 0.17858
 C297 C 1.09896 0.46177 0.17004
 C298 C 1.08306 0.43521 0.20020
 C299 C 1.09756 0.42635 0.24022
 C300 C 1.08331 0.47233 0.13475
 C301 C 1.06908 0.48085 0.10787
 H302 H 1.16758 0.48408 0.22630
 H303 H 1.14195 0.49975 0.15581
 H304 H 1.05933 0.42185 0.19419
 H305 H 1.08495 0.40623 0.26476
 C306 C 0.54157 0.71297 0.34683
 C307 C 0.53539 0.69541 0.30790
 C308 C 0.52763 0.67373 0.26298
 C309 C 0.49846 0.65062 0.25908
 C310 C 0.49129 0.62817 0.21859
 C311 C 0.51328 0.62883 0.18192
 C312 C 0.54230 0.65229 0.18486
 C313 C 0.54947 0.67474 0.22537
 C314 C 0.50672 0.60437 0.14488
 C315 C 0.50195 0.58350 0.11567
 H316 H 0.48146 0.64962 0.28827
 H317 H 0.46884 0.60998 0.21695
 H318 H 0.55950 0.65283 0.15699
 H319 H 0.57212 0.69247 0.22833
 C320 C 0.27825 -0.15617 0.33154
 C321 C 0.29372 -0.14167 0.29144
 C322 C 0.31373 -0.12505 0.24500
 C323 C 0.31869 -0.13954 0.19843
 C324 C 0.34159 -0.12384 0.15832
 C325 C 0.35952 -0.09365 0.16478
 C326 C 0.35377 -0.07902 0.20989
 C327 C 0.33090 -0.09472 0.25004
 C328 C 0.38578 -0.07812 0.12980
 C329 C 0.40878 -0.06467 0.10360
 H330 H 0.30571 -0.16306 0.19468
 H331 H 0.34609 -0.13535 0.12392
 H332 H 0.36775 -0.05569 0.21553
 H333 H 0.32744 -0.08341 0.28636
 C334 C 0.84882 0.55581 0.36597
 C335 C 0.86182 0.54957 0.33001
 C336 C 0.87667 0.54116 0.28740
 C337 C 0.89428 0.52949 0.30665
 C338 C 0.90800 0.52039 0.26548
 C339 C 0.90414 0.52286 0.20484
 C340 C 0.88659 0.53461 0.18548
 C341 C 0.87283 0.54372 0.22674
 C342 C 0.91884 0.51379 0.16319
 C343 C 0.93225 0.50633 0.13084
 H344 H 0.89728 0.52730 0.35342
 H345 H 0.92161 0.51142 0.28092
 H346 H 0.88356 0.53670 0.13869
 H347 H 0.85913 0.55260 0.21144
 C348 C 0.44933 0.29970 0.37986
 C349 C 0.45350 0.31930 0.34677
 C350 C 0.45944 0.34324 0.30811
 C351 C 0.47171 0.37154 0.33093
 C352 C 0.47913 0.39513 0.29297
 C353 C 0.47428 0.39047 0.23209
 C354 C 0.46158 0.36211 0.20941
 C355 C 0.45418 0.33853 0.24735
 C356 C 0.48358 0.41476 0.19236
 C357 C 0.49176 0.43457 0.15754
 H358 H 0.47596 0.37540 0.37786
 H359 H 0.48906 0.41699 0.31090
 H360 H 0.45787 0.35830 0.16235
 H361 H 0.44482 0.31674 0.22926
 C362 C 0.70989 0.14349 0.36036
 C363 C 0.69141 0.12683 0.32640
 C364 C 0.66855 0.10803 0.28602
 C365 C 0.64133 0.08608 0.30783
 C366 C 0.61776 0.07023 0.26906
 C367 C 0.62133 0.07631 0.20838
 C368 C 0.64883 0.09763 0.18637
 C369 C 0.67241 0.11347 0.22514
 C370 C 0.59613 0.06276 0.16965
 C371 C 0.57472 0.05253 0.13784
 H372 H 0.63804 0.08191 0.35490
 H373 H 0.59650 0.05398 0.28658
 H374 H 0.65174 0.10268 0.13958
 H375 H 0.69328 0.13060 0.20791
 C376 C 0.43822 0.15385 -0.34588
 C377 C 0.44042 0.13743 -0.31182
 C378 C 0.44466 0.11842 -0.27240
 C379 C 0.44837 0.12437 -0.21175
 C380 C 0.45555 0.10764 -0.17434
 C381 C 0.45906 0.08494 -0.19751
 C382 C 0.45463 0.07854 -0.25793
 C383 C 0.44745 0.09527 -0.29533
 C384 C 0.46920 0.06962 -0.16006
 C385 C 0.47867 0.05762 -0.12873
 H386 H 0.44650 0.14239 -0.19371
 H387 H 0.45912 0.11287 -0.12772
 H388 H 0.45749 0.06115 -0.27631
 H389 H 0.44488 0.09067 -0.34227
 C390 C 0.71364 0.56375 -0.35423
 C391 C 0.69372 0.55939 -0.32112
 C392 C 0.66890 0.55275 -0.28352
 C393 C 0.64103 0.54390 -0.30863
 C394 C 0.61629 0.53524 -0.27235
 C395 C 0.61937 0.53541 -0.21085
 C396 C 0.64734 0.54475 -0.18575
 C397 C 0.67207 0.55339 -0.22201
 C398 C 0.59380 0.52482 -0.17327
 C399 C 0.57302 0.51561 -0.14000
 H400 H 0.63834 0.54315 -0.35620
 H401 H 0.59475 0.52795 -0.29220
 H402 H 0.64992 0.54485 -0.13820
 H403 H 0.69348 0.56002 -0.20220
 C404 C 0.84455 0.29900 -0.37747
 C405 C 0.86072 0.31991 -0.34805
 C406 C 0.88005 0.34551 -0.31469
 C407 C 0.90190 0.34569 -0.27806
 C408 C 0.92028 0.37050 -0.24489
 C409 C 0.91692 0.39524 -0.24843
 C410 C 0.89539 0.39522 -0.28581
 C411 C 0.87703 0.37042 -0.31900
 C412 C 0.93348 0.41935 -0.20927
 C413 C 0.94607 0.43826 -0.17313
 H414 H 0.90446 0.32657 -0.27456
 H415 H 0.93663 0.37018 -0.21554
 H416 H 0.89237 0.41410 -0.28831
 H417 H 0.86025 0.37051 -0.34738
 C418 C 0.56082 -0.16125 -0.32841
 C419 C 0.55787 -0.14803 -0.28835
 C420 C 0.55239 -0.13259 -0.24271
 C421 C 0.56716 -0.10208 -0.24357
 C422 C 0.55866 -0.08709 -0.20468
 C423 C 0.53534 -0.10261 -0.16503
 C424 C 0.52126 -0.13308 -0.16275
 C425 C 0.52979 -0.14808 -0.20162
 C426 C 0.52429 -0.08733 -0.13066
 C427 C 0.51488 -0.07397 -0.10410
 H428 H 0.58441 -0.08998 -0.27574
 H429 H 0.56951 -0.06351 -0.20696
 H430 H 0.50306 -0.14524 -0.13248
 H431 H 0.51802 -0.17171 -0.20121
 C432 C 0.27948 0.43955 -0.34730
 C433 C 0.29818 0.44636 -0.30980
 C434 C 0.32153 0.45542 -0.26724
 C435 C 0.34314 0.44720 -0.27453
 C436 C 0.36706 0.45752 -0.23558
 C437 C 0.36948 0.47615 -0.18936
 C438 C 0.34772 0.48416 -0.18163
 C439 C 0.32375 0.47382 -0.22066
 C440 C 0.39440 0.48687 -0.15022
 C441 C 0.41554 0.49499 -0.11830
 H442 H 0.34170 0.43317 -0.31075
 H443 H 0.38379 0.45119 -0.24178
 H444 H 0.34943 0.49853 -0.14590
 H445 H 0.30721 0.48044 -0.21505
 C446 C 1.17661 0.70566 -0.36193
 C447 C 1.16473 0.68718 -0.32460
 C448 C 1.15009 0.66452 -0.28153
 C449 C 1.14435 0.67115 -0.22491
 C450 C 1.12875 0.64874 -0.18416
 C451 C 1.11893 0.61973 -0.20002
 C452 C 1.12507 0.61318 -0.25634
 C453 C 1.14064 0.63556 -0.29705
 C454 C 1.10108 0.59652 -0.15992
 C455 C 1.08529 0.57689 -0.12739
 H456 H 1.15153 0.69351 -0.21266
 H457 H 1.12392 0.65396 -0.14078
 H458 H 1.11738 0.59078 -0.26907
 H459 H 1.14492 0.63026 -0.34085
 C460 C 0.84543 0.56680 -0.33102
 C461 C 0.86027 0.56567 -0.29100
 C462 C 0.87806 0.56334 -0.24458
 C463 C 0.90900 0.57797 -0.24979
 C464 C 0.92614 0.57307 -0.20839
 C465 C 0.91246 0.55354 -0.16148
 C466 C 0.88159 0.53967 -0.15515
 C467 C 0.86444 0.54459 -0.19654
 C468 C 0.92951 0.54460 -0.12541
 C469 C 0.94339 0.53530 -0.09925
 H470 H 0.91977 0.59234 -0.28696
 H471 H 0.94992 0.58356 -0.21436
 H472 H 0.87069 0.52417 -0.11966
 H473 H 0.84054 0.53298 -0.19226
 C474 C 0.43608 0.28058 -0.31948
 C475 C 0.43728 0.29629 -0.27970
 C476 C 0.44014 0.31666 -0.23453
 C477 C 0.46022 0.32289 -0.18796
 C478 C 0.46615 0.34563 -0.14882
 C479 C 0.45202 0.36220 -0.15610
 C480 C 0.43118 0.35530 -0.20143
 C481 C 0.42526 0.33258 -0.24055
 C482 C 0.46138 0.38825 -0.12177
 C483 C 0.47047 0.41105 -0.09591
 H484 H 0.47210 0.31094 -0.18327
 H485 H 0.48257 0.35099 -0.11438
 H486 H 0.42040 0.36819 -0.20792
 H487 H 0.40995 0.32818 -0.27680
 C488 C 0.71748 0.16760 -0.34010
 C489 C 0.70086 0.15465 -0.29985
 C490 C 0.67984 0.13859 -0.25390
 C491 C 0.66607 0.15149 -0.22256
 C492 C 0.64352 0.13498 -0.18210
 C493 C 0.63462 0.10550 -0.17278
 C494 C 0.64887 0.09280 -0.20310
 C495 C 0.67141 0.10929 -0.24356
 C496 C 0.60938 0.08771 -0.13593
 C497 C 0.58746 0.07239 -0.10737
 H498 H 0.67223 0.17405 -0.23055
 H499 H 0.63250 0.14498 -0.15931
 H500 H 0.64201 0.06996 -0.19666
 H501 H 0.68171 0.09901 -0.26789
 C502 C 1.14163 0.42773 -0.36188
 C503 C 1.12547 0.43004 -0.32654
 C504 C 1.10681 0.43384 -0.28431
 C505 C 1.08112 0.43393 -0.30319
 C506 C 1.06440 0.44006 -0.26311
 C507 C 1.07321 0.44610 -0.20381
 C508 C 1.09851 0.44532 -0.18465
 C509 C 1.11522 0.43919 -0.22472
 C510 C 1.05827 0.45614 -0.16441
 C511 C 1.04712 0.46653 -0.13292
 H512 H 1.07444 0.43001 -0.34916
 H513 H 1.04513 0.44095 -0.27875
 H514 H 1.10582 0.45031 -0.13917
 H515 H 1.13511 0.43936 -0.20957
 C516 C 0.55748 0.70811 -0.35444
 C517 C 0.55608 0.69044 -0.31849
 C518 C 0.55342 0.66911 -0.27511
 C519 C 0.55503 0.64445 -0.29244
 C520 C 0.55012 0.62266 -0.25114
 C521 C 0.54360 0.62537 -0.19216
 C522 C 0.54264 0.65035 -0.17455
 C523 C 0.54757 0.67215 -0.21585
 C524 C 0.53494 0.60127 -0.15160
 C525 C 0.52583 0.58010 -0.11981
 H526 H 0.55936 0.64173 -0.33812
 H527 H 0.55059 0.60333 -0.26557
 H528 H 0.53728 0.65259 -0.12933
 H529 H 0.54611 0.69102 -0.20189
 C530 C 0.29402 -0.15702 -0.36846
 C531 C 0.31195 -0.14127 -0.33222
 C532 C 0.33385 -0.12271 -0.28940
 C533 C 0.35805 -0.09607 -0.30712
 C534 C 0.38020 -0.07884 -0.26641
 C535 C 0.37834 -0.08809 -0.20762
 C536 C 0.35390 -0.11453 -0.18968
 C537 C 0.33174 -0.13176 -0.23040
 C538 C 0.40241 -0.07148 -0.16697
 C539 C 0.42319 -0.05817 -0.13402
 H540 H 0.36005 -0.08886 -0.35261
 H541 H 0.39906 -0.05859 -0.28105
 H542 H 0.35227 -0.12208 -0.14454
 H543 H 0.31323 -0.15235 -0.21612
 C544 C 0.55222 -0.15199 0.36808
 C545 C 0.54908 -0.13583 0.33451
 C546 C 0.54467 -0.11687 0.29457
 C547 C 0.54011 -0.09462 0.31680
 C548 C 0.53439 -0.07715 0.27816
 C549 C 0.53322 -0.08180 0.21700
 C550 C 0.53817 -0.10381 0.19476
 C551 C 0.54388 -0.12126 0.23337
 C552 C 0.52533 -0.06521 0.17724
 C553 C 0.51770 -0.05239 0.14337
 H554 H 0.54055 -0.09104 0.36399
 H555 H 0.53042 -0.06037 0.29602
 H556 H 0.53715 -0.10778 0.14765
 H557 H 0.54725 -0.13844 0.21558
 C558 C 0.28526 0.43017 0.35132
 C559 C 0.30363 0.43264 0.31556
 C560 C 0.32608 0.43675 0.27306
 C561 C 0.35155 0.43608 0.29136
 C562 C 0.37455 0.44266 0.25127
 C563 C 0.37224 0.44993 0.19258
 C564 C 0.34646 0.44991 0.17394
 C565 C 0.32345 0.44331 0.21402
 C566 C 0.39742 0.46028 0.15347
 C567 C 0.41923 0.47074 0.12251
 H568 H 0.35396 0.43123 0.33693
 H569 H 0.39448 0.44293 0.26648
 H570 H 0.34451 0.45582 0.12892
 H571 H 0.30398 0.44409 0.19937
 C572 C 1.15798 0.70838 0.33770
 C573 C 1.14258 0.69123 0.30024
 C574 C 1.12450 0.67026 0.25587
 C575 C 1.13742 0.66757 0.20363
 C576 C 1.12035 0.64582 0.16254
 C577 C 1.09021 0.62664 0.17331
 C578 C 1.07716 0.62977 0.22493
 C579 C 1.09423 0.65151 0.26602
 C580 C 1.07344 0.60203 0.13480
 C581 C 1.05967 0.58025 0.10548
 H582 H 1.16083 0.68183 0.19533
 H583 H 1.13083 0.64345 0.12322
 H584 H 1.05398 0.61490 0.23420
 H585 H 1.08398 0.65324 0.30630
 C586 C 0.45000 0.17003 0.35274
 C587 C 0.45384 0.15667 0.31384
 C588 C 0.45912 0.14030 0.26943
 C589 C 0.44397 0.10976 0.27198
 C590 C 0.45072 0.09378 0.23186
 C591 C 0.47269 0.10827 0.18902
 C592 C 0.48750 0.13880 0.18581
 C593 C 0.48074 0.15478 0.22595
 C594 C 0.48098 0.09186 0.15038
 C595 C 0.48827 0.07801 0.11919
 H596 H 0.42737 0.09833 0.30569
 H597 H 0.43922 0.07020 0.23495
 H598 H 0.50463 0.15024 0.15306
 H599 H 0.49276 0.17839 0.22385
 C600 C 0.72555 0.57073 0.34355
 C601 C 0.70933 0.56964 0.30425
 C602 C 0.68851 0.56701 0.25932
 C603 C 0.68455 0.55001 0.20907
 C604 C 0.66165 0.54427 0.16930
 C605 C 0.64264 0.55553 0.17964
 C606 C 0.64724 0.57333 0.22884
 C607 C 0.67013 0.57907 0.26859
 C608 C 0.61653 0.54610 0.14390
 C609 C 0.59372 0.53672 0.11647
 H610 H 0.69845 0.54035 0.20179
 H611 H 0.65807 0.53019 0.13180
 H612 H 0.63246 0.58185 0.23766
 H613 H 0.67281 0.59199 0.30762
 C614 C 0.83888 0.27356 0.32329
 C615 C 0.85362 0.28928 0.28355
 C616 C 0.87161 0.31012 0.23923
 C617 C 0.90237 0.32649 0.24707
 C618 C 0.91951 0.34996 0.20947
 C619 C 0.90595 0.35717 0.16393
 C620 C 0.87534 0.34015 0.15476
 C621 C 0.85819 0.31667 0.19237
 C622 C 0.92283 0.38365 0.13072
 C623 C 0.93647 0.40653 0.10485
 H624 H 0.91292 0.32187 0.28366
 H625 H 0.94312 0.36315 0.21733
 H626 H 0.86458 0.34570 0.12004
 H627 H 0.83438 0.30441 0.18640
   
