data_POSCAR
  _audit_creation_date              2014-09-24
  _audit_creation_method            'ToBaCCo'
  _symmetry_space_group_name_H-M    'P1'
  _symmetry_Int_Tables_number       1
  _symmetry_cell_setting            triclinic
  loop_
  _symmetry_equiv_pos_as_xyz
 x,y,z
_cell_length_a 39.0649
_cell_length_b 39.0810
_cell_length_c 39.0106
_cell_angle_alpha 89.996400
_cell_angle_beta 89.980900
_cell_angle_gamma 89.949300
loop_
  _atom_site_label
  _atom_site_type_symbol
  _atom_site_fract_x
  _atom_site_fract_y
  _atom_site_fract_z
C1 C 0.14859 0.14723 0.19127
 N2 N 0.17717 0.13339 0.17694
 C3 C 0.19160 0.14729 0.14842
 N4 N 0.17695 0.17552 0.13424
 C5 C 0.14837 0.18972 0.14808
 N6 N 0.13445 0.17545 0.17660
 C7 C -0.14849 0.85226 0.19154
 N8 N -0.17698 0.86618 0.17713
 C9 C -0.19141 0.85225 0.14864
 N10 N -0.17685 0.82393 0.13455
 C11 C -0.14835 0.80966 0.14847
 N12 N -0.13442 0.82394 0.17697
 C13 C -0.14887 0.14773 -0.19151
 N14 N -0.13481 0.17600 -0.17691
 C15 C -0.14876 0.19031 -0.14841
 N16 N -0.17728 0.17609 -0.13451
 C17 C -0.19184 0.14781 -0.14862
 N18 N -0.17739 0.13386 -0.17711
 C19 C 0.14843 0.85276 -0.18950
 N20 N 0.13443 0.82438 -0.17512
 C21 C 0.14853 0.80989 -0.14680
 N22 N 0.17715 0.82402 -0.13298
 C23 C 0.19165 0.85239 -0.14701
 N24 N 0.17704 0.86652 -0.17533
 C25 C 0.14769 1.14858 0.80846
 N26 N 0.13379 1.17707 0.82287
 C27 C 0.14771 1.19148 0.85138
 N28 N 0.17601 1.17690 0.86548
 C29 C 0.19028 1.14839 0.85156
 N30 N 0.17600 1.13449 0.82305
 C31 C 0.85255 0.85103 0.80835
 N32 N 0.86641 0.82247 0.82269
 C33 C 0.85250 0.80806 0.85122
 N34 N 0.82426 0.82270 0.86540
 C35 C 0.81005 0.85126 0.85156
 N36 N 0.82432 0.86517 0.82304
 C37 C 0.14719 0.85261 1.19084
 N38 N 0.17554 0.86662 1.17628
 C39 C 0.18983 0.85272 1.14774
 N40 N 0.17551 0.82431 1.13374
 C41 C 0.14714 0.80994 1.14780
 N42 N 0.13323 0.82421 1.17636
 C43 C 0.85244 1.14881 1.19140
 N44 N 0.82420 1.13470 1.17677
 C45 C 0.80991 1.14861 1.14825
 N46 N 0.82412 1.17713 1.13436
 C47 C 0.85237 1.19174 1.14849
 N48 N 0.86629 1.17733 1.17701
 N49 N 0.53620 1.06047 0.96321
 N50 N 0.56431 1.07910 0.96129
 N51 N 0.46401 1.03663 0.93953
 N52 N 0.43586 1.03844 0.92091
 N53 N 0.46400 1.06041 0.96329
 N54 N 0.43584 1.07900 0.96145
 N55 N 0.53622 1.03669 0.93945
 N56 N 0.56433 1.03854 0.92076
 C57 C 0.58151 1.06528 0.93452
 C58 C 0.41862 1.06517 0.93472
 N59 N 0.46420 0.93936 0.96345
 N60 N 0.43609 0.92074 0.96166
 N61 N 0.53635 0.96315 0.93956
 N62 N 0.56451 0.96132 0.92093
 N63 N 0.53639 0.93943 0.96339
 N64 N 0.56457 0.92086 0.96156
 N65 N 0.46414 0.96309 0.93963
 N66 N 0.43598 0.96121 0.92104
 Mn67 Mn 0.50018 0.99989 0.93907
 C68 C 0.41882 0.93450 0.93491
 C69 C 0.58176 0.93464 0.93479
 N70 N 0.46403 1.06050 1.03696
 N71 N 0.43584 1.07906 1.03883
 N72 N 0.53630 1.03684 1.06071
 N73 N 0.56447 1.03871 1.07928
 N74 N 0.53624 1.06057 1.03688
 N75 N 0.56436 1.07917 1.03864
 N76 N 0.46411 1.03678 1.06079
 N77 N 0.43599 1.03862 1.07947
 Mn78 Mn 0.50011 1.06096 1.00009
 C79 C 0.41870 1.06528 1.06564
 C80 C 0.58163 1.06540 1.06539
 N81 N 0.53647 0.93953 1.03705
 N82 N 0.56464 0.92095 1.03892
 N83 N 0.46424 0.96325 1.06088
 N84 N 0.43604 0.96148 1.07945
 N85 N 0.46427 0.93947 1.03712
 N86 N 0.43611 0.92092 1.03892
 N87 N 0.53643 0.96332 1.06081
 N88 N 0.56457 0.96150 1.07945
 Mn89 Mn 0.50034 0.93898 1.00025
 Mn90 Mn 0.50027 1.00005 1.06127
 Cl91 Cl 0.50022 0.99997 1.00017
 C92 C 0.58182 0.93478 1.06566
 C93 C 0.41885 0.93478 1.06563
 N94 N -0.03679 0.46377 -0.06072
 N95 N -0.03864 0.43562 -0.07933
 N96 N -0.06046 0.53600 -0.03690
 N97 N -0.07906 0.56416 -0.03880
 N98 N -0.03668 0.53594 -0.06069
 N99 N -0.03850 0.56404 -0.07937
 N100 N -0.06057 0.46382 -0.03693
 N101 N -0.07920 0.43573 -0.03876
 C102 C -0.06540 0.41848 -0.06550
 C103 C -0.06522 0.58131 -0.06559
 N104 N -0.03679 0.53587 0.06058
 N105 N -0.03861 0.56400 0.07922
 N106 N -0.06062 0.46374 0.03674
 N107 N -0.07924 0.43563 0.03860
 N108 N -0.03688 0.46371 0.06056
 N109 N -0.03875 0.43560 0.07921
 N110 N -0.06053 0.53592 0.03677
 N111 N -0.07910 0.56409 0.03861
 Mn112 Mn -0.06102 0.49987 -0.00008
 C113 C -0.06531 0.58126 0.06538
 C114 C -0.06547 0.41842 0.06539
 N115 N 0.03689 0.53579 -0.06063
 N116 N 0.03876 0.56400 -0.07914
 N117 N 0.06051 0.46351 -0.03688
 N118 N 0.07909 0.43534 -0.03876
 N119 N 0.03677 0.46360 -0.06069
 N120 N 0.03860 0.43550 -0.07937
 N121 N 0.06064 0.53567 -0.03683
 N122 N 0.07927 0.56376 -0.03857
 Mn123 Mn 0.00005 0.49978 -0.06115
 C124 C 0.06550 0.58110 -0.06526
 C125 C 0.06529 0.41821 -0.06556
 N126 N 0.03668 0.46352 0.06057
 N127 N 0.03846 0.43534 0.07914
 N128 N 0.06056 0.53566 0.03683
 N129 N 0.07913 0.56380 0.03865
 N130 N 0.03677 0.53569 0.06061
 N131 N 0.03857 0.56384 0.07921
 N132 N 0.06046 0.46349 0.03678
 N133 N 0.07901 0.43532 0.03858
 Mn134 Mn -0.00005 0.49970 0.06105
 Mn135 Mn 0.06101 0.49958 -0.00002
 Cl136 Cl -0.00001 0.49973 -0.00005
 C137 C 0.06517 0.41810 0.06530
 C138 C 0.06528 0.58103 0.06538
 N139 N 0.96327 -0.06041 0.53604
 N140 N 0.96144 -0.07909 0.56417
 N141 N 0.93950 -0.03660 0.46379
 N142 N 0.92086 -0.03845 0.43564
 N143 N 0.96329 -0.06035 0.46376
 N144 N 0.96143 -0.07895 0.43557
 N145 N 0.93948 -0.03666 0.53611
 N146 N 0.92088 -0.03858 0.56430
 C147 C 0.93472 -0.06534 0.58146
 C148 C 0.93467 -0.06515 0.41838
 N149 N 0.96317 0.06069 0.46384
 N150 N 0.96134 0.07934 0.43569
 N151 N 0.93939 0.03688 0.53610
 N152 N 0.92074 0.03869 0.56426
 N153 N 0.96312 0.06064 0.53614
 N154 N 0.96122 0.07921 0.56434
 N155 N 0.93943 0.03693 0.46379
 N156 N 0.92086 0.03882 0.43559
 Mn157 Mn 0.93898 0.00014 0.49995
 C158 C 0.93466 0.06556 0.41841
 C159 C 0.93449 0.06539 0.58154
 N160 N 1.03685 -0.06034 0.46379
 N161 N 1.03867 -0.07890 0.43559
 N162 N 1.06056 -0.03661 0.53608
 N163 N 1.07912 -0.03839 0.56428
 N164 N 1.03682 -0.06037 0.53609
 N165 N 1.03864 -0.07890 0.56433
 N166 N 1.06059 -0.03658 0.46379
 N167 N 1.07916 -0.03839 0.43557
 Mn168 Mn 1.00006 -0.06083 0.49992
 C169 C 1.06535 -0.06508 0.41833
 C170 C 1.06533 -0.06506 0.58156
 N171 N 1.03669 0.06067 0.53613
 N172 N 1.03851 0.07930 0.56429
 N173 N 1.06054 0.03694 0.46386
 N174 N 1.07918 0.03876 0.43571
 N175 N 1.03674 0.06069 0.46382
 N176 N 1.03860 0.07925 0.43560
 N177 N 1.06047 0.03692 0.53615
 N178 N 1.07907 0.03879 0.56433
 Mn179 Mn 0.99993 0.06114 0.49998
 Mn180 Mn 1.06100 0.00017 0.49997
 Cl181 Cl 0.99999 0.00015 0.49996
 C182 C 1.06523 0.06552 0.58154
 C183 C 1.06538 0.06543 0.41842
 C184 C 1.11027 0.10944 0.28507
 C185 C 1.13836 0.09319 0.26962
 C186 C 1.15047 0.10525 0.23800
 C187 C 1.13490 0.13366 0.22182
 C188 C 1.10608 0.14902 0.23753
 C189 C 1.09382 0.13711 0.26913
 C190 C 1.09826 0.09766 0.31892
 C191 C 1.07052 0.11432 0.33466
 C192 C 1.05975 0.10358 0.36722
 C193 C 1.07662 0.07650 0.38402
 C194 C 1.10411 0.05979 0.36768
 C195 C 1.11509 0.07034 0.33513
 C196 C 1.06579 0.15277 0.28543
 C197 C 1.05434 0.14157 0.31764
 C198 C 1.15420 0.06556 0.28640
 C199 C 1.14276 0.05434 0.31861
 H200 H 1.05279 0.17410 0.27335
 H201 H 1.03286 0.15456 0.32947
 H202 H 1.17584 0.05273 0.27471
 H203 H 1.15591 0.03319 0.33082
 H204 H 1.17247 0.09282 0.22648
 H205 H 1.09347 0.17070 0.22563
 H206 H 1.03840 0.11640 0.37951
 H207 H 1.11707 0.03876 0.38033
 C208 C 0.88981 -0.10965 0.28521
 C209 C 0.86183 -0.09336 0.26963
 C210 C 0.84972 -0.10554 0.23807
 C211 C 0.86520 -0.13410 0.22206
 C212 C 0.89391 -0.14950 0.23788
 C213 C 0.90617 -0.13749 0.26944
 C214 C 0.90182 -0.09774 0.31901
 C215 C 0.92945 -0.11443 0.33486
 C216 C 0.94021 -0.10356 0.36737
 C217 C 0.92343 -0.07631 0.38401
 C218 C 0.89605 -0.05957 0.36755
 C219 C 0.88508 -0.07025 0.33505
 C220 C 0.93409 -0.15318 0.28587
 C221 C 0.94553 -0.14185 0.31803
 C222 C 0.84608 -0.06557 0.28624
 C223 C 0.85752 -0.05421 0.31839
 H224 H 0.94701 -0.17464 0.27392
 H225 H 0.96692 -0.15489 0.32995
 H226 H 0.82452 -0.05270 0.27445
 H227 H 0.84445 -0.03292 0.33046
 H228 H 0.82781 -0.09306 0.22645
 H229 H 0.90645 -0.17130 0.22612
 H230 H 0.96148 -0.11641 0.37976
 H231 H 0.88316 -0.03841 0.38008
 C232 C 0.88953 0.10970 0.71479
 C233 C 0.86151 0.09345 0.73032
 C234 C 0.84937 0.10560 0.76189
 C235 C 0.86484 0.13409 0.77797
 C236 C 0.89360 0.14944 0.76220
 C237 C 0.90589 0.13746 0.73062
 C238 C 0.90156 0.09783 0.68097
 C239 C 0.92923 0.11448 0.66517
 C240 C 0.94002 0.10366 0.63263
 C241 C 0.92323 0.07650 0.61593
 C242 C 0.89582 0.05979 0.63234
 C243 C 0.88482 0.07041 0.66487
 C244 C 0.93385 0.15311 0.71425
 C245 C 0.94532 0.14182 0.68208
 C246 C 0.84576 0.06573 0.71364
 C247 C 0.85722 0.05441 0.68147
 H248 H 0.94677 0.17451 0.72626
 H249 H 0.96675 0.15481 0.67020
 H250 H 0.82417 0.05289 0.72540
 H251 H 0.84416 0.03319 0.66935
 H252 H 0.82742 0.09316 0.77348
 H253 H 0.90614 0.17119 0.77401
 H254 H 0.96130 0.11649 0.62029
 H255 H 0.88292 0.03869 0.61976
 C256 C 1.10968 -0.10883 0.71514
 C257 C 1.13767 -0.09253 0.73069
 C258 C 1.14965 -0.10457 0.76236
 C259 C 1.13399 -0.13288 0.77839
 C260 C 1.10541 -0.14838 0.76269
 C261 C 1.09324 -0.13654 0.73103
 C262 C 1.09781 -0.09712 0.68122
 C263 C 1.07022 -0.11384 0.66538
 C264 C 1.05958 -0.10316 0.63276
 C265 C 1.07645 -0.07607 0.61601
 C266 C 1.10381 -0.05931 0.63244
 C267 C 1.11465 -0.06980 0.66505
 C268 C 1.06536 -0.15227 0.71462
 C269 C 1.05404 -0.14111 0.68235
 C270 C 1.15352 -0.06492 0.71394
 C271 C 1.14220 -0.05375 0.68167
 H272 H 1.05239 -0.17362 0.72667
 H273 H 1.03268 -0.15416 0.67043
 H274 H 1.17508 -0.05206 0.72571
 H275 H 1.15535 -0.03260 0.66949
 H276 H 1.17158 -0.09231 0.77411
 H277 H 1.09302 -0.17010 0.77470
 H278 H 1.03834 -0.11602 0.62039
 H279 H 1.11677 -0.03827 0.61982
 C280 C 0.28545 1.10949 1.11035
 C281 C 0.26959 1.13720 1.09387
 C282 C 0.23798 1.14912 1.10605
 C283 C 0.22219 1.13375 1.13482
 C284 C 0.23830 1.10531 1.15043
 C285 C 0.26992 1.09324 1.13841
 C286 C 0.31929 1.09768 1.09841
 C287 C 0.33541 1.07031 1.11527
 C288 C 0.36794 1.05972 1.10435
 C289 C 0.38433 1.07640 1.07688
 C290 C 0.36762 1.10353 1.05999
 C291 C 0.33509 1.11432 1.07071
 C292 C 0.28662 1.06559 1.15429
 C293 C 0.31882 1.05433 1.14292
 C294 C 0.28597 1.15285 1.06588
 C295 C 0.31816 1.14161 1.05450
 H296 H 0.27487 1.05275 1.17591
 H297 H 0.33096 1.03316 1.15610
 H298 H 0.27396 1.17421 1.05286
 H299 H 0.33005 1.15461 1.03306
 H300 H 0.22615 1.17081 1.09341
 H301 H 0.22671 1.09287 1.17239
 H302 H 0.38052 1.03865 1.11733
 H303 H 0.37995 1.11634 1.03866
 C304 C 0.28556 0.89014 0.89072
 C305 C 0.26977 0.90659 0.86293
 C306 C 0.23814 0.89451 0.85102
 C307 C 0.22227 0.86589 0.86650
 C308 C 0.23833 0.85031 0.89501
 C309 C 0.26996 0.86223 0.90707
 C310 C 0.31941 0.90198 0.90252
 C311 C 0.33548 0.88516 0.92997
 C312 C 0.36801 0.89599 0.94057
 C313 C 0.38446 0.92333 0.92380
 C314 C 0.36781 0.94018 0.89658
 C315 C 0.33528 0.92955 0.88579
 C316 C 0.28661 0.84639 0.93480
 C317 C 0.31881 0.85765 0.94605
 C318 C 0.28622 0.93444 0.84717
 C319 C 0.31842 0.94572 0.85841
 H320 H 0.27479 0.82487 0.94771
 H321 H 0.33091 0.84450 0.96728
 H322 H 0.27425 0.94742 0.82575
 H323 H 0.33036 0.96706 0.84534
 H324 H 0.22635 0.90711 0.82926
 H325 H 0.22668 0.82846 0.90753
 H326 H 0.38055 0.88305 0.96170
 H327 H 0.38020 0.96141 0.88370
 C328 C 0.71494 0.89032 1.11042
 C329 C 0.73070 0.86250 1.09402
 C330 C 0.76225 0.85049 1.10625
 C331 C 0.77808 0.86588 1.13497
 C332 C 0.76207 0.89443 1.15049
 C333 C 0.73051 0.90660 1.13841
 C334 C 0.68115 0.90222 1.09844
 C335 C 0.66511 0.92970 1.11522
 C336 C 0.63262 0.94036 1.10428
 C337 C 0.61617 0.92364 1.07688
 C338 C 0.63280 0.89640 1.06007
 C339 C 0.66530 0.88555 1.07080
 C340 C 0.71391 0.93437 1.15420
 C341 C 0.68176 0.94572 1.14280
 C342 C 0.71428 0.84682 1.06608
 C343 C 0.68213 0.85814 1.05467
 H344 H 0.72570 0.94723 1.17577
 H345 H 0.66969 0.96698 1.15590
 H346 H 0.72622 0.82538 1.05314
 H347 H 0.67021 0.84512 1.03327
 H348 H 0.77401 0.82871 1.09368
 H349 H 0.77369 0.90690 1.17241
 H350 H 0.62010 0.96151 1.11720
 H351 H 0.62043 0.88356 1.03879
 C352 C 0.71452 1.10981 0.88962
 C353 C 0.73012 1.09352 0.86161
 C354 C 0.76166 1.10568 0.84953
 C355 C 0.77764 1.13422 0.86503
 C356 C 0.76177 1.14962 0.89376
 C357 C 0.73023 1.13763 0.90600
 C358 C 0.68075 1.09790 0.90162
 C359 C 0.66487 1.11458 0.92927
 C360 C 0.63240 1.10371 0.94004
 C361 C 0.61583 1.07646 0.92325
 C362 C 0.63230 1.05974 0.89583
 C363 C 0.66477 1.07042 0.88486
 C364 C 0.71378 1.15332 0.93394
 C365 C 0.68165 1.14199 0.94538
 C366 C 0.71357 1.06575 0.84585
 C367 C 0.68145 1.05439 0.85727
 H368 H 0.72568 1.17476 0.94688
 H369 H 0.66971 1.15501 0.96678
 H370 H 0.72538 1.05288 0.82427
 H371 H 0.66942 1.03312 0.84419
 H372 H 0.77331 1.09320 0.82761
 H373 H 0.77350 1.17140 0.90632
 H374 H 0.62000 1.11655 0.96132
 H375 H 0.61983 1.03859 0.88293
 C376 C 0.10952 0.28481 0.10939
 C377 C 0.13748 0.26920 0.09303
 C378 C 0.14949 0.23762 0.10516
 C379 C 0.13389 0.22173 0.13363
 C380 C 0.10532 0.23747 0.14919
 C381 C 0.09312 0.26905 0.13725
 C382 C 0.09764 0.31864 0.09759
 C383 C 0.07007 0.33454 0.11436
 C384 C 0.05943 0.36708 0.10359
 C385 C 0.07627 0.38371 0.07637
 C386 C 0.10360 0.36722 0.05955
 C387 C 0.11445 0.33468 0.07012
 C388 C 0.06527 0.28551 0.15303
 C389 C 0.05394 0.31771 0.14178
 C390 C 0.15330 0.28581 0.06528
 C391 C 0.14197 0.31800 0.05402
 H392 H 0.05233 0.27358 0.17449
 H393 H 0.03260 0.32967 0.15487
 H394 H 0.17484 0.27399 0.05237
 H395 H 0.15509 0.33008 0.03276
 H396 H 0.17140 0.22583 0.09286
 H397 H 0.09297 0.22557 0.17102
 H398 H 0.03821 0.37950 0.11650
 H399 H 0.11654 0.37974 0.03841
 C400 C -0.10996 0.28537 -0.10976
 C401 C -0.09356 0.26959 -0.13761
 C402 C -0.10576 0.23803 -0.14955
 C403 C -0.13433 0.22234 -0.13400
 C404 C -0.14995 0.23827 -0.10555
 C405 C -0.13794 0.26983 -0.09341
 C406 C -0.09804 0.31916 -0.09792
 C407 C -0.11484 0.33523 -0.07045
 C408 C -0.10395 0.36772 -0.05984
 C409 C -0.07658 0.38414 -0.07662
 C410 C -0.05976 0.36749 -0.10386
 C411 C -0.07044 0.33499 -0.11467
 C412 C -0.15374 0.28646 -0.06566
 C413 C -0.14238 0.31861 -0.05437
 C414 C -0.06568 0.28598 -0.15337
 C415 C -0.05431 0.31814 -0.14209
 H416 H -0.17530 0.27469 -0.05276
 H417 H -0.15550 0.33071 -0.03310
 H418 H -0.05274 0.27402 -0.17483
 H419 H -0.03295 0.33005 -0.15516
 H420 H -0.09339 0.22610 -0.17137
 H421 H -0.17186 0.22652 -0.09325
 H422 H -0.11687 0.38026 -0.03869
 H423 H -0.03851 0.37985 -0.11675
 C424 C 0.10993 0.71451 -0.10871
 C425 C 0.09337 0.73055 -0.13631
 C426 C 0.10551 0.76221 -0.14804
 C427 C 0.13418 0.77775 -0.13255
 C428 C 0.14998 0.76156 -0.10436
 C429 C 0.13802 0.72989 -0.09242
 C430 C 0.09807 0.68062 -0.09710
 C431 C 0.11502 0.66430 -0.06989
 C432 C 0.10416 0.63174 -0.05948
 C433 C 0.07667 0.61549 -0.07621
 C434 C 0.05971 0.63237 -0.10321
 C435 C 0.07036 0.66496 -0.11380
 C436 C 0.15400 0.71299 -0.06493
 C437 C 0.14269 0.68075 -0.05386
 C438 C 0.06539 0.71431 -0.15203
 C439 C 0.05408 0.68206 -0.14096
 H440 H 0.17564 0.72463 -0.05209
 H441 H 0.15594 0.66844 -0.03281
 H442 H 0.05233 0.72648 -0.17329
 H443 H 0.03263 0.67028 -0.15400
 H444 H 0.09301 0.77434 -0.16967
 H445 H 0.17198 0.77319 -0.09211
 H446 H 0.11719 0.61901 -0.03852
 H447 H 0.03838 0.62014 -0.11605
 C448 C -0.10966 0.71447 0.10978
 C449 C -0.09335 0.73011 0.13775
 C450 C -0.10550 0.76171 0.14971
 C451 C -0.13394 0.77758 0.13406
 C452 C -0.14947 0.76180 0.10551
 C453 C -0.13750 0.73020 0.09335
 C454 C -0.09780 0.68065 0.09792
 C455 C -0.11451 0.66474 0.07033
 C456 C -0.10367 0.63222 0.05969
 C457 C -0.07644 0.61562 0.07654
 C458 C -0.05970 0.63212 0.10390
 C459 C -0.07034 0.66464 0.11475
 C460 C -0.15323 0.71371 0.06549
 C461 C -0.14192 0.68153 0.05417
 C462 C -0.06561 0.71353 0.15360
 C463 C -0.05431 0.68134 0.14229
 H464 H -0.17467 0.72563 0.05253
 H465 H -0.15496 0.66955 0.03282
 H466 H -0.05275 0.72537 0.17515
 H467 H -0.03306 0.66929 0.15544
 H468 H -0.09322 0.77352 0.17161
 H469 H -0.17128 0.77368 0.09313
 H470 H -0.11653 0.61979 0.03845
 H471 H -0.03856 0.61962 0.11685
 C472 C 1.10965 0.11033 0.71476
 C473 C 1.13748 0.09396 0.73053
 C474 C 1.14947 0.10620 0.76211
 C475 C 1.13407 0.13491 0.77793
 C476 C 1.10551 0.15040 0.76191
 C477 C 1.09335 0.13831 0.73033
 C478 C 1.09776 0.09834 0.68095
 C479 C 1.07027 0.11508 0.66490
 C480 C 1.05962 0.10412 0.63238
 C481 C 1.07637 0.07675 0.61592
 C482 C 1.10361 0.05996 0.63257
 C483 C 1.11446 0.07071 0.66509
 C484 C 1.06557 0.15405 0.71372
 C485 C 1.05423 0.14263 0.68155
 C486 C 1.15318 0.06604 0.71411
 C487 C 1.14187 0.05462 0.68194
 H488 H 1.05269 0.17562 0.72551
 H489 H 1.03295 0.15570 0.66948
 H490 H 1.17463 0.05312 0.72606
 H491 H 1.15491 0.03324 0.67001
 H492 H 1.17127 0.09366 0.77388
 H493 H 1.09304 0.17231 0.77353
 H494 H 1.03847 0.11702 0.61985
 H495 H 1.11647 0.03870 0.62018
 C496 C 0.89046 -0.11052 0.71464
 C497 C 0.86275 -0.09411 0.73058
 C498 C 0.85080 -0.10642 0.76215
 C499 C 0.86614 -0.13526 0.77782
 C500 C 0.89458 -0.15080 0.76163
 C501 C 0.90669 -0.13863 0.73005
 C502 C 0.90230 -0.09844 0.68084
 C503 C 0.92967 -0.11523 0.66462
 C504 C 0.94028 -0.10418 0.63212
 C505 C 0.92360 -0.07666 0.61582
 C506 C 0.89647 -0.05983 0.63263
 C507 C 0.88567 -0.07067 0.66515
 C508 C 0.93435 -0.15443 0.71326
 C509 C 0.94564 -0.14293 0.68110
 C510 C 0.84712 -0.06605 0.71433
 C511 C 0.85838 -0.05453 0.68217
 H512 H 0.94718 -0.17610 0.72492
 H513 H 0.96682 -0.15604 0.66889
 H514 H 0.82576 -0.05309 0.72642
 H515 H 0.84541 -0.03304 0.67038
 H516 H 0.82910 -0.09383 0.77405
 H517 H 0.90700 -0.17280 0.77312
 H518 H 0.96134 -0.11711 0.61946
 H519 H 0.88367 -0.03847 0.62037
 C520 C 1.10939 -0.10940 0.28478
 C521 C 1.09303 -0.13728 0.26914
 C522 C 1.10509 -0.14926 0.23748
 C523 C 1.13363 -0.13378 0.22143
 C524 C 1.14909 -0.10517 0.23732
 C525 C 1.13718 -0.09303 0.26898
 C526 C 1.09761 -0.09754 0.31869
 C527 C 1.11437 -0.07002 0.33461
 C528 C 1.10362 -0.05939 0.36722
 C529 C 1.07642 -0.07619 0.38388
 C530 C 1.05962 -0.10347 0.36737
 C531 C 1.07017 -0.11430 0.33477
 C532 C 1.15295 -0.06522 0.28547
 C533 C 1.14173 -0.05391 0.31773
 C534 C 1.06529 -0.15304 0.28579
 C535 C 1.05406 -0.14175 0.31805
 H536 H 1.17437 -0.05229 0.27350
 H537 H 1.15481 -0.03261 0.32971
 H538 H 1.05237 -0.17452 0.27395
 H539 H 1.03282 -0.15483 0.33015
 H540 H 1.09258 -0.17109 0.22581
 H541 H 1.17086 -0.09264 0.22553
 H542 H 1.11651 -0.03821 0.37965
 H543 H 1.03850 -0.11637 0.37992
 C544 C 0.89040 0.11049 0.28515
 C545 C 0.86267 0.09410 0.26928
 C546 C 0.85071 0.10636 0.23769
 C547 C 0.86605 0.13513 0.22194
 C548 C 0.89451 0.15065 0.23806
 C549 C 0.90663 0.13853 0.26965
 C550 C 0.90224 0.09847 0.31897
 C551 C 0.92962 0.11524 0.33512
 C552 C 0.94023 0.10426 0.36764
 C553 C 0.92355 0.07682 0.38402
 C554 C 0.89641 0.06001 0.36728
 C555 C 0.88561 0.07078 0.33475
 C556 C 0.93430 0.15431 0.28637
 C557 C 0.94560 0.14287 0.31855
 C558 C 0.84704 0.06612 0.28561
 C559 C 0.85831 0.05466 0.31780
 H560 H 0.94713 0.17592 0.27464
 H561 H 0.96680 0.15596 0.33070
 H562 H 0.82567 0.05317 0.27358
 H563 H 0.84533 0.03322 0.32965
 H564 H 0.82900 0.09379 0.22585
 H565 H 0.90693 0.17260 0.22650
 H566 H 0.96130 0.11718 0.38025
 H567 H 0.88361 0.03870 0.37960
 C568 C 0.10969 0.28513 -0.11038
 C569 C 0.09341 0.26959 -0.13840
 C570 C 0.10556 0.23803 -0.15048
 C571 C 0.13409 0.22200 -0.13496
 C572 C 0.14948 0.23780 -0.10622
 C573 C 0.13749 0.26935 -0.09399
 C574 C 0.09781 0.31892 -0.09840
 C575 C 0.11449 0.33474 -0.07074
 C576 C 0.10364 0.36722 -0.05999
 C577 C 0.07642 0.38388 -0.07680
 C578 C 0.05970 0.36746 -0.10422
 C579 C 0.07035 0.33497 -0.11518
 C580 C 0.15318 0.28574 -0.06603
 C581 C 0.14187 0.31788 -0.05461
 C582 C 0.06565 0.28622 -0.15418
 C583 C 0.05432 0.31836 -0.14277
 H584 H 0.17461 0.27378 -0.05308
 H585 H 0.15490 0.32978 -0.03320
 H586 H 0.05279 0.27445 -0.17577
 H587 H 0.03307 0.33044 -0.15587
 H588 H 0.09309 0.22644 -0.17241
 H589 H 0.17126 0.22602 -0.09365
 H590 H 0.11648 0.37957 -0.03870
 H591 H 0.03856 0.38000 -0.11714
 C592 C -0.10978 0.28540 0.11026
 C593 C -0.13754 0.26961 0.09384
 C594 C -0.14948 0.23806 0.10608
 C595 C -0.13408 0.22226 0.13484
 C596 C -0.10560 0.23831 0.15038
 C597 C -0.09350 0.26986 0.13830
 C598 C -0.09794 0.31917 0.09826
 C599 C -0.07052 0.33523 0.11506
 C600 C -0.05991 0.36769 0.10409
 C601 C -0.07662 0.38411 0.07664
 C602 C -0.10380 0.36746 0.05980
 C603 C -0.11461 0.33498 0.07057
 C604 C -0.06579 0.28649 0.15410
 C605 C -0.05450 0.31862 0.14268
 C606 C -0.15323 0.28599 0.06586
 C607 C -0.14196 0.31812 0.05443
 H608 H -0.05293 0.27473 0.17571
 H609 H -0.03328 0.33072 0.15580
 H610 H -0.17462 0.27402 0.05290
 H611 H -0.15497 0.33001 0.03299
 H612 H -0.17122 0.22627 0.09349
 H613 H -0.09313 0.22672 0.17233
 H614 H -0.03880 0.38022 0.11702
 H615 H -0.11663 0.37981 0.03849
 C616 C -0.10960 0.71435 -0.11057
 C617 C -0.13734 0.73020 -0.09412
 C618 C -0.14930 0.76176 -0.10636
 C619 C -0.13393 0.77751 -0.13516
 C620 C -0.10546 0.76140 -0.15074
 C621 C -0.09335 0.72983 -0.13865
 C622 C -0.09774 0.68057 -0.09855
 C623 C -0.07032 0.66445 -0.11537
 C624 C -0.05968 0.63198 -0.10437
 C625 C -0.07637 0.61563 -0.07687
 C626 C -0.10354 0.63234 -0.06003
 C627 C -0.11438 0.66482 -0.07082
 C628 C -0.06565 0.71314 -0.15448
 C629 C -0.05434 0.68100 -0.14304
 C630 C -0.15300 0.71387 -0.06610
 C631 C -0.14172 0.68173 -0.05465
 H632 H -0.05281 0.72486 -0.17612
 H633 H -0.03313 0.66886 -0.15618
 H634 H -0.17439 0.72588 -0.05312
 H635 H -0.15471 0.66988 -0.03319
 H636 H -0.17103 0.77359 -0.09375
 H637 H -0.09302 0.77296 -0.17272
 H638 H -0.03858 0.61940 -0.11732
 H639 H -0.11636 0.62004 -0.03868
 C640 C 0.10901 0.71448 0.10944
 C641 C 0.09257 0.73016 0.13733
 C642 C 0.10454 0.76184 0.14919
 C643 C 0.13291 0.77776 0.13351
 C644 C 0.14857 0.76192 0.10503
 C645 C 0.13680 0.73024 0.09298
 C646 C 0.09734 0.68058 0.09768
 C647 C 0.11418 0.66462 0.07017
 C648 C 0.10351 0.63203 0.05961
 C649 C 0.07631 0.61543 0.07648
 C650 C 0.05946 0.63196 0.10377
 C651 C 0.06993 0.66455 0.11453
 C652 C 0.15266 0.71370 0.06520
 C653 C 0.14154 0.68144 0.05399
 C654 C 0.06489 0.71355 0.15321
 C655 C 0.05376 0.68129 0.14200
 H656 H 0.17408 0.72564 0.05222
 H657 H 0.15470 0.66942 0.03271
 H658 H 0.05193 0.72542 0.17470
 H659 H 0.03255 0.66921 0.15516
 H660 H 0.09216 0.77370 0.17104
 H661 H 0.17034 0.77383 0.09262
 H662 H 0.11646 0.61958 0.03842
 H663 H 0.03834 0.61946 0.11673
 C664 C 0.28542 1.10962 0.89030
 C665 C 0.26974 1.09328 0.86238
 C666 C 0.23816 1.10546 0.85040
 C667 C 0.22233 1.13396 0.86599
 C668 C 0.23816 1.14952 0.89450
 C669 C 0.26974 1.13753 0.90667
 C670 C 0.31923 1.09773 0.90218
 C671 C 0.33519 1.11448 0.92972
 C672 C 0.36771 1.10361 0.94037
 C673 C 0.38426 1.07632 0.92356
 C674 C 0.36771 1.05954 0.89626
 C675 C 0.33519 1.07021 0.88541
 C676 C 0.28628 1.15329 0.93449
 C677 C 0.31845 1.14195 0.94582
 C678 C 0.28627 1.06548 0.84659
 C679 C 0.31844 1.05414 0.85792
 H680 H 0.27441 1.17479 0.94741
 H681 H 0.33047 1.15503 0.96713
 H682 H 0.27439 1.05259 0.82508
 H683 H 0.33046 1.03284 0.84482
 H684 H 0.22631 1.09315 0.82853
 H685 H 0.22632 1.17138 0.90684
 H686 H 0.38017 1.11650 0.96156
 H687 H 0.38017 1.03836 0.88335
 C688 C 0.28528 0.89100 1.10942
 C689 C 0.26960 0.86317 1.09299
 C690 C 0.23791 0.85135 1.10500
 C691 C 0.22198 0.86701 1.13342
 C692 C 0.23780 0.89544 1.14907
 C693 C 0.26949 0.90745 1.13725
 C694 C 0.31921 0.90270 1.09773
 C695 C 0.33516 0.93015 1.11456
 C696 C 0.36778 0.94064 1.10387
 C697 C 0.38442 0.92376 1.07666
 C698 C 0.36789 0.89654 1.05980
 C699 C 0.33527 0.88585 1.07029
 C700 C 0.28602 0.93518 1.15311
 C701 C 0.31831 0.94633 1.14195
 C702 C 0.28625 0.84729 1.06527
 C703 C 0.31854 0.85845 1.05412
 H704 H 0.27406 0.94815 1.17454
 H705 H 0.33032 0.96757 1.15510
 H706 H 0.27438 0.82585 1.05231
 H707 H 0.33064 0.84528 1.03289
 H708 H 0.22607 0.82954 1.09263
 H709 H 0.22587 0.90783 1.17087
 H710 H 0.38023 0.96178 1.11682
 H711 H 0.38043 0.88357 1.03867
 C712 C 0.71484 1.10982 1.10955
 C713 C 0.73060 1.09344 1.13742
 C714 C 0.76217 1.10563 1.14937
 C715 C 0.77790 1.13416 1.13381
 C716 C 0.76200 1.14976 1.10534
 C717 C 0.73042 1.13776 1.09319
 C718 C 0.68103 1.09794 1.09773
 C719 C 0.66498 1.11472 1.07024
 C720 C 0.63246 1.10387 1.05965
 C721 C 0.61600 1.07656 1.07646
 C722 C 0.63264 1.05974 1.10371
 C723 C 0.66516 1.07039 1.11450
 C724 C 0.71381 1.15355 1.06542
 C725 C 0.68164 1.14222 1.05414
 C726 C 0.71417 1.06561 1.15320
 C727 C 0.68200 1.05428 1.14193
 H728 H 0.72561 1.17507 1.05252
 H729 H 0.66955 1.15532 1.03287
 H730 H 0.72611 1.05269 1.17467
 H731 H 0.67005 1.03295 1.15501
 H732 H 0.77408 1.09329 1.17121
 H733 H 0.77377 1.17164 1.09302
 H734 H 0.61992 1.11678 1.03849
 H735 H 0.62025 1.03854 1.11662
 C736 C 0.71499 0.89016 0.89041
 C737 C 0.73070 0.90651 0.86251
 C738 C 0.76227 0.89430 0.85051
 C739 C 0.77804 0.86575 0.86605
 C740 C 0.76218 0.85018 0.89455
 C741 C 0.73061 0.86221 0.90675
 C742 C 0.68117 0.90207 0.90229
 C743 C 0.66517 0.88531 0.92980
 C744 C 0.63265 0.89618 0.94044
 C745 C 0.61614 0.92349 0.92365
 C746 C 0.63273 0.94030 0.89638
 C747 C 0.66526 0.92963 0.88554
 C748 C 0.71404 0.84644 0.93455
 C749 C 0.68187 0.85780 0.94588
 C750 C 0.71422 0.93436 0.84675
 C751 C 0.68205 0.94572 0.85808
 H752 H 0.72588 0.82491 0.94744
 H753 H 0.66982 0.84471 0.96718
 H754 H 0.72613 0.94727 0.82526
 H755 H 0.67008 0.96706 0.84501
 H756 H 0.77415 0.90662 0.82864
 H757 H 0.77399 0.82829 0.90685
 H758 H 0.62015 0.88327 0.96162
 H759 H 0.62030 0.96150 0.88348
   
