data_POSCAR
  _audit_creation_date              2014-09-24
  _audit_creation_method            'ToBaCCo'
  _symmetry_space_group_name_H-M    'P1'
  _symmetry_Int_Tables_number       1
  _symmetry_cell_setting            triclinic
  loop_
  _symmetry_equiv_pos_as_xyz
 x,y,z
_cell_length_a 25.3025
_cell_length_b 25.3019
_cell_length_c 25.2779
_cell_angle_alpha 89.939400
_cell_angle_beta 90.179300
_cell_angle_gamma 90.000000
loop_
  _atom_site_label
  _atom_site_type_symbol
  _atom_site_fract_x
  _atom_site_fract_y
  _atom_site_fract_z
O1 O -0.13667 0.07138 0.00121
 O2 O 0.13543 0.07143 -0.00217
 O3 O -0.00237 0.13592 0.07099
 O4 O 0.00103 0.13615 -0.07225
 O5 O 0.00093 0.07169 -0.13681
 O6 O -0.00229 0.07132 0.13565
 O7 O 0.07092 0.13602 -0.00229
 O8 O -0.07211 0.13593 0.00127
 Zr9 Zr -0.00061 0.09299 -0.00060
 O10 O 0.04726 0.04797 -0.04852
 O11 O -0.04846 0.04777 0.04733
 C12 C -0.12080 0.12008 0.00220
 C13 C 0.11965 0.12018 -0.00310
 C14 C -0.00323 0.12005 0.11977
 C15 C 0.00185 0.12046 -0.12108
 H16 H 0.06974 0.07013 0.06992
 O17 O 0.04712 0.04760 0.04733
 H18 H -0.07108 0.07029 -0.07100
 O19 O -0.04850 0.04771 -0.04838
 O20 O 0.13527 -0.07157 0.00159
 O21 O -0.13687 -0.07169 -0.00241
 O22 O 0.07104 -0.00215 0.13574
 O23 O 0.07068 0.00177 -0.13665
 O24 O -0.07237 -0.00182 -0.13677
 O25 O -0.07195 0.00177 0.13559
 O26 O 0.00112 -0.13632 0.07142
 O27 O -0.00282 -0.13603 -0.07185
 O28 O 0.00127 -0.07181 0.13592
 O29 O -0.00281 -0.07143 -0.13653
 O30 O 0.13545 -0.00203 0.07117
 O31 O -0.13661 0.00180 0.07087
 O32 O -0.13679 -0.00198 -0.07228
 O33 O 0.13530 0.00167 -0.07192
 O34 O 0.07071 -0.13614 0.00168
 O35 O -0.07239 -0.13624 -0.00219
 Zr36 Zr 0.09232 -0.00007 -0.00041
 Zr37 Zr -0.09372 -0.00014 -0.00063
 Zr38 Zr -0.00054 -0.00021 0.09267
 Zr39 Zr -0.00080 0.00007 -0.09364
 Zr40 Zr -0.00081 -0.09318 -0.00029
 O41 O -0.04867 -0.04798 -0.04849
 O42 O 0.04731 -0.04808 0.04760
 C43 C 0.11942 -0.12028 0.00260
 C44 C -0.12117 -0.12048 -0.00317
 C45 C 0.11970 -0.00305 0.11990
 C46 C 0.11945 0.00258 -0.12074
 C47 C -0.12107 -0.00284 -0.12103
 C48 C -0.12068 0.00274 0.11965
 C49 C 0.00209 -0.12061 0.12025
 C50 C -0.00377 -0.12013 -0.12060
 H51 H -0.07096 -0.07046 0.06992
 O52 O -0.04844 -0.04791 0.04736
 H53 H 0.06939 -0.07034 -0.07064
 O54 O 0.04686 -0.04780 -0.04811
 O55 O 0.36410 0.57217 0.00211
 O56 O 0.63628 0.57232 -0.00116
 O57 O 0.49844 0.63678 0.07222
 O58 O 0.50205 0.63664 -0.07093
 O59 O 0.50187 0.57211 -0.13554
 O60 O 0.49851 0.57222 0.13681
 O61 O 0.57173 0.63685 -0.00118
 O62 O 0.42868 0.63671 0.00230
 Zr63 Zr 0.50018 0.59372 0.00062
 O64 O 0.54792 0.54860 -0.04737
 O65 O 0.45222 0.54859 0.04841
 C66 C 0.37997 0.62086 0.00311
 C67 C 0.62049 0.62108 -0.00209
 C68 C 0.49760 0.62100 0.12104
 C69 C 0.50295 0.62075 -0.11963
 H70 H 0.57061 0.57101 0.07106
 O71 O 0.54801 0.54845 0.04846
 H72 H 0.42975 0.57100 -0.06995
 O73 O 0.45234 0.54843 -0.04731
 O74 O 0.63612 0.42922 0.00263
 O75 O 0.36395 0.42914 -0.00154
 O76 O 0.57188 0.49874 0.13685
 O77 O 0.57135 0.50250 -0.13560
 O78 O 0.42824 0.49898 -0.13589
 O79 O 0.42876 0.50252 0.13658
 O80 O 0.50205 0.36467 0.07208
 O81 O 0.49818 0.36458 -0.07102
 O82 O 0.50219 0.42916 0.13670
 O83 O 0.49804 0.42912 -0.13570
 O84 O 0.63630 0.49878 0.07236
 O85 O 0.36412 0.50248 0.07183
 O86 O 0.36381 0.49899 -0.07142
 O87 O 0.63604 0.50261 -0.07090
 O88 O 0.57152 0.36469 0.00254
 O89 O 0.42851 0.36460 -0.00138
 Zr90 Zr 0.59318 0.50075 0.00068
 Zr91 Zr 0.40702 0.50066 0.00030
 Zr92 Zr 0.50026 0.50071 0.09368
 Zr93 Zr 0.49989 0.50063 -0.09262
 Zr94 Zr 0.50003 0.40767 0.00051
 O95 O 0.45196 0.45269 -0.04761
 O96 O 0.54806 0.45279 0.04855
 C97 C 0.62023 0.38052 0.00353
 C98 C 0.37977 0.38040 -0.00238
 C99 C 0.62061 0.49781 0.12114
 C100 C 0.62012 0.50346 -0.11970
 C101 C 0.37947 0.49813 -0.12023
 C102 C 0.38002 0.50341 0.12063
 C103 C 0.50308 0.38048 0.12082
 C104 C 0.49722 0.38037 -0.11983
 H105 H 0.42989 0.43039 0.07077
 O106 O 0.45242 0.45297 0.04823
 H107 H 0.57026 0.43043 -0.06970
 O108 O 0.54776 0.45299 -0.04715
 O109 O -0.13634 0.57182 0.50161
 O110 O 0.13581 0.57164 0.49836
 O111 O -0.00211 0.63612 0.57137
 O112 O 0.00145 0.63642 0.42815
 O113 O 0.00140 0.57190 0.36359
 O114 O -0.00194 0.57154 0.63607
 O115 O 0.07125 0.63620 0.49809
 O116 O -0.07183 0.63634 0.50157
 Zr117 Zr -0.00027 0.59325 0.49983
 O118 O 0.04769 0.54813 0.45208
 O119 O -0.04800 0.54806 0.54788
 C120 C -0.12061 0.62061 0.50247
 C121 C 0.11995 0.62034 0.49730
 C122 C -0.00299 0.62023 0.62012
 C123 C 0.00228 0.62068 0.37933
 H124 H 0.07014 0.57043 0.57043
 O125 O 0.04755 0.54788 0.54783
 H126 H -0.07067 0.57058 0.42940
 O127 O -0.04808 0.54800 0.45202
 O128 O 0.13594 0.42862 0.50215
 O129 O -0.13620 0.42873 0.49795
 O130 O 0.07166 0.49836 0.63649
 O131 O 0.07119 0.50218 0.36397
 O132 O -0.07195 0.49838 0.36367
 O133 O -0.07148 0.50191 0.63615
 O134 O 0.00167 0.36393 0.57178
 O135 O -0.00210 0.36418 0.42854
 O136 O 0.00179 0.42840 0.63639
 O137 O -0.00222 0.42876 0.36386
 O138 O 0.13609 0.49844 0.57199
 O139 O -0.13613 0.50208 0.57143
 O140 O -0.13639 0.49838 0.42820
 O141 O 0.13580 0.50205 0.42875
 O142 O 0.07140 0.36407 0.50205
 O143 O -0.07163 0.36418 0.49809
 Zr144 Zr 0.09287 0.50014 0.50026
 Zr145 Zr -0.09325 0.50026 0.49986
 Zr146 Zr 0.00000 0.50003 0.59322
 Zr147 Zr -0.00033 0.50030 0.40682
 Zr148 Zr -0.00012 0.40712 0.50014
 O149 O -0.04813 0.45233 0.45203
 O150 O 0.04793 0.45211 0.54824
 C151 C 0.12014 0.37988 0.50300
 C152 C -0.12033 0.38003 0.49706
 C153 C 0.12040 0.49756 0.62078
 C154 C 0.11993 0.50305 0.37994
 C155 C -0.12066 0.49746 0.37944
 C156 C -0.12024 0.50292 0.62023
 C157 C 0.00259 0.37964 0.62060
 C158 C -0.00310 0.38003 0.37976
 H159 H -0.07037 0.42985 0.57032
 O160 O -0.04785 0.45242 0.54776
 H161 H 0.07001 0.42996 0.42985
 O162 O 0.04747 0.45251 0.45237
 O163 O 0.36447 0.07091 0.50166
 O164 O 0.63659 0.07089 0.49828
 O165 O 0.49882 0.13551 0.57157
 O166 O 0.50230 0.13544 0.42848
 O167 O 0.50224 0.07093 0.36387
 O168 O 0.49891 0.07096 0.63622
 O169 O 0.57199 0.13542 0.49817
 O170 O 0.42899 0.13548 0.50172
 Zr171 Zr 0.50052 0.09244 0.50004
 O172 O 0.54838 0.04731 0.45216
 O173 O 0.45263 0.04739 0.54798
 C174 C 0.38026 0.11965 0.50258
 C175 C 0.62070 0.11959 0.49728
 C176 C 0.49797 0.11970 0.62037
 C177 C 0.50320 0.11962 0.37974
 H178 H 0.57098 0.06971 0.57046
 O179 O 0.54841 0.04714 0.54785
 H180 H 0.43015 0.06971 0.42955
 O181 O 0.45277 0.04714 0.45216
 O182 O 0.63681 -0.07219 0.50203
 O183 O 0.36463 -0.07210 0.49803
 O184 O 0.57225 -0.00242 0.63631
 O185 O 0.57185 0.00142 0.36395
 O186 O 0.42888 -0.00248 0.36380
 O187 O 0.42923 0.00114 0.63616
 O188 O 0.50277 -0.13656 0.57149
 O189 O 0.49876 -0.13671 0.42832
 O190 O 0.50275 -0.07201 0.63608
 O191 O 0.49861 -0.07210 0.36372
 O192 O 0.63673 -0.00252 0.57182
 O193 O 0.36459 0.00111 0.57145
 O194 O 0.36446 -0.00246 0.42835
 O195 O 0.63653 0.00140 0.42865
 O196 O 0.57229 -0.13676 0.50187
 O197 O 0.42921 -0.13664 0.49803
 Zr198 Zr 0.59366 -0.00064 0.50016
 Zr199 Zr 0.40757 -0.00059 0.49994
 Zr200 Zr 0.50070 -0.00054 0.59313
 Zr201 Zr 0.50045 -0.00061 0.40689
 Zr202 Zr 0.50072 -0.09366 0.49993
 O203 O 0.45259 -0.04853 0.45199
 O204 O 0.54859 -0.04853 0.54807
 C205 C 0.62105 -0.12096 0.50286
 C206 C 0.38049 -0.12079 0.49709
 C207 C 0.62094 -0.00339 0.62055
 C208 C 0.62058 0.00239 0.37987
 C209 C 0.38022 -0.00340 0.37963
 C210 C 0.38045 0.00200 0.62026
 C211 C 0.50374 -0.12066 0.62020
 C212 C 0.49777 -0.12088 0.37952
 H213 H 0.43050 -0.07092 0.57026
 O214 O 0.45302 -0.04836 0.54769
 H215 H 0.57089 -0.07088 0.42969
 O216 O 0.54836 -0.04835 0.45224
 C217 C 0.15975 0.16025 -0.00422
 C218 C 0.19344 0.19394 -0.00480
 C219 C 0.23290 0.23341 -0.00507
 C220 C 0.26657 0.26712 -0.00496
 C221 C 0.30602 0.30660 -0.00444
 C222 C 0.33969 0.34031 -0.00368
 C223 C 0.15999 -0.33969 0.49600
 C224 C 0.19374 -0.30616 0.49524
 C225 C 0.23332 -0.26697 0.49475
 C226 C 0.26714 -0.23350 0.49471
 C227 C 0.30671 -0.19431 0.49510
 C228 C 0.34046 -0.16077 0.49581
 C229 C 0.84083 0.84155 -0.00419
 C230 C 0.80709 0.80782 -0.00472
 C231 C 0.76757 0.76828 -0.00492
 C232 C 0.73385 0.73454 -0.00475
 C233 C 0.69434 0.69499 -0.00417
 C234 C 0.66063 0.66125 -0.00338
 C235 C 0.83969 0.33999 0.49574
 C236 C 0.80614 0.30626 0.49502
 C237 C 0.76691 0.26672 0.49462
 C238 C 0.73342 0.23293 0.49467
 C239 C 0.69419 0.19338 0.49516
 C240 C 0.66065 0.15964 0.49595
 C241 C 0.83923 0.16011 0.00364
 C242 C 0.80568 0.19384 0.00457
 C243 C 0.76645 0.23338 0.00527
 C244 C 0.73296 0.26717 0.00550
 C245 C 0.69374 0.30672 0.00532
 C246 C 0.66019 0.34046 0.00474
 C247 C 0.84141 -0.34141 0.50361
 C248 C 0.80769 -0.30767 0.50434
 C249 C 0.76818 -0.26813 0.50482
 C250 C 0.73446 -0.23438 0.50491
 C251 C 0.69494 -0.19484 0.50462
 C252 C 0.66121 -0.16111 0.50402
 C253 C 0.16023 0.33979 0.50419
 C254 C 0.19391 0.30608 0.50480
 C255 C 0.23336 0.26660 0.50510
 C256 C 0.26703 0.23290 0.50502
 C257 C 0.30648 0.19342 0.50453
 C258 C 0.34017 0.15973 0.50380
 C259 C 0.15947 0.83976 0.00398
 C260 C 0.19322 0.80623 0.00478
 C261 C 0.23280 0.76704 0.00529
 C262 C 0.26662 0.73357 0.00535
 C263 C 0.30620 0.69438 0.00499
 C264 C 0.33994 0.66084 0.00432
 C265 C -0.00445 0.16009 0.15984
 C266 C -0.00513 0.19375 0.19351
 C267 C -0.00554 0.23319 0.23294
 C268 C -0.00553 0.26687 0.26660
 C269 C -0.00510 0.30631 0.30603
 C270 C -0.00438 0.33998 0.33970
 C271 C 0.49609 0.34025 0.84009
 C272 C 0.49552 0.30649 0.80645
 C273 C 0.49528 0.26692 0.76708
 C274 C 0.49541 0.23313 0.73347
 C275 C 0.49595 0.19356 0.69409
 C276 C 0.49671 0.15981 0.66045
 C277 C -0.00508 0.83991 0.83943
 C278 C -0.00576 0.80628 0.80583
 C279 C -0.00607 0.76689 0.76653
 C280 C -0.00593 0.73323 0.73295
 C281 C -0.00530 0.69384 0.69365
 C282 C -0.00442 0.66020 0.66007
 C283 C 0.49651 -0.34105 0.15904
 C284 C 0.49585 -0.30735 0.19278
 C285 C 0.49547 -0.26786 0.23231
 C286 C 0.49548 -0.23416 0.26605
 C287 C 0.49587 -0.19467 0.30559
 C288 C 0.49654 -0.16098 0.33934
 C289 C 0.00321 0.84136 0.15835
 C290 C 0.00387 0.80760 0.19217
 C291 C 0.00428 0.76802 0.23181
 C292 C 0.00431 0.73425 0.26563
 C293 C 0.00398 0.69466 0.30526
 C294 C 0.00339 0.66089 0.33907
 C295 C 0.50444 -0.33935 0.84039
 C296 C 0.50537 -0.30584 0.80668
 C297 C 0.50603 -0.26668 0.76719
 C298 C 0.50618 -0.23322 0.73342
 C299 C 0.50584 -0.19406 0.69392
 C300 C 0.50511 -0.16056 0.66019
 C301 C 0.50443 0.34040 0.16081
 C302 C 0.50519 0.30661 0.19435
 C303 C 0.50565 0.26697 0.23354
 C304 C 0.50565 0.23310 0.26701
 C305 C 0.50521 0.19347 0.30620
 C306 C 0.50448 0.15968 0.33975
 C307 C 0.00298 0.15851 0.84089
 C308 C 0.00371 0.19234 0.80717
 C309 C 0.00423 0.23202 0.76768
 C310 C 0.00437 0.26588 0.73399
 C311 C 0.00417 0.30557 0.69451
 C312 C 0.00365 0.33940 0.66079
 C313 C 0.15979 -0.00443 0.15994
 C314 C 0.19354 -0.00523 0.19358
 C315 C 0.23308 -0.00574 0.23294
 C316 C 0.26686 -0.00579 0.26656
 C317 C 0.30639 -0.00540 0.30592
 C318 C 0.34014 -0.00468 0.33957
 C319 C 0.34141 0.49704 0.84167
 C320 C 0.30759 0.49635 0.80786
 C321 C 0.26795 0.49588 0.76825
 C322 C 0.23412 0.49577 0.73446
 C323 C 0.19447 0.49600 0.69485
 C324 C 0.16065 0.49652 0.66105
 C325 C 0.84100 -0.00410 0.84099
 C326 C 0.80729 -0.00492 0.80724
 C327 C 0.76784 -0.00548 0.76773
 C328 C 0.73415 -0.00558 0.73397
 C329 C 0.69470 -0.00527 0.69445
 C330 C 0.66101 -0.00462 0.66069
 C331 C -0.34140 0.49656 0.15914
 C332 C -0.30761 0.49578 0.19288
 C333 C -0.26802 0.49528 0.23237
 C334 C -0.23421 0.49521 0.26607
 C335 C -0.19462 0.49556 0.30555
 C336 C -0.16083 0.49622 0.33928
 C337 C 0.15955 0.00367 0.83923
 C338 C 0.19335 0.00423 0.80570
 C339 C 0.23302 0.00450 0.76649
 C340 C 0.26690 0.00440 0.73304
 C341 C 0.30657 0.00392 0.69383
 C342 C 0.34036 0.00321 0.66029
 C343 C 0.33999 0.50462 0.16063
 C344 C 0.30631 0.50528 0.19422
 C345 C 0.26685 0.50564 0.23353
 C346 C 0.23313 0.50559 0.26708
 C347 C 0.19366 0.50511 0.30639
 C348 C 0.15997 0.50436 0.33996
 C349 C 0.83939 0.00406 0.15966
 C350 C 0.80588 0.00478 0.19337
 C351 C 0.76668 0.00517 0.23287
 C352 C 0.73321 0.00512 0.26663
 C353 C 0.69401 0.00461 0.30614
 C354 C 0.66050 0.00379 0.33985
 C355 C -0.33988 0.50465 0.84022
 C356 C -0.30626 0.50527 0.80653
 C357 C -0.26689 0.50558 0.76708
 C358 C -0.23326 0.50549 0.73340
 C359 C -0.19388 0.50498 0.69396
 C360 C -0.16025 0.50421 0.66029
   
