data_POSCAR
  _audit_creation_date              2014-09-24
  _audit_creation_method            'ToBaCCo'
  _symmetry_space_group_name_H-M    'P1'
  _symmetry_Int_Tables_number       1
  _symmetry_cell_setting            triclinic
  loop_
  _symmetry_equiv_pos_as_xyz
 x,y,z
_cell_length_a 64.8865
_cell_length_b 64.5299
_cell_length_c 20.0955
_cell_angle_alpha 90.048200
_cell_angle_beta 89.736500
_cell_angle_gamma 120.114100
loop_
  _atom_site_label
  _atom_site_type_symbol
  _atom_site_fract_x
  _atom_site_fract_y
  _atom_site_fract_z
C1 C 0.25451 0.50702 0.52914
 C2 C 0.25187 0.50590 0.46184
 C3 C 0.22966 0.50234 0.43005
 C4 C 0.27157 0.50886 0.41760
 C5 C 0.27381 0.50455 0.56095
 C6 C 0.23856 0.51120 0.57329
 C7 C 0.20726 0.48403 0.45163
 C8 C 0.18644 0.48070 0.42154
 C9 C 0.18739 0.49543 0.36844
 C10 C 0.21013 0.51367 0.34652
 C11 C 0.23088 0.51693 0.37690
 C12 C 0.26801 0.49100 0.37169
 C13 C 0.28696 0.49347 0.33228
 C14 C 0.30965 0.51405 0.33761
 C15 C 0.31285 0.53228 0.38168
 C16 C 0.29403 0.52965 0.42168
 C17 C 0.28920 0.52168 0.60676
 C18 C 0.30757 0.51952 0.63591
 C19 C 0.31063 0.49992 0.62040
 C20 C 0.29509 0.48279 0.57473
 C21 C 0.27677 0.48496 0.54568
 C22 C 0.23555 0.53105 0.56290
 C23 C 0.22047 0.53495 0.60424
 C24 C 0.20791 0.51895 0.65611
 C25 C 0.21142 0.49942 0.66758
 C26 C 0.22674 0.49568 0.62669
 H27 H 0.20588 0.47217 0.49168
 H28 H 0.16951 0.46640 0.43999
 H29 H 0.21252 0.52572 0.30627
 H30 H 0.24800 0.53112 0.35923
 H31 H 0.25071 0.47497 0.36741
 H32 H 0.28377 0.47939 0.29738
 H33 H 0.29699 0.54379 0.45616
 H34 H 0.28727 0.53697 0.61898
 H35 H 0.31948 0.53350 0.66936
 H36 H 0.29705 0.46756 0.56179
 H37 H 0.26485 0.47133 0.51121
 H38 H 0.24492 0.54350 0.52273
 H39 H 0.21824 0.55024 0.59491
 H40 H 0.20251 0.48715 0.70840
 H41 H 0.22911 0.48049 0.63605
 H42 H 0.33009 0.54839 0.38613
 C43 C 0.46577 -0.26536 0.54502
 C44 C 0.46606 -0.26585 0.47734
 C45 C 0.46503 -0.28630 0.44069
 C46 C 0.46844 -0.24557 0.43655
 C47 C 0.46642 -0.24516 0.58202
 C48 C 0.46621 -0.28428 0.58582
 C49 C 0.48384 -0.28236 0.39813
 C50 C 0.48348 -0.30147 0.36446
 C51 C 0.46412 -0.32487 0.37231
 C52 C 0.44496 -0.32867 0.41332
 C53 C 0.44547 -0.30955 0.44770
 C54 C 0.48810 -0.22243 0.44398
 C55 C 0.49044 -0.20357 0.40428
 C56 C 0.47310 -0.20755 0.35614
 C57 C 0.45366 -0.23085 0.34832
 C58 C 0.45139 -0.24967 0.38794
 C59 C 0.44837 -0.23942 0.57458
 C60 C 0.44923 -0.22043 0.61048
 C61 C 0.46827 -0.20673 0.65360
 C62 C 0.48616 -0.21275 0.66153
 C63 C 0.48516 -0.23185 0.62623
 C64 C 0.44821 -0.29701 0.63288
 C65 C 0.44914 -0.31397 0.67405
 C66 C 0.46836 -0.31825 0.67009
 C67 C 0.48634 -0.30545 0.62201
 C68 C 0.48525 -0.28863 0.58065
 H69 H 0.49897 -0.26449 0.39167
 H70 H 0.49819 -0.29782 0.33162
 H71 H 0.42974 -0.34650 0.41946
 H72 H 0.43065 -0.31285 0.47967
 H73 H 0.50180 -0.21904 0.48002
 H74 H 0.50604 -0.18616 0.41108
 H75 H 0.43623 -0.26747 0.38095
 H76 H 0.43359 -0.24975 0.54136
 H77 H 0.43511 -0.21629 0.60423
 H78 H 0.50069 -0.20305 0.69591
 H79 H 0.49912 -0.23619 0.63306
 H80 H 0.43344 -0.29375 0.63782
 H81 H 0.43494 -0.32345 0.71000
 H82 H 0.50131 -0.30816 0.61509
 H83 H 0.49948 -0.27873 0.54513
 H84 H 0.44015 -0.23452 0.31138
 C85 C 1.26679 0.73723 0.52821
 C86 C 1.26717 0.73372 0.46148
 C87 C 1.28690 0.75140 0.41903
 C88 C 1.24733 0.71296 0.42683
 C89 C 1.24844 0.71856 0.57211
 C90 C 1.28436 0.76017 0.56008
 C91 C 1.28200 0.76266 0.36701
 C92 C 1.30047 0.78022 0.32863
 C93 C 1.32438 0.78675 0.34121
 C94 C 1.32900 0.77446 0.39148
 C95 C 1.31047 0.75711 0.43041
 C96 C 1.22372 0.70786 0.43448
 C97 C 1.20537 0.68940 0.39820
 C98 C 1.21035 0.67597 0.35223
 C99 C 1.23394 0.68090 0.34547
 C100 C 1.25227 0.69930 0.38206
 C101 C 1.24548 0.69551 0.57489
 C102 C 1.22765 0.67785 0.61488
 C103 C 1.21215 0.68272 0.65219
 C104 C 1.21574 0.70620 0.65056
 C105 C 1.23380 0.72389 0.61125
 C106 C 1.29800 0.76005 0.61370
 C107 C 1.31461 0.78149 0.64401
 C108 C 1.31785 0.80370 0.62150
 C109 C 1.30374 0.80355 0.56825
 C110 C 1.28715 0.78207 0.53814
 H111 H 1.26383 0.75817 0.35696
 H112 H 1.29562 0.78817 0.28888
 H113 H 1.34708 0.77874 0.40205
 H114 H 1.31450 0.74826 0.46979
 H115 H 1.21953 0.71846 0.46771
 H116 H 1.18744 0.68587 0.40662
 H117 H 1.27038 0.70304 0.37504
 H118 H 1.25691 0.69119 0.54578
 H119 H 1.22566 0.66014 0.61540
 H120 H 1.20509 0.71137 0.67991
 H121 H 1.23606 0.74170 0.61034
 H122 H 1.29594 0.74329 0.63173
 H123 H 1.32461 0.78013 0.68480
 H124 H 1.30550 0.82013 0.54970
 H125 H 1.27639 0.78253 0.49774
 H126 H 1.23829 0.67078 0.31081
 C127 C 0.75210 0.50393 0.53560
 C128 C 0.75590 0.51029 0.47025
 C129 C 0.77710 0.51312 0.43368
 C130 C 0.73914 0.51512 0.43285
 C131 C 0.73104 0.50131 0.57215
 C132 C 0.76961 0.50108 0.57556
 C133 C 0.79312 0.53526 0.40463
 C134 C 0.81372 0.53853 0.37260
 C135 C 0.81842 0.51960 0.36770
 C136 C 0.80219 0.49730 0.39624
 C137 C 0.78169 0.49411 0.42883
 C138 C 0.73496 0.53358 0.45231
 C139 C 0.71796 0.53695 0.41934
 C140 C 0.70501 0.52212 0.36594
 C141 C 0.70967 0.50393 0.34573
 C142 C 0.72672 0.50063 0.37867
 C143 C 0.70793 0.48323 0.55596
 C144 C 0.68833 0.48109 0.59135
 C145 C 0.69142 0.49725 0.64276
 C146 C 0.71483 0.51517 0.65917
 C147 C 0.73434 0.51701 0.62443
 C148 C 0.76258 0.47952 0.60912
 C149 C 0.77869 0.47702 0.64934
 C150 C 0.80209 0.49617 0.65779
 C151 C 0.80900 0.51785 0.62352
 C152 C 0.79287 0.52023 0.58319
 H153 H 0.78991 0.55016 0.40804
 H154 H 0.82599 0.55589 0.35135
 H155 H 0.80551 0.48247 0.39483
 H156 H 0.76950 0.47687 0.45082
 H157 H 0.74461 0.54511 0.49367
 H158 H 0.71475 0.55105 0.43605
 H159 H 0.72972 0.48627 0.36322
 H160 H 0.70513 0.47077 0.51615
 H161 H 0.67067 0.46696 0.57769
 H162 H 0.71852 0.52753 0.69966
 H163 H 0.75213 0.53090 0.63799
 H164 H 0.74458 0.46460 0.60410
 H165 H 0.77269 0.46008 0.67455
 H166 H 0.82671 0.53316 0.62662
 H167 H 0.79846 0.53714 0.55841
 H168 H 0.69987 0.49171 0.30597
 C169 C 0.49202 0.24860 0.53963
 C170 C 0.49146 0.24773 0.47186
 C171 C 0.48766 0.26493 0.43207
 C172 C 0.49505 0.23009 0.43370
 C173 C 0.49410 0.23063 0.58091
 C174 C 0.49051 0.26787 0.57561
 C175 C 0.46697 0.26645 0.44019
 C176 C 0.46400 0.28326 0.40402
 C177 C 0.48148 0.29864 0.35840
 C178 C 0.50208 0.29683 0.34979
 C179 C 0.50501 0.28001 0.38598
 C180 C 0.47828 0.21584 0.38566
 C181 C 0.48174 0.19979 0.34729
 C182 C 0.50213 0.19773 0.35615
 C183 C 0.51914 0.21235 0.40337
 C184 C 0.51562 0.22838 0.44199
 C185 C 0.51182 0.23827 0.62966
 C186 C 0.51382 0.22163 0.66950
 C187 C 0.49801 0.19688 0.66221
 C188 C 0.48004 0.18931 0.61331
 C189 C 0.47812 0.20603 0.57345
 C190 C 0.50804 0.29190 0.56641
 C191 C 0.50578 0.31015 0.59673
 C192 C 0.48583 0.30468 0.63733
 C193 C 0.46849 0.28042 0.64684
 C194 C 0.47093 0.26221 0.61685
 H195 H 0.45321 0.25473 0.47488
 H196 H 0.44800 0.28428 0.41181
 H197 H 0.51630 0.30864 0.31661
 H198 H 0.52112 0.27911 0.37920
 H199 H 0.46250 0.21721 0.37775
 H200 H 0.46865 0.18946 0.30982
 H201 H 0.52906 0.23965 0.47768
 H202 H 0.52427 0.25719 0.63654
 H203 H 0.52784 0.22824 0.70638
 H204 H 0.46730 0.17067 0.60485
 H205 H 0.46402 0.19976 0.53696
 H206 H 0.52330 0.29653 0.53467
 H207 H 0.51951 0.32832 0.58621
 H208 H 0.45293 0.27546 0.67761
 H209 H 0.45721 0.24371 0.62432
 H210 H 0.53514 0.21132 0.41049
 C211 C 0.75452 0.24864 0.52609
 C212 C 0.75465 0.24899 0.45817
 C213 C 0.73299 0.23314 0.41853
 C214 C 0.77664 0.26558 0.42063
 C215 C 0.77366 0.26897 0.56454
 C216 C 0.73596 0.22759 0.56362
 C217 C 0.73481 0.22148 0.36174
 C218 C 0.71486 0.20755 0.32234
 C219 C 0.69255 0.20487 0.33909
 C220 C 0.69085 0.21692 0.39516
 C221 C 0.71085 0.23092 0.43450
 C222 C 0.79827 0.26644 0.43427
 C223 C 0.81914 0.28282 0.40122
 C224 C 0.81873 0.29836 0.35316
 C225 C 0.79693 0.29718 0.33878
 C226 C 0.77607 0.28080 0.37190
 C227 C 0.78078 0.29273 0.54729
 C228 C 0.80038 0.31183 0.57780
 C229 C 0.81281 0.30781 0.62854
 C230 C 0.80478 0.28396 0.64858
 C231 C 0.78547 0.26478 0.61660
 C232 C 0.72445 0.23071 0.61874
 C233 C 0.70705 0.21084 0.65391
 C234 C 0.70088 0.18743 0.63452
 C235 C 0.71290 0.18448 0.58039
 C236 C 0.73027 0.20430 0.54545
 H237 H 0.75175 0.22323 0.34770
 H238 H 0.71719 0.19931 0.27825
 H239 H 0.67397 0.21541 0.40874
 H240 H 0.70911 0.24030 0.47695
 H241 H 0.79901 0.25460 0.47115
 H242 H 0.83567 0.28341 0.41339
 H243 H 0.75957 0.28046 0.36094
 H244 H 0.77153 0.29650 0.50868
 H245 H 0.80580 0.32987 0.56150
 H246 H 0.81383 0.27977 0.68663
 H247 H 0.78026 0.24663 0.63100
 H248 H 0.72883 0.24853 0.63426
 H249 H 0.69881 0.21406 0.69647
 H250 H 0.70877 0.16673 0.56485
 H251 H 0.73937 0.20145 0.50422
 H252 H 0.79590 0.30928 0.30362
 O253 O 1.03453 0.55395 0.11550
 O254 O 1.06117 0.54923 0.05080
 C255 C 1.05600 0.55943 0.09860
 O256 O 0.96821 0.44691 0.10214
 O257 O 0.94238 0.45418 0.04247
 C258 C 0.94693 0.44173 0.08412
 O259 O 1.03545 0.48317 0.10922
 O260 O 1.06149 0.51528 0.04513
 C261 C 1.05684 0.49956 0.09123
 O262 O 0.96774 0.52232 0.10850
 O263 O 0.94201 0.48969 0.04630
 C264 C 0.94644 0.50592 0.09070
 Zr265 Zr 1.00143 0.52797 0.07549
 O266 O 0.99926 0.52652 0.18063
 O267 O 1.00252 0.56123 0.07220
 Zr268 Zr 1.00176 0.47571 0.07083
 O269 O 1.00209 0.47289 0.17580
 O270 O 1.00259 0.44361 0.05896
 O271 O 1.02272 0.51243 0.08610
 O272 O 0.98083 0.49125 0.08511
 O273 O 0.96947 0.52606 -0.12076
 O274 O 0.94262 0.49182 -0.06557
 C275 C 0.94797 0.50969 -0.10536
 O276 O 1.03513 0.48396 -0.13460
 O277 O 1.06154 0.51576 -0.07078
 C278 C 1.05654 0.49994 -0.11725
 O279 O 0.96828 0.44859 -0.12853
 O280 O 0.94214 0.45490 -0.06632
 C281 C 0.94689 0.44298 -0.10957
 O282 O 1.03550 0.55724 -0.12814
 O283 O 1.06150 0.55070 -0.06728
 C284 C 1.05680 0.56225 -0.11179
 Zr285 Zr 1.00228 0.52972 -0.09223
 O286 O 0.99976 0.52835 -0.19736
 O287 O 1.00465 0.56364 -0.09101
 Zr288 Zr 1.00185 0.47722 -0.09703
 O289 O 0.99943 0.47739 -0.20205
 O290 O 1.00384 0.44549 -0.10052
 Zr291 Zr 1.03746 0.52059 -0.01066
 Zr292 Zr 0.96636 0.48488 -0.01113
 O293 O 0.98129 0.49319 -0.10718
 O294 O 1.02342 0.51428 -0.10772
 O295 O 0.98061 0.52222 -0.00824
 O296 O 1.02264 0.48318 -0.01331
 O297 O 1.02272 0.54311 -0.00759
 O298 O 0.98057 0.46182 -0.01336
 H299 H 0.96982 0.48547 0.12371
 H300 H 1.03343 0.47646 -0.01396
 H301 H 0.97038 0.48803 -0.14579
 H302 H 1.03351 0.56070 -0.00612
 H303 H 1.00322 0.43808 0.10449
 H304 H 0.99280 0.43455 -0.06609
 H305 H 1.01331 0.49237 -0.21849
 H306 H 1.01402 0.52839 -0.21514
 H307 H 0.99514 0.56372 -0.05248
 H308 H 1.00215 0.56578 0.11912
 H309 H 1.00947 0.52014 0.19603
 H310 H 0.99095 0.47760 0.19467
 O311 O 0.44891 0.47900 0.12302
 O312 O 0.45447 0.51324 0.07186
 C313 C 0.44330 0.49540 0.11270
 O314 O 0.55595 0.52114 0.12186
 O315 O 0.55073 0.49147 0.04896
 C316 C 0.56190 0.50625 0.09696
 O317 O 0.51976 0.55135 0.14477
 O318 O 0.48871 0.54809 0.08257
 C319 C 0.50363 0.55696 0.13144
 O320 O 0.48170 0.44551 0.10015
 O321 O 0.51532 0.45538 0.03871
 C322 C 0.49832 0.44146 0.07907
 Zr323 Zr 0.47595 0.47438 0.07853
 O324 O 0.47160 0.46641 0.18148
 O325 O 0.44377 0.44254 0.05747
 Zr326 Zr 0.52756 0.52700 0.09577
 O327 O 0.52688 0.52064 0.19931
 O328 O 0.55842 0.56113 0.10654
 O329 O 0.49063 0.51028 0.10546
 O330 O 0.51226 0.49018 0.09424
 O331 O 0.48456 0.45565 -0.13035
 O332 O 0.51713 0.46089 -0.07169
 C333 C 0.50113 0.45054 -0.11722
 O334 O 0.52351 0.56254 -0.09741
 O335 O 0.49032 0.55351 -0.03499
 C336 C 0.50676 0.56653 -0.07809
 O337 O 0.55964 0.53236 -0.10578
 O338 O 0.55231 0.49665 -0.06058
 C339 C 0.56481 0.51560 -0.09670
 O340 O 0.45230 0.49078 -0.11937
 O341 O 0.45635 0.51914 -0.04311
 C342 C 0.44645 0.50579 -0.09462
 Zr343 Zr 0.47851 0.48233 -0.08747
 O344 O 0.48148 0.48594 -0.19232
 O345 O 0.44501 0.45066 -0.09648
 Zr346 Zr 0.53017 0.53488 -0.07065
 O347 O 0.53320 0.53836 -0.17552
 O348 O 0.56089 0.56907 -0.05923
 Zr349 Zr 0.48475 0.52189 0.01302
 Zr350 Zr 0.52136 0.48765 -0.00477
 O351 O 0.51518 0.49925 -0.09645
 O352 O 0.49364 0.51948 -0.08672
 O353 O 0.48431 0.46407 -0.01095
 O354 O 0.52186 0.54477 0.01886
 O355 O 0.46279 0.48470 -0.00024
 O356 O 0.54383 0.52481 0.00853
 H357 H 0.51741 0.48325 0.13000
 H358 H 0.52823 0.56216 0.02518
 H359 H 0.52137 0.49594 -0.13785
 H360 H 0.44528 0.47779 -0.00123
 H361 H 0.57114 0.56135 0.07873
 H362 H 0.57262 0.56694 -0.03336
 H363 H 0.51817 0.53674 -0.19241
 H364 H 0.48309 0.50159 -0.20372
 H365 H 0.44569 0.43811 -0.06987
 H366 H 0.43727 0.43472 0.10100
 H367 H 0.48728 0.47637 0.20252
 H368 H 0.51115 0.51725 0.21638
 O369 O 0.45011 -0.03756 -0.11772
 O370 O 0.45793 -0.06105 -0.04866
 C371 C 0.44673 -0.05820 -0.09764
 O372 O 0.55441 0.03824 -0.10688
 O373 O 0.54401 0.06246 -0.04950
 C374 C 0.55740 0.05913 -0.09092
 O375 O 0.52476 -0.02903 -0.11037
 O376 O 0.49384 -0.05706 -0.04676
 C377 C 0.50982 -0.05096 -0.09315
 O378 O 0.47521 0.02887 -0.11433
 O379 O 0.50613 0.05812 -0.05394
 C380 C 0.48942 0.05106 -0.09832
 Zr381 Zr 0.47320 -0.00282 -0.07827
 O382 O 0.47112 -0.00357 -0.18339
 O383 O 0.43866 -0.00743 -0.07061
 Zr384 Zr 0.52814 0.00340 -0.07419
 O385 O 0.53006 0.00517 -0.17938
 O386 O 0.56125 0.00443 -0.06962
 O387 O 0.49206 -0.02093 -0.08794
 O388 O 0.50934 0.02098 -0.08979
 O389 O 0.47278 0.03031 0.11609
 O390 O 0.50547 0.05877 0.05865
 C391 C 0.48774 0.05230 0.09960
 O392 O 0.52278 -0.02767 0.13574
 O393 O 0.49301 -0.05644 0.07179
 C394 C 0.50830 -0.04980 0.11978
 O395 O 0.55321 0.03871 0.12206
 O396 O 0.54339 0.06290 0.06275
 C397 C 0.55665 0.05951 0.10458
 O398 O 0.44706 -0.03604 0.12590
 O399 O 0.45645 -0.06066 0.06653
 C400 C 0.44395 -0.05695 0.11051
 Zr401 Zr 0.47203 -0.00168 0.08876
 O402 O 0.47303 0.00164 0.19372
 O403 O 0.43687 -0.00760 0.08699
 Zr404 Zr 0.52662 0.00416 0.09366
 O405 O 0.52657 0.00797 0.19833
 O406 O 0.55947 0.00472 0.09842
 Zr407 Zr 0.48534 -0.03489 0.00975
 Zr408 Zr 0.51488 0.03651 0.00531
 O409 O 0.50791 0.02217 0.10223
 O410 O 0.49036 -0.01999 0.10577
 O411 O 0.47733 0.01872 0.00342
 O412 O 0.52278 -0.01662 0.01126
 O413 O 0.46006 -0.02359 0.00598
 O414 O 0.54049 0.02553 0.00890
 H415 H 0.51421 0.03162 -0.12925
 H416 H 0.53091 -0.02614 0.01308
 H417 H 0.51217 0.03324 0.14051
 H418 H 0.44288 -0.03576 0.00486
 H419 H 0.57269 0.01943 -0.04686
 H420 H 0.57041 0.01684 0.06607
 H421 H 0.51213 -0.00621 0.21600
 H422 H 0.47432 -0.01182 0.21250
 H423 H 0.43626 0.00263 0.05130
 H424 H 0.43277 -0.00906 -0.11680
 H425 H 0.48758 0.00436 -0.20093
 H426 H 0.51501 -0.00835 -0.19641
 C427 C 1.16661 0.49139 0.34109
 C428 C 1.16465 0.50434 0.28794
 C429 C 1.14163 0.49928 0.26009
 N430 N 1.14156 0.51262 0.20820
 N431 N 1.12115 0.50865 0.18181
 C432 C 1.09992 0.49117 0.20613
 N433 N 1.09992 0.47775 0.25818
 N434 N 1.12043 0.48173 0.28470
 C435 C 1.07736 0.48709 0.17662
 C436 C 1.07786 0.50122 0.12354
 H437 H 1.18016 0.51882 0.26441
 H438 H 1.06053 0.47329 0.19688
 H439 H 1.15007 0.47703 0.36148
 H440 H 1.09495 0.51497 0.10440
 C441 C 0.46331 0.65463 0.33692
 C442 C 0.48386 0.65369 0.32223
 C443 C 0.48338 0.63387 0.28481
 N444 N 0.50338 0.63222 0.28064
 N445 N 0.50352 0.61477 0.24557
 C446 C 0.48368 0.59838 0.21300
 N447 N 0.46368 0.60006 0.21697
 N448 N 0.46350 0.61745 0.25238
 C449 C 0.48384 0.57947 0.17245
 C450 C 0.50273 0.57497 0.17426
 H451 H 0.50097 0.66774 0.33987
 H452 H 0.46869 0.56879 0.14070
 H453 H 0.44606 0.63943 0.32492
 H454 H 0.51725 0.58478 0.20866
 C455 C 0.34372 -0.19488 0.30606
 C456 C 0.34208 -0.17814 0.26566
 C457 C 0.36302 -0.15822 0.23366
 N458 N 0.36202 -0.13870 0.21365
 N459 N 0.38087 -0.12021 0.18548
 C460 C 0.40136 -0.12065 0.17572
 N461 N 0.40228 -0.14034 0.19481
 N462 N 0.38347 -0.15877 0.22364
 C463 C 0.42215 -0.10020 0.14474
 C464 C 0.42430 -0.07762 0.14404
 H465 H 0.32561 -0.17791 0.26167
 H466 H 0.43613 -0.10276 0.12387
 H467 H 0.36130 -0.19249 0.31417
 H468 H 0.41122 -0.07482 0.16998
 C469 C 0.84063 0.52387 0.33428
 C470 C 0.84270 0.50575 0.30262
 C471 C 0.86466 0.51011 0.26844
 N472 N 0.86424 0.49268 0.22982
 N473 N 0.88385 0.49612 0.19859
 C474 C 0.90473 0.51711 0.20497
 N475 N 0.90522 0.53454 0.24401
 N476 N 0.88552 0.53113 0.27504
 C477 C 0.92653 0.52080 0.17094
 C478 C 0.92547 0.50457 0.12333
 H479 H 0.82743 0.48784 0.30013
 H480 H 0.94348 0.53632 0.18345
 H481 H 0.85537 0.54211 0.33132
 H482 H 0.90825 0.48964 0.10965
 C483 C 0.47796 0.31682 0.32310
 C484 C 0.49110 0.32957 0.26725
 C485 C 0.48827 0.34869 0.23644
 N486 N 0.50241 0.36131 0.18442
 N487 N 0.50061 0.37913 0.15710
 C488 C 0.48455 0.38499 0.18073
 N489 N 0.47029 0.37227 0.23248
 N490 N 0.47212 0.35447 0.25989
 C491 C 0.48285 0.40512 0.15246
 C492 C 0.49851 0.42005 0.10332
 H493 H 0.50406 0.32578 0.24511
 H494 H 0.46952 0.40880 0.17276
 H495 H 0.46426 0.32023 0.34192
 H496 H 0.51207 0.41656 0.08384
 C497 C 0.67091 0.18987 0.29901
 C498 C 0.66838 0.17082 0.26014
 C499 C 0.64635 0.15436 0.22473
 N500 N 0.64408 0.13391 0.19917
 N501 N 0.62409 0.11810 0.16911
 C502 C 0.60557 0.12213 0.16295
 N503 N 0.60796 0.14287 0.18728
 N504 N 0.62799 0.15870 0.21788
 C505 C 0.58302 0.10365 0.13310
 C506 C 0.57774 0.07990 0.13389
 H507 H 0.68244 0.16645 0.25917
 H508 H 0.57037 0.10837 0.11369
 H509 H 0.65593 0.19279 0.30402
 H510 H 0.58991 0.07563 0.15899
 C511 C 0.50090 0.18095 -0.29596
 C512 C 0.48630 0.15599 -0.29608
 C513 C 0.49031 0.14017 -0.25170
 N514 N 0.47526 0.11617 -0.25450
 N515 N 0.47854 0.10140 -0.21560
 C516 C 0.49701 0.11001 -0.17223
 N517 N 0.51208 0.13405 -0.16923
 N518 N 0.50879 0.14886 -0.20823
 C519 C 0.50089 0.09353 -0.13010
 C520 C 0.48595 0.06879 -0.13489
 H521 H 0.47128 0.14721 -0.32911
 H522 H 0.51591 0.10086 -0.09648
 H523 H 0.51547 0.18856 -0.26076
 H524 H 0.47115 0.06178 -0.16927
 C525 C 0.67117 0.49472 -0.32370
 C526 C 0.67141 0.51186 -0.28047
 C527 C 0.64996 0.50828 -0.24532
 N528 N 0.64972 0.52737 -0.21791
 N529 N 0.63057 0.52456 -0.18538
 C530 C 0.61099 0.50250 -0.17849
 N531 N 0.61129 0.48334 -0.20528
 N532 N 0.63041 0.48618 -0.23833
 C533 C 0.58976 0.49928 -0.14272
 C534 C 0.58626 0.51854 -0.13021
 H535 H 0.68726 0.52914 -0.27446
 H536 H 0.57614 0.48131 -0.12876
 H537 H 0.65409 0.47895 -0.33395
 H538 H 0.59902 0.53618 -0.14888
 C539 C 0.83309 0.32772 -0.34463
 C540 C 0.84496 0.32735 -0.28717
 C541 C 0.86647 0.34905 -0.26418
 N542 N 0.87125 0.35267 -0.19820
 N543 N 0.89046 0.37246 -0.17681
 C544 C 0.90580 0.38916 -0.22067
 N545 N 0.90127 0.38532 -0.28674
 N546 N 0.88186 0.36570 -0.30810
 C547 C 0.92687 0.41116 -0.19713
 C548 C 0.92638 0.42130 -0.13643
 H549 H 0.83755 0.31177 -0.25521
 H550 H 0.94232 0.42022 -0.22937
 H551 H 0.83964 0.34492 -0.36898
 H552 H 0.90990 0.41345 -0.10814
 C553 C 0.46866 -0.18691 -0.30846
 C554 C 0.48982 -0.16681 -0.28836
 C555 C 0.49009 -0.14771 -0.24786
 N556 N 0.51083 -0.12686 -0.23865
 N557 N 0.51144 -0.10948 -0.20137
 C558 C 0.49132 -0.11243 -0.17149
 N559 N 0.47061 -0.13334 -0.18032
 N560 N 0.46998 -0.15066 -0.21791
 C561 C 0.49159 -0.09346 -0.13038
 C562 C 0.51089 -0.07012 -0.12975
 H563 H 0.50678 -0.16465 -0.30391
 H564 H 0.47558 -0.09773 -0.10259
 H565 H 0.45184 -0.18776 -0.29825
 H566 H 0.52633 -0.06540 -0.16076
 C567 C 0.32993 0.49690 -0.35059
 C568 C 0.34222 0.50848 -0.29292
 C569 C 0.36116 0.50495 -0.26496
 N570 N 0.37238 0.51671 -0.20867
 N571 N 0.38956 0.51380 -0.18242
 C572 C 0.39619 0.49901 -0.21140
 N573 N 0.38497 0.48721 -0.26775
 N574 N 0.36776 0.49013 -0.29409
 C575 C 0.41520 0.49575 -0.18248
 C576 C 0.42729 0.50817 -0.12559
 H577 H 0.33769 0.52015 -0.26598
 H578 H 0.41979 0.48355 -0.20639
 H579 H 0.33405 0.48434 -0.37449
 H580 H 0.42268 0.52049 -0.10248
 C581 C 1.19377 0.66401 -0.31068
 C582 C 1.17479 0.66510 -0.28102
 C583 C 1.15556 0.64465 -0.24502
 N584 N 1.13487 0.64432 -0.23210
 N585 N 1.11711 0.62587 -0.20027
 C586 C 1.11945 0.60711 -0.17969
 N587 N 1.14026 0.60755 -0.19188
 N588 N 1.15797 0.62595 -0.22420
 C589 C 1.09987 0.58661 -0.14479
 C590 C 1.07670 0.58269 -0.14567
 H591 H 1.17264 0.68051 -0.28771
 H592 H 1.10358 0.57392 -0.12012
 H593 H 1.19360 0.64715 -0.30766
 H594 H 1.07279 0.59453 -0.17421
 C595 C 0.81750 0.49282 -0.30024
 C596 C 0.84052 0.51076 -0.28359
 C597 C 0.85651 0.50627 -0.24245
 N598 N 0.87892 0.52448 -0.23133
 N599 N 0.89416 0.52087 -0.19628
 C600 C 0.88761 0.49893 -0.17081
 N601 N 0.86507 0.48070 -0.18118
 N602 N 0.84977 0.48430 -0.21651
 C603 C 0.90501 0.49490 -0.13484
 C604 C 0.92902 0.51240 -0.13585
 H605 H 0.84770 0.52892 -0.30087
 H606 H 0.89918 0.47786 -0.11045
 H607 H 0.81106 0.47519 -0.27881
 H608 H 0.93460 0.52890 -0.16298
 C609 C 0.48235 0.32234 -0.33200
 C610 C 0.49927 0.34678 -0.33057
 C611 C 0.49488 0.36439 -0.29656
 N612 N 0.51361 0.38614 -0.28101
 N613 N 0.51022 0.40225 -0.24904
 C614 C 0.48794 0.39734 -0.23192
 N615 N 0.46911 0.37573 -0.24852
 N616 N 0.47252 0.35948 -0.28007
 C617 C 0.48441 0.41493 -0.19441
 C618 C 0.50298 0.43248 -0.15700
 H619 H 0.51697 0.35346 -0.35050
 H620 H 0.46697 0.41331 -0.19316
 H621 H 0.46569 0.31657 -0.30577
 H622 H 0.51965 0.43246 -0.15427
 C623 C 0.68246 0.16568 -0.33052
 C624 C 0.66555 0.16541 -0.28677
 C625 C 0.64700 0.14318 -0.25526
 N626 N 0.63108 0.14400 -0.21298
 N627 N 0.61401 0.12408 -0.18451
 C628 C 0.61218 0.10254 -0.19728
 N629 N 0.62811 0.10169 -0.23956
 N630 N 0.64521 0.12164 -0.26801
 C631 C 0.59319 0.08037 -0.16652
 C632 C 0.57695 0.08079 -0.12171
 H633 H 0.66525 0.18167 -0.27611
 H634 H 0.59195 0.06349 -0.17955
 H635 H 0.68161 0.14885 -0.34193
 H636 H 0.57849 0.09779 -0.10849
 C637 C 1.19129 0.52298 -0.30285
 C638 C 1.17041 0.50407 -0.27643
 C639 C 1.15252 0.50766 -0.24140
 N640 N 1.13036 0.48869 -0.23161
 N641 N 1.11366 0.49150 -0.20124
 C642 C 1.11851 0.51338 -0.17908
 N643 N 1.14079 0.53235 -0.18804
 N644 N 1.15748 0.52956 -0.21895
 C645 C 1.09992 0.51643 -0.14592
 C646 C 1.07599 0.49899 -0.15197
 H647 H 1.16607 0.48580 -0.28597
 H648 H 1.10502 0.53259 -0.11773
 H649 H 1.19437 0.54107 -0.29871
 H650 H 1.07111 0.48368 -0.18389
 C651 C 0.46879 0.66501 -0.28571
 C652 C 0.48787 0.66084 -0.27920
 C653 C 0.48750 0.64300 -0.23290
 N654 N 0.50717 0.64088 -0.22755
 N655 N 0.50725 0.62455 -0.18739
 C656 C 0.48767 0.60966 -0.15087
 N657 N 0.46797 0.61183 -0.15587
 N658 N 0.46789 0.62823 -0.19612
 C659 C 0.48745 0.59076 -0.10907
 C660 C 0.50698 0.58727 -0.10871
 H661 H 0.50410 0.67106 -0.30742
 H662 H 0.47137 0.57862 -0.08202
 H663 H 0.45354 0.65505 -0.25319
 H664 H 0.52269 0.59920 -0.13748
 C665 C 0.33440 -0.17406 -0.35019
 C666 C 0.34974 -0.17108 -0.29767
 C667 C 0.36664 -0.14749 -0.26947
 N668 N 0.38078 -0.14626 -0.21843
 N669 N 0.39618 -0.12527 -0.19161
 C670 C 0.39809 -0.10459 -0.21470
 N671 N 0.38396 -0.10576 -0.26593
 N672 N 0.36851 -0.12683 -0.29284
 C673 C 0.41515 -0.08135 -0.18451
 C674 C 0.42925 -0.08034 -0.13108
 H675 H 0.34983 -0.18622 -0.27528
 H676 H 0.41657 -0.06506 -0.20415
 H677 H 0.33539 -0.15803 -0.37060
 H678 H 0.42750 -0.09686 -0.11206
 C679 C 0.47471 -0.18830 0.31212
 C680 C 0.49077 -0.16388 0.32089
 C681 C 0.49147 -0.14552 0.27587
 N682 N 0.50752 -0.12206 0.28640
 N683 N 0.50831 -0.10519 0.24649
 C684 C 0.49307 -0.11117 0.19448
 N685 N 0.47703 -0.13463 0.18389
 N686 N 0.47626 -0.15150 0.22378
 C687 C 0.49336 -0.09273 0.15071
 C688 C 0.50930 -0.06835 0.15980
 H689 H 0.50302 -0.15767 0.36216
 H690 H 0.48027 -0.09853 0.11136
 H691 H 0.46220 -0.19366 0.27132
 H692 H 0.52235 -0.06258 0.19925
 C693 C 0.33022 0.51714 0.29782
 C694 C 0.33313 0.49793 0.27924
 C695 C 0.35464 0.50137 0.24449
 N696 N 0.35863 0.48273 0.23846
 N697 N 0.37814 0.48558 0.20791
 C698 C 0.39438 0.50717 0.18199
 N699 N 0.39032 0.52578 0.18755
 N700 N 0.37084 0.52296 0.21843
 C701 C 0.41591 0.51047 0.14761
 C702 C 0.42252 0.49298 0.14922
 H703 H 0.31996 0.47990 0.29394
 H704 H 0.42685 0.52708 0.12097
 H705 H 0.34451 0.53523 0.28790
 H706 H 0.41207 0.47684 0.17826
 C707 C 1.19165 0.65688 0.31041
 C708 C 1.16939 0.65463 0.29927
 C709 C 1.15134 0.63605 0.25599
 N710 N 1.12953 0.63394 0.25128
 N711 N 1.11286 0.61728 0.21255
 C712 C 1.11737 0.60212 0.17675
 N713 N 1.13925 0.60429 0.18109
 N714 N 1.15593 0.62094 0.22008
 C715 C 1.09884 0.58345 0.13454
 C716 C 1.07538 0.57865 0.13696
 H717 H 1.16484 0.66703 0.32179
 H718 H 1.10353 0.57278 0.10307
 H719 H 1.19598 0.64473 0.28501
 H720 H 1.07067 0.58871 0.17081
 C721 C 0.50638 0.18106 0.31557
 C722 C 0.48784 0.16014 0.28828
 C723 C 0.49187 0.14352 0.24777
 N724 N 0.47307 0.12194 0.23111
 N725 N 0.47623 0.10648 0.19488
 C726 C 0.49831 0.11206 0.17349
 N727 N 0.51713 0.13376 0.18952
 N728 N 0.51398 0.14922 0.22610
 C729 C 0.50197 0.09469 0.13523
 C730 C 0.48406 0.07077 0.13081
 H731 H 0.46955 0.15509 0.29891
 H732 H 0.51939 0.10043 0.11393
 H733 H 0.52454 0.18480 0.30965
 H734 H 0.46717 0.06489 0.15573
 C735 C 0.68619 0.52554 0.33510
 C736 C 0.67476 0.51477 0.27569
 C737 C 0.65470 0.51681 0.24979
 N738 N 0.64325 0.50449 0.19437
 N739 N 0.62464 0.50555 0.17098
 C740 C 0.61677 0.51899 0.20210
 N741 N 0.62830 0.53145 0.25734
 N742 N 0.64691 0.53034 0.28087
 C743 C 0.59602 0.51999 0.17693
 C744 C 0.58262 0.50574 0.12393
 H745 H 0.68020 0.50415 0.24703
 H746 H 0.59108 0.53191 0.20101
 H747 H 0.68096 0.53696 0.36085
 H748 H 0.58746 0.49357 0.10093
 C749 C 0.84144 0.31623 0.32158
 C750 C 0.84255 0.32777 0.26195
 C751 C 0.86496 0.34734 0.23492
 N752 N 0.86437 0.35915 0.17993
 N753 N 0.88425 0.37762 0.15599
 C754 C 0.90552 0.38499 0.18603
 N755 N 0.90620 0.37301 0.24069
 N756 N 0.88625 0.35454 0.26484
 C757 C 0.92737 0.40591 0.16064
 C758 C 0.92611 0.42044 0.11155
 H759 H 0.82649 0.32282 0.23427
 H760 H 0.94438 0.41028 0.18193
 H761 H 0.85789 0.32042 0.34628
 H762 H 0.90887 0.41625 0.09233
   
