data_POSCAR
  _audit_creation_date              2014-09-24
  _audit_creation_method            'ToBaCCo'
  _symmetry_space_group_name_H-M    'P1'
  _symmetry_Int_Tables_number       1
  _symmetry_cell_setting            triclinic
  loop_
  _symmetry_equiv_pos_as_xyz
 x,y,z
_cell_length_a 36.7086
_cell_length_b 37.7785
_cell_length_c 38.0258
_cell_angle_alpha 89.910500
_cell_angle_beta 89.200100
_cell_angle_gamma 89.715200
loop_
  _atom_site_label
  _atom_site_type_symbol
  _atom_site_fract_x
  _atom_site_fract_y
  _atom_site_fract_z
C1 C 0.59218 0.61403 0.65581
 C2 C 0.56718 0.64209 0.65400
 C3 C 0.57210 0.66954 0.62942
 C4 C 0.60095 0.66738 0.60478
 C5 C 0.62566 0.63892 0.60563
 C6 C 0.62167 0.61254 0.63171
 C7 C 0.58819 0.58754 0.68143
 C8 C 0.61298 0.55898 0.68303
 C9 C 0.64299 0.55843 0.65950
 C10 C 0.64732 0.58478 0.63383
 C11 C 0.67686 0.58369 0.61015
 C12 C 0.67979 0.60850 0.58266
 C13 C 0.65435 0.63643 0.58094
 H14 H 0.54419 0.64305 0.67220
 H15 H 0.60439 0.68815 0.58532
 H16 H 0.56511 0.58861 0.69952
 H17 H 0.66341 0.53770 0.66155
 H18 H 0.69724 0.56298 0.61256
 H19 H 0.65684 0.65610 0.56028
 C20 C 0.91067 0.39130 0.14715
 C21 C 0.93874 0.36590 0.14616
 C22 C 0.94011 0.33968 0.11967
 C23 C 0.91126 0.33823 0.09553
 C24 C 0.88357 0.36383 0.09572
 C25 C 0.88356 0.39082 0.12125
 C26 C 0.90899 0.41696 0.17386
 C27 C 0.88099 0.44254 0.17446
 C28 C 0.85580 0.44342 0.14697
 C29 C 0.85607 0.41704 0.12118
 C30 C 0.82856 0.41578 0.09604
 C31 C 0.82767 0.38807 0.07159
 C32 C 0.85549 0.36251 0.07109
 H33 H 0.96019 0.36746 0.16537
 H34 H 0.90993 0.31669 0.07680
 H35 H 0.92898 0.41664 0.19457
 H36 H 0.83500 0.46390 0.14656
 H37 H 0.80709 0.43561 0.09614
 H38 H 0.85485 0.34134 0.05188
 C39 C 0.40743 0.11285 -0.15208
 C40 C 0.43413 0.13898 -0.14813
 C41 C 0.43107 0.16416 -0.12107
 C42 C 0.40039 0.16371 -0.09857
 C43 C 0.37404 0.13726 -0.10159
 C44 C 0.37752 0.11165 -0.12842
 C45 C 0.41032 0.08776 -0.17911
 C46 C 0.38435 0.06059 -0.18232
 C47 C 0.35449 0.05981 -0.15856
 C48 C 0.35098 0.08498 -0.13166
 C49 C 0.32131 0.08403 -0.10796
 C50 C 0.31806 0.10940 -0.08119
 C51 C 0.34433 0.13594 -0.07813
 H52 H 0.45748 0.13962 -0.16589
 H53 H 0.39733 0.18381 -0.07840
 H54 H 0.43352 0.08870 -0.19706
 H55 H 0.33336 0.04013 -0.16161
 H56 H 0.30079 0.06365 -0.11017
 H57 H 0.34154 0.15548 -0.05739
 C58 C 0.09236 0.88433 0.35105
 C59 C 0.06604 0.85771 0.35420
 C60 C 0.06864 0.83141 0.38040
 C61 C 0.09934 0.83114 0.40229
 C62 C 0.12570 0.85781 0.39966
 C63 C 0.12207 0.88471 0.37414
 C64 C 0.08942 0.91059 0.32515
 C65 C 0.11488 0.93821 0.32299
 C66 C 0.14436 0.93856 0.34618
 C67 C 0.14825 0.91189 0.37159
 C68 C 0.17791 0.91187 0.39446
 C69 C 0.18178 0.88492 0.41960
 C70 C 0.15553 0.85816 0.42231
 H71 H 0.04367 0.85718 0.33587
 H72 H 0.10199 0.81094 0.42240
 H73 H 0.06716 0.90977 0.30672
 H74 H 0.16427 0.95960 0.34431
 H75 H 0.19812 0.93266 0.39272
 H76 H 0.15855 0.83757 0.44197
 N77 N 0.09615 0.19492 0.11350
 N78 N 0.07831 0.18122 0.14037
 C79 C 0.04807 0.20067 0.14670
 C80 C 0.04687 0.22792 0.12228
 C81 C 0.07842 0.22392 0.10226
 H82 H 0.02829 0.19528 0.16736
 H83 H 0.08773 0.24064 0.08087
 Cu84 Cu 0.09713 0.13987 0.16481
 Cu85 Cu 0.13976 0.17285 0.09387
 Cu86 Cu 0.15116 0.08473 0.11771
 N87 N 0.10739 0.09211 0.18063
 N88 N 0.12688 0.07006 0.16131
 C89 C 0.12929 0.03883 0.17822
 C90 C 0.11011 0.04133 0.20978
 C91 C 0.09711 0.07583 0.21063
 H92 H 0.14475 0.01624 0.16878
 H93 H 0.08217 0.08846 0.23191
 N94 N 0.17402 0.10574 0.07529
 N95 N 0.17044 0.13953 0.06704
 C96 C 0.18971 0.14621 0.03745
 C97 C 0.20613 0.11513 0.02641
 C98 C 0.19612 0.09011 0.05126
 H99 H 0.19189 0.17187 0.02496
 H100 H 0.20463 0.06267 0.05183
 H101 H 0.11539 0.12531 0.10506
 H102 H 0.15561 0.13604 0.13243
 N103 N 0.42515 0.82126 0.60104
 N104 N 0.44418 0.83952 0.62363
 C105 C 0.47150 0.81927 0.63571
 C106 C 0.46892 0.78601 0.62071
 C107 C 0.43952 0.78848 0.59831
 H108 H 0.49176 0.82815 0.65404
 H109 H 0.42936 0.76792 0.58135
 Cu110 Cu 0.43034 0.88714 0.63719
 Cu111 Cu 0.38426 0.84228 0.57608
 Cu112 Cu 0.35202 0.92249 0.60799
 N113 N 0.40670 0.92643 0.66109
 N114 N 0.37637 0.94063 0.64948
 C115 C 0.36536 0.96630 0.67185
 C116 C 0.38994 0.96775 0.69899
 C117 C 0.41588 0.94225 0.69135
 H118 H 0.34065 0.98175 0.66936
 H119 H 0.43907 0.93509 0.70714
 N120 N 0.33143 0.89904 0.56649
 N121 N 0.34356 0.86832 0.55447
 C122 C 0.32419 0.85927 0.52607
 C123 C 0.29893 0.88571 0.51976
 C124 C 0.30392 0.91024 0.54614
 H125 H 0.32790 0.83515 0.51115
 H126 H 0.28863 0.93449 0.55005
 H127 H 0.39513 0.89549 0.58407
 H128 H 0.36925 0.87177 0.61976
 N129 N 0.92434 0.67940 0.40213
 N130 N 0.93602 0.66963 0.37071
 C131 C 0.96211 0.69221 0.35966
 C132 C 0.96649 0.71757 0.38532
 C133 C 0.94229 0.70867 0.41195
 H134 H 0.97629 0.69092 0.33458
 H135 H 0.93783 0.72274 0.43638
 Cu136 Cu 0.91492 0.62925 0.34679
 Cu137 Cu 0.88584 0.65441 0.42759
 Cu138 Cu 0.84693 0.58344 0.38491
 N139 N 0.89212 0.58965 0.32295
 N140 N 0.86675 0.57098 0.33896
 C141 C 0.85679 0.54421 0.31805
 C142 C 0.87586 0.54681 0.28651
 C143 C 0.89856 0.57569 0.29081
 H144 H 0.83740 0.52401 0.32549
 H145 H 0.91836 0.58560 0.27197
 N146 N 0.83049 0.59989 0.43149
 N147 N 0.84635 0.62576 0.44866
 C148 C 0.82893 0.63028 0.47980
 C149 C 0.80065 0.60615 0.48231
 C150 C 0.80213 0.58795 0.45076
 H151 H 0.83555 0.65039 0.49883
 H152 H 0.78295 0.56843 0.44182
 H153 H 0.89406 0.60626 0.40354
 H154 H 0.86020 0.63679 0.38309
 N155 N 0.58187 0.31338 -0.10111
 N156 N 0.56111 0.33078 -0.12314
 C157 C 0.53164 0.31112 -0.13028
 C158 C 0.53388 0.27979 -0.11144
 C159 C 0.56661 0.28185 -0.09388
 H160 H 0.50998 0.31909 -0.14762
 H161 H 0.57833 0.26201 -0.07685
 Cu162 Cu 0.57453 0.37729 -0.14062
 Cu163 Cu 0.62465 0.33457 -0.08026
 Cu164 Cu 0.65383 0.41390 -0.11592
 N165 N 0.59623 0.41662 -0.16616
 N166 N 0.62665 0.43142 -0.15592
 C167 C 0.63544 0.45778 -0.17827
 C168 C 0.60941 0.45915 -0.20404
 C169 C 0.58482 0.43281 -0.19562
 H170 H 0.65951 0.47405 -0.17657
 H171 H 0.56078 0.42572 -0.21009
 N172 N 0.67757 0.39126 -0.07557
 N173 N 0.66689 0.36059 -0.06246
 C174 C 0.68767 0.35247 -0.03466
 C175 C 0.71226 0.37954 -0.02986
 C176 C 0.70552 0.40342 -0.05653
 H177 H 0.68479 0.32897 -0.01861
 H178 H 0.71946 0.42818 -0.06114
 H179 H 0.61235 0.38729 -0.08944
 H180 H 0.63685 0.36279 -0.12558
 C181 C -0.01625 0.30053 0.08635
 C182 C -0.03139 0.31403 0.11851
 C183 C -0.01914 0.29942 0.15034
 C184 C 0.00561 0.27142 0.15078
 C185 C 0.01891 0.25634 0.11955
 C186 C 0.00693 0.27009 0.08688
 C187 C -0.02194 0.31761 0.05370
 C188 C -0.00972 0.30243 0.02229
 C189 C 0.00876 0.27026 0.02267
 C190 C 0.01711 0.25418 0.05456
 H191 H -0.03538 0.34307 0.05209
 H192 H -0.01497 0.31553 -0.00249
 H193 H 0.01725 0.25801 -0.00184
 H194 H 0.03116 0.22902 0.05346
 H195 H -0.02993 0.30850 0.17541
 H196 H 0.01442 0.26139 0.17599
 C197 C 0.53768 0.72018 0.65954
 C198 C 0.54643 0.70013 0.62896
 C199 C 0.52907 0.70821 0.59735
 C200 C 0.50361 0.73555 0.59551
 C201 C 0.49391 0.75534 0.62539
 C202 C 0.50984 0.74661 0.65818
 C203 C 0.55625 0.71487 0.69146
 C204 C 0.54545 0.73267 0.72195
 C205 C 0.51604 0.75597 0.72134
 C206 C 0.49827 0.76286 0.68990
 H207 H 0.57938 0.69716 0.69318
 H208 H 0.55966 0.72798 0.74629
 H209 H 0.50708 0.76895 0.74533
 H210 H 0.47497 0.78039 0.69103
 H211 H 0.53525 0.69314 0.57377
 H212 H 0.49177 0.74159 0.57026
 C213 C 1.00362 0.81208 0.38344
 C214 C 1.04184 0.80474 0.38363
 C215 C 1.05347 0.76926 0.38588
 C216 C 1.02866 0.74156 0.38577
 C217 C 0.99127 0.74817 0.38424
 C218 C 0.97833 0.78351 0.38304
 C219 C 0.98973 0.84703 0.38597
 C220 C 0.95237 0.85370 0.38507
 C221 C 0.92796 0.82586 0.38234
 C222 C 0.94065 0.79105 0.38155
 H223 H 1.00737 0.86951 0.38952
 H224 H 0.94230 0.88064 0.38669
 H225 H 0.89899 0.83122 0.38143
 H226 H 0.92066 0.77021 0.37989
 H227 H 1.08223 0.76266 0.38603
 H228 H 1.03878 0.71459 0.38695
 C229 C 0.47572 0.19951 -0.08439
 C230 C 0.45920 0.19201 -0.11709
 C231 C 0.46774 0.21304 -0.14639
 C232 C 0.49173 0.24126 -0.14379
 C233 C 0.50751 0.25007 -0.11162
 C234 C 0.49848 0.22982 -0.08118
 C235 C 0.47026 0.17745 -0.05475
 C236 C 0.48413 0.18661 -0.02211
 C237 C 0.50351 0.21786 -0.01828
 C238 C 0.51053 0.23939 -0.04737
 H239 H 0.45544 0.15287 -0.05652
 H240 H 0.47935 0.16965 0.00044
 H241 H 0.51328 0.22540 0.00735
 H242 H 0.52469 0.26386 -0.04273
 H243 H 0.45535 0.20783 -0.17154
 H244 H 0.49811 0.25634 -0.16732
 C245 C 0.07952 -0.01417 0.28977
 C246 C 0.11180 -0.03425 0.29517
 C247 C 0.14170 -0.02936 0.27244
 C248 C 0.14023 -0.00526 0.24482
 C249 C 0.10857 0.01448 0.23840
 C250 C 0.07734 0.00919 0.26030
 C251 C 0.04943 -0.01647 0.31322
 C252 C 0.01707 0.00153 0.30639
 C253 C 0.01398 0.02205 0.27618
 C254 C 0.04367 0.02583 0.25325
 H255 H 0.05063 -0.03194 0.33713
 H256 H -0.00588 -0.00080 0.32442
 H257 H -0.01153 0.03524 0.27054
 H258 H 0.03958 0.04130 0.22973
 H259 H 0.16651 -0.04453 0.27600
 H260 H 0.16439 -0.00174 0.22855
 C261 C 0.61365 0.49562 -0.29794
 C262 C 0.60904 0.53250 -0.29084
 C263 C 0.60216 0.54326 -0.25595
 C264 C 0.60250 0.51906 -0.22838
 C265 C 0.60881 0.48314 -0.23461
 C266 C 0.61422 0.47096 -0.26949
 C267 C 0.61554 0.48233 -0.33270
 C268 C 0.62085 0.44634 -0.33911
 C269 C 0.62373 0.42270 -0.31121
 C270 C 0.62026 0.43472 -0.27670
 H271 H 0.61213 0.49938 -0.35528
 H272 H 0.62258 0.43672 -0.36588
 H273 H 0.62807 0.39481 -0.31635
 H274 H 0.62219 0.41534 -0.25585
 H275 H 0.59855 0.57100 -0.24952
 H276 H 0.59812 0.52855 -0.20176
 C277 C 0.38174 0.99868 0.79459
 C278 C 0.38723 1.03581 0.78987
 C279 C 0.39450 1.04866 0.75572
 C280 C 0.39442 1.02631 0.72670
 C281 C 0.38785 0.99017 0.73066
 C282 C 0.38135 0.97595 0.76464
 C283 C 0.37910 0.98314 0.82842
 C284 C 0.37312 0.94694 0.83247
 C285 C 0.37038 0.92528 0.80312
 C286 C 0.37466 0.93947 0.76949
 H287 H 0.38247 0.99848 0.85209
 H288 H 0.37081 0.93560 0.85857
 H289 H 0.36553 0.89722 0.80643
 H290 H 0.37281 0.92157 0.74742
 H291 H 0.39869 1.07666 0.75108
 H292 H 0.39971 1.03734 0.70082
 C293 C 0.84460 0.47555 0.22188
 C294 C 0.87800 0.46858 0.20374
 C295 C 0.90894 0.48815 0.21238
 C296 C 0.90744 0.51391 0.23853
 C297 C 0.87467 0.52194 0.25622
 C298 C 0.84239 0.50401 0.24641
 C299 C 0.81331 0.45464 0.21657
 C300 C 0.77989 0.46390 0.23185
 C301 C 0.77693 0.49405 0.25261
 C302 C 0.80774 0.51403 0.25980
 H303 H 0.81432 0.43084 0.20084
 H304 H 0.75607 0.44792 0.22708
 H305 H 0.75067 0.50183 0.26346
 H306 H 0.80386 0.53775 0.27525
 H307 H 0.93464 0.48339 0.19881
 H308 H 0.93239 0.52727 0.24534
 C309 C 0.25251 0.12265 -0.06414
 C310 C 0.28714 0.10845 -0.05597
 C311 C 0.29329 0.09457 -0.02244
 C312 C 0.26607 0.09555 0.00340
 C313 C 0.23203 0.11078 -0.00344
 C314 C 0.22456 0.12354 -0.03776
 C315 C 0.24519 0.13632 -0.09789
 C316 C 0.21082 0.14977 -0.10575
 C317 C 0.18318 0.14976 -0.08031
 C318 C 0.18981 0.13671 -0.04666
 H319 H 0.26585 0.13658 -0.11848
 H320 H 0.20551 0.16002 -0.13179
 H321 H 0.15642 0.15984 -0.08671
 H322 H 0.16733 0.13658 -0.02799
 H323 H 0.31971 0.08363 -0.01599
 H324 H 0.27215 0.08560 0.02941
 C325 C 0.72022 0.57384 0.53936
 C326 C 0.71031 0.60600 0.55647
 C327 C 0.73114 0.63636 0.54994
 C328 C 0.76074 0.63559 0.52669
 C329 C 0.77162 0.60411 0.51002
 C330 C 0.75249 0.57238 0.51805
 C331 C 0.69858 0.54312 0.54248
 C332 C 0.71046 0.51096 0.52844
 C333 C 0.74397 0.50873 0.51109
 C334 C 0.76491 0.53903 0.50597
 H335 H 0.67222 0.54360 0.55549
 H336 H 0.69384 0.48754 0.53153
 H337 H 0.75366 0.48346 0.50125
 H338 H 0.79116 0.53579 0.49319
 H339 H 0.72433 0.66111 0.56286
 H340 H 0.77481 0.66016 0.52128
 C341 C 0.76084 0.37858 0.05875
 C342 C 0.79697 0.38535 0.04698
 C343 C 0.80411 0.39042 0.01109
 C344 C 0.77615 0.38902 -0.01319
 C345 C 0.74021 0.38231 -0.00237
 C346 C 0.73208 0.37774 0.03397
 C347 C 0.75269 0.37236 0.09465
 C348 C 0.71690 0.36700 0.10607
 C349 C 0.68861 0.36781 0.08212
 C350 C 0.69596 0.37322 0.04645
 H351 H 0.77381 0.37147 0.11419
 H352 H 0.71105 0.36248 0.13369
 H353 H 0.66080 0.36421 0.09123
 H354 H 0.67299 0.37432 0.02903
 H355 H 0.83162 0.39566 0.00184
 H356 H 0.78272 0.39270 -0.04082
 C357 C 0.24940 0.87907 0.43178
 C358 C 0.21311 0.88501 0.44368
 C359 C 0.20622 0.89163 0.47935
 C360 C 0.23451 0.89245 0.50330
 C361 C 0.27061 0.88636 0.49241
 C362 C 0.27848 0.88025 0.45624
 C363 C 0.25740 0.87167 0.39610
 C364 C 0.29328 0.86684 0.38454
 C365 C 0.32178 0.86936 0.40813
 C366 C 0.31462 0.87609 0.44361
 H367 H 0.23609 0.86949 0.37687
 H368 H 0.29902 0.86136 0.35708
 H369 H 0.34961 0.86609 0.39888
 H370 H 0.33769 0.87848 0.46076
 H371 H 0.17859 0.89629 0.48872
 H372 H 0.22806 0.89724 0.53078
   
