data_POSCAR
  _audit_creation_date              2014-09-24
  _audit_creation_method            'ToBaCCo'
  _symmetry_space_group_name_H-M    'P1'
  _symmetry_Int_Tables_number       1
  _symmetry_cell_setting            triclinic
  loop_
  _symmetry_equiv_pos_as_xyz
 x,y,z
_cell_length_a 27.1743
_cell_length_b 27.1965
_cell_length_c 71.7458
_cell_angle_alpha 83.041200
_cell_angle_beta 93.503700
_cell_angle_gamma 120.038200
loop_
  _atom_site_label
  _atom_site_type_symbol
  _atom_site_fract_x
  _atom_site_fract_y
  _atom_site_fract_z
C1 C -0.00177 0.12270 0.52132
 H2 H 0.03991 0.12736 0.52020
 C3 C -0.00996 0.15520 0.53304
 H4 H 0.02550 0.18497 0.54101
 C5 C -0.09921 0.07700 0.51267
 H6 H -0.13376 0.04619 0.50476
 C7 C -0.10934 0.10871 0.52436
 H8 H -0.15182 0.10214 0.52553
 N9 N -0.04619 0.08393 0.51166
 C10 C -0.01077 -0.05330 0.50677
 H11 H -0.00811 -0.05209 0.49172
 C12 C -0.00989 -0.09764 0.51866
 H13 H -0.00603 -0.13044 0.51280
 C14 C -0.02250 -0.01417 0.53283
 H15 H -0.02919 0.01722 0.53835
 C16 C -0.02162 -0.05745 0.54516
 H17 H -0.02699 -0.05870 0.56009
 Zn18 Zn -0.02870 0.04046 0.49749
 N19 N -0.01747 -0.01296 0.51400
 C20 C 0.08370 0.08564 0.48307
 N21 N 0.03750 0.09253 0.48349
 C22 C 0.03620 0.13777 0.47356
 C23 C 0.08174 0.17733 0.46211
 C24 C 0.13030 0.12433 0.47170
 C25 C -0.13741 -0.04721 0.48803
 C26 C -0.17807 -0.08472 0.47611
 C27 C -0.11749 -0.02681 0.44968
 C28 C -0.07804 0.00923 0.46207
 N29 N -0.08819 -0.00179 0.48088
 H30 H 0.08405 0.04974 0.49124
 H31 H -0.00096 0.14233 0.47427
 H32 H 0.07967 0.21243 0.45391
 H33 H 0.16642 0.11799 0.47102
 H34 H -0.14386 -0.05575 0.50307
 H35 H -0.21615 -0.12191 0.48202
 H36 H -0.10783 -0.01837 0.43480
 H37 H -0.03828 0.04452 0.45662
 C38 C -0.01604 -0.09997 0.53802
 C39 C -0.06426 0.14775 0.53475
 C40 C -0.16749 -0.07484 0.45676
 C41 C 0.12893 0.17025 0.46100
 C42 C 1.17206 0.07225 0.14299
 H43 H 1.17697 0.11415 0.14331
 C44 C 1.20751 0.06524 0.13167
 H45 H 1.23981 0.10181 0.12320
 C46 C 1.12284 -0.02690 0.15327
 H47 H 1.08955 -0.06259 0.16164
 C48 C 1.15744 -0.03584 0.14204
 H49 H 1.15058 -0.07853 0.14169
 N50 N 1.13012 0.02642 0.15323
 C51 C 0.99134 0.06121 0.15665
 H52 H 0.98784 0.06043 0.17164
 C53 C 0.94986 0.06337 0.14458
 H54 H 0.91457 0.06476 0.15023
 C55 C 1.03913 0.05611 0.13100
 H56 H 1.07267 0.05126 0.12576
 C57 C 0.99886 0.05844 0.11849
 H58 H 1.00204 0.05597 0.10368
 Zn59 Zn 1.08250 0.04167 0.16673
 N60 N 1.03445 0.05692 0.14973
 C61 C 1.12300 0.15062 0.18020
 N62 N 1.13023 0.10456 0.18024
 C63 C 1.17220 0.10067 0.19046
 C64 C 1.20772 0.14314 0.20178
 C65 C 1.15767 0.19418 0.19143
 C66 C 0.99133 -0.06902 0.17683
 C67 C 0.94989 -0.11263 0.18892
 C68 C 0.99906 -0.05863 0.21500
 C69 C 1.03929 -0.01607 0.20247
 N70 N 1.03451 -0.02160 0.18375
 H71 H 1.08968 0.15304 0.17184
 H72 H 1.17708 0.06366 0.19014
 H73 H 1.24005 0.13886 0.21025
 H74 H 1.15084 0.23003 0.19179
 H75 H 0.98776 -0.07179 0.16185
 H76 H 0.91456 -0.14932 0.18327
 H77 H 1.00233 -0.05295 0.22980
 H78 H 1.07288 0.02233 0.20771
 C79 C 0.95332 0.06110 0.12535
 C80 C 1.19973 0.01067 0.13101
 C81 C 0.95346 -0.10684 0.20814
 C82 C 1.19999 0.18995 0.20246
 C83 C 0.03567 0.89766 0.85963
 H84 H -0.00144 0.85592 0.85889
 C85 C 0.08115 0.90369 0.87114
 H86 H 0.07909 0.86653 0.87934
 C87 C 0.08308 0.99731 0.85017
 H88 H 0.08343 1.03357 0.84200
 C89 C 0.12963 1.00528 0.86159
 H90 H 0.16570 1.04777 0.86231
 N91 N 0.03695 0.94418 0.84970
 C92 C -0.13801 0.90878 0.84501
 H93 H -0.14443 0.91086 0.82997
 C94 C -0.17872 0.90558 0.85691
 H95 H -0.21681 0.90467 0.85101
 C96 C -0.07869 0.91178 0.87103
 H97 H -0.03894 0.91630 0.87651
 C98 C -0.11821 0.90832 0.88337
 H99 H -0.10871 0.90957 0.89827
 Zn100 Zn -0.02921 0.92998 0.83564
 N101 N -0.08879 0.91264 0.85221
 C102 C -0.09957 0.82291 0.82043
 N103 N -0.04658 0.86904 0.82146
 C104 C -0.00211 0.87476 0.81183
 C105 C -0.01023 0.83410 0.80010
 C106 C -0.10962 0.78110 0.80874
 C107 C -0.01134 1.04166 0.82636
 C108 C -0.01045 1.08688 0.81447
 C109 C -0.02210 1.03496 0.78796
 C110 C -0.02299 0.99080 0.80030
 N111 N -0.01800 0.99463 0.81913
 H112 H -0.13416 0.81912 0.82831
 H113 H 0.03954 0.91182 0.81297
 H114 H 0.02525 0.83983 0.79216
 H115 H -0.15208 0.74516 0.80754
 H116 H -0.00872 1.04311 0.84141
 H117 H -0.00662 1.12353 0.82032
 H118 H -0.02743 1.03085 0.77304
 H119 H -0.02965 0.95273 0.79479
 C120 C -0.16818 0.90629 0.87626
 C121 C 0.12827 0.95800 0.87229
 C122 C -0.01655 1.08305 0.79510
 C123 C -0.06450 0.78720 0.79837
 C124 C 0.41746 -0.02317 -0.01536
 C125 C 0.39745 -0.01889 0.00149
 C126 C 0.42784 -0.01462 0.01819
 C127 C 0.48039 -0.01345 0.01816
 C128 C 0.50062 -0.01895 0.00119
 C129 C 0.46874 -0.02442 -0.01562
 C130 C 0.48897 -0.03100 -0.03219
 C131 C 0.53949 -0.03246 -0.03224
 C132 C 0.57211 -0.02632 -0.01579
 C133 C 0.55282 -0.01891 0.00103
 C134 C 0.51322 -0.00685 0.03457
 C135 C 0.56519 -0.00534 0.03430
 C136 C 0.58567 -0.01142 0.01770
 C137 C 0.63814 -0.01025 0.01725
 C138 C 0.65612 -0.01873 0.00071
 C139 C 0.62361 -0.02730 -0.01567
 H140 H 0.46561 -0.03552 -0.04525
 H141 H 0.55305 -0.03796 -0.04533
 H142 H 0.49917 -0.00234 0.04773
 H143 H 0.58903 0.00020 0.04728
 H144 H 0.35755 -0.01880 0.00160
 H145 H 0.69611 -0.01862 0.00059
 C146 C -0.07604 0.36318 0.64941
 C147 C -0.07366 0.33365 0.66645
 C148 C -0.07169 0.35433 0.68353
 C149 C -0.07352 0.40523 0.68377
 C150 C -0.07483 0.43621 0.66653
 C151 C -0.07551 0.41542 0.64924
 C152 C -0.07522 0.44759 0.63231
 C153 C -0.07366 0.49957 0.63234
 C154 C -0.07344 0.52069 0.64931
 C155 C -0.07480 0.48838 0.66656
 C156 C -0.07377 0.42612 0.70074
 C157 C -0.07528 0.47657 0.70078
 C158 C -0.07551 0.50847 0.68385
 C159 C -0.07599 0.56022 0.68368
 C160 C -0.07355 0.59215 0.66663
 C161 C -0.07155 0.57346 0.64955
 H162 H -0.07559 0.43307 0.61887
 H163 H -0.07297 0.52296 0.61894
 H164 H -0.07313 0.40339 0.71415
 H165 H -0.07568 0.49070 0.71421
 H166 H -0.07269 0.29423 0.66642
 H167 H -0.07255 0.63255 0.66667
 C168 C 0.42860 0.44325 0.31534
 C169 C 0.39828 0.41708 0.33205
 C170 C 0.41836 0.44136 0.34890
 C171 C 0.46963 0.49393 0.34917
 C172 C 0.50142 0.52038 0.33236
 C173 C 0.48113 0.49466 0.31538
 C174 C 0.51387 0.52094 0.29897
 C175 C 0.56582 0.57142 0.29924
 C176 C 0.58637 0.59799 0.31585
 C177 C 0.55360 0.57258 0.33252
 C178 C 0.48993 0.52072 0.36575
 C179 C 0.54043 0.57273 0.36580
 C180 C 0.57296 0.59926 0.34935
 C181 C 0.62444 0.65177 0.34924
 C182 C 0.65686 0.67576 0.33284
 C183 C 0.63882 0.64932 0.31629
 H184 H 0.49977 0.50237 0.28580
 H185 H 0.58960 0.58975 0.28625
 H186 H 0.46663 0.50185 0.37881
 H187 H 0.55404 0.59178 0.37890
 H188 H 0.35839 0.37707 0.33193
 H189 H 0.69684 0.71567 0.33297
 C190 C -0.07890 0.23379 0.57530
 C191 C -0.03286 0.29714 0.57374
 C192 C -0.03317 0.32502 0.58825
 C193 C -0.07947 0.28682 0.60290
 C194 C -0.06954 0.23645 0.60904
 C195 C -0.06923 0.20863 0.59456
 C196 C -0.13509 0.23336 0.57720
 C197 C -0.13539 0.26129 0.59174
 C198 C -0.07737 0.20342 0.55998
 C199 C -0.07316 0.17804 0.54807
 C200 C -0.07913 0.31614 0.61880
 C201 C -0.07796 0.33858 0.63244
 H202 H -0.00279 0.31828 0.56221
 H203 H -0.00338 0.37003 0.58917
 H204 H -0.06334 0.22367 0.62353
 H205 H -0.06279 0.17203 0.59666
 H206 H -0.17130 0.21306 0.56796
 H207 H -0.17189 0.26494 0.59495
 C208 C 0.82770 0.78842 0.24641
 C209 C 0.77518 0.79580 0.24368
 C210 C 0.73509 0.76575 0.25732
 C211 C 0.75144 0.73127 0.27236
 C212 C 0.80931 0.77502 0.27982
 C213 C 0.84932 0.80500 0.26621
 C214 C 0.80427 0.72368 0.24779
 C215 C 0.76411 0.69358 0.26146
 C216 C 0.87147 0.82213 0.23201
 C217 C 0.90849 0.85286 0.22078
 C218 C 0.70907 0.69995 0.28733
 C219 C 0.67605 0.67605 0.30021
 H220 H 0.76987 0.82216 0.23201
 H221 H 0.69545 0.76636 0.25734
 H222 H 0.81813 0.78182 0.29454
 H223 H 0.89239 0.83746 0.26928
 H224 H 0.81791 0.70332 0.23883
 H225 H 0.74331 0.64740 0.26420
 C226 C 0.24822 -0.02983 -0.08806
 C227 C 0.31075 0.01454 -0.09231
 C228 C 0.34690 0.01570 -0.07807
 C229 C 0.31686 -0.02765 -0.06103
 C230 C 0.28348 -0.08565 -0.06893
 C231 C 0.24738 -0.08681 -0.08314
 C232 C 0.23544 -0.01565 -0.06952
 C233 C 0.27147 -0.01450 -0.05533
 C234 C 0.20827 -0.03176 -0.10304
 C235 C 0.17306 -0.03521 -0.11467
 C236 C 0.35478 -0.02651 -0.04544
 C237 C 0.38419 -0.02534 -0.03204
 H238 H 0.32533 0.04247 -0.10533
 H239 H 0.39248 0.04460 -0.07890
 H240 H 0.28792 -0.12250 -0.06386
 H241 H 0.22088 -0.12468 -0.09024
 H242 H 0.20110 -0.00718 -0.06769
 H243 H 0.26795 -0.00506 -0.04136
 C244 C -0.03434 0.76826 0.57690
 C245 C 0.00746 0.74598 0.57641
 C246 C -0.00079 0.70418 0.59054
 C247 C -0.05001 0.68889 0.60374
 C248 C -0.10188 0.67325 0.59087
 C249 C -0.09363 0.71500 0.57676
 C250 C -0.02798 0.78725 0.59661
 C251 C -0.03620 0.74562 0.61068
 C252 C -0.02591 0.81393 0.56207
 C253 C -0.02041 0.85272 0.55066
 C254 C -0.05876 0.64495 0.61927
 C255 C -0.06521 0.61109 0.63271
 H256 H 0.04044 0.76150 0.56589
 H257 H 0.02512 0.68387 0.59212
 H258 H -0.14147 0.63291 0.59265
 H259 H -0.12620 0.71041 0.56643
 H260 H -0.01786 0.82978 0.59929
 H261 H -0.03313 0.75251 0.62541
 C262 C 0.29311 0.29804 0.24212
 C263 C 0.26519 0.27144 0.26142
 C264 C 0.29476 0.30295 0.27569
 C265 C 0.34947 0.35809 0.26930
 C266 C 0.33037 0.38995 0.25410
 C267 C 0.30069 0.35832 0.23979
 C268 C 0.35360 0.30718 0.24446
 C269 C 0.38324 0.33878 0.25875
 C270 C 0.26067 0.26277 0.22707
 C271 C 0.23322 0.23103 0.21543
 C272 C 0.38044 0.39097 0.28499
 C273 C 0.40370 0.41584 0.29850
 H274 H 0.22554 0.23133 0.26370
 H275 H 0.28043 0.28980 0.29017
 H276 H 0.33946 0.43347 0.25453
 H277 H 0.28432 0.37471 0.22796
 H278 H 0.37161 0.29046 0.23563
 H279 H 0.42663 0.34913 0.26217
 C280 C 0.73968 -0.07494 -0.08623
 C281 C 0.73430 -0.02120 -0.09090
 C282 C 0.70849 -0.01173 -0.07715
 C283 C 0.69061 -0.05692 -0.06008
 C284 C 0.74510 -0.05764 -0.05360
 C285 C 0.77084 -0.06708 -0.06731
 C286 C 0.67885 -0.12377 -0.08190
 C287 C 0.65301 -0.11428 -0.06813
 C288 C 0.76907 -0.08434 -0.10071
 C289 C 0.79680 -0.08995 -0.11190
 C290 C 0.66408 -0.04643 -0.04498
 C291 C 0.64458 -0.03760 -0.03195
 H292 H 0.74925 0.00681 -0.10389
 H293 H 0.70132 0.02438 -0.07835
 H294 H 0.76202 -0.05131 -0.03944
 H295 H 0.80979 -0.06885 -0.06488
 H296 H 0.65792 -0.16224 -0.08903
 H297 H 0.60990 -0.14464 -0.06346
 C298 C 0.29266 -0.00451 0.09137
 C299 C 0.29797 -0.05851 0.09328
 C300 C 0.32758 -0.06054 0.07898
 C301 C 0.34891 -0.00835 0.06421
 C302 C 0.38361 0.04345 0.07529
 C303 C 0.35403 0.04547 0.08957
 C304 C 0.26607 -0.00326 0.07196
 C305 C 0.29558 -0.00528 0.05771
 C306 C 0.26029 -0.00160 0.10641
 C307 C 0.23290 0.00275 0.11805
 C308 C 0.37981 -0.01034 0.04853
 C309 C 0.40302 -0.01203 0.03502
 H310 H 0.28017 -0.09208 0.10484
 H311 H 0.33518 -0.09585 0.07829
 H312 H 0.42755 0.07558 0.07222
 H313 H 0.37264 0.07937 0.09875
 H314 H 0.22734 -0.00105 0.06961
 H315 H 0.28211 -0.00478 0.04315
 C316 C 0.74130 0.81566 0.41976
 C317 C 0.77206 0.83902 0.40078
 C318 C 0.74614 0.80376 0.38709
 C319 C 0.69186 0.74843 0.39364
 C320 C 0.65429 0.76800 0.40181
 C321 C 0.68033 0.80341 0.41556
 C322 C 0.73621 0.75665 0.42437
 C323 C 0.71020 0.72129 0.41064
 C324 C 0.77092 0.85453 0.43421
 C325 C 0.79888 0.88795 0.44537
 C326 C 0.66514 0.71135 0.37855
 C327 C 0.64552 0.68302 0.36553
 H328 H 0.81089 0.87982 0.39830
 H329 H 0.76278 0.81438 0.37289
 H330 H 0.61106 0.75507 0.39723
 H331 H 0.65944 0.82082 0.42277
 H332 H 0.75149 0.74372 0.43732
 H333 H 0.70321 0.67808 0.41181
 C334 C -0.03473 0.19658 0.75620
 C335 C -0.08811 0.20091 0.75875
 C336 C -0.09631 0.23447 0.74462
 C337 C -0.05032 0.26032 0.72936
 C338 C -0.04971 0.20912 0.72270
 C339 C -0.04154 0.17569 0.73677
 C340 C 0.01436 0.25857 0.75400
 C341 C 0.00616 0.29213 0.73987
 C342 C -0.02635 0.15931 0.77103
 C343 C -0.02088 0.12601 0.78245
 C344 C -0.05901 0.29555 0.71383
 C345 C -0.06542 0.32299 0.70038
 H346 H -0.11681 0.17966 0.77062
 H347 H -0.13200 0.24198 0.74439
 H348 H -0.05524 0.19990 0.70816
 H349 H -0.04005 0.13785 0.73429
 H350 H 0.05209 0.27471 0.76278
 H351 H 0.03687 0.33704 0.73655
 C352 C 0.82737 0.03993 0.08710
 C353 C 0.81521 0.08937 0.08217
 C354 C 0.77498 0.07923 0.06852
 C355 C 0.75097 0.02068 0.06117
 C356 C 0.72911 -0.02280 0.07867
 C357 C 0.76930 -0.01268 0.09231
 C358 C 0.84318 0.02944 0.06839
 C359 C 0.80311 0.01934 0.05479
 C360 C 0.87123 0.05007 0.10150
 C361 C 0.90830 0.05640 0.11272
 C362 C 0.70853 0.00956 0.04621
 C363 C 0.67545 0.00036 0.03334
 H364 H 0.83618 0.12871 0.08883
 H365 H 0.76147 0.10990 0.06349
 H366 H 0.68588 -0.05827 0.08024
 H367 H 0.76049 -0.03949 0.10557
 H368 H 0.88252 0.02994 0.06602
 H369 H 0.80813 0.01117 0.04078
 C370 C 0.24907 0.27836 0.42148
 C371 C 0.30662 0.28035 0.42251
 C372 C 0.34281 0.31544 0.40832
 C373 C 0.31781 0.34501 0.39453
 C374 C 0.29989 0.37596 0.40675
 C375 C 0.26372 0.34089 0.42093
 C376 C 0.22585 0.26131 0.40185
 C377 C 0.26191 0.29629 0.38771
 C378 C 0.20906 0.24022 0.43642
 C379 C 0.17379 0.20837 0.44802
 C380 C 0.35577 0.38191 0.37897
 C381 C 0.38516 0.41022 0.36558
 H382 H 0.31798 0.25644 0.43342
 H383 H 0.38521 0.32162 0.40707
 H384 H 0.31443 0.42137 0.40450
 H385 H 0.24726 0.35628 0.43084
 H386 H 0.18462 0.22487 0.39928
 H387 H 0.25156 0.28979 0.37303
 C388 C -0.07897 0.68662 0.75781
 C389 C -0.04643 0.65384 0.76201
 C390 C -0.04669 0.62567 0.74748
 C391 C -0.07947 0.63309 0.73020
 C392 C -0.05233 0.69786 0.72527
 C393 C -0.05207 0.72593 0.73975
 C394 C -0.13885 0.64188 0.75204
 C395 C -0.13911 0.61369 0.73750
 C396 C -0.07750 0.71848 0.77313
 C397 C -0.07334 0.74803 0.78504
 C398 C -0.07911 0.60413 0.71429
 C399 C -0.07792 0.58288 0.70064
 H400 H -0.02521 0.65272 0.77525
 H401 H -0.02571 0.60042 0.74826
 H402 H -0.03482 0.71981 0.71157
 H403 H -0.03434 0.77193 0.73844
 H404 H -0.17754 0.63303 0.75879
 H405 H -0.17805 0.58066 0.73180
   
