data_POSCAR
  _audit_creation_date              2014-09-24
  _audit_creation_method            'ToBaCCo'
  _symmetry_space_group_name_H-M    'P1'
  _symmetry_Int_Tables_number       1
  _symmetry_cell_setting            triclinic
  loop_
  _symmetry_equiv_pos_as_xyz
 x,y,z
_cell_length_a 30.4260
_cell_length_b 30.4606
_cell_length_c 30.4129
_cell_angle_alpha 86.520400
_cell_angle_beta 95.551300
_cell_angle_gamma 94.179000
loop_
  _atom_site_label
  _atom_site_type_symbol
  _atom_site_fract_x
  _atom_site_fract_y
  _atom_site_fract_z
C1 C 0.60213 0.54295 0.01694
 C2 C 0.59205 0.58682 0.02041
 C3 C 0.54858 0.59929 0.02132
 C4 C 0.51340 0.56567 0.02004
 C5 C 0.52261 0.52087 0.01675
 C6 C 0.56706 0.50935 0.01682
 C7 C 0.57546 0.46433 0.02100
 C8 C 0.54126 0.43156 0.01995
 C9 C 0.49691 0.44211 0.01568
 C10 C 0.48739 0.48712 0.01565
 C11 C 0.46995 0.57476 0.02671
 C12 C 0.43566 0.54203 0.02490
 C13 C 0.44298 0.49832 0.01670
 C14 C 0.40778 0.46473 0.01409
 C15 C 0.41836 0.42064 0.01343
 C16 C 0.46195 0.40873 0.01431
 H17 H 0.60872 0.45366 0.02676
 H18 H 0.55018 0.39773 0.02381
 H19 H 0.46200 0.60703 0.03512
 H20 H 0.40357 0.55130 0.03196
 H21 H 0.61839 0.61261 0.01831
 H22 H 0.39199 0.39478 0.01015
 C23 C -0.00309 0.59302 0.45552
 C24 C -0.00508 0.58301 0.41123
 C25 C -0.00490 0.53955 0.39818
 C26 C -0.00443 0.50452 0.43161
 C27 C -0.00317 0.51437 0.47697
 C28 C -0.00219 0.55875 0.48886
 C29 C -0.00141 0.56771 0.53374
 C30 C -0.00099 0.53398 0.56648
 C31 C -0.00342 0.48966 0.55572
 C32 C -0.00407 0.47972 0.51058
 C33 C -0.00826 0.45991 0.42119
 C34 C -0.00727 0.42618 0.45411
 C35 C -0.00566 0.43524 0.49900
 C36 C -0.00556 0.40106 0.53272
 C37 C -0.00497 0.41145 0.57692
 C38 C -0.00470 0.45501 0.58894
 H39 H -0.00140 0.60097 0.54425
 H40 H 0.00123 0.54329 0.60039
 H41 H -0.01302 0.45016 0.38744
 H42 H -0.00844 0.39281 0.44365
 H43 H -0.00431 0.61027 0.38656
 H44 H -0.00585 0.38495 0.60240
 C45 C 0.54154 -0.00714 0.59636
 C46 C 0.58553 -0.00694 0.58572
 C47 C 0.59669 -0.00648 0.54189
 C48 C 0.56218 -0.00352 0.50684
 C49 C 0.51734 -0.00528 0.51667
 C50 C 0.50692 -0.00885 0.56133
 C51 C 0.46219 -0.01696 0.56956
 C52 C 0.42841 -0.01562 0.53542
 C53 C 0.43778 -0.00694 0.49134
 C54 C 0.48265 -0.00347 0.48164
 C55 C 0.57124 0.00352 0.46231
 C56 C 0.53745 0.00452 0.42820
 C57 C 0.49287 0.00133 0.43699
 C58 C 0.45817 0.00242 0.40240
 C59 C 0.41424 0.00036 0.41271
 C60 C 0.40346 -0.00344 0.45653
 H61 H 0.45267 -0.02540 0.60250
 H62 H 0.39480 -0.02224 0.54401
 H63 H 0.60463 0.00918 0.45301
 H64 H 0.54701 0.00813 0.39481
 H65 H 0.61191 -0.00712 0.61230
 H66 H 0.38800 0.00270 0.38602
 O67 O 0.46974 0.00038 -0.06688
 O68 O 0.46294 -0.00522 0.05354
 O69 O 0.45934 0.05725 -0.00807
 O70 O 0.47405 -0.06233 -0.00413
 O71 O 0.54614 -0.04849 0.00884
 O72 O 0.53181 0.07108 -0.00061
 O73 O 0.53487 0.01141 0.06393
 O74 O 0.54237 0.01136 -0.05620
 Cu75 Cu 0.45929 -0.00387 -0.00765
 Cu76 Cu 0.54604 0.01260 0.00492
 C77 C 0.50728 0.00624 -0.08211
 C78 C 0.49759 0.00305 0.07928
 C79 C 0.49300 0.08457 -0.00474
 C80 C 0.51272 -0.07589 0.00373
 O81 O -0.05402 0.54273 0.98736
 O82 O 0.06644 0.53709 0.99003
 O83 O 0.00055 0.53333 0.92840
 O84 O 0.01062 0.54508 1.04872
 O85 O 0.00214 0.47283 1.05987
 O86 O -0.00497 0.46093 0.93948
 O87 O 0.05895 0.46496 1.00252
 O88 O -0.06210 0.47026 0.99661
 Cu89 Cu 0.00683 0.54679 0.98745
 Cu90 Cu -0.00227 0.45997 1.00067
 C91 C -0.07866 0.50757 0.99171
 C92 C 0.08338 0.50012 0.99695
 C93 C -0.00361 0.49508 0.91340
 C94 C 0.00735 0.51108 1.07485
 O95 O -0.00862 -0.06049 0.45868
 O96 O -0.00741 0.05970 0.46223
 O97 O 0.05261 0.00326 0.45603
 O98 O -0.06759 -0.00509 0.46597
 O99 O -0.05467 -0.01033 0.53870
 O100 O 0.06528 -0.00150 0.52880
 O101 O 0.00588 0.05417 0.53493
 O102 O 0.00510 -0.06627 0.53135
 Cu103 Cu -0.00892 0.00006 0.45339
 Cu104 Cu 0.00662 -0.00656 0.54077
 C105 C -0.00188 -0.08392 0.49431
 C106 C -0.00088 0.07748 0.49919
 C107 C 0.07948 0.00201 0.49075
 C108 C -0.08166 -0.00914 0.50411
 C109 C -0.26464 0.52211 1.00077
 C110 C -0.29860 0.49878 0.97559
 C111 C -0.34265 0.50558 0.98076
 C112 C -0.35328 0.53475 1.01180
 C113 C -0.31785 0.55801 1.03560
 N114 N -0.27531 0.55119 1.02955
 C115 C -0.21746 0.51713 0.99615
 N116 N -0.18807 0.55244 1.00299
 C117 C -0.14395 0.55027 1.00069
 C118 C -0.12687 0.51044 0.99202
 C119 C -0.15649 0.47346 0.98511
 C120 C -0.20186 0.47674 0.98684
 H121 H -0.36835 0.48898 0.95941
 H122 H -0.32382 0.58083 1.05996
 H123 H -0.12221 0.57947 1.00662
 H124 H -0.14459 0.44208 0.97851
 H125 H -0.29127 0.47658 0.95121
 H126 H -0.22421 0.44775 0.98218
 C127 C 0.27163 0.48712 1.00361
 C128 C 0.30033 0.51495 0.97924
 C129 C 0.34539 0.50786 0.98280
 C130 C 0.36235 0.47344 1.01096
 C131 C 0.33201 0.44582 1.03387
 N132 N 0.28835 0.45335 1.02976
 C133 C 0.22345 0.49217 1.00086
 N134 N 0.19621 0.45638 1.01127
 C135 C 0.15164 0.45813 1.01015
 C136 C 0.13189 0.49790 0.99836
 C137 C 0.15934 0.53540 0.98796
 C138 C 0.20506 0.53271 0.98916
 H139 H 0.36670 0.52845 0.96231
 H140 H 0.34306 0.41887 1.05607
 H141 H 0.13179 0.42845 1.01866
 H142 H 0.14552 0.56683 0.97894
 H143 H 0.28817 0.54107 0.95665
 H144 H 0.22558 0.56225 0.98184
 C145 C -0.00019 -0.27048 0.48020
 C146 C 0.03530 -0.29504 0.49789
 C147 C 0.03450 -0.33971 0.48993
 C148 C -0.00193 -0.35990 0.46530
 C149 C -0.03647 -0.33417 0.44790
 N150 N -0.03467 -0.29061 0.45548
 C151 C -0.00021 -0.22282 0.48567
 N152 N -0.02035 -0.19730 0.45255
 C153 C -0.02141 -0.15305 0.45478
 C154 C -0.00186 -0.13210 0.49232
 C155 C 0.01826 -0.15787 0.52733
 C156 C 0.01937 -0.20326 0.52404
 H157 H 0.06224 -0.35853 0.50276
 H158 H -0.06473 -0.34869 0.42816
 H159 H -0.03766 -0.13438 0.42725
 H160 H 0.03361 -0.14288 0.55691
 H161 H 0.06387 -0.27973 0.51650
 H162 H 0.03481 -0.22278 0.55140
 C163 C -0.00598 0.26414 0.51071
 C164 C -0.04166 0.28794 0.49200
 C165 C -0.04165 0.33279 0.49895
 C166 C -0.00580 0.35391 0.52358
 C167 C 0.02894 0.32893 0.54202
 N168 N 0.02791 0.28519 0.53541
 C169 C -0.00509 0.21640 0.50611
 N170 N 0.01489 0.19153 0.53990
 C171 C 0.01676 0.14727 0.53832
 C172 C -0.00170 0.12566 0.50076
 C173 C -0.02165 0.15078 0.46513
 C174 C -0.02362 0.19614 0.46776
 H175 H -0.06959 0.35099 0.48539
 H176 H 0.05673 0.34417 0.56186
 H177 H 0.03280 0.12912 0.56633
 H178 H -0.03620 0.13531 0.43552
 H179 H -0.06979 0.27192 0.47335
 H180 H -0.03888 0.21512 0.43989
 C181 C 0.52182 0.00286 -0.26893
 C182 C 0.49644 0.02698 -0.30153
 C183 C 0.50289 0.02375 -0.34601
 C184 C 0.53392 -0.00419 -0.35853
 C185 C 0.55926 -0.02695 -0.32438
 N186 N 0.55261 -0.02292 -0.28132
 C187 C 0.51685 0.00534 -0.22132
 N188 N 0.55274 -0.00017 -0.19165
 C189 C 0.55058 0.00074 -0.14729
 C190 C 0.51023 0.00663 -0.13037
 C191 C 0.47269 0.01198 -0.16033
 C192 C 0.47589 0.01160 -0.20580
 H193 H 0.48446 0.04424 -0.37052
 H194 H 0.58346 -0.04911 -0.33177
 H195 H 0.58025 -0.00388 -0.12533
 H196 H 0.44088 0.01644 -0.14863
 H197 H 0.47279 0.04909 -0.29282
 H198 H 0.44643 0.01505 -0.22835
 C199 C 0.47946 0.00723 0.26530
 C200 C 0.49619 0.04263 0.29094
 C201 C 0.48901 0.04146 0.33567
 C202 C 0.46608 0.00478 0.35494
 C203 C 0.44909 -0.02939 0.32803
 N204 N 0.45601 -0.02732 0.28447
 C205 C 0.48551 0.00688 0.21773
 N206 N 0.45363 -0.01404 0.19048
 C207 C 0.45688 -0.01582 0.14638
 C208 C 0.49429 0.00369 0.12738
 C209 C 0.52799 0.02468 0.15502
 C210 C 0.52364 0.02655 0.20013
 H211 H 0.50144 0.06897 0.35532
 H212 H 0.43054 -0.05781 0.34173
 H213 H 0.43029 -0.03262 0.12629
 H214 H 0.55742 0.04011 0.14168
 H215 H 0.51380 0.07124 0.27648
 H216 H 0.55012 0.04255 0.22100
 C217 C 0.53491 -0.26308 0.01799
 C218 C 0.56811 -0.28196 0.04671
 C219 C 0.57196 -0.32736 0.04821
 C220 C 0.54241 -0.35483 0.02180
 C221 C 0.50927 -0.33442 -0.00622
 N222 N 0.50638 -0.28992 -0.00727
 C223 C 0.53032 -0.21473 0.01448
 N224 N 0.48995 -0.19908 0.00177
 C225 C 0.48348 -0.15516 -0.00191
 C226 C 0.51905 -0.12391 0.00713
 C227 C 0.56105 -0.13935 0.01954
 C228 C 0.56683 -0.18450 0.02320
 H229 H 0.59768 -0.34114 0.07093
 H230 H 0.48683 -0.35348 -0.02871
 H231 H 0.45058 -0.14476 -0.01194
 H232 H 0.58953 -0.11654 0.02647
 H233 H 0.59069 -0.26213 0.06835
 H234 H 0.59975 -0.19535 0.03202
 C235 C 0.47473 0.27020 0.00689
 C236 C 0.45217 0.28541 0.04049
 C237 C 0.44933 0.33059 0.04359
 C238 C 0.46872 0.36080 0.01327
 C239 C 0.49118 0.34426 -0.01977
 N240 N 0.49394 0.30001 -0.02187
 C241 C 0.47798 0.22245 0.00241
 N242 N 0.51615 0.20770 -0.00936
 C243 C 0.52149 0.16403 -0.01257
 C244 C 0.48693 0.13235 -0.00421
 C245 C 0.44690 0.14703 0.00668
 C246 C 0.44240 0.19191 0.01028
 H247 H 0.43163 0.34204 0.06946
 H248 H 0.50588 0.36649 -0.04424
 H249 H 0.55278 0.15410 -0.02142
 H250 H 0.41941 0.12376 0.01340
 H251 H 0.43719 0.26266 0.06436
 H252 H 0.41132 0.20261 0.01888
 C253 C -0.26841 -0.01468 0.52262
 C254 C -0.30085 -0.04019 0.49769
 C255 C -0.34539 -0.03781 0.50420
 C256 C -0.35813 -0.00938 0.53483
 C257 C -0.32415 0.01431 0.56018
 N258 N -0.28103 0.01124 0.55337
 C259 C -0.22076 -0.01534 0.51683
 N260 N -0.19061 -0.00694 0.55189
 C261 C -0.14625 -0.00561 0.54879
 C262 C -0.12985 -0.01209 0.50826
 C263 C -0.16033 -0.02051 0.47158
 C264 C -0.20574 -0.02235 0.47576
 H265 H -0.36984 -0.05899 0.48588
 H266 H -0.33179 0.03663 0.58432
 H267 H -0.12391 0.00129 0.57783
 H268 H -0.14910 -0.02554 0.43966
 H269 H -0.29197 -0.06250 0.47414
 H270 H -0.22867 -0.02799 0.44685
 C271 C 0.26649 0.00311 0.47542
 C272 C 0.29827 0.03174 0.49759
 C273 C 0.34294 0.02947 0.49164
 C274 C 0.35613 -0.00177 0.46441
 C275 C 0.32328 -0.02938 0.44242
 N276 N 0.27991 -0.02620 0.44827
 C277 C 0.21872 0.00455 0.48014
 N278 N 0.18890 -0.00565 0.44532
 C279 C 0.14447 -0.00571 0.44760
 C280 C 0.12770 0.00402 0.48704
 C281 C 0.15786 0.01429 0.52344
 C282 C 0.20332 0.01483 0.52008
 H283 H 0.36723 0.05231 0.50798
 H284 H 0.33214 -0.05343 0.42060
 H285 H 0.12233 -0.01422 0.41889
 H286 H 0.14632 0.02180 0.55455
 H287 H 0.28871 0.05632 0.51841
 H288 H 0.22601 0.02211 0.54875
 C289 C 0.00082 0.52802 1.26123
 C290 C -0.02884 0.55567 1.27599
 C291 C -0.03132 0.55847 1.32115
 C292 C -0.00460 0.53359 1.35226
 C293 C 0.02468 0.50612 1.33581
 N294 N 0.02638 0.50385 1.29142
 C295 C 0.00457 0.52485 1.21348
 N296 N 0.01136 0.48531 1.19758
 C297 C 0.01319 0.48020 1.15364
 C298 C 0.00833 0.51633 1.12298
 C299 C 0.00270 0.55760 1.13895
 C300 C 0.00067 0.56195 1.18403
 H301 H -0.05490 0.57970 1.33175
 H302 H 0.04760 0.48795 1.35809
 H303 H 0.01804 0.44789 1.14271
 H304 H -0.00103 0.58637 1.11654
 H305 H -0.05037 0.57459 1.25288
 H306 H -0.00378 0.59407 1.19570
 C307 C -0.00977 0.47479 0.72636
 C308 C -0.04225 0.49185 0.69537
 C309 C -0.04088 0.48517 0.65054
 C310 C -0.00661 0.46262 0.63650
 C311 C 0.02468 0.44536 0.66861
 N312 N 0.02230 0.45166 0.71215
 C313 C -0.00988 0.48071 0.77413
 N314 N 0.00370 0.44787 0.80356
 C315 C 0.00517 0.45144 0.84803
 C316 C -0.00648 0.49029 0.86517
 C317 C -0.02010 0.52476 0.83542
 C318 C -0.02219 0.51997 0.78990
 H319 H -0.06644 0.49766 0.62676
 H320 H 0.05110 0.42706 0.65902
 H321 H 0.01625 0.42427 0.86990
 H322 H -0.02925 0.55530 0.84736
 H323 H -0.06888 0.50934 0.70571
 H324 H -0.03227 0.54705 0.76736
   
