data_POSCAR
  _audit_creation_date              2014-09-24
  _audit_creation_method            'ToBaCCo'
  _symmetry_space_group_name_H-M    'P1'
  _symmetry_Int_Tables_number       1
  _symmetry_cell_setting            triclinic
  loop_
  _symmetry_equiv_pos_as_xyz
 x,y,z
_cell_length_a 33.5448
_cell_length_b 32.6135
_cell_length_c 33.7982
_cell_angle_alpha 90.194400
_cell_angle_beta 89.819400
_cell_angle_gamma 90.033900
loop_
  _atom_site_label
  _atom_site_type_symbol
  _atom_site_fract_x
  _atom_site_fract_y
  _atom_site_fract_z
C1 C 0.59568 0.65147 0.62343
 C2 C 0.62606 0.65149 0.59489
 C3 C 0.65630 0.62189 0.59593
 C4 C 0.65621 0.59222 0.62589
 C5 C 0.62582 0.59155 0.65479
 C6 C 0.59552 0.62143 0.65304
 H7 H 0.62622 0.67458 0.57189
 H8 H 0.67984 0.56957 0.62635
 H9 H 0.57184 0.62182 0.67493
 C10 C 0.90510 0.34478 0.12324
 C11 C 0.90330 0.37478 0.15331
 C12 C 0.87365 0.40512 0.15308
 C13 C 0.84513 0.40530 0.12288
 C14 C 0.84624 0.37555 0.09289
 C15 C 0.87627 0.34564 0.09301
 H16 H 0.92515 0.37502 0.17687
 H17 H 0.82206 0.42856 0.12272
 H18 H 0.87673 0.32286 0.06959
 C19 C 0.40344 0.15540 -0.12403
 C20 C 0.37371 0.15454 -0.09479
 C21 C 0.34402 0.12424 -0.09552
 C22 C 0.34424 0.09463 -0.12572
 C23 C 0.37385 0.09525 -0.15515
 C24 C 0.40338 0.12573 -0.15418
 H25 H 0.37365 0.17746 -0.07148
 H26 H 0.32135 0.07116 -0.12635
 H27 H 0.42631 0.12637 -0.17684
 C28 C 0.09561 0.84488 0.37611
 C29 C 0.09716 0.87470 0.34604
 C30 C 0.12711 0.90475 0.34576
 C31 C 0.15618 0.90483 0.37543
 C32 C 0.15534 0.87528 0.40542
 C33 C 0.12501 0.84565 0.40582
 H34 H 0.07489 0.87500 0.32288
 H35 H 0.17946 0.92790 0.37519
 H36 H 0.12472 0.82303 0.42924
 N37 N 0.07615 0.18738 0.10604
 N38 N 0.06356 0.17393 0.14053
 C39 C 0.03234 0.19688 0.15247
 C40 C 0.02458 0.22542 0.12344
 C41 C 0.05269 0.21850 0.09431
 H42 H 0.01583 0.19266 0.17969
 H43 H 0.05637 0.23553 0.06713
 Cu44 Cu 0.08769 0.12609 0.16493
 Cu45 Cu 0.12365 0.16551 0.08036
 Cu46 Cu 0.16889 0.08192 0.12477
 N47 N 0.11238 0.07824 0.18873
 N48 N 0.14507 0.06212 0.17376
 C49 C 0.15647 0.03030 0.19635
 C50 C 0.12902 0.02587 0.22657
 C51 C 0.10136 0.05659 0.22083
 H52 H 0.18213 0.01110 0.19064
 H53 H 0.07535 0.06272 0.23888
 N54 N 0.18843 0.10646 0.07512
 N55 N 0.17204 0.13920 0.05905
 C56 C 0.19346 0.15011 0.02699
 C57 C 0.22423 0.12246 0.02232
 C58 C 0.22014 0.09507 0.05310
 H59 H 0.18711 0.17604 0.00819
 H60 H 0.23949 0.06944 0.05944
 H61 H 0.11730 0.10648 0.10168
 H62 H 0.14985 0.14189 0.13070
 N63 N 0.42356 0.81050 0.60458
 N64 N 0.43793 0.82601 0.63756
 C65 C 0.46961 0.80365 0.64893
 C66 C 0.47573 0.77307 0.62122
 C67 C 0.44614 0.77833 0.59338
 H68 H 0.48730 0.80935 0.67508
 H69 H 0.44096 0.75960 0.56743
 Cu70 Cu 0.41449 0.87460 0.66168
 Cu71 Cu 0.37551 0.83186 0.57984
 Cu72 Cu 0.33226 0.91754 0.62336
 N73 N 0.39052 0.92319 0.68527
 N74 N 0.35735 0.93874 0.67112
 C75 C 0.34602 0.97065 0.69389
 C76 C 0.37398 0.97573 0.72339
 C77 C 0.40191 0.94530 0.71704
 H78 H 0.31981 0.98922 0.68901
 H79 H 0.42809 0.93940 0.73471
 N80 N 0.31135 0.89161 0.57495
 N81 N 0.32684 0.85801 0.55931
 C82 C 0.30478 0.84668 0.52786
 C83 C 0.27457 0.87493 0.52315
 C84 C 0.27963 0.90307 0.55328
 H85 H 0.31053 0.82027 0.50929
 H86 H 0.26109 0.92950 0.55926
 H87 H 0.38296 0.89161 0.59896
 H88 H 0.35120 0.85766 0.63034
 N89 N 0.92411 0.68780 0.39464
 N90 N 0.93648 0.67448 0.35995
 C91 C 0.96757 0.69754 0.34798
 C92 C 0.97551 0.72602 0.37718
 C93 C 0.94762 0.71897 0.40648
 H94 H 0.98386 0.69344 0.32059
 H95 H 0.94410 0.73594 0.43381
 Cu96 Cu 0.91230 0.62667 0.33521
 Cu97 Cu 0.87677 0.66567 0.42040
 Cu98 Cu 0.83143 0.58210 0.37529
 N99 N 0.88762 0.57884 0.31103
 N100 N 0.85502 0.56257 0.32595
 C101 C 0.84362 0.53076 0.30311
 C102 C 0.87099 0.52651 0.27277
 C103 C 0.89860 0.55732 0.27871
 H104 H 0.81806 0.51140 0.30877
 H105 H 0.92457 0.56356 0.26067
 N106 N 0.81212 0.60635 0.42532
 N107 N 0.82852 0.63907 0.44169
 C108 C 0.80721 0.64971 0.47399
 C109 C 0.77655 0.62190 0.47848
 C110 C 0.78057 0.59471 0.44736
 H111 H 0.81359 0.67556 0.49307
 H112 H 0.76126 0.56904 0.44081
 H113 H 0.88310 0.60677 0.39845
 H114 H 0.85034 0.64220 0.36998
 N115 N 0.57536 0.31437 -0.10322
 N116 N 0.55829 0.33310 -0.13310
 C117 C 0.52607 0.31150 -0.14451
 C118 C 0.52244 0.27796 -0.11992
 C119 C 0.55404 0.28076 -0.09395
 H120 H 0.50638 0.31987 -0.16844
 H121 H 0.56137 0.25944 -0.07064
 Cu122 Cu 0.57851 0.38481 -0.15327
 Cu123 Cu 0.62495 0.33387 -0.08005
 Cu124 Cu 0.66984 0.41665 -0.12589
 N125 N 0.60671 0.42743 -0.18194
 N126 N 0.64340 0.43791 -0.17275
 C127 C 0.65634 0.46645 -0.19848
 C128 C 0.62579 0.47474 -0.22454
 C129 C 0.59465 0.44968 -0.21316
 H130 H 0.68523 0.48117 -0.19748
 H131 H 0.56566 0.44747 -0.22692
 N132 N 0.69159 0.39086 -0.07796
 N133 N 0.67520 0.35835 -0.06132
 C134 C 0.69731 0.34722 -0.02995
 C135 C 0.72852 0.37453 -0.02630
 C136 C 0.72400 0.40190 -0.05701
 H137 H 0.69069 0.32184 -0.01050
 H138 H 0.74306 0.42774 -0.06364
 H139 H 0.62049 0.39516 -0.09532
 H140 H 0.64333 0.35977 -0.13281
 N141 N -0.04227 0.30817 0.15609
 C142 C -0.06490 0.31462 0.12336
 N143 N -0.05773 0.29124 0.09070
 N144 N -0.02898 0.26307 0.09061
 C145 C -0.00684 0.25655 0.12348
 N146 N -0.01409 0.27940 0.15630
 N147 N 0.54759 0.69482 0.58804
 C148 C 0.56436 0.68309 0.62272
 N149 N 0.55183 0.70108 0.65684
 N150 N 0.52378 0.72996 0.65629
 C151 C 0.50681 0.74145 0.62167
 N152 N 0.51909 0.72327 0.58756
 N153 N 1.05850 0.79174 0.40912
 C154 C 1.06534 0.81498 0.37643
 N155 N 1.04215 0.80857 0.34403
 N156 N 1.01379 0.77997 0.34416
 C157 C 1.00688 0.75724 0.37699
 N158 N 1.02957 0.76374 0.40954
 N159 N 0.45324 0.19669 -0.08864
 C160 C 0.43451 0.18724 -0.12303
 N161 N 0.44483 0.20775 -0.15643
 N162 N 0.47265 0.23691 -0.15539
 C163 C 0.49158 0.24611 -0.12105
 N164 N 0.48151 0.22538 -0.08773
 N165 N 0.16254 -0.05234 0.29730
 C166 C 0.12771 -0.06372 0.31467
 N167 N 0.09337 -0.04545 0.30298
 N168 N 0.09387 -0.01664 0.27513
 C169 C 0.12864 -0.00552 0.25756
 N170 N 0.16295 -0.02398 0.26901
 N171 N 0.59295 0.55596 -0.29204
 C172 C 0.62577 0.56186 -0.31508
 N173 N 0.65858 0.53850 -0.30807
 N174 N 0.65872 0.51094 -0.27905
 C175 C 0.62577 0.50502 -0.25644
 N176 N 0.59281 0.52783 -0.26357
 N177 N 0.40857 1.04685 0.80075
 C178 C 0.37389 1.06414 0.81317
 N179 N 0.33925 1.05224 0.79591
 N180 N 0.33932 1.02430 0.76706
 C181 C 0.37396 1.00679 0.75488
 N182 N 0.40857 1.01845 0.77232
 N183 N 0.83787 0.44816 0.20142
 C184 C 0.87281 0.43679 0.18421
 N185 N 0.90707 0.45514 0.19619
 N186 N 0.90640 0.48399 0.22417
 C187 C 0.87153 0.49510 0.24160
 N188 N 0.83728 0.47658 0.22985
 N189 N 0.30182 0.08795 -0.04741
 C190 C 0.31277 0.12368 -0.06489
 N191 N 0.29444 0.15894 -0.05360
 N192 N 0.26596 0.15846 -0.02604
 C193 C 0.25526 0.12281 -0.00835
 N194 N 0.27378 0.08758 -0.01940
 N195 N 0.70607 0.65733 0.55488
 C196 C 0.68789 0.62185 0.56561
 N197 N 0.69911 0.58635 0.54768
 N198 N 0.72724 0.58639 0.51976
 C199 C 0.74560 0.62183 0.50925
 N200 N 0.73465 0.65727 0.52742
 N201 N 0.80506 0.41068 0.04338
 C202 C 0.81579 0.37535 0.06163
 N203 N 0.79784 0.33978 0.05071
 N204 N 0.76989 0.33957 0.02280
 C205 C 0.75938 0.37482 0.00436
 N206 N 0.77756 0.41036 0.01502
 N207 N 0.20366 0.83955 0.44754
 C208 C 0.18628 0.87520 0.43621
 N209 N 0.19807 0.91077 0.45359
 N210 N 0.22599 0.91063 0.48155
 C211 C 0.24358 0.87502 0.49263
 N212 N 0.23203 0.83950 0.47504
   
