data_POSCAR
  _audit_creation_date              2014-09-24
  _audit_creation_method            'ToBaCCo'
  _symmetry_space_group_name_H-M    'P1'
  _symmetry_Int_Tables_number       1
  _symmetry_cell_setting            triclinic
  loop_
  _symmetry_equiv_pos_as_xyz
 x,y,z
_cell_length_a 23.1781
_cell_length_b 23.3174
_cell_length_c 23.2812
_cell_angle_alpha 89.992500
_cell_angle_beta 90.149000
_cell_angle_gamma 89.935100
loop_
  _atom_site_label
  _atom_site_type_symbol
  _atom_site_fract_x
  _atom_site_fract_y
  _atom_site_fract_z
O1 O 0.32707 0.41277 0.05257
 O2 O 0.42260 0.34572 -0.04949
 O3 O 0.35183 0.42895 -0.05272
 O4 O 0.40044 0.33061 0.05771
 O5 O 0.34239 0.26425 0.02318
 O6 O 0.28430 0.37048 -0.08316
 O7 O 0.35485 0.28984 -0.08442
 O8 O 0.25571 0.35799 0.02236
 Cu9 Cu 0.38166 0.38466 0.00513
 Cu10 Cu 0.30142 0.31324 -0.02829
 C11 C 0.27395 0.40122 0.05053
 C12 C 0.40701 0.30696 -0.08463
 C13 C 0.30946 0.41902 -0.08605
 C14 C 0.38522 0.27878 0.05440
 O15 O 0.64626 0.57179 0.05590
 O16 O 0.60284 0.66825 -0.05907
 O17 O 0.67650 0.58299 -0.04698
 O18 O 0.57895 0.65552 0.04920
 O19 O 0.64741 0.71064 0.08417
 O20 O 0.74641 0.64244 -0.02328
 O21 O 0.65858 0.73561 -0.02289
 O22 O 0.71525 0.63032 0.08371
 Cu23 Cu 0.61969 0.61476 -0.00433
 Cu24 Cu 0.70017 0.68670 0.02768
 C25 C 0.68833 0.58295 0.08910
 C26 C 0.61669 0.72051 -0.05497
 C27 C 0.72934 0.59635 -0.04739
 C28 C 0.59523 0.69358 0.08483
 O29 O 0.56640 0.32281 1.02469
 O30 O 0.67400 0.42121 0.97005
 O31 O 0.60559 0.35539 0.92168
 O32 O 0.63372 0.39967 1.06704
 O33 O 0.71140 0.34615 1.06961
 O34 O 0.64465 0.27234 0.94070
 O35 O 0.73602 0.35009 0.96143
 O36 O 0.63476 0.26261 1.05099
 Cu37 Cu 0.61226 0.38018 0.99501
 Cu38 Cu 0.68932 0.29990 1.00480
 C39 C 0.58165 0.27658 1.04947
 C40 C 0.72361 0.40309 0.95605
 C41 C 0.60903 0.30254 0.91156
 C42 C 0.68252 0.38877 1.08898
 O43 O 0.36756 0.61484 0.92326
 O44 O 0.40316 0.64348 1.07173
 O45 O 0.32524 0.57876 1.02114
 O46 O 0.43537 0.67734 0.97228
 O47 O 0.36707 0.74133 0.95659
 O48 O 0.27113 0.65008 1.05021
 O49 O 0.35762 0.72551 1.06444
 O50 O 0.28430 0.65636 0.93709
 Cu51 Cu 0.38813 0.62059 0.99849
 Cu52 Cu 0.31161 0.70105 1.00101
 C53 C 0.31505 0.61979 0.91002
 C54 C 0.39639 0.69466 1.08832
 C55 C 0.27986 0.59622 1.04624
 C56 C 0.41990 0.72597 0.95319
 O57 O -0.06186 0.39269 0.33391
 O58 O 0.05778 0.35426 0.42756
 O59 O 0.04911 0.42251 0.34900
 O60 O -0.04123 0.32295 0.42359
 O61 O -0.02827 0.25700 0.35713
 O62 O 0.07818 0.35775 0.28705
 O63 O 0.08390 0.28560 0.36824
 O64 O -0.02523 0.34083 0.26410
 Cu65 Cu -0.00456 0.38000 0.38680
 Cu66 Cu 0.02590 0.30109 0.31333
 C67 C -0.05797 0.38117 0.28101
 C68 C 0.09064 0.31234 0.41561
 C69 C 0.08100 0.40864 0.30698
 C70 C -0.04667 0.27172 0.40670
 O71 O 0.04786 0.67591 0.58275
 O72 O -0.04884 0.57844 0.65415
 O73 O -0.05698 0.64699 0.57042
 O74 O 0.05950 0.60260 0.66465
 O75 O 0.02456 0.65748 0.73319
 O76 O -0.08575 0.71419 0.62988
 O77 O -0.08377 0.64498 0.71100
 O78 O 0.02027 0.74530 0.64095
 Cu79 Cu 0.00362 0.61976 0.61279
 Cu80 Cu -0.02878 0.69849 0.68600
 C81 C 0.04640 0.72840 0.59593
 C82 C -0.08335 0.59315 0.69385
 C83 C -0.09064 0.68855 0.58169
 C84 C 0.05662 0.61606 0.71707
 O85 O 1.07675 0.61007 0.35466
 O86 O 0.92785 0.63222 0.39492
 O87 O 0.97366 0.56594 0.32394
 O88 O 1.02099 0.67712 0.42144
 O89 O 1.04287 0.73262 0.34860
 O90 O 0.94929 0.63239 0.26131
 O91 O 0.92909 0.71188 0.34506
 O92 O 1.05675 0.64532 0.27011
 Cu93 Cu 1.00219 0.61379 0.37942
 Cu94 Cu 0.99383 0.68941 0.29891
 C95 C 1.08633 0.61132 0.30140
 C96 C 0.90734 0.68156 0.38533
 C97 C 0.94943 0.57990 0.27704
 C98 C 1.04175 0.72391 0.40274
 O99 O 0.96866 0.32438 0.57884
 O100 O 1.02722 0.43237 0.67383
 O101 O 1.06641 0.36432 0.59679
 O102 O 0.92220 0.39339 0.64582
 O103 O 0.94426 0.35575 0.72884
 O104 O 1.07198 0.28886 0.65259
 O105 O 1.05499 0.36599 0.73518
 O106 O 0.96308 0.26343 0.65097
 Cu107 Cu 0.99490 0.38620 0.61837
 Cu108 Cu 1.00766 0.31093 0.69977
 C109 C 0.95604 0.27505 0.59789
 C110 C 1.05323 0.41842 0.71990
 C111 C 1.09002 0.31681 0.60886
 C112 C 0.91407 0.39085 0.69915
 O113 O 0.40129 0.06655 0.36364
 O114 O 0.35294 -0.07828 0.38809
 O115 O 0.42230 -0.02921 0.32231
 O116 O 0.32486 0.02566 0.43094
 O117 O 0.26383 0.05395 0.36417
 O118 O 0.34956 -0.03695 0.26159
 O119 O 0.26914 -0.05529 0.35206
 O120 O 0.34585 0.07167 0.28728
 Cu121 Cu 0.38068 -0.00551 0.38415
 Cu122 Cu 0.29927 0.00734 0.30826
 C123 C 0.38874 0.09035 0.31637
 C124 C 0.29922 -0.08578 0.38641
 C125 C 0.40311 -0.04296 0.27314
 C126 C 0.27889 0.05197 0.41685
 O127 O 0.67368 -0.02769 0.56800
 O128 O 0.57720 0.02882 0.67622
 O129 O 0.64531 0.07675 0.60765
 O130 O 0.59730 -0.06768 0.63558
 O131 O 0.65329 -0.07171 0.71164
 O132 O 0.72904 0.05506 0.64477
 O133 O 0.65010 0.03674 0.73666
 O134 O 0.73542 -0.05466 0.63472
 Cu135 Cu 0.61794 0.00407 0.61422
 Cu136 Cu 0.69985 -0.00748 0.68974
 C137 C 0.71995 -0.05339 0.58218
 C138 C 0.59652 0.04254 0.72534
 C139 C 0.69896 0.08480 0.60969
 C140 C 0.61014 -0.09078 0.68312
 O141 O 0.33403 1.05918 0.60261
 O142 O 0.42761 0.94357 0.64974
 O143 O 0.34602 0.95170 0.57726
 O144 O 0.41579 1.04792 0.67751
 O145 O 0.35658 1.01890 0.74553
 O146 O 0.28594 0.91829 0.64179
 O147 O 0.36450 0.91284 0.71299
 O148 O 0.26407 1.02512 0.65648
 Cu149 Cu 0.38624 1.00384 0.62067
 Cu150 Cu 0.31066 0.97148 0.69728
 C151 C 0.28116 1.05688 0.61537
 C152 C 0.41399 0.90888 0.68954
 C153 C 0.30488 0.91822 0.59050
 C154 C 0.40194 1.04545 0.72986
 O155 O 0.58368 0.95338 0.32054
 O156 O 0.65414 1.04906 0.42043
 O157 O 0.57079 1.05662 0.35110
 O158 O 0.66407 0.94072 0.39729
 O159 O 0.73406 0.97384 0.34284
 O160 O 0.63405 1.08754 0.28807
 O161 O 0.71551 1.08142 0.35677
 O162 O 0.64309 0.98238 0.25270
 Cu163 Cu 0.61289 0.99651 0.37838
 Cu164 Cu 0.68868 1.02874 0.30200
 C165 C 0.59759 0.95600 0.26821
 C166 C 0.69606 1.08198 0.40784
 C167 C 0.58461 1.09165 0.31178
 C168 C 0.71685 0.94232 0.38415
 C169 C 0.86942 0.70578 0.43153
 C170 C 0.87456 0.67793 0.48487
 C171 C 0.87194 0.70796 0.53694
 C172 C 0.84169 0.76074 0.53689
 C173 C 0.82734 0.78706 0.48331
 C174 C 0.84257 0.76023 0.43035
 C175 C 0.82751 0.78692 0.37826
 C176 C 0.79785 0.83909 0.37777
 C177 C 0.78423 0.86708 0.42928
 C178 C 0.79911 0.84107 0.48276
 C179 C 0.82322 0.78671 0.58807
 C180 C 0.79393 0.83867 0.58743
 C181 C 0.78274 0.86744 0.53566
 C182 C 0.75445 0.92118 0.53443
 C183 C 0.74849 0.94901 0.48162
 C184 C 0.75635 0.92076 0.42937
 H185 H 0.83648 0.76654 0.33751
 H186 H 0.78653 0.85809 0.33680
 H187 H 0.82842 0.76602 0.62923
 H188 H 0.78079 0.85575 0.62836
 H189 H 0.89097 0.63445 0.48596
 H190 H 0.72813 0.99077 0.48095
 C191 C 0.24171 0.07800 0.56994
 C192 C 0.25030 0.04987 0.51767
 C193 C 0.24432 0.07751 0.46477
 C194 C 0.21571 0.13113 0.46355
 C195 C 0.19896 0.15750 0.51648
 C196 C 0.21331 0.13145 0.56997
 C197 C 0.19885 0.15926 0.62141
 C198 C 0.16902 0.21145 0.62083
 C199 C 0.15477 0.23861 0.56869
 C200 C 0.17110 0.21171 0.51592
 C201 C 0.20451 0.15980 0.41174
 C202 C 0.17592 0.21209 0.41114
 C203 C 0.15828 0.23837 0.46234
 C204 C 0.13110 0.29234 0.46188
 C205 C 0.12871 0.32262 0.51359
 C206 C 0.12834 0.29370 0.56685
 H207 H 0.20978 0.14016 0.66244
 H208 H 0.15988 0.23162 0.66162
 H209 H 0.21736 0.14261 0.37078
 H210 H 0.17082 0.23305 0.37006
 H211 H 0.27096 0.00828 0.51848
 H212 H 0.11449 0.36685 0.51135
 C213 C 0.06448 0.76774 0.54966
 C214 C 0.03487 0.75822 0.49849
 C215 C 0.06164 0.76326 0.44479
 C216 C 0.11284 0.79652 0.44151
 C217 C 0.14100 0.81283 0.49383
 C218 C 0.11759 0.79635 0.54791
 C219 C 0.14806 0.80785 0.59851
 C220 C 0.20029 0.83694 0.59695
 C221 C 0.22425 0.85515 0.54459
 C222 C 0.19484 0.84165 0.49214
 C223 C 0.13818 0.81181 0.38890
 C224 C 0.18982 0.84237 0.38727
 C225 C 0.21905 0.85695 0.43804
 C226 C 0.27352 0.88361 0.43651
 C227 C 0.30322 0.89188 0.48841
 C228 C 0.27771 0.88448 0.54232
 H229 H 0.13134 0.79463 0.63985
 H230 H 0.22239 0.84235 0.63734
 H231 H 0.11819 0.80131 0.34836
 H232 H 0.20789 0.85255 0.34568
 H233 H -0.00642 0.73635 0.50104
 H234 H 0.34553 0.91135 0.48688
 C235 C 0.72174 0.11388 0.45359
 C236 C 0.69551 0.10768 0.50760
 C237 C 0.72487 0.11563 0.55960
 C238 C 0.77926 0.14221 0.55823
 C239 C 0.80411 0.15731 0.50417
 C240 C 0.77524 0.14381 0.45147
 C241 C 0.80001 0.16246 0.39941
 C242 C 0.85249 0.19158 0.39846
 C243 C 0.88278 0.20266 0.44933
 C244 C 0.85813 0.18591 0.50298
 C245 C 0.80754 0.15738 0.60931
 C246 C 0.85906 0.18784 0.60806
 C247 C 0.88517 0.20201 0.55568
 C248 C 0.93732 0.23277 0.55395
 C249 C 0.96523 0.23899 0.50133
 C250 C 0.93604 0.23223 0.44908
 H251 H 0.77836 0.15750 0.35872
 H252 H 0.86945 0.20519 0.35737
 H253 H 0.78880 0.14781 0.65075
 H254 H 0.87872 0.19923 0.64861
 H255 H 0.65267 0.08936 0.50941
 H256 H 1.00662 0.26095 0.50101
 C257 C 0.57209 0.76169 0.92552
 C258 C 0.52034 0.75589 0.95562
 C259 C 0.46667 0.76250 0.92891
 C260 C 0.46453 0.78951 0.87463
 C261 C 0.51717 0.80385 0.84637
 C262 C 0.57123 0.78867 0.87137
 C263 C 0.62244 0.80099 0.84187
 C264 C 0.62105 0.82946 0.78904
 C265 C 0.56827 0.84393 0.76290
 C266 C 0.51564 0.82982 0.79130
 C267 C 0.41190 0.80112 0.84714
 C268 C 0.41037 0.82785 0.79382
 C269 C 0.46143 0.84314 0.76539
 C270 C 0.46040 0.86899 0.71054
 C271 C 0.51206 0.87069 0.67967
 C272 C 0.56590 0.86904 0.70759
 H273 H 0.66390 0.78962 0.86021
 H274 H 0.66157 0.83751 0.76755
 H275 H 0.37112 0.79011 0.86645
 H276 H 0.36855 0.83345 0.77413
 H277 H 0.52158 0.73555 0.99744
 H278 H 0.50991 0.88517 0.63551
 C279 C 0.43296 0.13110 0.29288
 C280 C 0.48642 0.12966 0.32156
 C281 C 0.53844 0.13205 0.29138
 C282 C 0.53799 0.15876 0.23706
 C283 C 0.48412 0.17149 0.21027
 C284 C 0.43120 0.15646 0.23763
 C285 C 0.37871 0.17008 0.21044
 C286 C 0.37792 0.19815 0.15738
 C287 C 0.42951 0.21123 0.12890
 C288 C 0.48330 0.19759 0.15528
 C289 C 0.58933 0.17544 0.21010
 C290 C 0.58847 0.20282 0.15715
 C291 C 0.53626 0.21341 0.12839
 C292 C 0.53465 0.24042 0.07404
 C293 C 0.48165 0.24440 0.04559
 C294 C 0.42928 0.23741 0.07439
 H295 H 0.33789 0.16150 0.23111
 H296 H 0.33666 0.20856 0.13804
 H297 H 0.63075 0.17038 0.23080
 H298 H 0.62954 0.21479 0.13926
 H299 H 0.48813 0.11466 0.36556
 H300 H 0.48082 0.26395 0.00338
 C301 C 0.55273 0.06197 0.76768
 C302 C 0.49943 0.03425 0.76266
 C303 C 0.44751 0.06367 0.77052
 C304 C 0.44861 0.11746 0.79784
 C305 C 0.50266 0.14229 0.81305
 C306 C 0.55521 0.11465 0.79739
 C307 C 0.60803 0.14092 0.81076
 C308 C 0.60964 0.19319 0.83971
 C309 C 0.55850 0.22206 0.85386
 C310 C 0.50418 0.19688 0.83973
 C311 C 0.39751 0.14730 0.80926
 C312 C 0.39879 0.20027 0.83682
 C313 C 0.45142 0.22583 0.85281
 C314 C 0.45374 0.28045 0.87932
 C315 C 0.50760 0.30725 0.88356
 C316 C 0.55984 0.27719 0.87845
 H317 H 0.64863 0.12092 0.79990
 H318 H 0.65134 0.21210 0.84860
 H319 H 0.35605 0.12945 0.79730
 H320 H 0.35803 0.22173 0.84267
 H321 H 0.49805 -0.00674 0.74051
 H322 H 0.50861 0.35076 0.89972
 C323 C 0.54936 0.71880 0.12262
 C324 C 0.49641 0.69002 0.12120
 C325 C 0.44365 0.71932 0.12473
 C326 C 0.44386 0.77499 0.14853
 C327 C 0.49767 0.80183 0.16133
 C328 C 0.55084 0.77403 0.14772
 C329 C 0.60312 0.80122 0.16194
 C330 C 0.60359 0.85458 0.18872
 C331 C 0.55196 0.88330 0.20073
 C332 C 0.49829 0.85703 0.18680
 C333 C 0.39226 0.80294 0.16304
 C334 C 0.39302 0.85597 0.19074
 C335 C 0.44537 0.88389 0.20257
 C336 C 0.44704 0.93740 0.23098
 C337 C 0.49995 0.96603 0.23531
 C338 C 0.55231 0.93734 0.22746
 H339 H 0.64428 0.78071 0.15546
 H340 H 0.64480 0.87364 0.19957
 H341 H 0.35091 0.78272 0.15564
 H342 H 0.35215 0.87520 0.20200
 H343 H 0.49648 0.64586 0.10681
 H344 H 0.50084 1.00729 0.25701
 C345 C 0.88225 0.54594 0.72126
 C346 C 0.88804 0.49218 0.69506
 C347 C 0.88217 0.44039 0.72504
 C348 C 0.85662 0.44196 0.77979
 C349 C 0.84166 0.49604 0.80457
 C350 C 0.85489 0.54840 0.77557
 C351 C 0.83821 0.60075 0.80074
 C352 C 0.80966 0.60222 0.85325
 C353 C 0.79738 0.55154 0.88302
 C354 C 0.81347 0.49768 0.85853
 C355 C 0.84216 0.39119 0.80851
 C356 C 0.81173 0.39283 0.85993
 C357 C 0.79706 0.44533 0.88559
 C358 C 0.76514 0.44763 0.93695
 C359 C 0.75799 0.50054 0.96410
 C360 C 0.76738 0.55253 0.93570
 H361 H 0.84416 0.64124 0.77932
 H362 H 0.79710 0.64351 0.87051
 H363 H 0.85186 0.34971 0.79002
 H364 H 0.80058 0.35242 0.87962
 H365 H 0.90518 0.49083 0.65189
 H366 H 0.73475 0.50145 1.00458
 C367 C 0.11607 0.45603 0.28025
 C368 C 0.11002 0.50982 0.30635
 C369 C 0.11840 0.56152 0.27692
 C370 C 0.14556 0.55993 0.22295
 C371 C 0.16055 0.50590 0.19856
 C372 C 0.14558 0.45356 0.22706
 C373 C 0.16278 0.40112 0.20267
 C374 C 0.19289 0.39950 0.15113
 C375 C 0.20624 0.45010 0.12177
 C376 C 0.19032 0.50422 0.14541
 C377 C 0.16092 0.61061 0.19444
 C378 C 0.19224 0.60900 0.14347
 C379 C 0.20777 0.55650 0.11808
 C380 C 0.24200 0.55324 0.06757
 C381 C 0.24723 0.49956 0.04095
 C382 C 0.23586 0.44836 0.06942
 H383 H 0.15575 0.36073 0.22401
 H384 H 0.20548 0.35812 0.13407
 H385 H 0.15092 0.65214 0.21266
 H386 H 0.20313 0.64959 0.12424
 H387 H 0.09091 0.51164 0.34864
 H388 H 0.26932 0.49677 0.00005
 C389 C 0.70606 0.43121 0.12642
 C390 C 0.67751 0.48471 0.12564
 C391 C 0.70824 0.53613 0.12867
 C392 C 0.76233 0.53534 0.15627
 C393 C 0.78870 0.48168 0.16925
 C394 C 0.76131 0.42915 0.15304
 C395 C 0.78797 0.37692 0.16778
 C396 C 0.84012 0.37603 0.19810
 C397 C 0.86845 0.42721 0.21250
 C398 C 0.84305 0.48077 0.19740
 C399 C 0.78909 0.58629 0.17404
 C400 C 0.84175 0.58537 0.20243
 C401 C 0.87012 0.53345 0.21377
 C402 C 0.92387 0.53195 0.24262
 C403 C 0.95058 0.47873 0.25026
 C404 C 0.92167 0.42689 0.24178
 H405 H 0.76735 0.33634 0.15869
 H406 H 0.85876 0.33495 0.20953
 H407 H 0.76832 0.62748 0.16921
 H408 H 0.85940 0.62614 0.21527
 H409 H 0.63332 0.48729 0.11059
 H410 H 0.99193 0.47762 0.27177
 C411 C 0.28878 0.46529 0.87921
 C412 C 0.31698 0.51809 0.88591
 C413 C 0.28957 0.57109 0.87673
 C414 C 0.23601 0.57155 0.84792
 C415 C 0.21022 0.51836 0.83181
 C416 C 0.23702 0.46505 0.84653
 C417 C 0.21243 0.41389 0.82607
 C418 C 0.16107 0.41414 0.79522
 C419 C 0.13156 0.46549 0.78407
 C420 C 0.15690 0.51847 0.80171
 C421 C 0.20925 0.62332 0.83201
 C422 C 0.15777 0.62334 0.80081
 C423 C 0.13061 0.57166 0.78630
 C424 C 0.07742 0.57116 0.75705
 C425 C 0.04965 0.51880 0.74846
 C426 C 0.07812 0.46633 0.75459
 H427 H 0.23368 0.37300 0.83109
 H428 H 0.14505 0.37323 0.78078
 H429 H 0.22888 0.66420 0.84208
 H430 H 0.13855 0.66408 0.78911
 H431 H 0.35894 0.51809 0.90640
 H432 H 0.00794 0.51919 0.72749
   
