data_POSCAR
  _audit_creation_date              2014-09-24
  _audit_creation_method            'ToBaCCo'
  _symmetry_space_group_name_H-M    'P1'
  _symmetry_Int_Tables_number       1
  _symmetry_cell_setting            triclinic
  loop_
  _symmetry_equiv_pos_as_xyz
 x,y,z
_cell_length_a 28.1089
_cell_length_b 27.8327
_cell_length_c 67.8737
_cell_angle_alpha 86.818600
_cell_angle_beta 90.890600
_cell_angle_gamma 120.102800
loop_
  _atom_site_label
  _atom_site_type_symbol
  _atom_site_fract_x
  _atom_site_fract_y
  _atom_site_fract_z
C1 C -0.01969 0.09554 0.52397
 H2 H 0.01912 0.09623 0.52374
 C3 C -0.02554 0.13267 0.53518
 H4 H 0.00886 0.16130 0.54378
 C5 C -0.11171 0.05639 0.51316
 H6 H -0.14483 0.02700 0.50434
 C7 C -0.11948 0.09289 0.52430
 H8 H -0.15877 0.09129 0.52397
 N9 N -0.06243 0.05819 0.51337
 C10 C -0.02496 -0.07455 0.50809
 H11 H -0.01971 -0.07374 0.49230
 C12 C -0.02519 -0.11693 0.52025
 H13 H -0.01993 -0.14855 0.51367
 C14 C -0.04247 -0.03669 0.53564
 H15 H -0.05097 -0.00655 0.54157
 C16 C -0.04283 -0.07806 0.54829
 H17 H -0.05006 -0.07813 0.56392
 Zn18 Zn -0.04577 0.01278 0.49860
 N19 N -0.03432 -0.03603 0.51590
 C20 C 0.06606 0.06206 0.48454
 N21 N 0.01775 0.06220 0.48351
 C22 C 0.01292 0.10123 0.47215
 C23 C 0.05762 0.14229 0.46116
 C24 C 0.11213 0.10266 0.47372
 C25 C -0.15282 -0.07116 0.48961
 C26 C -0.19336 -0.11056 0.47783
 C27 C -0.13148 -0.06860 0.44983
 C28 C -0.09254 -0.02999 0.46213
 N29 N -0.10339 -0.03232 0.48167
 H30 H 0.06914 0.03115 0.49396
 H31 H -0.02592 0.10052 0.47176
 H32 H 0.05246 0.17249 0.45205
 H33 H 0.15060 0.10269 0.47488
 H34 H -0.15993 -0.07307 0.50533
 H35 H -0.23043 -0.14221 0.48531
 H36 H -0.12071 -0.06319 0.43434
 H37 H -0.05282 0.00077 0.45606
 C38 C -0.03551 -0.11975 0.54059
 C39 C -0.07585 0.13183 0.53543
 C40 C -0.18296 -0.11144 0.45749
 C41 C 0.10827 0.14381 0.46198
 C42 C 1.12196 0.02681 0.14118
 H43 H 1.12001 0.06464 0.14130
 C44 C 1.16316 0.02603 0.13037
 H45 H 1.19227 0.06332 0.12192
 C46 C 1.08580 -0.06762 0.15212
 H47 H 1.05610 -0.10359 0.16094
 C48 C 1.12653 -0.07031 0.14139
 H49 H 1.12782 -0.10859 0.14197
 N50 N 1.08432 -0.01945 0.15174
 C51 C 0.94850 0.01224 0.15749
 H52 H 0.94654 0.01445 0.17330
 C53 C 0.90770 0.01263 0.14553
 H54 H 0.87455 0.01538 0.15227
 C55 C 0.99166 0.00131 0.12975
 H56 H 1.02319 -0.00510 0.12368
 C57 C 0.95197 0.00170 0.11729
 H58 H 0.95458 -0.00274 0.10166
 Zn59 Zn 1.03475 -0.00828 0.16662
 N60 N 0.98883 0.00570 0.14950
 C61 C 1.07899 0.10113 0.18148
 N62 N 1.07935 0.05236 0.18214
 C63 C 1.11552 0.04485 0.19351
 C64 C 1.15349 0.08722 0.20483
 C65 C 1.11654 0.14496 0.19267
 C66 C 0.95281 -0.12005 0.17517
 C67 C 0.91122 -0.16383 0.18670
 C68 C 0.94230 -0.10572 0.21461
 C69 C 0.98351 -0.06344 0.20265
 N70 N 0.98757 -0.07091 0.18324
 H71 H 1.05038 0.10639 0.17206
 H72 H 1.11502 0.00571 0.19362
 H73 H 1.18151 0.07993 0.21390
 H74 H 1.11656 0.18392 0.19181
 H75 H 0.95591 -0.12439 0.15957
 H76 H 0.88265 -0.20206 0.17995
 H77 H 0.93876 -0.09850 0.22990
 H78 H 1.01037 -0.02369 0.20871
 C79 C 0.90839 0.00585 0.12519
 C80 C 1.16621 -0.02277 0.13049
 C81 C 0.90485 -0.15623 0.20656
 C82 C 1.15485 0.13836 0.20437
 C83 C 0.08059 0.97105 0.86161
 H84 H 0.04147 0.93265 0.86220
 C85 C 0.12378 0.97549 0.87319
 H86 H 0.11712 0.94046 0.88293
 C87 C 0.13581 1.06342 0.84830
 H88 H 0.14030 1.09720 0.83835
 C89 C 0.18041 1.06966 0.85964
 H90 H 0.21915 1.10843 0.85830
 N91 N 0.08713 1.01464 0.84956
 C92 C -0.08264 0.97669 0.84289
 H93 H -0.08920 0.97013 0.82729
 C94 C -0.12374 0.97576 0.85455
 H95 H -0.16136 0.96843 0.84748
 C96 C -0.02311 0.99959 0.87014
 H97 H 0.01655 1.01018 0.87614
 C98 C -0.06239 1.00022 0.88222
 H99 H -0.05245 1.00861 0.89757
 Zn100 Zn 0.02547 1.00079 0.83413
 N101 N -0.03344 0.98863 0.85080
 C102 C -0.04153 0.89262 0.81851
 N103 N 0.00920 0.93857 0.81948
 C104 C 0.05323 0.94247 0.80993
 C105 C 0.04726 0.89970 0.79857
 C106 C -0.04959 0.84898 0.80700
 C107 C 0.04822 1.10955 0.82461
 C108 C 0.04993 1.15264 0.81247
 C109 C 0.03656 1.09813 0.78426
 C110 C 0.03498 1.05609 0.79692
 N111 N 0.03995 1.06213 0.81672
 H112 H -0.07586 0.88986 0.82647
 H113 H 0.09327 0.97915 0.81120
 H114 H 0.08334 0.90369 0.79145
 H115 H -0.09057 0.81352 0.80593
 H116 H 0.05096 1.11278 0.84044
 H117 H 0.05408 1.18899 0.81913
 H118 H 0.03162 1.09212 0.76858
 H119 H 0.02751 1.01778 0.79095
 C120 C -0.11352 0.98939 0.87450
 C121 C 0.17472 1.02513 0.87223
 C122 C 0.04275 1.14665 0.79204
 C123 C -0.00482 0.85234 0.79670
 C124 C 0.40026 0.03089 -0.00803
 C125 C 0.39846 0.02360 0.01215
 C126 C 0.43522 0.00564 0.01718
 N127 N 0.45937 0.00174 0.00074
 C128 C 0.43835 0.01754 -0.01468
 C129 C 0.44400 -0.00923 0.03661
 C130 C 0.48703 -0.01994 0.04161
 C131 C 0.49123 -0.04376 0.05958
 C132 C 0.54028 -0.04343 0.05915
 C133 C 0.56450 -0.01990 0.04087
 N134 N 0.53200 -0.00537 0.03032
 C135 C 0.61652 -0.01028 0.03479
 C136 C 0.63510 0.00113 0.01495
 C137 C 0.68680 0.01290 0.00879
 C138 C 0.68726 0.01738 -0.01142
 C139 C 0.63599 0.00881 -0.01699
 N140 N 0.60401 -0.00172 -0.00083
 C141 C 0.61862 0.00744 -0.03673
 C142 C 0.56818 0.00387 -0.04217
 C143 C 0.54695 -0.00504 -0.06106
 C144 C 0.49947 -0.00230 -0.06051
 C145 C 0.49294 0.00822 -0.04130
 N146 N 0.53525 0.01248 -0.03030
 C147 C 0.45037 0.01677 -0.03476
 H148 H 0.37609 0.04428 -0.01680
 H149 H 0.37287 0.03067 0.02196
 H150 H 0.54424 0.02663 -0.01615
 H151 H 0.46218 -0.05938 0.07182
 H152 H 0.55630 -0.05878 0.07097
 H153 H 0.72048 0.01696 0.01788
 H154 H 0.72142 0.02546 -0.02086
 H155 H 0.47311 -0.00696 -0.07292
 H156 H 0.54295 0.01890 0.01720
 H157 H 0.56416 -0.01205 -0.07401
 C158 C -0.01027 0.35561 0.67323
 C159 C -0.02245 0.35327 0.65354
 C160 C -0.04106 0.39039 0.64957
 N161 N -0.04123 0.41486 0.66622
 C162 C -0.02225 0.39377 0.68070
 C163 C -0.05956 0.39932 0.63098
 C164 C -0.06815 0.44451 0.62621
 C165 C -0.09291 0.45044 0.60912
 C166 C -0.08989 0.50128 0.60934
 C167 C -0.06398 0.52473 0.62667
 N168 N -0.05041 0.49016 0.63677
 C169 C -0.05177 0.57777 0.63231
 C170 C -0.03868 0.59537 0.65177
 C171 C -0.02627 0.64733 0.65757
 C172 C -0.02051 0.64642 0.67765
 C173 C -0.02886 0.59414 0.68348
 N174 N -0.04060 0.56285 0.66764
 C175 C -0.02891 0.57520 0.70327
 C176 C -0.03143 0.52413 0.70877
 C177 C -0.03808 0.50174 0.72800
 C178 C -0.03478 0.45420 0.72732
 C179 C -0.02621 0.44876 0.70771
 N180 N -0.02373 0.49176 0.69654
 C181 C -0.01833 0.40621 0.70079
 H182 H 0.00545 0.33175 0.68112
 H183 H -0.01776 0.32744 0.64329
 H184 H -0.01126 0.50159 0.68186
 H185 H -0.11081 0.42142 0.59756
 H186 H -0.10522 0.51888 0.59806
 H187 H -0.02283 0.68197 0.64836
 H188 H -0.01169 0.68036 0.68685
 H189 H -0.03807 0.42689 0.73986
 H190 H -0.02512 0.49999 0.64896
 H191 H -0.04390 0.51824 0.74124
 C192 C 0.33446 0.37099 0.34263
 C193 C 0.33739 0.36984 0.32252
 C194 C 0.39126 0.40774 0.31692
 N195 N 0.42139 0.43150 0.33295
 C196 C 0.38674 0.40926 0.34868
 C197 C 0.41270 0.41644 0.29754
 C198 C 0.46688 0.45796 0.29200
 C199 C 0.49276 0.46068 0.27440
 C200 C 0.54350 0.50820 0.27424
 C201 C 0.54722 0.53346 0.29170
 N202 N 0.50008 0.50281 0.30233
 C203 C 0.59168 0.58559 0.29666
 C204 C 0.59760 0.60763 0.31539
 C205 C 0.63569 0.66165 0.31981
 C206 C 0.63000 0.66540 0.33960
 C207 C 0.58944 0.61323 0.34674
 N208 N 0.56976 0.57801 0.33191
 C209 C 0.57401 0.59781 0.36684
 C210 C 0.53016 0.54509 0.37332
 C211 C 0.52267 0.52269 0.39254
 C212 C 0.47451 0.47237 0.39297
 C213 C 0.45363 0.46558 0.37403
 N214 N 0.48785 0.51016 0.36214
 C215 C 0.40241 0.42068 0.36853
 H216 H 0.29804 0.34615 0.35174
 H217 H 0.30379 0.34357 0.31316
 H218 H 0.47966 0.51935 0.34788
 H219 H 0.47666 0.43182 0.26274
 H220 H 0.57368 0.52293 0.26239
 H221 H 0.66477 0.69500 0.30988
 H222 H 0.65371 0.70222 0.34779
 H223 H 0.45671 0.44422 0.40584
 H224 H 0.48869 0.51487 0.31477
 H225 H 0.54919 0.54072 0.40497
 C226 C -0.08729 0.24361 0.57332
 C227 C -0.13267 0.18972 0.57183
 C228 C -0.12983 0.15362 0.55899
 C229 C -0.08218 0.17108 0.54757
 C230 C -0.03899 0.22608 0.54878
 N231 N -0.04248 0.26020 0.56149
 C232 C -0.08510 0.28277 0.58775
 N233 N -0.04551 0.33739 0.58528
 C234 C -0.03771 0.37545 0.59853
 C235 C -0.07035 0.35903 0.61568
 C236 C -0.11178 0.30330 0.61854
 C237 C -0.11932 0.26498 0.60466
 H238 H -0.16414 0.11156 0.55848
 H239 H -0.00203 0.24173 0.53987
 H240 H -0.00523 0.41818 0.59593
 H241 H -0.13746 0.28935 0.63173
 H242 H -0.16982 0.17508 0.58049
 H243 H -0.15021 0.22189 0.60764
 C244 C 0.76796 0.72316 0.24193
 C245 C 0.79770 0.70568 0.23079
 C246 C 0.84218 0.74480 0.21902
 C247 C 0.85730 0.80114 0.21855
 C248 C 0.82600 0.81665 0.22968
 N249 N 0.78267 0.77785 0.24084
 C250 C 0.72119 0.68428 0.25496
 N251 N 0.68096 0.69646 0.25857
 C252 C 0.63836 0.66460 0.27129
 C253 C 0.63551 0.61826 0.28162
 C254 C 0.67618 0.60461 0.27814
 C255 C 0.71901 0.63735 0.26473
 H256 H 0.86522 0.73129 0.21053
 H257 H 0.83571 0.85956 0.22938
 H258 H 0.60755 0.67618 0.27373
 H259 H 0.67514 0.56920 0.28604
 H260 H 0.78647 0.66235 0.23096
 H261 H 0.75096 0.62716 0.26264
 C262 C 0.30357 0.03390 -0.09084
 C263 C 0.29792 0.08116 -0.09394
 C264 C 0.25675 0.07891 -0.10634
 C265 C 0.22116 0.02979 -0.11562
 C266 C 0.22909 -0.01600 -0.11245
 N267 N 0.26906 -0.01295 -0.10021
 C268 C 0.34352 0.03190 -0.07683
 N269 N 0.33276 -0.01860 -0.06883
 C270 C 0.36653 -0.02432 -0.05558
 C271 C 0.41450 0.02261 -0.04974
 C272 C 0.42725 0.07503 -0.05795
 C273 C 0.39186 0.07994 -0.07153
 H274 H 0.25160 0.11493 -0.10812
 H275 H 0.20334 -0.05440 -0.11957
 H276 H 0.35584 -0.06536 -0.04951
 H277 H 0.46432 0.11196 -0.05373
 H278 H 0.32342 0.11878 -0.08637
 H279 H 0.40270 0.12070 -0.07789
 C280 C -0.05375 0.74281 0.57813
 C281 C -0.08860 0.76462 0.58075
 C282 C -0.08269 0.80910 0.56845
 C283 C -0.04187 0.83262 0.55361
 C284 C -0.00783 0.80969 0.55144
 N285 N -0.01432 0.76629 0.56365
 C286 C -0.05664 0.69703 0.59130
 N287 N -0.01167 0.69063 0.59259
 C288 C -0.01003 0.65150 0.60504
 C289 C -0.05533 0.61637 0.61725
 C290 C -0.10266 0.62082 0.61586
 C291 C -0.10372 0.66076 0.60279
 H292 H -0.11037 0.82491 0.57052
 H293 H 0.02450 0.82683 0.54031
 H294 H 0.02706 0.64880 0.60580
 H295 H -0.13836 0.59387 0.62507
 H296 H -0.11942 0.74871 0.59239
 H297 H -0.14104 0.66288 0.60184
 C298 C 0.27245 0.26321 0.24082
 C299 C 0.28821 0.23236 0.22969
 C300 C 0.25028 0.19293 0.21739
 C301 C 0.19660 0.18403 0.21603
 C302 C 0.18322 0.21763 0.22666
 N303 N 0.22087 0.25565 0.23870
 C304 C 0.31020 0.30285 0.25505
 N305 N 0.30480 0.34715 0.25934
 C306 C 0.33749 0.38433 0.27262
 C307 C 0.37781 0.37736 0.28260
 C308 C 0.38373 0.33183 0.27867
 C309 C 0.35012 0.29453 0.26489
 H310 H 0.26291 0.16916 0.20899
 H311 H 0.14237 0.21230 0.22597
 H312 H 0.33175 0.41893 0.27554
 H313 H 0.41411 0.32512 0.28638
 H314 H 0.32937 0.23853 0.23040
 H315 H 0.35453 0.25889 0.26240
 C316 C 0.77147 0.00489 -0.09093
 C317 C 0.82762 0.03638 -0.08696
 C318 C 0.86538 0.03080 -0.09821
 C319 C 0.84788 -0.00567 -0.11378
 C320 C 0.79080 -0.03609 -0.11731
 N321 N 0.75469 -0.03075 -0.10578
 C322 C 0.73035 0.00779 -0.07856
 N323 N 0.68249 -0.03973 -0.07354
 C324 C 0.64512 -0.04041 -0.06087
 C325 C 0.65526 0.00873 -0.05250
 C326 C 0.70304 0.05850 -0.05809
 C327 C 0.74083 0.05820 -0.07108
 H328 H 0.90848 0.05705 -0.09503
 H329 H 0.77432 -0.06597 -0.12862
 H330 H 0.60835 -0.07944 -0.05686
 H331 H 0.71181 0.09709 -0.05189
 H332 H 0.84229 0.06441 -0.07502
 H333 H 0.77809 0.09682 -0.07504
 C334 C 0.29331 -0.01988 0.09559
 C335 C 0.30541 0.02505 0.10720
 C336 C 0.26436 0.02313 0.11901
 C337 C 0.21099 -0.02309 0.11930
 C338 C 0.20077 -0.06776 0.10789
 N339 N 0.24142 -0.06479 0.09634
 C340 C 0.33404 -0.01822 0.08150
 N341 N 0.31552 -0.05290 0.06630
 C342 C 0.34979 -0.05177 0.05213
 C343 C 0.40633 -0.01351 0.05263
 C344 C 0.42667 0.02154 0.06838
 C345 C 0.39088 0.01906 0.08292
 H346 H 0.27422 0.05829 0.12775
 H347 H 0.16009 -0.10403 0.10757
 H348 H 0.33288 -0.07995 0.04028
 H349 H 0.47024 0.05114 0.06930
 H350 H 0.34534 0.06234 0.10677
 H351 H 0.40797 0.04615 0.09503
 C352 C 0.70605 0.76187 0.42200
 C353 C 0.68703 0.77158 0.43944
 C354 C 0.72370 0.81379 0.45128
 C355 C 0.78004 0.84749 0.44590
 C356 C 0.79663 0.83548 0.42806
 N357 N 0.76011 0.79372 0.41703
 C358 C 0.66977 0.71745 0.40890
 N359 N 0.69271 0.69624 0.39710
 C360 C 0.66285 0.65712 0.38402
 C361 C 0.60657 0.63801 0.38194
 C362 C 0.58177 0.65868 0.39403
 C363 C 0.61316 0.69840 0.40754
 H364 H 0.70638 0.82073 0.46417
 H365 H 0.83901 0.85649 0.42316
 H366 H 0.68317 0.64170 0.37500
 H367 H 0.53837 0.64485 0.39270
 H368 H 0.64443 0.74655 0.44412
 H369 H 0.59357 0.71511 0.41629
 C370 C 0.02476 0.26633 0.75501
 C371 C 0.06439 0.28478 0.76994
 C372 C 0.07084 0.24596 0.78190
 C373 C 0.03800 0.18886 0.77910
 C374 C -0.00124 0.17225 0.76411
 N375 N -0.00683 0.21072 0.75271
 C376 C 0.01497 0.30476 0.74184
 N377 N -0.03297 0.28339 0.73169
 C378 C -0.04485 0.31501 0.71885
 C379 C -0.00698 0.37172 0.71546
 C380 C 0.04254 0.39501 0.72575
 C381 C 0.05383 0.36173 0.73892
 H382 H 0.10160 0.26061 0.79329
 H383 H -0.02835 0.12865 0.76169
 H384 H -0.08352 0.29582 0.71113
 H385 H 0.07275 0.43869 0.72331
 H386 H 0.08957 0.32836 0.77271
 H387 H 0.09306 0.38044 0.74621
 C388 C 0.77520 -0.01281 0.08853
 C389 C 0.79935 -0.04564 0.08584
 C390 C 0.84250 -0.03954 0.09783
 C391 C 0.86234 -0.00051 0.11245
 C392 C 0.83717 0.03154 0.11470
 N393 N 0.79514 0.02493 0.10278
 C394 C 0.73077 -0.01587 0.07565
 N395 N 0.72263 0.02851 0.07409
 C396 C 0.68483 0.03018 0.06176
 C397 C 0.65309 -0.01438 0.04991
 C398 C 0.65920 -0.06128 0.05166
 C399 C 0.69766 -0.06245 0.06462
 H400 H 0.86012 -0.06571 0.09572
 H401 H 0.85145 0.06247 0.12566
 H402 H 0.68074 0.06689 0.06074
 H403 H 0.63483 -0.09647 0.04276
 H404 H 0.78628 -0.07495 0.07437
 H405 H 0.70118 -0.09942 0.06583
 C406 C 0.24244 0.27112 0.42697
 C407 C 0.20782 0.28412 0.43735
 C408 C 0.16527 0.24297 0.44918
 C409 C 0.15638 0.18858 0.45068
 C410 C 0.19252 0.17745 0.44047
 N411 N 0.23364 0.21824 0.42893
 C412 C 0.28592 0.31188 0.41299
 N413 N 0.30764 0.29263 0.39982
 C414 C 0.34557 0.32654 0.38586
 C415 C 0.36328 0.38352 0.38440
 C416 C 0.34267 0.40470 0.39803
 C417 C 0.30444 0.36927 0.41243
 H418 H 0.13887 0.25365 0.45701
 H419 H 0.18697 0.13601 0.44109
 H420 H 0.36123 0.30897 0.37570
 H421 H 0.35595 0.44864 0.39741
 H422 H 0.21186 0.32484 0.43605
 H423 H 0.29003 0.38721 0.42286
 C424 C -0.02188 0.72446 0.75981
 C425 C -0.05526 0.70968 0.77678
 C426 C -0.05002 0.75118 0.78883
 C427 C -0.01190 0.80737 0.78395
 C428 C 0.02027 0.82011 0.76671
 N429 N 0.01482 0.77902 0.75538
 C430 C -0.02477 0.68274 0.74657
 N431 N 0.02144 0.69395 0.73644
 C432 C 0.02148 0.65915 0.72318
 C433 C -0.02742 0.61058 0.71909
 C434 C -0.07554 0.59786 0.72937
 C435 C -0.07435 0.63366 0.74324
 H436 H -0.07497 0.73910 0.80214
 H437 H 0.04945 0.86273 0.76206
 H438 H 0.05921 0.67016 0.71539
 H439 H -0.11403 0.56082 0.72635
 H440 H -0.08411 0.66658 0.78098
 H441 H -0.11214 0.62407 0.75067
   
