data_POSCAR
  _audit_creation_date              2014-09-24
  _audit_creation_method            'ToBaCCo'
  _symmetry_space_group_name_H-M    'P1'
  _symmetry_Int_Tables_number       1
  _symmetry_cell_setting            triclinic
  loop_
  _symmetry_equiv_pos_as_xyz
 x,y,z
_cell_length_a 33.4223
_cell_length_b 32.6966
_cell_length_c 27.8539
_cell_angle_alpha 89.398100
_cell_angle_beta 90.279500
_cell_angle_gamma 87.041200
loop_
  _atom_site_label
  _atom_site_type_symbol
  _atom_site_fract_x
  _atom_site_fract_y
  _atom_site_fract_z
O1 O -0.06859 0.32136 0.05308
 O2 O 0.01107 0.30287 -0.03707
 O3 O -0.06643 0.32239 -0.03928
 O4 O 0.00806 0.30066 0.05729
 O5 O -0.00470 0.23507 0.05524
 O6 O -0.07898 0.25674 -0.03937
 O7 O -0.00278 0.23764 -0.03878
 O8 O -0.08015 0.25542 0.05306
 Cu9 Cu -0.02727 0.31841 0.00856
 Cu10 Cu -0.04266 0.23962 0.00729
 C11 C -0.08805 0.29147 0.06811
 C12 C 0.01730 0.26706 -0.05380
 C13 C -0.08599 0.29301 -0.05500
 C14 C 0.01382 0.26417 0.07306
 O15 O 0.47653 0.81418 0.55114
 O16 O 0.56126 0.79454 0.46968
 O17 O 0.48421 0.81126 0.45869
 O18 O 0.55237 0.78952 0.56251
 O19 O 0.53775 0.72445 0.56024
 O20 O 0.47204 0.74554 0.45658
 O21 O 0.54812 0.72909 0.46722
 O22 O 0.46303 0.74878 0.54939
 Cu23 Cu 0.52003 0.80888 0.51088
 Cu24 Cu 0.50400 0.73049 0.50825
 C25 C 0.45512 0.78511 0.56377
 C26 C 0.56897 0.75868 0.45418
 C27 C 0.46663 0.78167 0.43996
 C28 C 0.55648 0.75300 0.57891
 O29 O 0.97087 0.70482 -0.02859
 O30 O 1.05223 0.69642 0.06168
 O31 O 0.97624 0.71723 0.06363
 O32 O 1.04909 0.68995 -0.03168
 O33 O 1.05629 0.75578 -0.04517
 O34 O 0.99057 0.78211 0.05549
 O35 O 1.06668 0.76048 0.04670
 O36 O 0.98046 0.77078 -0.03700
 Cu37 Cu 1.01091 0.69550 0.01721
 Cu38 Cu 1.02440 0.77384 0.00416
 C39 C 0.96152 0.73939 -0.04794
 C40 C 1.07372 0.72664 0.06891
 C41 C 0.97171 0.75444 0.07630
 C42 C 1.06478 0.71860 -0.05513
 O43 O 0.42600 0.19529 0.46177
 O44 O 0.49787 0.18944 0.56322
 O45 O 0.42142 0.20606 0.55386
 O46 O 0.50370 0.17777 0.47073
 O47 O 0.51317 0.24331 0.45768
 O48 O 0.43479 0.27119 0.54526
 O49 O 0.51148 0.25392 0.54951
 O50 O 0.43711 0.26092 0.45243
 Cu51 Cu 0.46111 0.18545 0.51324
 Cu52 Cu 0.47515 0.26391 0.50017
 C53 C 0.41908 0.22944 0.44030
 C54 C 0.51725 0.22070 0.57310
 C55 C 0.41461 0.24350 0.56425
 C56 C 0.52227 0.20580 0.44986
 O57 O 0.70454 0.03313 -0.07455
 O58 O 0.68539 -0.04164 0.02193
 O59 O 0.67752 0.03886 0.01307
 O60 O 0.71325 -0.04565 -0.06473
 O61 O 0.77509 -0.04001 -0.03818
 O62 O 0.73910 0.04329 0.04093
 O63 O 0.74702 -0.03584 0.04877
 O64 O 0.76615 0.03852 -0.04715
 Cu65 Cu 0.68886 -0.00425 -0.02859
 Cu66 Cu 0.76292 0.00218 0.00402
 C67 C 0.73883 0.04802 -0.07766
 C68 C 0.71324 -0.05189 0.05154
 C69 C 0.70236 0.05536 0.04046
 C70 C 0.75021 -0.05701 -0.06500
 O71 O 0.21401 0.47439 0.54615
 O72 O 0.20531 0.54861 0.44606
 O73 O 0.21256 0.46843 0.45262
 O74 O 0.21591 0.55411 0.53834
 O75 O 0.28091 0.55650 0.52496
 O76 O 0.27835 0.46900 0.44533
 O77 O 0.27106 0.54539 0.43707
 O78 O 0.27984 0.47490 0.54174
 Cu79 Cu 0.20534 0.51132 0.49658
 Cu80 Cu 0.28398 0.51009 0.48854
 C81 C 0.24843 0.46222 0.56137
 C82 C 0.23637 0.55958 0.42440
 C83 C 0.24523 0.45447 0.43414
 C84 C 0.24915 0.57071 0.54460
 O85 O 0.32935 1.05242 0.04802
 O86 O 0.33960 0.96987 -0.04033
 O87 O 0.33255 1.05108 -0.04477
 O88 O 0.33001 0.97238 0.05184
 O89 O 0.26405 0.97326 0.04502
 O90 O 0.26680 1.05002 -0.05099
 O91 O 0.27377 0.96966 -0.04735
 O92 O 0.26347 1.05185 0.04242
 Cu93 Cu 0.33950 1.01141 0.00404
 Cu94 Cu 0.26051 1.01129 -0.00384
 C95 C 0.29483 1.06602 0.06069
 C96 C 0.30859 0.95505 -0.05810
 C97 C 0.29964 1.06465 -0.06356
 C98 C 0.29629 0.95966 0.06478
 O99 O 0.84287 0.53248 0.52225
 O100 O 0.83042 0.45003 0.43549
 O101 O 0.82343 0.53045 0.43159
 O102 O 0.84338 0.45174 0.52666
 O103 O 0.77856 0.45416 0.54207
 O104 O 0.75869 0.53011 0.44713
 O105 O 0.76557 0.45080 0.45076
 O106 O 0.77816 0.53345 0.53810
 Cu107 Cu 0.84154 0.49133 0.47741
 Cu108 Cu 0.76383 0.49243 0.49611
 C109 C 0.81275 0.54697 0.54509
 C110 C 0.79623 0.43590 0.42890
 C111 C 0.78745 0.54343 0.42328
 C112 C 0.81374 0.43916 0.55005
 O113 O 0.19551 0.28180 0.20456
 O114 O 0.27315 0.23820 0.28607
 O115 O 0.24089 0.21463 0.20621
 O116 O 0.22476 0.30240 0.28687
 O117 O 0.17883 0.26943 0.32612
 O118 O 0.19536 0.18148 0.24601
 O119 O 0.22818 0.20480 0.32638
 O120 O 0.15007 0.24779 0.24347
 Cu121 Cu 0.23818 0.26250 0.24195
 Cu122 Cu 0.18359 0.22248 0.28957
 C123 C 0.15964 0.27185 0.20972
 C124 C 0.26409 0.21480 0.32053
 C125 C 0.22042 0.18325 0.21212
 C126 C 0.19911 0.30081 0.32033
 O127 O 0.71167 0.76602 0.29353
 O128 O 0.78822 0.73813 0.20464
 O129 O 0.76843 0.70820 0.28657
 O130 O 0.74054 0.80232 0.21611
 O131 O 0.78643 0.83441 0.25637
 O132 O 0.81487 0.74156 0.32431
 O133 O 0.83289 0.77215 0.24461
 O134 O 0.75563 0.79928 0.33517
 Cu135 Cu 0.74731 0.75058 0.24653
 Cu136 Cu 0.80029 0.79062 0.29529
 C137 C 0.72062 0.78642 0.33009
 C138 C 0.82349 0.74995 0.20938
 C139 C 0.79733 0.70885 0.31657
 C140 C 0.76020 0.83411 0.22347
 O141 O 0.77962 0.22853 0.25683
 O142 O 0.68098 0.22011 0.31345
 O143 O 0.72537 0.17609 0.25353
 O144 O 0.73646 0.27392 0.31493
 O145 O 0.70550 0.30715 0.25484
 O146 O 0.69718 0.20931 0.19163
 O147 O 0.65208 0.25296 0.25174
 O148 O 0.75102 0.26379 0.19663
 Cu149 Cu 0.73317 0.22135 0.29110
 Cu150 Cu 0.69839 0.26147 0.21751
 C151 C 0.78207 0.24735 0.21698
 C152 C 0.64980 0.23555 0.29249
 C153 C 0.71078 0.17619 0.21140
 C154 C 0.72282 0.30714 0.29547
 O155 O 0.34006 0.75791 0.15279
 O156 O 0.31044 0.66441 0.21474
 O157 O 0.28103 0.70990 0.14210
 O158 O 0.36633 0.71480 0.22609
 O159 O 0.32909 0.75446 0.27381
 O160 O 0.24229 0.74453 0.19308
 O161 O 0.27398 0.70175 0.26554
 O162 O 0.29998 0.79514 0.19985
 Cu163 Cu 0.32795 0.70786 0.17879
 Cu164 Cu 0.28231 0.75265 0.23785
 C165 C 0.32491 0.79242 0.16553
 C166 C 0.28864 0.66718 0.25183
 C167 C 0.24718 0.72655 0.15318
 C168 C 0.36226 0.73571 0.26409
 O169 O 0.76789 0.28114 0.68322
 O170 O 0.73702 0.18449 0.73915
 O171 O 0.71349 0.22926 0.66292
 O172 O 0.79702 0.22958 0.74768
 O173 O 0.75939 0.26661 0.79766
 O174 O 0.67344 0.26230 0.71400
 O175 O 0.69610 0.22034 0.78681
 O176 O 0.72484 0.31518 0.72997
 Cu177 Cu 0.75742 0.22755 0.70289
 Cu178 Cu 0.71094 0.26949 0.76288
 C179 C 0.75089 0.31472 0.69712
 C180 C 0.71171 0.18636 0.77327
 C181 C 0.67948 0.24538 0.67356
 C182 C 0.79262 0.24818 0.78696
 O183 O 0.31688 0.73993 0.75379
 O184 O 0.21854 0.74011 0.81162
 O185 O 0.25684 0.69256 0.75302
 O186 O 0.27608 0.79100 0.81121
 O187 O 0.24769 0.82446 0.74960
 O188 O 0.23184 0.72708 0.69018
 O189 O 0.19117 0.77392 0.74958
 O190 O 0.29056 0.77579 0.69274
 Cu191 Cu 0.27019 0.73779 0.78872
 Cu192 Cu 0.23783 0.77878 0.71424
 C193 C 0.32041 0.75699 0.71307
 C194 C 0.18810 0.75669 0.79039
 C195 C 0.24120 0.69333 0.71134
 C196 C 0.26375 0.82442 0.79088
 O197 O 0.15083 0.26330 0.77511
 O198 O 0.22622 0.22738 0.68672
 O199 O 0.19751 0.19853 0.76581
 O200 O 0.17890 0.29280 0.69439
 O201 O 0.22690 0.32239 0.73377
 O202 O 0.24518 0.22778 0.80621
 O203 O 0.27305 0.25784 0.72726
 O204 O 0.19757 0.29425 0.81508
 Cu205 Cu 0.18353 0.24275 0.72644
 Cu206 Cu 0.24010 0.27870 0.77515
 C207 C 0.16150 0.28437 0.81058
 C208 C 0.26239 0.23679 0.69179
 C209 C 0.22459 0.19694 0.79791
 C210 C 0.20050 0.32310 0.70074
 O211 O 0.74521 0.76001 0.70185
 O212 O 0.82383 0.72570 0.78743
 O213 O 0.79062 0.69337 0.71020
 O214 O 0.76930 0.78566 0.78434
 O215 O 0.72201 0.75290 0.82162
 O216 O 0.74499 0.66159 0.75146
 O217 O 0.77972 0.69329 0.83010
 O218 O 0.70040 0.72618 0.74205
 Cu219 Cu 0.78709 0.74417 0.74208
 Cu220 Cu 0.73401 0.70456 0.79140
 C221 C 0.70955 0.74944 0.70719
 C222 C 0.81511 0.70508 0.82432
 C223 C 0.77002 0.66212 0.71758
 C224 C 0.74101 0.78493 0.81483
 C225 C 0.29196 0.09701 0.09473
 C226 C 0.25717 0.11009 0.11422
 C227 C 0.25557 0.14359 0.14913
 C228 C 0.22445 0.14880 0.17870
 H229 H 0.22965 0.09569 0.10511
 H230 H 0.28011 0.16397 0.15080
 H231 H 0.31938 0.11035 0.10644
 H232 H 0.20104 0.12704 0.17847
 C233 C 0.81827 0.58022 0.57949
 C234 C 0.79171 0.58884 0.61405
 C235 C 0.79616 0.62315 0.64735
 C236 C 0.77263 0.62635 0.68587
 H237 H 0.76593 0.57024 0.61787
 H238 H 0.81736 0.64628 0.63951
 H239 H 0.84506 0.59741 0.57687
 H240 H 0.75215 0.60240 0.69320
 C241 C 0.70678 0.91835 0.08675
 C242 C 0.73402 0.90882 0.12103
 C243 C 0.73004 0.87456 0.15524
 C244 C 0.75531 0.87073 0.19251
 H245 H 0.76087 0.92602 0.12345
 H246 H 0.70856 0.85155 0.14842
 H247 H 0.67915 0.90239 0.08580
 H248 H 0.77595 0.89469 0.19879
 C249 C 0.25230 0.43278 0.60186
 C250 C 0.22060 0.41463 0.62003
 C251 C 0.22521 0.38298 0.65806
 C252 C 0.19528 0.35863 0.66801
 H253 H 0.19099 0.42175 0.60517
 H254 H 0.25400 0.37783 0.67582
 H255 H 0.28203 0.42471 0.61582
 H256 H 0.16740 0.36240 0.64800
 C257 C 0.87883 0.29895 0.10202
 C258 C 0.86586 0.26894 0.12986
 C259 C 0.82896 0.27437 0.15816
 C260 C 0.82122 0.24785 0.19327
 H261 H 0.88190 0.23923 0.13050
 H262 H 0.80727 0.29900 0.14878
 H263 H 0.86423 0.32930 0.10319
 H264 H 0.84393 0.22459 0.20390
 C265 C 0.42008 0.79432 0.59421
 C266 C 0.40504 0.76622 0.62307
 C267 C 0.36809 0.77536 0.65031
 C268 C 0.35926 0.75271 0.68857
 H269 H 0.41997 0.73607 0.62647
 H270 H 0.34763 0.80024 0.63832
 H271 H 0.40658 0.82518 0.59322
 H272 H 0.38080 0.72919 0.70160
 C273 C 0.10654 0.72240 0.10428
 C274 C 0.14323 0.73455 0.09463
 C275 C 0.17550 0.73095 0.13101
 C276 C 0.21397 0.72642 0.11812
 H277 H 0.14976 0.74659 0.05925
 H278 H 0.16762 0.73191 0.16871
 H279 H 0.10092 0.70709 0.13809
 H280 H 0.22144 0.72270 0.08054
 C281 C 0.54702 0.21841 0.61215
 C282 C 0.57886 0.24139 0.61065
 C283 C 0.60956 0.23935 0.64859
 C284 C 0.64750 0.24569 0.63746
 H285 H 0.58346 0.26092 0.57963
 H286 H 0.60141 0.23179 0.68513
 H287 H 0.54387 0.19637 0.64104
 H288 H 0.65580 0.24966 0.60018
 C289 C 0.74772 0.07657 0.88310
 C290 C 0.71965 0.09190 0.85266
 C291 C 0.72948 0.12297 0.81658
 C292 C 0.70109 0.14933 0.79927
 H293 H 0.68881 0.08364 0.85643
 H294 H 0.76065 0.12724 0.80810
 H295 H 0.77814 0.08634 0.88020
 H296 H 0.67046 0.14743 0.81140
 C297 C 0.23198 0.59034 0.38552
 C298 C 0.26023 0.59456 0.35235
 C299 C 0.25832 0.62940 0.31829
 C300 C 0.28293 0.62994 0.28065
 H301 H 0.28602 0.57304 0.35156
 H302 H 0.23842 0.65577 0.32578
 H303 H 0.20526 0.61060 0.38485
 H304 H 0.30183 0.60292 0.27273
 C305 C 0.31353 0.91926 0.91038
 C306 C 0.28447 0.90790 0.88114
 C307 C 0.28846 0.86932 0.85421
 C308 C 0.26549 0.86381 0.81574
 H309 H 0.25704 0.92692 0.87749
 H310 H 0.30951 0.84509 0.86657
 H311 H 0.34171 0.90131 0.91198
 H312 H 0.24607 0.88908 0.80245
 C313 C 0.79302 0.40056 0.39720
 C314 C 0.75824 0.38995 0.37852
 C315 C 0.75607 0.35170 0.35150
 C316 C 0.72630 0.34615 0.32053
 H317 H 0.73122 0.40918 0.38363
 H318 H 0.77938 0.32775 0.35692
 H319 H 0.82020 0.38228 0.38958
 H320 H 0.70449 0.37103 0.31260
 C321 C 0.04591 0.25910 0.91061
 C322 C 0.07098 0.28674 0.89434
 C323 C 0.09953 0.27576 0.85571
 C324 C 0.13203 0.29700 0.84754
 H325 H 0.07105 0.31702 0.90982
 H326 H 0.09464 0.24869 0.83471
 H327 H 0.04797 0.22849 0.89583
 H328 H 0.13843 0.32250 0.87040
 C329 C 0.60176 0.75105 0.41979
 C330 C 0.62849 0.77897 0.40962
 C331 C 0.65907 0.77107 0.37253
 C332 C 0.69028 0.79478 0.36737
 H333 H 0.62766 0.80787 0.42841
 H334 H 0.65620 0.74496 0.34929
 H335 H 0.60371 0.72170 0.40196
 H336 H 0.69448 0.81958 0.39211
 C337 C 0.93073 0.74370 0.91791
 C338 C 0.90706 0.71348 0.90566
 C339 C 0.87655 0.72041 0.86748
 C340 C 0.84603 0.69587 0.86151
 H341 H 0.90989 0.68391 0.92369
 H342 H 0.87848 0.74723 0.84451
 H343 H 0.92588 0.77342 0.90055
 H344 H 0.84231 0.67049 0.88614
 C345 C 0.39007 0.23365 0.40065
 C346 C 0.36080 0.20797 0.39391
 C347 C 0.33102 0.21705 0.35571
 C348 C 0.29531 0.20040 0.35517
 H349 H 0.35753 0.18208 0.41796
 H350 H 0.33753 0.24029 0.32920
 H351 H 0.39141 0.26063 0.37783
 H352 H 0.28793 0.17837 0.38265
 C353 C 0.76462 0.90970 0.90338
 C354 C 0.73919 0.88576 0.88150
 C355 C 0.75338 0.85124 0.85163
 C356 C 0.72892 0.82130 0.84254
 H357 H 0.70723 0.89055 0.88729
 H358 H 0.78399 0.84945 0.83882
 H359 H 0.79664 0.90386 0.89935
 H360 H 0.69922 0.82240 0.85816
 C361 C 0.24576 0.42158 0.39865
 C362 C 0.21489 0.39821 0.39070
 C363 C 0.21891 0.36514 0.35535
 C364 C 0.19311 0.33535 0.35346
 H365 H 0.18750 0.40256 0.41112
 H366 H 0.24463 0.36424 0.33170
 H367 H 0.27346 0.41556 0.37923
 H368 H 0.16824 0.33525 0.37828
 C369 C 0.29950 0.09690 0.90298
 C370 C 0.26550 0.11188 0.88211
 C371 C 0.26380 0.14899 0.85153
 C372 C 0.23052 0.15896 0.82631
 H373 H 0.23761 0.09723 0.88868
 H374 H 0.28909 0.16843 0.85046
 H375 H 0.32747 0.11089 0.89508
 H376 H 0.20627 0.13816 0.82618
 C377 C 0.77808 0.57487 0.38643
 C378 C 0.80409 0.60252 0.37379
 C379 C 0.79108 0.63753 0.34296
 C380 C 0.81120 0.67168 0.34308
 H381 H 0.83389 0.60126 0.38951
 H382 H 0.76344 0.63635 0.32258
 H383 H 0.74752 0.57800 0.37309
 H384 H 0.83791 0.67311 0.36514
 C385 C 0.09256 0.70921 0.90892
 C386 C 0.10608 0.73837 0.87996
 C387 C 0.14076 0.73074 0.84866
 C388 C 0.14915 0.75786 0.81443
 H389 H 0.09289 0.76937 0.88110
 H390 H 0.16111 0.70448 0.85599
 H391 H 0.10402 0.67777 0.90525
 H392 H 0.12776 0.78289 0.80559
 C393 C 0.55558 0.19476 0.41729
 C394 C 0.56700 0.22089 0.38341
 C395 C 0.60386 0.21318 0.35550
 C396 C 0.61066 0.23582 0.31644
 H397 H 0.54965 0.24945 0.37733
 H398 H 0.62638 0.19061 0.36845
 H399 H 0.57145 0.16523 0.42191
 H400 H 0.58724 0.25712 0.30286
 C401 C 0.88216 0.30097 0.90900
 C402 C 0.86667 0.26998 0.88569
 C403 C 0.83302 0.27586 0.85190
 C404 C 0.82639 0.24643 0.82057
 H405 H 0.87921 0.23904 0.89149
 H406 H 0.81396 0.30370 0.85254
 H407 H 0.87113 0.33222 0.90193
 H408 H 0.84738 0.22007 0.81841
 C409 C 0.43889 0.78926 0.39918
 C410 C 0.43003 0.75896 0.36966
 C411 C 0.39864 0.76403 0.33248
 C412 C 0.39614 0.73615 0.29795
 H413 H 0.44553 0.72915 0.37380
 H414 H 0.37671 0.78955 0.33447
 H415 H 0.42518 0.81973 0.39380
 H416 H 0.41935 0.71189 0.29510
 C417 C 0.29355 0.92836 0.10254
 C418 C 0.32260 0.89963 0.11085
 C419 C 0.31511 0.86498 0.14309
 C420 C 0.33594 0.82927 0.13902
 H421 H 0.35023 0.89967 0.09060
 H422 H 0.28996 0.86763 0.16752
 H423 H 0.26498 0.92626 0.12046
 H424 H 0.35982 0.82617 0.11289
 C425 C 0.81940 0.40533 0.58516
 C426 C 0.79002 0.39722 0.61565
 C427 C 0.78921 0.35871 0.64328
 C428 C 0.75931 0.35387 0.67410
 H429 H 0.76404 0.41843 0.61785
 H430 H 0.81091 0.33377 0.63610
 H431 H 0.84622 0.38533 0.58352
 H432 H 0.73859 0.37965 0.68149
 C433 C 0.68850 0.08938 0.07141
 C434 C 0.70774 0.09738 0.11212
 C435 C 0.69724 0.13399 0.14069
 C436 C 0.71252 0.13752 0.18479
 H437 H 0.73264 0.07711 0.12400
 H438 H 0.67912 0.15898 0.12455
 H439 H 0.66221 0.10809 0.06060
 H440 H 0.72973 0.11178 0.20075
 C441 C 0.25119 0.60811 0.57272
 C442 C 0.23115 0.61417 0.61349
 C443 C 0.23487 0.65284 0.63907
 C444 C 0.23451 0.65463 0.68691
 H445 H 0.21350 0.59035 0.62863
 H446 H 0.24073 0.68004 0.61814
 H447 H 0.27153 0.63076 0.56044
 H448 H 0.23202 0.62694 0.70819
 C449 C 0.94438 0.76622 0.11547
 C450 C 0.91606 0.74194 0.13054
 C451 C 0.88782 0.75535 0.16816
 C452 C 0.85336 0.73707 0.17344
 H453 H 0.91256 0.71261 0.11360
 H454 H 0.89455 0.78117 0.19039
 H455 H 0.94643 0.79640 0.13079
 H456 H 0.84607 0.71263 0.14939
 C457 C 0.38355 0.25540 0.59933
 C458 C 0.35536 0.23026 0.61300
 C459 C 0.32579 0.24311 0.64949
 C460 C 0.29212 0.22342 0.65572
 H461 H 0.35382 0.20030 0.59697
 H462 H 0.33128 0.26979 0.67090
 H463 H 0.38366 0.28600 0.61397
 H464 H 0.28545 0.19821 0.63253
 C465 C 0.04171 0.25461 0.11288
 C466 C 0.06774 0.28092 0.12889
 C467 C 0.09565 0.26838 0.16782
 C468 C 0.12930 0.28765 0.17503
 H469 H 0.06962 0.31080 0.11202
 H470 H 0.08989 0.24118 0.18879
 H471 H 0.04148 0.22420 0.12879
 H472 H 0.13626 0.31336 0.15221
 C473 C 0.58320 0.74256 0.61983
 C474 C 0.61422 0.76465 0.63145
 C475 C 0.64264 0.75012 0.66935
 C476 C 0.67911 0.76479 0.67212
 H477 H 0.62008 0.79208 0.61100
 H478 H 0.63440 0.72582 0.69358
 H479 H 0.57904 0.71390 0.63864
 H480 H 0.68762 0.78790 0.64645
   
