data_POSCAR
  _audit_creation_date              2014-09-24
  _audit_creation_method            'ToBaCCo'
  _symmetry_space_group_name_H-M    'P1'
  _symmetry_Int_Tables_number       1
  _symmetry_cell_setting            triclinic
  loop_
  _symmetry_equiv_pos_as_xyz
 x,y,z
_cell_length_a 32.0180
_cell_length_b 32.3129
_cell_length_c 32.1707
_cell_angle_alpha 90.196900
_cell_angle_beta 90.653300
_cell_angle_gamma 90.433300
loop_
  _atom_site_label
  _atom_site_type_symbol
  _atom_site_fract_x
  _atom_site_fract_y
  _atom_site_fract_z
N1 N 0.34309 0.27936 0.22438
 N2 N 0.32349 0.31424 0.21694
 C3 C 0.33574 0.32929 0.17998
 C4 C 0.36466 0.30239 0.16384
 C5 C 0.36861 0.27108 0.19254
 H6 H 0.32307 0.35650 0.16512
 H7 H 0.38691 0.24327 0.18938
 Cu8 Cu 0.28084 0.33413 0.25423
 Cu9 Cu 0.33025 0.24447 0.27188
 Cu10 Cu 0.24484 0.27292 0.33029
 N11 N 0.22868 0.34579 0.28183
 N12 N 0.21487 0.32193 0.31182
 C13 C 0.17654 0.33450 0.32280
 C14 C 0.16607 0.36794 0.29843
 C15 C 0.19958 0.37431 0.27263
 H16 H 0.15673 0.31892 0.34493
 H17 H 0.20161 0.39634 0.24747
 N18 N 0.27935 0.22432 0.34340
 N19 N 0.31185 0.21338 0.32106
 C20 C 0.32590 0.17660 0.33477
 C21 C 0.30114 0.16417 0.36721
 C22 C 0.27192 0.19483 0.37191
 H23 H 0.35045 0.15887 0.32052
 H24 H 0.24558 0.19424 0.39265
 H25 H 0.26841 0.26216 0.27181
 H26 H 0.30401 0.28856 0.31015
 N27 N 0.66126 -0.27761 0.21984
 N28 N 0.68104 -0.31223 0.21178
 C29 C 0.66792 -0.32714 0.17465
 C30 C 0.63822 -0.30045 0.15912
 C31 C 0.63474 -0.26935 0.18826
 H32 H 0.68049 -0.35411 0.15933
 H33 H 0.61607 -0.24169 0.18563
 Cu34 Cu 0.72486 -0.33203 0.24861
 Cu35 Cu 0.67505 -0.24300 0.26785
 Cu36 Cu 0.76223 -0.27117 0.32555
 N37 N 0.77779 -0.34353 0.27597
 N38 N 0.79212 -0.31980 0.30634
 C39 C 0.83068 -0.33236 0.31736
 C40 C 0.84069 -0.36567 0.29263
 C41 C 0.80675 -0.37196 0.26652
 H42 H 0.85079 -0.31695 0.33990
 H43 H 0.80422 -0.39395 0.24116
 N44 N 0.72767 -0.22298 0.33951
 N45 N 0.69446 -0.21215 0.31746
 C46 C 0.68035 -0.17570 0.33189
 C47 C 0.70582 -0.16335 0.36449
 C48 C 0.73550 -0.19373 0.36854
 H49 H 0.65519 -0.15812 0.31809
 H50 H 0.76231 -0.19312 0.38928
 H51 H 0.73705 -0.26010 0.26731
 H52 H 0.70270 -0.28717 0.30532
 N53 N 0.65738 0.27484 0.78023
 N54 N 0.67485 0.31134 0.78651
 C55 C 0.66150 0.32698 0.82286
 C56 C 0.63409 0.29873 0.83981
 C57 C 0.63216 0.26606 0.81222
 H58 H 0.67245 0.35564 0.83679
 H59 H 0.61518 0.23728 0.81608
 Cu60 Cu 0.71689 0.33243 0.74899
 Cu61 Cu 0.67136 0.23976 0.73314
 Cu62 Cu 0.74641 0.27779 0.66586
 N63 N 0.76964 0.34353 0.72182
 N64 N 0.78113 0.32206 0.68913
 C65 C 0.81959 0.33443 0.67775
 C66 C 0.83263 0.36508 0.70497
 C67 C 0.80048 0.37014 0.73266
 H68 H 0.83732 0.32084 0.65280
 H69 H 0.80016 0.39033 0.75956
 N70 N 0.71770 0.22424 0.65748
 N71 N 0.68969 0.20937 0.68345
 C72 C 0.67923 0.17059 0.67162
 C73 C 0.70168 0.16090 0.63671
 C74 C 0.72585 0.19531 0.62852
 H75 H 0.65850 0.15012 0.68827
 H76 H 0.74938 0.19815 0.60482
 H77 H 0.73138 0.26273 0.72545
 H78 H 0.68857 0.28639 0.69412
 N79 N 0.33883 -0.27781 0.77677
 N80 N 0.31902 -0.31271 0.78450
 C81 C 0.33257 -0.32780 0.82122
 C82 C 0.36256 -0.30092 0.83687
 C83 C 0.36577 -0.26957 0.80816
 H84 H 0.32009 -0.35503 0.83628
 H85 H 0.38455 -0.24172 0.81105
 Cu86 Cu 0.27463 -0.33262 0.74787
 Cu87 Cu 0.32450 -0.24279 0.72965
 Cu88 Cu 0.23646 -0.27129 0.67256
 N89 N 0.22139 -0.34454 0.72083
 N90 N 0.20675 -0.32062 0.69111
 C91 C 0.16808 -0.33361 0.68022
 C92 C 0.15831 -0.36740 0.70437
 C93 C 0.19251 -0.37353 0.73000
 H94 H 0.14772 -0.31818 0.65824
 H95 H 0.19529 -0.39579 0.75491
 N96 N 0.27095 -0.22242 0.65917
 N97 N 0.30452 -0.21154 0.68096
 C98 C 0.31867 -0.17480 0.66701
 C99 C 0.29283 -0.16231 0.63501
 C100 C 0.26290 -0.19291 0.63079
 H101 H 0.34420 -0.15720 0.68072
 H102 H 0.23587 -0.19236 0.61033
 H103 H 0.26243 -0.26062 0.73068
 H104 H 0.29616 -0.28684 0.69170
 N105 N 0.70118 -0.23315 0.81794
 N106 N 0.71901 -0.26886 0.82587
 C107 C 0.70113 -0.28592 0.85947
 C108 C 0.67056 -0.25947 0.87304
 C109 C 0.67125 -0.22630 0.84619
 H110 H 0.70968 -0.31530 0.87301
 H111 H 0.65149 -0.19931 0.84715
 Cu112 Cu 0.76367 -0.29003 0.79164
 Cu113 Cu 0.71810 -0.19857 0.77147
 Cu114 Cu 0.80590 -0.22939 0.71806
 N115 N 0.81677 -0.30326 0.76642
 N116 N 0.83318 -0.27950 0.73765
 C117 C 0.86947 -0.29602 0.72522
 C118 C 0.87589 -0.33181 0.74752
 C119 C 0.84206 -0.33573 0.77337
 H120 H 0.88949 -0.28315 0.70159
 H121 H 0.83617 -0.36033 0.79530
 N122 N 0.77376 -0.17971 0.70307
 N123 N 0.74026 -0.16797 0.72348
 C124 C 0.72497 -0.13347 0.70569
 C125 C 0.75008 -0.12325 0.67274
 C126 C 0.78066 -0.15299 0.67175
 H127 H 0.69746 -0.11715 0.71567
 H128 H 0.80578 -0.15511 0.64967
 H129 H 0.74523 -0.24348 0.73483
 H130 H 0.77934 -0.21826 0.77533
 N131 N 0.29694 0.23215 0.81938
 N132 N 0.27828 0.26733 0.82759
 C133 C 0.29607 0.28459 0.86165
 C134 C 0.32743 0.25881 0.87525
 C135 C 0.32733 0.22585 0.84792
 H136 H 0.28698 0.31370 0.87544
 H137 H 0.34785 0.19942 0.84868
 Cu138 Cu 0.23287 0.28769 0.79296
 Cu139 Cu 0.28053 0.19757 0.77212
 Cu140 Cu 0.19164 0.22671 0.71772
 N141 N 0.17931 0.29985 0.76703
 N142 N 0.16329 0.27599 0.73762
 C143 C 0.12658 0.29185 0.72480
 C144 C 0.11945 0.32732 0.74750
 C145 C 0.15334 0.33169 0.77399
 H146 H 0.10674 0.27880 0.70059
 H147 H 0.15880 0.35626 0.79635
 N148 N 0.22489 0.17794 0.70254
 N149 N 0.25881 0.16685 0.72333
 C150 C 0.27478 0.13283 0.70536
 C151 C 0.24969 0.12223 0.67187
 C152 C 0.21840 0.15125 0.67077
 H153 H 0.30270 0.11704 0.71561
 H154 H 0.19305 0.15289 0.64835
 H155 H 0.25204 0.24214 0.73567
 H156 H 0.21881 0.21577 0.77521
 N157 N 0.30350 -0.23060 0.18001
 N158 N 0.28463 -0.26600 0.17157
 C159 C 0.30207 -0.28312 0.13778
 C160 C 0.33344 -0.25703 0.12461
 C161 C 0.33370 -0.22401 0.15190
 H162 H 0.29266 -0.31229 0.12384
 H163 H 0.35426 -0.19731 0.15134
 Cu164 Cu 0.23928 -0.28679 0.20538
 Cu165 Cu 0.28743 -0.19602 0.22686
 Cu166 Cu 0.19854 -0.22600 0.27950
 N167 N 0.18575 -0.29947 0.23030
 N168 N 0.16992 -0.27562 0.25925
 C169 C 0.13324 -0.29184 0.27153
 C170 C 0.12591 -0.32754 0.24896
 C171 C 0.15966 -0.33169 0.22310
 H172 H 0.11360 -0.27893 0.29536
 H173 H 0.16499 -0.35639 0.20106
 N174 N 0.23199 -0.17684 0.29522
 N175 N 0.26593 -0.16540 0.27516
 C176 C 0.28203 -0.13115 0.29344
 C177 C 0.25697 -0.12081 0.32635
 C178 C 0.22560 -0.15018 0.32679
 H179 H 0.30999 -0.11505 0.28378
 H180 H 0.20025 -0.15208 0.34864
 H181 H 0.25893 -0.24078 0.26280
 H182 H 0.22571 -0.21491 0.22248
 N183 N 0.69961 0.23117 0.18343
 N184 N 0.71815 0.26670 0.17545
 C185 C 0.70017 0.28375 0.14165
 C186 C 0.66879 0.25749 0.12796
 C187 C 0.66908 0.22444 0.15497
 H188 H 0.70920 0.31301 0.12805
 H189 H 0.64865 0.19763 0.15401
 Cu190 Cu 0.76379 0.28770 0.20988
 Cu191 Cu 0.71647 0.19671 0.23023
 Cu192 Cu 0.80598 0.22710 0.28389
 N193 N 0.81769 0.30055 0.23514
 N194 N 0.83411 0.27682 0.26408
 C195 C 0.87103 0.29314 0.27651
 C196 C 0.87787 0.32876 0.25404
 C197 C 0.84360 0.33274 0.22809
 H198 H 0.89121 0.28030 0.30029
 H199 H 0.83784 0.35730 0.20603
 N200 N 0.77290 0.17783 0.29903
 N201 N 0.73874 0.16625 0.27855
 C202 C 0.72301 0.13195 0.29644
 C203 C 0.74851 0.12171 0.32954
 C204 C 0.77979 0.15121 0.33050
 H205 H 0.69499 0.11573 0.28637
 H206 H 0.80543 0.15320 0.35261
 H207 H 0.74531 0.24157 0.26681
 H208 H 0.77808 0.21591 0.22657
 C209 C 0.28372 0.01548 0.39017
 C210 C 0.29141 0.04880 0.41703
 C211 C 0.29135 0.04283 0.46010
 C212 C 0.28174 0.00371 0.47703
 C213 C 0.27325 -0.02943 0.44935
 C214 C 0.27504 -0.02371 0.40626
 C215 C 0.28009 -0.00235 0.52314
 C216 C 0.28804 -0.04145 0.54086
 C217 C 0.28520 -0.04738 0.58382
 C218 C 0.27617 -0.01406 0.60991
 C219 C 0.26908 0.02509 0.59310
 C220 C 0.27019 0.03078 0.54998
 H221 H 0.28407 0.02012 0.35679
 H222 H 0.29877 0.06894 0.48007
 H223 H 0.26465 -0.05969 0.46089
 H224 H 0.29653 -0.06752 0.52161
 H225 H 0.27445 -0.01864 0.64324
 H226 H 0.26285 0.06104 0.53772
 C227 C 0.72379 0.01317 0.61115
 C228 C 0.71510 0.04650 0.58498
 C229 C 0.71388 0.04079 0.54183
 C230 C 0.72307 0.00195 0.52410
 C231 C 0.73260 -0.03119 0.55106
 C232 C 0.73213 -0.02576 0.59428
 C233 C 0.72286 -0.00387 0.47788
 C234 C 0.71402 -0.04296 0.46000
 C235 C 0.71494 -0.04861 0.41687
 C236 C 0.72297 -0.01503 0.39083
 C237 C 0.73097 0.02410 0.40784
 C238 C 0.73173 0.02953 0.45106
 H239 H 0.72419 0.01754 0.64460
 H240 H 0.70556 0.06682 0.52243
 H241 H 0.74079 -0.06125 0.53883
 H242 H 0.70632 -0.06924 0.47929
 H243 H 0.72328 -0.01941 0.35739
 H244 H 0.73972 0.05980 0.46342
 C245 C 0.38782 0.28787 0.01379
 C246 C 0.41402 0.29652 0.04781
 C247 C 0.45738 0.29793 0.04277
 C248 C 0.47533 0.28887 0.00397
 C249 C 0.44837 0.27949 -0.02988
 C250 C 0.40494 0.27975 -0.02513
 C251 C 0.52178 0.28831 -0.00093
 C252 C 0.54010 0.29666 -0.03973
 C253 C 0.58341 0.29438 -0.04467
 C254 C 0.60923 0.28549 -0.01059
 C255 C 0.59177 0.27800 0.02829
 C256 C 0.54834 0.27864 0.03297
 H257 H 0.35423 0.28697 0.01771
 H258 H 0.47682 0.30589 0.06940
 H259 H 0.46078 0.27127 -0.05992
 H260 H 0.52099 0.30479 -0.06639
 H261 H 0.64280 0.28396 -0.01442
 H262 H 0.53561 0.27093 0.06300
 C263 C 0.61258 0.71339 0.01128
 C264 C 0.58712 0.70505 0.04528
 C265 C 0.54366 0.70347 0.04016
 C266 C 0.52486 0.71201 0.00127
 C267 C 0.55110 0.72108 -0.03257
 C268 C 0.59464 0.72101 -0.02771
 C269 C 0.47829 0.71223 -0.00375
 C270 C 0.45923 0.70333 -0.04257
 C271 C 0.41578 0.70519 -0.04760
 C272 C 0.39061 0.71420 -0.01360
 C273 C 0.40881 0.72224 0.02530
 C274 C 0.45235 0.72203 0.03006
 H275 H 0.64626 0.71438 0.01526
 H276 H 0.52480 0.69572 0.06678
 H277 H 0.53804 0.72888 -0.06269
 H278 H 0.47784 0.69508 -0.06916
 H279 H 0.35694 0.71538 -0.01750
 H280 H 0.46563 0.73014 0.06010
 C281 C 0.01663 0.39161 0.27682
 C282 C 0.05043 0.41828 0.28436
 C283 C 0.04459 0.46118 0.28425
 C284 C 0.00509 0.47810 0.27481
 C285 C -0.02849 0.45061 0.26640
 C286 C -0.02289 0.40771 0.26826
 C287 C -0.00102 0.52402 0.27368
 C288 C -0.04038 0.54142 0.28201
 C289 C -0.04622 0.58427 0.28014
 C290 C -0.01253 0.61051 0.27167
 C291 C 0.02686 0.59398 0.26418
 C292 C 0.03244 0.55103 0.26430
 H293 H 0.02110 0.35837 0.27749
 H294 H 0.07102 0.48099 0.29176
 H295 H -0.05908 0.46216 0.25806
 H296 H -0.06668 0.52202 0.29026
 H297 H -0.01696 0.64376 0.27093
 H298 H 0.06292 0.53907 0.25680
 C299 C 0.01151 0.60766 0.72534
 C300 C 0.04501 0.58147 0.71736
 C301 C 0.03886 0.53853 0.71630
 C302 C -0.00063 0.52102 0.72499
 C303 C -0.03389 0.54804 0.73386
 C304 C -0.02800 0.59103 0.73316
 C305 C -0.00704 0.47501 0.72482
 C306 C -0.04673 0.45750 0.71606
 C307 C -0.05288 0.41456 0.71689
 C308 C -0.01920 0.38836 0.72467
 C309 C 0.02051 0.40500 0.73254
 C310 C 0.02641 0.44800 0.73349
 H311 H 0.01619 0.64095 0.72549
 H312 H 0.06504 0.51915 0.70841
 H313 H -0.06445 0.53607 0.74166
 H314 H -0.07309 0.47688 0.70837
 H315 H -0.02391 0.35508 0.72471
 H316 H 0.05715 0.45998 0.74136
 C317 C 0.38205 0.30273 0.12292
 C318 C 0.39659 0.30100 0.08858
 C319 C 0.62082 0.69934 0.12041
 C320 C 0.60546 0.70090 0.08608
 C321 C 0.61613 0.29961 -0.11953
 C322 C 0.60118 0.29832 -0.08535
 C323 C 0.38146 0.69881 -0.12246
 C324 C 0.39717 0.70062 -0.08829
 C325 C 0.12568 0.38665 0.29489
 C326 C 0.09147 0.40147 0.29077
 C327 C 0.12016 0.61427 0.70765
 C328 C 0.08602 0.59887 0.71146
 C329 C -0.12119 0.61649 0.28947
 C330 C -0.08710 0.60143 0.28581
 C331 C -0.12864 0.38242 0.70774
 C332 C -0.09414 0.39731 0.71123
 C333 C 0.29977 0.12381 0.38563
 C334 C 0.29692 0.08966 0.40028
 C335 C 0.70500 0.12084 0.61768
 C336 C 0.70893 0.08699 0.60247
 C337 C 0.29188 -0.12214 0.61615
 C338 C 0.28966 -0.08813 0.60110
 C339 C 0.70708 -0.12327 0.38382
 C340 C 0.70976 -0.08931 0.39924
 C341 C 0.64351 0.73443 -0.09214
 C342 C 0.62107 0.72869 -0.06284
 C343 C 0.35492 0.26546 -0.08971
 C344 C 0.37781 0.27163 -0.06028
 C345 C 0.36037 0.73660 0.08978
 C346 C 0.38264 0.73048 0.06045
 C347 C 0.64131 0.26378 0.09297
 C348 C 0.61856 0.26984 0.06353
 C349 C -0.09166 0.64160 0.74363
 C350 C -0.06275 0.61832 0.73941
 C351 C -0.08724 0.35672 0.25812
 C352 C -0.05793 0.38007 0.26225
 C353 C 0.08465 0.35483 0.74315
 C354 C 0.05543 0.37781 0.73880
 C355 C 0.09114 0.64450 0.25314
 C356 C 0.06188 0.62129 0.25758
 C357 C 0.74470 -0.08910 0.64472
 C358 C 0.73945 -0.06032 0.62151
 C359 C 0.26279 -0.08676 0.35473
 C360 C 0.26806 -0.05810 0.37837
 C361 C 0.74311 0.08758 0.35754
 C362 C 0.73799 0.05877 0.38070
 C363 C 0.25559 0.08826 0.64365
 C364 C 0.26127 0.05958 0.62035
   
