data_POSCAR
  _audit_creation_date              2014-09-24
  _audit_creation_method            'ToBaCCo'
  _symmetry_space_group_name_H-M    'P1'
  _symmetry_Int_Tables_number       1
  _symmetry_cell_setting            triclinic
  loop_
  _symmetry_equiv_pos_as_xyz
 x,y,z
_cell_length_a 31.3623
_cell_length_b 31.5263
_cell_length_c 77.2155
_cell_angle_alpha 87.474200
_cell_angle_beta 91.323200
_cell_angle_gamma 119.779000
loop_
  _atom_site_label
  _atom_site_type_symbol
  _atom_site_fract_x
  _atom_site_fract_y
  _atom_site_fract_z
C1 C 0.02494 0.09279 0.52198
 H2 H 0.05983 0.09362 0.52185
 C3 C 0.01989 0.12666 0.53142
 H4 H 0.05094 0.15301 0.53876
 C5 C -0.05775 0.05722 0.51246
 H6 H -0.08752 0.03060 0.50477
 C7 C -0.06451 0.09048 0.52182
 H8 H -0.09967 0.08917 0.52129
 N9 N -0.01348 0.05903 0.51276
 C10 C 0.02160 -0.05701 0.50682
 H11 H 0.02430 -0.05682 0.49287
 C12 C 0.02397 -0.09337 0.51713
 H13 H 0.02860 -0.12104 0.51099
 C14 C 0.00859 -0.02323 0.53162
 H15 H 0.00114 0.00321 0.53721
 C16 C 0.01076 -0.05882 0.54239
 H17 H 0.00618 -0.05850 0.55623
 Zn18 Zn 0.00089 0.01887 0.49943
 N19 N 0.01347 -0.02324 0.51417
 C20 C 0.09916 0.06109 0.48632
 N21 N 0.05622 0.06199 0.48587
 C22 C 0.05169 0.09692 0.47641
 C23 C 0.09124 0.13294 0.46689
 C24 C 0.13981 0.09651 0.47688
 C25 C -0.09403 -0.05735 0.49255
 C26 C -0.13164 -0.09257 0.48255
 C27 C -0.08306 -0.05253 0.45699
 C28 C -0.04649 -0.01834 0.46753
 N29 N -0.05226 -0.02162 0.48498
 H30 H 0.10222 0.03355 0.49421
 H31 H 0.01723 0.09701 0.47646
 H32 H 0.08665 0.16022 0.45936
 H33 H 0.17401 0.09589 0.47755
 H34 H -0.09724 -0.05978 0.50653
 H35 H -0.16230 -0.12164 0.48958
 H36 H -0.07666 -0.04653 0.44320
 H37 H -0.01290 0.01015 0.46170
 C38 C 0.01749 -0.09516 0.53514
 C39 C -0.02514 0.12611 0.53131
 C40 C -0.12658 -0.09195 0.46429
 C41 C 0.13619 0.13335 0.46714
 C42 C 1.10013 0.05346 0.14377
 H43 H 1.09843 0.08676 0.14461
 C44 C 1.13496 0.05263 0.13315
 H45 H 1.15934 0.08532 0.12560
 C46 C 1.06986 -0.02949 0.15265
 H47 H 1.04501 -0.06101 0.16057
 C48 C 1.10444 -0.03191 0.14220
 H49 H 1.10582 -0.06554 0.14213
 N50 N 1.06842 0.01285 0.15320
 C51 C 0.95170 0.04536 0.16348
 H52 H 0.95282 0.04590 0.17748
 C53 C 0.91546 0.05062 0.15437
 H54 H 0.88948 0.05631 0.16148
 C55 C 0.98319 0.03540 0.13730
 H56 H 1.00837 0.02757 0.13073
 C57 C 0.94754 0.04032 0.12771
 H58 H 0.94606 0.03639 0.11382
 Zn59 Zn 1.02657 0.02173 0.16800
 N60 N 0.98445 0.03765 0.15487
 C61 C 1.06698 0.11408 0.18459
 N62 N 1.06827 0.07198 0.18284
 C63 C 1.10090 0.06311 0.19187
 C64 C 1.13288 0.09639 0.20368
 C65 C 1.09861 0.14865 0.19631
 C66 C 0.95316 -0.07698 0.17361
 C67 C 0.91700 -0.11673 0.18327
 C68 C 0.94828 -0.06992 0.20906
 C69 C 0.98396 -0.03140 0.19898
 N70 N 0.98541 -0.03523 0.18155
 H71 H 1.04127 0.12072 0.17706
 H72 H 1.10151 0.02960 0.19001
 H73 H 1.15851 0.08848 0.21075
 H74 H 1.09659 0.18156 0.19788
 H75 H 0.95427 -0.07862 0.15967
 H76 H 0.89048 -0.14913 0.17672
 H77 H 0.94689 -0.06570 0.22285
 H78 H 1.00881 0.00243 0.20504
 C79 C 0.91256 0.04734 0.13625
 C80 C 1.13788 0.00973 0.13238
 C81 C 0.91361 -0.11283 0.20117
 C82 C 1.13165 0.13957 0.20620
 C83 C 0.03950 0.94808 0.85481
 H84 H 0.00622 0.91299 0.85421
 C85 C 0.07837 0.95308 0.86529
 H86 H 0.07443 0.92169 0.87293
 C87 C 0.08427 1.03171 0.84574
 H88 H 0.08649 1.06207 0.83796
 C89 C 0.12413 1.03840 0.85613
 H90 H 0.15691 1.07404 0.85623
 N91 N 0.04283 0.98716 0.84546
 C92 C -0.10744 0.95787 0.83887
 H93 H -0.11046 0.95869 0.82489
 C94 C -0.14530 0.95452 0.84909
 H95 H -0.17642 0.95365 0.84245
 C96 C -0.06028 0.96294 0.86383
 H97 H -0.02678 0.96711 0.86957
 C98 C -0.09713 0.95951 0.87454
 H99 H -0.09138 0.95867 0.88838
 Zn100 Zn -0.01263 0.97512 0.83182
 N101 N -0.06580 0.96246 0.84634
 C102 C -0.07255 0.88041 0.81798
 N103 N -0.02730 0.92105 0.81826
 C104 C 0.01064 0.92449 0.80897
 C105 C 0.00377 0.88647 0.79862
 C106 C -0.08112 0.84144 0.80772
 C107 C 0.00696 1.07129 0.82461
 C108 C 0.00999 1.11027 0.81430
 C109 C -0.00127 1.06346 0.78896
 C110 C -0.00410 1.02547 0.79973
 N111 N -0.00035 1.02982 0.81722
 H112 H -0.10197 0.87813 0.82570
 H113 H 0.04630 0.95714 0.80954
 H114 H 0.03428 0.89046 0.79106
 H115 H -0.11726 0.80926 0.80764
 H116 H 0.00874 1.07339 0.83858
 H117 H 0.01418 1.14234 0.82045
 H118 H -0.00475 1.05908 0.77508
 H119 H -0.01089 0.99195 0.79408
 C120 C -0.14042 0.95634 0.86734
 C121 C 0.12138 0.99873 0.86611
 C122 C 0.00497 1.10623 0.79623
 C123 C -0.04260 0.84425 0.79786
 C124 C 0.36451 -0.03067 0.00755
 C125 C 0.36522 -0.03014 -0.01021
 C126 C 0.41335 -0.01419 -0.01495
 N127 N 0.44211 -0.00454 -0.00071
 C128 C 0.41231 -0.01472 0.01308
 C129 C 0.43031 -0.00628 -0.03222
 C130 C 0.47741 0.00236 -0.03687
 C131 C 0.49762 0.01724 -0.05333
 C132 C 0.54219 0.01871 -0.05280
 C133 C 0.54822 0.00516 -0.03600
 N134 N 0.50843 -0.00518 -0.02642
 C135 C 0.58903 0.00099 -0.03015
 C136 C 0.60092 -0.00031 -0.01245
 C137 C 0.63907 -0.00704 -0.00625
 C138 C 0.64073 -0.00203 0.01134
 C139 C 0.60324 0.00710 0.01533
 N140 N 0.57915 0.00843 0.00076
 C141 C 0.59380 0.01678 0.03207
 C142 C 0.55077 0.01769 0.03651
 C143 C 0.54357 0.03338 0.05212
 C144 C 0.49660 0.02629 0.05176
 C145 C 0.47651 0.00681 0.03588
 N146 N 0.50954 0.00118 0.02676
 C147 C 0.42817 -0.00665 0.03051
 H148 H 0.33254 -0.04108 0.01548
 H149 H 0.33388 -0.04026 -0.01867
 H150 H 0.50246 -0.01749 0.01535
 H151 H 0.48179 0.02583 -0.06461
 H152 H 0.56740 0.02885 -0.06355
 H153 H 0.66358 -0.01420 -0.01364
 H154 H 0.66662 -0.00475 0.02018
 H155 H 0.47931 0.03476 0.06199
 H156 H 0.50068 -0.02145 -0.01405
 H157 H 0.56936 0.04813 0.06273
 C158 C -0.03509 0.35379 0.65371
 C159 C -0.03200 0.35175 0.67144
 C160 C -0.04404 0.38524 0.67746
 N161 N -0.05433 0.40767 0.66402
 C162 C -0.04868 0.38863 0.64948
 C163 C -0.04848 0.39232 0.69513
 C164 C -0.05577 0.43024 0.70081
 C165 C -0.07165 0.43193 0.71724
 C166 C -0.07169 0.47544 0.71785
 C167 C -0.05560 0.49924 0.70180
 N168 N -0.04583 0.47148 0.69151
 C169 C -0.04753 0.54669 0.69744
 C170 C -0.03961 0.56660 0.68030
 C171 C -0.02409 0.61515 0.67582
 C172 C -0.02352 0.61890 0.65806
 C173 C -0.03900 0.57243 0.65227
 N174 N -0.04893 0.54050 0.66589
 C175 C -0.04680 0.55960 0.63471
 C176 C -0.05804 0.51303 0.62916
 C177 C -0.07710 0.49507 0.61302
 C178 C -0.08074 0.44983 0.61245
 C179 C -0.06352 0.44153 0.62822
 N180 N -0.04962 0.48033 0.63830
 C181 C -0.05829 0.40025 0.63249
 H182 H -0.02812 0.33208 0.64493
 H183 H -0.02231 0.32806 0.67902
 H184 H -0.03039 0.48660 0.64991
 H185 H -0.08203 0.40469 0.72772
 H186 H -0.08199 0.48826 0.72893
 H187 H -0.01425 0.64479 0.68445
 H188 H -0.01325 0.65200 0.65030
 H189 H -0.09415 0.42597 0.60159
 H190 H -0.02813 0.48240 0.67960
 H191 H -0.08728 0.51274 0.60271
 C192 C 0.65637 0.64471 0.34064
 C193 C 0.65657 0.64250 0.32294
 C194 C 0.62091 0.59552 0.31891
 N195 N 0.59943 0.56879 0.33354
 C196 C 0.62093 0.59884 0.34685
 C197 C 0.61046 0.57748 0.30202
 C198 C 0.56856 0.53281 0.29781
 C199 C 0.56101 0.51072 0.28202
 C200 C 0.51483 0.47022 0.28261
 C201 C 0.49557 0.46852 0.29877
 N202 N 0.52841 0.50691 0.30792
 C203 C 0.44786 0.43328 0.30437
 C204 C 0.43401 0.42407 0.32202
 C205 C 0.38692 0.39233 0.32805
 C206 C 0.38992 0.39078 0.34579
 C207 C 0.43861 0.42211 0.35002
 N208 N 0.46554 0.44221 0.33548
 C209 C 0.45776 0.42953 0.36705
 C210 C 0.50445 0.46872 0.37144
 C211 C 0.52673 0.47382 0.38754
 C212 C 0.56973 0.51804 0.38693
 C213 C 0.57284 0.53842 0.37041
 N214 N 0.53276 0.50840 0.36111
 C215 C 0.61114 0.58458 0.36457
 H216 H 0.67999 0.67637 0.34808
 H217 H 0.68017 0.67212 0.31406
 H218 H 0.52289 0.51709 0.34911
 H219 H 0.58597 0.52278 0.27113
 H220 H 0.49743 0.44489 0.27230
 H221 H 0.35389 0.37199 0.32049
 H222 H 0.35969 0.36921 0.35459
 H223 H 0.59586 0.53334 0.39742
 H224 H 0.52147 0.51777 0.31953
 H225 H 0.51321 0.44859 0.39866
 C226 C 0.00800 0.21179 0.54081
 C227 C 0.00508 0.24603 0.55082
 C228 C -0.03618 0.23256 0.56120
 C229 C -0.07513 0.18382 0.56109
 C230 C -0.07220 0.14951 0.55101
 C231 C -0.03026 0.16298 0.54098
 C232 C -0.03514 0.26982 0.57260
 C233 C -0.07434 0.26552 0.58087
 C234 C -0.07081 0.30175 0.59329
 C235 C -0.10572 0.28602 0.60661
 C236 C -0.10217 0.31824 0.61916
 C237 C -0.06381 0.36693 0.61853
 C238 C -0.02990 0.38337 0.60489
 C239 C -0.03342 0.35118 0.59232
 H240 H 0.04047 0.22347 0.53300
 H241 H 0.03559 0.28320 0.55061
 H242 H -0.10719 0.17131 0.56914
 H243 H -0.10200 0.11200 0.55154
 H244 H 0.00039 0.30180 0.57454
 H245 H -0.10997 0.23344 0.57933
 H246 H -0.13514 0.24835 0.60756
 H247 H -0.12887 0.30507 0.62955
 H248 H -0.00033 0.42098 0.60413
 H249 H -0.00691 0.36527 0.58189
 C250 C 0.84595 0.86134 0.22256
 C251 C 0.80712 0.82553 0.23247
 C252 C 0.79419 0.77623 0.23173
 C253 C 0.81989 0.76310 0.22039
 C254 C 0.85845 0.79901 0.21025
 C255 C 0.87221 0.84852 0.21144
 C256 C 0.75356 0.73989 0.24285
 C257 C 0.75158 0.69890 0.24943
 C258 C 0.71390 0.66609 0.26223
 C259 C 0.72628 0.64087 0.27496
 C260 C 0.69253 0.61179 0.28783
 C261 C 0.64559 0.60689 0.28799
 C262 C 0.63242 0.63062 0.27496
 C263 C 0.66626 0.66000 0.26216
 H264 H 0.85526 0.89917 0.22347
 H265 H 0.78758 0.83649 0.24096
 H266 H 0.80996 0.72522 0.21919
 H267 H 0.87800 0.78825 0.20169
 H268 H 0.72697 0.74969 0.24704
 H269 H 0.78095 0.69153 0.24671
 H270 H 0.76258 0.64469 0.27520
 H271 H 0.70307 0.59340 0.29777
 H272 H 0.59613 0.62679 0.27485
 H273 H 0.65503 0.67775 0.25222
 C274 C 0.18766 0.04609 -0.11231
 C275 C 0.22423 0.05008 -0.10069
 C276 C 0.23690 0.01317 -0.09906
 C277 C 0.21215 -0.02798 -0.10938
 C278 C 0.17556 -0.03200 -0.12096
 C279 C 0.16255 0.00473 -0.12244
 C280 C 0.27368 0.01756 -0.08577
 C281 C 0.29903 -0.00640 -0.08619
 C282 C 0.33354 -0.00460 -0.07236
 C283 C 0.34590 -0.04182 -0.07129
 C284 C 0.37741 -0.04238 -0.05830
 C285 C 0.39735 -0.00552 -0.04619
 C286 C 0.38598 0.03226 -0.04735
 C287 C 0.35456 0.03294 -0.06035
 H288 H 0.17802 0.07467 -0.11298
 H289 H 0.24236 0.08193 -0.09280
 H290 H 0.21962 -0.05797 -0.10822
 H291 H 0.15707 -0.06416 -0.12868
 H292 H 0.27918 0.04117 -0.07521
 H293 H 0.29357 -0.02969 -0.09686
 H294 H 0.33062 -0.07094 -0.08041
 H295 H 0.38604 -0.07169 -0.05760
 H296 H 0.40165 0.06131 -0.03820
 H297 H 0.34759 0.06326 -0.06099
 C298 C 0.04646 0.84520 0.54348
 C299 C 0.04288 0.80593 0.55379
 C300 C 0.00718 0.78399 0.56686
 C301 C -0.02413 0.80304 0.56971
 C302 C -0.02048 0.84228 0.55945
 C303 C 0.01475 0.86379 0.54620
 C304 C 0.00489 0.74284 0.57768
 C305 C -0.03610 0.70909 0.58587
 C306 C -0.03855 0.66956 0.59771
 C307 C -0.07671 0.64789 0.60993
 C308 C -0.07982 0.61170 0.62178
 C309 C -0.04496 0.59624 0.62154
 C310 C -0.00768 0.61652 0.60902
 C311 C -0.00445 0.65286 0.59716
 H312 H 0.07436 0.86137 0.53350
 H313 H 0.06788 0.79240 0.55148
 H314 H -0.05099 0.78843 0.58002
 H315 H -0.04575 0.85544 0.56179
 H316 H 0.03828 0.74087 0.57887
 H317 H -0.06944 0.71111 0.58440
 H318 H -0.10372 0.65967 0.61054
 H319 H -0.10905 0.59610 0.63129
 H320 H 0.01922 0.60456 0.60857
 H321 H 0.02452 0.66730 0.58760
 C322 C 0.17235 0.15657 0.23528
 C323 C 0.20548 0.18857 0.24722
 C324 C 0.23194 0.23907 0.24341
 C325 C 0.22305 0.25714 0.22752
 C326 C 0.18970 0.22498 0.21554
 C327 C 0.16462 0.17430 0.21920
 C328 C 0.26822 0.27071 0.25640
 C329 C 0.30367 0.31707 0.25321
 C330 C 0.34072 0.34606 0.26640
 C331 C 0.36112 0.39706 0.26590
 C332 C 0.39596 0.42539 0.27823
 C333 C 0.41141 0.40319 0.29112
 C334 C 0.39225 0.35241 0.29133
 C335 C 0.35719 0.32405 0.27910
 H336 H 0.15280 0.11777 0.23862
 H337 H 0.21104 0.17360 0.25941
 H338 H 0.24150 0.29582 0.22418
 H339 H 0.18442 0.23966 0.20325
 H340 H 0.26618 0.25419 0.26918
 H341 H 0.30590 0.33504 0.24075
 H342 H 0.34954 0.41491 0.25610
 H343 H 0.41070 0.46461 0.27780
 H344 H 0.40447 0.33482 0.30100
 H345 H 0.34377 0.28509 0.27946
 C346 C 0.77405 -0.06241 -0.12764
 C347 C 0.73901 -0.06059 -0.11728
 C348 C 0.75185 -0.03932 -0.10107
 C349 C 0.80026 -0.02125 -0.09514
 C350 C 0.83533 -0.02299 -0.10542
 C351 C 0.82324 -0.04333 -0.12200
 C352 C 0.71366 -0.03803 -0.09046
 C353 C 0.72435 -0.00514 -0.07824
 C354 C 0.68743 -0.00386 -0.06689
 C355 C 0.70206 0.03795 -0.05722
 C356 C 0.66981 0.03997 -0.04555
 C357 C 0.62232 0.00009 -0.04328
 C358 C 0.60709 -0.04146 -0.05306
 C359 C 0.63938 -0.04365 -0.06471
 H360 H 0.76156 -0.08039 -0.13981
 H361 H 0.70165 -0.07578 -0.12201
 H362 H 0.81141 -0.00596 -0.08247
 H363 H 0.87239 -0.00627 -0.10041
 H364 H 0.67579 -0.06392 -0.09337
 H365 H 0.76210 0.02330 -0.07658
 H366 H 0.73882 0.06900 -0.05855
 H367 H 0.68207 0.07231 -0.03807
 H368 H 0.57056 -0.07265 -0.05134
 H369 H 0.62677 -0.07706 -0.07151
 C370 C 0.22336 0.05037 0.12036
 C371 C 0.25856 0.05145 0.10935
 C372 C 0.24772 0.01119 0.09938
 C373 C 0.20074 -0.03058 0.10073
 C374 C 0.16534 -0.03157 0.11172
 C375 C 0.17607 0.00916 0.12150
 C376 C 0.28526 0.01559 0.08701
 C377 C 0.28702 -0.02273 0.08096
 C378 C 0.32431 -0.01710 0.06824
 C379 C 0.33864 -0.05278 0.06802
 C380 C 0.37303 -0.04897 0.05594
 C381 C 0.39299 -0.00981 0.04371
 C382 C 0.37860 0.02574 0.04377
 C383 C 0.34447 0.02215 0.05590
 H384 H 0.23317 0.08202 0.12796
 H385 H 0.29440 0.08406 0.10855
 H386 H 0.19056 -0.06184 0.09290
 H387 H 0.12905 -0.06358 0.11212
 H388 H 0.31363 0.05225 0.08323
 H389 H 0.26185 -0.05928 0.08597
 H390 H 0.32333 -0.08353 0.07728
 H391 H 0.38367 -0.07682 0.05597
 H392 H 0.39346 0.05597 0.03430
 H393 H 0.33317 0.04949 0.05530
 C394 C 0.79043 0.83924 0.46038
 C395 C 0.75619 0.80101 0.45040
 C396 C 0.76867 0.79310 0.43406
 C397 C 0.81574 0.82551 0.42755
 C398 C 0.85009 0.86377 0.43742
 C399 C 0.83881 0.87160 0.45428
 C400 C 0.73139 0.75192 0.42392
 C401 C 0.74333 0.73070 0.41166
 C402 C 0.70725 0.69081 0.40074
 C403 C 0.72423 0.66610 0.39069
 C404 C 0.69275 0.63064 0.37927
 C405 C 0.64365 0.61927 0.37766
 C406 C 0.62606 0.64289 0.38790
 C407 C 0.65756 0.67856 0.39928
 H408 H 0.77731 0.84379 0.47257
 H409 H 0.71964 0.77731 0.45555
 H410 H 0.82642 0.82174 0.41474
 H411 H 0.88620 0.88508 0.43179
 H412 H 0.69331 0.73789 0.42725
 H413 H 0.78168 0.74240 0.40959
 H414 H 0.76225 0.67482 0.39146
 H415 H 0.70685 0.61271 0.37142
 H416 H 0.58826 0.63467 0.38669
 H417 H 0.64293 0.69720 0.40641
 C418 C 0.03564 0.19483 0.78803
 C419 C 0.03365 0.23112 0.77751
 C420 C -0.00085 0.21851 0.76402
 C421 C -0.03258 0.16872 0.76096
 C422 C -0.03048 0.13254 0.77141
 C423 C 0.00357 0.14512 0.78508
 C424 C -0.00142 0.25791 0.75296
 C425 C -0.04167 0.25216 0.74445
 C426 C -0.04277 0.28965 0.73242
 C427 C -0.08173 0.27448 0.72051
 C428 C -0.08390 0.30787 0.70854
 C429 C -0.04721 0.35720 0.70830
 C430 C -0.00893 0.37294 0.72046
 C431 C -0.00668 0.33955 0.73246
 H432 H 0.06266 0.20564 0.79832
 H433 H 0.05894 0.26919 0.77999
 H434 H -0.05852 0.15739 0.75033
 H435 H -0.05596 0.09457 0.76888
 H436 H 0.03258 0.29234 0.75193
 H437 H -0.07559 0.21770 0.74589
 H438 H -0.11025 0.23645 0.72028
 H439 H -0.11395 0.29522 0.69933
 H440 H 0.01943 0.41105 0.72053
 H441 H 0.02311 0.35325 0.74173
 C442 C 0.82365 0.02374 0.13309
 C443 C 0.78439 0.02064 0.12319
 C444 C 0.79198 0.04167 0.10633
 C445 C 0.84019 0.06669 0.09969
 C446 C 0.87946 0.06999 0.10964
 C447 C 0.87160 0.04795 0.12635
 C448 C 0.74842 0.03363 0.09583
 C449 C 0.75099 0.05881 0.08103
 C450 C 0.70826 0.04802 0.06959
 C451 C 0.71426 0.08231 0.05625
 C452 C 0.67664 0.07254 0.04432
 C453 C 0.63219 0.02826 0.04550
 C454 C 0.62544 -0.00588 0.05892
 C455 C 0.66319 0.00369 0.07083
 H456 H 0.81609 0.00560 0.14579
 H457 H 0.74771 0.00078 0.12860
 H458 H 0.84798 0.08249 0.08666
 H459 H 0.91600 0.08925 0.10411
 H460 H 0.71299 0.00579 0.10070
 H461 H 0.78597 0.08925 0.07692
 H462 H 0.74853 0.11653 0.05487
 H463 H 0.68241 0.09917 0.03396
 H464 H 0.59142 -0.04046 0.05987
 H465 H 0.65711 -0.02447 0.08054
 C466 C 0.18842 0.22097 0.45728
 C467 C 0.22664 0.25749 0.44732
 C468 C 0.25647 0.24662 0.43728
 C469 C 0.24750 0.19810 0.43764
 C470 C 0.20923 0.16152 0.44767
 C471 C 0.17887 0.17246 0.45740
 C472 C 0.29415 0.28642 0.42601
 C473 C 0.33067 0.28421 0.41814
 C474 C 0.36507 0.32301 0.40581
 C475 C 0.38638 0.31001 0.39275
 C476 C 0.41704 0.34483 0.38034
 C477 C 0.42742 0.39345 0.38087
 C478 C 0.40764 0.40709 0.39422
 C479 C 0.37683 0.37224 0.40664
 H480 H 0.16613 0.23070 0.46486
 H481 H 0.23258 0.29441 0.44733
 H482 H 0.26860 0.18754 0.42984
 H483 H 0.20233 0.12432 0.44735
 H484 H 0.29048 0.31860 0.42381
 H485 H 0.33446 0.25206 0.41994
 H486 H 0.37832 0.27253 0.39192
 H487 H 0.43225 0.33380 0.37015
 H488 H 0.41563 0.44459 0.39487
 H489 H 0.36259 0.38409 0.41685
 C490 C -0.09305 0.78043 0.77641
 C491 C -0.09881 0.74472 0.76499
 C492 C -0.06253 0.73130 0.76368
 C493 C -0.02019 0.75441 0.77409
 C494 C -0.01441 0.79015 0.78547
 C495 C -0.05050 0.80393 0.78663
 C496 C -0.06863 0.69569 0.75055
 C497 C -0.04556 0.66940 0.75140
 C498 C -0.04828 0.63662 0.73766
 C499 C -0.01172 0.62326 0.73724
 C500 C -0.01165 0.59376 0.72427
 C501 C -0.04834 0.57685 0.71152
 C502 C -0.08561 0.58904 0.71207
 C503 C -0.08580 0.61847 0.72505
 H504 H -0.12120 0.79073 0.77685
 H505 H -0.13152 0.72789 0.75700
 H506 H 0.00938 0.74637 0.77316
 H507 H 0.01865 0.80740 0.79326
 H508 H -0.09258 0.69204 0.73974
 H509 H -0.02209 0.67296 0.76238
 H510 H 0.01738 0.63635 0.74684
 H511 H 0.01729 0.58451 0.72405
 H512 H -0.11453 0.57572 0.70241
 H513 H -0.11564 0.62630 0.72515
   
