data_POSCAR
  _audit_creation_date              2014-09-24
  _audit_creation_method            'ToBaCCo'
  _symmetry_space_group_name_H-M    'P1'
  _symmetry_Int_Tables_number       1
  _symmetry_cell_setting            triclinic
  loop_
  _symmetry_equiv_pos_as_xyz
 x,y,z
_cell_length_a 43.6767
_cell_length_b 45.8292
_cell_length_c 43.7721
_cell_angle_alpha 90.893300
_cell_angle_beta 88.961900
_cell_angle_gamma 90.291200
loop_
  _atom_site_label
  _atom_site_type_symbol
  _atom_site_fract_x
  _atom_site_fract_y
  _atom_site_fract_z
C1 C 0.17481 0.21527 0.19553
 C2 C 0.17119 0.23003 0.16804
 C3 C 0.19473 0.23047 0.14644
 C4 C 0.22211 0.21568 0.15197
 C5 C 0.22591 0.20186 0.17945
 C6 C 0.20215 0.20174 0.20140
 C7 C 0.15457 0.20813 0.21870
 N8 N 0.16895 0.19054 0.23874
 C9 C 0.19829 0.18691 0.22824
 C10 C 0.25281 0.18656 0.17733
 N11 N 0.26531 0.18988 0.14883
 C12 C 0.24663 0.20807 0.13335
 C13 C 0.18420 0.24531 0.12159
 N14 N 0.15491 0.25371 0.12770
 C15 C 0.14672 0.24423 0.15593
 H16 H 0.13091 0.21492 0.22021
 H17 H 0.21505 0.17249 0.23776
 H18 H 0.26073 0.17165 0.19437
 H19 H 0.24970 0.21454 0.10984
 H20 H 0.19673 0.24942 0.10052
 H21 H 0.12465 0.24775 0.16700
 C22 C -0.17924 0.77556 0.26080
 C23 C -0.18277 0.75185 0.24046
 C24 C -0.20113 0.75443 0.21515
 C25 C -0.21613 0.78090 0.20978
 C26 C -0.21218 0.80416 0.22972
 C27 C -0.19414 0.80133 0.25551
 C28 C -0.16057 0.78046 0.28544
 N29 N -0.16406 0.80865 0.29547
 C30 C -0.18483 0.82132 0.27703
 C31 C -0.22616 0.82789 0.21763
 N32 N -0.23919 0.81985 0.19076
 C33 C -0.23335 0.79088 0.18597
 C34 C -0.19743 0.72933 0.19781
 N35 N -0.17725 0.71165 0.21185
 C36 C -0.16838 0.72530 0.23807
 H37 H -0.14539 0.76450 0.29486
 H38 H -0.19126 0.84407 0.27741
 H39 H -0.22698 0.84941 0.22812
 H40 H -0.23955 0.77829 0.16587
 H41 H -0.20708 0.72523 0.17554
 H42 H -0.15173 0.71711 0.25377
 C43 C -0.22912 0.22075 -0.28091
 C44 C -0.22977 0.24373 -0.25940
 C45 C -0.25055 0.24335 -0.23523
 C46 C -0.27148 0.22005 -0.23257
 C47 C -0.27130 0.19792 -0.25432
 C48 C -0.24988 0.19816 -0.27851
 C49 C -0.20802 0.21292 -0.30322
 N50 N -0.21524 0.18584 -0.31447
 C51 C -0.24134 0.17707 -0.29959
 C52 C -0.29161 0.17694 -0.24471
 N53 N -0.30436 0.18534 -0.21732
 C54 C -0.29196 0.21191 -0.20986
 C55 C -0.24329 0.26653 -0.21619
 N56 N -0.21872 0.28112 -0.22830
 C57 C -0.21053 0.26710 -0.25484
 H58 H -0.18823 0.22585 -0.30962
 H59 H -0.25185 0.15571 -0.30143
 H60 H -0.29485 0.15611 -0.25617
 H61 H -0.29679 0.22453 -0.18928
 H62 H -0.25433 0.27131 -0.19439
 H63 H -0.19152 0.27281 -0.26975
 C64 C 0.17340 0.80291 -0.19479
 C65 C 0.17029 0.78412 -0.16998
 C66 C 0.19242 0.78378 -0.14774
 C67 C 0.21826 0.80198 -0.15044
 C68 C 0.22152 0.82005 -0.17517
 C69 C 0.19903 0.82042 -0.19761
 C70 C 0.15439 0.80942 -0.21839
 N71 N 0.16795 0.83040 -0.23583
 C72 C 0.19555 0.83690 -0.22328
 C73 C 0.24795 0.83593 -0.17130
 N74 N 0.26121 0.82815 -0.14461
 C75 C 0.24288 0.80709 -0.13196
 C76 C 0.18319 0.76365 -0.12632
 N77 N 0.15638 0.75161 -0.13550
 C78 C 0.14827 0.76397 -0.16208
 H79 H 0.13231 0.79941 -0.22237
 H80 H 0.21122 0.85376 -0.23089
 H81 H 0.25627 0.85209 -0.18714
 H82 H 0.24614 0.79659 -0.11035
 H83 H 0.19543 0.75753 -0.10612
 H84 H 0.12801 0.75837 -0.17486
 C85 C 0.23075 1.18889 0.79389
 C86 C 0.24656 1.18702 0.82151
 C87 C 0.23688 1.20338 0.84678
 C88 C 0.21184 1.22222 0.84462
 C89 C 0.19705 1.22459 0.81725
 C90 C 0.20633 1.20761 0.79190
 C91 C 0.23229 1.17318 0.76677
 N92 N 0.20909 1.18165 0.74828
 C93 C 0.19353 1.20316 0.76383
 C94 C 0.17320 1.24362 0.82184
 N95 N 0.17280 1.25303 0.85156
 C96 C 0.19645 1.23967 0.86566
 C97 C 0.25459 1.19557 0.87095
 N98 N 0.27502 1.17522 0.86093
 C99 C 0.27036 1.16979 0.83078
 H100 H 0.24840 1.15581 0.76207
 H101 H 0.17323 1.21421 0.75653
 H102 H 0.15662 1.24899 0.80479
 H103 H 0.20268 1.24268 0.88930
 H104 H 0.25244 1.20363 0.89427
 H105 H 0.28258 1.15368 0.81700
 C106 C 0.79372 0.81761 0.74645
 C107 C 0.77099 0.81803 0.76952
 C108 C 0.76681 0.79409 0.78799
 C109 C 0.78558 0.76955 0.78384
 C110 C 0.80832 0.76934 0.76159
 C111 C 0.81263 0.79369 0.74284
 C112 C 0.80345 0.83812 0.72581
 N113 N 0.82823 0.82758 0.70986
 C114 C 0.83409 0.80039 0.72050
 C115 C 0.82408 0.74362 0.76428
 N116 N 0.81165 0.72794 0.78782
 C117 C 0.78794 0.74409 0.79974
 C118 C 0.74537 0.80159 0.81017
 N119 N 0.73684 0.82965 0.80587
 C120 C 0.75228 0.83983 0.78096
 H121 H 0.79384 0.85970 0.72375
 H122 H 0.85217 0.78608 0.71227
 H123 H 0.84384 0.73771 0.75039
 H124 H 0.77334 0.73853 0.81896
 H125 H 0.73818 0.78838 0.82933
 H126 H 0.75114 0.86195 0.77274
 C127 C 0.20812 0.78871 1.21193
 C128 C 0.23149 0.78621 1.18954
 C129 C 0.22764 0.76780 1.16452
 C130 C 0.20045 0.75174 1.16142
 C131 C 0.17741 0.75445 1.18332
 C132 C 0.18137 0.77296 1.20876
 C133 C 0.20461 0.80610 1.23772
 N134 N 0.17622 0.80143 1.25050
 C135 C 0.16208 0.78097 1.23252
 C136 C 0.15276 0.73847 1.17316
 N137 N 0.16033 0.72604 1.14568
 C138 C 0.18953 0.73396 1.13836
 C139 C 0.25255 0.77152 1.14533
 N140 N 0.27149 0.79187 1.15788
 C141 C 0.25880 0.80084 1.18504
 H142 H 0.22144 0.82174 1.24551
 H143 H 0.13929 0.77221 1.23585
 H144 H 0.13073 0.73647 1.18468
 H145 H 0.20146 0.72824 1.11723
 H146 H 0.25610 0.76075 1.12339
 H147 H 0.26784 0.81796 1.19967
 C148 C 0.80110 1.20270 1.26570
 C149 C 0.77799 1.20383 1.24377
 C150 C 0.77636 1.22762 1.22486
 C151 C 0.79742 1.25058 1.22763
 C152 C 0.82028 1.24940 1.24892
 C153 C 0.82233 1.22509 1.26790
 C154 C 0.80939 1.18172 1.28611
 N155 N 0.83552 1.19046 1.30034
 C156 C 0.84350 1.21706 1.28905
 C157 C 0.83845 1.27377 1.24497
 N158 N 0.82718 1.28965 1.22169
 C159 C 0.80209 1.27539 1.21099
 C160 C 0.75373 1.22204 1.20417
 N161 N 0.74150 1.19531 1.20979
 C162 C 0.75608 1.18407 1.23417
 H163 H 0.79794 1.16093 1.28900
 H164 H 0.86301 1.23008 1.29589
 H165 H 0.85867 1.27916 1.25786
 H166 H 0.78886 1.28174 1.19154
 H167 H 0.74720 1.23618 1.18583
 H168 H 0.75221 1.16249 1.24321
 O169 O 0.53470 0.96203 0.97509
 O170 O 0.48994 0.96327 1.08101
 O171 O 0.58193 0.98674 1.04813
 O172 O 0.47973 0.96084 0.98535
 O173 O 0.54786 0.96196 1.07523
 O174 O 0.49242 0.98707 0.94658
 O175 O 0.47961 0.94656 1.03682
 O176 O 0.57581 0.98314 0.99241
 C177 C 0.56324 0.96217 0.97800
 C178 C 0.47919 0.94335 1.06473
 C179 C 0.57472 0.96530 1.06500
 C180 C 0.47393 0.96777 0.95820
 O181 O 0.49724 1.03265 0.98040
 O182 O 0.54952 1.01708 1.08597
 O183 O 0.55360 1.03997 0.99422
 O184 O 0.45655 0.99975 1.05548
 O185 O 0.49203 1.01973 1.08400
 O186 O 0.54555 1.01316 0.95635
 O187 O 0.45777 1.01429 1.00213
 O188 O 0.55902 1.04247 1.04670
 Co189 Co 0.51491 0.99693 0.97976
 Co190 Co 0.51965 0.99110 1.07616
 Co191 Co 0.56388 1.01173 1.02059
 Co192 Co 0.47255 0.98180 1.02048
 O193 O 0.51900 0.99649 1.02610
 C194 C 0.46964 1.03452 0.98715
 C195 C 0.55968 1.03993 1.07470
 C196 C 0.55713 1.03599 0.96632
 C197 C 0.46479 1.01837 1.07550
 O198 O 0.01049 0.46857 0.01512
 O199 O 0.00108 0.51998 -0.06465
 O200 O -0.02780 0.43226 -0.04302
 O201 O -0.02293 0.55444 0.00983
 O202 O -0.00430 0.46445 -0.07200
 O203 O 0.01029 0.52093 0.01135
 O204 O -0.02718 0.55453 -0.04479
 O205 O -0.02405 0.43580 0.01272
 C206 C 0.00359 0.44233 0.01505
 C207 C -0.00256 0.54628 -0.05776
 C208 C -0.00794 0.43879 -0.06316
 C209 C 0.00441 0.54728 0.01260
 O210 O -0.04281 0.52294 0.04606
 O211 O -0.06309 0.47041 -0.07898
 O212 O -0.08031 0.45828 0.01735
 O213 O -0.08553 0.53292 -0.03913
 O214 O -0.05727 0.52464 -0.07824
 O215 O -0.04360 0.47069 0.04748
 O216 O -0.07926 0.52926 0.01516
 O217 O -0.08549 0.44826 -0.04029
 Co218 Co -0.01824 0.49577 0.02606
 Co219 Co -0.03152 0.49507 -0.06799
 Co220 Co -0.05312 0.44862 -0.01342
 Co221 Co -0.05248 0.53878 -0.01495
 O222 O -0.03877 0.49427 -0.01796
 C223 C -0.07018 0.52966 0.04178
 C224 C -0.08422 0.45445 -0.06808
 C225 C -0.07068 0.46178 0.04380
 C226 C -0.08200 0.53375 -0.06715
 O227 O 1.09536 0.03639 0.47389
 O228 O 0.96041 0.01922 0.52626
 O229 O 1.01065 0.02710 0.44520
 O230 O 1.05365 0.05166 0.54448
 O231 O 0.99410 0.04543 0.48851
 O232 O 1.09681 0.03269 0.53159
 O233 O 1.00011 0.04210 0.54376
 O234 O 1.06556 0.01769 0.43864
 C235 C 1.08594 0.03577 0.44696
 C236 C 0.97150 0.03741 0.54611
 C237 C 0.99805 0.04776 0.46028
 C238 C 1.08198 0.05278 0.54448
 O239 O 1.09385 -0.02383 0.52646
 O240 O 0.96937 -0.00210 0.47199
 O241 O 1.05579 -0.03848 0.45632
 O242 O 1.01067 -0.01476 0.55926
 O243 O 0.98973 -0.02804 0.51760
 O244 O 1.09845 -0.01959 0.46906
 O245 O 1.06522 -0.00369 0.56252
 O246 O 1.00422 -0.03139 0.46186
 Co247 Co 1.09065 0.00634 0.50035
 Co248 Co 0.99381 0.00879 0.50395
 Co249 Co 1.03429 -0.00518 0.45433
 Co250 Co 1.03298 0.01757 0.54798
 O251 O 1.04001 0.00595 0.50035
 C252 C 1.08482 -0.02239 0.55375
 C253 C 0.97715 -0.02471 0.45832
 C254 C 1.08399 -0.03936 0.45576
 C255 C 0.99476 -0.03281 0.54477
 C256 C 1.11091 0.15541 0.28855
 C257 C 1.12927 0.14218 0.31066
 C258 C 1.16101 0.14857 0.31002
 C259 C 1.17401 0.16502 0.28629
 C260 C 1.15582 0.17657 0.26321
 C261 C 1.12392 0.17244 0.26551
 C262 C 1.17976 0.13819 0.33286
 C263 C 1.16772 0.12141 0.35635
 C264 C 1.13649 0.11332 0.35725
 C265 C 1.11722 0.12294 0.33335
 C266 C 1.08700 0.11196 0.33209
 C267 C 1.07595 0.09228 0.35346
 C268 C 1.09405 0.08370 0.37760
 C269 C 1.12417 0.09494 0.38056
 C270 C 1.14061 0.08736 0.40686
 C271 C 1.12800 0.06855 0.42853
 C272 C 1.09893 0.05626 0.42447
 C273 C 1.08214 0.06387 0.39887
 H274 H 1.08632 0.15322 0.28859
 H275 H 1.19843 0.16920 0.28624
 H276 H 1.10876 0.18104 0.24865
 H277 H 1.20407 0.14311 0.33259
 H278 H 1.18387 0.11391 0.37278
 H279 H 1.07170 0.11714 0.31394
 H280 H 1.05284 0.08387 0.35119
 H281 H 1.16296 0.09617 0.41172
 H282 H 1.14127 0.06325 0.44835
 H283 H 1.05948 0.05466 0.39573
 C284 C 0.89712 -0.17290 0.34985
 C285 C 0.88851 -0.14457 0.36002
 C286 C 0.85996 -0.13389 0.35045
 C287 C 0.84213 -0.15005 0.32988
 C288 C 0.85194 -0.17726 0.31808
 C289 C 0.87916 -0.18887 0.32940
 C290 C 0.84943 -0.10683 0.36095
 C291 C 0.86702 -0.08953 0.38012
 C292 C 0.89633 -0.09842 0.38924
 C293 C 0.90730 -0.12640 0.37897
 C294 C 0.93707 -0.13483 0.38708
 C295 C 0.95569 -0.11655 0.40421
 C296 C 0.94537 -0.08929 0.41432
 C297 C 0.91539 -0.07994 0.40757
 C298 C 0.90599 -0.05227 0.41920
 C299 C 0.92589 -0.03451 0.43590
 C300 C 0.95569 -0.04367 0.44157
 C301 C 0.96518 -0.07118 0.43094
 H302 H 0.91773 -0.18337 0.35703
 H303 H 0.82038 -0.14114 0.32328
 H304 H 0.88770 -0.20981 0.32157
 H305 H 0.82740 -0.09870 0.35394
 H306 H 0.85719 -0.06883 0.38670
 H307 H 0.94716 -0.15523 0.37982
 H308 H 0.97859 -0.12378 0.40941
 H309 H 0.88345 -0.04360 0.41592
 H310 H 0.91802 -0.01339 0.44416
 H311 H 0.98819 -0.07854 0.43553
 C312 C 0.80853 0.12484 0.63428
 C313 C 0.84007 0.13063 0.62948
 C314 C 0.85216 0.15651 0.64276
 C315 C 0.83334 0.17552 0.66007
 C316 C 0.80227 0.16892 0.66585
 C317 C 0.79018 0.14349 0.65215
 C318 C 0.88322 0.16308 0.63941
 C319 C 0.90293 0.14403 0.62408
 C320 C 0.89225 0.11761 0.61100
 C321 C 0.86011 0.11139 0.61261
 C322 C 0.84912 0.08621 0.59726
 C323 C 0.86883 0.06741 0.58149
 C324 C 0.90031 0.07250 0.58086
 C325 C 0.91260 0.09741 0.59597
 C326 C 0.94485 0.10079 0.59574
 C327 C 0.96378 0.08096 0.58013
 C328 C 0.95135 0.05710 0.56425
 C329 C 0.91959 0.05279 0.56502
 H330 H 0.79733 0.10567 0.62525
 H331 H 0.84379 0.19458 0.67043
 H332 H 0.76626 0.13778 0.65489
 H333 H 0.89257 0.18301 0.64921
 H334 H 0.92649 0.15095 0.62246
 H335 H 0.82519 0.08057 0.59647
 H336 H 0.85929 0.04848 0.56986
 H337 H 0.95630 0.11830 0.60769
 H338 H 0.98831 0.08456 0.58023
 H339 H 0.90980 0.03412 0.55313
 C340 C 1.11048 -0.13921 0.71288
 C341 C 1.12901 -0.12366 0.69185
 C342 C 1.16117 -0.12648 0.69387
 C343 C 1.17401 -0.14172 0.71805
 C344 C 1.15537 -0.15597 0.73977
 C345 C 1.12346 -0.15532 0.73609
 C346 C 1.18037 -0.11397 0.67184
 C347 C 1.16832 -0.09875 0.64767
 C348 C 1.13650 -0.09422 0.64547
 C349 C 1.11670 -0.10565 0.66879
 C350 C 1.08553 -0.09760 0.66913
 C351 C 1.07406 -0.07911 0.64732
 C352 C 1.09277 -0.06910 0.62353
 C353 C 1.12394 -0.07752 0.62148
 C354 C 1.14115 -0.06900 0.59535
 C355 C 1.12817 -0.05176 0.57301
 C356 C 1.09801 -0.04193 0.57638
 C357 C 1.08047 -0.05062 0.60173
 H358 H 1.08585 -0.13973 0.71165
 H359 H 1.19870 -0.14313 0.71930
 H360 H 1.10809 -0.16603 0.75202
 H361 H 1.20502 -0.11613 0.67315
 H362 H 1.18469 -0.08946 0.63181
 H363 H 1.06971 -0.10411 0.68697
 H364 H 1.05017 -0.07284 0.64892
 H365 H 1.16443 -0.07592 0.59118
 H366 H 1.14202 -0.04553 0.55336
 H367 H 1.05702 -0.04321 0.60431
 C368 C 0.31534 1.15010 1.09378
 C369 C 0.33509 1.13519 1.11340
 C370 C 0.33365 1.14250 1.14491
 C371 C 0.31093 1.16142 1.15647
 C372 C 0.28969 1.17435 1.13705
 C373 C 0.29330 1.16946 1.10538
 C374 C 0.35453 1.13048 1.16485
 C375 C 0.37677 1.11108 1.15422
 C376 C 0.37816 1.10197 1.12328
 C377 C 0.35617 1.11337 1.10282
 C378 C 0.35496 1.10158 1.07289
 C379 C 0.37480 1.07968 1.06313
 C380 C 0.39740 1.06949 1.08225
 C381 C 0.40010 1.08106 1.11230
 C382 C 0.42495 1.07146 1.12987
 C383 C 0.44579 1.05096 1.11806
 C384 C 0.44210 1.03886 1.08880
 C385 C 0.41764 1.04798 1.07122
 H386 H 0.31647 1.14735 1.06928
 H387 H 0.31004 1.16617 1.18078
 H388 H 0.27803 1.17916 1.08931
 H389 H 0.35368 1.13611 1.18900
 H390 H 0.39173 1.10250 1.17118
 H391 H 0.33794 1.10797 1.05680
 H392 H 0.37266 1.07085 1.04020
 H393 H 0.42953 1.08011 1.15237
 H394 H 0.46487 1.04453 1.13189
 H395 H 0.41501 1.03901 1.04842
 C396 C 0.32518 0.84195 0.90825
 C397 C 0.33986 0.86654 0.89535
 C398 C 0.32831 0.87704 0.86762
 C399 C 0.30259 0.86394 0.85417
 C400 C 0.28734 0.84006 0.86777
 C401 C 0.29962 0.82912 0.89480
 C402 C 0.34222 0.90088 0.85349
 C403 C 0.36709 0.91499 0.86651
 C404 C 0.37905 0.90594 0.89454
 C405 C 0.36530 0.88119 0.90914
 C406 C 0.37703 0.87225 0.93732
 C407 C 0.40087 0.88713 0.95111
 C408 C 0.41418 0.91144 0.93746
 C409 C 0.40392 0.92110 0.90881
 C410 C 0.41881 0.94583 0.89603
 C411 C 0.44207 0.96061 0.91162
 C412 C 0.45124 0.95126 0.94025
 C413 C 0.43748 0.92641 0.95277
 H414 H 0.33274 0.83190 0.92883
 H415 H 0.29441 0.87318 0.83333
 H416 H 0.28983 0.81040 0.90606
 H417 H 0.33362 0.90893 0.83213
 H418 H 0.37616 0.93328 0.85409
 H419 H 0.36803 0.85397 0.94979
 H420 H 0.40880 0.87965 0.97296
 H421 H 0.41290 0.95454 0.87423
 H422 H 0.45245 0.97978 0.90151
 H423 H 0.44463 0.91883 0.97487
 C424 C 0.73309 0.88724 1.15585
 C425 C 0.70972 0.87665 1.13673
 C426 C 0.70436 0.84612 1.13564
 C427 C 0.72272 0.82706 1.15220
 C428 C 0.74508 0.83800 1.17213
 C429 C 0.75001 0.86835 1.17345
 C430 C 0.67993 0.83488 1.11894
 C431 C 0.65950 0.85343 1.10504
 C432 C 0.66357 0.88401 1.10620
 C433 C 0.69047 0.89553 1.12006
 C434 C 0.69714 0.92552 1.11689
 C435 C 0.67694 0.94408 1.10276
 C436 C 0.64889 0.93371 1.09233
 C437 C 0.64164 0.90354 1.09409
 C438 C 0.61206 0.89442 1.08523
 C439 C 0.59061 0.91455 1.07551
 C440 C 0.59817 0.94416 1.07345
 C441 C 0.62757 0.95354 1.08113
 H442 H 0.73790 0.91019 1.15885
 H443 H 0.71791 0.80386 1.15124
 H444 H 0.76751 0.87780 1.18775
 H445 H 0.67586 0.81154 1.11760
 H446 H 0.64096 0.84316 1.09292
 H447 H 0.71824 0.93519 1.12461
 H448 H 0.68288 0.96700 1.10101
 H449 H 0.60432 0.87213 1.08702
 H450 H 0.56786 0.90697 1.06975
 H451 H 0.63326 0.97658 1.08000
 C452 C 0.64274 1.12597 0.80549
 C453 C 0.63845 1.13135 0.83716
 C454 C 0.65231 1.15675 0.84973
 C455 C 0.67039 1.17526 0.83136
 C456 C 0.67583 1.16883 0.80015
 C457 C 0.66100 1.14420 0.78756
 C458 C 0.64861 1.16332 0.88077
 C459 C 0.63217 1.14487 0.89992
 C460 C 0.61866 1.11882 0.88878
 C461 C 0.62136 1.11223 0.85675
 C462 C 0.60729 1.08650 0.84547
 C463 C 0.59178 1.06752 0.86473
 C464 C 0.58963 1.07320 0.89603
 C465 C 0.60281 1.09897 0.90861
 C466 C 0.59992 1.10346 0.94065
 C467 C 0.58493 1.08313 0.95912
 C468 C 0.57226 1.05768 0.94646
 C469 C 0.57453 1.05294 0.91486
 H470 H 0.63259 1.10768 0.79368
 H471 H 0.68128 1.19391 0.84209
 H472 H 0.66299 1.13882 0.76350
 H473 H 0.65889 1.18284 0.89053
 H474 H 0.63067 1.15169 0.92353
 H475 H 0.60791 1.08012 0.82172
 H476 H 0.58160 1.04794 0.85498
 H477 H 0.60922 1.12225 0.95233
 H478 H 0.58348 1.08728 0.98353
 H479 H 0.56476 1.03328 0.90487
 C480 C 0.08515 0.28221 0.09033
 C481 C 0.09645 0.30743 0.07552
 C482 C 0.12827 0.31350 0.07719
 C483 C 0.14772 0.29479 0.09292
 C484 C 0.13581 0.27061 0.10835
 C485 C 0.10454 0.26435 0.10663
 C486 C 0.14032 0.33876 0.06416
 C487 C 0.12125 0.35913 0.05112
 C488 C 0.08928 0.35466 0.04998
 C489 C 0.07702 0.32753 0.06055
 C490 C 0.04567 0.32157 0.05620
 C491 C 0.02634 0.34234 0.04451
 C492 C 0.03736 0.36994 0.03698
 C493 C 0.06901 0.37650 0.03908
 C494 C 0.07871 0.40511 0.03148
 C495 C 0.05764 0.42630 0.02309
 C496 C 0.02638 0.41967 0.02172
 C497 C 0.01657 0.39123 0.02808
 H498 H 0.06125 0.27632 0.09099
 H499 H 0.17189 0.29992 0.09462
 H500 H 0.09496 0.24570 0.11839
 H501 H 0.16467 0.34332 0.06494
 H502 H 0.13234 0.37823 0.04198
 H503 H 0.03528 0.30085 0.06151
 H504 H 0.00228 0.33699 0.04215
 H505 H 0.10222 0.41214 0.03282
 H506 H 0.06582 0.44811 0.01817
 H507 H -0.00759 0.38580 0.02701
 C508 C -0.15721 0.33660 -0.21123
 C509 C -0.16976 0.35237 -0.18603
 C510 C -0.19927 0.34409 -0.17520
 C511 C -0.21564 0.32147 -0.18975
 C512 C -0.20269 0.30565 -0.21450
 C513 C -0.17327 0.31368 -0.22496
 C514 C -0.21207 0.35802 -0.14947
 C515 C -0.19551 0.37880 -0.13315
 C516 C -0.16563 0.38710 -0.14246
 C517 C -0.15345 0.37511 -0.17045
 C518 C -0.12531 0.38616 -0.18183
 C519 C -0.10840 0.40642 -0.16523
 C520 C -0.11845 0.41598 -0.13639
 C521 C -0.14731 0.40667 -0.12460
 C522 C -0.15581 0.41606 -0.09468
 C523 C -0.13586 0.43277 -0.07692
 C524 C -0.10718 0.44131 -0.08854
 C525 C -0.09909 0.43375 -0.11871
 H526 H -0.13445 0.34059 -0.22015
 H527 H -0.23836 0.31604 -0.18132
 H528 H -0.16191 0.30188 -0.24340
 H529 H -0.23484 0.35218 -0.14131
 H530 H -0.20695 0.38831 -0.11341
 H531 H -0.11583 0.37975 -0.20380
 H532 H -0.08665 0.41388 -0.17464
 H533 H -0.17696 0.40955 -0.08366
 H534 H -0.14255 0.43831 -0.05359
 H535 H -0.07672 0.43993 -0.12770
 C536 C 0.11071 0.70904 -0.07840
 C537 C 0.10435 0.68292 -0.09497
 C538 C 0.11816 0.67942 -0.12438
 C539 C 0.13534 0.70211 -0.13738
 C540 C 0.14028 0.72810 -0.12114
 C541 C 0.12862 0.73119 -0.09136
 C542 C 0.11444 0.65348 -0.14092
 C543 C 0.09713 0.63076 -0.12906
 C544 C 0.08188 0.63346 -0.10045
 C545 C 0.08471 0.66031 -0.08356
 C546 C 0.06676 0.66414 -0.05663
 C547 C 0.04629 0.64275 -0.04690
 C548 C 0.04383 0.61625 -0.06279
 C549 C 0.06267 0.61068 -0.08892
 C550 C 0.06135 0.58249 -0.10254
 C551 C 0.04077 0.56151 -0.09180
 C552 C 0.02058 0.56796 -0.06748
 C553 C 0.02241 0.59532 -0.05289
 H554 H 0.10247 0.71288 -0.05534
 H555 H 0.14501 0.69969 -0.16027
 H556 H 0.13274 0.75113 -0.07846
 H557 H 0.12501 0.65072 -0.16337
 H558 H 0.09492 0.61174 -0.14365
 H559 H 0.06695 0.68409 -0.04329
 H560 H 0.03225 0.64699 -0.02664
 H561 H 0.07627 0.57578 -0.12120
 H562 H 0.04018 0.54033 -0.10313
 H563 H 0.00714 0.60032 -0.03376
 C564 C -0.12089 0.65261 0.19161
 C565 C -0.13676 0.63575 0.16957
 C566 C -0.16729 0.64380 0.16326
 C567 C -0.18089 0.66796 0.17818
 C568 C -0.16440 0.68508 0.19906
 C569 C -0.13448 0.67681 0.20592
 C570 C -0.18384 0.62825 0.14144
 C571 C -0.17020 0.60603 0.12420
 C572 C -0.13933 0.59823 0.12835
 C573 C -0.12292 0.61217 0.15259
 C574 C -0.09298 0.60252 0.15854
 C575 C -0.07850 0.58197 0.13978
 C576 C -0.09309 0.57032 0.11428
 C577 C -0.12397 0.57765 0.10854
 C578 C -0.13754 0.56530 0.08215
 C579 C -0.12047 0.54824 0.06145
 C580 C -0.08954 0.54250 0.06648
 C581 C -0.07640 0.55248 0.09366
 H582 H -0.09750 0.64849 0.19750
 H583 H -0.20420 0.67384 0.17299
 H584 H -0.12090 0.68974 0.22156
 H585 H -0.20740 0.63390 0.13694
 H586 H -0.18455 0.59545 0.10759
 H587 H -0.07990 0.61062 0.17751
 H588 H -0.05515 0.57591 0.14470
 H589 H -0.16083 0.56950 0.07596
 H590 H -0.13125 0.54050 0.04073
 H591 H -0.05247 0.54808 0.09781
 C592 C 1.20811 0.13147 0.68089
 C593 C 1.18082 0.13951 0.66633
 C594 C 1.16447 0.16356 0.67888
 C595 C 1.17479 0.17831 0.70513
 C596 C 1.20105 0.16916 0.72064
 C597 C 1.21791 0.14592 0.70737
 C598 C 1.13731 0.17248 0.66566
 C599 C 1.12492 0.15699 0.64134
 C600 C 1.13945 0.13195 0.62892
 C601 C 1.16867 0.12400 0.64051
 C602 C 1.18447 0.10056 0.62618
 C603 C 1.17139 0.08425 0.60276
 C604 C 1.14191 0.09024 0.59297
 C605 C 1.12553 0.11430 0.60565
 C606 C 1.09530 0.11881 0.59549
 C607 C 1.08172 0.09957 0.57466
 C608 C 1.09782 0.07548 0.56281
 C609 C 1.12828 0.07151 0.57137
 H610 H 1.22205 0.11346 0.67300
 H611 H 1.16129 0.19643 0.71364
 H612 H 1.23865 0.13814 0.71742
 H613 H 1.12498 0.19126 0.67476
 H614 H 1.10382 0.16534 0.63270
 H615 H 1.20713 0.09417 0.63256
 H616 H 1.18420 0.06613 0.59283
 H617 H 1.08096 0.13620 0.60417
 H618 H 1.05813 0.10311 0.56848
 H619 H 1.14090 0.05278 0.56255
 C620 C 0.84683 -0.12063 0.64841
 C621 C 0.87787 -0.12695 0.64166
 C622 C 0.89223 -0.14860 0.65907
 C623 C 0.87529 -0.16461 0.68083
 C624 C 0.84439 -0.15796 0.68753
 C625 C 0.83068 -0.13551 0.67115
 C626 C 0.92361 -0.15360 0.65521
 C627 C 0.94128 -0.13666 0.63542
 C628 C 0.92789 -0.11497 0.61749
 C629 C 0.89537 -0.11161 0.61911
 C630 C 0.88134 -0.09330 0.59791
 C631 C 0.89863 -0.07726 0.57718
 C632 C 0.93053 -0.07795 0.57753
 C633 C 0.94576 -0.09657 0.59786
 C634 C 0.97818 -0.09486 0.59867
 C635 C 0.99444 -0.07489 0.58061
 C636 C 0.97906 -0.05690 0.56053
 C637 C 0.94724 -0.05916 0.55844
 H638 H 0.83468 -0.10346 0.63730
 H639 H 0.88686 -0.18103 0.69380
 H640 H 0.80693 -0.12978 0.67515
 H641 H 0.93481 -0.17020 0.66831
 H642 H 0.96538 -0.14159 0.63394
 H643 H 0.85682 -0.09153 0.59628
 H644 H 0.88688 -0.06338 0.56139
 H645 H 0.99142 -0.10752 0.61418
 H646 H 1.01903 -0.07329 0.58256
 H647 H 0.93524 -0.04469 0.54340
 C648 C 1.11942 -0.17346 0.30904
 C649 C 1.13672 -0.15398 0.32728
 C650 C 1.16818 -0.15065 0.31968
 C651 C 1.18132 -0.16579 0.29448
 C652 C 1.16370 -0.18462 0.27590
 C653 C 1.13258 -0.18833 0.28410
 C654 C 1.18646 -0.13195 0.33706
 C655 C 1.17411 -0.11576 0.36133
 C656 C 1.14269 -0.11754 0.36933
 C657 C 1.12377 -0.13737 0.35234
 C658 C 1.09243 -0.13952 0.36061
 C659 C 1.07965 -0.12209 0.38361
 C660 C 1.09746 -0.10190 0.39954
 C661 C 1.12934 -0.09967 0.39322
 C662 C 1.14625 -0.07902 0.41063
 C663 C 1.13174 -0.06044 0.43194
 C664 C 1.10001 -0.06187 0.43686
 C665 C 1.08319 -0.08329 0.42118
 H666 H 1.09542 -0.17759 0.31306
 H667 H 1.20547 -0.16271 0.28977
 H668 H 1.11754 -0.20223 0.27101
 H669 H 1.21064 -0.12947 0.33158
 H670 H 1.18991 -0.10170 0.37318
 H671 H 1.07680 -0.15425 0.34946
 H672 H 1.05533 -0.12411 0.38862
 H673 H 1.17061 -0.07610 0.40791
 H674 H 1.14535 -0.04421 0.44386
 H675 H 1.05862 -0.08479 0.42494
 C676 C 0.85241 0.13743 0.36044
 C677 C 0.88388 0.14252 0.36556
 C678 C 0.89905 0.16358 0.34736
 C679 C 0.88265 0.18019 0.32647
 C680 C 0.85126 0.17500 0.32156
 C681 C 0.83664 0.15306 0.33864
 C682 C 0.93066 0.16757 0.34967
 C683 C 0.94775 0.15032 0.36885
 C684 C 0.93359 0.12922 0.38762
 C685 C 0.90094 0.12667 0.38735
 C686 C 0.88636 0.10875 0.40918
 C687 C 0.90314 0.09253 0.42943
 C688 C 0.93506 0.09269 0.42803
 C689 C 0.95088 0.11072 0.40688
 C690 C 0.98326 0.10848 0.40507
 C691 C 0.99893 0.08873 0.42315
 C692 C 0.98299 0.07145 0.44414
 C693 C 0.95119 0.07404 0.44700
 H694 H 0.83954 0.12078 0.37222
 H695 H 0.89497 0.19606 0.31286
 H696 H 0.81254 0.14835 0.33597
 H697 H 0.94247 0.18372 0.33592
 H698 H 0.97203 0.15460 0.36920
 H699 H 0.86179 0.10744 0.41173
 H700 H 0.89096 0.07904 0.44580
 H701 H 0.99694 0.12061 0.38888
 H702 H 1.02350 0.08677 0.42055
 H703 H 0.93877 0.06004 0.46275
 C704 C 0.12627 0.29336 -0.09034
 C705 C 0.10850 0.31174 -0.10862
 C706 C 0.11389 0.31059 -0.14062
 C707 C 0.13490 0.29077 -0.15362
 C708 C 0.15220 0.27224 -0.13536
 C709 C 0.14784 0.27426 -0.10346
 C710 C 0.09846 0.32941 -0.15967
 C711 C 0.07835 0.35004 -0.14764
 C712 C 0.07216 0.35214 -0.11593
 C713 C 0.08614 0.33163 -0.09629
 C714 C 0.07682 0.33134 -0.06521
 C715 C 0.05516 0.35092 -0.05359
 C716 C 0.04294 0.37231 -0.07209
 C717 C 0.05192 0.37373 -0.10333
 C718 C 0.04093 0.39725 -0.12054
 C719 C 0.02148 0.41806 -0.10733
 C720 C 0.01178 0.41590 -0.07683
 C721 C 0.02220 0.39272 -0.05941
 H722 H 0.12452 0.29369 -0.06574
 H723 H 0.13854 0.29086 -0.17813
 H724 H 0.16039 0.26048 -0.08831
 H725 H 0.10228 0.32846 -0.18421
 H726 H 0.06715 0.36349 -0.16399
 H727 H 0.08519 0.31555 -0.04944
 H728 H 0.04842 0.34968 -0.02969
 H729 H 0.04786 0.40085 -0.14393
 H730 H 0.01391 0.43600 -0.12111
 H731 H 0.01502 0.39117 -0.03571
 C732 C -0.11434 0.34508 0.19652
 C733 C -0.13151 0.36318 0.17735
 C734 C -0.16326 0.35730 0.17487
 C735 C -0.17691 0.33423 0.19093
 C736 C -0.15932 0.31558 0.20862
 C737 C -0.12802 0.32165 0.21165
 C738 C -0.18109 0.37380 0.15553
 C739 C -0.16772 0.39457 0.13671
 C740 C -0.13593 0.40012 0.13707
 C741 C -0.11799 0.38579 0.15933
 C742 C -0.08705 0.39417 0.16240
 C743 C -0.07331 0.41378 0.14249
 C744 C -0.08962 0.42524 0.11839
 C745 C -0.12127 0.41896 0.11548
 C746 C -0.13640 0.43027 0.08989
 C747 C -0.12028 0.44558 0.06738
 C748 C -0.08883 0.45076 0.06998
 C749 C -0.07396 0.44168 0.09624
 H750 H -0.08997 0.34750 0.19911
 H751 H -0.20126 0.33034 0.18884
 H752 H -0.11363 0.30759 0.22478
 H753 H -0.20552 0.36985 0.15404
 H754 H -0.18300 0.40608 0.12212
 H755 H -0.07277 0.38594 0.18011
 H756 H -0.04928 0.41902 0.14523
 H757 H -0.16026 0.42618 0.08560
 H758 H -0.13225 0.45247 0.04729
 H759 H -0.04954 0.44542 0.09835
 C760 C -0.14166 0.66118 -0.20422
 C761 C -0.15390 0.64894 -0.17714
 C762 C -0.17922 0.66318 -0.16299
 C763 C -0.19116 0.68881 -0.17524
 C764 C -0.17803 0.70164 -0.20153
 C765 C -0.15344 0.68683 -0.21604
 C766 C -0.19223 0.65220 -0.13618
 C767 C -0.17965 0.62830 -0.12205
 C768 C -0.15346 0.61416 -0.13434
 C769 C -0.14126 0.62377 -0.16309
 C770 C -0.11644 0.60827 -0.17646
 C771 C -0.10248 0.58569 -0.16130
 C772 C -0.11249 0.57770 -0.13219
 C773 C -0.13853 0.59127 -0.11848
 C774 C -0.14752 0.58229 -0.08878
 C775 C -0.13016 0.56227 -0.07283
 C776 C -0.10355 0.55020 -0.08597
 C777 C -0.09564 0.55709 -0.11618
 H778 H -0.12242 0.65192 -0.21658
 H779 H -0.21027 0.69888 -0.16329
 H780 H -0.14265 0.69485 -0.23664
 H781 H -0.21199 0.66267 -0.12551
 H782 H -0.19101 0.62155 -0.10129
 H783 H -0.10695 0.61319 -0.19866
 H784 H -0.08295 0.57498 -0.17214
 H785 H -0.16704 0.59120 -0.07659
 H786 H -0.13693 0.55716 -0.04958
 H787 H -0.07515 0.54778 -0.12667
 C788 C 0.08925 0.69873 0.10798
 C789 C 0.10003 0.67444 0.09061
 C790 C 0.13161 0.66763 0.09207
 C791 C 0.15145 0.68510 0.10957
 C792 C 0.14024 0.70887 0.12681
 C793 C 0.10904 0.71547 0.12582
 C794 C 0.14310 0.64310 0.07658
 C795 C 0.12371 0.62427 0.06083
 C796 C 0.09198 0.62969 0.05928
 C797 C 0.08034 0.65609 0.07286
 C798 C 0.04937 0.66324 0.06834
 C799 C 0.02979 0.64419 0.05333
 C800 C 0.04008 0.61712 0.04261
 C801 C 0.07137 0.60950 0.04498
 C802 C 0.08030 0.58143 0.03416
 C803 C 0.05878 0.56158 0.02272
 C804 C 0.02784 0.56911 0.02130
 C805 C 0.01887 0.59725 0.03047
 H806 H 0.06548 0.70489 0.10910
 H807 H 0.17552 0.67964 0.11063
 H808 H 0.09990 0.73382 0.13885
 H809 H 0.16727 0.63795 0.07729
 H810 H 0.13440 0.60569 0.04977
 H811 H 0.03954 0.68365 0.07597
 H812 H 0.00604 0.65038 0.05090
 H813 H 0.10347 0.57366 0.03536
 H814 H 0.06630 0.53998 0.01566
 H815 H -0.00505 0.60333 0.02944
 C816 C 0.30558 1.13161 0.92482
 C817 C 0.33696 1.12881 0.91659
 C818 C 0.34772 1.14364 0.89026
 C819 C 0.32715 1.15848 0.87170
 C820 C 0.29607 1.16012 0.87980
 C821 C 0.28562 1.14718 0.90674
 C822 C 0.37887 1.14353 0.88263
 C823 C 0.39970 1.12895 0.90051
 C824 C 0.38997 1.11273 0.92612
 C825 C 0.35792 1.11187 0.93359
 C826 C 0.34763 1.09296 0.95679
 C827 C 0.36782 1.07539 0.97208
 C828 C 0.39919 1.07675 0.96587
 C829 C 0.41095 1.09610 0.94357
 C830 C 0.44318 1.09741 0.93930
 C831 C 0.46250 1.07868 0.95489
 C832 C 0.45038 1.05817 0.97527
 C833 C 0.41873 1.05791 0.98111
 H834 H 0.29586 1.12255 0.94541
 H835 H 0.33530 1.16921 0.85118
 H836 H 0.26171 1.14874 0.91351
 H837 H 0.38729 1.15499 0.86267
 H838 H 0.42327 1.12974 0.89285
 H839 H 0.32375 1.09005 0.96260
 H840 H 0.35864 1.06028 0.98874
 H841 H 0.45415 1.11254 0.92395
 H842 H 0.48690 1.07950 0.95005
 H843 H 0.40893 1.04195 0.99647
 C844 C 0.32623 0.81847 1.09731
 C845 C 0.34997 0.83132 1.11464
 C846 C 0.34752 0.82964 1.14693
 C847 C 0.32216 0.81596 1.16095
 C848 C 0.29853 0.80402 1.14342
 C849 C 0.30107 0.80517 1.11150
 C850 C 0.37006 0.84213 1.16515
 C851 C 0.39431 0.85758 1.15223
 C852 C 0.39715 0.86105 1.12029
 C853 C 0.37536 0.84664 1.10112
 C854 C 0.37938 0.84848 1.06911
 C855 C 0.40238 0.86555 1.05624
 C856 C 0.42232 0.88152 1.07462
 C857 C 0.42054 0.87906 1.10688
 C858 C 0.44144 0.89584 1.12434
 C859 C 0.46165 0.91546 1.11041
 C860 C 0.46212 0.91882 1.07868
 C861 C 0.44321 0.90089 1.06083
 H862 H 0.32583 0.81901 1.07275
 H863 H 0.32067 0.81488 1.18564
 H864 H 0.28301 0.79659 1.09730
 H865 H 0.36857 0.84052 1.18982
 H866 H 0.41043 0.86672 1.16808
 H867 H 0.36491 0.83712 1.05317
 H868 H 0.40402 0.86690 1.03156
 H869 H 0.44201 0.89530 1.14889
 H870 H 0.47620 0.92889 1.12474
 H871 H 0.44341 0.90323 1.03621
 C872 C 0.69642 1.17128 1.14166
 C873 C 0.67536 1.15095 1.15423
 C874 C 0.67652 1.14612 1.18615
 C875 C 0.69818 1.16078 1.20429
 C876 C 0.71896 1.18061 1.19133
 C877 C 0.71771 1.18575 1.15992
 C878 C 0.65622 1.12656 1.19985
 C879 C 0.63506 1.11111 1.18261
 C880 C 0.63334 1.11451 1.15065
 C881 C 0.65362 1.13499 1.13625
 C882 C 0.65179 1.13848 1.10431
 C883 C 0.63182 1.12184 1.08683
 C884 C 0.61261 1.10118 1.10032
 C885 C 0.61256 1.09759 1.13248
 C886 C 0.59214 1.07662 1.14494
 C887 C 0.57413 1.05898 1.12615
 C888 C 0.57542 1.06169 1.09433
 C889 C 0.59406 1.08349 1.08162
 H890 H 0.69736 1.17644 1.11776
 H891 H 0.69873 1.15690 1.22863
 H892 H 0.73374 1.20064 1.14916
 H893 H 0.65685 1.12291 1.22424
 H894 H 0.62057 1.09632 1.19518
 H895 H 0.66587 1.15368 1.09183
 H896 H 0.63175 1.12491 1.06232
 H897 H 0.58987 1.07277 1.16907
 H898 H 0.55963 1.04256 1.13664
 H899 H 0.59517 1.08587 1.05701
 C900 C 0.71142 0.89142 0.85687
 C901 C 0.68436 0.88021 0.87071
 C902 C 0.67404 0.85224 0.86100
 C903 C 0.69149 0.83557 0.83982
 C904 C 0.71853 0.84688 0.82689
 C905 C 0.72803 0.87502 0.83526
 C906 C 0.64633 0.84118 0.87233
 C907 C 0.62812 0.85761 0.89248
 C908 C 0.63756 0.88543 0.90307
 C909 C 0.66692 0.89613 0.89328
 C910 C 0.67819 0.92209 0.90678
 C911 C 0.66073 0.93801 0.92781
 C912 C 0.63107 0.92920 0.93563
 C913 C 0.61884 0.90291 0.92333
 C914 C 0.58801 0.89588 0.93101
 C915 C 0.57014 0.91457 0.94953
 C916 C 0.58256 0.94043 0.96154
 C917 C 0.61329 0.94716 0.95506
 H918 H 0.71999 0.91306 0.86169
 H919 H 0.68384 0.81395 0.83295
 H920 H 0.74882 0.88417 0.82545
 H921 H 0.63834 0.81977 0.86512
 H922 H 0.60703 0.84754 0.90007
 H923 H 0.70090 0.93037 0.90210
 H924 H 0.67032 0.95789 0.93749
 H925 H 0.57663 0.87677 0.92199
 H926 H 0.54635 0.90905 0.95397
 H927 H 0.62305 0.96736 0.96383
   
