data_POSCAR
  _audit_creation_date              2014-09-24
  _audit_creation_method            'ToBaCCo'
  _symmetry_space_group_name_H-M    'P1'
  _symmetry_Int_Tables_number       1
  _symmetry_cell_setting            triclinic
  loop_
  _symmetry_equiv_pos_as_xyz
 x,y,z
_cell_length_a 31.7551
_cell_length_b 33.3602
_cell_length_c 31.7553
_cell_angle_alpha 90.000000
_cell_angle_beta 89.998100
_cell_angle_gamma 90.000000
loop_
  _atom_site_label
  _atom_site_type_symbol
  _atom_site_fract_x
  _atom_site_fract_y
  _atom_site_fract_z
C1 C 0.25000 0.24997 0.25002
 C2 C 0.75000 0.75002 0.25002
 C3 C 0.75000 0.25007 0.75002
 C4 C 0.25000 0.75002 0.75002
 C5 C 0.05917 0.06029 0.01480
 H6 H 0.06001 0.06201 -0.01921
 C7 C 0.08395 0.08621 0.03887
 H8 H 0.10410 0.10789 0.02342
 C9 C 0.03153 0.03029 0.07664
 H10 H 0.01062 0.00893 0.09128
 C11 C 0.05578 0.05566 0.10187
 H12 H 0.05378 0.05344 0.13585
 N13 N 0.03404 0.03269 0.03390
 C14 C 0.01662 -0.06203 -0.05933
 H15 H -0.01740 -0.06370 -0.06010
 C16 C 0.04059 -0.08790 -0.08425
 H17 H 0.02506 -0.10950 -0.10444
 C18 C 0.07855 -0.03217 -0.03176
 H19 H 0.09327 -0.01087 -0.01083
 C20 C 0.10370 -0.05750 -0.05616
 H21 H 0.13769 -0.05531 -0.05426
 Zn22 Zn 0.00099 -0.00089 -0.00103
 N23 N 0.03582 -0.03452 -0.03416
 C24 C -0.02985 0.03053 -0.07853
 N25 N -0.03206 0.03288 -0.03578
 C26 C -0.05703 0.06047 -0.01645
 C27 C -0.08197 0.08642 -0.04030
 C28 C -0.05428 0.05594 -0.10355
 C29 C -0.01481 -0.06215 0.05709
 C30 C -0.03887 -0.08790 0.08207
 C31 C -0.10188 -0.05724 0.05406
 C32 C -0.07666 -0.03203 0.02961
 N33 N -0.03392 -0.03454 0.03197
 H34 H -0.00907 0.00915 -0.09335
 H35 H -0.05765 0.06212 0.01757
 H36 H -0.10203 0.10807 -0.02466
 H37 H -0.05256 0.05375 -0.13754
 H38 H 0.01920 -0.06394 0.05783
 H39 H -0.02341 -0.10955 0.10226
 H40 H -0.13586 -0.05489 0.05223
 H41 H -0.09131 -0.01066 0.00872
 C42 C 0.08453 -0.08549 -0.08274
 C43 C 0.08231 0.08375 0.08280
 C44 C -0.08279 -0.08528 0.08064
 C45 C -0.08069 0.08400 -0.08423
 C46 C 0.05935 0.56209 0.51663
 H47 H 0.06012 0.56376 0.48261
 C48 C 0.08428 0.58796 0.54061
 H49 H 0.10447 0.60956 0.52508
 C50 C 0.03178 0.53223 0.57857
 H51 H 0.01085 0.51093 0.59329
 C52 C 0.05618 0.55755 0.60371
 H53 H 0.05427 0.55536 0.63770
 N54 N 0.03418 0.53458 0.53583
 C55 C 0.01647 0.43959 0.44299
 H56 H -0.01755 0.43794 0.44237
 C57 C 0.04032 0.41364 0.41804
 H58 H 0.02468 0.39199 0.39799
 C59 C 0.07855 0.46953 0.47016
 H60 H 0.09337 0.49091 0.49093
 C61 C 0.10357 0.44412 0.44573
 H62 H 0.13756 0.44631 0.44745
 Zn63 Zn 0.00105 0.50095 0.50100
 N64 N 0.03580 0.46719 0.46796
 C65 C -0.02959 0.53209 0.42336
 N66 N -0.03195 0.53460 0.46609
 C67 C -0.05707 0.56221 0.48520
 C68 C -0.08205 0.58796 0.46114
 C69 C -0.05404 0.55730 0.39814
 C70 C -0.01478 0.43977 0.55918
 C71 C -0.03885 0.41385 0.58396
 C72 C -0.10185 0.44440 0.55579
 C73 C -0.07661 0.46977 0.53155
 N74 N -0.03388 0.46737 0.53405
 H75 H -0.00869 0.51072 0.40870
 H76 H -0.05781 0.56400 0.51921
 H77 H -0.10224 0.60961 0.47661
 H78 H -0.05220 0.55495 0.36416
 H79 H 0.01923 0.43805 0.56002
 H80 H -0.02340 0.39216 0.60411
 H81 H -0.13583 0.44662 0.55380
 H82 H -0.09126 0.49113 0.51064
 C83 C 0.08426 0.41606 0.41932
 C84 C 0.08277 0.58554 0.58454
 C85 C -0.08278 0.41630 0.58233
 C86 C -0.08062 0.58534 0.41722
 C87 C 0.55703 0.06047 0.51649
 H88 H 0.55765 0.06212 0.48247
 C89 C 0.58198 0.08642 0.54033
 H90 H 0.60203 0.10807 0.52470
 C91 C 0.52985 0.03053 0.57856
 H92 H 0.50908 0.00915 0.59338
 C93 C 0.55429 0.05594 0.60358
 H94 H 0.55257 0.05375 0.63758
 N95 N 0.53206 0.03288 0.53581
 C96 C 0.51482 -0.06215 0.44295
 H97 H 0.48081 -0.06394 0.44221
 C98 C 0.53888 -0.08790 0.41797
 H99 H 0.52342 -0.10955 0.39778
 C100 C 0.57666 -0.03203 0.47042
 H101 H 0.59132 -0.01066 0.49132
 C102 C 0.60189 -0.05724 0.44598
 H103 H 0.63586 -0.05489 0.44781
 Zn104 Zn 0.49902 -0.00089 0.50107
 N105 N 0.53393 -0.03454 0.46807
 C106 C 0.46848 0.03029 0.42340
 N107 N 0.46597 0.03269 0.46613
 C108 C 0.44084 0.06029 0.48523
 C109 C 0.41606 0.08621 0.46116
 C110 C 0.44423 0.05566 0.39817
 C111 C 0.48339 -0.06203 0.55936
 C112 C 0.45941 -0.08790 0.58429
 C113 C 0.39631 -0.05750 0.55620
 C114 C 0.42145 -0.03217 0.53180
 N115 N 0.46419 -0.03452 0.53420
 H116 H 0.48939 0.00893 0.40876
 H117 H 0.43999 0.06201 0.51925
 H118 H 0.39591 0.10789 0.47662
 H119 H 0.44623 0.05344 0.36419
 H120 H 0.51741 -0.06370 0.56013
 H121 H 0.47495 -0.10950 0.60448
 H122 H 0.36232 -0.05531 0.55429
 H123 H 0.40673 -0.01087 0.51087
 C124 C 0.58280 -0.08528 0.41939
 C125 C 0.58070 0.08400 0.58427
 C126 C 0.41548 -0.08549 0.58278
 C127 C 0.41769 0.08375 0.41724
 C128 C 0.55708 0.56221 0.01483
 H129 H 0.55782 0.56400 -0.01918
 C130 C 0.58205 0.58796 0.03889
 H131 H 0.60225 0.60961 0.02343
 C132 C 0.52960 0.53209 0.07668
 H133 H 0.50870 0.51072 0.09133
 C134 C 0.55404 0.55730 0.10190
 H135 H 0.55221 0.55495 0.13588
 N136 N 0.53196 0.53460 0.03395
 C137 C 0.51479 0.43977 -0.05915
 H138 H 0.48078 0.43805 -0.05998
 C139 C 0.53886 0.41385 -0.08392
 H140 H 0.52341 0.39216 -0.10407
 C141 C 0.57662 0.46977 -0.03151
 H142 H 0.59127 0.49113 -0.01060
 C143 C 0.60186 0.44440 -0.05576
 H144 H 0.63584 0.44662 -0.05376
 Zn145 Zn 0.49895 0.50095 -0.00096
 N146 N 0.53389 0.46737 -0.03401
 C147 C 0.46823 0.53223 -0.07853
 N148 N 0.46583 0.53458 -0.03579
 C149 C 0.44066 0.56209 -0.01659
 C150 C 0.41573 0.58796 -0.04057
 C151 C 0.44383 0.55755 -0.10368
 C152 C 0.48354 0.43959 0.05705
 C153 C 0.45969 0.41364 0.08199
 C154 C 0.39644 0.44412 0.05431
 C155 C 0.42146 0.46953 0.02987
 N156 N 0.46421 0.46719 0.03208
 H157 H 0.48916 0.51093 -0.09325
 H158 H 0.43989 0.56376 0.01742
 H159 H 0.39554 0.60956 -0.02504
 H160 H 0.44573 0.55536 -0.13766
 H161 H 0.51756 0.43794 0.05766
 H162 H 0.47533 0.39199 0.10204
 H163 H 0.36244 0.44631 0.05259
 H164 H 0.40664 0.49091 0.00910
 C165 C 0.58279 0.41630 -0.08229
 C166 C 0.58063 0.58534 0.08282
 C167 C 0.41575 0.41606 0.08071
 C168 C 0.41724 0.58554 -0.08451
 C169 C 0.22488 -0.22590 -0.22461
 C170 C 0.20313 -0.20481 -0.20265
 C171 C 0.17783 -0.17995 -0.17708
 C172 C 0.15631 -0.15857 -0.15534
 C173 C 0.13122 -0.13332 -0.12998
 C174 C 0.10989 -0.11161 -0.10841
 C175 C 0.22356 0.27539 0.27684
 C176 C 0.20196 0.29649 0.29885
 C177 C 0.17684 0.32139 0.32453
 C178 C 0.15550 0.34283 0.34639
 C179 C 0.13063 0.36813 0.37190
 C180 C 0.10946 0.38989 0.39358
 C181 C 0.72352 -0.22459 0.27682
 C182 C 0.70179 -0.20361 0.29883
 C183 C 0.67643 -0.17892 0.32451
 C184 C 0.65484 -0.15771 0.34637
 C185 C 0.62966 -0.13271 0.37188
 C186 C 0.60824 -0.11119 0.39359
 C187 C 0.72353 0.27549 -0.22319
 C188 C 0.70180 0.29660 -0.20132
 C189 C 0.67644 0.32152 -0.17589
 C190 C 0.65486 0.34298 -0.15430
 C191 C 0.62967 0.36831 -0.12914
 C192 C 0.60825 0.39010 -0.10774
 C193 C -0.22318 0.22466 -0.22354
 C194 C -0.20117 0.20356 -0.20194
 C195 C -0.17548 0.17866 -0.17682
 C196 C -0.15362 0.15722 -0.15548
 C197 C -0.12812 0.13193 -0.13061
 C198 C -0.10644 0.11017 -0.10944
 C199 C -0.22319 0.72464 0.27650
 C200 C -0.20119 0.70365 0.29823
 C201 C -0.17551 0.67897 0.32360
 C202 C -0.15365 0.65777 0.34518
 C203 C -0.12813 0.63276 0.37036
 C204 C -0.10642 0.61124 0.39178
 C205 C 0.27679 0.22456 0.27649
 C206 C 0.29867 0.20345 0.29822
 C207 C 0.32409 0.17853 0.32358
 C208 C 0.34568 0.15707 0.34517
 C209 C 0.37084 0.13175 0.37035
 C210 C 0.39224 0.10996 0.39178
 C211 C 0.27538 0.72594 -0.22485
 C212 C 0.29734 0.70485 -0.20311
 C213 C 0.32290 0.68000 -0.17780
 C214 C 0.34464 0.65862 -0.15629
 C215 C 0.37000 0.63337 -0.13120
 C216 C 0.39158 0.61166 -0.10987
 C217 C -0.22351 -0.22459 0.22321
 C218 C -0.20178 -0.20361 0.20121
 C219 C -0.17642 -0.17892 0.17553
 C220 C -0.15483 -0.15771 0.15367
 C221 C -0.12965 -0.13271 0.12815
 C222 C -0.10824 -0.11119 0.10645
 C223 C -0.22352 0.27549 0.72323
 C224 C -0.20179 0.29660 0.70136
 C225 C -0.17643 0.32152 0.67593
 C226 C -0.15485 0.34298 0.65434
 C227 C -0.12966 0.36831 0.62918
 C228 C -0.10824 0.39010 0.60778
 C229 C 0.27513 -0.22590 0.72464
 C230 C 0.29688 -0.20481 0.70268
 C231 C 0.32218 -0.17995 0.67712
 C232 C 0.34370 -0.15857 0.65538
 C233 C 0.36879 -0.13332 0.63002
 C234 C 0.39012 -0.11161 0.60844
 C235 C 0.27645 0.27539 0.22320
 C236 C 0.29805 0.29649 0.20119
 C237 C 0.32317 0.32139 0.17550
 C238 C 0.34450 0.34283 0.15364
 C239 C 0.36938 0.36813 0.12814
 C240 C 0.39055 0.38989 0.10646
 C241 C 0.22322 0.22456 0.22355
 C242 C 0.20134 0.20345 0.20182
 C243 C 0.17591 0.17853 0.17646
 C244 C 0.15432 0.15707 0.15487
 C245 C 0.12916 0.13175 0.12968
 C246 C 0.10777 0.10996 0.10826
 C247 C 0.22463 0.72594 0.72489
 C248 C 0.20267 0.70485 0.70315
 C249 C 0.17711 0.68000 0.67784
 C250 C 0.15537 0.65862 0.65633
 C251 C 0.13001 0.63337 0.63124
 C252 C 0.10843 0.61166 0.60990
 C253 C 0.72319 0.22466 0.72357
 C254 C 0.70117 0.20356 0.70197
 C255 C 0.67549 0.17866 0.67686
 C256 C 0.65363 0.15722 0.65552
 C257 C 0.62813 0.13193 0.63064
 C258 C 0.60645 0.11017 0.60948
 C259 C 0.72320 0.72464 0.22354
 C260 C 0.70119 0.70365 0.20180
 C261 C 0.67552 0.67897 0.17644
 C262 C 0.65365 0.65777 0.15486
 C263 C 0.62814 0.63276 0.12967
 C264 C 0.60643 0.61124 0.10826
   
