data_POSCAR
  _audit_creation_date              2014-09-24
  _audit_creation_method            'ToBaCCo'
  _symmetry_space_group_name_H-M    'P1'
  _symmetry_Int_Tables_number       1
  _symmetry_cell_setting            triclinic
  loop_
  _symmetry_equiv_pos_as_xyz
 x,y,z
_cell_length_a 21.5920
_cell_length_b 21.5880
_cell_length_c 21.6367
_cell_angle_alpha 83.551200
_cell_angle_beta 96.703900
_cell_angle_gamma 97.225100
loop_
  _atom_site_label
  _atom_site_type_symbol
  _atom_site_fract_x
  _atom_site_fract_y
  _atom_site_fract_z
C1 C 0.61999 0.62020 -0.00001
 C2 C 0.63406 0.55807 0.00359
 C3 C 0.58451 0.50909 0.00675
 C4 C 0.52110 0.52132 0.00015
 C5 C 0.50887 0.58471 -0.00657
 C6 C 0.55787 0.63427 -0.00356
 C7 C 0.46815 0.46840 0.00025
 C8 C 0.40736 0.47805 0.01259
 C9 C 0.35735 0.42966 0.01052
 C10 C 0.36908 0.36937 0.00040
 C11 C 0.42927 0.35752 -0.00978
 C12 C 0.47766 0.40749 -0.01200
 H13 H 0.65792 0.65813 -0.00007
 H14 H 0.59605 0.46146 0.01437
 H15 H 0.46121 0.59623 -0.01414
 H16 H 0.39810 0.52290 0.02469
 H17 H 0.33116 0.33144 0.00046
 H18 H 0.52240 0.39811 -0.02416
 C19 C -0.00077 0.62960 0.37977
 C20 C 0.00232 0.64519 0.44150
 C21 C 0.00498 0.59665 0.49082
 C22 C -0.00111 0.53289 0.47912
 C23 C -0.00814 0.51920 0.41605
 C24 C -0.00452 0.56700 0.36634
 C25 C 0.00030 0.48076 0.53196
 C26 C 0.01352 0.42046 0.52161
 C27 C 0.01181 0.37053 0.56901
 C28 C 0.00138 0.38173 0.62919
 C29 C -0.00907 0.44148 0.64217
 C30 C -0.01137 0.49017 0.59314
 H31 H -0.00029 0.66668 0.34165
 H32 H 0.01189 0.60915 0.53824
 H33 H -0.01623 0.47123 0.40487
 H34 H 0.02612 0.41144 0.47693
 H35 H 0.00155 0.34361 0.66627
 H36 H -0.02315 0.53480 0.60336
 C37 C 0.63030 -0.00258 0.61944
 C38 C 0.56792 -0.00555 0.63236
 C39 C 0.51993 -0.00808 0.58289
 C40 C 0.53332 -0.00113 0.51994
 C41 C 0.59705 0.00424 0.50828
 C42 C 0.64573 0.00086 0.55771
 C43 C 0.48089 0.00076 0.46732
 C44 C 0.48975 -0.01128 0.40620
 C45 C 0.44082 -0.00886 0.35729
 C46 C 0.38127 0.00200 0.37030
 C47 C 0.37056 0.01273 0.43053
 C48 C 0.42082 0.01443 0.47784
 H49 H 0.66707 -0.00282 0.65803
 H50 H 0.47214 -0.01521 0.59441
 H51 H 0.60939 0.01123 0.46089
 H52 H 0.53416 -0.02348 0.39595
 H53 H 0.34297 0.00219 0.33323
 H54 H 0.41220 0.02725 0.52258
 O55 O 0.45947 -0.01202 -0.10332
 O56 O 0.43398 -0.02500 0.06361
 O57 O 0.43051 0.06449 -0.02766
 O58 O 0.45651 -0.10190 -0.01375
 O59 O 0.55802 -0.07524 0.00997
 O60 O 0.53170 0.09134 -0.00260
 O61 O 0.53546 0.00083 0.08810
 O62 O 0.56056 0.01526 -0.07783
 Cu63 Cu 0.43486 -0.02096 -0.02271
 Cu64 Cu 0.55652 0.01093 0.00706
 C65 C 0.51493 0.00249 -0.11859
 C66 C 0.48055 -0.01433 0.10420
 C67 C 0.47632 0.10615 -0.01699
 C68 C 0.51190 -0.11672 -0.00073
 O69 O -0.07553 0.55825 0.99039
 O70 O 0.09122 0.53219 1.00392
 O71 O 0.00091 0.53611 0.91250
 O72 O 0.01460 0.56054 1.07901
 O73 O -0.01191 0.45934 1.10381
 O74 O -0.02513 0.43467 0.93614
 O75 O 0.06444 0.43093 1.02783
 O76 O -0.10204 0.45679 1.01372
 Cu77 Cu 0.01068 0.55685 0.99393
 Cu78 Cu -0.02103 0.43521 1.02269
 C79 C -0.11696 0.51212 1.00082
 C80 C 0.10608 0.47682 1.01780
 C81 C -0.01430 0.48129 0.89586
 C82 C 0.00220 0.51479 1.11953
 O83 O -0.00910 -0.06325 0.43845
 O84 O 0.00403 0.10421 0.46426
 O85 O 0.07916 0.02945 0.43477
 O86 O -0.08755 0.01353 0.46002
 O87 O -0.06260 -0.00982 0.56118
 O88 O 0.10483 0.00442 0.53556
 O89 O 0.02955 0.07907 0.56506
 O90 O 0.01471 -0.08773 0.53961
 Cu91 Cu -0.00606 0.02332 0.43928
 Cu92 Cu 0.02401 -0.00616 0.56045
 C93 C 0.00147 -0.10384 0.48460
 C94 C 0.01886 0.11992 0.51942
 C95 C 0.12026 0.01919 0.48042
 C96 C -0.10342 0.00036 0.51500
 N97 N -0.28794 0.48609 1.00838
 C98 C -0.30331 0.54581 1.00334
 N99 N -0.25671 0.59390 0.99633
 N100 N -0.19768 0.58304 0.99464
 C101 C -0.18260 0.52350 0.99987
 N102 N -0.22872 0.47515 1.00701
 N103 N 0.27715 0.50210 1.01050
 C104 C 0.29251 0.44236 1.01703
 N105 N 0.24631 0.39433 1.02592
 N106 N 0.18729 0.40548 1.02767
 C107 C 0.17197 0.46512 1.02035
 N108 N 0.21804 0.51329 1.01200
 N109 N 0.00747 -0.27473 0.51224
 C110 C 0.00239 -0.29168 0.45299
 N111 N -0.00407 -0.24612 0.40459
 N112 N -0.00522 -0.18662 0.41472
 C113 C 0.00008 -0.16997 0.47381
 N114 N 0.00665 -0.21506 0.52244
 N115 N 0.01066 0.29035 0.49566
 C116 C 0.01871 0.30611 0.55541
 N117 N 0.02908 0.26050 0.60276
 N118 N 0.03069 0.20156 0.59100
 C119 C 0.02175 0.18578 0.53141
 N120 N 0.01203 0.23128 0.48386
 N121 N 0.60018 0.00912 -0.25668
 C122 C 0.55336 -0.00419 -0.30249
 N123 N 0.49319 -0.01381 -0.28760
 N124 N 0.48053 -0.01093 -0.22920
 C125 C 0.52758 0.00235 -0.18364
 N126 N 0.58758 0.01219 -0.19845
 N127 N 0.51076 -0.00796 0.27446
 C128 C 0.45170 -0.01562 0.29211
 N129 N 0.40244 -0.02519 0.24771
 N130 N 0.41167 -0.02637 0.18810
 C131 C 0.47062 -0.01773 0.17047
 N132 N 0.52003 -0.00890 0.21476
 N133 N 0.59374 -0.25643 0.00362
 C134 C 0.54563 -0.30308 -0.00336
 N135 N 0.48589 -0.28774 -0.00838
 N136 N 0.47495 -0.22851 -0.00701
 C137 C 0.52332 -0.18233 0.00011
 N138 N 0.58288 -0.19737 0.00531
 N139 N 0.39383 0.24641 -0.02532
 C140 C 0.44189 0.29261 -0.01620
 N141 N 0.50165 0.27722 -0.00939
 N142 N 0.51280 0.21808 -0.01085
 C143 C 0.46460 0.17202 -0.01945
 N144 N 0.40494 0.18736 -0.02704
 N145 N -0.24557 -0.00597 0.59479
 C146 C -0.29121 0.00075 0.54633
 N147 N -0.27440 0.00614 0.48711
 N148 N -0.21475 0.00541 0.47700
 C149 C -0.16955 -0.00136 0.52569
 N150 N -0.18608 -0.00701 0.58475
 N151 N 0.26041 0.02999 0.39700
 C152 C 0.30629 0.01974 0.44428
 N153 N 0.29088 0.01168 0.50405
 N154 N 0.23186 0.01289 0.51593
 C155 C 0.18608 0.02244 0.46843
 N156 N 0.20154 0.03144 0.40884
 N157 N -0.00889 0.49269 1.28963
 C158 C -0.00354 0.55302 1.30425
 N159 N 0.00482 0.59998 1.25754
 N160 N 0.00755 0.58749 1.19917
 C161 C 0.00206 0.52740 1.18479
 N162 N -0.00652 0.48011 1.23102
 N163 N -0.02558 0.40338 0.75163
 C164 C -0.01567 0.45258 0.70749
 N165 N -0.00756 0.51161 0.72554
 N166 N -0.00842 0.52086 0.78534
 C167 C -0.01761 0.47148 0.82937
 N168 N -0.02667 0.41260 0.81131
   
