data_POSCAR
  _audit_creation_date              2014-09-24
  _audit_creation_method            'ToBaCCo'
  _symmetry_space_group_name_H-M    'P1'
  _symmetry_Int_Tables_number       1
  _symmetry_cell_setting            triclinic
  loop_
  _symmetry_equiv_pos_as_xyz
 x,y,z
_cell_length_a 39.4821
_cell_length_b 48.6301
_cell_length_c 47.5109
_cell_angle_alpha 88.678100
_cell_angle_beta 91.318500
_cell_angle_gamma 90.441000
loop_
  _atom_site_label
  _atom_site_type_symbol
  _atom_site_fract_x
  _atom_site_fract_y
  _atom_site_fract_z
C1 C 0.26295 0.28039 0.22732
 C2 C 0.24829 0.26471 0.24900
 C3 C 0.23252 0.27794 0.27101
 C4 C 0.23066 0.30678 0.27129
 C5 C 0.24566 0.32228 0.24946
 C6 C 0.26213 0.30925 0.22755
 C7 C 0.24922 0.23440 0.24860
 C8 C 0.26427 0.21950 0.27111
 C9 C 0.26513 0.19063 0.27096
 C10 C 0.24998 0.17680 0.24821
 C11 C 0.23445 0.19149 0.22564
 C12 C 0.23461 0.22037 0.22587
 H13 H 0.27512 0.27007 0.21033
 H14 H 0.22152 0.26567 0.28785
 H15 H 0.27532 0.23045 0.28872
 H16 H 0.22307 0.23202 0.20850
 H17 H 0.24461 0.34453 0.24955
 H18 H 0.25019 0.15454 0.24811
 C19 C 0.75380 0.78011 0.22865
 C20 C 0.74067 0.76549 0.25168
 C21 C 0.72801 0.77967 0.27442
 C22 C 0.72790 0.80866 0.27451
 C23 C 0.74160 0.82299 0.25109
 C24 C 0.75493 0.80911 0.22799
 C25 C 0.74047 0.73513 0.25212
 C26 C 0.75757 0.72053 0.27381
 C27 C 0.75804 0.69164 0.27424
 C28 C 0.74034 0.67748 0.25294
 C29 C 0.72267 0.69186 0.23127
 C30 C 0.72325 0.72076 0.23086
 H31 H 0.76241 0.76849 0.21107
 H32 H 0.71915 0.76769 0.29229
 H33 H 0.77063 0.73177 0.29029
 H34 H 0.71017 0.73216 0.21408
 H35 H 0.74197 0.84515 0.25086
 H36 H 0.74028 0.65521 0.25325
 C37 C 0.76774 0.28616 0.72549
 C38 C 0.75274 0.27079 0.74716
 C39 C 0.73930 0.28417 0.77016
 C40 C 0.74028 0.31316 0.77180
 C41 C 0.75617 0.32815 0.74982
 C42 C 0.76993 0.31488 0.72676
 C43 C 0.75127 0.24052 0.74583
 C44 C 0.76857 0.22430 0.76619
 C45 C 0.76844 0.19529 0.76477
 C46 C 0.74921 0.18320 0.74278
 C47 C 0.73161 0.19926 0.72239
 C48 C 0.73311 0.22798 0.72392
 H49 H 0.77785 0.27564 0.70768
 H50 H 0.72888 0.27157 0.78695
 H51 H 0.78361 0.23477 0.78202
 H52 H 0.72005 0.24068 0.70814
 H53 H 0.75716 0.35035 0.74991
 H54 H 0.74621 0.16110 0.74211
 C55 C 0.25980 0.78605 0.73501
 C56 C 0.24480 0.77158 0.75740
 C57 C 0.23067 0.78597 0.77935
 C58 C 0.23123 0.81478 0.77905
 C59 C 0.24671 0.82913 0.75673
 C60 C 0.26136 0.81512 0.73431
 C61 C 0.24352 0.74125 0.75766
 C62 C 0.25971 0.72612 0.77946
 C63 C 0.25908 0.69723 0.77967
 C64 C 0.24125 0.68365 0.75805
 C65 C 0.22455 0.69858 0.73624
 C66 C 0.22618 0.72745 0.73607
 H67 H 0.26930 0.77426 0.71788
 H68 H 0.21901 0.77469 0.79658
 H69 H 0.27292 0.73693 0.79616
 H70 H 0.21386 0.73927 0.71920
 H71 H 0.24780 0.85131 0.75752
 H72 H 0.24038 0.66138 0.75819
 C73 C 0.03989 0.04112 0.01443
 H74 H 0.04127 0.04287 -0.00826
 C75 C 0.05872 0.05905 0.03133
 H76 H 0.07449 0.07465 0.02148
 C77 C 0.01657 0.01930 0.05474
 H78 H -0.00025 0.00411 0.06384
 C79 C 0.03485 0.03682 0.07240
 H80 H 0.03239 0.03444 0.09498
 N81 N 0.01961 0.02156 0.02632
 C82 C 0.00638 -0.04342 -0.03480
 H83 H -0.02094 -0.04538 -0.03482
 C84 C 0.02542 -0.06086 -0.05104
 H85 H 0.01255 -0.07606 -0.06380
 C86 C 0.05623 -0.02097 -0.01828
 H87 H 0.06818 -0.00569 -0.00516
 C88 C 0.07625 -0.03785 -0.03439
 H89 H 0.10353 -0.03535 -0.03357
 Zn90 Zn -0.00637 -0.00139 0.00228
 N91 N 0.02191 -0.02378 -0.01908
 C92 C -0.03061 0.02034 -0.05029
 N93 N -0.03292 0.02174 -0.02184
 C94 C -0.05332 0.04040 -0.00991
 C95 C -0.07310 0.05821 -0.02678
 C96 C -0.04992 0.03774 -0.06793
 C97 C -0.01873 -0.04443 0.04068
 C98 C -0.03776 -0.06250 0.05732
 C99 C -0.08875 -0.04138 0.03821
 C100 C -0.06872 -0.02370 0.02191
 N101 N -0.03435 -0.02523 0.02378
 H102 H -0.01361 0.00589 -0.05939
 H103 H -0.05431 0.04133 0.01279
 H104 H -0.08966 0.07255 -0.01688
 H105 H -0.04748 0.03646 -0.09052
 H106 H 0.00864 -0.04542 0.04147
 H107 H -0.02477 -0.07712 0.07120
 H108 H -0.11607 -0.03987 0.03645
 H109 H -0.08071 -0.00882 0.00780
 C110 C 0.06083 -0.05807 -0.05109
 C111 C 0.05627 0.05704 0.06076
 C112 C -0.07328 -0.06098 0.05638
 C113 C -0.07165 0.05693 -0.05624
 C114 C 0.05756 0.54239 0.51147
 H115 H 0.05961 0.54432 0.48884
 C116 C 0.07696 0.55939 0.52894
 H117 H 0.09381 0.57451 0.51957
 C118 C 0.03232 0.52080 0.55106
 H119 H 0.01459 0.50603 0.55966
 C120 C 0.05117 0.53739 0.56929
 H121 H 0.04822 0.53469 0.59178
 N122 N 0.03616 0.52327 0.52274
 C123 C 0.02445 0.46088 0.45859
 H124 H -0.00290 0.45956 0.45716
 C125 C 0.04406 0.44478 0.44140
 H126 H 0.03151 0.43135 0.42653
 C127 C 0.07378 0.48072 0.47922
 H128 H 0.08530 0.49452 0.49420
 C129 C 0.09439 0.46494 0.46247
 H130 H 0.12165 0.46677 0.46481
 Zn131 Zn 0.01060 0.50092 0.49777
 N132 N 0.03947 0.47885 0.47657
 C133 C -0.01086 0.52428 0.44507
 N134 N -0.01493 0.52468 0.47341
 C135 C -0.03648 0.54266 0.48505
 C136 C -0.05577 0.56062 0.46794
 C137 C -0.02959 0.54187 0.42721
 C138 C -0.00355 0.45795 0.53590
 C139 C -0.02341 0.44012 0.55215
 C140 C -0.07345 0.46071 0.53071
 C141 C -0.05262 0.47822 0.51494
 N142 N -0.01835 0.47690 0.51819
 H143 H 0.00699 0.51040 0.43618
 H144 H -0.03874 0.54295 0.50770
 H145 H -0.07271 0.57484 0.47761
 H146 H -0.02644 0.54080 0.40468
 H147 H 0.02378 0.45707 0.53778
 H148 H -0.01107 0.42583 0.56681
 H149 H -0.10067 0.46207 0.52780
 H150 H -0.06393 0.49283 0.50015
 C151 C 0.07955 0.44690 0.44298
 C152 C 0.07399 0.55693 0.55829
 C153 C -0.05890 0.44153 0.54988
 C154 C -0.05253 0.56029 0.43857
 C155 C 0.55065 0.03673 0.50969
 H156 H 0.55106 0.03720 0.48692
 C157 C 0.57110 0.05489 0.52497
 H158 H 0.58711 0.06941 0.51378
 C159 C 0.52837 0.01775 0.55181
 H160 H 0.51138 0.00353 0.56222
 C161 C 0.54836 0.03554 0.56791
 H162 H 0.54703 0.03430 0.59064
 N163 N 0.53014 0.01843 0.52325
 C164 C 0.51284 -0.04836 0.46484
 H165 H 0.48545 -0.04927 0.46475
 C166 C 0.53087 -0.06639 0.44848
 H167 H 0.51709 -0.08092 0.43554
 C168 C 0.56386 -0.02772 0.48137
 H169 H 0.57664 -0.01283 0.49446
 C170 C 0.58292 -0.04537 0.46531
 H171 H 0.61030 -0.04386 0.46624
 Zn172 Zn 0.50256 -0.00508 0.50108
 N173 N 0.52944 -0.02918 0.48044
 C174 C 0.47935 0.01544 0.44780
 N175 N 0.47642 0.01758 0.47613
 C176 C 0.45632 0.03698 0.48721
 C177 C 0.43767 0.05489 0.46956
 C178 C 0.46127 0.03296 0.42940
 C179 C 0.49015 -0.04577 0.54189
 C180 C 0.47122 -0.06273 0.55975
 C181 C 0.42021 -0.04168 0.54060
 C182 C 0.44014 -0.02512 0.52306
 N183 N 0.47449 -0.02716 0.52432
 H184 H 0.49606 0.00040 0.43933
 H185 H 0.45501 0.03864 0.50983
 H186 H 0.42208 0.07039 0.47875
 H187 H 0.46373 0.03075 0.40692
 H188 H 0.51749 -0.04720 0.54219
 H189 H 0.48427 -0.07691 0.57407
 H190 H 0.39290 -0.03982 0.53928
 H191 H 0.42810 -0.01073 0.50843
 C192 C 0.56641 -0.06486 0.44836
 C193 C 0.57015 0.05441 0.55452
 C194 C 0.43575 -0.06070 0.55938
 C195 C 0.44014 0.05306 0.44022
 C196 C 0.55252 0.53382 0.00970
 H197 H 0.55365 0.53622 -0.01295
 C198 C 0.57276 0.55038 0.02700
 H199 H 0.58932 0.56562 0.01748
 C200 C 0.52866 0.51161 0.04957
 H201 H 0.51119 0.49673 0.05834
 C202 C 0.54837 0.52773 0.06762
 H203 H 0.54628 0.52461 0.09016
 N204 N 0.53127 0.51472 0.02117
 C205 C 0.51458 0.45234 -0.04237
 H206 H 0.48718 0.45173 -0.04324
 C207 C 0.53302 0.43501 -0.05923
 H208 H 0.51954 0.42137 -0.07335
 C209 C 0.56525 0.47135 -0.02319
 H210 H 0.57774 0.48526 -0.00886
 C211 C 0.58469 0.45437 -0.03968
 H212 H 0.61205 0.45543 -0.03780
 Zn213 Zn 0.50380 0.49341 -0.00336
 N214 N 0.53084 0.47036 -0.02516
 C215 C 0.48101 0.51716 -0.05554
 N216 N 0.47875 0.51814 -0.02706
 C217 C 0.45961 0.53747 -0.01480
 C218 C 0.44103 0.55636 -0.03137
 C219 C 0.46292 0.53567 -0.07289
 C220 C 0.48897 0.44959 0.03332
 C221 C 0.46915 0.43222 0.05009
 C222 C 0.41962 0.45758 0.03425
 C223 C 0.44038 0.47434 0.01758
 N224 N 0.47446 0.47040 0.01783
 H225 H 0.49694 0.50213 -0.06495
 H226 H 0.45883 0.53818 0.00792
 H227 H 0.42608 0.57168 -0.02121
 H228 H 0.46463 0.53422 -0.09551
 H229 H 0.51611 0.44677 0.03293
 H230 H 0.48127 0.41619 0.06280
 H231 H 0.39257 0.46110 0.03400
 H232 H 0.42918 0.49056 0.00467
 C233 C 0.56859 0.43603 -0.05818
 C234 C 0.57081 0.54744 0.05641
 C235 C 0.43404 0.43632 0.05093
 C236 C 0.44250 0.55557 -0.06085
 C237 C 0.23141 -0.14750 -0.18580
 C238 C 0.21529 -0.13239 -0.16540
 C239 C 0.18235 -0.13933 -0.15702
 C240 C 0.16594 -0.16200 -0.16952
 C241 C 0.18221 -0.17723 -0.18975
 C242 C 0.21495 -0.16999 -0.19828
 C243 C 0.16573 -0.12154 -0.13644
 C244 C 0.13692 -0.12818 -0.12331
 C245 C 0.11917 -0.10972 -0.10405
 C246 C 0.09294 -0.12086 -0.08776
 C247 C 0.07427 -0.10420 -0.07034
 C248 C 0.08144 -0.07595 -0.06876
 C249 C 0.10782 -0.06474 -0.08479
 C250 C 0.12635 -0.08134 -0.10240
 H251 H 0.25677 -0.14160 -0.19186
 H252 H 0.22853 -0.11502 -0.15631
 H253 H 0.14027 -0.16777 -0.16452
 H254 H 0.16875 -0.19420 -0.19940
 H255 H 0.17837 -0.10232 -0.13187
 H256 H 0.12564 -0.14824 -0.12626
 H257 H 0.08668 -0.14255 -0.08864
 H258 H 0.05424 -0.11345 -0.05804
 H259 H 0.11348 -0.04293 -0.08434
 H260 H 0.14551 -0.07152 -0.11509
 C261 C 0.18226 0.30969 0.30438
 C262 C 0.16521 0.32275 0.32571
 C263 C 0.17800 0.34719 0.33709
 C264 C 0.20883 0.35796 0.32720
 C265 C 0.22596 0.34482 0.30591
 C266 C 0.21278 0.32061 0.29416
 C267 C 0.15870 0.36044 0.35944
 C268 C 0.16025 0.38751 0.36432
 C269 C 0.13982 0.40147 0.38559
 C270 C 0.14877 0.42847 0.39274
 C271 C 0.12960 0.44302 0.41169
 C272 C 0.10084 0.43094 0.42389
 C273 C 0.09197 0.40386 0.41694
 C274 C 0.11108 0.38930 0.39795
 H275 H 0.17122 0.29124 0.29558
 H276 H 0.14162 0.31395 0.33304
 H277 H 0.22019 0.37619 0.33613
 H278 H 0.24981 0.35340 0.29894
 H279 H 0.14189 0.34727 0.37139
 H280 H 0.17692 0.40044 0.35191
 H281 H 0.17054 0.43848 0.38342
 H282 H 0.13683 0.46401 0.41621
 H283 H 0.07011 0.39388 0.42614
 H284 H 0.10257 0.36886 0.39272
 C285 C 0.72559 -0.15023 0.30414
 C286 C 0.71112 -0.13577 0.32584
 C287 C 0.68467 -0.14730 0.34143
 C288 C 0.67387 -0.17422 0.33562
 C289 C 0.68834 -0.18879 0.31396
 C290 C 0.71420 -0.17696 0.29738
 C291 C 0.66928 -0.13056 0.36344
 C292 C 0.63777 -0.13471 0.37276
 C293 C 0.62138 -0.11675 0.39320
 C294 C 0.59369 -0.12720 0.40817
 C295 C 0.57626 -0.11058 0.42649
 C296 C 0.58598 -0.08300 0.43008
 C297 C 0.61382 -0.07255 0.41523
 C298 C 0.63127 -0.08916 0.39692
 H299 H 0.74653 -0.14047 0.29344
 H300 H 0.72046 -0.11528 0.33027
 H301 H 0.65426 -0.18428 0.34768
 H302 H 0.67783 -0.20888 0.30960
 H303 H 0.68426 -0.11355 0.37130
 H304 H 0.62278 -0.15174 0.36498
 H305 H 0.58542 -0.14830 0.40560
 H306 H 0.55513 -0.11933 0.43784
 H307 H 0.62146 -0.05122 0.41707
 H308 H 0.65164 -0.07993 0.38508
 C309 C 0.73652 0.35326 -0.19733
 C310 C 0.72061 0.36727 -0.17602
 C311 C 0.69279 0.35565 -0.16225
 C312 C 0.68206 0.32904 -0.16941
 C313 C 0.69799 0.31491 -0.19066
 C314 C 0.72524 0.32689 -0.20550
 C315 C 0.67592 0.37197 -0.14064
 C316 C 0.64360 0.36802 -0.13324
 C317 C 0.62596 0.38555 -0.11311
 C318 C 0.59698 0.37503 -0.09996
 C319 C 0.57863 0.39121 -0.08184
 C320 C 0.58873 0.41843 -0.07661
 C321 C 0.61775 0.42899 -0.08975
 C322 C 0.63611 0.41281 -0.10787
 H323 H 0.75834 0.36308 -0.20666
 H324 H 0.72990 0.38751 -0.17050
 H325 H 0.66137 0.31891 -0.15872
 H326 H 0.68750 0.29509 -0.19615
 H327 H 0.69057 0.38850 -0.13143
 H328 H 0.62893 0.35147 -0.14238
 H329 H 0.58847 0.35418 -0.10375
 H330 H 0.55659 0.38236 -0.07183
 H331 H 0.62574 0.45008 -0.08666
 H332 H 0.65751 0.42213 -0.11831
 C333 C -0.20136 0.15233 -0.22259
 C334 C -0.18278 0.13602 -0.20337
 C335 C -0.17495 0.14522 -0.17626
 C336 C -0.18580 0.17152 -0.16887
 C337 C -0.20439 0.18796 -0.18813
 C338 C -0.21275 0.17869 -0.21543
 C339 C -0.15487 0.12682 -0.15699
 C340 C -0.15121 0.13003 -0.12909
 C341 C -0.13123 0.11084 -0.11068
 C342 C -0.11648 0.12058 -0.08563
 C343 C -0.09721 0.10313 -0.06789
 C344 C -0.09257 0.07545 -0.07472
 C345 C -0.10804 0.06555 -0.09946
 C346 C -0.12725 0.08298 -0.11718
 H347 H -0.20533 0.14439 -0.24349
 H348 H -0.17433 0.11603 -0.20985
 H349 H -0.17991 0.17978 -0.14841
 H350 H -0.21307 0.20756 -0.18092
 H351 H -0.14268 0.10960 -0.16653
 H352 H -0.16243 0.14741 -0.11916
 H353 H -0.11943 0.14187 -0.08000
 H354 H -0.08545 0.11144 -0.04908
 H355 H -0.10569 0.04416 -0.10492
 H356 H -0.13939 0.07436 -0.13565
 C357 C -0.23582 0.65201 0.30886
 C358 C -0.21716 0.63726 0.32942
 C359 C -0.18482 0.64631 0.33812
 C360 C -0.17194 0.67101 0.32642
 C361 C -0.19058 0.68572 0.30584
 C362 C -0.22263 0.67629 0.29666
 C363 C -0.16563 0.62965 0.35955
 C364 C -0.13175 0.63061 0.36257
 C365 C -0.11218 0.61292 0.38284
 C366 C -0.07780 0.60842 0.37784
 C367 C -0.05841 0.59157 0.39601
 C368 C -0.07292 0.57894 0.41980
 C369 C -0.10713 0.58397 0.42524
 C370 C -0.12657 0.60084 0.40703
 H371 H -0.26071 0.64448 0.30264
 H372 H -0.22788 0.61852 0.33833
 H373 H -0.14766 0.67925 0.33318
 H374 H -0.17964 0.70430 0.29679
 H375 H -0.17994 0.61486 0.37190
 H376 H -0.11724 0.64357 0.34841
 H377 H -0.06594 0.61776 0.35959
 H378 H -0.03195 0.58855 0.39152
 H379 H -0.11907 0.57450 0.44337
 H380 H -0.15266 0.60447 0.41219
 C381 C 0.26765 0.15059 0.30528
 C382 C 0.28437 0.13534 0.32659
 C383 C 0.31609 0.14389 0.33723
 C384 C 0.33021 0.16867 0.32684
 C385 C 0.31347 0.18395 0.30557
 C386 C 0.28218 0.17493 0.29434
 C387 C 0.33349 0.12658 0.35913
 C388 C 0.36727 0.12630 0.36284
 C389 C 0.38517 0.10776 0.38334
 C390 C 0.41905 0.10119 0.37851
 C391 C 0.43686 0.08353 0.39698
 C392 C 0.42126 0.07221 0.42092
 C393 C 0.38757 0.07926 0.42617
 C394 C 0.36968 0.09688 0.40761
 H395 H 0.24328 0.14339 0.29742
 H396 H 0.27272 0.11654 0.33449
 H397 H 0.35406 0.17645 0.33513
 H398 H 0.32532 0.20259 0.29754
 H399 H 0.31800 0.11224 0.37104
 H400 H 0.38287 0.13873 0.34901
 H401 H 0.43172 0.10955 0.36018
 H402 H 0.46299 0.07891 0.39266
 H403 H 0.37489 0.07085 0.44445
 H404 H 0.34395 0.10211 0.41254
 C405 C 0.26310 0.65728 -0.18595
 C406 C 0.28110 0.64163 -0.16568
 C407 C 0.31399 0.64936 -0.15710
 C408 C 0.32809 0.67375 -0.16847
 C409 C 0.31008 0.68941 -0.18872
 C410 C 0.27754 0.68120 -0.19791
 C411 C 0.33255 0.63163 -0.13621
 C412 C 0.36649 0.63080 -0.13409
 C413 C 0.38531 0.61184 -0.11456
 C414 C 0.41879 0.60516 -0.12078
 C415 C 0.43737 0.58706 -0.10331
 C416 C 0.42297 0.57536 -0.07901
 C417 C 0.38972 0.58253 -0.07236
 C418 C 0.37108 0.60062 -0.08989
 H419 H 0.23783 0.65069 -0.19221
 H420 H 0.26945 0.62316 -0.15699
 H421 H 0.35289 0.68095 -0.16175
 H422 H 0.32192 0.70770 -0.19758
 H423 H 0.31759 0.61745 -0.12365
 H424 H 0.38140 0.64312 -0.14853
 H425 H 0.43052 0.61377 -0.13943
 H426 H 0.46315 0.58237 -0.10872
 H427 H 0.37790 0.57383 -0.05381
 H428 H 0.34575 0.60590 -0.08384
 C429 C -0.24067 -0.14898 0.19771
 C430 C -0.22504 -0.13403 0.17611
 C431 C -0.19858 -0.14540 0.16120
 C432 C -0.18903 -0.17267 0.16749
 C433 C -0.20468 -0.18775 0.18903
 C434 C -0.23046 -0.17607 0.20503
 C435 C -0.18175 -0.12813 0.13941
 C436 C -0.14988 -0.13219 0.13128
 C437 C -0.13197 -0.11380 0.11109
 C438 C -0.10367 -0.12397 0.09745
 C439 C -0.08495 -0.10702 0.07935
 C440 C -0.09398 -0.07937 0.07464
 C441 C -0.12238 -0.06917 0.08819
 C442 C -0.14111 -0.08612 0.10630
 H443 H -0.26149 -0.13929 0.20793
 H444 H -0.23344 -0.11326 0.17126
 H445 H -0.16947 -0.18258 0.15591
 H446 H -0.19507 -0.20812 0.19382
 H447 H -0.19592 -0.11084 0.13078
 H448 H -0.13572 -0.14948 0.13993
 H449 H -0.09594 -0.14514 0.10088
 H450 H -0.06341 -0.11558 0.06900
 H451 H -0.12954 -0.04781 0.08547
 H452 H -0.16195 -0.07710 0.11710
 C453 C -0.22678 0.35612 0.69403
 C454 C -0.21000 0.37188 0.67364
 C455 C -0.17943 0.36288 0.66264
 C456 C -0.16583 0.33772 0.67261
 C457 C -0.18257 0.32199 0.69307
 C458 C -0.21312 0.33108 0.70414
 C459 C -0.16168 0.38102 0.64214
 C460 C -0.13942 0.37186 0.62363
 C461 C -0.12017 0.39006 0.60407
 C462 C -0.09100 0.37963 0.59189
 C463 C -0.07135 0.39615 0.57406
 C464 C -0.08052 0.42353 0.56785
 C465 C -0.11020 0.43378 0.57943
 C466 C -0.12990 0.41725 0.59721
 H467 H -0.25050 0.36352 0.70186
 H468 H -0.22095 0.39123 0.66644
 H469 H -0.14176 0.33047 0.66543
 H470 H -0.17107 0.30306 0.70084
 H471 H -0.16741 0.40269 0.64271
 H472 H -0.13418 0.35008 0.62311
 H473 H -0.08309 0.35869 0.59649
 H474 H -0.04901 0.38743 0.56507
 H475 H -0.11792 0.45482 0.57519
 H476 H -0.15270 0.42599 0.60527
 C477 C 0.26806 -0.14288 0.70453
 C478 C 0.28442 -0.12824 0.68310
 C479 C 0.31075 -0.14012 0.66845
 C480 C 0.31962 -0.16750 0.67500
 C481 C 0.30324 -0.18226 0.69638
 C482 C 0.27732 -0.17019 0.71191
 C483 C 0.32789 -0.12336 0.64642
 C484 C 0.35950 -0.12814 0.63804
 C485 C 0.37745 -0.11062 0.61709
 C486 C 0.40520 -0.12169 0.60342
 C487 C 0.42380 -0.10567 0.58440
 C488 C 0.41521 -0.07807 0.57876
 C489 C 0.38740 -0.06695 0.59237
 C490 C 0.36878 -0.08297 0.61141
 H491 H 0.24732 -0.13280 0.71447
 H492 H 0.27658 -0.10735 0.67809
 H493 H 0.33910 -0.17778 0.66367
 H494 H 0.31227 -0.20278 0.70130
 H495 H 0.31406 -0.10596 0.63761
 H496 H 0.37332 -0.14553 0.64689
 H497 H 0.41255 -0.14286 0.60749
 H498 H 0.44487 -0.11493 0.57404
 H499 H 0.38059 -0.04559 0.58892
 H500 H 0.34839 -0.07327 0.62216
 C501 C 0.26321 0.34885 0.19270
 C502 C 0.27961 0.36458 0.17204
 C503 C 0.31217 0.35759 0.16340
 C504 C 0.32814 0.33452 0.17618
 C505 C 0.31163 0.31870 0.19668
 C506 C 0.27906 0.32573 0.20521
 C507 C 0.32902 0.37557 0.14214
 C508 C 0.35591 0.36789 0.12744
 C509 C 0.37415 0.38603 0.10711
 C510 C 0.39871 0.37417 0.09032
 C511 C 0.41784 0.39039 0.07183
 C512 C 0.41277 0.41890 0.06962
 C513 C 0.38798 0.43082 0.08610
 C514 C 0.36901 0.41466 0.10477
 H515 H 0.23803 0.35465 0.19877
 H516 H 0.26680 0.38233 0.16277
 H517 H 0.35365 0.32887 0.17109
 H518 H 0.32472 0.30132 0.20641
 H519 H 0.31805 0.39561 0.13826
 H520 H 0.36507 0.34706 0.12992
 H521 H 0.40337 0.35225 0.09167
 H522 H 0.43659 0.38061 0.05922
 H523 H 0.38395 0.45283 0.08515
 H524 H 0.35112 0.42499 0.11765
 C525 C 0.23174 0.15302 0.19123
 C526 C 0.21469 0.13834 0.17022
 C527 C 0.18269 0.14675 0.16002
 C528 C 0.16865 0.17089 0.17047
 C529 C 0.18570 0.18557 0.19146
 C530 C 0.21725 0.17662 0.20232
 C531 C 0.16484 0.12991 0.13859
 C532 C 0.13099 0.12931 0.13537
 C533 C 0.11260 0.11111 0.11550
 C534 C 0.07867 0.10440 0.12078
 C535 C 0.06040 0.08698 0.10297
 C536 C 0.07558 0.07604 0.07927
 C537 C 0.10931 0.08325 0.07355
 C538 C 0.12765 0.10065 0.09143
 H539 H 0.25630 0.14590 0.19880
 H540 H 0.22628 0.12004 0.16226
 H541 H 0.14459 0.17862 0.16249
 H542 H 0.17383 0.20364 0.19962
 H543 H 0.18008 0.11612 0.12670
 H544 H 0.11570 0.14118 0.14921
 H545 H 0.06632 0.11244 0.13895
 H546 H 0.03425 0.08225 0.10764
 H547 H 0.12169 0.07512 0.05545
 H548 H 0.15340 0.10599 0.08612
 C549 C 0.17307 0.69374 0.70475
 C550 C 0.15405 0.67954 0.68453
 C551 C 0.16653 0.65549 0.67287
 C552 C 0.19854 0.64578 0.68204
 C553 C 0.21755 0.65998 0.70229
 C554 C 0.20497 0.68404 0.71396
 C555 C 0.14470 0.64044 0.65247
 C556 C 0.15653 0.62245 0.63416
 C557 C 0.13439 0.60670 0.61457
 C558 C 0.14851 0.59591 0.59036
 C559 C 0.12884 0.58010 0.57189
 C560 C 0.09462 0.57449 0.57739
 C561 C 0.08048 0.58524 0.60165
 C562 C 0.10012 0.60106 0.62009
 H563 H 0.16245 0.71197 0.71366
 H564 H 0.12935 0.68730 0.67810
 H565 H 0.20872 0.62692 0.67424
 H566 H 0.24212 0.65208 0.70885
 H567 H 0.11796 0.64518 0.65211
 H568 H 0.18358 0.61965 0.63261
 H569 H 0.17492 0.59965 0.58577
 H570 H 0.14063 0.57176 0.55362
 H571 H 0.05414 0.58141 0.60639
 H572 H 0.08847 0.60824 0.63892
 C573 C 0.67861 0.19561 0.69239
 C574 C 0.65840 0.18183 0.67262
 C575 C 0.67014 0.15808 0.65984
 C576 C 0.70278 0.14844 0.66721
 C577 C 0.72298 0.16224 0.68694
 C578 C 0.71099 0.18579 0.70000
 C579 C 0.64685 0.14301 0.64057
 C580 C 0.65721 0.12464 0.62200
 C581 C 0.63372 0.10801 0.60434
 C582 C 0.64616 0.09587 0.58016
 C583 C 0.62544 0.07883 0.56376
 C584 C 0.59181 0.07334 0.57132
 C585 C 0.57929 0.08556 0.59546
 C586 C 0.59999 0.10260 0.61186
 H587 H 0.66846 0.21347 0.70237
 H588 H 0.63326 0.18955 0.66758
 H589 H 0.71256 0.12982 0.65855
 H590 H 0.74792 0.15428 0.69223
 H591 H 0.62017 0.14770 0.64161
 H592 H 0.68403 0.12183 0.61902
 H593 H 0.67214 0.09941 0.57407
 H594 H 0.63601 0.06941 0.54552
 H595 H 0.55342 0.08189 0.60173
 H596 H 0.58962 0.11080 0.63075
 C597 C 0.67066 0.68568 0.20070
 C598 C 0.65161 0.67096 0.18092
 C599 C 0.66455 0.64708 0.16923
 C600 C 0.69706 0.63811 0.17791
 C601 C 0.71610 0.65284 0.19773
 C602 C 0.70306 0.67673 0.20943
 C603 C 0.64267 0.63148 0.14932
 C604 C 0.65446 0.61344 0.13103
 C605 C 0.63216 0.59732 0.11189
 C606 C 0.64576 0.58679 0.08735
 C607 C 0.62582 0.57087 0.06917
 C608 C 0.59187 0.56487 0.07532
 C609 C 0.57829 0.57528 0.09997
 C610 C 0.59820 0.59122 0.11811
 H611 H 0.65967 0.70374 0.20966
 H612 H 0.62653 0.67816 0.17487
 H613 H 0.70764 0.61942 0.17006
 H614 H 0.74106 0.64551 0.20394
 H615 H 0.61583 0.63585 0.14927
 H616 H 0.68151 0.61095 0.12910
 H617 H 0.67195 0.59089 0.08223
 H618 H 0.63717 0.56279 0.05058
 H619 H 0.55217 0.57117 0.10522
 H620 H 0.58699 0.59817 0.13722
   
