data_POSCAR
  _audit_creation_date              2014-09-24
  _audit_creation_method            'ToBaCCo'
  _symmetry_space_group_name_H-M    'P1'
  _symmetry_Int_Tables_number       1
  _symmetry_cell_setting            triclinic
  loop_
  _symmetry_equiv_pos_as_xyz
 x,y,z
_cell_length_a 31.8626
_cell_length_b 32.2949
_cell_length_c 31.1962
_cell_angle_alpha 90.698000
_cell_angle_beta 90.409000
_cell_angle_gamma 90.153300
loop_
  _atom_site_label
  _atom_site_type_symbol
  _atom_site_fract_x
  _atom_site_fract_y
  _atom_site_fract_z
N1 N 0.58465 0.69847 0.62089
 N2 N 0.56118 0.67689 0.64705
 C3 C 0.52481 0.69720 0.65363
 C4 C 0.52604 0.73327 0.63031
 C5 C 0.56433 0.73330 0.61011
 H6 H 0.49964 0.68674 0.67393
 H7 H 0.57650 0.75677 0.58905
 Cu8 Cu 0.58183 0.62524 0.67086
 Cu9 Cu 0.63990 0.67986 0.60288
 Cu10 Cu 0.65337 0.57398 0.61259
 N11 N 0.60202 0.57107 0.68800
 N12 N 0.63000 0.55113 0.66482
 C13 C 0.63873 0.51470 0.68326
 C14 C 0.61515 0.51197 0.71997
 C15 C 0.59216 0.54808 0.72231
 H16 H 0.66105 0.49229 0.67119
 H17 H 0.57038 0.55708 0.74716
 N18 N 0.68671 0.60803 0.57335
 N19 N 0.68268 0.64864 0.57111
 C20 C 0.70954 0.66318 0.54178
 C21 C 0.73150 0.63014 0.52504
 C22 C 0.71642 0.59559 0.54551
 H23 H 0.71182 0.69519 0.53221
 H24 H 0.72584 0.56382 0.54008
 H25 H 0.61303 0.62338 0.59973
 H26 H 0.65332 0.62955 0.64306
 N27 N 0.92128 0.31105 0.10806
 N28 N 0.93868 0.32961 0.14155
 C29 C 0.97241 0.30756 0.15423
 C30 C 0.97588 0.27374 0.12700
 C31 C 0.94317 0.27674 0.09821
 H32 H 0.99269 0.31536 0.18111
 H33 H 0.93591 0.25563 0.07200
 Cu34 Cu 0.91433 0.38018 0.16518
 Cu35 Cu 0.87214 0.33269 0.07866
 Cu36 Cu 0.83701 0.42901 0.11231
 N37 N 0.89033 0.43157 0.18723
 N38 N 0.85987 0.45020 0.16632
 C39 C 0.84895 0.48484 0.18779
 C40 C 0.87377 0.48793 0.22400
 C41 C 0.89977 0.45384 0.22290
 H42 H 0.82485 0.50624 0.17775
 H43 H 0.92370 0.44602 0.24617
 N44 N 0.81037 0.39740 0.06498
 N45 N 0.82333 0.36028 0.05284
 C46 C 0.79903 0.34657 0.02015
 C47 C 0.76949 0.37640 0.01156
 C48 C 0.77731 0.40825 0.04035
 H49 H 0.80282 0.31736 0.00333
 H50 H 0.76038 0.43713 0.04297
 H51 H 0.88768 0.39270 0.09295
 H52 H 0.84779 0.36850 0.12856
 N53 N 0.42777 0.18393 -0.09682
 N54 N 0.44771 0.16263 -0.12652
 C55 C 0.48001 0.18521 -0.14103
 C56 C 0.48031 0.22250 -0.11918
 C57 C 0.44695 0.22090 -0.09122
 H58 H 0.50184 0.17514 -0.16540
 H59 H 0.43770 0.24446 -0.06824
 Cu60 Cu 0.43002 0.10741 -0.14371
 Cu61 Cu 0.37986 0.16054 -0.06678
 Cu62 Cu 0.33856 0.06927 -0.10974
 N63 N 0.40183 0.06256 -0.17417
 N64 N 0.36552 0.04799 -0.16130
 C65 C 0.35280 0.01766 -0.18850
 C66 C 0.38281 0.01343 -0.21992
 C67 C 0.41344 0.04226 -0.21006
 H68 H 0.32395 0.00019 -0.18570
 H69 H 0.44181 0.04826 -0.22781
 N70 N 0.31102 0.10118 -0.06362
 N71 N 0.32655 0.13597 -0.04719
 C72 C 0.30058 0.14996 -0.01631
 C73 C 0.26747 0.12259 -0.01346
 C74 C 0.27485 0.09217 -0.04371
 H75 H 0.30543 0.17775 0.00279
 H76 H 0.25536 0.06539 -0.05052
 H77 H 0.38800 0.09828 -0.07850
 H78 H 0.36061 0.12824 -0.12081
 N79 N 0.07102 0.81372 0.39527
 N80 N 0.05718 0.82683 0.35798
 C81 C 0.02487 0.80285 0.34485
 C82 C 0.01824 0.77334 0.37557
 C83 C 0.04774 0.78099 0.40735
 H84 H 0.00691 0.80708 0.31569
 H85 H 0.05158 0.76461 0.43717
 Cu86 Cu 0.08087 0.87545 0.33128
 Cu87 Cu 0.11671 0.84192 0.42588
 Cu88 Cu 0.17454 0.91022 0.36403
 N89 N 0.10381 0.92692 0.30983
 N90 N 0.14101 0.94030 0.32230
 C91 C 0.15091 0.97451 0.30019
 C92 C 0.11783 0.98298 0.27292
 C93 C 0.08854 0.95231 0.27963
 H94 H 0.18033 0.99116 0.30294
 H95 H 0.05908 0.94803 0.26270
 N96 N 0.19490 0.88814 0.41885
 N97 N 0.17263 0.86310 0.44304
 C98 C 0.19484 0.85466 0.47883
 C99 C 0.23257 0.87557 0.47676
 C100 C 0.23170 0.89646 0.43857
 H101 H 0.18446 0.83474 0.50430
 H102 H 0.25588 0.91658 0.42629
 H103 H 0.12001 0.89891 0.39451
 H104 H 0.14416 0.85245 0.36867
 N105 N 0.10021 0.11345 0.11135
 N106 N 0.39673 0.89208 0.60776
 N107 N 0.85661 0.64847 0.35726
 N108 N 0.63616 0.35435 -0.15133
 C109 C 0.00484 0.24292 0.12785
 C110 C 0.02919 0.21443 0.12664
 C111 C 0.05591 0.17980 0.12297
 C112 C 0.07715 0.14927 0.11815
 C113 C 0.49472 0.76505 0.62757
 C114 C 0.46985 0.79288 0.62414
 C115 C 0.44244 0.82676 0.61903
 C116 C 0.42055 0.85674 0.61399
 C117 C 0.98681 0.74479 0.37525
 C118 C 0.95797 0.72059 0.37327
 C119 C 0.92311 0.69375 0.36905
 C120 C 0.89249 0.67214 0.36404
 C121 C 0.51095 0.25483 -0.12370
 C122 C 0.53808 0.28035 -0.12877
 C123 C 0.57138 0.30827 -0.13594
 C124 C 0.60105 0.33040 -0.14285
 C125 C 0.11591 0.01408 0.24045
 C126 C 0.11343 0.03901 0.21212
 C127 C 0.10956 0.06673 0.17771
 C128 C 0.10550 0.08905 0.14725
 C129 C 0.61628 0.48069 -0.25128
 C130 C 0.61866 0.45235 -0.22659
 C131 C 0.62320 0.41845 -0.19883
 C132 C 0.62862 0.38887 -0.17623
 C133 C 0.38254 0.98544 0.74396
 C134 C 0.38373 0.96266 0.71311
 C135 C 0.38678 0.93689 0.67643
 C136 C 0.39084 0.91569 0.64465
 C137 C 0.87274 0.52070 0.25553
 C138 C 0.87066 0.54907 0.28089
 C139 C 0.86687 0.58327 0.30919
 C140 C 0.86253 0.61329 0.33209
 C141 C 0.23260 0.12429 0.01544
 C142 C 0.20277 0.12408 0.03897
 C143 C 0.16719 0.12197 0.06556
 C144 C 0.13625 0.11861 0.08730
 C145 C 0.76081 0.63145 0.49032
 C146 C 0.78452 0.63371 0.46051
 C147 C 0.81114 0.63770 0.42482
 C148 C 0.83278 0.64225 0.39366
 C149 C 0.73846 0.37476 -0.02203
 C150 C 0.71333 0.37198 -0.05098
 C151 C 0.68504 0.36714 -0.08569
 C152 C 0.66188 0.36169 -0.11598
 C153 C 0.26609 0.87632 0.50781
 C154 C 0.29513 0.87817 0.53273
 C155 C 0.33013 0.88177 0.56055
 C156 C 0.36082 0.88607 0.58304
   
