data_POSCAR
  _audit_creation_date              2014-09-24
  _audit_creation_method            'ToBaCCo'
  _symmetry_space_group_name_H-M    'P1'
  _symmetry_Int_Tables_number       1
  _symmetry_cell_setting            triclinic
  loop_
  _symmetry_equiv_pos_as_xyz
 x,y,z
_cell_length_a 39.1237
_cell_length_b 11.4714
_cell_length_c 14.6017
_cell_angle_alpha 84.058500
_cell_angle_beta 89.950200
_cell_angle_gamma 90.318200
loop_
  _atom_site_label
  _atom_site_type_symbol
  _atom_site_fract_x
  _atom_site_fract_y
  _atom_site_fract_z
C1 C 0.67851 0.24858 0.58597
 C2 C 0.66209 0.22601 0.50424
 C3 C 0.67959 0.21906 0.42147
 C4 C 0.71570 0.22850 0.42064
 C5 C 0.73337 0.25152 0.50189
 C6 C 0.71479 0.26240 0.58465
 C7 C 0.73327 0.28271 0.66395
 C8 C 0.76829 0.30204 0.66074
 C9 C 0.78751 0.28671 0.58149
 C10 C 0.76977 0.26362 0.50027
 C11 C 0.73458 0.21650 0.34048
 C12 C 0.76958 0.23589 0.33736
 C13 C 0.78815 0.25453 0.41699
 C14 C 0.82429 0.27014 0.41480
 C15 C 0.84082 0.29552 0.49568
 C16 C 0.82377 0.29856 0.58018
 H17 H 0.72110 0.28391 0.73019
 H18 H 0.78005 0.32958 0.72195
 H19 H 0.72250 0.19320 0.27833
 H20 H 0.78164 0.23735 0.27072
 H21 H 0.63439 0.22544 0.50269
 H22 H 0.86851 0.29663 0.49534
 C23 C 0.17641 0.73473 0.58617
 C24 C 0.15934 0.71655 0.50471
 C25 C 0.17669 0.70676 0.42192
 C26 C 0.21293 0.71164 0.42114
 C27 C 0.23088 0.73272 0.50246
 C28 C 0.21259 0.74416 0.58520
 C29 C 0.23099 0.76604 0.66415
 C30 C 0.26620 0.78185 0.66127
 C31 C 0.28526 0.76516 0.58194
 C32 C 0.26723 0.74360 0.50068
 C33 C 0.23172 0.69651 0.34126
 C34 C 0.26691 0.71255 0.33829
 C35 C 0.28531 0.73480 0.41724
 C36 C 0.32126 0.74946 0.41482
 C37 C 0.33847 0.77062 0.49532
 C38 C 0.32163 0.77483 0.58013
 H39 H 0.21847 0.77242 0.72936
 H40 H 0.27817 0.80879 0.72239
 H41 H 0.21942 0.67307 0.27942
 H42 H 0.27939 0.70771 0.27277
 H43 H 0.13163 0.71756 0.50469
 H44 H 0.36616 0.77271 0.49276
 C45 C 0.17951 0.28229 -0.42185
 C46 C 0.16204 0.27564 -0.50477
 C47 C 0.17847 0.25271 -0.58653
 C48 C 0.21466 0.23730 -0.58485
 C49 C 0.23313 0.24707 -0.50189
 C50 C 0.21556 0.27189 -0.42095
 C51 C 0.23456 0.28636 -0.34132
 C52 C 0.26946 0.26627 -0.33796
 C53 C 0.28762 0.24195 -0.41667
 C54 C 0.26941 0.23338 -0.49993
 C55 C 0.23323 0.21667 -0.66403
 C56 C 0.26816 0.19640 -0.66054
 C57 C 0.28731 0.21099 -0.58108
 C58 C 0.32366 0.20036 -0.57955
 C59 C 0.34053 0.20353 -0.49468
 C60 C 0.32348 0.22612 -0.41430
 H61 H 0.22265 0.31286 -0.28001
 H62 H 0.28195 0.27038 -0.27239
 H63 H 0.22129 0.21675 -0.73059
 H64 H 0.27989 0.16929 -0.72185
 H65 H 0.13435 0.27783 -0.50348
 H66 H 0.36819 0.20064 -0.49210
 C67 C -0.32365 0.79999 -0.42343
 C68 C -0.34051 0.79740 -0.50816
 C69 C -0.32390 0.77138 -0.58880
 C70 C -0.28782 0.75453 -0.58584
 C71 C -0.26965 0.76363 -0.50234
 C72 C -0.28747 0.78820 -0.42165
 C73 C -0.26842 0.80570 -0.34249
 C74 C -0.23347 0.78625 -0.33856
 C75 C -0.21528 0.75961 -0.41644
 C76 C -0.23337 0.74990 -0.49975
 C77 C -0.26905 0.73426 -0.66476
 C78 C -0.23416 0.71350 -0.66060
 C79 C -0.21529 0.72725 -0.58054
 C80 C -0.17901 0.71597 -0.57821
 C81 C -0.16233 0.71893 -0.49318
 C82 C -0.17945 0.74307 -0.41344
 H83 H -0.28030 0.83516 -0.28216
 H84 H -0.22095 0.79312 -0.27339
 H85 H -0.28084 0.73524 -0.73162
 H86 H -0.22220 0.68725 -0.72191
 H87 H -0.36817 0.79921 -0.50873
 H88 H -0.13468 0.71550 -0.49024
 O89 O -0.04841 0.77719 0.16796
 O90 O -0.08570 0.89555 0.08076
 C91 C -0.07903 0.81290 0.14576
 O92 O 0.04893 1.18512 0.16655
 O93 O 0.08612 1.08577 0.08164
 C94 C 0.07952 1.15433 0.14474
 O95 O -0.04634 1.18000 0.17313
 O96 O -0.08479 1.08810 0.08580
 C97 C -0.07727 1.15228 0.15129
 O98 O 0.04713 0.76520 0.15979
 O99 O 0.08515 0.88708 0.07665
 C100 C 0.07801 0.80056 0.13826
 Zr101 Zr -0.00050 0.83623 0.11331
 O102 O 0.00218 0.80124 0.25824
 O103 O -0.00272 0.65565 0.09638
 Zr104 Zr 0.00092 1.13143 0.11842
 O105 O 0.00431 1.11353 0.26389
 O106 O -0.00172 1.31623 0.11564
 O107 O -0.03006 0.98208 0.13447
 O108 O 0.02957 0.98003 0.13302
 O109 O 0.04702 0.81352 -0.16391
 O110 O 0.08527 0.91135 -0.07985
 C111 C 0.07792 0.84259 -0.14241
 O112 O -0.04645 1.23071 -0.16624
 O113 O -0.08476 1.11563 -0.07837
 C114 C -0.07739 1.19775 -0.14341
 O115 O 0.04926 1.23498 -0.15987
 O116 O 0.08615 1.11115 -0.07632
 C117 C 0.07982 1.19775 -0.13822
 O118 O -0.04841 0.82603 -0.17067
 O119 O -0.08568 0.92281 -0.08391
 C120 C -0.07896 0.85704 -0.14883
 Zr121 Zr -0.00055 0.87258 -0.11704
 O122 O 0.00291 0.89174 -0.26253
 O123 O -0.00454 0.68809 -0.11525
 Zr124 Zr 0.00099 1.16808 -0.11231
 O125 O 0.00422 1.19972 -0.25731
 O126 O -0.00170 1.35052 -0.10127
 Zr127 Zr -0.05102 1.00413 0.00083
 Zr128 Zr 0.05123 1.00034 0.00033
 O129 O 0.02959 1.02181 -0.13222
 O130 O -0.03007 1.02438 -0.13305
 O131 O 0.03029 0.83107 -0.00226
 O132 O -0.02910 1.17170 0.00348
 O133 O -0.03088 0.83481 -0.00187
 O134 O 0.03199 1.17122 0.00329
 H135 H 0.04443 0.97073 0.18816
 H136 H -0.04452 1.23983 0.00460
 H137 H 0.04461 1.02934 -0.18720
 H138 H -0.04695 0.76778 -0.00267
 H139 H 0.01926 1.34978 0.08528
 H140 H 0.02019 1.37513 -0.07508
 H141 H -0.01061 1.14100 -0.28280
 H142 H -0.01540 0.94573 -0.28627
 H143 H 0.01410 0.65313 -0.07585
 H144 H -0.00303 0.61424 0.15936
 H145 H -0.01095 0.86317 0.28455
 H146 H -0.01391 1.05851 0.28786
 O147 O 0.54785 0.32472 -0.17267
 O148 O 0.58543 0.42087 -0.08574
 C149 C 0.57853 0.35570 -0.15104
 O150 O 0.45089 0.72829 -0.16180
 O151 O 0.41378 0.60447 -0.07751
 C152 C 0.42029 0.69053 -0.13998
 O153 O 0.54645 0.72723 -0.16892
 O154 O 0.58464 0.61354 -0.08112
 C155 C 0.57735 0.69500 -0.14642
 O156 O 0.45257 0.30735 -0.16427
 O157 O 0.41455 0.40439 -0.07980
 C158 C 0.42176 0.33578 -0.14244
 Zr159 Zr 0.50007 0.36754 -0.11730
 O160 O 0.49699 0.37829 -0.26260
 O161 O 0.50214 0.18248 -0.10549
 Zr162 Zr 0.49902 0.66336 -0.11430
 O163 O 0.49575 0.69379 -0.25940
 O164 O 0.50185 0.84610 -0.10421
 O165 O 0.52978 0.52010 -0.13457
 O166 O 0.47020 0.51610 -0.13304
 O167 O 0.45271 0.26118 0.16025
 O168 O 0.41469 0.38130 0.07719
 C169 C 0.42183 0.29552 0.13915
 O170 O 0.54647 0.67881 0.17054
 O171 O 0.58476 0.58732 0.08311
 C172 C 0.57736 0.65185 0.14836
 O173 O 0.45080 0.68185 0.16367
 O174 O 0.41350 0.57977 0.07993
 C175 C 0.42018 0.64955 0.14225
 O176 O 0.54835 0.27431 0.16599
 O177 O 0.58551 0.39420 0.07818
 C178 C 0.57896 0.31107 0.14306
 Zr179 Zr 0.50035 0.33343 0.11310
 O180 O 0.49728 0.30523 0.25841
 O181 O 0.50411 0.15071 0.10455
 Zr182 Zr 0.49908 0.62889 0.11647
 O183 O 0.49560 0.61268 0.26189
 O184 O 0.50198 0.81379 0.11282
 Zr185 Zr 0.55087 0.50173 -0.00101
 Zr186 Zr 0.44863 0.49535 -0.00025
 O187 O 0.47036 0.47671 0.13231
 O188 O 0.53004 0.48040 0.13301
 O189 O 0.46935 0.32651 -0.00210
 O190 O 0.52912 0.66882 0.00109
 O191 O 0.53052 0.33181 -0.00277
 O192 O 0.46806 0.66691 0.00147
 H193 H 0.45534 0.52277 -0.18820
 H194 H 0.54461 0.73739 0.00172
 H195 H 0.45549 0.46779 0.18755
 H196 H 0.54650 0.26521 -0.00385
 H197 H 0.47994 0.87042 -0.07835
 H198 H 0.48103 0.84661 0.08247
 H199 H 0.51324 0.55619 0.28588
 H200 H 0.51371 0.35963 0.28328
 H201 H 0.48441 0.12720 0.06799
 H202 H 0.50255 0.16035 -0.16930
 H203 H 0.51242 0.44254 -0.28729
 H204 H 0.51147 0.63820 -0.28496
 C205 C 0.33701 0.27547 0.25939
 C206 C 0.34439 0.20100 0.34000
 C207 C 0.37575 0.14014 0.34304
 C208 C 0.39994 0.16152 0.27282
 C209 C 0.39332 0.24321 0.19670
 C210 C 0.36056 0.29212 0.18731
 H211 H 0.31447 0.32996 0.25447
 H212 H 0.38235 0.07924 0.40196
 H213 H 0.42467 0.11993 0.28142
 H214 H 0.35425 0.35295 0.12812
 C215 C -0.16472 0.79365 0.26226
 C216 C -0.15803 0.71682 0.34202
 C217 C -0.12687 0.65481 0.34575
 C218 C -0.10200 0.67831 0.27767
 C219 C -0.10789 0.76258 0.20276
 C220 C -0.14050 0.81217 0.19199
 H221 H -0.18723 0.84830 0.25692
 H222 H -0.12090 0.59213 0.40413
 H223 H -0.07747 0.63546 0.28676
 H224 H -0.14634 0.87367 0.13288
 C225 C 0.62591 0.82305 0.31404
 C226 C 0.65493 0.75225 0.33466
 C227 C 0.65914 0.65359 0.28569
 C228 C 0.63533 0.62739 0.21940
 C229 C 0.60558 0.69393 0.20402
 C230 C 0.60147 0.79375 0.25055
 H231 H 0.62151 0.89989 0.34922
 H232 H 0.67948 0.59147 0.30264
 H233 H 0.63908 0.55066 0.18436
 H234 H 0.57892 0.84775 0.23957
 C235 C 0.12889 1.31257 0.31685
 C236 C 0.15721 1.23816 0.33630
 C237 C 0.16080 1.14180 0.28456
 C238 C 0.13712 1.12143 0.21626
 C239 C 0.10815 1.19218 0.20112
 C240 C 0.10466 1.28962 0.25077
 H241 H 0.12500 1.38754 0.35463
 H242 H 0.18052 1.07706 0.30071
 H243 H 0.14024 1.04552 0.17958
 H244 H 0.08260 1.34604 0.24051
 C245 C 0.66094 0.36263 -0.28720
 C246 C 0.65710 0.26496 -0.33757
 C247 C 0.62819 0.19199 -0.31861
 C248 C 0.60342 0.21839 -0.25517
 C249 C 0.60706 0.31743 -0.20724
 C250 C 0.63670 0.38626 -0.22121
 H251 H 0.68131 0.42585 -0.30287
 H252 H 0.62422 0.11556 -0.35499
 H253 H 0.58098 0.16273 -0.24530
 H254 H 0.64011 0.46262 -0.18514
 C255 C 0.15740 0.85565 -0.28887
 C256 C 0.15466 0.75257 -0.33245
 C257 C 0.12777 0.67396 -0.30665
 C258 C 0.10355 0.69952 -0.24120
 C259 C 0.10621 0.80333 -0.19865
 C260 C 0.13400 0.87877 -0.22091
 H261 H 0.17679 0.92070 -0.30995
 H262 H 0.12456 0.59562 -0.34073
 H263 H 0.08219 0.64016 -0.22602
 H264 H 0.13628 0.95969 -0.19021
 C265 C 0.37353 0.83937 -0.34392
 C266 C 0.34235 0.77637 -0.33983
 C267 C 0.33512 0.70253 -0.25863
 C268 C 0.35888 0.68776 -0.18706
 C269 C 0.39147 0.73928 -0.19730
 C270 C 0.39776 0.82081 -0.27394
 H271 H 0.37992 0.89987 -0.40349
 H272 H 0.31257 0.64715 -0.25303
 H273 H 0.35287 0.62653 -0.12765
 H274 H 0.42235 0.86426 -0.28319
 C275 C -0.12391 1.35885 -0.34300
 C276 C -0.15555 1.29841 -0.33940
 C277 C -0.16299 1.22325 -0.25901
 C278 C -0.13902 1.20425 -0.18838
 C279 C -0.10588 1.25077 -0.19971
 C280 C -0.09926 1.33420 -0.27485
 H281 H -0.11731 1.42082 -0.40150
 H282 H -0.18583 1.16937 -0.25358
 H283 H -0.14536 1.14290 -0.12930
 H284 H -0.07431 1.37513 -0.28424
 C285 C 0.66288 0.72203 -0.26336
 C286 C 0.65560 0.79833 -0.34304
 C287 C 0.62411 0.85838 -0.34596
 C288 C 0.59940 0.83241 -0.27780
 C289 C 0.60585 0.74810 -0.20333
 C290 C 0.63882 0.70124 -0.19292
 H291 H 0.68577 0.66925 -0.25827
 H292 H 0.61769 0.92104 -0.40395
 H293 H 0.57456 0.87322 -0.28657
 H294 H 0.64511 0.64020 -0.13392
 C295 C 0.12820 1.35212 -0.33909
 C296 C 0.15821 1.28468 -0.33680
 C297 C 0.16445 1.20585 -0.25841
 C298 C 0.14090 1.19212 -0.18629
 C299 C 0.10894 1.24716 -0.19493
 C300 C 0.10356 1.33245 -0.26964
 H301 H 0.12257 1.41356 -0.39843
 H302 H 0.18648 1.14891 -0.25494
 H303 H 0.14642 1.12930 -0.12777
 H304 H 0.07944 1.37813 -0.27785
 C305 C 0.34371 0.35126 -0.29332
 C306 C 0.34514 0.24495 -0.33292
 C307 C 0.37067 0.16375 -0.30315
 C308 C 0.39488 0.18992 -0.23761
 C309 C 0.39342 0.29672 -0.19884
 C310 C 0.36701 0.37515 -0.22534
 H311 H 0.32538 0.41791 -0.31748
 H312 H 0.37279 0.08243 -0.33391
 H313 H 0.41529 0.12846 -0.21930
 H314 H 0.36589 0.45868 -0.19808
 C315 C -0.13223 0.68180 -0.30260
 C316 C -0.15769 0.76312 -0.33263
 C317 C -0.15834 0.87125 -0.29562
 C318 C -0.13411 0.89715 -0.23047
 C319 C -0.10767 0.81886 -0.20441
 C320 C -0.10716 0.70990 -0.24007
 H321 H -0.13081 0.59890 -0.33130
 H322 H -0.17668 0.93775 -0.32000
 H323 H -0.13465 0.98149 -0.20485
 H324 H -0.08694 0.64783 -0.22137
 C325 C 0.36835 0.81610 0.30410
 C326 C 0.34280 0.73337 0.33273
 C327 C 0.34136 0.62827 0.29143
 C328 C 0.36489 0.60662 0.22336
 C329 C 0.39151 0.68611 0.19856
 C330 C 0.39276 0.79215 0.23854
 H331 H 0.37034 0.89678 0.33595
 H332 H 0.32288 0.56080 0.31441
 H333 H 0.36370 0.52409 0.19458
 H334 H 0.41319 0.85474 0.22117
 C335 C -0.12538 1.32236 0.31766
 C336 C -0.15452 1.25106 0.33842
 C337 C -0.15896 1.15220 0.28961
 C338 C -0.13516 1.12599 0.22336
 C339 C -0.10536 1.19336 0.20751
 C340 C -0.10105 1.29338 0.25391
 H341 H -0.12087 1.39952 0.35272
 H342 H -0.17952 1.09007 0.30660
 H343 H -0.13900 1.04869 0.18869
 H344 H -0.07842 1.34774 0.24254
 C345 C 0.62788 0.15098 0.33937
 C346 C 0.65820 0.21797 0.33672
 C347 C 0.66434 0.29907 0.25941
 C348 C 0.64031 0.31559 0.18888
 C349 C 0.60805 0.26164 0.19880
 C350 C 0.60275 0.17406 0.27209
 H351 H 0.62234 0.08788 0.39794
 H352 H 0.68668 0.35546 0.25572
 H353 H 0.64591 0.37855 0.13034
 H354 H 0.57845 0.12858 0.28075
 C355 C 0.12489 0.64108 0.33854
 C356 C 0.15541 0.70688 0.33696
 C357 C 0.16234 0.78682 0.25953
 C358 C 0.13893 0.80337 0.18748
 C359 C 0.10663 0.74920 0.19502
 C360 C 0.10052 0.66306 0.26895
 H361 H 0.11872 0.57915 0.39737
 H362 H 0.18490 0.84209 0.25685
 H363 H 0.14500 0.86683 0.12963
 H364 H 0.07607 0.61832 0.27645
   
