data_POSCAR
  _audit_creation_date              2014-09-24
  _audit_creation_method            'ToBaCCo'
  _symmetry_space_group_name_H-M    'P1'
  _symmetry_Int_Tables_number       1
  _symmetry_cell_setting            triclinic
  loop_
  _symmetry_equiv_pos_as_xyz
 x,y,z
_cell_length_a 53.4750
_cell_length_b 53.0132
_cell_length_c 54.5886
_cell_angle_alpha 89.979900
_cell_angle_beta 90.090300
_cell_angle_gamma 89.899500
loop_
  _atom_site_label
  _atom_site_type_symbol
  _atom_site_fract_x
  _atom_site_fract_y
  _atom_site_fract_z
N1 N 0.32446 0.39052 1.36673
 N2 N 0.33015 0.37873 1.38719
 C3 C 0.31149 0.38194 1.40344
 C4 C 0.29296 0.39620 1.39234
 C5 C 0.30178 0.40128 1.36905
 H6 H 0.31110 0.37387 1.42164
 H7 H 0.29250 0.41219 1.35496
 Cu8 Cu 0.36042 0.35867 1.39001
 Cu9 Cu 0.34741 0.39204 1.33912
 Cu10 Cu 0.39759 0.35095 1.34071
 N11 N 0.38440 0.33120 1.38797
 N12 N 0.39913 0.32843 1.36889
 C13 C 0.41308 0.30748 1.37189
 C14 C 0.40648 0.29640 1.39390
 C15 C 0.38828 0.31200 1.40369
 H16 H 0.42633 0.30033 1.35863
 H17 H 0.37816 0.30925 1.42062
 N18 N 0.39221 0.37525 1.31387
 N19 N 0.37294 0.39085 1.31319
 C20 C 0.37436 0.40498 1.29273
 C21 C 0.39545 0.39781 1.27992
 C22 C 0.40632 0.37893 1.29378
 H23 H 0.36107 0.41940 1.28747
 H24 H 0.42326 0.36869 1.28950
 H25 H 0.35963 0.35560 1.34575
 H26 H 0.38027 0.38183 1.35680
 N27 N 1.18122 0.61701 0.86695
 N28 N 1.17668 0.62953 0.88724
 C29 C 1.19638 0.62712 0.90249
 C30 C 1.21414 0.61222 0.89105
 C31 C 1.20391 0.60617 0.86856
 H32 H 1.19766 0.63542 0.92055
 H33 H 1.21219 0.59432 0.85463
 Cu34 Cu 1.14551 0.64778 0.89155
 Cu35 Cu 1.15671 0.61396 0.84073
 Cu36 Cu 1.09973 0.64403 0.84959
 N37 N 1.11907 0.67292 0.88970
 N38 N 1.10098 0.67134 0.87343
 C39 C 1.08535 0.69109 0.87623
 C40 C 1.09436 0.70595 0.89513
 C41 C 1.11575 0.69383 0.90329
 H42 H 1.06898 0.69460 0.86505
 H43 H 1.12814 0.69988 0.91783
 N44 N 1.10703 0.62300 0.82071
 N45 N 1.12918 0.61274 0.81676
 C46 C 1.12876 0.60069 0.79507
 C47 C 1.10523 0.60335 0.78500
 C48 C 1.09186 0.61757 0.80169
 H49 H 1.14427 0.59034 0.78729
 H50 H 1.07267 0.62380 0.79993
 H51 H 1.13767 0.64737 0.84775
 H52 H 1.12607 0.61799 0.86263
 N53 N 0.67182 -0.10596 0.12830
 N54 N 0.66864 -0.12141 0.10972
 C55 C 0.68827 -0.11941 0.09442
 C56 C 0.70459 -0.10178 0.10401
 C57 C 0.69359 -0.09362 0.12548
 H58 H 0.69071 -0.13023 0.07779
 H59 H 0.70104 -0.07995 0.13824
 Cu60 Cu 0.63955 -0.14317 0.10770
 Cu61 Cu 0.64789 -0.10351 0.15508
 Cu62 Cu 0.60022 -0.14761 0.15558
 N63 N 0.61576 -0.17062 0.11046
 N64 N 0.60015 -0.17212 0.12899
 C65 C 0.58605 -0.19298 0.12646
 C66 C 0.59340 -0.20527 0.10531
 C67 C 0.61229 -0.19056 0.09559
 H68 H 0.57191 -0.19906 0.13932
 H69 H 0.62292 -0.19425 0.07912
 N70 N 0.60368 -0.12117 0.18075
 N71 N 0.62177 -0.10426 0.18049
 C72 C 0.61942 -0.08921 0.20025
 C73 C 0.59896 -0.09715 0.21356
 C74 C 0.58940 -0.11740 0.20072
 H75 H 0.63190 -0.07393 0.20492
 H76 H 0.57342 -0.12872 0.20579
 H77 H 0.63815 -0.14112 0.15210
 H78 H 0.61665 -0.11768 0.13742
 N79 N -0.17584 1.10352 -0.37400
 N80 N -0.17178 1.11847 -0.39280
 C81 C -0.19059 1.11587 -0.40907
 C82 C -0.20726 1.09835 -0.39988
 C83 C -0.19730 1.09087 -0.37766
 H84 H -0.19238 1.12643 -0.42594
 H85 H -0.20548 1.07777 -0.36478
 Cu86 Cu -0.14315 1.14101 -0.39363
 Cu87 Cu -0.15414 1.10280 -0.34532
 Cu88 Cu -0.10992 1.15002 -0.34194
 N89 N -0.12093 1.16973 -0.38979
 N90 N -0.10876 1.17362 -0.36920
 C91 C -0.09575 1.19523 -0.37097
 C92 C -0.09984 1.20533 -0.39399
 C93 C -0.11588 1.18863 -0.40553
 H94 H -0.08406 1.20297 -0.35665
 H95 H -0.12366 1.19036 -0.42376
 N96 N -0.11382 1.12415 -0.31637
 N97 N -0.13039 1.10578 -0.31783
 C98 C -0.12833 1.09105 -0.29780
 C99 C -0.10960 1.10069 -0.28309
 C100 C -0.10080 1.12162 -0.29538
 H101 H -0.13972 1.07466 -0.29404
 H102 H -0.08599 1.13405 -0.28942
 H103 H -0.14678 1.14073 -0.34935
 H104 H -0.12222 1.11827 -0.36056
 N105 N 0.68366 0.60997 0.62735
 N106 N 0.68582 0.63040 0.61385
 C107 C 0.70547 0.62772 0.59867
 C108 C 0.71626 0.60446 0.60305
 C109 C 0.70198 0.59367 0.62134
 H110 H 0.71181 0.64187 0.58583
 H111 H 0.70506 0.57557 0.62999
 Cu112 Cu 0.66375 0.65920 0.61797
 Cu113 Cu 0.65832 0.60680 0.65276
 Cu114 Cu 0.61363 0.65385 0.65484
 N115 N 0.63586 0.68264 0.61618
 N116 N 0.61579 0.67981 0.62977
 C117 C 0.59935 0.69829 0.62445
 C118 C 0.60989 0.71364 0.60684
 C119 C 0.63307 0.70326 0.60203
 H120 H 0.58146 0.70091 0.63333
 H121 H 0.64684 0.71020 0.58921
 N122 N 0.61481 0.62596 0.67856
 N123 N 0.63123 0.60739 0.67721
 C124 C 0.62768 0.59162 0.69626
 C125 C 0.60844 0.60106 0.71042
 C126 C 0.60074 0.62282 0.69875
 H127 H 0.63912 0.57531 0.70036
 H128 H 0.58637 0.63571 0.70489
 H129 H 0.63363 0.62888 0.63308
 H130 H 0.65133 0.64469 0.65848
 N131 N 0.81991 0.39056 0.13496
 N132 N 0.81605 0.36829 0.12508
 C133 C 0.79513 0.36915 0.11137
 C134 C 0.78547 0.39329 0.11264
 C135 C 0.80163 0.40643 0.12774
 H136 H 0.78764 0.35346 0.10106
 H137 H 0.80000 0.42595 0.13330
 Cu138 Cu 0.83887 0.34024 0.13013
 Cu139 Cu 0.84757 0.39666 0.15743
 Cu140 Cu 0.89400 0.35143 0.15799
 N141 N 0.86724 0.31768 0.12647
 N142 N 0.88919 0.32279 0.13614
 C143 C 0.90547 0.30445 0.12997
 C144 C 0.89289 0.28685 0.11593
 C145 C 0.86867 0.29577 0.11412
 H146 H 0.92476 0.30354 0.13587
 H147 H 0.85331 0.28706 0.10439
 N148 N 0.89489 0.38157 0.17905
 N149 N 0.87708 0.39884 0.17895
 C150 C 0.88143 0.41542 0.19717
 C151 C 0.90291 0.40808 0.20936
 C152 C 0.91101 0.38664 0.19736
 H153 H 0.86909 0.43075 0.20218
 H154 H 0.92661 0.37478 0.20257
 H155 H 0.86970 0.37277 0.13681
 H156 H 0.85690 0.35968 0.16628
 N157 N 0.31669 0.11001 0.87139
 N158 N 0.31729 0.12872 0.88720
 C159 C 0.29766 0.12663 0.90251
 C160 C 0.28431 0.10535 0.89606
 C161 C 0.29691 0.09519 0.87632
 H162 H 0.29329 0.13958 0.91720
 H163 H 0.29168 0.07864 0.86595
 Cu164 Cu 0.34364 0.15395 0.88603
 Cu165 Cu 0.34066 0.10710 0.84467
 Cu166 Cu 0.38771 0.15200 0.84236
 N167 N 0.37045 0.17869 0.88494
 N168 N 0.38721 0.17817 0.86735
 C169 C 0.40267 0.19800 0.86986
 C170 C 0.39535 0.21150 0.89026
 C171 C 0.37493 0.19873 0.89949
 H172 H 0.41802 0.20239 0.85772
 H173 H 0.36383 0.20408 0.91520
 N174 N 0.38502 0.12409 0.81872
 N175 N 0.36668 0.10744 0.81911
 C176 C 0.36910 0.09194 0.79969
 C177 C 0.39010 0.09902 0.78674
 C178 C 0.39981 0.11935 0.79931
 H179 H 0.35649 0.07671 0.79516
 H180 H 0.41601 0.13030 0.79418
 H181 H 0.36963 0.12474 0.86281
 H182 H 0.34967 0.14490 0.84265
 N183 N 0.17465 0.89351 0.37458
 N184 N 0.17110 0.87908 0.39386
 C185 C 0.18996 0.88271 0.40988
 C186 C 0.20629 0.90004 0.39984
 C187 C 0.19605 0.90646 0.37745
 H188 H 0.19224 0.87266 0.42699
 H189 H 0.20383 0.91931 0.36409
 Cu190 Cu 0.14363 0.85513 0.39513
 Cu191 Cu 0.15176 0.89393 0.34685
 Cu192 Cu 0.10875 0.84552 0.34446
 N193 N 0.12258 0.82549 0.39151
 N194 N 0.10888 0.82196 0.37178
 C195 C 0.09620 0.80019 0.37405
 C196 C 0.10243 0.78943 0.39628
 C197 C 0.11925 0.80593 0.40693
 H198 H 0.08362 0.79255 0.36042
 H199 H 0.12843 0.80381 0.42448
 N200 N 0.11146 0.87146 0.31878
 N201 N 0.12705 0.89067 0.32031
 C202 C 0.12381 0.90569 0.30064
 C203 C 0.10564 0.89513 0.28591
 C204 C 0.09825 0.87344 0.29784
 H205 H 0.13432 0.92267 0.29694
 H206 H 0.08413 0.86026 0.29177
 H207 H 0.12076 0.87733 0.36298
 H208 H 0.14552 0.85568 0.35074
 Zn209 Zn 0.00323 1.02846 -0.01249
 Zn210 Zn -0.02381 0.97885 -0.01752
 Zn211 Zn 0.02610 0.98134 0.00726
 Zn212 Zn -0.01842 1.00388 0.03149
 O213 O -0.00328 0.99810 0.00211
 O214 O -0.01149 1.03102 -0.04182
 O215 O -0.00974 0.94920 -0.02635
 O216 O 0.05282 0.99818 -0.00384
 O217 O -0.03184 0.99479 -0.04558
 O218 O 0.03588 1.03357 -0.01769
 O219 O 0.02689 0.95149 -0.00755
 O220 O -0.00059 0.99269 0.05711
 O221 O -0.05292 0.97088 -0.00275
 O222 O 0.03195 0.97490 0.03894
 O223 O -0.04814 0.98899 0.03353
 O224 O -0.02444 1.03648 0.03714
 O225 O -0.00758 1.05511 0.00490
 C226 C -0.02560 1.01628 -0.05385
 C227 C 0.01143 0.93979 -0.02096
 C228 C 0.05485 1.01974 -0.01374
 C229 C 0.01986 0.98057 0.05813
 C230 C -0.06093 0.97601 0.01858
 C231 C -0.01921 1.05622 0.02511
 Zn232 Zn 0.49157 -0.02765 0.48572
 Zn233 Zn 0.51447 -0.00390 0.52977
 Zn234 Zn 0.51764 0.02227 0.48144
 Zn235 Zn 0.46835 0.01806 0.50785
 O236 O 0.49802 0.00225 0.50113
 O237 O 0.50283 -0.05463 0.50237
 O238 O 0.54418 0.01095 0.53104
 O239 O 0.52495 0.00750 0.45259
 O240 O 0.52075 -0.03661 0.53449
 O241 O 0.50575 -0.02931 0.45624
 O242 O 0.54731 0.03034 0.49528
 O243 O 0.46662 0.04874 0.49416
 O244 O 0.49783 0.00682 0.55626
 O245 O 0.50262 0.05166 0.47420
 O246 O 0.46326 0.02259 0.53996
 O247 O 0.44156 0.00100 0.49699
 O248 O 0.45901 -0.03273 0.48028
 C249 C 0.51516 -0.05609 0.52221
 C250 C 0.55629 0.02450 0.51609
 C251 C 0.51901 -0.01397 0.44408
 C252 C 0.48164 0.06084 0.48054
 C253 C 0.47667 0.01742 0.55847
 C254 C 0.43982 -0.01978 0.48559
 Zn255 Zn 1.01008 0.46570 0.48378
 Zn256 Zn 1.03457 0.51004 0.50734
 Zn257 Zn 0.98513 0.51619 0.48159
 Zn258 Zn 0.98860 0.48811 0.52912
 O259 O 1.00458 0.49506 0.50041
 O260 O 1.04252 0.46002 0.47805
 O261 O 1.03700 0.54075 0.49395
 O262 O 0.97731 0.50290 0.45218
 O263 O 1.06089 0.49238 0.49631
 O264 O 0.99576 0.46555 0.45430
 O265 O 1.00048 0.54556 0.47520
 O266 O 0.95837 0.50221 0.53057
 O267 O 1.03964 0.51474 0.53943
 O268 O 0.95579 0.52390 0.49596
 O269 O 1.00495 0.49936 0.55560
 O270 O 0.98374 0.45511 0.53378
 O271 O 0.99847 0.43839 0.49954
 C272 C 1.06205 0.47211 0.48401
 C273 C 1.02196 0.55378 0.48111
 C274 C 0.98282 0.48171 0.44276
 C275 C 0.94651 0.51674 0.51620
 C276 C 1.02599 0.51011 0.55787
 C277 C 0.98809 0.43612 0.52031
 Zn278 Zn 0.50840 0.47188 1.01136
 Zn279 Zn 0.48135 0.52125 1.01491
 Zn280 Zn 0.53166 0.51839 0.99090
 Zn281 Zn 0.48757 0.49524 0.96630
 O282 O 0.50220 0.50175 0.99590
 O283 O 0.49379 0.47012 1.04057
 O284 O 0.49523 0.55096 1.02339
 O285 O 0.55827 0.50160 1.00269
 O286 O 0.47283 0.50608 1.04328
 O287 O 0.54095 0.46661 1.01687
 O288 O 0.53218 0.54855 1.00525
 O289 O 0.50570 0.50609 0.94087
 O290 O 0.45264 0.52898 0.99938
 O291 O 0.53794 0.52428 0.95917
 O292 O 0.45767 0.51010 0.96347
 O293 O 0.48228 0.46236 0.96097
 O294 O 0.49724 0.44501 0.99482
 C295 C 0.47939 0.48491 1.05214
 C296 C 0.51641 0.56037 1.01824
 C297 C 0.56004 0.48019 1.01297
 C298 C 0.52610 0.51821 0.93991
 C299 C 0.44483 0.52354 0.97803
 C300 C 0.48669 0.44312 0.97409
 C301 C 1.22531 0.41753 0.42123
 N302 N 1.24291 0.40647 0.43563
 N303 N 1.26483 0.39942 0.42625
 C304 C 1.27009 0.40354 0.40224
 N305 N 1.25254 0.41483 0.38794
 N306 N 1.23049 0.42152 0.39722
 C307 C 1.20097 0.42491 0.43130
 N308 N 1.18069 0.42670 0.41643
 N309 N 1.15853 0.43341 0.42543
 C310 C 1.15592 0.43895 0.44956
 N311 N 1.17624 0.43732 0.46444
 N312 N 1.19834 0.43023 0.45549
 C313 C 1.13156 0.44685 0.45918
 N314 N 1.12997 0.46158 0.47948
 N315 N 1.10781 0.46955 0.48754
 C316 C 1.08645 0.46273 0.47582
 N317 N 1.08804 0.44777 0.45571
 N318 N 1.11021 0.44012 0.44745
 C319 C 0.28295 0.58716 0.91839
 N320 N 0.26797 0.60215 0.93226
 N321 N 0.24606 0.61028 0.92357
 C322 C 0.23839 0.60371 0.90072
 N323 N 0.25339 0.58878 0.88689
 N324 N 0.27526 0.58067 0.89555
 C325 C 0.30704 0.57790 0.92779
 N326 N 0.32166 0.56292 0.91361
 N327 N 0.34347 0.55433 0.92194
 C328 C 0.35151 0.56036 0.94479
 N329 N 0.33690 0.57535 0.95902
 N330 N 0.31504 0.58397 0.95067
 C331 C 0.37565 0.55078 0.95373
 N332 N 0.38408 0.55655 0.97654
 N333 N 0.40609 0.54783 0.98440
 C334 C 0.42043 0.53303 0.96972
 N335 N 0.41196 0.52726 0.94696
 N336 N 0.38999 0.53596 0.93912
 C337 C -0.22606 0.92069 0.07629
 N338 N -0.24051 0.90416 0.06363
 N339 N -0.26266 0.89700 0.07239
 C340 C -0.27114 0.90617 0.09408
 N341 N -0.25670 0.92272 0.10668
 N342 N -0.23458 0.92983 0.09796
 C343 C -0.20151 0.92856 0.06700
 N344 N -0.18691 0.94410 0.08059
 N345 N -0.16458 0.95130 0.07247
 C346 C -0.15600 0.94328 0.05042
 N347 N -0.17060 0.92774 0.03676
 N348 N -0.19296 0.92048 0.04492
 C349 C -0.13129 0.95144 0.04181
 N350 N -0.12257 0.94475 0.01935
 N351 N -0.10012 0.95247 0.01180
 C352 C -0.08563 0.96710 0.02649
 N353 N -0.09437 0.97370 0.04891
 N354 N -0.11676 0.96604 0.05641
 C355 C 0.72351 0.07647 0.57143
 N356 N 0.73817 0.09298 0.55898
 N357 N 0.76036 0.09986 0.56796
 C358 C 0.76865 0.09044 0.58966
 N359 N 0.75403 0.07388 0.60199
 N360 N 0.73189 0.06704 0.59305
 C361 C 0.69878 0.06906 0.56215
 N362 N 0.68424 0.05337 0.57560
 N363 N 0.66166 0.04670 0.56769
 C364 C 0.65272 0.05541 0.54601
 N365 N 0.66725 0.07109 0.53244
 N366 N 0.68989 0.07783 0.54040
 C367 C 0.62765 0.04783 0.53778
 N368 N 0.61824 0.05530 0.51579
 N369 N 0.59545 0.04803 0.50870
 C370 C 0.58130 0.03310 0.52343
 N371 N 0.59076 0.02575 0.54537
 N372 N 0.61346 0.03295 0.55240
 C373 C 0.43129 0.22866 0.42139
 N374 N 0.41339 0.24207 0.43329
 N375 N 0.40557 0.26418 0.42454
 C376 C 0.41525 0.27367 0.40348
 N377 N 0.43323 0.26029 0.39163
 N378 N 0.44114 0.23823 0.40045
 C379 C 0.43943 0.20397 0.43070
 N380 N 0.45886 0.19156 0.42015
 N381 N 0.46592 0.16895 0.42834
 C382 C 0.45370 0.15787 0.44728
 N383 N 0.43428 0.17028 0.45782
 N384 N 0.42731 0.19294 0.44972
 C385 C 0.46113 0.13273 0.45603
 N386 N 0.44703 0.12041 0.47285
 N387 N 0.45356 0.09749 0.48061
 C388 C 0.47450 0.08610 0.47193
 N389 N 0.48867 0.09846 0.45516
 N390 N 0.48206 0.12133 0.44730
 C391 C 0.92875 0.27171 0.57929
 N392 N 0.91494 0.25642 0.56462
 N393 N 0.90561 0.23487 0.57324
 C394 C 0.90993 0.22774 0.59679
 N395 N 0.92390 0.24299 0.61135
 N396 N 0.93302 0.26462 0.60281
 C397 C 0.93855 0.29579 0.57015
 N398 N 0.94696 0.31349 0.58610
 N399 N 0.95547 0.33556 0.57802
 C400 C 0.95614 0.34065 0.55367
 N401 N 0.94790 0.32288 0.53767
 N402 N 0.93916 0.30087 0.54577
 C403 C 0.96506 0.36523 0.54494
 N404 N 0.97092 0.36887 0.52100
 N405 N 0.97865 0.39136 0.51317
 C406 C 0.98057 0.41105 0.52897
 N407 N 0.97467 0.40740 0.55287
 N408 N 0.96719 0.38487 0.56074
 C409 C 0.06640 0.77341 -0.07979
 N410 N 0.05452 0.76072 -0.09801
 N411 N 0.06347 0.73875 -0.10609
 C412 C 0.08460 0.72866 -0.09624
 N413 N 0.09635 0.74133 -0.07795
 N414 N 0.08745 0.76327 -0.06991
 C415 C 0.05713 0.79792 -0.07106
 N416 N 0.07030 0.81090 -0.05396
 N417 N 0.06239 0.83330 -0.04615
 C418 C 0.04099 0.84360 -0.05507
 N419 N 0.02771 0.83060 -0.07213
 N420 N 0.03567 0.80816 -0.08001
 C421 C 0.03281 0.86853 -0.04642
 N422 N 0.01081 0.87890 -0.05387
 N423 N 0.00380 0.90161 -0.04582
 C424 C 0.01861 0.91474 -0.03011
 N425 N 0.04056 0.90433 -0.02274
 N426 N 0.04751 0.88167 -0.03070
 C427 C 0.56744 0.72722 1.07860
 N428 N 0.58624 0.73965 1.06711
 N429 N 0.59449 0.76163 1.07566
 C430 C 0.58435 0.77198 1.09612
 N431 N 0.56548 0.75957 1.10759
 N432 N 0.55715 0.73761 1.09897
 C433 C 0.55886 0.70270 1.06936
 N434 N 0.53878 0.69094 1.07942
 N435 N 0.53138 0.66848 1.07116
 C436 C 0.54389 0.65694 1.05264
 N437 N 0.56393 0.66872 1.04261
 N438 N 0.57124 0.69119 1.05078
 C439 C 0.53633 0.63195 1.04373
 N440 N 0.55089 0.61950 1.02738
 N441 N 0.54445 0.59672 1.01936
 C442 C 0.52312 0.58555 1.02727
 N443 N 0.50844 0.59802 1.04357
 N444 N 0.51497 0.62080 1.05172
 C445 C 0.42059 0.42619 1.21285
 N446 N 0.40050 0.43666 1.22416
 N447 N 0.39249 0.42765 1.24555
 C448 C 0.40433 0.40791 1.25643
 N449 N 0.42445 0.39751 1.24516
 N450 N 0.43241 0.40645 1.22375
 C451 C 0.42933 0.43574 1.18911
 N452 N 0.44808 0.42374 1.17709
 N453 N 0.45593 0.43206 1.15543
 C454 C 0.44540 0.45275 1.14497
 N455 N 0.42668 0.46485 1.15701
 N456 N 0.41875 0.45645 1.17868
 C457 C 0.45409 0.46151 1.12093
 N458 N 0.44522 0.48319 1.11081
 N459 N 0.45326 0.49083 1.08890
 C460 C 0.47037 0.47699 1.07634
 N461 N 0.47917 0.45535 1.08649
 N462 N 0.47122 0.44779 1.10837
 C463 C 0.57393 -0.06932 0.28090
 N464 N 0.56303 -0.08983 0.27055
 N465 N 0.57087 -0.09853 0.24900
 C466 C 0.58995 -0.08708 0.23702
 N467 N 0.60083 -0.06651 0.24732
 N468 N 0.59294 -0.05776 0.26886
 C469 C 0.56553 -0.06021 0.30493
 N470 N 0.57534 -0.03897 0.31499
 N471 N 0.56788 -0.03108 0.33700
 C472 C 0.55043 -0.04421 0.34975
 N473 N 0.54064 -0.06541 0.33966
 N474 N 0.54802 -0.07324 0.31766
 C475 C 0.54237 -0.03600 0.37420
 N476 N 0.52658 -0.05062 0.38745
 N477 N 0.51926 -0.04352 0.40969
 C478 C 0.52738 -0.02150 0.41953
 N479 N 0.54315 -0.00680 0.40629
 N480 N 0.55056 -0.01396 0.38402
 C481 C -0.08499 1.07395 -0.21506
 N482 N -0.07527 1.09533 -0.22485
 N483 N -0.08309 1.10375 -0.24654
 C484 C -0.10095 1.09114 -0.25925
 N485 N -0.11070 1.06974 -0.24948
 N486 N -0.10284 1.06129 -0.22778
 C487 C -0.07632 1.06490 -0.19106
 N488 N -0.08507 1.04300 -0.18143
 N489 N -0.07712 1.03498 -0.15960
 C490 C -0.06019 1.04860 -0.14661
 N491 N -0.05148 1.07049 -0.15625
 N492 N -0.05938 1.07847 -0.17807
 C493 C -0.05136 1.04000 -0.12251
 N494 N -0.03535 1.05448 -0.10931
 N495 N -0.02723 1.04688 -0.08745
 C496 C -0.03477 1.02448 -0.07796
 N497 N -0.05078 1.00995 -0.09115
 N498 N -0.05895 1.01759 -0.11303
 C499 C 1.08103 0.57358 0.71814
 N500 N 1.10567 0.57368 0.72412
 N501 N 1.11330 0.58313 0.74545
 C502 C 1.09660 0.59304 0.76150
 N503 N 1.07195 0.59305 0.75550
 N504 N 1.06429 0.58341 0.73422
 C505 C 1.07279 0.56316 0.69456
 N506 N 1.04818 0.55898 0.69000
 N507 N 1.04082 0.54958 0.66853
 C508 C 1.05779 0.54420 0.65080
 N509 N 1.08239 0.54842 0.65536
 N510 N 1.08976 0.55763 0.67688
 C511 C 1.04971 0.53450 0.62688
 N512 N 1.06585 0.53394 0.60772
 N513 N 1.05836 0.52590 0.58579
 C514 C 1.03453 0.51790 0.58228
 N515 N 1.01844 0.51824 0.60150
 N516 N 1.02587 0.52647 0.62339
 C517 C 0.78222 0.57598 0.57263
 N518 N 0.77202 0.59774 0.56406
 N519 N 0.75085 0.60669 0.57357
 C520 C 0.73909 0.59417 0.59193
 N521 N 0.74920 0.57233 0.60037
 N522 N 0.77040 0.56343 0.59093
 C523 C 0.80607 0.56655 0.56294
 N524 N 0.81750 0.54646 0.57357
 N525 N 0.83952 0.53830 0.56542
 C526 C 0.85091 0.54986 0.54626
 N527 N 0.83941 0.56986 0.53548
 N528 N 0.81740 0.57809 0.54372
 C529 C 0.87554 0.54113 0.53792
 N530 N 0.88643 0.55099 0.51760
 N531 N 0.90900 0.54317 0.51047
 C532 C 0.92149 0.52531 0.52351
 N533 N 0.91057 0.51549 0.54379
 N534 N 0.88801 0.52321 0.55084
 C535 C 0.72019 0.41976 1.07906
 N536 N 0.73641 0.43612 1.08971
 N537 N 0.75724 0.42772 1.10043
 C538 C 0.76264 0.40268 1.10074
 N539 N 0.74649 0.38637 1.08996
 N540 N 0.72560 0.39474 1.07941
 C541 C 0.69690 0.42882 1.06780
 N542 N 0.67870 0.41227 1.06139
 N543 N 0.65728 0.42042 1.05172
 C544 C 0.65336 0.44542 1.04791
 N545 N 0.67163 0.46198 1.05414
 N546 N 0.69300 0.45384 1.06399
 C547 C 0.62941 0.45435 1.03795
 N548 N 0.62652 0.47866 1.03060
 N549 N 0.60453 0.48682 1.02220
 C550 C 0.58461 0.47101 1.02104
 N551 N 0.58753 0.44671 1.02835
 N552 N 0.60956 0.43851 1.03655
 C553 C 0.21769 1.07925 -0.07309
 N554 N 0.22582 1.10304 -0.06855
 N555 N 0.24721 1.11126 -0.07814
 C556 C 0.26109 1.09607 -0.09283
 N557 N 0.25294 1.07230 -0.09742
 N558 N 0.23168 1.06400 -0.08762
 C559 C 0.19390 1.07034 -0.06290
 N560 N 0.18836 1.04536 -0.06265
 N561 N 0.16656 1.03733 -0.05383
 C562 C 0.14942 1.05400 -0.04518
 N563 N 0.15496 1.07898 -0.04546
 N564 N 0.17686 1.08700 -0.05405
 C565 C 0.12507 1.04521 -0.03627
 N566 N 0.10567 1.06157 -0.03388
 N567 N 0.08332 1.05347 -0.02657
 C568 C 0.07963 1.02877 -0.02113
 N569 N 0.09909 1.01244 -0.02330
 N570 N 0.12138 1.02050 -0.03085
 C571 C 0.27530 -0.07642 0.42756
 N572 N 0.25729 -0.08508 0.44292
 N573 N 0.23528 -0.09268 0.43413
 C574 C 0.23040 -0.09154 0.40974
 N575 N 0.24833 -0.08268 0.39445
 N576 N 0.27044 -0.07543 0.40318
 C577 C 0.29977 -0.06849 0.43696
 N578 N 0.32004 -0.06868 0.42204
 N579 N 0.34233 -0.06147 0.43037
 C580 C 0.34509 -0.05344 0.45381
 N581 N 0.32478 -0.05309 0.46873
 N582 N 0.30254 -0.06067 0.46049
 C583 C 0.36965 -0.04513 0.46266
 N584 N 0.37164 -0.02888 0.48179
 N585 N 0.39400 -0.02077 0.48917
 C586 C 0.41515 -0.02892 0.47791
 N587 N 0.41314 -0.04536 0.45897
 N588 N 0.39079 -0.05318 0.45137
 C589 C 0.58021 -0.21934 0.57883
 N590 N 0.60523 -0.22369 0.57833
 N591 N 0.61462 -0.24525 0.58689
 C592 C 0.59937 -0.26307 0.59657
 N593 N 0.57435 -0.25870 0.59715
 N594 N 0.56492 -0.23728 0.58827
 C595 C 0.57006 -0.19530 0.56998
 N596 N 0.54580 -0.19331 0.56283
 N597 N 0.53666 -0.17131 0.55500
 C598 C 0.55139 -0.15048 0.55442
 N599 N 0.57559 -0.15247 0.56169
 N600 N 0.58480 -0.17451 0.56917
 C601 C 0.54143 -0.12607 0.54633
 N602 N 0.55258 -0.10438 0.55368
 N603 N 0.54387 -0.08212 0.54625
 C604 C 0.52389 -0.08073 0.53096
 N605 N 0.51277 -0.10242 0.52350
 N606 N 0.52127 -0.12472 0.53121
 C607 C 1.07692 0.72040 0.42354
 N608 N 1.06672 0.73058 0.40301
 N609 N 1.07484 0.75260 0.39440
 C610 C 1.09336 0.76532 0.40607
 N611 N 1.10349 0.75521 0.42668
 N612 N 1.09546 0.73311 0.43523
 C613 C 1.06824 0.69589 0.43271
 N614 N 1.08046 0.68406 0.45126
 N615 N 1.07284 0.66160 0.45923
 C616 C 1.05263 0.65020 0.44901
 N617 N 1.04033 0.66209 0.43054
 N618 N 1.04803 0.68449 0.42249
 C619 C 1.04445 0.62528 0.45756
 N620 N 1.02282 0.61499 0.44919
 N621 N 1.01555 0.59227 0.45679
 C622 C 1.02972 0.57896 0.47292
 N623 N 1.05135 0.58924 0.48127
 N624 N 1.05855 0.61201 0.47377
 C625 C -0.07938 1.21901 0.08787
 N626 N -0.10434 1.22257 0.09081
 N627 N -0.11314 1.24429 0.09952
 C628 C -0.09728 1.26314 0.10591
 N629 N -0.07230 1.25957 0.10309
 N630 N -0.06351 1.23794 0.09408
 C631 C -0.06985 1.19492 0.07848
 N632 N -0.04665 1.19321 0.06852
 N633 N -0.03821 1.17126 0.05991
 C634 C -0.05255 1.15019 0.06127
 N635 N -0.07566 1.15190 0.07137
 N636 N -0.08422 1.17388 0.07968
 C637 C -0.04337 1.12587 0.05209
 N638 N -0.05393 1.10407 0.05995
 N639 N -0.04594 1.08192 0.05154
 C640 C -0.02731 1.08074 0.03472
 N641 N -0.01679 1.10254 0.02676
 N642 N -0.02457 1.12472 0.03542
 C643 C 0.42597 0.27898 0.91597
 N644 N 0.41087 0.26493 0.93054
 N645 N 0.40110 0.24340 0.92237
 C646 C 0.40631 0.23504 0.89943
 N647 N 0.42157 0.24899 0.88494
 N648 N 0.43112 0.27064 0.89301
 C649 C 0.43620 0.30302 0.92469
 N650 N 0.44535 0.32017 0.90856
 N651 N 0.45408 0.34227 0.91639
 C652 C 0.45425 0.34789 0.94064
 N653 N 0.44530 0.33066 0.95679
 N654 N 0.43631 0.30867 0.94894
 C655 C 0.46341 0.37243 0.94921
 N656 N 0.46920 0.37605 0.97317
 N657 N 0.47702 0.39848 0.98102
 C658 C 0.47908 0.41817 0.96524
 N659 N 0.47325 0.41456 0.94129
 N660 N 0.46570 0.39205 0.93339
 C661 C 0.58469 0.57457 0.77861
 N662 N 0.59521 0.55855 0.76216
 N663 N 0.60281 0.56695 0.74039
 C664 C 0.59977 0.59157 0.73418
 N665 N 0.58903 0.60751 0.75054
 N666 N 0.58178 0.59920 0.77242
 C667 C 0.57675 0.56558 0.80278
 N668 N 0.57523 0.58183 0.82192
 N669 N 0.56798 0.57379 0.84391
 C670 C 0.56165 0.54929 0.84745
 N671 N 0.56302 0.53304 0.82827
 N672 N 0.57064 0.54101 0.80636
 C673 C 0.55303 0.54070 0.87153
 N674 N 0.53789 0.52028 0.87355
 N675 N 0.52936 0.51305 0.89537
 C676 C 0.53598 0.52574 0.91597
 N677 N 0.55135 0.54598 0.91398
 N678 N 0.55958 0.55344 0.89213
 C679 C 0.41648 0.06976 0.72055
 N680 N 0.43145 0.08421 0.73490
 N681 N 0.42307 0.09341 0.75606
 C682 C 0.39950 0.08826 0.76376
 N683 N 0.38460 0.07360 0.74954
 N684 N 0.39289 0.06462 0.72824
 C685 C 0.42546 0.06048 0.69682
 N686 N 0.40907 0.05238 0.67952
 N687 N 0.41719 0.04483 0.65765
 C688 C 0.44199 0.04487 0.65239
 N689 N 0.45839 0.05274 0.66977
 N690 N 0.45026 0.06054 0.69154
 C691 C 0.45090 0.03713 0.62811
 N692 N 0.47540 0.03156 0.62444
 N693 N 0.48357 0.02498 0.60229
 C694 C 0.46758 0.02403 0.58297
 N695 N 0.44309 0.02966 0.58664
 N696 N 0.43488 0.03597 0.60884
 C697 C 0.08027 0.92171 0.21822
 N698 N 0.07841 0.89689 0.22403
 N699 N 0.08626 0.88848 0.24572
 C700 C 0.09660 0.90453 0.26222
 N701 N 0.09861 0.92933 0.25636
 N702 N 0.09042 0.93781 0.23481
 C703 C 0.07161 0.93090 0.19433
 N704 N 0.06477 0.95538 0.19128
 N705 N 0.05666 0.96359 0.16959
 C706 C 0.05549 0.94770 0.15012
 N707 N 0.06252 0.92329 0.15315
 N708 N 0.07026 0.91499 0.17491
 C709 C 0.04662 0.95665 0.12622
 N710 N 0.05342 0.94447 0.10540
 N711 N 0.04517 0.95237 0.08367
 C712 C 0.02955 0.97250 0.08201
 N713 N 0.02264 0.98462 0.10285
 N714 N 0.03119 0.97694 0.12456
 C715 C 0.92959 0.43526 0.27636
 N716 N 0.94039 0.41498 0.26548
 N717 N 0.93221 0.40670 0.24389
 C718 C 0.91288 0.41836 0.23238
 N719 N 0.90218 0.43878 0.24315
 N720 N 0.91041 0.44712 0.26475
 C721 C 0.93796 0.44342 0.30075
 N722 N 0.92800 0.46415 0.31167
 N723 N 0.93517 0.47088 0.33415
 C724 C 0.95246 0.45702 0.34653
 N725 N 0.96241 0.43637 0.33555
 N726 N 0.95533 0.42971 0.31309
 C727 C 0.96012 0.46378 0.37153
 N728 N 0.97549 0.44821 0.38431
 N729 N 0.98252 0.45397 0.40702
 C730 C 0.97450 0.47555 0.41782
 N731 N 0.95913 0.49122 0.40506
 N732 N 0.95201 0.48540 0.38232
   
