data_POSCAR
  _audit_creation_date              2014-09-24
  _audit_creation_method            'ToBaCCo'
  _symmetry_space_group_name_H-M    'P1'
  _symmetry_Int_Tables_number       1
  _symmetry_cell_setting            triclinic
  loop_
  _symmetry_equiv_pos_as_xyz
 x,y,z
_cell_length_a 31.8529
_cell_length_b 31.9289
_cell_length_c 31.8951
_cell_angle_alpha 82.492000
_cell_angle_beta 97.528900
_cell_angle_gamma 96.223800
loop_
  _atom_site_label
  _atom_site_type_symbol
  _atom_site_fract_x
  _atom_site_fract_y
  _atom_site_fract_z
C1 C 0.59233 0.54177 -0.00174
 C2 C 0.58305 0.58325 0.00004
 C3 C 0.54148 0.59253 0.00181
 C4 C 0.50793 0.55959 0.00185
 C5 C 0.51693 0.51733 0.00001
 C6 C 0.55930 0.50832 -0.00181
 C7 C 0.56743 0.46616 -0.00362
 C8 C 0.53467 0.43354 -0.00368
 C9 C 0.49250 0.44176 -0.00190
 C10 C 0.48350 0.48400 -0.00002
 C11 C 0.46568 0.56773 0.00365
 C12 C 0.43295 0.53508 0.00366
 C13 C 0.44112 0.49295 0.00184
 C14 C 0.40813 0.45943 0.00179
 C15 C 0.41748 0.41800 -0.00010
 C16 C 0.45903 0.40885 -0.00194
 H17 H 0.59930 0.45803 -0.00504
 H18 H 0.54272 0.40172 -0.00513
 H19 H 0.45755 0.59953 0.00510
 H20 H 0.40107 0.54317 0.00511
 H21 H 0.60861 0.60874 0.00004
 H22 H 0.39206 0.39240 -0.00013
 C23 C -0.00186 0.59233 0.45689
 C24 C 0.00014 0.58339 0.41554
 C25 C 0.00199 0.54186 0.40692
 C26 C 0.00186 0.50808 0.44043
 C27 C -0.00015 0.51687 0.48258
 C28 C -0.00201 0.55917 0.49087
 C29 C -0.00397 0.56719 0.53287
 C30 C -0.00409 0.53428 0.56613
 C31 C -0.00227 0.49212 0.55865
 C32 C -0.00029 0.48331 0.51651
 C33 C 0.00365 0.46584 0.43302
 C34 C 0.00349 0.43294 0.46630
 C35 C 0.00155 0.44100 0.50827
 C36 C 0.00137 0.40788 0.54230
 C37 C -0.00056 0.41692 0.58364
 C38 C -0.00236 0.45845 0.59215
 H39 H -0.00543 0.59906 0.54040
 H40 H -0.00563 0.54220 0.59785
 H41 H 0.00521 0.45785 0.40132
 H42 H 0.00493 0.40106 0.45880
 H43 H 0.00024 0.60921 0.38973
 H44 H -0.00065 0.39125 0.60957
 C45 C 0.54227 0.00201 0.59303
 C46 C 0.58392 0.00024 0.58448
 C47 C 0.59298 -0.00172 0.54312
 C48 C 0.55970 -0.00195 0.50906
 C49 C 0.51727 -0.00015 0.51735
 C50 C 0.50845 0.00185 0.55949
 C51 C 0.46609 0.00361 0.56689
 C52 C 0.43312 0.00342 0.53362
 C53 C 0.44118 0.00145 0.49166
 C54 C 0.48360 -0.00036 0.48342
 C55 C 0.56765 -0.00392 0.46698
 C56 C 0.53462 -0.00412 0.43376
 C57 C 0.49238 -0.00237 0.44128
 C58 C 0.45860 -0.00255 0.40779
 C59 C 0.41698 -0.00075 0.41631
 C60 C 0.40795 0.00124 0.45764
 H61 H 0.45808 0.00516 0.59858
 H62 H 0.40115 0.00484 0.54111
 H63 H 0.59958 -0.00533 0.45939
 H64 H 0.54253 -0.00569 0.40203
 H65 H 0.60971 0.00038 0.61044
 H66 H 0.39123 -0.00090 0.39039
 O67 O 0.46933 -0.00148 -0.06482
 O68 O 0.46114 -0.01021 0.05018
 O69 O 0.46133 0.05172 -0.01137
 O70 O 0.46910 -0.06343 -0.00326
 O71 O 0.53910 -0.05256 0.00973
 O72 O 0.53132 0.06259 0.00162
 O73 O 0.53114 0.00066 0.06317
 O74 O 0.53933 0.00938 -0.05182
 Cu75 Cu 0.45816 -0.00693 -0.00862
 Cu76 Cu 0.54228 0.00610 0.00697
 C77 C 0.50576 0.00514 -0.07769
 C78 C 0.49471 -0.00597 0.07605
 C79 C 0.49496 0.07656 -0.00595
 C80 C 0.50546 -0.07740 0.00433
 O81 O -0.05195 0.53921 0.99018
 O82 O 0.06346 0.53135 0.99834
 O83 O 0.00137 0.53115 0.93679
 O84 O 0.01012 0.53936 1.05177
 O85 O -0.00083 0.46954 1.06476
 O86 O -0.00958 0.46132 0.94977
 O87 O 0.05251 0.46153 1.01133
 O88 O -0.06290 0.46939 1.00316
 Cu89 Cu 0.00685 0.54231 0.99298
 Cu90 Cu -0.00629 0.45840 1.00856
 C91 C -0.07688 0.50568 0.99556
 C92 C 0.07744 0.49506 1.00591
 C93 C -0.00530 0.49480 0.92390
 C94 C 0.00583 0.50589 1.07764
 O95 O -0.01131 -0.05056 0.46049
 O96 O -0.00383 0.06384 0.46959
 O97 O 0.04975 0.01036 0.46046
 O98 O -0.06490 0.00291 0.46968
 O99 O -0.05135 -0.01051 0.53968
 O100 O 0.06328 -0.00304 0.53046
 O101 O 0.00971 0.05043 0.53960
 O102 O 0.00223 -0.06397 0.53049
 Cu103 Cu -0.00894 0.00798 0.45798
 Cu104 Cu 0.00732 -0.00812 0.54213
 C105 C -0.00556 -0.07654 0.49391
 C106 C 0.00398 0.07642 0.50617
 C107 C 0.07584 0.00468 0.49387
 C108 C -0.07745 -0.00482 0.50628
 C109 C -0.28429 0.52503 0.99491
 C110 C -0.25565 0.53946 1.03393
 C111 C -0.21369 0.53505 1.03332
 C112 C -0.20441 0.51663 0.99375
 C113 C -0.22350 0.54612 0.95577
 C114 C -0.26549 0.55053 0.95638
 C115 C -0.27493 0.47909 0.99357
 C116 C -0.23291 0.47467 0.99296
 C117 C -0.32938 0.53014 0.99578
 C118 C -0.36620 0.53515 0.99682
 C119 C -0.15909 0.51216 0.99341
 C120 C -0.12164 0.50898 0.99392
 H121 H -0.26730 0.55204 1.05980
 H122 H -0.18942 0.54385 1.05867
 H123 H -0.20563 0.56208 0.93059
 H124 H -0.28359 0.57028 0.93173
 H125 H -0.29915 0.45241 0.99311
 H126 H -0.22113 0.44419 0.99198
 C127 C 0.28477 0.47595 1.00564
 C128 C 0.25634 0.46424 0.96540
 C129 C 0.21441 0.46858 0.96622
 C130 C 0.20493 0.48422 1.00721
 C131 C 0.23374 0.52570 1.01084
 C132 C 0.27574 0.52135 1.01001
 C133 C 0.26545 0.44817 1.04265
 C134 C 0.22348 0.45252 1.04347
 C135 C 0.32984 0.47091 1.00457
 C136 C 0.36665 0.46597 1.00337
 C137 C 0.15962 0.48862 1.00776
 C138 C 0.12218 0.49177 1.00742
 H139 H 0.26813 0.45351 0.93857
 H140 H 0.19028 0.46156 0.94009
 H141 H 0.22218 0.55582 1.01381
 H142 H 0.30017 0.54773 1.01226
 H143 H 0.28318 0.42699 1.06617
 H144 H 0.20527 0.43506 1.06769
 C145 C -0.00559 -0.28248 0.47317
 C146 C -0.04375 -0.26212 0.44708
 C147 C -0.04446 -0.22037 0.45168
 C148 C -0.00695 -0.20310 0.48192
 C149 C 0.03295 -0.21274 0.46405
 C150 C 0.03367 -0.25445 0.45945
 C151 C -0.00769 -0.27443 0.51923
 C152 C -0.00841 -0.23267 0.52384
 C153 C -0.00462 -0.32728 0.46798
 C154 C -0.00349 -0.36395 0.46323
 C155 C -0.00740 -0.15810 0.48665
 C156 C -0.00701 -0.12093 0.49014
 H157 H -0.06807 -0.27902 0.42681
 H158 H -0.06940 -0.20150 0.43535
 H159 H 0.05844 -0.18888 0.45575
 H160 H 0.05976 -0.26633 0.44722
 H161 H -0.00854 -0.29933 0.54586
 H162 H -0.00989 -0.22177 0.55442
 C163 C 0.00472 0.28254 0.52638
 C164 C 0.00608 0.27424 0.48027
 C165 C 0.00664 0.23243 0.47581
 C166 C 0.00578 0.20307 0.51791
 C167 C -0.03374 0.21284 0.53636
 C168 C -0.03430 0.25460 0.54081
 C169 C 0.04315 0.26229 0.55202
 C170 C 0.04371 0.22049 0.54756
 C171 C 0.00391 0.32741 0.53141
 C172 C 0.00290 0.36412 0.53605
 C173 C 0.00606 0.15801 0.51332
 C174 C 0.00555 0.12082 0.50990
 H175 H 0.00659 0.29902 0.45350
 H176 H 0.00763 0.22136 0.44521
 H177 H -0.05909 0.18903 0.54516
 H178 H -0.06011 0.26657 0.55343
 H179 H 0.06778 0.27929 0.57189
 H180 H 0.06881 0.20167 0.56361
 C181 C 0.52566 0.00573 -0.28418
 C182 C 0.54006 -0.03365 -0.25523
 C183 C 0.53555 -0.03296 -0.21347
 C184 C 0.51706 0.00704 -0.20469
 C185 C 0.47505 0.00894 -0.23431
 C186 C 0.47958 0.00825 -0.27613
 C187 C 0.55119 0.04354 -0.26466
 C188 C 0.54667 0.04423 -0.22286
 C189 C 0.53085 0.00476 -0.32904
 C190 C 0.53582 0.00360 -0.36568
 C191 C 0.51248 0.00742 -0.15957
 C192 C 0.50919 0.00689 -0.12228
 H193 H 0.55268 -0.05981 -0.26655
 H194 H 0.54431 -0.05854 -0.18901
 H195 H 0.44447 0.01071 -0.22340
 H196 H 0.45288 0.00940 -0.30107
 H197 H 0.57104 0.06767 -0.28215
 H198 H 0.56264 0.06894 -0.20454
 C199 C 0.47524 -0.00647 0.28262
 C200 C 0.45981 0.03241 0.25354
 C201 C 0.46420 0.03170 0.21175
 C202 C 0.48360 -0.00782 0.20308
 C203 C 0.45487 -0.04556 0.22163
 C204 C 0.45047 -0.04485 0.26346
 C205 C 0.52142 -0.00795 0.27431
 C206 C 0.52582 -0.00866 0.23245
 C207 C 0.47019 -0.00548 0.32751
 C208 C 0.46535 -0.00429 0.36417
 C209 C 0.48807 -0.00823 0.15794
 C210 C 0.49129 -0.00771 0.12064
 H211 H 0.44660 0.05825 0.26479
 H212 H 0.45475 0.05694 0.18721
 H213 H 0.43939 -0.07065 0.20354
 H214 H 0.43122 -0.06933 0.28120
 H215 H 0.54827 -0.00843 0.29909
 H216 H 0.55645 -0.00975 0.22137
 C217 C 0.52473 -0.28435 0.00504
 C218 C 0.47860 -0.27491 0.00576
 C219 C 0.47418 -0.23298 0.00634
 C220 C 0.51634 -0.20465 0.00614
 C221 C 0.53534 -0.21389 -0.03313
 C222 C 0.53975 -0.25576 -0.03370
 C223 C 0.54983 -0.26571 0.04387
 C224 C 0.54542 -0.22381 0.04445
 C225 C 0.52985 -0.32934 0.00422
 C226 C 0.53486 -0.36608 0.00321
 C227 C 0.51188 -0.15942 0.00645
 C228 C 0.50873 -0.12206 0.00595
 H229 H 0.45179 -0.29902 0.00582
 H230 H 0.44359 -0.22117 0.00691
 H231 H 0.54452 -0.18966 -0.05830
 H232 H 0.55269 -0.26738 -0.05937
 H233 H 0.56932 -0.28384 0.06875
 H234 H 0.56112 -0.20605 0.06981
 C235 C 0.47597 0.28346 -0.00588
 C236 C 0.49495 0.27442 -0.04526
 C237 C 0.49927 0.23250 -0.04604
 C238 C 0.48419 0.20378 -0.00736
 C239 C 0.43812 0.21333 -0.00657
 C240 C 0.43381 0.25519 -0.00579
 C241 C 0.50503 0.26410 0.03233
 C242 C 0.50935 0.22222 0.03155
 C243 C 0.47095 0.32843 -0.00483
 C244 C 0.46601 0.36515 -0.00364
 C245 C 0.48856 0.15856 -0.00787
 C246 C 0.49169 0.12121 -0.00749
 H247 H 0.50421 0.29878 -0.07028
 H248 H 0.51223 0.22095 -0.07173
 H249 H 0.41123 0.18932 -0.00664
 H250 H 0.40322 0.26702 -0.00519
 H251 H 0.52088 0.28175 0.05772
 H252 H 0.52889 0.20399 0.05630
 C253 C -0.28385 -0.00510 0.52714
 C254 C -0.25957 -0.03285 0.56323
 C255 C -0.21774 -0.03351 0.55861
 C256 C -0.20429 -0.00635 0.51836
 C257 C -0.21694 0.03813 0.52125
 C258 C -0.25876 0.03879 0.52587
 C259 C -0.27666 -0.02214 0.48607
 C260 C -0.23479 -0.02280 0.48144
 C261 C -0.32876 -0.00420 0.53235
 C262 C -0.36552 -0.00315 0.53712
 C263 C -0.15918 -0.00674 0.51361
 C264 C -0.12193 -0.00631 0.51009
 H265 H -0.27398 -0.05046 0.59003
 H266 H -0.19630 -0.05168 0.58145
 H267 H -0.19499 0.06663 0.51977
 H268 H -0.27263 0.06784 0.52833
 H269 H -0.30219 -0.03274 0.46269
 H270 H -0.22443 -0.03397 0.45411
 C271 C 0.28237 0.00486 0.47358
 C272 C 0.25464 -0.03514 0.46150
 C273 C 0.21279 -0.03446 0.46595
 C274 C 0.20274 0.00616 0.48206
 C275 C 0.21964 0.04258 0.45048
 C276 C 0.26153 0.04189 0.44603
 C277 C 0.27434 0.00878 0.51927
 C278 C 0.23244 0.00947 0.52373
 C279 C 0.32732 0.00392 0.46854
 C280 C 0.36410 0.00283 0.46390
 C281 C 0.15760 0.00658 0.48666
 C282 C 0.12033 0.00617 0.49010
 H283 H 0.26681 -0.06170 0.45043
 H284 H 0.18911 -0.06042 0.45869
 H285 H 0.20043 0.06678 0.43319
 H286 H 0.27820 0.06551 0.42491
 H287 H 0.29934 0.01085 0.54575
 H288 H 0.22153 0.01215 0.55404
 C289 C 0.00599 0.52550 1.28413
 C290 C 0.03933 0.55647 1.26275
 C291 C 0.04014 0.55204 1.22095
 C292 C 0.00753 0.51707 1.20463
 C293 C -0.03548 0.52831 1.21456
 C294 C -0.03629 0.53274 1.25633
 C295 C 0.01604 0.48125 1.27679
 C296 C 0.01685 0.47681 1.23496
 C297 C 0.00490 0.53059 1.32899
 C298 C 0.00366 0.53548 1.36563
 C299 C 0.00803 0.51256 1.15952
 C300 C 0.00755 0.50932 1.12223
 H301 H 0.06048 0.57981 1.27902
 H302 H 0.06198 0.57157 1.20142
 H303 H -0.06293 0.53240 1.19085
 H304 H -0.06442 0.54061 1.26839
 H305 H 0.02200 0.45569 1.30219
 H306 H 0.02351 0.44745 1.22451
 C307 C -0.00607 0.47518 0.71733
 C308 C 0.03399 0.46196 0.74604
 C309 C 0.03334 0.46639 0.78783
 C310 C -0.00731 0.48361 0.79688
 C311 C -0.04389 0.45311 0.77900
 C312 C -0.04324 0.44868 0.73717
 C313 C -0.00987 0.52093 0.72534
 C314 C -0.01052 0.52536 0.76720
 C315 C -0.00515 0.47010 0.67244
 C316 C -0.00403 0.46522 0.63578
 C317 C -0.00765 0.48811 0.84201
 C318 C -0.00709 0.49137 0.87932
 H319 H 0.06057 0.45018 0.73455
 H320 H 0.05936 0.45838 0.81214
 H321 H -0.06818 0.43650 0.79754
 H322 H -0.06697 0.42826 0.71988
 H323 H -0.01188 0.54746 0.70037
 H324 H -0.01311 0.55570 0.77808
   
