data_POSCAR
  _audit_creation_date              2014-09-24
  _audit_creation_method            'ToBaCCo'
  _symmetry_space_group_name_H-M    'P1'
  _symmetry_Int_Tables_number       1
  _symmetry_cell_setting            triclinic
  loop_
  _symmetry_equiv_pos_as_xyz
 x,y,z
_cell_length_a 49.6117
_cell_length_b 49.6169
_cell_length_c 49.5534
_cell_angle_alpha 93.819300
_cell_angle_beta 93.900600
_cell_angle_gamma 93.870300
loop_
  _atom_site_label
  _atom_site_type_symbol
  _atom_site_fract_x
  _atom_site_fract_y
  _atom_site_fract_z
C1 C 0.71765 0.67946 0.96781
 H2 H 0.73728 0.67883 0.95961
 C3 C 0.69783 0.69440 0.95565
 H4 H 0.70226 0.70549 0.93819
 C5 C 0.68721 0.66440 0.99947
 H6 H 0.68277 0.65202 1.01594
 C7 C 0.66688 0.67908 0.98796
 H8 H 0.64702 0.67814 0.99584
 N9 N 0.71198 0.66470 0.98919
 C10 C 0.78803 0.64464 1.02989
 H11 H 0.78284 0.62326 1.03120
 C12 C 0.81338 0.65599 1.04026
 H13 H 0.82776 0.64335 1.04968
 C14 C 0.77587 0.68705 1.01529
 H15 H 0.76123 0.69898 1.00538
 C16 C 0.80115 0.69925 1.02539
 H17 H 0.80598 0.72057 1.02321
 Zn18 Zn 0.73778 0.64106 1.00170
 N19 N 0.77009 0.66006 1.01724
 C20 C 0.77197 0.61993 0.96370
 N21 N 0.74603 0.61890 0.97115
 C22 C 0.72567 0.60434 0.95562
 C23 C 0.73114 0.59003 0.93152
 C24 C 0.77827 0.60595 0.93990
 C25 C 0.71991 0.63439 1.05278
 C26 C 0.70979 0.62106 1.07425
 C27 C 0.70791 0.57884 1.04657
 C28 C 0.71813 0.59305 1.02554
 N29 N 0.72360 0.62038 1.02894
 H30 H 0.78777 0.63216 0.97576
 H31 H 0.70513 0.60435 0.96168
 H32 H 0.71485 0.57870 0.91910
 H33 H 0.79895 0.60716 0.93406
 H34 H 0.72476 0.65605 1.05500
 H35 H 0.70675 0.63261 1.09303
 H36 H 0.70339 0.55712 1.04361
 H37 H 0.72166 0.58225 1.00659
 C38 C 0.82016 0.68343 1.03768
 C39 C 0.67211 0.69392 0.96565
 C40 C 0.70362 0.59304 1.07115
 C41 C 0.75770 0.59105 0.92356
 C42 C 0.73175 0.35540 0.50692
 H43 H 0.75170 0.35704 0.51743
 C44 C 0.71095 0.33896 0.51631
 H45 H 0.71488 0.32780 0.53406
 C46 C 0.70188 0.36888 0.47169
 H47 H 0.69823 0.38109 0.45476
 C48 C 0.68050 0.35269 0.48043
 H49 H 0.66052 0.35231 0.47007
 N50 N 0.72691 0.36993 0.48499
 C51 C 0.80596 0.38919 0.45494
 H52 H 0.80559 0.41095 0.45469
 C53 C 0.82820 0.37631 0.44601
 H54 H 0.84508 0.38815 0.43884
 C55 C 0.78426 0.34708 0.46423
 H56 H 0.76695 0.33573 0.47100
 C57 C 0.80613 0.33338 0.45545
 H58 H 0.80569 0.31153 0.45563
 Zn59 Zn 0.75547 0.39388 0.47552
 N60 N 0.78472 0.37454 0.46410
 C61 C 0.79239 0.41709 0.51828
 N62 N 0.76657 0.41678 0.50699
 C63 C 0.74743 0.43042 0.51950
 C64 C 0.75389 0.44476 0.54462
 C65 C 0.79969 0.43122 0.54328
 C66 C 0.73705 0.39960 0.42213
 C67 C 0.72770 0.41269 0.39963
 C68 C 0.73268 0.45507 0.42717
 C69 C 0.74197 0.44116 0.44921
 N70 N 0.74356 0.41384 0.44638
 H71 H 0.80713 0.40556 0.50850
 H72 H 0.72691 0.42934 0.51037
 H73 H 0.73837 0.45489 0.55483
 H74 H 0.82009 0.43070 0.55247
 H75 H 0.73882 0.37795 0.42041
 H76 H 0.72210 0.40111 0.38053
 H77 H 0.73101 0.47673 0.42962
 H78 H 0.74769 0.45214 0.46852
 C79 C 0.82831 0.34817 0.44634
 C80 C 0.68507 0.33774 0.50304
 C81 C 0.72533 0.44064 0.40223
 C82 C 0.78020 0.44487 0.55674
 C83 C 0.23127 -0.14425 0.00653
 H84 H 0.25125 -0.14264 0.01699
 C85 C 0.21048 -0.16067 0.01596
 H86 H 0.21443 -0.17184 0.03369
 C87 C 0.20135 -0.13072 -0.02863
 H88 H 0.19768 -0.11851 -0.04556
 C89 C 0.17997 -0.14689 -0.01985
 H90 H 0.15998 -0.14724 -0.03017
 N91 N 0.22640 -0.12971 -0.01539
 C92 C 0.30533 -0.11059 -0.04577
 H93 H 0.30496 -0.08883 -0.04605
 C94 C 0.32754 -0.12350 -0.05475
 H95 H 0.34439 -0.11169 -0.06199
 C96 C 0.28367 -0.15267 -0.03630
 H97 H 0.26638 -0.16399 -0.02945
 C98 C 0.30550 -0.16640 -0.04514
 H99 H 0.30506 -0.18824 -0.04490
 Zn100 Zn 0.25496 -0.10581 -0.02496
 N101 N 0.28413 -0.12521 -0.03649
 C102 C 0.29208 -0.08265 0.01764
 N103 N 0.26622 -0.08292 0.00647
 C104 C 0.24718 -0.06924 0.01908
 C105 C 0.25378 -0.05489 0.04419
 C106 C 0.29953 -0.06853 0.04261
 C107 C 0.23640 -0.10011 -0.07830
 C108 C 0.22696 -0.08705 -0.10079
 C109 C 0.23199 -0.04464 -0.07324
 C110 C 0.24137 -0.05854 -0.05124
 N111 N 0.24297 -0.08585 -0.05408
 H112 H 0.30675 -0.09422 0.00778
 H113 H 0.22662 -0.07027 0.01006
 H114 H 0.23833 -0.04473 0.05448
 H115 H 0.31996 -0.06909 0.05169
 H116 H 0.23820 -0.12175 -0.08001
 H117 H 0.22134 -0.09877 -0.11983
 H118 H 0.23034 -0.02295 -0.07066
 H119 H 0.24715 -0.04756 -0.03194
 C120 C 0.32765 -0.15164 -0.05435
 C121 C 0.18457 -0.16186 0.00274
 C122 C 0.22454 -0.05908 -0.09821
 C123 C 0.28014 -0.05484 0.05618
 C124 C 0.21840 0.17928 0.46724
 H125 H 0.23805 0.17875 0.45907
 C126 C 0.19856 0.19422 0.45513
 H127 H 0.20299 0.20542 0.43773
 C128 C 0.18792 0.16398 0.49876
 H129 H 0.18349 0.15150 0.51516
 C130 C 0.16757 0.17865 0.48730
 H131 H 0.14770 0.17762 0.49513
 N132 N 0.21272 0.16440 0.48853
 C133 C 0.28876 0.14432 0.52925
 H134 H 0.28360 0.12292 0.53044
 C135 C 0.31407 0.15567 0.53974
 H136 H 0.32844 0.14301 0.54913
 C137 C 0.27656 0.18679 0.51484
 H138 H 0.26192 0.19874 0.50497
 C139 C 0.30180 0.19900 0.52507
 H140 H 0.30660 0.22035 0.52302
 Zn141 Zn 0.23856 0.14077 0.50099
 N142 N 0.27082 0.15977 0.51665
 C143 C 0.27285 0.11987 0.46297
 N144 N 0.24690 0.11873 0.47039
 C145 C 0.22661 0.10414 0.45482
 C146 C 0.23214 0.08990 0.43070
 C147 C 0.27923 0.10596 0.43916
 C148 C 0.22063 0.13389 0.55201
 C149 C 0.21054 0.12044 0.57343
 C150 C 0.20883 0.07833 0.54567
 C151 C 0.21901 0.09261 0.52467
 N152 N 0.22439 0.11995 0.52814
 H153 H 0.28861 0.13212 0.47506
 H154 H 0.20605 0.10406 0.46085
 H155 H 0.21590 0.07853 0.41825
 H156 H 0.29992 0.10725 0.43334
 H157 H 0.22539 0.15556 0.55429
 H158 H 0.20741 0.13180 0.59226
 H159 H 0.20436 0.05661 0.54278
 H160 H 0.22259 0.08187 0.50571
 C161 C 0.32081 0.18316 0.53733
 C162 C 0.17281 0.19362 0.46507
 C163 C 0.20451 0.09244 0.57024
 C164 C 0.25872 0.09102 0.42278
 C165 C 0.18008 0.46692 0.21801
 H166 H 0.17950 0.45885 0.23773
 C167 C 0.19499 0.45470 0.19823
 H168 H 0.20613 0.43731 0.20278
 C169 C 0.16488 0.49829 0.18729
 H170 H 0.15244 0.51466 0.18273
 C171 C 0.17953 0.48671 0.16699
 H172 H 0.17852 0.49444 0.14704
 N173 N 0.16525 0.48818 0.21218
 C174 C 0.14494 0.52899 0.28806
 H175 H 0.12354 0.53013 0.28281
 C176 C 0.15622 0.53956 0.31339
 H177 H 0.14351 0.54896 0.32769
 C178 C 0.18749 0.51465 0.27607
 H179 H 0.19949 0.50478 0.26149
 C180 C 0.19962 0.52497 0.30133
 H181 H 0.22097 0.52297 0.30622
 Zn182 Zn 0.14156 0.50068 0.23791
 N183 N 0.16047 0.51639 0.27021
 C184 C 0.12050 0.46276 0.27227
 N185 N 0.11947 0.47014 0.24627
 C186 C 0.10494 0.45457 0.22593
 C187 C 0.09065 0.43049 0.23147
 C188 C 0.10656 0.43898 0.27865
 C189 C 0.13473 0.55156 0.21970
 C190 C 0.12128 0.57294 0.20957
 C191 C 0.07914 0.54524 0.20799
 C192 C 0.09343 0.52428 0.21821
 N193 N 0.12078 0.52774 0.22355
 H194 H 0.13271 0.47486 0.28807
 H195 H 0.10493 0.46057 0.20534
 H196 H 0.07934 0.41803 0.21519
 H197 H 0.10776 0.43319 0.29938
 H198 H 0.15641 0.55386 0.22445
 H199 H 0.13264 0.59175 0.20638
 H200 H 0.05741 0.54235 0.20358
 H201 H 0.08268 0.50535 0.22188
 C202 C 0.18370 0.53723 0.32024
 C203 C 0.19442 0.46450 0.17239
 C204 C 0.09326 0.56976 0.20359
 C205 C 0.09167 0.42260 0.25809
 C206 C -0.14543 0.00743 0.23104
 H207 H -0.14387 0.01782 0.25105
 C208 C -0.16173 0.01693 0.21018
 H209 H -0.17286 0.03466 0.21417
 C210 C -0.13184 -0.02762 0.20112
 H211 H -0.11963 -0.04453 0.19749
 C212 C -0.14789 -0.01878 0.17965
 H213 H -0.14812 -0.02909 0.15964
 N214 N -0.13090 -0.01447 0.22621
 C215 C -0.11177 -0.04481 0.30527
 H216 H -0.09001 -0.04508 0.30487
 C217 C -0.12464 -0.05381 0.32752
 H218 H -0.11280 -0.06106 0.34437
 C219 C -0.15389 -0.03536 0.28363
 H220 H -0.16523 -0.02850 0.26633
 C221 C -0.16758 -0.04422 0.30551
 H222 H -0.18942 -0.04399 0.30509
 Zn223 Zn -0.10703 -0.02403 0.25484
 N224 N -0.12643 -0.03554 0.28405
 C225 C -0.08381 0.01851 0.29194
 N226 N -0.08409 0.00735 0.26607
 C227 C -0.07036 0.01989 0.24700
 C228 C -0.05592 0.04492 0.25358
 C229 C -0.06959 0.04342 0.29937
 C230 C -0.10134 -0.07731 0.23631
 C231 C -0.08823 -0.09976 0.22702
 C232 C -0.04582 -0.07228 0.23224
 C233 C -0.05974 -0.05029 0.24147
 N234 N -0.08707 -0.05311 0.24292
 H235 H -0.09541 0.00870 0.30664
 H236 H -0.07141 0.01087 0.22643
 H237 H -0.04570 0.05517 0.23811
 H238 H -0.07012 0.05250 0.31981
 H239 H -0.12301 -0.07901 0.23799
 H240 H -0.09983 -0.11882 0.22134
 H241 H -0.02413 -0.06984 0.23068
 H242 H -0.04874 -0.03101 0.24728
 C243 C -0.15278 -0.05343 0.32766
 C244 C -0.16283 0.00382 0.18419
 C245 C -0.06026 -0.09718 0.22480
 C246 C -0.05583 0.05691 0.27995
 C247 C 0.35500 0.50716 0.73173
 H248 H 0.35659 0.51753 0.75174
 C249 C 0.33862 0.51665 0.71091
 H250 H 0.32744 0.53434 0.71489
 C251 C 0.36858 0.47218 0.70171
 H252 H 0.38080 0.45530 0.69801
 C253 C 0.35244 0.48103 0.68031
 H254 H 0.35213 0.47080 0.66027
 N255 N 0.36955 0.48530 0.72682
 C256 C 0.38867 0.45487 0.80583
 H257 H 0.41045 0.45469 0.80551
 C258 C 0.37575 0.44572 0.82799
 H259 H 0.38757 0.43847 0.84486
 C260 C 0.34657 0.46416 0.78406
 H261 H 0.33524 0.47099 0.76674
 C262 C 0.33283 0.45515 0.80584
 H263 H 0.31097 0.45525 0.80534
 Zn264 Zn 0.39345 0.47571 0.75541
 N265 N 0.37404 0.46411 0.78459
 C266 C 0.41662 0.51826 0.79255
 N267 N 0.41635 0.50710 0.76668
 C268 C 0.43006 0.51967 0.74760
 C269 C 0.44443 0.54473 0.75418
 C270 C 0.43078 0.54320 0.79997
 C271 C 0.39917 0.42248 0.73678
 C272 C 0.41228 0.40005 0.72744
 C273 C 0.45469 0.42754 0.73270
 C274 C 0.44076 0.44951 0.74198
 N275 N 0.41342 0.44668 0.74344
 H276 H 0.40505 0.50842 0.80725
 H277 H 0.42901 0.51065 0.72704
 H278 H 0.45462 0.55500 0.73870
 H279 H 0.43024 0.55228 0.82041
 H280 H 0.37750 0.42076 0.73846
 H281 H 0.40069 0.38099 0.72173
 H282 H 0.47637 0.43000 0.73114
 H283 H 0.45175 0.46879 0.74783
 C284 C 0.34759 0.44594 0.82802
 C285 C 0.33748 0.50356 0.68494
 C286 C 0.44025 0.40265 0.72522
 C287 C 0.44450 0.55672 0.78054
 C288 C 0.68081 0.96748 0.71905
 H289 H 0.68029 0.95928 0.73871
 C290 C 0.69566 0.95536 0.69914
 H291 H 0.70680 0.93794 0.70355
 C292 C 0.66553 0.99904 0.68858
 H293 H 0.65307 1.01543 0.68416
 C294 C 0.68011 0.98757 0.66816
 H295 H 0.67904 0.99542 0.64826
 N296 N 0.66597 0.98877 0.71340
 C297 C 0.64571 1.02916 0.78952
 H298 H 0.62430 1.03030 0.78430
 C299 C 0.65699 1.03964 0.81488
 H300 H 0.64422 1.04896 0.82919
 C301 C 0.68825 1.01493 0.77741
 H302 H 0.70024 1.00515 0.76276
 C303 C 0.70041 1.02514 0.80270
 H304 H 0.72179 1.02314 0.80748
 Zn305 Zn 0.64230 1.00111 0.73924
 N306 N 0.66123 1.01666 0.77160
 C307 C 0.62126 0.96297 0.77340
 N308 N 0.62024 0.97049 0.74745
 C309 C 0.60570 0.95501 0.72704
 C310 C 0.59139 0.93091 0.73246
 C311 C 0.60728 0.93917 0.77967
 C312 C 0.63538 1.05210 0.72132
 C313 C 0.62191 1.07347 0.71119
 C314 C 0.57983 1.04564 0.70937
 C315 C 0.59414 1.02469 0.71960
 N316 N 0.62148 1.02822 0.72504
 H317 H 0.63347 0.97500 0.78925
 H318 H 0.60571 0.96112 0.70649
 H319 H 0.58006 0.91854 0.71613
 H320 H 0.60846 0.93328 0.80036
 H321 H 0.65705 1.05444 0.72614
 H322 H 0.63324 1.09231 0.70807
 H323 H 0.55812 1.04269 0.70484
 H324 H 0.58342 1.00572 0.72316
 C325 C 0.68451 1.03732 0.82171
 C326 C 0.69501 0.96532 0.67337
 C327 C 0.59392 1.07021 0.70507
 C328 C 0.59238 0.92289 0.75904
 C329 C 0.00651 0.23106 -0.14456
 H330 H 0.01691 0.25105 -0.14291
 C331 C 0.01601 0.21032 -0.16098
 H332 H 0.03373 0.21433 -0.17211
 C333 C -0.02854 0.20103 -0.13110
 H334 H -0.04545 0.19730 -0.11891
 C335 C -0.01969 0.17971 -0.14727
 H336 H -0.02994 0.15969 -0.14764
 N337 N -0.01539 0.22611 -0.13005
 C338 C -0.04573 0.30497 -0.11065
 H339 H -0.04598 0.30451 -0.08887
 C340 C -0.05476 0.32723 -0.12349
 H341 H -0.06199 0.34402 -0.11161
 C342 C -0.03635 0.28348 -0.15286
 H343 H -0.02952 0.26624 -0.16425
 C344 C -0.04523 0.30537 -0.16652
 H345 H -0.04504 0.30501 -0.18839
 Zn346 Zn -0.02496 0.25457 -0.10604
 N347 N -0.03649 0.28383 -0.12537
 C348 C 0.01764 0.29157 -0.08271
 N349 N 0.00645 0.26572 -0.08307
 C350 C 0.01904 0.24659 -0.06944
 C351 C 0.04413 0.25309 -0.05507
 C352 C 0.04261 0.29891 -0.06856
 C353 C -0.07823 0.23594 -0.10042
 C354 C -0.10068 0.22649 -0.08737
 C355 C -0.07315 0.23145 -0.04487
 C356 C -0.05119 0.24085 -0.05877
 N357 N -0.05402 0.24250 -0.08611
 H358 H 0.00779 0.30630 -0.09423
 H359 H 0.00999 0.22605 -0.07056
 H360 H 0.05441 0.23757 -0.04496
 H361 H 0.05171 0.31933 -0.06905
 H362 H -0.07994 0.23778 -0.12209
 H363 H -0.11971 0.22090 -0.09913
 H364 H -0.07057 0.22978 -0.02316
 H365 H -0.03190 0.24662 -0.04775
 C366 C -0.05442 0.32745 -0.15166
 C367 C 0.00289 0.18438 -0.16219
 C368 C -0.09810 0.22403 -0.05936
 C369 C 0.05615 0.27943 -0.05493
 C370 C 0.46799 0.21811 0.17974
 H371 H 0.45978 0.23773 0.17913
 C372 C 0.45589 0.19827 0.19469
 H373 H 0.43847 0.20268 0.20582
 C374 C 0.49956 0.18768 0.16458
 H375 H 0.51596 0.18326 0.15213
 C376 C 0.48811 0.16733 0.17927
 H377 H 0.49597 0.14746 0.17828
 N378 N 0.48929 0.21245 0.16491
 C379 C 0.52965 0.28849 0.14443
 H380 H 0.53082 0.28324 0.12302
 C381 C 0.54005 0.31386 0.15567
 H382 H 0.54936 0.32819 0.14291
 C383 C 0.51537 0.27645 0.18704
 H384 H 0.50558 0.26184 0.19908
 C385 C 0.52551 0.30175 0.19913
 H386 H 0.52347 0.30664 0.22049
 Zn387 Zn 0.50161 0.23823 0.14113
 N388 N 0.51715 0.27059 0.16001
 C389 C 0.46343 0.27227 0.12000
 N390 N 0.47096 0.24637 0.11902
 C391 C 0.45545 0.22595 0.10455
 C392 C 0.43128 0.23132 0.09029
 C393 C 0.43956 0.27848 0.10607
 C394 C 0.55263 0.22040 0.13429
 C395 C 0.57403 0.21035 0.12083
 C396 C 0.54620 0.20849 0.07868
 C397 C 0.52522 0.21863 0.09297
 N398 N 0.52874 0.22407 0.12034
 H399 H 0.47548 0.28813 0.13216
 H400 H 0.46157 0.20544 0.10460
 H401 H 0.41887 0.21498 0.07903
 H402 H 0.43366 0.29914 0.10724
 H403 H 0.55495 0.22522 0.15597
 H404 H 0.59288 0.20730 0.13220
 H405 H 0.54328 0.20398 0.05694
 H406 H 0.50624 0.22214 0.08222
 C407 C 0.53766 0.32071 0.18316
 C408 C 0.46586 0.17254 0.19415
 C409 C 0.57080 0.20426 0.09281
 C410 C 0.42324 0.25785 0.09126
 C411 C 0.96666 0.71796 0.68043
 H412 H 0.95854 0.73763 0.67993
 C413 C 0.95456 0.69811 0.69537
 H414 H 0.93721 0.70256 0.70660
 C415 C 0.99805 0.68744 0.66503
 H416 H 1.01439 0.68299 0.65251
 C417 C 0.98660 0.66708 0.67970
 H418 H 0.99438 0.64719 0.67863
 N419 N 0.98788 0.71226 0.66549
 C420 C 1.02849 0.78828 0.64532
 H421 H 1.02958 0.78314 0.62388
 C422 C 1.03906 0.81355 0.65667
 H423 H 1.04840 0.82792 0.64397
 C424 C 1.01430 0.77606 0.68790
 H425 H 1.00449 0.76142 0.69989
 C426 C 1.02460 0.80127 0.70010
 H427 H 1.02267 0.80604 0.72150
 Zn428 Zn 1.00028 0.73811 0.64183
 N429 N 1.01597 0.77034 0.66083
 C430 C 0.96225 0.77242 0.62090
 N431 N 0.96968 0.74648 0.61977
 C432 C 0.95414 0.72619 0.60513
 C433 C 0.93006 0.73174 0.59082
 C434 C 0.93847 0.77880 0.60693
 C435 C 1.05120 0.72011 0.63488
 C436 C 1.07258 0.71008 0.62137
 C437 C 1.04480 0.70857 0.57922
 C438 C 1.02384 0.71869 0.59356
 N439 N 1.02734 0.72394 0.62095
 H440 H 0.97432 0.78816 0.63319
 H441 H 0.96019 0.70564 0.60505
 H442 H 0.91764 0.71551 0.57941
 H443 H 0.93265 0.79949 0.60820
 H444 H 1.05352 0.72479 0.65659
 H445 H 1.09141 0.70690 0.63272
 H446 H 1.04188 0.70421 0.55746
 H447 H 1.00489 0.72233 0.58283
 C448 C 1.03680 0.82027 0.68421
 C449 C 0.96444 0.67234 0.69471
 C450 C 1.06936 0.70418 0.59332
 C451 C 0.92213 0.75831 0.59192
 C452 C 0.50672 0.73209 0.35384
 H453 H 0.51716 0.75205 0.35543
 C454 C 0.51613 0.71128 0.33745
 H455 H 0.53384 0.71521 0.32628
 C456 C 0.47162 0.70219 0.36742
 H457 H 0.45473 0.69853 0.37966
 C458 C 0.48039 0.68080 0.35128
 H459 H 0.47010 0.66081 0.35098
 N460 N 0.48483 0.72724 0.36840
 C461 C 0.45469 0.80621 0.38770
 H462 H 0.45446 0.80577 0.40948
 C463 C 0.44569 0.82847 0.37485
 H464 H 0.43850 0.84526 0.38680
 C465 C 0.46400 0.78465 0.34550
 H466 H 0.47079 0.76739 0.33412
 C467 C 0.45514 0.80653 0.33181
 H468 H 0.45534 0.80609 0.30992
 Zn469 Zn 0.47536 0.75578 0.39236
 N470 N 0.46388 0.78503 0.37299
 C471 C 0.51800 0.79273 0.41567
 N472 N 0.50678 0.76690 0.41532
 C473 C 0.51928 0.74778 0.42904
 C474 C 0.54430 0.75429 0.44354
 C475 C 0.54291 0.80008 0.42994
 C476 C 0.42205 0.73728 0.39809
 C477 C 0.39961 0.72796 0.41122
 C478 C 0.42715 0.73308 0.45366
 C479 C 0.44913 0.74233 0.43971
 N480 N 0.44628 0.74385 0.41235
 H481 H 0.50822 0.80746 0.40408
 H482 H 0.51020 0.72726 0.42794
 H483 H 0.55450 0.73879 0.45376
 H484 H 0.55203 0.82050 0.42947
 H485 H 0.42031 0.73900 0.37640
 H486 H 0.38052 0.72232 0.39963
 H487 H 0.42963 0.73147 0.47537
 H488 H 0.46843 0.74811 0.45070
 C489 C 0.44599 0.82867 0.34665
 C490 C 0.50295 0.68537 0.33632
 C491 C 0.40223 0.72568 0.43922
 C492 C 0.55634 0.78062 0.44371
 C493 C 0.37221 -0.02524 0.27089
 C494 C 0.35633 -0.03212 0.24345
 C495 C 0.34273 -0.01118 0.23427
 C496 C 0.34607 0.01475 0.25340
 C497 C 0.39071 0.00003 0.26686
 C498 C 0.37693 0.02094 0.25769
 C499 C 0.35139 -0.01541 0.28996
 C500 C 0.33776 0.00550 0.28088
 H501 H 0.35719 -0.05122 0.23155
 H502 H 0.33479 0.03173 0.24598
 H503 H 0.41265 0.00093 0.26990
 H504 H 0.34900 -0.02304 0.30979
 C505 C 0.09256 1.04589 0.75544
 C506 C 0.10679 1.05394 0.73045
 C507 C 0.12338 1.03518 0.72113
 C508 C 0.12437 1.01004 0.73766
 C509 C 0.07780 1.01807 0.74715
 C510 C 0.09457 0.99933 0.73789
 C511 C 0.11535 1.04024 0.77629
 C512 C 0.13192 1.02140 0.76703
 H513 H 0.10372 1.07261 0.72074
 H514 H 0.13801 0.99486 0.73000
 H515 H 0.05638 1.01336 0.74933
 H516 H 0.11658 1.04829 0.79732
 C517 C 0.59230 0.54670 0.25385
 C518 C 0.60650 0.55483 0.22887
 C519 C 0.62314 0.53613 0.21952
 C520 C 0.62419 0.51096 0.23600
 C521 C 0.57760 0.51886 0.24552
 C522 C 0.59441 0.50018 0.23623
 C523 C 0.61512 0.54107 0.27468
 C524 C 0.63172 0.52228 0.26539
 H525 H 0.60342 0.57353 0.21922
 H526 H 0.63786 0.49582 0.22831
 H527 H 0.55620 0.51408 0.24774
 H528 H 0.61633 0.54908 0.29573
 C529 C 0.87109 0.47463 0.77184
 C530 C 0.85528 0.46769 0.74437
 C531 C 0.84166 0.48860 0.73513
 C532 C 0.84489 0.51454 0.75424
 C533 C 0.88955 0.49994 0.76783
 C534 C 0.87574 0.52080 0.75859
 C535 C 0.85021 0.48443 0.79085
 C536 C 0.83654 0.50530 0.78171
 H537 H 0.85624 0.44861 0.73248
 H538 H 0.83359 0.53149 0.74677
 H539 H 0.91149 0.50088 0.77089
 H540 H 0.84781 0.47683 0.81069
 C541 C 0.27092 0.37054 -0.02528
 C542 C 0.24350 0.35473 -0.03221
 C543 C 0.23432 0.34109 -0.01126
 C544 C 0.25346 0.34432 0.01471
 C545 C 0.26695 0.38898 0.00006
 C546 C 0.25779 0.37516 0.02096
 C547 C 0.28996 0.34967 -0.01547
 C548 C 0.28089 0.33599 0.00544
 H549 H 0.23158 0.35569 -0.05131
 H550 H 0.24605 0.33301 0.03169
 H551 H 0.27000 0.41092 0.00099
 H552 H 0.30977 0.34731 -0.02307
 C553 C 0.75580 0.09251 1.04611
 C554 C 0.73087 0.10679 1.05418
 C555 C 0.72153 0.12336 1.03537
 C556 C 0.73796 0.12427 1.01016
 C557 C 0.74742 0.07771 1.01830
 C558 C 0.73814 0.09446 0.99950
 C559 C 0.77662 0.11525 1.04037
 C560 C 0.76733 0.13179 1.02147
 H561 H 0.72122 0.10376 1.07290
 H562 H 0.73028 0.13790 0.99493
 H563 H 0.74956 0.05629 1.01363
 H564 H 0.79765 0.11646 1.04839
 C565 C 0.25463 0.59303 0.54623
 C566 C 0.22963 0.60716 0.55434
 C567 C 0.22018 0.62371 0.53556
 C568 C 0.23659 0.62475 0.51034
 C569 C 0.24630 0.57824 0.51840
 C570 C 0.23691 0.59497 0.49964
 C571 C 0.27534 0.61588 0.54050
 C572 C 0.26594 0.63240 0.52163
 H573 H 0.22003 0.60407 0.57307
 H574 H 0.22881 0.63836 0.49513
 H575 H 0.24859 0.55685 0.51369
 H576 H 0.29638 0.61716 0.54849
 C577 C 0.77084 0.87204 0.47495
 C578 C 0.74340 0.85628 0.46794
 C579 C 0.73414 0.84262 0.48883
 C580 C 0.75321 0.84579 0.51485
 C581 C 0.76684 0.89045 0.50030
 C582 C 0.75759 0.87662 0.52115
 C583 C 0.78980 0.85111 0.48477
 C584 C 0.78064 0.83742 0.50564
 H585 H 0.73156 0.85724 0.44879
 H586 H 0.74572 0.83447 0.53179
 H587 H 0.77000 0.91239 0.50129
 H588 H 0.80963 0.84871 0.47722
 C589 C -0.02482 0.27125 0.37198
 C590 C -0.03191 0.24387 0.35613
 C591 C -0.01108 0.23459 0.34245
 C592 C 0.01495 0.25357 0.34569
 C593 C 0.00048 0.26711 0.39043
 C594 C 0.02128 0.25783 0.37656
 C595 C -0.01497 0.29025 0.35109
 C596 C 0.00583 0.28107 0.33737
 H597 H -0.05106 0.23208 0.35707
 H598 H 0.03185 0.24607 0.33434
 H599 H 0.00147 0.27014 0.41240
 H600 H -0.02249 0.31010 0.34870
 C601 C 1.04609 0.75503 0.09199
 C602 C 1.05427 0.73006 0.10616
 C603 C 1.03559 0.72063 0.12281
 C604 C 1.01040 0.73703 0.12390
 C605 C 1.01824 0.74669 0.07727
 C606 C 0.99959 0.73732 0.09410
 C607 C 1.04045 0.77576 0.11486
 C608 C 1.02169 0.76639 0.13148
 H609 H 1.07296 0.72044 0.10302
 H610 H 0.99528 0.72928 0.13759
 H611 H 1.01345 0.74893 0.05585
 H612 H 1.04842 0.79679 0.11609
 C613 C 0.54657 0.25476 0.59235
 C614 C 0.55474 0.22983 0.60662
 C615 C 0.53605 0.22046 0.62327
 C616 C 0.51084 0.23684 0.62426
 C617 C 0.51874 0.24636 0.57761
 C618 C 0.50007 0.23704 0.59444
 C619 C 0.54089 0.27555 0.61515
 C620 C 0.52211 0.26622 0.63177
 H621 H 0.57346 0.22024 0.60356
 H622 H 0.49571 0.22913 0.63795
 H623 H 0.51398 0.24854 0.55618
 H624 H 0.54887 0.29657 0.61634
 C625 C 0.47472 0.77140 0.87173
 C626 C 0.46772 0.74401 0.85588
 C627 C 0.48864 0.73472 0.84233
 C628 C 0.51466 0.75372 0.84568
 C629 C 0.49994 0.76728 0.89031
 C630 C 0.52082 0.75800 0.87658
 C631 C 0.48470 0.79039 0.85087
 C632 C 0.50559 0.78120 0.83729
 H633 H 0.44857 0.73220 0.85676
 H634 H 0.53162 0.74621 0.83444
 H635 H 0.50081 0.77033 0.91228
 H636 H 0.47723 0.81025 0.84846
 C637 C 0.43697 -0.14987 0.33383
 C638 C 0.42865 -0.13076 0.32293
 C639 C 0.41836 -0.10832 0.31074
 C640 C 0.40900 -0.08916 0.30084
 C641 C 0.39724 -0.06683 0.28986
 C642 C 0.38643 -0.04792 0.28100
 C643 C 0.93604 0.35012 0.83482
 C644 C 0.92769 0.36923 0.82396
 C645 C 0.91736 0.39167 0.81180
 C646 C 0.90797 0.41081 0.80190
 C647 C 0.89618 0.43312 0.79089
 C648 C 0.88534 0.45199 0.78200
 C649 C 0.01368 1.16232 0.82272
 C650 C 0.02349 1.14390 0.81072
 C651 C 0.03592 1.12251 0.79745
 C652 C 0.04739 1.10447 0.78678
 C653 C 0.06187 1.08371 0.77510
 C654 C 0.07517 1.06637 0.76582
 C655 C 0.51365 0.66324 0.32123
 C656 C 0.52339 0.64478 0.30924
 C657 C 0.53574 0.62333 0.29596
 C658 C 0.54716 0.60526 0.28528
 C659 C 0.56160 0.58447 0.27357
 C660 C 0.57489 0.56714 0.26427
 C661 C 0.54668 0.34761 0.19428
 C662 C 0.55405 0.37057 0.20234
 C663 C 0.56253 0.39778 0.21061
 C664 C 0.56971 0.42118 0.21694
 C665 C 0.57814 0.44868 0.22379
 C666 C 0.58544 0.47217 0.22943
 C667 C 0.04601 0.84707 0.69545
 C668 C 0.05353 0.86996 0.70361
 C669 C 0.06219 0.89711 0.71199
 C670 C 0.06952 0.92045 0.71840
 C671 C 0.07810 0.94790 0.72533
 C672 C 0.08550 0.97135 0.73104
 C673 C 0.95077 0.65067 0.70759
 C674 C 0.93923 0.63189 0.71733
 C675 C 0.92569 0.60928 0.72767
 C676 C 0.91415 0.58953 0.73572
 C677 C 0.90068 0.56597 0.74433
 C678 C 0.88928 0.54554 0.75110
 C679 C 0.45217 0.15086 0.20699
 C680 C 0.44061 0.13206 0.21669
 C681 C 0.42702 0.10944 0.22697
 C682 C 0.41544 0.08968 0.23496
 C683 C 0.40194 0.06611 0.24352
 C684 C 0.39049 0.04568 0.25024
 C685 C 0.33399 0.43622 -0.14943
 C686 C 0.32307 0.42771 -0.13041
 C687 C 0.31085 0.41721 -0.10809
 C688 C 0.30092 0.40767 -0.08902
 C689 C 0.28991 0.39575 -0.06678
 C690 C 0.28103 0.38483 -0.04793
 C691 C 0.83368 0.93705 0.35034
 C692 C 0.82283 0.92870 0.36947
 C693 C 0.81071 0.91838 0.39193
 C694 C 0.80084 0.90897 0.41110
 C695 C 0.78988 0.89717 0.43342
 C696 C 0.78101 0.88631 0.45231
 C697 C 0.82299 0.01402 1.16318
 C698 C 0.81103 0.02375 1.14465
 C699 C 0.79779 0.03609 1.12312
 C700 C 0.78715 0.04749 1.10497
 C701 C 0.77548 0.06190 1.08409
 C702 C 0.76620 0.07516 1.06667
 C703 C 0.32237 0.51432 0.66282
 C704 C 0.31034 0.52411 0.64437
 C705 C 0.29701 0.53651 0.62294
 C706 C 0.28629 0.54796 0.60488
 C707 C 0.27451 0.56241 0.58409
 C708 C 0.26514 0.57569 0.56674
 C709 C 0.19486 0.54643 0.34711
 C710 C 0.20295 0.55395 0.37005
 C711 C 0.21124 0.56261 0.39725
 C712 C 0.21759 0.56993 0.42064
 C713 C 0.22445 0.57850 0.44814
 C714 C 0.23010 0.58590 0.47163
 C715 C 0.69514 0.04596 0.84714
 C716 C 0.70341 0.05345 0.87004
 C717 C 0.71189 0.06207 0.89721
 C718 C 0.71839 0.06938 0.92057
 C719 C 0.72542 0.07795 0.94804
 C720 C 0.73120 0.08537 0.97151
 C721 C 0.70771 0.95162 0.65161
 C722 C 0.71729 0.94006 0.63275
 C723 C 0.72743 0.92650 0.61002
 C724 C 0.73528 0.91495 0.59018
 C725 C 0.74368 0.90150 0.56651
 C726 C 0.75028 0.89011 0.54599
 C727 C 0.20723 0.45068 0.15078
 C728 C 0.21691 0.43903 0.13204
 C729 C 0.22717 0.42534 0.10945
 C730 C 0.23513 0.41370 0.08973
 C731 C 0.24366 0.40015 0.06617
 C732 C 0.25036 0.38870 0.04573
 C733 C -0.14904 0.33461 0.43688
 C734 C -0.12996 0.32369 0.42857
 C735 C -0.10756 0.31146 0.41829
 C736 C -0.08846 0.30150 0.40892
 C737 C -0.06622 0.29042 0.39714
 C738 C -0.04739 0.28147 0.38628
 C739 C 0.35028 0.83477 0.93619
 C740 C 0.36937 0.82385 0.92790
 C741 C 0.39178 0.81161 0.91767
 C742 C 0.41090 0.80165 0.90835
 C743 C 0.43320 0.79057 0.89665
 C744 C 0.45208 0.78162 0.88589
 C745 C 1.16247 0.82298 0.01342
 C746 C 1.14403 0.81091 0.02313
 C747 C 1.12261 0.79752 0.03545
 C748 C 1.10457 0.78674 0.04685
 C749 C 1.08381 0.77493 0.06128
 C750 C 1.06650 0.76554 0.07457
 C751 C 0.66295 0.32257 0.51369
 C752 C 0.64451 0.31050 0.52340
 C753 C 0.62310 0.29712 0.53574
 C754 C 0.60506 0.28637 0.54716
 C755 C 0.58431 0.27458 0.56161
 C756 C 0.56700 0.26522 0.57492
 C757 C 0.34766 0.19440 0.54642
 C758 C 0.37058 0.20257 0.55385
 C759 C 0.39775 0.21097 0.56239
 C760 C 0.42113 0.21741 0.56962
 C761 C 0.44860 0.22438 0.57809
 C762 C 0.47208 0.23013 0.58543
 C763 C 0.84705 0.69466 0.04663
 C764 C 0.87000 0.70283 0.05393
 C765 C 0.89721 0.71123 0.06233
 C766 C 0.92060 0.71768 0.06946
 C767 C 0.94810 0.72467 0.07784
 C768 C 0.97159 0.73041 0.08512
 C769 C 0.65047 0.70680 0.95195
 C770 C 0.63170 0.71656 0.94039
 C771 C 0.60912 0.72693 0.92680
 C772 C 0.58940 0.73500 0.91522
 C773 C 0.56588 0.74365 0.90169
 C774 C 0.54549 0.75047 0.89022
 C775 C 0.15115 0.20651 0.45141
 C776 C 0.13237 0.21629 0.43990
 C777 C 0.10975 0.22668 0.42639
 C778 C 0.09001 0.23477 0.41487
 C779 C 0.06644 0.24344 0.40145
 C780 C 0.04601 0.25027 0.39007
 C781 C 0.58015 0.09209 0.69398
 C782 C 0.56994 0.11100 0.68439
 C783 C 0.55952 0.13371 0.67272
 C784 C 0.55196 0.15341 0.66230
 C785 C 0.54471 0.17674 0.64947
 C786 C 0.53996 0.19670 0.63791
 C787 C 1.07951 0.59170 0.19261
 C788 C 1.06931 0.61068 0.18314
 C789 C 1.05892 0.63348 0.17163
 C790 C 1.05139 0.65327 0.16135
 C791 C 1.04418 0.67671 0.14870
 C792 C 1.03946 0.69677 0.13729
 C793 C 0.95327 0.88026 0.21381
 C794 C 0.96417 0.86145 0.20381
 C795 C 0.97656 0.83972 0.19106
 C796 C 0.98695 0.82164 0.17916
 C797 C 0.99901 0.80125 0.16397
 C798 C 1.00932 0.78474 0.14983
 C799 C 0.45379 0.38011 0.71419
 C800 C 0.46468 0.36131 0.70416
 C801 C 0.47706 0.33960 0.69137
 C802 C 0.48744 0.32152 0.67946
 C803 C 0.49947 0.30112 0.66425
 C804 C 0.50976 0.28460 0.65011
 C805 C 0.45643 0.58379 0.78727
 C806 C 0.46501 0.60682 0.79359
 C807 C 0.47342 0.63403 0.80185
 C808 C 0.47918 0.65735 0.80973
 C809 C 0.48421 0.68459 0.81996
 C810 C 0.48704 0.70763 0.82962
 C811 C -0.04381 0.08394 0.28671
 C812 C -0.03515 0.10693 0.29309
 C813 C -0.02665 0.13410 0.30147
 C814 C -0.02081 0.15737 0.30945
 C815 C -0.01568 0.18456 0.31982
 C816 C -0.01278 0.20756 0.32960
 C817 C 0.07810 0.39763 0.26477
 C818 C 0.06726 0.37717 0.27207
 C819 C 0.05492 0.35402 0.28254
 C820 C 0.04436 0.33520 0.29301
 C821 C 0.03168 0.31453 0.30696
 C822 C 0.02031 0.29834 0.32017
 C823 C 0.57871 0.89792 0.76559
 C824 C 0.56778 0.87745 0.77278
 C825 C 0.55530 0.85428 0.78309
 C826 C 0.54461 0.83543 0.79342
 C827 C 0.53176 0.81474 0.80719
 C828 C 0.52024 0.79852 0.82026
 C829 C 0.69355 0.58059 0.09107
 C830 C 0.68400 0.57026 0.10997
 C831 C 0.67239 0.55973 0.13267
 C832 C 0.66202 0.55210 0.15239
 C833 C 0.64925 0.54480 0.17574
 C834 C 0.63774 0.54003 0.19573
 C835 C 0.19351 1.07871 0.59219
 C836 C 0.18400 1.06854 0.61119
 C837 C 0.17243 1.05820 0.63400
 C838 C 0.16210 1.05073 0.65380
 C839 C 0.14939 1.04360 0.67723
 C840 C 0.13792 1.03895 0.69728
 C841 C 0.21438 0.95319 0.88130
 C842 C 0.20433 0.96410 0.86246
 C843 C 0.19152 0.97647 0.84070
 C844 C 0.17960 0.98683 0.82256
 C845 C 0.16439 0.99883 0.80209
 C846 C 0.15025 1.00908 0.78550
 C847 C 0.71428 0.45414 0.37962
 C848 C 0.70422 0.46501 0.36077
 C849 C 0.69140 0.47735 0.33900
 C850 C 0.67946 0.48770 0.32086
 C851 C 0.66423 0.49971 0.30040
 C852 C 0.65008 0.50997 0.28384
 C853 C 0.78682 0.45674 0.58388
 C854 C 0.79307 0.46528 0.60696
 C855 C 0.80127 0.47363 0.63424
 C856 C 0.80911 0.47933 0.65761
 C857 C 0.81930 0.48430 0.68491
 C858 C 0.82895 0.48707 0.70799
 C859 C 0.28692 -0.04296 0.08329
 C860 C 0.29332 -0.03442 0.10634
 C861 C 0.30172 -0.02608 0.13358
 C862 C 0.30971 -0.02039 0.15691
 C863 C 0.32009 -0.01543 0.18416
 C864 C 0.32987 -0.01268 0.20719
 C865 C 0.26538 0.07748 0.39777
 C866 C 0.27269 0.06669 0.37728
 C867 C 0.28314 0.05440 0.35409
 C868 C 0.29358 0.04389 0.33523
 C869 C 0.30748 0.03127 0.31450
 C870 C 0.32064 0.01994 0.29825
 C871 C 0.76429 0.57746 0.89856
 C872 C 0.77155 0.56663 0.87806
 C873 C 0.78195 0.55430 0.85487
 C874 C 0.79237 0.54376 0.83600
 C875 C 0.80625 0.53110 0.81529
 C876 C 0.81941 0.51976 0.79905
 C877 C 0.09127 0.69328 0.57951
 C878 C 0.11025 0.68386 0.56927
 C879 C 0.13303 0.67240 0.55884
 C880 C 0.15283 0.66216 0.55130
 C881 C 0.17626 0.64955 0.54408
 C882 C 0.19632 0.63816 0.53938
 C883 C 0.59273 0.19331 1.07906
 C884 C 0.61171 0.18384 1.06887
 C885 C 0.63449 0.17232 1.05848
 C886 C 0.65427 0.16203 1.05097
 C887 C 0.67767 0.14935 1.04381
 C888 C 0.69771 0.13790 1.03914
 C889 C 0.88143 0.21390 0.95291
 C890 C 0.86261 0.20388 0.96383
 C891 C 0.84088 0.19114 0.97624
 C892 C 0.82277 0.17927 0.98665
 C893 C 0.80232 0.16413 0.99872
 C894 C 0.78576 0.15005 1.00905
 C895 C 0.37968 0.71467 0.45278
 C896 C 0.36089 0.70466 0.46373
 C897 C 0.33919 0.69190 0.47619
 C898 C 0.32113 0.68001 0.48664
 C899 C 0.30077 0.66483 0.49879
 C900 C 0.28428 0.65072 0.50917
 C901 C 0.58337 0.78731 0.45581
 C902 C 0.60636 0.79363 0.46456
 C903 C 0.63354 0.80192 0.47316
 C904 C 0.65683 0.80983 0.47906
 C905 C 0.68404 0.82011 0.48425
 C906 C 0.70707 0.82983 0.48718
 C907 C 0.08327 0.28609 -0.04306
 C908 C 0.10633 0.29237 -0.03452
 C909 C 0.13358 0.30062 -0.02618
 C910 C 0.15692 0.30848 -0.02049
 C911 C 0.18418 0.31870 -0.01553
 C912 C 0.20723 0.32836 -0.01277
 C913 C 0.39817 0.26434 0.07771
 C914 C 0.37761 0.27149 0.06691
 C915 C 0.35434 0.28177 0.05458
 C916 C 0.33540 0.29208 0.04403
 C917 C 0.31460 0.30586 0.03135
 C918 C 0.29829 0.31894 0.01996
 C919 C 0.89718 0.76499 0.57828
 C920 C 0.87674 0.77229 0.56738
 C921 C 0.85361 0.78274 0.55495
 C922 C 0.83480 0.79319 0.54433
 C923 C 0.81414 0.80709 0.53158
 C924 C 0.79794 0.82027 0.52016
   
