data_POSCAR
  _audit_creation_date              2014-09-24
  _audit_creation_method            'ToBaCCo'
  _symmetry_space_group_name_H-M    'P1'
  _symmetry_Int_Tables_number       1
  _symmetry_cell_setting            triclinic
  loop_
  _symmetry_equiv_pos_as_xyz
 x,y,z
_cell_length_a 60.6031
_cell_length_b 60.8331
_cell_length_c 60.6459
_cell_angle_alpha 89.980500
_cell_angle_beta 89.963100
_cell_angle_gamma 89.979700
loop_
  _atom_site_label
  _atom_site_type_symbol
  _atom_site_fract_x
  _atom_site_fract_y
  _atom_site_fract_z
N1 N 0.15371 0.16885 0.21491
 N2 N 0.16915 0.15363 0.21471
 C3 C 0.16589 0.13986 0.23183
 C4 C 0.14749 0.14694 0.24316
 C5 C 0.14009 0.16530 0.23210
 H6 H 0.17608 0.12580 0.23579
 H7 H 0.12592 0.17530 0.23624
 Cu8 Cu 0.19199 0.15341 0.19207
 Cu9 Cu 0.15236 0.19215 0.19292
 Cu10 Cu 0.19280 0.19216 0.15247
 N11 N 0.21461 0.15361 0.16922
 N12 N 0.21482 0.16883 0.15379
 C13 C 0.23199 0.16523 0.14014
 C14 C 0.24303 0.14684 0.14751
 C15 C 0.23171 0.13980 0.16593
 H16 H 0.23613 0.17523 0.12597
 H17 H 0.23566 0.12573 0.17611
 N18 N 0.16913 0.21437 0.15389
 N19 N 0.15372 0.21435 0.16931
 C20 C 0.14000 0.23145 0.16584
 C21 C 0.14718 0.24262 0.14744
 C22 C 0.16561 0.23149 0.14021
 H23 H 0.12584 0.23551 0.17591
 H24 H 0.17565 0.23560 0.12605
 H25 H 0.16793 0.17481 0.16806
 H26 H 0.18576 0.19249 0.18585
 N27 N -0.15411 0.83097 0.21448
 N28 N -0.16983 0.84589 0.21455
 C29 C -0.16664 0.85963 0.23169
 C30 C -0.14798 0.85284 0.24278
 C31 C -0.14039 0.83468 0.23154
 H32 H -0.17698 0.87353 0.23580
 H33 H -0.12597 0.82496 0.23544
 Cu34 Cu -0.19257 0.84590 0.19189
 Cu35 Cu -0.15252 0.80784 0.19230
 Cu36 Cu -0.19307 0.80783 0.15187
 N37 N -0.21532 0.84591 0.16923
 N38 N -0.21530 0.83099 0.15351
 C39 C -0.23240 0.83474 0.13984
 C40 C -0.24360 0.85293 0.14747
 C41 C -0.23246 0.85969 0.16609
 H42 H -0.23633 0.82504 0.12542
 H43 H -0.23651 0.87360 0.17644
 N44 N -0.16918 0.78579 0.15309
 N45 N -0.15375 0.78581 0.16849
 C46 C -0.14002 0.76873 0.16500
 C47 C -0.14721 0.75757 0.14661
 C48 C -0.16565 0.76869 0.13941
 H49 H -0.12591 0.76461 0.17509
 H50 H -0.17574 0.76452 0.12532
 H51 H -0.16829 0.82509 0.16753
 H52 H -0.18582 0.80698 0.18510
 N53 N -0.15389 0.16916 -0.21434
 N54 N -0.16939 0.15403 -0.21420
 C55 C -0.16606 0.14019 -0.23125
 C56 C -0.14754 0.14714 -0.24248
 C57 C -0.14018 0.16550 -0.23143
 H58 H -0.17626 0.12617 -0.23524
 H59 H -0.12595 0.17543 -0.23553
 Cu60 Cu -0.19237 0.15401 -0.19173
 Cu61 Cu -0.15260 0.19250 -0.19240
 Cu62 Cu -0.19309 0.19242 -0.15192
 N63 N -0.21485 0.15392 -0.16877
 N64 N -0.21503 0.16903 -0.15324
 C65 C -0.23215 0.16532 -0.13956
 C66 C -0.24316 0.14694 -0.14699
 C67 C -0.23189 0.14004 -0.16550
 H68 H -0.23628 0.17523 -0.12534
 H69 H -0.23584 0.12604 -0.17574
 N70 N -0.16949 0.21470 -0.15338
 N71 N -0.15407 0.21472 -0.16880
 C72 C -0.14041 0.23185 -0.16534
 C73 C -0.14764 0.24300 -0.14695
 C74 C -0.16603 0.23183 -0.13971
 H75 H -0.12624 0.23594 -0.17539
 H76 H -0.17607 0.23591 -0.12555
 H77 H -0.16821 0.17517 -0.16759
 H78 H -0.18592 0.19306 -0.18524
 N79 N 0.15428 0.83082 -0.21464
 N80 N 0.16998 0.84576 -0.21464
 C81 C 0.16679 0.85955 -0.23176
 C82 C 0.14817 0.85279 -0.24290
 C83 C 0.14059 0.83458 -0.23171
 H84 H 0.17711 0.87348 -0.23581
 H85 H 0.12618 0.82486 -0.23565
 Cu86 Cu 0.19266 0.84578 -0.19192
 Cu87 Cu 0.15266 0.80767 -0.19246
 Cu88 Cu 0.19313 0.80766 -0.15193
 N89 N 0.21534 0.84580 -0.16919
 N90 N 0.21533 0.83085 -0.15349
 C91 C 0.23238 0.83463 -0.13977
 C92 C 0.24354 0.85286 -0.14735
 C93 C 0.23244 0.85962 -0.16599
 H94 H 0.23631 0.82490 -0.12536
 H95 H 0.23647 0.87355 -0.17633
 N96 N 0.16928 0.78559 -0.15321
 N97 N 0.15387 0.78562 -0.16863
 C98 C 0.14011 0.76857 -0.16512
 C99 C 0.14725 0.75742 -0.14669
 C100 C 0.16570 0.76851 -0.13949
 H101 H 0.12599 0.76448 -0.17520
 H102 H 0.17575 0.76437 -0.12536
 H103 H 0.16833 0.82490 -0.16767
 H104 H 0.18593 0.80682 -0.18521
 N105 N 0.16898 1.15404 0.78527
 N106 N 0.15378 1.16948 0.78542
 C107 C 0.14001 1.16630 0.76827
 C108 C 0.14705 1.14793 0.75698
 C109 C 0.16541 1.14049 0.76809
 H110 H 0.12593 1.17647 0.76429
 H111 H 0.17536 1.12631 0.76401
 Cu112 Cu 0.15346 1.19202 0.80817
 Cu113 Cu 0.19227 1.15259 0.80730
 Cu114 Cu 0.19227 1.19295 0.84770
 N115 N 0.15377 1.21475 0.83073
 N116 N 0.16897 1.21492 0.84621
 C117 C 0.16534 1.23205 0.85979
 C118 C 0.14695 1.24308 0.85235
 C119 C 0.13995 1.23182 0.83393
 H120 H 0.17527 1.23614 0.87402
 H121 H 0.12586 1.23576 0.82373
 N122 N 0.21445 1.16931 0.84637
 N123 N 0.21445 1.15394 0.83098
 C124 C 0.23159 1.14027 0.83448
 C125 C 0.24276 1.14746 0.85286
 C126 C 0.23160 1.16582 0.86007
 H127 H 0.23571 1.12616 0.82445
 H128 H 0.23572 1.17583 0.87421
 H129 H 0.17498 1.16808 0.83224
 H130 H 0.19269 1.18581 0.81440
 N131 N 0.83154 0.84617 0.78566
 N132 N 0.84675 0.83073 0.78584
 C133 C 0.86063 0.83398 0.76878
 C134 C 0.85363 0.85236 0.75749
 C135 C 0.83519 0.85974 0.76851
 H136 H 0.87471 0.82379 0.76480
 H137 H 0.82516 0.87384 0.76431
 Cu138 Cu 0.84661 0.80780 0.80820
 Cu139 Cu 0.80810 0.84753 0.80758
 Cu140 Cu 0.80786 0.80697 0.84781
 N141 N 0.84653 0.78532 0.83101
 N142 N 0.83120 0.78503 0.84638
 C143 C 0.83477 0.76786 0.85992
 C144 C 0.85327 0.75694 0.85259
 C145 C 0.86041 0.76831 0.83427
 H146 H 0.82466 0.76362 0.87400
 H147 H 0.87460 0.76446 0.82416
 N148 N 0.78567 0.83059 0.84646
 N149 N 0.78578 0.84606 0.83116
 C150 C 0.76866 0.85976 0.83469
 C151 C 0.75742 0.85249 0.85301
 C152 C 0.76848 0.83405 0.86013
 H153 H 0.76465 0.87396 0.82474
 H154 H 0.76429 0.82397 0.87422
 H155 H 0.82532 0.83175 0.83237
 H156 H 0.80740 0.81428 0.81452
 N157 N 0.16896 0.84565 1.21451
 N158 N 0.15370 0.83026 1.21432
 C159 C 0.13988 0.83350 1.23143
 C160 C 0.14695 0.85183 1.24274
 C161 C 0.16537 0.85919 1.23169
 H162 H 0.12572 0.82341 1.23536
 H163 H 0.17534 0.87336 1.23578
 Cu164 Cu 0.15331 0.80781 1.19150
 Cu165 Cu 0.19220 0.84715 1.19241
 Cu166 Cu 0.19203 0.80698 1.15183
 N167 N 0.15358 0.78515 1.16889
 N168 N 0.16874 0.78501 1.15335
 C169 C 0.16512 0.76789 1.13978
 C170 C 0.14677 0.75682 1.14729
 C171 C 0.13979 0.76806 1.16574
 H172 H 0.17504 0.76381 1.12552
 H173 H 0.12574 0.76408 1.17599
 N174 N 0.21421 0.83058 1.15315
 N175 N 0.21430 0.84586 1.16864
 C176 C 0.23146 0.85950 1.16514
 C177 C 0.24253 0.85239 1.14665
 C178 C 0.23131 0.83410 1.13940
 H179 H 0.23564 0.87353 1.17524
 H180 H 0.23538 0.82414 1.12520
 H181 H 0.17478 0.83183 1.16747
 H182 H 0.19251 0.81396 1.18516
 N183 N 0.83103 1.15411 1.21441
 N184 N 0.84624 1.16953 1.21425
 C185 C 0.86001 1.16632 1.23139
 C186 C 0.85297 1.14795 1.24268
 C187 C 0.83460 1.14055 1.23159
 H188 H 0.87404 1.17651 1.23540
 H189 H 0.82462 1.12638 1.23571
 Cu190 Cu 0.84654 1.19235 1.19176
 Cu191 Cu 0.80771 1.15273 1.19244
 Cu192 Cu 0.80762 1.19301 1.15213
 N193 N 0.84612 1.21482 1.16891
 N194 N 0.83087 1.21496 1.15348
 C195 C 0.83437 1.23209 1.13988
 C196 C 0.85273 1.24318 1.14726
 C197 C 0.85984 1.23194 1.16566
 H198 H 0.82435 1.23618 1.12569
 H199 H 0.87390 1.23595 1.17584
 N200 N 0.78546 1.16943 1.15346
 N201 N 0.78548 1.15406 1.16884
 C202 C 0.76838 1.14036 1.16532
 C203 C 0.75721 1.14755 1.14692
 C204 C 0.76833 1.16593 1.13974
 H205 H 0.76430 1.12622 1.17533
 H206 H 0.76422 1.17595 1.12559
 H207 H 0.82521 1.16836 1.16771
 H208 H 0.80734 1.18608 1.18556
 N209 N 0.47673 0.96108 0.97628
 N210 N 0.45999 0.94748 0.97348
 N211 N 0.52319 0.97635 0.96099
 N212 N 0.53993 0.97355 0.94734
 N213 N 0.52317 0.96108 0.97630
 N214 N 0.53989 0.94746 0.97352
 N215 N 0.47674 0.97636 0.96096
 N216 N 0.46000 0.97358 0.94731
 C217 C 0.44978 0.95552 0.95537
 C218 C 0.55010 0.95549 0.95542
 N219 N 0.52323 1.03896 0.97632
 N220 N 0.53999 1.05256 0.97353
 N221 N 0.47682 1.02371 0.96098
 N222 N 0.46011 1.02651 0.94731
 N223 N 0.47680 1.03897 0.97629
 N224 N 0.46007 1.05259 0.97350
 N225 N 0.52325 1.02369 0.96100
 N226 N 0.54002 1.02648 0.94736
 Mn227 Mn 0.50000 1.00003 0.96072
 C228 C 0.55022 1.04452 0.95542
 C229 C 0.44991 1.04456 0.95538
 N230 N 0.52319 0.96107 1.02379
 N231 N 0.53993 0.94745 1.02660
 N232 N 0.47673 0.97633 1.03908
 N233 N 0.45999 0.97353 1.05271
 N234 N 0.47677 0.96108 1.02376
 N235 N 0.46004 0.94746 1.02652
 N236 N 0.52316 0.97633 1.03911
 N237 N 0.53989 0.97352 1.05278
 Mn238 Mn 0.49996 0.96082 1.00003
 C239 C 0.55011 0.95547 1.04472
 C240 C 0.44983 0.95548 1.04462
 N241 N 0.47664 1.03896 1.02379
 N242 N 0.45988 1.05256 1.02659
 N243 N 0.52309 1.02367 1.03912
 N244 N 0.53983 1.02642 1.05275
 N245 N 0.52310 1.03894 1.02381
 N246 N 0.53985 1.05252 1.02657
 N247 N 0.47663 1.02368 1.03910
 N248 N 0.45987 1.02646 1.05275
 Mn249 Mn 0.49994 1.03922 1.00005
 Mn250 Mn 0.49990 1.00000 1.03937
 Cl251 Cl 0.49995 1.00002 1.00004
 C252 C 0.44964 1.04451 1.04469
 C253 C 0.55004 1.04446 1.04467
 N254 N -0.02379 0.47682 -0.03896
 N255 N -0.02657 0.46012 -0.05256
 N256 N -0.03905 0.52312 -0.02366
 N257 N -0.05266 0.53985 -0.02642
 N258 N -0.02372 0.52309 -0.03898
 N259 N -0.02646 0.53979 -0.05261
 N260 N -0.03913 0.47686 -0.02364
 N261 N -0.05279 0.46018 -0.02640
 C262 C -0.04470 0.44997 -0.04448
 C263 C -0.04455 0.55000 -0.04452
 N264 N -0.02377 0.52313 0.03914
 N265 N -0.02653 0.53982 0.05278
 N266 N -0.03916 0.47690 0.02384
 N267 N -0.05281 0.46022 0.02660
 N268 N -0.02384 0.47687 0.03915
 N269 N -0.02664 0.46017 0.05277
 N270 N -0.03908 0.52316 0.02383
 N271 N -0.05270 0.53988 0.02660
 Mn272 Mn -0.03937 0.50001 0.00009
 C273 C -0.04462 0.55004 0.04471
 C274 C -0.04475 0.45004 0.04469
 N275 N 0.02380 0.52305 -0.03897
 N276 N 0.02653 0.53981 -0.05254
 N277 N 0.03906 0.47675 -0.02364
 N278 N 0.05268 0.46003 -0.02641
 N279 N 0.02374 0.47677 -0.03896
 N280 N 0.02650 0.46007 -0.05258
 N281 N 0.03911 0.52303 -0.02366
 N282 N 0.05270 0.53978 -0.02637
 Mn283 Mn 0.00001 0.49993 -0.03923
 C284 C 0.04461 0.55000 -0.04444
 C285 C 0.04459 0.44988 -0.04450
 N286 N 0.02368 0.47674 0.03916
 N287 N 0.02640 0.46003 0.05280
 N288 N 0.03908 0.52298 0.02384
 N289 N 0.05270 0.53969 0.02658
 N290 N 0.02375 0.52300 0.03915
 N291 N 0.02649 0.53972 0.05275
 N292 N 0.03902 0.47671 0.02385
 N293 N 0.05262 0.45997 0.02663
 Mn294 Mn -0.00005 0.49993 0.03942
 Mn295 Mn 0.03934 0.49987 0.00010
 Cl296 Cl -0.00002 0.49994 0.00009
 C297 C 0.04450 0.44980 0.04473
 C298 C 0.04460 0.54988 0.04466
 N299 N 0.97642 -0.03876 0.52309
 N300 N 0.97362 -0.05239 0.53980
 N301 N 0.96107 -0.02353 0.47667
 N302 N 0.94742 -0.02633 0.45994
 N303 N 0.97640 -0.03881 0.47669
 N304 N 0.97362 -0.05243 0.45997
 N305 N 0.96109 -0.02350 0.52309
 N306 N 0.94741 -0.02630 0.53981
 C307 C 0.95549 -0.04436 0.54999
 C308 C 0.95550 -0.04440 0.44977
 N309 N 0.97639 0.03909 0.47663
 N310 N 0.97359 0.05270 0.45991
 N311 N 0.96109 0.02385 0.52306
 N312 N 0.94745 0.02664 0.53981
 N313 N 0.97642 0.03911 0.52303
 N314 N 0.97364 0.05272 0.53976
 N315 N 0.96106 0.02383 0.47665
 N316 N 0.94739 0.02662 0.45994
 Mn317 Mn 0.96081 0.00016 0.49987
 C318 C 0.95546 0.04467 0.44974
 C319 C 0.95553 0.04469 0.54999
 N320 N 1.02390 -0.03881 0.47666
 N321 N 1.02664 -0.05242 0.45993
 N322 N 1.03928 -0.02351 0.52300
 N323 N 1.05296 -0.02630 0.53972
 N324 N 1.02395 -0.03877 0.52305
 N325 N 1.02675 -0.05236 0.53979
 N326 N 1.03923 -0.02355 0.47660
 N327 N 1.05283 -0.02633 0.45982
 Mn328 Mn 1.00017 -0.03905 0.49987
 C329 C 1.04472 -0.04438 0.44967
 C330 C 1.04489 -0.04434 0.54995
 N331 N 1.02396 0.03910 0.52293
 N332 N 1.02675 0.05271 0.53965
 N333 N 1.03924 0.02381 0.47650
 N334 N 1.05290 0.02658 0.45976
 N335 N 1.02392 0.03908 0.47651
 N336 N 1.02671 0.05269 0.45977
 N337 N 1.03929 0.02384 0.52292
 N338 N 1.05295 0.02661 0.53964
 Mn339 Mn 1.00017 0.03936 0.49978
 Mn340 Mn 1.03953 0.00015 0.49975
 Cl341 Cl 1.00017 0.00016 0.49982
 C342 C 1.04488 0.04467 0.54983
 C343 C 1.04483 0.04464 0.44955
 C344 C 1.13840 0.13768 0.26145
 C345 C 1.13027 0.12950 0.27765
 C346 C 1.12051 0.11979 0.29700
 C347 C 1.10180 0.12917 0.30653
 C348 C 1.09228 0.11980 0.32532
 C349 C 1.10125 0.10065 0.33523
 C350 C 1.12027 0.09148 0.32513
 C351 C 1.12970 0.10095 0.30633
 C352 C 1.09100 0.09047 0.35569
 C353 C 1.10001 0.07136 0.36565
 C354 C 1.09059 0.06211 0.38455
 C355 C 1.07194 0.07156 0.39412
 C356 C 1.06266 0.09030 0.38469
 C357 C 1.07198 0.09965 0.36578
 C358 C 1.06235 0.06205 0.41366
 C359 C 1.05434 0.05411 0.43004
 H360 H 1.09450 0.14381 0.29941
 H361 H 1.07791 0.12803 0.33166
 H362 H 1.12834 0.07699 0.33132
 H363 H 1.14424 0.09351 0.29907
 H364 H 1.11437 0.06312 0.35929
 H365 H 1.09794 0.04753 0.39172
 H366 H 1.04815 0.09779 0.39197
 H367 H 1.06386 0.11408 0.35953
 C368 C 0.86168 -0.13729 0.26201
 C369 C 0.86985 -0.12909 0.27815
 C370 C 0.87963 -0.11936 0.29746
 C371 C 0.86629 -0.11005 0.31369
 C372 C 0.87569 -0.10069 0.33252
 C373 C 0.89888 -0.10036 0.33570
 C374 C 0.91201 -0.10993 0.31887
 C375 C 0.90248 -0.11926 0.30008
 C376 C 0.90915 -0.09027 0.35617
 C377 C 0.93234 -0.08995 0.35939
 C378 C 0.94171 -0.08066 0.37828
 C379 C 0.92833 -0.07142 0.39452
 C380 C 0.90549 -0.07148 0.39183
 C381 C 0.89600 -0.08073 0.37300
 C382 C 0.93799 -0.06189 0.41398
 C383 C 0.94601 -0.05390 0.43030
 H384 H 0.84850 -0.11003 0.31183
 H385 H 0.86427 -0.09388 0.34425
 H386 H 0.92974 -0.11052 0.31966
 H387 H 0.91302 -0.12646 0.28757
 H388 H 0.94376 -0.09675 0.34764
 H389 H 0.95949 -0.08072 0.38019
 H390 H 0.89492 -0.06435 0.40435
 H391 H 0.87828 -0.08013 0.37219
 C392 C 0.86207 0.13735 0.73820
 C393 C 0.87019 0.12923 0.72198
 C394 C 0.87989 0.11959 0.70257
 C395 C 0.86698 0.11561 0.68399
 C396 C 0.87633 0.10632 0.66509
 C397 C 0.89903 0.10068 0.66420
 C398 C 0.91174 0.10493 0.68337
 C399 C 0.90226 0.11424 0.70221
 C400 C 0.90925 0.09057 0.64369
 C401 C 0.93197 0.08503 0.64275
 C402 C 0.94130 0.07573 0.62383
 C403 C 0.92834 0.07168 0.60529
 C404 C 0.90596 0.07695 0.60571
 C405 C 0.89651 0.08623 0.62457
 C406 C 0.93799 0.06215 0.58581
 C407 C 0.94602 0.05418 0.56946
 H408 H 0.84958 0.11972 0.68407
 H409 H 0.86527 0.10381 0.65146
 H410 H 0.92907 0.10127 0.68441
 H411 H 0.91247 0.11729 0.71655
 H412 H 0.94306 0.08765 0.65633
 H413 H 0.95872 0.07170 0.62370
 H414 H 0.89572 0.07388 0.59139
 H415 H 0.87915 0.08979 0.62357
 C416 C 1.13851 -0.13727 0.73790
 C417 C 1.13032 -0.12905 0.72176
 C418 C 1.12049 -0.11941 0.70243
 C419 C 1.11627 -0.13234 0.68394
 C420 C 1.10674 -0.12309 0.66511
 C421 C 1.10108 -0.10048 0.66421
 C422 C 1.10553 -0.08776 0.68330
 C423 C 1.11510 -0.09713 0.70207
 C424 C 1.09082 -0.09036 0.64374
 C425 C 1.08534 -0.06770 0.64273
 C426 C 1.07602 -0.05844 0.62380
 C427 C 1.07187 -0.07140 0.60531
 C428 C 1.07701 -0.09372 0.60581
 C429 C 1.08632 -0.10311 0.62468
 C430 C 1.06236 -0.06180 0.58580
 C431 C 1.05440 -0.05381 0.56944
 H432 H 1.12037 -0.14968 0.68403
 H433 H 1.10405 -0.13417 0.65156
 H434 H 1.10185 -0.07049 0.68433
 H435 H 1.11828 -0.08691 0.71635
 H436 H 1.08805 -0.05662 0.65628
 H437 H 1.07206 -0.04106 0.62361
 H438 H 1.07385 -0.10397 0.59154
 H439 H 1.08978 -0.12043 0.62374
 C440 C 0.26132 1.13752 1.13842
 C441 C 0.27755 1.12930 1.13034
 C442 C 0.29698 1.11956 1.12070
 C443 C 0.31781 1.12797 1.12557
 C444 C 0.33671 1.11866 1.11619
 C445 C 0.33536 1.10052 1.10154
 C446 C 0.31394 1.09229 1.09696
 C447 C 0.29511 1.10170 1.10641
 C448 C 0.35587 1.09042 1.09125
 C449 C 0.35454 1.07231 1.07657
 C450 C 0.37347 1.06307 1.06714
 C451 C 0.39428 1.07156 1.07199
 C452 C 0.39611 1.08936 1.08634
 C453 C 0.37727 1.09868 1.09583
 C454 C 0.41377 1.06199 1.06229
 C455 C 0.43013 1.05401 1.05423
 H456 H 0.31949 1.14184 1.13666
 H457 H 0.35213 1.12612 1.12077
 H458 H 0.31110 1.07859 1.08613
 H459 H 0.27901 1.09500 1.10251
 H460 H 0.33912 1.06483 1.07200
 H461 H 0.37182 1.04924 1.05600
 H462 H 0.41219 1.09611 1.09024
 H463 H 0.38010 1.11235 1.10671
 C464 C 0.26173 0.86230 0.86177
 C465 C 0.27790 0.87057 0.86989
 C466 C 0.29729 0.88029 0.87959
 C467 C 0.29570 0.89981 0.89155
 C468 C 0.31451 0.90920 0.90105
 C469 C 0.33559 0.89927 0.89886
 C470 C 0.33665 0.87944 0.88659
 C471 C 0.31778 0.87017 0.87715
 C472 C 0.35607 0.90939 0.90914
 C473 C 0.37714 0.89944 0.90695
 C474 C 0.39597 0.90883 0.91636
 C475 C 0.39445 0.92838 0.92826
 C476 C 0.37397 0.93853 0.93075
 C477 C 0.35506 0.92925 0.92138
 C478 C 0.41393 0.93801 0.93786
 C479 C 0.43028 0.94602 0.94585
 H480 H 0.27987 0.90784 0.89357
 H481 H 0.31192 0.92424 0.91001
 H482 H 0.35179 0.87062 0.88394
 H483 H 0.31923 0.85499 0.86791
 H484 H 0.37971 0.88437 0.89805
 H485 H 0.41178 0.90076 0.91432
 H486 H 0.37257 0.95373 0.93997
 H487 H 0.33991 0.93808 0.92404
 C488 C 0.73819 0.86236 1.13838
 C489 C 0.72203 0.87062 1.13024
 C490 C 0.70268 0.88032 1.12045
 C491 C 0.70054 0.90310 1.11913
 C492 C 0.68175 0.91252 1.10962
 C493 C 0.66443 0.89934 1.10109
 C494 C 0.66712 0.87622 1.10266
 C495 C 0.68595 0.86693 1.11219
 C496 C 0.64395 0.90947 1.09082
 C497 C 0.62661 0.89627 1.08238
 C498 C 0.60774 0.90565 1.07303
 C499 C 0.60551 0.92842 1.07178
 C500 C 0.62229 0.94185 1.07988
 C501 C 0.64122 0.93259 1.08925
 C502 C 0.58599 0.93800 1.06222
 C503 C 0.56962 0.94598 1.05423
 H504 H 0.71344 0.91369 1.12547
 H505 H 0.68134 0.93019 1.10923
 H506 H 0.65501 0.86477 1.09669
 H507 H 0.68743 0.84920 1.11310
 H508 H 0.62704 0.87860 1.08273
 H509 H 0.59481 0.89504 1.06678
 H510 H 0.62076 0.95957 1.07899
 H511 H 0.65339 0.94405 1.09512
 C512 C 0.73852 1.13764 0.86203
 C513 C 0.72227 1.12946 0.87008
 C514 C 0.70284 1.11978 0.87977
 C515 C 0.68881 1.13248 0.89280
 C516 C 0.66995 1.12317 0.90228
 C517 C 0.66452 1.10072 0.89897
 C518 C 0.67912 1.08824 0.88562
 C519 C 0.69795 1.09767 0.87621
 C520 C 0.64404 1.09055 0.90922
 C521 C 0.63864 1.06809 0.90599
 C522 C 0.61974 1.05881 0.91540
 C523 C 0.60563 1.07156 0.92832
 C524 C 0.61052 1.09367 0.93183
 C525 C 0.62938 1.10307 0.92246
 C526 C 0.58611 1.06198 0.93790
 C527 C 0.56974 1.05400 0.94591
 H528 H 0.69243 1.14968 0.89569
 H529 H 0.66001 1.13405 0.91210
 H530 H 0.67650 1.07112 0.88207
 H531 H 0.70873 1.08763 0.86612
 H532 H 0.64866 1.05716 0.89627
 H533 H 0.61612 1.04159 0.91255
 H534 H 0.59969 1.10375 0.94184
 H535 H 0.63195 1.12022 0.92593
 C536 C 0.13747 0.26193 0.13782
 C537 C 0.12933 0.27815 0.12977
 C538 C 0.11965 0.29755 0.12018
 C539 C 0.09790 0.29722 0.11269
 C540 C 0.08848 0.31602 0.10333
 C541 C 0.10061 0.33585 0.10115
 C542 C 0.12268 0.33567 0.10895
 C543 C 0.13198 0.31680 0.11829
 C544 C 0.09046 0.35630 0.09096
 C545 C 0.10262 0.37611 0.08876
 C546 C 0.09324 0.39490 0.07937
 C547 C 0.07150 0.39460 0.07187
 C548 C 0.05912 0.37538 0.07380
 C549 C 0.06839 0.35651 0.08318
 C550 C 0.06192 0.41403 0.06226
 C551 C 0.05395 0.43035 0.05424
 H552 H 0.08814 0.28236 0.11408
 H553 H 0.07165 0.31442 0.09795
 H554 H 0.13328 0.34982 0.10810
 H555 H 0.14890 0.31727 0.12406
 H556 H 0.11946 0.37770 0.09412
 H557 H 0.10302 0.40975 0.07797
 H558 H 0.04220 0.37494 0.06804
 H559 H 0.05777 0.34237 0.08407
 C560 C -0.13794 0.26228 -0.13730
 C561 C -0.12977 0.27845 -0.12923
 C562 C -0.11999 0.29778 -0.11962
 C563 C -0.11464 0.29818 -0.09728
 C564 C -0.10516 0.31692 -0.08789
 C565 C -0.10074 0.33596 -0.10067
 C566 C -0.10634 0.33503 -0.12336
 C567 C -0.11580 0.31622 -0.13262
 C568 C -0.09055 0.35640 -0.09053
 C569 C -0.08612 0.37543 -0.10332
 C570 C -0.07684 0.39425 -0.09391
 C571 C -0.07166 0.39474 -0.07152
 C572 C -0.07577 0.37628 -0.05852
 C573 C -0.08505 0.35739 -0.06781
 C574 C -0.06215 0.41419 -0.06192
 C575 C -0.05419 0.43052 -0.05394
 H576 H -0.11781 0.28394 -0.08701
 H577 H -0.10152 0.31591 -0.07057
 H578 H -0.10365 0.34854 -0.13449
 H579 H -0.11987 0.31610 -0.15002
 H580 H -0.08962 0.37638 -0.12067
 H581 H -0.07371 0.40850 -0.10418
 H582 H -0.07180 0.37646 -0.04109
 H583 H -0.08772 0.34388 -0.05668
 C584 C 0.13756 0.73808 -0.13710
 C585 C 0.12943 0.72184 -0.12909
 C586 C 0.11975 0.70242 -0.11954
 C587 C 0.09743 0.70208 -0.11397
 C588 C 0.08801 0.68328 -0.10462
 C589 C 0.10072 0.66411 -0.10054
 C590 C 0.12336 0.66495 -0.10645
 C591 C 0.13266 0.68382 -0.11577
 C592 C 0.09057 0.64366 -0.09035
 C593 C 0.10332 0.62454 -0.08617
 C594 C 0.09393 0.60573 -0.07682
 C595 C 0.07160 0.60534 -0.07132
 C596 C 0.05863 0.62388 -0.07518
 C597 C 0.06790 0.64276 -0.08454
 C598 C 0.06200 0.58587 -0.06179
 C599 C 0.05404 0.56951 -0.05386
 H600 H 0.08722 0.71643 -0.11684
 H601 H 0.07071 0.68434 -0.10077
 H602 H 0.13442 0.65131 -0.10410
 H603 H 0.15003 0.68387 -0.12005
 H604 H 0.12064 0.62351 -0.08992
 H605 H 0.10417 0.59142 -0.07390
 H606 H 0.04125 0.62378 -0.07096
 H607 H 0.05681 0.65635 -0.08700
 C608 C -0.13759 0.73818 0.13710
 C609 C -0.12950 0.72189 0.12915
 C610 C -0.11987 0.70242 0.11966
 C611 C -0.09715 0.69898 0.12080
 C612 C -0.08773 0.68013 0.11153
 C613 C -0.10084 0.66407 0.10077
 C614 C -0.12390 0.66803 0.09994
 C615 C -0.13319 0.68691 0.10925
 C616 C -0.09068 0.64361 0.09062
 C617 C -0.10380 0.62753 0.07991
 C618 C -0.09439 0.60870 0.07062
 C619 C -0.07167 0.60528 0.07168
 C620 C -0.05833 0.62080 0.08206
 C621 C -0.06761 0.63967 0.09139
 C622 C -0.06208 0.58581 0.06216
 C623 C -0.05410 0.56949 0.05419
 H624 H -0.08663 0.71091 0.12888
 H625 H -0.07012 0.67869 0.11311
 H626 H -0.13529 0.65689 0.09221
 H627 H -0.15088 0.68940 0.10829
 H628 H -0.12142 0.62894 0.07840
 H629 H -0.10493 0.59676 0.06257
 H630 H -0.04064 0.61832 0.08298
 H631 H -0.05621 0.65084 0.09908
 C632 C 1.13724 0.13836 0.73771
 C633 C 1.12908 0.13021 0.72155
 C634 C 1.11942 0.12041 0.70225
 C635 C 1.12762 0.10060 0.69410
 C636 C 1.11834 0.09104 0.67532
 C637 C 1.10046 0.10108 0.66406
 C638 C 1.09248 0.12120 0.67279
 C639 C 1.10185 0.13066 0.69158
 C640 C 1.09040 0.09080 0.64360
 C641 C 1.07257 0.10089 0.63231
 C642 C 1.06342 0.09144 0.61342
 C643 C 1.07169 0.07169 0.60519
 C644 C 1.08916 0.06135 0.61594
 C645 C 1.09840 0.07069 0.63485
 C646 C 1.06226 0.06210 0.58567
 C647 C 1.05435 0.05412 0.56930
 H648 H 1.14128 0.09248 0.70227
 H649 H 1.12561 0.07578 0.67007
 H650 H 1.07900 0.13013 0.66553
 H651 H 1.09534 0.14606 0.69778
 H652 H 1.06527 0.11612 0.63758
 H653 H 1.04983 0.09962 0.60519
 H654 H 1.09571 0.04598 0.60969
 H655 H 1.11182 0.06171 0.64217
 C656 C 0.86335 -0.13822 0.73807
 C657 C 0.87141 -0.13021 0.72178
 C658 C 0.88094 -0.12050 0.70236
 C659 C 0.89958 -0.12982 0.69264
 C660 C 0.90891 -0.12035 0.67382
 C661 C 0.89981 -0.10116 0.66410
 C662 C 0.88082 -0.09212 0.67435
 C663 C 0.87159 -0.10168 0.69317
 C664 C 0.90990 -0.09080 0.64368
 C665 C 0.90078 -0.07163 0.63395
 C666 C 0.91005 -0.06221 0.61507
 C667 C 0.92866 -0.07154 0.60532
 C668 C 0.93806 -0.09032 0.61455
 C669 C 0.92889 -0.09984 0.63342
 C670 C 0.93808 -0.06188 0.58581
 C671 C 0.94600 -0.05386 0.56946
 H672 H 0.90697 -0.14447 0.69963
 H673 H 0.92325 -0.12851 0.66732
 H674 H 0.87263 -0.07764 0.66830
 H675 H 0.85708 -0.09432 0.70057
 H676 H 0.88645 -0.06345 0.64046
 H677 H 0.90262 -0.04759 0.60805
 H678 H 0.95255 -0.09770 0.60712
 H679 H 0.93711 -0.11428 0.63952
 C680 C 1.13705 -0.13855 0.26195
 C681 C 1.12883 -0.13041 0.27809
 C682 C 1.11912 -0.12068 0.29741
 C683 C 1.12323 -0.12967 0.31813
 C684 C 1.11397 -0.12023 0.33699
 C685 C 1.10024 -0.10138 0.33566
 C686 C 1.09634 -0.09264 0.31432
 C687 C 1.10567 -0.10218 0.29553
 C688 C 1.09024 -0.09104 0.35612
 C689 C 1.07653 -0.07217 0.35483
 C690 C 1.06736 -0.06270 0.37373
 C691 C 1.07155 -0.07169 0.39445
 C692 C 1.08495 -0.09023 0.39626
 C693 C 1.09417 -0.09979 0.37745
 C694 C 1.06208 -0.06196 0.41388
 C695 C 1.05416 -0.05389 0.43020
 H696 H 1.13367 -0.14405 0.31977
 H697 H 1.11795 -0.12815 0.35234
 H698 H 1.08618 -0.07842 0.31151
 H699 H 1.10237 -0.09505 0.27949
 H700 H 1.07253 -0.06427 0.33948
 H701 H 1.05696 -0.04829 0.37213
 H702 H 1.08831 -0.09735 0.41229
 H703 H 1.10431 -0.11403 0.38025
 C704 C 0.86281 0.13843 0.26196
 C705 C 0.87103 0.13035 0.27813
 C706 C 0.88072 0.12059 0.29744
 C707 C 0.87003 0.10336 0.30817
 C708 C 0.87933 0.09379 0.32694
 C709 C 0.89974 0.10123 0.33560
 C710 C 0.91024 0.11877 0.32429
 C711 C 0.90083 0.12826 0.30551
 C712 C 0.90983 0.09092 0.35603
 C713 C 0.93025 0.09834 0.36471
 C714 C 0.93943 0.08888 0.38360
 C715 C 0.92861 0.07176 0.39441
 C716 C 0.90855 0.06407 0.38625
 C717 C 0.89927 0.07345 0.36738
 C718 C 0.93805 0.06215 0.41392
 C719 C 0.94598 0.05414 0.43027
 H720 H 0.85440 0.09726 0.30202
 H721 H 0.87004 0.08060 0.33424
 H722 H 0.92575 0.12562 0.32948
 H723 H 0.90930 0.14164 0.29728
 H724 H 0.93960 0.11145 0.35734
 H725 H 0.95503 0.09498 0.38980
 H726 H 0.90000 0.05076 0.39452
 H727 H 0.88377 0.06660 0.36217
 C728 C 0.13707 0.26228 -0.13806
 C729 C 0.12889 0.27842 -0.12994
 C730 C 0.11927 0.29774 -0.12020
 C731 C 0.13131 0.31723 -0.11924
 C732 C 0.12210 0.33605 -0.10977
 C733 C 0.10044 0.33594 -0.10088
 C734 C 0.08862 0.31584 -0.10208
 C735 C 0.09795 0.29708 -0.11160
 C736 C 0.09039 0.35637 -0.09061
 C737 C 0.06870 0.35631 -0.08179
 C738 C 0.05949 0.37519 -0.07241
 C739 C 0.07155 0.39467 -0.07151
 C740 C 0.09292 0.39524 -0.07999
 C741 C 0.10225 0.37644 -0.08939
 C742 C 0.06201 0.41411 -0.06194
 C743 C 0.05405 0.43043 -0.05397
 H744 H 0.14791 0.31792 -0.12586
 H745 H 0.13245 0.35041 -0.10970
 H746 H 0.07211 0.31400 -0.09583
 H747 H 0.08845 0.28200 -0.11224
 H748 H 0.05833 0.34196 -0.08188
 H749 H 0.04286 0.37456 -0.06585
 H750 H 0.10246 0.41030 -0.07937
 H751 H 0.11879 0.37824 -0.09555
 C752 C -0.13749 0.26241 0.13769
 C753 C -0.12928 0.27856 0.12963
 C754 C -0.11950 0.29784 0.12001
 C755 C -0.11488 0.31609 0.13309
 C756 C -0.10551 0.33491 0.12379
 C757 C -0.10046 0.33604 0.10097
 C758 C -0.10529 0.31717 0.08812
 C759 C -0.11466 0.29840 0.09755
 C760 C -0.09039 0.35650 0.09078
 C761 C -0.08541 0.35768 0.06795
 C762 C -0.07618 0.37658 0.05864
 C763 C -0.07165 0.39485 0.07173
 C764 C -0.07634 0.39420 0.09421
 C765 C -0.08556 0.37537 0.10365
 C766 C -0.06217 0.41429 0.06212
 C767 C -0.05423 0.43061 0.05414
 H768 H -0.11855 0.31581 0.15059
 H769 H -0.10249 0.34829 0.13498
 H770 H -0.10207 0.31631 0.07070
 H771 H -0.11817 0.28428 0.08723
 H772 H -0.08842 0.34430 0.05676
 H773 H -0.07259 0.37691 0.04113
 H774 H -0.07288 0.40831 0.10454
 H775 H -0.08869 0.37618 0.12109
 C776 C -0.13699 0.73762 -0.13793
 C777 C -0.12890 0.72141 -0.12988
 C778 C -0.11931 0.70208 -0.12015
 C779 C -0.09663 0.69850 -0.12143
 C780 C -0.08726 0.67977 -0.11190
 C781 C -0.10039 0.66399 -0.10073
 C782 C -0.12341 0.66812 -0.09973
 C783 C -0.13265 0.68687 -0.10931
 C784 C -0.09029 0.64362 -0.09040
 C785 C -0.10344 0.62777 -0.07935
 C786 C -0.09410 0.60894 -0.07001
 C787 C -0.07143 0.60531 -0.07136
 C788 C -0.05805 0.62063 -0.08201
 C789 C -0.06726 0.63950 -0.09138
 C790 C -0.06191 0.58582 -0.06188
 C791 C -0.05397 0.56946 -0.05396
 H792 H -0.08610 0.71022 -0.12982
 H793 H -0.06967 0.67820 -0.11362
 H794 H -0.13481 0.65720 -0.09167
 H795 H -0.15031 0.68950 -0.10822
 H796 H -0.12103 0.62935 -0.07762
 H797 H -0.10465 0.59715 -0.06174
 H798 H -0.04040 0.61798 -0.08312
 H799 H -0.05584 0.65051 -0.09928
 C800 C 0.13695 0.73758 0.13777
 C801 C 0.12878 0.72142 0.12972
 C802 C 0.11917 0.70207 0.12006
 C803 C 0.09683 0.70167 0.11464
 C804 C 0.08749 0.68289 0.10521
 C805 C 0.10031 0.66385 0.10091
 C806 C 0.12298 0.66479 0.10665
 C807 C 0.13220 0.68363 0.11605
 C808 C 0.09026 0.64342 0.09067
 C809 C 0.10313 0.62442 0.08630
 C810 C 0.09381 0.60561 0.07692
 C811 C 0.07146 0.60512 0.07159
 C812 C 0.05838 0.62354 0.07562
 C813 C 0.06757 0.64241 0.08501
 C814 C 0.06194 0.58567 0.06204
 C815 C 0.05402 0.56934 0.05409
 H816 H 0.08654 0.71593 0.11769
 H817 H 0.07016 0.68388 0.10149
 H818 H 0.13413 0.65127 0.10411
 H819 H 0.14959 0.68377 0.12020
 H820 H 0.12047 0.62348 0.08992
 H821 H 0.10414 0.59139 0.07385
 H822 H 0.04097 0.62334 0.07153
 H823 H 0.05640 0.65591 0.08762
 C824 C 0.26208 1.13783 0.86250
 C825 C 0.27831 1.12971 0.87057
 C826 C 0.29766 1.11999 0.88021
 C827 C 0.31009 1.10481 0.86830
 C828 C 0.32887 1.09527 0.87763
 C829 C 0.33580 1.10069 0.89930
 C830 C 0.32278 1.11619 0.91099
 C831 C 0.30403 1.12565 0.90153
 C832 C 0.35621 1.09043 0.90948
 C833 C 0.36317 1.09589 0.93113
 C834 C 0.38207 1.08652 0.94038
 C835 C 0.39459 1.07145 0.92841
 C836 C 0.38814 1.06568 0.90714
 C837 C 0.36926 1.07498 0.89776
 C838 C 0.41409 1.06195 0.93794
 C839 C 0.43045 1.05400 0.94591
 H840 H 0.30528 1.10029 0.85170
 H841 H 0.33755 1.08372 0.86739
 H842 H 0.32659 1.12141 0.92749
 H843 H 0.29447 1.13744 0.91094
 H844 H 0.35443 1.10737 0.94141
 H845 H 0.38693 1.09110 0.95695
 H846 H 0.39775 1.05396 0.89770
 H847 H 0.36541 1.06969 0.88129
 C848 C 0.26186 0.86199 1.13700
 C849 C 0.27811 0.87006 1.12892
 C850 C 0.29751 0.87970 1.11932
 C851 C 0.31815 0.87595 1.12872
 C852 C 0.33705 0.88533 1.11947
 C853 C 0.33584 0.89882 1.10042
 C854 C 0.31460 0.90229 1.09123
 C855 C 0.29578 0.89285 1.10058
 C856 C 0.35632 0.90908 1.09036
 C857 C 0.35512 0.92259 1.07133
 C858 C 0.37403 0.93201 1.06212
 C859 C 0.39465 0.92828 1.07157
 C860 C 0.39637 0.91509 1.09027
 C861 C 0.37755 0.90562 1.09957
 C862 C 0.41408 0.93794 1.06205
 C863 C 0.43039 0.94598 1.05409
 H864 H 0.31968 0.86574 1.14328
 H865 H 0.35233 0.88165 1.12769
 H866 H 0.31189 0.91222 1.07681
 H867 H 0.27981 0.89586 1.09315
 H868 H 0.33985 0.92625 1.06308
 H869 H 0.37252 0.94224 1.04757
 H870 H 0.41233 0.91209 1.09773
 H871 H 0.38027 0.89567 1.11398
 C872 C 0.73790 1.13791 1.13725
 C873 C 0.72168 1.12984 1.12913
 C874 C 0.70231 1.12020 1.11947
 C875 C 0.68160 1.12937 1.12340
 C876 C 0.66273 1.12001 1.11409
 C877 C 0.66403 1.10109 1.10048
 C878 C 0.68535 1.09218 1.09676
 C879 C 0.70414 1.10163 1.10614
 C880 C 0.64357 1.09084 1.09040
 C881 C 0.64484 1.07182 1.07692
 C882 C 0.62594 1.06241 1.06770
 C883 C 0.60525 1.07162 1.07161
 C884 C 0.60346 1.09031 1.08477
 C885 C 0.62227 1.09981 1.09404
 C886 C 0.58583 1.06194 1.06209
 C887 C 0.56950 1.05392 1.05414
 H888 H 0.67999 1.14382 1.13372
 H889 H 0.64739 1.12804 1.11795
 H890 H 0.68815 1.07791 1.08668
 H891 H 0.72017 1.09437 1.10298
 H892 H 0.66017 1.06374 1.07315
 H893 H 0.62752 1.04789 1.05747
 H894 H 0.58744 1.09760 1.08791
 H895 H 0.61949 1.11420 1.10396
 C896 C 0.73813 0.86218 0.86272
 C897 C 0.72193 0.87031 0.87085
 C898 C 0.70256 0.87997 0.88054
 C899 C 0.68384 0.86719 0.88422
 C900 C 0.66496 0.87652 0.89357
 C901 C 0.66425 0.89904 0.89957
 C902 C 0.68358 0.91160 0.89564
 C903 C 0.70240 0.90216 0.88626
 C904 C 0.64376 0.90923 0.90969
 C905 C 0.64299 0.93180 0.91555
 C906 C 0.62407 0.94112 0.92483
 C907 C 0.60537 0.92832 0.92853
 C908 C 0.60562 0.90609 0.92297
 C909 C 0.62448 0.89664 0.91371
 C910 C 0.58590 0.93796 0.93801
 C911 C 0.56956 0.94599 0.94594
 H912 H 0.68380 0.84992 0.87983
 H913 H 0.65121 0.86557 0.89583
 H914 H 0.68477 0.92879 0.89959
 H915 H 0.71687 0.91224 0.88346
 H916 H 0.65671 0.94277 0.91320
 H917 H 0.62405 0.95842 0.92911
 H918 H 0.59116 0.89598 0.92579
 H919 H 0.62334 0.87942 0.90990
   
