data_POSCAR
  _audit_creation_date              2014-09-24
  _audit_creation_method            'ToBaCCo'
  _symmetry_space_group_name_H-M    'P1'
  _symmetry_Int_Tables_number       1
  _symmetry_cell_setting            triclinic
  loop_
  _symmetry_equiv_pos_as_xyz
 x,y,z
_cell_length_a 14.2437
_cell_length_b 14.2589
_cell_length_c 36.5496
_cell_angle_alpha 84.776000
_cell_angle_beta 89.878000
_cell_angle_gamma 118.486400
loop_
  _atom_site_label
  _atom_site_type_symbol
  _atom_site_fract_x
  _atom_site_fract_y
  _atom_site_fract_z
C1 C -0.02613 0.10420 0.55428
 H2 H 0.03450 0.07916 0.55624
 C3 C -0.03038 0.16949 0.57943
 H4 H 0.02628 0.19308 0.60093
 C5 C -0.16729 0.11089 0.52193
 H6 H -0.21671 0.09202 0.49846
 C7 C -0.17518 0.17612 0.54707
 H8 H -0.23299 0.20470 0.54346
 N9 N -0.09288 0.07695 0.52602
 C10 C -0.13868 -0.19209 0.52978
 H11 H -0.21120 -0.19293 0.52090
 C12 C -0.14574 -0.27880 0.55277
 H13 H -0.22345 -0.34592 0.56139
 C14 C 0.05030 -0.10068 0.53181
 H15 H 0.12605 -0.02970 0.52450
 C16 C 0.04666 -0.18548 0.55549
 H17 H 0.11971 -0.17981 0.56630
 Zn18 Zn -0.04947 0.01038 0.49211
 N19 N -0.04203 -0.10503 0.51983
 C20 C 0.15823 0.09874 0.45555
 N21 N 0.08431 0.11980 0.47106
 C22 C 0.09724 0.22129 0.46845
 C23 C 0.18436 0.30552 0.44831
 C24 C 0.24645 0.18083 0.43486
 C25 C -0.25063 -0.10225 0.45976
 C26 C -0.31604 -0.18239 0.43804
 C27 C -0.15967 -0.14853 0.40169
 C28 C -0.09756 -0.06889 0.42398
 N29 N -0.14273 -0.05137 0.45364
 H30 H 0.14555 0.01737 0.45738
 H31 H 0.03673 0.23632 0.48023
 H32 H 0.19033 0.38447 0.44466
 H33 H 0.30156 0.16246 0.42066
 H34 H -0.28561 -0.08823 0.48353
 H35 H -0.40139 -0.22258 0.44440
 H36 H -0.11855 -0.16435 0.38012
 H37 H -0.01183 -0.02808 0.41935
 C38 C -0.05260 -0.27495 0.56637
 C39 C -0.10499 0.20690 0.57600
 C40 C -0.27014 -0.21420 0.41050
 C41 C 0.25807 0.28472 0.43040
 C42 C 1.21667 0.14372 0.11954
 H43 H 1.21784 0.21662 0.12608
 C44 C 1.29543 0.15005 0.09532
 H45 H 1.35528 0.22733 0.08233
 C46 C 1.14050 -0.04572 0.12972
 H47 H 1.08143 -0.12129 0.14382
 C48 C 1.21756 -0.04309 0.10529
 H49 H 1.21661 -0.11701 0.09997
 N50 N 1.14098 0.04705 0.13602
 C51 C 0.84411 0.01634 0.15053
 H52 H 0.81548 -0.04352 0.17383
 C53 C 0.77225 0.01229 0.12425
 H54 H 0.69133 -0.05387 0.12693
 C55 C 0.98290 0.17287 0.11838
 H56 H 1.06610 0.23299 0.11517
 C57 C 0.91050 0.17760 0.09319
 H58 H 0.93796 0.24362 0.07164
 Zn59 Zn 1.04867 0.05480 0.17117
 N60 N 0.94960 0.08980 0.14552
 C61 C 1.14156 0.25245 0.20531
 N62 N 1.14242 0.15970 0.20009
 C63 C 1.21903 0.13752 0.21400
 C64 C 1.29687 0.20784 0.23533
 C65 C 1.21900 0.32595 0.22647
 C66 C 0.89581 -0.16390 0.18621
 C67 C 0.81699 -0.25192 0.20810
 C68 C 0.90698 -0.17325 0.26178
 C69 C 0.97834 -0.08211 0.23894
 N70 N 0.97034 -0.07798 0.20180
 H71 H 1.08078 0.26881 0.19338
 H72 H 1.21843 0.06375 0.20881
 H73 H 1.35490 0.18729 0.24743
 H74 H 1.21653 0.39829 0.23172
 H75 H 0.89004 -0.15892 0.15664
 H76 H 0.75157 -0.30891 0.19400
 H77 H 0.91660 -0.17306 0.29111
 H78 H 1.03731 -0.01335 0.25124
 C79 C 0.80514 0.09248 0.09462
 C80 C 1.29579 0.05586 0.08799
 C81 C 0.82144 -0.25950 0.24679
 C82 C 1.29694 0.30282 0.24186
 C83 C 0.11281 0.88261 0.88007
 H84 H 0.04197 0.80630 0.87842
 C85 C 0.19426 0.88832 0.90228
 H86 H 0.18494 0.81694 0.91869
 C87 C 0.20831 1.07009 0.86227
 H88 H 0.21220 1.14050 0.84693
 C89 C 0.29294 1.07911 0.88361
 H90 H 0.36148 1.15717 0.88537
 N91 N 0.11955 0.97319 0.86173
 C92 C -0.19885 0.93541 0.85475
 H93 H -0.20143 0.95291 0.82545
 C94 C -0.26637 0.94905 0.87894
 H95 H -0.31784 0.97912 0.86729
 C96 C -0.11517 0.89371 0.90456
 H97 H -0.05297 0.87746 0.91486
 C98 C -0.18673 0.89819 0.92966
 H99 H -0.18173 0.87852 0.95866
 Zn100 Zn 0.00105 0.95612 0.83482
 N101 N -0.11947 0.91665 0.86784
 C102 C -0.11924 0.76681 0.79840
 N103 N -0.02152 0.85042 0.80337
 C104 C 0.06869 0.86240 0.78597
 C105 C 0.06280 0.79099 0.76144
 C106 C -0.12867 0.69240 0.77421
 C107 C -0.01081 1.14744 0.81883
 C108 C -0.02689 1.21994 0.79489
 C109 C 0.05696 1.17997 0.74564
 C110 C 0.06562 1.10361 0.77006
 N111 N 0.02800 1.08564 0.80567
 H112 H -0.18956 0.75861 0.81282
 H113 H 0.14559 0.92864 0.79093
 H114 H 0.13487 0.80278 0.74711
 H115 H -0.20661 0.62673 0.76976
 H116 H -0.03725 1.13472 0.84745
 H117 H -0.06754 1.26048 0.80528
 H118 H 0.08482 1.19118 0.71718
 H119 H 0.09739 1.05530 0.75988
 C120 C -0.25882 0.93448 0.91740
 C121 C 0.28493 0.98766 0.90445
 C122 C 0.00462 1.23492 0.75747
 C123 C -0.03662 0.70498 0.75546
 C124 C 0.26800 0.06380 -0.02680
 C125 C 0.26976 0.07751 0.00980
 C126 C 0.35084 0.05956 0.02376
 N127 N 0.39728 0.03351 -0.00281
 C128 C 0.34697 0.03613 -0.03377
 C129 C 0.37555 0.06029 0.06100
 C130 C 0.47046 0.06369 0.07399
 C131 C 0.49550 0.06661 0.11059
 C132 C 0.59602 0.07641 0.11188
 C133 C 0.62903 0.07583 0.07609
 N134 N 0.55310 0.07156 0.05310
 C135 C 0.72846 0.08290 0.06535
 C136 C 0.75185 0.06681 0.02925
 C137 C 0.85234 0.09123 0.01523
 C138 C 0.83986 0.05965 -0.01951
 C139 C 0.73126 0.01150 -0.02542
 N140 N 0.67791 0.01747 0.00434
 C141 C 0.68237 -0.03900 -0.05739
 C142 C 0.57689 -0.05938 -0.06541
 C143 C 0.51171 -0.13066 -0.08945
 C144 C 0.42397 -0.11543 -0.09366
 C145 C 0.43489 -0.03933 -0.07065
 N146 N 0.52787 -0.00579 -0.05338
 C147 C 0.36144 -0.00044 -0.06671
 H148 H 0.21144 0.06862 -0.04556
 H149 H 0.21639 0.09707 0.02447
 H150 H 0.56145 0.05907 -0.03776
 H151 H 0.44771 0.06512 0.13392
 H152 H 0.63948 0.08464 0.13662
 H153 H 0.92805 0.12903 0.02796
 H154 H 0.90465 0.07234 -0.03826
 H155 H 0.35897 -0.15721 -0.11120
 H156 H 0.56129 0.08166 0.02463
 H157 H 0.52662 -0.18669 -0.10322
 C158 C -0.12001 0.15157 0.69212
 C159 C -0.14450 0.14580 0.65582
 C160 C -0.10831 0.25030 0.64024
 N161 N -0.06312 0.31952 0.66582
 C162 C -0.06969 0.25944 0.69752
 C163 C -0.10397 0.28168 0.60218
 C164 C -0.08053 0.38716 0.58857
 C165 C -0.04704 0.43306 0.55263
 C166 C -0.03401 0.53558 0.55103
 C167 C -0.05948 0.54955 0.58605
 N168 N -0.08894 0.45831 0.60861
 C169 C -0.06128 0.64240 0.59582
 C170 C -0.07277 0.66061 0.63249
 C171 C -0.09343 0.74054 0.64279
 C172 C -0.09112 0.73592 0.68039
 C173 C -0.06775 0.65427 0.69177
 N174 N -0.05627 0.60863 0.66244
 C175 C -0.04435 0.63197 0.72796
 C176 C -0.01446 0.55215 0.73753
 C177 C 0.04651 0.55097 0.76688
 C178 C 0.05655 0.45974 0.76658
 C179 C -0.00178 0.40580 0.73784
 N180 N -0.04411 0.46332 0.72015
 C181 C -0.02254 0.30218 0.73028
 H182 H -0.13648 0.08414 0.71215
 H183 H -0.18226 0.07328 0.64218
 H184 H -0.10003 0.43810 0.69999
 H185 H -0.03255 0.39707 0.52995
 H186 H -0.00880 0.59319 0.52682
 H187 H -0.10716 0.79739 0.62506
 H188 H -0.10136 0.78934 0.69724
 H189 H 0.10065 0.43554 0.78577
 H190 H -0.12241 0.44160 0.63528
 H191 H 0.08145 0.61011 0.78626
 C192 C 0.72806 0.55001 0.33136
 C193 C 0.70991 0.56301 0.36671
 C194 C 0.71559 0.66300 0.36593
 N195 N 0.73750 0.71268 0.33115
 C196 C 0.74530 0.64272 0.31013
 C197 C 0.67196 0.69213 0.39489
 C198 C 0.57166 0.60983 0.41025
 C199 C 0.54473 0.57347 0.44724
 C200 C 0.45113 0.47691 0.44874
 C201 C 0.42421 0.45727 0.41267
 N202 N 0.49717 0.53957 0.38970
 C203 C 0.33466 0.36562 0.40179
 C204 C 0.31011 0.34703 0.36475
 C205 C 0.21044 0.27442 0.35387
 C206 C 0.21918 0.27747 0.31647
 C207 C 0.32445 0.35085 0.30554
 N208 N 0.37994 0.39304 0.33519
 C209 C 0.36859 0.36917 0.26917
 C210 C 0.47825 0.43661 0.25876
 C211 C 0.52991 0.43373 0.22695
 C212 C 0.63584 0.51082 0.22755
 C213 C 0.64494 0.56162 0.25895
 N214 N 0.54913 0.51433 0.27797
 C215 C 0.73749 0.64719 0.27170
 H216 H 0.72136 0.47762 0.32169
 H217 H 0.68629 0.50259 0.39006
 H218 H 0.53264 0.54058 0.30157
 H219 H 0.59172 0.60768 0.47044
 H220 H 0.40988 0.42526 0.47352
 H221 H 0.13853 0.22448 0.37108
 H222 H 0.15560 0.22846 0.29950
 H223 H 0.69900 0.52240 0.20825
 H224 H 0.49858 0.55010 0.36118
 H225 H 0.49607 0.37903 0.20613
   
