data_POSCAR
  _audit_creation_date              2014-09-24
  _audit_creation_method            'ToBaCCo'
  _symmetry_space_group_name_H-M    'P1'
  _symmetry_Int_Tables_number       1
  _symmetry_cell_setting            triclinic
  loop_
  _symmetry_equiv_pos_as_xyz
 x,y,z
_cell_length_a 40.8837
_cell_length_b 39.2522
_cell_length_c 32.9317
_cell_angle_alpha 89.441500
_cell_angle_beta 90.283200
_cell_angle_gamma 119.225200
loop_
  _atom_site_label
  _atom_site_type_symbol
  _atom_site_fract_x
  _atom_site_fract_y
  _atom_site_fract_z
C1 C 0.00463 0.52428 -0.01136
 C2 C 0.00285 0.48856 -0.01200
 C3 C 0.02735 0.47955 0.01427
 C4 C -0.02315 0.45646 -0.03922
 C5 C -0.01957 0.53376 -0.03776
 C6 C 0.03085 0.55625 0.01591
 C7 C 0.06656 0.50243 0.01294
 C8 C 0.08891 0.49431 0.03920
 C9 C 0.07234 0.46281 0.06688
 C10 C 0.03327 0.43896 0.06668
 C11 C 0.01098 0.44729 0.04071
 C12 C -0.00876 0.43803 -0.06393
 C13 C -0.03204 0.40860 -0.09053
 C14 C -0.07045 0.39701 -0.09379
 C15 C -0.08510 0.41487 -0.06789
 C16 C -0.06175 0.44379 -0.04055
 C17 C -0.03980 0.55037 -0.02034
 C18 C -0.06308 0.55911 -0.04421
 C19 C -0.06725 0.55049 -0.08567
 C20 C -0.04634 0.53490 -0.10350
 C21 C -0.02204 0.52740 -0.07987
 C22 C 0.03239 0.55028 0.05791
 C23 C 0.05702 0.58096 0.08271
 C24 C 0.07954 0.61844 0.06615
 C25 C 0.07706 0.62470 0.02458
 C26 C 0.05331 0.59384 -0.00038
 H27 H 0.07977 0.52676 -0.00814
 H28 H 0.11902 0.51245 0.03743
 H29 H 0.01988 0.41426 0.08731
 H30 H -0.01919 0.42898 0.04179
 H31 H 0.02082 0.44689 -0.06312
 H32 H -0.01953 0.39551 -0.10936
 H33 H -0.07376 0.45664 -0.02073
 H34 H -0.03790 0.55613 0.01193
 H35 H -0.07873 0.57151 -0.03010
 H36 H -0.04857 0.52891 -0.13573
 H37 H -0.00562 0.51610 -0.09432
 H38 H 0.01435 0.52201 0.07156
 H39 H 0.05765 0.57569 0.11497
 H40 H 0.09384 0.65348 0.01133
 H41 H 0.05232 0.59934 -0.03254
 H42 H -0.11446 0.40659 -0.06771
 C43 C 0.51508 0.50449 0.00621
 C44 C 0.48035 0.47239 0.01020
 C45 C 0.46743 0.43799 -0.01679
 C46 C 0.45343 0.47110 0.04132
 C47 C 0.52374 0.54154 0.02667
 C48 C 0.54531 0.50373 -0.01817
 C49 C 0.47296 0.44293 -0.05899
 C50 C 0.46203 0.41067 -0.08398
 C51 C 0.44438 0.37276 -0.06738
 C52 C 0.43688 0.36762 -0.02562
 C53 C 0.44858 0.39999 -0.00044
 C54 C 0.41716 0.46281 0.02999
 C55 C 0.39304 0.46507 0.05850
 C56 C 0.40492 0.47565 0.09884
 C57 C 0.44073 0.48270 0.11034
 C58 C 0.46452 0.47977 0.08206
 C59 C 0.55266 0.55790 0.05539
 C60 C 0.55655 0.58865 0.07979
 C61 C 0.53173 0.60378 0.07540
 C62 C 0.50419 0.58867 0.04504
 C63 C 0.50047 0.55815 0.02060
 C64 C 0.55342 0.47301 -0.01359
 C65 C 0.57958 0.47065 -0.03884
 C66 C 0.59891 0.49939 -0.06855
 C67 C 0.59186 0.53103 -0.07208
 C68 C 0.56543 0.53321 -0.04695
 H69 H 0.48599 0.47182 -0.07258
 H70 H 0.46702 0.41533 -0.11634
 H71 H 0.42287 0.33857 -0.01236
 H72 H 0.44344 0.39541 0.03191
 H73 H 0.40803 0.45600 -0.00125
 H74 H 0.36583 0.46015 0.04850
 H75 H 0.49207 0.48540 0.09167
 H76 H 0.57076 0.54534 0.06058
 H77 H 0.57769 0.59895 0.10332
 H78 H 0.48481 0.59981 0.04095
 H79 H 0.47822 0.54614 -0.00176
 H80 H 0.53884 0.45033 0.00897
 H81 H 0.58446 0.44601 -0.03542
 H82 H 0.60554 0.55334 -0.09513
 H83 H 0.55968 0.55720 -0.05100
 H84 H 0.45045 0.49083 0.14124
 C85 C 0.50048 1.01637 0.02529
 C86 C 0.53193 1.01401 0.01721
 C87 C 0.55600 1.03435 -0.01838
 C88 C 0.54436 0.99220 0.04428
 C89 C 0.47256 0.98942 0.05488
 C90 C 0.49249 1.04486 0.00344
 C91 C 0.54025 1.02952 -0.05731
 C92 C 0.56201 1.05185 -0.08995
 C93 C 0.60015 1.07855 -0.08460
 C94 C 0.61638 1.08203 -0.04600
 C95 C 0.59444 1.05997 -0.01319
 C96 C 0.54580 0.95945 0.03002
 C97 C 0.55986 0.94043 0.05480
 C98 C 0.57311 0.95426 0.09412
 C99 C 0.57229 0.98754 0.10788
 C100 C 0.55785 1.00625 0.08327
 C101 C 0.47352 1.00049 0.09538
 C102 C 0.44823 0.97395 0.12362
 C103 C 0.42089 0.93656 0.11139
 C104 C 0.41965 0.92581 0.07059
 C105 C 0.44557 0.95196 0.04265
 C106 C 0.51965 1.08449 0.00240
 C107 C 0.51539 1.11049 -0.02333
 C108 C 0.48357 1.09779 -0.04830
 C109 C 0.45498 1.05842 -0.04489
 C110 C 0.45950 1.03232 -0.01923
 H111 H 0.51079 1.00929 -0.06213
 H112 H 0.54891 1.04866 -0.11938
 H113 H 0.64552 1.10293 -0.04058
 H114 H 0.60713 1.06412 0.01658
 H115 H 0.53625 0.94882 -0.00037
 H116 H 0.56106 0.91549 0.04282
 H117 H 0.55790 1.03219 0.09426
 H118 H 0.49429 1.02932 0.10522
 H119 H 0.44982 0.98267 0.15500
 H120 H 0.39937 0.89686 0.06057
 H121 H 0.44478 0.94295 0.01151
 H122 H 0.54505 1.09495 0.02022
 H123 H 0.53778 1.14052 -0.02454
 H124 H 0.42978 1.04684 -0.06299
 H125 H 0.43808 1.00190 -0.01877
 H126 H 0.58263 0.99895 0.13786
 C127 C 0.98202 0.51433 0.47967
 C128 C 0.98330 0.48023 0.47936
 C129 C 1.00911 0.47487 0.45176
 C130 C 0.95962 0.44674 0.50641
 C131 C 0.95840 0.52209 0.50845
 C132 C 1.00472 0.54589 0.45036
 C133 C 0.99469 0.44401 0.42415
 C134 C 1.01863 0.43854 0.39820
 C135 C 1.05764 0.46390 0.39906
 C136 C 1.07203 0.49449 0.42761
 C137 C 1.04799 0.49957 0.45383
 C138 C 0.92053 0.43083 0.50770
 C139 C 0.89902 0.40040 0.53477
 C140 C 0.91631 0.38514 0.56071
 C141 C 0.95515 0.39992 0.55787
 C142 C 0.97661 0.43046 0.53107
 C143 C 0.95753 0.51387 0.55025
 C144 C 0.93437 0.52046 0.57640
 C145 C 0.91282 0.53685 0.56151
 C146 C 0.91509 0.54689 0.52029
 C147 C 0.93730 0.53919 0.49393
 C148 C 1.03681 0.57928 0.46365
 C149 C 1.06015 0.60775 0.43578
 C150 C 1.05117 0.60375 0.39398
 C151 C 1.01762 0.57115 0.38137
 C152 C 0.99496 0.54213 0.40919
 H153 H 0.96478 0.42429 0.42248
 H154 H 1.00643 0.41450 0.37704
 H155 H 1.10167 0.51430 0.43081
 H156 H 1.05980 0.52268 0.47602
 H157 H 0.90678 0.44224 0.48804
 H158 H 0.86898 0.38877 0.53499
 H159 H 1.00668 0.44200 0.53020
 H160 H 0.97474 0.50236 0.56270
 H161 H 0.93393 0.51358 0.60839
 H162 H 0.89906 0.56003 0.50835
 H163 H 0.93777 0.54634 0.46203
 H164 H 1.04432 0.58271 0.49553
 H165 H 1.08460 0.63300 0.44752
 H166 H 1.00954 0.56730 0.34965
 H167 H 0.96997 0.51657 0.39864
 H168 H 0.96906 0.38837 0.57712
 C169 C 0.47099 0.48071 0.50491
 C170 C 0.50462 0.51318 0.51167
 C171 C 0.51547 0.55071 0.49026
 C172 C 0.53066 0.51263 0.54266
 C173 C 0.45867 0.44559 0.53093
 C174 C 0.44574 0.47888 0.47129
 C175 C 0.54799 0.56884 0.46631
 C176 C 0.55587 0.60193 0.44289
 C177 C 0.53144 0.61769 0.44338
 C178 C 0.49984 0.60039 0.46878
 C179 C 0.49205 0.56745 0.49215
 C180 C 0.56019 0.50626 0.53116
 C181 C 0.58347 0.50342 0.56059
 C182 C 0.57701 0.50609 0.60204
 C183 C 0.54705 0.51182 0.61348
 C184 C 0.52434 0.51563 0.58396
 C185 C 0.43705 0.44066 0.56564
 C186 C 0.42718 0.40876 0.59159
 C187 C 0.43948 0.38177 0.58380
 C188 C 0.46083 0.38653 0.54863
 C189 C 0.47031 0.41824 0.52239
 C190 C 0.40794 0.46730 0.47887
 C191 C 0.38496 0.46824 0.44778
 C192 C 0.39941 0.48070 0.40845
 C193 C 0.43688 0.49122 0.40067
 C194 C 0.45965 0.48973 0.43158
 H195 H 0.56643 0.55645 0.46416
 H196 H 0.58015 0.61384 0.42329
 H197 H 0.48052 0.61184 0.46978
 H198 H 0.46706 0.55421 0.51081
 H199 H 0.56469 0.50261 0.49951
 H200 H 0.60575 0.49791 0.55103
 H201 H 0.50131 0.52004 0.59327
 H202 H 0.42838 0.46190 0.57299
 H203 H 0.41068 0.40569 0.61840
 H204 H 0.47002 0.36575 0.54118
 H205 H 0.48717 0.42183 0.49575
 H206 H 0.39641 0.45882 0.50910
 H207 H 0.35643 0.46072 0.45505
 H208 H 0.44864 0.50089 0.37062
 H209 H 0.48844 0.49788 0.42471
 H210 H 0.54140 0.51355 0.64527
 C211 C 0.48295 -0.00843 0.49950
 C212 C 0.51720 -0.00660 0.49944
 C213 C 0.54921 0.02504 0.52184
 C214 C 0.52350 -0.03542 0.47659
 C215 C 0.45537 -0.02797 0.46614
 C216 C 0.47290 0.00991 0.53301
 C217 C 0.55718 0.06389 0.51667
 C218 C 0.58374 0.09330 0.54103
 C219 C 0.60362 0.08481 0.57053
 C220 C 0.59713 0.04619 0.57434
 C221 C 0.57018 0.01655 0.55000
 C222 C 0.55505 -0.02313 0.45169
 C223 C 0.55903 -0.04989 0.42733
 C224 C 0.53139 -0.08983 0.42753
 C225 C 0.50071 -0.10202 0.45399
 C226 C 0.49699 -0.07529 0.47842
 C227 C 0.41702 -0.05139 0.47444
 C228 C 0.39170 -0.07151 0.44316
 C229 C 0.40448 -0.06891 0.40285
 C230 C 0.44270 -0.04420 0.39468
 C231 C 0.46760 -0.02336 0.42567
 C232 C 0.47934 0.00312 0.57346
 C233 C 0.47561 0.02450 0.60483
 C234 C 0.46423 0.05222 0.59663
 C235 C 0.45533 0.05728 0.55645
 C236 C 0.45962 0.03617 0.52483
 H237 H 0.54180 0.07121 0.49462
 H238 H 0.58824 0.12274 0.53736
 H239 H 0.61147 0.03840 0.59719
 H240 H 0.56447 -0.01323 0.55442
 H241 H 0.57595 0.00747 0.44996
 H242 H 0.58334 -0.03843 0.40790
 H243 H 0.47280 -0.08563 0.49813
 H244 H 0.40680 -0.05509 0.50534
 H245 H 0.36273 -0.09041 0.45137
 H246 H 0.45354 -0.04100 0.36408
 H247 H 0.49675 -0.00425 0.41808
 H248 H 0.48890 -0.01759 0.58052
 H249 H 0.48256 0.02009 0.63552
 H250 H 0.44708 0.07894 0.54908
 H251 H 0.45446 0.04179 0.49385
 H252 H 0.47909 -0.13239 0.45549
 O253 O 0.18439 0.45256 0.20480
 O254 O 0.23271 0.43063 0.28739
 O255 O 0.18135 0.45190 0.28364
 O256 O 0.23446 0.43002 0.20804
 O257 O 0.27893 0.49178 0.20854
 O258 O 0.22609 0.51351 0.28460
 O259 O 0.27740 0.49229 0.28685
 O260 O 0.22867 0.51438 0.20539
 Cu261 Cu 0.20376 0.43506 0.24601
 Cu262 Cu 0.25716 0.50921 0.24640
 C263 C 0.19832 0.48725 0.19108
 C264 C 0.26358 0.45774 0.30083
 C265 C 0.19459 0.48644 0.29690
 C266 C 0.26579 0.45717 0.19550
 O267 O 0.61726 0.76928 0.21151
 O268 O 0.61625 0.83923 0.28357
 O269 O 0.61952 0.77441 0.29049
 O270 O 0.60607 0.82955 0.20566
 O271 O 0.54479 0.79174 0.21144
 O272 O 0.55804 0.73925 0.29626
 O273 O 0.55477 0.80356 0.28955
 O274 O 0.55589 0.73250 0.21738
 Cu275 Cu 0.62088 0.80671 0.24720
 Cu276 Cu 0.54732 0.76316 0.25435
 C277 C 0.58699 0.73912 0.20202
 C278 C 0.58560 0.83362 0.29873
 C279 C 0.59062 0.74735 0.30788
 C280 C 0.57279 0.81955 0.19417
 O281 O 0.18252 0.74526 0.28431
 O282 O 0.24284 0.81265 0.20432
 O283 O 0.18715 0.74115 0.20640
 O284 O 0.23798 0.81640 0.28364
 O285 O 0.27909 0.79549 0.28991
 O286 O 0.22615 0.71798 0.21606
 O287 O 0.28260 0.79019 0.21233
 O288 O 0.22385 0.72512 0.29443
 Cu289 Cu 0.20873 0.78126 0.24366
 Cu290 Cu 0.25691 0.75486 0.25367
 C291 C 0.19314 0.72398 0.30320
 C292 C 0.27312 0.81309 0.19496
 C293 C 0.19747 0.71613 0.19888
 C294 C 0.26726 0.81875 0.29984
 O295 O 0.80501 0.54376 0.70626
 O296 O 0.75238 0.56272 0.78524
 O297 O 0.80809 0.54743 0.78463
 O298 O 0.74999 0.55895 0.70588
 O299 O 0.70872 0.49623 0.71151
 O300 O 0.76843 0.48409 0.78773
 O301 O 0.71303 0.49949 0.79048
 O302 O 0.76428 0.48073 0.70984
 Cu303 Cu 0.78277 0.55961 0.74526
 Cu304 Cu 0.73439 0.48384 0.75031
 C305 C 0.79378 0.50892 0.69491
 C306 C 0.72380 0.53434 0.80139
 C307 C 0.79874 0.51361 0.79865
 C308 C 0.71938 0.52956 0.69544
 O309 O 0.41042 0.17336 0.79420
 O310 O 0.42674 0.24456 0.71181
 O311 O 0.40770 0.17092 0.71471
 O312 O 0.42829 0.24708 0.79078
 O313 O 0.48860 0.26541 0.78700
 O314 O 0.46719 0.18570 0.71598
 O315 O 0.48608 0.25889 0.70888
 O316 O 0.47093 0.19236 0.79488
 Cu317 Cu 0.41220 0.20722 0.75311
 Cu318 Cu 0.48416 0.22705 0.75165
 C319 C 0.43814 0.17127 0.80900
 C320 C 0.45922 0.26361 0.69614
 C321 C 0.43405 0.16527 0.70254
 C322 C 0.46206 0.26975 0.80109
 O323 O 0.81281 0.26900 0.78342
 O324 O 0.76079 0.19029 0.70986
 O325 O 0.80955 0.26457 0.70435
 O326 O 0.76371 0.19508 0.78876
 O327 O 0.71719 0.20851 0.78655
 O328 O 0.76463 0.28041 0.70508
 O329 O 0.71602 0.20634 0.70796
 O330 O 0.76633 0.28245 0.78436
 Cu331 Cu 0.79138 0.22835 0.74659
 Cu332 Cu 0.73651 0.24597 0.74593
 C333 C 0.79827 0.28884 0.79684
 C334 C 0.72955 0.18501 0.69627
 C335 C 0.79500 0.28447 0.69052
 C336 C 0.73229 0.18964 0.80163
 C337 C 0.09459 0.45361 0.09616
 C338 C 0.12797 0.48030 0.11045
 C339 C 0.14719 0.46971 0.14192
 C340 C 0.17928 0.49668 0.15841
 H341 H 0.14055 0.51042 0.10040
 H342 H 0.13453 0.43961 0.15226
 H343 H 0.08185 0.42415 0.10842
 H344 H 0.19178 0.52675 0.14805
 C345 C 0.53157 0.63282 0.10369
 C346 C 0.56117 0.65725 0.12580
 C347 C 0.55820 0.68396 0.15477
 C348 C 0.58867 0.71181 0.17295
 H349 H 0.58786 0.65807 0.12240
 H350 H 0.53091 0.68100 0.16102
 H351 H 0.50584 0.63429 0.10619
 H352 H 0.61600 0.71543 0.16551
 C353 C 0.39524 0.90857 0.14194
 C354 C 0.35908 0.88412 0.13413
 C355 C 0.33472 0.85596 0.16509
 C356 C 0.29750 0.84072 0.16371
 H357 H 0.34715 0.88540 0.10506
 H358 H 0.34751 0.84846 0.19004
 H359 H 0.40612 0.90917 0.17218
 H360 H 0.28488 0.85038 0.14052
 C361 C 0.88890 0.54504 0.58865
 C362 C 0.86698 0.51949 0.61688
 C363 C 0.84367 0.52859 0.64377
 C364 C 0.81564 0.50050 0.66521
 H365 H 0.86585 0.49139 0.61982
 H366 H 0.84971 0.55864 0.64624
 H367 H 0.88779 0.57182 0.58380
 H368 H 0.80885 0.47034 0.66138
 C369 C 0.42953 0.34920 0.61295
 C370 C 0.45143 0.33324 0.61990
 C371 C 0.44182 0.30307 0.65159
 C372 C 0.46657 0.29188 0.66300
 H373 H 0.47763 0.34379 0.60364
 H374 H 0.41485 0.29094 0.66662
 H375 H 0.40467 0.33995 0.63141
 H376 H 0.49386 0.30498 0.64854
 C377 C 0.62832 0.11644 0.59846
 C378 C 0.65646 0.11701 0.61991
 C379 C 0.67801 0.14930 0.64820
 C380 C 0.70881 0.15345 0.66695
 H381 H 0.66377 0.09413 0.61665
 H382 H 0.66831 0.17007 0.65387
 H383 H 0.62318 0.14096 0.60115
 H384 H 0.71907 0.13328 0.66066
 C385 C 0.48311 0.12455 0.92309
 C386 C 0.45497 0.11771 0.89741
 C387 C 0.46037 0.14667 0.86551
 C388 C 0.43199 0.14367 0.84260
 H389 H 0.42844 0.09100 0.89868
 H390 H 0.48841 0.17070 0.86026
 H391 H 0.50815 0.15292 0.92091
 H392 H 0.40367 0.12063 0.84870
 C393 C 0.62405 0.49379 0.90321
 C394 C 0.65163 0.52259 0.88181
 C395 C 0.67377 0.51393 0.85258
 C396 C 0.70276 0.54244 0.83256
 H397 H 0.65800 0.55258 0.88558
 H398 H 0.66577 0.48369 0.84686
 H399 H 0.61970 0.46437 0.90011
 H400 H 0.71101 0.57266 0.83873
 C401 C 0.90879 0.36937 0.87860
 C402 C 0.87139 0.35720 0.86826
 C403 C 0.85316 0.32821 0.83922
 C404 C 0.81712 0.31792 0.82561
 H405 H 0.85637 0.37070 0.88133
 H406 H 0.86762 0.31383 0.82649
 H407 H 0.92245 0.35611 0.86181
 H408 H 0.80326 0.33333 0.83732
 C409 C 0.53227 0.88202 0.40189
 C410 C 0.56002 0.88863 0.37603
 C411 C 0.55726 0.85754 0.34910
 C412 C 0.58663 0.86303 0.32678
 H413 H 0.58514 0.91667 0.37415
 H414 H 0.53120 0.83014 0.34752
 H415 H 0.50851 0.85268 0.40296
 H416 H 0.61285 0.89015 0.32944
 C417 C 0.37718 0.48576 0.37576
 C418 C 0.33984 0.46466 0.37311
 C419 C 0.31974 0.47305 0.34078
 C420 C 0.28354 0.44886 0.33294
 H421 H 0.32407 0.44113 0.39445
 H422 H 0.33503 0.49950 0.32281
 H423 H 0.39239 0.50748 0.35245
 H424 H 0.26856 0.42160 0.34965
 C425 C 0.07426 0.63094 0.36443
 C426 C 0.11049 0.65701 0.37019
 C427 C 0.13294 0.68361 0.33725
 C428 C 0.16998 0.69779 0.33595
 H429 H 0.12476 0.65748 0.39810
 H430 H 0.11890 0.69050 0.31313
 H431 H 0.06272 0.62912 0.33426
 H432 H 0.18350 0.68860 0.35856
 C433 C 0.90647 0.55786 0.89011
 C434 C 0.88089 0.53032 0.86634
 C435 C 0.85440 0.53751 0.84241
 C436 C 0.82378 0.50777 0.82651
 H437 H 0.87912 0.50186 0.86499
 H438 H 0.86033 0.56732 0.83727
 H439 H 0.90646 0.58525 0.89402
 H440 H 0.81750 0.47805 0.83301
 C441 C 0.43358 0.33840 0.90676
 C442 C 0.45604 0.33876 0.87725
 C443 C 0.44545 0.30455 0.85155
 C444 C 0.47126 0.30220 0.82891
 H445 H 0.48312 0.36448 0.87249
 H446 H 0.41657 0.28128 0.85119
 H447 H 0.40785 0.31173 0.91360
 H448 H 0.50033 0.32486 0.83090
 C449 C 0.62119 0.10434 0.88102
 C450 C 0.65833 0.12072 0.87670
 C451 C 0.67722 0.14822 0.84305
 C452 C 0.71331 0.16117 0.83452
 H453 H 0.67485 0.11402 0.89780
 H454 H 0.66119 0.15812 0.82493
 H455 H 0.60521 0.10986 0.85802
 H456 H 0.72907 0.15026 0.85159
 C457 C 0.08027 0.45710 0.37172
 C458 C 0.11721 0.48054 0.36619
 C459 C 0.13796 0.47035 0.33662
 C460 C 0.17347 0.49566 0.32684
 H461 H 0.13255 0.50772 0.38226
 H462 H 0.12380 0.44201 0.32224
 H463 H 0.06659 0.43120 0.35303
 H464 H 0.18723 0.52436 0.34045
 C465 C 0.53555 0.64949 0.41552
 C466 C 0.56643 0.67291 0.39414
 C467 C 0.56490 0.69974 0.36353
 C468 C 0.59466 0.72441 0.34139
 H469 H 0.59211 0.67164 0.39794
 H470 H 0.53801 0.69814 0.35794
 H471 H 0.51103 0.65305 0.41155
 H472 H 0.62189 0.72701 0.34722
 C473 C 0.38144 0.90847 0.37081
 C474 C 0.34393 0.88774 0.37175
 C475 C 0.32377 0.86103 0.33825
 C476 C 0.28747 0.84832 0.33104
 H477 H 0.32790 0.88977 0.39671
 H478 H 0.33907 0.85118 0.31924
 H479 H 0.39521 0.90766 0.34300
 H480 H 0.27246 0.85975 0.34819
 C481 C 0.58822 0.93498 0.12132
 C482 C 0.57525 0.89645 0.12118
 C483 C 0.58739 0.87741 0.15191
 C484 C 0.56547 0.83961 0.16043
 H485 H 0.55310 0.87818 0.10035
 H486 H 0.61253 0.89470 0.16956
 H487 H 0.60821 0.95246 0.14447
 H488 H 0.53905 0.82345 0.14449
 C489 C 0.38186 0.48227 0.12883
 C490 C 0.34440 0.46277 0.12891
 C491 C 0.32342 0.47194 0.15902
 C492 C 0.28690 0.44812 0.16546
 H493 H 0.32917 0.43968 0.10728
 H494 H 0.33829 0.49839 0.17665
 H495 H 0.39644 0.50342 0.15250
 H496 H 0.27241 0.42080 0.14920
 C497 C 0.10420 0.65189 0.09188
 C498 C 0.12497 0.64914 0.12184
 C499 C 0.14858 0.68316 0.14722
 C500 C 0.17549 0.68377 0.17092
 H501 H 0.12486 0.62182 0.12740
 H502 H 0.14367 0.70792 0.14664
 H503 H 0.10662 0.68006 0.08469
 H504 H 0.18125 0.65959 0.17024
 C505 C 0.46587 0.07794 0.62991
 C506 C 0.44428 0.09469 0.63188
 C507 C 0.45054 0.12268 0.66436
 C508 C 0.42611 0.13515 0.67194
 H509 H 0.42247 0.08818 0.60960
 H510 H 0.47602 0.13363 0.68220
 H511 H 0.48588 0.08322 0.65408
 H512 H 0.39992 0.12318 0.65532
 C513 C 0.60013 0.50127 0.63370
 C514 C 0.63717 0.51641 0.62976
 C515 C 0.65944 0.51078 0.66161
 C516 C 0.69638 0.53458 0.66408
 H517 H 0.65137 0.53396 0.60327
 H518 H 0.64538 0.48748 0.68376
 H519 H 0.58659 0.48642 0.66170
 H520 H 0.70993 0.55931 0.64347
 C521 C 0.89509 0.35389 0.59091
 C522 C 0.86276 0.34762 0.60734
 C523 C 0.84461 0.31803 0.63954
 C524 C 0.81322 0.31287 0.65735
 H525 H 0.85026 0.36533 0.59841
 H526 H 0.85738 0.30071 0.64916
 H527 H 0.90783 0.33696 0.60198
 H528 H 0.80053 0.33020 0.64751
   
