data_POSCAR
  _audit_creation_date              2014-09-24
  _audit_creation_method            'ToBaCCo'
  _symmetry_space_group_name_H-M    'P1'
  _symmetry_Int_Tables_number       1
  _symmetry_cell_setting            triclinic
  loop_
  _symmetry_equiv_pos_as_xyz
 x,y,z
_cell_length_a 19.8528
_cell_length_b 20.7627
_cell_length_c 32.6751
_cell_angle_alpha 88.800100
_cell_angle_beta 89.193800
_cell_angle_gamma 96.034300
loop_
  _atom_site_label
  _atom_site_type_symbol
  _atom_site_fract_x
  _atom_site_fract_y
  _atom_site_fract_z
O1 O -0.03014 0.42435 1.04008
 O2 O -0.05346 0.54035 0.95601
 O3 O -0.02754 0.42193 0.96167
 O4 O -0.06095 0.54407 1.03671
 O5 O 0.04828 0.57668 1.03902
 O6 O 0.08104 0.45798 0.96035
 O7 O 0.05376 0.57956 0.96005
 O8 O 0.07912 0.45764 1.04020
 Cu9 Cu -0.05413 0.47984 0.99879
 Cu10 Cu 0.07652 0.52139 0.99991
 C11 C 0.02885 0.41997 1.05376
 C12 C -0.00394 0.58031 0.94383
 C13 C 0.03219 0.41878 0.94813
 C14 C -0.01223 0.58101 1.05098
 O15 O 0.56748 -0.03199 0.54246
 O16 O 0.43831 -0.06563 0.46371
 O17 O 0.56889 -0.03734 0.46253
 O18 O 0.43726 -0.06086 0.54324
 O19 O 0.42697 0.04387 0.54139
 O20 O 0.55089 0.06537 0.45574
 O21 O 0.42131 0.03767 0.46178
 O22 O 0.56033 0.07265 0.53398
 Cu23 Cu 0.50436 -0.05935 0.50349
 Cu24 Cu 0.48820 0.06540 0.49825
 C25 C 0.58785 0.02634 0.55063
 C26 C 0.40734 -0.01974 0.44947
 C27 C 0.58166 0.01774 0.44479
 C28 C 0.40974 -0.01262 0.55632
 Si29 Si 0.00026 -0.00798 0.24173
 Si30 Si -0.01209 0.00403 0.75979
 C31 C 0.02396 -0.31953 0.09041
 C32 C 0.01056 -0.27196 0.11840
 C33 C -0.05345 -0.27541 0.13834
 C34 C -0.10306 -0.32625 0.12969
 C35 C -0.08962 -0.37294 0.10133
 C36 C -0.02606 -0.37010 0.08146
 C37 C -0.06701 -0.22771 0.16624
 C38 C -0.01769 -0.17606 0.17397
 C39 C 0.04607 -0.17238 0.15362
 C40 C 0.05995 -0.22057 0.12628
 C41 C 0.09467 -0.11992 0.16050
 C42 C 0.08024 -0.07140 0.18715
 C43 C 0.01776 -0.07527 0.20800
 C44 C -0.03134 -0.12743 0.20123
 H45 H 0.07302 -0.31650 0.07507
 H46 H -0.15243 -0.32965 0.14461
 H47 H -0.12899 -0.41147 0.09506
 H48 H -0.11608 -0.23042 0.18158
 H49 H 0.10889 -0.21766 0.11076
 H50 H 0.14354 -0.11604 0.14494
 H51 H 0.11809 -0.03072 0.19156
 H52 H -0.08042 -0.12953 0.21637
 C53 C -0.01001 0.31633 0.09133
 C54 C 0.00100 0.26630 0.11915
 C55 C 0.06153 0.26993 0.14168
 C56 C 0.11013 0.32353 0.13578
 C57 C 0.09929 0.37264 0.10746
 C58 C 0.03923 0.36950 0.08498
 C59 C 0.07276 0.21968 0.16935
 C60 C 0.02460 0.16544 0.17434
 C61 C -0.03559 0.16164 0.15140
 C62 C -0.04720 0.21224 0.12422
 C63 C -0.08299 0.10686 0.15571
 C64 C -0.07113 0.05645 0.18265
 C65 C -0.01246 0.06047 0.20619
 C66 C 0.03578 0.11463 0.20164
 H67 H -0.05623 0.31303 0.07386
 H68 H 0.15686 0.32712 0.15271
 H69 H 0.13798 0.41313 0.10312
 H70 H 0.11911 0.22253 0.18671
 H71 H -0.09341 0.20924 0.10671
 H72 H -0.12908 0.10290 0.13815
 H73 H -0.10826 0.01438 0.18542
 H74 H 0.08218 0.11701 0.21881
 C75 C 0.31615 0.02617 0.59894
 C76 C 0.26326 0.01434 0.62810
 C77 C 0.25121 -0.04738 0.64759
 C78 C 0.29228 -0.09592 0.63790
 C79 C 0.34422 -0.08399 0.60869
 C80 C 0.35653 -0.02315 0.58871
 C81 C 0.19789 -0.05997 0.67614
 C82 C 0.15601 -0.01181 0.68538
 C83 C 0.16796 0.05006 0.66614
 C84 C 0.22167 0.06283 0.63769
 C85 C 0.12558 0.09789 0.67556
 C86 C 0.07183 0.08440 0.70362
 C87 C 0.05978 0.02308 0.72273
 C88 C 0.10198 -0.02484 0.71344
 H89 H 0.32491 0.07322 0.58367
 H90 H 0.28378 -0.14341 0.65260
 H91 H 0.37459 -0.12279 0.60156
 H92 H 0.18867 -0.10742 0.69092
 H93 H 0.23071 0.11020 0.62280
 H94 H 0.13393 0.14562 0.66120
 H95 H 0.04001 0.12211 0.71057
 H96 H 0.09261 -0.07256 0.72770
 C97 C -0.33962 -0.00854 0.60480
 C98 C -0.28350 0.00377 0.63018
 C99 C -0.24185 0.06315 0.62599
 C100 C -0.26059 0.11145 0.59914
 C101 C -0.31910 0.10045 0.57591
 C102 C -0.35786 0.03956 0.57728
 C103 C -0.18244 0.07330 0.64883
 C104 C -0.16654 0.02640 0.67766
 C105 C -0.21185 -0.03007 0.68464
 C106 C -0.26890 -0.04204 0.66003
 C107 C -0.20011 -0.07281 0.71684
 C108 C -0.14263 -0.06102 0.74078
 C109 C -0.09298 -0.00967 0.73080
 C110 C -0.10663 0.03539 0.70015
 H111 H -0.37000 -0.05508 0.60722
 H112 H -0.23004 0.15777 0.59614
 H113 H -0.33181 0.13863 0.55521
 H114 H -0.14915 0.11789 0.64455
 H115 H -0.30239 -0.08646 0.66451
 H116 H -0.23632 -0.11432 0.72423
 H117 H -0.13876 -0.09122 0.76766
 H118 H -0.07119 0.07783 0.69404
 C119 C 0.03142 -0.31706 0.90799
 C120 C 0.02003 -0.26996 0.87814
 C121 C -0.03274 -0.28272 0.84990
 C122 C -0.07595 -0.34047 0.85368
 C123 C -0.06757 -0.38486 0.88545
 C124 C -0.01308 -0.37439 0.91248
 C125 C -0.04294 -0.23662 0.81924
 C126 C -0.00516 -0.17559 0.81881
 C127 C 0.04446 -0.16118 0.84880
 C128 C 0.05871 -0.20931 0.87722
 C129 C 0.07796 -0.09840 0.85032
 C130 C 0.06022 -0.04981 0.82355
 C131 C 0.01076 -0.06367 0.79383
 C132 C -0.01829 -0.12777 0.78992
 H133 H 0.07262 -0.30729 0.92918
 H134 H -0.11734 -0.35057 0.83271
 H135 H -0.10262 -0.42847 0.88800
 H136 H -0.08257 -0.24695 0.79707
 H137 H 0.09783 -0.19866 0.89967
 H138 H 0.11625 -0.08637 0.87302
 H139 H 0.08529 -0.00122 0.82613
 H140 H -0.05073 -0.14107 0.76460
 C141 C -0.00939 0.32109 0.90894
 C142 C 0.00072 0.27142 0.88194
 C143 C 0.06517 0.26847 0.86359
 C144 C 0.11847 0.31564 0.87277
 C145 C 0.10805 0.36491 0.90008
 C146 C 0.04405 0.36805 0.91844
 C147 C 0.07516 0.21827 0.83668
 C148 C 0.02153 0.17091 0.82823
 C149 C -0.04277 0.17408 0.84689
 C150 C -0.05278 0.22437 0.87342
 C151 C -0.09609 0.12648 0.83903
 C152 C -0.08603 0.07609 0.81289
 C153 C -0.02291 0.07290 0.79377
 C154 C 0.03103 0.12008 0.80170
 H155 H -0.05900 0.32259 0.92296
 H156 H 0.16827 0.31421 0.85905
 H157 H 0.15008 0.40045 0.90687
 H158 H 0.12457 0.21588 0.82254
 H159 H -0.10214 0.22662 0.88769
 H160 H -0.14549 0.12802 0.85331
 H161 H -0.12782 0.03948 0.80765
 H162 H 0.08034 0.11686 0.78775
 C163 C -0.32567 -0.02241 0.40248
 C164 C -0.27557 -0.01307 0.37155
 C165 C -0.26724 0.04595 0.34873
 C166 C -0.30918 0.09443 0.35713
 C167 C -0.35839 0.08501 0.38822
 C168 C -0.36701 0.02673 0.41130
 C169 C -0.21650 0.05602 0.31832
 C170 C -0.17316 0.00829 0.31088
 C171 C -0.18138 -0.05078 0.33366
 C172 C -0.23296 -0.06133 0.36359
 C173 C -0.13663 -0.09759 0.32682
 C174 C -0.08349 -0.08542 0.29828
 C175 C -0.07545 -0.02716 0.27545
 C176 C -0.12042 0.01952 0.28180
 H177 H -0.33164 -0.06753 0.42011
 H178 H -0.30347 0.13992 0.33993
 H179 H -0.38969 0.12355 0.39423
 H180 H -0.20996 0.10144 0.30098
 H181 H -0.23907 -0.10650 0.38119
 H182 H -0.14177 -0.14291 0.34420
 H183 H -0.04801 -0.12114 0.29443
 H184 H -0.11301 0.06559 0.26533
 C185 C 0.31209 0.01421 0.40745
 C186 C 0.26303 0.00221 0.37728
 C187 C 0.25723 -0.05759 0.35702
 C188 C 0.30002 -0.10463 0.36767
 C189 C 0.34825 -0.09256 0.39805
 C190 C 0.35503 -0.03302 0.41807
 C191 C 0.20860 -0.06954 0.32662
 C192 C 0.16498 -0.02282 0.31666
 C193 C 0.17011 0.03662 0.33737
 C194 C 0.21948 0.04897 0.36728
 C195 C 0.12491 0.08227 0.32829
 C196 C 0.07486 0.06901 0.29915
 C197 C 0.07060 0.01094 0.27780
 C198 C 0.11540 -0.03509 0.28683
 H199 H 0.31652 0.06020 0.42282
 H200 H 0.29615 -0.15078 0.35254
 H201 H 0.38082 -0.12967 0.40555
 H202 H 0.20430 -0.11535 0.31100
 H203 H 0.22352 0.09464 0.38306
 H204 H 0.12753 0.12771 0.34420
 H205 H 0.03917 0.10405 0.29342
 H206 H 0.11060 -0.08113 0.27160
   
