data_POSCAR
  _audit_creation_date              2014-09-24
  _audit_creation_method            'ToBaCCo'
  _symmetry_space_group_name_H-M    'P1'
  _symmetry_Int_Tables_number       1
  _symmetry_cell_setting            triclinic
  loop_
  _symmetry_equiv_pos_as_xyz
 x,y,z
_cell_length_a 32.2729
_cell_length_b 34.1706
_cell_length_c 35.0016
_cell_angle_alpha 94.194500
_cell_angle_beta 86.969400
_cell_angle_gamma 88.496700
loop_
  _atom_site_label
  _atom_site_type_symbol
  _atom_site_fract_x
  _atom_site_fract_y
  _atom_site_fract_z
C1 C 0.28932 0.48217 1.04215
 C2 C 0.26303 0.51379 1.03495
 C3 C 0.27694 0.55217 1.03914
 C4 C 0.31782 0.55969 1.04850
 C5 C 0.34405 0.52782 1.05600
 C6 C 0.32978 0.48907 1.05366
 C7 C 0.22120 0.50800 1.02124
 C8 C 0.18664 0.51352 1.04716
 C9 C 0.14647 0.51769 1.03386
 C10 C 0.14167 0.51554 0.99391
 C11 C 0.17616 0.50913 0.96763
 C12 C 0.21584 0.50527 0.98172
 H13 H 0.27800 0.45260 1.03942
 H14 H 0.25607 0.57605 1.03305
 H15 H 0.19179 0.51698 1.07751
 H16 H 0.24298 0.50215 0.96202
 H17 H 0.37545 0.53301 1.06414
 H18 H 0.11098 0.51876 0.98330
 C19 C 0.69397 0.45014 -0.04359
 C20 C 0.72436 0.47854 -0.04056
 C21 C 0.71564 0.51685 -0.05005
 C22 C 0.67608 0.52734 -0.06115
 C23 C 0.64579 0.49869 -0.06463
 C24 C 0.65474 0.45981 -0.05637
 C25 C 0.76518 0.46847 -0.02676
 C26 C 0.79964 0.46362 -0.05269
 C27 C 0.83912 0.45436 -0.04004
 C28 C 0.84339 0.45094 -0.00043
 C29 C 0.80902 0.45730 0.02610
 C30 C 0.76981 0.46521 0.01238
 H31 H 0.70133 0.42045 -0.03668
 H32 H 0.73904 0.53889 -0.04697
 H33 H 0.79498 0.46647 -0.08275
 H34 H 0.74288 0.47006 0.03217
 H35 H 0.61517 0.50682 -0.07329
 H36 H 0.87366 0.44436 0.00982
 C37 C 0.04341 0.21745 0.48136
 C38 C 0.01139 0.24287 0.49705
 C39 C -0.02168 0.22835 0.51876
 C40 C -0.02340 0.18796 0.52356
 C41 C 0.00960 0.16272 0.50842
 C42 C 0.04312 0.17750 0.48731
 C43 C 0.01187 0.28405 0.48794
 C44 C 0.01020 0.29287 0.44970
 C45 C 0.01533 0.33133 0.43908
 C46 C 0.02296 0.36100 0.46787
 C47 C 0.02476 0.35227 0.50652
 C48 C 0.01854 0.31368 0.51632
 H49 H 0.06885 0.22909 0.46460
 H50 H -0.04715 0.24805 0.52968
 H51 H 0.00529 0.26919 0.42821
 H52 H 0.02102 0.30600 0.54559
 H53 H 0.00862 0.13155 0.51209
 H54 H 0.02775 0.39081 0.46052
 C55 C 1.02695 0.76431 0.50059
 C56 C 0.98758 0.74995 0.49383
 C57 C 0.95823 0.77360 0.47776
 C58 C 0.96727 0.81214 0.47003
 C59 C 1.00701 0.82644 0.47641
 C60 C 1.03768 0.80222 0.49105
 C61 C 0.97661 0.71062 0.50499
 C62 C 0.97963 0.70144 0.54301
 C63 C 0.96934 0.66417 0.55458
 C64 C 0.95599 0.63584 0.52670
 C65 C 0.95316 0.64483 0.48812
 C66 C 0.96312 0.68251 0.47781
 H67 H 1.04943 0.74528 0.51267
 H68 H 0.92747 0.76269 0.47327
 H69 H 0.99001 0.72386 0.56357
 H70 H 0.96067 0.69024 0.44855
 H71 H 1.01354 0.85629 0.47016
 H72 H 0.94818 0.60681 0.53463
 C73 C 0.55852 0.05214 0.19842
 C74 C 0.55383 0.02115 0.22226
 C75 C 0.56344 -0.01740 0.20773
 C76 C 0.57668 -0.02548 0.16934
 C77 C 0.58101 0.00539 0.14529
 C78 C 0.57228 0.04443 0.15977
 C79 C 0.53971 0.02818 0.26277
 C80 C 0.50397 0.01019 0.27645
 C81 C 0.49348 0.01131 0.31589
 C82 C 0.52018 0.02959 0.34179
 C83 C 0.55627 0.04746 0.32813
 C84 C 0.56510 0.04773 0.28854
 H85 H 0.55165 0.08201 0.21002
 H86 H 0.55984 -0.04129 0.22629
 H87 H 0.48467 -0.00513 0.25618
 H88 H 0.59363 0.06014 0.27781
 H89 H 0.59096 -0.00103 0.11537
 H90 H 0.51359 0.02912 0.37241
 C91 C 0.44983 0.03030 0.80694
 C92 C 0.46470 -0.00191 0.78286
 C93 C 0.47089 -0.03812 0.79796
 C94 C 0.46377 -0.04258 0.83738
 C95 C 0.45123 -0.00910 0.86199
 C96 C 0.44326 0.02718 0.84646
 C97 C 0.47312 0.00179 0.74156
 C98 C 0.51163 -0.01062 0.72385
 C99 C 0.51954 -0.00815 0.68435
 C100 C 0.48763 0.00514 0.66215
 C101 C 0.44865 0.01694 0.67976
 C102 C 0.44209 0.01625 0.71956
 H103 H 0.44441 0.05823 0.79493
 H104 H 0.48126 -0.06299 0.77847
 H105 H 0.53578 -0.02133 0.74115
 H106 H 0.41198 0.02488 0.73323
 H107 H 0.44558 -0.01145 0.89249
 H108 H 0.49292 0.00600 0.63140
 C109 C 0.32465 0.00709 0.44523
 H110 H 0.31933 0.03086 0.46726
 C111 C 0.35818 0.00803 0.41870
 H112 H 0.37800 0.03304 0.42024
 C113 C 0.30443 -0.05408 0.41682
 H114 H 0.28355 -0.07833 0.41666
 C115 C 0.33761 -0.05421 0.38937
 H116 H 0.34203 -0.07862 0.36790
 N117 N 0.29862 -0.02354 0.44386
 C118 C 0.18495 0.02437 0.50247
 H119 H 0.18203 0.00556 0.52597
 C120 C 0.15435 0.05305 0.49819
 H121 H 0.12823 0.05621 0.51889
 C122 C 0.22269 0.04210 0.44673
 H123 H 0.24894 0.03725 0.42634
 C124 C 0.19290 0.07114 0.44137
 H125 H 0.19695 0.08880 0.41708
 Zn126 Zn 0.25702 -0.02103 0.48377
 N127 N 0.21846 0.01980 0.47719
 C128 C 0.27645 0.02356 0.55145
 N129 N 0.28485 -0.01037 0.52929
 C130 C 0.31761 -0.03440 0.53567
 C131 C 0.34402 -0.02426 0.56491
 C132 C 0.30186 0.03469 0.58112
 C133 C 0.19799 -0.07239 0.45743
 C134 C 0.16805 -0.10094 0.46034
 C135 C 0.19824 -0.11985 0.51823
 C136 C 0.22707 -0.09033 0.51470
 N137 N 0.22615 -0.06712 0.48480
 H138 H 0.25108 0.04289 0.54525
 H139 H 0.32414 -0.06074 0.51701
 H140 H 0.37003 -0.04371 0.56920
 H141 H 0.29513 0.06214 0.59803
 H142 H 0.19755 -0.05305 0.43432
 H143 H 0.14529 -0.10418 0.43880
 H144 H 0.19870 -0.13765 0.54255
 H145 H 0.24906 -0.08505 0.53659
 C146 C 0.15825 0.07708 0.46736
 C147 C 0.36515 -0.02296 0.39034
 C148 C 0.16758 -0.12463 0.49141
 C149 C 0.33661 0.01107 0.58772
 C150 C 0.68898 0.03127 0.56504
 H151 H 0.68982 0.05860 0.55128
 C152 C 0.65622 0.02455 0.59113
 H153 H 0.63255 0.04731 0.59810
 C154 C 0.71842 -0.03203 0.57156
 H155 H 0.74199 -0.05442 0.56286
 C156 C 0.68649 -0.03977 0.59826
 H157 H 0.68606 -0.06796 0.61049
 N158 N 0.71889 0.00298 0.55543
 C159 C 0.82293 0.05711 0.49879
 H160 H 0.82370 0.03899 0.47207
 C161 C 0.85353 0.08435 0.50510
 H162 H 0.87728 0.08748 0.48265
 C163 C 0.79037 0.07482 0.56017
 H164 H 0.76596 0.07043 0.58165
 C165 C 0.82030 0.10295 0.56754
 H166 H 0.81867 0.12045 0.59466
 Zn167 Zn 0.75597 0.01210 0.51378
 N168 N 0.79227 0.05277 0.52611
 C169 C 0.72544 0.06178 0.45949
 N170 N 0.72243 0.02611 0.47411
 C171 C 0.69219 0.00113 0.46384
 C172 C 0.66332 0.01165 0.43782
 C173 C 0.69732 0.07343 0.43325
 C174 C 0.81949 -0.04258 0.52278
 C175 C 0.84987 -0.07155 0.51144
 C176 C 0.81934 -0.08006 0.44995
 C177 C 0.78971 -0.05065 0.46237
 N178 N 0.79038 -0.03256 0.49825
 H179 H 0.74899 0.08167 0.46880
 H180 H 0.69006 -0.02673 0.47654
 H181 H 0.63975 -0.00890 0.43009
 H182 H 0.70003 0.10200 0.42204
 H183 H 0.81977 -0.02718 0.55089
 H184 H 0.87262 -0.07892 0.53153
 H185 H 0.81864 -0.09395 0.42120
 H186 H 0.76699 -0.04159 0.44296
 C187 C 0.85264 0.10756 0.53992
 C188 C 0.65441 -0.01160 0.60768
 C189 C 0.85032 -0.09046 0.47439
 C190 C 0.66551 0.04840 0.42231
 C191 C 0.49455 0.21107 1.08393
 H192 H 0.46272 0.22062 1.09125
 C193 C 0.51291 0.18164 1.10381
 H194 H 0.49498 0.16941 1.12678
 C195 C 0.55456 0.21218 1.04199
 H196 H 0.56973 0.22239 1.01646
 C197 C 0.57399 0.18299 1.06102
 H198 H 0.60454 0.17191 1.05052
 N199 N 0.51513 0.22483 1.05297
 C200 C 0.40977 0.29705 1.02306
 H201 H 0.39966 0.27853 0.99930
 C202 C 0.38861 0.33296 1.03332
 H203 H 0.36229 0.34098 1.01738
 C204 C 0.45816 0.31057 1.07039
 H205 H 0.48645 0.30269 1.08356
 C206 C 0.43798 0.34654 1.08159
 H207 H 0.45061 0.36547 1.10396
 Zn208 Zn 0.48561 0.25092 1.01634
 N209 N 0.44485 0.28727 1.04062
 C210 C 0.47234 0.17256 0.99030
 N211 N 0.46330 0.21040 0.98282
 C212 C 0.44085 0.21810 0.95221
 C213 C 0.42747 0.18732 0.92764
 C214 C 0.45993 0.14109 0.96637
 C215 C 0.54893 0.30411 1.01236
 C216 C 0.57171 0.33428 0.99773
 C217 C 0.54130 0.32066 0.93681
 C218 C 0.51956 0.29017 0.95246
 N219 N 0.52306 0.28300 0.98992
 H220 H 0.48985 0.16625 1.01457
 H221 H 0.43387 0.24805 0.94623
 H222 H 0.41030 0.19408 0.90308
 H223 H 0.46789 0.11146 0.97295
 H224 H 0.55057 0.29861 1.04227
 H225 H 0.59076 0.35156 1.01665
 H226 H 0.53709 0.32703 0.90739
 H227 H 0.49858 0.27362 0.93508
 C228 C 0.40386 0.35909 1.06182
 C229 C 0.55256 0.16612 1.09132
 C230 C 0.56719 0.34356 0.95978
 C231 C 0.43763 0.14822 0.93428
 C232 C 0.47873 0.77846 -0.06170
 H233 H 0.46892 0.74840 -0.06424
 C234 C 0.46898 0.80403 -0.08956
 H235 H 0.45189 0.79348 -0.11385
 C236 C 0.51411 0.82878 -0.02777
 H237 H 0.53313 0.83808 -0.00453
 C238 C 0.50415 0.85549 -0.05438
 H239 H 0.51544 0.88504 -0.05127
 N240 N 0.50088 0.79121 -0.03149
 C241 C 0.43343 0.73972 0.04004
 H242 H 0.43145 0.77022 0.05043
 C243 C 0.40084 0.71522 0.04929
 H244 H 0.37400 0.72713 0.06657
 C245 C 0.46950 0.68684 0.00414
 H246 H 0.49531 0.67588 -0.01482
 C247 C 0.43825 0.66126 0.01341
 H248 H 0.44065 0.63103 0.00172
 Zn249 Zn 0.51392 0.75646 0.00631
 N250 N 0.46733 0.72513 0.01825
 C251 C 0.50362 0.81790 0.06354
 N252 N 0.52978 0.78759 0.04994
 C253 C 0.56859 0.78378 0.06300
 C254 C 0.58291 0.81203 0.08964
 C255 C 0.51700 0.84714 0.08944
 C256 C 0.57581 0.72197 -0.04836
 C257 C 0.60367 0.69175 -0.06295
 C258 C 0.59536 0.66200 -0.00256
 C259 C 0.56859 0.69307 0.01114
 N260 N 0.55826 0.72153 -0.01217
 H261 H 0.47362 0.82135 0.05175
 H262 H 0.58938 0.76012 0.05135
 H263 H 0.61431 0.80952 0.09886
 H264 H 0.49637 0.87188 0.09875
 H265 H 0.56707 0.74487 -0.06637
 H266 H 0.61666 0.69156 -0.09212
 H267 H 0.60215 0.63884 0.01589
 H268 H 0.55406 0.69339 0.03974
 C269 C 0.40351 0.67533 0.03643
 C270 C 0.48151 0.84311 -0.08581
 C271 C 0.61247 0.66072 -0.04027
 C272 C 0.55745 0.84483 0.10195
 C273 C 1.04156 0.49923 0.20767
 H274 H 1.05116 0.47638 0.22538
 C275 C 1.06582 0.50626 0.17471
 H276 H 1.09422 0.48908 0.16784
 C277 C 0.99043 0.54584 0.19249
 H278 H 0.95997 0.55956 0.19856
 C279 C 1.01336 0.55331 0.15902
 H280 H 1.00084 0.57359 0.13992
 N281 N 1.00398 0.51799 0.21509
 C282 C 0.96770 0.41698 0.26438
 H283 H 0.94541 0.41173 0.24276
 C284 C 0.97744 0.38738 0.28816
 H285 H 0.96297 0.35925 0.28424
 C286 C 1.01117 0.46084 0.29801
 H287 H 1.02312 0.49002 0.30233
 C288 C 1.02121 0.43231 0.32277
 H289 H 1.04172 0.43941 0.34558
 Zn290 Zn 0.96286 0.49695 0.24737
 N291 N 0.98399 0.45307 0.27025
 C292 C 0.88058 0.49684 0.21936
 N293 N 0.92029 0.48230 0.21442
 C294 C 0.93343 0.45975 0.18220
 C295 C 0.90674 0.45199 0.15272
 C296 C 0.85258 0.48935 0.19065
 C297 C 0.96439 0.56543 0.29885
 C298 C 0.95884 0.58409 0.33585
 C299 C 0.91016 0.53467 0.35217
 C300 C 0.91652 0.51709 0.31497
 N301 N 0.94412 0.53196 0.28956
 H302 H 0.87104 0.51538 0.24482
 H303 H 0.96534 0.44899 0.17883
 H304 H 0.91812 0.43455 0.12709
 H305 H 0.82136 0.50190 0.19443
 H306 H 0.98719 0.57598 0.27860
 H307 H 0.97699 0.60942 0.34313
 H308 H 0.88953 0.52124 0.37246
 H309 H 0.90180 0.48977 0.30724
 C310 C 1.00326 0.39543 0.31863
 C311 C 1.05074 0.53228 0.14903
 C312 C 0.93249 0.56784 0.36354
 C313 C 0.86595 0.46749 0.15640
 C314 C -0.00613 0.44626 0.80000
 H315 H 0.02389 0.43257 0.79155
 C316 C -0.02809 0.43520 0.83268
 H317 H -0.01527 0.41235 0.84881
 C318 C -0.05734 0.49535 0.79127
 H319 H -0.06736 0.52018 0.77626
 C320 C -0.08064 0.48485 0.82362
 H321 H -0.10882 0.50151 0.83282
 N322 N -0.02031 0.47667 0.78085
 C323 C 0.06310 0.47869 0.67940
 H324 H 0.07864 0.50555 0.68723
 C325 C 0.06809 0.46172 0.64198
 H326 H 0.08847 0.47506 0.62142
 C327 C 0.01456 0.43099 0.69591
 H328 H -0.00797 0.42056 0.71647
 C329 C 0.01877 0.41289 0.65869
 H330 H -0.00016 0.38811 0.65135
 Zn331 Zn 0.01960 0.49835 0.74793
 N332 N 0.03581 0.46387 0.70509
 C333 C 0.10177 0.49018 0.77315
 N334 N 0.06438 0.50953 0.77931
 C335 C 0.05466 0.53195 0.81244
 C336 C 0.08220 0.53398 0.84189
 C337 C 0.13046 0.49172 0.80179
 C338 C -0.02956 0.53660 0.69914
 C339 C -0.03820 0.56487 0.67356
 C340 C 0.00941 0.60773 0.70577
 C341 C 0.01768 0.57839 0.73037
 N342 N -0.00110 0.54333 0.72602
 H343 H 0.10842 0.47164 0.74708
 H344 H 0.02436 0.54636 0.81686
 H345 H 0.07327 0.55106 0.86842
 H346 H 0.15941 0.47490 0.79714
 H347 H -0.04338 0.50814 0.69584
 H348 H -0.05967 0.55838 0.65141
 H349 H 0.02590 0.63488 0.70853
 H350 H 0.04101 0.58273 0.75119
 C351 C 0.04474 0.42921 0.63081
 C352 C -0.06517 0.45537 0.84554
 C353 C -0.01760 0.60052 0.67597
 C354 C 0.12015 0.51269 0.83721
 N355 N 0.13231 0.13316 0.43567
 N356 N 0.10216 0.16033 0.43991
 C357 C 0.07782 0.15194 0.47055
 C358 C 0.09401 0.11874 0.48500
 N359 N 0.12824 0.10797 0.46254
 H360 H 0.08294 0.10524 0.51044
 N361 N 0.67247 0.62931 -0.07699
 N362 N 0.69051 0.59392 -0.08331
 C363 C 0.66562 0.56881 -0.06572
 C364 C 0.63216 0.58985 -0.04803
 N365 N 0.63760 0.62744 -0.05559
 H366 H 0.60732 0.57915 -0.02996
 N367 N 0.87655 -0.14731 0.43301
 N368 N 0.90776 -0.17351 0.43030
 C369 C 0.93369 -0.16249 0.45779
 C370 C 0.91702 -0.12906 0.47791
 N371 N 0.88118 -0.12054 0.46169
 H372 H 0.92871 -0.11409 0.50324
 N373 N 0.40732 0.42659 1.08905
 N374 N 0.38922 0.46152 1.08701
 C375 C 0.35725 0.45649 1.06407
 C376 C 0.35631 0.41693 1.05221
 N377 N 0.38824 0.39921 1.06837
 H378 H 0.33531 0.40295 1.03276
 N379 N 0.87769 0.16952 0.56823
 N380 N 0.91040 0.19198 0.56475
 C381 C 0.93844 0.17180 0.54038
 C382 C 0.92181 0.13646 0.52894
 N383 N 0.88381 0.13618 0.54664
 H384 H 0.93524 0.11417 0.50805
 N385 N 0.33029 0.66107 0.04500
 N386 N 0.30637 0.63037 0.04756
 C387 C 0.33168 0.59841 0.04889
 C388 C 0.37217 0.61078 0.04716
 N389 N 0.36989 0.64992 0.04441
 H390 H 0.40053 0.59298 0.04579
 N391 N 0.14163 -0.18596 0.51326
 N392 N 0.10723 -0.20619 0.51359
 C393 C 0.07835 -0.18529 0.49642
 C394 C 0.09663 -0.15137 0.48528
 N395 N 0.13606 -0.15308 0.49620
 H396 H 0.08287 -0.12778 0.47076
 N397 N 0.57006 0.39894 0.91947
 N398 N 0.59200 0.43070 0.91495
 C399 C 0.62311 0.42957 0.93915
 C400 C 0.61953 0.39603 0.95863
 N401 N 0.58602 0.37774 0.94562
 H402 H 0.63890 0.38635 0.98063
 N403 N 0.59886 0.10833 1.08675
 N404 N 0.60459 0.07530 1.10356
 C405 C 0.57758 0.07672 1.13434
 C406 C 0.55509 0.11184 1.13591
 N407 N 0.56921 0.13075 1.10555
 H408 H 0.52994 0.12172 1.15627
 N409 N -0.01162 0.66561 0.65251
 N410 N -0.01440 0.68326 0.62032
 C411 C -0.02660 0.65637 0.59328
 C412 C -0.03165 0.62137 0.61050
 N413 N -0.02186 0.62843 0.64740
 H414 H -0.03944 0.59315 0.59717
 N415 N 0.47653 0.85657 -0.15245
 N416 N 0.47291 0.88670 -0.17376
 C417 C 0.46836 0.91955 -0.14974
 C418 C 0.46931 0.90825 -0.11256
 N419 N 0.47461 0.86876 -0.11567
 H420 H 0.46738 0.92671 -0.08601
 N421 N 1.00285 0.32916 0.34002
 N422 N 1.00548 0.31124 0.37210
 C423 C 1.01286 0.33895 0.40029
 C424 C 1.01512 0.37461 0.38406
 N425 N 1.00867 0.36719 0.34652
 H426 H 1.01884 0.40338 0.39829
 N427 N 0.59879 0.87191 0.15346
 N428 N 0.60523 0.90630 0.17191
 C429 C 0.58345 0.93347 0.15452
 C430 C 0.56291 0.91477 0.12539
 N431 N 0.57311 0.87639 0.12574
 H432 H 0.54130 0.92762 0.10688
 N433 N 0.05795 0.43633 0.56238
 N434 N 0.05236 0.41727 0.52880
 C435 C 0.03507 0.38296 0.53623
 C436 C 0.03031 0.38165 0.57560
 N437 N 0.04498 0.41546 0.59091
 H438 H 0.01733 0.35847 0.59148
 N439 N 0.39859 0.11986 0.88180
 N440 N 0.39866 0.08766 0.85836
 C441 C 0.42735 0.06244 0.87013
 C442 C 0.44513 0.08044 0.90159
 N443 N 0.42641 0.11636 0.90790
 H444 H 0.47169 0.06989 0.91589
 N445 N 0.91516 0.56284 0.43194
 N446 N 0.92055 0.58193 0.46560
 C447 C 0.94035 0.61506 0.45837
 C448 C 0.94689 0.61551 0.41897
 N449 N 0.93075 0.58243 0.40344
 H450 H 0.96263 0.63740 0.40332
 N451 N 1.04903 0.54039 0.08061
 N452 N 1.07357 0.53561 0.04898
 C453 C 1.11174 0.52543 0.05963
 C454 C 1.10958 0.52422 0.09923
 N455 N 1.06996 0.53369 0.11112
 H456 H 1.13393 0.51632 0.11756
 N457 N 0.62290 -0.04521 0.66057
 N458 N 0.58746 -0.04530 0.68144
 C459 C 0.56132 -0.01932 0.66715
 C460 C 0.58202 -0.00306 0.63695
 N461 N 0.62046 -0.01983 0.63389
 H462 H 0.57052 0.01941 0.61964
 N463 N -0.06363 0.43627 0.91127
 N464 N -0.08826 0.43640 0.94279
 C465 C -0.12619 0.44922 0.93379
 C466 C -0.12376 0.45690 0.89536
 N467 N -0.08427 0.44856 0.88248
 H468 H -0.14781 0.46837 0.87854
 N469 N 0.40122 -0.04307 0.32865
 N470 N 0.43494 -0.03464 0.30797
 C471 C 0.45533 -0.00771 0.32932
 C472 C 0.43294 0.00011 0.36378
 N473 N 0.39926 -0.02236 0.36221
 H474 H 0.44014 0.02076 0.38723
 N475 N 0.18670 0.49933 0.86482
 N476 N 0.20246 0.49776 0.89889
 C477 C 0.17152 0.50782 0.92555
 C478 C 0.13621 0.51591 0.90645
 N479 N 0.14697 0.51038 0.86866
 H480 H 0.10550 0.52408 0.91877
 N481 N 0.64258 0.08962 0.37292
 N482 N 0.61350 0.09092 0.34769
 C483 C 0.58767 0.06152 0.35441
 C484 C 0.60208 0.04192 0.38432
 N485 N 0.63663 0.06014 0.39498
 H486 H 0.58995 0.01547 0.39522
 N487 N 0.79789 0.46632 0.12884
 N488 N 0.78177 0.46349 0.09474
 C489 C 0.81366 0.45789 0.06816
 C490 C 0.85002 0.45730 0.08736
 N491 N 0.83886 0.46265 0.12510
 H492 H 0.88154 0.45546 0.07510
 N493 N 0.35333 0.05060 0.64537
 N494 N 0.38285 0.05367 0.67018
 C495 C 0.41342 0.02766 0.65723
 C496 C 0.40153 0.00822 0.62386
 N497 N 0.36365 0.02319 0.61751
 H498 H 0.41804 -0.01576 0.60719
   
