data_POSCAR
  _audit_creation_date              2014-09-24
  _audit_creation_method            'ToBaCCo'
  _symmetry_space_group_name_H-M    'P1'
  _symmetry_Int_Tables_number       1
  _symmetry_cell_setting            triclinic
  loop_
  _symmetry_equiv_pos_as_xyz
 x,y,z
_cell_length_a 19.8952
_cell_length_b 19.9189
_cell_length_c 38.1049
_cell_angle_alpha 89.945700
_cell_angle_beta 87.350900
_cell_angle_gamma 120.178600
loop_
  _atom_site_label
  _atom_site_type_symbol
  _atom_site_fract_x
  _atom_site_fract_y
  _atom_site_fract_z
C1 C 0.01748 0.08333 0.55204
 H2 H 0.06671 0.07458 0.54943
 C3 C 0.02261 0.14337 0.57253
 H4 H 0.07508 0.17911 0.58625
 C5 C -0.10782 0.05212 0.53501
 H6 H -0.15651 0.01978 0.51881
 C7 C -0.10563 0.11111 0.55582
 H8 H -0.15358 0.12231 0.55611
 N9 N -0.04643 0.03960 0.53341
 C10 C -0.07592 -0.17341 0.52686
 H11 H -0.12862 -0.18943 0.51387
 C12 C -0.07159 -0.23012 0.54634
 H13 H -0.12068 -0.28892 0.54770
 C14 C 0.05122 -0.07834 0.54139
 H15 H 0.09894 -0.01911 0.53961
 C16 C 0.05845 -0.13391 0.56085
 H17 H 0.11147 -0.11681 0.57412
 Zn18 Zn -0.03290 -0.02517 0.50067
 N19 N -0.01561 -0.09872 0.52499
 C20 C 0.12077 0.04554 0.46500
 N21 N 0.05278 0.04544 0.47100
 C22 C 0.04191 0.10174 0.45691
 C23 C 0.10151 0.16306 0.43699
 C24 C 0.18231 0.10608 0.44492
 C25 C -0.19394 -0.11872 0.48404
 C26 C -0.25239 -0.17389 0.46370
 C27 C -0.15398 -0.15160 0.41843
 C28 C -0.09810 -0.09616 0.43931
 N29 N -0.11827 -0.08179 0.47175
 H30 H 0.12785 -0.00032 0.47610
 H31 H -0.01303 0.09977 0.46193
 H32 H 0.09166 0.20761 0.42632
 H33 H 0.23693 0.10682 0.44100
 H34 H -0.20859 -0.11024 0.51069
 H35 H -0.31055 -0.20495 0.47588
 H36 H -0.13415 -0.15920 0.39264
 H37 H -0.03755 -0.06724 0.43015
 C38 C -0.00418 -0.21057 0.56389
 C39 C -0.03883 0.15859 0.57412
 C40 C -0.23305 -0.19436 0.43066
 C41 C 0.17333 0.16661 0.43127
 C42 C 1.12130 0.06825 0.11836
 H43 H 1.11957 0.12062 0.12357
 C44 C 1.18320 0.07301 0.09770
 H45 H 1.22659 0.12859 0.08598
 C46 C 1.07031 -0.06621 0.12953
 H47 H 1.02825 -0.11958 0.14316
 C48 C 1.13146 -0.06409 0.10884
 H49 H 1.13507 -0.11636 0.10643
 N50 N 1.06644 -0.00039 0.13392
 C51 C 0.84854 -0.01883 0.15138
 H52 H 0.82907 -0.06176 0.17241
 C53 C 0.79296 -0.01535 0.13178
 H54 H 0.73174 -0.05607 0.13773
 C55 C 0.95063 0.08647 0.11812
 H56 H 1.01197 0.12554 0.11247
 C57 C 0.89657 0.09292 0.09818
 H58 H 0.91683 0.13671 0.07729
 Zn59 Zn 0.99640 0.00774 0.16687
 N60 N 0.92600 0.02954 0.14351
 C61 C 1.06128 0.15505 0.20141
 N62 N 1.06172 0.08768 0.19639
 C63 C 1.11531 0.07454 0.21091
 C64 C 1.17261 0.13078 0.23086
 C65 C 1.11783 0.21324 0.22151
 C66 C 0.88935 -0.15318 0.17927
 C67 C 0.83057 -0.21615 0.19912
 C68 C 0.87043 -0.13800 0.25077
 C69 C 0.92852 -0.07679 0.23005
 N70 N 0.93563 -0.08454 0.19480
 H71 H 1.01840 0.16426 0.18925
 H72 H 1.11420 0.02042 0.20632
 H73 H 1.21491 0.11911 0.24203
 H74 H 1.11830 0.26746 0.22478
 H75 H 0.89393 -0.15717 0.15104
 H76 H 0.79143 -0.26886 0.18603
 H77 H 0.86381 -0.12975 0.27854
 H78 H 0.96430 -0.02145 0.24187
 C79 C 0.81684 0.03982 0.10434
 C80 C 1.18967 0.00665 0.09317
 C81 C 0.81897 -0.20786 0.23512
 C82 C 1.17519 0.20167 0.23597
 C83 C 0.09254 0.95592 0.87978
 H84 H 0.03773 0.90205 0.87863
 C85 C 0.15152 0.95887 0.89913
 H86 H 0.14144 0.90721 0.91332
 C87 C 0.17217 1.08844 0.86206
 H88 H 0.18008 1.13807 0.84692
 C89 C 0.23287 1.09418 0.88145
 H90 H 0.28755 1.14861 0.88124
 N91 N 0.10396 1.01975 0.86151
 C92 C -0.13591 0.95888 0.84826
 H93 H -0.14228 0.94684 0.82057
 C94 C -0.19688 0.95771 0.86855
 H95 H -0.24960 0.94393 0.85577
 C96 C -0.05572 0.99999 0.89681
 H97 H 0.00013 1.01863 0.90753
 C98 C -0.11393 1.00221 0.91768
 H99 H -0.10244 1.01910 0.94471
 Zn100 Zn 0.02150 1.00184 0.83331
 N101 N -0.06696 0.98001 0.86259
 C102 C -0.06186 0.85174 0.80150
 N103 N 0.00688 0.91903 0.80430
 C104 C 0.07356 0.92963 0.78768
 C105 C 0.07327 0.87136 0.76744
 C106 C -0.06515 0.79221 0.78081
 C107 C 0.04686 1.15121 0.82240
 C108 C 0.04754 1.21150 0.80339
 C109 C 0.04704 1.14671 0.74972
 C110 C 0.04532 1.08710 0.76979
 N111 N 0.04409 1.08987 0.80548
 H112 H -0.11396 0.84363 0.81550
 H113 H 0.12770 0.98319 0.79089
 H114 H 0.12800 0.88075 0.75571
 H115 H -0.12071 0.73974 0.77841
 H116 H 0.04453 1.15127 0.85082
 H117 H 0.04730 1.25878 0.81729
 H118 H 0.04498 1.14226 0.72142
 H119 H 0.04118 1.03701 0.75687
 C120 C -0.18566 0.98246 0.90359
 C121 C 0.22309 1.02831 0.89980
 C122 C 0.04598 1.20877 0.76662
 C123 C 0.00329 0.80128 0.76361
 C124 C 0.46300 0.02790 -0.02060
 C125 C 0.45995 0.03234 0.01639
 C126 C 0.52139 0.03771 0.03515
 C127 C 0.58302 0.03332 0.01809
 C128 C 0.58336 0.02315 -0.01874
 C129 C 0.52394 0.02234 -0.03762
 H130 H 0.52549 0.01814 -0.06598
 H131 H 0.51950 0.04174 0.06352
 C132 C 0.00242 0.42802 0.64839
 C133 C 0.00896 0.43257 0.68523
 C134 C 0.00977 0.49515 0.70256
 C135 C 0.00674 0.55439 0.68396
 C136 C 0.00511 0.55188 0.64685
 C137 C 0.00288 0.48875 0.62957
 H138 H -0.00138 0.48552 0.60128
 H139 H 0.01472 0.49885 0.73080
 C140 C 0.54935 0.55439 0.31527
 C141 C 0.54193 0.55551 0.35245
 C142 C 0.47744 0.49336 0.37052
 C143 C 0.41972 0.43124 0.35248
 C144 C 0.42440 0.43322 0.31534
 C145 C 0.49004 0.49369 0.29727
 H146 H 0.49411 0.49467 0.26877
 H147 H 0.47341 0.49214 0.39901
 C148 C 0.03539 0.30078 0.58468
 C149 C -0.03001 0.22737 0.59274
 C150 C -0.08539 0.22033 0.61887
 C151 C -0.07455 0.28561 0.63719
 C152 C -0.00897 0.35888 0.62914
 C153 C 0.04538 0.36617 0.60247
 H154 H 0.07852 0.30748 0.56442
 H155 H -0.13607 0.16420 0.62550
 H156 H -0.11734 0.27918 0.65757
 H157 H 0.09614 0.42228 0.59587
 C158 C 0.72704 0.65225 0.25230
 C159 C 0.75003 0.73100 0.25566
 C160 C 0.70528 0.75128 0.27812
 C161 C 0.63928 0.69404 0.29704
 C162 C 0.61750 0.61554 0.29431
 C163 C 0.66141 0.59504 0.27152
 H164 H 0.76045 0.63508 0.23520
 H165 H 0.72068 0.81145 0.28061
 H166 H 0.60539 0.71097 0.31397
 H167 H 0.64542 0.53471 0.26901
 C168 C 0.33089 0.09194 -0.05869
 C169 C 0.28719 0.03063 -0.08098
 C170 C 0.30358 -0.03010 -0.08416
 C171 C 0.36163 -0.03023 -0.06500
 C172 C 0.40377 0.02992 -0.04203
 C173 C 0.38858 0.09144 -0.03927
 H174 H 0.31913 0.13919 -0.05567
 H175 H 0.27137 -0.07757 -0.10151
 H176 H 0.37264 -0.07807 -0.06753
 H177 H 0.42107 0.13875 -0.02188
 C178 C 0.06340 0.71833 0.58192
 C179 C -0.00065 0.72976 0.58561
 C180 C -0.06298 0.68207 0.60949
 C181 C -0.06126 0.62408 0.62936
 C182 C 0.00252 0.61245 0.62548
 C183 C 0.06458 0.65950 0.60147
 H184 H 0.11174 0.75394 0.56347
 H185 H -0.11281 0.69011 0.61291
 H186 H -0.10961 0.58820 0.64777
 H187 H 0.11428 0.65121 0.59824
 C188 C 0.31576 0.27853 0.24940
 C189 C 0.23898 0.26317 0.25557
 C190 C 0.22377 0.30520 0.28115
 C191 C 0.28402 0.36044 0.30063
 C192 C 0.36042 0.37468 0.29476
 C193 C 0.37591 0.33392 0.26871
 H194 H 0.32932 0.24772 0.22949
 H195 H 0.16513 0.29423 0.28653
 H196 H 0.27112 0.39214 0.32031
 H197 H 0.43446 0.34435 0.26365
 C198 C 0.67722 -0.05662 -0.08207
 C199 C 0.75720 -0.00885 -0.07662
 C200 C 0.77904 0.04998 -0.05163
 C201 C 0.72324 0.06146 -0.03342
 C202 C 0.64370 0.01236 -0.03830
 C203 C 0.62140 -0.04678 -0.06283
 H204 H 0.65698 -0.10384 -0.10021
 H205 H 0.83964 0.09059 -0.04745
 H206 H 0.74264 0.10980 -0.01597
 H207 H 0.56039 -0.08588 -0.06703
 C208 C 0.33358 0.07621 0.07847
 C209 C 0.25884 0.01261 0.07362
 C210 C 0.25099 -0.04482 0.05010
 C211 C 0.31637 -0.03827 0.03152
 C212 C 0.39078 0.02579 0.03612
 C213 C 0.39894 0.08256 0.05999
 H214 H 0.34163 0.12071 0.09688
 H215 H 0.19420 -0.09425 0.04574
 H216 H 0.30899 -0.08335 0.01359
 H217 H 0.45585 0.13210 0.06408
 C218 C 0.73492 0.70606 0.38717
 C219 C 0.71264 0.74547 0.41195
 C220 C 0.63189 0.71841 0.41708
 C221 C 0.57717 0.65700 0.39784
 C222 C 0.60063 0.61955 0.37326
 C223 C 0.67978 0.64354 0.36873
 H224 H 0.79455 0.71943 0.38313
 H225 H 0.60994 0.74672 0.43443
 H226 H 0.51620 0.63960 0.40169
 H227 H 0.69915 0.61368 0.35086
 C228 C -0.01696 0.28858 0.75723
 C229 C 0.03809 0.26747 0.74615
 C230 C 0.08357 0.30096 0.71494
 C231 C 0.07439 0.35480 0.69527
 C232 C 0.01833 0.37486 0.70601
 C233 C -0.02690 0.34158 0.73730
 H234 H -0.05347 0.26282 0.78098
 H235 H 0.12689 0.28619 0.70601
 H236 H 0.11159 0.38130 0.67179
 H237 H -0.07047 0.35607 0.74615
 C238 C 0.70533 -0.02986 0.06570
 C239 C 0.75835 0.03924 0.08161
 C240 C 0.75367 0.10647 0.07638
 C241 C 0.69583 0.10417 0.05602
 C242 C 0.64344 0.03523 0.03989
 C243 C 0.64864 -0.03170 0.04477
 H244 H 0.70822 -0.08227 0.06933
 H245 H 0.79371 0.16013 0.08859
 H246 H 0.69236 0.15629 0.05247
 H247 H 0.60849 -0.08533 0.03255
 C248 C 0.25262 0.30980 0.41825
 C249 C 0.23830 0.23430 0.41175
 C250 C 0.28516 0.22422 0.38606
 C251 C 0.34417 0.28825 0.36683
 C252 C 0.35740 0.36341 0.37299
 C253 C 0.31177 0.37373 0.39914
 H254 H 0.21814 0.31942 0.43826
 H255 H 0.27518 0.16674 0.38041
 H256 H 0.37956 0.27922 0.34708
 H257 H 0.32133 0.43122 0.40444
 C258 C 0.05559 0.75534 0.71342
 C259 C 0.00276 0.73787 0.74259
 C260 C -0.04857 0.65932 0.75214
 C261 C -0.04731 0.60015 0.73296
 C262 C 0.00583 0.61795 0.70405
 C263 C 0.05803 0.69618 0.69482
 H264 H 0.09526 0.81484 0.70478
 H265 H -0.08891 0.64329 0.77482
 H266 H -0.08795 0.54021 0.74072
 H267 H 0.10093 0.71170 0.67321
   
