data_POSCAR
  _audit_creation_date              2014-09-24
  _audit_creation_method            'ToBaCCo'
  _symmetry_space_group_name_H-M    'P1'
  _symmetry_Int_Tables_number       1
  _symmetry_cell_setting            triclinic
  loop_
  _symmetry_equiv_pos_as_xyz
 x,y,z
_cell_length_a 47.2125
_cell_length_b 28.1255
_cell_length_c 15.3646
_cell_angle_alpha 90.174300
_cell_angle_beta 89.744500
_cell_angle_gamma 90.196600
loop_
  _atom_site_label
  _atom_site_type_symbol
  _atom_site_fract_x
  _atom_site_fract_y
  _atom_site_fract_z
C1 C 0.72635 0.28663 0.56484
 C2 C 0.72259 0.27838 0.47424
 C3 C 0.74531 0.25909 0.42544
 C4 C 0.77065 0.24461 0.46652
 C5 C 0.77130 0.24377 0.55918
 C6 C 0.75005 0.26730 0.60569
 H7 H 0.75182 0.26998 0.67605
 H8 H 0.74319 0.25620 0.35561
 C9 C 0.23574 0.81971 0.55236
 C10 C 0.23480 0.81420 0.46124
 C11 C 0.25291 0.78130 0.42063
 C12 C 0.27217 0.75403 0.46936
 C13 C 0.27312 0.76012 0.56162
 C14 C 0.25448 0.79243 0.60111
 H15 H 0.25461 0.79690 0.67135
 H16 H 0.25159 0.77642 0.35078
 C17 C 0.28802 0.21722 -0.54227
 C18 C 0.28590 0.22365 -0.45172
 C19 C 0.26189 0.20728 -0.40750
 C20 C 0.23951 0.18382 -0.45068
 C21 C 0.24115 0.17889 -0.54365
 C22 C 0.26604 0.19420 -0.58667
 H23 H 0.26799 0.18994 -0.65668
 H24 H 0.26123 0.21175 -0.33729
 C25 C -0.21353 0.72609 -0.53724
 C26 C -0.21699 0.72533 -0.44623
 C27 C -0.24196 0.70705 -0.40992
 C28 C -0.26438 0.69020 -0.46256
 C29 C -0.26068 0.69107 -0.55524
 C30 C -0.23487 0.70734 -0.59020
 H31 H -0.23172 0.70742 -0.66022
 H32 H -0.24314 0.70513 -0.33974
 O33 O -0.04868 0.93622 0.16945
 O34 O -0.07776 0.97438 0.07295
 C35 C -0.07351 0.94688 0.13912
 O36 O 0.03222 1.10297 0.14516
 O37 O 0.06465 1.05320 0.08037
 C38 C 0.05795 1.08867 0.13083
 O39 O -0.04746 1.10094 0.13688
 O40 O -0.07689 1.05290 0.05663
 C41 C -0.07246 1.08725 0.11106
 O42 O 0.03065 0.92899 0.17511
 O43 O 0.06383 0.97026 0.09587
 C44 C 0.05663 0.93973 0.15511
 Zr45 Zr -0.00778 0.95610 0.12487
 O46 O -0.00743 0.96776 0.26109
 O47 O -0.01190 0.88211 0.14608
 Zr48 Zr -0.00666 1.07555 0.09831
 O49 O -0.00928 1.09107 0.23287
 O50 O -0.00613 1.14868 0.06736
 O51 O -0.03269 1.01718 0.12441
 O52 O 0.01715 1.01635 0.13164
 O53 O 0.03615 0.91179 -0.12272
 O54 O 0.06673 0.96197 -0.05099
 C55 C 0.06134 0.92599 -0.10150
 O56 O -0.03991 1.07596 -0.18541
 O57 O -0.07342 1.04337 -0.09475
 C58 C -0.06589 1.06698 -0.16347
 O59 O 0.03850 1.08079 -0.16334
 O60 O 0.06790 1.04241 -0.06803
 C61 C 0.06339 1.06918 -0.13528
 O62 O -0.04313 0.91625 -0.14320
 O63 O -0.07494 0.96628 -0.07675
 C64 C -0.06868 0.93163 -0.12876
 Zr65 Zr -0.00384 0.94112 -0.09265
 O66 O 0.00134 0.93095 -0.22839
 O67 O -0.00787 0.86675 -0.07464
 Zr68 Zr -0.00220 1.06090 -0.11802
 O69 O 0.00243 1.05981 -0.25483
 O70 O -0.00440 1.13608 -0.12264
 Zr71 Zr -0.04712 1.00882 -0.00447
 Zr72 Zr 0.03727 1.00760 0.01003
 O73 O 0.02161 0.99943 -0.11738
 O74 O -0.02758 1.00021 -0.12706
 O75 O 0.01940 0.93899 0.02215
 O76 O -0.02927 1.07708 -0.01639
 O77 O -0.03046 0.94030 0.01372
 O78 O 0.02131 1.07691 -0.00732
 H79 H 0.02904 1.01870 0.18445
 H80 H -0.04213 1.10440 -0.02537
 H81 H 0.03484 0.99544 -0.16707
 H82 H -0.04349 0.91266 0.01696
 H83 H -0.00807 1.16580 0.12350
 H84 H 0.01347 1.14880 -0.09831
 H85 H 0.00101 1.02615 -0.27284
 H86 H -0.01362 0.94942 -0.25781
 H87 H 0.00848 0.85607 -0.03981
 H88 H 0.00115 0.86609 0.10506
 H89 H -0.02452 0.98644 0.27598
 H90 H -0.00374 1.06196 0.26421
 O91 O 0.45173 0.41764 0.14072
 O92 O 0.42262 0.46356 0.05612
 C93 C 0.42690 0.43058 0.11350
 O94 O 0.53032 0.58792 0.16980
 O95 O 0.56366 0.54478 0.09435
 C96 C 0.55628 0.57641 0.15184
 O97 O 0.45077 0.58352 0.15807
 O98 O 0.42230 0.54370 0.06132
 C99 C 0.42613 0.57276 0.12561
 O100 O 0.53197 0.41246 0.14830
 O101 O 0.56418 0.46131 0.08045
 C102 C 0.55783 0.42589 0.13011
 Zr103 Zr 0.49263 0.44157 0.10339
 O104 O 0.49217 0.43573 0.24070
 O105 O 0.49128 0.36699 0.08678
 Zr106 Zr 0.49201 0.56135 0.11800
 O107 O 0.49148 0.55337 0.25504
 O108 O 0.48899 0.63602 0.13153
 O109 O 0.46655 0.50091 0.12141
 O110 O 0.51662 0.50097 0.13197
 O111 O 0.53758 0.42354 -0.15198
 O112 O 0.56732 0.46670 -0.06364
 C113 C 0.56248 0.43606 -0.12539
 O114 O 0.46113 0.59061 -0.16271
 O115 O 0.42691 0.54827 -0.08935
 C116 C 0.43506 0.57899 -0.14749
 O117 O 0.53961 0.59536 -0.13286
 O118 O 0.56786 0.54910 -0.04687
 C119 C 0.56412 0.58268 -0.10268
 O120 O 0.45905 0.42710 -0.17399
 O121 O 0.42626 0.46991 -0.09623
 C122 C 0.43325 0.44010 -0.15684
 Zr123 Zr 0.49756 0.44913 -0.11518
 O124 O 0.50357 0.45422 -0.25154
 O125 O 0.49516 0.37410 -0.12363
 Zr126 Zr 0.49846 0.56926 -0.10067
 O127 O 0.50494 0.57979 -0.23542
 O128 O 0.49502 0.64382 -0.08377
 Zr129 Zr 0.45304 0.50586 -0.00905
 Zr130 Zr 0.53717 0.50528 0.01046
 O131 O 0.52282 0.50944 -0.11867
 O132 O 0.47345 0.51005 -0.13113
 O133 O 0.52033 0.43617 -0.00174
 O134 O 0.47069 0.57434 0.00324
 O135 O 0.47038 0.43702 -0.01224
 O136 O 0.52035 0.57457 0.01583
 H137 H 0.52836 0.49899 0.18513
 H138 H 0.45788 0.60217 0.00240
 H139 H 0.53669 0.51128 -0.16715
 H140 H 0.45760 0.40922 -0.01846
 H141 H 0.50280 0.65017 0.09047
 H142 H 0.51286 0.65531 -0.05729
 H143 H 0.49852 0.55042 -0.26479
 H144 H 0.48732 0.47191 -0.27563
 H145 H 0.50703 0.36114 -0.07642
 H146 H 0.49011 0.35337 0.14611
 H147 H 0.47684 0.45652 0.26257
 H148 H 0.47327 0.53823 0.27131
 C149 C 0.31327 0.23427 0.40959
 C150 C 0.31087 0.26319 0.33648
 C151 C 0.33536 0.28932 0.30077
 N152 N 0.33150 0.32281 0.23853
 N153 N 0.35335 0.34813 0.20842
 C154 C 0.37987 0.34088 0.23958
 N155 N 0.38374 0.30719 0.30135
 N156 N 0.36190 0.28199 0.33158
 C157 C 0.40434 0.36833 0.20756
 C158 C 0.40186 0.40547 0.14811
 H159 H 0.29013 0.27016 0.30960
 H160 H 0.42507 0.35866 0.23164
 H161 H 0.33381 0.22982 0.43951
 H162 H 0.38115 0.41562 0.12462
 C163 C -0.18778 0.74673 0.42255
 C164 C -0.18959 0.77888 0.35400
 C165 C -0.16512 0.80708 0.32461
 N166 N -0.16863 0.84115 0.26334
 N167 N -0.14682 0.86781 0.23747
 C168 C -0.12070 0.86146 0.27218
 N169 N -0.11718 0.82736 0.33339
 N170 N -0.13901 0.80073 0.35935
 C171 C -0.09621 0.88952 0.24247
 C172 C -0.09856 0.92468 0.17915
 H173 H -0.21001 0.78623 0.32519
 H174 H -0.07560 0.88062 0.26831
 H175 H -0.16763 0.74148 0.45446
 H176 H -0.11919 0.93367 0.15351
 C177 C 0.71854 0.67730 0.38385
 C178 C 0.68955 0.68485 0.39482
 C179 C 0.66845 0.66363 0.33642
 N180 N 0.64053 0.67141 0.35134
 N181 N 0.62099 0.65011 0.30256
 C182 C 0.62863 0.62010 0.23718
 N183 N 0.65658 0.61252 0.22188
 N184 N 0.67614 0.63383 0.27073
 C185 C 0.60716 0.59521 0.18497
 C186 C 0.57835 0.60136 0.20108
 H187 H 0.68187 0.70617 0.44873
 H188 H 0.61414 0.57127 0.13391
 H189 H 0.72556 0.66505 0.32033
 H190 H 0.57154 0.62574 0.25166
 C191 C 0.21937 1.16227 0.40147
 C192 C 0.19048 1.17083 0.41381
 C193 C 0.16923 1.15266 0.35165
 N194 N 0.14183 1.16675 0.35772
 N195 N 0.12249 1.15002 0.30238
 C196 C 0.12982 1.11846 0.23900
 N197 N 0.15718 1.10424 0.23323
 N198 N 0.17651 1.12108 0.28832
 C199 C 0.10854 1.09820 0.17930
 C200 C 0.08047 1.11347 0.17928
 H201 H 0.18332 1.19231 0.46816
 H202 H 0.11493 1.06937 0.13672
 H203 H 0.22554 1.14806 0.33849
 H204 H 0.07429 1.14272 0.22121
 C205 C 0.70784 0.31268 -0.38103
 C206 C 0.68896 0.34759 -0.40811
 C207 C 0.67084 0.37206 -0.34461
 N208 N 0.64555 0.38963 -0.36998
 N209 N 0.62789 0.40838 -0.31169
 C210 C 0.63503 0.41082 -0.22620
 N211 N 0.66074 0.39473 -0.20113
 N212 N 0.67828 0.37542 -0.25936
 C213 C 0.61428 0.42719 -0.16175
 C214 C 0.58602 0.41546 -0.17429
 H215 H 0.68691 0.35739 -0.47565
 H216 H 0.62104 0.44700 -0.10494
 H217 H 0.71008 0.30836 -0.31124
 H218 H 0.58053 0.39223 -0.22817
 C219 C 0.21631 0.85124 -0.39941
 C220 C 0.18722 0.84390 -0.40305
 C221 C 0.16772 0.86507 -0.33933
 N222 N 0.14093 0.84803 -0.33287
 N223 N 0.12319 0.86530 -0.27328
 C224 C 0.13154 0.90027 -0.21781
 N225 N 0.15828 0.91772 -0.22476
 N226 N 0.17613 0.90022 -0.28415
 C227 C 0.11153 0.92049 -0.15418
 C228 C 0.08479 0.90040 -0.14271
 H229 H 0.17879 0.81787 -0.44826
 H230 H 0.11706 0.95334 -0.12128
 H231 H 0.22505 0.87358 -0.34855
 H232 H 0.07961 0.86750 -0.17599
 C233 C 0.29124 0.73505 -0.38218
 C234 C 0.31820 0.71911 -0.40479
 C235 C 0.33514 0.68928 -0.34693
 N236 N 0.36198 0.67820 -0.37033
 N237 N 0.37776 0.65091 -0.31954
 C238 C 0.36731 0.63338 -0.24356
 N239 N 0.34029 0.64399 -0.22045
 N240 N 0.32446 0.67145 -0.27136
 C241 C 0.38545 0.60488 -0.18618
 C242 C 0.41436 0.60254 -0.20297
 H243 H 0.32796 0.73021 -0.46524
 H244 H 0.37650 0.58814 -0.12888
 H245 H 0.28511 0.73185 -0.31431
 H246 H 0.42298 0.62164 -0.25828
 C247 C -0.20858 1.21920 -0.39041
 C248 C -0.19349 1.17923 -0.41808
 C249 C -0.17400 1.15476 -0.35951
 N250 N -0.15244 1.12863 -0.39284
 N251 N -0.13397 1.10774 -0.34022
 C252 C -0.13667 1.11171 -0.25245
 N253 N -0.15861 1.13691 -0.21907
 N254 N -0.17687 1.15828 -0.27172
 C255 C -0.11569 1.09082 -0.19423
 C256 C -0.08790 1.08442 -0.22178
 H257 H -0.19597 1.16472 -0.48283
 H258 H -0.12148 1.08437 -0.12697
 H259 H -0.20689 1.22852 -0.32205
 H260 H -0.08165 1.09530 -0.28671
 C261 C 0.71130 0.66964 -0.42355
 C262 C 0.70179 0.67918 -0.33886
 C263 C 0.67376 0.66318 -0.30815
 N264 N 0.66721 0.66572 -0.22224
 N265 N 0.64168 0.65259 -0.19373
 C266 C 0.62159 0.63705 -0.25022
 N267 N 0.62800 0.63507 -0.33630
 N268 N 0.65362 0.64784 -0.36475
 C269 C 0.59365 0.62099 -0.21885
 C270 C 0.58981 0.60702 -0.13285
 H271 H 0.71373 0.70160 -0.29508
 H272 H 0.57677 0.61562 -0.26544
 H273 H 0.69823 0.64606 -0.46184
 H274 H 0.60767 0.60798 -0.08883
 C275 C 0.21828 1.16493 -0.39530
 C276 C 0.20083 1.12580 -0.41204
 C277 C 0.17930 1.11100 -0.34787
 N278 N 0.15395 1.09387 -0.37499
 N279 N 0.13374 1.08306 -0.31745
 C280 C 0.13827 1.08837 -0.23064
 N281 N 0.16388 1.10436 -0.20339
 N282 N 0.18394 1.11587 -0.26100
 C283 C 0.11570 1.07754 -0.16730
 C284 C 0.08748 1.08518 -0.18872
 H285 H 0.20230 1.10601 -0.47221
 H286 H 0.12129 1.06476 -0.10323
 H287 H 0.21693 1.17947 -0.32991
 H288 H 0.08265 1.10179 -0.25047
 C289 C 0.30885 0.24600 -0.40079
 C290 C 0.31800 0.29220 -0.41752
 C291 C 0.34220 0.31341 -0.37172
 N292 N 0.34522 0.36136 -0.36830
 N293 N 0.36726 0.38097 -0.32774
 C294 C 0.38731 0.35330 -0.29027
 N295 N 0.38451 0.30534 -0.29482
 N296 N 0.36229 0.28573 -0.33447
 C297 C 0.41160 0.37454 -0.24481
 C298 C 0.41007 0.41984 -0.20846
 H299 H 0.30688 0.31349 -0.46499
 H300 H 0.43018 0.35288 -0.23392
 H301 H 0.31769 0.22645 -0.34675
 H302 H 0.39037 0.43942 -0.21160
 C303 C -0.19480 0.74361 -0.38745
 C304 C -0.18596 0.79077 -0.39208
 C305 C -0.16181 0.80916 -0.34240
 N306 N -0.15823 0.85676 -0.33375
 N307 N -0.13598 0.87424 -0.29135
 C308 C -0.11625 0.84479 -0.25700
 N309 N -0.11963 0.79712 -0.26652
 N310 N -0.14208 0.77959 -0.30824
 C311 C -0.09162 0.86421 -0.21045
 C312 C -0.09251 0.90971 -0.17484
 H313 H -0.19701 0.81499 -0.43478
 H314 H -0.07318 0.84203 -0.20108
 H315 H -0.18608 0.72012 -0.33877
 H316 H -0.11204 0.92978 -0.17786
 C317 C 0.28896 0.71663 0.42457
 C318 C 0.30320 0.72446 0.34622
 C319 C 0.32694 0.69396 0.31858
 N320 N 0.33477 0.69203 0.23359
 N321 N 0.35729 0.66681 0.20889
 C322 C 0.37315 0.64330 0.26844
 N323 N 0.36551 0.64565 0.35356
 N324 N 0.34274 0.67031 0.37811
 C325 C 0.39864 0.61679 0.24166
 C326 C 0.40062 0.59663 0.15907
 H327 H 0.29852 0.75558 0.30766
 H328 H 0.41555 0.61177 0.28810
 H329 H 0.29295 0.68378 0.45891
 H330 H 0.38231 0.59771 0.11679
 C331 C -0.20424 1.23582 0.41881
 C332 C -0.20240 1.22161 0.33172
 C333 C -0.17500 1.20553 0.29498
 N334 N -0.17441 1.17824 0.22204
 N335 N -0.15004 1.16043 0.19249
 C336 C -0.12526 1.16929 0.23452
 N337 N -0.12576 1.19733 0.30647
 N338 N -0.15015 1.21493 0.33625
 C339 C -0.09835 1.14779 0.20474
 C340 C -0.09812 1.11167 0.14253
 H341 H -0.22130 1.21614 0.29342
 H342 H -0.07871 1.15907 0.23470
 H343 H -0.18449 1.23783 0.45412
 H344 H -0.11810 1.09983 0.11544
 C345 C 0.69427 0.28408 0.43354
 C346 C 0.69025 0.30364 0.35127
 C347 C 0.66194 0.31732 0.31909
 N348 N 0.65980 0.34068 0.24241
 N349 N 0.63477 0.35582 0.21429
 C350 C 0.61074 0.34828 0.26148
 N351 N 0.61277 0.32429 0.33780
 N352 N 0.63790 0.30919 0.36613
 C353 C 0.58320 0.36773 0.23183
 C354 C 0.58270 0.40034 0.16368
 H355 H 0.70854 0.31284 0.31192
 H356 H 0.56386 0.35861 0.26611
 H357 H 0.67583 0.27663 0.47348
 H358 H 0.60271 0.41025 0.13388
 C359 C 0.21534 0.84323 0.40844
 C360 C 0.19470 0.82219 0.35643
 C361 C 0.17221 0.85029 0.31514
 N362 N 0.14740 0.82912 0.29294
 N363 N 0.12662 0.85425 0.25717
 C364 C 0.12997 0.90146 0.24156
 N365 N 0.15492 0.92252 0.26273
 N366 N 0.17560 0.89749 0.29942
 C367 C 0.10735 0.92935 0.20042
 C368 C 0.07916 0.91434 0.20164
 H369 H 0.19349 0.78376 0.35259
 H370 H 0.11292 0.96286 0.17013
 H371 H 0.21462 0.88118 0.42048
 H372 H 0.07334 0.88284 0.23810
   
