data_POSCAR
  _audit_creation_date              2014-09-24
  _audit_creation_method            'ToBaCCo'
  _symmetry_space_group_name_H-M    'P1'
  _symmetry_Int_Tables_number       1
  _symmetry_cell_setting            triclinic
  loop_
  _symmetry_equiv_pos_as_xyz
 x,y,z
_cell_length_a 34.5840
_cell_length_b 35.3127
_cell_length_c 34.6756
_cell_angle_alpha 88.875600
_cell_angle_beta 89.256900
_cell_angle_gamma 89.308800
loop_
  _atom_site_label
  _atom_site_type_symbol
  _atom_site_fract_x
  _atom_site_fract_y
  _atom_site_fract_z
C1 C 0.20173 0.19015 0.22138
 N2 N 0.23492 0.17785 0.20406
 C3 C 0.24793 0.19393 0.17047
 N4 N 0.22684 0.22232 0.15383
 C5 C 0.19339 0.23488 0.17031
 N6 N 0.18107 0.21884 0.20426
 C7 C -0.19538 0.79489 0.27058
 N8 N -0.17958 0.76167 0.25832
 C9 C -0.19907 0.73955 0.23362
 N10 N -0.23396 0.75152 0.22023
 C11 C -0.24993 0.78482 0.23165
 N12 N -0.23058 0.80597 0.25717
 C13 C -0.18631 0.20401 -0.23382
 N14 N -0.17920 0.24124 -0.22859
 C15 C -0.20087 0.26193 -0.20353
 N16 N -0.23034 0.24500 -0.18353
 C17 C -0.23791 0.20764 -0.18838
 N18 N -0.21555 0.18757 -0.21341
 C19 C 0.22413 0.80678 -0.23640
 N20 N 0.20243 0.77916 -0.21942
 C21 C 0.21448 0.76088 -0.18680
 N22 N 0.24879 0.77048 -0.17120
 C23 C 0.27092 0.79818 -0.18773
 N24 N 0.25814 0.81628 -0.22026
 C25 C 0.19255 1.20100 0.75805
 N26 N 0.17457 1.22924 0.77772
 C27 C 0.18861 1.24168 0.81159
 N28 N 0.22105 1.22493 0.82614
 C29 C 0.23943 1.19646 0.80708
 N30 N 0.22510 1.18478 0.77301
 C31 C 0.78597 0.78128 0.71762
 N32 N 0.79696 0.74672 0.73154
 C33 C 0.77804 0.72997 0.76169
 N34 N 0.74754 0.74839 0.77839
 C35 C 0.73594 0.78313 0.76482
 N36 N 0.75543 0.79933 0.73455
 C37 C 0.18375 0.80248 1.24369
 N38 N 0.21766 0.81678 1.22973
 C39 C 0.23343 0.80419 1.19617
 N40 N 0.21526 0.77668 1.17680
 C41 C 0.18147 0.76194 1.19014
 N42 N 0.16576 0.77532 1.22344
 C43 C 0.79722 1.21442 1.26017
 N44 N 0.80825 1.24842 1.24516
 C45 C 0.79209 1.26306 1.21256
 N46 N 0.76474 1.24275 1.19437
 C47 C 0.75365 1.20838 1.20872
 N48 N 0.76988 1.19459 1.24167
 O49 O 0.55572 0.97878 0.92474
 O50 O 0.47779 0.95243 1.07154
 O51 O 0.57851 0.93542 1.03569
 O52 O 0.45818 0.94523 0.98469
 O53 O 0.54692 0.95698 1.08443
 O54 O 0.48655 0.96096 0.93165
 O55 O 0.43297 0.98065 1.04041
 O56 O 0.56984 0.94018 0.96904
 C57 C 0.56900 0.94730 0.93437
 C58 C 0.44280 0.95599 1.06464
 C59 C 0.56982 0.93343 1.07038
 C60 C 0.46651 0.93765 0.95078
 O61 O 0.46992 1.03522 0.94489
 O62 O 0.54590 1.02932 1.07831
 O63 O 0.59103 1.01589 0.97018
 O64 O 0.46023 1.04390 1.01225
 O65 O 0.47391 1.02923 1.07092
 O66 O 0.53983 1.04674 0.95040
 O67 O 0.41985 1.00562 0.96970
 O68 O 0.59455 1.00946 1.04139
 Co69 Co 0.51324 1.00350 0.94485
 Co70 Co 0.51113 0.99196 1.06976
 Co71 Co 0.57806 0.97670 1.00369
 Co72 Co 0.46177 0.99413 0.99801
 O73 O 0.51845 0.99017 1.00732
 C74 C 0.43371 1.02879 0.94321
 C75 C 0.58100 1.03044 1.06798
 C76 C 0.57556 1.04555 0.95593
 C77 C 0.45959 1.05215 1.04691
 O78 O 0.03804 0.46702 0.04081
 O79 O 0.03941 0.53974 -0.06039
 O80 O -0.00544 0.43002 -0.04589
 O81 O 0.00528 0.58421 0.02240
 O82 O 0.03740 0.47181 -0.05634
 O83 O 0.03845 0.53887 0.05170
 O84 O -0.00056 0.58429 -0.04887
 O85 O -0.00405 0.42603 0.02361
 C86 C 0.02910 0.43340 0.03602
 C87 C 0.03271 0.57412 -0.05880
 C88 C 0.02863 0.43792 -0.05496
 C89 C 0.03308 0.57325 0.04331
 O90 O -0.03411 0.53596 0.07377
 O91 O -0.03471 0.47354 -0.08803
 O92 O -0.07507 0.45956 0.02628
 O93 O -0.07258 0.55948 -0.04177
 O94 O -0.03463 0.54191 -0.08836
 O95 O -0.03392 0.46595 0.07079
 O96 O -0.06787 0.56815 0.03090
 O97 O -0.07504 0.46711 -0.04192
 Co98 Co 0.00057 0.50197 0.05258
 Co99 Co 0.00025 0.50674 -0.06787
 Co100 Co -0.03793 0.45067 -0.00956
 Co101 Co -0.03243 0.56747 -0.00967
 O102 O -0.01698 0.50696 -0.00816
 C103 C -0.06159 0.55836 0.06517
 C104 C -0.06835 0.46601 -0.07688
 C105 C -0.06730 0.45719 0.06080
 C106 C -0.06703 0.55460 -0.07682
 O107 O 1.09468 0.01891 0.46215
 O108 O 0.94347 0.04817 0.54274
 O109 O 0.98347 0.06685 0.44940
 O110 O 1.04444 0.02901 0.57660
 O111 O 0.93131 0.04358 0.47190
 O112 O 1.07137 0.04910 0.52414
 O113 O 0.97636 0.01569 0.58538
 O114 O 1.04848 0.05577 0.45369
 C115 C 1.08215 0.04752 0.44502
 C116 C 0.95526 0.04395 0.57645
 C117 C 0.94810 0.06895 0.45338
 C118 C 1.06409 0.05354 0.55897
 O119 O 1.10824 -0.01379 0.53100
 O120 O 0.93409 -0.02852 0.47621
 O121 O 1.04004 -0.01858 0.43065
 O122 O 0.98976 -0.05527 0.55606
 O123 O 0.93669 -0.02530 0.54819
 O124 O 1.06538 -0.04407 0.48220
 O125 O 1.05705 -0.04275 0.55134
 O126 O 0.96952 -0.00592 0.42788
 Co127 Co 1.06586 0.00237 0.50446
 Co128 Co 0.94317 0.00931 0.50946
 Co129 Co 1.01040 0.02293 0.44521
 Co130 Co 1.01610 -0.01157 0.56218
 O131 O 1.00647 0.00710 0.50369
 C132 C 1.09278 -0.03704 0.55605
 C133 C 0.94352 -0.02809 0.44105
 C134 C 1.05776 -0.04588 0.44707
 C135 C 0.95396 -0.05548 0.55595
 C136 C 1.15913 0.13474 0.32315
 C137 C 1.19057 0.11947 0.30224
 C138 C 1.20545 0.13838 0.26953
 C139 C 1.18852 0.17256 0.25589
 C140 C 1.15769 0.18826 0.27730
 C141 C 1.14383 0.17009 0.31079
 C142 C 1.14079 0.11314 0.35612
 C143 C 1.10110 0.11797 0.36411
 C144 C 1.08309 0.09751 0.39379
 C145 C 1.10363 0.07035 0.41574
 C146 C 1.14327 0.06512 0.40820
 C147 C 1.16179 0.08662 0.37897
 H148 H 1.22928 0.12518 0.25406
 H149 H 1.14433 0.21490 0.26849
 H150 H 1.05248 0.10239 0.39879
 H151 H 1.15985 0.04453 0.42485
 H152 H 1.12077 0.18389 0.32674
 H153 H 1.08325 0.13688 0.34685
 H154 H 1.20304 0.09224 0.31019
 H155 H 1.19252 0.08238 0.37439
 C156 C 0.86589 -0.13166 0.34226
 C157 C 0.82712 -0.12421 0.33340
 C158 C 0.80699 -0.14847 0.30983
 C159 C 0.82495 -0.18134 0.29513
 C160 C 0.86382 -0.18902 0.30476
 C161 C 0.88421 -0.16410 0.32769
 C162 C 0.88659 -0.10578 0.36744
 C163 C 0.92038 -0.08762 0.35453
 C164 C 0.93867 -0.06169 0.37806
 C165 C 0.92396 -0.05437 0.41520
 C166 C 0.89030 -0.07299 0.42803
 C167 C 0.87163 -0.09814 0.40424
 H168 H 0.77717 -0.14138 0.30342
 H169 H 0.87883 -0.21385 0.29405
 H170 H 0.96431 -0.04752 0.36730
 H171 H 0.87813 -0.06790 0.45643
 H172 H 0.91411 -0.17036 0.33451
 H173 H 0.93210 -0.09296 0.32601
 H174 H 0.81253 -0.09927 0.34444
 H175 H 0.84555 -0.11188 0.41464
 C176 C 0.88314 0.13898 0.69017
 C177 C 0.85467 0.12162 0.71333
 C178 C 0.83162 0.14308 0.73820
 C179 C 0.83691 0.18247 0.74098
 C180 C 0.86607 0.19962 0.71808
 C181 C 0.88867 0.17813 0.69272
 C182 C 0.90546 0.11641 0.66196
 C183 C 0.90779 0.12854 0.62324
 C184 C 0.92505 0.10537 0.59562
 C185 C 0.94079 0.06988 0.60632
 C186 C 0.94020 0.05858 0.64537
 C187 C 0.92233 0.08152 0.67293
 H188 H 0.80969 0.12859 0.75527
 H189 H 0.87125 0.22976 0.71927
 H190 H 0.92536 0.11487 0.56573
 H191 H 0.95217 0.03139 0.65439
 H192 H 0.91055 0.19207 0.67511
 H193 H 0.89480 0.15524 0.61409
 H194 H 0.84958 0.09151 0.71145
 H195 H 0.92108 0.07177 0.70273
 C196 C 1.17687 -0.13000 0.66723
 C197 C 1.20644 -0.11464 0.68937
 C198 C 1.22282 -0.13565 0.71985
 C199 C 1.20965 -0.17227 0.72915
 C200 C 1.18115 -0.18812 0.70619
 C201 C 1.16525 -0.16742 0.67542
 C202 C 1.15632 -0.10654 0.63750
 C203 C 1.11629 -0.11062 0.63290
 C204 C 1.09624 -0.08842 0.60603
 C205 C 1.11541 -0.06100 0.58326
 C206 C 1.15544 -0.05670 0.58754
 C207 C 1.17575 -0.07933 0.61439
 H208 H 1.24473 -0.12263 0.73706
 H209 H 1.17083 -0.21649 0.71222
 H210 H 1.06543 -0.09260 0.60341
 H211 H 1.17095 -0.03581 0.57031
 H212 H 1.14337 -0.18063 0.65836
 H213 H 1.10007 -0.13052 0.65067
 H214 H 1.21590 -0.08586 0.68418
 H215 H 1.20663 -0.07564 0.61691
 C216 C 0.34925 1.15160 1.11564
 C217 C 0.32808 1.18149 1.09859
 C218 C 0.29504 1.19603 1.11697
 C219 C 0.28219 1.18071 1.15272
 C220 C 0.30406 1.15123 1.16998
 C221 C 0.33708 1.13692 1.15168
 C222 C 0.38227 1.13354 1.09513
 C223 C 0.41482 1.12104 1.11579
 C224 C 0.44202 1.09695 1.09880
 C225 C 0.43733 1.08512 1.06075
 C226 C 0.40693 1.10057 1.03881
 C227 C 0.37949 1.12455 1.05594
 H228 H 0.27929 1.21888 1.10269
 H229 H 0.29545 1.13858 1.19743
 H230 H 0.46550 1.08578 1.11618
 H231 H 0.40260 1.09178 1.00943
 H232 H 0.35239 1.11338 1.16523
 H233 H 0.41814 1.12829 1.14576
 H234 H 0.33694 1.19343 1.07090
 H235 H 0.35466 1.13371 1.03934
 C236 C 0.37075 0.83730 0.86831
 C237 C 0.35914 0.85341 0.83287
 C238 C 0.32709 0.83965 0.81375
 C239 C 0.30544 0.80947 0.82967
 C240 C 0.31831 0.79212 0.86425
 C241 C 0.35053 0.80590 0.88329
 C242 C 0.40101 0.85596 0.89116
 C243 C 0.39569 0.86052 0.93108
 C244 C 0.41948 0.88460 0.95138
 C245 C 0.44893 0.90486 0.93213
 C246 C 0.45650 0.89773 0.89303
 C247 C 0.43281 0.87343 0.87276
 H248 H 0.31860 0.85375 0.78711
 H249 H 0.30297 0.76849 0.87733
 H250 H 0.41290 0.88950 0.98152
 H251 H 0.47923 0.91267 0.87752
 H252 H 0.35908 0.79248 0.91025
 H253 H 0.37140 0.84774 0.94618
 H254 H 0.37364 0.87797 0.82071
 H255 H 0.43825 0.86979 0.84223
 C256 C 0.65592 0.83369 1.17139
 C257 C 0.66904 0.79702 1.16272
 C258 C 0.69865 0.77979 1.18408
 C259 C 0.71620 0.79915 1.21432
 C260 C 0.70100 0.83483 1.22455
 C261 C 0.67130 0.85185 1.20331
 C262 C 0.62944 0.85472 1.14515
 C263 C 0.60048 0.87879 1.15997
 C264 C 0.57975 0.90312 1.13540
 C265 C 0.58766 0.90396 1.09552
 C266 C 0.61508 0.87836 1.08047
 C267 C 0.63574 0.85397 1.10504
 H268 H 0.70893 0.75206 1.17555
 H269 H 0.71314 0.85059 1.24789
 H270 H 0.55856 0.92229 1.14785
 H271 H 0.62176 0.87825 1.04987
 H272 H 0.66195 0.88023 1.21058
 H273 H 0.59469 0.87959 1.19071
 H274 H 0.65722 0.78214 1.13862
 H275 H 0.65815 0.83602 1.09281
 C276 C 0.67785 1.14998 0.87947
 C277 C 0.70158 1.13040 0.85344
 C278 C 0.72849 1.14963 0.83046
 C279 C 0.73297 1.18912 0.83337
 C280 C 0.70846 1.20887 0.85915
 C281 C 0.68087 1.18944 0.88176
 C282 C 0.65103 1.12822 0.90456
 C283 C 0.61085 1.13325 0.90177
 C284 C 0.58578 1.10752 0.92021
 C285 C 0.60071 1.07666 0.94185
 C286 C 0.64093 1.07355 0.94677
 C287 C 0.66579 1.09889 0.92810
 H288 H 0.74636 1.13310 0.81102
 H289 H 0.71070 1.23923 0.86216
 H290 H 0.55494 1.11073 0.91601
 H291 H 0.65341 1.05039 0.96355
 H292 H 0.66263 1.20500 0.90170
 H293 H 0.59899 1.15568 0.88357
 H294 H 0.69938 1.09995 0.85102
 H295 H 0.69674 1.09471 0.93073
 C296 C 0.12492 0.31832 0.10867
 C297 C 0.16404 0.31243 0.09901
 C298 C 0.18627 0.28570 0.11938
 C299 C 0.17002 0.26449 0.15018
 C300 C 0.13100 0.27080 0.16023
 C301 C 0.10862 0.29729 0.13952
 C302 C 0.10140 0.34680 0.08704
 C303 C 0.06371 0.33842 0.07549
 C304 C 0.04085 0.36602 0.05698
 C305 C 0.05507 0.40270 0.05015
 C306 C 0.09322 0.41066 0.06053
 C307 C 0.11621 0.38294 0.07862
 H308 H 0.21624 0.28160 0.11086
 H309 H 0.11756 0.25486 0.18368
 H310 H 0.01155 0.35905 0.04936
 H311 H 0.10498 0.43865 0.05562
 H312 H 0.07864 0.30164 0.14787
 H313 H 0.05181 0.31060 0.08115
 H314 H 0.17728 0.32810 0.07526
 H315 H 0.14512 0.39020 0.08729
 C316 C -0.16119 0.37073 -0.16848
 C317 C -0.13849 0.34804 -0.19304
 C318 C -0.15248 0.31388 -0.20633
 C319 C -0.18932 0.30111 -0.19495
 C320 C -0.21310 0.32483 -0.17258
 C321 C -0.19931 0.35945 -0.15979
 C322 C -0.14308 0.40255 -0.14790
 C323 C -0.15260 0.40874 -0.10896
 C324 C -0.13005 0.43217 -0.08676
 C325 C -0.09702 0.44952 -0.10271
 C326 C -0.08936 0.44623 -0.14235
 C327 C -0.11240 0.42320 -0.16483
 H328 H -0.13335 0.29642 -0.22365
 H329 H -0.24187 0.31608 -0.16385
 H330 H -0.13689 0.43436 -0.05630
 H331 H -0.06443 0.45980 -0.15551
 H332 H -0.21803 0.37663 -0.14179
 H333 H -0.17565 0.39327 -0.09462
 H334 H -0.10887 0.35524 -0.20004
 H335 H -0.10491 0.42008 -0.19501
 C336 C 0.13993 0.68070 -0.12817
 C337 C 0.12601 0.70375 -0.15853
 C338 C 0.15042 0.72915 -0.17797
 C339 C 0.18930 0.73245 -0.16726
 C340 C 0.20332 0.70918 -0.13700
 C341 C 0.17894 0.68339 -0.11783
 C342 C 0.11362 0.65395 -0.10764
 C343 C 0.12513 0.61625 -0.10016
 C344 C 0.09917 0.59044 -0.08337
 C345 C 0.06134 0.60195 -0.07337
 C346 C 0.05040 0.64002 -0.07948
 C347 C 0.07618 0.66568 -0.09662
 H348 H 0.13858 0.74662 -0.20106
 H349 H 0.23311 0.71096 -0.12804
 H350 H 0.10847 0.56130 -0.07892
 H351 H 0.02152 0.64980 -0.07196
 H352 H 0.19037 0.66603 -0.09444
 H353 H 0.15376 0.60644 -0.10848
 H354 H 0.09621 0.70190 -0.16745
 H355 H 0.06674 0.69470 -0.10155
 C356 C -0.14616 0.64396 0.17850
 C357 C -0.12376 0.66799 0.20084
 C358 C -0.14116 0.69796 0.22067
 C359 C -0.18123 0.70455 0.21830
 C360 C -0.20384 0.67891 0.19816
 C361 C -0.18652 0.64889 0.17861
 C362 C -0.12729 0.61720 0.15147
 C363 C -0.14071 0.61516 0.11351
 C364 C -0.12033 0.59438 0.08605
 C365 C -0.08603 0.57503 0.09585
 C366 C -0.07365 0.57522 0.13430
 C367 C -0.09401 0.59632 0.16185
 H368 H -0.12296 0.71715 0.23605
 H369 H -0.23488 0.68280 0.19635
 H370 H -0.13071 0.59466 0.05671
 H371 H -0.04729 0.56056 0.14266
 H372 H -0.20460 0.63035 0.16230
 H373 H -0.16591 0.63130 0.10439
 H374 H -0.09256 0.66510 0.20109
 H375 H -0.08321 0.59711 0.19099
 C376 C 1.13940 0.15472 0.66035
 C377 C 1.17622 0.14198 0.67174
 C378 C 1.19433 0.15787 0.70333
 C379 C 1.17617 0.18722 0.72410
 C380 C 1.14014 0.20125 0.71109
 C381 C 1.12187 0.18493 0.67987
 C382 C 1.11786 0.13400 0.63085
 C383 C 1.08011 0.12177 0.63911
 C384 C 1.06162 0.09731 0.61435
 C385 C 1.08024 0.08516 0.58048
 C386 C 1.11691 0.09941 0.57080
 C387 C 1.13578 0.12333 0.59604
 H388 H 1.22215 0.14639 0.71197
 H389 H 1.12515 0.22399 0.72580
 H390 H 1.03335 0.08663 0.62246
 H391 H 1.13198 0.09013 0.54502
 H392 H 1.09359 0.19540 0.67146
 H393 H 1.06575 0.12933 0.66587
 H394 H 1.19022 0.11848 0.65732
 H395 H 1.16482 0.13257 0.58898
 C396 C 0.85605 -0.16205 0.63433
 C397 C 0.86537 -0.19909 0.64653
 C398 C 0.84150 -0.21834 0.67297
 C399 C 0.80790 -0.20078 0.68823
 C400 C 0.79803 -0.16409 0.67481
 C401 C 0.82182 -0.14502 0.64825
 C402 C 0.88284 -0.14004 0.60911
 C403 C 0.86809 -0.11585 0.58014
 C404 C 0.89213 -0.09014 0.56092
 C405 C 0.93148 -0.08818 0.57013
 C406 C 0.94706 -0.11443 0.59675
 C407 C 0.92284 -0.14016 0.61621
 H408 H 0.85014 -0.24666 0.68213
 H409 H 0.77246 -0.14950 0.68552
 H410 H 0.87955 -0.07054 0.54005
 H411 H 0.97729 -0.11337 0.60440
 H412 H 0.81411 -0.11627 0.63973
 H413 H 0.83758 -0.11576 0.57344
 H414 H 0.89136 -0.21303 0.63593
 H415 H 0.93498 -0.15843 0.63850
 C416 C 1.12916 -0.14924 0.34152
 C417 C 1.11049 -0.17714 0.32066
 C418 C 1.12904 -0.19417 0.28928
 C419 C 1.16646 -0.18299 0.27743
 C420 C 1.18548 -0.15579 0.29933
 C421 C 1.16711 -0.13935 0.33113
 C422 C 1.10804 -0.12779 0.37158
 C423 C 1.12499 -0.12099 0.40735
 C424 C 1.10709 -0.09638 0.43345
 C425 C 1.07244 -0.07756 0.42371
 C426 C 1.05472 -0.08572 0.38869
 C427 C 1.07213 -0.11089 0.36304
 H428 H 1.11332 -0.21513 0.27357
 H429 H 1.21435 -0.14654 0.29161
 H430 H 1.12151 -0.09032 0.46014
 H431 H 1.02813 -0.07148 0.38049
 H432 H 1.18197 -0.11762 0.34660
 H433 H 1.15264 -0.13382 0.41455
 H434 H 1.08122 -0.18528 0.32826
 H435 H 1.05864 -0.11545 0.33553
 C436 C 0.85628 0.16555 0.35530
 C437 C 0.82513 0.14679 0.33886
 C438 C 0.80495 0.16330 0.30816
 C439 C 0.81544 0.19909 0.29306
 C440 C 0.84571 0.21849 0.31074
 C441 C 0.86598 0.20180 0.34136
 C442 C 0.88016 0.14591 0.38484
 C443 C 0.92073 0.14641 0.38191
 C444 C 0.94320 0.12305 0.40592
 C445 C 0.92545 0.09879 0.43324
 C446 C 0.88503 0.10030 0.43791
 C447 C 0.86262 0.12361 0.41392
 H448 H 0.78175 0.14742 0.29573
 H449 H 0.85458 0.24624 0.30040
 H450 H 0.97429 0.12249 0.40168
 H451 H 0.87055 0.08218 0.45896
 H452 H 0.88962 0.21703 0.35381
 H453 H 0.93501 0.16315 0.35958
 H454 H 0.81730 0.11859 0.34873
 H455 H 0.83144 0.12322 0.41724
 C456 C 0.12670 0.32547 -0.12609
 C457 C 0.11204 0.31132 -0.16037
 C458 C 0.13287 0.28442 -0.18131
 C459 C 0.16874 0.27029 -0.16807
 C460 C 0.18356 0.28496 -0.13374
 C461 C 0.16289 0.31256 -0.11321
 C462 C 0.10343 0.35305 -0.10382
 C463 C 0.11843 0.38842 -0.09437
 C464 C 0.09455 0.41591 -0.07728
 C465 C 0.05552 0.40811 -0.06885
 C466 C 0.04132 0.37193 -0.07646
 C467 C 0.06491 0.34484 -0.09406
 H468 H 0.12026 0.27423 -0.20752
 H469 H 0.21108 0.27513 -0.12257
 H470 H 0.10629 0.44350 -0.07157
 H471 H 0.01145 0.36497 -0.07018
 H472 H 0.17468 0.32316 -0.08678
 H473 H 0.14810 0.39530 -0.10171
 H474 H 0.08430 0.32120 -0.17102
 H475 H 0.05288 0.31760 -0.10078
 C476 C -0.16222 0.36218 0.15945
 C477 C -0.19802 0.34784 0.14784
 C478 C -0.21353 0.31551 0.16565
 C479 C -0.19455 0.29753 0.19672
 C480 C -0.16064 0.31399 0.21063
 C481 C -0.14436 0.34538 0.19183
 C482 C -0.14161 0.39139 0.13547
 C483 C -0.11380 0.41534 0.15137
 C484 C -0.09022 0.43801 0.12745
 C485 C -0.09477 0.43795 0.08733
 C486 C -0.12425 0.41618 0.07176
 C487 C -0.14690 0.39288 0.09533
 H488 H -0.24027 0.30448 0.15473
 H489 H -0.14513 0.30135 0.23467
 H490 H -0.06796 0.45488 0.14018
 H491 H -0.12846 0.41536 0.04088
 H492 H -0.11667 0.35501 0.20165
 H493 H -0.10945 0.41591 0.18219
 H494 H -0.21371 0.36084 0.12417
 H495 H -0.16706 0.37453 0.08147
 C496 C -0.16971 0.63341 -0.18104
 C497 C -0.15081 0.65185 -0.21209
 C498 C -0.16883 0.68171 -0.23202
 C499 C -0.20604 0.69438 -0.22114
 C500 C -0.22600 0.67452 -0.19176
 C501 C -0.20815 0.64414 -0.17216
 C502 C -0.14758 0.60702 -0.15522
 C503 C -0.15395 0.60790 -0.11515
 C504 C -0.12901 0.58883 -0.09002
 C505 C -0.09662 0.56877 -0.10415
 C506 C -0.09153 0.56561 -0.14418
 C507 C -0.11691 0.58440 -0.16950
 H508 H -0.15254 0.69620 -0.25462
 H509 H -0.25491 0.68318 -0.18309
 H510 H -0.13400 0.59165 -0.05930
 H511 H -0.06718 0.54985 -0.15589
 H512 H -0.22401 0.62996 -0.14908
 H513 H -0.17676 0.62528 -0.10285
 H514 H -0.12112 0.64493 -0.21959
 H515 H -0.11167 0.58228 -0.20023
 C516 C 0.12292 0.68133 0.12444
 C517 C 0.10521 0.69677 0.15726
 C518 C 0.12484 0.72265 0.17956
 C519 C 0.16236 0.73441 0.16890
 C520 C 0.18000 0.71853 0.13591
 C521 C 0.16060 0.69196 0.11421
 C522 C 0.10171 0.65450 0.10075
 C523 C 0.11672 0.61807 0.09414
 C524 C 0.09497 0.59174 0.07433
 C525 C 0.05831 0.60183 0.06011
 C526 C 0.04423 0.63891 0.06526
 C527 C 0.06556 0.66487 0.08578
 H528 H 0.11012 0.73400 0.20464
 H529 H 0.20887 0.72650 0.12672
 H530 H 0.10646 0.56334 0.07076
 H531 H 0.01595 0.64739 0.05488
 H532 H 0.17468 0.68030 0.08893
 H533 H 0.14460 0.60962 0.10553
 H534 H 0.07617 0.68861 0.16571
 H535 H 0.05367 0.69296 0.09041
 C536 C 0.32973 1.13049 0.86134
 C537 C 0.30659 1.15543 0.88295
 C538 C 0.27847 1.17811 0.86500
 C539 C 0.27241 1.17585 0.82510
 C540 C 0.29644 1.15170 0.80329
 C541 C 0.32508 1.12947 0.82123
 C542 C 0.35666 1.10389 0.88119
 C543 C 0.39564 1.10065 0.86963
 C544 C 0.42086 1.07604 0.88957
 C545 C 0.40723 1.05368 0.92074
 C546 C 0.36800 1.05638 0.93153
 C547 C 0.34312 1.08144 0.91221
 H548 H 0.26048 1.19632 0.88268
 H549 H 0.29260 1.14943 0.77248
 H550 H 0.45097 1.07454 0.88070
 H551 H 0.35654 1.03972 0.95550
 H552 H 0.34253 1.11033 0.80403
 H553 H 0.40668 1.11774 0.84576
 H554 H 0.30985 1.15686 0.91391
 H555 H 0.31310 1.08316 0.92138
 C556 C 0.32861 0.86327 1.14268
 C557 C 0.32033 0.86786 1.18208
 C558 C 0.29002 0.84795 1.19992
 C559 C 0.26787 0.82269 1.17875
 C560 C 0.27738 0.81704 1.13969
 C561 C 0.30723 0.83731 1.12182
 C562 C 0.35819 0.88670 1.12277
 C563 C 0.34927 0.90577 1.08803
 C564 C 0.37673 0.92843 1.06926
 C565 C 0.41386 0.93200 1.08457
 C566 C 0.42296 0.91261 1.11912
 C567 C 0.39521 0.89042 1.13827
 H568 H 0.28350 0.85285 1.23005
 H569 H 0.26096 0.79784 1.12248
 H570 H 0.36898 0.94292 1.04261
 H571 H 0.45139 0.91496 1.13156
 H572 H 0.31338 0.83302 1.09149
 H573 H 0.32078 0.90356 1.07570
 H574 H 0.33639 0.88786 1.19870
 H575 H 0.40276 0.87583 1.16494
 C576 C 0.67859 1.13565 1.14630
 C577 C 0.69654 1.16641 1.12738
 C578 C 0.71999 1.19088 1.14784
 C579 C 0.72641 1.18462 1.18745
 C580 C 0.70827 1.15389 1.20626
 C581 C 0.68448 1.12984 1.18598
 C582 C 0.65347 1.10964 1.12513
 C583 C 0.61755 1.09920 1.14099
 C584 C 0.59416 1.07374 1.12215
 C585 C 0.60627 1.05772 1.08713
 C586 C 0.64217 1.06827 1.07103
 C587 C 0.66546 1.09425 1.08976
 H588 H 0.73378 1.21415 1.13246
 H589 H 0.71262 1.14825 1.23672
 H590 H 0.56666 1.06626 1.13534
 H591 H 0.65214 1.05657 1.04398
 H592 H 0.67120 1.10619 1.20121
 H593 H 0.60746 1.11090 1.16800
 H594 H 0.69219 1.17165 1.09686
 H595 H 0.69317 1.10172 1.07705
 C596 C 0.65182 0.84860 0.82916
 C597 C 0.65590 0.80930 0.83592
 C598 C 0.68232 0.78777 0.81433
 C599 C 0.70505 0.80490 0.78515
 C600 C 0.69960 0.84381 0.77713
 C601 C 0.67348 0.86539 0.79894
 C602 C 0.62743 0.87240 0.85526
 C603 C 0.60734 0.90473 0.84131
 C604 C 0.58743 0.92874 0.86672
 C605 C 0.58707 0.92083 0.90658
 C606 C 0.60600 0.88789 0.92031
 C607 C 0.62601 0.86414 0.89508
 H608 H 0.68542 0.75781 0.82102
 H609 H 0.71661 0.85805 0.75491
 H610 H 0.57289 0.95378 0.85528
 H611 H 0.60637 0.88098 0.95088
 H612 H 0.67156 0.89558 0.79314
 H613 H 0.60730 0.91169 0.81077
 H614 H 0.63911 0.79519 0.85837
 H615 H 0.64162 0.84001 0.90709
   
