data_POSCAR
  _audit_creation_date              2014-09-24
  _audit_creation_method            'ToBaCCo'
  _symmetry_space_group_name_H-M    'P1'
  _symmetry_Int_Tables_number       1
  _symmetry_cell_setting            triclinic
  loop_
  _symmetry_equiv_pos_as_xyz
 x,y,z
_cell_length_a 18.0576
_cell_length_b 22.9444
_cell_length_c 7.6328
_cell_angle_alpha 90.810300
_cell_angle_beta 89.306800
_cell_angle_gamma 90.275700
loop_
  _atom_site_label
  _atom_site_type_symbol
  _atom_site_fract_x
  _atom_site_fract_y
  _atom_site_fract_z
O1 O 0.23071 0.29951 -0.05691
 O2 O 0.34141 0.18283 0.14622
 O3 O 0.22327 0.18466 -0.04620
 O4 O 0.36237 0.29342 0.07522
 O5 O 0.30452 0.30846 0.32803
 O6 O 0.16452 0.19716 0.20677
 O7 O 0.27879 0.19582 0.39419
 O8 O 0.16925 0.30893 0.19360
 Cu9 Cu 0.29514 0.23863 0.00480
 Cu10 Cu 0.22530 0.25535 0.30483
 C11 C 0.18077 0.32430 0.03676
 C12 C 0.32763 0.16905 0.30498
 C13 C 0.17154 0.17097 0.05905
 C14 C 0.35698 0.32015 0.22061
 O15 O 0.85780 0.30872 0.44906
 O16 O 0.72185 0.19618 0.57508
 O17 O 0.85478 0.19518 0.44666
 O18 O 0.72418 0.31137 0.57770
 O19 O 0.67885 0.30948 0.31028
 O20 O 0.80996 0.19457 0.17853
 O21 O 0.67771 0.19578 0.30660
 O22 O 0.81255 0.30764 0.18148
 Cu23 Cu 0.79393 0.25301 0.53959
 Cu24 Cu 0.73994 0.25208 0.21766
 C25 C 0.85810 0.32735 0.29340
 C26 C 0.67804 0.17561 0.46056
 C27 C 0.85412 0.17476 0.29123
 C28 C 0.67980 0.33071 0.46483
 O29 O 0.82788 0.69954 0.65891
 O30 O 0.68719 0.81122 0.61920
 O31 O 0.82129 0.81074 0.75788
 O32 O 0.68732 0.69832 0.60362
 O33 O 0.65236 0.68753 0.87960
 O34 O 0.78094 0.79997 1.02948
 O35 O 0.65147 0.80075 0.89446
 O36 O 0.79706 0.68854 0.93724
 Cu37 Cu 0.76017 0.75717 0.63641
 Cu38 Cu 0.71798 0.74194 0.95979
 C39 C 0.83688 0.67475 0.80361
 C40 C 0.64557 0.82570 0.74727
 C41 C 0.82319 0.82495 0.92013
 C42 C 0.64723 0.67328 0.71960
 O43 O 0.32270 0.81981 0.75697
 O44 O 0.21199 0.70117 0.94888
 O45 O 0.34309 0.71006 0.81102
 O46 O 0.19045 0.81278 0.89603
 O47 O 0.14420 0.79382 0.63499
 O48 O 0.29666 0.69068 0.55014
 O49 O 0.16379 0.68256 0.68946
 O50 O 0.27524 0.80112 0.49672
 Cu51 Cu 0.27126 0.76313 0.87970
 Cu52 Cu 0.21515 0.73973 0.56699
 C53 C 0.31818 0.83055 0.59455
 C54 C 0.16942 0.67130 0.85137
 C55 C 0.34580 0.68283 0.66540
 C56 C 0.14216 0.82182 0.77947
 C57 C 1.02962 0.05117 0.06637
 C58 C 0.95204 0.05007 0.04623
 C59 C 0.91791 -0.00056 -0.01965
 C60 C 0.95894 -0.05114 -0.05784
 C61 C 1.03617 -0.05099 -0.02883
 C62 C 1.07031 0.00026 0.03223
 H63 H 1.12967 0.00071 0.05268
 H64 H 0.85851 -0.00090 -0.03931
 C65 C 0.53437 0.55609 0.48177
 C66 C 0.45637 0.55672 0.47049
 C67 C 0.41788 0.50431 0.44451
 C68 C 0.45509 0.45119 0.42758
 C69 C 0.53321 0.45015 0.43741
 C70 C 0.57190 0.50281 0.46519
 H71 H 0.63188 0.50257 0.47096
 H72 H 0.35789 0.50485 0.43743
 C73 C -0.04284 0.44607 0.03770
 C74 C 0.03427 0.44465 0.00584
 C75 C 0.07000 0.49533 -0.05488
 C76 C 0.03007 0.54718 -0.07962
 C77 C -0.04644 0.54844 -0.03823
 C78 C -0.08192 0.49774 0.01743
 H79 H -0.14099 0.49847 0.04556
 H80 H 0.12917 0.49490 -0.08021
 C81 C 0.46348 0.95120 0.53483
 C82 C 0.54147 0.95284 0.54612
 C83 C 0.57992 1.00328 0.49798
 C84 C 0.54283 1.05149 0.43176
 C85 C 0.46587 1.04841 0.40594
 C86 C 0.42642 0.99906 0.46319
 H87 H 0.36674 0.99777 0.45015
 H88 H 0.63986 1.00431 0.50659
 C89 C 1.12474 0.12508 0.01178
 C90 C 1.07027 0.10502 0.11531
 H91 H 1.13546 0.10308 -0.11271
 H92 H 1.05715 0.12693 0.23809
 C93 C 0.59566 0.62562 0.67486
 C94 C 0.57850 0.60959 0.51162
 H95 H 0.57209 0.60124 0.78296
 H96 H 0.60149 0.63242 0.40015
 C97 C -0.08942 0.37357 0.24443
 C98 C -0.08608 0.39376 0.08140
 H99 H -0.05530 0.39318 0.34542
 H100 H -0.12205 0.37604 -0.01889
 C101 C 0.36227 0.87820 0.51847
 C102 C 0.42071 0.90086 0.60169
 H103 H 0.34699 0.89433 0.39122
 H104 H 0.43806 0.88181 0.72328
 C105 C -0.10712 0.62862 -0.18809
 C106 C -0.09144 0.60184 -0.03953
 H107 H -0.08129 0.61405 -0.30978
 H108 H -0.12062 0.61393 0.08039
 C109 C 0.36660 1.12085 0.38840
 C110 C 0.42685 1.09618 0.31788
 H111 H 0.34590 1.10607 0.51418
 H112 H 0.45032 1.11307 0.19749
 C113 C 1.08761 -0.13584 -0.19408
 C114 C 1.08375 -0.10309 -0.04760
 H115 H 1.05077 -0.12703 -0.30118
 H116 H 1.12364 -0.10968 0.05531
 C117 C 0.63126 0.38009 0.51162
 C118 C 0.57537 0.39559 0.40884
 H119 H 0.64331 0.40539 0.62892
 H120 H 0.56169 0.36839 0.29697
 C121 C 0.87025 -0.13093 -0.01952
 C122 C 0.91865 -0.10302 -0.12306
 H123 H 0.86599 -0.11792 0.11747
 H124 H 0.92520 -0.11544 -0.25971
 C125 C 0.41108 0.36654 0.25875
 C126 C 0.40924 0.39817 0.40669
 H127 H 0.45038 0.37771 0.15602
 H128 H 0.36649 0.39008 0.50434
 C129 C 0.12792 0.62220 -0.07240
 C130 C 0.06873 0.59883 -0.15048
 H131 H 0.14618 0.60505 0.05135
 H132 H 0.04782 0.61802 -0.26865
 C133 C 0.63206 1.12896 0.50363
 C134 C 0.58567 1.10433 0.38805
 H135 H 0.63604 1.11097 0.63382
 H136 H 0.57836 1.12307 0.25995
 C137 C 0.13701 0.37266 -0.03406
 C138 C 0.07727 0.39249 0.05367
 H139 H 0.15472 0.39268 -0.15528
 H140 H 0.05883 0.36959 0.16935
 C141 C 0.59145 0.87298 0.72595
 C142 C 0.58619 0.90022 0.57280
 H143 H 0.55898 0.88754 0.83836
 H144 H 0.62190 0.88737 0.46397
 C145 C 0.90453 0.12679 0.24452
 C146 C 0.90499 0.10112 0.08610
 H147 H 0.93989 0.11039 0.34615
 H148 H 0.86552 0.11418 -0.01156
 C149 C 0.40520 0.64004 0.63480
 C150 C 0.41175 0.61022 0.48395
 H151 H 0.44004 0.62925 0.74405
 H152 H 0.37371 0.61851 0.37851
   
