data_POSCAR
  _audit_creation_date              2014-09-24
  _audit_creation_method            'ToBaCCo'
  _symmetry_space_group_name_H-M    'P1'
  _symmetry_Int_Tables_number       1
  _symmetry_cell_setting            triclinic
  loop_
  _symmetry_equiv_pos_as_xyz
 x,y,z
_cell_length_a 24.1015
_cell_length_b 24.1969
_cell_length_c 24.3965
_cell_angle_alpha 90.200900
_cell_angle_beta 90.188700
_cell_angle_gamma 89.781200
loop_
  _atom_site_label
  _atom_site_type_symbol
  _atom_site_fract_x
  _atom_site_fract_y
  _atom_site_fract_z
N1 N 0.19206 0.19651 0.18889
 N2 N -0.18024 0.82075 0.19004
 N3 N -0.19262 0.18723 -0.18883
 N4 N 0.18451 0.81638 -0.18690
 N5 N 0.19458 1.19459 0.81234
 N6 N 0.81546 0.82027 0.80613
 N7 N 0.18275 0.81430 1.18755
 N8 N 0.81082 1.19105 1.18859
 O9 O 0.42515 0.89450 0.90378
 O10 O 0.36271 0.94357 0.95561
 C11 C 0.37516 0.90621 0.91938
 O12 O 0.57981 0.90046 1.10006
 O13 O 0.63918 0.95412 1.04967
 C14 C 0.62907 0.91747 1.08688
 O15 O 0.42289 0.89335 1.09595
 O16 O 0.36111 0.94554 1.04631
 C17 C 0.37268 0.90731 1.08152
 O18 O 0.57925 0.90444 0.89987
 O19 O 0.63907 0.95472 0.95349
 C20 C 0.62875 0.91984 0.91424
 Zr21 Zr 0.50093 0.92809 0.93125
 O22 O 0.50969 0.84104 0.92899
 O23 O 0.49448 0.93077 0.84472
 Zr24 Zr 0.50092 0.92488 1.06973
 O25 O 0.50911 0.83779 1.06564
 O26 O 0.49563 0.92102 1.15619
 O27 O 0.45178 0.91443 1.00013
 O28 O 0.54950 0.91748 1.00038
 O29 O 0.57456 1.09749 0.90585
 O30 O 0.63651 1.04506 0.95538
 C31 C 0.62458 1.08225 0.91917
 O32 O 0.41847 1.09411 1.09850
 O33 O 0.35899 1.03871 1.04937
 C34 C 0.36921 1.07772 1.08438
 O35 O 0.57455 1.09143 1.10570
 O36 O 0.63626 1.04622 1.04985
 C37 C 0.62458 1.08008 1.08944
 O38 O 0.41801 1.09976 0.91174
 O39 O 0.35891 1.04150 0.95706
 C40 C 0.36881 1.08237 0.92448
 Zr41 Zr 0.49695 1.06780 0.93449
 O42 O 0.50095 1.15512 0.93340
 O43 O 0.49018 1.06636 0.84793
 Zr44 Zr 0.49737 1.06466 1.07311
 O45 O 0.50190 1.15203 1.07518
 O46 O 0.49060 1.06275 1.15958
 Zr47 Zr 0.41653 0.99426 1.00187
 Zr48 Zr 0.58138 0.99824 1.00226
 O49 O 0.54495 1.07744 1.00414
 O50 O 0.44744 1.07578 1.00403
 O51 O 0.54830 0.99934 0.92219
 O52 O 0.45117 0.99355 1.08128
 O53 O 0.45050 0.99697 0.92266
 O54 O 0.54857 0.99570 1.08225
 H55 H 0.57582 0.88593 0.99968
 H56 H 0.42640 0.99259 1.11360
 H57 H 0.56903 1.11054 1.00501
 H58 H 0.42484 0.99698 0.89084
 H59 H 0.52410 0.94621 1.17126
 H60 H 0.52186 1.04030 1.17370
 H61 H 0.47010 1.16660 1.05388
 H62 H 0.47466 1.16893 0.96133
 H63 H 0.52484 1.05006 0.83334
 H64 H 0.52471 0.95458 0.83118
 H65 H 0.48139 0.82552 0.95375
 H66 H 0.47526 0.82310 1.04785
 O67 O 0.09733 0.42651 -0.10205
 O68 O 0.04597 0.36551 -0.05150
 C69 C 0.08340 0.37675 -0.08806
 O70 O 0.09139 0.58156 0.09624
 O71 O 0.04133 0.64149 0.04279
 C72 C 0.07633 0.63099 0.08190
 O73 O 0.09811 0.42749 0.09185
 O74 O 0.04620 0.36624 0.04159
 C75 C 0.08402 0.37773 0.07779
 O76 O 0.09023 0.58128 -0.10589
 O77 O 0.03895 0.64203 -0.05404
 C78 C 0.07449 0.63089 -0.09233
 Zr79 Zr 0.06601 0.50358 -0.07434
 O80 O 0.15357 0.51037 -0.07214
 O81 O 0.06737 0.49742 -0.16090
 Zr82 Zr 0.06687 0.50421 0.06375
 O83 O 0.15436 0.51116 0.05997
 O84 O 0.07015 0.49881 0.15025
 O85 O 0.07778 0.45429 -0.00524
 O86 O 0.07593 0.55237 -0.00544
 O87 O -0.10085 0.57968 -0.10622
 O88 O -0.05301 0.64084 -0.05171
 C89 C -0.08790 0.62933 -0.09050
 O90 O -0.10499 0.42587 0.08995
 O91 O -0.04992 0.36511 0.04206
 C92 C -0.08903 0.37620 0.07692
 O93 O -0.09896 0.58163 0.09584
 O94 O -0.05038 0.64197 0.04207
 C95 C -0.08500 0.63124 0.08099
 O96 O -0.10425 0.42426 -0.10026
 O97 O -0.05081 0.36415 -0.04988
 C98 C -0.08950 0.37477 -0.08552
 Zr99 Zr -0.07444 0.50240 -0.07408
 O100 O -0.16210 0.50822 -0.07210
 O101 O -0.07656 0.49557 -0.16058
 Zr102 Zr -0.07366 0.50344 0.06437
 O103 O -0.16129 0.50987 0.06440
 O104 O -0.07343 0.49704 0.15090
 Zr105 Zr -0.00292 0.42101 -0.00490
 Zr106 Zr -0.00486 0.58557 -0.00536
 O107 O -0.08479 0.55088 -0.00493
 O108 O -0.08432 0.45345 -0.00471
 O109 O -0.00487 0.55202 -0.08523
 O110 O -0.00291 0.45602 0.07424
 O111 O -0.00376 0.45503 -0.08417
 O112 O -0.00386 0.55296 0.07470
 H113 H 0.10777 0.57816 -0.00558
 H114 H -0.00270 0.43150 0.10669
 H115 H -0.11750 0.57583 -0.00471
 H116 H -0.00382 0.43009 -0.11647
 H117 H 0.04276 0.52549 0.16494
 H118 H -0.05122 0.52809 0.16548
 H119 H -0.17578 0.47955 0.04120
 H120 H -0.17616 0.47533 -0.05268
 H121 H -0.05207 0.52457 -0.17538
 H122 H 0.04198 0.52609 -0.17543
 H123 H 0.16822 0.47779 -0.05240
 H124 H 0.16894 0.47710 0.04257
 O125 O 0.91101 0.10952 0.42131
 O126 O 0.96285 0.05626 0.36247
 C127 C 0.92584 0.09391 0.37234
 O128 O 1.10526 0.10845 0.58050
 O129 O 1.05207 0.05668 0.63858
 C130 C 1.08959 0.09357 0.62922
 O131 O 1.10443 0.11236 0.42596
 O132 O 1.05460 0.05992 0.36468
 C133 C 1.09000 0.09841 0.37645
 O134 O 0.90285 0.10309 0.57662
 O135 O 0.95692 0.05370 0.63666
 C136 C 0.91724 0.08823 0.62593
 Zr137 Zr 0.93663 0.07913 0.49947
 O138 O 0.93617 0.16639 0.50648
 O139 O 0.84916 0.07930 0.49154
 Zr140 Zr 1.07707 0.08115 0.50234
 O141 O 1.07548 0.16844 0.50823
 O142 O 1.16483 0.08169 0.49886
 O143 O 1.00746 0.09106 0.45211
 O144 O 1.00574 0.08994 0.54849
 O145 O 0.90722 -0.08732 0.57498
 O146 O 0.96015 -0.03805 0.63618
 C147 C 0.92225 -0.07405 0.62451
 O148 O 1.10592 -0.09146 0.42551
 O149 O 1.05882 -0.03638 0.36451
 C150 C 1.09365 -0.07558 0.37625
 O151 O 1.10922 -0.08538 0.57874
 O152 O 1.05571 -0.03455 0.63815
 C153 C 1.09438 -0.07036 0.62769
 O154 O 0.91337 -0.09020 0.42062
 O155 O 0.96651 -0.03857 0.36216
 C156 C 0.92955 -0.07591 0.37198
 Zr157 Zr 0.93924 -0.06079 0.49856
 O158 O 0.94223 -0.14812 0.50343
 O159 O 0.85171 -0.06321 0.49140
 Zr160 Zr 1.07976 -0.05855 0.50144
 O161 O 1.08439 -0.14567 0.50714
 O162 O 1.16735 -0.05419 0.49659
 Zr163 Zr 1.00964 0.01037 0.41915
 Zr164 Zr 1.00694 0.00970 0.58161
 O165 O 1.00894 -0.07014 0.54730
 O166 O 1.01049 -0.07043 0.45119
 O167 O 0.92635 0.00875 0.54760
 O168 O 1.08939 0.01156 0.45441
 O169 O 0.92870 0.00918 0.45142
 O170 O 1.08853 0.01128 0.55098
 H171 H 1.00427 0.12217 0.57362
 H172 H 1.12215 0.01201 0.42997
 H173 H 1.00931 -0.10271 0.57181
 H174 H 0.89638 0.00882 0.42622
 H175 H 1.17881 0.06052 0.53069
 H176 H 1.18079 -0.03525 0.53006
 H177 H 1.05566 -0.16083 0.48235
 H178 H 0.96145 -0.16195 0.47031
 H179 H 0.83623 -0.03987 0.52103
 H180 H 0.83442 0.05420 0.51982
 H181 H 0.95663 0.18123 0.47470
 H182 H 1.05210 0.18230 0.47781
 C183 C 1.11010 0.16013 0.23626
 C184 C 1.16552 0.17692 0.23756
 C185 C 1.19373 0.17557 0.28810
 C186 C 1.16830 0.15225 0.33458
 C187 C 1.11491 0.12869 0.33053
 C188 C 1.08569 0.13590 0.28140
 C189 C 1.05431 0.09560 0.24682
 C190 C 1.08107 0.12231 0.19725
 H191 H 1.23588 0.19062 0.29096
 H192 H 1.19162 0.14961 0.37249
 H193 H 1.00877 0.10266 0.24881
 H194 H 1.06791 0.05212 0.25330
 H195 H 1.05085 0.14468 0.17085
 H196 H 1.11006 0.09437 0.17500
 C197 C 0.81832 -0.13301 0.27963
 C198 C 0.84810 -0.15232 0.23441
 C199 C 0.90524 -0.14034 0.23190
 C200 C 0.93200 -0.11423 0.27636
 C201 C 0.90237 -0.10165 0.32459
 C202 C 0.84490 -0.10902 0.32399
 C203 C 0.80752 -0.13656 0.36408
 C204 C 0.77817 -0.16271 0.31522
 H205 H 0.92916 -0.15177 0.19613
 H206 H 0.97609 -0.10610 0.27396
 H207 H 0.78117 -0.10633 0.38657
 H208 H 0.82966 -0.16710 0.39026
 H209 H 0.73502 -0.14735 0.30944
 H210 H 0.78316 -0.20838 0.31304
 C211 C 0.81522 0.17128 0.71156
 C212 C 0.83375 0.16136 0.76501
 C213 C 0.87513 0.12097 0.77266
 C214 C 0.90115 0.09598 0.72742
 C215 C 0.88651 0.11102 0.67332
 C216 C 0.84112 0.14675 0.66672
 C217 C 0.83547 0.19763 0.63281
 C218 C 0.80756 0.22463 0.68192
 H219 H 0.88767 0.10921 0.81360
 H220 H 0.93403 0.06634 0.73507
 H221 H 0.80692 0.19147 0.59746
 H222 H 0.87621 0.21627 0.62247
 H223 H 0.76305 0.23445 0.67474
 H224 H 0.83250 0.25879 0.69985
 C225 C 1.16741 -0.17690 0.71397
 C226 C 1.16634 -0.15314 0.76619
 C227 C 1.14983 -0.09749 0.77104
 C228 C 1.12776 -0.06934 0.72544
 C229 C 1.12325 -0.09618 0.67420
 C230 C 1.14685 -0.14882 0.66886
 C231 C 1.12310 -0.20025 0.64444
 C232 C 1.14560 -0.23100 0.69406
 H233 H 1.15126 -0.07704 0.81056
 H234 H 1.11245 -0.02756 0.73072
 H235 H 1.14404 -0.21203 0.60557
 H236 H 1.07699 -0.19927 0.64243
 H237 H 1.17949 -0.26051 0.68378
 H238 H 1.11240 -0.24788 0.72067
 C239 C 0.26633 1.18868 1.11987
 C240 C 0.23416 1.16457 1.16106
 C241 C 0.24234 1.10756 1.17117
 C242 C 0.28551 1.07830 1.14484
 C243 C 0.32158 1.10579 1.10888
 C244 C 0.30901 1.16013 1.09462
 C245 C 0.34499 1.21005 1.09201
 C246 C 0.29807 1.24152 1.11988
 H247 H 0.21664 1.08595 1.20032
 H248 H 0.29246 1.03522 1.15470
 H249 H 0.35234 1.22348 1.04913
 H250 H 0.38286 1.20629 1.11791
 H251 H 0.27849 1.27319 1.09308
 H252 H 0.30873 1.25589 1.16194
 C253 C 0.28446 0.83911 0.81303
 C254 C 0.23448 0.83185 0.84119
 C255 C 0.23529 0.83835 0.89857
 C256 C 0.28252 0.86009 0.92488
 C257 C 0.32966 0.87481 0.89436
 C258 C 0.33134 0.85894 0.83927
 C259 C 0.35020 0.88941 0.78972
 C260 C 0.29816 0.86841 0.76104
 H261 H 0.19845 0.83001 0.92237
 H262 H 0.28162 0.86718 0.96853
 H263 H 0.38904 0.87157 0.77259
 H264 H 0.35080 0.93490 0.79574
 H265 H 0.30713 0.83918 0.72694
 H266 H 0.26843 0.90215 0.75102
 C267 C 0.72161 0.81659 1.16137
 C268 C 0.77112 0.84603 1.16701
 C269 C 0.77102 0.90236 1.15254
 C270 C 0.72434 0.92616 1.12708
 C271 C 0.67653 0.89433 1.11693
 C272 C 0.67507 0.84049 1.13751
 C273 C 0.65938 0.78801 1.10923
 C274 C 0.71056 0.76191 1.13510
 H275 H 0.80794 0.92705 1.15847
 H276 H 0.72618 0.96888 1.11407
 H277 H 0.66182 0.79110 1.06382
 H278 H 0.61988 0.77091 1.12516
 H279 H 0.74260 0.74999 1.10452
 H280 H 0.70054 0.72961 1.16577
 C281 C 0.72452 1.19058 0.87054
 C282 C 0.76306 1.15990 0.83994
 C283 C 0.75808 1.10171 0.84080
 C284 C 0.71315 1.07648 0.86732
 C285 C 0.67152 1.10870 0.89215
 C286 C 0.67965 1.16564 0.89572
 C287 C 0.64156 1.21227 0.88190
 C288 C 0.69077 1.23976 0.85439
 H289 H 0.78778 1.07545 0.82020
 H290 H 0.70950 1.03196 0.86616
 H291 H 0.62708 1.23466 0.91909
 H292 H 0.60827 1.20002 0.85267
 H293 H 0.70462 1.27794 0.87581
 H294 H 0.68607 1.24359 0.80919
 C295 C 0.17419 0.29591 0.17509
 C296 C 0.16575 0.24111 0.16041
 C297 C 0.12901 0.23119 0.11642
 C298 C 0.10180 0.27565 0.08999
 C299 C 0.11207 0.33117 0.10531
 C300 C 0.14927 0.33867 0.14854
 C301 C 0.17542 0.38104 0.18467
 C302 C 0.20375 0.33241 0.21457
 H303 H 0.12063 0.18925 0.10331
 H304 H 0.07196 0.26635 0.05841
 H305 H 0.14439 0.40330 0.21022
 H306 H 0.20482 0.40778 0.16199
 H307 H 0.18904 0.32667 0.25729
 H308 H 0.24947 0.33106 0.20902
 C309 C -0.13673 0.22877 -0.11510
 C310 C -0.16715 0.23447 -0.16365
 C311 C -0.17956 0.28829 -0.18164
 C312 C -0.15561 0.33450 -0.15546
 C313 C -0.11905 0.32754 -0.11056
 C314 C -0.11302 0.27413 -0.08945
 C315 C -0.06206 0.24264 -0.07407
 C316 C -0.08779 0.19297 -0.10247
 H317 H -0.20702 0.29446 -0.21625
 H318 H -0.16411 0.37526 -0.17167
 H319 H -0.05808 0.23752 -0.02898
 H320 H -0.02441 0.25823 -0.09510
 H321 H -0.09835 0.15902 -0.07380
 H322 H -0.06448 0.18019 -0.13966
 C323 C 0.17628 0.71608 -0.17246
 C324 C 0.15362 0.76922 -0.16935
 C325 C 0.09926 0.77496 -0.14914
 C326 C 0.07216 0.72945 -0.12534
 C327 C 0.09868 0.67737 -0.12274
 C328 C 0.14913 0.67112 -0.15033
 C329 C 0.20224 0.64494 -0.13211
 C330 C 0.23203 0.69442 -0.15640
 H331 H 0.07947 0.81520 -0.14851
 H332 H 0.03171 0.73557 -0.10703
 H333 H 0.21084 0.60570 -0.15438
 H334 H 0.20584 0.64242 -0.08672
 H335 H 0.25777 0.68365 -0.19264
 H336 H 0.25305 0.72028 -0.12491
 C337 C -0.12901 0.77674 0.11499
 C338 C -0.15671 0.77300 0.16444
 C339 C -0.16140 0.71980 0.18757
 C340 C -0.13868 0.67292 0.16030
 C341 C -0.10993 0.67869 0.10996
 C342 C -0.10604 0.73236 0.08956
 C343 C -0.08344 0.76684 0.04420
 C344 C -0.10998 0.81690 0.07328
 H345 H -0.18299 0.71455 0.22602
 H346 H -0.14317 0.63262 0.17887
 H347 H -0.10258 0.75750 0.00399
 H348 H -0.03749 0.76804 0.04408
 H349 H -0.14517 0.83559 0.05021
 H350 H -0.07920 0.84658 0.09011
 C351 C 1.17312 0.19303 0.71641
 C352 C 1.16832 0.17057 0.76889
 C353 C 1.12907 0.12820 0.77652
 C354 C 1.10236 0.10389 0.73117
 C355 C 1.11428 0.12151 0.67731
 C356 C 1.14758 0.16839 0.67159
 C357 C 1.19619 0.17867 0.63536
 C358 C 1.22404 0.20602 0.68442
 H359 H 1.12055 0.11290 0.81729
 H360 H 1.07406 0.07005 0.73831
 H361 H 1.18615 0.20813 0.60188
 H362 H 1.21705 0.13982 0.62206
 H363 H 1.22973 0.25126 0.67926
 H364 H 1.26131 0.18337 0.69937
 C365 C 0.81756 -0.15208 0.70894
 C366 C 0.84299 -0.15463 0.76048
 C367 C 0.89810 -0.13612 0.76528
 C368 C 0.92435 -0.11029 0.72081
 C369 C 0.89622 -0.10341 0.67044
 C370 C 0.84385 -0.12751 0.66475
 C371 C 0.79108 -0.10252 0.64422
 C372 C 0.76235 -0.12915 0.69274
 H373 H 0.91989 -0.13990 0.80397
 H374 H 0.96611 -0.09474 0.72621
 H375 H 0.77824 -0.12033 0.60410
 H376 H 0.79130 -0.05658 0.64611
 H377 H 0.73275 -0.16213 0.68056
 H378 H 0.74598 -0.09851 0.72274
 C379 C 1.14109 -0.18809 0.28068
 C380 C 1.16623 -0.15882 0.23784
 C381 C 1.17480 -0.10160 0.24594
 C382 C 1.15166 -0.07413 0.29148
 C383 C 1.12182 -0.10380 0.33105
 C384 C 1.12074 -0.16130 0.32684
 C385 C 1.07272 -0.19957 0.33172
 C386 C 1.09434 -0.22860 0.28075
 H387 H 1.19635 -0.07743 0.21558
 H388 H 1.15558 -0.02966 0.29492
 H389 H 1.03215 -0.17849 0.32539
 H390 H 1.07544 -0.22544 0.36919
 H391 H 1.06611 -0.22389 0.24492
 H392 H 1.10877 -0.27151 0.28878
 C393 C 0.85652 0.19861 0.27889
 C394 C 0.84033 0.16651 0.23382
 C395 C 0.85918 0.11139 0.23158
 C396 C 0.88858 0.08823 0.27610
 C397 C 0.89855 0.11937 0.32426
 C398 C 0.88405 0.17540 0.32340
 C399 C 0.85222 0.20953 0.36356
 C400 C 0.82223 0.23507 0.31480
 H401 H 0.85048 0.08619 0.19585
 H402 H 0.90123 0.04528 0.27383
 H403 H 0.87922 0.23929 0.38582
 H404 H 0.82469 0.18431 0.38998
 H405 H 0.83208 0.27949 0.30891
 H406 H 0.77733 0.22479 0.31298
 C407 C 0.12658 0.23124 -0.12611
 C408 C 0.16773 0.23906 -0.16559
 C409 C 0.17422 0.29279 -0.18673
 C410 C 0.14638 0.33804 -0.16213
 C411 C 0.11044 0.32999 -0.11707
 C412 C 0.09890 0.27543 -0.10254
 C413 C 0.09868 0.24845 -0.04780
 C414 C 0.12755 0.19928 -0.07402
 H415 H 0.20270 0.30002 -0.22015
 H416 H 0.15434 0.37923 -0.17733
 H417 H 0.05609 0.23896 -0.03347
 H418 H 0.12585 0.27087 -0.01846
 H419 H 0.10095 0.16191 -0.07636
 H420 H 0.16987 0.19214 -0.05734
 C421 C -0.11115 0.23771 0.14328
 C422 C -0.16556 0.23811 0.16158
 C423 C -0.19682 0.28643 0.15017
 C424 C -0.17222 0.33200 0.12263
 C425 C -0.11640 0.32944 0.10440
 C426 C -0.08825 0.28038 0.11547
 C427 C -0.03332 0.25246 0.11161
 C428 C -0.05969 0.20381 0.14247
 H429 H -0.23966 0.28917 0.16307
 H430 H -0.19687 0.36874 0.11528
 H431 H -0.00132 0.27443 0.13611
 H432 H -0.02220 0.24234 0.06859
 H433 H -0.04227 0.19747 0.18424
 H434 H -0.06434 0.16582 0.11715
 C435 C -0.16944 0.76018 -0.11259
 C436 C -0.16132 0.77143 -0.16842
 C437 C -0.12582 0.73537 -0.19794
 C438 C -0.10266 0.68825 -0.17298
 C439 C -0.11424 0.67622 -0.11797
 C440 C -0.14589 0.71398 -0.08795
 C441 C -0.19610 0.70350 -0.05399
 C442 C -0.22203 0.75387 -0.08084
 H443 H -0.11692 0.74279 -0.24072
 H444 H -0.07599 0.66114 -0.19664
 H445 H -0.18821 0.70922 -0.00944
 H446 H -0.21712 0.66416 -0.06507
 H447 H -0.22895 0.78862 -0.05170
 H448 H -0.25824 0.74339 -0.10716
 C449 C 0.16597 0.71444 0.17883
 C450 C 0.15181 0.76883 0.16580
 C451 C 0.10665 0.77776 0.13034
 C452 C 0.08098 0.73281 0.10379
 C453 C 0.09973 0.67817 0.11272
 C454 C 0.14028 0.67012 0.15322
 C455 C 0.19310 0.63766 0.15137
 C456 C 0.22110 0.68641 0.17947
 H457 H 0.09333 0.81948 0.12107
 H458 H 0.04839 0.74108 0.07445
 H459 H 0.20790 0.63035 0.10882
 H460 H 0.19131 0.60020 0.17755
 H461 H 0.25211 0.70733 0.15312
 H462 H 0.23534 0.67708 0.22182
 C463 C 0.24268 1.10892 0.83751
 C464 C 0.23297 1.16616 0.84353
 C465 C 0.26588 1.19380 0.88353
 C466 C 0.30964 1.16642 0.91085
 C467 C 0.32074 1.11038 0.90022
 C468 C 0.28399 1.08164 0.86646
 C469 C 0.29529 1.04237 0.82064
 C470 C 0.25048 1.07256 0.78837
 H471 H 0.26019 1.23752 0.89135
 H472 H 0.33586 1.18946 0.93883
 H473 H 0.28350 0.99942 0.83146
 H474 H 0.33757 1.04715 0.80321
 H475 H 0.21375 1.04620 0.77989
 H476 H 0.26688 1.09525 0.75241
 C477 C 0.22645 0.85719 1.10730
 C478 C 0.23110 0.83180 1.15841
 C479 C 0.28454 0.82387 1.18055
 C480 C 0.33144 0.84610 1.15431
 C481 C 0.32530 0.87816 1.10643
 C482 C 0.27221 0.88114 1.08279
 C483 C 0.23891 0.92983 1.06379
 C484 C 0.18854 0.90250 1.08912
 H485 H 0.28958 0.80228 1.21905
 H486 H 0.37181 0.84102 1.17326
 H487 H 0.23598 0.93301 1.01851
 H488 H 0.25095 0.96878 1.08490
 H489 H 0.15806 0.88783 1.05806
 H490 H 0.17026 0.92656 1.12345
 C491 C 0.75863 1.15819 1.10778
 C492 C 0.76299 1.16477 1.16463
 C493 C 0.71751 1.14833 1.19682
 C494 C 0.67138 1.12182 1.17243
 C495 C 0.67096 1.10967 1.11578
 C496 C 0.71426 1.13071 1.08412
 C497 C 0.75025 1.10368 1.04205
 C498 C 0.79896 1.13405 1.06799
 H499 H 0.71810 1.15525 1.24068
 H500 H 0.63738 1.10865 1.19812
 H501 H 0.74047 1.11810 0.99989
 H502 H 0.75270 1.05806 1.04692
 H503 H 0.81706 1.16601 1.04080
 H504 H 0.82967 1.10610 1.08787
 C505 C 0.77405 0.89622 0.85992
 C506 C 0.76814 0.84803 0.82876
 C507 C 0.71425 0.82830 0.81890
 C508 C 0.66844 0.85260 0.84553
 C509 C 0.67593 0.89668 0.88302
 C510 C 0.72917 0.91941 0.88701
 C511 C 0.76357 0.93470 0.93572
 C512 C 0.81300 0.90969 0.90568
 H513 H 0.70807 0.79273 0.79258
 H514 H 0.62773 0.83503 0.83876
 H515 H 0.75184 0.91144 0.97316
 H516 H 0.76674 0.98021 0.94120
 H517 H 0.83039 0.87248 0.92613
 H518 H 0.84421 0.94096 0.89342
   
