data_POSCAR
  _audit_creation_date              2014-09-24
  _audit_creation_method            'ToBaCCo'
  _symmetry_space_group_name_H-M    'P1'
  _symmetry_Int_Tables_number       1
  _symmetry_cell_setting            triclinic
  loop_
  _symmetry_equiv_pos_as_xyz
 x,y,z
_cell_length_a 16.2312
_cell_length_b 16.6364
_cell_length_c 24.7777
_cell_angle_alpha 95.459200
_cell_angle_beta 105.837800
_cell_angle_gamma 77.831500
loop_
  _atom_site_label
  _atom_site_type_symbol
  _atom_site_fract_x
  _atom_site_fract_y
  _atom_site_fract_z
O1 O -0.09186 0.46686 1.02231
 O2 O 0.00890 0.56763 0.93578
 O3 O -0.03688 0.42767 0.93366
 O4 O -0.06415 0.61781 1.01981
 O5 O 0.06782 0.57936 1.07543
 O6 O 0.09093 0.38252 0.99237
 O7 O 0.13803 0.52274 0.99303
 O8 O 0.03776 0.43407 1.08198
 Cu9 Cu -0.05922 0.52546 0.97265
 Cu10 Cu 0.09645 0.47599 1.04143
 C11 C -0.04277 0.43227 1.06669
 C12 C 0.09168 0.55928 0.94929
 C13 C 0.03049 0.37227 0.94852
 C14 C -0.00313 0.63148 1.06192
 O15 O 0.60383 -0.09393 0.52830
 O16 O 0.37558 -0.02158 0.45261
 O17 O 0.52521 -0.04792 0.42840
 O18 O 0.45340 -0.06424 0.55498
 O19 O 0.46538 0.06460 0.57996
 O20 O 0.54090 0.08000 0.45458
 O21 O 0.39014 0.10736 0.47488
 O22 O 0.61883 0.03422 0.55372
 Cu23 Cu 0.48780 -0.06980 0.48919
 Cu24 Cu 0.50455 0.08450 0.51960
 C25 C 0.65127 -0.04204 0.55097
 C26 C 0.34462 0.05503 0.44947
 C27 C 0.54712 0.01813 0.42062
 C28 C 0.44520 -0.00193 0.58829
 C29 C 0.02380 0.12401 0.28159
 H30 H 0.01249 0.16609 0.24860
 C31 C 0.10308 0.11383 0.32296
 H32 H 0.15158 0.14902 0.32187
 C33 C -0.02137 0.02163 0.32096
 H34 H -0.06961 -0.01523 0.31922
 C35 C 0.05773 0.00812 0.36207
 H36 H 0.07054 -0.03907 0.39213
 N37 N -0.03648 0.07790 0.28125
 C38 C -0.19423 -0.04383 0.13998
 H39 H -0.25847 -0.00525 0.13332
 C40 C -0.18191 -0.11747 0.10831
 H41 H -0.23665 -0.13571 0.07715
 C42 C -0.04414 -0.06780 0.18835
 H43 H 0.01001 -0.04797 0.21887
 C44 C -0.02916 -0.14191 0.15796
 H45 H 0.03618 -0.17856 0.16584
 Zn46 Zn -0.14095 0.07959 0.22300
 N47 N -0.12574 -0.02055 0.17934
 C48 C -0.18337 0.15960 0.11992
 N49 N -0.16279 0.17124 0.17683
 C50 C -0.14882 0.24566 0.20140
 C51 C -0.14626 0.30885 0.16893
 C52 C -0.18457 0.22221 0.08578
 C53 C -0.26524 0.01651 0.25906
 C54 C -0.32151 0.01571 0.29267
 C55 C -0.31108 0.15644 0.32269
 C56 C -0.25494 0.15462 0.28857
 N57 N -0.23213 0.08495 0.25823
 H58 H -0.19458 0.10056 0.10081
 H59 H -0.13259 0.25398 0.24660
 H60 H -0.12817 0.36540 0.18935
 H61 H -0.19578 0.21057 0.04086
 H62 H -0.24427 -0.03920 0.23630
 H63 H -0.34426 -0.04033 0.29466
 H64 H -0.32602 0.21102 0.34848
 H65 H -0.22650 0.20764 0.28837
 C66 C -0.09878 -0.16737 0.11745
 C67 C 0.12087 0.05414 0.36311
 C68 C -0.34320 0.08594 0.32595
 C69 C -0.16148 0.29603 0.11052
 C70 C 0.04312 0.08586 0.80764
 H71 H -0.00585 0.08186 0.76847
 C72 C 0.03715 0.15756 0.84162
 H73 H -0.01727 0.20792 0.82842
 C74 C 0.17475 0.02610 0.87165
 H75 H 0.22856 -0.02542 0.88261
 C76 C 0.17137 0.09691 0.90689
 H77 H 0.22238 0.10000 0.94529
 N78 N 0.11128 0.02207 0.82305
 C79 C 0.24397 -0.14489 0.71350
 H80 H 0.21330 -0.19756 0.71020
 C81 C 0.30286 -0.14472 0.68178
 H82 H 0.31844 -0.19770 0.65484
 C83 C 0.25449 -0.00846 0.74785
 H84 H 0.23305 0.04558 0.77205
 C85 C 0.31316 -0.00549 0.71621
 H86 H 0.33699 0.05071 0.71670
 Zn87 Zn 0.12226 -0.07276 0.77524
 N88 N 0.21939 -0.07677 0.74481
 C89 C 0.03229 -0.07193 0.66086
 N90 N 0.02017 -0.06878 0.71332
 C91 C -0.06110 -0.06506 0.72043
 C92 C -0.13257 -0.06880 0.67371
 C93 C -0.03611 -0.07810 0.61365
 C94 C 0.21752 -0.22208 0.82446
 C95 C 0.22935 -0.29739 0.84842
 C96 C 0.08480 -0.25827 0.86278
 C97 C 0.07491 -0.18388 0.83733
 N98 N 0.13983 -0.16838 0.81700
 H99 H 0.09523 -0.07079 0.65492
 H100 H -0.07077 -0.05950 0.76212
 H101 H -0.19643 -0.06784 0.67965
 H102 H -0.02452 -0.08373 0.57230
 H103 H 0.27050 -0.20736 0.81134
 H104 H 0.29041 -0.34084 0.85231
 H105 H 0.03196 -0.27102 0.87739
 H106 H 0.01490 -0.13938 0.83310
 C107 C 0.33579 -0.07376 0.68154
 C108 C 0.10224 0.16363 0.89184
 C109 C 0.16231 -0.31657 0.86699
 C110 C -0.11900 -0.07742 0.61976
 N111 N -0.01402 -0.29377 0.09481
 N112 N -0.08652 -0.24301 0.08519
 N113 N -0.07551 0.38627 0.09897
 N114 N -0.13881 0.34964 0.07736
 N115 N 0.40765 -0.00494 0.63372
 N116 N 0.38244 -0.06968 0.64078
 N117 N -0.26418 -0.06650 0.56431
 N118 N -0.18526 -0.09080 0.57028
 N119 N 0.13127 -0.41518 0.91684
 N120 N 0.17485 -0.39657 0.88801
 N121 N 0.03666 0.29794 0.91483
 N122 N 0.09942 0.23690 0.92740
 N123 N -0.41578 0.02066 0.37498
 N124 N -0.38886 0.08429 0.36767
 N125 N 0.25833 0.08252 0.41560
 N126 N 0.20523 0.03318 0.40128
   
