data_POSCAR
  _audit_creation_date              2014-09-24
  _audit_creation_method            'ToBaCCo'
  _symmetry_space_group_name_H-M    'P1'
  _symmetry_Int_Tables_number       1
  _symmetry_cell_setting            triclinic
  loop_
  _symmetry_equiv_pos_as_xyz
 x,y,z
_cell_length_a 27.6702
_cell_length_b 25.2340
_cell_length_c 19.7496
_cell_angle_alpha 90.897000
_cell_angle_beta 90.244000
_cell_angle_gamma 91.101000
loop_
  _atom_site_label
  _atom_site_type_symbol
  _atom_site_fract_x
  _atom_site_fract_y
  _atom_site_fract_z
C1 C 0.24828 0.26627 0.23665
 C2 C 0.25144 0.21364 0.21990
 C3 C 0.21633 0.18832 0.17150
 C4 C 0.29061 0.18013 0.24715
 C5 C 0.28216 0.29355 0.28494
 C6 C 0.21312 0.30118 0.20304
 C7 C 0.16633 0.19057 0.18333
 C8 C 0.13337 0.17501 0.13259
 C9 C 0.14998 0.15655 0.06978
 C10 C 0.19972 0.15133 0.05912
 C11 C 0.23274 0.16687 0.10990
 C12 C 0.27908 0.13165 0.27787
 C13 C 0.31496 0.10296 0.31057
 C14 C 0.36272 0.12279 0.31353
 C15 C 0.37467 0.16965 0.28005
 C16 C 0.33924 0.19734 0.24551
 C17 C 0.30737 0.33913 0.26390
 C18 C 0.33980 0.36548 0.30738
 C19 C 0.34778 0.34668 0.37300
 C20 C 0.32233 0.30149 0.39454
 C21 C 0.28929 0.27529 0.35105
 C22 C 0.21331 0.30669 0.13244
 C23 C 0.18192 0.34165 0.10157
 C24 C 0.15065 0.37236 0.14064
 C25 C 0.15071 0.36753 0.21138
 C26 C 0.18189 0.33219 0.24234
 H27 H 0.15296 0.20660 0.23071
 H28 H 0.09500 0.17907 0.14156
 H29 H 0.21302 0.13702 0.01079
 H30 H 0.27111 0.16488 0.09981
 H31 H 0.24200 0.11718 0.27901
 H32 H 0.30502 0.06685 0.33638
 H33 H 0.34947 0.23348 0.21993
 H34 H 0.30244 0.35396 0.21320
 H35 H 0.35907 0.40017 0.28931
 H36 H 0.32807 0.28665 0.44502
 H37 H 0.26965 0.24065 0.36863
 H38 H 0.23814 0.28441 0.10137
 H39 H 0.18222 0.34522 0.04700
 H40 H 0.12673 0.39086 0.24251
 H41 H 0.18180 0.32902 0.29697
 H42 H 0.41144 0.18511 0.28154
 C43 C 0.75098 0.21637 0.23668
 C44 C 0.74555 0.27007 0.23313
 C45 C 0.77832 0.30429 0.19160
 C46 C 0.70680 0.29782 0.27164
 C47 C 0.72044 0.18283 0.28130
 C48 C 0.78600 0.18768 0.19362
 C49 C 0.82890 0.29914 0.19375
 C50 C 0.85895 0.33350 0.15737
 C51 C 0.83912 0.37512 0.12090
 C52 C 0.78899 0.38088 0.11922
 C53 C 0.75876 0.34522 0.15311
 C54 C 0.71854 0.34329 0.31087
 C55 C 0.68294 0.36928 0.34805
 C56 C 0.63518 0.34955 0.34771
 C57 C 0.62319 0.30463 0.30826
 C58 C 0.65835 0.27984 0.26896
 C59 C 0.69411 0.13971 0.25311
 C60 C 0.66189 0.11055 0.29276
 C61 C 0.65552 0.12418 0.36133
 C62 C 0.68322 0.16575 0.39021
 C63 C 0.71602 0.19448 0.35078
 C64 C 0.78433 0.19148 0.12285
 C65 C 0.81768 0.16457 0.08293
 C66 C 0.85285 0.13330 0.11290
 C67 C 0.85409 0.12857 0.18363
 C68 C 0.82062 0.15539 0.22367
 H69 H 0.84536 0.26971 0.22523
 H70 H 0.89778 0.32978 0.16121
 H71 H 0.77338 0.41364 0.09255
 H72 H 0.72004 0.35054 0.15094
 H73 H 0.75545 0.35831 0.31334
 H74 H 0.69288 0.40387 0.37850
 H75 H 0.64786 0.24612 0.23729
 H76 H 0.69721 0.12981 0.19976
 H77 H 0.64089 0.07856 0.26932
 H78 H 0.67878 0.17642 0.44310
 H79 H 0.73676 0.22687 0.37385
 H80 H 0.75730 0.21536 0.09870
 H81 H 0.81627 0.16820 0.02840
 H82 H 0.88084 0.10438 0.20779
 H83 H 0.82211 0.15165 0.27820
 H84 H 0.58635 0.28935 0.30715
 C85 C 0.74336 0.78720 0.77056
 C86 C 0.74488 0.73307 0.77103
 C87 C 0.71303 0.69867 0.72731
 C88 C 0.77965 0.70555 0.81534
 C89 C 0.78283 0.81905 0.80355
 C90 C 0.70372 0.81630 0.73682
 C91 C 0.68870 0.65478 0.75514
 C92 C 0.65799 0.62274 0.71500
 C93 C 0.65107 0.63420 0.64631
 C94 C 0.67608 0.67718 0.61811
 C95 C 0.70741 0.70875 0.65794
 C96 C 0.78017 0.71491 0.88569
 C97 C 0.81340 0.68942 0.92689
 C98 C 0.84620 0.65394 0.89858
 C99 C 0.84523 0.64396 0.82826
 C100 C 0.81207 0.66947 0.78708
 C101 C 0.83090 0.81246 0.78287
 C102 C 0.86888 0.83502 0.82085
 C103 C 0.85920 0.86480 0.87939
 C104 C 0.81125 0.87444 0.89772
 C105 C 0.77311 0.85196 0.85958
 C106 C 0.71445 0.86154 0.69855
 C107 C 0.67792 0.88699 0.66312
 C108 C 0.63027 0.86699 0.66453
 C109 C 0.61914 0.82306 0.70418
 C110 C 0.65522 0.79888 0.74171
 H111 H 0.69279 0.64593 0.80832
 H112 H 0.63891 0.58981 0.73795
 H113 H 0.67115 0.68628 0.56516
 H114 H 0.72676 0.74147 0.63488
 H115 H 0.75483 0.74193 0.90858
 H116 H 0.81356 0.69722 0.98096
 H117 H 0.81206 0.66157 0.73301
 H118 H 0.83897 0.78753 0.73938
 H119 H 0.90581 0.82696 0.80660
 H120 H 0.80343 0.89701 0.94334
 H121 H 0.73625 0.85747 0.87612
 H122 H 0.75131 0.87630 0.69443
 H123 H 0.68713 0.92086 0.63242
 H124 H 0.58238 0.80765 0.70612
 H125 H 0.64541 0.76564 0.77314
 H126 H 0.87007 0.61656 0.80508
 C127 C 0.25291 0.71306 0.77534
 C128 C 0.25502 0.76693 0.76939
 C129 C 0.29242 0.79465 0.72774
 C130 C 0.21761 0.80103 0.80092
 C131 C 0.22246 0.68857 0.82852
 C132 C 0.28155 0.67736 0.73099
 C133 C 0.34143 0.78101 0.73133
 C134 C 0.37594 0.80773 0.69242
 C135 C 0.36254 0.85022 0.65221
 C136 C 0.31401 0.86496 0.64964
 C137 C 0.27918 0.83699 0.68637
 C138 C 0.23130 0.84790 0.83605
 C139 C 0.19689 0.88605 0.85176
 C140 C 0.14848 0.87745 0.83311
 C141 C 0.13415 0.82920 0.80263
 C142 C 0.16846 0.79130 0.78632
 C143 C 0.18445 0.65302 0.81144
 C144 C 0.15209 0.63580 0.86135
 C145 C 0.15831 0.65327 0.92858
 C146 C 0.19774 0.68628 0.94609
 C147 C 0.22965 0.70380 0.89649
 C148 C 0.28239 0.68427 0.66049
 C149 C 0.31351 0.65474 0.61990
 C150 C 0.34323 0.61682 0.64861
 C151 C 0.34043 0.60753 0.71853
 C152 C 0.30975 0.63761 0.75938
 H153 H 0.35306 0.74979 0.76428
 H154 H 0.41338 0.79615 0.69482
 H155 H 0.30299 0.89736 0.61813
 H156 H 0.24179 0.84851 0.68251
 H157 H 0.26903 0.85639 0.84730
 H158 H 0.20853 0.92363 0.87423
 H159 H 0.15711 0.75620 0.75781
 H160 H 0.17847 0.64086 0.75919
 H161 H 0.12149 0.61052 0.84723
 H162 H 0.20269 0.70018 0.99789
 H163 H 0.25903 0.73080 0.91063
 H164 H 0.26008 0.71376 0.63718
 H165 H 0.31509 0.66203 0.56606
 H166 H 0.36305 0.57837 0.74187
 H167 H 0.30944 0.63127 0.81349
 H168 H 0.09697 0.82262 0.78669
 O169 O 1.06920 -0.03354 -0.06234
 O170 O 0.98803 0.02764 0.06523
 O171 O 0.99205 -0.06401 0.00343
 O172 O 1.07022 0.05476 0.01043
 O173 O 1.02739 0.09022 -0.07129
 O174 O 0.94913 -0.03042 -0.07958
 O175 O 0.94559 0.06122 -0.01825
 O176 O 1.02628 0.00328 -0.14296
 Cu177 Cu 1.03425 -0.00733 0.01229
 Cu178 Cu 0.98293 0.03443 -0.08626
 C179 C 1.06118 -0.02483 -0.12475
 C180 C 0.95284 0.05487 0.04445
 C181 C 0.95734 -0.06758 -0.03842
 C182 C 1.06191 0.09299 -0.02858
 O183 O 0.45519 0.48384 0.60142
 O184 O 0.54681 0.42222 0.49198
 O185 O 0.54914 0.48717 0.59796
 O186 O 0.45314 0.41993 0.49653
 O187 O 0.45385 0.48741 0.42653
 O188 O 0.54571 0.55659 0.53145
 O189 O 0.54794 0.49294 0.42741
 O190 O 0.45154 0.55107 0.53136
 Cu191 Cu 0.50147 0.44637 0.55388
 Cu192 Cu 0.49951 0.52890 0.47240
 C193 C 0.43738 0.52767 0.58447
 C194 C 0.56302 0.44720 0.44125
 C195 C 0.56322 0.53358 0.58244
 C196 C 0.43767 0.44225 0.44368
 O197 O 0.05974 0.55866 -0.02129
 O198 O -0.02933 0.44801 0.00146
 O199 O -0.02785 0.53673 -0.06759
 O200 O 0.05952 0.46597 0.03437
 O201 O 0.03069 0.50248 0.12787
 O202 O -0.05496 0.57802 0.02366
 O203 O -0.05872 0.49058 0.09032
 O204 O 0.03203 0.59587 0.07241
 Cu205 Cu 0.01803 0.49879 -0.02292
 Cu206 Cu -0.01533 0.54597 0.08754
 C207 C 0.06119 0.59571 0.02330
 C208 C -0.05887 0.45069 0.05061
 C209 C -0.05618 0.56926 -0.03998
 C210 C 0.05937 0.47088 0.09832
 O211 O 0.54355 0.98722 0.40559
 O212 O 0.45036 0.92450 0.51149
 O213 O 0.44855 0.98167 0.40230
 O214 O 0.54268 0.93079 0.51575
 O215 O 0.53900 1.00373 0.57882
 O216 O 0.44917 1.05686 0.46109
 O217 O 0.44430 0.99907 0.57072
 O218 O 0.54259 1.05913 0.47082
 Cu219 Cu 0.49659 0.94887 0.45201
 Cu220 Cu 0.49302 1.03703 0.52675
 C221 C 0.55965 1.03330 0.42100
 C222 C 0.43169 0.95108 0.55938
 C223 C 0.43350 1.02839 0.41184
 C224 C 0.55636 0.95838 0.56696
 N225 N 1.12055 0.14766 0.02219
 N226 N 1.09131 0.14007 -0.02441
 N227 N 0.61743 0.60431 0.60496
 N228 N 0.59855 0.56060 0.62374
 N229 N -0.13042 0.41648 0.09543
 N230 N -0.09126 0.40749 0.06409
 N231 N 0.39841 0.87703 0.61295
 N232 N 0.39647 0.92644 0.60157
 N233 N -0.12016 0.62822 -0.05808
 N234 N -0.08978 0.59575 -0.08188
 N235 N 0.39864 1.09867 0.35465
 N236 N 0.39853 1.04927 0.36657
 N237 N 1.11902 -0.08277 -0.16863
 N238 N 1.09149 -0.04563 -0.17649
 N239 N 0.59872 0.37392 0.38811
 N240 N 0.59859 0.42376 0.39880
 N241 N 0.89444 -0.12290 -0.07868
 N242 N 0.92754 -0.11432 -0.03790
 N243 N 0.38211 0.37253 0.41754
 N244 N 0.40219 0.41637 0.40172
 N245 N 0.12546 0.64355 -0.02571
 N246 N 0.09564 0.63835 0.01989
 N247 N 0.61952 1.09828 0.40153
 N248 N 0.59706 1.05650 0.38115
 N249 N 0.11881 0.40719 0.10664
 N250 N 0.09105 0.43922 0.13720
 N251 N 0.59338 0.88891 0.62321
 N252 N 0.59184 0.93829 0.61181
 N253 N 0.88667 0.10713 0.06995
 N254 N 0.92095 0.07905 0.09186
 N255 N 0.37759 0.59050 0.60642
 N256 N 0.40158 0.55118 0.62655
   
