data_POSCAR
  _audit_creation_date              2014-09-24
  _audit_creation_method            'ToBaCCo'
  _symmetry_space_group_name_H-M    'P1'
  _symmetry_Int_Tables_number       1
  _symmetry_cell_setting            triclinic
  loop_
  _symmetry_equiv_pos_as_xyz
 x,y,z
_cell_length_a 27.4034
_cell_length_b 32.7256
_cell_length_c 8.3133
_cell_angle_alpha 89.975500
_cell_angle_beta 90.832200
_cell_angle_gamma 90.196700
loop_
  _atom_site_label
  _atom_site_type_symbol
  _atom_site_fract_x
  _atom_site_fract_y
  _atom_site_fract_z
O1 O 0.21574 0.28761 0.10677
 O2 O 0.30323 0.20949 0.23233
 O3 O 0.21319 0.20849 0.13351
 O4 O 0.30402 0.28942 0.22409
 O5 O 0.27770 0.29189 0.47384
 O6 O 0.18698 0.21279 0.38289
 O7 O 0.27715 0.21244 0.48209
 O8 O 0.18939 0.29258 0.35588
 Cu9 Cu 0.26181 0.24841 0.14930
 Cu10 Cu 0.23002 0.25285 0.44854
 C11 C 0.18804 0.30376 0.20917
 C12 C 0.30478 0.19701 0.37679
 C13 C 0.18493 0.19660 0.24452
 C14 C 0.30595 0.30449 0.36516
 O15 O 0.80690 0.29295 0.38618
 O16 O 0.71908 0.21181 0.48202
 O17 O 0.81109 0.21330 0.40877
 O18 O 0.71491 0.29136 0.45203
 O19 O 0.69793 0.28553 0.19259
 O20 O 0.79308 0.20768 0.15011
 O21 O 0.70121 0.20572 0.22353
 O22 O 0.79004 0.28729 0.12657
 Cu23 Cu 0.76495 0.25290 0.45750
 Cu24 Cu 0.74351 0.24582 0.14801
 C25 C 0.81311 0.30441 0.24227
 C26 C 0.69538 0.19453 0.36860
 C27 C 0.81821 0.19700 0.27251
 C28 C 0.69069 0.30224 0.32767
 O29 O 0.71137 0.79016 0.61990
 O30 O 0.80088 0.71061 0.73412
 O31 O 0.71065 0.71058 0.63687
 O32 O 0.80387 0.78976 0.69376
 O33 O 0.78393 0.79630 0.94875
 O34 O 0.69110 0.71522 0.89295
 O35 O 0.78135 0.71757 0.98948
 O36 O 0.69130 0.79512 0.87545
 Cu37 Cu 0.75883 0.74971 0.64599
 Cu38 Cu 0.73467 0.75679 0.95169
 C39 C 0.68615 0.80628 0.73036
 C40 C 0.80605 0.70042 0.88114
 C41 C 0.68549 0.69886 0.75524
 C42 C 0.80977 0.80682 0.82943
 O43 O 0.28566 0.70848 0.57035
 O44 O 0.19359 0.78838 0.63998
 O45 O 0.28498 0.78825 0.56214
 O46 O 0.19314 0.70836 0.63665
 O47 O 0.21121 0.70834 0.89611
 O48 O 0.30230 0.78938 0.82228
 O49 O 0.21100 0.78831 0.90009
 O50 O 0.30367 0.70950 0.82998
 Cu51 Cu 0.23720 0.74825 0.57714
 Cu52 Cu 0.25910 0.74888 0.88727
 C53 C 0.31033 0.69531 0.69020
 C54 C 0.18695 0.80226 0.78053
 C55 C 0.30895 0.80282 0.68095
 C56 C 0.18672 0.69432 0.77700
 C57 C 0.97955 -0.00013 0.03739
 C58 C 1.02898 -0.00084 0.02780
 C59 C 1.05839 0.03695 0.03961
 C60 C 1.05657 -0.03926 0.00600
 C61 C 0.94960 -0.03783 0.02352
 C62 C 0.95242 0.03867 0.05800
 C63 C 1.05754 0.06615 -0.08408
 C64 C 1.08656 0.10133 -0.07170
 C65 C 1.11575 0.10802 0.06588
 C66 C 1.11675 0.07841 0.18858
 C67 C 1.08854 0.04306 0.17482
 C68 C 1.08502 -0.04411 -0.13135
 C69 C 1.11200 -0.07969 -0.15354
 C70 C 1.11135 -0.11104 -0.03767
 C71 C 1.08358 -0.10577 0.10146
 C72 C 1.05605 -0.07026 0.12269
 C73 C 0.91567 -0.04707 0.14296
 C74 C 0.88553 -0.08138 0.12830
 C75 C 0.88835 -0.10699 -0.00666
 C76 C 0.92321 -0.09803 -0.12503
 C77 C 0.95299 -0.06349 -0.11087
 C78 C 0.95941 0.06317 0.19499
 C79 C 0.93142 0.09843 0.21619
 C80 C 0.89555 0.10948 0.10098
 C81 C 0.88951 0.08517 -0.03707
 C82 C 0.91738 0.05002 -0.05785
 H83 H 1.03480 0.06148 -0.19016
 H84 H 1.08577 0.12356 -0.16825
 H85 H 1.14001 0.08224 0.29398
 H86 H 1.08991 0.02050 0.27019
 H87 H 1.08626 -0.02027 -0.22168
 H88 H 1.13431 -0.08204 -0.25945
 H89 H 1.03483 -0.06669 0.23067
 H90 H 0.91239 -0.02755 0.24741
 H91 H 0.85932 -0.08756 0.22162
 H92 H 0.92796 -0.11730 -0.22897
 H93 H 0.97836 -0.05654 -0.20582
 H94 H 0.98597 0.05464 0.28659
 H95 H 0.93815 0.11667 0.32258
 H96 H 0.86238 0.09296 -0.12799
 H97 H 0.91141 0.03145 -0.16423
 H98 H 1.08313 -0.12921 0.19349
 C99 C 0.47898 0.50283 0.45185
 C100 C 0.52812 0.50212 0.47660
 C101 C 0.55637 0.54003 0.50654
 C102 C 0.55627 0.46356 0.47432
 C103 C 0.45098 0.46516 0.41276
 C104 C 0.45022 0.54099 0.47033
 C105 C 0.55753 0.57122 0.39090
 C106 C 0.58458 0.60677 0.42015
 C107 C 0.61020 0.61193 0.56619
 C108 C 0.60918 0.58046 0.68150
 C109 C 0.58269 0.54471 0.65124
 C110 C 0.59200 0.45801 0.35760
 C111 C 0.61943 0.42219 0.35481
 C112 C 0.61208 0.39145 0.47042
 C113 C 0.57712 0.39747 0.58978
 C114 C 0.54899 0.43313 0.59078
 C115 C 0.41102 0.45447 0.50730
 C116 C 0.38339 0.41978 0.47124
 C117 C 0.39544 0.39469 0.34010
 C118 C 0.43486 0.40592 0.24335
 C119 C 0.46243 0.44090 0.27918
 C120 C 0.45278 0.56365 0.61343
 C121 C 0.42381 0.59827 0.63309
 C122 C 0.39051 0.61037 0.51125
 C123 C 0.38860 0.58787 0.36738
 C124 C 0.41795 0.55343 0.34741
 H125 H 0.53786 0.56781 0.27772
 H126 H 0.58550 0.63034 0.32867
 H127 H 0.62982 0.58288 0.79307
 H128 H 0.58244 0.52072 0.74109
 H129 H 0.59848 0.48143 0.26822
 H130 H 0.64718 0.41896 0.26435
 H131 H 0.52200 0.43728 0.68322
 H132 H 0.40109 0.47317 0.60915
 H133 H 0.35198 0.41341 0.54451
 H134 H 0.44430 0.38758 0.14001
 H135 H 0.49234 0.44927 0.20194
 H136 H 0.47676 0.55421 0.71115
 H137 H 0.42787 0.61508 0.74418
 H138 H 0.36366 0.59652 0.27104
 H139 H 0.41526 0.53625 0.23625
 H140 H 0.57135 0.37444 0.68120
 C141 C 0.02169 0.50168 0.03227
 C142 C -0.02723 0.50059 0.00208
 C143 C -0.05608 0.46242 0.01785
 C144 C -0.05485 0.53777 -0.04341
 C145 C 0.05124 0.53933 0.00683
 C146 C 0.04856 0.46493 0.08830
 C147 C -0.04824 0.42881 -0.08350
 C148 C -0.07645 0.39327 -0.06778
 C149 C -0.11206 0.39061 0.05154
 C150 C -0.12023 0.42464 0.15092
 C151 C -0.09269 0.46024 0.13341
 C152 C -0.08167 0.53860 -0.18829
 C153 C -0.10815 0.57334 -0.23211
 C154 C -0.10915 0.60749 -0.13021
 C155 C -0.08186 0.60672 0.01467
 C156 C -0.05514 0.57204 0.05791
 C157 C 0.08195 0.55398 0.13052
 C158 C 0.11114 0.58850 0.10655
 C159 C 0.11066 0.60902 -0.04200
 C160 C 0.07933 0.59440 -0.16561
 C161 C 0.05042 0.55971 -0.14169
 C162 C 0.03596 0.44465 0.23086
 C163 C 0.06247 0.41051 0.28284
 C164 C 0.10188 0.39610 0.19320
 C165 C 0.11506 0.41724 0.05256
 C166 C 0.08855 0.45117 0.00072
 H167 H -0.02057 0.43027 -0.17503
 H168 H -0.06999 0.36763 -0.14693
 H169 H -0.14841 0.42396 0.24084
 H170 H -0.09959 0.48608 0.21118
 H171 H -0.08177 0.51240 -0.26794
 H172 H -0.12863 0.57329 -0.34455
 H173 H -0.03480 0.57181 0.17062
 H174 H 0.08331 0.53860 0.24594
 H175 H 0.13465 0.59894 0.20417
 H176 H 0.07662 0.60921 -0.28134
 H177 H 0.02766 0.54855 -0.23987
 H178 H 0.00594 0.45548 0.30242
 H179 H 0.05214 0.39526 0.39298
 H180 H 0.14646 0.40836 -0.01631
 H181 H 0.09932 0.46683 -0.10806
 H182 H -0.08073 0.63288 0.09417
 C183 C 0.52319 0.99576 0.41484
 C184 C 0.47356 0.99560 0.41644
 C185 C 0.44487 0.95774 0.44291
 C186 C 0.44496 1.03335 0.39139
 C187 C 0.55155 1.03382 0.38537
 C188 C 0.55188 0.95816 0.44762
 C189 C 0.44658 0.92502 0.33407
 C190 C 0.41785 0.89015 0.35838
 C191 C 0.38768 0.88721 0.49307
 C192 C 0.38596 0.92021 0.60135
 C193 C 0.41409 0.95519 0.57579
 C194 C 0.41485 1.03678 0.25458
 C195 C 0.38727 1.07194 0.22893
 C196 C 0.38826 1.10382 0.34170
 C197 C 0.41827 1.10033 0.47976
 C198 C 0.44661 1.06529 0.50405
 C199 C 0.58705 1.04639 0.49817
 C200 C 0.61513 1.08137 0.47124
 C201 C 0.60815 1.10472 0.33040
 C202 C 0.57300 1.09170 0.21656
 C203 C 0.54499 1.05658 0.24353
 C204 C 0.54532 0.93576 0.58957
 C205 C 0.57356 0.90120 0.62153
 C206 C 0.61002 0.88895 0.51387
 C207 C 0.61608 0.91123 0.37117
 C208 C 0.58749 0.94564 0.33874
 H209 H 0.46963 0.92677 0.22952
 H210 H 0.41925 0.86537 0.27223
 H211 H 0.36195 0.91955 0.70356
 H212 H 0.41193 0.98036 0.65995
 H213 H 0.41318 1.01235 0.16672
 H214 H 0.36461 1.07408 0.12139
 H215 H 0.46966 1.06293 0.61056
 H216 H 0.59321 1.02890 0.60721
 H217 H 0.64299 1.08918 0.55937
 H218 H 0.56740 1.10863 0.10587
 H219 H 0.51868 1.04686 0.15280
 H220 H 0.51860 0.94525 0.67657
 H221 H 0.56639 0.88437 0.73054
 H222 H 0.64364 0.90244 0.28584
 H223 H 0.59324 0.96263 0.22875
 H224 H 0.42052 1.12481 0.56705
 C225 C 1.15217 0.16455 0.21963
 C226 C 1.14630 0.14515 0.07880
 H227 H 1.13135 0.15437 0.32223
 H228 H 1.16389 0.15644 -0.02848
 C229 C 0.65065 0.66492 0.73485
 C230 C 0.64051 0.64891 0.58979
 H231 H 0.63408 0.65238 0.84164
 H232 H 0.65496 0.66339 0.48316
 C233 C -0.15394 0.33923 0.21524
 C234 C -0.14125 0.35275 0.06970
 H235 H -0.14035 0.35501 0.32147
 H236 H -0.15176 0.33569 -0.03707
 C237 C 0.34376 0.83665 0.65874
 C238 C 0.35631 0.85066 0.51358
 H239 H 0.35891 0.85076 0.76627
 H240 H 0.34364 0.83479 0.40638
 C241 C -0.15989 0.66787 -0.07105
 C242 C -0.13923 0.64306 -0.17822
 H243 H -0.15463 0.66259 0.05656
 H244 H -0.14766 0.64698 -0.30509
 C245 C 0.33805 1.16346 0.42136
 C246 C 0.35862 1.14047 0.30757
 H247 H 0.34286 1.15594 0.54745
 H248 H 0.35041 1.14684 0.18208
 C249 C 1.15224 -0.16398 -0.19916
 C250 C 1.14163 -0.14816 -0.05522
 H251 H 1.13605 -0.15111 -0.30738
 H252 H 1.15552 -0.16268 0.05325
 C253 C 0.65541 0.33594 0.33444
 C254 C 0.64225 0.35403 0.47142
 H255 H 0.64109 0.34725 0.22070
 H256 H 0.65374 0.34134 0.58622
 C257 C 0.84468 -0.16227 -0.15683
 C258 C 0.85383 -0.14197 -0.01946
 H259 H 0.86361 -0.15417 -0.26545
 H260 H 0.83348 -0.14987 0.08713
 C261 C 0.33995 0.33770 0.40664
 C262 C 0.36605 0.35804 0.29760
 H263 H 0.34178 0.34649 0.53202
 H264 H 0.36565 0.34784 0.17354
 C265 C 0.15289 0.66271 -0.20409
 C266 C 0.14391 0.64475 -0.06213
 H267 H 0.13477 0.65205 -0.31244
 H268 H 0.16328 0.65556 0.04440
 C269 C 0.66374 1.16242 0.40599
 C270 C 0.63861 1.14115 0.29371
 H271 H 0.66056 1.15445 0.53169
 H272 H 0.64035 1.15054 0.16881
 C273 C 0.15538 0.33645 0.15320
 C274 C 0.12998 0.36030 0.25219
 H275 H 0.15397 0.34178 0.02474
 H276 H 0.12988 0.35362 0.37992
 C277 C 0.65093 0.83894 0.69488
 C278 C 0.64281 0.85378 0.54681
 H279 H 0.63303 0.85216 0.79740
 H280 H 0.66296 0.84124 0.44711
 C281 C 0.85516 0.16458 0.25885
 C282 C 0.86311 0.14538 0.11918
 H283 H 0.87386 0.15523 0.36806
 H284 H 0.84244 0.15481 0.01344
 C285 C 0.34664 0.66267 0.67167
 C286 C 0.35671 0.64550 0.52968
 H287 H 0.36376 0.65176 0.78126
 H288 H 0.33757 0.65628 0.42290
   
