data_POSCAR
  _audit_creation_date              2014-09-24
  _audit_creation_method            'ToBaCCo'
  _symmetry_space_group_name_H-M    'P1'
  _symmetry_Int_Tables_number       1
  _symmetry_cell_setting            triclinic
  loop_
  _symmetry_equiv_pos_as_xyz
 x,y,z
_cell_length_a 41.6104
_cell_length_b 41.5533
_cell_length_c 41.6197
_cell_angle_alpha 89.967300
_cell_angle_beta 89.994500
_cell_angle_gamma 89.880600
loop_
  _atom_site_label
  _atom_site_type_symbol
  _atom_site_fract_x
  _atom_site_fract_y
  _atom_site_fract_z
C1 C 0.27404 0.25000 0.22604
 C2 C 0.25017 0.27384 0.22603
 C3 C 0.22634 0.27388 0.24982
 C4 C 0.22640 0.25004 0.27365
 C5 C 0.25025 0.22617 0.27370
 C6 C 0.27406 0.22618 0.24988
 H7 H 0.25014 0.29229 0.20758
 H8 H 0.20797 0.25005 0.29207
 H9 H 0.29253 0.20771 0.24990
 C10 C 0.72546 -0.25035 0.22551
 C11 C 0.74944 -0.27413 0.22542
 C12 C 0.77334 -0.27413 0.24918
 C13 C 0.77323 -0.25032 0.27304
 C14 C 0.74930 -0.22655 0.27316
 C15 C 0.72543 -0.22657 0.24941
 H16 H 0.74949 -0.29255 0.20693
 H17 H 0.79168 -0.25024 0.29146
 H18 H 0.70693 -0.20813 0.24957
 C19 C 0.72727 0.25107 0.77332
 C20 C 0.75104 0.27491 0.77330
 C21 C 0.77491 0.27493 0.74950
 C22 C 0.77495 0.25103 0.72572
 C23 C 0.75118 0.22718 0.72573
 C24 C 0.72737 0.22722 0.74954
 H25 H 0.75091 0.29335 0.79175
 H26 H 0.79336 0.25094 0.70726
 H27 H 0.70897 0.20876 0.74955
 C28 C 0.27291 -0.25115 0.77476
 C29 C 0.27299 -0.22740 0.75085
 C30 C 0.24920 -0.22730 0.72703
 C31 C 0.22530 -0.25101 0.72712
 C32 C 0.22516 -0.27482 0.75102
 C33 C 0.24900 -0.27485 0.77484
 H34 H 0.29150 -0.20905 0.75078
 H35 H 0.20690 -0.25088 0.70863
 H36 H 0.24900 -0.29322 0.79338
 C37 C 0.72604 -0.25040 0.77435
 C38 C 0.74993 -0.27420 0.77441
 C39 C 0.77379 -0.27422 0.75063
 C40 C 0.77370 -0.25038 0.72678
 C41 C 0.74980 -0.22658 0.72672
 C42 C 0.72599 -0.22659 0.75051
 H43 H 0.74991 -0.29261 0.79292
 H44 H 0.79212 -0.25030 0.70832
 H45 H 0.70749 -0.20816 0.75046
 C46 C 0.27380 0.25005 0.77359
 C47 C 0.27377 0.22618 0.74983
 C48 C 0.24989 0.22612 0.72611
 C49 C 0.22603 0.24995 0.72615
 C50 C 0.22603 0.27383 0.74990
 C51 C 0.24992 0.27387 0.77361
 H52 H 0.29225 0.20773 0.74980
 H53 H 0.20753 0.24991 0.70779
 H54 H 0.24994 0.29235 0.79200
 C55 C 0.27463 -0.25030 0.22554
 C56 C 0.27468 -0.22655 0.24946
 C57 C 0.25081 -0.22646 0.27319
 C58 C 0.22687 -0.25010 0.27303
 C59 C 0.22677 -0.27384 0.24916
 C60 C 0.25064 -0.27394 0.22542
 H61 H 0.29320 -0.20820 0.24965
 H62 H 0.20839 -0.25002 0.29141
 H63 H 0.25050 -0.29237 0.20695
 C64 C 0.72645 0.25020 0.22599
 C65 C 0.75020 0.27405 0.22602
 C66 C 0.77399 0.27406 0.24983
 C67 C 0.77402 0.25020 0.27363
 C68 C 0.75028 0.22635 0.27362
 C69 C 0.72650 0.22636 0.24980
 H70 H 0.75017 0.29251 0.20759
 H71 H 0.79244 0.25020 0.29207
 H72 H 0.70811 0.20790 0.24979
 O73 O 0.27694 0.03061 0.46899
 O74 O 0.27674 -0.03215 0.53159
 O75 O 0.27698 -0.03206 0.46900
 O76 O 0.27675 0.03054 0.53157
 O77 O 0.22360 0.03064 0.53140
 O78 O 0.22383 -0.03197 0.46882
 O79 O 0.22359 -0.03205 0.53141
 O80 O 0.22379 0.03070 0.46882
 Cu81 Cu 0.28222 -0.00078 0.50031
 Cu82 Cu 0.21834 -0.00066 0.50010
 C83 C 0.25040 0.04125 0.45834
 C84 C 0.25013 -0.04269 0.54207
 C85 C 0.25045 -0.04257 0.45834
 C86 C 0.25014 0.04116 0.54203
 O87 O 0.72373 0.03133 0.53133
 O88 O 0.72325 -0.03144 0.46882
 O89 O 0.72338 -0.03136 0.53141
 O90 O 0.72355 0.03123 0.46876
 O91 O 0.77670 0.03085 0.46862
 O92 O 0.77653 -0.03174 0.53128
 O93 O 0.77640 -0.03182 0.46869
 O94 O 0.77688 0.03095 0.53120
 Cu95 Cu 0.71812 -0.00003 0.50010
 Cu96 Cu 0.78199 -0.00049 0.49994
 C97 C 0.75038 0.04174 0.54181
 C98 C 0.74975 -0.04221 0.45819
 C99 C 0.74992 -0.04211 0.54192
 C100 C 0.75016 0.04160 0.45812
 O101 O 0.46903 0.27691 0.03081
 O102 O 0.53167 0.27715 -0.03178
 O103 O 0.46906 0.27702 -0.03177
 O104 O 0.53162 0.27701 0.03080
 O105 O 0.53182 0.22378 0.03072
 O106 O 0.46927 0.22380 -0.03185
 O107 O 0.53187 0.22393 -0.03186
 O108 O 0.46923 0.22369 0.03073
 Cu109 Cu 0.50032 0.28239 -0.00048
 Cu110 Cu 0.50057 0.21843 -0.00058
 C111 C 0.45856 0.25026 0.04134
 C112 C 0.54235 0.25058 -0.04238
 C113 C 0.45861 0.25041 -0.04236
 C114 C 0.54227 0.25039 0.04132
 O115 O 0.53132 0.72280 0.03209
 O116 O 0.46861 0.72255 -0.03041
 O117 O 0.53121 0.72271 -0.03049
 O118 O 0.46872 0.72270 0.03216
 O119 O 0.46850 0.77592 0.03203
 O120 O 0.53098 0.77594 -0.03062
 O121 O 0.46838 0.77577 -0.03055
 O122 O 0.53110 0.77602 0.03197
 Cu123 Cu 0.49999 0.71732 0.00085
 Cu124 Cu 0.49972 0.78128 0.00069
 C125 C 0.54180 0.74945 0.04258
 C126 C 0.45790 0.74912 -0.04103
 C127 C 0.54164 0.74933 -0.04113
 C128 C 0.45806 0.74931 0.04266
 O129 O 0.03095 0.46960 0.27585
 O130 O -0.03178 0.53233 0.27570
 O131 O -0.03164 0.46965 0.27588
 O132 O 0.03083 0.53227 0.27568
 O133 O 0.03081 0.53216 0.22254
 O134 O -0.03166 0.46953 0.22274
 O135 O -0.03180 0.53221 0.22257
 O136 O 0.03093 0.46948 0.22271
 Cu137 Cu -0.00041 0.50098 0.28114
 Cu138 Cu -0.00043 0.50084 0.21728
 C139 C 0.04152 0.45895 0.24931
 C140 C -0.04239 0.54285 0.24911
 C141 C -0.04218 0.45902 0.24935
 C142 C 0.04138 0.54277 0.24907
 O143 O 0.03076 0.53208 0.72410
 O144 O -0.03178 0.46944 0.72376
 O145 O -0.03184 0.53212 0.72403
 O146 O 0.03080 0.46941 0.72384
 O147 O 0.03074 0.46915 0.77698
 O148 O -0.03191 0.53187 0.77717
 O149 O -0.03185 0.46918 0.77689
 O150 O 0.03070 0.53183 0.77723
 Cu151 Cu -0.00051 0.50080 0.71857
 Cu152 Cu -0.00059 0.50049 0.78243
 C153 C 0.04130 0.54252 0.75072
 C154 C -0.04237 0.45872 0.75027
 C155 C -0.04245 0.54257 0.75064
 C156 C 0.04134 0.45870 0.75037
 C157 C 0.34337 0.25000 0.15666
 N158 N 0.37486 0.24755 0.16477
 N159 N 0.39749 0.24758 0.14210
 C160 C 0.38933 0.25006 0.11064
 N161 N 0.35784 0.25250 0.10254
 N162 N 0.33521 0.25247 0.12520
 C163 C 0.31900 0.24998 0.18107
 C164 C 0.29851 0.24998 0.20157
 C165 C 0.41371 0.25011 0.08623
 C166 C 0.43419 0.25017 0.06573
 C167 C 0.65726 0.74965 0.15762
 N168 N 0.66215 0.73410 0.12939
 N169 N 0.63947 0.73409 0.10678
 C170 C 0.61119 0.74962 0.11172
 N171 N 0.60630 0.76517 0.13995
 N172 N 0.62899 0.76519 0.16256
 C173 C 0.68169 0.74965 0.18197
 C174 C 0.70224 0.74965 0.20242
 C175 C 0.58675 0.74959 0.08738
 C176 C 0.56622 0.74954 0.06692
 C177 C 0.65783 0.25100 -0.15742
 N178 N 0.66285 0.23567 -0.12907
 N179 N 0.64015 0.23560 -0.10647
 C180 C 0.61174 0.25085 -0.11153
 N181 N 0.60673 0.26618 -0.13987
 N182 N 0.62942 0.26625 -0.16248
 C183 C 0.68226 0.25104 -0.18177
 C184 C 0.70278 0.25107 -0.20224
 C185 C 0.58729 0.25075 -0.08719
 C186 C 0.56676 0.25067 -0.06674
 C187 C 0.34236 0.74878 -0.15599
 N188 N 0.37386 0.74701 -0.16423
 N189 N 0.39656 0.74706 -0.14164
 C190 C 0.38846 0.74887 -0.11012
 N191 N 0.35697 0.75064 -0.10188
 N192 N 0.33426 0.75059 -0.12447
 C193 C 0.31792 0.74878 -0.18033
 C194 C 0.29740 0.74879 -0.20079
 C195 C 0.41292 0.74894 -0.08579
 C196 C 0.43346 0.74902 -0.06535
 C197 C 0.15689 0.34339 0.24967
 N198 N 0.12535 0.33521 0.24997
 N199 N 0.10268 0.35792 0.24990
 C200 C 0.11086 0.38950 0.24952
 N201 N 0.14240 0.39768 0.24922
 N202 N 0.16507 0.37496 0.24930
 C203 C 0.18131 0.31893 0.24974
 C204 C 0.20183 0.29839 0.24979
 C205 C 0.08645 0.41396 0.24942
 C206 C 0.06594 0.43450 0.24936
 C207 C 0.15685 0.65743 0.75105
 N208 N 0.14113 0.64979 0.77856
 N209 N 0.11840 0.62723 0.77852
 C210 C 0.11070 0.61163 0.75096
 N211 N 0.12642 0.61927 0.72345
 N212 N 0.14915 0.64182 0.72349
 C213 C 0.18134 0.68171 0.75108
 C214 C 0.20191 0.70212 0.75107
 C215 C 0.08623 0.58732 0.75091
 C216 C 0.06571 0.56688 0.75084
 C217 C -0.15822 0.65795 0.24899
 N218 N -0.12672 0.66628 0.24936
 N219 N -0.10395 0.64368 0.24936
 C220 C -0.11198 0.61206 0.24900
 N221 N -0.14348 0.60373 0.24863
 N222 N -0.16625 0.62634 0.24863
 C223 C -0.18276 0.68230 0.24903
 C224 C -0.20337 0.70275 0.24909
 C225 C -0.08745 0.58771 0.24902
 C226 C -0.06686 0.56724 0.24906
 C227 C -0.15724 0.34315 0.74963
 N228 N -0.12566 0.33498 0.74932
 N229 N -0.10310 0.35770 0.74944
 C230 C -0.11142 0.38928 0.74987
 N231 N -0.14300 0.39744 0.75017
 N232 N -0.16557 0.37472 0.75006
 C233 C -0.18155 0.31868 0.74954
 C234 C -0.20198 0.29813 0.74951
 C235 C -0.08712 0.41375 0.75001
 C236 C -0.06669 0.43429 0.75013
 C237 C 0.25039 0.15670 0.34307
 N238 N 0.27019 0.15912 0.36883
 N239 N 0.27023 0.13643 0.39148
 C240 C 0.25046 0.11063 0.38905
 N241 N 0.23066 0.10821 0.36329
 N242 N 0.23062 0.13091 0.34064
 C243 C 0.25033 0.18115 0.31868
 C244 C 0.25029 0.20168 0.29818
 C245 C 0.25048 0.08620 0.41346
 C246 C 0.25046 0.06568 0.43395
 C247 C 0.75110 0.15753 0.65662
 N248 N 0.73123 0.13182 0.65921
 N249 N 0.73112 0.10906 0.63666
 C250 C 0.75086 0.11131 0.61083
 N251 N 0.77073 0.13702 0.60823
 N252 N 0.77084 0.15979 0.63079
 C253 C 0.75119 0.18206 0.68090
 C254 C 0.75122 0.20263 0.70132
 C255 C 0.75071 0.08681 0.58653
 C256 C 0.75057 0.06622 0.56611
 C257 C 0.24956 -0.15802 0.65747
 N258 N 0.27281 -0.15773 0.63464
 N259 N 0.27294 -0.13508 0.61194
 C260 C 0.24981 -0.11203 0.61140
 N261 N 0.22655 -0.11233 0.63424
 N262 N 0.22643 -0.13497 0.65693
 C263 C 0.24943 -0.18240 0.68192
 C264 C 0.24932 -0.20287 0.70247
 C265 C 0.24995 -0.08763 0.58697
 C266 C 0.25004 -0.06712 0.56646
 C267 C 0.74922 -0.15733 0.34270
 N268 N 0.74505 -0.12592 0.33482
 N269 N 0.74510 -0.10332 0.35753
 C270 C 0.74934 -0.11143 0.38882
 N271 N 0.75351 -0.14284 0.39670
 N272 N 0.75346 -0.16544 0.37399
 C273 C 0.74922 -0.18167 0.31824
 C274 C 0.74924 -0.20212 0.29769
 C275 C 0.74945 -0.08708 0.41327
 C276 C 0.74958 -0.06660 0.43379
 C277 C 0.65673 0.74952 -0.15638
 N278 N 0.66171 0.73397 -0.12815
 N279 N 0.63908 0.73392 -0.10550
 C280 C 0.61078 0.74942 -0.11040
 N281 N 0.60579 0.76497 -0.13863
 N282 N 0.62843 0.76502 -0.16128
 C283 C 0.68109 0.74957 -0.18075
 C284 C 0.70157 0.74960 -0.20122
 C285 C 0.58642 0.74937 -0.08602
 C286 C 0.56597 0.74934 -0.06552
 C287 C 0.34327 0.25022 -0.15733
 N288 N 0.37472 0.24778 -0.16553
 N289 N 0.39741 0.24784 -0.14293
 C290 C 0.38932 0.25034 -0.11146
 N291 N 0.35786 0.25278 -0.10326
 N292 N 0.33517 0.25272 -0.12586
 C293 C 0.31885 0.25015 -0.18164
 C294 C 0.29832 0.25010 -0.20205
 C295 C 0.41373 0.25039 -0.08715
 C296 C 0.43423 0.25041 -0.06670
 C297 C 0.34277 0.74948 0.15770
 N298 N 0.37425 0.74769 0.16593
 N299 N 0.39694 0.74764 0.14333
 C300 C 0.38881 0.74937 0.11182
 N301 N 0.35732 0.75116 0.10359
 N302 N 0.33463 0.75121 0.12619
 C303 C 0.31835 0.74955 0.18203
 C304 C 0.29783 0.74961 0.20246
 C305 C 0.41321 0.74933 0.08749
 C306 C 0.43371 0.74931 0.06703
 C307 C 0.65726 0.25025 0.15663
 N308 N 0.66237 0.23498 0.12829
 N309 N 0.63976 0.23501 0.10561
 C310 C 0.61138 0.25033 0.11059
 N311 N 0.60628 0.26560 0.13893
 N312 N 0.62888 0.26557 0.16161
 C313 C 0.68158 0.25022 0.18103
 C314 C 0.70203 0.25021 0.20153
 C315 C 0.58706 0.25035 0.08618
 C316 C 0.56661 0.25038 0.06569
 C317 C -0.15798 0.65780 0.75077
 N318 N -0.12647 0.66607 0.75040
 N319 N -0.10374 0.64342 0.75040
 C320 C -0.11185 0.61183 0.75079
 N321 N -0.14336 0.60356 0.75116
 N322 N -0.16609 0.62620 0.75116
 C323 C -0.18243 0.68216 0.75073
 C324 C -0.20299 0.70264 0.75067
 C325 C -0.08740 0.58746 0.75075
 C326 C -0.06687 0.56696 0.75071
 C327 C -0.15695 0.34352 0.24976
 N328 N -0.12538 0.33535 0.25006
 N329 N -0.10282 0.35807 0.24998
 C330 C -0.11116 0.38963 0.24960
 N331 N -0.14273 0.39781 0.24930
 N332 N -0.16529 0.37509 0.24937
 C333 C -0.18122 0.31908 0.24981
 C334 C -0.20163 0.29855 0.24983
 C335 C -0.08688 0.41408 0.24950
 C336 C -0.06647 0.43461 0.24943
 C337 C 0.15662 0.34324 0.75003
 N338 N 0.12509 0.33504 0.74973
 N339 N 0.10242 0.35774 0.74979
 C340 C 0.11060 0.38931 0.75016
 N341 N 0.14213 0.39751 0.75047
 N342 N 0.16481 0.37481 0.75040
 C343 C 0.18102 0.31882 0.74997
 C344 C 0.20153 0.29830 0.74993
 C345 C 0.08621 0.41374 0.75023
 C346 C 0.06572 0.43427 0.75029
 C347 C 0.15702 0.65739 0.24896
 N348 N 0.14085 0.65029 0.27635
 N349 N 0.11807 0.62780 0.27634
 C350 C 0.11077 0.61174 0.24895
 N351 N 0.12694 0.61884 0.22155
 N352 N 0.14972 0.64133 0.22156
 C353 C 0.18155 0.68157 0.24898
 C354 C 0.20217 0.70189 0.24904
 C355 C 0.08630 0.58749 0.24896
 C356 C 0.06577 0.56708 0.24900
 C357 C 0.74973 -0.15729 0.65730
 N358 N 0.77281 -0.15709 0.63429
 N359 N 0.77283 -0.13445 0.61159
 C360 C 0.74978 -0.11133 0.61124
 N361 N 0.72670 -0.11153 0.63426
 N362 N 0.72668 -0.13417 0.65695
 C363 C 0.74972 -0.18164 0.68172
 C364 C 0.74974 -0.20212 0.70224
 C365 C 0.74981 -0.08696 0.58683
 C366 C 0.74985 -0.06648 0.56632
 C367 C 0.25085 -0.15739 0.34275
 N368 N 0.24725 -0.12593 0.33483
 N369 N 0.24719 -0.10337 0.35757
 C370 C 0.25072 -0.11160 0.38891
 N371 N 0.25432 -0.14306 0.39684
 N372 N 0.25438 -0.16562 0.37409
 C373 C 0.25088 -0.18167 0.31829
 C374 C 0.25086 -0.20208 0.29773
 C375 C 0.25063 -0.08731 0.41338
 C376 C 0.25054 -0.06689 0.43393
 C377 C 0.75033 0.15692 0.34289
 N378 N 0.77012 0.15931 0.36866
 N379 N 0.77010 0.13663 0.39131
 C380 C 0.75029 0.11087 0.38885
 N381 N 0.73050 0.10847 0.36308
 N382 N 0.73052 0.13116 0.34043
 C383 C 0.75032 0.18134 0.31854
 C384 C 0.75031 0.20186 0.29806
 C385 C 0.75025 0.08646 0.41323
 C386 C 0.75021 0.06597 0.43372
 C387 C 0.24991 0.15663 0.65697
 N388 N 0.23012 0.13086 0.65947
 N389 N 0.23015 0.10815 0.63687
 C390 C 0.24997 0.11053 0.61112
 N391 N 0.26976 0.13630 0.60863
 N392 N 0.26973 0.15902 0.63122
 C393 C 0.24988 0.18107 0.68129
 C394 C 0.24988 0.20161 0.70172
 C395 C 0.25001 0.08609 0.58680
 C396 C 0.25006 0.06556 0.56636
   
