data_POSCAR
  _audit_creation_date              2014-09-24
  _audit_creation_method            'ToBaCCo'
  _symmetry_space_group_name_H-M    'P1'
  _symmetry_Int_Tables_number       1
  _symmetry_cell_setting            triclinic
  loop_
  _symmetry_equiv_pos_as_xyz
 x,y,z
_cell_length_a 31.0347
_cell_length_b 30.5006
_cell_length_c 31.9716
_cell_angle_alpha 89.860500
_cell_angle_beta 88.712300
_cell_angle_gamma 85.376700
loop_
  _atom_site_label
  _atom_site_type_symbol
  _atom_site_fract_x
  _atom_site_fract_y
  _atom_site_fract_z
C1 C 0.25995 0.26644 0.22526
 C2 C 0.29183 0.26461 0.19344
 C3 C 0.32507 0.23060 0.19265
 C4 C 0.32735 0.19905 0.22472
 C5 C 0.29550 0.20027 0.25664
 C6 C 0.26140 0.23385 0.25675
 C7 C 0.22640 0.30005 0.22589
 C8 C 0.19422 0.30130 0.25741
 C9 C 0.19518 0.26858 0.28835
 C10 C 0.22864 0.23473 0.28821
 C11 C 0.22974 0.20154 0.31870
 C12 C 0.26332 0.16773 0.31839
 C13 C 0.29672 0.16803 0.28798
 H14 H 0.29048 0.28913 0.16878
 H15 H 0.35339 0.17311 0.22416
 H16 H 0.22521 0.32538 0.20198
 H17 H 0.17002 0.26974 0.31249
 H18 H 0.20422 0.20161 0.34244
 H19 H 0.32313 0.14249 0.28830
 C20 C 0.74474 -0.25988 0.20482
 C21 C 0.71044 -0.26102 0.17724
 C22 C 0.67497 -0.22903 0.17907
 C23 C 0.67492 -0.19532 0.20925
 C24 C 0.70861 -0.19443 0.23775
 C25 C 0.74398 -0.22652 0.23512
 C26 C 0.77944 -0.29220 0.20285
 C27 C 0.81514 -0.29071 0.22929
 C28 C 0.81371 -0.25715 0.25981
 C29 C 0.77833 -0.22558 0.26316
 C30 C 0.77638 -0.19351 0.29460
 C31 C 0.74046 -0.16271 0.29844
 C32 C 0.70724 -0.16245 0.26932
 H33 H 0.71098 -0.28765 0.15476
 H34 H 0.64910 -0.16917 0.21010
 H35 H 0.77787 -0.31935 0.18128
 H36 H 0.84054 -0.25486 0.28061
 H37 H 0.80209 -0.19325 0.31700
 H38 H 0.67978 -0.13823 0.27224
 C39 C 0.74972 0.28951 0.77822
 C40 C 0.71921 0.28792 0.81102
 C41 C 0.68398 0.26162 0.80829
 C42 C 0.68272 0.23332 0.77350
 C43 C 0.71431 0.23304 0.74142
 C44 C 0.74740 0.26198 0.74330
 C45 C 0.78198 0.31897 0.77955
 C46 C 0.81040 0.32389 0.74508
 C47 C 0.80936 0.29422 0.71130
 C48 C 0.77824 0.26329 0.71034
 C49 C 0.77689 0.23418 0.67657
 C50 C 0.74428 0.20487 0.67483
 C51 C 0.71299 0.20466 0.70717
 H52 H 0.72295 0.30749 0.83877
 H53 H 0.65624 0.21254 0.77037
 H54 H 0.78441 0.33880 0.80737
 H55 H 0.83117 0.29657 0.68458
 H56 H 0.80113 0.23418 0.65161
 H57 H 0.68773 0.18215 0.70563
 C58 C 0.25051 -0.29751 0.78915
 C59 C 0.28454 -0.29927 0.81745
 C60 C 0.31596 -0.26880 0.81458
 C61 C 0.31435 -0.23731 0.78256
 C62 C 0.28083 -0.23543 0.75381
 C63 C 0.24832 -0.26517 0.75753
 C64 C 0.21851 -0.32734 0.79221
 C65 C 0.18246 -0.32395 0.76581
 C66 C 0.18091 -0.29136 0.73422
 C67 C 0.21363 -0.26247 0.72968
 C68 C 0.21203 -0.23061 0.69788
 C69 C 0.24476 -0.20169 0.69371
 C70 C 0.27897 -0.20405 0.72170
 H71 H 0.28617 -0.32358 0.84229
 H72 H 0.33895 -0.21403 0.78046
 H73 H 0.22234 -0.35382 0.81481
 H74 H 0.15356 -0.28746 0.71368
 H75 H 0.18552 -0.22826 0.67626
 H76 H 0.30389 -0.18121 0.71851
 C77 C 0.75340 -0.25410 0.78694
 C78 C 0.72004 -0.25236 0.81735
 C79 C 0.68474 -0.22075 0.81481
 C80 C 0.68394 -0.18929 0.78260
 C81 C 0.71673 -0.19108 0.75155
 C82 C 0.75152 -0.22381 0.75357
 C83 C 0.78807 -0.28634 0.78897
 C84 C 0.82112 -0.28956 0.75777
 C85 C 0.81807 -0.25982 0.72383
 C86 C 0.78392 -0.22681 0.72181
 C87 C 0.78098 -0.19746 0.68791
 C88 C 0.74614 -0.16527 0.68551
 C89 C 0.71463 -0.16161 0.71781
 H90 H 0.72083 -0.27636 0.84246
 H91 H 0.65702 -0.16441 0.78107
 H92 H 0.78959 -0.30859 0.81549
 H93 H 0.84141 -0.26332 0.69808
 H94 H 0.80531 -0.20004 0.66297
 H95 H 0.68792 -0.13653 0.71593
 C96 C 0.25446 0.25703 0.79026
 C97 C 0.28685 0.25569 0.82017
 C98 C 0.32177 0.22351 0.81792
 C99 C 0.32500 0.19321 0.78477
 C100 C 0.29262 0.19385 0.75477
 C101 C 0.25706 0.22571 0.75764
 C102 C 0.21939 0.28900 0.79251
 C103 C 0.18700 0.28993 0.76260
 C104 C 0.18928 0.25854 0.73051
 C105 C 0.22402 0.22622 0.72795
 C106 C 0.22613 0.19423 0.69641
 C107 C 0.26106 0.16198 0.69381
 C108 C 0.29482 0.16280 0.72235
 H109 H 0.28473 0.27928 0.84561
 H110 H 0.35231 0.16872 0.78294
 H111 H 0.21727 0.31335 0.81728
 H112 H 0.16395 0.25943 0.70762
 H113 H 0.20033 0.19398 0.67412
 H114 H 0.32230 0.13856 0.71975
 C115 C 0.25010 -0.29340 0.21571
 C116 C 0.28311 -0.29430 0.18498
 C117 C 0.31883 -0.26877 0.18890
 C118 C 0.31930 -0.24029 0.22371
 C119 C 0.28569 -0.23791 0.25392
 C120 C 0.25118 -0.26494 0.25016
 C121 C 0.21560 -0.32004 0.21197
 C122 C 0.18165 -0.31869 0.24218
 C123 C 0.18354 -0.29042 0.27686
 C124 C 0.21745 -0.26306 0.28059
 C125 C 0.21784 -0.23335 0.31396
 C126 C 0.25137 -0.20541 0.31701
 C127 C 0.28564 -0.20836 0.28752
 H128 H 0.28008 -0.31402 0.15722
 H129 H 0.34627 -0.22038 0.22790
 H130 H 0.21467 -0.34109 0.18477
 H131 H 0.15903 -0.29030 0.30158
 H132 H 0.19155 -0.23094 0.33698
 H133 H 0.31148 -0.18670 0.29017
 C134 C 0.75447 0.29192 0.20552
 C135 C 0.72440 0.29143 0.17336
 C136 C 0.69170 0.26226 0.17524
 C137 C 0.68989 0.23231 0.20840
 C138 C 0.71982 0.23211 0.24050
 C139 C 0.75189 0.26245 0.23947
 C140 C 0.78602 0.32242 0.20513
 C141 C 0.81327 0.32567 0.23945
 C142 C 0.81106 0.29551 0.27269
 C143 C 0.78085 0.26377 0.27278
 C144 C 0.77839 0.23401 0.30611
 C145 C 0.74682 0.20361 0.30680
 C146 C 0.71761 0.20277 0.27409
 H147 H 0.72547 0.31453 0.14760
 H148 H 0.66456 0.20980 0.20948
 H149 H 0.78760 0.34547 0.17935
 H150 H 0.83291 0.29694 0.29858
 H151 H 0.80050 0.23479 0.33183
 H152 H 0.69302 0.17943 0.27512
 O153 O 0.29670 0.01581 0.46269
 O154 O 0.28589 -0.06825 0.54452
 O155 O 0.28815 -0.06814 0.46252
 O156 O 0.29638 0.01491 0.54482
 O157 O 0.22534 0.02891 0.54502
 O158 O 0.21722 -0.05491 0.46346
 O159 O 0.21498 -0.05447 0.54499
 O160 O 0.22560 0.02926 0.46341
 Cu161 Cu 0.29893 -0.02785 0.50350
 Cu162 Cu 0.21368 -0.01141 0.50418
 C163 C 0.26275 0.03646 0.44893
 C164 C 0.24867 -0.07477 0.55952
 C165 C 0.25141 -0.07514 0.44837
 C166 C 0.26212 0.03547 0.55932
 O167 O 0.77753 0.05336 0.53191
 O168 O 0.77272 -0.02976 0.44930
 O169 O 0.77394 0.05567 0.45119
 O170 O 0.77297 -0.03163 0.53109
 O171 O 0.70195 -0.02180 0.53538
 O172 O 0.70267 0.06209 0.45259
 O173 O 0.70147 -0.02261 0.45297
 O174 O 0.70612 0.06320 0.53330
 Cu175 Cu 0.78144 0.01084 0.49054
 Cu176 Cu 0.69589 0.02073 0.49397
 C177 C 0.74263 0.07296 0.54599
 C178 C 0.73640 -0.04056 0.43707
 C179 C 0.73838 0.07425 0.43864
 C180 C 0.73717 -0.04152 0.54716
 O181 O 0.45564 0.27129 0.04120
 O182 O 0.53564 0.28407 -0.04331
 O183 O 0.45459 0.26857 -0.03993
 O184 O 0.53717 0.28512 0.03815
 O185 O 0.55446 0.21345 0.03982
 O186 O 0.47421 0.19757 -0.04072
 O187 O 0.55586 0.21336 -0.04073
 O188 O 0.47296 0.19977 0.04177
 Cu189 Cu 0.49397 0.28439 -0.00113
 Cu190 Cu 0.51590 0.19876 -0.00001
 C191 C 0.45027 0.23333 0.05578
 C192 C 0.56033 0.25136 -0.05583
 C193 C 0.45021 0.23020 -0.05376
 C194 C 0.55953 0.25201 0.05261
 O195 O 0.52499 0.79783 0.03922
 O196 O 0.44814 0.78213 -0.04466
 O197 O 0.44394 0.78198 0.03672
 O198 O 0.52835 0.80065 -0.04281
 O199 O 0.54631 0.72904 -0.04519
 O200 O 0.46595 0.71163 0.03837
 O201 O 0.46588 0.71065 -0.04342
 O202 O 0.54659 0.72702 0.03609
 Cu203 Cu 0.48442 0.79785 -0.00279
 Cu204 Cu 0.50811 0.71245 -0.00368
 C205 C 0.54881 0.76484 0.05188
 C206 C 0.44402 0.74368 -0.05848
 C207 C 0.44066 0.74366 0.05154
 C208 C 0.55110 0.76782 -0.05799
 O209 O 0.04129 0.46037 0.28112
 O210 O -0.04710 0.54729 0.26929
 O211 O -0.04298 0.46256 0.27605
 O212 O 0.03601 0.54605 0.27502
 O213 O 0.04608 0.53679 0.20684
 O214 O -0.04079 0.46109 0.20723
 O215 O -0.03648 0.54530 0.20119
 O216 O 0.04452 0.45157 0.21257
 Cu217 Cu -0.00363 0.50428 0.28232
 Cu218 Cu 0.00414 0.49750 0.20004
 C219 C 0.05799 0.44122 0.24874
 C220 C -0.05660 0.56187 0.23305
 C221 C -0.05752 0.44965 0.24184
 C222 C 0.05434 0.55574 0.24072
 O223 O 0.03738 0.53383 0.79991
 O224 O -0.04827 0.45798 0.79193
 O225 O 0.03561 0.44828 0.79729
 O226 O -0.04564 0.54310 0.79334
 O227 O -0.03642 0.54600 0.72467
 O228 O 0.04135 0.44841 0.72836
 O229 O -0.04197 0.46028 0.72299
 O230 O 0.04699 0.53251 0.73169
 Cu231 Cu -0.00591 0.49553 0.80252
 Cu232 Cu 0.00301 0.49697 0.71997
 C233 C 0.05740 0.54593 0.76742
 C234 C -0.05998 0.44658 0.75606
 C235 C 0.05184 0.43174 0.76346
 C236 C -0.05397 0.56133 0.75839
 C237 C 0.35936 0.19406 0.12735
 C238 C 0.35723 0.22807 0.15768
 C239 C 0.38484 0.26189 0.15375
 C240 C 0.41462 0.26245 0.12070
 C241 C 0.41802 0.22917 0.09031
 C242 C 0.38996 0.19452 0.09332
 C243 C 0.33062 0.16042 0.12932
 C244 C 0.33212 0.12777 0.09882
 C245 C 0.36168 0.12827 0.06555
 C246 C 0.39009 0.16133 0.06256
 H247 H 0.30639 0.15926 0.15404
 H248 H 0.30989 0.10222 0.10076
 H249 H 0.36232 0.10312 0.04167
 H250 H 0.41140 0.16069 0.03558
 H251 H 0.38322 0.28827 0.17652
 H252 H 0.43537 0.28933 0.11895
 C253 C 0.59655 0.77807 0.15995
 C254 C 0.64159 0.77006 0.14952
 C255 C 0.65368 0.76078 0.10751
 C256 C 0.62320 0.76035 0.07646
 C257 C 0.57937 0.76985 0.08573
 C258 C 0.56549 0.77908 0.12751
 C259 C 0.58109 0.78114 0.20194
 C260 C 0.53704 0.78876 0.21140
 C261 C 0.50720 0.79215 0.17955
 C262 C 0.52107 0.78684 0.13803
 H263 H 0.60242 0.77619 0.22804
 H264 H 0.52595 0.79137 0.24371
 H265 H 0.47302 0.79778 0.18711
 H266 H 0.49660 0.78814 0.11443
 H267 H 0.68740 0.75495 0.09805
 H268 H 0.63402 0.75268 0.04464
 C269 C 0.63606 0.30106 -0.13721
 C270 C 0.65164 0.26213 -0.15943
 C271 C 0.63588 0.22201 -0.14705
 C272 C 0.60715 0.21960 -0.11338
 C273 C 0.59358 0.25679 -0.08942
 C274 C 0.60988 0.29782 -0.10016
 C275 C 0.64373 0.34355 -0.15215
 C276 C 0.63217 0.38087 -0.12817
 C277 C 0.61229 0.37685 -0.08917
 C278 C 0.60113 0.33589 -0.07518
 H279 H 0.65815 0.34849 -0.18271
 H280 H 0.63921 0.41299 -0.13968
 H281 H 0.60477 0.40574 -0.06993
 H282 H 0.58658 0.33475 -0.04430
 H283 H 0.64698 0.19145 -0.16242
 H284 H 0.59554 0.18787 -0.10597
 C285 C 0.38943 0.70547 -0.15744
 C286 C 0.34973 0.73156 -0.15371
 C287 C 0.34218 0.76020 -0.11985
 C288 C 0.37321 0.76332 -0.08957
 C289 C 0.41284 0.73781 -0.09205
 C290 C 0.42153 0.70869 -0.12655
 C291 C 0.39815 0.67689 -0.19178
 C292 C 0.43784 0.65236 -0.19604
 C293 C 0.46956 0.65600 -0.16649
 C294 C 0.46173 0.68386 -0.13216
 H295 H 0.37450 0.67352 -0.21570
 H296 H 0.44419 0.63071 -0.22263
 H297 H 0.50058 0.63737 -0.17033
 H298 H 0.48802 0.68624 -0.11101
 H299 H 0.31196 0.78050 -0.11695
 H300 H 0.36602 0.78580 -0.06369
 C301 C 0.16469 0.37801 0.27823
 C302 C 0.15970 0.33754 0.25801
 C303 C 0.12225 0.33213 0.23572
 C304 C 0.08971 0.36615 0.23317
 C305 C 0.09360 0.40650 0.25301
 C306 C 0.13155 0.41300 0.27545
 C307 C 0.20235 0.38465 0.30056
 C308 C 0.20757 0.42511 0.31918
 C309 C 0.17572 0.45966 0.31567
 C310 C 0.13813 0.45391 0.29393
 H311 H 0.22807 0.35877 0.30364
 H312 H 0.23667 0.42980 0.33611
 H313 H 0.18025 0.49117 0.32970
 H314 H 0.11483 0.48203 0.29133
 H315 H 0.11841 0.30140 0.21981
 H316 H 0.06109 0.36089 0.21564
 C317 C 0.13530 0.62835 0.80800
 C318 C 0.14989 0.64578 0.76912
 C319 C 0.13306 0.63000 0.73210
 C320 C 0.10424 0.59753 0.73275
 C321 C 0.09161 0.57768 0.77022
 C322 C 0.10914 0.59176 0.80841
 C323 C 0.14390 0.64803 0.84666
 C324 C 0.13334 0.62840 0.88447
 C325 C 0.11365 0.58913 0.88466
 C326 C 0.10160 0.57088 0.84720
 H327 H 0.15831 0.67908 0.84813
 H328 H 0.14107 0.64341 0.91373
 H329 H 0.10702 0.57304 0.91406
 H330 H 0.08756 0.53981 0.84956
 H331 H 0.14338 0.64149 0.70171
 H332 H 0.09191 0.58775 0.70306
 C333 C -0.13469 0.65532 0.18910
 C334 C -0.15008 0.67586 0.22727
 C335 C -0.13240 0.65953 0.26485
 C336 C -0.10280 0.62294 0.26543
 C337 C -0.09018 0.59959 0.22880
 C338 C -0.10771 0.61503 0.19000
 C339 C -0.14373 0.67511 0.14984
 C340 C -0.13255 0.65295 0.11269
 C341 C -0.11194 0.61087 0.11378
 C342 C -0.09964 0.59195 0.15185
 H343 H -0.15917 0.70807 0.14749
 H344 H -0.14061 0.66819 0.08296
 H345 H -0.10487 0.59298 0.08491
 H346 H -0.08499 0.55880 0.15035
 H347 H -0.14297 0.67359 0.29477
 H348 H -0.09017 0.61246 0.29547
 C349 C -0.17086 0.40018 0.76190
 C350 C -0.16003 0.35717 0.74503
 C351 C -0.11764 0.34711 0.72920
 C352 C -0.08606 0.37677 0.73252
 C353 C -0.09515 0.41711 0.75271
 C354 C -0.13768 0.42919 0.76773
 C355 C -0.21424 0.41647 0.77032
 C356 C -0.22399 0.45772 0.78837
 C357 C -0.19107 0.48427 0.79734
 C358 C -0.14836 0.47048 0.78674
 H359 H -0.24120 0.39818 0.76202
 H360 H -0.25731 0.46927 0.79512
 H361 H -0.19876 0.51622 0.81153
 H362 H -0.12395 0.49267 0.79304
 H363 H -0.10780 0.31510 0.71603
 H364 H -0.05368 0.36743 0.72055
 C365 C 0.26644 0.08692 0.33982
 C366 C 0.26375 0.13232 0.35043
 C367 C 0.26161 0.14462 0.39274
 C368 C 0.26218 0.11307 0.42432
 C369 C 0.26603 0.06828 0.41460
 C370 C 0.26898 0.05473 0.37223
 C371 C 0.26523 0.07264 0.29786
 C372 C 0.26881 0.02794 0.28807
 C373 C 0.27336 -0.00339 0.31969
 C374 C 0.27333 0.00974 0.36141
 H375 H 0.26079 0.09565 0.27226
 H376 H 0.26800 0.01755 0.25577
 H377 H 0.27631 -0.03805 0.31192
 H378 H 0.27659 -0.01560 0.38505
 H379 H 0.25936 0.17906 0.40140
 H380 H 0.25948 0.12370 0.45666
 C381 C 0.74087 0.18582 0.59750
 C382 C 0.74373 0.17286 0.64009
 C383 C 0.74653 0.12798 0.65030
 C384 C 0.74666 0.09603 0.61931
 C385 C 0.74441 0.10800 0.57719
 C386 C 0.74223 0.15300 0.56578
 C387 C 0.73574 0.23056 0.58567
 C388 C 0.73404 0.24257 0.54356
 C389 C 0.73725 0.21045 0.51256
 C390 C 0.74127 0.16606 0.52345
 H391 H 0.73257 0.25661 0.60866
 H392 H 0.73032 0.27699 0.53495
 H393 H 0.73632 0.21996 0.47992
 H394 H 0.74385 0.14207 0.49856
 H395 H 0.74874 0.11759 0.68267
 H396 H 0.74834 0.06165 0.62827
 C397 C 0.21660 -0.12857 0.66324
 C398 C 0.24319 -0.16841 0.66009
 C399 C 0.27029 -0.17635 0.62498
 C400 C 0.27118 -0.14569 0.59278
 C401 C 0.24496 -0.10609 0.59462
 C402 C 0.21758 -0.09687 0.63042
 C403 C 0.18997 -0.11910 0.69900
 C404 C 0.16514 -0.07910 0.70267
 C405 C 0.16659 -0.04777 0.67113
 C406 C 0.19252 -0.05630 0.63545
 H407 H 0.18844 -0.14226 0.72457
 H408 H 0.14505 -0.07219 0.73035
 H409 H 0.14780 -0.01645 0.67449
 H410 H 0.19336 -0.03013 0.61276
 H411 H 0.29104 -0.20660 0.62255
 H412 H 0.29252 -0.15306 0.56599
 C413 C 0.70657 -0.13611 0.36764
 C414 C 0.73695 -0.13206 0.33434
 C415 C 0.76622 -0.09965 0.33610
 C416 C 0.76538 -0.07076 0.36975
 C417 C 0.73528 -0.07327 0.40289
 C418 C 0.70572 -0.10660 0.40228
 C419 C 0.67792 -0.16986 0.36787
 C420 C 0.64894 -0.17436 0.40122
 C421 C 0.64831 -0.14590 0.43515
 C422 C 0.67650 -0.11259 0.43591
 H423 H 0.67793 -0.19342 0.34265
 H424 H 0.62721 -0.20039 0.40096
 H425 H 0.62615 -0.14992 0.46125
 H426 H 0.67550 -0.09238 0.46342
 H427 H 0.78991 -0.09664 0.31105
 H428 H 0.78830 -0.04576 0.36963
 C429 C 0.60535 0.77273 -0.16595
 C430 C 0.64843 0.77858 -0.15421
 C431 C 0.65775 0.78224 -0.11168
 C432 C 0.62555 0.77984 -0.08090
 C433 C 0.58295 0.77435 -0.09175
 C434 C 0.57224 0.77171 -0.13442
 C435 C 0.59453 0.76639 -0.20810
 C436 C 0.55193 0.76139 -0.21898
 C437 C 0.51938 0.76227 -0.18829
 C438 C 0.52932 0.76726 -0.14637
 H439 H 0.61873 0.76467 -0.23299
 H440 H 0.54414 0.75677 -0.25143
 H441 H 0.48633 0.75862 -0.19694
 H442 H 0.50318 0.76765 -0.12343
 H443 H 0.69047 0.78643 -0.10222
 H444 H 0.63404 0.78164 -0.04829
 C445 C 0.36076 0.18644 -0.12070
 C446 C 0.35494 0.22186 -0.14938
 C447 C 0.37993 0.25772 -0.14605
 C448 C 0.41055 0.25908 -0.11516
 C449 C 0.41753 0.22460 -0.08632
 C450 C 0.39242 0.18755 -0.08896
 C451 C 0.33468 0.15060 -0.12204
 C452 C 0.33994 0.11623 -0.09341
 C453 C 0.37076 0.11706 -0.06264
 C454 C 0.39654 0.15229 -0.06015
 H455 H 0.30966 0.14894 -0.14483
 H456 H 0.31975 0.08897 -0.09489
 H457 H 0.37448 0.09039 -0.04028
 H458 H 0.41909 0.15125 -0.03513
 H459 H 0.37558 0.28509 -0.16763
 H460 H 0.42920 0.28758 -0.11392
 C461 C 0.36680 0.69233 0.13393
 C462 C 0.35169 0.73086 0.15699
 C463 C 0.36781 0.77102 0.14525
 C464 C 0.39581 0.77398 0.11106
 C465 C 0.40848 0.73734 0.08600
 C466 C 0.39258 0.69611 0.09662
 C467 C 0.35896 0.64970 0.14826
 C468 C 0.37034 0.61271 0.12376
 C469 C 0.39014 0.61723 0.08478
 C470 C 0.40126 0.65836 0.07121
 H471 H 0.34452 0.64443 0.17876
 H472 H 0.36324 0.58046 0.13486
 H473 H 0.39759 0.58859 0.06520
 H474 H 0.41581 0.65988 0.04037
 H475 H 0.35726 0.80135 0.16130
 H476 H 0.40748 0.80578 0.10406
 C477 C 0.61591 0.28484 0.15183
 C478 C 0.65771 0.26402 0.14361
 C479 C 0.66640 0.24132 0.10607
 C480 C 0.63413 0.23823 0.07694
 C481 C 0.59233 0.25805 0.08435
 C482 C 0.58278 0.28164 0.12209
 C483 C 0.60621 0.30828 0.18935
 C484 C 0.56462 0.32746 0.19773
 C485 C 0.53198 0.32348 0.16918
 C486 C 0.54076 0.30073 0.13177
 H487 H 0.63061 0.31194 0.21247
 H488 H 0.55760 0.34523 0.22667
 H489 H 0.49962 0.33798 0.17609
 H490 H 0.51419 0.29795 0.11097
 H491 H 0.69818 0.22500 0.09972
 H492 H 0.64181 0.22000 0.04832
 C493 C -0.10124 0.68080 0.74788
 C494 C -0.14548 0.67573 0.75910
 C495 C -0.15686 0.63366 0.77120
 C496 C -0.12682 0.59744 0.77060
 C497 C -0.08421 0.60117 0.75728
 C498 C -0.07083 0.64297 0.74593
 C499 C -0.08550 0.72271 0.74193
 C500 C -0.04229 0.72696 0.73100
 C501 C -0.01341 0.68987 0.72692
 C502 C -0.02726 0.64827 0.73475
 H503 H -0.10585 0.75273 0.74700
 H504 H -0.03100 0.75931 0.72626
 H505 H 0.02017 0.69341 0.71869
 H506 H -0.00332 0.62053 0.73275
 H507 H -0.18996 0.62793 0.77955
 H508 H -0.13738 0.56590 0.77986
 C509 C -0.15762 0.38933 0.27447
 C510 C -0.15783 0.35898 0.24068
 C511 C -0.12854 0.36251 0.20704
 C512 C -0.09676 0.39212 0.20815
 C513 C -0.09404 0.42078 0.24206
 C514 C -0.12630 0.42125 0.27460
 C515 C -0.19012 0.39105 0.30640
 C516 C -0.19140 0.42254 0.33791
 C517 C -0.16154 0.45403 0.33763
 C518 C -0.12984 0.45402 0.30611
 H519 H -0.21580 0.36916 0.30674
 H520 H -0.21652 0.42330 0.36201
 H521 H -0.16358 0.47933 0.36145
 H522 H -0.10975 0.48122 0.30620
 H523 H -0.12860 0.34036 0.18059
 H524 H -0.07339 0.39187 0.18244
 C525 C 0.11481 0.32240 0.79177
 C526 C 0.15098 0.32461 0.76428
 C527 C 0.15301 0.36030 0.73704
 C528 C 0.12030 0.39422 0.73721
 C529 C 0.08437 0.39352 0.76451
 C530 C 0.08082 0.35683 0.79155
 C531 C 0.11131 0.28617 0.81883
 C532 C 0.07486 0.28349 0.84468
 C533 C 0.04113 0.31640 0.84372
 C534 C 0.04378 0.35260 0.81732
 H535 H 0.13647 0.25950 0.81994
 H536 H 0.07252 0.25545 0.86519
 H537 H 0.01257 0.31371 0.86334
 H538 H 0.01613 0.37646 0.81685
 H539 H 0.18045 0.36208 0.71572
 H540 H 0.12346 0.42173 0.71615
 C541 C 0.10348 0.66639 0.24882
 C542 C 0.14773 0.65299 0.23886
 C543 C 0.15845 0.60900 0.22666
 C544 C 0.12769 0.57827 0.22712
 C545 C 0.08512 0.59004 0.24006
 C546 C 0.07235 0.63437 0.25050
 C547 C 0.08863 0.71122 0.25395
 C548 C 0.04540 0.72367 0.26384
 C549 C 0.01567 0.69209 0.26768
 C550 C 0.02874 0.64792 0.26064
 H551 H 0.10980 0.73730 0.24907
 H552 H 0.03479 0.75810 0.26797
 H553 H -0.01792 0.70196 0.27509
 H554 H 0.00415 0.62480 0.26235
 H555 H 0.19153 0.59734 0.21883
 H556 H 0.13756 0.54454 0.21851
 C557 C 0.70727 -0.13553 0.62095
 C558 C 0.74230 -0.13564 0.64871
 C559 C 0.77458 -0.10695 0.64154
 C560 C 0.77216 -0.07742 0.60830
 C561 C 0.73725 -0.07522 0.58099
 C562 C 0.70439 -0.10493 0.58698
 C563 C 0.67565 -0.16614 0.62562
 C564 C 0.64148 -0.16624 0.59816
 C565 C 0.63834 -0.13636 0.56532
 C566 C 0.66941 -0.10624 0.55954
 H567 H 0.67729 -0.19073 0.65007
 H568 H 0.61750 -0.18987 0.60219
 H569 H 0.61186 -0.13678 0.54389
 H570 H 0.66552 -0.08473 0.53304
 H571 H 0.80168 -0.10696 0.66233
 H572 H 0.79762 -0.05533 0.60444
 C573 C 0.22150 -0.13217 0.34702
 C574 C 0.24936 -0.17118 0.34981
 C575 C 0.27676 -0.17736 0.38376
 C576 C 0.27654 -0.14592 0.41525
 C577 C 0.24893 -0.10721 0.41387
 C578 C 0.22133 -0.09970 0.37912
 C579 C 0.19468 -0.12424 0.31223
 C580 C 0.16847 -0.08518 0.30887
 C581 C 0.16871 -0.05318 0.33972
 C582 C 0.19486 -0.06008 0.37438
 H583 H 0.19408 -0.14784 0.28709
 H584 H 0.14824 -0.07950 0.28194
 H585 H 0.14882 -0.02257 0.33657
 H586 H 0.19469 -0.03338 0.39642
 H587 H 0.29845 -0.20690 0.38592
 H588 H 0.29808 -0.15206 0.44120
 C589 C 0.71047 0.17859 0.37335
 C590 C 0.74369 0.17292 0.34231
 C591 C 0.77449 0.13705 0.34452
 C592 C 0.77218 0.10602 0.37624
 C593 C 0.73904 0.10982 0.40691
 C594 C 0.70815 0.14707 0.40623
 C595 C 0.68006 0.21561 0.37280
 C596 C 0.64822 0.22182 0.40407
 C597 C 0.64626 0.19168 0.43658
 C598 C 0.67585 0.15483 0.43791
 H599 H 0.68094 0.24035 0.34854
 H600 H 0.62525 0.25046 0.40335
 H601 H 0.62190 0.19709 0.46120
 H602 H 0.67348 0.13365 0.46475
 H603 H 0.80015 0.13264 0.32100
 H604 H 0.79620 0.07819 0.37628
 C605 C 0.26703 0.08196 0.66968
 C606 C 0.26228 0.12775 0.66068
 C607 C 0.25813 0.14162 0.61896
 C608 C 0.25868 0.11129 0.58643
 C609 C 0.26465 0.06619 0.59445
 C610 C 0.26965 0.05109 0.63614
 C611 C 0.26769 0.06597 0.71122
 C612 C 0.27315 0.02094 0.71939
 C613 C 0.27777 -0.00902 0.68656
 C614 C 0.27597 0.00577 0.64532
 H615 H 0.26324 0.08781 0.73779
 H616 H 0.27371 0.00924 0.75138
 H617 H 0.28212 -0.04393 0.69306
 H618 H 0.27925 -0.01861 0.62078
 H619 H 0.25422 0.17637 0.61151
 H620 H 0.25450 0.12311 0.55466
   
