data_POSCAR
  _audit_creation_date              2014-09-24
  _audit_creation_method            'ToBaCCo'
  _symmetry_space_group_name_H-M    'P1'
  _symmetry_Int_Tables_number       1
  _symmetry_cell_setting            triclinic
  loop_
  _symmetry_equiv_pos_as_xyz
 x,y,z
_cell_length_a 13.8674
_cell_length_b 14.3700
_cell_length_c 11.7641
_cell_angle_alpha 90.089900
_cell_angle_beta 89.942400
_cell_angle_gamma 89.411400
loop_
  _atom_site_label
  _atom_site_type_symbol
  _atom_site_fract_x
  _atom_site_fract_y
  _atom_site_fract_z
C1 C 1.22633 0.25192 0.24519
 C2 C 0.77509 -0.25171 0.25312
 C3 C 0.77431 0.24584 -0.24418
 C4 C 1.22680 -0.24928 -0.25581
 C5 C 0.22652 0.25103 0.75466
 C6 C 0.77330 0.74587 0.74356
 C7 C 0.77457 0.24801 0.24580
 C8 C 0.22803 0.75137 0.25374
 O9 O 0.81578 -0.11686 -0.18179
 O10 O 0.90892 -0.23510 -0.11161
 C11 C 0.83851 -0.20193 -0.17614
 O12 O 1.19602 0.10730 -0.17030
 O13 O 1.09834 0.22418 -0.10247
 C14 C 1.17119 0.19269 -0.16390
 O15 O 1.12443 -0.12486 -0.23585
 O16 O 1.09857 -0.23549 -0.10368
 C17 C 1.14611 -0.20249 -0.19159
 O18 O 0.79936 0.11683 -0.13187
 O19 O 0.91176 0.22719 -0.10754
 C20 C 0.83275 0.19623 -0.15563
 Zr21 Zr 0.88246 -0.00134 -0.13531
 O22 O 0.89579 0.01385 -0.31310
 O23 O 0.73274 -0.00467 -0.16949
 Zr24 Zr 1.11563 -0.00744 -0.14177
 O25 O 1.12229 0.01868 -0.31826
 O26 O 1.26353 -0.04363 -0.14004
 O27 O 0.99644 -0.09042 -0.16279
 O28 O 0.99996 0.08095 -0.16296
 O29 O 0.79985 0.11330 0.14282
 O30 O 0.90848 0.22625 0.10530
 C31 C 0.83076 0.19553 0.15756
 O32 O 1.13187 -0.12204 0.23278
 O33 O 1.10120 -0.23451 0.10435
 C34 C 1.15227 -0.20111 0.19040
 O35 O 1.19936 0.10864 0.16614
 O36 O 1.10006 0.22463 0.09956
 C37 C 1.17340 0.19369 0.16066
 O38 O 0.86334 -0.12157 0.22581
 O39 O 0.90279 -0.23582 0.09968
 C40 C 0.85131 -0.20252 0.18497
 Zr41 Zr 0.88836 -0.00110 0.14307
 O42 O 0.90212 0.02812 0.31891
 O43 O 0.73892 -0.01397 0.17388
 Zr44 Zr 1.12010 -0.00676 0.13643
 O45 O 1.12539 0.00427 0.31569
 O46 O 1.26865 -0.04105 0.12862
 Zr47 Zr 1.00034 -0.15177 -0.00059
 Zr48 Zr 1.00318 0.14149 -0.00046
 O49 O 1.00535 0.08296 0.16177
 O50 O 1.00285 -0.09038 0.16103
 O51 O 0.86703 0.08054 0.00366
 O52 O 1.13734 -0.09130 -0.00281
 O53 O 0.86557 -0.08438 0.00507
 O54 O 1.13835 0.07582 -0.00300
 H55 H 1.00075 0.12329 -0.22946
 H56 H 1.19463 -0.13312 -0.00305
 H57 H 1.00551 0.12851 0.22496
 H58 H 0.80502 -0.12015 0.01005
 H59 H 1.29933 0.00079 -0.09261
 H60 H 1.30358 0.00624 0.08450
 H61 H 1.09859 0.06470 0.34104
 H62 H 0.94585 -0.01926 0.35243
 H63 H 0.70616 -0.02539 0.10054
 H64 H 0.69833 -0.01398 -0.09625
 H65 H 0.90566 -0.04941 -0.34475
 H66 H 1.06370 -0.00514 -0.35527
 O67 O 1.13460 0.38130 0.73100
 O68 O 1.09732 0.26815 0.60417
 C69 C 1.14876 0.30103 0.68941
 O70 O 0.79975 0.61822 0.63056
 O71 O 0.91063 0.73007 0.60558
 C72 C 0.83241 0.69786 0.65475
 O73 O 0.82863 0.38532 0.69722
 O74 O 0.90701 0.26610 0.60718
 C75 C 0.84215 0.29938 0.67916
 O76 O 1.20149 0.60854 0.66115
 O77 O 1.10072 0.72544 0.59932
 C78 C 1.17452 0.69354 0.65911
 Zr79 Zr 1.11651 0.49664 0.63710
 O80 O 1.11706 0.50733 0.81667
 O81 O 1.26761 0.48270 0.62587
 Zr82 Zr 0.88489 0.50209 0.63696
 O83 O 0.90353 0.52283 0.81383
 O84 O 0.73578 0.49556 0.67299
 O85 O 0.99870 0.41277 0.66071
 O86 O 1.00187 0.58602 0.66022
 O87 O 1.20083 0.60903 0.33171
 O88 O 1.10155 0.72636 0.39513
 C89 C 1.17580 0.69492 0.33439
 O90 O 0.85534 0.38154 0.27801
 O91 O 0.90212 0.26639 0.39905
 C92 C 0.84837 0.29921 0.31572
 O93 O 0.79770 0.61578 0.36065
 O94 O 0.90760 0.72859 0.39378
 C95 C 0.82940 0.69731 0.34327
 O96 O 1.12628 0.37822 0.26511
 O97 O 1.09693 0.26696 0.39583
 C98 C 1.14619 0.29985 0.30906
 Zr99 Zr 1.11778 0.49522 0.35973
 O100 O 1.12234 0.50675 0.18046
 O101 O 1.26651 0.46293 0.36769
 Zr102 Zr 0.88607 0.50119 0.35810
 O103 O 0.90048 0.52844 0.18198
 O104 O 0.73659 0.48889 0.32766
 Zr105 Zr 0.99911 0.35101 0.49962
 Zr106 Zr 1.00299 0.64476 0.49773
 O107 O 1.00310 0.58511 0.33595
 O108 O 0.99992 0.41174 0.33784
 O109 O 1.13691 0.57892 0.49779
 O110 O 0.86488 0.41855 0.49753
 O111 O 1.13586 0.41085 0.49912
 O112 O 0.86710 0.58293 0.49742
 H113 H 1.00195 0.63082 0.72422
 H114 H 0.80465 0.38217 0.49623
 H115 H 1.00320 0.63050 0.27276
 H116 H 1.19301 0.36907 0.49878
 H117 H 0.70195 0.48040 0.60109
 H118 H 0.70466 0.47423 0.40068
 H119 H 0.94222 0.47920 0.14860
 H120 H 1.09773 0.56824 0.15626
 H121 H 1.29660 0.50061 0.42818
 H122 H 1.28630 0.41639 0.62849
 H123 H 1.09871 0.57107 0.83994
 H124 H 0.92591 0.46291 0.84645
 O125 O 0.62112 0.17058 0.71362
 O126 O 0.74195 0.10307 0.60829
 C127 C 0.71036 0.16779 0.68455
 O128 O 0.38042 -0.17317 0.70455
 O129 O 0.26011 -0.10373 0.60187
 C130 C 0.29154 -0.16959 0.67635
 O131 O 0.61694 -0.17932 0.70313
 O132 O 0.73830 -0.10856 0.60397
 C133 C 0.70598 -0.17616 0.67508
 O134 O 0.38218 0.18580 0.69606
 O135 O 0.26065 0.11189 0.60249
 C136 C 0.29230 0.17953 0.67356
 Zr137 Zr 0.50056 0.11092 0.63960
 O138 O 0.50516 0.08617 0.81601
 O139 O 0.48822 0.25526 0.62414
 Zr140 Zr 0.49946 -0.10897 0.63610
 O141 O 0.51474 -0.08230 0.81124
 O142 O 0.48085 -0.25218 0.61840
 O143 O 0.59364 -0.00056 0.66080
 O144 O 0.40791 0.00220 0.65716
 O145 O 0.38203 0.18833 0.30531
 O146 O 0.26030 0.11156 0.39479
 C147 C 0.29194 0.18053 0.32603
 O148 O 0.61975 -0.17082 0.28397
 O149 O 0.73954 -0.10639 0.39217
 C150 C 0.70807 -0.17080 0.31625
 O151 O 0.37972 -0.17002 0.28610
 O152 O 0.26081 -0.10800 0.39659
 C153 C 0.29141 -0.17237 0.31858
 O154 O 0.62073 0.17637 0.29118
 O155 O 0.74170 0.10487 0.39187
 C156 C 0.71014 0.17172 0.31873
 Zr157 Zr 0.50055 0.11367 0.36128
 O158 O 0.50670 0.08848 0.18506
 O159 O 0.48698 0.25773 0.37922
 Zr160 Zr 0.49979 -0.10601 0.35579
 O161 O 0.51487 -0.07955 0.18056
 O162 O 0.48357 -0.24907 0.37366
 Zr163 Zr 0.65771 0.00028 0.49867
 Zr164 Zr 0.34289 0.00325 0.49813
 O165 O 0.40781 0.00523 0.33895
 O166 O 0.59400 0.00312 0.33635
 O167 O 0.41258 0.13124 0.50071
 O168 O 0.58567 -0.12581 0.49580
 O169 O 0.58765 0.12841 0.50076
 O170 O 0.41216 -0.12613 0.49559
 H171 H 0.36314 0.00427 0.72114
 H172 H 0.62372 -0.18376 0.49528
 H173 H 0.36263 0.00731 0.27524
 H174 H 0.62790 0.18425 0.50169
 H175 H 0.53821 -0.28000 0.58178
 H176 H 0.54473 -0.27618 0.40095
 H177 H 0.45033 -0.07511 0.14528
 H178 H 0.44073 0.09128 0.15308
 H179 H 0.54625 0.28262 0.41328
 H180 H 0.54956 0.28043 0.59594
 H181 H 0.43874 0.08730 0.84692
 H182 H 0.45029 -0.07946 0.84728
 O183 O 0.62146 0.67681 0.20794
 O184 O 0.74223 0.60476 0.10698
 C185 C 0.71088 0.67173 0.18036
 O186 O 0.37988 0.33052 0.20988
 O187 O 0.26064 0.39697 0.10292
 C188 C 0.29159 0.33203 0.17866
 O189 O 0.61896 0.32842 0.21352
 O190 O 0.73905 0.39289 0.10586
 C191 C 0.70729 0.32812 0.18114
 O192 O 0.38172 0.68649 0.19976
 O193 O 0.26006 0.61562 0.10463
 C194 C 0.29154 0.68328 0.17639
 Zr195 Zr 0.50093 0.61463 0.13825
 O196 O 0.50946 0.58802 0.31403
 O197 O 0.48745 0.75846 0.11943
 Zr198 Zr 0.49972 0.39491 0.14283
 O199 O 0.51325 0.42004 0.31861
 O200 O 0.48226 0.25178 0.12562
 O201 O 0.59412 0.50376 0.16266
 O202 O 0.40809 0.50659 0.16023
 O203 O 0.38220 0.68558 -0.19760
 O204 O 0.26047 0.61171 -0.10451
 C205 C 0.29223 0.67913 -0.17537
 O206 O 0.61743 0.32116 -0.20454
 O207 O 0.73865 0.39131 -0.10445
 C208 C 0.70641 0.32383 -0.17600
 O209 O 0.38090 0.32552 -0.20312
 O210 O 0.26076 0.39631 -0.10100
 C211 C 0.29203 0.32948 -0.17489
 O212 O 0.62067 0.67001 -0.21574
 O213 O 0.74142 0.60284 -0.11026
 C214 C 0.70968 0.66730 -0.18652
 Zr215 Zr 0.50064 0.61129 -0.14052
 O216 O 0.50473 0.58621 -0.31708
 O217 O 0.48903 0.75565 -0.12440
 Zr218 Zr 0.49956 0.39141 -0.13690
 O219 O 0.51535 0.41770 -0.31189
 O220 O 0.48107 0.24819 -0.11964
 Zr221 Zr 0.65776 0.50044 0.00020
 Zr222 Zr 0.34305 0.50522 0.00127
 O223 O 0.40797 0.50255 -0.15789
 O224 O 0.59371 0.49961 -0.16176
 O225 O 0.41301 0.63294 -0.00107
 O226 O 0.58553 0.37450 0.00292
 O227 O 0.58792 0.62874 -0.00172
 O228 O 0.41192 0.37548 0.00341
 H229 H 0.36311 0.50918 0.22420
 H230 H 0.62304 0.31625 0.00310
 H231 H 0.36296 0.50320 -0.22156
 H232 H 0.62847 0.68439 -0.00263
 H233 H 0.54262 0.22395 0.09668
 H234 H 0.53871 0.22024 -0.08405
 H235 H 0.45098 0.42012 -0.34777
 H236 H 0.43821 0.58617 -0.34766
 H237 H 0.55078 0.78064 -0.09722
 H238 H 0.54703 0.78301 0.08574
 H239 H 0.44394 0.58928 0.34768
 H240 H 0.44835 0.42441 0.35324
   
