data_POSCAR
  _audit_creation_date              2014-09-24
  _audit_creation_method            'ToBaCCo'
  _symmetry_space_group_name_H-M    'P1'
  _symmetry_Int_Tables_number       1
  _symmetry_cell_setting            triclinic
  loop_
  _symmetry_equiv_pos_as_xyz
 x,y,z
_cell_length_a 52.2324
_cell_length_b 53.7757
_cell_length_c 49.7024
_cell_angle_alpha 91.893100
_cell_angle_beta 89.881900
_cell_angle_gamma 92.921700
loop_
  _atom_site_label
  _atom_site_type_symbol
  _atom_site_fract_x
  _atom_site_fract_y
  _atom_site_fract_z
C1 C 0.21060 0.52456 1.04068
 H2 H 0.21063 0.53982 1.02702
 C3 C 0.19288 0.52341 1.06175
 H4 H 0.17956 0.53811 1.06413
 C5 C 0.22744 0.48654 1.05315
 H6 H 0.24041 0.47184 1.04933
 C7 C 0.21011 0.48462 1.07447
 H8 H 0.21045 0.46849 1.08693
 N9 N 0.22736 0.50627 1.03675
 C10 C 0.28819 0.53858 0.98633
 H11 H 0.28808 0.52461 0.97015
 C12 C 0.30546 0.55923 0.98572
 H13 H 0.31863 0.56090 0.96895
 C14 C 0.27123 0.55298 1.02790
 H15 H 0.25802 0.55035 1.04443
 C16 C 0.28828 0.57391 1.02817
 H17 H 0.28787 0.58723 1.04496
 Zn18 Zn 0.24838 0.50748 1.00571
 N19 N 0.27132 0.53598 1.00702
 C20 C 0.22769 0.52773 0.95874
 N21 N 0.22601 0.50857 0.97594
 C22 C 0.20722 0.49020 0.97332
 C23 C 0.18936 0.49044 0.95249
 C24 C 0.21024 0.52870 0.93762
 C25 C 0.28554 0.47557 1.02249
 C26 C 0.30007 0.45447 1.02191
 C27 C 0.27893 0.44070 0.98048
 C28 C 0.26474 0.46204 0.98190
 N29 N 0.26799 0.47877 1.00290
 H30 H 0.24230 0.54252 0.96155
 H31 H 0.20605 0.47543 0.98759
 H32 H 0.17455 0.47563 0.95084
 H33 H 0.21189 0.54418 0.92424
 H34 H 0.28799 0.48934 1.03877
 H35 H 0.31376 0.45225 1.03787
 H36 H 0.27591 0.42758 0.96366
 H37 H 0.25115 0.46516 0.96618
 C38 C 0.30565 0.57730 1.00681
 C39 C 0.19218 0.50303 1.07888
 C40 C 0.29677 0.43660 1.00077
 C41 C 0.19069 0.50991 0.93431
 C42 C 0.79020 0.51486 -0.02879
 H43 H 0.79031 0.52791 -0.01175
 C44 C 0.80846 0.51777 -0.04907
 H45 H 0.82249 0.53327 -0.04747
 C46 C 0.77194 0.47852 -0.05097
 H47 H 0.75800 0.46297 -0.05135
 C48 C 0.78991 0.48071 -0.07174
 H49 H 0.78936 0.46689 -0.08809
 N50 N 0.77230 0.49562 -0.03017
 C51 C 0.71199 0.52304 0.02218
 H52 H 0.71033 0.50862 0.03685
 C53 C 0.69662 0.54355 0.02443
 H54 H 0.68318 0.54474 0.04097
 C55 C 0.73137 0.53872 -0.01735
 H56 H 0.74460 0.53663 -0.03388
 C57 C 0.71640 0.55949 -0.01589
 H58 H 0.71858 0.57323 -0.03128
 Zn59 Zn 0.74972 0.49306 -0.00053
 N60 N 0.72918 0.52116 0.00172
 C61 C 0.77070 0.50876 0.05083
 N62 N 0.77088 0.49163 0.03008
 C63 C 0.78785 0.47329 0.02935
 C64 C 0.80542 0.47144 0.05013
 C65 C 0.78803 0.50763 0.07212
 C66 C 0.71171 0.46138 -0.02531
 C67 C 0.69540 0.44011 -0.02872
 C68 C 0.71222 0.42457 0.01236
 C69 C 0.72828 0.44609 0.01491
 N70 N 0.72793 0.46385 -0.00394
 H71 H 0.75749 0.52357 0.05071
 H72 H 0.78785 0.46020 0.01234
 H73 H 0.81878 0.45670 0.04897
 H74 H 0.78773 0.52151 0.08838
 H75 H 0.71154 0.47596 -0.03979
 H76 H 0.68267 0.43856 -0.04592
 H77 H 0.71281 0.41072 0.02764
 H78 H 0.74083 0.44862 0.03213
 C79 C 0.69879 0.56220 0.00526
 C80 C 0.80852 0.50054 -0.07092
 C81 C 0.69551 0.42132 -0.00972
 C82 C 0.80578 0.48883 0.07186
 C83 C -0.03127 0.27683 0.50034
 H84 H -0.04570 0.27802 0.51591
 C85 C -0.03169 0.29251 0.47856
 H86 H -0.04670 0.30562 0.47767
 C87 C 0.00598 0.25847 0.48333
 H88 H 0.02096 0.24559 0.48553
 C89 C 0.00634 0.27380 0.46120
 H90 H 0.02158 0.27212 0.44653
 N91 N -0.01280 0.26007 0.50220
 C92 C -0.04767 0.20441 0.55485
 H93 H -0.03374 0.20462 0.57095
 C94 C -0.06927 0.18797 0.55534
 H95 H -0.07179 0.17560 0.57199
 C96 C -0.06071 0.21977 0.51318
 H97 H -0.05705 0.23172 0.49643
 C98 C -0.08253 0.20369 0.51287
 H99 H -0.09548 0.20372 0.49589
 Zn100 Zn -0.01332 0.24051 0.53318
 N101 N -0.04381 0.21989 0.53398
 C102 C -0.02996 0.26454 0.58194
 N103 N -0.01126 0.26323 0.56293
 C104 C 0.00932 0.27974 0.56319
 C105 C 0.01184 0.29844 0.58319
 C106 C -0.02833 0.28318 0.60226
 C107 C 0.01665 0.20282 0.51220
 C108 C 0.03806 0.18842 0.50967
 C109 C 0.05521 0.20848 0.55044
 C110 C 0.03349 0.22256 0.55213
 N111 N 0.01507 0.21995 0.53279
 H112 H -0.04646 0.25158 0.58100
 H113 H 0.02362 0.27855 0.54749
 H114 H 0.02828 0.31152 0.58269
 H115 H -0.04358 0.28424 0.61698
 H116 H 0.00153 0.20086 0.49732
 H117 H 0.03914 0.17528 0.49278
 H118 H 0.06984 0.21117 0.56580
 H119 H 0.03157 0.23573 0.56879
 C120 C -0.08696 0.18732 0.53401
 C121 C -0.01266 0.29122 0.45852
 C122 C 0.05791 0.19141 0.52874
 C123 C -0.00728 0.30056 0.60291
 C124 C 0.99524 0.71987 0.50043
 H125 H 0.98064 0.71822 0.48497
 C126 C 0.99400 0.70395 0.52202
 H127 H 0.97829 0.69008 0.52300
 C128 C 1.03359 0.73987 0.51748
 H129 H 1.04925 0.75355 0.51541
 C130 C 1.03313 0.72430 0.53943
 H131 H 1.04838 0.72646 0.55417
 N132 N 1.01459 0.73763 0.49875
 C133 C 0.98062 0.79234 0.44870
 H134 H 0.99418 0.79350 0.43225
 C135 C 0.95895 0.80657 0.44873
 H136 H 0.95600 0.81864 0.43214
 C137 C 0.96833 0.77539 0.49046
 H138 H 0.97224 0.76363 0.50699
 C139 C 0.94648 0.78925 0.49132
 H140 H 0.93373 0.78767 0.50845
 Zn141 Zn 1.01439 0.75801 0.46849
 N142 N 0.98473 0.77691 0.46922
 C143 C 0.99468 0.73404 0.42025
 N144 N 1.01451 0.73614 0.43801
 C145 C 1.03430 0.72073 0.43618
 C146 C 1.03464 0.70216 0.41598
 C147 C 0.99415 0.71555 0.39979
 C148 C 1.04625 0.79679 0.49003
 C149 C 1.06801 0.81284 0.49239
 C150 C 1.08356 0.79542 0.45038
 C151 C 1.06154 0.77955 0.44893
 N152 N 1.04367 0.78021 0.46886
 H153 H 0.97881 0.74606 0.42246
 H154 H 1.04953 0.72249 0.45094
 H155 H 1.05038 0.68981 0.41532
 H156 H 0.97790 0.71376 0.38624
 H157 H 1.03154 0.79717 0.50538
 H158 H 1.06975 0.82568 0.50961
 H159 H 1.09766 0.79446 0.43443
 H160 H 1.05885 0.76668 0.43191
 C161 C 0.94148 0.80507 0.47024
 C162 C 1.01307 0.70611 0.54196
 C163 C 1.08714 0.81217 0.47249
 C164 C 1.01415 0.69907 0.39772
 C165 C 0.47242 -0.00167 0.28261
 H166 H 0.48653 -0.01572 0.28276
 C167 C 0.45272 -0.00197 0.30165
 H168 H 0.45176 -0.01647 0.31627
 C169 C 0.45715 0.03462 0.26370
 H170 H 0.45922 0.04914 0.24925
 C171 C 0.43713 0.03504 0.28238
 H172 H 0.42386 0.04983 0.28180
 N173 N 0.47422 0.01636 0.26406
 C174 C 0.51947 -0.01437 0.19816
 H175 H 0.53421 0.00039 0.19661
 C176 C 0.51954 -0.03514 0.18054
 H177 H 0.53460 -0.03602 0.16559
 C178 C 0.48200 -0.03059 0.21960
 H179 H 0.46721 -0.02861 0.23462
 C180 C 0.48131 -0.05173 0.20240
 H181 H 0.46597 -0.06580 0.20476
 Zn182 Zn 0.50267 0.01636 0.24035
 N183 N 0.50110 -0.01261 0.21743
 C184 C 0.54901 -0.00153 0.26024
 N185 N 0.53246 0.01716 0.26219
 C186 C 0.53554 0.03571 0.28136
 C187 C 0.55583 0.03585 0.29967
 C188 C 0.56958 -0.00209 0.27806
 C189 C 0.48326 0.04490 0.20007
 C190 C 0.48226 0.06447 0.18241
 C191 C 0.52177 0.08229 0.20164
 C192 C 0.52200 0.06233 0.21898
 N193 N 0.50280 0.04425 0.21802
 H194 H 0.54595 -0.01645 0.24534
 H195 H 0.52184 0.05013 0.28278
 H196 H 0.55769 0.05061 0.31500
 H197 H 0.58226 -0.01737 0.27632
 H198 H 0.46844 0.03009 0.19948
 H199 H 0.46646 0.06454 0.16836
 H200 H 0.53722 0.09648 0.20273
 H201 H 0.53763 0.06123 0.23302
 C202 C 0.50036 -0.05438 0.18254
 C203 C 0.43477 0.01663 0.30178
 C204 C 0.50168 0.08355 0.18302
 C205 C 0.57306 0.01661 0.29834
 C206 C 0.52856 -0.03336 0.71458
 H207 H 0.51328 -0.04773 0.71401
 C208 C 0.54860 -0.03433 0.69605
 H209 H 0.54860 -0.04969 0.68141
 C210 C 0.54643 0.00440 0.73404
 H211 H 0.54522 0.01972 0.74852
 C212 C 0.56688 0.00419 0.71581
 H213 H 0.58138 0.01932 0.71672
 N214 N 0.52784 -0.01427 0.73315
 C215 C 0.47750 -0.04453 0.79597
 H216 H 0.46270 -0.03116 0.79663
 C217 C 0.47660 -0.06418 0.81378
 H218 H 0.46090 -0.06583 0.82796
 C219 C 0.51627 -0.05809 0.77711
 H220 H 0.53201 -0.05542 0.76323
 C221 C 0.51611 -0.07799 0.79448
 H222 H 0.53170 -0.09050 0.79341
 Zn223 Zn 0.49838 -0.01400 0.75551
 N224 N 0.49708 -0.04190 0.77803
 C225 C 0.45014 -0.03219 0.73260
 N226 N 0.46990 -0.01473 0.73190
 C227 C 0.47077 0.00315 0.71318
 C228 C 0.45105 0.00435 0.69451
 C229 C 0.42988 -0.03167 0.71424
 C230 C 0.51753 0.01960 0.79648
 C231 C 0.51772 0.04075 0.81368
 C232 C 0.47867 0.05248 0.79268
 C233 C 0.47923 0.03117 0.77595
 N234 N 0.49858 0.01533 0.77791
 H235 H 0.45004 -0.04655 0.74731
 H236 H 0.48688 0.01660 0.71287
 H237 H 0.45221 0.01890 0.67996
 H238 H 0.41424 -0.04562 0.71517
 H239 H 0.53248 0.00651 0.79795
 H240 H 0.53301 0.04380 0.82828
 H241 H 0.46303 0.06474 0.79068
 H242 H 0.46394 0.02722 0.76162
 C243 C 0.49616 -0.08121 0.81324
 C244 C 0.56807 -0.01531 0.69636
 C245 C 0.49808 0.05755 0.81190
 C246 C 0.43015 -0.01314 0.69489
 C247 C 0.22930 0.04139 0.50328
 C248 C 0.24508 0.03696 0.52846
 C249 C 0.26085 0.01758 0.52565
 C250 C 0.25917 0.00417 0.49780
 C251 C 0.24907 0.04445 0.48066
 C252 C 0.26473 0.02498 0.47768
 C253 C 0.21519 0.01625 0.49672
 C254 C 0.23061 -0.00321 0.49387
 H255 H 0.24431 0.04865 0.54658
 H256 H 0.27177 -0.01177 0.49542
 H257 H 0.25031 0.06052 0.46806
 H258 H 0.19456 0.01389 0.49486
 C259 C 0.76882 -0.04543 0.49123
 C260 C 0.75061 -0.04671 0.51548
 C261 C 0.73661 -0.02611 0.51919
 C262 C 0.74220 -0.00605 0.49821
 C263 C 0.75162 -0.04043 0.46735
 C264 C 0.73762 -0.01987 0.47085
 C265 C 0.78508 -0.02131 0.49601
 C266 C 0.77140 -0.00064 0.49972
 H267 H 0.74873 -0.06258 0.52830
 H268 H 0.73094 0.01078 0.50113
 H269 H 0.75030 -0.05255 0.44951
 H270 H 0.80583 -0.02087 0.49680
 C271 C 0.45939 0.27698 0.98930
 C272 C 0.45963 0.25686 0.96675
 C273 C 0.48062 0.24274 0.96706
 C274 C 0.49959 0.25019 0.98999
 C275 C 0.46226 0.26286 1.01533
 C276 C 0.48314 0.24862 1.01569
 C277 C 0.48492 0.29192 0.98631
 C278 C 0.50595 0.27815 0.98670
 H279 H 0.44423 0.25379 0.95227
 H280 H 0.51679 0.23890 0.99027
 H281 H 0.44823 0.26317 1.03139
 H282 H 0.48632 0.31195 0.98452
 C283 C 0.54142 0.72760 0.00857
 C284 C 0.53854 0.74252 -0.01698
 C285 C 0.51679 0.75552 -0.01753
 C286 C 0.49966 0.75208 0.00750
 C287 C 0.53934 0.74683 0.03179
 C288 C 0.51758 0.75979 0.03128
 C289 C 0.51683 0.71117 0.01000
 C290 C 0.49491 0.72369 0.00945
 H291 H 0.55310 0.74379 -0.03248
 H292 H 0.48180 0.76240 0.00710
 H293 H 0.55440 0.75056 0.04653
 H294 H 0.51696 0.69108 0.01102
 C295 C 0.99538 0.44811 0.28170
 C296 C 0.97225 0.44840 0.26288
 C297 C 0.97285 0.46812 0.24638
 C298 C 0.99674 0.48581 0.25015
 C299 C 1.01879 0.44927 0.26296
 C300 C 1.01955 0.46902 0.24645
 C301 C 0.99623 0.47347 0.29666
 C302 C 0.99695 0.49325 0.28025
 H303 H 0.95683 0.43414 0.26271
 H304 H 0.99728 0.50191 0.23672
 H305 H 1.03349 0.43577 0.26287
 H306 H 0.99656 0.47547 0.31842
 C307 C 0.00390 0.55015 0.72148
 C308 C -0.01966 0.54924 0.74001
 C309 C -0.02075 0.52952 0.75656
 C310 C 0.00188 0.51249 0.75309
 C311 C 0.02685 0.54968 0.74052
 C312 C 0.02588 0.53000 0.75710
 C313 C 0.00291 0.52478 0.70657
 C314 C 0.00183 0.50502 0.72299
 H315 H -0.03411 0.56298 0.74008
 H316 H 0.00105 0.49640 0.76654
 H317 H 0.04228 0.56393 0.74098
 H318 H 0.00277 0.52279 0.68481
 N319 N 0.12081 0.16562 0.54233
 C320 C 0.12365 0.15011 0.52059
 N321 N 0.10504 0.14817 0.50159
 N322 N 0.08425 0.16139 0.50414
 C323 C 0.08122 0.17694 0.52589
 N324 N 0.10000 0.17887 0.54487
 C325 C 0.14495 0.13435 0.51854
 C326 C 0.16155 0.11966 0.51626
 C327 C 0.17927 0.10030 0.51289
 N328 N 0.17008 0.07692 0.50642
 N329 N 0.18594 0.05850 0.50330
 C330 C 0.21163 0.06268 0.50650
 N331 N 0.22086 0.08623 0.51294
 N332 N 0.20493 0.10477 0.51608
 N333 N 0.65049 0.60620 0.02844
 C334 C 0.65260 0.62387 0.00961
 N335 N 0.66991 0.62144 -0.01052
 N336 N 0.68468 0.60195 -0.01176
 C337 C 0.68264 0.58412 0.00701
 N338 N 0.66527 0.58671 0.02718
 C339 C 0.63585 0.64425 0.01029
 C340 C 0.62118 0.66086 0.01065
 C341 C 0.60278 0.67982 0.01094
 N342 N 0.59883 0.69302 -0.01134
 N343 N 0.58013 0.70897 -0.01185
 C344 C 0.56473 0.71228 0.00992
 N345 N 0.56895 0.69919 0.03227
 N346 N 0.58765 0.68327 0.03278
 N347 N 0.88146 -0.16733 0.49321
 C348 C 0.87696 -0.15150 0.47330
 N349 N 0.89343 -0.15004 0.45224
 N350 N 0.91380 -0.16400 0.45111
 C351 C 0.91848 -0.17985 0.47106
 N352 N 0.90182 -0.18127 0.49207
 C353 C 0.85585 -0.13548 0.47526
 C354 C 0.83869 -0.12136 0.47718
 C355 C 0.81917 -0.10359 0.47963
 N356 N 0.81789 -0.08549 0.46145
 N357 N 0.80130 -0.06766 0.46479
 C358 C 0.78536 -0.06728 0.48643
 N359 N 0.78654 -0.08561 0.50451
 N360 N 0.80318 -0.10346 0.50116
 N361 N 0.34333 0.39022 1.01840
 C362 C 0.34146 0.37386 0.99708
 N363 N 0.32470 0.37784 0.97707
 N364 N 0.31023 0.39757 0.97841
 C365 C 0.31214 0.41413 0.99969
 N366 N 0.32889 0.40993 1.01972
 C367 C 0.35883 0.35406 0.99465
 C368 C 0.37481 0.33869 0.99272
 C369 C 0.39564 0.32232 0.99058
 N370 N 0.39234 0.29759 0.99508
 N371 N 0.41236 0.28308 0.99424
 C372 C 0.43632 0.29287 0.98902
 N373 N 0.43931 0.31759 0.98431
 N374 N 0.41939 0.33202 0.98509
 N375 N 0.86888 0.13401 0.55046
 C376 C 0.85295 0.13255 0.52890
 N377 N 0.85616 0.14953 0.50949
 N378 N 0.87478 0.16737 0.51152
 C379 C 0.89101 0.16878 0.53294
 N380 N 0.88751 0.15185 0.55249
 C381 C 0.83527 0.11144 0.52499
 C382 C 0.82199 0.09268 0.52110
 C383 C 0.80846 0.06912 0.51590
 N384 N 0.78247 0.06695 0.51470
 N385 N 0.77048 0.04477 0.50952
 C386 C 0.78413 0.02413 0.50532
 N387 N 0.81010 0.02653 0.50655
 N388 N 0.82204 0.04859 0.51171
 N389 N 0.35780 0.62158 -0.01422
 C390 C 0.35995 0.63765 0.00732
 N391 N 0.34398 0.63427 0.02858
 N392 N 0.32639 0.61539 0.02824
 C393 C 0.32428 0.59909 0.00675
 N394 N 0.34026 0.60271 -0.01454
 C395 C 0.38076 0.65617 0.00865
 C396 C 0.39953 0.67020 0.00956
 C397 C 0.42344 0.68463 0.01044
 N398 N 0.42474 0.70962 0.00698
 N399 N 0.44741 0.72231 0.00693
 C400 C 0.46947 0.71038 0.01026
 N401 N 0.46791 0.68542 0.01382
 N402 N 0.44537 0.67280 0.01390
 N403 N 0.14702 -0.15209 0.45524
 C404 C 0.15114 -0.13759 0.47780
 N405 N 0.13466 -0.13995 0.49873
 N406 N 0.11466 -0.15629 0.49721
 C407 C 0.11026 -0.17076 0.47461
 N408 N 0.12702 -0.16850 0.45374
 C409 C 0.17019 -0.11743 0.47825
 C410 C 0.18410 -0.09886 0.47905
 C411 C 0.19753 -0.07496 0.48047
 N412 N 0.18443 -0.05462 0.47525
 N413 N 0.19538 -0.03193 0.47889
 C414 C 0.21985 -0.02866 0.48792
 N415 N 0.23320 -0.04910 0.49278
 N416 N 0.22215 -0.07193 0.48922
 N417 N 0.64503 0.37630 0.96410
 C418 C 0.64300 0.35970 0.98402
 N419 N 0.65862 0.36292 1.00574
 N420 N 0.67574 0.38216 1.00743
 C421 C 0.67769 0.39901 0.98762
 N422 N 0.66211 0.39554 0.96582
 C423 C 0.62226 0.34115 0.98366
 C424 C 0.60332 0.32736 0.98333
 C425 C 0.57901 0.31368 0.98285
 N426 N 0.57651 0.28931 0.98928
 N427 N 0.55332 0.27762 0.99006
 C428 C 0.53198 0.29000 0.98456
 N429 N 0.53477 0.31428 0.97796
 N430 N 0.55780 0.32589 0.97713
 N431 N 0.48081 0.12390 1.12921
 C432 C 0.49960 0.14223 1.12947
 N433 N 0.51912 0.14144 1.14732
 N434 N 0.51979 0.12284 1.16437
 C435 C 0.50099 0.10438 1.16419
 N436 N 0.48149 0.10534 1.14624
 C437 C 0.49871 0.16212 1.11093
 C438 C 0.49729 0.17846 1.09502
 C439 C 0.49476 0.19747 1.07569
 N440 N 0.47531 0.21317 1.07780
 N441 N 0.47194 0.22982 1.05902
 C442 C 0.48788 0.23134 1.03743
 N443 N 0.50746 0.21568 1.03550
 N444 N 0.51083 0.19902 1.05428
 N445 N -0.00809 0.65648 0.58790
 C446 C 0.01059 0.65819 0.60684
 N447 N 0.03005 0.67565 0.60466
 N448 N 0.03079 0.69098 0.58412
 C449 C 0.01213 0.68934 0.56501
 N450 N -0.00734 0.67180 0.56738
 C451 C 0.01011 0.64113 0.62838
 C452 C 0.00955 0.62628 0.64599
 C453 C 0.00871 0.60795 0.66627
 N454 N 0.02753 0.59161 0.66765
 N455 N 0.02611 0.57366 0.68549
 C456 C 0.00582 0.57140 0.70253
 N457 N -0.01293 0.58792 0.70115
 N458 N -0.01152 0.60588 0.68330
 N459 N 0.47816 0.87736 -0.13088
 C460 C 0.49726 0.86118 -0.13173
 N461 N 0.51576 0.86370 -0.15073
 N462 N 0.51523 0.88184 -0.16831
 C463 C 0.49621 0.89819 -0.16756
 N464 N 0.47764 0.89552 -0.14849
 C465 C 0.49849 0.84207 -0.11227
 C466 C 0.50039 0.82611 -0.09597
 C467 C 0.50371 0.80726 -0.07660
 N468 N 0.52405 0.79263 -0.07853
 N469 N 0.52793 0.77588 -0.06000
 C470 C 0.51162 0.77313 -0.03885
 N471 N 0.49116 0.78773 -0.03707
 N472 N 0.48727 0.80451 -0.05561
 N473 N 0.96995 0.33979 0.41404
 C474 C 0.98865 0.33884 0.39517
 N475 N 1.00679 0.32188 0.39720
 N476 N 1.00626 0.30634 0.41756
 C477 C 0.98761 0.30723 0.43668
 N478 N 0.96943 0.32427 0.43438
 C479 C 0.98969 0.35623 0.37393
 C480 C 0.99047 0.37136 0.35658
 C481 C 0.99128 0.38999 0.33660
 N482 N 1.01141 0.39226 0.31944
 N483 N 1.01264 0.41036 0.30174
 C484 C 0.99380 0.42681 0.30063
 N485 N 0.97363 0.42437 0.31780
 N486 N 0.97240 0.40628 0.33548
 N487 N 0.48231 0.88523 0.15118
 C488 C 0.50092 0.88294 0.13234
 N489 N 0.51920 0.90155 0.13012
 N490 N 0.51891 0.92183 0.14623
 C491 C 0.50036 0.92431 0.16525
 N492 N 0.48203 0.90553 0.16730
 C493 C 0.50177 0.86085 0.11536
 C494 C 0.50327 0.84241 0.10105
 C495 C 0.50608 0.82063 0.08398
 N496 N 0.52653 0.80646 0.08703
 N497 N 0.52992 0.78687 0.07054
 C498 C 0.51300 0.78073 0.05038
 N499 N 0.49244 0.79490 0.04748
 N500 N 0.48904 0.81453 0.06398
 N501 N -0.02546 0.34719 0.65496
 C502 C -0.00418 0.36274 0.65610
 N503 N 0.01630 0.35738 0.64062
 N504 N 0.01551 0.33722 0.62433
 C505 C -0.00581 0.32168 0.62283
 N506 N -0.02622 0.32696 0.63867
 C507 C -0.00414 0.38599 0.67104
 C508 C -0.00364 0.40635 0.68192
 C509 C -0.00260 0.43138 0.69282
 N510 N -0.00150 0.45062 0.67590
 N511 N -0.00009 0.47401 0.68557
 C512 C 0.00029 0.47902 0.71252
 N513 N -0.00083 0.45967 0.72947
 N514 N -0.00222 0.43621 0.71978
 N515 N 0.51497 0.10496 0.86562
 C516 C 0.49580 0.12087 0.86349
 N517 N 0.47753 0.11612 0.84444
 N518 N 0.47837 0.09608 0.82804
 C519 C 0.49749 0.08001 0.83006
 N520 N 0.51580 0.08490 0.84919
 C521 C 0.49449 0.14230 0.88140
 C522 C 0.49276 0.16031 0.89632
 C523 C 0.49004 0.18170 0.91400
 N524 N 0.46942 0.19582 0.91183
 N525 N 0.46652 0.21536 0.92854
 C526 C 0.48415 0.22150 0.94803
 N527 N 0.50483 0.20734 0.95007
 N528 N 0.50773 0.18778 0.93336
 N529 N 0.98937 0.65144 0.34769
 C530 C 1.00906 0.63601 0.34584
 N531 N 1.03075 0.64179 0.36009
 N532 N 1.03263 0.66227 0.37589
 C533 C 1.01287 0.67769 0.37811
 N534 N 0.99127 0.67197 0.36349
 C535 C 1.00612 0.61250 0.33147
 C536 C 1.00390 0.59203 0.32091
 C537 C 1.00157 0.56696 0.31017
 N538 N 0.99983 0.54779 0.32717
 N539 N 0.99822 0.52436 0.31760
 C540 C 0.99831 0.51926 0.29067
 N541 N 1.00000 0.53854 0.27365
 N542 N 1.00163 0.56203 0.28323
 N543 N 1.13738 0.51514 0.12157
 C544 C 1.13643 0.49496 0.13724
 N545 N 1.15430 0.47775 0.13384
 N546 N 1.17250 0.48054 0.11522
 C547 C 1.17353 0.50063 0.09924
 N548 N 1.15560 0.51793 0.10295
 C549 C 1.11630 0.49139 0.15660
 C550 C 1.09931 0.48792 0.17270
 C551 C 1.07908 0.48329 0.19171
 N552 N 1.07927 0.46320 0.20745
 N553 N 1.06033 0.45864 0.22487
 C554 C 1.04051 0.47400 0.22713
 N555 N 1.04041 0.49411 0.21131
 N556 N 1.05935 0.49867 0.19387
 N557 N 0.62621 0.00267 0.65725
 C558 C 0.62680 -0.01622 0.63852
 N559 N 0.60833 -0.03484 0.63889
 N560 N 0.58981 -0.03456 0.65734
 C561 C 0.58904 -0.01568 0.67616
 N562 N 0.60766 0.00293 0.67572
 C563 C 0.64661 -0.01662 0.61844
 C564 C 0.66299 -0.01755 0.60133
 C565 C 0.68224 -0.01935 0.58076
 N566 N 0.69612 -0.03992 0.57837
 N567 N 0.71350 -0.04201 0.55888
 C568 C 0.71761 -0.02361 0.54104
 N569 N 0.70369 -0.00299 0.54354
 N570 N 0.68628 -0.00091 0.56304
 N571 N -0.13605 0.52464 0.88974
 C572 C -0.13552 0.50785 0.86886
 N573 N -0.15339 0.48867 0.86755
 N574 N -0.17125 0.48635 0.88662
 C575 C -0.17186 0.50313 0.90766
 N576 N -0.15389 0.52232 0.90878
 C577 C -0.11618 0.51045 0.84852
 C578 C -0.09970 0.51315 0.83174
 C579 C -0.07989 0.51692 0.81210
 N580 N -0.06047 0.50120 0.80998
 N581 N -0.04169 0.50517 0.79220
 C582 C -0.04168 0.52502 0.77600
 N583 N -0.06121 0.54070 0.77819
 N584 N -0.07998 0.53674 0.79596
 N585 N 0.37872 0.03603 0.34147
 C586 C 0.37688 0.01849 0.36044
 N587 N 0.39383 0.00023 0.36009
 N588 N 0.41212 -0.00044 0.34138
 C589 C 0.41412 0.01712 0.32232
 N590 N 0.39701 0.03535 0.32275
 C591 C 0.35738 0.01941 0.38080
 C592 C 0.34104 0.02031 0.39794
 C593 C 0.32160 0.02152 0.41834
 N594 N 0.31780 0.00274 0.43569
 N595 N 0.29973 0.00389 0.45460
 C596 C 0.28485 0.02385 0.45684
 N597 N 0.28875 0.04262 0.43941
 N598 N 0.30681 0.04148 0.42050
 N599 N 0.15524 0.53116 0.87574
 C600 C 0.13600 0.51338 0.87306
 N601 N 0.13476 0.49433 0.89027
 N602 N 0.15223 0.49313 0.90961
 C603 C 0.17156 0.51094 0.91246
 N604 N 0.17270 0.52995 0.89508
 C605 C 0.11691 0.51509 0.85262
 C606 C 0.10091 0.51702 0.83550
 C607 C 0.08198 0.51995 0.81517
 N608 N 0.06140 0.50363 0.81261
 N609 N 0.04360 0.50675 0.79401
 C610 C 0.04576 0.52630 0.77739
 N611 N 0.06644 0.54256 0.78003
 N612 N 0.08423 0.53944 0.79860
 N613 N 0.61426 0.03049 0.35813
 C614 C 0.63060 0.01170 0.35653
 N615 N 0.62840 -0.00513 0.33566
 N616 N 0.61037 -0.00333 0.31703
 C617 C 0.59382 0.01537 0.31853
 N618 N 0.59620 0.03230 0.33945
 C619 C 0.64947 0.00893 0.37706
 C620 C 0.66536 0.00543 0.39392
 C621 C 0.68434 -0.00020 0.41338
 N622 N 0.69944 -0.01959 0.40853
 N623 N 0.71652 -0.02562 0.42674
 C624 C 0.71913 -0.01251 0.45049
 N625 N 0.70402 0.00700 0.45527
 N626 N 0.68689 0.01305 0.43702
 N627 N 0.84356 0.50341 0.13384
 C628 C 0.86060 0.48521 0.13296
 N629 N 0.85956 0.46817 0.11226
 N630 N 0.84206 0.46931 0.09297
 C631 C 0.82493 0.48751 0.09366
 N632 N 0.82603 0.50455 0.11452
 C633 C 0.87956 0.48381 0.15358
 C634 C 0.89571 0.48194 0.17056
 C635 C 0.91505 0.47891 0.19042
 N636 N 0.93567 0.49522 0.19259
 N637 N 0.95403 0.49184 0.21049
 C638 C 0.95242 0.47202 0.22677
 N639 N 0.93170 0.45577 0.22453
 N640 N 0.91335 0.45914 0.20664
 N641 N 0.36922 -0.02667 0.65786
 C642 C 0.37024 -0.00869 0.63932
 N643 N 0.39083 0.00765 0.63894
 N644 N 0.40981 0.00611 0.65654
 C645 C 0.40896 -0.01181 0.67521
 N646 N 0.38826 -0.02821 0.67549
 C647 C 0.34974 -0.00654 0.62045
 C648 C 0.33298 -0.00378 0.60432
 C649 C 0.31354 0.00057 0.58487
 N650 N 0.31248 -0.01247 0.56104
 N651 N 0.29542 -0.00732 0.54237
 C652 C 0.27890 0.01109 0.54684
 N653 N 0.27997 0.02401 0.57080
 N654 N 0.29701 0.01886 0.58947
   
