data_POSCAR
  _audit_creation_date              2014-09-24
  _audit_creation_method            'ToBaCCo'
  _symmetry_space_group_name_H-M    'P1'
  _symmetry_Int_Tables_number       1
  _symmetry_cell_setting            triclinic
  loop_
  _symmetry_equiv_pos_as_xyz
 x,y,z
_cell_length_a 49.2337
_cell_length_b 49.7138
_cell_length_c 49.5687
_cell_angle_alpha 93.125000
_cell_angle_beta 89.400100
_cell_angle_gamma 90.545800
loop_
  _atom_site_label
  _atom_site_type_symbol
  _atom_site_fract_x
  _atom_site_fract_y
  _atom_site_fract_z
C1 C 0.24372 0.25387 0.23500
 C2 C 0.26462 0.25204 0.21557
 C3 C 0.28394 0.23137 0.21578
 C4 C 0.28201 0.21234 0.23574
 C5 C 0.26117 0.21389 0.25531
 C6 C 0.24196 0.23475 0.25495
 C7 C 0.22457 0.27457 0.23478
 C8 C 0.20358 0.27647 0.25424
 C9 C 0.20196 0.25730 0.27407
 C10 C 0.22098 0.23649 0.27455
 C11 C 0.21933 0.21740 0.29433
 C12 C 0.23836 0.19651 0.29486
 C13 C 0.25925 0.19493 0.27523
 H14 H 0.26564 0.26653 0.20002
 H15 H 0.29697 0.19652 0.23627
 H16 H 0.22624 0.28946 0.21965
 H17 H 0.18565 0.25837 0.28894
 H18 H 0.20341 0.21902 0.30959
 H19 H 0.27381 0.17871 0.27524
 C20 C 0.75083 -0.28326 0.22624
 C21 C 0.73114 -0.28378 0.20589
 C22 C 0.71127 -0.26343 0.20519
 C23 C 0.71168 -0.24259 0.22579
 C24 C 0.73113 -0.24194 0.24626
 C25 C 0.75075 -0.26234 0.24652
 C26 C 0.77063 -0.30341 0.22650
 C27 C 0.79044 -0.30327 0.24701
 C28 C 0.78981 -0.28211 0.26727
 C29 C 0.77030 -0.26178 0.26710
 C30 C 0.77017 -0.24078 0.28721
 C31 C 0.75064 -0.22034 0.28712
 C32 C 0.73116 -0.22112 0.26656
 H33 H 0.73225 -0.29957 0.19001
 H34 H 0.69617 -0.22728 0.22685
 H35 H 0.76967 -0.31977 0.21121
 H36 H 0.80522 -0.28052 0.28270
 H37 H 0.78504 -0.24055 0.30320
 H38 H 0.71624 -0.20526 0.26612
 C39 C 0.74053 0.28331 0.76606
 C40 C 0.72083 0.28376 0.78674
 C41 C 0.70128 0.26284 0.78843
 C42 C 0.70221 0.24128 0.76859
 C43 C 0.72171 0.24070 0.74771
 C44 C 0.74088 0.26183 0.74641
 C45 C 0.75993 0.30412 0.76486
 C46 C 0.77982 0.30409 0.74405
 C47 C 0.77954 0.28246 0.72431
 C48 C 0.76042 0.26146 0.72544
 C49 C 0.76073 0.23995 0.70593
 C50 C 0.74175 0.21873 0.70705
 C51 C 0.72224 0.21931 0.72801
 H52 H 0.72169 0.30003 0.80213
 H53 H 0.68708 0.22534 0.76843
 H54 H 0.75861 0.32086 0.77971
 H55 H 0.79498 0.28101 0.70860
 H56 H 0.77556 0.23991 0.68961
 H57 H 0.70770 0.20289 0.72920
 C58 C 0.25618 -0.27053 0.76195
 C59 C 0.27633 -0.27158 0.78167
 C60 C 0.29782 -0.25273 0.78281
 C61 C 0.29897 -0.23267 0.76387
 C62 C 0.27900 -0.23143 0.74398
 C63 C 0.25754 -0.25047 0.74299
 C64 C 0.23474 -0.28930 0.76099
 C65 C 0.21425 -0.28860 0.74124
 C66 C 0.21614 -0.26843 0.72222
 C67 C 0.23745 -0.24944 0.72306
 C68 C 0.23884 -0.22928 0.70432
 C69 C 0.26009 -0.21014 0.70518
 C70 C 0.28012 -0.21142 0.72510
 H71 H 0.27503 -0.28683 0.79645
 H72 H 0.31561 -0.21823 0.76439
 H73 H 0.23488 -0.30511 0.77516
 H74 H 0.20043 -0.26649 0.70735
 H75 H 0.22354 -0.22870 0.68879
 H76 H 0.29640 -0.19657 0.72615
 C77 C 0.75711 -0.24750 0.77126
 C78 C 0.73786 -0.24538 0.79232
 C79 C 0.71797 -0.22523 0.79293
 C80 C 0.71765 -0.20696 0.77229
 C81 C 0.73670 -0.20887 0.75109
 C82 C 0.75646 -0.22928 0.75051
 C83 C 0.77674 -0.26781 0.77052
 C84 C 0.79593 -0.27053 0.74911
 C85 C 0.79492 -0.25195 0.72851
 C86 C 0.77546 -0.23151 0.72910
 C87 C 0.77472 -0.21328 0.70850
 C88 C 0.75512 -0.19287 0.70894
 C89 C 0.73617 -0.19082 0.73035
 H90 H 0.73842 -0.25934 0.80836
 H91 H 0.70217 -0.19159 0.77241
 H92 H 0.77600 -0.28220 0.78613
 H93 H 0.80989 -0.25251 0.71235
 H94 H 0.78914 -0.21523 0.69185
 H95 H 0.72118 -0.17496 0.73101
 C96 C 0.23617 0.27497 0.78674
 C97 C 0.25768 0.27578 0.80506
 C98 C 0.27813 0.25621 0.80311
 C99 C 0.27676 0.23556 0.78260
 C100 C 0.25536 0.23451 0.76408
 C101 C 0.23499 0.25431 0.76612
 C102 C 0.21588 0.29459 0.78867
 C103 C 0.19436 0.29393 0.77022
 C104 C 0.19332 0.27328 0.74968
 C105 C 0.21346 0.25348 0.74753
 C106 C 0.21247 0.23292 0.72703
 C107 C 0.23268 0.21307 0.72484
 C108 C 0.25405 0.21403 0.74352
 H109 H 0.25836 0.29153 0.82106
 H110 H 0.29261 0.22056 0.78077
 H111 H 0.21707 0.31067 0.80430
 H112 H 0.17663 0.27245 0.73555
 H113 H 0.19614 0.23258 0.71252
 H114 H 0.26950 0.19862 0.74225
 C115 C 0.25019 -0.27879 0.23036
 C116 C 0.26943 -0.27890 0.20926
 C117 C 0.29028 -0.25915 0.20871
 C118 C 0.29122 -0.23921 0.23015
 C119 C 0.27222 -0.23902 0.25142
 C120 C 0.25163 -0.25887 0.25155
 C121 C 0.22956 -0.29843 0.23048
 C122 C 0.21006 -0.29877 0.25164
 C123 C 0.21201 -0.27863 0.27287
 C124 C 0.23251 -0.25882 0.27291
 C125 C 0.23411 -0.23885 0.29400
 C126 C 0.25470 -0.21903 0.29408
 C127 C 0.27365 -0.21929 0.27268
 H128 H 0.26724 -0.29388 0.19273
 H129 H 0.30746 -0.22436 0.23120
 H130 H 0.22967 -0.31414 0.21448
 H131 H 0.19699 -0.27745 0.28898
 H132 H 0.21959 -0.23894 0.31058
 H133 H 0.28934 -0.20385 0.27239
 C134 C 0.75008 0.25809 0.22855
 C135 C 0.73046 0.25621 0.20818
 C136 C 0.71030 0.23596 0.20797
 C137 C 0.70998 0.21746 0.22844
 C138 C 0.72941 0.21911 0.24893
 C139 C 0.74950 0.23955 0.24905
 C140 C 0.77018 0.27829 0.22873
 C141 C 0.78994 0.28056 0.24928
 C142 C 0.78889 0.26179 0.26972
 C143 C 0.76899 0.24141 0.26966
 C144 C 0.76847 0.22271 0.28986
 C145 C 0.74864 0.20215 0.28978
 C146 C 0.72911 0.20058 0.26927
 H147 H 0.73108 0.27031 0.19225
 H148 H 0.69432 0.20199 0.22863
 H149 H 0.76949 0.29286 0.21331
 H150 H 0.80424 0.26204 0.28521
 H151 H 0.78336 0.22430 0.30584
 H152 H 0.71394 0.18462 0.26886
 O153 O 0.27089 0.02332 0.48066
 O154 O 0.26696 -0.02695 0.53236
 O155 O 0.26635 -0.02898 0.47987
 O156 O 0.27055 0.02544 0.53330
 O157 O 0.22588 0.02827 0.53386
 O158 O 0.22169 -0.02589 0.48051
 O159 O 0.22229 -0.02406 0.53303
 O160 O 0.22623 0.02635 0.48110
 Cu161 Cu 0.27316 -0.00206 0.50649
 Cu162 Cu 0.21955 0.00152 0.50719
 C163 C 0.24928 0.03340 0.47194
 C164 C 0.24400 -0.03422 0.54150
 C165 C 0.24326 -0.03679 0.47109
 C166 C 0.24887 0.03613 0.54278
 O167 O 0.75276 0.02805 0.52211
 O168 O 0.75403 -0.02673 0.46922
 O169 O 0.75434 -0.02420 0.52179
 O170 O 0.75343 0.02572 0.46952
 O171 O 0.79822 0.02687 0.46926
 O172 O 0.79913 -0.02283 0.52141
 O173 O 0.79882 -0.02553 0.46882
 O174 O 0.79755 0.02941 0.52189
 Cu175 Cu 0.74915 0.00058 0.49565
 Cu176 Cu 0.80292 0.00212 0.49529
 C177 C 0.77490 0.03808 0.53115
 C178 C 0.77659 -0.03558 0.45998
 C179 C 0.77693 -0.03199 0.53061
 C180 C 0.77573 0.03487 0.46047
 O181 O 0.46961 0.26821 0.03095
 O182 O 0.52112 0.26555 -0.02346
 O183 O 0.46830 0.26468 -0.02164
 O184 O 0.52239 0.26914 0.02906
 O185 O 0.52290 0.22481 0.02952
 O186 O 0.46854 0.22036 -0.02102
 O187 O 0.52142 0.22122 -0.02310
 O188 O 0.46995 0.22389 0.03156
 Cu189 Cu 0.49530 0.27132 0.00366
 Cu190 Cu 0.49575 0.21812 0.00430
 C191 C 0.46095 0.24654 0.04061
 C192 C 0.53009 0.24295 -0.03264
 C193 C 0.45913 0.24179 -0.03003
 C194 C 0.53194 0.24774 0.03797
 O195 O 0.52642 0.73976 0.02491
 O196 O 0.47457 0.74144 -0.02835
 O197 O 0.52728 0.73873 -0.02758
 O198 O 0.47346 0.74130 0.02427
 O199 O 0.47558 0.78570 0.02652
 O200 O 0.52960 0.78311 -0.02563
 O201 O 0.47681 0.78582 -0.02603
 O202 O 0.52834 0.78416 0.02684
 Cu203 Cu 0.50017 0.73586 -0.00187
 Cu204 Cu 0.50277 0.78914 0.00063
 C205 C 0.53632 0.76178 0.03491
 C206 C 0.46689 0.76400 -0.03634
 C207 C 0.53772 0.76041 -0.03548
 C208 C 0.46530 0.76386 0.03435
 O209 O 0.02672 0.46411 0.24613
 O210 O -0.02594 0.51616 0.24510
 O211 O -0.02611 0.46387 0.24547
 O212 O 0.02694 0.51656 0.24586
 O213 O 0.02801 0.51382 0.20131
 O214 O -0.02521 0.46127 0.20091
 O215 O -0.02493 0.51350 0.20055
 O216 O 0.02762 0.46133 0.20158
 Cu217 Cu 0.00034 0.49046 0.25010
 Cu218 Cu 0.00153 0.48723 0.19663
 C219 C 0.03609 0.45368 0.22403
 C220 C -0.03455 0.52368 0.22266
 C221 C -0.03481 0.45359 0.22313
 C222 C 0.03654 0.52426 0.22365
 O223 O 0.02128 0.53649 0.74177
 O224 O -0.03463 0.48648 0.74220
 O225 O -0.03148 0.53889 0.74364
 O226 O 0.01812 0.48409 0.73927
 O227 O 0.01947 0.48445 0.78374
 O228 O -0.03005 0.53978 0.78813
 O229 O -0.03323 0.48749 0.78670
 O230 O 0.02273 0.53683 0.78624
 Cu231 Cu -0.00683 0.51142 0.73726
 Cu232 Cu -0.00511 0.51221 0.79066
 C233 C 0.03159 0.54519 0.76402
 C234 C -0.04352 0.47846 0.76459
 C235 C -0.03927 0.54877 0.76656
 C236 C 0.02728 0.47482 0.76070
 C237 C 0.33415 0.20323 0.16309
 C238 C 0.34755 0.22669 0.15451
 C239 C 0.33952 0.25181 0.16687
 C240 C 0.31916 0.25311 0.18695
 C241 C 0.30603 0.22970 0.19506
 C242 C 0.31381 0.20481 0.18297
 C243 C 0.35171 0.27561 0.15911
 C244 C 0.37149 0.27527 0.13897
 C245 C 0.38014 0.25091 0.12575
 C246 C 0.36837 0.22616 0.13402
 C247 C 0.37788 0.20174 0.12161
 C248 C 0.39781 0.20141 0.10158
 C249 C 0.40898 0.22532 0.09283
 C250 C 0.40028 0.25045 0.10463
 C251 C 0.41200 0.27408 0.09453
 C252 C 0.43155 0.27266 0.07391
 C253 C 0.44022 0.24777 0.06255
 C254 C 0.42881 0.22415 0.07218
 H255 H 0.33853 0.18333 0.15463
 H256 H 0.31361 0.27248 0.19642
 H257 H 0.30373 0.18642 0.18851
 H258 H 0.34576 0.29484 0.16862
 H259 H 0.37979 0.29463 0.13443
 H260 H 0.37051 0.18230 0.12707
 H261 H 0.40445 0.18213 0.09271
 H262 H 0.40639 0.29406 0.10184
 H263 H 0.43990 0.29128 0.06684
 H264 H 0.43522 0.20473 0.06347
 C265 C 0.66280 0.71143 0.15131
 C266 C 0.65052 0.73544 0.14362
 C267 C 0.65955 0.75994 0.15657
 C268 C 0.67957 0.76016 0.17655
 C269 C 0.69141 0.73616 0.18446
 C270 C 0.68277 0.71185 0.17118
 C271 C 0.64866 0.78433 0.14956
 C272 C 0.62881 0.78509 0.13000
 C273 C 0.61884 0.76130 0.11654
 C274 C 0.62973 0.73602 0.12358
 C275 C 0.61936 0.71221 0.11046
 C276 C 0.59922 0.71297 0.09112
 C277 C 0.58859 0.73741 0.08386
 C278 C 0.59825 0.76196 0.09636
 C279 C 0.58689 0.78618 0.08799
 C280 C 0.56691 0.78589 0.06825
 C281 C 0.55737 0.76159 0.05606
 C282 C 0.56832 0.73737 0.06405
 H283 H 0.65741 0.69186 0.14253
 H284 H 0.68655 0.77947 0.18510
 H285 H 0.69043 0.69264 0.17679
 H286 H 0.65553 0.80317 0.15937
 H287 H 0.62161 0.80485 0.12609
 H288 H 0.62625 0.69243 0.11478
 H289 H 0.59190 0.69413 0.08167
 H290 H 0.59299 0.80581 0.09608
 H291 H 0.55889 0.80496 0.06251
 H292 H 0.56120 0.71841 0.05471
 C293 C 0.65277 0.28908 -0.15776
 C294 C 0.64099 0.26526 -0.14831
 C295 C 0.64992 0.24042 -0.16048
 C296 C 0.66960 0.23972 -0.18127
 C297 C 0.68126 0.26356 -0.19058
 C298 C 0.67240 0.28819 -0.17830
 C299 C 0.63934 0.21624 -0.15176
 C300 C 0.62004 0.21602 -0.13116
 C301 C 0.61033 0.24017 -0.11834
 C302 C 0.62081 0.26523 -0.12723
 C303 C 0.61070 0.28940 -0.11479
 C304 C 0.59124 0.28922 -0.09438
 C305 C 0.58105 0.26506 -0.08530
 C306 C 0.59043 0.24013 -0.09700
 C307 C 0.57947 0.21625 -0.08668
 C308 C 0.56005 0.21725 -0.06590
 C309 C 0.55078 0.24197 -0.05462
 C310 C 0.56145 0.26580 -0.06448
 H311 H 0.64731 0.30890 -0.14985
 H312 H 0.67655 0.22025 -0.18925
 H313 H 0.67968 0.30727 -0.18517
 H314 H 0.64608 0.19714 -0.16097
 H315 H 0.61303 0.19641 -0.12588
 H316 H 0.61728 0.30903 -0.12044
 H317 H 0.58411 0.30833 -0.08552
 H318 H 0.58547 0.19641 -0.09405
 H319 H 0.55224 0.19849 -0.05867
 H320 H 0.55454 0.28509 -0.05588
 C321 C 0.34873 0.71987 -0.16897
 C322 C 0.35843 0.74345 -0.15470
 C323 C 0.34799 0.76850 -0.16202
 C324 C 0.32847 0.76961 -0.18240
 C325 C 0.31890 0.74604 -0.19604
 C326 C 0.32934 0.72124 -0.18919
 C327 C 0.35692 0.79240 -0.14891
 C328 C 0.37612 0.79219 -0.12865
 C329 C 0.38719 0.76787 -0.12043
 C330 C 0.37804 0.74306 -0.13352
 C331 C 0.38865 0.71870 -0.12486
 C332 C 0.40758 0.71849 -0.10433
 C333 C 0.41692 0.74243 -0.09159
 C334 C 0.40700 0.76751 -0.09945
 C335 C 0.41747 0.79118 -0.08596
 C336 C 0.43672 0.78986 -0.06563
 C337 C 0.44630 0.76502 -0.05787
 C338 C 0.43624 0.74136 -0.07098
 H339 H 0.35573 0.69999 -0.16519
 H340 H 0.32033 0.78891 -0.18733
 H341 H 0.32266 0.70273 -0.19973
 H342 H 0.34898 0.81160 -0.15441
 H343 H 0.38167 0.81163 -0.11967
 H344 H 0.38260 0.69923 -0.13341
 H345 H 0.41506 0.69926 -0.09839
 H346 H 0.41143 0.81112 -0.09064
 H347 H 0.44413 0.80852 -0.05593
 H348 H 0.44356 0.72199 -0.06526
 C349 C 0.15576 0.33260 0.27777
 C350 C 0.14472 0.34076 0.25324
 C351 C 0.15378 0.32721 0.22892
 C352 C 0.17278 0.30633 0.22941
 C353 C 0.18338 0.29849 0.25387
 C354 C 0.17469 0.31187 0.27797
 C355 C 0.14386 0.33447 0.20416
 C356 C 0.12515 0.35502 0.20278
 C357 C 0.11537 0.36922 0.22631
 C358 C 0.12514 0.36182 0.25199
 C359 C 0.11486 0.37558 0.27555
 C360 C 0.09583 0.39585 0.27420
 C361 C 0.08628 0.40345 0.24940
 C362 C 0.09596 0.39044 0.22505
 C363 C 0.08574 0.39932 0.20046
 C364 C 0.06657 0.41983 0.20025
 C365 C 0.05687 0.43232 0.22441
 C366 C 0.06696 0.42404 0.24893
 H367 H 0.15045 0.34187 0.29720
 H368 H 0.17910 0.29592 0.21063
 H369 H 0.18288 0.30655 0.29714
 H370 H 0.15069 0.32414 0.18551
 H371 H 0.11861 0.35912 0.18279
 H372 H 0.12093 0.37106 0.29559
 H373 H 0.08849 0.40572 0.29288
 H374 H 0.09209 0.39097 0.18094
 H375 H 0.05925 0.42584 0.18096
 H376 H 0.05972 0.43360 0.26780
 C377 C 0.15770 0.66597 0.71578
 C378 C 0.14884 0.65365 0.73944
 C379 C 0.16212 0.66146 0.76387
 C380 C 0.18348 0.68039 0.76430
 C381 C 0.19241 0.69239 0.74063
 C382 C 0.17889 0.68488 0.71643
 C383 C 0.15402 0.65045 0.78795
 C384 C 0.13298 0.63176 0.78848
 C385 C 0.11908 0.62309 0.76475
 C386 C 0.12729 0.63404 0.73974
 C387 C 0.11379 0.62488 0.71592
 C388 C 0.09296 0.60589 0.71641
 C389 C 0.08453 0.59527 0.74059
 C390 C 0.09733 0.60374 0.76516
 C391 C 0.08767 0.59249 0.78913
 C392 C 0.06649 0.57364 0.78858
 C393 C 0.05409 0.56522 0.76423
 C394 C 0.06327 0.57617 0.74027
 H395 H 0.14881 0.66145 0.69629
 H396 H 0.19227 0.68650 0.78364
 H397 H 0.18528 0.69265 0.69739
 H398 H 0.16410 0.65636 0.80673
 H399 H 0.12830 0.62434 0.80799
 H400 H 0.11893 0.63186 0.69632
 H401 H 0.08328 0.59947 0.69756
 H402 H 0.09583 0.59783 0.80877
 H403 H 0.05982 0.56562 0.80744
 H404 H 0.05377 0.56991 0.72128
 C405 C -0.15780 0.64946 0.27204
 C406 C -0.14847 0.63582 0.24798
 C407 C -0.16022 0.64288 0.22342
 C408 C -0.18048 0.66262 0.22321
 C409 C -0.18950 0.67630 0.24727
 C410 C -0.17773 0.66919 0.27163
 C411 C -0.15156 0.63041 0.19900
 C412 C -0.13132 0.61115 0.19827
 C413 C -0.11884 0.60336 0.22212
 C414 C -0.12782 0.61564 0.24744
 C415 C -0.11591 0.60728 0.27137
 C416 C -0.09583 0.58788 0.27069
 C417 C -0.08656 0.57605 0.24623
 C418 C -0.09776 0.58362 0.22154
 C419 C -0.08720 0.57112 0.19731
 C420 C -0.06674 0.55189 0.19778
 C421 C -0.05602 0.54434 0.22228
 C422 C -0.06606 0.55660 0.24644
 H423 H -0.15018 0.64550 0.29169
 H424 H -0.18813 0.66810 0.20388
 H425 H -0.18453 0.67807 0.29091
 H426 H -0.16050 0.63568 0.18012
 H427 H -0.12606 0.60261 0.17852
 H428 H -0.12174 0.61521 0.29119
 H429 H -0.08737 0.58212 0.28962
 H430 H -0.09411 0.57578 0.17759
 H431 H -0.05935 0.54283 0.17877
 H432 H -0.05787 0.55105 0.26556
 C433 C -0.16843 0.35209 0.71753
 C434 C -0.15946 0.36639 0.74128
 C435 C -0.17148 0.35952 0.76609
 C436 C -0.19163 0.33936 0.76683
 C437 C -0.20030 0.32502 0.74311
 C438 C -0.18828 0.33191 0.71849
 C439 C -0.16316 0.37257 0.79024
 C440 C -0.14287 0.39212 0.79049
 C441 C -0.13001 0.39963 0.76640
 C442 C -0.13883 0.38696 0.74131
 C443 C -0.12676 0.39531 0.71713
 C444 C -0.10649 0.41491 0.71738
 C445 C -0.09717 0.42691 0.74165
 C446 C -0.10866 0.41944 0.76655
 C447 C -0.09802 0.43198 0.79057
 C448 C -0.07708 0.45103 0.78975
 C449 C -0.06595 0.45841 0.76509
 C450 C -0.07620 0.44628 0.74108
 H451 H -0.16051 0.35582 0.69775
 H452 H -0.19942 0.33405 0.78636
 H453 H -0.19476 0.32246 0.69943
 H454 H -0.17237 0.36750 0.80929
 H455 H -0.13791 0.40111 0.81007
 H456 H -0.13263 0.38722 0.69745
 H457 H -0.09787 0.42061 0.69828
 H458 H -0.10509 0.42737 0.81042
 H459 H -0.06956 0.45999 0.80867
 H460 H -0.06768 0.45171 0.72184
 C461 C 0.20908 0.14739 0.34370
 C462 C 0.23245 0.13844 0.35694
 C463 C 0.25800 0.14881 0.34877
 C464 C 0.25978 0.16759 0.32862
 C465 C 0.23641 0.17640 0.31597
 C466 C 0.21113 0.16601 0.32366
 C467 C 0.28173 0.14050 0.36077
 C468 C 0.28086 0.12192 0.38066
 C469 C 0.25602 0.11091 0.38963
 C470 C 0.23136 0.11958 0.37783
 C471 C 0.20646 0.10930 0.38748
 C472 C 0.20558 0.09101 0.40766
 C473 C 0.22937 0.08200 0.41901
 C474 C 0.25498 0.09165 0.41014
 C475 C 0.27846 0.08143 0.42215
 C476 C 0.27646 0.06270 0.44208
 C477 C 0.25110 0.05344 0.45088
 C478 C 0.22761 0.06325 0.43922
 H479 H 0.18888 0.14030 0.34810
 H480 H 0.27946 0.17569 0.32305
 H481 H 0.19277 0.17205 0.31387
 H482 H 0.30131 0.14842 0.35466
 H483 H 0.30021 0.11682 0.38879
 H484 H 0.18706 0.11516 0.38004
 H485 H 0.18594 0.08377 0.41441
 H486 H 0.29877 0.08722 0.41652
 H487 H 0.29500 0.05545 0.45063
 H488 H 0.20784 0.05615 0.44573
 C489 C 0.71875 0.16466 0.65508
 C490 C 0.74362 0.15349 0.64538
 C491 C 0.76794 0.16423 0.65687
 C492 C 0.76713 0.18514 0.67708
 C493 C 0.74235 0.19606 0.68624
 C494 C 0.71823 0.18553 0.67511
 C495 C 0.79302 0.15419 0.64812
 C496 C 0.79474 0.13383 0.62792
 C497 C 0.77125 0.12248 0.61558
 C498 C 0.74524 0.13225 0.62467
 C499 C 0.72173 0.12044 0.61279
 C500 C 0.72344 0.10003 0.59264
 C501 C 0.74856 0.09055 0.58331
 C502 C 0.77288 0.10160 0.59451
 C503 C 0.79780 0.09128 0.58396
 C504 C 0.79835 0.07085 0.56348
 C505 C 0.77423 0.05994 0.55270
 C506 C 0.74939 0.06997 0.56276
 H507 H 0.69927 0.15803 0.64749
 H508 H 0.78593 0.19286 0.68583
 H509 H 0.69881 0.19382 0.68155
 H510 H 0.81166 0.16227 0.65692
 H511 H 0.81497 0.12737 0.62254
 H512 H 0.70147 0.12639 0.61869
 H513 H 0.70479 0.09161 0.58418
 H514 H 0.81730 0.09854 0.59092
 H515 H 0.81786 0.06356 0.55608
 H516 H 0.73054 0.06177 0.55456
 C517 C 0.28764 -0.16177 0.65475
 C518 C 0.26405 -0.14810 0.64701
 C519 C 0.23896 -0.15558 0.65890
 C520 C 0.23783 -0.17564 0.67781
 C521 C 0.26140 -0.18885 0.68525
 C522 C 0.28623 -0.18171 0.67350
 C523 C 0.21504 -0.14303 0.65193
 C524 C 0.21526 -0.12329 0.63318
 C525 C 0.23961 -0.11506 0.62062
 C526 C 0.26447 -0.12746 0.62789
 C527 C 0.28892 -0.11873 0.61588
 C528 C 0.28917 -0.09889 0.59726
 C529 C 0.26516 -0.08694 0.58965
 C530 C 0.23998 -0.09479 0.60111
 C531 C 0.21625 -0.08203 0.59234
 C532 C 0.21763 -0.06245 0.57318
 C533 C 0.24261 -0.05478 0.56206
 C534 C 0.26629 -0.06714 0.57050
 H535 H 0.30752 -0.15781 0.64658
 H536 H 0.21852 -0.18077 0.68700
 H537 H 0.30471 -0.19190 0.67853
 H538 H 0.19581 -0.14862 0.66102
 H539 H 0.19582 -0.11474 0.62912
 H540 H 0.30846 -0.12671 0.62053
 H541 H 0.30848 -0.09290 0.58862
 H542 H 0.19621 -0.08678 0.59966
 H543 H 0.19897 -0.05331 0.56702
 H544 H 0.28578 -0.06148 0.56200
 C545 C 0.72585 -0.16810 0.34008
 C546 C 0.75026 -0.15539 0.34912
 C547 C 0.77496 -0.16490 0.33730
 C548 C 0.77495 -0.18599 0.31723
 C549 C 0.75058 -0.19816 0.30846
 C550 C 0.72611 -0.18903 0.32014
 C551 C 0.79962 -0.15333 0.34547
 C552 C 0.80051 -0.13249 0.36524
 C553 C 0.77658 -0.12216 0.37770
 C554 C 0.75100 -0.13370 0.36939
 C555 C 0.72704 -0.12309 0.38153
 C556 C 0.72790 -0.10212 0.40113
 C557 C 0.75257 -0.09081 0.40960
 C558 C 0.77733 -0.10061 0.39814
 C559 C 0.80176 -0.08837 0.40776
 C560 C 0.80144 -0.06739 0.42769
 C561 C 0.77688 -0.05780 0.43879
 C562 C 0.75252 -0.06967 0.42958
 H563 H 0.70614 -0.16255 0.34801
 H564 H 0.79400 -0.19269 0.30812
 H565 H 0.70701 -0.19837 0.31406
 H566 H 0.81856 -0.16051 0.33647
 H567 H 0.82046 -0.12483 0.37017
 H568 H 0.70706 -0.13044 0.37628
 H569 H 0.70892 -0.09466 0.40981
 H570 H 0.82153 -0.09450 0.40046
 H571 H 0.82060 -0.05866 0.43443
 H572 H 0.73334 -0.06250 0.43803
 C573 C 0.66929 0.80294 -0.15314
 C574 C 0.65602 0.77949 -0.14437
 C575 C 0.66420 0.75431 -0.15650
 C576 C 0.68448 0.75295 -0.17663
 C577 C 0.69712 0.77637 -0.18522
 C578 C 0.68940 0.80131 -0.17322
 C579 C 0.65202 0.73054 -0.14868
 C580 C 0.63174 0.73100 -0.12907
 C581 C 0.62262 0.75545 -0.11639
 C582 C 0.63495 0.78012 -0.12417
 C583 C 0.62569 0.80458 -0.11161
 C584 C 0.60516 0.80504 -0.09221
 C585 C 0.59297 0.78125 -0.08441
 C586 C 0.60150 0.75607 -0.09626
 C587 C 0.58844 0.73257 -0.08741
 C588 C 0.56789 0.73415 -0.06782
 C589 C 0.55953 0.75908 -0.05630
 C590 C 0.57221 0.78257 -0.06472
 H591 H 0.66471 0.82291 -0.14500
 H592 H 0.69006 0.73356 -0.18605
 H593 H 0.69913 0.81970 -0.17924
 H594 H 0.65823 0.71125 -0.15789
 H595 H 0.62354 0.71163 -0.12444
 H596 H 0.63382 0.82394 -0.11636
 H597 H 0.59873 0.82433 -0.08321
 H598 H 0.59351 0.71257 -0.09508
 H599 H 0.55850 0.71562 -0.06171
 H600 H 0.56597 0.80201 -0.05591
 C601 C 0.33435 0.28368 -0.15131
 C602 C 0.34387 0.26033 -0.13937
 C603 C 0.33150 0.23532 -0.14743
 C604 C 0.31029 0.23408 -0.16622
 C605 C 0.30092 0.25747 -0.17747
 C606 C 0.31328 0.28218 -0.16994
 C607 C 0.34019 0.21164 -0.13662
 C608 C 0.36095 0.21204 -0.11789
 C609 C 0.37390 0.23635 -0.10898
 C610 C 0.36511 0.26093 -0.11980
 C611 C 0.37768 0.28531 -0.11050
 C612 C 0.39810 0.28578 -0.09143
 C613 C 0.40700 0.26208 -0.08083
 C614 C 0.39521 0.23696 -0.08946
 C615 C 0.40534 0.21355 -0.07809
 C616 C 0.42600 0.21519 -0.05897
 C617 C 0.43733 0.24011 -0.05042
 C618 C 0.42770 0.26347 -0.06153
 H619 H 0.34272 0.30348 -0.14687
 H620 H 0.30071 0.21486 -0.17175
 H621 H 0.30678 0.30050 -0.17872
 H622 H 0.33080 0.19247 -0.14272
 H623 H 0.36620 0.19278 -0.11063
 H624 H 0.37211 0.30463 -0.11739
 H625 H 0.40704 0.30503 -0.08488
 H626 H 0.39790 0.19358 -0.08352
 H627 H 0.43307 0.19677 -0.05079
 H628 H 0.43637 0.28290 -0.05519
 C629 C 0.33653 0.71593 0.15242
 C630 C 0.34991 0.73976 0.14498
 C631 C 0.34246 0.76419 0.15901
 C632 C 0.32285 0.76445 0.17982
 C633 C 0.30984 0.74057 0.18734
 C634 C 0.31699 0.71639 0.17303
 C635 C 0.35455 0.78841 0.15225
 C636 C 0.37408 0.78904 0.13192
 C637 C 0.38252 0.76528 0.11744
 C638 C 0.37033 0.74019 0.12417
 C639 C 0.37912 0.71636 0.11004
 C640 C 0.39905 0.71689 0.09011
 C641 C 0.41102 0.74110 0.08324
 C642 C 0.40290 0.76572 0.09659
 C643 C 0.41562 0.78970 0.08842
 C644 C 0.43564 0.78905 0.06823
 C645 C 0.44374 0.76460 0.05543
 C646 C 0.43121 0.74071 0.06303
 H647 H 0.34069 0.69642 0.14289
 H648 H 0.31709 0.78370 0.18933
 H649 H 0.30849 0.69724 0.17838
 H650 H 0.34889 0.80720 0.16288
 H651 H 0.38233 0.80864 0.12824
 H652 H 0.37119 0.69671 0.11400
 H653 H 0.40520 0.69802 0.07995
 H654 H 0.41063 0.80937 0.09712
 H655 H 0.44491 0.80785 0.06272
 H656 H 0.43718 0.72163 0.05319
 C657 C 0.66157 0.20725 0.15491
 C658 C 0.64866 0.23055 0.14614
 C659 C 0.65712 0.25586 0.15792
 C660 C 0.67721 0.25748 0.17786
 C661 C 0.68946 0.23418 0.18650
 C662 C 0.68153 0.20914 0.17472
 C663 C 0.64543 0.27950 0.14990
 C664 C 0.62544 0.27878 0.13036
 C665 C 0.61609 0.25417 0.11803
 C666 C 0.62774 0.22963 0.12621
 C667 C 0.61791 0.20499 0.11438
 C668 C 0.59754 0.20423 0.09522
 C669 C 0.58617 0.22790 0.08687
 C670 C 0.59531 0.25325 0.09796
 C671 C 0.58319 0.27661 0.08838
 C672 C 0.56282 0.27470 0.06899
 C673 C 0.55372 0.24957 0.05838
 C674 C 0.56559 0.22624 0.06743
 H675 H 0.65691 0.18722 0.14686
 H676 H 0.68301 0.27696 0.18703
 H677 H 0.69102 0.19084 0.18068
 H678 H 0.65181 0.29889 0.15886
 H679 H 0.61756 0.29804 0.12559
 H680 H 0.62533 0.18569 0.11963
 H681 H 0.59061 0.18480 0.08683
 H682 H 0.58897 0.29673 0.09529
 H683 H 0.55410 0.29311 0.06233
 H684 H 0.55884 0.20665 0.05929
 C685 C -0.15475 0.67743 0.72223
 C686 C -0.14545 0.66607 0.74596
 C687 C -0.15608 0.67659 0.77097
 C688 C -0.17528 0.69737 0.77191
 C689 C -0.18451 0.70853 0.74816
 C690 C -0.17373 0.69812 0.72336
 C691 C -0.14746 0.66643 0.79507
 C692 C -0.12853 0.64593 0.79503
 C693 C -0.11735 0.63457 0.77069
 C694 C -0.12603 0.64476 0.74572
 C695 C -0.11507 0.63324 0.72135
 C696 C -0.09635 0.61259 0.72125
 C697 C -0.08763 0.60252 0.74533
 C698 C -0.09785 0.61332 0.77045
 C699 C -0.08801 0.60230 0.79423
 C700 C -0.06907 0.58151 0.79292
 C701 C -0.05924 0.57091 0.76799
 C702 C -0.06866 0.58160 0.74428
 H703 H -0.14798 0.67076 0.70228
 H704 H -0.18207 0.70548 0.79152
 H705 H -0.18071 0.70499 0.70432
 H706 H -0.15548 0.67442 0.81430
 H707 H -0.12318 0.63937 0.81459
 H708 H -0.12057 0.63962 0.70177
 H709 H -0.08859 0.60439 0.70200
 H710 H -0.09442 0.60923 0.81421
 H711 H -0.06213 0.57367 0.81159
 H712 H -0.06117 0.57365 0.72482
 C713 C -0.15773 0.33114 0.27385
 C714 C -0.14842 0.34214 0.24967
 C715 C -0.16020 0.33200 0.22520
 C716 C -0.18052 0.31195 0.22519
 C717 C -0.18967 0.30106 0.24937
 C718 C -0.17778 0.31111 0.27364
 C719 C -0.15157 0.34172 0.20067
 C720 C -0.13136 0.36129 0.19974
 C721 C -0.11889 0.37216 0.22349
 C722 C -0.12779 0.36265 0.24893
 C723 C -0.11584 0.37404 0.27274
 C724 C -0.09582 0.39379 0.27186
 C725 C -0.08667 0.40298 0.24729
 C726 C -0.09791 0.39230 0.22270
 C727 C -0.08750 0.40223 0.19836
 C728 C -0.06711 0.42195 0.19861
 C729 C -0.05632 0.43254 0.22301
 C730 C -0.06624 0.42289 0.24728
 H731 H -0.15003 0.33751 0.29344
 H732 H -0.18818 0.30407 0.20592
 H733 H -0.18459 0.30440 0.29299
 H734 H -0.16052 0.33407 0.18185
 H735 H -0.12613 0.36759 0.17991
 H736 H -0.12160 0.36829 0.29263
 H737 H -0.08733 0.40193 0.29071
 H738 H -0.09447 0.39516 0.17870
 H739 H -0.05980 0.42895 0.17951
 H740 H -0.05799 0.43083 0.26632
 C741 C 0.14324 0.34428 0.79968
 C742 C 0.13365 0.35655 0.77650
 C743 C 0.14418 0.34710 0.75100
 C744 C 0.16369 0.32664 0.74910
 C745 C 0.17318 0.31504 0.77229
 C746 C 0.16264 0.32396 0.79751
 C747 C 0.13537 0.35819 0.72746
 C748 C 0.11630 0.37857 0.72847
 C749 C 0.10523 0.38893 0.75327
 C750 C 0.11413 0.37781 0.77771
 C751 C 0.10340 0.38848 0.80254
 C752 C 0.08468 0.40920 0.80357
 C753 C 0.07572 0.42016 0.78001
 C754 C 0.08570 0.41016 0.75447
 C755 C 0.07563 0.42195 0.73123
 C756 C 0.05677 0.44275 0.73340
 C757 C 0.04720 0.45264 0.75869
 C758 C 0.05678 0.44116 0.78193
 H759 H 0.13620 0.34976 0.81984
 H760 H 0.17192 0.32008 0.72948
 H761 H 0.16929 0.31502 0.81574
 H762 H 0.14336 0.35103 0.70793
 H763 H 0.11085 0.38591 0.70925
 H764 H 0.10917 0.38141 0.82177
 H765 H 0.07712 0.41676 0.82314
 H766 H 0.08175 0.41562 0.71099
 H767 H 0.04970 0.45115 0.71505
 H768 H 0.04946 0.44856 0.80164
 C769 C 0.15722 0.65302 0.27583
 C770 C 0.14784 0.64017 0.25146
 C771 C 0.15951 0.64850 0.22703
 C772 C 0.17976 0.66861 0.22722
 C773 C 0.18921 0.68116 0.25158
 C774 C 0.17734 0.67302 0.27582
 C775 C 0.15092 0.63683 0.20234
 C776 C 0.13108 0.61683 0.20122
 C777 C 0.11886 0.60754 0.22492
 C778 C 0.12736 0.61942 0.25049
 C779 C 0.11515 0.61012 0.27420
 C780 C 0.09542 0.58999 0.27309
 C781 C 0.08694 0.57823 0.24841
 C782 C 0.09844 0.58677 0.22392
 C783 C 0.08894 0.57405 0.19948
 C784 C 0.06900 0.55390 0.19951
 C785 C 0.05778 0.54559 0.22379
 C786 C 0.06692 0.55789 0.24818
 H787 H 0.14969 0.64802 0.29541
 H788 H 0.18726 0.67507 0.20800
 H789 H 0.18429 0.68111 0.29526
 H790 H 0.15971 0.64319 0.18355
 H791 H 0.12584 0.60904 0.18126
 H792 H 0.12038 0.61794 0.29415
 H793 H 0.08669 0.58354 0.29187
 H794 H 0.09639 0.57911 0.17989
 H795 H 0.06237 0.54477 0.18033
 H796 H 0.05838 0.55169 0.26715
 C797 C 0.72884 -0.14820 0.65558
 C798 C 0.75299 -0.13684 0.64510
 C799 C 0.77799 -0.14465 0.65616
 C800 C 0.77851 -0.16280 0.67687
 C801 C 0.75441 -0.17371 0.68703
 C802 C 0.72964 -0.16625 0.67616
 C803 C 0.80242 -0.13431 0.64661
 C804 C 0.80280 -0.11633 0.62619
 C805 C 0.77858 -0.10780 0.61440
 C806 C 0.75323 -0.11810 0.62412
 C807 C 0.72898 -0.10922 0.61263
 C808 C 0.72937 -0.09100 0.59242
 C809 C 0.75382 -0.08088 0.58266
 C810 C 0.77883 -0.08916 0.59335
 C811 C 0.80303 -0.07835 0.58242
 C812 C 0.80227 -0.06002 0.56212
 C813 C 0.77749 -0.05177 0.55187
 C814 C 0.75332 -0.06240 0.56222
 H815 H 0.70894 -0.14376 0.64833
 H816 H 0.79779 -0.16819 0.68538
 H817 H 0.71072 -0.17470 0.68336
 H818 H 0.82157 -0.14019 0.65504
 H819 H 0.82263 -0.10940 0.62022
 H820 H 0.70914 -0.11584 0.61890
 H821 H 0.71020 -0.08474 0.58432
 H822 H 0.82297 -0.08356 0.58899
 H823 H 0.82130 -0.05223 0.55447
 H824 H 0.73399 -0.05624 0.55441
 C825 C 0.28356 -0.17006 0.34788
 C826 C 0.26016 -0.15648 0.35819
 C827 C 0.23469 -0.16455 0.34716
 C828 C 0.23302 -0.18505 0.32657
 C829 C 0.25644 -0.19795 0.31640
 C830 C 0.28163 -0.19034 0.32737
 C831 C 0.21096 -0.15205 0.35656
 C832 C 0.21176 -0.13154 0.37667
 C833 C 0.23653 -0.12253 0.38828
 C834 C 0.26115 -0.13521 0.37889
 C835 C 0.28594 -0.12608 0.39039
 C836 C 0.28677 -0.10536 0.41028
 C837 C 0.26305 -0.09282 0.41964
 C838 C 0.23754 -0.10118 0.40890
 C839 C 0.21413 -0.08770 0.41933
 C840 C 0.21612 -0.06695 0.43935
 C841 C 0.24140 -0.05878 0.44977
 C842 C 0.26479 -0.07187 0.43977
 H843 H 0.30372 -0.16561 0.35511
 H844 H 0.21344 -0.19060 0.31803
 H845 H 0.30001 -0.20029 0.32017
 H846 H 0.19144 -0.15817 0.34822
 H847 H 0.19241 -0.12310 0.38255
 H848 H 0.30530 -0.13446 0.38443
 H849 H 0.30632 -0.09906 0.41842
 H850 H 0.19390 -0.09261 0.41256
 H851 H 0.19766 -0.05725 0.44669
 H852 H 0.28449 -0.06579 0.44769
 C853 C 0.72390 0.15482 0.34242
 C854 C 0.74832 0.14327 0.35106
 C855 C 0.77297 0.15198 0.33915
 C856 C 0.77290 0.17109 0.31932
 C857 C 0.74853 0.18213 0.31093
 C858 C 0.72411 0.17385 0.32272
 C859 C 0.79765 0.14156 0.34695
 C860 C 0.79864 0.12270 0.36650
 C861 C 0.77478 0.11326 0.37908
 C862 C 0.74916 0.12351 0.37104
 C863 C 0.72525 0.11353 0.38311
 C864 C 0.72623 0.09442 0.40245
 C865 C 0.75098 0.08451 0.41074
 C866 C 0.77565 0.09380 0.39933
 C867 C 0.80018 0.08321 0.40882
 C868 C 0.80005 0.06421 0.42852
 C869 C 0.77559 0.05501 0.43953
 C870 C 0.75110 0.06529 0.43050
 H871 H 0.70424 0.14982 0.35053
 H872 H 0.79191 0.17712 0.31009
 H873 H 0.70501 0.18237 0.31690
 H874 H 0.81654 0.14811 0.33784
 H875 H 0.81861 0.11577 0.37111
 H876 H 0.70524 0.11992 0.37795
 H877 H 0.70731 0.08736 0.41107
 H878 H 0.81992 0.08920 0.40166
 H879 H 0.81931 0.05670 0.43515
 H880 H 0.73202 0.05842 0.43894
 C881 C 0.20525 0.15876 0.67545
 C882 C 0.22885 0.14995 0.66107
 C883 C 0.25397 0.16221 0.66863
 C884 C 0.25506 0.18273 0.68924
 C885 C 0.23144 0.19134 0.70305
 C886 C 0.20662 0.17906 0.69599
 C887 C 0.27794 0.15401 0.65559
 C888 C 0.27775 0.13364 0.63531
 C889 C 0.25335 0.12072 0.62692
 C890 C 0.22842 0.12937 0.63966
 C891 C 0.20389 0.11738 0.63038
 C892 C 0.20362 0.09742 0.60972
 C893 C 0.22771 0.08832 0.59756
 C894 C 0.25298 0.09962 0.60602
 C895 C 0.27681 0.08910 0.59325
 C896 C 0.27540 0.06860 0.57287
 C897 C 0.25032 0.05785 0.56441
 C898 C 0.22656 0.06786 0.57692
 H899 H 0.18539 0.15022 0.67166
 H900 H 0.27437 0.19225 0.69433
 H901 H 0.18813 0.18490 0.70670
 H902 H 0.29718 0.16339 0.66123
 H903 H 0.29721 0.12876 0.62634
 H904 H 0.18429 0.12320 0.63841
 H905 H 0.18424 0.08892 0.60325
 H906 H 0.29692 0.09600 0.59864
 H907 H 0.29413 0.06118 0.56367
 H908 H 0.20700 0.05958 0.57072
   
