data_POSCAR
  _audit_creation_date              2014-09-24
  _audit_creation_method            'ToBaCCo'
  _symmetry_space_group_name_H-M    'P1'
  _symmetry_Int_Tables_number       1
  _symmetry_cell_setting            triclinic
  loop_
  _symmetry_equiv_pos_as_xyz
 x,y,z
_cell_length_a 15.1907
_cell_length_b 15.2484
_cell_length_c 15.5437
_cell_angle_alpha 91.841000
_cell_angle_beta 89.657700
_cell_angle_gamma 89.751300
loop_
  _atom_site_label
  _atom_site_type_symbol
  _atom_site_fract_x
  _atom_site_fract_y
  _atom_site_fract_z
Si1 Si 0.00611 0.48362 0.26717
 Si2 Si 0.04873 0.48133 0.75933
 Si3 Si 0.25067 -0.00034 0.50765
 Si4 Si 0.77409 -0.00886 0.51851
 Si5 Si 0.48086 0.25822 1.00442
 Si6 Si 0.46929 0.72526 1.00135
 B7 B 0.97496 1.07818 0.07870
 B8 B 1.04065 0.98740 0.11072
 B9 B 0.92295 0.98080 0.10546
 B10 B 0.88792 1.04041 0.00904
 B11 B 0.99122 1.09161 -0.03267
 B12 B 1.08038 1.05122 0.02573
 B13 B 0.99376 0.89626 -0.05001
 B14 B 0.93861 0.99080 -0.08346
 B15 B 1.05100 0.99784 -0.07879
 B16 B 1.08546 0.93686 0.01067
 B17 B 0.99046 0.89039 0.06530
 B18 B 0.88950 0.92698 0.00723
 B19 B 0.60337 0.51000 0.44071
 B20 B 0.61961 0.51205 0.55200
 B21 B 0.55944 0.60487 0.49816
 B22 B 0.49985 0.55898 0.40755
 B23 B 0.51182 0.44377 0.40878
 B24 B 0.57868 0.41083 0.50246
 B25 B 0.42420 0.49525 0.56297
 B26 B 0.41492 0.49615 0.44853
 B27 B 0.45976 0.40429 0.50118
 B28 B 0.52147 0.44883 0.59779
 B29 B 0.51855 0.56242 0.59630
 B30 B 0.44669 0.59445 0.50790
 C31 C 0.98993 1.33544 0.12656
 C32 C 0.98892 1.35684 0.21454
 C33 C 0.95630 1.28421 0.26197
 C34 C 0.94528 1.19441 0.22665
 C35 C 0.94904 1.17283 0.13632
 C36 C 0.93067 1.24672 0.09199
 C37 C 0.99875 1.41990 0.06667
 C38 C 0.90459 1.41171 -0.06680
 C39 C 0.85259 1.31489 -0.07730
 C40 C 0.86617 1.23852 0.00099
 H41 H 1.03734 1.47357 0.09342
 H42 H 0.89774 1.45710 -0.11845
 H43 H 0.86553 1.29587 -0.14791
 H44 H 0.82733 1.27956 -0.03634
 H45 H 0.94980 1.29548 0.32938
 H46 H 0.93994 1.14194 0.27148
 C47 C 0.92978 0.64935 0.18487
 C48 C 1.00600 0.60332 0.20703
 C49 C 1.08177 0.65281 0.18748
 C50 C 1.07831 0.73915 0.15109
 C51 C 1.00073 0.78443 0.11923
 C52 C 0.92816 0.72931 0.13537
 C53 C 0.84962 0.61638 0.20778
 C54 C 0.78059 0.62828 0.15496
 C55 C 0.78322 0.69086 0.09637
 C56 C 0.84806 0.75331 0.10587
 H57 H 0.83452 0.60381 0.27180
 H58 H 0.72103 0.60115 0.16602
 H59 H 0.72324 0.69971 0.06481
 H60 H 0.82924 0.81819 0.12594
 H61 H 1.14578 0.62682 0.20308
 H62 H 1.14132 0.76992 0.15278
 C63 C 1.05576 1.39555 -0.07481
 C64 C 1.05640 1.38158 -0.16318
 C65 C 1.06854 1.29360 -0.18998
 C66 C 1.07602 1.22310 -0.13218
 C67 C 1.01795 1.21259 -0.06242
 C68 C 0.99769 1.31081 -0.02727
 C69 C 1.03523 1.50300 -0.05254
 C70 C 0.94946 1.55219 -0.00005
 C71 C 0.86505 1.50053 0.05473
 C72 C 0.86051 1.38305 0.06239
 H73 H 1.09214 1.54325 -0.06046
 H74 H 0.89082 1.54393 0.03276
 H75 H 0.85161 1.43668 0.06684
 H76 H 0.80512 1.33835 0.10008
 H77 H 1.09132 1.28221 -0.25368
 H78 H 1.11609 1.16797 -0.15215
 C79 C 0.94632 0.65549 -0.18863
 C80 C 1.02797 0.60898 -0.19176
 C81 C 1.09740 0.66184 -0.16107
 C82 C 1.08613 0.75020 -0.12799
 C83 C 1.00464 0.79449 -0.11229
 C84 C 0.93703 0.74629 -0.15782
 C85 C 0.87157 0.61480 -0.21969
 C86 C 0.80068 0.66214 -0.24856
 C87 C 0.79615 0.74991 -0.23136
 C88 C 0.86172 0.78910 -0.18365
 H89 H 0.86882 0.54683 -0.22206
 H90 H 0.74997 0.63239 -0.28659
 H91 H 0.73977 0.78625 -0.25177
 H92 H 0.84824 0.85111 -0.15856
 H93 H 1.16280 0.63355 -0.16122
 H94 H 1.14520 0.78467 -0.12042
 C95 C 1.14352 1.06877 0.35736
 C96 C 1.17706 0.99420 0.39725
 C97 C 1.16355 0.91742 0.34678
 C98 C 1.12071 0.91762 0.26457
 C99 C 1.09347 0.99265 0.21690
 C100 C 1.11816 1.07013 0.26674
 C101 C 1.13304 1.14487 0.40680
 C102 C 1.12802 1.22438 0.36881
 C103 C 1.13091 1.22624 0.28151
 C104 C 1.12349 1.15161 0.23042
 H105 H 1.12403 1.14098 0.47382
 H106 H 1.11794 1.28481 0.40452
 H107 H 1.12391 1.28699 0.25349
 H108 H 1.11082 1.16248 0.16517
 H109 H 1.18272 0.85492 0.37195
 H110 H 1.10194 0.85593 0.24460
 C111 C 1.10790 1.02428 -0.35450
 C112 C 1.19187 0.99274 -0.37153
 C113 C 1.22495 0.95173 -0.29811
 C114 C 1.17326 0.94255 -0.21922
 C115 C 1.10334 1.00091 -0.18978
 C116 C 1.07677 1.04880 -0.26766
 C117 C 1.05402 1.03486 -0.42406
 C118 C 0.98415 1.08963 -0.41641
 C119 C 0.96804 1.13778 -0.34171
 C120 C 1.01231 1.11400 -0.26800
 H121 H 1.06320 0.99802 -0.48359
 H122 H 0.93812 1.08272 -0.46483
 H123 H 0.91225 1.18221 -0.33738
 H124 H 0.98444 1.13590 -0.21049
 H125 H 1.28514 0.91468 -0.30639
 H126 H 1.19589 0.89282 -0.17869
 C127 C 0.76160 1.00098 0.33571
 C128 C 0.82306 0.98967 0.40069
 C129 C 0.90732 0.96203 0.37176
 C130 C 0.92425 0.94466 0.28183
 C131 C 0.87464 0.97755 0.21274
 C132 C 0.78746 0.99988 0.24589
 C133 C 0.67053 1.00361 0.35827
 C134 C 0.60726 1.00519 0.29980
 C135 C 0.63172 1.01832 0.21853
 C136 C 0.72068 1.01476 0.19176
 H137 H 0.64150 0.99949 0.42031
 H138 H 0.53961 1.00142 0.31977
 H139 H 0.57811 1.03697 0.18091
 H140 H 0.74178 1.02690 0.13001
 H141 H 0.95327 0.93780 0.41837
 H142 H 0.96797 0.89237 0.26605
 C143 C 0.79813 1.02958 -0.30229
 C144 C 0.83061 0.97711 -0.36939
 C145 C 0.90225 0.92327 -0.34710
 C146 C 0.93813 0.92734 -0.26122
 C147 C 0.90623 0.98645 -0.19255
 C148 C 0.84613 1.04577 -0.22493
 C149 C 0.71573 1.06711 -0.30744
 C150 C 0.69298 1.12986 -0.24812
 C151 C 0.75454 1.16530 -0.19266
 C152 C 0.83125 1.12398 -0.18193
 H153 H 0.66507 1.04022 -0.34811
 H154 H 0.62654 1.14845 -0.24151
 H155 H 0.73513 1.20715 -0.14000
 H156 H 0.87115 1.14632 -0.13102
 H157 H 0.93152 0.87949 -0.39548
 H158 H 0.99212 0.88386 -0.24931
 C159 C 1.34680 1.12542 0.08281
 C160 C 1.36487 1.19211 0.02206
 C161 C 1.28679 1.22758 -0.00832
 C162 C 1.20127 1.19229 0.00847
 C163 C 1.18385 1.10824 0.04228
 C164 C 1.26266 1.07887 0.08716
 C165 C 1.40611 1.11220 0.14894
 C166 C 1.38743 1.05903 0.21668
 C167 C 1.31918 1.00093 0.20965
 C168 C 1.26249 1.00626 0.14065
 H169 H 1.46241 1.14936 0.15350
 H170 H 1.42835 1.06025 0.27213
 H171 H 1.31231 0.94989 0.25586
 H172 H 1.21747 0.95445 0.13415
 H173 H 1.29086 1.29249 -0.03367
 H174 H 1.15058 1.23990 0.00783
 C175 C 0.60468 1.10534 -0.07810
 C176 C 0.59082 1.18819 -0.01895
 C177 C 0.66721 1.22012 0.01792
 C178 C 0.73186 1.16333 0.04901
 C179 C 0.76901 1.08755 -0.00615
 C180 C 0.69707 1.05831 -0.07359
 C181 C 0.53714 1.06784 -0.14567
 C182 C 0.56596 0.99666 -0.19690
 C183 C 0.64123 0.95013 -0.17972
 C184 C 0.70512 0.98249 -0.12455
 H185 H 0.56905 1.09081 -0.10894
 H186 H 0.53526 0.98102 -0.25744
 H187 H 0.65556 0.89285 -0.21889
 H188 H 0.76476 0.94950 -0.12562
 H189 H 0.66323 1.28380 0.05025
 H190 H 0.76642 1.11893 0.02563
 C191 C 1.35177 0.87495 -0.04594
 C192 C 1.36193 0.79571 -0.00340
 C193 C 1.28348 0.75775 0.02337
 C194 C 1.20230 0.80160 0.01875
 C195 C 1.19041 0.88970 -0.00227
 C196 C 1.27055 0.92588 -0.03990
 C197 C 1.41290 0.89469 -0.10982
 C198 C 1.38845 0.95327 -0.17093
 C199 C 1.33263 1.02046 -0.14828
 C200 C 1.27227 1.00562 -0.08420
 H201 H 1.47137 0.85591 -0.12199
 H202 H 1.41105 0.94664 -0.23609
 H203 H 1.32193 1.07305 -0.19206
 H204 H 1.21769 1.04760 -0.08981
 H205 H 1.28314 0.68995 0.04196
 H206 H 1.14611 0.76047 0.01921
 C207 C 0.62496 0.82327 0.08130
 C208 C 0.59238 0.77946 0.00655
 C209 C 0.65629 0.77879 -0.06170
 C210 C 0.74487 0.80829 -0.04577
 C211 C 0.76853 0.88121 0.00884
 C212 C 0.68241 0.89594 0.06069
 C213 C 0.55887 0.83897 0.14303
 C214 C 0.49789 0.90093 0.11901
 C215 C 0.52576 0.95935 0.05784
 C216 C 0.61784 0.96350 0.04327
 H217 H 0.53858 0.78925 0.18559
 H218 H 0.43166 0.89928 0.14296
 H219 H 0.48263 1.01048 0.03660
 H220 H 0.63261 1.02956 0.05268
 H221 H 0.64349 0.74945 -0.12385
 H222 H 0.79402 0.75928 -0.05731
 C223 C 0.87295 0.52931 0.40484
 C224 C 0.89313 0.47794 0.33253
 C225 C 0.81866 0.44314 0.29350
 C226 C 0.73265 0.45905 0.32459
 C227 C 0.70273 0.51932 0.39097
 C228 C 0.76999 0.57440 0.42320
 C229 C 0.95588 0.55890 0.46343
 C230 C 0.91958 0.68011 0.57290
 C231 C 0.81463 0.71103 0.56814
 C232 C 0.74754 0.65898 0.49875
 H233 H 1.01703 0.52384 0.44889
 H234 H 0.96030 0.71456 0.62072
 H235 H 0.79027 0.76390 0.60890
 H236 H 0.70279 0.65514 0.54994
 H237 H 0.82531 0.40414 0.23498
 H238 H 0.68656 0.42719 0.28634
 C239 C 0.19587 0.44180 0.28558
 C240 C 0.12832 0.49482 0.31688
 C241 C 0.16324 0.56577 0.36573
 C242 C 0.25167 0.56652 0.39923
 C243 C 0.31211 0.49399 0.39144
 C244 C 0.27348 0.42515 0.33479
 C245 C 0.19624 0.41521 0.19917
 C246 C 0.24682 0.34446 0.17364
 C247 C 0.29465 0.30061 0.23498
 C248 C 0.30953 0.34235 0.31460
 H249 H 0.15624 0.44642 0.15278
 H250 H 0.24339 0.32269 0.10885
 H251 H 0.32981 0.24173 0.21801
 H252 H 0.36511 0.31979 0.34426
 H253 H 0.12557 0.62518 0.36900
 H254 H 0.27110 0.62607 0.43102
 C255 C 0.94388 0.53413 0.61107
 C256 C 0.94923 0.47072 0.67078
 C257 C 0.87002 0.42306 0.67599
 C258 C 0.78514 0.44652 0.63788
 C259 C 0.75393 0.51421 0.58448
 C260 C 0.84589 0.55833 0.55496
 C261 C 1.04113 0.58074 0.58808
 C262 C 1.06785 0.65888 0.51643
 C263 C 0.99520 0.70840 0.44200
 C264 C 0.88572 0.67895 0.43727
 H265 H 1.08955 0.53107 0.58701
 H266 H 1.14704 0.66072 0.52079
 H267 H 1.04126 0.68445 0.48105
 H268 H 0.94255 0.71414 0.41771
 H269 H 0.87414 0.36470 0.71283
 H270 H 0.73624 0.40176 0.63863
 C271 C 0.23936 0.41015 0.73709
 C272 C 0.17478 0.47744 0.72736
 C273 C 0.20297 0.54561 0.68017
 C274 C 0.26694 0.53436 0.61659
 C275 C 0.33457 0.47528 0.62361
 C276 C 0.31223 0.40230 0.67813
 C277 C 0.24039 0.35378 0.80637
 C278 C 0.27821 0.27076 0.79660
 C279 C 0.33706 0.25407 0.73149
 C280 C 0.35699 0.32050 0.67674
 H281 H 0.21134 0.37245 0.86723
 H282 H 0.26287 0.21871 0.83844
 H283 H 0.37086 0.19152 0.72549
 H284 H 0.41090 0.30562 0.63557
 H285 H 0.16290 0.60273 0.68125
 H286 H 0.26671 0.57742 0.56430
 C287 C 0.48891 0.58993 0.13315
 C288 C 0.44481 0.66568 0.11583
 C289 C 0.39780 0.69906 0.19086
 C290 C 0.40581 0.66046 0.27575
 C291 C 0.47648 0.60160 0.29893
 C292 C 0.52156 0.57604 0.21827
 C293 C 0.50867 0.53032 0.06560
 C294 C 0.57993 0.47429 0.07288
 C295 C 0.62814 0.47837 0.14758
 C296 C 0.59812 0.53207 0.21784
 H297 H 0.47331 0.53167 0.00559
 H298 H 0.60024 0.43230 0.01955
 H299 H 0.69128 0.44569 0.14801
 H300 H 0.63938 0.56028 0.26421
 H301 H 0.35450 0.75494 0.18489
 H302 H 0.35851 0.68198 0.32334
 C303 C 0.55739 0.61431 0.86363
 C304 C 0.48445 0.66855 0.88499
 C305 C 0.44043 0.70061 0.81290
 C306 C 0.46977 0.68256 0.72699
 C307 C 0.52375 0.61149 0.70189
 C308 C 0.57570 0.58483 0.77540
 C309 C 0.61836 0.59447 0.92820
 C310 C 0.69319 0.54798 0.91094
 C311 C 0.70590 0.51354 0.83043
 C312 C 0.64530 0.52697 0.76570
 H313 H 0.61411 0.62005 0.99266
 H314 H 0.73973 0.53682 0.96084
 H315 H 0.76334 0.47527 0.81927
 H316 H 0.65237 0.49167 0.70840
 H317 H 0.38600 0.74538 0.82174
 H318 H 0.44877 0.72601 0.67848
 C319 C 0.55389 0.27672 0.19500
 C320 C 0.49654 0.30701 0.12766
 C321 C 0.44353 0.37686 0.15539
 C322 C 0.44861 0.41615 0.23954
 C323 C 0.50622 0.39017 0.30681
 C324 C 0.56009 0.31898 0.27885
 C325 C 0.60977 0.20558 0.18270
 C326 C 0.68994 0.20178 0.22591
 C327 C 0.69921 0.24558 0.30082
 C328 C 0.63007 0.29559 0.32963
 H329 H 0.59581 0.15843 0.13400
 H330 H 0.74740 0.16765 0.20315
 H331 H 0.76242 0.24671 0.33176
 H332 H 0.64808 0.34030 0.37513
 H333 H 0.39715 0.40337 0.11038
 H334 H 0.40261 0.46846 0.25033
 C335 C 0.54849 0.31839 0.83224
 C336 C 0.48518 0.33670 0.89596
 C337 C 0.43491 0.41088 0.86836
 C338 C 0.45015 0.45153 0.78361
 C339 C 0.50452 0.41264 0.71185
 C340 C 0.53020 0.33029 0.74248
 C341 C 0.63682 0.33389 0.85072
 C342 C 0.69600 0.33119 0.78128
 C343 C 0.66950 0.29375 0.70338
 C344 C 0.58146 0.28269 0.69031
 H345 H 0.65968 0.35222 0.91409
 H346 H 0.76278 0.34286 0.78990
 H347 H 0.71815 0.26277 0.66144
 H348 H 0.55617 0.21893 0.67327
 H349 H 0.38555 0.43906 0.91150
 H350 H 0.41246 0.51026 0.77305
 C351 C 0.69548 0.82681 0.44199
 C352 C 0.69494 0.88459 0.51421
 C353 C 0.63749 0.85762 0.57953
 C354 C 0.59294 0.77463 0.57351
 C355 C 0.58572 0.72062 0.49589
 C356 C 0.62728 0.76415 0.42508
 C357 C 0.77050 0.81747 0.39162
 C358 C 0.76560 0.78420 0.30884
 C359 C 0.68576 0.75240 0.28051
 C360 C 0.61934 0.73797 0.33918
 H361 H 0.83324 0.83246 0.41906
 H362 H 0.82276 0.78634 0.26844
 H363 H 0.67425 0.73711 0.21449
 H364 H 0.55806 0.72520 0.31308
 H365 H 0.63624 0.89407 0.63972
 H366 H 0.57663 0.74934 0.63355
 C367 C 0.76968 0.19466 0.49343
 C368 C 0.72044 0.11781 0.51188
 C369 C 0.63020 0.13751 0.52381
 C370 C 0.59434 0.22483 0.52252
 C371 C 0.63966 0.30519 0.51164
 C372 C 0.73299 0.28414 0.49794
 C373 C 0.85631 0.18608 0.46367
 C374 C 0.91543 0.25309 0.47579
 C375 C 0.88348 0.33658 0.48434
 C376 C 0.79299 0.34973 0.48211
 H377 H 0.88069 0.12964 0.42991
 H378 H 0.98483 0.24174 0.46707
 H379 H 0.92922 0.39010 0.48471
 H380 H 0.76988 0.41167 0.47307
 H381 H 0.58539 0.08467 0.53739
 H382 H 0.52964 0.23035 0.54623
 C383 C 0.26431 0.80982 0.53825
 C384 C 0.30461 0.88034 0.49764
 C385 C 0.38039 0.85552 0.45110
 C386 C 0.41322 0.76700 0.45149
 C387 C 0.38887 0.70033 0.51089
 C388 C 0.31615 0.73572 0.56423
 C389 C 0.17685 0.81693 0.56767
 C390 C 0.15651 0.78465 0.64774
 C391 C 0.22400 0.74632 0.69292
 C392 C 0.29567 0.71170 0.64798
 H393 H 0.12876 0.85670 0.53571
 H394 H 0.09353 0.79838 0.67777
 H395 H 0.21853 0.73395 0.75963
 H396 H 0.32904 0.66146 0.67952
 H397 H 0.41129 0.90245 0.40987
 H398 H 0.46056 0.75255 0.40380
 C399 C 0.27588 0.20018 0.53758
 C400 C 0.31463 0.11964 0.50484
 C401 C 0.38909 0.13554 0.45224
 C402 C 0.42657 0.22207 0.44254
 C403 C 0.39602 0.30183 0.48713
 C404 C 0.30475 0.28619 0.51122
 C405 C 0.20383 0.19959 0.59383
 C406 C 0.13950 0.26427 0.59068
 C407 C 0.15687 0.34028 0.54973
 C408 C 0.23974 0.35244 0.51497
 H409 H 0.19798 0.15092 0.63996
 H410 H 0.07515 0.25553 0.61716
 H411 H 0.10716 0.39087 0.54742
 H412 H 0.25101 0.41625 0.49775
 H413 H 0.42000 0.08021 0.41897
 H414 H 0.48379 0.22549 0.40171
   
