data_POSCAR
  _audit_creation_date              2014-09-24
  _audit_creation_method            'ToBaCCo'
  _symmetry_space_group_name_H-M    'P1'
  _symmetry_Int_Tables_number       1
  _symmetry_cell_setting            triclinic
  loop_
  _symmetry_equiv_pos_as_xyz
 x,y,z
_cell_length_a 14.9881
_cell_length_b 14.5101
_cell_length_c 16.3443
_cell_angle_alpha 79.520600
_cell_angle_beta 91.964100
_cell_angle_gamma 86.228000
loop_
  _atom_site_label
  _atom_site_type_symbol
  _atom_site_fract_x
  _atom_site_fract_y
  _atom_site_fract_z
O1 O 0.08385 0.58592 1.05758
 O2 O 0.07961 0.41996 0.91809
 O3 O 0.04248 0.59908 0.89460
 O4 O 0.06550 0.39961 1.07598
 O5 O -0.08121 0.41246 1.08475
 O6 O -0.10384 0.59701 0.90383
 O7 O -0.06674 0.41329 0.92801
 O8 O -0.06323 0.59389 1.06364
 Cu9 Cu 0.08107 0.50267 0.98765
 Cu10 Cu -0.09325 0.50599 0.99546
 C11 C 0.01313 0.61907 1.08454
 C12 C 0.00789 0.38435 0.90206
 C13 C -0.03702 0.62885 0.86695
 C14 C -0.00621 0.36944 1.10786
 O15 O 0.58783 -0.06602 0.59719
 O16 O 0.42604 -0.09468 0.43374
 O17 O 0.59356 -0.03725 0.43526
 O18 O 0.41215 -0.06269 0.58742
 O19 O 0.38901 0.09201 0.56140
 O20 O 0.55216 0.11444 0.40412
 O21 O 0.38744 0.05753 0.40944
 O22 O 0.56140 0.08825 0.56578
 Cu23 Cu 0.50762 -0.07964 0.51490
 Cu24 Cu 0.46920 0.10143 0.48147
 C25 C 0.60372 0.01513 0.60864
 C26 C 0.37646 -0.02500 0.39616
 C27 C 0.60412 0.04554 0.39537
 C28 C 0.37075 0.01285 0.60080
 C29 C -0.10891 -0.03517 0.29495
 C30 C -0.02850 -0.00934 0.25942
 C31 C -0.01668 0.08516 0.22775
 C32 C -0.08547 0.15432 0.22977
 C33 C -0.16621 0.12822 0.26507
 C34 C -0.17777 0.03318 0.29898
 C35 C 0.04519 -0.08005 0.25701
 C36 C 0.03302 -0.15713 0.21874
 C37 C 0.10578 -0.22088 0.21200
 C38 C 0.19061 -0.20821 0.24696
 C39 C 0.20259 -0.13079 0.28614
 C40 C 0.12933 -0.06713 0.29013
 H41 H -0.11707 -0.10802 0.32151
 H42 H 0.04520 0.10418 0.19896
 H43 H -0.03223 -0.16502 0.19132
 H44 H 0.13698 -0.00779 0.32092
 H45 H -0.21942 0.18209 0.26632
 H46 H 0.24695 -0.25755 0.24277
 C47 C -0.01749 -0.10230 0.75628
 C48 C -0.03093 -0.00591 0.75701
 C49 C -0.11812 0.03740 0.74359
 C50 C -0.19023 -0.01261 0.72579
 C51 C -0.17548 -0.10811 0.72040
 C52 C -0.08897 -0.15327 0.73751
 C53 C 0.04570 0.05143 0.76624
 C54 C 0.12698 0.03359 0.72928
 C55 C 0.19510 0.09544 0.72825
 C56 C 0.18158 0.17555 0.76444
 C57 C 0.10122 0.19369 0.80202
 C58 C 0.03467 0.13032 0.80453
 H59 H 0.04869 -0.13793 0.76876
 H60 H -0.13055 0.11182 0.74326
 H61 H 0.13516 -0.02452 0.69634
 H62 H -0.02625 0.14330 0.83562
 H63 H -0.23095 -0.14773 0.70632
 H64 H 0.23291 0.22508 0.76157
 N65 N 0.01958 -0.31259 0.13697
 N66 N 0.09576 -0.29427 0.16489
 N67 N -0.00463 0.28044 0.16243
 N68 N -0.07837 0.24895 0.18765
 N69 N 0.30016 0.00996 0.65776
 N70 N 0.27251 0.08603 0.68053
 N71 N -0.33485 0.02422 0.66443
 N72 N -0.27741 0.03589 0.71644
 N73 N -0.05188 -0.30839 0.79880
 N74 N -0.07302 -0.25074 0.73477
 N75 N 0.01294 0.30653 0.85960
 N76 N 0.08892 0.27604 0.83837
 N77 N -0.32129 0.06513 0.34499
 N78 N -0.25574 0.00576 0.34298
 N79 N 0.30200 -0.03919 0.34431
 N80 N 0.28660 -0.11896 0.32663
   
