data_POSCAR
  _audit_creation_date              2014-09-24
  _audit_creation_method            'ToBaCCo'
  _symmetry_space_group_name_H-M    'P1'
  _symmetry_Int_Tables_number       1
  _symmetry_cell_setting            triclinic
  loop_
  _symmetry_equiv_pos_as_xyz
 x,y,z
_cell_length_a 32.3870
_cell_length_b 31.9577
_cell_length_c 30.7299
_cell_angle_alpha 90.144500
_cell_angle_beta 89.906000
_cell_angle_gamma 117.780800
loop_
  _atom_site_label
  _atom_site_type_symbol
  _atom_site_fract_x
  _atom_site_fract_y
  _atom_site_fract_z
O1 O 0.00305 0.53934 -0.05573
 O2 O 0.05759 0.48525 0.01396
 O3 O 0.00288 0.45923 -0.05478
 O4 O 0.05913 0.56695 0.01210
 O5 O -0.00168 0.53870 0.05643
 O6 O -0.05894 0.43187 -0.01172
 O7 O -0.00424 0.45707 0.05702
 O8 O -0.05760 0.51308 -0.01128
 Cu9 Cu 0.03697 0.51555 -0.02536
 Cu10 Cu -0.03678 0.48239 0.02701
 C11 C -0.03719 0.53405 -0.04595
 C12 C 0.03630 0.46293 0.04785
 C13 C -0.03825 0.42813 -0.04551
 C14 C 0.03886 0.57045 0.04624
 O15 O 0.56539 0.50426 -0.01158
 O16 O 0.46107 0.45112 0.05811
 O17 O 0.49003 0.42485 -0.01204
 O18 O 0.53691 0.53081 0.05765
 O19 O 0.50257 0.56184 0.01611
 O20 O 0.45465 0.45539 -0.05280
 O21 O 0.42671 0.48222 0.01669
 O22 O 0.53053 0.53418 -0.05380
 Cu23 Cu 0.51667 0.47454 0.02731
 Cu24 Cu 0.47520 0.51166 -0.02256
 C25 C 0.56504 0.52699 -0.04523
 C26 C 0.42671 0.45862 0.04982
 C27 C 0.46540 0.42274 -0.04489
 C28 C 0.52706 0.56393 0.04903
 O29 O 0.54182 0.99946 -0.05939
 O30 O 0.43804 0.93523 0.00939
 O31 O 0.45878 0.99128 -0.05910
 O32 O 0.52177 0.94543 0.00927
 O33 O 0.54440 1.00758 0.05262
 O34 O 0.48182 1.05364 -0.01601
 O35 O 0.46089 0.99805 0.05187
 O36 O 0.56505 1.06205 -0.01651
 Cu37 Cu 0.48763 0.96155 -0.02931
 Cu38 Cu 0.51540 1.03665 0.02228
 C39 C 0.57052 1.04187 -0.05004
 C40 C 0.43260 0.95534 0.04295
 C41 C 0.46084 1.03096 -0.04988
 C42 C 0.54262 0.96810 0.04319
 O43 O 1.06135 0.57482 0.48922
 O44 O 1.00501 0.46783 0.55679
 O45 O 1.06051 0.49372 0.48844
 O46 O 1.00596 0.54869 0.55729
 O47 O 0.94444 0.52028 0.51390
 O48 O 0.99967 0.46658 0.44429
 O49 O 0.94405 0.43920 0.51270
 O50 O 0.99981 0.54668 0.44581
 Cu51 Cu 1.03939 0.52405 0.52731
 Cu52 Cu 0.96571 0.49022 0.47491
 C53 C 1.04062 0.57822 0.45544
 C54 C 0.96445 0.43600 0.54679
 C55 C 1.04017 0.47248 0.45376
 C56 C 0.96541 0.54265 0.54791
 O57 O 0.49377 0.43184 0.51624
 O58 O 0.54153 0.53804 0.44740
 O59 O 0.56934 0.51181 0.51688
 O60 O 0.46533 0.45957 0.44657
 O61 O 0.43059 0.48963 0.48906
 O62 O 0.53484 0.54283 0.55850
 O63 O 0.50624 0.56876 0.48839
 O64 O 0.45929 0.46286 0.55789
 Cu65 Cu 0.52081 0.48194 0.47765
 Cu66 Cu 0.47936 0.51917 0.52775
 C67 C 0.46940 0.42986 0.54930
 C68 C 0.53099 0.57081 0.45558
 C69 C 0.56933 0.53558 0.55001
 C70 C 0.43095 0.46701 0.45523
 O71 O 0.56708 0.06491 0.51165
 O72 O 0.46309 0.00091 0.44298
 O73 O 0.48378 0.05643 0.51119
 O74 O 0.54653 0.01020 0.44242
 O75 O 0.52387 -0.05172 0.48579
 O76 O 0.46027 -0.00614 0.55386
 O77 O 0.44016 -0.06196 0.48517
 O78 O 0.54341 0.00246 0.55451
 Cu79 Cu 0.51751 0.03944 0.47278
 Cu80 Cu 0.48946 -0.03563 0.52416
 C81 C 0.57226 0.04481 0.54525
 C82 C 0.43480 -0.04182 0.45170
 C83 C 0.46245 0.03356 0.54480
 C84 C 0.54478 -0.02924 0.45185
 C85 C 0.07796 0.40901 0.27505
 C86 C 0.07624 0.40521 0.23061
 C87 C 0.11952 0.41146 0.21704
 N88 N 0.14727 0.41798 0.25190
 C89 C 0.12228 0.41733 0.28746
 C90 C 0.13323 0.41271 0.17311
 C91 C 0.17128 0.40512 0.16075
 C92 C 0.17544 0.38740 0.12072
 C93 C 0.21738 0.38648 0.12082
 C94 C 0.23779 0.40360 0.16093
 N95 N 0.20904 0.41401 0.18550
 C96 C 0.28202 0.40922 0.17354
 C97 C 0.29371 0.40696 0.21747
 C98 C 0.33006 0.39887 0.23113
 C99 C 0.33167 0.40261 0.27555
 C100 C 0.29608 0.41276 0.28784
 N101 N 0.27245 0.41453 0.25223
 C102 C 0.28973 0.42702 0.32984
 C103 C 0.25532 0.44162 0.33715
 C104 C 0.26045 0.47844 0.36422
 C105 C 0.21860 0.47947 0.36416
 C106 C 0.18898 0.44329 0.33703
 N107 N 0.21209 0.42134 0.31933
 C108 C 0.14163 0.43075 0.32958
 H109 H 0.04993 0.40749 0.29503
 H110 H 0.04621 0.39838 0.21082
 H111 H 0.19781 0.39141 0.29935
 H112 H 0.15017 0.37481 0.09459
 H113 H 0.23051 0.37309 0.09480
 H114 H 0.35323 0.39103 0.21138
 H115 H 0.35762 0.39995 0.29555
 H116 H 0.21172 0.50554 0.38060
 H117 H 0.21726 0.43144 0.21530
 H118 H 0.29171 0.50360 0.38070
 C119 C 0.51574 0.65510 0.22904
 C120 C 0.51601 0.65586 0.27362
 C121 C 0.55415 0.69768 0.28591
 N122 N 0.57676 0.72302 0.25049
 C123 C 0.55369 0.69653 0.21572
 C124 C 0.56866 0.71209 0.32897
 C125 C 0.58682 0.76026 0.34099
 C126 C 0.60312 0.77903 0.38182
 C127 C 0.60977 0.82477 0.38152
 C128 C 0.59752 0.83321 0.34043
 N129 N 0.58398 0.79367 0.31603
 C130 C 0.59141 0.87266 0.32779
 C131 C 0.58064 0.87752 0.28405
 C132 C 0.55035 0.89449 0.27094
 C133 C 0.54991 0.89371 0.22649
 C134 C 0.57993 0.87629 0.21353
 N135 N 0.59824 0.86558 0.24884
 C136 C 0.58984 0.86999 0.16982
 C137 C 0.59554 0.83005 0.15785
 C138 C 0.60654 0.82010 0.11673
 C139 C 0.60012 0.77444 0.11750
 C140 C 0.58513 0.75720 0.15898
 N141 N 0.58287 0.79148 0.18328
 C142 C 0.56753 0.70951 0.17229
 H143 H 0.48923 0.62826 0.20886
 H144 H 0.48972 0.62973 0.29444
 H145 H 0.56706 0.78654 0.21359
 H146 H 0.60728 0.76150 0.41012
 H147 H 0.62006 0.84730 0.40968
 H148 H 0.52822 0.90352 0.29094
 H149 H 0.52742 0.90209 0.20644
 H150 H 0.60342 0.75587 0.08947
 H151 H 0.56716 0.78760 0.28616
 H152 H 0.61571 0.84149 0.08790
 C153 C 0.12777 0.64877 0.22782
 C154 C 0.12803 0.64963 0.27237
 C155 C 0.14241 0.69610 0.28462
 N156 N 0.15182 0.72393 0.24899
 C157 C 0.14204 0.69473 0.21420
 C158 C 0.14656 0.71259 0.32793
 C159 C 0.18371 0.75715 0.33983
 C160 C 0.19095 0.77855 0.38043
 C161 C 0.23453 0.81723 0.37971
 C162 C 0.25322 0.81842 0.33888
 N163 N 0.22184 0.78195 0.31486
 C164 C 0.30000 0.84777 0.32611
 C165 C 0.31403 0.84684 0.28284
 C166 C 0.35654 0.85055 0.26987
 C167 C 0.35620 0.84993 0.22522
 C168 C 0.31349 0.84580 0.21256
 N169 N 0.28730 0.84299 0.24780
 C170 C 0.29887 0.84551 0.16936
 C171 C 0.25210 0.81535 0.15709
 C172 C 0.23313 0.81257 0.11616
 C173 C 0.18971 0.77362 0.11623
 C174 C 0.18281 0.75370 0.15740
 N175 N 0.22105 0.77959 0.18192
 C176 C 0.14580 0.70955 0.17043
 H177 H 0.12052 0.61814 0.20798
 H178 H 0.12106 0.61979 0.29311
 H179 H 0.22816 0.76960 0.21201
 H180 H 0.16904 0.76697 0.40884
 H181 H 0.25098 0.83986 0.40728
 H182 H 0.38381 0.85077 0.29027
 H183 H 0.38322 0.84972 0.20462
 H184 H 0.16769 0.76091 0.08799
 H185 H 0.22868 0.77074 0.28518
 H186 H 0.24934 0.83426 0.08807
 C187 C 0.92249 0.59767 0.77416
 C188 C 0.92406 0.60126 0.72974
 C189 C 0.88036 0.59373 0.71629
 N190 N 0.85247 0.58661 0.75121
 C191 C 0.87783 0.58816 0.78669
 C192 C 0.86637 0.59166 0.67241
 C193 C 0.82737 0.59755 0.66015
 C194 C 0.82243 0.61463 0.62016
 C195 C 0.77969 0.61382 0.62036
 C196 C 0.75961 0.59635 0.66049
 N197 N 0.78929 0.58738 0.68497
 C198 C 0.71482 0.58908 0.67320
 C199 C 0.70281 0.59092 0.71717
 C200 C 0.66551 0.59745 0.73095
 C201 C 0.66393 0.59368 0.77534
 C202 C 0.70050 0.58511 0.78752
 N203 N 0.72466 0.58430 0.75186
 C204 C 0.70748 0.57139 0.82944
 C205 C 0.74318 0.55864 0.83660
 C206 C 0.73950 0.52237 0.86349
 C207 C 0.78221 0.52320 0.86329
 C208 C 0.81089 0.55995 0.83628
 N209 N 0.78640 0.58043 0.81876
 C210 C 0.85863 0.57433 0.82879
 H211 H 0.95086 0.59998 0.79403
 H212 H 0.95423 0.60868 0.70987
 H213 H 0.79968 0.61037 0.79891
 H214 H 0.84768 0.62794 0.59402
 H215 H 0.76579 0.62635 0.59440
 H216 H 0.64169 0.60428 0.71129
 H217 H 0.63739 0.59527 0.79541
 H218 H 0.79032 0.49800 0.87961
 H219 H 0.78162 0.57003 0.71474
 H220 H 0.70870 0.49637 0.87994
 C221 C 0.39842 0.06506 0.77089
 C222 C 0.39850 0.06559 0.72636
 C223 C 0.40006 0.10794 0.71389
 N224 N 0.39921 0.13246 0.74959
 C225 C 0.39991 0.10707 0.78455
 C226 C 0.40300 0.12371 0.67034
 C227 C 0.39937 0.16481 0.65979
 C228 C 0.38344 0.17292 0.62055
 C229 C 0.39192 0.21933 0.62095
 C230 C 0.41209 0.23811 0.66086
 N231 N 0.41592 0.20432 0.68444
 C232 C 0.43169 0.28619 0.67344
 C233 C 0.44652 0.29927 0.71662
 C234 C 0.48502 0.34031 0.72985
 C235 C 0.48484 0.33970 0.77450
 C236 C 0.44623 0.29831 0.78679
 N237 N 0.42333 0.27312 0.75141
 C238 C 0.43100 0.28412 0.82968
 C239 C 0.41140 0.23577 0.84108
 C240 C 0.39098 0.21601 0.88063
 C241 C 0.38258 0.16964 0.87981
 C242 C 0.39883 0.16253 0.84024
 N243 N 0.41549 0.20262 0.81655
 C244 C 0.40261 0.12175 0.82851
 H245 H 0.39657 0.03630 0.79055
 H246 H 0.39670 0.03730 0.70592
 H247 H 0.43472 0.20895 0.78795
 H248 H 0.36789 0.14815 0.59404
 H249 H 0.38519 0.23690 0.59406
 H250 H 0.51179 0.36674 0.70962
 H251 H 0.51139 0.36559 0.79533
 H252 H 0.36691 0.14423 0.90576
 H253 H 0.43494 0.20992 0.71306
 H254 H 0.38404 0.23290 0.90806
 C255 C 0.64908 0.14449 0.72600
 C256 C 0.64887 0.14398 0.77057
 C257 C 0.69305 0.15248 0.78344
 N258 N 0.72060 0.15904 0.74831
 C259 C 0.69339 0.15335 0.71316
 C260 C 0.70749 0.15319 0.82682
 C261 C 0.75315 0.18601 0.84021
 C262 C 0.77129 0.19022 0.88174
 C263 C 0.81355 0.23056 0.88230
 C264 C 0.82054 0.25025 0.84105
 N265 N 0.78347 0.22276 0.81581
 C266 C 0.85645 0.29534 0.82866
 C267 C 0.85996 0.31128 0.78528
 C268 C 0.87293 0.35739 0.77297
 C269 C 0.87320 0.35799 0.72841
 C270 C 0.86031 0.31222 0.71484
 N271 N 0.85143 0.28338 0.74967
 C272 C 0.85720 0.29747 0.67102
 C273 C 0.82129 0.25279 0.65747
 C274 C 0.81448 0.23440 0.61561
 C275 C 0.77224 0.19403 0.61529
 C276 C 0.75391 0.18851 0.65691
 N277 N 0.78409 0.22451 0.68220
 C278 C 0.70823 0.15516 0.66973
 H279 H 0.62050 0.14099 0.70555
 H280 H 0.62011 0.14007 0.79105
 H281 H 0.77690 0.23272 0.71305
 H282 H 0.75522 0.16877 0.90995
 H283 H 0.83451 0.24445 0.91107
 H284 H 0.87903 0.38709 0.79371
 H285 H 0.87959 0.38826 0.70850
 H286 H 0.75628 0.17349 0.58654
 H287 H 0.77640 0.23198 0.78540
 H288 H 0.83550 0.24920 0.58704
 C289 C 0.05986 0.38887 0.11731
 C290 C 0.04155 0.42543 0.12422
 C291 C 0.06080 0.44660 0.07929
 C292 C 0.07887 0.41047 0.07179
 C293 C 0.10755 0.48166 0.09970
 C294 C 0.08870 0.46044 0.14483
 C295 C 0.10668 0.42381 0.13788
 C296 C 0.12601 0.44551 0.09275
 H297 H 0.04031 0.35055 0.12478
 H298 H 0.00658 0.41733 0.13711
 H299 H 0.07470 0.39011 0.04135
 H300 H 0.12710 0.51999 0.09218
 H301 H 0.09296 0.48184 0.17459
 H302 H 0.16108 0.45520 0.07917
 C303 C 0.59444 0.67156 0.10458
 C304 C 0.57982 0.61904 0.11458
 C305 C 0.54119 0.60409 0.08016
 C306 C 0.55562 0.65600 0.06945
 C307 C 0.50646 0.60333 0.11463
 C308 C 0.54525 0.61869 0.14937
 C309 C 0.55937 0.67098 0.13903
 C310 C 0.52084 0.65567 0.10431
 H311 H 0.63117 0.69931 0.10077
 H312 H 0.60412 0.60374 0.11846
 H313 H 0.55999 0.67106 0.03624
 H314 H 0.47012 0.57485 0.11878
 H315 H 0.54193 0.60172 0.18153
 H316 H 0.49642 0.67081 0.10024
 C317 C 0.34860 0.85567 0.09618
 C318 C 0.34372 0.89178 0.06580
 C319 C 0.39496 0.92716 0.07469
 C320 C 0.40025 0.89150 0.10459
 C321 C 0.38082 0.94796 0.11359
 C322 C 0.32904 0.91212 0.10541
 C323 C 0.33434 0.87618 0.13538
 C324 C 0.38592 0.91218 0.14383
 H325 H 0.33533 0.81745 0.08920
 H326 H 0.32662 0.88378 0.03340
 H327 H 0.42937 0.88240 0.10376
 H328 H 0.39413 0.98620 0.12048
 H329 H 0.29968 0.92090 0.10607
 H330 H 0.40534 0.92372 0.17493
 C331 C 0.91178 0.54477 0.64440
 C332 C 0.89358 0.52348 0.59912
 C333 C 0.94048 0.55880 0.57916
 C334 C 0.95908 0.58004 0.62424
 C335 C 0.92212 0.59463 0.57143
 C336 C 0.87483 0.55932 0.59193
 C337 C 0.89349 0.58108 0.63723
 C338 C 0.94047 0.61630 0.61713
 H339 H 0.90732 0.52346 0.67417
 H340 H 0.87433 0.48515 0.59141
 H341 H 0.99395 0.58839 0.63747
 H342 H 0.92653 0.61496 0.54102
 H343 H 0.83989 0.54930 0.57793
 H344 H 0.95967 0.65464 0.62475
 C345 C 0.40247 0.32472 0.60840
 C346 C 0.42038 0.37801 0.61779
 C347 C 0.45590 0.39010 0.58069
 C348 C 0.43814 0.33740 0.57056
 C349 C 0.49236 0.38987 0.61244
 C350 C 0.45670 0.37742 0.64986
 C351 C 0.43925 0.32433 0.64012
 C352 C 0.47466 0.33673 0.60271
 H353 H 0.36497 0.29838 0.60712
 H354 H 0.39794 0.39517 0.62369
 H355 H 0.43040 0.32122 0.53763
 H356 H 0.52953 0.41703 0.61408
 H357 H 0.46335 0.39593 0.68165
 H358 H 0.49717 0.31969 0.59665
 C359 C 0.62464 0.08147 0.64578
 C360 C 0.60247 0.10134 0.61268
 C361 C 0.61050 0.07266 0.57651
 C362 C 0.63226 0.05248 0.60931
 C363 C 0.65856 0.11421 0.56627
 C364 C 0.65088 0.14337 0.60281
 C365 C 0.67296 0.12367 0.63590
 C366 C 0.68089 0.09445 0.59977
 H367 H 0.60962 0.06575 0.67781
 H368 H 0.56979 0.10385 0.61804
 H369 H 0.62439 0.01483 0.61162
 H370 H 0.67231 0.12730 0.53322
 H371 H 0.65854 0.18094 0.60029
 H372 H 0.71289 0.09057 0.59474
 C373 C 0.43427 0.11472 0.90975
 C374 C 0.40299 0.06469 0.92845
 C375 C 0.44272 0.05213 0.92061
 C376 C 0.47407 0.10175 0.90247
 C377 C 0.42437 0.03352 0.87480
 C378 C 0.38416 0.04638 0.88194
 C379 C 0.41542 0.09613 0.86362
 C380 C 0.45561 0.08358 0.85645
 H381 H 0.44035 0.14841 0.92541
 H382 H 0.38149 0.05675 0.95843
 H383 H 0.51119 0.12464 0.91118
 H384 H 0.42048 -0.00004 0.86045
 H385 H 0.34700 0.02367 0.87331
 H386 H 0.47800 0.09165 0.82705
 C387 C 0.65187 0.59614 0.87897
 C388 C 0.60168 0.55461 0.87530
 C389 C 0.60432 0.54216 0.92310
 C390 C 0.65378 0.58348 0.92732
 C391 C 0.62400 0.50862 0.90959
 C392 C 0.62162 0.52105 0.86142
 C393 C 0.67140 0.56230 0.86507
 C394 C 0.67399 0.55017 0.91337
 H395 H 0.66373 0.63260 0.86667
 H396 H 0.57166 0.55652 0.85982
 H397 H 0.66659 0.60909 0.95472
 H398 H 0.61242 0.47243 0.92249
 H399 H 0.60832 0.49517 0.83425
 H400 H 0.70356 0.54932 0.93081
 C401 C 0.91293 0.31972 0.90150
 C402 C 0.95679 0.36772 0.89341
 C403 C 0.93685 0.39169 0.92420
 C404 C 0.89344 0.34437 0.93306
 C405 C 0.91232 0.40187 0.88601
 C406 C 0.93185 0.37735 0.85487
 C407 C 0.88779 0.32977 0.86331
 C408 C 0.86849 0.35421 0.89450
 H409 H 0.91469 0.28638 0.90762
 H410 H 0.99334 0.37347 0.89336
 H411 H 0.87793 0.33085 0.96552
 H412 H 0.91231 0.43605 0.87963
 H413 H 0.94966 0.39173 0.82342
 H414 H 0.83205 0.34878 0.89479
 C415 C 0.58417 0.95092 0.35494
 C416 C 0.53663 0.93047 0.37859
 C417 C 0.56216 0.94917 0.42193
 C418 C 0.60955 0.97023 0.39873
 C419 C 0.56384 0.90257 0.42996
 C420 C 0.53810 0.88348 0.38635
 C421 C 0.58534 0.90363 0.36256
 C422 C 0.61150 0.92314 0.40600
 H423 H 0.59346 0.97217 0.32462
 H424 H 0.50621 0.93434 0.36686
 H425 H 0.63883 1.00620 0.40421
 H426 H 0.55559 0.88267 0.46105
 H427 H 0.50838 0.84770 0.38124
 H428 H 0.64398 0.92330 0.41762
 C429 C 0.32328 0.44721 0.41376
 C430 C 0.34181 0.41253 0.42757
 C431 C 0.39194 0.45261 0.42342
 C432 C 0.37391 0.48749 0.41003
 C433 C 0.39414 0.43980 0.37558
 C434 C 0.34326 0.39952 0.37917
 C435 C 0.32542 0.43473 0.36541
 C436 C 0.37586 0.47472 0.36184
 H437 H 0.29428 0.44926 0.43125
 H438 H 0.32822 0.38700 0.45489
 H439 H 0.38668 0.52389 0.42300
 H440 H 0.42354 0.43664 0.36006
 H441 H 0.33024 0.36289 0.36674
 H442 H 0.38994 0.50051 0.33474
 C443 C 0.07032 0.63200 0.35474
 C444 C 0.08963 0.60640 0.38455
 C445 C 0.06658 0.61698 0.42385
 C446 C 0.04690 0.64210 0.39435
 C447 C 0.11091 0.66365 0.43240
 C448 C 0.13434 0.65332 0.39280
 C449 C 0.11527 0.67888 0.36290
 C450 C 0.09165 0.68944 0.40218
 H451 H 0.05166 0.61828 0.32351
 H452 H 0.08857 0.57185 0.37738
 H453 H 0.01067 0.63724 0.39543
 H454 H 0.12733 0.67657 0.46468
 H455 H 0.17044 0.65780 0.39201
 H456 H 0.09049 0.72293 0.40929
 C457 C 0.87385 0.55490 0.91277
 C458 C 0.88677 0.51412 0.90929
 C459 C 0.93711 0.54868 0.92243
 C460 C 0.92452 0.58926 0.92634
 C461 C 0.95086 0.56080 0.87448
 C462 C 0.90024 0.52620 0.86100
 C463 C 0.88726 0.56667 0.86433
 C464 C 0.93771 0.60157 0.87783
 H465 H 0.84319 0.55343 0.93022
 H466 H 0.86580 0.47793 0.92250
 H467 H 0.93486 0.61514 0.95349
 H468 H 0.98289 0.56333 0.85890
 H469 H 0.89014 0.50006 0.83407
 H470 H 0.95867 0.63799 0.86513
 C471 C 0.45510 0.37458 0.85528
 C472 C 0.41822 0.37413 0.88738
 C473 C 0.45339 0.38571 0.92466
 C474 C 0.49042 0.38656 0.89291
 C475 C 0.43596 0.33292 0.93377
 C476 C 0.40067 0.32073 0.89568
 C477 C 0.43798 0.32137 0.86390
 C478 C 0.47302 0.33327 0.90153
 H479 H 0.46198 0.39372 0.82389
 H480 H 0.39552 0.39103 0.88183
 H481 H 0.52754 0.41401 0.89182
 H482 H 0.42798 0.31607 0.96636
 H483 H 0.36325 0.29411 0.89642
 H484 H 0.49572 0.31639 0.90715
 C485 C 0.62323 0.07973 0.84972
 C486 C 0.63020 0.04964 0.88533
 C487 C 0.60895 0.06973 0.91891
 C488 C 0.60155 0.09951 0.88360
 C489 C 0.65731 0.11052 0.92965
 C490 C 0.67916 0.09087 0.89536
 C491 C 0.67187 0.12120 0.86010
 C492 C 0.65027 0.14078 0.89398
 H493 H 0.60809 0.06470 0.81751
 H494 H 0.62173 0.01188 0.88214
 H495 H 0.56922 0.10272 0.87865
 H496 H 0.67113 0.12281 0.96286
 H497 H 0.71080 0.08628 0.89989
 H498 H 0.65852 0.17847 0.89739
 C499 C 0.10141 0.48043 0.36203
 C500 C 0.05064 0.44644 0.37565
 C501 C 0.06463 0.45869 0.42357
 C502 C 0.11508 0.49272 0.41031
 C503 C 0.07648 0.41765 0.42746
 C504 C 0.06310 0.40520 0.37896
 C505 C 0.11370 0.43947 0.36531
 C506 C 0.12730 0.45143 0.41372
 H507 H 0.11176 0.50643 0.33506
 H508 H 0.01881 0.44427 0.36005
 H509 H 0.13650 0.52894 0.42341
 H510 H 0.06592 0.39189 0.45463
 H511 H 0.04172 0.36881 0.36627
 H512 H 0.15774 0.45252 0.43116
 C513 C 0.59713 0.67632 0.39688
 C514 C 0.55959 0.66253 0.43315
 C515 C 0.54433 0.61013 0.42381
 C516 C 0.58169 0.62334 0.38827
 C517 C 0.50858 0.60838 0.39011
 C518 C 0.52379 0.66123 0.39904
 C519 C 0.56106 0.67475 0.36319
 C520 C 0.54610 0.62196 0.35426
 H521 H 0.63408 0.70393 0.39932
 H522 H 0.56524 0.67893 0.46594
 H523 H 0.60560 0.60758 0.38418
 H524 H 0.47196 0.58002 0.38743
 H525 H 0.49980 0.67687 0.40329
 H526 H 0.54155 0.60352 0.32264
 C527 C 0.33158 0.91582 0.38903
 C528 C 0.34560 0.89567 0.42905
 C529 C 0.39710 0.93001 0.41997
 C530 C 0.38362 0.95063 0.38066
 C531 C 0.40149 0.89326 0.39067
 C532 C 0.34958 0.85847 0.39928
 C533 C 0.33596 0.87878 0.35965
 C534 C 0.38782 0.91376 0.35100
 H535 H 0.30279 0.92544 0.38802
 H536 H 0.32850 0.88861 0.46145
 H537 H 0.39769 0.98883 0.37326
 H538 H 0.42999 0.88328 0.39185
 H539 H 0.33556 0.82030 0.40678
 H540 H 0.40734 0.92448 0.31990
 C541 C 0.60964 0.91873 0.09091
 C542 C 0.56183 0.89841 0.06730
 C543 C 0.56099 0.94555 0.07478
 C544 C 0.60853 0.96632 0.09768
 C545 C 0.53573 0.92789 0.11841
 C546 C 0.53633 0.88038 0.11117
 C547 C 0.58371 0.90032 0.13461
 C548 C 0.58339 0.94813 0.14171
 H549 H 0.64170 0.91797 0.07922
 H550 H 0.55305 0.87801 0.03641
 H551 H 0.63813 1.00195 0.09174
 H552 H 0.50568 0.93249 0.13012
 H553 H 0.50629 0.84492 0.11674
 H554 H 0.59318 0.96996 0.17177
 C555 C 0.32103 0.44226 0.09374
 C556 C 0.37278 0.47770 0.10153
 C557 C 0.38701 0.44240 0.08110
 C558 C 0.33565 0.40697 0.07278
 C559 C 0.38556 0.42046 0.12586
 C560 C 0.37088 0.45573 0.14650
 C561 C 0.31915 0.41983 0.13871
 C562 C 0.33354 0.38461 0.11815
 H563 H 0.29553 0.45264 0.07987
 H564 H 0.38905 0.51613 0.09440
 H565 H 0.32150 0.38710 0.04206
 H566 H 0.41249 0.41169 0.13899
 H567 H 0.38591 0.47660 0.17659
 H568 H 0.31714 0.34616 0.12519
 C569 C 0.09055 0.68346 0.09635
 C570 C 0.10944 0.65617 0.06749
 C571 C 0.06496 0.61004 0.07722
 C572 C 0.04565 0.63667 0.10538
 C573 C 0.08800 0.60096 0.11724
 C574 C 0.13287 0.64735 0.10780
 C575 C 0.11419 0.67444 0.13636
 C576 C 0.06908 0.62811 0.14573
 H577 H 0.08948 0.71667 0.08786
 H578 H 0.12581 0.66763 0.03498
 H579 H 0.00949 0.63198 0.10399
 H580 H 0.08664 0.56662 0.12586
 H581 H 0.16889 0.65163 0.10890
 H582 H 0.05062 0.61590 0.17726
 C583 C 0.45595 0.08605 0.64083
 C584 C 0.42464 0.03639 0.62166
 C585 C 0.44311 0.05568 0.57608
 C586 C 0.47449 0.10495 0.59506
 C587 C 0.40347 0.06854 0.56899
 C588 C 0.38454 0.04947 0.61524
 C589 C 0.41586 0.09885 0.63439
 C590 C 0.43482 0.11821 0.58850
 H591 H 0.47829 0.09354 0.67016
 H592 H 0.42065 0.00254 0.63521
 H593 H 0.51165 0.12781 0.58646
 H594 H 0.38206 0.06116 0.53905
 H595 H 0.34735 0.02666 0.62374
 H596 H 0.44100 0.15219 0.57357
 C597 C 0.66164 0.61131 0.61812
 C598 C 0.66019 0.58921 0.57265
 C599 C 0.60926 0.55257 0.58103
 C600 C 0.61007 0.57425 0.62589
 C601 C 0.62492 0.51836 0.60120
 C602 C 0.67627 0.55502 0.59336
 C603 C 0.67747 0.57720 0.63844
 C604 C 0.62617 0.54007 0.64627
 H605 H 0.67700 0.64970 0.62529
 H606 H 0.67384 0.60920 0.54196
 H607 H 0.58244 0.58194 0.63922
 H608 H 0.60970 0.48000 0.59392
 H609 H 0.70254 0.54574 0.57935
 H610 H 0.61166 0.51905 0.67632
 C611 C 0.93320 0.37995 0.64682
 C612 C 0.95794 0.37138 0.60735
 C613 C 0.93840 0.39677 0.57801
 C614 C 0.91407 0.40586 0.61716
 C615 C 0.89470 0.34997 0.56815
 C616 C 0.91382 0.32392 0.59817
 C617 C 0.88887 0.33292 0.63727
 C618 C 0.86997 0.35878 0.60758
 H619 H 0.95091 0.39302 0.67856
 H620 H 0.99438 0.37683 0.60685
 H621 H 0.91453 0.44000 0.62504
 H622 H 0.87914 0.33771 0.53546
 H623 H 0.91534 0.29070 0.59055
 H624 H 0.83365 0.35370 0.60779
   
