data_POSCAR
  _audit_creation_date              2014-09-24
  _audit_creation_method            'ToBaCCo'
  _symmetry_space_group_name_H-M    'P1'
  _symmetry_Int_Tables_number       1
  _symmetry_cell_setting            triclinic
  loop_
  _symmetry_equiv_pos_as_xyz
 x,y,z
_cell_length_a 11.8017
_cell_length_b 10.9407
_cell_length_c 19.0732
_cell_angle_alpha 78.298500
_cell_angle_beta 87.654700
_cell_angle_gamma 56.676900
loop_
  _atom_site_label
  _atom_site_type_symbol
  _atom_site_fract_x
  _atom_site_fract_y
  _atom_site_fract_z
O1 O -0.10044 0.69565 0.92129
 O2 O -0.13562 0.45051 1.07146
 O3 O -0.04985 0.62760 1.06025
 O4 O -0.18735 0.51893 0.93284
 O5 O 0.02090 0.33098 0.92237
 O6 O 0.15837 0.44003 1.04940
 O7 O 0.07241 0.26205 1.06134
 O8 O 0.10753 0.50686 0.91108
 Cu9 Cu -0.13925 0.59211 0.99748
 Cu10 Cu 0.11070 0.36589 0.98514
 C11 C 0.00988 0.64301 0.89090
 C12 C -0.03792 0.31428 1.09173
 C13 C 0.07772 0.55283 1.07610
 C14 C -0.10655 0.40633 0.90605
 O15 O 0.60589 -0.03610 0.58089
 O16 O 0.47626 -0.20275 0.48589
 O17 O 0.69494 -0.20582 0.48823
 O18 O 0.38207 -0.03697 0.58164
 O19 O 0.28499 0.16607 0.49423
 O20 O 0.60011 -0.00047 0.40218
 O21 O 0.37711 0.00082 0.39882
 O22 O 0.49992 0.17008 0.49560
 Cu23 Cu 0.54871 -0.14013 0.54344
 Cu24 Cu 0.43120 0.10392 0.43865
 C25 C 0.57457 0.09598 0.55424
 C26 C 0.40582 -0.12983 0.42596
 C27 C 0.70067 -0.13161 0.42935
 C28 C 0.28046 0.09279 0.55386
 Si29 Si 0.08395 -0.17274 0.26791
 Si30 Si -0.10688 0.13390 0.71213
 C31 C 0.13230 -0.40218 0.12604
 C32 C 0.26887 -0.46454 0.14170
 C33 C 0.27380 -0.39248 0.19085
 C34 C 0.14006 -0.29225 0.20152
 O35 O 0.05389 -0.29740 0.16212
 H36 H 0.35435 -0.55246 0.12019
 H37 H 0.36422 -0.41222 0.21641
 C38 C -0.05214 0.22027 0.14722
 C39 C -0.16761 0.26319 0.18339
 C40 C -0.13949 0.13660 0.23083
 C41 C -0.00909 0.02614 0.22021
 O42 O 0.04423 0.07662 0.16962
 H43 H -0.26151 0.37303 0.17558
 H44 H -0.20702 0.12717 0.26811
 C45 C 0.15537 0.15925 0.59073
 C46 C 0.05937 0.31087 0.58020
 C47 C -0.04198 0.32410 0.62149
 C48 C -0.00031 0.17973 0.65395
 O49 O 0.12001 0.07910 0.63575
 H50 H 0.06378 0.40048 0.54688
 H51 H -0.13544 0.42668 0.62713
 C52 C -0.37572 0.16017 0.58853
 C53 C -0.41953 0.30894 0.56936
 C54 C -0.33901 0.32325 0.61139
 C55 C -0.25200 0.18230 0.65305
 O56 O -0.27455 0.08283 0.63995
 H57 H -0.50061 0.39599 0.52946
 H58 H -0.34121 0.42362 0.61050
 C59 C 0.02542 -0.25828 0.83241
 C60 C 0.14150 -0.30209 0.79689
 C61 C 0.11473 -0.17590 0.74964
 C62 C -0.01568 -0.06477 0.75981
 O63 O -0.07018 -0.11447 0.80998
 H64 H 0.23496 -0.41232 0.80515
 H65 H 0.18311 -0.16707 0.71280
 C66 C -0.16036 0.36254 0.85505
 C67 C -0.29669 0.42898 0.83627
 C68 C -0.30013 0.35777 0.78619
 C69 C -0.16584 0.25376 0.77834
 O70 O -0.08080 0.25612 0.82006
 H71 H -0.38288 0.51957 0.85602
 H72 H -0.38969 0.38095 0.75785
 C73 C -0.17395 -0.19846 0.39272
 C74 C -0.07514 -0.34965 0.40568
 C75 C 0.02554 -0.36294 0.36378
 C76 C -0.01947 -0.21909 0.32847
 O77 O -0.14094 -0.11875 0.34561
 H78 H -0.07709 -0.43896 0.44114
 H79 H 0.12086 -0.46502 0.35973
 C80 C 0.35586 -0.19751 0.38819
 C81 C 0.41136 -0.34900 0.40070
 C82 C 0.32952 -0.36364 0.35977
 C83 C 0.23134 -0.22004 0.32467
 O84 O 0.24689 -0.11851 0.34167
 H85 H 0.50069 -0.43739 0.43564
 H86 H 0.33907 -0.46641 0.35660
   
