data_POSCAR
  _audit_creation_date              2014-09-24
  _audit_creation_method            'ToBaCCo'
  _symmetry_space_group_name_H-M    'P1'
  _symmetry_Int_Tables_number       1
  _symmetry_cell_setting            triclinic
  loop_
  _symmetry_equiv_pos_as_xyz
 x,y,z
_cell_length_a 51.8535
_cell_length_b 51.8544
_cell_length_c 51.8349
_cell_angle_alpha 92.205300
_cell_angle_beta 90.250500
_cell_angle_gamma 90.077200
loop_
  _atom_site_label
  _atom_site_type_symbol
  _atom_site_fract_x
  _atom_site_fract_y
  _atom_site_fract_z
C1 C 0.21027 0.52355 1.03012
 H2 H 0.21010 0.53638 1.01415
 C3 C 0.19195 0.52645 1.04966
 H4 H 0.17768 0.54165 1.04879
 C5 C 0.22832 0.48729 1.05010
 H6 H 0.24206 0.47164 1.04982
 C7 C 0.21032 0.48949 1.07005
 H8 H 0.21044 0.47564 1.08519
 N9 N 0.22792 0.50418 1.03064
 C10 C 0.28913 0.52742 0.97903
 H11 H 0.28929 0.51081 0.96574
 C12 C 0.30734 0.54700 0.97662
 H13 H 0.32156 0.54556 0.96137
 C14 C 0.27113 0.54909 1.01586
 H15 H 0.25741 0.54948 1.03149
 C16 C 0.28905 0.56910 1.01415
 H17 H 0.28897 0.58499 1.02834
 Zn18 Zn 0.24972 0.49986 1.00165
 N19 N 0.27152 0.52878 0.99841
 C20 C 0.22834 0.51228 0.95297
 N21 N 0.22792 0.49543 0.97247
 C22 C 0.21027 0.47601 0.97286
 C23 C 0.19198 0.47301 0.95313
 C24 C 0.21036 0.50995 0.93284
 C25 C 0.28912 0.47235 1.02464
 C26 C 0.30735 0.45284 1.02715
 C27 C 0.28914 0.43083 0.98933
 C28 C 0.27119 0.45078 0.98753
 N29 N 0.27154 0.47101 1.00507
 H30 H 0.24208 0.52796 0.95334
 H31 H 0.21008 0.46321 0.98885
 H32 H 0.17770 0.45779 0.95383
 H33 H 0.21045 0.52372 0.91764
 H34 H 0.28925 0.48891 1.03799
 H35 H 0.32155 0.45427 1.04254
 H36 H 0.28911 0.41502 0.97506
 H37 H 0.25751 0.45040 0.97175
 C38 C 0.30741 0.56792 0.99444
 C39 C 0.19184 0.50912 1.06969
 C40 C 0.30747 0.43200 1.00923
 C41 C 0.19191 0.49026 0.93306
 C42 C 0.78902 0.52321 -0.02814
 H43 H 0.78924 0.53654 -0.01156
 C44 C 0.80724 0.52561 -0.04764
 H45 H 0.82150 0.54089 -0.04618
 C46 C 0.77092 0.48626 -0.04977
 H47 H 0.75717 0.47058 -0.05018
 C48 C 0.78884 0.48796 -0.06971
 H49 H 0.78871 0.47370 -0.08554
 N50 N 0.77138 0.50376 -0.02950
 C51 C 0.71035 0.52894 0.02320
 H52 H 0.71023 0.51293 0.03598
 C53 C 0.69208 0.54856 0.02621
 H54 H 0.67787 0.54776 0.04142
 C55 C 0.72824 0.54896 -0.01304
 H56 H 0.74190 0.54868 -0.02872
 C57 C 0.71027 0.56898 -0.01072
 H58 H 0.71029 0.58419 -0.02447
 Zn59 Zn 0.74967 0.50040 -0.00061
 N60 N 0.72791 0.52945 0.00380
 C61 C 0.77126 0.51450 0.04863
 N62 N 0.77157 0.49705 0.02831
 C63 C 0.78916 0.47760 0.02696
 C64 C 0.80744 0.47514 0.04655
 C65 C 0.78925 0.51273 0.06864
 C66 C 0.71008 0.47184 -0.02443
 C67 C 0.69174 0.45220 -0.02743
 C68 C 0.71028 0.43177 0.00944
 C69 C 0.72829 0.45180 0.01177
 N70 N 0.72782 0.47133 -0.00505
 H71 H 0.75756 0.53018 0.04902
 H72 H 0.78926 0.46432 0.01035
 H73 H 0.82164 0.45985 0.04511
 H74 H 0.78923 0.52693 0.08453
 H75 H 0.70985 0.48786 -0.03720
 H76 H 0.67738 0.45300 -0.04262
 H77 H 0.71041 0.41654 0.02318
 H78 H 0.74211 0.45208 0.02743
 C79 C 0.69193 0.56863 0.00897
 C80 C 0.80726 0.50771 -0.06850
 C81 C 0.69173 0.43211 -0.01021
 C82 C 0.80759 0.49297 0.06747
 C83 C -0.02221 0.28920 0.46169
 H84 H -0.03565 0.28937 0.47760
 C85 C -0.02454 0.30733 0.44262
 H86 H -0.03993 0.32146 0.44379
 C87 C 0.01500 0.27133 0.44144
 H88 H 0.03075 0.25771 0.44145
 C89 C 0.01339 0.28917 0.42195
 H90 H 0.02781 0.28906 0.40687
 N91 N -0.00265 0.27173 0.46082
 C92 C -0.02768 0.21111 0.51095
 H93 H -0.01166 0.21131 0.52440
 C94 C -0.04720 0.19275 0.51284
 H95 H -0.04631 0.17880 0.52785
 C96 C -0.04786 0.22830 0.47422
 H97 H -0.04767 0.24175 0.45882
 C98 C -0.06780 0.21021 0.47541
 H99 H -0.08305 0.20990 0.46105
 Zn100 Zn 0.00062 0.25031 0.48932
 N101 N -0.02832 0.22838 0.49186
 C102 C -0.01389 0.27225 0.53839
 N103 N 0.00371 0.27250 0.51898
 C104 C 0.02317 0.29014 0.51915
 C105 C 0.02553 0.30849 0.53943
 C106 C -0.01224 0.29031 0.55906
 C107 C 0.02946 0.21063 0.46596
 C108 C 0.04897 0.19216 0.46373
 C109 C 0.06885 0.21101 0.50229
 C110 C 0.04896 0.22915 0.50382
 N111 N 0.02974 0.22857 0.48583
 H112 H -0.02958 0.25853 0.53758
 H113 H 0.03659 0.29018 0.50323
 H114 H 0.04086 0.32270 0.53923
 H115 H -0.02654 0.29031 0.57424
 H116 H 0.01367 0.21030 0.45225
 H117 H 0.04830 0.17760 0.44818
 H118 H 0.08378 0.21120 0.51699
 H119 H 0.04848 0.24310 0.51983
 C120 C -0.06733 0.19218 0.49480
 C121 C -0.00645 0.30746 0.42269
 C122 C 0.06870 0.19222 0.48220
 C123 C 0.00757 0.30867 0.55947
 C124 C 0.97715 0.71098 0.53726
 H125 H 0.96375 0.71071 0.52120
 C126 C 0.97474 0.69294 0.55640
 H127 H 0.95937 0.67876 0.55517
 C128 C 1.01431 0.72901 0.55789
 H129 H 1.03008 0.74266 0.55801
 C130 C 1.01261 0.71126 0.57744
 H131 H 1.02694 0.71140 0.59271
 N132 N 0.99672 0.72850 0.53830
 C133 C 0.97165 0.78892 0.48781
 H134 H 0.98763 0.78875 0.47445
 C135 C 0.95214 0.80724 0.48581
 H136 H 0.95299 0.82118 0.47079
 C137 C 0.95160 0.77174 0.52447
 H138 H 0.95184 0.75832 0.53990
 C139 C 0.93167 0.78979 0.52316
 H140 H 0.91648 0.79008 0.53744
 Zn141 Zn 1.00003 0.74985 0.50977
 N142 N 0.97108 0.77168 0.50693
 C143 C 0.98563 0.72770 0.46057
 N144 N 1.00316 0.72757 0.48021
 C145 C 1.02260 0.70998 0.48035
 C146 C 1.02502 0.69155 0.46018
 C147 C 0.98734 0.70956 0.44000
 C148 C 1.02893 0.78964 0.53331
 C149 C 1.04845 0.80816 0.53565
 C150 C 1.06827 0.78927 0.49727
 C151 C 1.04836 0.77108 0.49563
 N152 N 1.02916 0.77167 0.51348
 H153 H 0.96995 0.74140 0.46113
 H154 H 1.03596 0.71004 0.49645
 H155 H 1.04034 0.67739 0.46064
 H156 H 0.97311 0.70947 0.42463
 H157 H 1.01315 0.78997 0.54690
 H158 H 1.04782 0.82275 0.55116
 H159 H 1.08318 0.78908 0.48268
 H160 H 1.04785 0.75710 0.47965
 C161 C 0.93208 0.80780 0.50375
 C162 C 0.99274 0.69296 0.57654
 C163 C 1.06815 0.80811 0.51732
 C164 C 1.00713 0.69125 0.43991
 C165 C 0.47059 -0.01277 0.28887
 H166 H 0.48653 -0.02621 0.28868
 C167 C 0.45100 -0.01481 0.30706
 H168 H 0.45175 -0.02995 0.32088
 C169 C 0.45064 0.02408 0.27181
 H170 H 0.45093 0.03957 0.25847
 C171 C 0.43066 0.02275 0.28973
 H172 H 0.41548 0.03708 0.29001
 N173 N 0.47008 0.00644 0.27173
 C174 C 0.52135 -0.02004 0.20986
 H175 H 0.53467 -0.00396 0.20996
 C176 C 0.52373 -0.04013 0.19134
 H177 H 0.53901 -0.03957 0.17717
 C178 C 0.48452 -0.03986 0.22758
 H179 H 0.46891 -0.03935 0.24132
 C180 C 0.48618 -0.06037 0.20935
 H181 H 0.47195 -0.07570 0.20929
 Zn182 Zn 0.49896 0.00924 0.24989
 N183 N 0.50200 -0.02025 0.22749
 C184 C 0.54738 -0.00516 0.27094
 N185 N 0.52820 0.01275 0.27168
 C186 C 0.52814 0.03253 0.28971
 C187 C 0.54786 0.03478 0.30810
 C188 C 0.56747 -0.00363 0.28899
 C189 C 0.47600 0.03685 0.21104
 C190 C 0.47354 0.05600 0.19301
 C191 C 0.51139 0.07697 0.21145
 C192 C 0.51314 0.05740 0.22918
 N193 N 0.49559 0.03783 0.22860
 H194 H 0.54674 -0.02111 0.25692
 H195 H 0.51238 0.04620 0.29016
 H196 H 0.54739 0.05027 0.32271
 H197 H 0.58237 -0.01826 0.28867
 H198 H 0.46263 0.02081 0.21072
 H199 H 0.45817 0.05481 0.17879
 H200 H 0.52570 0.09222 0.21164
 H201 H 0.52892 0.05748 0.24286
 C202 C 0.50588 -0.06040 0.19097
 C203 C 0.43097 0.00321 0.30760
 C204 C 0.49151 0.07612 0.19309
 C205 C 0.56756 0.01639 0.30786
 C206 C 0.53023 -0.03286 0.70994
 H207 H 0.51451 -0.04660 0.70951
 C208 C 0.54981 -0.03504 0.69158
 H209 H 0.54927 -0.05059 0.67701
 C210 C 0.54950 0.00501 0.72861
 H211 H 0.54891 0.02099 0.74258
 C212 C 0.56945 0.00353 0.71059
 H213 H 0.58431 0.01825 0.71088
 N214 N 0.53036 -0.01301 0.72790
 C215 C 0.47847 -0.03704 0.78843
 H216 H 0.46510 -0.02104 0.78862
 C217 C 0.47609 -0.05612 0.80653
 H218 H 0.46076 -0.05491 0.82067
 C219 C 0.51555 -0.05756 0.77055
 H220 H 0.53127 -0.05765 0.75694
 C221 C 0.51386 -0.07705 0.78837
 H222 H 0.52817 -0.09226 0.78831
 Zn223 Zn 0.50124 -0.00953 0.74957
 N224 N 0.49799 -0.03805 0.77096
 C225 C 0.45275 -0.02456 0.72758
 N226 N 0.47222 -0.00691 0.72763
 C227 C 0.47263 0.01226 0.71043
 C228 C 0.45289 0.01426 0.69224
 C229 C 0.43261 -0.02326 0.70965
 C230 C 0.52379 0.02001 0.78959
 C231 C 0.52617 0.04017 0.80807
 C232 C 0.48847 0.06008 0.78987
 C233 C 0.48679 0.03953 0.77168
 N234 N 0.50435 0.02003 0.77188
 H235 H 0.45311 -0.04001 0.74096
 H236 H 0.48860 0.02572 0.71060
 H237 H 0.45355 0.02938 0.67840
 H238 H 0.41738 -0.03758 0.70942
 H239 H 0.53718 0.00402 0.78959
 H240 H 0.54149 0.03980 0.82233
 H241 H 0.47420 0.07533 0.78990
 H242 H 0.47110 0.03887 0.75789
 C243 C 0.49405 -0.07618 0.80663
 C244 C 0.56945 -0.01654 0.69178
 C245 C 0.50826 0.06028 0.80830
 C246 C 0.43280 -0.00375 0.69175
 C247 C 0.22122 -0.02262 0.50456
 C248 C 0.23484 0.00008 0.49975
 C249 C 0.22134 0.02284 0.49493
 C250 C 0.19433 0.02293 0.49514
 C251 C 0.18081 0.00019 0.49974
 C252 C 0.19421 -0.02261 0.50433
 C253 C 0.26319 0.00002 0.49976
 C254 C 0.27667 0.00107 0.47640
 C255 C 0.30367 0.00078 0.47640
 C256 C 0.31723 -0.00008 0.49977
 C257 C 0.30385 -0.00088 0.52313
 C258 C 0.27685 -0.00107 0.52312
 H259 H 0.23163 -0.04026 0.50814
 H260 H 0.23183 0.04043 0.49135
 H261 H 0.26615 0.00178 0.45832
 H262 H 0.26647 -0.00173 0.54120
 H263 H 0.15989 0.00023 0.49973
 H264 H 0.33815 -0.00012 0.49978
 C265 C 0.77715 -0.02328 0.50113
 C266 C 0.76362 0.00005 0.49966
 C267 C 0.77722 0.02337 0.49810
 C268 C 0.80423 0.02334 0.49824
 C269 C 0.81764 0.00001 0.49947
 C270 C 0.80415 -0.02329 0.50080
 C271 C 0.73527 0.00007 0.49970
 C272 C 0.72182 -0.00453 0.52250
 C273 C 0.69482 -0.00430 0.52258
 C274 C 0.68122 0.00007 0.49976
 C275 C 0.69458 0.00444 0.47692
 C276 C 0.72158 0.00467 0.47693
 H277 H 0.76669 -0.04132 0.50219
 H278 H 0.76681 0.04142 0.49709
 H279 H 0.73237 -0.00795 0.54015
 H280 H 0.73194 0.00808 0.45925
 H281 H 0.83856 -0.00000 0.49939
 H282 H 0.66030 0.00007 0.49979
 C283 C 0.52284 0.27787 0.99567
 C284 C 0.49985 0.26440 0.99991
 C285 C 0.47677 0.27805 1.00387
 C286 C 0.47665 0.30504 1.00335
 C287 C 0.49967 0.31842 0.99937
 C288 C 0.52278 0.30487 0.99565
 C289 C 0.49995 0.23605 1.00018
 C290 C 0.49632 0.22357 1.02344
 C291 C 0.49663 0.19657 1.02371
 C292 C 0.50010 0.18202 1.00068
 C293 C 0.50349 0.19440 0.97740
 C294 C 0.50366 0.22139 0.97718
 H295 H 0.54073 0.26737 0.99277
 H296 H 0.45895 0.26768 1.00697
 H297 H 0.49360 0.23485 1.04127
 H298 H 0.50631 0.23099 0.95916
 H299 H 0.49961 0.33933 0.99916
 H300 H 0.50014 0.16111 1.00086
 C301 C 0.52309 0.72267 0.00431
 C302 C 0.49999 0.73613 0.00065
 C303 C 0.47674 0.72249 -0.00258
 C304 C 0.47658 0.69551 -0.00197
 C305 C 0.49970 0.68214 0.00147
 C306 C 0.52296 0.69568 0.00450
 C307 C 0.50013 0.76447 0.00027
 C308 C 0.49716 0.77684 -0.02316
 C309 C 0.49744 0.80383 -0.02351
 C310 C 0.50030 0.81847 -0.00040
 C311 C 0.50307 0.80619 0.02303
 C312 C 0.50320 0.77920 0.02335
 H313 H 0.54109 0.73318 0.00669
 H314 H 0.45885 0.73287 -0.00526
 H315 H 0.49490 0.76548 -0.04103
 H316 H 0.50537 0.76967 0.04149
 H317 H 0.49959 0.66123 0.00178
 H318 H 0.50033 0.83938 -0.00066
 C319 C 1.00419 0.52258 0.27842
 C320 C 1.00100 0.49949 0.26374
 C321 C 0.99789 0.47614 0.27617
 C322 C 0.99817 0.47586 0.30318
 C323 C 1.00114 0.49897 0.31777
 C324 C 1.00404 0.52234 0.30542
 C325 C 1.00086 0.49980 0.23539
 C326 C 1.02394 0.50350 0.22199
 C327 C 1.02381 0.50364 0.19498
 C328 C 1.00057 0.50051 0.18137
 C329 C 0.97747 0.49704 0.19469
 C330 C 0.97763 0.49647 0.22167
 H331 H 1.00645 0.54067 0.26884
 H332 H 0.99554 0.45826 0.26485
 H333 H 1.04192 0.50595 0.23256
 H334 H 0.95975 0.49377 0.23201
 H335 H 1.00117 0.49878 0.33869
 H336 H 1.00046 0.50078 0.16045
 C337 C -0.00318 0.52310 0.72387
 C338 C 0.00005 0.49973 0.73628
 C339 C 0.00336 0.47670 0.72157
 C340 C 0.00320 0.47701 0.69457
 C341 C 0.00019 0.50039 0.68225
 C342 C -0.00288 0.52344 0.69687
 C343 C -0.00005 0.49938 0.76462
 C344 C -0.02321 0.50292 0.77819
 C345 C -0.02332 0.50236 0.80518
 C346 C -0.00023 0.49869 0.81865
 C347 C 0.02294 0.49536 0.80518
 C348 C 0.02301 0.49548 0.77817
 H349 H -0.00560 0.54093 0.73521
 H350 H 0.00572 0.45861 0.73112
 H351 H -0.04107 0.50579 0.76774
 H352 H 0.04095 0.49288 0.76772
 H353 H 0.00023 0.50063 0.66134
 H354 H -0.00030 0.49844 0.83956
 C355 C 0.15267 0.08878 0.48477
 C356 C 0.15959 0.11224 0.49790
 C357 C 0.14341 0.13423 0.49623
 C358 C 0.12042 0.13263 0.48141
 C359 C 0.11394 0.10941 0.46759
 C360 C 0.13010 0.08742 0.46929
 C361 C 0.12309 0.06435 0.45550
 C362 C 0.10076 0.06306 0.44045
 C363 C 0.08496 0.08457 0.43878
 C364 C 0.09137 0.10752 0.45216
 C365 C 0.15059 0.15739 0.50973
 C366 C 0.17315 0.15881 0.52443
 C367 C 0.18898 0.13731 0.52605
 C368 C 0.18237 0.11424 0.51299
 C369 C 0.10283 0.15439 0.48129
 C370 C 0.08761 0.17195 0.48153
 C371 C 0.16809 0.06577 0.48802
 C372 C 0.18035 0.04637 0.49108
 H373 H 0.13478 0.04712 0.45615
 H374 H 0.09570 0.04527 0.43001
 H375 H 0.06764 0.08347 0.42705
 H376 H 0.07849 0.12374 0.45021
 H377 H 0.13891 0.17463 0.50901
 H378 H 0.17837 0.17669 0.53461
 H379 H 0.20649 0.13852 0.53749
 H380 H 0.19531 0.09805 0.51480
 C381 C 0.58952 0.65405 0.01140
 C382 C 0.61077 0.65865 -0.00487
 C383 C 0.63270 0.64224 -0.00434
 C384 C 0.63325 0.62138 0.01248
 C385 C 0.61238 0.61733 0.02939
 C386 C 0.59044 0.63372 0.02884
 C387 C 0.56971 0.62915 0.04576
 C388 C 0.57063 0.60898 0.06274
 C389 C 0.59207 0.59296 0.06328
 C390 C 0.61276 0.59698 0.04683
 C391 C 0.65360 0.64705 -0.02096
 C392 C 0.65287 0.66751 -0.03761
 C393 C 0.63144 0.68356 -0.03811
 C394 C 0.61056 0.67926 -0.02198
 C395 C 0.65468 0.60337 0.01159
 C396 C 0.67197 0.58785 0.01054
 C397 C 0.56628 0.66945 0.00939
 C398 C 0.54667 0.68169 0.00736
 H399 H 0.55263 0.64113 0.04609
 H400 H 0.55461 0.60578 0.07556
 H401 H 0.59270 0.57732 0.07651
 H402 H 0.62904 0.58403 0.04800
 H403 H 0.67071 0.63512 -0.02122
 H404 H 0.66904 0.67093 -0.05018
 H405 H 0.63098 0.69944 -0.05107
 H406 H 0.59434 0.69230 -0.02303
 C407 C 0.84743 -0.08922 0.50088
 C408 C 0.87170 -0.08852 0.48850
 C409 C 0.88819 -0.11038 0.48869
 C410 C 0.88034 -0.13281 0.50131
 C411 C 0.85592 -0.13365 0.51337
 C412 C 0.83941 -0.11178 0.51315
 C413 C 0.81513 -0.11303 0.52540
 C414 C 0.80737 -0.13526 0.53752
 C415 C 0.82352 -0.15663 0.53775
 C416 C 0.84755 -0.15594 0.52585
 C417 C 0.91239 -0.10918 0.47623
 C418 C 0.92009 -0.08702 0.46396
 C419 C 0.90398 -0.06564 0.46379
 C420 C 0.88005 -0.06626 0.47588
 C421 C 0.89775 -0.15466 0.50232
 C422 C 0.91298 -0.17217 0.50304
 C423 C 0.83107 -0.06651 0.50127
 C424 C 0.81830 -0.04710 0.50127
 H425 H 0.80191 -0.09689 0.52570
 H426 H 0.78873 -0.13590 0.54679
 H427 H 0.81740 -0.17385 0.54720
 H428 H 0.85944 -0.17305 0.52650
 H429 H 0.92561 -0.12531 0.47580
 H430 H 0.93865 -0.08644 0.45453
 H431 H 0.91004 -0.04846 0.45423
 H432 H 0.86822 -0.04913 0.47519
 C433 C 0.40990 0.34675 1.01058
 C434 C 0.40841 0.36742 1.02917
 C435 C 0.38641 0.38376 1.02983
 C436 C 0.36605 0.37932 1.01190
 C437 C 0.36715 0.35811 0.99392
 C438 C 0.38914 0.34176 0.99326
 C439 C 0.38989 0.32079 0.97498
 C440 C 0.36949 0.31610 0.95784
 C441 C 0.34800 0.33210 0.95847
 C442 C 0.34674 0.35291 0.97625
 C443 C 0.38544 0.40444 1.04844
 C444 C 0.40562 0.40884 1.06591
 C445 C 0.42713 0.39287 1.06525
 C446 C 0.42862 0.37238 1.04712
 C447 C 0.34463 0.39729 1.01120
 C448 C 0.32737 0.41278 1.01039
 C449 C 0.43325 0.33138 1.00852
 C450 C 0.45291 0.31911 1.00639
 H451 H 0.40618 0.30778 0.97378
 H452 H 0.37037 0.29995 0.94400
 H453 H 0.33220 0.32837 0.94511
 H454 H 0.32960 0.36479 0.97604
 H455 H 0.36909 0.41737 1.04975
 H456 H 0.40455 0.42473 1.08003
 H457 H 0.44275 0.39637 1.07887
 H458 H 0.44572 0.36046 1.04741
 C459 C 0.84782 0.08915 0.49774
 C460 C 0.87252 0.08820 0.50944
 C461 C 0.88909 0.11004 0.50916
 C462 C 0.88088 0.13270 0.49714
 C463 C 0.85607 0.13378 0.48573
 C464 C 0.83948 0.11193 0.48604
 C465 C 0.81479 0.11342 0.47446
 C466 C 0.80671 0.13587 0.46291
 C467 C 0.82293 0.15723 0.46260
 C468 C 0.84736 0.15630 0.47384
 C469 C 0.91372 0.10858 0.52093
 C470 C 0.92175 0.08620 0.53263
 C471 C 0.90556 0.06484 0.53288
 C472 C 0.88123 0.06571 0.52145
 C473 C 0.89830 0.15459 0.49612
 C474 C 0.91354 0.17212 0.49543
 C475 C 0.83133 0.06650 0.49751
 C476 C 0.81847 0.04712 0.49763
 H477 H 0.80150 0.09730 0.47425
 H478 H 0.78775 0.13670 0.45415
 H479 H 0.81656 0.17462 0.45360
 H480 H 0.85929 0.17340 0.47315
 H481 H 0.92701 0.12469 0.52127
 H482 H 0.94064 0.08544 0.54154
 H483 H 0.91189 0.04749 0.54199
 H484 H 0.86936 0.04858 0.52218
 C485 C 0.40965 0.65365 -0.00774
 C486 C 0.38965 0.65806 0.01041
 C487 C 0.36769 0.64160 0.01007
 C488 C 0.36585 0.62087 -0.00843
 C489 C 0.38543 0.61700 -0.02713
 C490 C 0.40740 0.63344 -0.02679
 C491 C 0.42683 0.62906 -0.04554
 C492 C 0.42460 0.60904 -0.06413
 C493 C 0.40313 0.59296 -0.06447
 C494 C 0.38372 0.59679 -0.04622
 C495 C 0.34806 0.64623 0.02855
 C496 C 0.35004 0.66658 0.04682
 C497 C 0.37150 0.68268 0.04713
 C498 C 0.39115 0.67855 0.02920
 C499 C 0.34446 0.60283 -0.00755
 C500 C 0.32724 0.58725 -0.00669
 C501 C 0.43301 0.66911 -0.00611
 C502 C 0.45273 0.68142 -0.00442
 H503 H 0.44387 0.64109 -0.04610
 H504 H 0.43962 0.60598 -0.07836
 H505 H 0.40149 0.57743 -0.07895
 H506 H 0.36736 0.58381 -0.04730
 H507 H 0.33097 0.63425 0.02903
 H508 H 0.33483 0.66987 0.06079
 H509 H 0.37294 0.69846 0.06135
 H510 H 0.40744 0.69161 0.03017
 C511 C 0.15223 -0.08833 0.51466
 C512 C 0.12968 -0.08688 0.52996
 C513 C 0.11349 -0.10888 0.53171
 C514 C 0.11992 -0.13218 0.51812
 C515 C 0.14287 -0.13386 0.50346
 C516 C 0.15908 -0.11186 0.50173
 C517 C 0.18182 -0.11394 0.48679
 C518 C 0.18837 -0.13710 0.47395
 C519 C 0.17251 -0.15860 0.47564
 C520 C 0.14999 -0.15711 0.49019
 C521 C 0.09095 -0.10690 0.54698
 C522 C 0.08460 -0.08386 0.56013
 C523 C 0.10042 -0.06234 0.55840
 C524 C 0.12272 -0.06372 0.54350
 C525 C 0.10230 -0.15397 0.51829
 C526 C 0.08707 -0.17157 0.51805
 C527 C 0.16774 -0.06535 0.51142
 C528 C 0.18010 -0.04600 0.50838
 H529 H 0.19478 -0.09775 0.48494
 H530 H 0.20584 -0.13837 0.46263
 H531 H 0.17769 -0.17655 0.46563
 H532 H 0.13829 -0.17436 0.49096
 H533 H 0.07806 -0.12312 0.54897
 H534 H 0.06730 -0.08270 0.57174
 H535 H 0.09539 -0.04448 0.56865
 H536 H 0.13443 -0.04647 0.54279
 C537 C 0.58928 0.34646 0.98779
 C538 C 0.61080 0.34187 1.00388
 C539 C 0.63273 0.35831 1.00320
 C540 C 0.63301 0.37921 0.98642
 C541 C 0.61188 0.38322 0.96965
 C542 C 0.58995 0.36679 0.97034
 C543 C 0.56896 0.37132 0.95356
 C544 C 0.56964 0.39149 0.93657
 C545 C 0.59108 0.40756 0.93590
 C546 C 0.61201 0.40357 0.95222
 C547 C 0.65389 0.35352 1.01966
 C548 C 0.65344 0.33302 1.03627
 C549 C 0.63201 0.31693 1.03691
 C550 C 0.61087 0.32122 1.02095
 C551 C 0.65444 0.39729 0.98723
 C552 C 0.67174 0.41285 0.98823
 C553 C 0.56603 0.33109 0.99004
 C554 C 0.54644 0.31886 0.99236
 H555 H 0.55188 0.35930 0.95333
 H556 H 0.55343 0.39465 0.92384
 H557 H 0.59151 0.42320 0.92266
 H558 H 0.62827 0.41656 0.95095
 H559 H 0.67102 0.36548 1.01981
 H560 H 0.66981 0.32961 1.04871
 H561 H 0.63175 0.30102 1.04983
 H562 H 0.59466 0.30814 1.02209
 C563 C 0.48993 0.15788 1.09076
 C564 C 0.50733 0.16298 1.11147
 C565 C 0.50676 0.14747 1.13349
 C566 C 0.48878 0.12699 1.13468
 C567 C 0.47076 0.12250 1.11439
 C568 C 0.47134 0.13799 1.09236
 C569 C 0.45329 0.13297 1.07221
 C570 C 0.43516 0.11325 1.07380
 C571 C 0.43459 0.09810 1.09534
 C572 C 0.45214 0.10257 1.11545
 C573 C 0.52451 0.15276 1.15384
 C574 C 0.54228 0.17284 1.15249
 C575 C 0.54283 0.18801 1.13096
 C576 C 0.52561 0.18321 1.11062
 C577 C 0.48958 0.10977 1.15610
 C578 C 0.49041 0.09480 1.17332
 C579 C 0.49189 0.17227 1.06736
 C580 C 0.49386 0.18365 1.04761
 H581 H 0.45294 0.14427 1.05509
 H582 H 0.42147 0.10970 1.05823
 H583 H 0.42046 0.08281 1.09648
 H584 H 0.45090 0.09031 1.13183
 H585 H 0.52477 0.14152 1.17100
 H586 H 0.55570 0.17666 1.16824
 H587 H 0.55667 0.20360 1.13002
 H588 H 0.52674 0.19557 1.09430
 C589 C -0.00903 0.59052 0.65814
 C590 C -0.02706 0.59188 0.63765
 C591 C -0.02758 0.61392 0.62218
 C592 C -0.01003 0.63446 0.62728
 C593 C 0.00742 0.63348 0.64830
 C594 C 0.00792 0.61144 0.66378
 C595 C 0.02568 0.61079 0.68455
 C596 C 0.04246 0.63135 0.68989
 C597 C 0.04197 0.65289 0.67474
 C598 C 0.02470 0.65405 0.65415
 C599 C -0.04564 0.61474 0.60167
 C600 C -0.06270 0.59437 0.59658
 C601 C -0.06218 0.57281 0.61169
 C602 C -0.04461 0.57147 0.63201
 C603 C -0.00917 0.65594 0.61014
 C604 C -0.00833 0.67318 0.59521
 C605 C -0.00717 0.56715 0.67260
 C606 C -0.00537 0.54739 0.68399
 H607 H 0.02674 0.59446 0.69690
 H608 H 0.05591 0.63055 0.70586
 H609 H 0.05504 0.66881 0.67897
 H610 H 0.02499 0.67123 0.64294
 H611 H -0.04683 0.63112 0.58940
 H612 H -0.07640 0.59533 0.58083
 H613 H -0.07547 0.55703 0.60766
 H614 H -0.04498 0.55431 0.64324
 C615 C 0.49185 0.84240 -0.09077
 C616 C 0.50942 0.83728 -0.11116
 C617 C 0.50908 0.85274 -0.13322
 C618 C 0.49116 0.87320 -0.13477
 C619 C 0.47301 0.87775 -0.11478
 C620 C 0.47335 0.86230 -0.09272
 C621 C 0.45516 0.86736 -0.07288
 C622 C 0.43712 0.88710 -0.07481
 C623 C 0.43678 0.90220 -0.09638
 C624 C 0.45448 0.89768 -0.11619
 C625 C 0.52699 0.84742 -0.15325
 C626 C 0.54469 0.82736 -0.15156
 C627 C 0.54501 0.81222 -0.12999
 C628 C 0.52763 0.81705 -0.10996
 C629 C 0.49210 0.89031 -0.15627
 C630 C 0.49298 0.90520 -0.17355
 C631 C 0.49350 0.82802 -0.06733
 C632 C 0.49515 0.81667 -0.04752
 H633 H 0.45462 0.85610 -0.05574
 H634 H 0.42332 0.89068 -0.05947
 H635 H 0.42272 0.91750 -0.09779
 H636 H 0.45341 0.90992 -0.13261
 H637 H 0.52744 0.85864 -0.17043
 H638 H 0.55823 0.82352 -0.16707
 H639 H 0.55879 0.79665 -0.12878
 H640 H 0.52858 0.80473 -0.09360
 C641 C 0.99219 0.40887 0.34205
 C642 C 1.00947 0.38820 0.33692
 C643 C 1.00895 0.36620 0.35246
 C644 C 0.99115 0.36499 0.37300
 C645 C 0.97332 0.38530 0.37760
 C646 C 0.97384 0.40730 0.36209
 C647 C 0.95601 0.42748 0.36724
 C648 C 0.93814 0.42594 0.38713
 C649 C 0.93761 0.40441 0.40228
 C650 C 0.95495 0.38427 0.39767
 C651 C 1.02658 0.34589 0.34713
 C652 C 1.04421 0.34727 0.32701
 C653 C 1.04470 0.36878 0.31181
 C654 C 1.02758 0.38907 0.31663
 C655 C 0.99190 0.34352 0.39016
 C656 C 0.99264 0.32627 0.40509
 C657 C 0.99399 0.43220 0.32754
 C658 C 0.99575 0.45193 0.31610
 H659 H 0.95563 0.44460 0.35595
 H660 H 0.92463 0.44154 0.39079
 H661 H 0.92368 0.40331 0.41770
 H662 H 0.95374 0.36791 0.40996
 H663 H 1.02689 0.32875 0.35840
 H664 H 1.05755 0.33156 0.32319
 H665 H 1.05843 0.36975 0.29620
 H666 H 1.02867 0.40538 0.30426
 C667 C 0.50838 0.85121 0.08949
 C668 C 0.49135 0.84726 0.11026
 C669 C 0.49158 0.86461 0.13217
 C670 C 0.50886 0.88579 0.13320
 C671 C 0.52645 0.88927 0.11279
 C672 C 0.52621 0.87194 0.09088
 C673 C 0.54382 0.87594 0.07062
 C674 C 0.56120 0.89647 0.07200
 C675 C 0.56145 0.91342 0.09342
 C676 C 0.54431 0.90997 0.11364
 C677 C 0.47422 0.86042 0.15258
 C678 C 0.45714 0.83963 0.15140
 C679 C 0.45693 0.82264 0.12999
 C680 C 0.47378 0.82633 0.10959
 C681 C 0.50790 0.90458 0.15467
 C682 C 0.50698 0.92075 0.17200
 C683 C 0.50687 0.83467 0.06629
 C684 C 0.50531 0.82142 0.04672
 H685 H 0.54441 0.86324 0.05358
 H686 H 0.57456 0.89923 0.05634
 H687 H 0.57499 0.92934 0.09440
 H688 H 0.54528 0.92365 0.12992
 H689 H 0.47370 0.87308 0.16966
 H690 H 0.44400 0.83668 0.16719
 H691 H 0.44363 0.80651 0.12917
 H692 H 0.47294 0.81258 0.09336
 C693 C 0.00926 0.41076 0.64942
 C694 C -0.00728 0.38954 0.65340
 C695 C -0.00677 0.36769 0.63598
 C696 C 0.01028 0.36720 0.61471
 C697 C 0.02739 0.38807 0.61121
 C698 C 0.02686 0.40993 0.62860
 C699 C 0.04395 0.43068 0.62455
 C700 C 0.06111 0.42984 0.60392
 C701 C 0.06165 0.40846 0.58693
 C702 C 0.04502 0.38776 0.59042
 C703 C -0.02364 0.34681 0.64020
 C704 C -0.04052 0.34748 0.66106
 C705 C -0.04102 0.36884 0.67809
 C706 C -0.02464 0.38970 0.67439
 C707 C 0.00950 0.34581 0.59581
 C708 C 0.00868 0.32856 0.57955
 C709 C 0.00746 0.43386 0.66606
 C710 C 0.00568 0.45338 0.67934
 H711 H 0.04430 0.44772 0.63728
 H712 H 0.07406 0.44588 0.60112
 H713 H 0.07503 0.40789 0.57094
 H714 H 0.04621 0.37154 0.57671
 H715 H -0.02391 0.32975 0.62750
 H716 H -0.05328 0.33132 0.66402
 H717 H -0.05417 0.36926 0.69426
 H718 H -0.02570 0.40586 0.68818
 C719 C 0.51009 0.14962 0.91095
 C720 C 0.52759 0.12867 0.91011
 C721 C 0.52807 0.11137 0.88817
 C722 C 0.51104 0.11512 0.86721
 C723 C 0.49412 0.13654 0.86771
 C724 C 0.49366 0.15386 0.88964
 C725 C 0.47646 0.17503 0.88978
 C726 C 0.46018 0.17899 0.86884
 C727 C 0.46061 0.16203 0.84742
 C728 C 0.47734 0.14101 0.84675
 C729 C 0.54557 0.09043 0.88786
 C730 C 0.56214 0.08671 0.90862
 C731 C 0.56168 0.10364 0.93006
 C732 C 0.54463 0.12440 0.93091
 C733 C 0.51023 0.09636 0.84570
 C734 C 0.50939 0.08022 0.82834
 C735 C 0.50821 0.16608 0.93417
 C736 C 0.50627 0.17925 0.95374
 H737 H 0.47547 0.18877 0.90600
 H738 H 0.44716 0.19530 0.86925
 H739 H 0.44792 0.16519 0.83121
 H740 H 0.47702 0.12837 0.82964
 H741 H 0.54669 0.07677 0.87159
 H742 H 0.57542 0.07061 0.90805
 H743 H 0.57460 0.10068 0.94613
 H744 H 0.54503 0.13707 0.94799
 C745 C 1.00962 0.58877 0.35043
 C746 C 1.02699 0.58976 0.37160
 C747 C 1.02731 0.61168 0.38892
 C748 C 1.01023 0.63247 0.38499
 C749 C 0.99341 0.63181 0.36339
 C750 C 0.99311 0.60989 0.34605
 C751 C 0.97598 0.60958 0.32470
 C752 C 0.95962 0.63034 0.32060
 C753 C 0.95991 0.65177 0.33757
 C754 C 0.97656 0.65259 0.35876
 C755 C 1.04471 0.61214 0.41006
 C756 C 1.06132 0.59153 0.41397
 C757 C 1.06099 0.57009 0.39704
 C758 C 1.04407 0.56910 0.37607
 C759 C 1.00927 0.65395 0.40377
 C760 C 1.00833 0.67127 0.41993
 C761 C 1.00802 0.56559 0.33386
 C762 C 1.00638 0.54603 0.32062
 H763 H 0.97510 0.59336 0.31095
 H764 H 0.94665 0.62980 0.30417
 H765 H 0.94716 0.66784 0.33429
 H766 H 0.97613 0.66969 0.37140
 H767 H 1.04572 0.62841 0.42374
 H768 H 1.07451 0.59221 0.43023
 H769 H 1.07393 0.55413 0.40016
 H770 H 1.04457 0.55203 0.36340
 C771 C 1.09042 0.51070 0.15371
 C772 C 1.09175 0.52896 0.13414
 C773 C 1.11372 0.52967 0.11788
 C774 C 1.13422 0.51209 0.12128
 C775 C 1.13328 0.49442 0.14140
 C776 C 1.11132 0.49373 0.15768
 C777 C 1.11071 0.47575 0.17753
 C778 C 1.13123 0.45893 0.18121
 C779 C 1.15270 0.45960 0.16528
 C780 C 1.15382 0.47709 0.14557
 C781 C 1.11451 0.54795 0.09830
 C782 C 1.09418 0.56505 0.09490
 C783 C 1.07269 0.56435 0.11079
 C784 C 1.07138 0.54655 0.13021
 C785 C 1.15563 0.51138 0.10330
 C786 C 1.17291 0.51046 0.08780
 C787 C 1.06714 0.50862 0.16895
 C788 C 1.04752 0.50654 0.18108
 H789 H 1.09445 0.47454 0.19044
 H790 H 1.13046 0.44532 0.19650
 H791 H 1.16859 0.44650 0.16822
 H792 H 1.17095 0.47693 0.13371
 H793 H 1.13084 0.54927 0.08549
 H794 H 1.09511 0.57892 0.07985
 H795 H 1.05695 0.57768 0.10807
 H796 H 1.05429 0.54679 0.14212
 C797 C 0.65384 -0.01362 0.58894
 C798 C 0.65670 0.00449 0.60992
 C799 C 0.64060 0.00286 0.63193
 C800 C 0.62175 -0.01686 0.63283
 C801 C 0.61948 -0.03547 0.61222
 C802 C 0.63557 -0.03384 0.59021
 C803 C 0.63277 -0.05251 0.56974
 C804 C 0.61460 -0.07225 0.57099
 C805 C 0.59888 -0.07385 0.59252
 C806 C 0.60119 -0.05572 0.61295
 C807 C 0.64363 0.02133 0.65255
 C808 C 0.66206 0.04083 0.65147
 C809 C 0.67781 0.04241 0.62996
 C810 C 0.67524 0.02451 0.60936
 C811 C 0.60387 -0.01724 0.65429
 C812 C 0.58848 -0.01715 0.67166
 C813 C 0.66889 -0.01079 0.56566
 C814 C 0.68094 -0.00805 0.54611
 H815 H 0.64459 -0.05210 0.55261
 H816 H 0.61273 -0.08638 0.55517
 H817 H 0.58481 -0.08923 0.59340
 H818 H 0.58856 -0.05780 0.62931
 H819 H 0.63186 0.02086 0.66971
 H820 H 0.66414 0.05479 0.66742
 H821 H 0.69211 0.05760 0.62922
 H822 H 0.68797 0.02650 0.59307
 C823 C -0.09021 0.50890 0.84661
 C824 C -0.09227 0.52806 0.86670
 C825 C -0.11432 0.52868 0.88292
 C826 C -0.13415 0.51013 0.87896
 C827 C -0.13249 0.49153 0.85833
 C828 C -0.11046 0.49091 0.84209
 C829 C -0.10913 0.47201 0.82171
 C830 C -0.12903 0.45423 0.81747
 C831 C -0.15057 0.45483 0.83335
 C832 C -0.15238 0.47321 0.85359
 C833 C -0.11585 0.54789 0.90302
 C834 C -0.09619 0.56597 0.90696
 C835 C -0.07463 0.56535 0.89110
 C836 C -0.07258 0.54665 0.87119
 C837 C -0.15559 0.50948 0.89685
 C838 C -0.17286 0.50875 0.91231
 C839 C -0.06682 0.50701 0.83135
 C840 C -0.04712 0.50508 0.81917
 H841 H -0.09279 0.47081 0.80881
 H842 H -0.12772 0.43992 0.80177
 H843 H -0.16597 0.44098 0.82997
 H844 H -0.16953 0.47295 0.86539
 H845 H -0.13226 0.54920 0.91582
 H846 H -0.09769 0.58055 0.92239
 H847 H -0.05941 0.57945 0.89424
 H848 H -0.05547 0.54698 0.85933
 C849 C 0.34540 0.00023 0.40951
 C850 C 0.34426 0.02102 0.39262
 C851 C 0.36063 0.02121 0.37069
 C852 C 0.37802 0.00059 0.36579
 C853 C 0.37862 -0.02057 0.38225
 C854 C 0.36227 -0.02075 0.40418
 C855 C 0.36336 -0.04202 0.42047
 C856 C 0.38010 -0.06254 0.41523
 C857 C 0.39609 -0.06237 0.39379
 C858 C 0.39545 -0.04167 0.37743
 C859 C 0.35929 0.04229 0.35419
 C860 C 0.34223 0.06260 0.35919
 C861 C 0.32623 0.06242 0.38063
 C862 C 0.32716 0.04192 0.39723
 C863 C 0.39605 0.00158 0.34450
 C864 C 0.41164 0.00236 0.32735
 C865 C 0.32992 0.00073 0.43280
 C866 C 0.31764 0.00092 0.45250
 H867 H 0.35127 -0.04308 0.43736
 H868 H 0.38066 -0.07866 0.42788
 H869 H 0.40905 -0.07835 0.38980
 H870 H 0.40822 -0.04245 0.36097
 H871 H 0.37132 0.04325 0.33725
 H872 H 0.34142 0.07856 0.34636
 H873 H 0.31301 0.07824 0.38443
 H874 H 0.31431 0.04261 0.41364
 C875 C 0.08956 0.48809 0.84695
 C876 C 0.11068 0.50476 0.84287
 C877 C 0.13263 0.50414 0.85938
 C878 C 0.13332 0.48683 0.87984
 C879 C 0.11259 0.46952 0.88333
 C880 C 0.09065 0.47015 0.86684
 C881 C 0.07006 0.45283 0.87086
 C882 C 0.07113 0.43535 0.89060
 C883 C 0.09259 0.43473 0.90672
 C884 C 0.11313 0.45157 0.90323
 C885 C 0.15339 0.52116 0.85509
 C886 C 0.15253 0.53829 0.83504
 C887 C 0.13109 0.53888 0.81888
 C888 C 0.11034 0.52236 0.82267
 C889 C 0.15470 0.48767 0.89803
 C890 C 0.17197 0.48869 0.91369
 C891 C 0.06628 0.49020 0.83152
 C892 C 0.04665 0.49234 0.81924
 H893 H 0.05298 0.45254 0.85878
 H894 H 0.05523 0.42222 0.89338
 H895 H 0.09333 0.42111 0.92202
 H896 H 0.12943 0.45032 0.91623
 H897 H 0.17051 0.52137 0.86712
 H898 H 0.16859 0.55116 0.83201
 H899 H 0.13052 0.55221 0.80332
 H900 H 0.09411 0.52349 0.80957
 C901 C 0.65293 0.01377 0.41063
 C902 C 0.63436 0.03370 0.40957
 C903 C 0.61806 0.03530 0.38757
 C904 C 0.62042 0.01695 0.36677
 C905 C 0.63958 -0.00245 0.36745
 C906 C 0.65588 -0.00404 0.38945
 C907 C 0.67474 -0.02374 0.38979
 C908 C 0.67743 -0.04134 0.36898
 C909 C 0.66148 -0.03978 0.34748
 C910 C 0.64273 -0.02061 0.34662
 C911 C 0.59950 0.05527 0.38703
 C912 C 0.59712 0.07315 0.40765
 C913 C 0.61304 0.07157 0.42917
 C914 C 0.63147 0.05211 0.43023
 C915 C 0.60233 0.01725 0.34532
 C916 C 0.58677 0.01708 0.32796
 C917 C 0.66821 0.01093 0.43389
 C918 C 0.68045 0.00819 0.45342
 H919 H 0.68764 -0.02570 0.40607
 H920 H 0.69197 -0.05627 0.36955
 H921 H 0.66365 -0.05350 0.33136
 H922 H 0.63082 -0.02013 0.32945
 H923 H 0.58671 0.05732 0.37069
 H924 H 0.58284 0.08832 0.40691
 H925 H 0.61111 0.08551 0.44513
 H926 H 0.64345 0.05170 0.44736
 C927 C 0.91043 0.49104 0.15282
 C928 C 0.89014 0.50882 0.15758
 C929 C 0.86803 0.50836 0.14125
 C930 C 0.86635 0.49011 0.12028
 C931 C 0.88623 0.47176 0.11607
 C932 C 0.90835 0.47223 0.13238
 C933 C 0.92809 0.45385 0.12763
 C934 C 0.92602 0.43549 0.10738
 C935 C 0.90438 0.43500 0.09145
 C936 C 0.88467 0.45289 0.09564
 C937 C 0.84809 0.52645 0.14624
 C938 C 0.84992 0.54448 0.16682
 C939 C 0.87154 0.54494 0.18278
 C940 C 0.89149 0.52737 0.17830
 C941 C 0.84483 0.49095 0.10231
 C942 C 0.82752 0.49182 0.08677
 C943 C 0.93387 0.49276 0.16823
 C944 C 0.95361 0.49452 0.18054
 H945 H 0.94528 0.45343 0.13952
 H946 H 0.94129 0.42155 0.10404
 H947 H 0.90285 0.42069 0.07576
 H948 H 0.86819 0.45170 0.08276
 H949 H 0.83087 0.52681 0.13439
 H950 H 0.83448 0.55817 0.17039
 H951 H 0.87287 0.55898 0.19873
 H952 H 0.90790 0.52844 0.19127
 C953 C 0.34615 -0.00049 0.59003
 C954 C 0.36314 0.02046 0.59539
 C955 C 0.37971 0.02022 0.61729
 C956 C 0.37921 -0.00099 0.63370
 C957 C 0.36168 -0.02157 0.62878
 C958 C 0.34510 -0.02132 0.60687
 C959 C 0.32788 -0.04219 0.60223
 C960 C 0.32703 -0.06273 0.61878
 C961 C 0.34325 -0.06297 0.64020
 C962 C 0.36043 -0.04269 0.64523
 C963 C 0.39666 0.04130 0.62215
 C964 C 0.39720 0.06203 0.60584
 C965 C 0.38101 0.06227 0.58442
 C966 C 0.36414 0.04178 0.57915
 C967 C 0.39747 -0.00206 0.65495
 C968 C 0.41325 -0.00288 0.67205
 C969 C 0.33046 -0.00093 0.56675
 C970 C 0.31802 -0.00108 0.54704
 H971 H 0.31486 -0.04284 0.58584
 H972 H 0.31372 -0.07853 0.61497
 H973 H 0.34251 -0.07896 0.65301
 H974 H 0.37262 -0.04370 0.66216
 H975 H 0.40959 0.04203 0.63860
 H976 H 0.41027 0.07801 0.60985
 H977 H 0.38151 0.07842 0.57181
 H978 H 0.35190 0.04288 0.56228
   
