data_POSCAR
  _audit_creation_date              2014-09-24
  _audit_creation_method            'ToBaCCo'
  _symmetry_space_group_name_H-M    'P1'
  _symmetry_Int_Tables_number       1
  _symmetry_cell_setting            triclinic
  loop_
  _symmetry_equiv_pos_as_xyz
 x,y,z
_cell_length_a 25.7784
_cell_length_b 25.7683
_cell_length_c 47.4819
_cell_angle_alpha 88.946100
_cell_angle_beta 94.200100
_cell_angle_gamma 90.478400
loop_
  _atom_site_label
  _atom_site_type_symbol
  _atom_site_fract_x
  _atom_site_fract_y
  _atom_site_fract_z
C1 C 0.00391 0.39285 1.02406
 C2 C 0.00560 0.36962 0.99760
 C3 C 0.01044 0.39880 0.97292
 C4 C 0.01332 0.45343 0.97409
 C5 C 0.01158 0.47832 1.00040
 C6 C 0.00795 0.44802 1.02557
 C7 C 0.01359 0.47342 1.05159
 C8 C 0.01840 0.52707 1.05288
 C9 C 0.01777 0.55825 1.02823
 C10 C 0.01586 0.53352 1.00165
 C11 C 0.01934 0.48361 0.94967
 C12 C 0.02429 0.53716 0.95094
 C13 C 0.02076 0.56347 0.97645
 C14 C 0.02644 0.61841 0.97784
 C15 C 0.02977 0.64143 1.00448
 C16 C 0.02425 0.61300 1.02957
 H17 H 0.01671 0.45213 1.07144
 H18 H 0.02475 0.54353 1.07363
 H19 H 0.02149 0.46602 0.92927
 H20 H 0.03272 0.55729 0.93164
 H21 H 0.00218 0.32776 0.99593
 H22 H 0.03187 0.68343 1.00557
 C23 C 0.39377 0.00248 0.52947
 C24 C 0.36137 0.00709 0.50469
 C25 C 0.38059 0.00386 0.47797
 C26 C 0.43477 -0.00279 0.47594
 C27 C 0.46860 -0.00557 0.50097
 C28 C 0.44785 -0.00394 0.52780
 C29 C 0.48127 -0.01137 0.55219
 C30 C 0.53437 -0.01811 0.55042
 C31 C 0.55679 -0.01619 0.52423
 C32 C 0.52307 -0.01206 0.49919
 C33 C 0.45584 -0.00905 0.44974
 C34 C 0.50903 -0.01501 0.44798
 C35 C 0.54338 -0.01588 0.47235
 C36 C 0.59733 -0.02266 0.47057
 C37 C 0.63002 -0.02679 0.49528
 C38 C 0.61131 -0.02251 0.52222
 H39 H 0.46658 -0.01317 0.57295
 H40 H 0.55727 -0.02637 0.56994
 H41 H 0.43151 -0.01040 0.43026
 H42 H 0.52282 -0.02010 0.42723
 H43 H 0.31999 0.01245 0.50630
 H44 H 0.67151 -0.03006 0.49324
 C45 C 0.04994 0.04200 0.27612
 H46 H 0.04377 0.07356 0.26100
 C47 C 0.09032 0.04532 0.29738
 H48 H 0.11394 0.08021 0.29853
 C49 C 0.02479 -0.04029 0.29370
 H50 H -0.00126 -0.07342 0.29218
 C51 C 0.06562 -0.03944 0.31459
 H52 H 0.07106 -0.07305 0.32843
 N53 N 0.01802 -0.00029 0.27480
 C54 C -0.07249 -0.08515 0.20923
 H55 H -0.10872 -0.06405 0.20755
 C56 C -0.06578 -0.12670 0.19137
 H57 H -0.09717 -0.13755 0.17615
 C58 C 0.01407 -0.09359 0.22919
 H59 H 0.04586 -0.07949 0.24311
 C60 C 0.02250 -0.13503 0.21164
 H61 H 0.06038 -0.15313 0.21278
 Zn62 Zn -0.03932 -0.00655 0.24781
 N63 N -0.03268 -0.06913 0.22754
 C64 C -0.03287 0.03897 0.19391
 N65 N -0.04052 0.05038 0.22117
 C66 C -0.04627 0.10054 0.22896
 C67 C -0.04379 0.14122 0.20912
 C68 C -0.03045 0.07822 0.17348
 C69 C -0.13148 -0.05093 0.26899
 C70 C -0.17222 -0.05327 0.28689
 C71 C -0.14694 0.03163 0.30386
 C72 C -0.10655 0.03216 0.28586
 N73 N -0.09968 -0.00847 0.26866
 H74 H -0.02739 -0.00058 0.18784
 H75 H -0.05114 0.10952 0.25068
 H76 H -0.04697 0.18087 0.21592
 H77 H -0.02456 0.06780 0.15196
 H78 H -0.12435 -0.08396 0.25623
 H79 H -0.19676 -0.08756 0.28711
 H80 H -0.15070 0.06381 0.31790
 H81 H -0.07920 0.06407 0.28667
 C82 C -0.01737 -0.15138 0.19203
 C83 C 0.09884 0.00415 0.31707
 C84 C -0.18012 -0.01168 0.30473
 C85 C -0.03514 0.13025 0.18099
 C86 C -0.01036 0.11233 0.76821
 H87 H -0.04127 0.10739 0.75187
 C88 C -0.01154 0.15452 0.78625
 H89 H -0.04355 0.18154 0.78368
 C90 C 0.06905 0.08386 0.79142
 H91 H 0.10032 0.05614 0.79342
 C92 C 0.06963 0.12558 0.80973
 H93 H 0.10106 0.12897 0.82603
 N94 N 0.02883 0.07719 0.77161
 C95 C 0.11200 -0.03265 0.72584
 H96 H 0.09622 -0.06802 0.73447
 C97 C 0.15302 -0.03521 0.70833
 H98 H 0.16940 -0.07266 0.70429
 C99 C 0.10820 0.05876 0.71967
 H100 H 0.08942 0.09503 0.72360
 C101 C 0.14896 0.05794 0.70185
 H102 H 0.16113 0.09387 0.69208
 Zn103 Zn 0.02878 0.01548 0.75036
 N104 N 0.09024 0.01380 0.73096
 C105 C -0.01878 0.00404 0.69578
 N106 N -0.02920 0.01242 0.72301
 C107 C -0.07912 0.01691 0.73025
 C108 C -0.12077 0.01221 0.70979
 C109 C -0.05906 -0.00119 0.67480
 C110 C 0.07291 -0.05433 0.79135
 C111 C 0.07413 -0.09455 0.81144
 C112 C -0.01737 -0.10955 0.79970
 C113 C -0.01661 -0.06956 0.77946
 N114 N 0.02793 -0.04225 0.77594
 H115 H 0.02086 0.00060 0.69020
 H116 H -0.08671 0.02357 0.75199
 H117 H -0.16024 0.01497 0.71597
 H118 H -0.04973 -0.00794 0.65330
 H119 H 0.10818 -0.03291 0.78792
 H120 H 0.11069 -0.10376 0.82305
 H121 H -0.05378 -0.12930 0.80281
 H122 H -0.05199 -0.05988 0.76704
 C123 C 0.17123 0.01034 0.69551
 C124 C 0.02842 0.16098 0.80767
 C125 C 0.02835 -0.12227 0.81626
 C126 C -0.11085 0.00235 0.68171
 C127 C 0.01718 -0.29379 0.10207
 C128 C -0.02079 -0.33284 0.09616
 C129 C -0.01697 -0.36542 0.07296
 C130 C 0.02353 -0.35877 0.05484
 C131 C 0.06053 -0.31930 0.06069
 C132 C 0.05786 -0.28776 0.08404
 C133 C 0.01095 -0.25878 0.12645
 C134 C 0.04776 -0.22021 0.13466
 C135 C 0.03882 -0.18651 0.15638
 C136 C -0.00689 -0.19030 0.17058
 C137 C -0.04305 -0.22972 0.16327
 C138 C -0.03422 -0.26421 0.14153
 C139 C -0.06345 -0.33772 0.11273
 C140 C -0.07036 -0.30374 0.13468
 H141 H -0.09268 -0.36748 0.10820
 H142 H -0.10467 -0.30837 0.14641
 H143 H -0.04731 -0.39395 0.06805
 H144 H 0.09216 -0.31300 0.04715
 H145 H 0.06722 -0.15629 0.16152
 H146 H -0.07810 -0.23340 0.17448
 H147 H 0.08737 -0.25812 0.08709
 H148 H 0.08352 -0.21502 0.12449
 C149 C -0.01413 0.28920 0.09367
 C150 C 0.02304 0.27966 0.07391
 C151 C 0.02883 0.31435 0.05127
 C152 C -0.00116 0.35970 0.04788
 C153 C -0.03802 0.36912 0.06759
 C154 C -0.04437 0.33454 0.09017
 C155 C -0.01987 0.25010 0.11714
 C156 C -0.05655 0.25480 0.13759
 C157 C -0.06112 0.21638 0.15851
 C158 C -0.02924 0.17240 0.15963
 C159 C 0.00812 0.16809 0.13976
 C160 C 0.01273 0.20604 0.11855
 C161 C 0.05431 0.23546 0.07672
 C162 C 0.04941 0.19957 0.09861
 H163 H 0.08295 0.22836 0.06165
 H164 H 0.07440 0.16586 0.09975
 H165 H 0.05787 0.30655 0.03651
 H166 H -0.06330 0.40251 0.06502
 H167 H -0.09047 0.22057 0.17348
 H168 H 0.03382 0.13491 0.14075
 H169 H -0.07350 0.34376 0.10444
 H170 H -0.08246 0.28744 0.13760
 C171 C 0.31182 0.00509 0.60520
 C172 C 0.30411 -0.03598 0.58587
 C173 C 0.33257 -0.03730 0.56187
 C174 C 0.36855 0.00197 0.55651
 C175 C 0.37691 0.04231 0.57569
 C176 C 0.34911 0.04383 0.59988
 C177 C 0.27854 0.00625 0.62985
 C178 C 0.28217 0.04572 0.65011
 C179 C 0.24826 0.04641 0.67178
 C180 C 0.21002 0.00773 0.67391
 C181 C 0.20712 -0.03244 0.65428
 C182 C 0.24082 -0.03348 0.63243
 C183 C 0.26710 -0.07483 0.59014
 C184 C 0.23605 -0.07353 0.61287
 H185 H 0.26141 -0.10631 0.57537
 H186 H 0.20736 -0.10408 0.61497
 H187 H 0.32594 -0.06831 0.54685
 H188 H 0.40425 0.07321 0.57161
 H189 H 0.25185 0.07746 0.68687
 H190 H 0.17724 -0.06211 0.65534
 H191 H 0.35665 0.07608 0.61377
 H192 H 0.31048 0.07667 0.64945
 C193 C -0.27324 -0.02059 0.59115
 C194 C -0.31420 0.01579 0.58962
 C195 C -0.35276 0.01459 0.56710
 C196 C -0.35173 -0.02283 0.54589
 C197 C -0.31049 -0.05843 0.54750
 C198 C -0.27217 -0.05765 0.56978
 C199 C -0.23204 -0.01715 0.61506
 C200 C -0.18947 -0.05123 0.61823
 C201 C -0.15097 -0.04514 0.64012
 C202 C -0.15381 -0.00519 0.65958
 C203 C -0.19680 0.02807 0.65720
 C204 C -0.23567 0.02258 0.63504
 C205 C -0.31594 0.05374 0.61029
 C206 C -0.27755 0.05706 0.63249
 H207 H -0.34731 0.08161 0.60918
 H208 H -0.28048 0.08742 0.64778
 H209 H -0.38251 0.04422 0.56554
 H210 H -0.30833 -0.08794 0.53167
 H211 H -0.11867 -0.07191 0.64183
 H212 H -0.19919 0.05921 0.67208
 H213 H -0.24197 -0.08629 0.56967
 H214 H -0.18479 -0.08262 0.60397
 C215 C 0.02503 -0.27760 0.90688
 C216 C 0.06020 -0.27008 0.93076
 C217 C 0.06130 -0.30536 0.95362
 C218 C 0.02701 -0.34823 0.95369
 C219 C -0.00932 -0.35417 0.93033
 C220 C -0.00997 -0.31986 0.90717
 C221 C 0.02562 -0.23916 0.88276
 C222 C -0.00529 -0.24476 0.85726
 C223 C -0.00391 -0.20731 0.83565
 C224 C 0.02804 -0.16308 0.83890
 C225 C 0.05951 -0.15770 0.86413
 C226 C 0.05914 -0.19553 0.88574
 C227 C 0.09348 -0.22683 0.93200
 C228 C 0.09239 -0.18994 0.91017
 H229 H 0.12022 -0.22091 0.95038
 H230 H 0.11836 -0.15673 0.91236
 H231 H 0.08959 -0.29966 0.97137
 H232 H -0.03862 -0.38455 0.93030
 H233 H -0.02766 -0.21335 0.81621
 H234 H 0.08399 -0.12360 0.86723
 H235 H -0.03902 -0.32637 0.89006
 H236 H -0.03039 -0.27797 0.85345
 C237 C 0.02104 0.30908 0.89803
 C238 C -0.02696 0.31334 0.91055
 C239 C -0.03037 0.34374 0.93457
 C240 C 0.01339 0.37020 0.94634
 C241 C 0.06068 0.36672 0.93383
 C242 C 0.06456 0.33673 0.90988
 C243 C 0.02360 0.27406 0.87326
 C244 C 0.06982 0.26555 0.85992
 C245 C 0.07090 0.23005 0.83811
 C246 C 0.02596 0.20242 0.82882
 C247 C -0.02069 0.21201 0.84123
 C248 C -0.02211 0.24713 0.86342
 C249 C -0.07100 0.28653 0.89937
 C250 C -0.06865 0.25422 0.87630
 H251 H -0.10777 0.29004 0.90885
 H252 H -0.10368 0.23376 0.86870
 H253 H -0.06686 0.34632 0.94445
 H254 H 0.09487 0.38673 0.94291
 H255 H 0.10723 0.22378 0.82862
 H256 H -0.05550 0.19039 0.83444
 H257 H 0.10206 0.33520 0.90128
 H258 H 0.10576 0.28516 0.86628
 C259 C -0.32192 -0.01779 0.39432
 C260 C -0.32169 -0.06350 0.41138
 C261 C -0.34960 -0.06544 0.43570
 C262 C -0.37800 -0.02245 0.44332
 C263 C -0.37921 0.02237 0.42618
 C264 C -0.35178 0.02472 0.40189
 C265 C -0.28886 -0.01616 0.36957
 C266 C -0.28434 0.02824 0.35210
 C267 C -0.25024 0.02901 0.33056
 C268 C -0.22014 -0.01453 0.32565
 C269 C -0.22582 -0.05963 0.34218
 C270 C -0.25942 -0.06060 0.36419
 C271 C -0.29268 -0.10655 0.40446
 C272 C -0.26235 -0.10518 0.38134
 H273 H -0.29281 -0.14164 0.41740
 H274 H -0.23999 -0.13927 0.37715
 H275 H -0.34847 -0.10002 0.44910
 H276 H -0.40057 0.05609 0.43200
 H277 H -0.24693 0.06406 0.31786
 H278 H -0.20224 -0.09327 0.33878
 H279 H -0.35379 0.06044 0.38970
 H280 H -0.30592 0.06315 0.35501
 C281 C 0.26472 0.00927 0.40751
 C282 C 0.25918 -0.02496 0.43076
 C283 C 0.29822 -0.02769 0.45285
 C284 C 0.34186 0.00522 0.45312
 C285 C 0.34579 0.04146 0.43095
 C286 C 0.30820 0.04293 0.40814
 C287 C 0.22299 0.00921 0.38378
 C288 C 0.22762 0.03639 0.35807
 C289 C 0.18771 0.03455 0.33649
 C290 C 0.14155 0.00647 0.34012
 C291 C 0.13687 -0.02049 0.36586
 C292 C 0.17758 -0.02076 0.38711
 C293 C 0.21405 -0.05515 0.43229
 C294 C 0.17351 -0.05200 0.41130
 H295 H 0.20950 -0.08079 0.45031
 H296 H 0.13895 -0.07544 0.41372
 H297 H 0.29420 -0.05487 0.47029
 H298 H 0.37801 0.06876 0.43134
 H299 H 0.19369 0.05454 0.31675
 H300 H 0.10151 -0.04170 0.36955
 H301 H 0.31311 0.07144 0.39160
 H302 H 0.26230 0.05815 0.35398
   
