data_POSCAR
  _audit_creation_date              2014-09-24
  _audit_creation_method            'ToBaCCo'
  _symmetry_space_group_name_H-M    'P1'
  _symmetry_Int_Tables_number       1
  _symmetry_cell_setting            triclinic
  loop_
  _symmetry_equiv_pos_as_xyz
 x,y,z
_cell_length_a 37.9316
_cell_length_b 37.6629
_cell_length_c 37.5837
_cell_angle_alpha 90.267500
_cell_angle_beta 89.986400
_cell_angle_gamma 90.214600
loop_
  _atom_site_label
  _atom_site_type_symbol
  _atom_site_fract_x
  _atom_site_fract_y
  _atom_site_fract_z
N1 N 0.29830 0.43098 0.95707
 N2 N 0.45242 0.83533 0.44699
 N3 N 0.93263 0.93121 0.80102
 N4 N 0.43936 -0.04677 0.31222
 N5 N 0.81069 0.31377 0.30937
 N6 N -0.20448 0.80348 0.79247
 N7 N 0.94903 0.30858 0.42423
 N8 N 0.43125 0.44959 0.83612
 N9 N 0.80509 0.92117 0.93233
 N10 N 0.32381 0.81651 0.32287
 N11 N 0.83551 0.44363 0.43863
 N12 N 0.92851 0.78421 -0.08128
 N13 N 0.31075 0.31637 0.80893
 N14 N 0.20821 0.56720 0.56980
 N15 N 0.55431 0.68445 0.07068
 N16 N 0.69448 0.20173 0.69671
 N17 N 1.05154 0.04397 0.18579
 N18 N 0.05026 0.16369 1.04023
 N19 N 0.18665 0.69861 0.69899
 N20 N 1.17735 0.17922 0.18198
 N21 N 0.68939 1.07259 0.56366
 N22 N 0.56055 0.56351 0.21585
 N23 N 0.69828 0.69875 0.18116
 N24 N 0.18764 0.03666 1.05189
 N25 N 0.56457 0.21945 0.56356
 N26 N 0.06107 0.55607 0.68066
 N27 N 0.68052 0.54478 0.06623
 N28 N 0.07426 0.68581 0.54309
 N29 N 0.56066 1.08179 0.69192
 N30 N 0.43253 0.30366 0.95275
 N31 N 0.94648 0.43301 0.30082
 N32 N 0.30956 0.95229 0.44458
 O33 O 0.23157 0.60421 0.72793
 O34 O 0.29435 0.59732 0.73290
 O35 O 0.20086 0.50595 0.67704
 O36 O 0.19965 0.44744 0.69135
 O37 O 0.14414 0.55026 0.76938
 O38 O 0.15523 0.54651 0.83201
 O39 O 0.29053 0.42044 0.77804
 O40 O 0.28916 0.43134 0.71739
 O41 O 0.33078 0.51720 0.82406
 O42 O 0.31756 0.57669 0.81589
 O43 O 0.24822 0.46516 0.86619
 O44 O 0.18070 0.46816 0.85416
 O45 O 0.24594 0.41849 0.81857
 O46 O 0.18415 0.42744 0.81826
 O47 O 0.28372 0.51387 0.86836
 O48 O 0.27319 0.57907 0.85287
 O49 O 0.33485 0.47082 0.78537
 O50 O 0.32756 0.48151 0.71926
 O51 O 0.18959 0.60139 0.77129
 O52 O 0.19188 0.58891 0.83356
 O53 O 0.14870 0.50970 0.72461
 O54 O 0.16457 0.44482 0.73405
 O55 O 0.23692 0.55434 0.67740
 O56 O 0.30069 0.54875 0.69422
 Zr57 Zr 0.25775 0.55462 0.73010
 O58 O 0.29268 0.52697 0.76390
 Zr59 Zr 0.19999 0.48817 0.73017
 O60 O 0.23311 0.45750 0.76272
 Zr61 Zr 0.19450 0.55064 0.79229
 O62 O 0.22664 0.52281 0.82789
 Zr63 Zr 0.28648 0.47197 0.75640
 O64 O 0.25352 0.49957 0.71992
 Zr65 Zr 0.27938 0.53572 0.81728
 O66 O 0.24708 0.56673 0.78407
 Zr67 Zr 0.22232 0.46845 0.81656
 O68 O 0.18627 0.49609 0.78389
 O69 O 0.20517 0.54212 0.73848
 O70 O 0.27524 0.48109 0.80965
 C71 C 0.20573 0.61728 0.74612
 C72 C 0.21580 0.53241 0.66155
 C73 C 0.13194 0.53395 0.74202
 C74 C 0.27191 0.40457 0.80193
 C75 C 0.34718 0.49070 0.81064
 C76 C 0.27130 0.48513 0.88159
 H77 H 0.31728 0.53456 0.75929
 H78 H 0.21995 0.52837 0.85270
 H79 H 0.19018 0.55607 0.72224
 H80 H 0.22917 0.43223 0.75659
 H81 H 0.28185 0.44218 0.69461
 H82 H 0.22227 0.43477 0.69384
 H83 H 0.25572 0.57219 0.87115
 H84 H 0.21376 0.60322 0.83213
 H85 H 0.34558 0.46278 0.72246
 H86 H 0.29779 0.56542 0.67411
 H87 H 0.18719 0.48425 0.87400
 H88 H 0.14563 0.52208 0.83048
 H89 H 0.29136 0.61237 0.71152
 H90 H 0.30947 0.59373 0.79772
 H91 H 0.14807 0.45037 0.75371
 H92 H 0.18359 0.41636 0.79436
 O93 O 0.15031 0.03791 0.25776
 O94 O 0.16536 0.02272 0.31759
 O95 O 0.23496 0.09261 0.21421
 O96 O 0.29529 0.08758 0.21817
 O97 O 0.20043 0.00334 0.15623
 O98 O 0.19926 -0.05908 0.16493
 O99 O 0.33862 -0.01102 0.29328
 O100 O 0.32858 0.04976 0.29419
 O101 O 0.24743 -0.05832 0.33936
 O102 O 0.18365 -0.06002 0.32067
 O103 O 0.29613 -0.09513 0.24192
 O104 O 0.28669 -0.07692 0.17834
 O105 O 0.33856 -0.04626 0.24386
 O106 O 0.32199 -0.03632 0.18007
 O107 O 0.26009 -0.09990 0.28988
 O108 O 0.19781 -0.10055 0.28159
 O109 O 0.29160 -0.01733 0.34178
 O110 O 0.28186 0.04716 0.33706
 O111 O 0.14962 0.00217 0.20867
 O112 O 0.16179 -0.06161 0.20457
 O113 O 0.24084 0.04794 0.16106
 O114 O 0.30274 0.04750 0.17480
 O115 O 0.19516 0.08628 0.25914
 O116 O 0.21141 0.06726 0.32078
 Zr117 Zr 0.20207 0.03351 0.27631
 O118 O 0.23489 -0.00094 0.30486
 Zr119 Zr 0.26135 0.04324 0.21241
 O120 O 0.29709 0.00981 0.23865
 Zr121 Zr 0.20075 -0.02134 0.20667
 O122 O 0.23443 -0.05798 0.23219
 Zr123 Zr 0.28775 0.01125 0.29376
 O124 O 0.25494 0.04849 0.26771
 Zr125 Zr 0.22821 -0.05373 0.28742
 O126 O 0.19149 -0.01990 0.26182
 Zr127 Zr 0.28721 -0.04317 0.22358
 O128 O 0.25376 -0.00938 0.19438
 O129 O 0.20894 0.03088 0.22141
 O130 O 0.28072 -0.04129 0.27848
 C131 C 0.13504 0.02451 0.23043
 C132 C 0.20925 0.10395 0.23361
 C133 C 0.21821 0.02963 0.14355
 C134 C 0.35341 -0.03288 0.27147
 C135 C 0.27282 -0.04243 0.35534
 C136 C 0.28541 -0.11125 0.26993
 H137 H 0.22933 0.00230 0.33039
 H138 H 0.22960 -0.08251 0.22402
 H139 H 0.19324 0.04636 0.20743
 H140 H 0.32150 0.01727 0.23314
 H141 H 0.31725 0.07296 0.28976
 H142 H 0.31689 0.07915 0.23014
 H143 H 0.18139 -0.09636 0.26167
 H144 H 0.14817 -0.05998 0.22700
 H145 H 0.30257 0.04455 0.35294
 H146 H 0.19240 0.08520 0.32206
 H147 H 0.26901 -0.09585 0.18241
 H148 H 0.22339 -0.05983 0.15496
 H149 H 0.14964 0.04350 0.32058
 H150 H 0.18375 -0.03977 0.33752
 H151 H 0.30148 0.02607 0.15951
 H152 H 0.33843 -0.01675 0.18613
 O153 O 0.52547 0.66896 0.22057
 O154 O 0.46283 0.67726 0.22800
 O155 O 0.55333 0.76656 0.16408
 O156 O 0.54186 0.82659 0.17599
 O157 O 0.61493 0.72946 0.24578
 O158 O 0.60800 0.74042 0.31448
 O159 O 0.46456 0.85239 0.27335
 O160 O 0.46569 0.84367 0.21082
 O161 O 0.42981 0.75569 0.31589
 O162 O 0.45283 0.68957 0.30091
 O163 O 0.50891 0.80796 0.35567
 O164 O 0.57913 0.80461 0.34121
 O165 O 0.51204 0.85596 0.31033
 O166 O 0.57157 0.84952 0.30958
 O167 O 0.48039 0.75504 0.35960
 O168 O 0.48555 0.69830 0.34710
 O169 O 0.42180 0.80059 0.27653
 O170 O 0.42791 0.79227 0.21172
 O171 O 0.57058 0.67563 0.26016
 O172 O 0.58465 0.69041 0.31500
 O173 O 0.60566 0.77380 0.20611
 O174 O 0.58701 0.83405 0.21531
 O175 O 0.51938 0.71673 0.16842
 O176 O 0.45703 0.72227 0.18451
 Zr177 Zr 0.49983 0.71912 0.22087
 O178 O 0.46529 0.74661 0.25521
 Zr179 Zr 0.55345 0.78897 0.21597
 O180 O 0.52252 0.81810 0.25242
 Zr181 Zr 0.56801 0.72805 0.27712
 O182 O 0.53484 0.75193 0.31524
 Zr183 Zr 0.46969 0.80195 0.24813
 O184 O 0.50042 0.77422 0.20972
 Zr185 Zr 0.48179 0.73743 0.30724
 O186 O 0.51563 0.70883 0.27359
 Zr187 Zr 0.53585 0.80652 0.30568
 O188 O 0.57138 0.78278 0.26881
 O189 O 0.55222 0.73470 0.22492
 O190 O 0.48323 0.79221 0.30068
 C191 C 0.55205 0.65722 0.23849
 C192 C 0.53986 0.73779 0.15107
 C193 C 0.62432 0.74867 0.21893
 C194 C 0.48405 0.86869 0.29658
 C195 C 0.41123 0.78054 0.30201
 C196 C 0.48897 0.78537 0.37209
 H197 H 0.44079 0.73843 0.25117
 H198 H 0.54276 0.74605 0.33958
 H199 H 0.56674 0.72015 0.20867
 H200 H 0.52541 0.84367 0.24731
 H201 H 0.47155 0.83333 0.18728
 H202 H 0.53075 0.84735 0.18759
 H203 H 0.50610 0.68351 0.34066
 H204 H 0.56427 0.68626 0.33085
 H205 H 0.41027 0.81145 0.21465
 H206 H 0.45896 0.70288 0.16668
 H207 H 0.57051 0.79520 0.36418
 H208 H 0.62226 0.75996 0.30427
 H209 H 0.46504 0.66027 0.20789
 H210 H 0.42858 0.69575 0.29354
 H211 H 0.60254 0.83232 0.23639
 H212 H 0.57511 0.85822 0.28504
 O213 O -0.01358 0.65304 0.67582
 O214 O -0.07587 0.66625 0.68658
 O215 O 0.03015 0.74031 0.62515
 O216 O 0.02522 0.80069 0.62970
 O217 O 0.07967 0.70782 0.71959
 O218 O 0.06422 0.70781 0.78160
 O219 O -0.06157 0.84196 0.71697
 O220 O -0.05389 0.82940 0.65636
 O221 O -0.10733 0.75731 0.76572
 O222 O -0.09364 0.68837 0.76075
 O223 O -0.01480 0.79719 0.81065
 O224 O 0.04746 0.79658 0.79501
 O225 O -0.02136 0.84212 0.76192
 O226 O 0.04487 0.83252 0.75590
 O227 O -0.05753 0.75483 0.81358
 O228 O -0.06094 0.69395 0.80396
 O229 O -0.10681 0.79685 0.72020
 O230 O -0.09634 0.78107 0.65702
 O231 O 0.03008 0.65481 0.71741
 O232 O 0.02612 0.66848 0.78033
 O233 O 0.07858 0.74830 0.67486
 O234 O 0.06319 0.80952 0.67416
 O235 O -0.01317 0.69822 0.62671
 O236 O -0.07595 0.70930 0.63913
 Zr237 Zr -0.03538 0.70429 0.67769
 O238 O -0.06884 0.73723 0.70808
 Zr239 Zr 0.02674 0.76680 0.67440
 O240 O -0.00397 0.80223 0.70439
 Zr241 Zr 0.02738 0.70678 0.73939
 O242 O -0.00347 0.73964 0.77229
 Zr243 Zr -0.05740 0.79037 0.69658
 O244 O -0.02673 0.75763 0.66310
 Zr245 Zr -0.05757 0.73140 0.76239
 O246 O -0.02650 0.69524 0.73229
 Zr247 Zr 0.00493 0.79315 0.75872
 O248 O 0.03893 0.76044 0.72869
 O249 O 0.01823 0.71369 0.68584
 O250 O -0.04868 0.78451 0.75107
 C251 C 0.01213 0.63892 0.69282
 C252 C 0.01311 0.71378 0.61178
 C253 C 0.09456 0.72618 0.69487
 C254 C -0.04643 0.85634 0.74394
 C255 C -0.12142 0.78231 0.74714
 C256 C -0.03873 0.77993 0.82733
 H257 H -0.09377 0.73160 0.70269
 H258 H 0.00283 0.73464 0.79729
 H259 H 0.03418 0.69828 0.67189
 H260 H 0.00129 0.82701 0.69757
 H261 H -0.04774 0.81678 0.63404
 H262 H 0.01201 0.82218 0.63678
 H263 H -0.03650 0.68934 0.81181
 H264 H 0.00324 0.65590 0.77818
 H265 H -0.11219 0.80194 0.65651
 H266 H -0.07494 0.68860 0.62278
 H267 H 0.04620 0.77549 0.81055
 H268 H 0.07596 0.73130 0.78073
 H269 H -0.07534 0.64839 0.66712
 H270 H -0.11403 0.69559 0.74609
 H271 H 0.07400 0.81035 0.69811
 H272 H 0.03814 0.84986 0.73745
 O273 O 0.01146 0.05943 0.03515
 O274 O -0.05191 0.04980 0.03065
 O275 O 0.04594 -0.03469 0.09173
 O276 O 0.04051 -0.09422 0.08484
 O277 O 0.09750 0.00122 -0.00073
 O278 O 0.08459 -0.01114 -0.06507
 O279 O -0.05370 -0.12694 0.00217
 O280 O -0.04161 -0.11440 0.06288
 O281 O -0.09329 -0.04020 -0.04528
 O282 O -0.07291 0.02837 -0.04078
 O283 O -0.00613 -0.08623 -0.09384
 O284 O 0.05916 -0.08969 -0.07682
 O285 O -0.01520 -0.13118 -0.04414
 O286 O 0.04667 -0.13099 -0.04312
 O287 O -0.04595 -0.04130 -0.09503
 O288 O -0.04419 0.01920 -0.08630
 O289 O -0.09463 -0.07864 0.00115
 O290 O -0.08012 -0.06306 0.06338
 O291 O 0.05149 0.05197 -0.00941
 O292 O 0.05118 0.03296 -0.06904
 O293 O 0.09472 -0.04043 0.04279
 O294 O 0.07730 -0.10260 0.03991
 O295 O 0.01004 0.01367 0.08896
 O296 O -0.05337 0.00887 0.07868
 Zr297 Zr -0.01402 0.00916 0.03843
 O298 O -0.05127 -0.02193 0.01031
 Zr299 Zr 0.04252 -0.05874 0.04136
 O300 O 0.00800 -0.09195 0.01265
 Zr301 Zr 0.04684 -0.00126 -0.02483
 O302 O 0.01132 -0.03085 -0.05624
 Zr303 Zr -0.04389 -0.07576 0.02222
 O304 O -0.00959 -0.04465 0.05373
 Zr305 Zr -0.04147 -0.01787 -0.04434
 O306 O -0.00557 0.01556 -0.01665
 Zr307 Zr 0.01546 -0.08459 -0.04222
 O308 O 0.05389 -0.05531 -0.01330
 O309 O 0.03797 -0.00517 0.02930
 O310 O -0.03681 -0.07131 -0.03262
 C311 C 0.03589 0.07091 0.01414
 C312 C 0.03238 -0.00640 0.10503
 C313 C 0.11082 -0.01594 0.02568
 C314 C -0.04102 -0.14287 -0.02524
 C315 C -0.10882 -0.06363 -0.02564
 C316 C -0.02958 -0.06744 -0.10953
 H317 H -0.07544 -0.01427 0.01646
 H318 H 0.01721 -0.02651 -0.08148
 H319 H 0.05386 0.01039 0.04327
 H320 H 0.01131 -0.11708 0.01934
 H321 H -0.03305 -0.10201 0.08453
 H322 H 0.02572 -0.11472 0.07772
 H323 H -0.02022 0.02087 -0.09653
 H324 H 0.02838 0.04552 -0.07082
 H325 H -0.09746 -0.08275 0.06508
 H326 H -0.04980 0.02972 0.09450
 H327 H 0.05747 -0.07044 -0.09455
 H328 H 0.09787 -0.03252 -0.05787
 H329 H -0.04855 0.06844 0.04908
 H330 H -0.09486 0.02204 -0.02803
 H331 H 0.09065 -0.10106 0.01733
 H332 H 0.05367 -0.13585 -0.01831
 O333 O 0.12720 0.54032 0.48148
 O334 O 0.11463 0.52170 0.41831
 O335 O 0.03844 0.58416 0.52165
 O336 O -0.02124 0.57190 0.52342
 O337 O 0.08137 0.49237 0.57657
 O338 O 0.08662 0.43036 0.56119
 O339 O -0.05958 0.47905 0.44422
 O340 O -0.05010 0.54066 0.44512
 O341 O 0.03132 0.43792 0.39067
 O342 O 0.09894 0.44928 0.40330
 O343 O -0.00817 0.39455 0.47796
 O344 O 0.00554 0.40455 0.54572
 O345 O -0.05391 0.43889 0.48895
 O346 O -0.03484 0.44027 0.55065
 O347 O 0.03665 0.39285 0.43795
 O348 O 0.09593 0.40459 0.43778
 O349 O -0.01583 0.47493 0.39364
 O350 O -0.00634 0.54023 0.39933
 O351 O 0.13028 0.50168 0.52788
 O352 O 0.12588 0.43709 0.52186
 O353 O 0.03941 0.53537 0.57554
 O354 O -0.02205 0.53054 0.56402
 O355 O 0.07830 0.58328 0.47625
 O356 O 0.06824 0.56581 0.41555
 Zr357 Zr 0.07673 0.53079 0.45885
 O358 O 0.04459 0.49703 0.42766
 Zr359 Zr 0.01746 0.53161 0.52423
 O360 O -0.01602 0.49651 0.49653
 Zr361 Zr 0.08257 0.47221 0.52418
 O362 O 0.05221 0.43488 0.49500
 Zr363 Zr -0.00888 0.50307 0.44158
 O364 O 0.02273 0.54054 0.46938
 Zr365 Zr 0.05702 0.44451 0.44021
 O366 O 0.09163 0.47819 0.46923
 Zr367 Zr -0.00142 0.44334 0.50570
 O368 O 0.02901 0.47841 0.53763
 O369 O 0.07011 0.52456 0.51352
 O370 O 0.00362 0.45047 0.45134
 C371 C 0.14247 0.52784 0.50942
 C372 C 0.06202 0.59894 0.50155
 C373 C 0.06310 0.51698 0.59145
 C374 C -0.07185 0.45454 0.46482
 C375 C 0.00262 0.45088 0.37806
 C376 C 0.00894 0.37969 0.45225
 H377 H 0.04840 0.50198 0.40212
 H378 H 0.05951 0.41038 0.50071
 H379 H 0.08341 0.54149 0.52857
 H380 H -0.04057 0.50140 0.50386
 H381 H -0.03885 0.56392 0.45016
 H382 H -0.04201 0.56222 0.51071
 H383 H 0.10718 0.40408 0.46148
 H384 H 0.13872 0.44234 0.49954
 H385 H -0.02769 0.53699 0.38441
 H386 H 0.08845 0.58250 0.41394
 H387 H 0.01900 0.38455 0.53538
 H388 H 0.06307 0.42793 0.57226
 H389 H 0.13172 0.54166 0.41842
 H390 H 0.09025 0.46311 0.38280
 H391 H -0.01954 0.50767 0.57661
 H392 H -0.04996 0.46162 0.55042
 O393 O 0.58417 0.08724 0.50303
 O394 O 0.57185 0.08432 0.43994
 O395 O 0.48667 0.12704 0.54724
 O396 O 0.42867 0.11235 0.54287
 O397 O 0.53612 0.03897 0.59247
 O398 O 0.53542 -0.02487 0.57630
 O399 O 0.40270 0.03114 0.44708
 O400 O 0.40853 0.09176 0.45914
 O401 O 0.49149 -0.00675 0.40155
 O402 O 0.55931 0.01201 0.41528
 O403 O 0.45871 -0.06070 0.48448
 O404 O 0.45534 -0.05283 0.54857
 O405 O 0.40570 -0.01587 0.48489
 O406 O 0.41601 -0.01766 0.55106
 O407 O 0.50382 -0.05384 0.44523
 O408 O 0.56191 -0.03455 0.44506
 O409 O 0.44852 0.03509 0.40247
 O410 O 0.45656 0.09903 0.41769
 O411 O 0.58667 0.04156 0.54247
 O412 O 0.57676 -0.02072 0.53985
 O413 O 0.48886 0.07594 0.59332
 O414 O 0.42768 0.06470 0.57738
 O415 O 0.53260 0.13246 0.50847
 O416 O 0.52403 0.12530 0.44402
 Zr417 Zr 0.53321 0.08375 0.48088
 O418 O 0.50542 0.05271 0.44335
 Zr419 Zr 0.46949 0.07422 0.54127
 O420 O 0.43951 0.04241 0.50654
 Zr421 Zr 0.53630 0.01772 0.53984
 O422 O 0.50963 -0.01632 0.50418
 Zr423 Zr 0.45139 0.05625 0.45393
 O424 O 0.47860 0.09074 0.48876
 Zr425 Zr 0.51800 -0.00064 0.45105
 O426 O 0.54857 0.03037 0.48662
 Zr427 Zr 0.45486 -0.01105 0.51115
 O428 O 0.48180 0.02038 0.54971
 O429 O 0.52360 0.07054 0.53367
 O430 O 0.46389 0.00259 0.45857
 C431 C 0.60045 0.06809 0.52597
 C432 C 0.51262 0.14422 0.53357
 C433 C 0.51557 0.06151 0.60806
 C434 C 0.39003 0.00288 0.46105
 C435 C 0.46484 0.00927 0.38771
 C436 C 0.47970 -0.07233 0.46007
 H437 H 0.51082 0.06049 0.41882
 H438 H 0.51780 -0.04084 0.50842
 H439 H 0.53766 0.08553 0.55006
 H440 H 0.41416 0.04567 0.51165
 H441 H 0.41840 0.11445 0.46817
 H442 H 0.40923 0.10347 0.52770
 H443 H 0.56538 -0.04639 0.46822
 H444 H 0.58885 -0.01872 0.51660
 H445 H 0.43638 0.09790 0.40095
 H446 H 0.54213 0.14406 0.44750
 H447 H 0.47973 -0.06192 0.54959
 H448 H 0.51258 -0.02357 0.58900
 H449 H 0.58714 0.10552 0.44307
 H450 H 0.54856 0.01992 0.39269
 H451 H 0.43233 0.04147 0.58863
 H452 H 0.39894 0.00198 0.54874
 O453 O 0.48122 0.58519 0.07858
 O454 O 0.41912 0.57050 0.06594
 O455 O 0.52385 0.50051 0.13314
 O456 O 0.51719 0.43889 0.12957
 O457 O 0.57583 0.53065 0.04017
 O458 O 0.56328 0.52852 -0.02251
 O459 O 0.43449 0.39476 0.03729
 O460 O 0.44235 0.40668 0.09887
 O461 O 0.39153 0.47816 -0.01121
 O462 O 0.40458 0.54754 -0.00696
 O463 O 0.48459 0.43960 -0.05376
 O464 O 0.54752 0.44105 -0.03490
 O465 O 0.47670 0.39426 -0.00573
 O466 O 0.54222 0.40386 0.00291
 O467 O 0.44138 0.48099 -0.05816
 O468 O 0.43825 0.54138 -0.04966
 O469 O 0.39005 0.43989 0.03541
 O470 O 0.39968 0.45515 0.09826
 O471 O 0.52627 0.58298 0.03853
 O472 O 0.52518 0.56766 -0.02393
 O473 O 0.57343 0.49090 0.08552
 O474 O 0.55923 0.43049 0.08724
 O475 O 0.47943 0.54088 0.12887
 O476 O 0.41767 0.52898 0.11444
 Zr477 Zr 0.45963 0.53346 0.07728
 O478 O 0.42767 0.49922 0.04659
 Zr479 Zr 0.52178 0.47191 0.08439
 O480 O 0.49280 0.43527 0.05335
 Zr481 Zr 0.52462 0.53041 0.01798
 O482 O 0.49501 0.49684 -0.01553
 Zr483 Zr 0.43912 0.44624 0.05915
 O484 O 0.46791 0.48042 0.09325
 Zr485 Zr 0.44070 0.50479 -0.00729
 O486 O 0.47059 0.54179 0.02299
 Zr487 Zr 0.50302 0.44357 -0.00103
 O488 O 0.53567 0.47708 0.03021
 O489 O 0.51349 0.52462 0.07132
 O490 O 0.44934 0.45187 0.00493
 C491 C 0.50733 0.59935 0.06193
 C492 C 0.50558 0.52687 0.14517
 C493 C 0.58981 0.51311 0.06588
 C494 C 0.45048 0.38013 0.01085
 C495 C 0.37673 0.45375 0.00763
 C496 C 0.46075 0.45621 -0.07122
 H497 H 0.40256 0.50462 0.05117
 H498 H 0.50202 0.50167 -0.04039
 H499 H 0.52874 0.54070 0.08542
 H500 H 0.49793 0.41063 0.06056
 H501 H 0.44738 0.41916 0.12156
 H502 H 0.50722 0.41592 0.12150
 H503 H 0.46287 0.54631 -0.05681
 H504 H 0.50218 0.58000 -0.02319
 H505 H 0.38418 0.43390 0.09897
 H506 H 0.41770 0.55030 0.13003
 H507 H 0.54572 0.46091 -0.05194
 H508 H 0.57509 0.50524 -0.02036
 H509 H 0.41919 0.58921 0.08459
 H510 H 0.38343 0.53995 0.00645
 H511 H 0.56853 0.42723 0.06285
 H512 H 0.53517 0.38716 0.02187
 O513 O 0.70776 0.26743 0.59465
 O514 O 0.71289 0.32741 0.57531
 O515 O 0.66995 0.21167 0.50284
 O516 O 0.68688 0.19932 0.44750
 O517 O 0.76176 0.17176 0.56184
 O518 O 0.82136 0.18931 0.56493
 O519 O 0.76945 0.29404 0.40757
 O520 O 0.70908 0.28410 0.41318
 O521 O 0.80509 0.35282 0.49221
 O522 O 0.79603 0.35228 0.55380
 O523 O 0.85624 0.26293 0.46204
 O524 O 0.84942 0.19948 0.47526
 O525 O 0.81176 0.25200 0.41508
 O526 O 0.81094 0.18835 0.43905
 O527 O 0.85284 0.30889 0.50122
 O528 O 0.83410 0.31163 0.56739
 O529 O 0.76501 0.34513 0.44782
 O530 O 0.70157 0.33199 0.45533
 O531 O 0.75047 0.22619 0.60413
 O532 O 0.81529 0.23569 0.59681
 O533 O 0.72120 0.16457 0.51782
 O534 O 0.73297 0.16949 0.45214
 O535 O 0.66466 0.25731 0.54242
 O536 O 0.67700 0.32023 0.52425
 Zr537 Zr 0.71463 0.28226 0.54128
 O538 O 0.74782 0.31320 0.50887
 Zr539 Zr 0.72336 0.21170 0.48821
 O540 O 0.75494 0.24036 0.45260
 Zr541 Zr 0.77911 0.22439 0.55545
 O542 O 0.81458 0.25211 0.52201
 Zr543 Zr 0.74337 0.29469 0.45644
 O544 O 0.70801 0.26536 0.48816
 Zr545 Zr 0.80106 0.30603 0.52224
 O546 O 0.76755 0.27888 0.55841
 Zr547 Zr 0.80778 0.23617 0.46867
 O548 O 0.77636 0.20453 0.50288
 O549 O 0.72664 0.22848 0.54060
 O550 O 0.79643 0.29000 0.46957
 C551 C 0.72341 0.24448 0.61413
 C552 C 0.65220 0.23057 0.52492
 C553 C 0.73820 0.15366 0.54522
 C554 C 0.79552 0.27539 0.39653
 C555 C 0.78903 0.36295 0.46393
 C556 C 0.86890 0.29102 0.47687
 H557 H 0.74109 0.33850 0.51094
 H558 H 0.83908 0.24852 0.53010
 H559 H 0.71061 0.21448 0.55588
 H560 H 0.75097 0.23132 0.42818
 H561 H 0.68605 0.27730 0.42358
 H562 H 0.68996 0.21755 0.42892
 H563 H 0.85323 0.29396 0.56537
 H564 H 0.80860 0.25905 0.60689
 H565 H 0.70331 0.34546 0.43278
 H566 H 0.65612 0.31913 0.54006
 H567 H 0.86254 0.20622 0.49701
 H568 H 0.82657 0.17785 0.54178
 H569 H 0.69033 0.32722 0.58867
 H570 H 0.77628 0.34766 0.57036
 H571 H 0.75344 0.15618 0.46140
 H572 H 0.79332 0.18955 0.41970
 O573 O 0.73880 0.76831 -0.12067
 O574 O 0.67499 0.76153 -0.10659
 O575 O 0.78414 0.81713 -0.03377
 O576 O 0.79002 0.80737 0.02540
 O577 O 0.82591 0.71838 -0.07838
 O578 O 0.80848 0.65613 -0.06852
 O579 O 0.70125 0.72766 0.07265
 O580 O 0.70655 0.78753 0.05789
 O581 O 0.64249 0.68208 -0.01405
 O582 O 0.64617 0.68809 -0.07536
 O583 O 0.72923 0.63353 0.02403
 O584 O 0.79558 0.64073 0.01161
 O585 O 0.74085 0.68255 0.06850
 O586 O 0.80124 0.67799 0.04995
 O587 O 0.68569 0.63352 -0.01753
 O588 O 0.68781 0.64245 -0.08037
 O589 O 0.64919 0.72306 0.03008
 O590 O 0.66017 0.78700 0.01490
 O591 O 0.77356 0.71917 -0.12352
 O592 O 0.77016 0.66159 -0.11216
 O593 O 0.83195 0.76300 -0.03780
 O594 O 0.82322 0.76166 0.02739
 O595 O 0.73863 0.81732 -0.07320
 O596 O 0.67653 0.80520 -0.06084
 Zr597 Zr 0.71631 0.76635 -0.06881
 O598 O 0.68359 0.73773 -0.03347
 Zr599 Zr 0.78288 0.76528 -0.01133
 O600 O 0.75295 0.73624 0.02581
 Zr601 Zr 0.77415 0.70027 -0.07134
 O602 O 0.74356 0.66876 -0.03715
 Zr603 Zr 0.69891 0.74677 0.01965
 O604 O 0.72928 0.77892 -0.01542
 Zr605 Zr 0.69051 0.68328 -0.04158
 O606 O 0.72045 0.71153 -0.07966
 Zr607 Zr 0.75733 0.68140 0.01546
 O608 O 0.79090 0.71034 -0.01895
 O609 O 0.76953 0.75484 -0.06345
 O610 O 0.70391 0.69244 0.01142
 C611 C 0.76094 0.74767 -0.13675
 C612 C 0.76463 0.83245 -0.05734
 C613 C 0.84364 0.74309 -0.06312
 C614 C 0.71952 0.70216 0.08611
 C615 C 0.63170 0.69842 0.01387
 C616 C 0.70207 0.61963 0.00872
 H617 H 0.65863 0.74430 -0.03727
 H618 H 0.74681 0.64329 -0.04266
 H619 H 0.78454 0.76925 -0.07938
 H620 H 0.76123 0.74266 0.04994
 H621 H 0.71363 0.80903 0.04456
 H622 H 0.77352 0.80307 0.04528
 H623 H 0.69528 0.65306 -0.10323
 H624 H 0.75428 0.64267 -0.10343
 H625 H 0.64563 0.78672 0.03683
 H626 H 0.67720 0.82246 -0.08067
 H627 H 0.78641 0.62213 -0.00462
 H628 H 0.82423 0.66019 -0.04789
 H629 H 0.67760 0.78077 -0.12432
 H630 H 0.65452 0.69988 -0.09726
 H631 H 0.83540 0.73882 0.02320
 H632 H 0.80388 0.70137 0.06177
 O633 O 1.07403 0.19470 0.22027
 O634 O 1.06214 0.20432 0.28366
 O635 O 0.97866 0.14214 0.18509
 O636 O 0.91934 0.15363 0.19121
 O637 O 1.02141 0.22601 0.12829
 O638 O 1.01447 0.29389 0.13738
 O639 O 0.89111 0.25200 0.27257
 O640 O 0.89490 0.18768 0.26613
 O641 O 0.98125 0.28678 0.31781
 O642 O 1.04849 0.27867 0.29655
 O643 O 0.93767 0.33341 0.22657
 O644 O 0.94516 0.31603 0.15835
 O645 O 0.88956 0.28672 0.22317
 O646 O 0.90000 0.28642 0.16406
 O647 O 0.98086 0.33420 0.26845
 O648 O 1.04070 0.32400 0.26628
 O649 O 0.93631 0.24674 0.31844
 O650 O 0.94344 0.18366 0.30831
 O651 O 1.07169 0.23602 0.17626
 O652 O 1.05952 0.29439 0.16925
 O653 O 0.97611 0.18656 0.13299
 O654 O 0.91589 0.19460 0.14729
 O655 O 1.02522 0.14438 0.22338
 O656 O 1.01728 0.15977 0.28616
 Zr657 Zr 1.02293 0.19675 0.24399
 O658 O 0.99274 0.22992 0.27779
 Zr659 Zr 0.95779 0.19398 0.18458
 O660 O 0.92649 0.22906 0.21425
 Zr661 Zr 1.02049 0.25514 0.17747
 O662 O 0.99373 0.29204 0.21012
 Zr663 Zr 0.93849 0.22291 0.26821
 O664 O 0.96831 0.18567 0.23856
 Zr665 Zr 1.00255 0.28298 0.26495
 O666 O 1.03430 0.25021 0.23184
 Zr667 Zr 0.94001 0.28219 0.20292
 O668 O 0.96670 0.24689 0.16847
 O669 O 1.01159 0.20253 0.19041
 O670 O 0.94894 0.27597 0.25729
 C671 C 1.08784 0.21265 0.19446
 C672 C 1.00534 0.12807 0.20072
 C673 C 1.00207 0.20013 0.11627
 C674 C 0.87684 0.27565 0.25241
 C675 C 0.95519 0.27073 0.33333
 C676 C 0.95513 0.34870 0.25177
 H677 H 0.99870 0.22463 0.30283
 H678 H 1.00021 0.31655 0.20339
 H679 H 1.02638 0.18638 0.17602
 H680 H 0.90130 0.22424 0.20939
 H681 H 0.90455 0.16382 0.26089
 H682 H 0.89767 0.16474 0.20068
 H683 H 1.04574 0.33030 0.24129
 H684 H 1.06847 0.30083 0.19316
 H685 H 0.92243 0.18493 0.32398
 H686 H 1.03692 0.14249 0.28505
 H687 H 0.95864 0.33734 0.16582
 H688 H 0.99532 0.28554 0.12146
 H689 H 1.07925 0.18453 0.28217
 H690 H 1.04207 0.26520 0.31816
 H691 H 0.91873 0.21638 0.13290
 H692 H 0.89028 0.26226 0.16050
 O693 O 0.83628 1.00579 0.79904
 O694 O 0.82406 1.06681 0.78798
 O695 O 0.74763 0.96312 0.84912
 O696 O 0.68803 0.97183 0.84228
 O697 O 0.78429 0.90773 0.76166
 O698 O 0.78733 0.91529 0.70019
 O699 O 0.65372 1.05245 0.73971
 O700 O 0.65949 1.05174 0.80164
 O701 O 0.74733 1.09147 0.69717
 O702 O 0.80565 1.07733 0.69874
 O703 O 0.69721 0.99588 0.65895
 O704 O 0.70033 0.93318 0.67884
 O705 O 0.65206 1.00275 0.70503
 O706 O 0.66301 0.93841 0.71710
 O707 O 0.73767 1.04034 0.65549
 O708 O 0.80594 1.02979 0.66760
 O709 O 0.70337 1.09819 0.73779
 O710 O 0.70936 1.09142 0.80305
 O711 O 0.83628 0.95837 0.76112
 O712 O 0.82443 0.95554 0.69649
 O713 O 0.74022 0.91250 0.80253
 O714 O 0.67832 0.93119 0.80006
 O715 O 0.78971 1.00626 0.84613
 O716 O 0.77528 1.06968 0.82848
 Zr717 Zr 0.78542 1.02628 0.79374
 O718 O 0.75674 1.05689 0.75718
 Zr719 Zr 0.72278 0.96533 0.79880
 O720 O 0.69022 0.99460 0.76420
 Zr721 Zr 0.78574 0.95786 0.73695
 O722 O 0.75509 0.98495 0.69915
 Zr723 Zr 0.70267 1.04920 0.76603
 O724 O 0.73144 1.02035 0.80511
 Zr725 Zr 0.76493 1.03945 0.70466
 O726 O 0.79799 1.01221 0.74068
 Zr727 Zr 0.70142 0.97899 0.71172
 O728 O 0.73181 0.94765 0.74632
 O729 O 0.77608 0.97201 0.78910
 O730 O 0.71134 1.03343 0.71377
 C731 C 0.85096 0.97877 0.78462
 C732 C 0.77413 0.98038 0.86207
 C733 C 0.76413 0.89487 0.78602
 C734 C 0.63880 1.03172 0.71680
 C735 C 0.72308 1.10973 0.71225
 C736 C 0.71198 1.02172 0.64271
 H737 H 0.76368 1.08206 0.76039
 H738 H 0.76054 0.97636 0.67489
 H739 H 0.79084 0.95696 0.80450
 H740 H 0.66516 0.99071 0.77035
 H741 H 0.66892 1.04620 0.82553
 H742 H 0.66853 0.98701 0.83391
 H743 H 0.79603 1.01597 0.64748
 H744 H 0.83790 0.97807 0.69780
 H745 H 0.68989 1.10855 0.79950
 H746 H 0.79235 1.06902 0.84842
 H747 H 0.72025 0.93483 0.66193
 H748 H 0.76282 0.90644 0.69808
 H749 H 0.83849 1.06790 0.80997
 H750 H 0.82019 1.07563 0.72051
 H751 H 0.68023 0.91518 0.77920
 H752 H 0.64595 0.94598 0.73552
 O753 O 0.66277 0.55024 0.25412
 O754 O 0.67800 0.54533 0.31900
 O755 O 0.74940 0.60328 0.20933
 O756 O 0.81163 0.59606 0.21315
 O757 O 0.71313 0.50793 0.16525
 O758 O 0.72441 0.44168 0.18538
 O759 O 0.85320 0.51444 0.30230
 O760 O 0.84231 0.57542 0.28672
 O761 O 0.77385 0.47374 0.35358
 O762 O 0.70581 0.48496 0.34835
 O763 O 0.80161 0.41825 0.26933
 O764 O 0.79670 0.42717 0.20374
 O765 O 0.85098 0.46616 0.26567
 O766 O 0.84495 0.46432 0.20744
 O767 O 0.76156 0.42379 0.31414
 O768 O 0.70322 0.43404 0.31235
 O769 O 0.81011 0.52170 0.34945
 O770 O 0.79616 0.58165 0.33215
 O771 O 0.66484 0.50190 0.21757
 O772 O 0.67975 0.44599 0.21568
 O773 O 0.75451 0.55155 0.16202
 O774 O 0.81404 0.55191 0.17214
 O775 O 0.70836 0.60281 0.25363
 O776 O 0.71658 0.59525 0.31487
 Zr777 Zr 0.71437 0.55336 0.27680
 O778 O 0.74949 0.52850 0.31211
 Zr779 Zr 0.77551 0.55302 0.21297
 O780 O 0.81116 0.52363 0.24426
 Zr781 Zr 0.71757 0.48723 0.21789
 O782 O 0.74835 0.45760 0.25341
 Zr783 Zr 0.80237 0.53748 0.29736
 O784 O 0.76753 0.56781 0.26600
 Zr785 Zr 0.74202 0.47414 0.30675
 O786 O 0.70588 0.49867 0.27191
 Zr787 Zr 0.80117 0.46828 0.24208
 O788 O 0.77035 0.49732 0.20479
 O789 O 0.72300 0.54166 0.22338
 O790 O 0.79462 0.48273 0.29480
 C791 C 0.64856 0.52772 0.23218
 C792 C 0.72411 0.61763 0.22763
 C793 C 0.73000 0.53265 0.14850
 C794 C 0.86671 0.48610 0.28848
 C795 C 0.79880 0.49420 0.36537
 C796 C 0.78444 0.40628 0.29670
 H797 H 0.74508 0.53650 0.33684
 H798 H 0.74223 0.43224 0.25011
 H799 H 0.70662 0.55479 0.20780
 H800 H 0.83574 0.52881 0.23713
 H801 H 0.83023 0.59778 0.28041
 H802 H 0.83497 0.58699 0.22047
 H803 H 0.68134 0.44349 0.30167
 H804 H 0.67846 0.43616 0.24002
 H805 H 0.81834 0.58481 0.34580
 H806 H 0.69415 0.60872 0.31432
 H807 H 0.79339 0.43859 0.18030
 H808 H 0.73625 0.44935 0.16323
 H809 H 0.65768 0.56147 0.31574
 H810 H 0.71147 0.46875 0.36824
 H811 H 0.81424 0.52747 0.16236
 H812 H 0.84326 0.48461 0.19101
 O813 O 0.41189 0.27827 0.79372
 O814 O 0.42368 0.21618 0.78876
 O815 O 0.50131 0.31964 0.85286
 O816 O 0.55841 0.32881 0.84595
 O817 O 0.46399 0.36786 0.75183
 O818 O 0.47443 0.35478 0.69255
 O819 O 0.60148 0.22553 0.77204
 O820 O 0.58404 0.23652 0.83017
 O821 O 0.52192 0.18148 0.71432
 O822 O 0.46170 0.18855 0.71186
 O823 O 0.56827 0.27407 0.67294
 O824 O 0.57083 0.33341 0.68659
 O825 O 0.60688 0.26252 0.72471
 O826 O 0.59749 0.33329 0.73566
 O827 O 0.52650 0.23098 0.66636
 O828 O 0.46401 0.23362 0.66982
 O829 O 0.55530 0.18144 0.76461
 O830 O 0.53519 0.19582 0.82691
 O831 O 0.41734 0.31790 0.74850
 O832 O 0.44207 0.31102 0.68491
 O833 O 0.49677 0.36908 0.80244
 O834 O 0.56477 0.35848 0.79963
 O835 O 0.45709 0.27871 0.84852
 O836 O 0.46494 0.21446 0.83512
 Zr837 Zr 0.46282 0.25591 0.79699
 O838 O 0.49742 0.22162 0.76974
 Zr839 Zr 0.52421 0.31986 0.80246
 O840 O 0.56223 0.28622 0.77909
 Zr841 Zr 0.47092 0.31605 0.73292
 O842 O 0.50791 0.28540 0.70501
 Zr843 Zr 0.54890 0.23258 0.78658
 O844 O 0.51449 0.26604 0.81519
 Zr845 Zr 0.49758 0.23160 0.71472
 O846 O 0.45844 0.26230 0.74111
 Zr847 Zr 0.55967 0.29334 0.72413
 O848 O 0.52314 0.32923 0.74755
 O849 O 0.47263 0.30917 0.78764
 O850 O 0.54895 0.23991 0.73173
 C851 C 0.39936 0.30207 0.77279
 C852 C 0.47525 0.30231 0.86573
 C853 C 0.47399 0.38259 0.78084
 C854 C 0.61827 0.23739 0.74504
 C855 C 0.54339 0.16667 0.73615
 C856 C 0.55272 0.24978 0.65500
 H857 H 0.49077 0.19666 0.77461
 H858 H 0.50566 0.29140 0.67951
 H859 H 0.45556 0.32359 0.80128
 H860 H 0.58605 0.29147 0.78849
 H861 H 0.57022 0.24613 0.85036
 H862 H 0.57201 0.30669 0.84895
 H863 H 0.44016 0.23957 0.67861
 H864 H 0.42162 0.29535 0.68958
 H865 H 0.55468 0.17848 0.82890
 H866 H 0.44543 0.21750 0.85241
 H867 H 0.54825 0.33878 0.67465
 H868 H 0.49806 0.36580 0.69486
 H869 H 0.40567 0.21787 0.80784
 H870 H 0.44113 0.19554 0.72644
 H871 H 0.55849 0.37496 0.78020
 H872 H 0.61846 0.32169 0.74600
 O873 O 0.26239 0.81358 0.42894
 O874 O 0.20291 0.80381 0.44325
 O875 O 0.30376 0.86185 0.52556
 O876 O 0.30706 0.84842 0.58300
 O877 O 0.36064 0.77952 0.47351
 O878 O 0.35477 0.71542 0.47306
 O879 O 0.22210 0.74995 0.61207
 O880 O 0.22480 0.81170 0.60865
 O881 O 0.17880 0.71080 0.51879
 O882 O 0.19182 0.71375 0.45878
 O883 O 0.27616 0.66915 0.56287
 O884 O 0.33567 0.68593 0.56055
 O885 O 0.27022 0.71402 0.61096
 O886 O 0.33595 0.72748 0.59618
 O887 O 0.23008 0.66680 0.52435
 O888 O 0.23739 0.68133 0.45609
 O889 O 0.17614 0.75009 0.56485
 O890 O 0.18317 0.81463 0.56036
 O891 O 0.30889 0.77571 0.42474
 O892 O 0.31408 0.71205 0.43517
 O893 O 0.35701 0.81802 0.52021
 O894 O 0.34422 0.80566 0.58463
 O895 O 0.26482 0.85957 0.47949
 O896 O 0.20166 0.84113 0.49422
 Zr897 Zr 0.24438 0.80718 0.48113
 O898 O 0.21462 0.76983 0.50970
 Zr899 Zr 0.30718 0.80915 0.54265
 O900 O 0.27888 0.77381 0.57498
 Zr901 Zr 0.31205 0.75122 0.47556
 O902 O 0.28531 0.71221 0.50593
 Zr903 Zr 0.22473 0.77721 0.56399
 O904 O 0.25265 0.81669 0.53570
 Zr905 Zr 0.23057 0.71741 0.49896
 O906 O 0.25739 0.75462 0.46605
 Zr907 Zr 0.29307 0.72199 0.56050
 O908 O 0.32412 0.75748 0.53006
 O909 O 0.29837 0.80271 0.48845
 O910 O 0.23875 0.72492 0.55295
 C911 C 0.28776 0.79918 0.41172
 C912 C 0.28793 0.87573 0.49897
 C913 C 0.37303 0.80480 0.49326
 C914 C 0.24203 0.72603 0.62552
 C915 C 0.16255 0.72601 0.54478
 C916 C 0.24988 0.65310 0.54865
 H917 H 0.18948 0.77360 0.50385
 H918 H 0.29347 0.68823 0.49914
 H919 H 0.31166 0.81967 0.47353
 H920 H 0.28373 0.77887 0.60036
 H921 H 0.23014 0.83576 0.59954
 H922 H 0.28940 0.84094 0.60082
 H923 H 0.25315 0.66210 0.46411
 H924 H 0.29021 0.71094 0.42459
 H925 H 0.16719 0.81111 0.58095
 H926 H 0.20270 0.86240 0.47884
 H927 H 0.33954 0.67844 0.53562
 H928 H 0.36722 0.71737 0.49614
 H929 H 0.20151 0.82656 0.43012
 H930 H 0.19343 0.73618 0.44528
 H931 H 0.36199 0.78782 0.57746
 H932 H 0.32806 0.74221 0.61651
 O933 O 0.33535 0.22948 0.94194
 O934 O 0.31953 0.16607 0.94938
 O935 O 0.25052 0.27655 0.89303
 O936 O 0.18751 0.26850 0.90027
 O937 O 0.28494 0.32383 0.98566
 O938 O 0.28281 0.30584 1.05070
 O939 O 0.14697 0.18660 0.99086
 O940 O 0.15469 0.19713 0.92900
 O941 O 0.23251 0.13423 1.02715
 O942 O 0.30212 0.14754 1.01831
 O943 O 0.19913 0.22200 1.08067
 O944 O 0.20779 0.29059 1.06782
 O945 O 0.15035 0.23005 1.03304
 O946 O 0.16378 0.28899 1.03759
 O947 O 0.24137 0.17951 1.07786
 O948 O 0.29874 0.17545 1.06568
 O949 O 0.19013 0.13818 0.98462
 O950 O 0.20057 0.15179 0.92288
 O951 O 0.33570 0.27204 0.98527
 O952 O 0.32534 0.27263 1.04493
 O953 O 0.24323 0.32368 0.94219
 O954 O 0.18427 0.31210 0.94350
 O955 O 0.28973 0.23089 0.89265
 O956 O 0.27611 0.16933 0.90276
 Zr957 Zr 0.28348 0.20855 0.94295
 O958 O 0.24995 0.17502 0.97233
 Zr959 Zr 0.22367 0.27239 0.94303
 O960 O 0.18919 0.24318 0.97587
 Zr961 Zr 0.28474 0.27093 1.00649
 O962 O 0.25494 0.23772 1.04004
 Zr963 Zr 0.19675 0.18925 0.96515
 O964 O 0.22995 0.21870 0.93065
 Zr965 Zr 0.26013 0.18364 1.02610
 O966 O 0.29508 0.21645 0.99710
 Zr967 Zr 0.20185 0.24872 1.03051
 O968 O 0.23173 0.28342 0.99791
 O969 O 0.27630 0.26253 0.95287
 O970 O 0.20697 0.19487 1.01945
 C971 C 0.35049 0.25422 0.96023
 C972 C 0.27589 0.25838 0.87867
 C973 C 0.26660 0.33914 0.96105
 C974 C 0.13405 0.20516 1.01673
 C975 C 0.20625 0.12155 1.00911
 C976 C 0.21692 0.19606 1.09419
 H977 H 0.25413 0.15005 0.96527
 H978 H 0.26180 0.24211 1.06507
 H979 H 0.29207 0.27823 0.93907
 H980 H 0.16459 0.25032 0.97104
 H981 H 0.16544 0.20193 0.90548
 H982 H 0.16420 0.26212 0.91026
 H983 H 0.30739 0.19928 1.07266
 H984 H 0.33349 0.24787 1.04772
 H985 H 0.17832 0.13788 0.92195
 H986 H 0.29707 0.16892 0.88699
 H987 H 0.22280 0.28195 1.08747
 H988 H 0.26294 0.32228 1.04658
 H989 H 0.33773 0.16762 0.93051
 H990 H 0.29242 0.12609 1.00651
 H991 H 0.18303 0.32123 0.96819
 H992 H 0.15421 0.29438 1.01376
 N993 N 0.30437 0.35104 0.79705
 N994 N 0.27980 0.36894 0.81126
 N995 N 0.30141 -0.15606 0.31114
 N996 N 0.30522 -0.14183 0.28068
 N997 N 0.79115 0.83869 0.78117
 N998 N 0.76856 0.85870 0.79608
 N999 N 0.44807 0.92002 0.29754
 N1000 N 0.47461 0.90320 0.30893
 N1001 N -0.05064 0.90152 0.78633
 N1002 N -0.06041 0.88898 0.75648
 N1003 N -0.05157 -0.18752 -0.06740
 N1004 N -0.05871 -0.17415 -0.03713
 N1005 N -0.03546 0.33629 0.44404
 N1006 N -0.00523 0.34844 0.43586
 N1007 N 0.45484 -0.13013 0.46109
 N1008 N 0.47661 -0.10811 0.44799
 N1009 N 0.44794 0.33402 -0.03159
 N1010 N 0.43656 0.34723 -0.00251
 N1011 N 0.82673 0.41239 0.45677
 N1012 N 0.79884 0.39569 0.44819
 N1013 N 0.79784 0.88650 -0.05534
 N1014 N 0.77228 0.86833 -0.06789
 N1015 N 0.79714 0.30769 0.34346
 N1016 N 0.80799 0.28145 0.36149
 N1017 N 0.77507 0.79110 -0.17900
 N1018 N 0.77667 0.75897 -0.16922
 N1019 N 0.28019 0.44299 0.92685
 N1020 N 0.28631 0.47371 0.91436
 N1021 N 0.30188 -0.03630 0.41002
 N1022 N 0.27997 -0.05318 0.39079
 N1023 N -0.05938 -0.05859 -0.16389
 N1024 N -0.03750 -0.07636 -0.14558
 N1025 N -0.03851 0.44847 0.33140
 N1026 N -0.01038 0.43647 0.34529
 N1027 N 0.45848 -0.03333 0.34142
 N1028 N 0.44986 -0.00380 0.35535
 N1029 N 0.43400 0.46086 -0.12823
 N1030 N 0.45638 0.44637 -0.10771
 N1031 N 0.47289 0.82633 0.41712
 N1032 N 0.47248 0.79490 0.40487
 N1033 N -0.06600 0.77324 0.88338
 N1034 N -0.04419 0.78956 0.86364
 N1035 N 0.35573 0.80968 0.30500
 N1036 N 0.37718 0.78676 0.31718
 N1037 N -0.17399 0.78482 0.78218
 N1038 N -0.15461 0.79700 0.75745
 N1039 N 0.91693 0.29363 0.43610
 N1040 N 0.90234 0.30440 0.46480
 N1041 N 0.89727 0.77427 -0.06408
 N1042 N 0.87753 0.75045 -0.07744
 N1043 N -0.16247 -0.06276 -0.05883
 N1044 N -0.14345 -0.07592 -0.03445
 N1045 N -0.13016 0.45775 0.44127
 N1046 N -0.10766 0.44306 0.46140
 N1047 N 0.34024 -0.03493 0.46117
 N1048 N 0.35688 -0.00893 0.44772
 N1049 N 0.32764 0.45004 -0.03065
 N1050 N 0.34430 0.43880 -0.00380
 N1051 N 0.40100 0.45818 0.81615
 N1052 N 0.38024 0.48236 0.82701
 N1053 N 0.40657 -0.03184 0.30392
 N1054 N 0.38821 -0.04472 0.27874
 N1055 N 0.08989 0.53907 0.69656
 N1056 N 0.09965 0.54705 0.72792
 N1057 N 0.08362 0.02799 0.19535
 N1058 N 0.10070 0.03795 0.22266
 N1059 N 0.67182 0.71067 0.20462
 N1060 N 0.65495 0.73915 0.19881
 N1061 N 0.15087 0.70269 0.70760
 N1062 N 0.13128 0.72197 0.68837
 N1063 N 0.59843 0.23281 0.55635
 N1064 N 0.61678 0.21964 0.53131
 N1065 N 0.58503 0.69974 0.05623
 N1066 N 0.59884 0.68656 0.02831
 N1067 N 0.15880 0.02413 0.03189
 N1068 N 0.14367 -0.00474 0.04050
 N1069 N 0.18237 0.54433 0.55523
 N1070 N 0.17198 0.54761 0.52312
 N1071 N 0.65509 0.06063 0.55573
 N1072 N 0.63601 0.07783 0.53395
 N1073 N 0.64581 0.53812 0.05528
 N1074 N 0.62582 0.51897 0.07433
 N1075 N 0.03499 0.03250 0.15437
 N1076 N 0.04533 0.00433 0.13894
 N1077 N 0.05266 0.54778 0.64517
 N1078 N 0.07022 0.52462 0.62798
 N1079 N 0.55147 0.06499 0.65969
 N1080 N 0.52407 0.07439 0.64284
 N1081 N 0.54749 0.53997 0.18989
 N1082 N 0.51741 0.54536 0.17611
 N1083 N 0.21903 0.56287 0.60558
 N1084 N 0.20705 0.53755 0.62458
 N1085 N 0.19320 0.02310 0.08614
 N1086 N 0.21252 0.04029 0.10780
 N1087 N 0.71344 0.20926 0.66537
 N1088 N 0.70738 0.23739 0.64784
 N1089 N 0.69917 0.71123 0.14592
 N1090 N 0.71682 0.69391 0.12299
 N1091 N 0.54073 0.69753 0.10301
 N1092 N 0.55098 0.72701 0.11625
 N1093 N 0.05790 0.70543 0.57013
 N1094 N 0.02707 0.69746 0.58071
 N1095 N 0.54560 0.59741 0.21879
 N1096 N 0.56306 0.62150 0.23459
 N1097 N 0.04815 0.58773 0.69574
 N1098 N 0.02301 0.60448 0.68109
 N1099 N 0.03464 0.12983 0.03765
 N1100 N 0.04816 0.10665 0.01718
 N1101 N 0.05945 0.65302 0.53323
 N1102 N 0.07359 0.63417 0.50920
 N1103 N 0.55146 0.19146 0.54277
 N1104 N 0.52246 0.17649 0.55059
 N1105 N 0.54315 0.65089 0.05817
 N1106 N 0.51706 0.63478 0.07215
 N1107 N 0.70146 0.10399 0.54789
 N1108 N 0.72850 0.12020 0.55970
 N1109 N 0.69907 0.57312 0.05073
 N1110 N 0.68712 0.58796 0.02296
 N1111 N 0.20461 0.66876 0.71133
 N1112 N 0.19142 0.65043 0.73614
 N1113 N 0.19844 0.15110 0.19404
 N1114 N 0.19196 0.13601 0.22356
 N1115 N 0.69778 1.16796 0.71246
 N1116 N 0.71850 1.14505 0.69897
 N1117 N 0.71642 0.66724 0.18921
 N1118 N 0.71023 0.65146 0.21828
 N1119 N 0.54556 0.11469 0.70075
 N1120 N 0.55615 0.13198 0.72791
 N1121 N 1.04193 0.07690 0.20072
 N1122 N 1.01456 0.09291 0.18965
 N1123 N 0.21696 0.59880 0.55170
 N1124 N 0.24160 0.61885 0.56312
 N1125 N 0.20365 0.06914 1.04311
 N1126 N 0.19264 0.08719 1.01705
 N1127 N 0.20043 0.71714 0.66997
 N1128 N 0.23067 0.70979 0.65753
 N1129 N 0.18423 0.19465 1.14852
 N1130 N 0.20945 0.18349 1.12931
 N1131 N 0.69162 0.53111 0.09907
 N1132 N 0.71973 0.54237 0.11345
 N1133 N 0.70714 1.05964 0.59366
 N1134 N 0.69665 1.03197 0.60969
 N1135 N 0.54948 0.22562 0.59708
 N1136 N 0.56593 0.24398 0.62008
 N1137 N 1.04032 0.18666 0.06810
 N1138 N 1.01144 0.18182 0.08435
 N1139 N 0.66652 0.22410 0.70693
 N1140 N 0.64982 0.21874 0.73576
 N1141 N 1.14430 0.18492 0.19789
 N1142 N 1.12300 0.20609 0.18310
 N1143 N 0.10948 0.69363 0.53407
 N1144 N 0.12672 0.71657 0.55203
 N1145 N 0.08223 0.17007 1.02248
 N1146 N 0.09982 0.19770 1.03018
 N1147 N 0.59443 0.55847 0.23011
 N1148 N 0.61285 0.53191 0.22116
 N1149 N 0.59104 1.07084 0.71001
 N1150 N 0.60610 1.04201 0.70152
 N1151 N 0.91438 0.44642 0.28789
 N1152 N 0.90078 0.47486 0.30031
 N1153 N 0.90156 0.94334 0.78507
 N1154 N 0.88473 0.96939 0.79801
 N1155 N 0.34352 0.30058 0.80140
 N1156 N 0.36407 0.31421 0.77835
 N1157 N 0.83596 0.29048 0.29600
 N1158 N 0.84680 0.29404 0.26448
 N1159 N 0.42372 0.81370 0.45679
 N1160 N 0.40514 0.82217 0.48362
 N1161 N 0.40078 0.29009 0.96612
 N1162 N 0.38506 0.26477 0.95002
 N1163 N 0.81305 0.45497 0.41138
 N1164 N 0.81801 0.48450 0.39626
 N1165 N 0.78460 0.93586 0.90488
 N1166 N 0.79079 0.96708 0.89345
 N1167 N 0.31860 0.80175 0.35683
 N1168 N 0.29304 0.81171 0.37626
 N1169 N 0.28937 0.30267 0.83631
 N1170 N 0.29331 0.27120 0.84749
 N1171 N 0.44264 0.29346 0.91827
 N1172 N 0.46596 0.31079 0.90146
 N1173 N 0.96179 0.30096 0.38964
 N1174 N 0.94526 0.27953 0.36928
 N1175 N 0.45417 0.42295 0.82397
 N1176 N 0.45467 0.41324 0.79160
 N1177 N 0.95896 0.39996 0.28841
 N1178 N 0.94404 0.38350 0.26274
 N1179 N 0.29306 0.92159 0.45751
 N1180 N 0.30029 0.90971 0.48817
 N1181 N 0.29346 0.39589 0.96879
 N1182 N 0.27232 0.37550 0.95239
 N1183 N 0.80642 0.34707 0.29319
 N1184 N 0.79016 0.37135 0.30977
   
