data_POSCAR
  _audit_creation_date              2014-09-24
  _audit_creation_method            'ToBaCCo'
  _symmetry_space_group_name_H-M    'P1'
  _symmetry_Int_Tables_number       1
  _symmetry_cell_setting            triclinic
  loop_
  _symmetry_equiv_pos_as_xyz
 x,y,z
_cell_length_a 57.5742
_cell_length_b 57.8397
_cell_length_c 58.7244
_cell_angle_alpha 89.586200
_cell_angle_beta 89.903400
_cell_angle_gamma 89.377900
loop_
  _atom_site_label
  _atom_site_type_symbol
  _atom_site_fract_x
  _atom_site_fract_y
  _atom_site_fract_z
N1 N 0.29316 0.23927 0.21836
 N2 N 0.28156 0.25622 0.20844
 C3 C 0.29351 0.26360 0.19011
 C4 C 0.31368 0.25044 0.18833
 C5 C 0.31281 0.23513 0.20657
 H6 H 0.28780 0.27735 0.17880
 H7 H 0.32569 0.22219 0.21116
 Cu8 Cu 0.25185 0.26690 0.22024
 Cu9 Cu 0.28211 0.22423 0.24606
 Cu10 Cu 0.23323 0.24827 0.27145
 N11 N 0.22717 0.28283 0.23653
 N12 N 0.21979 0.27545 0.25644
 C13 C 0.20253 0.28948 0.26367
 C14 C 0.19893 0.30670 0.24744
 C15 C 0.21496 0.30184 0.23044
 H16 H 0.19343 0.28733 0.27964
 H17 H 0.21750 0.31125 0.21468
 N18 N 0.24954 0.22074 0.28378
 N19 N 0.26819 0.21162 0.27414
 C20 C 0.27517 0.19307 0.28641
 C21 C 0.26019 0.19029 0.30469
 C22 C 0.24414 0.20819 0.30241
 H23 H 0.28987 0.18217 0.28213
 H24 H 0.22962 0.21187 0.31352
 H25 H 0.24690 0.23198 0.24328
 H26 H 0.26544 0.25400 0.25738
 N27 N 0.71557 -0.23266 0.22194
 N28 N 0.72255 -0.25300 0.21469
 C29 C 0.70907 -0.25938 0.19718
 C30 C 0.69260 -0.24210 0.19309
 C31 C 0.69738 -0.22539 0.20930
 H32 H 0.71131 -0.27538 0.18805
 H33 H 0.68837 -0.20914 0.21187
 Cu34 Cu 0.74889 -0.26920 0.22834
 Cu35 Cu 0.73046 -0.21734 0.24738
 Cu36 Cu 0.77761 -0.24549 0.27214
 N37 N 0.77641 -0.28382 0.24145
 N38 N 0.78744 -0.27466 0.25865
 C39 C 0.80595 -0.28805 0.26396
 C40 C 0.80673 -0.30673 0.24918
 C41 C 0.78754 -0.30334 0.23516
 H42 H 0.81805 -0.28414 0.27739
 H43 H 0.78214 -0.31403 0.22118
 N44 N 0.76516 -0.21577 0.28325
 N45 N 0.74769 -0.20468 0.27337
 C46 C 0.74378 -0.18466 0.28440
 C47 C 0.75941 -0.18314 0.30218
 C48 C 0.77266 -0.20319 0.30094
 H49 H 0.73026 -0.17228 0.28011
 H50 H 0.78693 -0.20809 0.31197
 H51 H 0.76289 -0.23241 0.24257
 H52 H 0.74294 -0.24703 0.26312
 N53 N 0.71457 0.24570 0.76874
 N54 N 0.72242 0.26569 0.77568
 C55 C 0.70910 0.27335 0.79295
 C56 C 0.69189 0.25730 0.79716
 C57 C 0.69595 0.23995 0.78140
 H58 H 0.71207 0.28924 0.80200
 H59 H 0.68609 0.22433 0.77919
 Cu60 Cu 0.74961 0.27990 0.76216
 Cu61 Cu 0.72912 0.22879 0.74379
 Cu62 Cu 0.78275 0.24849 0.72645
 N63 N 0.78143 0.28828 0.75522
 N64 N 0.79471 0.27532 0.74222
 C65 C 0.81588 0.28483 0.74066
 C66 C 0.81587 0.30516 0.75314
 C67 C 0.79356 0.30670 0.76214
 H68 H 0.82985 0.27786 0.73041
 H69 H 0.78659 0.31999 0.77312
 N70 N 0.76756 0.22187 0.71237
 N71 N 0.74700 0.21441 0.71884
 C72 C 0.74076 0.19689 0.70523
 C73 C 0.75820 0.19321 0.68930
 C74 C 0.77492 0.20940 0.69444
 H75 H 0.72440 0.18797 0.70641
 H76 H 0.79111 0.21218 0.68557
 H77 H 0.76104 0.24047 0.75378
 H78 H 0.74715 0.25548 0.72873
 N79 N 0.28885 -0.24250 0.78019
 N80 N 0.27828 -0.26082 0.78828
 C81 C 0.28953 -0.26836 0.80704
 C82 C 0.30826 -0.25404 0.81092
 C83 C 0.30719 -0.23778 0.79348
 H84 H 0.28449 -0.28321 0.81707
 H85 H 0.31907 -0.22376 0.79037
 Cu86 Cu 0.25134 -0.27341 0.77297
 Cu87 Cu 0.27834 -0.22638 0.75277
 Cu88 Cu 0.23021 -0.24865 0.72535
 N89 N 0.22418 -0.28561 0.75771
 N90 N 0.21618 -0.27604 0.73892
 C91 C 0.19773 -0.28800 0.73165
 C92 C 0.19376 -0.30617 0.74676
 C93 C 0.21102 -0.30395 0.76312
 H94 H 0.18796 -0.28361 0.71651
 H95 H 0.21401 -0.31490 0.77781
 N96 N 0.24683 -0.22107 0.71436
 N97 N 0.26506 -0.21255 0.72484
 C98 C 0.27237 -0.19377 0.71331
 C99 C 0.25810 -0.19025 0.69462
 C100 C 0.24210 -0.20794 0.69587
 H101 H 0.28714 -0.18353 0.71809
 H102 H 0.22789 -0.21092 0.68431
 H103 H 0.24388 -0.23586 0.75521
 H104 H 0.26332 -0.25463 0.73764
 N105 N 0.70886 -0.23942 0.77868
 N106 N 0.71861 -0.25821 0.78719
 C107 C 0.70678 -0.26472 0.80595
 C108 C 0.68863 -0.24916 0.80939
 C109 C 0.69056 -0.23335 0.79166
 H110 H 0.71123 -0.27954 0.81643
 H111 H 0.67946 -0.21854 0.78830
 Cu112 Cu 0.74588 -0.27214 0.77292
 Cu113 Cu 0.72054 -0.22404 0.75152
 Cu114 Cu 0.76925 -0.24803 0.72591
 N115 N 0.77389 -0.28476 0.75887
 N116 N 0.78263 -0.27548 0.74032
 C117 C 0.80158 -0.28761 0.73398
 C118 C 0.80516 -0.30558 0.74945
 C119 C 0.78712 -0.30309 0.76507
 H120 H 0.81202 -0.28336 0.71927
 H121 H 0.78368 -0.31385 0.77977
 N122 N 0.75323 -0.22023 0.71397
 N123 N 0.73484 -0.21095 0.72391
 C124 C 0.72833 -0.19186 0.71222
 C125 C 0.74329 -0.18895 0.69398
 C126 C 0.75884 -0.20732 0.69563
 H127 H 0.71371 -0.18089 0.71662
 H128 H 0.77348 -0.21074 0.68457
 H129 H 0.73572 -0.25308 0.73704
 H130 H 0.75475 -0.23500 0.75533
 N131 N 0.28545 0.23502 0.77624
 N132 N 0.27655 0.25420 0.78456
 C133 C 0.28883 0.26027 0.80305
 C134 C 0.30632 0.24396 0.80655
 C135 C 0.30358 0.22820 0.78913
 H136 H 0.28518 0.27529 0.81334
 H137 H 0.31413 0.21301 0.78589
 Cu138 Cu 0.24976 0.26921 0.77031
 Cu139 Cu 0.27304 0.22025 0.74926
 Cu140 Cu 0.22548 0.24661 0.72352
 N141 N 0.22297 0.28378 0.75565
 N142 N 0.21369 0.27489 0.73730
 C143 C 0.19576 0.28832 0.73048
 C144 C 0.19357 0.30668 0.74535
 C145 C 0.21116 0.30319 0.76115
 H146 H 0.18498 0.28482 0.71588
 H147 H 0.21523 0.31412 0.77541
 N148 N 0.23990 0.21792 0.71211
 N149 N 0.25805 0.20794 0.72186
 C150 C 0.26388 0.18884 0.71010
 C151 C 0.24865 0.18661 0.69202
 C152 C 0.23368 0.20543 0.69389
 H153 H 0.27821 0.17745 0.71442
 H154 H 0.21929 0.20977 0.68284
 H155 H 0.25931 0.24999 0.73463
 H156 H 0.23945 0.23256 0.75298
 N157 N 0.28078 -0.23902 0.22031
 N158 N 0.26950 -0.25598 0.21064
 C159 C 0.28018 -0.26152 0.19096
 C160 C 0.29926 -0.24739 0.18825
 C161 C 0.29912 -0.23337 0.20725
 H162 H 0.27478 -0.27506 0.17959
 H163 H 0.31126 -0.21982 0.21111
 Cu164 Cu 0.24235 -0.26940 0.22519
 Cu165 Cu 0.27047 -0.22495 0.24871
 Cu166 Cu 0.22131 -0.24798 0.27408
 N167 N 0.21506 -0.28257 0.23974
 N168 N 0.20693 -0.27399 0.25885
 C169 C 0.18823 -0.28609 0.26542
 C170 C 0.18433 -0.30331 0.24963
 C171 C 0.20180 -0.30051 0.23355
 H172 H 0.17842 -0.28274 0.28077
 H173 H 0.20461 -0.31073 0.21845
 N174 N 0.23831 -0.22170 0.28687
 N175 N 0.25717 -0.21310 0.27738
 C176 C 0.26455 -0.19527 0.29000
 C177 C 0.24958 -0.19240 0.30828
 C178 C 0.23319 -0.20952 0.30571
 H179 H 0.27944 -0.18481 0.28591
 H180 H 0.21858 -0.21290 0.31678
 H181 H 0.25453 -0.25398 0.26179
 H182 H 0.23591 -0.23321 0.24533
 N183 N 0.70753 0.24105 0.22376
 N184 N 0.72005 0.25549 0.21163
 C185 C 0.70846 0.26110 0.19245
 C186 C 0.68747 0.24964 0.19261
 C187 C 0.68748 0.23709 0.21279
 H188 H 0.71473 0.27288 0.17951
 H189 H 0.67411 0.22558 0.21883
 Cu190 Cu 0.75016 0.26599 0.22197
 Cu191 Cu 0.71864 0.22765 0.25226
 Cu192 Cu 0.76848 0.25113 0.27459
 N193 N 0.77511 0.28231 0.23697
 N194 N 0.78218 0.27648 0.25749
 C195 C 0.79947 0.29054 0.26371
 C196 C 0.80352 0.30613 0.24614
 C197 C 0.78764 0.30034 0.22942
 H198 H 0.80823 0.28960 0.27995
 H199 H 0.78538 0.30850 0.21295
 N200 N 0.75201 0.22536 0.28922
 N201 N 0.73290 0.21645 0.28080
 C202 C 0.72614 0.19882 0.29427
 C203 C 0.74177 0.19645 0.31210
 C204 C 0.75793 0.21366 0.30827
 H205 H 0.71112 0.18830 0.29109
 H206 H 0.77318 0.21716 0.31829
 H207 H 0.73623 0.25746 0.26005
 H208 H 0.75381 0.23301 0.24784
 C209 C 0.24788 -0.01013 0.42691
 C210 C 0.24915 0.01351 0.42754
 C211 C 0.24746 0.01970 0.45026
 N212 N 0.24500 0.00065 0.46343
 C213 C 0.24504 -0.01758 0.44922
 C214 C 0.24822 0.04261 0.45842
 C215 C 0.24751 0.04844 0.48179
 C216 C 0.25304 0.07004 0.49019
 C217 C 0.24989 0.06909 0.51335
 C218 C 0.24239 0.04696 0.51852
 N219 N 0.24094 0.03447 0.49920
 C220 C 0.23601 0.03926 0.54053
 C221 C 0.23284 0.01575 0.54619
 C222 C 0.22299 0.00790 0.56628
 C223 C 0.22481 -0.01573 0.56600
 C224 C 0.23636 -0.02153 0.54607
 N225 N 0.24059 -0.00225 0.53364
 C226 C 0.24166 -0.04429 0.53887
 C227 C 0.23756 -0.04957 0.51571
 C228 C 0.22495 -0.06830 0.50821
 C229 C 0.22497 -0.06734 0.48487
 C230 C 0.23668 -0.04745 0.47871
 N231 N 0.24396 -0.03639 0.49763
 C232 C 0.24072 -0.04060 0.45592
 H233 H 0.24839 -0.02054 0.41168
 H234 H 0.25098 0.02477 0.41288
 H235 H 0.25459 -0.02192 0.49817
 H236 H 0.25889 0.08496 0.48062
 H237 H 0.25276 0.08317 0.52502
 H238 H 0.21500 0.01813 0.57959
 H239 H 0.21764 -0.02731 0.57868
 H240 H 0.21664 -0.07951 0.47369
 H241 H 0.23367 0.01816 0.49792
 H242 H 0.21599 -0.08100 0.51849
 C243 C 0.73526 0.07116 0.48844
 C244 C 0.73740 0.07119 0.51170
 C245 C 0.74434 0.04906 0.51800
 N246 N 0.74603 0.03542 0.49950
 C247 C 0.74056 0.04888 0.48136
 C248 C 0.75104 0.04228 0.54015
 C249 C 0.75927 0.01985 0.54546
 C250 C 0.77439 0.01488 0.56316
 C251 C 0.77810 -0.00858 0.56301
 C252 C 0.76411 -0.01746 0.54608
 N253 N 0.75343 0.00011 0.53472
 C254 C 0.76247 -0.04110 0.54047
 C255 C 0.76611 -0.04762 0.51757
 C256 C 0.77620 -0.06826 0.51066
 C257 C 0.77621 -0.06790 0.48734
 C258 C 0.76625 -0.04697 0.48073
 N259 N 0.76057 -0.03438 0.49927
 C260 C 0.76083 -0.04077 0.45799
 C261 C 0.75271 -0.01849 0.45138
 C262 C 0.74385 -0.01302 0.43003
 C263 C 0.73845 0.01015 0.43012
 C264 C 0.74383 0.01826 0.45162
 N265 N 0.75274 0.00074 0.46443
 C266 C 0.74037 0.04146 0.45849
 H267 H 0.73039 0.08590 0.47800
 H268 H 0.73473 0.08600 0.52259
 H269 H 0.76024 0.00221 0.48041
 H270 H 0.78278 0.02707 0.57428
 H271 H 0.79093 -0.01766 0.57320
 H272 H 0.78320 -0.08198 0.52132
 H273 H 0.78275 -0.08155 0.47648
 H274 H 0.73097 0.01984 0.41605
 H275 H 0.74125 -0.00155 0.52171
 H276 H 0.74133 -0.02451 0.41581
 C277 C 0.43169 0.26137 -0.01512
 C278 C 0.43245 0.25970 0.00818
 C279 C 0.45482 0.25269 0.01378
 N280 N 0.46769 0.24984 -0.00528
 C281 C 0.45360 0.25520 -0.02297
 C282 C 0.46263 0.24776 0.03608
 C283 C 0.48624 0.24382 0.04162
 C284 C 0.49404 0.23472 0.06217
 C285 C 0.51790 0.23506 0.06146
 C286 C 0.52404 0.24437 0.04049
 N287 N 0.50463 0.24969 0.02851
 C288 C 0.54708 0.24894 0.03351
 C289 C 0.55325 0.25318 0.01056
 C290 C 0.57496 0.26019 0.00316
 C291 C 0.57420 0.26061 -0.02019
 C292 C 0.55201 0.25401 -0.02627
 N293 N 0.53926 0.24941 -0.00747
 C294 C 0.54433 0.25088 -0.04885
 C295 C 0.52072 0.24787 -0.05464
 C296 C 0.51294 0.24044 -0.07567
 C297 C 0.48907 0.24122 -0.07495
 C298 C 0.48292 0.24898 -0.05347
 N299 N 0.50230 0.25309 -0.04121
 C300 C 0.45985 0.25311 -0.04614
 H301 H 0.41667 0.26638 -0.02513
 H302 H 0.41814 0.26318 0.01968
 H303 H 0.50290 0.26141 -0.02560
 H304 H 0.48363 0.22865 0.07632
 H305 H 0.52940 0.22924 0.07493
 H306 H 0.58987 0.26440 0.01347
 H307 H 0.58838 0.26521 -0.03142
 H308 H 0.47756 0.23658 -0.08870
 H309 H 0.50397 0.25923 0.01346
 H310 H 0.52336 0.23514 -0.09011
 C311 C 0.48742 0.75551 0.07397
 C312 C 0.51123 0.75470 0.07405
 C313 C 0.51804 0.74736 0.05262
 N314 N 0.49921 0.74352 0.03952
 C315 C 0.48046 0.74855 0.05251
 C316 C 0.54128 0.74318 0.04596
 C317 C 0.54810 0.73859 0.02327
 C318 C 0.56998 0.73075 0.01682
 C319 C 0.57001 0.72967 -0.00657
 C320 C 0.54815 0.73684 -0.01378
 N321 N 0.53497 0.74239 0.00451
 C322 C 0.54150 0.73948 -0.03683
 C323 C 0.51844 0.74363 -0.04404
 C324 C 0.51202 0.74929 -0.06615
 C325 C 0.48826 0.75122 -0.06621
 C326 C 0.48093 0.74649 -0.04418
 N327 N 0.49939 0.74172 -0.03070
 C328 C 0.45748 0.74539 -0.03719
 C329 C 0.45059 0.74217 -0.01429
 C330 C 0.42865 0.73530 -0.00747
 C331 C 0.42862 0.73512 0.01595
 C332 C 0.45048 0.74212 0.02281
 N333 N 0.46375 0.74642 0.00425
 C334 C 0.45714 0.74564 0.04572
 H335 H 0.47649 0.76063 0.08811
 H336 H 0.52226 0.75899 0.08828
 H337 H 0.47985 0.75434 0.00416
 H338 H 0.58452 0.72652 0.02779
 H339 H 0.58460 0.72449 -0.01707
 H340 H 0.52329 0.75180 -0.08071
 H341 H 0.47762 0.75547 -0.08085
 H342 H 0.41406 0.73052 0.02667
 H343 H 0.51893 0.75068 0.00411
 H344 H 0.41417 0.73084 -0.01825
 C345 C -0.01466 0.42579 0.24514
 C346 C 0.00916 0.42507 0.24465
 C347 C 0.01659 0.44693 0.25057
 N348 N -0.00185 0.46093 0.25475
 C349 C -0.02097 0.44805 0.25139
 C350 C 0.04003 0.45324 0.25338
 C351 C 0.04718 0.47638 0.25615
 C352 C 0.06911 0.48290 0.26324
 C353 C 0.06958 0.50665 0.26233
 C354 C 0.04791 0.51401 0.25477
 N355 N 0.03439 0.49545 0.25096
 C356 C 0.04160 0.53733 0.25043
 C357 C 0.01834 0.54484 0.24771
 C358 C 0.01153 0.56684 0.24076
 C359 C -0.01226 0.56754 0.24189
 C360 C -0.01919 0.54593 0.24947
 N361 N -0.00047 0.53210 0.25307
 C362 C -0.04233 0.53979 0.25438
 C363 C -0.04919 0.51677 0.25877
 C364 C -0.07039 0.51051 0.26807
 C365 C -0.07090 0.48674 0.26826
 C366 C -0.04996 0.47913 0.25916
 N367 N -0.03686 0.49753 0.25333
 C368 C -0.04398 0.45570 0.25541
 H369 H -0.02601 0.41150 0.24146
 H370 H 0.01977 0.41012 0.24051
 H371 H -0.02159 0.49701 0.24386
 H372 H 0.08338 0.47171 0.26837
 H373 H 0.08427 0.51727 0.26664
 H374 H 0.02256 0.58097 0.23554
 H375 H -0.02320 0.58229 0.23770
 H376 H -0.08509 0.47627 0.27440
 H377 H 0.01835 0.49570 0.24286
 H378 H -0.08413 0.52187 0.27401
 C379 C 0.07249 0.49078 0.76824
 C380 C 0.07238 0.51452 0.76833
 C381 C 0.05018 0.52156 0.76212
 N382 N 0.03681 0.50298 0.75805
 C383 C 0.05038 0.48415 0.76187
 C384 C 0.04293 0.54478 0.75914
 C385 C 0.01949 0.55151 0.75592
 C386 C 0.01215 0.57332 0.74884
 C387 C -0.01174 0.57336 0.74946
 C388 C -0.01830 0.55158 0.75690
 N389 N 0.00082 0.53840 0.76085
 C390 C -0.04140 0.54492 0.76137
 C391 C -0.04801 0.52174 0.76474
 C392 C -0.06955 0.51479 0.77261
 C393 C -0.06939 0.49109 0.77214
 C394 C -0.04783 0.48437 0.76378
 N395 N -0.03479 0.50315 0.75928
 C396 C -0.04102 0.46139 0.75891
 C397 C -0.01767 0.45508 0.75423
 C398 C -0.01055 0.43424 0.74482
 C399 C 0.01334 0.43411 0.74484
 C400 C 0.02016 0.45496 0.75405
 N401 N 0.00118 0.46763 0.75976
 C402 C 0.04342 0.46114 0.75828
 H403 H 0.08719 0.47968 0.77227
 H404 H 0.08696 0.52535 0.77248
 H405 H 0.00117 0.48267 0.76936
 H406 H 0.02290 0.58779 0.74399
 H407 H -0.02297 0.58787 0.74519
 H408 H -0.08387 0.52568 0.77810
 H409 H -0.08356 0.48008 0.77731
 H410 H 0.02444 0.42021 0.73883
 H411 H 0.00114 0.52240 0.76899
 H412 H -0.02142 0.42045 0.73874
 C413 C 0.33457 0.27268 0.15788
 C414 C 0.35196 0.27441 0.14133
 C415 C 0.36703 0.25571 0.13706
 C416 C 0.36480 0.23540 0.15017
 C417 C 0.34753 0.23374 0.16685
 C418 C 0.33213 0.25230 0.17079
 C419 C 0.38517 0.25822 0.11929
 C420 C 0.39406 0.24024 0.10775
 C421 C 0.41168 0.24277 0.08951
 C422 C 0.41284 0.22607 0.07230
 C423 C 0.42931 0.22775 0.05488
 C424 C 0.44510 0.24602 0.05455
 C425 C 0.44431 0.26255 0.07189
 C426 C 0.42774 0.26098 0.08924
 H427 H 0.32325 0.28744 0.16072
 H428 H 0.35351 0.29035 0.13167
 H429 H 0.37655 0.22088 0.14788
 H430 H 0.34617 0.21780 0.17650
 H431 H 0.39025 0.27561 0.11469
 H432 H 0.38728 0.22310 0.11075
 H433 H 0.40082 0.21178 0.07224
 H434 H 0.42983 0.21476 0.04168
 H435 H 0.45656 0.27663 0.07195
 H436 H 0.42784 0.27377 0.10259
 C437 C 0.66001 0.77756 0.17374
 C438 C 0.64288 0.77799 0.15689
 C439 C 0.64011 0.75918 0.14227
 C440 C 0.65518 0.74005 0.14449
 C441 C 0.67240 0.73962 0.16122
 C442 C 0.67512 0.75834 0.17622
 C443 C 0.62200 0.76041 0.12440
 C444 C 0.61172 0.74160 0.11600
 C445 C 0.59365 0.74268 0.09809
 C446 C 0.57739 0.72482 0.09690
 C447 C 0.56031 0.72503 0.08002
 C448 C 0.55943 0.74298 0.06386
 C449 C 0.57581 0.76069 0.06474
 C450 C 0.59282 0.76058 0.08170
 H451 H 0.66131 0.79247 0.18464
 H452 H 0.63161 0.79305 0.15536
 H453 H 0.65407 0.72554 0.13303
 H454 H 0.68353 0.72448 0.16213
 H455 H 0.61624 0.77742 0.11886
 H456 H 0.61579 0.72477 0.12323
 H457 H 0.57780 0.71075 0.10917
 H458 H 0.54781 0.71118 0.07948
 H459 H 0.57542 0.77456 0.05225
 H460 H 0.60550 0.77424 0.08165
 C461 C 0.66862 0.27926 -0.17381
 C462 C 0.65136 0.28037 -0.15709
 C463 C 0.63865 0.26068 -0.15111
 C464 C 0.64321 0.23987 -0.16266
 C465 C 0.66043 0.23878 -0.17947
 C466 C 0.67343 0.25844 -0.18517
 C467 C 0.62047 0.26277 -0.13330
 C468 C 0.61311 0.24485 -0.12067
 C469 C 0.59540 0.24709 -0.10240
 C470 C 0.59498 0.23036 -0.08496
 C471 C 0.57852 0.23171 -0.06750
 C472 C 0.56202 0.24972 -0.06727
 C473 C 0.56215 0.26633 -0.08478
 C474 C 0.57863 0.26502 -0.10226
 H475 H 0.67801 0.29485 -0.17790
 H476 H 0.64803 0.29668 -0.14866
 H477 H 0.63331 0.22448 -0.15906
 H478 H 0.66358 0.22245 -0.18785
 H479 H 0.61398 0.27998 -0.12968
 H480 H 0.62122 0.22803 -0.12280
 H481 H 0.60752 0.21626 -0.08477
 H482 H 0.57853 0.21864 -0.05420
 H483 H 0.54939 0.28023 -0.08495
 H484 H 0.57784 0.27781 -0.11577
 C485 C 0.32692 0.72417 -0.15663
 C486 C 0.34364 0.72215 -0.13950
 C487 C 0.35958 0.73989 -0.13583
 C488 C 0.35877 0.75959 -0.15001
 C489 C 0.34207 0.76160 -0.16719
 C490 C 0.32589 0.74393 -0.17070
 C491 C 0.37724 0.73683 -0.11770
 C492 C 0.38749 0.75454 -0.10724
 C493 C 0.40509 0.75136 -0.08907
 C494 C 0.40798 0.76899 -0.07304
 C495 C 0.42475 0.76684 -0.05595
 C496 C 0.43913 0.74716 -0.05483
 C497 C 0.43642 0.72953 -0.07083
 C498 C 0.41958 0.73161 -0.08787
 H499 H 0.31500 0.71006 -0.15890
 H500 H 0.34406 0.70669 -0.12898
 H501 H 0.37124 0.77331 -0.14822
 H502 H 0.34196 0.77703 -0.17769
 H503 H 0.38098 0.71932 -0.11206
 H504 H 0.38209 0.77209 -0.11125
 H505 H 0.39720 0.78444 -0.07372
 H506 H 0.42674 0.78065 -0.04377
 H507 H 0.44754 0.71431 -0.07026
 H508 H 0.41839 0.71800 -0.10033
 C509 C 0.18250 0.34398 0.23183
 C510 C 0.16594 0.36182 0.23202
 C511 C 0.14798 0.36202 0.24819
 C512 C 0.14732 0.34422 0.26466
 C513 C 0.16389 0.32637 0.26447
 C514 C 0.18159 0.32591 0.24794
 C515 C 0.13072 0.38126 0.24743
 C516 C 0.10948 0.38016 0.25681
 C517 C 0.09216 0.39931 0.25557
 C518 C 0.07451 0.40027 0.27209
 C519 C 0.05765 0.41781 0.27144
 C520 C 0.05800 0.43461 0.25411
 C521 C 0.07540 0.43361 0.23740
 C522 C 0.09231 0.41609 0.23805
 H523 H 0.19602 0.34451 0.21904
 H524 H 0.16705 0.37544 0.21931
 H525 H 0.13429 0.34406 0.27793
 H526 H 0.16265 0.31289 0.27725
 H527 H 0.13577 0.39674 0.23833
 H528 H 0.10435 0.36478 0.26602
 H529 H 0.07387 0.38747 0.28563
 H530 H 0.04429 0.41831 0.28445
 H531 H 0.07575 0.44632 0.22377
 H532 H 0.10507 0.41555 0.22453
 C533 C 0.16046 0.67638 0.72743
 C534 C 0.14315 0.65964 0.72656
 C535 C 0.14087 0.64322 0.74406
 C536 C 0.15669 0.64349 0.76225
 C537 C 0.17408 0.66010 0.76311
 C538 C 0.17624 0.67695 0.74578
 C539 C 0.12244 0.62561 0.74250
 C540 C 0.11301 0.61549 0.76089
 C541 C 0.09480 0.59766 0.75960
 C542 C 0.07954 0.59498 0.77809
 C543 C 0.06253 0.57794 0.77781
 C544 C 0.06078 0.56304 0.75921
 C545 C 0.07608 0.56546 0.74077
 C546 C 0.09298 0.58265 0.74092
 H547 H 0.16138 0.68870 0.71355
 H548 H 0.13134 0.65963 0.71221
 H549 H 0.15599 0.63062 0.77569
 H550 H 0.18573 0.65950 0.77751
 H551 H 0.11577 0.62173 0.72574
 H552 H 0.11800 0.62113 0.77771
 H553 H 0.08074 0.60617 0.79274
 H554 H 0.05084 0.57622 0.79218
 H555 H 0.07496 0.55398 0.72633
 H556 H 0.10486 0.58377 0.72668
 C557 C -0.17802 0.65770 0.23176
 C558 C -0.16132 0.64004 0.23067
 C559 C -0.14278 0.63914 0.24609
 C560 C -0.14107 0.65661 0.26252
 C561 C -0.15774 0.67434 0.26362
 C562 C -0.17654 0.67523 0.24825
 C563 C -0.12536 0.62016 0.24389
 C564 C -0.11124 0.61317 0.26082
 C565 C -0.09386 0.59416 0.25854
 C566 C -0.07519 0.59321 0.27390
 C567 C -0.05846 0.57560 0.27253
 C568 C -0.06016 0.55849 0.25583
 C569 C -0.07892 0.55912 0.24065
 C570 C -0.09570 0.57671 0.24202
 H571 H -0.19195 0.65743 0.21946
 H572 H -0.16298 0.62691 0.21772
 H573 H -0.12668 0.65706 0.27429
 H574 H -0.15558 0.68736 0.27652
 H575 H -0.12451 0.61158 0.22761
 H576 H -0.11203 0.62177 0.27709
 H577 H -0.07346 0.60625 0.28692
 H578 H -0.04418 0.57525 0.28452
 H579 H -0.08059 0.54591 0.22779
 H580 H -0.11019 0.57624 0.23036
 C581 C -0.14325 0.31552 0.74773
 C582 C -0.12526 0.33143 0.74958
 C583 C -0.12947 0.35343 0.75857
 C584 C -0.15183 0.35898 0.76658
 C585 C -0.16974 0.34294 0.76520
 C586 C -0.16585 0.32103 0.75542
 C587 C -0.11021 0.37009 0.75975
 C588 C -0.11352 0.39286 0.75672
 C589 C -0.09436 0.40969 0.75706
 C590 C -0.09631 0.42985 0.74377
 C591 C -0.07878 0.44635 0.74397
 C592 C -0.05923 0.44330 0.75801
 C593 C -0.05734 0.42321 0.77149
 C594 C -0.07467 0.40647 0.77094
 H595 H -0.13915 0.29881 0.74052
 H596 H -0.10807 0.32667 0.74358
 H597 H -0.15547 0.37565 0.77414
 H598 H -0.18671 0.34810 0.77136
 H599 H -0.09273 0.36321 0.76160
 H600 H -0.13071 0.39936 0.75246
 H601 H -0.11139 0.43277 0.73308
 H602 H -0.08058 0.46167 0.73338
 H603 H -0.04252 0.42062 0.78259
 H604 H -0.07291 0.39137 0.78180
 C605 C 0.28072 0.15777 0.32528
 C606 C 0.28131 0.14046 0.34202
 C607 C 0.26228 0.13705 0.35658
 C608 C 0.24238 0.15113 0.35371
 C609 C 0.24180 0.16845 0.33700
 C610 C 0.26095 0.17201 0.32257
 C611 C 0.26359 0.11819 0.37384
 C612 C 0.25013 0.11744 0.39252
 C613 C 0.25059 0.09817 0.40932
 C614 C 0.23077 0.09462 0.42281
 C615 C 0.23014 0.07658 0.43870
 C616 C 0.24941 0.06185 0.44158
 C617 C 0.26951 0.06560 0.42860
 C618 C 0.27013 0.08362 0.41256
 H619 H 0.29586 0.16003 0.31460
 H620 H 0.29679 0.12977 0.34369
 H621 H 0.22695 0.14860 0.36390
 H622 H 0.22612 0.17876 0.33521
 H623 H 0.27619 0.10453 0.37087
 H624 H 0.23760 0.13114 0.39554
 H625 H 0.21559 0.10568 0.42083
 H626 H 0.21455 0.07400 0.44871
 H627 H 0.28463 0.05454 0.43087
 H628 H 0.28600 0.08623 0.40308
 C629 C 0.77461 0.17856 0.65238
 C630 C 0.77467 0.16298 0.63431
 C631 C 0.75879 0.14477 0.63371
 C632 C 0.74248 0.14272 0.65149
 C633 C 0.74239 0.15835 0.66956
 C634 C 0.75847 0.17644 0.67026
 C635 C 0.75937 0.12891 0.61395
 C636 C 0.75096 0.10736 0.61458
 C637 C 0.75131 0.09142 0.59488
 C638 C 0.73601 0.07267 0.59509
 C639 C 0.73582 0.05696 0.57716
 C640 C 0.75097 0.05964 0.55865
 C641 C 0.76654 0.07812 0.55841
 C642 C 0.76677 0.09388 0.57637
 H643 H 0.78708 0.19240 0.65209
 H644 H 0.78726 0.16512 0.62074
 H645 H 0.72944 0.12942 0.65139
 H646 H 0.72968 0.15616 0.68296
 H647 H 0.76732 0.13537 0.59851
 H648 H 0.74313 0.10094 0.63011
 H649 H 0.72409 0.07020 0.60918
 H650 H 0.72388 0.04262 0.57771
 H651 H 0.77870 0.08011 0.54446
 H652 H 0.77942 0.10754 0.57585
 C653 C 0.27340 -0.15209 0.68084
 C654 C 0.27443 -0.13435 0.66458
 C655 C 0.26185 -0.13575 0.64421
 C656 C 0.24787 -0.15519 0.64057
 C657 C 0.24680 -0.17290 0.65685
 C658 C 0.25952 -0.17157 0.67720
 C659 C 0.26262 -0.11611 0.62784
 C660 C 0.25830 -0.11839 0.60551
 C661 C 0.25689 -0.09889 0.58890
 C662 C 0.25495 -0.10407 0.56575
 C663 C 0.25127 -0.08658 0.54958
 C664 C 0.24796 -0.06326 0.55607
 C665 C 0.25321 -0.05807 0.57901
 C666 C 0.25683 -0.07552 0.59527
 H667 H 0.28323 -0.15027 0.69638
 H668 H 0.28509 -0.11944 0.66794
 H669 H 0.23727 -0.15659 0.62547
 H670 H 0.23591 -0.18758 0.65340
 H671 H 0.26732 -0.09951 0.63464
 H672 H 0.25544 -0.13552 0.59884
 H673 H 0.25625 -0.12181 0.56005
 H674 H 0.25152 -0.09183 0.53204
 H675 H 0.25492 -0.04052 0.58478
 H676 H 0.25931 -0.07036 0.61272
 C677 C 0.75328 -0.14190 0.31385
 C678 C 0.75505 -0.12419 0.32983
 C679 C 0.76440 -0.12869 0.35147
 C680 C 0.77266 -0.15108 0.35663
 C681 C 0.77122 -0.16870 0.34054
 C682 C 0.76133 -0.16435 0.31905
 C683 C 0.76560 -0.10971 0.36820
 C684 C 0.76283 -0.11331 0.39060
 C685 C 0.76261 -0.09436 0.40738
 C686 C 0.74834 -0.09634 0.42665
 C687 C 0.74764 -0.07883 0.44288
 C688 C 0.76172 -0.05928 0.44048
 C689 C 0.77635 -0.05743 0.42141
 C690 C 0.77670 -0.07477 0.40490
 H691 H 0.74584 -0.13793 0.29734
 H692 H 0.74877 -0.10702 0.32541
 H693 H 0.78049 -0.15496 0.37298
 H694 H 0.77754 -0.18580 0.34508
 H695 H 0.76708 -0.09219 0.36173
 H696 H 0.75886 -0.13052 0.39677
 H697 H 0.73744 -0.11133 0.42898
 H698 H 0.73616 -0.08053 0.45742
 H699 H 0.78742 -0.04255 0.41934
 H700 H 0.78828 -0.07304 0.39046
 C701 C 0.65622 0.77002 -0.16892
 C702 C 0.63988 0.77022 -0.15133
 C703 C 0.63787 0.75128 -0.13645
 C704 C 0.65286 0.73214 -0.13934
 C705 C 0.66925 0.73193 -0.15696
 C706 C 0.67113 0.75087 -0.17199
 C707 C 0.62059 0.75266 -0.11776
 C708 C 0.61182 0.73414 -0.10704
 C709 C 0.59414 0.73587 -0.08868
 C710 C 0.57999 0.71674 -0.08412
 C711 C 0.56289 0.71784 -0.06723
 C712 C 0.55987 0.73802 -0.05446
 C713 C 0.57426 0.75697 -0.05851
 C714 C 0.59132 0.75592 -0.07541
 H715 H 0.65721 0.78505 -0.17991
 H716 H 0.62872 0.78527 -0.14937
 H717 H 0.65236 0.71747 -0.12783
 H718 H 0.68042 0.71690 -0.15872
 H719 H 0.61407 0.76972 -0.11359
 H720 H 0.61667 0.71697 -0.11265
 H721 H 0.58201 0.70099 -0.09384
 H722 H 0.55199 0.70299 -0.06410
 H723 H 0.57219 0.77258 -0.04860
 H724 H 0.60236 0.77075 -0.07774
 C725 C 0.33674 0.22294 -0.17053
 C726 C 0.35351 0.22230 -0.15337
 C727 C 0.35824 0.24208 -0.14058
 C728 C 0.34543 0.26248 -0.14497
 C729 C 0.32855 0.26309 -0.16209
 C730 C 0.32408 0.24335 -0.17516
 C731 C 0.37607 0.24044 -0.12242
 C732 C 0.38784 0.25867 -0.11470
 C733 C 0.40610 0.25672 -0.09697
 C734 C 0.42340 0.27362 -0.09616
 C735 C 0.44090 0.27239 -0.07971
 C736 C 0.44124 0.25437 -0.06361
 C737 C 0.42386 0.23759 -0.06416
 C738 C 0.40636 0.23878 -0.08060
 H739 H 0.33358 0.20730 -0.17996
 H740 H 0.36293 0.20630 -0.15016
 H741 H 0.34806 0.27790 -0.13503
 H742 H 0.31913 0.27910 -0.16514
 H743 H 0.38049 0.22329 -0.11621
 H744 H 0.38506 0.27550 -0.12247
 H745 H 0.42349 0.28771 -0.10841
 H746 H 0.45416 0.28553 -0.07944
 H747 H 0.42382 0.22362 -0.05177
 H748 H 0.39293 0.22586 -0.08016
 C749 C 0.30987 0.74494 0.14759
 C750 C 0.32594 0.74503 0.12971
 C751 C 0.34882 0.75217 0.13339
 C752 C 0.35520 0.75993 0.15510
 C753 C 0.33902 0.76026 0.17286
 C754 C 0.31625 0.75258 0.16933
 C755 C 0.36555 0.75194 0.11427
 C756 C 0.38801 0.74647 0.11721
 C757 C 0.40490 0.74601 0.09825
 C758 C 0.42316 0.72977 0.09882
 C759 C 0.43983 0.72937 0.08152
 C760 C 0.43885 0.74558 0.06364
 C761 C 0.42067 0.76196 0.06310
 C762 C 0.40375 0.76211 0.08020
 H763 H 0.29235 0.73922 0.14430
 H764 H 0.32062 0.73919 0.11304
 H765 H 0.37259 0.76606 0.15829
 H766 H 0.34445 0.76626 0.18941
 H767 H 0.35893 0.75503 0.09724
 H768 H 0.39406 0.74096 0.13387
 H769 H 0.42444 0.71729 0.11262
 H770 H 0.45368 0.71655 0.08218
 H771 H 0.41977 0.77474 0.04955
 H772 H 0.39017 0.77519 0.07963
 C773 C 0.64611 0.24480 0.18048
 C774 C 0.62883 0.24546 0.16380
 C775 C 0.63430 0.25121 0.14119
 C776 C 0.65732 0.25691 0.13566
 C777 C 0.67455 0.25654 0.15240
 C778 C 0.66916 0.25034 0.17495
 C779 C 0.61556 0.25191 0.12398
 C780 C 0.61922 0.24702 0.10198
 C781 C 0.60045 0.24762 0.08482
 C782 C 0.60171 0.23257 0.06621
 C783 C 0.58434 0.23286 0.04961
 C784 C 0.56566 0.24858 0.05109
 C785 C 0.56455 0.26390 0.06949
 C786 C 0.58175 0.26342 0.08625
 H787 H 0.64134 0.24026 0.19777
 H788 H 0.61116 0.24126 0.16851
 H789 H 0.66200 0.26205 0.11851
 H790 H 0.69213 0.26088 0.14759
 H791 H 0.59804 0.25534 0.12991
 H792 H 0.63626 0.24120 0.09649
 H793 H 0.61603 0.22037 0.06468
 H794 H 0.58544 0.22084 0.03558
 H795 H 0.55036 0.27627 0.07081
 H796 H 0.58062 0.27570 0.10004
 C797 C -0.16080 0.67651 0.73120
 C798 C -0.14332 0.65958 0.73082
 C799 C -0.14123 0.64338 0.74855
 C800 C -0.15728 0.64415 0.76659
 C801 C -0.17492 0.66095 0.76692
 C802 C -0.17699 0.67748 0.74924
 C803 C -0.12276 0.62542 0.74716
 C804 C -0.11340 0.61505 0.76550
 C805 C -0.09484 0.59723 0.76383
 C806 C -0.07870 0.59495 0.78161
 C807 C -0.06111 0.57813 0.78067
 C808 C -0.05969 0.56309 0.76211
 C809 C -0.07595 0.56506 0.74445
 C810 C -0.09340 0.58202 0.74526
 H811 H -0.16158 0.68855 0.71706
 H812 H -0.13129 0.65922 0.71662
 H813 H -0.15662 0.63151 0.78025
 H814 H -0.18684 0.66079 0.78116
 H815 H -0.11588 0.62152 0.73043
 H816 H -0.11851 0.62058 0.78237
 H817 H -0.07960 0.60632 0.79617
 H818 H -0.04873 0.57667 0.79449
 H819 H -0.07515 0.55340 0.73011
 H820 H -0.10597 0.58285 0.73159
 C821 C -0.17980 0.34199 0.22840
 C822 C -0.16329 0.35953 0.22778
 C823 C -0.14569 0.36046 0.24425
 C824 C -0.14473 0.34314 0.26119
 C825 C -0.16124 0.32562 0.26182
 C826 C -0.17902 0.32483 0.24546
 C827 C -0.12831 0.37918 0.24262
 C828 C -0.11537 0.38611 0.26025
 C829 C -0.09750 0.40434 0.25854
 C830 C -0.07970 0.40458 0.27486
 C831 C -0.06238 0.42129 0.27390
 C832 C -0.06263 0.43819 0.25666
 C833 C -0.08062 0.43837 0.24060
 C834 C -0.09796 0.42164 0.24151
 H835 H -0.19324 0.34205 0.21555
 H836 H -0.16435 0.37253 0.21443
 H837 H -0.13101 0.34262 0.27373
 H838 H -0.15977 0.31251 0.27497
 H839 H -0.12632 0.38745 0.22617
 H840 H -0.11739 0.37786 0.27671
 H841 H -0.07905 0.39163 0.28827
 H842 H -0.04871 0.42102 0.28655
 H843 H -0.08117 0.45147 0.22732
 H844 H -0.11176 0.42260 0.22908
 C845 C 0.16344 0.33036 0.72457
 C846 C 0.14690 0.34822 0.72388
 C847 C 0.14248 0.36171 0.74319
 C848 C 0.15545 0.35740 0.76309
 C849 C 0.17207 0.33961 0.76375
 C850 C 0.17616 0.32577 0.74455
 C851 C 0.12480 0.38049 0.74177
 C852 C 0.11310 0.38836 0.75996
 C853 C 0.09528 0.40703 0.75876
 C854 C 0.07857 0.40846 0.77616
 C855 C 0.06167 0.42597 0.77591
 C856 C 0.06138 0.44256 0.75840
 C857 C 0.07817 0.44143 0.74111
 C858 C 0.09503 0.42385 0.74127
 H859 H 0.16637 0.32032 0.70933
 H860 H 0.13738 0.35138 0.70825
 H861 H 0.15312 0.36793 0.77809
 H862 H 0.18156 0.33664 0.77940
 H863 H 0.12054 0.38709 0.72498
 H864 H 0.11577 0.38009 0.77636
 H865 H 0.07853 0.39591 0.78994
 H866 H 0.04890 0.42672 0.78945
 H867 H 0.07822 0.45423 0.72755
 H868 H 0.10801 0.42380 0.72795
 C869 C 0.14725 0.68075 0.26564
 C870 C 0.12997 0.66398 0.26634
 C871 C 0.13082 0.64493 0.25170
 C872 C 0.14913 0.64336 0.23583
 C873 C 0.16642 0.66015 0.23513
 C874 C 0.16579 0.67899 0.25012
 C875 C 0.11208 0.62752 0.25333
 C876 C 0.11394 0.60592 0.24524
 C877 C 0.09516 0.58865 0.24709
 C878 C 0.09457 0.57059 0.23124
 C879 C 0.07721 0.55392 0.23233
 C880 C 0.06023 0.55488 0.24945
 C881 C 0.06101 0.57258 0.26563
 C882 C 0.07832 0.58932 0.26452
 H883 H 0.14588 0.69514 0.27724
 H884 H 0.11595 0.66582 0.27856
 H885 H 0.15013 0.62943 0.22368
 H886 H 0.18030 0.65822 0.22284
 H887 H 0.09627 0.63282 0.26188
 H888 H 0.12961 0.60047 0.23654
 H889 H 0.10745 0.56954 0.21781
 H890 H 0.07693 0.54029 0.21978
 H891 H 0.04823 0.57334 0.27917
 H892 H 0.07864 0.60241 0.27756
 C893 C 0.73107 -0.14918 0.68122
 C894 C 0.73133 -0.13106 0.66536
 C895 C 0.74333 -0.13341 0.64470
 C896 C 0.75542 -0.15419 0.64032
 C897 C 0.75529 -0.17225 0.65625
 C898 C 0.74311 -0.16996 0.67689
 C899 C 0.74404 -0.11346 0.62878
 C900 C 0.74711 -0.11570 0.60626
 C901 C 0.74938 -0.09575 0.59048
 C902 C 0.74389 -0.09856 0.56749
 C903 C 0.74739 -0.08061 0.55186
 C904 C 0.75774 -0.05958 0.55838
 C905 C 0.76140 -0.05642 0.58196
 C906 C 0.75777 -0.07432 0.59763
 H907 H 0.72177 -0.14666 0.69705
 H908 H 0.72215 -0.11512 0.66926
 H909 H 0.76547 -0.15636 0.62488
 H910 H 0.76476 -0.18800 0.65235
 H911 H 0.74122 -0.09645 0.63592
 H912 H 0.74754 -0.13280 0.59888
 H913 H 0.73674 -0.11469 0.56159
 H914 H 0.74179 -0.08338 0.53454
 H915 H 0.76693 -0.04042 0.58907
 H916 H 0.76208 -0.07133 0.61528
 C917 C 0.27074 -0.16165 0.32965
 C918 C 0.27150 -0.14467 0.34645
 C919 C 0.25200 -0.13997 0.36007
 C920 C 0.23181 -0.15304 0.35691
 C921 C 0.23107 -0.17008 0.34018
 C922 C 0.25049 -0.17452 0.32626
 C923 C 0.25367 -0.12200 0.37785
 C924 C 0.23519 -0.11067 0.38641
 C925 C 0.23704 -0.09280 0.40427
 C926 C 0.21949 -0.07583 0.40602
 C927 C 0.22060 -0.05880 0.42276
 C928 C 0.23924 -0.05857 0.43809
 C929 C 0.25649 -0.07578 0.43678
 C930 C 0.25543 -0.09278 0.42005
 H931 H 0.28615 -0.16477 0.31951
 H932 H 0.28737 -0.13507 0.34871
 H933 H 0.21665 -0.15048 0.36754
 H934 H 0.21518 -0.17963 0.33813
 H935 H 0.27094 -0.11726 0.38324
 H936 H 0.21812 -0.11369 0.37943
 H937 H 0.20498 -0.07565 0.39430
 H938 H 0.20698 -0.04578 0.42377
 H939 H 0.27079 -0.07602 0.44875
 H940 H 0.26881 -0.10605 0.41983
 C941 C 0.75848 0.17958 0.34813
 C942 C 0.75912 0.16260 0.36514
 C943 C 0.74309 0.14452 0.36527
 C944 C 0.72633 0.14373 0.34789
 C945 C 0.72570 0.16073 0.33083
 C946 C 0.74186 0.17881 0.33064
 C947 C 0.74536 0.12631 0.38304
 C948 C 0.72831 0.11182 0.38900
 C949 C 0.73154 0.09352 0.40654
 C950 C 0.71227 0.08592 0.41915
 C951 C 0.71493 0.06889 0.43603
 C952 C 0.73689 0.05913 0.44037
 C953 C 0.75601 0.06617 0.42739
 C954 C 0.75339 0.08314 0.41057
 H955 H 0.77118 0.19318 0.34876
 H956 H 0.77230 0.16355 0.37823
 H957 H 0.71406 0.12975 0.34697
 H958 H 0.71276 0.15935 0.31761
 H959 H 0.76171 0.12541 0.39211
 H960 H 0.71117 0.11395 0.38171
 H961 H 0.69522 0.09343 0.41615
 H962 H 0.69997 0.06344 0.44582
 H963 H 0.77301 0.05853 0.43037
 H964 H 0.76846 0.08785 0.40061
 C965 C 0.26471 0.14987 0.67529
 C966 C 0.26456 0.13261 0.65879
 C967 C 0.24810 0.13306 0.64122
 C968 C 0.23195 0.15146 0.64025
 C969 C 0.23210 0.16875 0.65674
 C970 C 0.24845 0.16819 0.67451
 C971 C 0.24901 0.11449 0.62396
 C972 C 0.23104 0.10887 0.61064
 C973 C 0.23233 0.09044 0.59325
 C974 C 0.21666 0.09123 0.57495
 C975 C 0.21760 0.07448 0.55793
 C976 C 0.23417 0.05656 0.55902
 C977 C 0.24948 0.05536 0.57754
 C978 C 0.24851 0.07203 0.59459
 H979 H 0.27764 0.14873 0.68857
 H980 H 0.27734 0.11875 0.65984
 H981 H 0.21945 0.15295 0.62659
 H982 H 0.21944 0.18262 0.65532
 H983 H 0.26527 0.10509 0.62247
 H984 H 0.21480 0.11832 0.61198
 H985 H 0.20389 0.10507 0.57363
 H986 H 0.20558 0.07559 0.54378
 H987 H 0.26229 0.04155 0.57869
 H988 H 0.26032 0.07021 0.60879
   
