data_POSCAR
  _audit_creation_date              2014-09-24
  _audit_creation_method            'ToBaCCo'
  _symmetry_space_group_name_H-M    'P1'
  _symmetry_Int_Tables_number       1
  _symmetry_cell_setting            triclinic
  loop_
  _symmetry_equiv_pos_as_xyz
 x,y,z
_cell_length_a 24.2180
_cell_length_b 24.2881
_cell_length_c 24.2696
_cell_angle_alpha 90.153900
_cell_angle_beta 90.069300
_cell_angle_gamma 90.059700
loop_
  _atom_site_label
  _atom_site_type_symbol
  _atom_site_fract_x
  _atom_site_fract_y
  _atom_site_fract_z
C1 C 0.49525 1.02749 -0.65142
 C2 C 0.44475 1.03025 -0.62296
 C3 C 0.44557 1.02352 -0.56541
 C4 C 0.49455 1.00999 -0.53689
 C5 C 0.54387 1.00493 -0.56756
 C6 C 0.54548 1.01595 -0.62453
 C7 C 0.49408 1.00146 -0.47538
 C8 C 0.54303 1.00619 -0.44378
 C9 C 0.54305 0.99589 -0.38690
 C10 C 0.49294 0.98487 -0.36037
 C11 C 0.44345 0.98184 -0.39006
 C12 C 0.44455 0.98832 -0.44746
 H13 H 0.49482 1.02882 -0.69591
 H14 H 0.40795 1.03101 -0.54285
 H15 H 0.58157 0.99402 -0.54684
 H16 H 0.58169 1.01743 -0.46271
 H17 H 0.49230 0.98019 -0.31599
 H18 H 0.40637 0.98220 -0.46969
 C19 C -0.65284 1.49652 0.02250
 C20 C -0.62369 1.44689 0.02889
 C21 C -0.56567 1.44870 0.02693
 C22 C -0.53696 1.49803 0.01556
 C23 C -0.56812 1.54644 0.00681
 C24 C -0.62600 1.54702 0.01287
 C25 C -0.47474 1.49932 0.01466
 C26 C -0.44555 1.54906 0.02363
 C27 C -0.38769 1.55055 0.02312
 C28 C -0.35831 1.50138 0.01679
 C29 C -0.38579 1.45108 0.00983
 C30 C -0.44367 1.45063 0.00647
 H31 H -0.69737 1.49512 0.01994
 H32 H -0.54315 1.41178 0.03704
 H33 H -0.54714 1.58430 -0.00265
 H34 H -0.46692 1.58703 0.03253
 H35 H -0.31357 1.50233 0.01639
 H36 H -0.46386 1.41177 -0.00153
 C37 C 0.02130 0.35211 0.50033
 C38 C 0.01428 0.37805 0.44900
 C39 C 0.00895 0.43595 0.44850
 C40 C 0.01643 0.46797 0.49685
 C41 C 0.02587 0.43993 0.54696
 C42 C 0.02640 0.38237 0.54916
 C43 C 0.01589 0.53012 0.49476
 C44 C 0.00768 0.56204 0.54306
 C45 C 0.01188 0.62006 0.54250
 C46 C 0.01853 0.64605 0.49115
 C47 C 0.02452 0.61584 0.44243
 C48 C 0.02505 0.55830 0.44470
 H49 H 0.01989 0.30767 0.50318
 H50 H 0.00114 0.45609 0.40988
 H51 H 0.03395 0.46189 0.58481
 H52 H 0.00017 0.54177 0.58165
 H53 H 0.01624 0.69044 0.48817
 H54 H 0.03377 0.53648 0.40693
 O55 O -0.14596 1.00181 -0.07779
 O56 O 0.13755 0.99545 -0.07915
 O57 O -0.00425 1.07434 -0.14502
 O58 O -0.00428 0.92592 -0.14636
 O59 O -0.00409 0.85767 -0.08056
 O60 O -0.00280 1.14145 -0.07775
 O61 O 0.07029 0.99592 -0.14642
 O62 O -0.07970 1.00279 -0.14582
 Zr63 Zr -0.00437 0.99977 -0.10112
 O64 O 0.04558 0.94916 -0.05488
 O65 O -0.05377 1.04985 -0.05372
 C66 C -0.13066 1.00315 -0.12894
 C67 C 0.12141 0.99372 -0.13013
 C68 C -0.00318 1.12530 -0.12888
 C69 C -0.00394 0.87472 -0.13133
 H70 H 0.07068 1.07179 -0.07694
 O71 O 0.04652 1.04862 -0.05375
 H72 H -0.07848 0.92667 -0.07753
 O73 O -0.05434 0.94994 -0.05424
 O74 O 0.13823 1.00041 0.06972
 O75 O -0.14513 0.99762 0.07031
 O76 O 0.07203 1.13952 -0.00023
 O77 O 0.06962 0.85737 -0.00893
 O78 O -0.07909 0.85827 -0.00188
 O79 O -0.07683 1.14084 -0.00531
 O80 O -0.00173 1.07208 0.13774
 O81 O -0.00421 0.92366 0.13639
 O82 O -0.00096 1.14033 0.07195
 O83 O -0.00440 0.85653 0.06911
 O84 O 0.13932 1.07249 -0.00120
 O85 O -0.14533 1.07493 -0.00526
 O86 O -0.14646 0.92519 -0.00111
 O87 O 0.13809 0.92328 -0.00719
 O88 O 0.07157 1.00153 0.13739
 O89 O -0.07825 0.99617 0.13786
 Zr90 Zr 0.09341 0.99824 -0.00457
 Zr91 Zr -0.10079 0.99972 -0.00394
 Zr92 Zr -0.00284 1.09579 -0.00343
 Zr93 Zr -0.00442 0.90222 -0.00520
 Zr94 Zr -0.00343 0.99826 0.09254
 O95 O -0.05400 0.94900 0.04539
 O96 O 0.04682 1.04809 0.04590
 C97 C 0.12256 1.00283 0.12077
 C98 C -0.12935 0.99588 0.12133
 C99 C 0.12307 1.12344 0.00102
 C100 C 0.12096 0.87258 -0.00950
 C101 C -0.13013 0.87421 0.00037
 C102 C -0.12819 1.12571 -0.00601
 C103 C -0.00067 1.12327 0.12273
 C104 C -0.00417 0.87269 0.12024
 H105 H -0.07646 1.07218 0.06971
 O106 O -0.05299 1.04874 0.04603
 H107 H 0.07008 0.92515 0.06805
 O108 O 0.04614 0.94860 0.04490
 C109 C 0.29894 1.03320 0.27959
 C110 C 0.29800 1.00977 0.33240
 C111 C 0.34493 1.01168 0.36618
 C112 C 0.39438 1.03639 0.34752
 C113 C 0.39312 1.06368 0.29624
 C114 C 0.34621 1.06210 0.26296
 C115 C 0.25287 1.02437 0.24007
 C116 C 0.26477 1.01234 0.18472
 C117 C 0.22246 1.00444 0.14661
 C118 C 0.16685 1.00813 0.16274
 C119 C 0.15469 1.01906 0.21841
 C120 C 0.19734 1.02701 0.25676
 H121 H 0.34335 0.98965 0.40483
 H122 H 0.42847 1.08647 0.28132
 H123 H 0.23357 0.99567 0.10428
 H124 H 0.11231 1.02242 0.23218
 H125 H 0.34741 1.08257 0.22338
 H126 H 0.30707 1.00862 0.17079
 H127 H 0.26209 0.98721 0.34638
 H128 H 0.18693 1.03630 0.29915
 C129 C -0.30816 1.00775 0.27844
 C130 C -0.31152 0.97811 0.32782
 C131 C -0.35895 0.98144 0.36076
 C132 C -0.40433 1.01459 0.34493
 C133 C -0.39869 1.04641 0.29659
 C134 C -0.35162 1.04284 0.26397
 C135 C -0.26131 1.00053 0.23994
 C136 C -0.27219 0.99312 0.18366
 C137 C -0.22921 0.99021 0.14582
 C138 C -0.17394 0.99480 0.16315
 C139 C -0.16277 1.00021 0.21986
 C140 C -0.20620 1.00286 0.25802
 H141 H -0.36074 0.95520 0.39661
 H142 H -0.43019 1.07533 0.28395
 H143 H -0.23962 0.98516 0.10269
 H144 H -0.12068 1.00365 0.23459
 H145 H -0.34931 1.06750 0.22690
 H146 H -0.31428 0.99006 0.16877
 H147 H -0.27848 0.95056 0.33972
 H148 H -0.19684 1.00852 0.30131
 C149 C -0.30952 0.99746 -0.28741
 C150 C -0.31670 1.03715 -0.32882
 C151 C -0.36405 1.03636 -0.36212
 C152 C -0.40478 0.99570 -0.35461
 C153 C -0.39615 0.95479 -0.31474
 C154 C -0.34919 0.95570 -0.28153
 C155 C -0.26300 1.00095 -0.24781
 C156 C -0.27349 0.99425 -0.19142
 C157 C -0.23055 0.99566 -0.15332
 C158 C -0.17566 1.00364 -0.17048
 C159 C -0.16502 1.01116 -0.22698
 C160 C -0.20846 1.01016 -0.26532
 H161 H -0.36967 1.06855 -0.39237
 H162 H -0.42607 0.92214 -0.30892
 H163 H -0.24060 0.98983 -0.11026
 H164 H -0.12327 1.01760 -0.24154
 H165 H -0.34415 0.92398 -0.25065
 H166 H -0.31523 0.98803 -0.17666
 H167 H -0.28682 1.06993 -0.33396
 H168 H -0.19935 1.01540 -0.30867
 C169 C 0.29598 0.97262 -0.29217
 C170 C 0.33994 0.93602 -0.28287
 C171 C 0.38672 0.93707 -0.31640
 C172 C 0.39051 0.97456 -0.36017
 C173 C 0.34517 1.00877 -0.37171
 C174 C 0.29833 1.00785 -0.33797
 C175 C 0.25035 0.97706 -0.25154
 C176 C 0.19524 0.98445 -0.26830
 C177 C 0.15307 0.98994 -0.22913
 C178 C 0.16533 0.98857 -0.17244
 C179 C 0.22056 0.98133 -0.15600
 C180 C 0.26239 0.97568 -0.19496
 H181 H 0.42064 0.90955 -0.30720
 H182 H 0.34717 1.03834 -0.40497
 H183 H 0.11100 0.99531 -0.24325
 H184 H 0.23177 0.97997 -0.11282
 H185 H 0.26529 1.03674 -0.34601
 H186 H 0.18472 0.98549 -0.31166
 H187 H 0.33878 0.90750 -0.24867
 H188 H 0.30451 0.97120 -0.18064
 C189 C 0.28076 1.30024 0.03117
 C190 C 0.26167 1.34816 0.05720
 C191 C 0.29418 1.39544 0.05898
 C192 C 0.34716 1.39644 0.03484
 C193 C 0.36818 1.34650 0.01335
 C194 C 0.33512 1.29910 0.01117
 C195 C 0.24211 1.25373 0.02147
 C196 C 0.25836 1.19861 0.02850
 C197 C 0.22022 1.15574 0.02071
 C198 C 0.16533 1.16739 0.00561
 C199 C 0.14992 1.22247 -0.00294
 C200 C 0.18776 1.26493 0.00477
 H201 H 0.27731 1.43132 0.07945
 H202 H 0.40836 1.34474 -0.00603
 H203 H 0.23332 1.11372 0.02776
 H204 H 0.10829 1.23306 -0.01533
 H205 H 0.35098 1.26260 -0.00901
 H206 H 0.30004 1.18881 0.04131
 H207 H 0.22073 1.34956 0.07507
 H208 H 0.17438 1.30683 -0.00247
 C209 C 0.27609 0.69231 0.00019
 C210 C 0.25915 0.64793 0.03277
 C211 C 0.29179 0.60110 0.03754
 C212 C 0.34271 0.59657 0.00947
 C213 C 0.36064 0.64262 -0.02141
 C214 C 0.32765 0.68985 -0.02594
 C215 C 0.23837 0.73969 -0.00735
 C216 C 0.25684 0.79428 -0.00152
 C217 C 0.21912 0.83805 -0.00356
 C218 C 0.16246 0.82778 -0.01170
 C219 C 0.14485 0.77319 -0.02002
 C220 C 0.18226 0.72983 -0.01783
 H221 H 0.27718 0.56907 0.06479
 H222 H 0.39857 0.64170 -0.04482
 H223 H 0.23408 0.87963 0.00274
 H224 H 0.10177 0.76358 -0.02735
 H225 H 0.34151 0.72362 -0.05150
 H226 H 0.29997 0.80287 0.00659
 H227 H 0.22033 0.64949 0.05486
 H228 H 0.16712 0.68822 -0.02361
 C229 C -0.29008 0.69840 0.02604
 C230 C -0.33913 0.69628 -0.00491
 C231 C -0.37250 0.64916 -0.00383
 C232 C -0.35729 0.60340 0.02813
 C233 C -0.31005 0.60694 0.06153
 C234 C -0.27691 0.65393 0.06059
 C235 C -0.25021 0.74435 0.01913
 C236 C -0.19369 0.73260 0.01458
 C237 C -0.15531 0.77473 0.00786
 C238 C -0.17225 0.83006 0.00544
 C239 C -0.22898 0.84202 0.00938
 C240 C -0.26765 0.79948 0.01594
 H241 H -0.40861 0.64738 -0.03013
 H242 H -0.29799 0.57271 0.08739
 H243 H -0.11213 0.76364 0.00479
 H244 H -0.24345 0.88416 0.00780
 H245 H -0.24006 0.65492 0.08589
 H246 H -0.17903 0.69050 0.01559
 H247 H -0.35018 0.72981 -0.03207
 H248 H -0.31102 0.80970 0.01939
 C249 C -0.28602 1.30445 0.00322
 C250 C -0.33154 1.30995 -0.03234
 C251 C -0.36494 1.35705 -0.02986
 C252 C -0.35334 1.39921 0.00834
 C253 C -0.30925 1.39226 0.04532
 C254 C -0.27601 1.34558 0.04274
 C255 C -0.24676 1.25795 -0.00217
 C256 C -0.18986 1.26865 -0.00099
 C257 C -0.15191 1.22573 -0.00313
 C258 C -0.16970 1.17065 -0.00638
 C259 C -0.22679 1.15981 -0.00887
 C260 C -0.26502 1.20318 -0.00705
 H261 H -0.39862 1.36132 -0.05891
 H262 H -0.30020 1.42326 0.07620
 H263 H -0.10841 1.23600 -0.00151
 H264 H -0.24190 1.11792 -0.01163
 H265 H -0.24194 1.34185 0.07144
 H266 H -0.17460 1.31051 0.00173
 H267 H -0.34000 1.27885 -0.06328
 H268 H -0.30876 1.19391 -0.00800
 C269 C 0.00985 1.27878 0.30379
 C270 C 0.04030 1.26266 0.35012
 C271 C 0.04205 1.29554 0.39712
 C272 C 0.01338 1.34613 0.39970
 C273 C -0.01523 1.36331 0.35184
 C274 C -0.01703 1.32993 0.30461
 C275 C 0.00465 1.24052 0.25628
 C276 C 0.00936 1.25886 0.20156
 C277 C 0.00719 1.22115 0.15766
 C278 C 0.00008 1.16456 0.16789
 C279 C -0.00604 1.14687 0.22269
 C280 C -0.00389 1.18427 0.26612
 H281 H 0.06762 1.28149 0.43085
 H282 H -0.03901 1.40094 0.35127
 H283 H 0.01187 1.23615 0.11595
 H284 H -0.01237 1.10383 0.23239
 H285 H -0.04115 1.34319 0.26947
 H286 H 0.01607 1.30205 0.19285
 H287 H 0.06302 1.22426 0.35005
 H288 H -0.00892 1.16904 0.30772
 C289 C 0.02385 1.28567 -0.30299
 C290 C 0.06021 1.27253 -0.34613
 C291 C 0.06332 1.30572 -0.39282
 C292 C 0.03013 1.35285 -0.39748
 C293 C -0.00356 1.36809 -0.35283
 C294 C -0.00666 1.33476 -0.30590
 C295 C 0.01491 1.24581 -0.25765
 C296 C 0.01166 1.26287 -0.20236
 C297 C 0.00464 1.22407 -0.16023
 C298 C 0.00024 1.16759 -0.17279
 C299 C 0.00190 1.15111 -0.22837
 C300 C 0.00920 1.18964 -0.27011
 H301 H 0.09044 1.29359 -0.42616
 H302 H -0.02978 1.40409 -0.35548
 H303 H 0.00356 1.23820 -0.11789
 H304 H -0.00167 1.10815 -0.23989
 H305 H -0.03508 1.34579 -0.27329
 H306 H 0.01584 1.30599 -0.19168
 H307 H 0.08516 1.23558 -0.34441
 H308 H 0.01025 1.17540 -0.31243
 C309 C 0.00553 0.71941 -0.31241
 C310 C -0.02015 0.66760 -0.31312
 C311 C -0.01777 0.63423 -0.36034
 C312 C 0.01029 0.65205 -0.40825
 C313 C 0.03774 0.70338 -0.40576
 C314 C 0.03534 0.73629 -0.35881
 C315 C -0.00006 0.75746 -0.26482
 C316 C -0.01021 0.81346 -0.27450
 C317 C -0.01214 0.85085 -0.23105
 C318 C -0.00412 0.83337 -0.17642
 C319 C 0.00437 0.77696 -0.16631
 C320 C 0.00629 0.73927 -0.21021
 H321 H -0.04064 0.59600 -0.35968
 H322 H 0.06292 0.71805 -0.43947
 H323 H -0.01964 0.89373 -0.24058
 H324 H 0.01056 0.76215 -0.12471
 H325 H 0.05713 0.77527 -0.35880
 H326 H -0.01650 0.82851 -0.31601
 H327 H -0.04373 0.65375 -0.27789
 H328 H 0.01427 0.69627 -0.20166
 C329 C 0.02194 0.71244 0.29456
 C330 C -0.00814 0.66301 0.29722
 C331 C -0.00502 0.62972 0.34417
 C332 C 0.02825 0.64538 0.38911
 C333 C 0.06102 0.69287 0.38473
 C334 C 0.05792 0.72600 0.33800
 C335 C 0.01296 0.75221 0.24914
 C336 C 0.00686 0.80833 0.26156
 C337 C -0.00020 0.84682 0.21975
 C338 C -0.00123 0.83036 0.16415
 C339 C 0.00339 0.77391 0.15162
 C340 C 0.01020 0.73513 0.19381
 H341 H -0.03089 0.59342 0.34662
 H342 H 0.08780 0.70532 0.41832
 H343 H -0.00405 0.88976 0.23125
 H344 H 0.00275 0.75980 0.10926
 H345 H 0.08256 0.76320 0.33648
 H346 H 0.00747 0.82256 0.30389
 H347 H -0.03625 0.65166 0.26435
 H348 H 0.01467 0.69205 0.18316
   
