data_POSCAR
  _audit_creation_date              2014-09-24
  _audit_creation_method            'ToBaCCo'
  _symmetry_space_group_name_H-M    'P1'
  _symmetry_Int_Tables_number       1
  _symmetry_cell_setting            triclinic
  loop_
  _symmetry_equiv_pos_as_xyz
 x,y,z
_cell_length_a 34.0390
_cell_length_b 33.6540
_cell_length_c 34.1312
_cell_angle_alpha 89.542100
_cell_angle_beta 89.674800
_cell_angle_gamma 91.380500
loop_
  _atom_site_label
  _atom_site_type_symbol
  _atom_site_fract_x
  _atom_site_fract_y
  _atom_site_fract_z
C1 C 0.67502 0.70871 0.97732
 H2 H 0.69510 0.72606 0.99515
 C3 C 0.63999 0.72531 0.96443
 H4 H 0.63345 0.75558 0.97223
 C5 C 0.65814 0.64782 0.94671
 H6 H 0.66449 0.61740 0.94047
 C7 C 0.62307 0.66313 0.93328
 H8 H 0.60383 0.64444 0.91578
 N9 N 0.68314 0.67032 0.96878
 C10 C 0.76094 0.68067 1.05746
 H11 H 0.73903 0.66271 1.07281
 C12 C 0.79109 0.69877 1.07877
 H13 H 0.79165 0.69454 1.11013
 C14 C 0.78558 0.70926 0.99861
 H15 H 0.78309 0.71358 0.96730
 C16 C 0.81717 0.72704 1.01873
 H17 H 0.83953 0.74373 1.00246
 Zn18 Zn 0.72749 0.64533 0.99092
 N19 N 0.76059 0.68334 1.01767
 C20 C 0.79139 0.62951 0.93809
 N21 N 0.75517 0.61728 0.95109
 C22 C 0.73718 0.58432 0.93576
 C23 C 0.75409 0.56431 0.90440
 C24 C 0.80954 0.61015 0.90716
 C25 C 0.67092 0.60469 1.03809
 C26 C 0.65809 0.58161 1.06990
 C27 C 0.72508 0.56347 1.08156
 C28 C 0.73646 0.58611 1.04870
 N29 N 0.70964 0.60746 1.02876
 H30 H 0.80664 0.65415 0.95141
 H31 H 0.70985 0.57307 0.94818
 H32 H 0.73921 0.53836 0.89242
 H33 H 0.83800 0.62097 0.89682
 H34 H 0.64992 0.62198 1.02215
 H35 H 0.62733 0.58266 1.07655
 H36 H 0.74779 0.54736 1.09629
 H37 H 0.76713 0.58836 1.04028
 C38 C 0.82154 0.71941 1.05899
 C39 C 0.61315 0.70208 0.94272
 C40 C 0.68525 0.56182 1.09401
 C41 C 0.79065 0.57740 0.88961
 C42 C 0.73902 0.34156 0.52420
 H43 H 0.76649 0.33773 0.53939
 C44 C 0.70596 0.31894 0.53539
 H45 H 0.70858 0.29707 0.55857
 C46 C 0.70199 0.37584 0.47667
 H47 H 0.70032 0.39879 0.45446
 C48 C 0.66798 0.35400 0.48725
 H49 H 0.64040 0.36056 0.47324
 N50 N 0.73632 0.37016 0.49604
 C51 C 0.86235 0.39562 0.47906
 H52 H 0.86410 0.42728 0.48343
 C53 C 0.89661 0.37530 0.47032
 H54 H 0.92412 0.39189 0.46891
 C55 C 0.82429 0.33619 0.47404
 H56 H 0.79595 0.32112 0.47376
 C57 C 0.85786 0.31472 0.46520
 H58 H 0.85467 0.28345 0.45833
 Zn59 Zn 0.78008 0.40582 0.48807
 N60 N 0.82693 0.37606 0.48058
 C61 C 0.81214 0.46940 0.53506
 N62 N 0.78445 0.43954 0.53299
 C63 C 0.76025 0.43122 0.56405
 C64 C 0.76627 0.44979 0.59989
 C65 C 0.81901 0.48908 0.57055
 C66 C 0.77815 0.41688 0.40785
 C67 C 0.76329 0.43139 0.37277
 C68 C 0.73504 0.48574 0.40821
 C69 C 0.75049 0.47008 0.44289
 N70 N 0.77057 0.43558 0.44210
 H71 H 0.82991 0.47707 0.50968
 H72 H 0.73720 0.40889 0.56188
 H73 H 0.74851 0.44068 0.62499
 H74 H 0.84297 0.51070 0.57263
 H75 H 0.79342 0.38907 0.40813
 H76 H 0.76753 0.41475 0.34610
 H77 H 0.71661 0.51148 0.40949
 H78 H 0.74400 0.48378 0.47067
 C79 C 0.89464 0.33437 0.46250
 C80 C 0.66951 0.32614 0.51796
 C81 C 0.74014 0.46528 0.37294
 C82 C 0.79688 0.47795 0.60382
 C83 C 0.18686 -0.19835 0.03969
 H84 H 0.21606 -0.20659 0.04850
 C85 C 0.15427 -0.22063 0.05283
 H86 H 0.15885 -0.24643 0.07123
 C87 C 0.14580 -0.15462 0.00508
 H88 H 0.14246 -0.12896 -0.01358
 C89 C 0.11227 -0.17575 0.01809
 H90 H 0.08362 -0.16530 0.00988
 N91 N 0.18209 -0.16526 0.01735
 C92 C 0.30305 -0.16834 0.00730
 H93 H 0.30696 -0.15384 0.03514
 C94 C 0.33510 -0.18591 -0.01056
 H95 H 0.36348 -0.18419 0.00359
 C96 C 0.26188 -0.18688 -0.04557
 H97 H 0.23338 -0.18620 -0.05941
 C98 C 0.29326 -0.20453 -0.06468
 H99 H 0.28853 -0.21810 -0.09298
 Zn100 Zn 0.22808 -0.13380 0.00713
 N101 N 0.26790 -0.16725 -0.01138
 C102 C 0.22887 -0.11830 0.08906
 N103 N 0.24530 -0.10889 0.05366
 C104 C 0.27627 -0.08281 0.05062
 C105 C 0.29356 -0.06707 0.08420
 C106 C 0.24523 -0.10314 0.12347
 C107 C 0.19085 -0.06690 -0.02496
 C108 C 0.18110 -0.03999 -0.05446
 C109 C 0.23319 -0.06560 -0.09444
 C110 C 0.24154 -0.09224 -0.06430
 N111 N 0.21922 -0.09379 -0.03115
 H112 H 0.20383 -0.13856 0.09087
 H113 H 0.28847 -0.07547 0.02205
 H114 H 0.31875 -0.04698 0.08114
 H115 H 0.23256 -0.11249 0.15115
 H116 H 0.17502 -0.06703 0.00262
 H117 H 0.15834 -0.01913 -0.04809
 H118 H 0.25036 -0.06781 -0.12101
 H119 H 0.26557 -0.11218 -0.06802
 C120 C 0.33083 -0.20255 -0.04790
 C121 C 0.11621 -0.20856 0.04332
 C122 C 0.20116 -0.03989 -0.09094
 C123 C 0.27872 -0.07799 0.12136
 C124 C 0.22087 0.17713 0.45915
 H125 H 0.24746 0.17905 0.44168
 C126 C 0.18680 0.19508 0.44566
 H127 H 0.18748 0.21130 0.41812
 C128 C 0.18626 0.15066 0.51426
 H129 H 0.18565 0.13227 0.54034
 C130 C 0.15147 0.16776 0.50157
 H131 H 0.12453 0.16271 0.51810
 N132 N 0.21998 0.15491 0.49268
 C133 C 0.34073 0.13519 0.53242
 H134 H 0.33593 0.10520 0.54326
 C135 C 0.37644 0.15484 0.53989
 H136 H 0.39856 0.13980 0.55664
 C137 C 0.31598 0.19257 0.50156
 H138 H 0.29216 0.20754 0.48742
 C139 C 0.35136 0.21342 0.50852
 H140 H 0.35451 0.24429 0.49958
 Zn141 Zn 0.26395 0.12326 0.50636
 N142 N 0.31144 0.15392 0.51317
 C143 C 0.30501 0.06378 0.46603
 N144 N 0.27171 0.08530 0.46618
 C145 C 0.24549 0.08240 0.43630
 C146 C 0.25346 0.05903 0.40369
 C147 C 0.31424 0.04025 0.43394
 C148 C 0.25444 0.12282 0.58618
 C149 C 0.24258 0.10930 0.62305
 C150 C 0.22846 0.04459 0.59552
 C151 C 0.24096 0.05941 0.55886
 N152 N 0.25268 0.09820 0.55490
 H153 H 0.32532 0.06593 0.49007
 H154 H 0.21868 0.09888 0.43720
 H155 H 0.23257 0.05777 0.37992
 H156 H 0.34198 0.02520 0.43374
 H157 H 0.26383 0.15352 0.58210
 H158 H 0.24324 0.12981 0.64734
 H159 H 0.21724 0.01430 0.59801
 H160 H 0.23966 0.04053 0.53339
 C161 C 0.38221 0.19431 0.52757
 C162 C 0.15150 0.18970 0.46660
 C163 C 0.22820 0.07012 0.62792
 C164 C 0.28875 0.03837 0.40173
 C165 C 0.19949 0.48544 0.17886
 H166 H 0.21720 0.50086 0.20040
 C167 C 0.21679 0.47208 0.14398
 H168 H 0.24775 0.47817 0.13920
 C169 C 0.13759 0.45930 0.15929
 H170 H 0.10669 0.45414 0.16555
 C171 C 0.15363 0.44459 0.12512
 H172 H 0.13435 0.42739 0.10648
 N173 N 0.16050 0.47857 0.18572
 C174 C 0.15804 0.48718 0.30879
 H175 H 0.14004 0.46039 0.31055
 C176 C 0.17484 0.50220 0.34292
 H177 H 0.16965 0.48649 0.37033
 C178 C 0.18362 0.54186 0.27178
 H179 H 0.18593 0.55765 0.24410
 C180 C 0.20102 0.55796 0.30532
 H181 H 0.21769 0.58563 0.30291
 Zn182 Zn 0.13121 0.49050 0.23128
 N183 N 0.16217 0.50733 0.27421
 C184 C 0.12962 0.41059 0.24722
 N185 N 0.10523 0.44194 0.24521
 C186 C 0.06620 0.43747 0.25326
 C187 C 0.05101 0.40077 0.26673
 C188 C 0.11566 0.37347 0.25993
 C189 C 0.10360 0.55182 0.18468
 C190 C 0.08133 0.58423 0.17409
 C191 C 0.04447 0.57637 0.23434
 C192 C 0.06812 0.54423 0.24424
 N193 N 0.09641 0.53204 0.21894
 H194 H 0.16041 0.41483 0.23993
 H195 H 0.04711 0.46249 0.25061
 H196 H 0.02034 0.39828 0.27518
 H197 H 0.13595 0.34928 0.26183
 H198 H 0.12744 0.54323 0.16581
 H199 H 0.08887 0.60024 0.14745
 H200 H 0.02150 0.58529 0.25426
 H201 H 0.06399 0.52918 0.27213
 C202 C 0.19593 0.53849 0.34169
 C203 C 0.19387 0.45058 0.11656
 C204 C 0.05066 0.59636 0.19846
 C205 C 0.07621 0.36850 0.27146
 C206 C -0.19747 -0.00491 0.19702
 H207 H -0.21285 -0.02586 0.21609
 C208 C -0.21440 0.00625 0.16132
 H209 H -0.24254 -0.00714 0.15421
 C210 C -0.14161 0.03603 0.18366
 H211 H -0.11293 0.04731 0.19214
 C212 C -0.15736 0.04824 0.14825
 H213 H -0.14038 0.06996 0.13148
 N214 N -0.16184 0.01045 0.20763
 C215 C -0.16733 0.00683 0.32967
 H216 H -0.14818 0.03278 0.33008
 C217 C -0.18583 -0.00522 0.36438
 H218 H -0.18048 0.01146 0.39092
 C219 C -0.19418 -0.04898 0.29642
 H220 H -0.19564 -0.06705 0.27039
 C221 C -0.21323 -0.06224 0.33081
 H222 H -0.22918 -0.09047 0.33112
 Zn223 Zn -0.13533 -0.00317 0.25448
 N224 N -0.17058 -0.01568 0.29682
 C225 C -0.12239 0.07736 0.26957
 N226 N -0.10393 0.04197 0.26920
 C227 C -0.06606 0.03919 0.28115
 C228 C -0.04582 0.07277 0.29552
 C229 C -0.10330 0.11151 0.28346
 C230 C -0.10445 -0.08062 0.26713
 C231 C -0.08623 -0.11544 0.25522
 C232 C -0.06649 -0.08198 0.19523
 C233 C -0.08470 -0.04783 0.20841
 N234 N -0.10403 -0.04792 0.24336
 H235 H -0.15256 0.07880 0.25995
 H236 H -0.05203 0.01069 0.28087
 H237 H -0.01627 0.06958 0.30646
 H238 H -0.11902 0.13891 0.28331
 H239 H -0.11961 -0.08011 0.29502
 H240 H -0.08724 -0.14122 0.27440
 H241 H -0.05316 -0.08139 0.16639
 H242 H -0.08479 -0.02169 0.18986
 C243 C -0.20790 -0.04077 0.36548
 C244 C -0.19465 0.03386 0.13608
 C245 C -0.06749 -0.11674 0.21844
 C246 C -0.06471 0.10952 0.29753
 C247 C 0.31988 0.53006 0.69479
 H248 H 0.31589 0.54423 0.72283
 C249 C 0.29919 0.54329 0.66216
 H250 H 0.27960 0.56779 0.66589
 C251 C 0.35323 0.48351 0.65598
 H252 H 0.37473 0.46059 0.65346
 C253 C 0.33239 0.49503 0.62282
 H254 H 0.33767 0.48004 0.59545
 N255 N 0.34787 0.50225 0.69070
 C256 C 0.36307 0.49194 0.81405
 H257 H 0.38318 0.51697 0.81661
 C258 C 0.34708 0.47466 0.84809
 H259 H 0.35590 0.48641 0.87621
 C260 C 0.32835 0.44560 0.77470
 H261 H 0.32166 0.43403 0.74595
 C262 C 0.31134 0.42764 0.80798
 H263 H 0.29090 0.40287 0.80423
 Zn264 Zn 0.38325 0.49364 0.73267
 N265 N 0.35487 0.47619 0.77831
 C266 C 0.44041 0.54249 0.77062
 N267 N 0.41214 0.54163 0.74255
 C268 C 0.40303 0.57514 0.72232
 C269 C 0.41854 0.61190 0.73350
 C270 C 0.45705 0.57880 0.78260
 C271 C 0.41527 0.41665 0.73126
 C272 C 0.43869 0.38700 0.71603
 C273 C 0.47148 0.43653 0.67505
 C274 C 0.44704 0.46514 0.69066
 N275 N 0.41906 0.45462 0.71760
 H276 H 0.44827 0.51525 0.78535
 H277 H 0.38256 0.57395 0.69842
 H278 H 0.40886 0.63863 0.71894
 H279 H 0.47718 0.57954 0.80705
 H280 H 0.39314 0.40886 0.75289
 H281 H 0.43360 0.35666 0.72587
 H282 H 0.49329 0.44549 0.65333
 H283 H 0.44953 0.49562 0.68046
 C284 C 0.32178 0.44119 0.84551
 C285 C 0.30614 0.52656 0.62511
 C286 C 0.46675 0.39660 0.68691
 C287 C 0.44459 0.61408 0.76500
 C288 C 0.67397 0.95602 0.71726
 H289 H 0.67521 0.94409 0.74672
 C290 C 0.69854 0.94120 0.68814
 H291 H 0.71953 0.91910 0.69627
 C292 C 0.64496 0.99929 0.67140
 H293 H 0.62350 1.02140 0.66464
 C294 C 0.66786 0.98433 0.64121
 H295 H 0.66299 0.99517 0.61178
 N296 N 0.64848 0.98526 0.70867
 C297 C 0.61804 1.04375 0.81801
 H298 H 0.58830 1.05058 0.80977
 C299 C 0.63207 1.05510 0.85455
 H300 H 0.61265 1.07194 0.87281
 C301 C 0.67844 1.01441 0.80239
 H302 H 0.69655 0.99871 0.78195
 C303 C 0.69361 1.02466 0.83908
 H304 H 0.72321 1.01586 0.84511
 Zn305 Zn 0.61428 1.00556 0.74734
 N306 N 0.64091 1.02327 0.79298
 C307 C 0.58068 0.95171 0.80047
 N308 N 0.57815 0.96476 0.76279
 C309 C 0.55272 0.94719 0.73720
 C310 C 0.52781 0.91579 0.74975
 C311 C 0.55662 0.92071 0.81409
 C312 C 0.61514 1.08201 0.72135
 C313 C 0.60314 1.11663 0.70316
 C314 C 0.53851 1.08663 0.69506
 C315 C 0.55177 1.05235 0.71404
 N316 N 0.58981 1.05055 0.72593
 H317 H 0.60212 0.96450 0.82009
 H318 H 0.55208 0.95727 0.70705
 H319 H 0.50757 0.90206 0.72926
 H320 H 0.56012 0.91041 0.84397
 H321 H 0.64515 1.07975 0.73123
 H322 H 0.62413 1.14114 0.69991
 H323 H 0.50865 1.08717 0.68439
 H324 H 0.53206 1.02701 0.71817
 C325 C 0.67033 1.04514 0.86652
 C326 C 0.69551 0.95502 0.64922
 C327 C 0.56469 1.11909 0.68875
 C328 C 0.52949 0.90247 0.78883
 C329 C 0.03310 0.22609 -0.16514
 H330 H 0.04638 0.25561 -0.16510
 C331 C 0.05199 0.19545 -0.18421
 H332 H 0.07902 0.20219 -0.20003
 C333 C -0.01692 0.18128 -0.14249
 H334 H -0.04291 0.17558 -0.12482
 C335 C 0.00145 0.14953 -0.16064
 H336 H -0.01075 0.11983 -0.15662
 N337 N -0.00051 0.21855 -0.14448
 C338 C -0.05408 0.33150 -0.12082
 H339 H -0.06174 0.32566 -0.09049
 C340 C -0.06710 0.36571 -0.13924
 H341 H -0.08508 0.38617 -0.12313
 C342 C -0.02212 0.31139 -0.17909
 H343 H -0.00544 0.28976 -0.19481
 C344 C -0.03393 0.34579 -0.19849
 H345 H -0.02635 0.35042 -0.22908
 Zn346 Zn -0.01854 0.25952 -0.11182
 N347 N -0.03221 0.30507 -0.14086
 C348 C 0.03625 0.31166 -0.07719
 N349 N 0.02408 0.27294 -0.07882
 C350 C 0.04778 0.24321 -0.06689
 C351 C 0.08659 0.25179 -0.05589
 C352 C 0.07459 0.32151 -0.06628
 C353 C -0.09530 0.23579 -0.10992
 C354 C -0.13165 0.22272 -0.09557
 C355 C -0.10536 0.22494 -0.03015
 C356 C -0.06910 0.23793 -0.04603
 N357 N -0.06470 0.24214 -0.08540
 H358 H 0.01737 0.33489 -0.08719
 H359 H 0.03776 0.21259 -0.06937
 H360 H 0.10595 0.22767 -0.04903
 H361 H 0.08414 0.35244 -0.06669
 H362 H -0.09130 0.24091 -0.14104
 H363 H -0.15486 0.21977 -0.11682
 H364 H -0.10676 0.22037 0.00105
 H365 H -0.04441 0.24409 -0.02701
 C366 C -0.05713 0.37296 -0.17853
 C367 C 0.03698 0.15629 -0.18096
 C368 C -0.13745 0.21540 -0.05501
 C369 C 0.10087 0.29126 -0.05748
 C370 C 0.43506 0.20619 0.20000
 H371 H 0.41872 0.23311 0.19617
 C372 C 0.41812 0.17387 0.22040
 H373 H 0.38859 0.17584 0.23210
 C374 C 0.49158 0.16898 0.18565
 H375 H 0.51935 0.16641 0.17058
 C376 C 0.47602 0.13624 0.20637
 H377 H 0.49184 0.10869 0.20696
 N378 N 0.47061 0.20276 0.18209
 C379 C 0.51829 0.31772 0.14553
 H380 H 0.51904 0.31166 0.11446
 C381 C 0.53494 0.35279 0.15959
 H382 H 0.54858 0.37391 0.13929
 C383 C 0.50080 0.29662 0.20999
 H384 H 0.48814 0.27408 0.22932
 C385 C 0.51688 0.33184 0.22539
 H386 H 0.51684 0.33647 0.25675
 Zn387 Zn 0.48651 0.24303 0.14588
 N388 N 0.50232 0.29026 0.17069
 C389 C 0.42478 0.28926 0.11931
 N390 N 0.44286 0.25414 0.11340
 C391 C 0.42826 0.22711 0.08745
 C392 C 0.39528 0.23592 0.06488
 C393 C 0.39132 0.29872 0.09826
 C394 C 0.56507 0.22566 0.13875
 C395 C 0.60010 0.21378 0.12161
 C396 C 0.56600 0.20624 0.06019
 C397 C 0.53160 0.21877 0.07848
 N398 N 0.53149 0.22699 0.11743
 H399 H 0.43580 0.30984 0.14097
 H400 H 0.44212 0.19873 0.08430
 H401 H 0.38424 0.21465 0.04374
 H402 H 0.37743 0.32689 0.10319
 H403 H 0.56446 0.23349 0.16942
 H404 H 0.62624 0.21297 0.13945
 H405 H 0.56504 0.19823 0.02955
 H406 H 0.50507 0.22133 0.06160
 C407 C 0.53493 0.35976 0.19992
 C408 C 0.43840 0.13821 0.22285
 C409 C 0.60075 0.20271 0.08203
 C410 C 0.37642 0.27203 0.07056
 C411 C 0.99393 0.71915 0.69556
 H412 H 0.99099 0.74766 0.70935
 C413 C 0.97813 0.68525 0.71409
 H414 H 0.96645 0.68847 0.74328
 C415 C 1.01153 0.68133 0.64044
 H416 H 1.02374 0.68016 0.61117
 C417 C 0.99395 0.64714 0.65690
 H418 H 0.99324 0.62055 0.63945
 N419 N 1.01115 0.71652 0.65975
 C420 C 1.05824 0.83805 0.63787
 H421 H 1.05531 0.83706 0.60634
 C422 C 1.07015 0.87344 0.65581
 H423 H 1.07738 0.89896 0.63749
 C424 C 1.05335 0.80515 0.69924
 H425 H 1.04817 0.77835 0.71615
 C426 C 1.06432 0.84018 0.71850
 H427 H 1.06575 0.83976 0.75015
 Zn428 Zn 1.02716 0.76200 0.63017
 N429 N 1.04876 0.80516 0.65969
 C430 C 0.96497 0.81293 0.61958
 N431 N 0.98124 0.77954 0.60521
 C432 C 0.96274 0.75759 0.57720
 C433 C 0.92800 0.77087 0.56037
 C434 C 0.93007 0.82675 0.60431
 C435 C 1.10075 0.73673 0.61291
 C436 C 1.13136 0.72061 0.59158
 C437 C 1.09171 0.72476 0.53321
 C438 C 1.06211 0.74199 0.55556
 N439 N 1.06674 0.74640 0.59492
 H440 H 0.97848 0.82854 0.64370
 H441 H 0.97485 0.72977 0.56792
 H442 H 0.91448 0.75385 0.53707
 H443 H 0.91763 0.85306 0.61693
 H444 H 1.10354 0.74052 0.64423
 H445 H 1.15785 0.71196 0.60652
 H446 H 1.08734 0.71966 0.50223
 H447 H 1.03520 0.75054 0.54162
 C448 C 1.07224 0.87532 0.69686
 C449 C 0.97640 0.64858 0.69432
 C450 C 1.12652 0.71357 0.55154
 C451 C 0.91155 0.80633 0.57353
 C452 C 0.56139 0.71040 0.33255
 H453 H 0.57596 0.73907 0.32858
 C454 C 0.57561 0.67723 0.31334
 H455 H 0.60132 0.68086 0.29474
 C456 C 0.51162 0.67081 0.36356
 H457 H 0.48733 0.66819 0.38399
 C458 C 0.52465 0.63689 0.34468
 H459 H 0.50941 0.60873 0.34991
 N460 N 0.53001 0.70665 0.35715
 C461 C 0.50652 0.83240 0.36734
 H462 H 0.51991 0.83750 0.39557
 C463 C 0.49066 0.86426 0.34683
 H464 H 0.49259 0.89358 0.35964
 C465 C 0.48553 0.78755 0.31823
 H466 H 0.48351 0.75751 0.30727
 C467 C 0.46665 0.81801 0.29828
 H468 H 0.45083 0.81100 0.27169
 Zn469 Zn 0.51606 0.75136 0.38664
 N470 N 0.50327 0.79481 0.35314
 C471 C 0.58755 0.79059 0.39864
 N472 N 0.56135 0.76495 0.41638
 C473 C 0.57049 0.74620 0.45051
 C474 C 0.60554 0.75582 0.46981
 C475 C 0.62327 0.80019 0.41629
 C476 C 0.43817 0.73311 0.39124
 C477 C 0.40218 0.71869 0.40491
 C478 C 0.42959 0.71336 0.46962
 C479 C 0.46518 0.72960 0.45477
 N480 N 0.46929 0.73752 0.41567
 H481 H 0.58109 0.80318 0.37026
 H482 H 0.55129 0.72316 0.46241
 H483 H 0.61210 0.74167 0.49755
 H484 H 0.64340 0.82129 0.40216
 H485 H 0.44153 0.73924 0.36042
 H486 H 0.37832 0.71580 0.38424
 H487 H 0.42764 0.70502 0.50025
 H488 H 0.48943 0.73443 0.47441
 C489 C 0.46815 0.85698 0.31305
 C490 C 0.55715 0.63978 0.31922
 C491 C 0.39778 0.70655 0.44413
 C492 C 0.63223 0.78312 0.45252
 C493 C 0.36524 -0.01791 0.25931
 C494 C 0.13485 1.02284 0.76757
 C495 C 0.62942 0.50101 0.24514
 C496 C 0.87433 0.51574 0.75303
 C497 C 0.25546 0.35678 -0.01544
 C498 C 0.73237 0.11933 1.00755
 C499 C 0.25186 0.61670 0.48706
 C500 C 0.76482 0.87301 0.51431
 C501 C 0.01508 0.24425 0.37823
 C502 C 0.97694 0.73902 0.13463
 C503 C 0.52546 0.26256 0.59692
 C504 C 0.47197 0.75519 0.86167
 C505 C 0.45645 -0.07270 0.29880
 C506 C 0.44468 -0.11289 0.29723
 C507 C 0.40664 -0.12157 0.28306
 C508 C 0.38202 -0.09115 0.27068
 C509 C 0.39495 -0.05072 0.26957
 C510 C 0.43272 -0.04249 0.28461
 C511 C 0.46723 -0.02201 0.26501
 C512 C 0.49275 -0.05440 0.28111
 H513 H 0.39484 -0.15174 0.28336
 H514 H 0.35236 -0.09941 0.26220
 H515 H 0.47468 0.00738 0.27792
 H516 H 0.46503 -0.02208 0.23250
 H517 H 0.51368 -0.04370 0.30380
 H518 H 0.50584 -0.07312 0.25797
 C519 C 0.94976 0.43459 0.78006
 C520 C 0.92618 0.40698 0.80069
 C521 C 0.88562 0.41293 0.80210
 C522 C 0.86981 0.44738 0.78615
 C523 C 0.89388 0.47737 0.76791
 C524 C 0.93426 0.46928 0.76451
 C525 C 0.96996 0.49305 0.77663
 C526 C 0.98657 0.45505 0.79311
 H527 H 0.86620 0.39145 0.81664
 H528 H 0.83835 0.45087 0.78851
 H529 H 0.96361 0.51537 0.79947
 H530 H 0.98739 0.50471 0.75125
 H531 H 0.98963 0.45523 0.82554
 H532 H 1.01272 0.44482 0.77674
 C533 C 0.04448 1.08799 0.78903
 C534 C 0.06065 1.12284 0.80476
 C535 C 0.10203 1.12423 0.80778
 C536 C 0.12489 1.09231 0.79522
 C537 C 0.10776 1.05747 0.77823
 C538 C 0.06659 1.05727 0.77593
 C539 C 0.03090 1.03250 0.76648
 C540 C 0.00639 1.06718 0.78112
 H541 H 0.11701 1.14948 0.82092
 H542 H 0.15643 1.09476 0.79897
 H543 H 0.02811 1.00546 0.78530
 H544 H 0.02721 1.02749 0.73459
 H545 H -0.01042 1.05970 0.80829
 H546 H -0.01046 1.08210 0.75765
 C547 C 0.56778 0.56593 0.31465
 C548 C 0.57127 0.60417 0.29846
 C549 C 0.58877 0.60744 0.26110
 C550 C 0.60638 0.57469 0.24351
 C551 C 0.60634 0.53646 0.26189
 C552 C 0.58553 0.53373 0.29762
 C553 C 0.59333 0.51470 0.33640
 C554 C 0.57402 0.55036 0.35511
 H555 H 0.59042 0.63575 0.24584
 H556 H 0.62184 0.58096 0.21643
 H557 H 0.62498 0.51318 0.34369
 H558 H 0.57615 0.48647 0.34061
 H559 H 0.59477 0.56940 0.37215
 H560 H 0.54586 0.54249 0.37024
 C561 C 0.59656 0.39962 0.20569
 C562 C 0.55712 0.39430 0.21485
 C563 C 0.53970 0.42502 0.23632
 C564 C 0.56192 0.45974 0.24671
 C565 C 0.60267 0.46419 0.23679
 C566 C 0.61788 0.43230 0.21582
 C567 C 0.65395 0.41839 0.19544
 C568 C 0.62947 0.38130 0.18407
 H569 H 0.50875 0.42295 0.24375
 H570 H 0.54624 0.48280 0.26128
 H571 H 0.67814 0.41201 0.21612
 H572 H 0.66239 0.43737 0.16982
 H573 H 0.63927 0.35350 0.19839
 H574 H 0.62381 0.37929 0.15210
 C575 C 0.09898 0.91338 0.75450
 C576 C 0.08258 0.91338 0.71707
 C577 C 0.07677 0.95104 0.69960
 C578 C 0.09178 0.98617 0.71695
 C579 C 0.11224 0.98538 0.75296
 C580 C 0.11396 0.94778 0.77145
 C581 C 0.14674 0.92559 0.79014
 C582 C 0.12999 0.88812 0.77160
 H583 H 0.06209 0.95358 0.67172
 H584 H 0.08911 1.01390 0.70108
 H585 H 0.14447 0.92495 0.82263
 H586 H 0.17622 0.93401 0.77827
 H587 H 0.11795 0.86642 0.79353
 H588 H 0.14957 0.87548 0.74893
 C589 C 0.93021 0.61741 0.74465
 C590 C 0.95485 0.61321 0.71198
 C591 C 0.95677 0.57440 0.69625
 C592 C 0.93157 0.54323 0.70985
 C593 C 0.90480 0.54874 0.74108
 C594 C 0.90608 0.58659 0.75852
 C595 C 0.87401 0.61453 0.76875
 C596 C 0.90036 0.64800 0.75347
 H597 H 0.97643 0.56785 0.67238
 H598 H 0.93228 0.51485 0.69516
 H599 H 0.86877 0.61644 0.80083
 H600 H 0.84714 0.61031 0.75097
 H601 H 0.90985 0.66862 0.77706
 H602 H 0.88895 0.66253 0.72660
 C603 C 0.39382 0.08178 0.20721
 C604 C 0.41731 0.10132 0.23451
 C605 C 0.42193 0.08315 0.27131
 C606 C 0.40569 0.04477 0.27877
 C607 C 0.38613 0.02248 0.24905
 C608 C 0.37929 0.04342 0.21370
 C609 C 0.38634 0.03363 0.17135
 C610 C 0.40082 0.07601 0.16473
 H611 H 0.43884 0.09807 0.29384
 H612 H 0.40910 0.03209 0.30776
 H613 H 0.35861 0.02678 0.15543
 H614 H 0.41022 0.01211 0.16711
 H615 H 0.38074 0.09383 0.14644
 H616 H 0.43243 0.07842 0.15641
 C617 C 0.30524 0.43840 -0.08216
 C618 C 0.30837 0.41942 -0.11838
 C619 C 0.30010 0.37820 -0.11862
 C620 C 0.28448 0.35858 -0.08528
 C621 C 0.27658 0.37910 -0.04995
 C622 C 0.28961 0.41922 -0.04911
 C623 C 0.27066 0.45664 -0.03596
 C624 C 0.28799 0.47721 -0.07206
 H625 H 0.30480 0.36094 -0.14476
 H626 H 0.27738 0.32713 -0.08745
 H627 H 0.28347 0.46831 -0.00835
 H628 H 0.23815 0.45484 -0.03654
 H629 H 0.31086 0.50012 -0.06500
 H630 H 0.26547 0.48666 -0.09347
 C631 C 0.81530 0.92641 0.42524
 C632 C 0.78388 0.94059 0.40388
 C633 C 0.74610 0.93687 0.42050
 C634 C 0.74030 0.91646 0.45655
 C635 C 0.77207 0.89906 0.47691
 C636 C 0.80974 0.90561 0.46007
 C637 C 0.84147 0.87730 0.44906
 C638 C 0.84752 0.90085 0.41148
 H639 H 0.72109 0.94858 0.40517
 H640 H 0.71067 0.91301 0.46786
 H641 H 0.83013 0.84654 0.44401
 H642 H 0.86753 0.87949 0.46843
 H643 H 0.83969 0.88378 0.38476
 H644 H 0.87622 0.91730 0.41008
 C645 C 0.81008 0.07493 1.07629
 C646 C 0.78827 0.04898 1.10105
 C647 C 0.74826 0.04243 1.09086
 C648 C 0.73141 0.06239 1.05881
 C649 C 0.75315 0.09088 1.03635
 C650 C 0.79332 0.09459 1.04484
 C651 C 0.82818 0.08779 1.01909
 C652 C 0.84652 0.06665 1.05337
 H653 H 0.72885 0.02330 1.10800
 H654 H 0.70040 0.05774 1.05343
 H655 H 0.84418 0.11585 1.01096
 H656 H 0.82209 0.06748 0.99435
 H657 H 0.87284 0.08289 1.06472
 H658 H 0.85048 0.03436 1.04842
 C659 C 0.30515 0.53966 0.55192
 C660 C 0.28779 0.54305 0.58898
 C661 C 0.25301 0.56494 0.59043
 C662 C 0.24047 0.58717 0.55781
 C663 C 0.26164 0.58800 0.52158
 C664 C 0.29306 0.56147 0.51987
 C665 C 0.33331 0.56206 0.50200
 C666 C 0.34662 0.53872 0.53779
 H667 H 0.23616 0.56671 0.61729
 H668 H 0.21526 0.60521 0.56279
 H669 H 0.34769 0.59191 0.50010
 H670 H 0.33451 0.54425 0.47479
 H671 H 0.36710 0.55590 0.55689
 H672 H 0.35586 0.50818 0.53055
 C673 C 0.20882 0.59737 0.38496
 C674 C 0.21046 0.55672 0.37847
 C675 C 0.22494 0.53387 0.41010
 C676 C 0.23750 0.55202 0.44554
 C677 C 0.23657 0.59401 0.45060
 C678 C 0.22053 0.61475 0.41889
 C679 C 0.21024 0.65533 0.40507
 C680 C 0.19663 0.63552 0.36690
 H681 H 0.22692 0.50194 0.40752
 H682 H 0.24778 0.53259 0.46830
 H683 H 0.23650 0.67519 0.40096
 H684 H 0.18582 0.66805 0.42228
 H685 H 0.21505 0.64444 0.34118
 H686 H 0.16436 0.63640 0.36235
 C687 C 0.66008 0.07685 0.93047
 C688 C 0.68468 0.05728 0.90393
 C689 C 0.72422 0.05294 0.91579
 C690 C 0.73819 0.06946 0.95093
 C691 C 0.71406 0.09252 0.97522
 C692 C 0.67424 0.09368 0.96500
 C693 C 0.63973 0.07796 0.98815
 C694 C 0.62424 0.06006 0.95075
 H695 H 0.74552 0.03809 0.89803
 H696 H 0.76899 0.06700 0.95732
 H697 H 0.62101 0.10195 0.99947
 H698 H 0.64767 0.05517 1.01024
 H699 H 0.59682 0.07413 0.94067
 H700 H 0.62317 0.02700 0.95119
 C701 C 0.73624 0.90065 0.61990
 C702 C 0.71965 0.93809 0.61698
 C703 C 0.72627 0.95832 0.58081
 C704 C 0.74250 0.93878 0.54806
 C705 C 0.75196 0.89790 0.55000
 C706 C 0.75110 0.88142 0.58804
 C707 C 0.74602 0.84144 0.60694
 C708 C 0.72852 0.86284 0.64204
 H709 H 0.71795 0.98891 0.57705
 H710 H 0.74584 0.95577 0.52128
 H711 H 0.77470 0.82781 0.61353
 H712 H 0.72416 0.82156 0.59261
 H713 H 0.74689 0.86043 0.66873
 H714 H 0.69659 0.85634 0.64635
 C715 C 0.18609 0.41357 0.05333
 C716 C 0.21102 0.43168 0.08076
 C717 C 0.25177 0.42633 0.07513
 C718 C 0.26604 0.40486 0.04277
 C719 C 0.24021 0.38657 0.01540
 C720 C 0.19984 0.39150 0.02230
 C721 C 0.16811 0.40603 -0.00405
 C722 C 0.15384 0.43083 0.02967
 H723 H 0.27301 0.43797 0.09571
 H724 H 0.29746 0.40136 0.03980
 H725 H 0.14661 0.38199 -0.01161
 H726 H 0.17909 0.42399 -0.02937
 H727 H 0.12407 0.42122 0.04002
 H728 H 0.15803 0.46335 0.02463
 C729 C -0.04940 0.33050 0.41522
 C730 C -0.07096 0.31334 0.44620
 C731 C -0.06342 0.27338 0.45579
 C732 C -0.03443 0.25213 0.43547
 C733 C -0.01342 0.26929 0.40332
 C734 C -0.02150 0.30936 0.39460
 C735 C 0.00574 0.34502 0.39217
 C736 C -0.02452 0.36761 0.41488
 H737 H -0.08002 0.25845 0.47896
 H738 H -0.02958 0.22157 0.44383
 H739 H 0.00955 0.35691 0.36196
 H740 H 0.03353 0.34148 0.40847
 H741 H -0.03794 0.39180 0.39754
 H742 H -0.01404 0.37623 0.44450
 C743 C 0.39859 0.77008 0.94810
 C744 C 0.36603 0.78601 0.92953
 C745 C 0.36917 0.79387 0.88915
 C746 C 0.40248 0.78270 0.86795
 C747 C 0.43406 0.76268 0.88599
 C748 C 0.43158 0.75830 0.92716
 C749 C 0.43446 0.72210 0.95298
 C750 C 0.39936 0.73607 0.97595
 H751 H 0.34586 0.80860 0.87373
 H752 H 0.40338 0.78933 0.83686
 H753 H 0.46174 0.72242 0.97074
 H754 H 0.42797 0.69392 0.93727
 H755 H 0.40676 0.74567 1.00616
 H756 H 0.37306 0.71599 0.97356
 C757 C 1.08381 0.75549 0.09973
 C758 C 1.08129 0.77175 0.06218
 C759 C 1.04378 0.76978 0.04449
 C760 C 1.00996 0.75715 0.06619
 C761 C 1.01249 0.74750 0.10674
 C762 C 1.05106 0.74462 0.12116
 C763 C 1.07086 0.75294 0.15931
 C764 C 1.10690 0.76607 0.13537
 H765 H 1.04020 0.77921 0.01436
 H766 H 0.98226 0.75670 0.05108
 H767 H 1.07572 0.72536 0.17654
 H768 H 1.05801 0.77756 0.17611
 H769 H 1.13232 0.74644 0.13975
 H770 H 1.11369 0.79850 0.13715
 C771 C 0.62850 0.30552 0.57547
 C772 C 0.63311 0.30812 0.53514
 C773 C 0.60033 0.29483 0.51284
 C774 C 0.56532 0.27959 0.53147
 C775 C 0.56205 0.27714 0.57312
 C776 C 0.59512 0.29188 0.59319
 C777 C 0.60963 0.30238 0.63315
 C778 C 0.64735 0.31796 0.61281
 H779 H 0.60154 0.29643 0.48116
 H780 H 0.54110 0.27095 0.51293
 H781 H 0.61423 0.27591 0.65206
 H782 H 0.59261 0.32640 0.64688
 H783 H 0.67352 0.30028 0.62003
 H784 H 0.65157 0.35075 0.61461
 C785 C 0.45596 0.20585 0.52615
 C786 C 0.41845 0.21674 0.53829
 C787 C 0.41644 0.24920 0.56377
 C788 C 0.45075 0.26580 0.58064
 C789 C 0.48894 0.25152 0.57171
 C790 C 0.48971 0.22227 0.54245
 C791 C 0.51203 0.18513 0.53631
 C792 C 0.47485 0.16721 0.51817
 H793 H 0.38811 0.25955 0.57340
 H794 H 0.44630 0.28792 0.60288
 H795 H 0.51993 0.16993 0.56406
 H796 H 0.53636 0.18944 0.51474
 H797 H 0.46235 0.14198 0.53568
 H798 H 0.47793 0.16158 0.48628
 C799 C 0.87854 0.69395 0.09614
 C800 C 0.86016 0.72590 0.07824
 C801 C 0.88259 0.76152 0.07436
 C802 C 0.92012 0.76548 0.09199
 C803 C 0.93752 0.73332 0.11237
 C804 C 0.91555 0.69721 0.11222
 C805 C 0.90554 0.66603 0.14263
 C806 C 0.86473 0.66328 0.12517
 H807 H 0.87056 0.78674 0.05908
 H808 H 0.93531 0.79409 0.09036
 H809 H 0.90588 0.67741 0.17301
 H810 H 0.92168 0.63806 0.13848
 H811 H 0.84216 0.67404 0.14589
 H812 H 0.85796 0.63416 0.11130
 C813 C 0.57201 0.75736 0.91710
 C814 C 0.57504 0.71805 0.92979
 C815 C 0.54127 0.69331 0.92659
 C816 C 0.50807 0.70616 0.90625
 C817 C 0.50673 0.74455 0.88897
 C818 C 0.53922 0.77028 0.89687
 C819 C 0.56500 0.79590 0.87054
 C820 C 0.60021 0.78182 0.89318
 H821 H 0.54130 0.66304 0.93755
 H822 H 0.48439 0.68477 0.90150
 H823 H 0.56032 0.82817 0.87454
 H824 H 0.56512 0.78588 0.83966
 H825 H 0.61475 0.80566 0.91064
 H826 H 0.62036 0.76354 0.87545
 C827 C 0.09145 0.17632 0.42752
 C828 C 0.11438 0.20292 0.44929
 C829 C 0.10382 0.24298 0.44952
 C830 C 0.07016 0.25545 0.42939
 C831 C 0.04724 0.22874 0.40638
 C832 C 0.05861 0.18874 0.40697
 C833 C 0.03525 0.15256 0.41968
 C834 C 0.07118 0.13909 0.44156
 H835 H 0.12162 0.26463 0.46519
 H836 H 0.06331 0.28655 0.43009
 H837 H 0.02750 0.13277 0.39485
 H838 H 0.01024 0.15970 0.43929
 H839 H 0.08439 0.11216 0.42885
 H840 H 0.06696 0.13818 0.47388
 C841 C 0.58216 0.17655 0.64516
 C842 C 0.55350 0.15515 0.66638
 C843 C 0.51522 0.17030 0.66651
 C844 C 0.50633 0.20443 0.64411
 C845 C 0.53548 0.22499 0.62121
 C846 C 0.57368 0.20987 0.62321
 C847 C 0.60266 0.19864 0.59205
 C848 C 0.61147 0.16212 0.61639
 H849 H 0.49208 0.15578 0.68359
 H850 H 0.47650 0.21485 0.64468
 H851 H 0.62842 0.21946 0.59009
 H852 H 0.58892 0.19154 0.56351
 H853 H 0.64177 0.16259 0.62838
 H854 H 0.60196 0.13381 0.60235
 C855 C 1.01330 0.63330 0.14739
 C856 C 1.02582 0.62973 0.18594
 C857 C 1.01603 0.66146 0.21101
 C858 C 0.99766 0.69614 0.19614
 C859 C 0.98798 0.69989 0.15569
 C860 C 0.99574 0.66616 0.13324
 C861 C 0.99827 0.65266 0.09172
 C862 C 1.01768 0.61532 0.10781
 H863 H 1.02487 0.66076 0.24142
 H864 H 0.99392 0.72054 0.21601
 H865 H 1.01868 0.67145 0.07357
 H866 H 0.96906 0.64644 0.07848
 H867 H 1.04860 0.61320 0.09775
 H868 H 0.99932 0.58779 0.10455
 C869 C 0.93443 0.80819 0.21401
 C870 C 0.94983 0.84581 0.20369
 C871 C 0.98103 0.84661 0.17638
 C872 C 0.99136 0.81220 0.15593
 C873 C 0.97187 0.77478 0.16271
 C874 C 0.94454 0.77411 0.19394
 C875 C 0.90422 0.75615 0.19917
 C876 C 0.89327 0.79365 0.22087
 H877 H 0.99611 0.87430 0.16881
 H878 H 1.01311 0.81632 0.13300
 H879 H 0.90417 0.72953 0.21863
 H880 H 0.88774 0.75259 0.17141
 H881 H 0.88685 0.78826 0.25246
 H882 H 0.87142 0.81178 0.20509
 C883 C 0.50098 0.36859 0.62827
 C884 C 0.48910 0.36494 0.66735
 C885 C 0.49785 0.32876 0.68639
 C886 C 0.51166 0.29605 0.66497
 C887 C 0.51606 0.29821 0.62354
 C888 C 0.51334 0.33660 0.60725
 C889 C 0.50004 0.35366 0.56918
 C890 C 0.48523 0.38872 0.59273
 H891 H 0.49263 0.32502 0.71751
 H892 H 0.51717 0.26919 0.68122
 H893 H 0.47599 0.33645 0.55495
 H894 H 0.52522 0.36184 0.54960
 H895 H 0.45264 0.39046 0.59339
 H896 H 0.50129 0.41705 0.58573
 C897 C 0.42206 0.67668 0.79399
 C898 C 0.45318 0.65293 0.78300
 C899 C 0.49126 0.66540 0.79345
 C900 C 0.49710 0.69901 0.81721
 C901 C 0.46498 0.72059 0.83239
 C902 C 0.42740 0.70923 0.81836
 C903 C 0.38971 0.69846 0.83971
 C904 C 0.38418 0.66374 0.81238
 H905 H 0.51630 0.64820 0.78476
 H906 H 0.52696 0.70686 0.82531
 H907 H 0.36649 0.72070 0.83549
 H908 H 0.39447 0.68913 0.87061
 H909 H 0.35906 0.66703 0.79203
 H910 H 0.38571 0.63436 0.82738
 C911 C -0.06512 0.16780 0.34375
 C912 C -0.04510 0.14440 0.31670
 C913 C -0.00449 0.15235 0.31213
 C914 C 0.01415 0.18432 0.33169
 C915 C -0.00662 0.20894 0.35791
 C916 C -0.04656 0.19855 0.36413
 C917 C -0.08265 0.22309 0.36322
 C918 C -0.10233 0.19012 0.34004
 H919 H 0.01278 0.13468 0.29239
 H920 H 0.04508 0.19016 0.32600
 H921 H -0.07864 0.25134 0.34656
 H922 H -0.09638 0.22628 0.39258
 H923 H -0.10854 0.19964 0.30949
 H924 H -0.12726 0.17523 0.35593
 C925 C 0.02319 0.31945 0.29234
 C926 C 0.06266 0.33189 0.29267
 C927 C 0.08798 0.31184 0.31818
 C928 C 0.07398 0.28106 0.34278
 C929 C 0.03348 0.27037 0.34469
 C930 C 0.00908 0.28900 0.31706
 C931 C -0.01470 0.27095 0.28469
 C932 C 0.00036 0.30434 0.25827
 H933 H 0.11869 0.32057 0.32026
 H934 H 0.09548 0.26662 0.36065
 H935 H -0.04679 0.27234 0.29014
 H936 H -0.00425 0.24138 0.27558
 H937 H -0.02290 0.32514 0.24935
 H938 H 0.01946 0.29410 0.23399
 C939 C 0.49782 0.83457 0.78119
 C940 C 0.50479 0.86864 0.80351
 C941 C 0.49232 0.86723 0.84289
 C942 C 0.48121 0.83095 0.86065
 C943 C 0.48141 0.79473 0.83956
 C944 C 0.48658 0.79849 0.79858
 C945 C 0.51056 0.77615 0.76948
 C946 C 0.52233 0.81571 0.75069
 H947 H 0.49449 0.89345 0.86100
 H948 H 0.47501 0.83084 0.89181
 H949 H 0.49196 0.75717 0.75015
 H950 H 0.53611 0.76121 0.78252
 H951 H 0.51009 0.81968 0.72083
 H952 H 0.55413 0.82338 0.75363
 C953 C 0.63416 0.53485 0.13791
 C954 C 0.67370 0.54370 0.12848
 C955 C 0.70064 0.53382 0.15902
 C956 C 0.68765 0.51912 0.19623
 C957 C 0.64713 0.51288 0.20476
 C958 C 0.62226 0.51908 0.17298
 C959 C 0.57988 0.51745 0.16292
 C960 C 0.59259 0.53512 0.12329
 H961 H 0.73184 0.53957 0.15608
 H962 H 0.70972 0.51344 0.21801
 H963 H 0.56221 0.53789 0.18092
 H964 H 0.56804 0.48647 0.16095
 H965 H 0.58108 0.56547 0.11911
 H966 H 0.58776 0.51448 0.09842
 C967 C 0.18654 1.08567 0.68538
 C968 C 0.20930 1.05828 0.66566
 C969 C 0.21144 1.01987 0.68209
 C970 C 0.18888 1.00911 0.71563
 C971 C 0.16339 1.03633 0.73394
 C972 C 0.16386 1.07513 0.71780
 C973 C 0.13112 1.10088 0.70383
 C974 C 0.15653 1.11245 0.66890
 H975 H 0.22936 0.99775 0.66829
 H976 H 0.19008 0.97882 0.72622
 H977 H 0.12593 1.12658 0.72324
 H978 H 0.10421 1.08361 0.69569
 H979 H 0.16655 1.14413 0.66909
 H980 H 0.14446 1.10177 0.64055
 C981 C 0.15104 0.99809 0.87664
 C982 C 0.18906 0.98276 0.87818
 C983 C 0.21299 0.99114 0.84453
 C984 C 0.19712 1.00712 0.80973
 C985 C 0.15629 1.01340 0.80642
 C986 C 0.13522 1.01142 0.84204
 C987 C 0.09423 0.99933 0.85317
 C988 C 0.11148 0.98334 0.89095
 H989 H 0.24404 0.98521 0.84432
 H990 H 0.21686 1.01189 0.78526
 H991 H 0.08106 0.97563 0.83474
 H992 H 0.07538 1.02540 0.85788
 H993 H 0.10948 0.95037 0.89339
 H994 H 0.10119 0.99960 0.91716
 C995 C 0.71246 0.51122 0.32124
 C996 C 0.71562 0.47383 0.33847
 C997 C 0.69142 0.44347 0.32263
 C998 C 0.66444 0.45146 0.29246
 C999 C 0.66127 0.49017 0.27540
 C1000 C 0.68722 0.51882 0.29123
 C1001 C 0.69500 0.56259 0.29306
 C1002 C 0.72363 0.55377 0.32665
 H1003 H 0.69172 0.41375 0.33505
 H1004 H 0.64525 0.42696 0.28447
 H1005 H 0.66891 0.57908 0.30299
 H1006 H 0.70969 0.57448 0.26613
 H1007 H 0.71369 0.56527 0.35539
 H1008 H 0.75494 0.56017 0.31904
 C1009 C 0.81950 0.45903 0.66973
 C1010 C 0.80987 0.48913 0.64357
 C1011 C 0.81664 0.52861 0.65533
 C1012 C 0.83523 0.53697 0.69139
 C1013 C 0.84864 0.50617 0.71645
 C1014 C 0.83903 0.46693 0.70453
 C1015 C 0.86432 0.43130 0.69834
 C1016 C 0.84198 0.42279 0.66116
 H1017 H 0.80919 0.55290 0.63596
 H1018 H 0.84134 0.56772 0.69834
 H1019 H 0.85917 0.40740 0.72052
 H1020 H 0.89572 0.43952 0.69285
 H1021 H 0.82314 0.39539 0.66294
 H1022 H 0.86043 0.42580 0.63425
 C1023 C 0.27948 -0.04796 0.18915
 C1024 C 0.29941 -0.06382 0.15703
 C1025 C 0.34070 -0.06326 0.15823
 C1026 C 0.36095 -0.04903 0.19108
 C1027 C 0.34106 -0.03307 0.22372
 C1028 C 0.29967 -0.03271 0.22152
 C1029 C 0.26954 -0.05006 0.24931
 C1030 C 0.24812 -0.06684 0.21429
 H1031 H 0.35753 -0.07507 0.13414
 H1032 H 0.39266 -0.05075 0.19110
 H1033 H 0.25229 -0.02706 0.26439
 H1034 H 0.28157 -0.07329 0.26892
 H1035 H 0.21899 -0.05346 0.20946
 H1036 H 0.24825 -0.09986 0.21409
 C1037 C 0.29014 0.03111 0.32834
 C1038 C 0.30013 0.01713 0.36552
 C1039 C 0.32458 -0.01610 0.36663
 C1040 C 0.34318 -0.02969 0.33236
 C1041 C 0.33847 -0.01022 0.29546
 C1042 C 0.30951 0.01907 0.29504
 C1043 C 0.30398 0.05816 0.27490
 C1044 C 0.28288 0.07142 0.31190
 H1045 H 0.33137 -0.03023 0.39430
 H1046 H 0.36338 -0.05360 0.33625
 H1047 H 0.28429 0.05551 0.24913
 H1048 H 0.33147 0.07578 0.26988
 H1049 H 0.25110 0.07651 0.30727
 H1050 H 0.29901 0.09531 0.32795
 C1051 C 0.78944 0.54272 0.82428
 C1052 C 0.80999 0.55620 0.85724
 C1053 C 0.85063 0.55002 0.85796
 C1054 C 0.87024 0.53658 0.82457
 C1055 C 0.85019 0.52954 0.78877
 C1056 C 0.80884 0.52998 0.79082
 C1057 C 0.77824 0.54727 0.76484
 C1058 C 0.75720 0.56090 0.80163
 H1059 H 0.86767 0.55730 0.88374
 H1060 H 0.90176 0.53360 0.82611
 H1061 H 0.76145 0.52396 0.74866
 H1062 H 0.78922 0.57263 0.74661
 H1063 H 0.72851 0.54519 0.80676
 H1064 H 0.75682 0.59377 0.80461
 C1065 C 0.19533 0.70623 0.52876
 C1066 C 0.15671 0.69155 0.53047
 C1067 C 0.14896 0.65260 0.51794
 C1068 C 0.17925 0.62959 0.50274
 C1069 C 0.21850 0.64475 0.49951
 C1070 C 0.22549 0.68378 0.51312
 C1071 C 0.24201 0.71957 0.49158
 C1072 C 0.20945 0.74355 0.50915
 H1073 H 0.11965 0.63962 0.52079
 H1074 H 0.17220 0.59924 0.49456
 H1075 H 0.24002 0.71685 0.45924
 H1076 H 0.27132 0.72943 0.50243
 H1077 H 0.18843 0.75473 0.48704
 H1078 H 0.22008 0.76600 0.53058
 C1079 C 0.64293 0.18597 1.02395
 C1080 C 0.63626 0.18476 1.06439
 C1081 C 0.66226 0.16218 1.08711
 C1082 C 0.69420 0.14298 1.06984
 C1083 C 0.70056 0.14382 1.02870
 C1084 C 0.67455 0.16717 1.00703
 C1085 C 0.68223 0.20036 0.97861
 C1086 C 0.64756 0.22100 0.99707
 H1087 H 0.65807 0.15892 1.11841
 H1088 H 0.71387 0.12807 1.08944
 H1089 H 0.67686 0.19111 0.94787
 H1090 H 0.71073 0.21626 0.98369
 H1091 H 0.62221 0.22368 0.97690
 H1092 H 0.65602 0.24871 1.01277
 C1093 C 0.81696 0.19708 0.99858
 C1094 C 0.82833 0.19795 0.95884
 C1095 C 0.80148 0.17715 0.93380
 C1096 C 0.76914 0.15453 0.94863
 C1097 C 0.76198 0.15020 0.98948
 C1098 C 0.78479 0.17604 1.01249
 C1099 C 0.78991 0.18978 1.05353
 C1100 C 0.82617 0.21323 1.03834
 H1101 H 0.80590 0.17525 0.90257
 H1102 H 0.75049 0.14011 0.92731
 H1103 H 0.79731 0.16590 1.07461
 H1104 H 0.76558 0.20901 1.06300
 H1105 H 0.85381 0.20174 1.05080
 H1106 H 0.82299 0.24598 1.03972
 C1107 C 0.33806 0.66560 0.42828
 C1108 C 0.36064 0.68540 0.45643
 C1109 C 0.34619 0.68431 0.49527
 C1110 C 0.31161 0.66210 0.50504
 C1111 C 0.28974 0.64093 0.47623
 C1112 C 0.30406 0.64422 0.43753
 C1113 C 0.31347 0.61310 0.40782
 C1114 C 0.35065 0.63671 0.39810
 H1115 H 0.36166 0.70000 0.51826
 H1116 H 0.30200 0.66119 0.53534
 H1117 H 0.29267 0.61255 0.38287
 H1118 H 0.31907 0.58357 0.42097
 H1119 H 0.35060 0.64960 0.36802
 H1120 H 0.37791 0.62120 0.40637
 C1121 C 0.66542 0.81462 0.50922
 C1122 C 0.66817 0.79591 0.47312
 C1123 C 0.70520 0.79569 0.45462
 C1124 C 0.73711 0.81788 0.46996
 C1125 C 0.73273 0.84169 0.50375
 C1126 C 0.69627 0.83775 0.52356
 C1127 C 0.66841 0.86776 0.53926
 C1128 C 0.63496 0.84198 0.52376
 H1129 H 0.70870 0.78084 0.42683
 H1130 H 0.76438 0.81899 0.45353
 H1131 H 0.66839 0.86911 0.57177
 H1132 H 0.67097 0.89706 0.52415
 H1133 H 0.61845 0.85633 0.49967
 H1134 H 0.61646 0.82807 0.54730
 C1135 C 0.16607 0.28262 -0.02432
 C1136 C 0.14333 0.30089 -0.05283
 C1137 C 0.16172 0.33105 -0.07554
 C1138 C 0.19866 0.34691 -0.06509
 C1139 C 0.21955 0.33257 -0.03200
 C1140 C 0.20269 0.29832 -0.01352
 C1141 C 0.19430 0.28768 0.02860
 C1142 C 0.15500 0.27015 0.01611
 H1143 H 0.14619 0.34485 -0.09946
 H1144 H 0.20865 0.37320 -0.08099
 H1145 H 0.19067 0.31393 0.04767
 H1146 H 0.21424 0.26467 0.04003
 H1147 H 0.12945 0.28645 0.02774
 H1148 H 0.15293 0.23727 0.01934
 C1149 C 0.34599 0.29023 0.00687
 C1150 C 0.34212 0.28301 0.04696
 C1151 C 0.30718 0.29421 0.06520
 C1152 C 0.27915 0.31593 0.04460
 C1153 C 0.28482 0.32793 0.00482
 C1154 C 0.31860 0.31245 -0.01374
 C1155 C 0.35172 0.33254 -0.03654
 C1156 C 0.38053 0.30757 -0.01437
 H1157 H 0.30296 0.28899 0.09632
 H1158 H 0.25454 0.32622 0.06141
 H1159 H 0.35514 0.36477 -0.03008
 H1160 H 0.35150 0.32501 -0.06817
 H1161 H 0.40045 0.32530 0.00483
 H1162 H 0.39519 0.28526 -0.03292
 C1163 C 0.84754 0.79851 0.53687
 C1164 C 0.87605 0.82274 0.55488
 C1165 C 0.86994 0.86398 0.55422
 C1166 C 0.83439 0.87919 0.54111
 C1167 C 0.80372 0.85404 0.52683
 C1168 C 0.81243 0.81349 0.52322
 C1169 C 0.79035 0.77609 0.53466
 C1170 C 0.82883 0.76017 0.54987
 H1171 H 0.89210 0.88476 0.56478
 H1172 H 0.83057 0.91101 0.54249
 H1173 H 0.77932 0.75941 0.50883
 H1174 H 0.76818 0.78033 0.55804
 H1175 H 0.83952 0.73457 0.53278
 H1176 H 0.82926 0.75621 0.58224
   
