data_POSCAR
  _audit_creation_date              2014-09-24
  _audit_creation_method            'ToBaCCo'
  _symmetry_space_group_name_H-M    'P1'
  _symmetry_Int_Tables_number       1
  _symmetry_cell_setting            triclinic
  loop_
  _symmetry_equiv_pos_as_xyz
 x,y,z
_cell_length_a 56.1827
_cell_length_b 10.6424
_cell_length_c 18.4586
_cell_angle_alpha 81.349800
_cell_angle_beta 90.258500
_cell_angle_gamma 87.411500
loop_
  _atom_site_label
  _atom_site_type_symbol
  _atom_site_fract_x
  _atom_site_fract_y
  _atom_site_fract_z
C1 C 0.81920 0.35569 0.54677
 C2 C 0.81959 0.33723 0.47507
 C3 C 0.79981 0.26890 0.46385
 N4 N 0.78720 0.24621 0.52646
 C5 C 0.79913 0.29885 0.57740
 C6 C 0.79407 0.22571 0.39706
 C7 C 0.77055 0.19232 0.38160
 C8 C 0.76433 0.12796 0.32478
 C9 C 0.74000 0.12509 0.32394
 C10 C 0.73187 0.18086 0.38298
 N11 N 0.75059 0.22273 0.41753
 C12 C 0.70766 0.19287 0.40281
 C13 C 0.70015 0.20382 0.47493
 C14 C 0.67679 0.19313 0.49782
 C15 C 0.67691 0.19575 0.57142
 C16 C 0.70030 0.21130 0.59210
 N17 N 0.71455 0.21265 0.53285
 C18 C 0.70812 0.21309 0.66578
 C19 C 0.73259 0.21780 0.68581
 C20 C 0.74150 0.20258 0.75726
 C21 C 0.76548 0.21908 0.75316
 C22 C 0.77072 0.25021 0.67970
 N23 N 0.75065 0.24911 0.63901
 C24 C 0.79323 0.28782 0.65262
 H25 H 0.83245 0.40417 0.57331
 H26 H 0.83295 0.37072 0.43568
 H27 H 0.74909 0.28297 0.58345
 H28 H 0.77601 0.08732 0.28711
 H29 H 0.72979 0.08411 0.28444
 H30 H 0.66129 0.17761 0.46592
 H31 H 0.66143 0.18148 0.60569
 H32 H 0.77746 0.21237 0.79974
 H33 H 0.74947 0.28014 0.45838
 H34 H 0.73204 0.18562 0.80826
 C35 C 0.31633 0.93448 0.42949
 C36 C 0.31596 0.93226 0.50383
 C37 C 0.29624 0.86574 0.52934
 N38 N 0.28447 0.82775 0.47299
 C39 C 0.29686 0.86910 0.41202
 C40 C 0.29033 0.83403 0.60421
 C41 C 0.26691 0.80284 0.62632
 C42 C 0.26044 0.74760 0.69608
 C43 C 0.23619 0.73374 0.69421
 C44 C 0.22863 0.77934 0.62326
 N45 N 0.24732 0.82245 0.58249
 C46 C 0.20492 0.78368 0.59768
 C47 C 0.19891 0.79644 0.52277
 C48 C 0.17596 0.82011 0.49524
 C49 C 0.17682 0.80445 0.42325
 C50 C 0.20034 0.77091 0.40880
 N51 N 0.21385 0.76668 0.47007
 C52 C 0.20896 0.73792 0.34156
 C53 C 0.23367 0.73446 0.32651
 C54 C 0.24447 0.67795 0.27123
 C55 C 0.26805 0.70891 0.27009
 C56 C 0.27103 0.78093 0.32571
 N57 N 0.25011 0.79602 0.35981
 C58 C 0.29236 0.83574 0.34231
 H59 H 0.32968 0.97691 0.39266
 H60 H 0.32885 0.97379 0.53575
 H61 H 0.24679 0.85760 0.39784
 H62 H 0.27195 0.71906 0.74335
 H63 H 0.22542 0.69322 0.73955
 H64 H 0.16011 0.84360 0.52450
 H65 H 0.16160 0.81641 0.38653
 H66 H 0.28147 0.68120 0.23293
 H67 H 0.24632 0.87129 0.52917
 H68 H 0.23622 0.62155 0.23483
 C69 C 0.31475 0.45777 -0.46919
 C70 C 0.31457 0.44533 -0.54207
 C71 C 0.29622 0.36624 -0.55213
 N72 N 0.28461 0.33449 -0.48872
 C73 C 0.29604 0.38947 -0.43811
 C74 C 0.29176 0.31263 -0.61623
 C75 C 0.26903 0.26498 -0.62783
 C76 C 0.26411 0.18275 -0.67676
 C77 C 0.23996 0.17103 -0.67695
 C78 C 0.23060 0.23923 -0.62407
 N79 N 0.24856 0.29729 -0.59503
 C80 C 0.20598 0.25762 -0.60801
 C81 C 0.19888 0.29914 -0.54113
 C82 C 0.17597 0.33812 -0.52345
 C83 C 0.17640 0.35193 -0.45096
 C84 C 0.19919 0.31525 -0.42471
 N85 N 0.21299 0.28520 -0.48028
 C86 C 0.20672 0.30184 -0.34990
 C87 C 0.23126 0.29333 -0.33134
 C88 C 0.24100 0.24158 -0.26348
 C89 C 0.26503 0.26043 -0.26695
 C90 C 0.26928 0.32114 -0.33708
 N91 N 0.24870 0.34012 -0.37621
 C92 C 0.29144 0.36391 -0.36287
 H93 H 0.32743 0.50862 -0.44185
 H94 H 0.32704 0.48597 -0.58247
 H95 H 0.24635 0.39388 -0.42807
 H96 H 0.27648 0.13680 -0.71015
 H97 H 0.23087 0.11923 -0.71382
 H98 H 0.16012 0.35328 -0.55727
 H99 H 0.16132 0.38339 -0.42102
 H100 H 0.27789 0.23249 -0.22300
 H101 H 0.24656 0.36582 -0.56037
 H102 H 0.23175 0.19529 -0.21624
 C103 C -0.17915 0.87534 -0.50798
 C104 C -0.17922 0.85868 -0.58001
 C105 C -0.20075 0.80664 -0.59350
 N106 N -0.21362 0.79055 -0.53134
 C107 C -0.20042 0.83132 -0.47897
 C108 C -0.20626 0.74990 -0.65592
 C109 C -0.22930 0.70592 -0.66727
 C110 C -0.23525 0.63291 -0.72064
 C111 C -0.25945 0.62010 -0.71754
 C112 C -0.26775 0.68730 -0.66338
 N113 N -0.24936 0.73901 -0.63291
 C114 C -0.29198 0.70742 -0.64627
 C115 C -0.29843 0.73646 -0.57617
 C116 C -0.31999 0.79373 -0.55945
 C117 C -0.31904 0.80406 -0.48672
 C118 C -0.29715 0.75055 -0.46057
 N119 N -0.28428 0.71154 -0.51559
 C120 C -0.28976 0.73260 -0.38611
 C121 C -0.26515 0.72934 -0.36784
 C122 C -0.25494 0.67893 -0.30051
 C123 C -0.23098 0.70091 -0.30528
 C124 C -0.22712 0.76180 -0.37575
 N125 N -0.24804 0.77938 -0.41340
 C126 C -0.20476 0.80112 -0.40335
 H127 H -0.16432 0.90719 -0.47908
 H128 H -0.16424 0.87579 -0.61595
 H129 H -0.25087 0.83129 -0.46554
 H130 H -0.22361 0.59557 -0.75960
 H131 H -0.26983 0.56913 -0.75214
 H132 H -0.33473 0.82802 -0.59600
 H133 H -0.33287 0.84707 -0.45654
 H134 H -0.21788 0.67454 -0.26188
 H135 H -0.25104 0.80505 -0.59670
 H136 H -0.26377 0.63064 -0.25298
 N137 N 0.02697 1.23148 -0.04465
 N138 N 0.04782 1.28376 -0.04013
 N139 N -0.02310 1.18954 -0.10514
 N140 N -0.04278 1.21391 -0.14385
 N141 N -0.02405 1.24457 -0.04611
 N142 N -0.04501 1.30660 -0.04314
 N143 N 0.02620 1.17570 -0.10344
 N144 N 0.04603 1.18995 -0.14038
 C145 C 0.05936 1.25821 -0.10117
 C146 C -0.05633 1.28750 -0.10554
 N147 N -0.02411 0.81857 -0.09019
 N148 N -0.04232 0.75368 -0.10647
 N149 N 0.02627 0.91700 -0.13001
 N150 N 0.04549 0.92523 -0.17106
 N151 N 0.02580 0.80431 -0.09008
 N152 N 0.04443 0.73192 -0.10377
 N153 N -0.02439 0.93072 -0.13111
 N154 N -0.04320 0.94605 -0.17558
 Mn155 Mn 0.00126 1.05378 -0.11808
 C156 C -0.05415 0.83436 -0.15955
 C157 C 0.05654 0.80874 -0.15432
 N158 N -0.02375 1.15671 0.10924
 N159 N -0.04465 1.21728 0.11345
 N160 N 0.02693 1.03257 0.15166
 N161 N 0.04726 1.00703 0.18768
 N162 N 0.02690 1.14530 0.11127
 N163 N 0.04734 1.19927 0.11937
 N164 N -0.02318 1.04610 0.15203
 N165 N -0.04346 1.03044 0.18746
 Mn166 Mn 0.00151 1.19645 0.03292
 C167 C -0.05656 1.13826 0.16343
 C168 C 0.05971 1.11211 0.16801
 N169 N 0.02669 0.71910 0.06471
 N170 N 0.04761 0.66087 0.05694
 N171 N -0.02335 0.78822 0.12417
 N172 N -0.04336 0.77419 0.16065
 N173 N -0.02399 0.73230 0.06543
 N174 N -0.04460 0.67816 0.06088
 N175 N 0.02664 0.77240 0.12451
 N176 N 0.04723 0.74837 0.15957
 Mn177 Mn 0.00106 0.76721 -0.01262
 Mn178 Mn 0.00180 0.90934 0.13887
 Cl179 Cl 0.00142 0.98186 0.01026
 C180 C 0.06000 0.67702 0.11758
 C181 C -0.05625 0.70430 0.12135
 N182 N 0.52478 0.35728 -0.11578
 N183 N 0.54523 0.35294 -0.14988
 N184 N 0.47421 0.28739 -0.05974
 N185 N 0.45299 0.23782 -0.05435
 N186 N 0.47508 0.37168 -0.11939
 N187 N 0.45489 0.37869 -0.15652
 N188 N 0.52502 0.27203 -0.05632
 N189 N 0.54591 0.20853 -0.04856
 C190 C 0.55819 0.25943 -0.10803
 C191 C 0.44146 0.29308 -0.11638
 N192 N 0.47409 0.38140 0.13723
 N193 N 0.45436 0.38107 0.17582
 N194 N 0.52435 0.27769 0.09931
 N195 N 0.54429 0.20632 0.11010
 N196 N 0.52419 0.36836 0.14032
 N197 N 0.54402 0.36173 0.17943
 N198 N 0.47405 0.29239 0.09514
 N199 N 0.45416 0.23066 0.10309
 Mn200 Mn 0.49943 0.28060 0.01980
 C201 C 0.44228 0.28536 0.15456
 C202 C 0.55629 0.25968 0.16063
 N203 N 0.47540 0.64534 -0.14607
 N204 N 0.45507 0.64992 -0.18259
 N205 N 0.52612 0.71823 -0.10142
 N206 N 0.54681 0.77337 -0.10780
 N207 N 0.52552 0.62954 -0.14363
 N208 N 0.54555 0.62342 -0.18025
 N209 N 0.47532 0.73487 -0.10419
 N210 N 0.45474 0.80120 -0.11072
 Mn211 Mn 0.50017 0.50091 -0.13187
 C212 C 0.44242 0.74817 -0.16063
 C213 C 0.55864 0.71423 -0.15803
 N214 N 0.52455 0.64050 0.11379
 N215 N 0.54429 0.63645 0.15294
 N216 N 0.47496 0.74230 0.05104
 N217 N 0.45534 0.81700 0.04775
 N218 N 0.47475 0.65533 0.10960
 N219 N 0.45530 0.66888 0.14761
 N220 N 0.52565 0.72484 0.05425
 N221 N 0.54647 0.77883 0.05127
 Mn222 Mn 0.49934 0.51151 0.12595
 Mn223 Mn 0.50055 0.73202 -0.02555
 Cl224 Cl 0.49985 0.50633 -0.00284
 C225 C 0.55775 0.72376 0.11398
 C226 C 0.44337 0.77042 0.10898
 C227 C 0.35253 0.25940 0.30980
 C228 C 0.34760 0.27104 0.23612
 C229 C 0.32478 0.29926 0.20728
 C230 C 0.30632 0.31616 0.25648
 C231 C 0.31062 0.29912 0.33366
 C232 C 0.33435 0.26852 0.35978
 O233 O 0.37563 0.24664 0.32569
 C234 C 0.38556 0.24984 0.26051
 C235 C 0.36918 0.26166 0.20390
 C236 C 0.37580 0.26886 0.13092
 C237 C 0.40026 0.26686 0.11578
 C238 C 0.41730 0.26354 0.17293
 C239 C 0.40989 0.25286 0.24637
 H240 H 0.32144 0.31289 0.14877
 H241 H 0.28878 0.34588 0.23398
 H242 H 0.33872 0.25151 0.41770
 H243 H 0.36264 0.27759 0.08722
 H244 H 0.40593 0.27421 0.05947
 H245 H 0.42262 0.25105 0.29077
 C246 C -0.15246 0.76438 0.22701
 C247 C -0.14668 0.63656 0.23122
 C248 C -0.16016 0.54343 0.26965
 C249 C -0.18069 0.58286 0.30420
 C250 C -0.18726 0.71413 0.30066
 C251 C -0.17299 0.80619 0.26042
 O252 O -0.13590 0.83727 0.19420
 C253 C -0.11946 0.75324 0.17704
 C254 C -0.12533 0.62913 0.19782
 C255 C -0.11016 0.52581 0.18860
 C256 C -0.08788 0.55109 0.15700
 C257 C -0.08110 0.67811 0.13825
 C258 C -0.09718 0.78065 0.14752
 H259 H -0.15438 0.44442 0.27580
 H260 H -0.19095 0.51149 0.33657
 H261 H -0.17726 0.90708 0.25771
 H262 H -0.11497 0.42959 0.20770
 H263 H -0.07540 0.47242 0.15158
 H264 H -0.09205 0.87854 0.13530
 C265 C 0.64969 0.66697 0.26568
 C266 C 0.65328 0.72861 0.19590
 C267 C 0.67514 0.77566 0.17327
 C268 C 0.69377 0.76244 0.22538
 C269 C 0.69022 0.70420 0.29914
 C270 C 0.66792 0.65158 0.31791
 O271 O 0.62734 0.63614 0.27795
 C272 C 0.61647 0.68047 0.21485
 C273 C 0.63146 0.73817 0.16261
 C274 C 0.62317 0.80027 0.09470
 C275 C 0.59859 0.79996 0.07981
 C276 C 0.58303 0.73702 0.13203
 C277 C 0.59219 0.67802 0.20083
 H278 H 0.67750 0.82589 0.11846
 H279 H 0.71036 0.80609 0.20940
 H280 H 0.66451 0.60374 0.37266
 H281 H 0.63511 0.84869 0.05515
 H282 H 0.59170 0.84754 0.02775
 H283 H 0.58072 0.63155 0.24261
 C284 C 0.15133 1.25178 0.27571
 C285 C 0.15300 1.12770 0.26405
 C286 C 0.17174 1.04466 0.29037
 C287 C 0.18913 1.08891 0.33340
 C288 C 0.18842 1.21721 0.34601
 C289 C 0.16925 1.29990 0.31511
 O290 O 0.13073 1.31093 0.25207
 C291 C 0.11914 1.22086 0.22574
 C292 C 0.13218 1.10714 0.23186
 C293 C 0.12298 0.99590 0.21548
 C294 C 0.09921 1.00105 0.19249
 C295 C 0.08516 1.11629 0.18604
 C296 C 0.09538 1.22900 0.20123
 H297 H 0.17225 0.94754 0.28062
 H298 H 0.20283 1.02204 0.35896
 H299 H 0.16799 1.39743 0.32326
 H300 H 0.13348 0.90725 0.22293
 H301 H 0.09157 0.91442 0.18099
 H302 H 0.08481 1.31728 0.19848
 C303 C 0.65230 0.28186 -0.23781
 C304 C 0.65343 0.18568 -0.17898
 C305 C 0.67281 0.09951 -0.16606
 C306 C 0.69122 0.10923 -0.21765
 C307 C 0.69059 0.20849 -0.27881
 C308 C 0.67100 0.29836 -0.28688
 O309 O 0.63138 0.34487 -0.24540
 C310 C 0.61898 0.28698 -0.19038
 C311 C 0.63164 0.18987 -0.14726
 C312 C 0.62146 0.11346 -0.08858
 C313 C 0.59715 0.13668 -0.07498
 C314 C 0.58371 0.23402 -0.12042
 C315 C 0.59498 0.31087 -0.17821
 H316 H 0.67315 0.02370 -0.11990
 H317 H 0.70545 0.03629 -0.21149
 H318 H 0.66967 0.37464 -0.33293
 H319 H 0.63179 0.03826 -0.05488
 H320 H 0.58880 0.07840 -0.02991
 H321 H 0.58525 0.38575 -0.21406
 C322 C 0.15146 0.81419 -0.28260
 C323 C 0.14308 0.69396 -0.27968
 C324 C 0.15496 0.59868 -0.31083
 C325 C 0.17647 0.62774 -0.34594
 C326 C 0.18544 0.75062 -0.35029
 C327 C 0.17293 0.84530 -0.31751
 O328 O 0.13639 0.89334 -0.25458
 C329 C 0.11824 0.82109 -0.23337
 C330 C 0.12154 0.69819 -0.24721
 C331 C 0.10453 0.60741 -0.23143
 C332 C 0.08333 0.64413 -0.19893
 C333 C 0.07928 0.77090 -0.18558
 C334 C 0.09701 0.86049 -0.20291
 H335 H 0.14745 0.50701 -0.31073
 H336 H 0.18563 0.55732 -0.37347
 H337 H 0.17896 0.94143 -0.32306
 H338 H 0.10738 0.51210 -0.24421
 H339 H 0.06984 0.57490 -0.18592
 H340 H 0.09438 0.95736 -0.19263
 C341 C 0.34934 0.76647 -0.30414
 C342 C 0.34708 0.83704 -0.24778
 C343 C 0.32588 0.90251 -0.23461
 C344 C 0.30644 0.89661 -0.28226
 C345 C 0.30877 0.82883 -0.34285
 C346 C 0.33057 0.76141 -0.35265
 O347 O 0.37093 0.71300 -0.30862
 C348 C 0.38274 0.75159 -0.25439
 C349 C 0.36911 0.82853 -0.21559
 C350 C 0.37855 0.88477 -0.15902
 C351 C 0.40291 0.85984 -0.14170
 C352 C 0.41714 0.77939 -0.18063
 C353 C 0.40675 0.72438 -0.23753
 H354 H 0.32447 0.95781 -0.19007
 H355 H 0.29005 0.95014 -0.27429
 H356 H 0.33298 0.70804 -0.39780
 H357 H 0.36765 0.94658 -0.12982
 H358 H 0.41060 0.90208 -0.09772
 H359 H 0.41711 0.66294 -0.26847
 C360 C -0.14765 1.26391 -0.24826
 C361 C -0.15149 1.34390 -0.19686
 C362 C -0.17335 1.40875 -0.19132
 C363 C -0.19156 1.39124 -0.24121
 C364 C -0.18778 1.30763 -0.29387
 C365 C -0.16556 1.24169 -0.29585
 O366 O -0.12548 1.21852 -0.24956
 C367 C -0.11496 1.27030 -0.19799
 C368 C -0.12987 1.34680 -0.16283
 C369 C -0.12164 1.41008 -0.10703
 C370 C -0.09722 1.39213 -0.08695
 C371 C -0.08179 1.31498 -0.12434
 C372 C -0.09103 1.25520 -0.18091
 H373 H -0.17603 1.47353 -0.15188
 H374 H -0.20851 1.44304 -0.23936
 H375 H -0.16200 1.17769 -0.33530
 H376 H -0.13355 1.47028 -0.07985
 H377 H -0.09040 1.43814 -0.04320
 H378 H -0.07990 1.19664 -0.21146
 C379 C 0.65219 0.67227 -0.29282
 C380 C 0.65460 0.73767 -0.23480
 C381 C 0.67584 0.79020 -0.21887
 C382 C 0.69486 0.78308 -0.26750
 C383 C 0.69253 0.72221 -0.33064
 C384 C 0.67102 0.66047 -0.34050
 O385 O 0.63027 0.63441 -0.30078
 C386 C 0.61847 0.67858 -0.24710
 C387 C 0.63248 0.74313 -0.20530
 C388 C 0.62325 0.80561 -0.14990
 C389 C 0.59867 0.79985 -0.13649
 C390 C 0.58401 0.73001 -0.17708
 C391 C 0.59414 0.66930 -0.23361
 H392 H 0.67746 0.83851 -0.17189
 H393 H 0.71072 0.83281 -0.25835
 H394 H 0.66851 0.60982 -0.38642
 H395 H 0.63456 0.85784 -0.11876
 H396 H 0.59109 0.84875 -0.09430
 H397 H 0.58339 0.61718 -0.26662
 C398 C 0.15078 1.23935 -0.24597
 C399 C 0.15389 1.30613 -0.18858
 C400 C 0.17482 1.36683 -0.17885
 C401 C 0.19275 1.36171 -0.23157
 C402 C 0.18960 1.29612 -0.29285
 C403 C 0.16849 1.22973 -0.29729
 O404 O 0.12911 1.19744 -0.24993
 C405 C 0.11820 1.23887 -0.19416
 C406 C 0.13243 1.30503 -0.15397
 C407 C 0.12369 1.36108 -0.09501
 C408 C 0.09946 1.34663 -0.07677
 C409 C 0.08462 1.27965 -0.11865
 C410 C 0.09431 1.22660 -0.17836
 H411 H 0.17682 1.42141 -0.13442
 H412 H 0.20839 1.41592 -0.22699
 H413 H 0.16545 1.17504 -0.34111
 H414 H 0.13502 1.41471 -0.06463
 H415 H 0.09227 1.38809 -0.03095
 H416 H 0.08350 1.17721 -0.21265
 C417 C 0.35020 0.29351 -0.26261
 C418 C 0.34779 0.37050 -0.20924
 C419 C 0.32763 0.44949 -0.20387
 C420 C 0.30908 0.44738 -0.25494
 C421 C 0.31120 0.36809 -0.30999
 C422 C 0.33206 0.29017 -0.31375
 O423 O 0.37119 0.23077 -0.26077
 C424 C 0.38233 0.26866 -0.20496
 C425 C 0.36875 0.35363 -0.17123
 C426 C 0.37746 0.41067 -0.11410
 C427 C 0.40128 0.38140 -0.09228
 C428 C 0.41565 0.29619 -0.12733
 C429 C 0.40600 0.23808 -0.18392
 H430 H 0.32628 0.51098 -0.16224
 H431 H 0.29313 0.50722 -0.25200
 H432 H 0.33406 0.22895 -0.35541
 H433 H 0.36666 0.47925 -0.08940
 H434 H 0.40898 0.43078 -0.05126
 H435 H 0.41700 0.17727 -0.21354
 C436 C -0.14904 0.84435 -0.29513
 C437 C -0.13875 0.72349 -0.29017
 C438 C -0.14970 0.62491 -0.31647
 C439 C -0.17230 0.65118 -0.34879
 C440 C -0.18332 0.77450 -0.35531
 C441 C -0.17164 0.87283 -0.32763
 O442 O -0.13493 0.92516 -0.26956
 C443 C -0.11544 0.85324 -0.24779
 C444 C -0.11701 0.72908 -0.25907
 C445 C -0.09879 0.63701 -0.24048
 C446 C -0.07823 0.67351 -0.20744
 C447 C -0.07593 0.80107 -0.19584
 C448 C -0.09476 0.89259 -0.21682
 H449 H -0.14084 0.53212 -0.31424
 H450 H -0.18096 0.57729 -0.37175
 H451 H -0.17945 0.96873 -0.33438
 H452 H -0.10042 0.54025 -0.25060
 H453 H -0.06396 0.60270 -0.19155
 H454 H -0.09358 0.98994 -0.20763
 C455 C 0.35219 0.79068 0.25683
 C456 C 0.35064 0.88222 0.19552
 C457 C 0.32991 0.95742 0.17695
 C458 C 0.31029 0.93851 0.22402
 C459 C 0.31190 0.84648 0.28819
 C460 C 0.33307 0.77081 0.30408
 O461 O 0.37322 0.72896 0.26535
 C462 C 0.38532 0.78236 0.20837
 C463 C 0.37250 0.87705 0.16374
 C464 C 0.38219 0.94464 0.10093
 C465 C 0.40586 0.91176 0.08332
 C466 C 0.41913 0.81293 0.12842
 C467 C 0.40861 0.74870 0.19206
 H468 H 0.32896 1.02881 0.12854
 H469 H 0.29412 0.99714 0.21162
 H470 H 0.33477 0.70083 0.35308
 H471 H 0.37189 1.01919 0.06648
 H472 H 0.41367 0.96179 0.03438
 H473 H 0.41812 0.67251 0.22768
 C474 C -0.14706 1.15265 0.31612
 C475 C -0.15150 1.19595 0.24315
 C476 C -0.17355 1.24904 0.21726
 C477 C -0.19164 1.25900 0.26874
 C478 C -0.18762 1.21486 0.34486
 C479 C -0.16476 1.16084 0.36800
 O480 O -0.12459 1.11274 0.33037
 C481 C -0.11448 1.13296 0.26514
 C482 C -0.13013 1.18408 0.20976
 C483 C -0.12277 1.22296 0.13824
 C484 C -0.09831 1.20963 0.12364
 C485 C -0.08199 1.15583 0.17987
 C486 C -0.09028 1.11522 0.25126
 H487 H -0.17650 1.28556 0.15983
 H488 H -0.20852 1.30562 0.24950
 H489 H -0.16077 1.12587 0.42510
 H490 H -0.13525 1.26584 0.09583
 H491 H -0.09210 1.24011 0.06863
 H492 H -0.07810 1.07522 0.29523
 C493 C 0.65171 0.25997 0.28714
 C494 C 0.64871 0.14244 0.26694
 C495 C 0.66516 0.04112 0.28437
 C496 C 0.68533 0.06058 0.32555
 C497 C 0.68876 0.18008 0.34788
 C498 C 0.67191 0.28223 0.32677
 O499 O 0.63303 0.34012 0.27045
 C500 C 0.61798 0.27146 0.23903
 C501 C 0.62677 0.15011 0.23517
 C502 C 0.61358 0.06065 0.20703
 C503 C 0.59043 0.09798 0.18102
 C504 C 0.58082 0.22179 0.18577
 C505 C 0.59487 0.30968 0.21504
 H506 H 0.66193 -0.05104 0.26982
 H507 H 0.69786 -0.01831 0.34247
 H508 H 0.67372 0.37320 0.34521
 H509 H 0.62079 -0.03469 0.20611
 H510 H 0.57982 0.02997 0.15884
 H511 H 0.58797 0.40471 0.21945
 C512 C 0.15312 0.63450 0.25572
 C513 C 0.15581 0.68428 0.18329
 C514 C 0.17595 0.74817 0.15807
 C515 C 0.19374 0.76234 0.20979
 C516 C 0.19152 0.70951 0.28493
 C517 C 0.17117 0.64051 0.30675
 O518 O 0.13147 0.59462 0.27130
 C519 C 0.12015 0.61925 0.20728
 C520 C 0.13433 0.67189 0.15109
 C521 C 0.12549 0.71271 0.08045
 C522 C 0.10100 0.70207 0.06793
 C523 C 0.08593 0.65537 0.12633
 C524 C 0.09575 0.61085 0.19644
 H525 H 0.17730 0.79198 0.10149
 H526 H 0.20867 0.81950 0.19188
 H527 H 0.16870 0.59891 0.36328
 H528 H 0.13683 0.75575 0.03728
 H529 H 0.09350 0.73895 0.01436
 H530 H 0.08447 0.57849 0.24228
   
