data_POSCAR
  _audit_creation_date              2014-09-24
  _audit_creation_method            'ToBaCCo'
  _symmetry_space_group_name_H-M    'P1'
  _symmetry_Int_Tables_number       1
  _symmetry_cell_setting            triclinic
  loop_
  _symmetry_equiv_pos_as_xyz
 x,y,z
_cell_length_a 35.3909
_cell_length_b 36.3510
_cell_length_c 35.0159
_cell_angle_alpha 89.145900
_cell_angle_beta 93.187600
_cell_angle_gamma 93.825500
loop_
  _atom_site_label
  _atom_site_type_symbol
  _atom_site_fract_x
  _atom_site_fract_y
  _atom_site_fract_z
Si1 Si 1.26829 0.27733 0.28109
 Si2 Si 0.75313 -0.22768 0.25867
 Si3 Si 0.73523 0.24205 -0.24376
 Si4 Si 1.22989 -0.25469 -0.22770
 Si5 Si 0.26189 0.24888 0.72059
 Si6 Si 0.76993 0.75266 0.74002
 Si7 Si 0.73793 0.21952 0.24088
 Si8 Si 0.23692 0.72203 0.22263
 N9 N 1.09323 0.05673 0.04365
 N10 N 1.12311 0.08032 0.04869
 N11 N 1.05815 -0.01551 0.07727
 N12 N 1.06145 -0.04033 0.10478
 N13 N 1.08176 -0.02064 0.05055
 N14 N 1.10209 -0.04915 0.05944
 N15 N 1.06885 0.06120 0.06981
 N16 N 1.08168 0.08734 0.09375
 C17 C 1.11530 0.09938 0.07996
 C18 C 1.08881 -0.06125 0.09340
 N19 N 0.94979 -0.01149 0.05343
 N20 N 0.92315 -0.03620 0.06448
 N21 N 0.98780 0.06701 0.07125
 N22 N 0.98355 0.09200 0.09741
 N23 N 0.95892 0.06581 0.04594
 N24 N 0.93450 0.08996 0.05421
 N25 N 0.97864 -0.00982 0.07870
 N26 N 0.97289 -0.03320 0.10701
 Mn27 Mn 1.02341 0.02596 0.07442
 C28 C 0.93841 -0.04971 0.09799
 C29 C 0.95049 0.10659 0.08600
 N30 N 1.07524 -0.02592 -0.03258
 N31 N 1.09633 -0.05356 -0.03959
 N32 N 1.05839 0.05213 -0.06395
 N33 N 1.06687 0.07710 -0.09057
 N34 N 1.08630 0.05115 -0.03771
 N35 N 1.11401 0.07570 -0.04516
 N36 N 1.04663 -0.02501 -0.05804
 N37 N 1.04689 -0.05222 -0.08236
 Mn38 Mn 1.08456 0.01509 0.00596
 C39 C 1.07778 -0.06999 -0.07047
 C40 C 1.10160 0.09177 -0.07811
 N41 N 0.95203 0.06040 -0.03618
 N42 N 0.92839 0.08607 -0.04583
 N43 N 0.96649 -0.01956 -0.05678
 N44 N 0.95280 -0.04373 -0.08261
 N45 N 0.94232 -0.01653 -0.03000
 N46 N 0.91116 -0.03782 -0.03759
 N47 N 0.97686 0.05789 -0.06242
 N48 N 0.97082 0.08179 -0.09045
 Mn49 Mn 0.95034 0.02439 0.00833
 Mn50 Mn 1.01210 0.01651 -0.06067
 Cl51 Cl 1.01756 0.02049 0.00694
 C52 C 0.94076 0.09950 -0.07958
 C53 C 0.91856 -0.05532 -0.06995
 N54 N 1.05724 0.52550 0.53818
 N55 N 1.08543 0.55095 0.54295
 N56 N 1.01639 0.45165 0.56531
 N57 N 1.02264 0.42900 0.59458
 N58 N 1.04200 0.44872 0.53995
 N59 N 1.06605 0.42412 0.55121
 N60 N 1.03231 0.52844 0.56409
 N61 N 1.04279 0.55596 0.58728
 C62 C 1.07599 0.56975 0.57373
 C63 C 1.05338 0.41153 0.58496
 N64 N 0.90900 0.46832 0.53424
 N65 N 0.87693 0.45009 0.54265
 N66 N 0.95337 0.54011 0.56024
 N67 N 0.95463 0.56751 0.58460
 N68 N 0.92732 0.54450 0.53267
 N69 N 0.90952 0.57466 0.53804
 N70 N 0.93563 0.46326 0.56118
 N71 N 0.92240 0.44108 0.58829
 Mn72 Mn 0.98432 0.49564 0.56307
 C73 C 0.88599 0.43257 0.57595
 C74 C 0.92729 0.58892 0.57034
 N75 N 1.04101 0.44745 0.45794
 N76 N 1.06563 0.42364 0.44932
 N77 N 1.03060 0.52638 0.42798
 N78 N 1.04211 0.55143 0.40268
 N79 N 1.05613 0.52400 0.45634
 N80 N 1.08565 0.54721 0.45127
 N81 N 1.01445 0.44953 0.43035
 N82 N 1.02049 0.42692 0.40238
 Mn83 Mn 1.04929 0.48646 0.49814
 C84 C 1.05213 0.41044 0.41502
 C85 C 1.07649 0.56433 0.41781
 N86 N 0.92618 0.54343 0.44959
 N87 N 0.90745 0.57282 0.43990
 N88 N 0.93380 0.46111 0.42721
 N89 N 0.92041 0.43654 0.40164
 N90 N 0.90797 0.46703 0.45160
 N91 N 0.87624 0.44702 0.44297
 N92 N 0.95114 0.53777 0.42428
 N93 N 0.95025 0.56307 0.39701
 Mn94 Mn 0.91723 0.50601 0.49199
 Mn95 Mn 0.98236 0.49349 0.42710
 Cl96 Cl 0.98321 0.49516 0.49506
 C97 C 0.92315 0.58499 0.40711
 C98 C 0.88470 0.42771 0.41223
 N99 N 0.55929 -0.00052 0.54191
 N100 N 0.58943 0.02262 0.54675
 N101 N 0.51297 -0.07114 0.56942
 N102 N 0.51846 -0.09263 0.59982
 N103 N 0.53830 -0.07632 0.54431
 N104 N 0.56145 -0.10121 0.55700
 N105 N 0.53468 0.00472 0.56762
 N106 N 0.54759 0.03143 0.59102
 C107 C 0.58180 0.04232 0.57755
 C108 C 0.54834 -0.11180 0.59118
 N109 N 0.40822 -0.04816 0.53595
 N110 N 0.37537 -0.06548 0.54314
 N111 N 0.45639 0.02161 0.56251
 N112 N 0.45623 0.04736 0.58860
 N113 N 0.43095 0.02712 0.53460
 N114 N 0.41245 0.05656 0.54139
 N115 N 0.43379 -0.05412 0.56366
 N116 N 0.41903 -0.07600 0.59017
 Mn117 Mn 0.48436 -0.02485 0.56614
 C118 C 0.38268 -0.08317 0.57676
 C119 C 0.42901 0.06924 0.57495
 N120 N 0.53747 -0.07882 0.46252
 N121 N 0.55791 -0.10697 0.45637
 N122 N 0.53420 0.00150 0.43158
 N123 N 0.54754 0.02632 0.40698
 N124 N 0.55897 -0.00271 0.46032
 N125 N 0.58961 0.01940 0.45646
 N126 N 0.51287 -0.07409 0.43366
 N127 N 0.51672 -0.09844 0.40671
 Mn128 Mn 0.54870 -0.03961 0.50223
 C129 C 0.54412 -0.11946 0.42187
 C130 C 0.58209 0.03730 0.42308
 N131 N 0.43104 0.02541 0.45164
 N132 N 0.41295 0.05491 0.44128
 N133 N 0.43366 -0.05737 0.42914
 N134 N 0.41927 -0.08138 0.40345
 N135 N 0.40808 -0.05006 0.45328
 N136 N 0.37548 -0.06853 0.44427
 N137 N 0.45558 0.01841 0.42632
 N138 N 0.45468 0.04288 0.39809
 Mn139 Mn 0.41924 -0.01126 0.49382
 Mn140 Mn 0.48401 -0.02798 0.42980
 Cl141 Cl 0.48399 -0.02604 0.49802
 C142 C 0.42831 0.06580 0.40801
 C143 C 0.38306 -0.08834 0.41348
 N144 N 0.55737 0.56565 0.04726
 N145 N 0.56144 0.58405 0.07939
 N146 N 0.58070 0.55325 -0.03573
 N147 N 0.60622 0.56713 -0.05910
 N148 N 0.55406 0.57616 -0.03235
 N149 N 0.56067 0.60622 -0.05302
 N150 N 0.58471 0.54346 0.04447
 N151 N 0.60889 0.54671 0.07465
 C152 C 0.59356 0.57201 0.09625
 C153 C 0.59297 0.60006 -0.07000
 N154 N 0.55500 0.44686 -0.04811
 N155 N 0.56519 0.42246 -0.07263
 N156 N 0.58513 0.46522 0.03449
 N157 N 0.61405 0.45648 0.05731
 N158 N 0.55909 0.43773 0.03193
 N159 N 0.56973 0.40956 0.05333
 N160 N 0.58101 0.47446 -0.04484
 N161 N 0.60918 0.46938 -0.06685
 Mn162 Mn 0.58318 0.50914 -0.00046
 C163 C 0.59874 0.43729 -0.08464
 C164 C 0.60391 0.42197 0.06934
 N165 N 0.47333 0.57038 -0.03276
 N166 N 0.46352 0.60050 -0.05082
 N167 N 0.44953 0.53495 0.04377
 N168 N 0.42183 0.54315 0.06559
 N169 N 0.47748 0.56052 0.04682
 N170 N 0.47004 0.58588 0.07106
 N171 N 0.44585 0.54429 -0.03586
 N172 N 0.41639 0.55645 -0.05610
 Mn173 Mn 0.51563 0.56816 0.00717
 C174 C 0.42831 0.59145 -0.06579
 C175 C 0.43566 0.57474 0.08315
 N176 N 0.47705 0.43220 0.03210
 N177 N 0.47415 0.40610 0.05860
 N178 N 0.44627 0.46515 -0.04528
 N179 N 0.41912 0.46000 -0.07239
 N180 N 0.47206 0.44102 -0.04798
 N181 N 0.46261 0.41840 -0.07673
 N182 N 0.45037 0.45540 0.03476
 N183 N 0.42847 0.44545 0.06299
 Mn184 Mn 0.51569 0.43900 -0.00812
 Mn185 Mn 0.44758 0.49971 -0.00069
 Cl186 Cl 0.51545 0.50386 -0.00071
 C187 C 0.44367 0.41464 0.07764
 C188 C 0.42973 0.43094 -0.09196
 C189 C 1.23829 0.23826 0.21502
 C190 C 1.21417 0.21157 0.19570
 C191 C 1.18816 0.18904 0.21647
 C192 C 1.18763 0.19265 0.25622
 C193 C 1.21227 0.21869 0.27523
 C194 C 1.23702 0.24216 0.25472
 C195 C 1.16323 0.16313 0.19728
 C196 C 1.16448 0.15879 0.15769
 C197 C 1.19128 0.18034 0.13698
 C198 C 1.21570 0.20694 0.15607
 C199 C 1.19323 0.17472 0.09756
 C200 C 1.16879 0.14805 0.07888
 C201 C 1.14154 0.12728 0.09919
 C202 C 1.13949 0.13287 0.13856
 H203 H 1.25806 0.25570 0.19917
 H204 H 1.16821 0.17530 0.27260
 H205 H 1.21152 0.22101 0.30598
 H206 H 1.14301 0.14618 0.21318
 H207 H 1.23597 0.22383 0.14018
 H208 H 1.21373 0.19080 0.08125
 H209 H 1.17079 0.14402 0.04849
 H210 H 1.11885 0.11651 0.15450
 C211 C 1.19362 0.71528 0.70432
 C212 C 1.16679 0.69184 0.68403
 C213 C 1.13515 0.67583 0.70269
 C214 C 1.13084 0.68362 0.74119
 C215 C 1.15845 0.70578 0.76149
 C216 C 1.18993 0.72178 0.74327
 C217 C 1.10938 0.65085 0.68320
 C218 C 1.11571 0.64042 0.64585
 C219 C 1.14728 0.65639 0.62711
 C220 C 1.17221 0.68259 0.64605
 C221 C 1.15410 0.64492 0.59020
 C222 C 1.13059 0.61701 0.57255
 C223 C 1.09953 0.60065 0.59125
 C224 C 1.09176 0.61309 0.62756
 H225 H 1.21842 0.72651 0.69030
 H226 H 1.10708 0.67118 0.75607
 H227 H 1.15602 0.70906 0.79192
 H228 H 1.08533 0.63834 0.69767
 H229 H 1.19664 0.69459 0.63183
 H230 H 1.17814 0.65686 0.57538
 H231 H 1.13690 0.60798 0.54440
 H232 H 1.06788 0.60054 0.64223
 C233 C 0.70637 0.19397 0.69586
 C234 C 0.68263 0.16486 0.68014
 C235 C 0.65875 0.14322 0.70401
 C236 C 0.65995 0.15023 0.74327
 C237 C 0.68395 0.17886 0.75867
 C238 C 0.70693 0.20128 0.73516
 C239 C 0.63376 0.11522 0.68825
 C240 C 0.63277 0.10806 0.64899
 C241 C 0.65757 0.12879 0.62527
 C242 C 0.68207 0.15731 0.64092
 C243 C 0.65747 0.12058 0.58627
 C244 C 0.63300 0.09216 0.57090
 C245 C 0.60763 0.07210 0.59406
 C246 C 0.60752 0.08026 0.63308
 H247 H 0.72356 0.21127 0.67728
 H248 H 0.64193 0.13388 0.76200
 H249 H 0.68338 0.18421 0.78886
 H250 H 0.61509 0.09903 0.70654
 H251 H 0.70067 0.17356 0.62262
 H252 H 0.67641 0.13600 0.56769
 H253 H 0.63348 0.08620 0.54071
 H254 H 0.58832 0.06449 0.65116
 C255 C 0.70066 0.71295 0.23468
 C256 C 0.68884 0.68217 0.21225
 C257 C 0.71369 0.66862 0.18625
 C258 C 0.75016 0.68549 0.18377
 C259 C 0.76153 0.71615 0.20595
 C260 C 0.73687 0.73026 0.23129
 C261 C 0.70119 0.63953 0.16193
 C262 C 0.66369 0.62469 0.16222
 C263 C 0.63913 0.63750 0.18897
 C264 C 0.65211 0.66564 0.21432
 C265 C 0.60125 0.62362 0.18827
 C266 C 0.58706 0.59973 0.15935
 C267 C 0.61081 0.58841 0.13158
 C268 C 0.64952 0.59937 0.13424
 H269 H 0.68137 0.72372 0.25394
 H270 H 0.76953 0.67561 0.16394
 H271 H 0.78940 0.72941 0.20237
 H272 H 0.72002 0.62981 0.14142
 H273 H 0.63302 0.67595 0.23424
 H274 H 0.58206 0.63297 0.20858
 H275 H 0.55703 0.59148 0.15752
 H276 H 0.66769 0.59111 0.11239
 C277 C 0.81476 -0.18393 0.22836
 C278 C 0.83198 -0.16170 0.20021
 C279 C 0.81104 -0.15281 0.16605
 C280 C 0.77347 -0.16712 0.16026
 C281 C 0.75677 -0.18962 0.18814
 C282 C 0.77707 -0.19771 0.22248
 C283 C 0.82791 -0.12971 0.13837
 C284 C 0.86560 -0.11555 0.14427
 C285 C 0.88668 -0.12530 0.17807
 C286 C 0.86977 -0.14814 0.20577
 C287 C 0.92437 -0.11175 0.18394
 C288 C 0.94090 -0.08805 0.15715
 C289 C 0.92014 -0.07716 0.12389
 C290 C 0.88251 -0.09144 0.11727
 H291 H 0.83059 -0.19032 0.25472
 H292 H 0.75700 -0.16089 0.13423
 H293 H 0.72769 -0.20047 0.18308
 H294 H 0.81168 -0.12261 0.11244
 H295 H 0.88597 -0.15517 0.23177
 H296 H 0.94101 -0.11915 0.20949
 H297 H 0.97006 -0.07778 0.16294
 H298 H 0.86631 -0.08333 0.09170
 C299 C 0.76119 0.30282 0.70934
 C300 C 0.78528 0.32068 0.68320
 C301 C 0.81390 0.30119 0.66745
 C302 C 0.81647 0.26369 0.67632
 C303 C 0.79178 0.24598 0.70150
 C304 C 0.76499 0.26564 0.71934
 C305 C 0.83950 0.31944 0.64318
 C306 C 0.83625 0.35675 0.63355
 C307 C 0.80632 0.37571 0.64759
 C308 C 0.78137 0.35772 0.67272
 C309 C 0.80199 0.41246 0.63637
 C310 C 0.82739 0.43045 0.61200
 C311 C 0.85804 0.41233 0.59931
 C312 C 0.86242 0.37547 0.61008
 H313 H 0.73983 0.31797 0.72200
 H314 H 0.83765 0.24808 0.66388
 H315 H 0.79415 0.21693 0.70770
 H316 H 0.86192 0.30463 0.63180
 H317 H 0.75899 0.37255 0.68415
 H318 H 0.77905 0.42732 0.64653
 H319 H 0.82376 0.45893 0.60388
 H320 H 0.88595 0.36141 0.59995
 C321 C 0.25505 -0.20424 0.71509
 C322 C 0.28179 -0.18679 0.69143
 C323 C 0.31960 -0.19741 0.69380
 C324 C 0.32956 -0.22633 0.71840
 C325 C 0.30255 -0.24419 0.74096
 C326 C 0.26542 -0.23276 0.74017
 C327 C 0.34686 -0.17904 0.67155
 C328 C 0.33665 -0.15075 0.64619
 C329 C 0.29849 -0.14124 0.64246
 C330 C 0.27139 -0.15899 0.66545
 C331 C 0.28814 -0.11398 0.61586
 C332 C 0.31543 -0.09591 0.59363
 C333 C 0.35362 -0.10420 0.59826
 C334 C 0.36405 -0.13178 0.62447
 H335 H 0.22621 -0.19576 0.71398
 H336 H 0.35822 -0.23526 0.72008
 H337 H 0.31108 -0.26685 0.75898
 H338 H 0.37598 -0.18680 0.67394
 H339 H 0.24228 -0.15122 0.66309
 H340 H 0.25900 -0.10652 0.61236
 H341 H 0.30686 -0.07466 0.57358
 H342 H 0.39344 -0.13855 0.62782
 C343 C 0.33067 0.30712 0.23841
 C344 C 0.34649 0.32991 0.20969
 C345 C 0.32385 0.35535 0.18966
 C346 C 0.28589 0.35732 0.19825
 C347 C 0.27023 0.33397 0.22596
 C348 C 0.29234 0.30882 0.24622
 C349 C 0.33921 0.37800 0.16087
 C350 C 0.37667 0.37496 0.15093
 C351 C 0.39926 0.34920 0.17042
 C352 C 0.38420 0.32719 0.20003
 C353 C 0.43636 0.34555 0.15951
 C354 C 0.45075 0.36686 0.12934
 C355 C 0.42859 0.39266 0.10998
 C356 C 0.39164 0.39682 0.12123
 H357 H 0.34786 0.28772 0.25388
 H358 H 0.26811 0.37648 0.18307
 H359 H 0.24054 0.33543 0.23138
 H360 H 0.32176 0.39750 0.14569
 H361 H 0.40156 0.30750 0.21500
 H362 H 0.45409 0.32592 0.17399
 H363 H 0.47935 0.36325 0.12124
 H364 H 0.37422 0.41645 0.10627
 C365 C 0.80438 0.22120 -0.20537
 C366 C 0.82532 0.20253 -0.17686
 C367 C 0.80748 0.18877 -0.14396
 C368 C 0.76930 0.19513 -0.13965
 C369 C 0.74848 0.21300 -0.16866
 C370 C 0.76543 0.22493 -0.20237
 C371 C 0.82777 0.16806 -0.11657
 C372 C 0.86535 0.16008 -0.12226
 C373 C 0.88330 0.17448 -0.15490
 C374 C 0.86339 0.19606 -0.18163
 C375 C 0.92052 0.16601 -0.16100
 C376 C 0.93938 0.14237 -0.13586
 C377 C 0.92163 0.12715 -0.10382
 C378 C 0.88486 0.13684 -0.09664
 H379 H 0.81844 0.23148 -0.23026
 H380 H 0.75524 0.18535 -0.11437
 H381 H 0.71889 0.21694 -0.16493
 H382 H 0.81391 0.15710 -0.09158
 H383 H 0.87708 0.20660 -0.20690
 H384 H 0.93471 0.17689 -0.18580
 H385 H 0.96775 0.13551 -0.14185
 H386 H 0.87087 0.12516 -0.07205
 C387 C 0.81704 0.73639 0.28822
 C388 C 0.83635 0.71521 0.31578
 C389 C 0.82514 0.71406 0.35392
 C390 C 0.79651 0.73632 0.36424
 C391 C 0.77722 0.75714 0.33641
 C392 C 0.78608 0.75579 0.29790
 C393 C 0.84168 0.68972 0.38056
 C394 C 0.86902 0.66632 0.36930
 C395 C 0.88150 0.66910 0.33158
 C396 C 0.86528 0.69363 0.30521
 C397 C 0.90918 0.64640 0.32033
 C398 C 0.92335 0.62006 0.34558
 C399 C 0.91001 0.61563 0.38255
 C400 C 0.88332 0.63942 0.39460
 H401 H 0.82487 0.73602 0.25882
 H402 H 0.78802 0.73648 0.39348
 H403 H 0.75440 0.77291 0.34498
 H404 H 0.83236 0.68808 0.40956
 H405 H 0.87415 0.69485 0.27602
 H406 H 0.91927 0.64843 0.29167
 H407 H 0.94409 0.60234 0.33563
 H408 H 0.87313 0.63647 0.42318
 C409 C 0.32390 0.22575 0.29969
 C410 C 0.34302 0.20136 0.32437
 C411 C 0.33698 0.20125 0.36399
 C412 C 0.31306 0.22623 0.37838
 C413 C 0.29425 0.25028 0.35371
 C414 C 0.29928 0.25018 0.31423
 C415 C 0.35391 0.17543 0.38845
 C416 C 0.37687 0.14958 0.37391
 C417 C 0.38414 0.15049 0.33457
 C418 C 0.36713 0.17633 0.31003
 C419 C 0.40774 0.12501 0.32035
 C420 C 0.42308 0.09824 0.34458
 C421 C 0.41479 0.09619 0.38337
 C422 C 0.39206 0.12234 0.39797
 H423 H 0.32702 0.22472 0.26912
 H424 H 0.30799 0.22642 0.40861
 H425 H 0.27452 0.26774 0.36568
 H426 H 0.34858 0.17497 0.41867
 H427 H 0.37210 0.17651 0.27974
 H428 H 0.41387 0.12542 0.29036
 H429 H 0.44058 0.07844 0.33267
 H430 H 0.38579 0.12118 0.42794
 C431 C 0.28413 0.71864 -0.17338
 C432 C 0.30437 0.69139 -0.15442
 C433 C 0.29151 0.65387 -0.15790
 C434 C 0.25848 0.64438 -0.18047
 C435 C 0.23931 0.67167 -0.20048
 C436 C 0.25217 0.70901 -0.19738
 C437 C 0.31257 0.62649 -0.13991
 C438 C 0.34703 0.63620 -0.11966
 C439 C 0.35992 0.67384 -0.11671
 C440 C 0.33822 0.70114 -0.13348
 C441 C 0.39475 0.68368 -0.09764
 C442 C 0.41688 0.65657 -0.08177
 C443 C 0.40438 0.61908 -0.08409
 C444 C 0.36924 0.60898 -0.10288
 H445 H 0.29488 0.74708 -0.17137
 H446 H 0.24823 0.61578 -0.18372
 H447 H 0.21513 0.66307 -0.21912
 H448 H 0.30273 0.59769 -0.14259
 H449 H 0.34827 0.72993 -0.13119
 H450 H 0.40506 0.71235 -0.09525
 H451 H 0.44376 0.66513 -0.06723
 H452 H 0.35950 0.58012 -0.10486
 C453 C 1.17566 -0.21196 -0.19423
 C454 C 1.16410 -0.18611 -0.16869
 C455 C 1.19153 -0.16474 -0.14619
 C456 C 1.23012 -0.16934 -0.15015
 C457 C 1.24131 -0.19549 -0.17537
 C458 C 1.21421 -0.21776 -0.19674
 C459 C 1.17994 -0.13891 -0.12054
 C460 C 1.14122 -0.13403 -0.11733
 C461 C 1.11389 -0.15549 -0.13997
 C462 C 1.12548 -0.18142 -0.16532
 C463 C 1.07530 -0.15022 -0.13745
 C464 C 1.06384 -0.12312 -0.11373
 C465 C 1.09063 -0.10124 -0.09152
 C466 C 1.12933 -0.10732 -0.09273
 H467 H 1.15444 -0.22734 -0.21195
 H468 H 1.25164 -0.15276 -0.13373
 H469 H 1.27125 -0.19795 -0.17832
 H470 H 1.20101 -0.12239 -0.10344
 H471 H 1.10443 -0.19777 -0.18264
 H472 H 1.05401 -0.16646 -0.15453
 H473 H 1.03387 -0.11885 -0.11315
 H474 H 1.15015 -0.09019 -0.07600
 C475 C 1.19929 0.30473 0.30408
 C476 C 1.17765 0.32615 0.32645
 C477 C 1.19615 0.35021 0.35397
 C478 C 1.23589 0.35350 0.35755
 C479 C 1.25714 0.33243 0.33478
 C480 C 1.23904 0.30707 0.30891
 C481 C 1.17467 0.37064 0.37738
 C482 C 1.13495 0.36792 0.37314
 C483 C 1.11639 0.34488 0.34476
 C484 C 1.13787 0.32384 0.32182
 C485 C 1.07667 0.34351 0.33973
 C486 C 1.05556 0.36487 0.36253
 C487 C 1.07379 0.38712 0.39130
 C488 C 1.11349 0.38834 0.39658
 H489 H 1.18508 0.28643 0.28298
 H490 H 1.25052 0.37222 0.37807
 H491 H 1.28780 0.33518 0.33812
 H492 H 1.18888 0.38877 0.39878
 H493 H 1.12367 0.30577 0.30037
 H494 H 1.06198 0.32621 0.31796
 H495 H 1.02499 0.36378 0.35795
 H496 H 1.12781 0.40599 0.41830
 C497 C 0.68932 -0.21852 0.30409
 C498 C 0.66090 -0.19833 0.31879
 C499 C 0.65516 -0.16244 0.30441
 C500 C 0.67825 -0.14709 0.27638
 C501 C 0.70733 -0.16668 0.26319
 C502 C 0.71312 -0.20258 0.27663
 C503 C 0.62740 -0.14181 0.31921
 C504 C 0.60659 -0.15571 0.34971
 C505 C 0.61272 -0.19128 0.36481
 C506 C 0.63912 -0.21279 0.34855
 C507 C 0.59357 -0.20396 0.39702
 C508 C 0.56997 -0.18099 0.41501
 C509 C 0.56381 -0.14578 0.40002
 C510 C 0.58134 -0.13365 0.36679
 H511 H 0.69369 -0.24610 0.31487
 H512 H 0.67452 -0.11946 0.26539
 H513 H 0.72542 -0.15317 0.24270
 H514 H 0.62316 -0.11428 0.30810
 H515 H 0.64386 -0.24004 0.36012
 H516 H 0.59811 -0.23098 0.40923
 H517 H 0.55702 -0.19039 0.44103
 H518 H 0.57739 -0.10600 0.35587
 C519 C 0.71461 0.30390 -0.20258
 C520 C 0.68893 0.32608 -0.18611
 C521 C 0.64944 0.31749 -0.19182
 C522 C 0.63633 0.28802 -0.21537
 C523 C 0.66201 0.26658 -0.23216
 C524 C 0.70124 0.27370 -0.22513
 C525 C 0.62370 0.33820 -0.17368
 C526 C 0.63686 0.36785 -0.15029
 C527 C 0.67627 0.37749 -0.14600
 C528 C 0.70204 0.35641 -0.16366
 C529 C 0.68932 0.40786 -0.12369
 C530 C 0.66375 0.42792 -0.10499
 C531 C 0.62468 0.41770 -0.10769
 C532 C 0.61131 0.38779 -0.13075
 H533 H 0.74489 0.30972 -0.19744
 H534 H 0.60620 0.28137 -0.22060
 H535 H 0.65085 0.24418 -0.25030
 H536 H 0.59348 0.33107 -0.17753
 H537 H 0.73227 0.36343 -0.15967
 H538 H 0.71936 0.41586 -0.12033
 H539 H 0.67480 0.45085 -0.08738
 H540 H 0.58120 0.37991 -0.13324
 C541 C 1.22761 0.21698 -0.21375
 C542 C 1.20063 0.19446 -0.19481
 C543 C 1.17232 0.17310 -0.21627
 C544 C 1.17148 0.17475 -0.25629
 C545 C 1.19854 0.19710 -0.27486
 C546 C 1.22694 0.21814 -0.25383
 C547 C 1.14549 0.15033 -0.19741
 C548 C 1.14702 0.14813 -0.15733
 C549 C 1.17541 0.16953 -0.13593
 C550 C 1.20172 0.19281 -0.15477
 C551 C 1.17760 0.16666 -0.09597
 C552 C 1.15276 0.14196 -0.07737
 C553 C 1.12475 0.12026 -0.09828
 C554 C 1.12140 0.12403 -0.13826
 H555 H 1.24875 0.23373 -0.19716
 H556 H 1.14989 0.15878 -0.27325
 H557 H 1.19678 0.19820 -0.30571
 H558 H 1.12389 0.13387 -0.21392
 H559 H 1.22348 0.20910 -0.13828
 H560 H 1.19913 0.18284 -0.07913
 H561 H 1.15573 0.13951 -0.04649
 H562 H 1.10009 0.10705 -0.15455
 C563 C 1.20507 0.69108 0.28651
 C564 C 1.17667 0.67098 0.30575
 C565 C 1.14212 0.65954 0.28587
 C566 C 1.13634 0.66916 0.24715
 C567 C 1.16489 0.68908 0.22811
 C568 C 1.19956 0.69991 0.24755
 C569 C 1.11441 0.63791 0.30474
 C570 C 1.12113 0.62719 0.34307
 C571 C 1.15548 0.63932 0.36302
 C572 C 1.18285 0.66134 0.34435
 C573 C 1.16236 0.62846 0.40116
 C574 C 1.13608 0.60478 0.41907
 C575 C 1.10232 0.59175 0.39930
 C576 C 1.09459 0.60367 0.36149
 H577 H 1.23179 0.69877 0.30186
 H578 H 1.11005 0.66066 0.23142
 H579 H 1.16014 0.69532 0.19795
 H580 H 1.08810 0.62871 0.28938
 H581 H 1.20934 0.67021 0.35959
 H582 H 1.18844 0.63765 0.41689
 H583 H 1.14252 0.59619 0.44834
 H584 H 1.06859 0.59375 0.34605
 C585 C 0.71071 0.17509 0.30236
 C586 C 0.68671 0.14757 0.31858
 C587 C 0.66262 0.12420 0.29453
 C588 C 0.66405 0.12782 0.25478
 C589 C 0.68814 0.15514 0.23894
 C590 C 0.71102 0.17942 0.26251
 C591 C 0.63700 0.09811 0.31055
 C592 C 0.63545 0.09474 0.35035
 C593 C 0.66054 0.11712 0.37446
 C594 C 0.68582 0.14357 0.35842
 C595 C 0.65981 0.11268 0.41425
 C596 C 0.63438 0.08643 0.43001
 C597 C 0.60873 0.06488 0.40626
 C598 C 0.60927 0.06920 0.36645
 H599 H 0.72801 0.19382 0.32086
 H600 H 0.64593 0.11006 0.23592
 H601 H 0.68753 0.15814 0.20822
 H602 H 0.61811 0.08063 0.29206
 H603 H 0.70458 0.16118 0.37690
 H604 H 0.67897 0.12940 0.43316
 H605 H 0.63436 0.08333 0.46083
 H606 H 0.58986 0.05216 0.34806
 C607 C 0.71884 0.72700 -0.20462
 C608 C 0.69943 0.69994 -0.18283
 C609 C 0.70733 0.66249 -0.18606
 C610 C 0.73407 0.65274 -0.21149
 C611 C 0.75246 0.67974 -0.23381
 C612 C 0.74466 0.71689 -0.23081
 C613 C 0.68834 0.63542 -0.16395
 C614 C 0.66084 0.64520 -0.13933
 C615 C 0.65228 0.68255 -0.13688
 C616 C 0.67196 0.70972 -0.15824
 C617 C 0.62398 0.69213 -0.11321
 C618 C 0.60439 0.66504 -0.09205
 C619 C 0.61320 0.62798 -0.09364
 C620 C 0.64154 0.61819 -0.11730
 H621 H 0.71346 0.75581 -0.20165
 H622 H 0.74061 0.62423 -0.21425
 H623 H 0.77313 0.67145 -0.25306
 H624 H 0.69468 0.60677 -0.16618
 H625 H 0.66557 0.73837 -0.15607
 H626 H 0.61691 0.72056 -0.11113
 H627 H 0.58270 0.67323 -0.07389
 H628 H 0.64824 0.58959 -0.11886
 C629 C 0.79625 -0.18826 -0.21161
 C630 C 0.82160 -0.16948 -0.18519
 C631 C 0.85686 -0.18403 -0.17481
 C632 C 0.86495 -0.21833 -0.18908
 C633 C 0.83867 -0.23766 -0.21391
 C634 C 0.80502 -0.22202 -0.22667
 C635 C 0.88311 -0.16434 -0.14996
 C636 C 0.87389 -0.13105 -0.13409
 C637 C 0.83760 -0.11784 -0.14254
 C638 C 0.81201 -0.13673 -0.16860
 C639 C 0.82757 -0.08580 -0.12485
 C640 C 0.85351 -0.06652 -0.09972
 C641 C 0.89021 -0.07833 -0.09278
 C642 C 0.90029 -0.11070 -0.10989
 H643 H 0.76939 -0.17693 -0.21981
 H644 H 0.89128 -0.23050 -0.18051
 H645 H 0.84473 -0.26483 -0.22308
 H646 H 0.91052 -0.17505 -0.14273
 H647 H 0.78456 -0.12607 -0.17576
 H648 H 0.79976 -0.07552 -0.13065
 H649 H 0.84543 -0.04149 -0.08687
 H650 H 0.92859 -0.11997 -0.10427
 C651 C 0.76089 0.28255 0.28596
 C652 C 0.78517 0.30321 0.31178
 C653 C 0.81660 0.28690 0.33019
 C654 C 0.82167 0.24952 0.32434
 C655 C 0.79682 0.22898 0.29920
 C656 C 0.76741 0.24577 0.27853
 C657 C 0.84251 0.30827 0.35384
 C658 C 0.83687 0.34552 0.36002
 C659 C 0.80417 0.36116 0.34339
 C660 C 0.77879 0.34005 0.31904
 C661 C 0.79757 0.39784 0.35115
 C662 C 0.82344 0.41906 0.37459
 C663 C 0.85672 0.40425 0.38970
 C664 C 0.86338 0.36748 0.38250
 H665 H 0.73732 0.29540 0.27141
 H666 H 0.84505 0.23628 0.33886
 H667 H 0.80129 0.20018 0.29494
 H668 H 0.86711 0.29600 0.36723
 H669 H 0.75427 0.35235 0.30553
 H670 H 0.77250 0.41015 0.33897
 H671 H 0.81805 0.44744 0.38008
 H672 H 0.88896 0.35601 0.39463
 C673 C 0.25904 -0.22319 0.27481
 C674 C 0.28479 -0.20392 0.30054
 C675 C 0.32162 -0.21619 0.30762
 C676 C 0.33120 -0.24875 0.29081
 C677 C 0.30505 -0.26833 0.26618
 C678 C 0.26938 -0.25488 0.25642
 C679 C 0.34820 -0.19587 0.33151
 C680 C 0.33811 -0.16391 0.34928
 C681 C 0.30061 -0.15276 0.34396
 C682 C 0.27433 -0.17255 0.31924
 C683 C 0.29014 -0.12182 0.36330
 C684 C 0.31675 -0.10166 0.38705
 C685 C 0.35444 -0.11154 0.39105
 C686 C 0.36495 -0.14282 0.37226
 H687 H 0.23107 -0.21332 0.26920
 H688 H 0.35886 -0.25925 0.29691
 H689 H 0.31311 -0.29409 0.25515
 H690 H 0.37669 -0.20492 0.33624
 H691 H 0.24584 -0.16350 0.31448
 H692 H 0.26146 -0.11308 0.35988
 H693 H 0.30818 -0.07757 0.40132
 H694 H 0.39395 -0.15077 0.37568
 C695 C 0.30185 0.30981 -0.24108
 C696 C 0.32827 0.32641 -0.21402
 C697 C 0.35159 0.30418 -0.19059
 C698 C 0.34764 0.26573 -0.19424
 C699 C 0.32079 0.24948 -0.22068
 C700 C 0.29803 0.27130 -0.24457
 C701 C 0.37795 0.32066 -0.16346
 C702 C 0.38057 0.35905 -0.15865
 C703 C 0.35676 0.38118 -0.18168
 C704 C 0.33121 0.36481 -0.20956
 C705 C 0.35829 0.41934 -0.17588
 C706 C 0.38249 0.43536 -0.14699
 C707 C 0.40636 0.41375 -0.12404
 C708 C 0.40579 0.37561 -0.13043
 H709 H 0.28398 0.32689 -0.25891
 H710 H 0.36494 0.24820 -0.17627
 H711 H 0.31760 0.21970 -0.22232
 H712 H 0.39583 0.30355 -0.14556
 H713 H 0.31307 0.38188 -0.22722
 H714 H 0.34018 0.43670 -0.19315
 H715 H 0.38250 0.46477 -0.14249
 H716 H 0.42376 0.35871 -0.11243
 C717 C 1.18825 -0.22441 0.20118
 C718 C 1.17387 -0.19708 0.17685
 C719 C 1.19000 -0.18938 0.14135
 C720 C 1.21994 -0.20965 0.13063
 C721 C 1.23401 -0.23698 0.15497
 C722 C 1.21851 -0.24448 0.19060
 C723 C 1.17609 -0.16147 0.11732
 C724 C 1.14620 -0.14120 0.12842
 C725 C 1.12982 -0.14941 0.16379
 C726 C 1.14374 -0.17722 0.18771
 C727 C 1.09990 -0.12947 0.17491
 C728 C 1.08654 -0.10126 0.15156
 C729 C 1.10283 -0.09232 0.11661
 C730 C 1.13255 -0.11264 0.10498
 H731 H 1.17578 -0.22988 0.22845
 H732 H 1.23262 -0.20428 0.10346
 H733 H 1.25715 -0.25184 0.14562
 H734 H 1.18865 -0.15540 0.09019
 H735 H 1.13126 -0.18324 0.21491
 H736 H 1.08696 -0.13550 0.20183
 H737 H 1.06352 -0.08619 0.16116
 H738 H 1.14523 -0.10602 0.07804
 C739 C 1.19748 0.28940 0.70070
 C740 C 1.17642 0.31324 0.67744
 C741 C 1.19371 0.33224 0.64674
 C742 C 1.23196 0.32785 0.64054
 C743 C 1.25264 0.30400 0.66383
 C744 C 1.23536 0.28417 0.69347
 C745 C 1.17242 0.35497 0.62250
 C746 C 1.13413 0.35915 0.62864
 C747 C 1.11699 0.34091 0.65982
 C748 C 1.13824 0.31794 0.68399
 C749 C 1.07886 0.34601 0.66620
 C750 C 1.05793 0.36898 0.64190
 C751 C 1.07465 0.38665 0.61054
 C752 C 1.11276 0.38149 0.60407
 H753 H 1.18413 0.27457 0.72395
 H754 H 1.24570 0.34239 0.61731
 H755 H 1.28189 0.30031 0.65807
 H756 H 1.18560 0.36925 0.59874
 H757 H 1.12504 0.30358 0.70768
 H758 H 1.06529 0.33238 0.69005
 H759 H 1.02864 0.37274 0.64744
 H760 H 1.12609 0.39540 0.58021
 C761 C 0.69878 -0.21877 0.71592
 C762 C 0.67613 -0.19555 0.69337
 C763 C 0.69370 -0.16829 0.66974
 C764 C 0.73332 -0.16367 0.67015
 C765 C 0.75549 -0.18655 0.69289
 C766 C 0.73850 -0.21444 0.71545
 C767 C 0.67149 -0.14656 0.64542
 C768 C 0.63188 -0.15128 0.64465
 C769 C 0.61402 -0.17727 0.66936
 C770 C 0.63631 -0.19953 0.69341
 C771 C 0.57418 -0.18058 0.66923
 C772 C 0.55238 -0.15875 0.64439
 C773 C 0.57017 -0.13412 0.61877
 C774 C 0.60989 -0.13039 0.61926
 H775 H 0.68542 -0.24075 0.73258
 H776 H 0.74716 -0.14280 0.65235
 H777 H 0.78608 -0.18312 0.69205
 H778 H 0.68506 -0.12619 0.62678
 H779 H 0.62274 -0.22004 0.71186
 H780 H 0.55994 -0.20008 0.68822
 H781 H 0.52174 -0.16171 0.64450
 H782 H 0.62375 -0.11081 0.60003
 C783 C 0.71726 0.28017 0.19516
 C784 C 0.69197 0.30276 0.17546
 C785 C 0.65242 0.29440 0.17659
 C786 C 0.63891 0.26432 0.19858
 C787 C 0.66431 0.24244 0.21877
 C788 C 0.70356 0.24989 0.21667
 C789 C 0.62709 0.31618 0.15576
 C790 C 0.64082 0.34666 0.13441
 C791 C 0.68036 0.35571 0.13447
 C792 C 0.70566 0.33352 0.15464
 C793 C 0.69403 0.38685 0.11426
 C794 C 0.66886 0.40866 0.09381
 C795 C 0.62964 0.39935 0.09261
 C796 C 0.61570 0.36831 0.11301
 H797 H 0.74760 0.28608 0.19376
 H798 H 0.60872 0.25774 0.20019
 H799 H 0.65302 0.21968 0.23579
 H800 H 0.59679 0.30946 0.15621
 H801 H 0.73598 0.34021 0.15419
 H802 H 0.72419 0.39432 0.11419
 H803 H 0.68022 0.43247 0.07820
 H804 H 0.58542 0.36124 0.11246
 C805 C 0.80741 0.20476 0.20763
 C806 C 0.82903 0.18993 0.17996
 C807 C 0.81074 0.17482 0.14628
 C808 C 0.77131 0.17571 0.14047
 C809 C 0.75003 0.18998 0.16850
 C810 C 0.76771 0.20351 0.20278
 C811 C 0.83200 0.15840 0.11940
 C812 C 0.87117 0.15594 0.12630
 C813 C 0.88960 0.17153 0.15970
 C814 C 0.86849 0.18895 0.18604
 C815 C 0.92863 0.16824 0.16685
 C816 C 0.94888 0.14822 0.14206
 C817 C 0.93056 0.13174 0.10943
 C818 C 0.89191 0.13669 0.10112
 H819 H 0.82177 0.21652 0.23299
 H820 H 0.75687 0.16483 0.11454
 H821 H 0.71968 0.19049 0.16319
 H822 H 0.81787 0.14643 0.09377
 H823 H 0.88253 0.20052 0.21189
 H824 H 0.94324 0.18011 0.19223
 H825 H 0.97868 0.14487 0.14892
 H826 H 0.87746 0.12399 0.07606
 C827 C 0.82809 0.72830 0.69412
 C828 C 0.84093 0.70599 0.66575
 C829 C 0.81433 0.68610 0.64087
 C830 C 0.77548 0.68916 0.64449
 C831 C 0.76305 0.71016 0.67371
 C832 C 0.78916 0.72907 0.69923
 C833 C 0.82685 0.66234 0.61382
 C834 C 0.86552 0.65666 0.61260
 C835 C 0.89219 0.67651 0.63743
 C836 C 0.87981 0.70181 0.66311
 C837 C 0.93063 0.66938 0.63743
 C838 C 0.94222 0.64154 0.61456
 C839 C 0.91580 0.62130 0.59039
 C840 C 0.87769 0.62983 0.58852
 H841 H 0.84842 0.74392 0.71265
 H842 H 0.75470 0.67424 0.62564
 H843 H 0.73285 0.71091 0.67697
 H844 H 0.80637 0.64688 0.59505
 H845 H 0.90023 0.71674 0.68239
 H846 H 0.95147 0.68425 0.65626
 H847 H 0.97179 0.63532 0.61625
 H848 H 0.85713 0.61391 0.57026
 C849 C 0.32194 0.21160 0.68960
 C850 C 0.33730 0.18867 0.66335
 C851 C 0.31488 0.17585 0.63095
 C852 C 0.27781 0.18688 0.62496
 C853 C 0.26267 0.20934 0.65147
 C854 C 0.28419 0.22110 0.68445
 C855 C 0.32963 0.15177 0.60545
 C856 C 0.36627 0.13972 0.61238
 C857 C 0.38884 0.15297 0.64454
 C858 C 0.37439 0.17767 0.66953
 C859 C 0.42517 0.14047 0.65182
 C860 C 0.43851 0.11404 0.62836
 C861 C 0.41605 0.10001 0.59686
 C862 C 0.38025 0.11365 0.58844
 H863 H 0.33934 0.22133 0.71415
 H864 H 0.26036 0.17779 0.60003
 H865 H 0.23407 0.21761 0.64599
 H866 H 0.31225 0.14167 0.58083
 H867 H 0.39163 0.18749 0.69437
 H868 H 0.44289 0.15041 0.67624
 H869 H 0.46626 0.10407 0.63529
 H870 H 0.36265 0.10285 0.56430
 C871 C 0.29511 0.69745 0.18299
 C872 C 0.31516 0.67061 0.16622
 C873 C 0.29834 0.63458 0.16081
 C874 C 0.26188 0.62591 0.17344
 C875 C 0.24281 0.65240 0.19201
 C876 C 0.25935 0.68842 0.19716
 C877 C 0.31849 0.60786 0.14346
 C878 C 0.35581 0.61651 0.13286
 C879 C 0.37287 0.65229 0.14003
 C880 C 0.35227 0.67918 0.15589
 C881 C 0.41043 0.66083 0.13129
 C882 C 0.43082 0.63464 0.11456
 C883 C 0.41396 0.59947 0.10541
 C884 C 0.37644 0.59026 0.11515
 H885 H 0.30821 0.72512 0.18651
 H886 H 0.24846 0.59842 0.16976
 H887 H 0.21524 0.64429 0.20229
 H888 H 0.30540 0.58036 0.13870
 H889 H 0.36539 0.70667 0.16079
 H890 H 0.42401 0.68794 0.13709
 H891 H 0.45973 0.64255 0.10771
 H892 H 0.36327 0.56318 0.10847
   
