data_POSCAR
  _audit_creation_date              2014-09-24
  _audit_creation_method            'ToBaCCo'
  _symmetry_space_group_name_H-M    'P1'
  _symmetry_Int_Tables_number       1
  _symmetry_cell_setting            triclinic
  loop_
  _symmetry_equiv_pos_as_xyz
 x,y,z
_cell_length_a 52.5585
_cell_length_b 30.5372
_cell_length_c 18.4335
_cell_angle_alpha 90.049200
_cell_angle_beta 89.951200
_cell_angle_gamma 90.072500
loop_
  _atom_site_label
  _atom_site_type_symbol
  _atom_site_fract_x
  _atom_site_fract_y
  _atom_site_fract_z
C1 C 0.75044 0.24998 0.53518
 C2 C 0.75050 0.25019 0.46115
 C3 C 0.77148 0.22986 0.41885
 C4 C 0.72957 0.27068 0.41914
 C5 C 0.72805 0.26536 0.57733
 C6 C 0.77276 0.23440 0.57721
 C7 C 0.78461 0.25442 0.36697
 C8 C 0.80519 0.23640 0.32939
 C9 C 0.81338 0.19277 0.34233
 C10 C 0.79909 0.16805 0.39339
 C11 C 0.77850 0.18628 0.43053
 C12 C 0.72253 0.31438 0.43159
 C13 C 0.70186 0.33257 0.39491
 C14 C 0.68801 0.30756 0.34443
 C15 C 0.69568 0.26429 0.33022
 C16 C 0.71633 0.24609 0.36711
 C17 C 0.70377 0.24769 0.56478
 C18 C 0.68258 0.26428 0.60135
 C19 C 0.68530 0.29850 0.65185
 C20 C 0.70978 0.31503 0.66619
 C21 C 0.73096 0.29849 0.62941
 C22 C 0.76978 0.20098 0.62866
 C23 C 0.79091 0.18429 0.66533
 C24 C 0.81540 0.20093 0.65149
 C25 C 0.81819 0.23543 0.60163
 C26 C 0.79705 0.25217 0.56516
 H27 H 0.77945 0.28824 0.35721
 H28 H 0.81533 0.25839 0.29382
 H29 H 0.80273 0.13381 0.40345
 H30 H 0.76800 0.16626 0.46875
 H31 H 0.73288 0.33420 0.47041
 H32 H 0.69671 0.36625 0.40594
 H33 H 0.72155 0.21237 0.35657
 H34 H 0.70121 0.22143 0.52593
 H35 H 0.66405 0.25030 0.59020
 H36 H 0.71247 0.34160 0.70436
 H37 H 0.74955 0.31242 0.64003
 H38 H 0.75118 0.18697 0.63888
 H39 H 0.78817 0.15750 0.70300
 H40 H 0.83673 0.24952 0.59090
 H41 H 0.79966 0.27864 0.52679
 H42 H 0.68528 0.24411 0.29208
 C43 C 0.24973 0.74888 0.46436
 C44 C 0.24958 0.74792 0.53836
 C45 C 0.22716 0.76298 0.58066
 C46 C 0.27183 0.73194 0.58031
 C47 C 0.27074 0.72897 0.42172
 C48 C 0.22888 0.76993 0.42271
 C49 C 0.23006 0.79565 0.63354
 C50 C 0.20886 0.81194 0.67049
 C51 C 0.18438 0.79564 0.65549
 C52 C 0.18167 0.76187 0.60418
 C53 C 0.20288 0.74551 0.56744
 C54 C 0.29614 0.74988 0.56926
 C55 C 0.31715 0.73321 0.60646
 C56 C 0.31421 0.69854 0.65595
 C57 C 0.28971 0.68157 0.66849
 C58 C 0.26871 0.69826 0.63123
 C59 C 0.27774 0.68509 0.43230
 C60 C 0.29834 0.66730 0.39453
 C61 C 0.31218 0.69297 0.34492
 C62 C 0.30459 0.73649 0.33281
 C63 C 0.28400 0.75425 0.37065
 C64 C 0.21568 0.74596 0.36981
 C65 C 0.19513 0.76468 0.33315
 C66 C 0.18752 0.80785 0.34845
 C67 C 0.20132 0.83223 0.39987
 C68 C 0.22190 0.81353 0.43633
 H69 H 0.24865 0.80942 0.64467
 H70 H 0.21153 0.83819 0.70929
 H71 H 0.16313 0.74807 0.59250
 H72 H 0.20034 0.71960 0.52793
 H73 H 0.29887 0.77639 0.53105
 H74 H 0.33577 0.74679 0.59525
 H75 H 0.25007 0.68428 0.64100
 H76 H 0.26747 0.66481 0.47061
 H77 H 0.30381 0.63378 0.40541
 H78 H 0.31460 0.75683 0.29403
 H79 H 0.27873 0.78805 0.36125
 H80 H 0.22085 0.71233 0.35836
 H81 H 0.18477 0.74497 0.29426
 H82 H 0.19623 0.86582 0.41179
 H83 H 0.23222 0.83288 0.47584
 H84 H 0.28677 0.65539 0.70719
 C85 C 0.24980 0.25076 -0.46282
 C86 C 0.24967 0.25154 -0.53683
 C87 C 0.27196 0.26742 -0.57894
 C88 C 0.22725 0.23641 -0.57904
 C89 C 0.22891 0.22980 -0.42097
 C90 C 0.27086 0.27073 -0.42040
 C91 C 0.26893 0.30086 -0.63002
 C92 C 0.28992 0.31739 -0.66769
 C93 C 0.31466 0.30066 -0.65575
 C94 C 0.31723 0.26585 -0.60563
 C95 C 0.29618 0.24946 -0.56811
 C96 C 0.20304 0.25386 -0.56600
 C97 C 0.18183 0.23774 -0.60301
 C98 C 0.18423 0.20387 -0.65499
 C99 C 0.20898 0.18783 -0.66944
 C100 C 0.23012 0.20397 -0.63205
 C101 C 0.22185 0.18629 -0.43427
 C102 C 0.20128 0.16757 -0.39762
 C103 C 0.18724 0.19175 -0.34575
 C104 C 0.19527 0.23512 -0.33102
 C105 C 0.21581 0.25372 -0.36805
 C106 C 0.28410 0.24552 -0.36935
 C107 C 0.30476 0.26331 -0.33184
 C108 C 0.31244 0.30680 -0.34428
 C109 C 0.29861 0.33240 -0.39384
 C110 C 0.27794 0.31459 -0.43128
 H111 H 0.25029 0.31465 -0.64006
 H112 H 0.28631 0.34249 -0.70768
 H113 H 0.33558 0.25225 -0.59205
 H114 H 0.29886 0.22315 -0.52950
 H115 H 0.20055 0.27991 -0.52671
 H116 H 0.16373 0.25313 -0.59186
 H117 H 0.24869 0.19008 -0.64289
 H118 H 0.23224 0.16682 -0.47348
 H119 H 0.19709 0.13359 -0.40895
 H120 H 0.18504 0.25602 -0.29377
 H121 H 0.22100 0.28742 -0.35700
 H122 H 0.27877 0.21175 -0.35973
 H123 H 0.31476 0.24303 -0.29308
 H124 H 0.30414 0.36589 -0.40498
 H125 H 0.26768 0.33480 -0.46960
 H126 H 0.21222 0.16109 -0.70675
 C127 C -0.24989 0.74985 -0.46307
 C128 C -0.24996 0.75012 -0.53710
 C129 C -0.22911 0.77109 -0.57911
 C130 C -0.27086 0.72943 -0.57924
 C131 C -0.27228 0.73443 -0.42093
 C132 C -0.22745 0.76502 -0.42097
 C133 C -0.22218 0.81470 -0.56611
 C134 C -0.20159 0.83343 -0.60260
 C135 C -0.18739 0.80917 -0.65402
 C136 C -0.19532 0.76572 -0.66858
 C137 C -0.21589 0.74710 -0.63169
 C138 C -0.28415 0.75378 -0.63111
 C139 C -0.30473 0.73538 -0.66819
 C140 C -0.31262 0.69181 -0.65457
 C141 C -0.29837 0.66722 -0.60385
 C142 C -0.27776 0.68573 -0.56714
 C143 C -0.26942 0.70148 -0.36889
 C144 C -0.29054 0.68521 -0.33149
 C145 C -0.31526 0.70162 -0.34497
 C146 C -0.31765 0.73597 -0.39599
 C147 C -0.29646 0.75220 -0.43300
 C148 C -0.20323 0.74728 -0.43387
 C149 C -0.18202 0.76337 -0.39681
 C150 C -0.18466 0.79717 -0.34550
 C151 C -0.20907 0.81382 -0.33097
 C152 C -0.23027 0.79778 -0.36822
 H153 H -0.23267 0.83422 -0.52718
 H154 H -0.19748 0.86747 -0.59149
 H155 H -0.18498 0.74477 -0.70551
 H156 H -0.22099 0.71334 -0.64251
 H157 H -0.27908 0.78762 -0.64123
 H158 H -0.31512 0.75657 -0.70454
 H159 H -0.26723 0.66595 -0.52879
 H160 H -0.25086 0.68734 -0.35879
 H161 H -0.28731 0.65812 -0.29497
 H162 H -0.33571 0.75164 -0.40632
 H163 H -0.29895 0.77864 -0.47149
 H164 H -0.20074 0.72128 -0.47323
 H165 H -0.16354 0.74930 -0.40815
 H166 H -0.21169 0.84009 -0.29221
 H167 H -0.24882 0.81175 -0.35732
 H168 H -0.30243 0.63309 -0.59347
 N169 N -0.02676 0.92185 -0.07461
 N170 N -0.04572 0.89399 -0.08397
 N171 N 0.02672 0.95180 -0.12631
 N172 N 0.04561 0.94519 -0.17226
 N173 N 0.02677 0.92191 -0.07510
 N174 N 0.04570 0.89412 -0.08474
 N175 N -0.02680 0.95177 -0.12577
 N176 N -0.04577 0.94514 -0.17137
 C177 C -0.05735 0.90912 -0.14436
 C178 C 0.05722 0.90922 -0.14538
 N179 N 0.02684 1.07713 -0.07948
 N180 N 0.04626 1.10396 -0.08948
 N181 N -0.02678 1.04613 -0.12848
 N182 N -0.04579 1.05172 -0.17430
 N183 N -0.02671 1.07710 -0.07900
 N184 N -0.04567 1.10466 -0.08973
 N185 N 0.02677 1.04612 -0.12891
 N186 N 0.04611 1.05096 -0.17393
 Mn187 Mn -0.00003 0.99895 -0.12821
 C188 C 0.05799 1.08713 -0.14855
 C189 C -0.05734 1.08826 -0.14918
 N190 N 0.02697 0.92368 0.08120
 N191 N 0.04629 0.89674 0.09113
 N192 N -0.02653 0.95459 0.13115
 N193 N -0.04589 0.94977 0.17612
 N194 N -0.02663 0.92360 0.08169
 N195 N -0.04607 0.89682 0.09159
 N196 N 0.02700 0.95472 0.13058
 N197 N 0.04632 0.94978 0.17551
 Mn198 Mn 0.00009 0.92223 0.00333
 C199 C 0.05809 0.91355 0.15010
 C200 C -0.05779 0.91365 0.15067
 N201 N -0.02665 1.07872 0.07730
 N202 N -0.04610 1.10560 0.08583
 N203 N 0.02698 1.04901 0.12796
 N204 N 0.04596 1.05568 0.17355
 N205 N 0.02693 1.07892 0.07681
 N206 N 0.04587 1.10681 0.08612
 N207 N -0.02653 1.04880 0.12845
 N208 N -0.04585 1.05445 0.17321
 Mn209 Mn 0.00010 1.07850 -0.00111
 Mn210 Mn 0.00024 1.00178 0.13037
 Cl211 Cl 0.00010 1.00037 0.00108
 C212 C -0.05778 1.08995 0.14587
 C213 C 0.05750 1.09173 0.14650
 N214 N 0.52670 0.54651 0.12997
 N215 N 0.54600 0.55161 0.17498
 N216 N 0.47326 0.57702 0.07931
 N217 N 0.45387 0.60392 0.08858
 N218 N 0.47316 0.54630 0.12914
 N219 N 0.45373 0.55142 0.17374
 N220 N 0.52685 0.57719 0.08008
 N221 N 0.54627 0.60406 0.08973
 C222 C 0.55792 0.58760 0.14911
 C223 C 0.44197 0.58744 0.14762
 N224 N 0.47372 0.54761 -0.12773
 N225 N 0.45464 0.55350 -0.17321
 N226 N 0.52713 0.57798 -0.07624
 N227 N 0.54612 0.60576 -0.08575
 N228 N 0.52725 0.54777 -0.12700
 N229 N 0.54630 0.55411 -0.17249
 N230 N 0.47360 0.57781 -0.07695
 N231 N 0.45443 0.60512 -0.08643
 Mn232 Mn 0.50021 0.57804 0.00158
 C233 C 0.44286 0.58942 -0.14658
 C234 C 0.55784 0.59028 -0.14583
 N235 N 0.47323 0.45201 0.12785
 N236 N 0.45405 0.44586 0.17301
 N237 N 0.52694 0.42206 0.07785
 N238 N 0.54636 0.39521 0.08690
 N239 N 0.52674 0.45228 0.12860
 N240 N 0.54599 0.44687 0.17360
 N241 N 0.47336 0.42178 0.07713
 N242 N 0.45426 0.39419 0.08634
 Mn243 Mn 0.49995 0.49928 0.12972
 C244 C 0.44247 0.40976 0.14624
 C245 C 0.55795 0.41121 0.14681
 N246 N 0.52729 0.45339 -0.12840
 N247 N 0.54633 0.44752 -0.17416
 N248 N 0.47365 0.42258 -0.07914
 N249 N 0.45424 0.39570 -0.08869
 N250 N 0.47375 0.45328 -0.12903
 N251 N 0.45442 0.44816 -0.17393
 N252 N 0.52720 0.42272 -0.07849
 N253 N 0.54617 0.39510 -0.08886
 Mn254 Mn 0.50051 0.50051 -0.12889
 Mn255 Mn 0.50029 0.42175 -0.00067
 Cl256 Cl 0.50024 0.49989 0.00042
 C257 C 0.55787 0.41115 -0.14855
 C258 C 0.44253 0.41215 -0.14798
 C259 C 0.37949 0.35507 0.23880
 C260 C 0.35753 0.38013 0.24796
 C261 C 0.33613 0.36222 0.28193
 C262 C 0.33622 0.31858 0.30793
 C263 C 0.35866 0.29372 0.29743
 C264 C 0.37997 0.31183 0.26329
 C265 C 0.40168 0.37403 0.20541
 C266 C 0.42029 0.39019 0.17807
 H267 H 0.35703 0.41385 0.22974
 H268 H 0.32009 0.38372 0.29044
 H269 H 0.35977 0.25968 0.31308
 H270 H 0.39685 0.29198 0.25592
 C271 C -0.12184 0.86298 0.24349
 C272 C -0.13002 0.87926 0.31033
 C273 C -0.15165 0.86191 0.34378
 C274 C -0.16570 0.82757 0.31106
 C275 C -0.15712 0.81181 0.24303
 C276 C -0.13547 0.82938 0.20982
 C277 C -0.09932 0.88059 0.20993
 C278 C -0.08038 0.89553 0.18253
 H279 H -0.11946 0.90509 0.33721
 H280 H -0.15644 0.87443 0.39693
 H281 H -0.16745 0.78692 0.21347
 H282 H -0.12942 0.81679 0.15761
 C283 C 0.62187 0.63843 0.24218
 C284 C 0.63011 0.62169 0.30856
 C285 C 0.65172 0.63891 0.34225
 C286 C 0.66569 0.67358 0.31027
 C287 C 0.65704 0.68983 0.24271
 C288 C 0.63541 0.67239 0.20924
 C289 C 0.59938 0.62088 0.20837
 C290 C 0.58047 0.60589 0.18089
 H291 H 0.61962 0.59557 0.33488
 H292 H 0.65656 0.62600 0.39504
 H293 H 0.66730 0.71503 0.21368
 H294 H 0.62931 0.68536 0.15740
 C295 C 0.11946 1.14871 0.24067
 C296 C 0.14328 1.14676 0.20729
 C297 C 0.16457 1.16517 0.24107
 C298 C 0.16251 1.18608 0.30943
 C299 C 0.13809 1.18801 0.34179
 C300 C 0.11690 1.16948 0.30777
 C301 C 0.09767 1.12884 0.20670
 C302 C 0.07936 1.11198 0.17889
 H303 H 0.14543 1.13105 0.15491
 H304 H 0.18237 1.16403 0.21174
 H305 H 0.13520 1.20192 0.39511
 H306 H 0.09853 1.17084 0.33443
 C307 C 0.61991 0.35524 -0.24414
 C308 C 0.61894 0.34376 -0.31759
 C309 C 0.64014 0.32504 -0.35126
 C310 C 0.66264 0.31757 -0.31184
 C311 C 0.66341 0.32912 -0.23795
 C312 C 0.64216 0.34781 -0.20436
 C313 C 0.59811 0.37491 -0.20988
 C314 C 0.57978 0.39145 -0.18166
 H315 H 0.60185 0.34951 -0.34896
 H316 H 0.63909 0.31712 -0.40846
 H317 H 0.68035 0.32335 -0.20601
 H318 H 0.64309 0.35649 -0.14742
 C319 C 0.11902 0.85230 -0.24038
 C320 C 0.14114 0.84426 -0.20037
 C321 C 0.16237 0.82553 -0.23398
 C322 C 0.16170 0.81456 -0.30812
 C323 C 0.13932 0.82259 -0.34775
 C324 C 0.11814 0.84134 -0.31405
 C325 C 0.09729 0.87221 -0.20620
 C326 C 0.07903 0.88904 -0.17815
 H327 H 0.14200 0.85255 -0.14326
 H328 H 0.17923 0.81932 -0.20190
 H329 H 0.13835 0.81513 -0.40512
 H330 H 0.10114 0.84758 -0.34559
 C331 C 0.37976 0.64324 -0.23917
 C332 C 0.36030 0.61595 -0.26455
 C333 C 0.33889 0.63395 -0.29809
 C334 C 0.33667 0.67957 -0.30678
 C335 C 0.35629 0.70676 -0.28072
 C336 C 0.37768 0.68867 -0.24712
 C337 C 0.40200 0.62453 -0.20592
 C338 C 0.42064 0.60862 -0.17859
 H339 H 0.36176 0.58073 -0.25892
 H340 H 0.32430 0.61212 -0.31850
 H341 H 0.35500 0.74200 -0.28585
 H342 H 0.39262 0.71011 -0.22755
 C343 C -0.11933 1.14388 -0.24488
 C344 C -0.14166 1.15102 -0.20518
 C345 C -0.16287 1.16979 -0.23865
 C346 C -0.16199 1.18173 -0.31233
 C347 C -0.13942 1.17454 -0.35167
 C348 C -0.11825 1.15574 -0.31812
 C349 C -0.09755 1.12423 -0.21069
 C350 C -0.07923 1.10777 -0.18246
 H351 H -0.14268 1.14205 -0.14839
 H352 H -0.17988 1.17535 -0.20677
 H353 H -0.13827 1.18276 -0.40871
 H354 H -0.10109 1.15023 -0.34941
 C355 C 0.61995 0.64663 -0.24034
 C356 C 0.64385 0.64404 -0.20762
 C357 C 0.66515 0.66234 -0.24153
 C358 C 0.66303 0.68381 -0.30933
 C359 C 0.63854 0.68633 -0.34105
 C360 C 0.61734 0.66789 -0.30691
 C361 C 0.59813 0.62694 -0.20621
 C362 C 0.57977 0.61028 -0.17830
 H363 H 0.64604 0.62792 -0.15566
 H364 H 0.68302 0.66071 -0.21269
 H365 H 0.63560 0.70066 -0.39397
 H366 H 0.59892 0.66975 -0.33307
 C367 C 0.12187 1.13792 -0.24222
 C368 C 0.13562 1.17142 -0.20865
 C369 C 0.15721 1.18899 -0.24221
 C370 C 0.16560 1.17334 -0.31051
 C371 C 0.15144 1.13911 -0.34311
 C372 C 0.12987 1.12176 -0.30932
 C373 C 0.09941 1.12030 -0.20828
 C374 C 0.08052 1.10533 -0.18062
 H375 H 0.12971 1.18393 -0.15625
 H376 H 0.16763 1.21379 -0.21272
 H377 H 0.15608 1.12668 -0.39642
 H378 H 0.11922 1.09600 -0.33611
 C379 C 0.37864 0.36020 -0.23957
 C380 C 0.35676 0.38583 -0.24748
 C381 C 0.33513 0.36842 -0.28096
 C382 C 0.33512 0.32508 -0.30696
 C383 C 0.35717 0.29951 -0.29830
 C384 C 0.37877 0.31699 -0.26485
 C385 C 0.40110 0.37842 -0.20662
 C386 C 0.41999 0.39373 -0.17958
 H387 H 0.35645 0.41932 -0.22800
 H388 H 0.31836 0.38875 -0.28609
 H389 H 0.35789 0.26627 -0.31868
 H390 H 0.39564 0.29693 -0.25928
 C391 C -0.11922 0.85256 -0.23969
 C392 C -0.14156 0.84494 -0.20024
 C393 C -0.16281 0.82663 -0.23440
 C394 C -0.16197 0.81566 -0.30853
 C395 C -0.13937 0.82324 -0.34758
 C396 C -0.11817 0.84158 -0.31334
 C397 C -0.09748 0.87220 -0.20508
 C398 C -0.07920 0.88892 -0.17692
 H399 H -0.14257 0.85327 -0.14316
 H400 H -0.17984 0.82074 -0.20274
 H401 H -0.13825 0.81578 -0.40493
 H402 H -0.10101 0.84751 -0.34447
 C403 C 0.37816 0.63957 0.23919
 C404 C 0.37841 0.68274 0.26467
 C405 C 0.35688 0.70023 0.29843
 C406 C 0.33478 0.67470 0.30721
 C407 C 0.33466 0.63141 0.28097
 C408 C 0.35622 0.61400 0.24717
 C409 C 0.40057 0.62131 0.20610
 C410 C 0.41944 0.60594 0.17907
 H411 H 0.39534 0.70275 0.25905
 H412 H 0.35770 0.73342 0.31898
 H413 H 0.31784 0.61113 0.28618
 H414 H 0.35582 0.58055 0.22756
 C415 C -0.12178 1.14073 0.23847
 C416 C -0.13113 1.12146 0.30163
 C417 C -0.15272 1.13836 0.33585
 C418 C -0.16571 1.17548 0.30781
 C419 C -0.15579 1.19413 0.24301
 C420 C -0.13418 1.17693 0.20912
 C421 C -0.09928 1.12344 0.20440
 C422 C -0.08036 1.10849 0.17702
 H423 H -0.12148 1.09357 0.32528
 H424 H -0.15795 1.12318 0.38659
 H425 H -0.16505 1.22086 0.21536
 H426 H -0.12724 1.19184 0.15957
 C427 C 0.62168 0.36036 0.24026
 C428 C 0.62623 0.36882 0.31372
 C429 C 0.64788 0.35187 0.34745
 C430 C 0.66529 0.32618 0.30805
 C431 C 0.66058 0.31793 0.23414
 C432 C 0.63891 0.33496 0.20049
 C433 C 0.59929 0.37778 0.20604
 C434 C 0.58044 0.39276 0.17841
 H435 H 0.61298 0.38835 0.34505
 H436 H 0.65077 0.35823 0.40466
 H437 H 0.67377 0.29866 0.20225
 H438 H 0.63559 0.32833 0.14352
 C439 C 0.12158 0.86223 0.24437
 C440 C 0.12598 0.86997 0.31812
 C441 C 0.14751 0.85252 0.35183
 C442 C 0.16494 0.82704 0.31213
 C443 C 0.16038 0.81953 0.23793
 C444 C 0.13883 0.83706 0.20430
 C445 C 0.09927 0.88002 0.21013
 C446 C 0.08050 0.89515 0.18227
 H447 H 0.11270 0.88930 0.34970
 H448 H 0.15028 0.85833 0.40925
 H449 H 0.17359 0.80045 0.20579
 H450 H 0.13564 0.83096 0.14712
   
