data_POSCAR
  _audit_creation_date              2014-09-24
  _audit_creation_method            'ToBaCCo'
  _symmetry_space_group_name_H-M    'P1'
  _symmetry_Int_Tables_number       1
  _symmetry_cell_setting            triclinic
  loop_
  _symmetry_equiv_pos_as_xyz
 x,y,z
_cell_length_a 25.3328
_cell_length_b 25.4371
_cell_length_c 25.0913
_cell_angle_alpha 90.181700
_cell_angle_beta 90.000000
_cell_angle_gamma 90.000000
loop_
  _atom_site_label
  _atom_site_type_symbol
  _atom_site_fract_x
  _atom_site_fract_y
  _atom_site_fract_z
Si1 Si 1.25172 0.25000 0.25000
 Si2 Si 0.74989 -0.25000 0.24999
 Si3 Si 0.75023 0.25000 -0.25000
 Si4 Si 1.25152 -0.25000 -0.25001
 Si5 Si 0.24978 0.25000 0.74999
 Si6 Si 0.74860 0.75000 0.75000
 Si7 Si 0.74850 0.25000 0.24999
 Si8 Si 0.24987 0.75000 0.25000
 N9 N 0.94560 0.09267 0.05861
 N10 N 0.91180 0.13037 0.07061
 N11 N 1.05627 0.05629 0.09534
 N12 N 1.09012 0.06861 0.13338
 N13 N 1.05636 0.09235 0.05796
 N14 N 1.09046 0.12991 0.06941
 N15 N 0.94542 0.05612 0.09551
 N16 N 0.91124 0.06796 0.13345
 C17 C 0.89007 0.11391 0.11683
 C18 C 1.11173 0.11406 0.11604
 N19 N 1.05663 -0.09418 0.05830
 N20 N 1.08983 -0.13230 0.07069
 N21 N 0.94572 -0.05743 0.09535
 N22 N 0.91149 -0.06896 0.13321
 N23 N 0.94594 -0.09417 0.05843
 N24 N 0.91210 -0.13177 0.07034
 N25 N 1.05683 -0.05751 0.09534
 N26 N 1.09046 -0.06970 0.13365
 Mn27 Mn 1.00105 -0.00063 0.09583
 C28 C 1.11134 -0.11600 0.11722
 C29 C 0.89034 -0.11495 0.11651
 N30 N 1.05588 0.09232 -0.05671
 N31 N 1.08964 0.13001 -0.06859
 N32 N 0.94447 0.05589 -0.09335
 N33 N 0.91069 0.06797 -0.13151
 N34 N 0.94504 0.09268 -0.05649
 N35 N 0.91187 0.13082 -0.06877
 N36 N 1.05535 0.05617 -0.09419
 N37 N 1.08856 0.06853 -0.13274
 Mn38 Mn 1.00073 0.09285 0.00087
 C39 C 1.11027 0.11414 -0.11562
 C40 C 0.89009 0.11433 -0.11509
 N41 N 0.94535 -0.09437 -0.05659
 N42 N 0.91169 -0.13222 -0.06868
 N43 N 1.05573 -0.05738 -0.09393
 N44 N 1.08978 -0.06895 -0.13202
 N45 N 1.05595 -0.09393 -0.05703
 N46 N 1.08989 -0.13144 -0.06922
 N47 N 0.94475 -0.05766 -0.09331
 N48 N 0.91045 -0.06945 -0.13112
 Mn49 Mn 1.00099 -0.09453 0.00076
 Mn50 Mn 1.00005 -0.00079 -0.09412
 Cl51 Cl 1.00072 -0.00078 0.00085
 C52 C 0.88963 -0.11558 -0.11470
 C53 C 1.11127 -0.11476 -0.11551
 N54 N 1.05587 0.40768 0.55670
 N55 N 1.08964 0.36999 0.56858
 N56 N 0.94446 0.44411 0.59334
 N57 N 0.91069 0.43203 0.63149
 N58 N 0.94504 0.40731 0.55648
 N59 N 0.91187 0.36918 0.56876
 N60 N 1.05535 0.44383 0.59418
 N61 N 1.08856 0.43147 0.63273
 C62 C 1.11027 0.38586 0.61561
 C63 C 0.89009 0.38567 0.61508
 N64 N 0.94535 0.59437 0.55658
 N65 N 0.91169 0.63222 0.56867
 N66 N 1.05573 0.55738 0.59392
 N67 N 1.08978 0.56895 0.63201
 N68 N 1.05595 0.59393 0.55701
 N69 N 1.08988 0.63144 0.56921
 N70 N 0.94474 0.55766 0.59330
 N71 N 0.91045 0.56945 0.63111
 Mn72 Mn 1.00005 0.50079 0.59411
 C73 C 0.88963 0.61558 0.61469
 C74 C 1.11127 0.61475 0.61550
 N75 N 0.94560 0.40733 0.44138
 N76 N 0.91180 0.36963 0.42938
 N77 N 1.05627 0.44371 0.40465
 N78 N 1.09012 0.43138 0.36661
 N79 N 1.05636 0.40765 0.44203
 N80 N 1.09046 0.37009 0.43058
 N81 N 0.94542 0.44388 0.40448
 N82 N 0.91124 0.43204 0.36654
 Mn83 Mn 1.00073 0.40715 0.49912
 C84 C 0.89007 0.38609 0.38316
 C85 C 1.11172 0.38594 0.38395
 N86 N 1.05662 0.59418 0.44169
 N87 N 1.08983 0.63230 0.42930
 N88 N 0.94572 0.55743 0.40464
 N89 N 0.91149 0.56896 0.36678
 N90 N 0.94593 0.59417 0.44156
 N91 N 0.91209 0.63177 0.42965
 N92 N 1.05683 0.55751 0.40465
 N93 N 1.09046 0.56970 0.36634
 Mn94 Mn 1.00099 0.59453 0.49923
 Mn95 Mn 1.00105 0.50063 0.40416
 Cl96 Cl 1.00072 0.50078 0.49914
 C97 C 1.11134 0.61600 0.38277
 C98 C 0.89034 0.61495 0.38348
 N99 N 0.59265 0.05543 0.55649
 N100 N 0.63049 0.08924 0.56809
 N101 N 0.55647 -0.05461 0.59443
 N102 N 0.56855 -0.08808 0.63264
 N103 N 0.59278 -0.05507 0.55708
 N104 N 0.63035 -0.08909 0.56869
 N105 N 0.55628 0.05557 0.59378
 N106 N 0.56865 0.08924 0.63195
 C107 C 0.61447 0.11056 0.61476
 C108 C 0.61418 -0.10987 0.61543
 N109 N 0.40634 -0.05589 0.55677
 N110 N 0.36924 -0.09041 0.56823
 N111 N 0.44237 0.05529 0.59326
 N112 N 0.43067 0.08974 0.63086
 N113 N 0.40542 0.05435 0.55651
 N114 N 0.36747 0.08798 0.56835
 N115 N 0.44260 -0.05496 0.59419
 N116 N 0.43094 -0.08867 0.63228
 Mn117 Mn 0.49939 0.00035 0.59436
 C118 C 0.38566 -0.11101 0.61492
 C119 C 0.38435 0.11033 0.61425
 N120 N 0.59262 -0.05596 0.44247
 N121 N 0.63024 -0.09007 0.43131
 N122 N 0.55621 0.05390 0.40452
 N123 N 0.56816 0.08766 0.36652
 N124 N 0.59248 0.05443 0.44193
 N125 N 0.62981 0.08878 0.43059
 N126 N 0.55633 -0.05622 0.40506
 N127 N 0.56851 -0.09028 0.36727
 Mn128 Mn 0.59303 -0.00031 0.49947
 C129 C 0.61412 -0.11166 0.38484
 C130 C 0.61361 0.10969 0.38394
 N131 N 0.40547 0.05337 0.44152
 N132 N 0.36807 0.08756 0.42997
 N133 N 0.44218 -0.05677 0.40453
 N134 N 0.42966 -0.09020 0.36612
 N135 N 0.40592 -0.05701 0.44197
 N136 N 0.36806 -0.09079 0.43015
 N137 N 0.44237 0.05363 0.40474
 N138 N 0.43122 0.08820 0.36733
 Mn139 Mn 0.40536 -0.00131 0.49921
 Mn140 Mn 0.49927 -0.00137 0.40424
 Cl141 Cl 0.49925 -0.00067 0.49931
 C142 C 0.38525 0.10950 0.38415
 C143 C 0.38388 -0.11178 0.38322
 N144 N 0.59262 0.55596 0.05752
 N145 N 0.63024 0.59007 0.06868
 N146 N 0.55621 0.44610 0.09547
 N147 N 0.56816 0.41234 0.13347
 N148 N 0.59248 0.44557 0.05806
 N149 N 0.62981 0.41122 0.06940
 N150 N 0.55633 0.55622 0.09493
 N151 N 0.56851 0.59028 0.13272
 C152 C 0.61412 0.61166 0.11515
 C153 C 0.61361 0.39031 0.11605
 N154 N 0.40547 0.44663 0.05847
 N155 N 0.36807 0.41244 0.07002
 N156 N 0.44218 0.55677 0.09546
 N157 N 0.42966 0.59020 0.13387
 N158 N 0.40592 0.55701 0.05802
 N159 N 0.36806 0.59079 0.06984
 N160 N 0.44237 0.44637 0.09525
 N161 N 0.43122 0.41180 0.13266
 Mn162 Mn 0.49927 0.50137 0.09575
 C163 C 0.38525 0.39050 0.11584
 C164 C 0.38388 0.61178 0.11677
 N165 N 0.59265 0.44457 -0.05650
 N166 N 0.63049 0.41076 -0.06810
 N167 N 0.55647 0.55461 -0.09444
 N168 N 0.56855 0.58808 -0.13265
 N169 N 0.59278 0.55507 -0.05709
 N170 N 0.63035 0.58909 -0.06870
 N171 N 0.55628 0.44443 -0.09379
 N172 N 0.56865 0.41076 -0.13196
 Mn173 Mn 0.59303 0.50031 0.00052
 C174 C 0.61447 0.38943 -0.11477
 C175 C 0.61418 0.60987 -0.11544
 N176 N 0.40634 0.55589 -0.05678
 N177 N 0.36924 0.59041 -0.06824
 N178 N 0.44237 0.44471 -0.09327
 N179 N 0.43067 0.41026 -0.13087
 N180 N 0.40542 0.44565 -0.05652
 N181 N 0.36747 0.41202 -0.06836
 N182 N 0.44260 0.55496 -0.09420
 N183 N 0.43094 0.58866 -0.13229
 Mn184 Mn 0.40536 0.50131 0.00078
 Mn185 Mn 0.49939 0.49965 -0.09437
 Cl186 Cl 0.49925 0.50067 0.00068
 C187 C 0.38566 0.61101 -0.11493
 C188 C 0.38435 0.38967 -0.11426
 C189 C 1.17630 0.19678 0.12848
 C190 C 1.15881 0.22599 0.17964
 C191 C 1.20937 0.20730 0.20765
 C192 C 1.22728 0.17835 0.15686
 C193 C 1.18105 0.15758 0.22749
 C194 C 1.13013 0.17600 0.19923
 C195 C 1.14808 0.14712 0.14849
 C196 C 1.19858 0.12821 0.17634
 H197 H 1.17418 0.21265 0.08738
 H198 H 1.14271 0.26654 0.18132
 H199 H 1.26768 0.17983 0.13979
 H200 H 1.18326 0.14178 0.26861
 H201 H 1.08978 0.17473 0.21643
 H202 H 1.21465 0.08764 0.17469
 C203 C 1.19803 0.67443 0.62830
 C204 C 1.18052 0.72555 0.65690
 C205 C 1.20919 0.70730 0.70759
 C206 C 1.22709 0.65654 0.67941
 C207 C 1.15883 0.67994 0.72752
 C208 C 1.12981 0.69795 0.67655
 C209 C 1.14773 0.64723 0.64845
 C210 C 1.17631 0.62881 0.69908
 H211 H 1.21387 0.67182 0.58713
 H212 H 1.18258 0.76572 0.63988
 H213 H 1.26755 0.63988 0.68098
 H214 H 1.14292 0.68258 0.76866
 H215 H 1.08939 0.71475 0.67513
 H216 H 1.17440 0.58867 0.71620
 C217 C 0.69757 0.17500 0.62776
 C218 C 0.67883 0.22571 0.65636
 C219 C 0.70762 0.20784 0.70716
 C220 C 0.72661 0.15755 0.67893
 C221 C 0.65761 0.17951 0.72668
 C222 C 0.62840 0.19701 0.67552
 C223 C 0.64761 0.14678 0.64745
 C224 C 0.67632 0.12887 0.69821
 H225 H 0.71379 0.17299 0.58670
 H226 H 0.68034 0.26597 0.63950
 H227 H 0.76734 0.14156 0.68067
 H228 H 0.64150 0.18166 0.76777
 H229 H 0.58766 0.21298 0.67383
 H230 H 0.67503 0.08866 0.71522
 C231 C 0.69703 0.67610 0.12767
 C232 C 0.67837 0.72659 0.15669
 C233 C 0.70742 0.70835 0.20717
 C234 C 0.72635 0.65830 0.17855
 C235 C 0.65758 0.67990 0.22685
 C236 C 0.62809 0.69775 0.17600
 C237 C 0.64724 0.64776 0.14754
 C238 C 0.67623 0.62950 0.19797
 H239 H 0.71293 0.67432 0.08649
 H240 H 0.67980 0.76698 0.14014
 H241 H 0.76712 0.64238 0.17998
 H242 H 0.64173 0.68177 0.26805
 H243 H 0.58730 0.71363 0.17461
 H244 H 0.67501 0.58916 0.21467
 C245 C 0.80357 -0.17465 0.12874
 C246 C 0.82103 -0.22570 0.15717
 C247 C 0.79220 -0.20735 0.20785
 C248 C 0.77435 -0.15666 0.17984
 C249 C 0.84249 -0.17992 0.22805
 C250 C 0.87166 -0.19803 0.17709
 C251 C 0.85379 -0.14739 0.14916
 C252 C 0.82506 -0.12887 0.19979
 H253 H 0.78785 -0.17213 0.08754
 H254 H 0.81902 -0.26591 0.13999
 H255 H 0.73387 -0.14003 0.18138
 H256 H 0.85829 -0.18245 0.26922
 H257 H 0.91210 -0.21480 0.17572
 H258 H 0.82690 -0.08869 0.21707
 C259 C 0.80363 0.32524 0.62805
 C260 C 0.82137 0.27430 0.65656
 C261 C 0.79269 0.29263 0.70736
 C262 C 0.77459 0.34322 0.67926
 C263 C 0.84302 0.32032 0.72719
 C264 C 0.87204 0.30223 0.67610
 C265 C 0.85389 0.35277 0.64809
 C266 C 0.82530 0.37125 0.69885
 H267 H 0.78764 0.32754 0.58694
 H268 H 0.81945 0.23405 0.63946
 H269 H 0.73407 0.35977 0.68091
 H270 H 0.85903 0.31796 0.76829
 H271 H 0.91251 0.28555 0.67460
 H272 H 0.82703 0.41146 0.71609
 C273 C 0.30354 -0.17617 0.62785
 C274 C 0.32279 -0.22641 0.65661
 C275 C 0.29384 -0.20827 0.70730
 C276 C 0.27433 -0.15847 0.67893
 C277 C 0.34352 -0.17933 0.72681
 C278 C 0.37292 -0.19706 0.67574
 C279 C 0.35318 -0.14732 0.64754
 C280 C 0.32429 -0.12917 0.69818
 H281 H 0.28738 -0.17467 0.58677
 H282 H 0.32164 -0.26686 0.63993
 H283 H 0.23344 -0.14287 0.68059
 H284 H 0.35957 -0.18098 0.76794
 H285 H 0.41384 -0.21258 0.67408
 H286 H 0.32522 -0.08877 0.71502
 C287 C 0.37249 0.32489 0.19835
 C288 C 0.32155 0.34197 0.22755
 C289 C 0.29395 0.29192 0.20735
 C290 C 0.34451 0.27440 0.17841
 C291 C 0.27477 0.32080 0.15723
 C292 C 0.30262 0.37120 0.17715
 C293 C 0.35315 0.35369 0.14828
 C294 C 0.32572 0.30370 0.12783
 H295 H 0.41304 0.32678 0.21499
 H296 H 0.31949 0.35745 0.26890
 H297 H 0.36131 0.23411 0.17940
 H298 H 0.23418 0.31873 0.14069
 H299 H 0.28565 0.41143 0.17636
 H300 H 0.32780 0.28831 0.08644
 C301 C 0.80363 0.17476 -0.12806
 C302 C 0.82137 0.22570 -0.15657
 C303 C 0.79269 0.20737 -0.20737
 C304 C 0.77459 0.15678 -0.17927
 C305 C 0.84302 0.17968 -0.22720
 C306 C 0.87204 0.19777 -0.17611
 C307 C 0.85389 0.14723 -0.14810
 C308 C 0.82530 0.12874 -0.19886
 H309 H 0.78764 0.17246 -0.08694
 H310 H 0.81945 0.26595 -0.13947
 H311 H 0.73408 0.14023 -0.18092
 H312 H 0.85903 0.18204 -0.26830
 H313 H 0.91251 0.21445 -0.17461
 H314 H 0.82703 0.08854 -0.21610
 C315 C 0.82506 0.62887 0.30020
 C316 C 0.77435 0.65666 0.32015
 C317 C 0.79220 0.70735 0.29214
 C318 C 0.84249 0.67992 0.27194
 C319 C 0.82102 0.72570 0.34281
 C320 C 0.80357 0.67465 0.37125
 C321 C 0.85379 0.64739 0.35083
 C322 C 0.87166 0.69803 0.32290
 H323 H 0.82690 0.58869 0.28292
 H324 H 0.73387 0.64003 0.31861
 H325 H 0.85829 0.68245 0.23077
 H326 H 0.81902 0.76591 0.36000
 H327 H 0.78784 0.67213 0.41245
 H328 H 0.91210 0.71480 0.32427
 C329 C 0.32572 0.19630 0.37216
 C330 C 0.34451 0.22560 0.32158
 C331 C 0.29395 0.20808 0.29264
 C332 C 0.27477 0.17920 0.34277
 C333 C 0.32155 0.15803 0.27244
 C334 C 0.37249 0.17511 0.30164
 C335 C 0.35315 0.14631 0.35171
 C336 C 0.30262 0.12880 0.32284
 H337 H 0.32780 0.21169 0.41355
 H338 H 0.36131 0.26589 0.32059
 H339 H 0.23418 0.18127 0.35930
 H340 H 0.31949 0.14255 0.23109
 H341 H 0.41304 0.17322 0.28500
 H342 H 0.28565 0.08857 0.32362
 C343 C 0.30354 0.67617 -0.12787
 C344 C 0.32279 0.72641 -0.15662
 C345 C 0.29384 0.70827 -0.20731
 C346 C 0.27433 0.65847 -0.17894
 C347 C 0.34352 0.67933 -0.22682
 C348 C 0.37292 0.69706 -0.17575
 C349 C 0.35318 0.64732 -0.14755
 C350 C 0.32429 0.62917 -0.19819
 H351 H 0.28738 0.67467 -0.08678
 H352 H 0.32164 0.76686 -0.13994
 H353 H 0.23344 0.64287 -0.18061
 H354 H 0.35957 0.68097 -0.26795
 H355 H 0.41384 0.71258 -0.17409
 H356 H 0.32522 0.58877 -0.21503
 C357 C 1.19803 -0.17443 -0.12831
 C358 C 1.18052 -0.22555 -0.15691
 C359 C 1.20919 -0.20730 -0.20760
 C360 C 1.22709 -0.15654 -0.17942
 C361 C 1.15883 -0.17995 -0.22753
 C362 C 1.12981 -0.19795 -0.17656
 C363 C 1.14774 -0.14723 -0.14847
 C364 C 1.17631 -0.12881 -0.19910
 H365 H 1.21388 -0.17182 -0.08714
 H366 H 1.18258 -0.26572 -0.13989
 H367 H 1.26755 -0.13988 -0.18099
 H368 H 1.14292 -0.18258 -0.26867
 H369 H 1.08939 -0.21475 -0.17514
 H370 H 1.17440 -0.08867 -0.21621
 C371 C 1.13013 0.32400 0.30076
 C372 C 1.18105 0.34242 0.27250
 C373 C 1.20937 0.29270 0.29234
 C374 C 1.15881 0.27401 0.32035
 C375 C 1.22728 0.32165 0.34313
 C376 C 1.19858 0.37179 0.32365
 C377 C 1.14808 0.35288 0.35150
 C378 C 1.17630 0.30322 0.37151
 H379 H 1.08978 0.32527 0.28356
 H380 H 1.18326 0.35822 0.23138
 H381 H 1.14271 0.23346 0.31867
 H382 H 1.26767 0.32017 0.36020
 H383 H 1.21465 0.41236 0.32530
 H384 H 1.17418 0.28735 0.41261
 C385 C 0.67623 -0.12950 0.30202
 C386 C 0.72635 -0.15830 0.32144
 C387 C 0.70742 -0.20835 0.29282
 C388 C 0.65758 -0.17990 0.27314
 C389 C 0.67836 -0.22659 0.34330
 C390 C 0.69703 -0.17610 0.37231
 C391 C 0.64724 -0.14776 0.35245
 C392 C 0.62809 -0.19775 0.32399
 H393 H 0.67501 -0.08916 0.28532
 H394 H 0.76712 -0.14238 0.32001
 H395 H 0.64173 -0.18177 0.23194
 H396 H 0.67980 -0.26698 0.35985
 H397 H 0.71293 -0.17432 0.41350
 H398 H 0.58730 -0.21363 0.32538
 C399 C 0.67632 0.37113 -0.19822
 C400 C 0.72661 0.34245 -0.17894
 C401 C 0.70762 0.29216 -0.20717
 C402 C 0.65761 0.32049 -0.22669
 C403 C 0.67883 0.27429 -0.15637
 C404 C 0.69757 0.32499 -0.12777
 C405 C 0.64761 0.35322 -0.14746
 C406 C 0.62840 0.30299 -0.17553
 H407 H 0.67503 0.41134 -0.21523
 H408 H 0.76734 0.35844 -0.18068
 H409 H 0.64150 0.31834 -0.26778
 H410 H 0.68034 0.23402 -0.13951
 H411 H 0.71379 0.32700 -0.08671
 H412 H 0.58766 0.28702 -0.17384
 C413 C 1.17461 0.19697 -0.12847
 C414 C 1.22551 0.17850 -0.15708
 C415 C 1.20740 0.20721 -0.20777
 C416 C 1.15689 0.22592 -0.17952
 C417 C 1.17906 0.15734 -0.22757
 C418 C 1.19681 0.12822 -0.17652
 C419 C 1.14636 0.14715 -0.14842
 C420 C 1.12820 0.17578 -0.19906
 H421 H 1.17264 0.21307 -0.08735
 H422 H 1.26595 0.18007 -0.14013
 H423 H 1.14071 0.26644 -0.18108
 H424 H 1.18116 0.14136 -0.26873
 H425 H 1.21297 0.08770 -0.17502
 H426 H 1.08780 0.17440 -0.21613
 C427 C 1.12965 0.69947 0.32146
 C428 C 1.18013 0.72768 0.34124
 C429 C 1.20922 0.70934 0.29064
 C430 C 1.15909 0.68139 0.27057
 C431 C 1.22732 0.65885 0.31901
 C432 C 1.19781 0.67683 0.37000
 C433 C 1.14774 0.64901 0.34974
 C434 C 1.17677 0.63056 0.29920
 H435 H 1.08914 0.71607 0.32259
 H436 H 1.18160 0.76788 0.35852
 H437 H 1.14300 0.68331 0.22948
 H438 H 1.26779 0.64219 0.31794
 H439 H 1.21361 0.67472 0.41119
 H440 H 1.17534 0.59034 0.28199
 C441 C 0.69590 0.17503 0.37173
 C442 C 0.72534 0.15781 0.32061
 C443 C 0.70600 0.20792 0.29261
 C444 C 0.67681 0.22555 0.34336
 C445 C 0.65636 0.17911 0.27266
 C446 C 0.67544 0.12867 0.30090
 C447 C 0.64632 0.14632 0.35161
 C448 C 0.62674 0.19636 0.32378
 H449 H 0.71193 0.17317 0.41286
 H450 H 0.76623 0.14221 0.31902
 H451 H 0.67791 0.26585 0.36044
 H452 H 0.64044 0.18110 0.23150
 H453 H 0.67461 0.08844 0.28364
 H454 H 0.58584 0.21191 0.32536
 C455 C 0.69674 0.67477 -0.12834
 C456 C 0.72566 0.65750 -0.17975
 C457 C 0.70623 0.70769 -0.20754
 C458 C 0.67756 0.72537 -0.15649
 C459 C 0.65633 0.67909 -0.22707
 C460 C 0.67548 0.62855 -0.19903
 C461 C 0.64689 0.64626 -0.14803
 C462 C 0.62724 0.69638 -0.17565
 H463 H 0.71314 0.67282 -0.08737
 H464 H 0.76647 0.64175 -0.18177
 H465 H 0.67891 0.76564 -0.13938
 H466 H 0.64006 0.68120 -0.26808
 H467 H 0.67435 0.58833 -0.21630
 H468 H 0.58640 0.71208 -0.17366
 C469 C 0.82418 -0.12932 -0.19794
 C470 C 0.84150 -0.18021 -0.22690
 C471 C 0.79115 -0.20771 -0.20706
 C472 C 0.77344 -0.15716 -0.17833
 C473 C 0.82003 -0.22640 -0.15663
 C474 C 0.87071 -0.19867 -0.17620
 C475 C 0.85297 -0.14816 -0.14756
 C476 C 0.80270 -0.17550 -0.12748
 H477 H 0.82603 -0.08905 -0.21475
 H478 H 0.85728 -0.18245 -0.26811
 H479 H 0.73299 -0.14043 -0.17961
 H480 H 0.81799 -0.26671 -0.13995
 H481 H 0.91111 -0.21554 -0.17510
 H482 H 0.78699 -0.17327 -0.08624
 C483 C 0.82433 0.37144 0.29999
 C484 C 0.84146 0.32003 0.27184
 C485 C 0.79113 0.29292 0.29230
 C486 C 0.77360 0.34398 0.32021
 C487 C 0.82014 0.27502 0.34294
 C488 C 0.87080 0.30236 0.32275
 C489 C 0.85324 0.35338 0.35057
 C490 C 0.80298 0.32643 0.37127
 H491 H 0.82620 0.41142 0.28249
 H492 H 0.85714 0.31709 0.23063
 H493 H 0.73317 0.36075 0.31883
 H494 H 0.81807 0.23500 0.36032
 H495 H 0.91117 0.28545 0.32397
 H496 H 0.78739 0.32938 0.41251
 C497 C 0.30094 -0.17681 0.37029
 C498 C 0.27142 -0.15940 0.31934
 C499 C 0.29051 -0.20955 0.29082
 C500 C 0.31974 -0.22739 0.34141
 C501 C 0.34027 -0.18085 0.27108
 C502 C 0.32147 -0.13037 0.29987
 C503 C 0.35065 -0.14819 0.35042
 C504 C 0.36991 -0.19828 0.32205
 H505 H 0.28491 -0.17506 0.41143
 H506 H 0.23070 -0.14335 0.31821
 H507 H 0.31874 -0.26761 0.35842
 H508 H 0.35643 -0.18253 0.22999
 H509 H 0.32237 -0.09013 0.28290
 H510 H 0.41072 -0.21409 0.32336
 C511 C 0.30130 0.37110 -0.17583
 C512 C 0.32007 0.34189 -0.22651
 C513 C 0.29214 0.29192 -0.20686
 C514 C 0.27312 0.32077 -0.15645
 C515 C 0.34259 0.27405 -0.17801
 C516 C 0.37088 0.32443 -0.19742
 C517 C 0.35171 0.35321 -0.14706
 C518 C 0.32395 0.30330 -0.12716
 H519 H 0.28454 0.41141 -0.17467
 H520 H 0.31814 0.35753 -0.26772
 H521 H 0.23250 0.31891 -0.13996
 H522 H 0.35920 0.23368 -0.17936
 H523 H 0.41145 0.32610 -0.21405
 H524 H 0.32587 0.28773 -0.08593
 C525 C 1.17678 -0.13056 0.20079
 C526 C 1.15909 -0.18139 0.22942
 C527 C 1.20923 -0.20934 0.20935
 C528 C 1.22732 -0.15885 0.18098
 C529 C 1.18013 -0.22768 0.15875
 C530 C 1.12966 -0.19947 0.17853
 C531 C 1.14774 -0.14901 0.15025
 C532 C 1.19781 -0.17683 0.12999
 H533 H 1.17534 -0.09034 0.21800
 H534 H 1.14300 -0.18331 0.27051
 H535 H 1.26779 -0.14219 0.18205
 H536 H 1.18160 -0.26788 0.14147
 H537 H 1.08914 -0.21607 0.17740
 H538 H 1.21361 -0.17472 0.08880
 C539 C 1.17461 0.30303 0.62846
 C540 C 1.22551 0.32150 0.65707
 C541 C 1.20740 0.29279 0.70776
 C542 C 1.15689 0.27408 0.67951
 C543 C 1.17906 0.34266 0.72756
 C544 C 1.19680 0.37178 0.67651
 C545 C 1.14636 0.35285 0.64841
 C546 C 1.12820 0.32422 0.69905
 H547 H 1.17264 0.28693 0.58734
 H548 H 1.26595 0.31993 0.64012
 H549 H 1.14071 0.23356 0.68107
 H550 H 1.18116 0.35864 0.76872
 H551 H 1.21297 0.41230 0.67501
 H552 H 1.08780 0.32560 0.71612
 C553 C 0.62724 -0.19638 0.67564
 C554 C 0.67756 -0.22537 0.65648
 C555 C 0.70623 -0.20769 0.70753
 C556 C 0.65633 -0.17909 0.72706
 C557 C 0.72566 -0.15750 0.67974
 C558 C 0.69674 -0.17477 0.62833
 C559 C 0.64689 -0.14626 0.64802
 C560 C 0.67548 -0.12855 0.69902
 H561 H 0.58640 -0.21208 0.67365
 H562 H 0.67891 -0.26564 0.63937
 H563 H 0.64006 -0.18120 0.76807
 H564 H 0.76647 -0.14175 0.68176
 H565 H 0.71314 -0.17282 0.58736
 H566 H 0.67435 -0.08833 0.71629
 C567 C 0.69590 0.32497 0.12826
 C568 C 0.72534 0.34218 0.17938
 C569 C 0.70600 0.29208 0.20738
 C570 C 0.67681 0.27445 0.15663
 C571 C 0.65636 0.32089 0.22733
 C572 C 0.67544 0.37133 0.19909
 C573 C 0.64632 0.35368 0.14838
 C574 C 0.62674 0.30364 0.17621
 H575 H 0.71193 0.32683 0.08713
 H576 H 0.76623 0.35779 0.18097
 H577 H 0.67791 0.23415 0.13955
 H578 H 0.64044 0.31889 0.26849
 H579 H 0.67461 0.41155 0.21635
 H580 H 0.58584 0.28809 0.17463
 C581 C 0.82433 0.12856 0.20000
 C582 C 0.84146 0.17997 0.22815
 C583 C 0.79113 0.20708 0.20769
 C584 C 0.77360 0.15602 0.17978
 C585 C 0.82014 0.22497 0.15705
 C586 C 0.87080 0.19764 0.17724
 C587 C 0.85324 0.14662 0.14942
 C588 C 0.80299 0.17357 0.12872
 H589 H 0.82620 0.08858 0.21750
 H590 H 0.85714 0.18291 0.26936
 H591 H 0.73317 0.13925 0.18116
 H592 H 0.81807 0.26500 0.13967
 H593 H 0.91117 0.21455 0.17601
 H594 H 0.78739 0.17062 0.08748
 C595 C 0.80269 0.67550 0.62747
 C596 C 0.77344 0.65716 0.67832
 C597 C 0.79115 0.70771 0.70706
 C598 C 0.82002 0.72640 0.65662
 C599 C 0.84150 0.68021 0.72689
 C600 C 0.82418 0.62932 0.69793
 C601 C 0.85297 0.64816 0.64755
 C602 C 0.87071 0.69867 0.67619
 H603 H 0.78699 0.67327 0.58623
 H604 H 0.73299 0.64043 0.67960
 H605 H 0.81799 0.76671 0.63994
 H606 H 0.85728 0.68245 0.76810
 H607 H 0.82602 0.58905 0.71474
 H608 H 0.91111 0.71554 0.67509
 C609 C 0.30130 0.12890 0.67582
 C610 C 0.32007 0.15811 0.72650
 C611 C 0.29214 0.20808 0.70685
 C612 C 0.27312 0.17923 0.65644
 C613 C 0.34259 0.22595 0.67800
 C614 C 0.37088 0.17557 0.69741
 C615 C 0.35171 0.14679 0.64705
 C616 C 0.32395 0.19670 0.62715
 H617 H 0.28454 0.08859 0.67466
 H618 H 0.31814 0.14247 0.76770
 H619 H 0.23250 0.18109 0.63995
 H620 H 0.35920 0.26632 0.67935
 H621 H 0.41145 0.17390 0.71404
 H622 H 0.32587 0.21227 0.58592
 C623 C 0.32147 0.63037 0.20012
 C624 C 0.34027 0.68085 0.22891
 C625 C 0.29051 0.70955 0.20917
 C626 C 0.27142 0.65940 0.18065
 C627 C 0.31974 0.72739 0.15858
 C628 C 0.36991 0.69828 0.17794
 C629 C 0.35065 0.64819 0.14957
 C630 C 0.30094 0.67681 0.12970
 H631 H 0.32237 0.59013 0.21709
 H632 H 0.35643 0.68253 0.27000
 H633 H 0.23070 0.64335 0.18178
 H634 H 0.31874 0.76761 0.14157
 H635 H 0.41072 0.71409 0.17663
 H636 H 0.28491 0.67506 0.08856
   
