data_POSCAR
  _audit_creation_date              2014-09-24
  _audit_creation_method            'ToBaCCo'
  _symmetry_space_group_name_H-M    'P1'
  _symmetry_Int_Tables_number       1
  _symmetry_cell_setting            triclinic
  loop_
  _symmetry_equiv_pos_as_xyz
 x,y,z
_cell_length_a 39.0936
_cell_length_b 38.8558
_cell_length_c 37.9525
_cell_angle_alpha 89.901700
_cell_angle_beta 91.070900
_cell_angle_gamma 84.026500
loop_
  _atom_site_label
  _atom_site_type_symbol
  _atom_site_fract_x
  _atom_site_fract_y
  _atom_site_fract_z
N1 N 0.30318 0.20523 0.18454
 N2 N 0.28537 0.22605 0.16202
 C3 C 0.30480 0.23049 0.13374
 C4 C 0.33616 0.21090 0.13876
 C5 C 0.33426 0.19530 0.17129
 H6 H 0.29692 0.24692 0.11138
 H7 H 0.35439 0.17897 0.18494
 Cu8 Cu 0.23904 0.24614 0.17266
 Cu9 Cu 0.28630 0.19514 0.23077
 Cu10 Cu 0.19852 0.21297 0.23993
 N11 N 0.19628 0.26917 0.19058
 N12 N 0.18105 0.25666 0.21768
 C13 C 0.15335 0.27845 0.22592
 C14 C 0.15091 0.30585 0.20247
 C15 C 0.17847 0.29914 0.18028
 H16 H 0.13641 0.27473 0.24751
 H17 H 0.18575 0.31549 0.15919
 N18 N 0.22685 0.18019 0.27053
 N19 N 0.26066 0.17526 0.26845
 C20 C 0.27312 0.15332 0.29416
 C21 C 0.24575 0.14383 0.31313
 C22 C 0.21677 0.16118 0.29736
 H23 H 0.30001 0.14422 0.29815
 H24 H 0.19041 0.16062 0.30533
 H25 H 0.23941 0.19319 0.20775
 H26 H 0.24402 0.23220 0.23542
 N27 N 0.70093 -0.19626 0.18468
 N28 N 0.71555 -0.21805 0.16166
 C29 C 0.69351 -0.22103 0.13440
 C30 C 0.66348 -0.19977 0.14063
 C31 C 0.66924 -0.18441 0.17287
 H32 H 0.69869 -0.23778 0.11197
 H33 H 0.65155 -0.16678 0.18740
 Cu34 Cu 0.76135 -0.24152 0.17061
 Cu35 Cu 0.72279 -0.18726 0.22970
 Cu36 Cu 0.81065 -0.21044 0.23380
 N37 N 0.80403 -0.26744 0.18699
 N38 N 0.82332 -0.25512 0.21171
 C39 C 0.85059 -0.27833 0.21872
 C40 C 0.84825 -0.30691 0.19738
 C41 C 0.81837 -0.29895 0.17735
 H42 H 0.87028 -0.27491 0.23846
 H43 H 0.80724 -0.31506 0.15797
 N44 N 0.78704 -0.17651 0.26587
 N45 N 0.75327 -0.16953 0.26569
 C46 C 0.74439 -0.14827 0.29268
 C47 C 0.77403 -0.14144 0.31062
 C48 C 0.80065 -0.15955 0.29277
 H49 H 0.71829 -0.13830 0.29865
 H50 H 0.82773 -0.16141 0.29974
 H51 H 0.76766 -0.18850 0.20393
 H52 H 0.76334 -0.22654 0.23295
 N53 N 0.75099 0.19858 0.81846
 N54 N 0.76067 0.22386 0.83800
 C55 C 0.73996 0.22816 0.86597
 C56 C 0.71612 0.20423 0.86374
 C57 C 0.72393 0.18588 0.83322
 H58 H 0.74111 0.24811 0.88567
 H59 H 0.71000 0.16604 0.82151
 Cu60 Cu 0.79669 0.25085 0.82205
 Cu61 Cu 0.77118 0.18700 0.77303
 Cu62 Cu 0.85077 0.21701 0.76080
 N63 N 0.83463 0.27529 0.80644
 N64 N 0.85525 0.26226 0.78174
 C65 C 0.87821 0.28471 0.77463
 C66 C 0.87161 0.31346 0.79598
 C67 C 0.84378 0.30646 0.81598
 H68 H 0.89803 0.28053 0.75512
 H69 H 0.83054 0.32305 0.83530
 N70 N 0.83421 0.17900 0.73292
 N71 N 0.80347 0.16855 0.73703
 C72 C 0.79883 0.14363 0.71346
 C73 C 0.82796 0.13805 0.69342
 C74 C 0.84998 0.16094 0.70643
 H75 H 0.77585 0.13048 0.71098
 H76 H 0.87518 0.16481 0.69688
 H77 H 0.81693 0.19583 0.79502
 H78 H 0.79931 0.22883 0.76187
 N79 N 0.23497 -0.19837 0.82550
 N80 N 0.23446 -0.23081 0.83516
 C81 C 0.25662 -0.23765 0.86250
 C82 C 0.27146 -0.20775 0.87059
 C83 C 0.25703 -0.18332 0.84664
 H84 H 0.26248 -0.26275 0.87481
 H85 H 0.26406 -0.15737 0.84312
 Cu86 Cu 0.20665 -0.26167 0.80972
 Cu87 Cu 0.21244 -0.18017 0.78233
 Cu88 Cu 0.15617 -0.23066 0.74103
 N89 N 0.16934 -0.28614 0.79102
 N90 N 0.14976 -0.27416 0.76428
 C91 C 0.12661 -0.29658 0.75682
 C92 C 0.13185 -0.32410 0.78024
 C93 C 0.15924 -0.31649 0.80163
 H94 H 0.10736 -0.29315 0.73591
 H95 H 0.17112 -0.33171 0.82327
 N96 N 0.16649 -0.18574 0.72204
 N97 N 0.18777 -0.16642 0.73812
 C98 C 0.19237 -0.13925 0.71739
 C99 C 0.17303 -0.14144 0.68683
 C100 C 0.15676 -0.17117 0.69069
 H101 H 0.20997 -0.12021 0.72313
 H102 H 0.14078 -0.18249 0.67126
 H103 H 0.17200 -0.21044 0.78795
 H104 H 0.20656 -0.22650 0.75654
 N105 N 0.69053 -0.20803 0.80302
 N106 N 0.69412 -0.24180 0.79885
 C107 C 0.66954 -0.25566 0.81685
 C108 C 0.64988 -0.22918 0.83377
 C109 C 0.66398 -0.19928 0.82446
 H110 H 0.66716 -0.28309 0.81866
 H111 H 0.65551 -0.17316 0.83261
 Cu112 Cu 0.73244 -0.26516 0.77286
 Cu113 Cu 0.72036 -0.17889 0.77896
 Cu114 Cu 0.80027 -0.21551 0.76525
 N115 N 0.78029 -0.28499 0.76521
 N116 N 0.80658 -0.26629 0.76710
 C117 C 0.83609 -0.28747 0.76672
 C118 C 0.82794 -0.32115 0.76322
 C119 C 0.79228 -0.31857 0.76215
 H120 H 0.86154 -0.27886 0.76743
 H121 H 0.77618 -0.33957 0.76128
 N122 N 0.78354 -0.17045 0.74476
 N123 N 0.75195 -0.15634 0.74977
 C124 C 0.74576 -0.12797 0.72930
 C125 C 0.77506 -0.12416 0.71024
 C126 C 0.79855 -0.15148 0.72094
 H127 H 0.72106 -0.11275 0.72679
 H128 H 0.82391 -0.15830 0.71049
 H129 H 0.75356 -0.22549 0.74716
 H130 H 0.75934 -0.22956 0.79591
 N131 N 0.28796 0.20072 0.83171
 N132 N 0.26696 0.21798 0.85363
 C133 C 0.28477 0.22633 0.88246
 C134 C 0.31889 0.21366 0.87842
 C135 C 0.31993 0.19733 0.84600
 H136 H 0.27380 0.24152 0.90409
 H137 H 0.34251 0.18519 0.83314
 Cu138 Cu 0.21915 0.23154 0.84131
 Cu139 Cu 0.27262 0.18694 0.78507
 Cu140 Cu 0.18534 0.20242 0.76703
 N141 N 0.17749 0.25484 0.81992
 N142 N 0.16518 0.24444 0.78975
 C143 C 0.13854 0.26705 0.77912
 C144 C 0.13372 0.29265 0.80431
 C145 C 0.15876 0.28408 0.82992
 H146 H 0.12411 0.26526 0.75471
 H147 H 0.16414 0.29900 0.85304
 N148 N 0.21622 0.17112 0.73871
 N149 N 0.24979 0.16637 0.74442
 C150 C 0.26395 0.14496 0.71953
 C151 C 0.23788 0.13573 0.69738
 C152 C 0.20800 0.15266 0.71044
 H153 H 0.29106 0.13623 0.71802
 H154 H 0.18223 0.15214 0.69969
 H155 H 0.22966 0.22262 0.77880
 H156 H 0.22461 0.18126 0.80239
 N157 N 0.24212 -0.19820 0.16809
 N158 N 0.22634 -0.22038 0.14928
 C159 C 0.24526 -0.22981 0.12096
 C160 C 0.27455 -0.21258 0.12200
 C161 C 0.27159 -0.19264 0.15221
 H162 H 0.23851 -0.24848 0.10163
 H163 H 0.29009 -0.17619 0.16245
 Cu164 Cu 0.18370 -0.23688 0.16434
 Cu165 Cu 0.22452 -0.18018 0.21303
 Cu166 Cu 0.15809 -0.22096 0.24719
 N167 N 0.15068 -0.26369 0.18650
 N168 N 0.14214 -0.25835 0.21953
 C169 C 0.12140 -0.28200 0.22935
 C170 C 0.11629 -0.30302 0.20086
 C171 C 0.13518 -0.29068 0.17397
 H172 H 0.11090 -0.28395 0.25535
 H173 H 0.13857 -0.30140 0.14783
 N174 N 0.17737 -0.18236 0.27108
 N175 N 0.20268 -0.16653 0.25820
 C176 C 0.21016 -0.14155 0.28087
 C177 C 0.18835 -0.14167 0.30922
 C178 C 0.16795 -0.16790 0.30204
 H179 H 0.23008 -0.12461 0.27720
 H180 H 0.14791 -0.17616 0.31828
 H181 H 0.20573 -0.22650 0.22300
 H182 H 0.17402 -0.19010 0.20678
 N183 N 0.75433 0.20403 0.18822
 N184 N 0.75569 0.23646 0.17891
 C185 C 0.73238 0.24482 0.15296
 C186 C 0.71585 0.21595 0.14526
 C187 C 0.73042 0.19045 0.16807
 H188 H 0.72768 0.27003 0.14064
 H189 H 0.72309 0.16452 0.17084
 Cu190 Cu 0.78755 0.26499 0.20132
 Cu191 Cu 0.78080 0.18349 0.22843
 Cu192 Cu 0.84448 0.23006 0.26246
 N193 N 0.82838 0.28677 0.21430
 N194 N 0.85031 0.27347 0.23858
 C195 C 0.87539 0.29442 0.24297
 C196 C 0.86898 0.32212 0.21997
 C197 C 0.83890 0.31640 0.20215
 H198 H 0.89676 0.28989 0.26149
 H199 H 0.82531 0.33278 0.18229
 N200 N 0.83422 0.18550 0.28252
 N201 N 0.81009 0.16762 0.26937
 C202 C 0.80770 0.13975 0.28999
 C203 C 0.83149 0.14004 0.31738
 C204 C 0.84794 0.16940 0.31174
 H205 H 0.78912 0.12126 0.28622
 H206 H 0.86741 0.17915 0.32844
 H207 H 0.79212 0.22830 0.25363
 H208 H 0.82165 0.21150 0.21777
 C209 C 0.21417 -0.01746 0.46816
 C210 C 0.21986 0.01789 0.46897
 C211 C 0.22241 0.03465 0.50142
 C212 C 0.21775 0.01746 0.53313
 C213 C 0.21165 -0.01781 0.53256
 C214 C 0.20975 -0.03471 0.50003
 H215 H 0.20567 -0.06189 0.49956
 H216 H 0.22612 0.06193 0.50189
 C217 C 0.81638 0.00943 0.53639
 C218 C 0.81462 -0.02670 0.53707
 C219 C 0.81443 -0.04481 0.50513
 C220 C 0.81587 -0.02773 0.47270
 C221 C 0.81827 0.00836 0.47203
 C222 C 0.81915 0.02631 0.50404
 H223 H 0.82030 0.05409 0.50373
 H224 H 0.81275 -0.07250 0.50549
 C225 C 0.49094 0.23409 0.01681
 C226 C 0.49387 0.22543 -0.01937
 C227 C 0.52649 0.22389 -0.03469
 C228 C 0.55594 0.22977 -0.01479
 C229 C 0.55283 0.23711 0.02148
 C230 C 0.52038 0.23965 0.03671
 H231 H 0.51814 0.24490 0.06469
 H232 H 0.52902 0.21876 -0.06263
 C233 C 0.44342 0.78093 -0.01981
 C234 C 0.44553 0.78873 0.01649
 C235 C 0.47814 0.79128 0.03198
 C236 C 0.50821 0.78792 0.01199
 C237 C 0.50536 0.78318 -0.02491
 C238 C 0.47322 0.77844 -0.04004
 H239 H 0.47107 0.77423 -0.06821
 H240 H 0.48028 0.79489 0.06021
 C241 C -0.01214 0.47212 0.23457
 C242 C 0.02405 0.47060 0.23800
 C243 C 0.03989 0.50127 0.23850
 C244 C 0.02052 0.53354 0.23513
 C245 C -0.01568 0.53533 0.23106
 C246 C -0.03148 0.50446 0.23049
 H247 H -0.05926 0.50566 0.22797
 H248 H 0.06771 0.49996 0.24058
 C249 C 0.01324 0.52825 0.76252
 C250 C -0.02299 0.52947 0.76669
 C251 C -0.03781 0.49795 0.76858
 C252 C -0.01787 0.46585 0.76685
 C253 C 0.01809 0.46505 0.76379
 C254 C 0.03312 0.49605 0.76147
 H255 H 0.06083 0.49507 0.75918
 H256 H -0.06537 0.49825 0.77149
 C257 C 0.39954 0.23593 0.07454
 C258 C 0.42417 0.20690 0.07555
 N259 N 0.41930 0.17962 0.09654
 C260 C 0.39099 0.18009 0.11681
 C261 C 0.36622 0.20906 0.11587
 N262 N 0.37105 0.23627 0.09451
 N263 N 0.40511 0.26373 0.05451
 C264 C 0.43418 0.26375 0.03537
 C265 C 0.45843 0.23441 0.03577
 N266 N 0.45296 0.20678 0.05616
 H267 H 0.38783 0.15802 0.13341
 H268 H 0.43837 0.28634 0.01993
 C269 C 0.60227 0.78502 0.07017
 C270 C 0.57388 0.80830 0.07888
 N271 N 0.57585 0.82896 0.10744
 C272 C 0.60486 0.82727 0.12796
 C273 C 0.63349 0.80375 0.11954
 N274 N 0.63134 0.78337 0.09052
 N275 N 0.59989 0.76359 0.04224
 C276 C 0.57037 0.76439 0.02257
 C277 C 0.54184 0.78798 0.03096
 N278 N 0.54446 0.80922 0.05921
 H279 H 0.60528 0.84417 0.15051
 H280 H 0.56893 0.74608 0.00131
 C281 C 0.64894 0.22818 -0.07045
 C282 C 0.62767 0.20145 -0.07437
 N283 N 0.63627 0.17544 -0.09738
 C284 C 0.66502 0.17514 -0.11702
 C285 C 0.68613 0.20222 -0.11365
 N286 N 0.67758 0.22799 -0.09014
 N287 N 0.63998 0.25453 -0.04793
 C288 C 0.61064 0.25539 -0.02914
 C289 C 0.58923 0.22862 -0.03295
 N290 N 0.59832 0.20234 -0.05573
 H291 H 0.67106 0.15410 -0.13521
 H292 H 0.60363 0.27724 -0.01221
 C293 C 0.35088 0.76982 -0.07573
 C294 C 0.35847 0.80251 -0.06402
 N295 N 0.33678 0.83097 -0.07259
 C296 C 0.30807 0.82835 -0.09278
 C297 C 0.30060 0.79573 -0.10495
 N298 N 0.32215 0.76717 -0.09577
 N299 N 0.37311 0.74147 -0.06813
 C300 C 0.40277 0.74434 -0.04960
 C301 C 0.41048 0.77700 -0.03802
 N302 N 0.38802 0.80538 -0.04538
 H303 H 0.29142 0.85153 -0.09947
 H304 H 0.42035 0.72146 -0.04417
 C305 C 0.09121 0.37827 0.23581
 C306 C 0.07971 0.39530 0.20444
 N307 N 0.09171 0.38290 0.17310
 C308 C 0.11474 0.35420 0.17167
 C309 C 0.12583 0.33676 0.20296
 N310 N 0.11365 0.34923 0.23433
 N311 N 0.08059 0.39167 0.26725
 C312 C 0.05880 0.42127 0.26875
 C313 C 0.04635 0.43767 0.23739
 N314 N 0.05742 0.42445 0.20592
 H315 H 0.12398 0.34487 0.14636
 H316 H 0.05129 0.43195 0.29411
 C317 C 0.06891 0.61590 0.75802
 C318 C 0.07667 0.58999 0.78353
 N319 N 0.10246 0.59288 0.80735
 C320 C 0.12098 0.62057 0.80697
 C321 C 0.11336 0.64688 0.78151
 N322 N 0.08734 0.64368 0.75760
 N323 N 0.04315 0.61274 0.73404
 C324 C 0.02469 0.58487 0.73460
 C325 C 0.03213 0.55918 0.76057
 N326 N 0.05826 0.56233 0.78416
 H327 H 0.14128 0.62178 0.82649
 H328 H 0.00439 0.58279 0.71518
 C329 C -0.08109 0.62937 0.22422
 C330 C -0.08535 0.60209 0.20097
 N331 N -0.11133 0.60552 0.17658
 C332 C -0.13338 0.63498 0.17445
 C333 C -0.12928 0.66252 0.19780
 N334 N -0.10295 0.65882 0.22203
 N335 N -0.05571 0.62567 0.24922
 C336 C -0.03417 0.59594 0.25190
 C337 C -0.03785 0.56867 0.22821
 N338 N -0.06375 0.57242 0.20350
 H339 H -0.15377 0.63664 0.15469
 H340 H -0.01499 0.59337 0.27287
 C341 C -0.06924 0.37506 0.77025
 C342 C -0.07699 0.40201 0.79425
 N343 N -0.10156 0.39916 0.81855
 C344 C -0.11884 0.37057 0.81994
 C345 C -0.11108 0.34327 0.79597
 N346 N -0.08626 0.34641 0.77175
 N347 N -0.04533 0.37825 0.74534
 C348 C -0.02849 0.40707 0.74358
 C349 C -0.03547 0.43384 0.76818
 N350 N -0.05999 0.43072 0.79271
 H351 H -0.13822 0.36934 0.83971
 H352 H -0.01034 0.40930 0.72278
 C353 C 0.21903 0.08182 0.37886
 C354 C 0.24824 0.07693 0.40114
 N355 N 0.27626 0.09340 0.39391
 C356 C 0.27639 0.11467 0.36545
 C357 C 0.24693 0.12021 0.34353
 N358 N 0.21890 0.10357 0.35085
 N359 N 0.19122 0.06487 0.38572
 C360 C 0.19122 0.04338 0.41402
 C361 C 0.22016 0.03898 0.43671
 N362 N 0.24800 0.05601 0.42976
 H363 H 0.29901 0.12764 0.36047
 H364 H 0.16863 0.03041 0.41922
 C365 C 0.80811 0.07475 0.62518
 C366 C 0.83939 0.06872 0.60757
 N367 N 0.86667 0.08522 0.61844
 C368 C 0.86406 0.10757 0.64609
 C369 C 0.83269 0.11370 0.66373
 N370 N 0.80554 0.09694 0.65272
 N371 N 0.78053 0.05900 0.61397
 C372 C 0.78282 0.03730 0.58590
 C373 C 0.81421 0.03070 0.56853
 N374 N 0.84173 0.04696 0.57952
 H375 H 0.88623 0.12032 0.65411
 H376 H 0.76023 0.02576 0.57683
 C377 C 0.20205 -0.07725 0.62485
 C378 C 0.17931 -0.07927 0.59609
 N379 N 0.15441 -0.10110 0.59760
 C380 C 0.15134 -0.12119 0.62656
 C381 C 0.17419 -0.11931 0.65539
 N382 N 0.19893 -0.09717 0.65372
 N383 N 0.22744 -0.05607 0.62313
 C384 C 0.23104 -0.03656 0.59396
 C385 C 0.20798 -0.03799 0.56521
 N386 N 0.18280 -0.05969 0.56696
 H387 H 0.13130 -0.13839 0.62696
 H388 H 0.25209 -0.02060 0.59302
 C389 C 0.80925 -0.08698 0.38000
 C390 C 0.78174 -0.08248 0.40337
 N391 N 0.75229 -0.09685 0.39591
 C392 C 0.74903 -0.11558 0.36607
 C393 C 0.77665 -0.12063 0.34279
 N394 N 0.80623 -0.10621 0.35044
 N395 N 0.83838 -0.07182 0.38715
 C396 C 0.84124 -0.05239 0.41667
 C397 C 0.81387 -0.04828 0.44027
 N398 N 0.78480 -0.06359 0.43305
 H399 H 0.72529 -0.12690 0.36096
 H400 H 0.86464 -0.04048 0.42185
 C401 C 0.58706 0.79130 -0.09515
 C402 C 0.56849 0.76226 -0.09581
 N403 N 0.57678 0.73660 -0.11932
 C404 C 0.60286 0.73861 -0.14222
 C405 C 0.62133 0.76782 -0.14192
 N406 N 0.61281 0.79354 -0.11832
 N407 N 0.57911 0.81673 -0.07130
 C408 C 0.55338 0.81446 -0.04804
 C409 C 0.53456 0.78552 -0.04875
 N410 N 0.54250 0.76017 -0.07290
 H411 H 0.60880 0.71778 -0.16070
 H412 H 0.54731 0.83524 -0.02950
 C413 C 0.40751 0.20593 -0.08329
 C414 C 0.40442 0.23069 -0.05642
 N415 N 0.37350 0.24883 -0.05069
 C416 C 0.34543 0.24347 -0.07078
 C417 C 0.34844 0.21903 -0.09819
 N418 N 0.37959 0.20081 -0.10370
 N419 N 0.43841 0.18748 -0.08856
 C420 C 0.46643 0.19285 -0.06829
 C421 C 0.46361 0.21810 -0.04155
 N422 N 0.43243 0.23631 -0.03653
 H423 H 0.32128 0.25864 -0.06568
 H424 H 0.49054 0.17733 -0.07285
 C425 C 0.35783 0.80131 0.08157
 C426 C 0.36016 0.77662 0.05458
 N427 N 0.33426 0.75635 0.04952
 C428 C 0.30618 0.75950 0.07037
 C429 C 0.30391 0.78394 0.09781
 N430 N 0.32994 0.80432 0.10257
 N431 N 0.38357 0.82176 0.08649
 C432 C 0.41174 0.81849 0.06580
 C433 C 0.41453 0.79341 0.03894
 N434 N 0.38840 0.77313 0.03407
 H435 H 0.28615 0.74277 0.06571
 H436 H 0.43162 0.83550 0.07016
 C437 C 0.63868 0.24247 0.08966
 C438 C 0.63238 0.21108 0.07376
 N439 N 0.65338 0.18188 0.08148
 C440 C 0.68041 0.18260 0.10447
 C441 C 0.68704 0.21406 0.12010
 N442 N 0.66598 0.24330 0.11213
 N443 N 0.61695 0.27142 0.08301
 C444 C 0.58912 0.27042 0.06113
 C445 C 0.58313 0.23920 0.04471
 N446 N 0.60494 0.21020 0.05145
 H447 H 0.69674 0.15895 0.11018
 H448 H 0.57198 0.29374 0.05633
 C449 C -0.09273 0.62108 0.77195
 C450 C -0.10282 0.59038 0.75782
 N451 N -0.13583 0.58917 0.74665
 C452 C -0.15929 0.61744 0.74881
 C453 C -0.14897 0.64888 0.76158
 N454 N -0.11572 0.64978 0.77280
 N455 N -0.06051 0.62132 0.78581
 C456 C -0.03762 0.59242 0.78539
 C457 C -0.04676 0.56210 0.76883
 N458 N -0.07961 0.56201 0.75609
 H459 H -0.18533 0.61553 0.73949
 H460 H -0.01296 0.59321 0.79846
 C461 C -0.06757 0.38433 0.23999
 C462 C -0.07300 0.40778 0.21178
 N463 N -0.09703 0.40276 0.18657
 C464 C -0.11600 0.37539 0.18833
 C465 C -0.11065 0.35181 0.21659
 N466 N -0.08637 0.35694 0.24169
 N467 N -0.04424 0.38980 0.26572
 C468 C -0.02583 0.41755 0.26440
 C469 C -0.03060 0.44076 0.23583
 N470 N -0.05450 0.43546 0.21036
 H471 H -0.13491 0.37210 0.16778
 H472 H -0.00847 0.42200 0.28599
 C473 C 0.08296 0.37117 0.76864
 C474 C 0.06651 0.38485 0.79891
 N475 N 0.07227 0.36816 0.83024
 C476 C 0.09379 0.33838 0.83272
 C477 C 0.10974 0.32430 0.80238
 N478 N 0.10384 0.34105 0.77097
 N479 N 0.07844 0.38868 0.73763
 C480 C 0.05807 0.41921 0.73547
 C481 C 0.04085 0.43240 0.76547
 N482 N 0.04556 0.41492 0.79657
 H483 H 0.09815 0.32565 0.85804
 H484 H 0.05481 0.43279 0.71051
 C485 C 0.07525 0.62154 0.23298
 C486 C 0.05980 0.61002 0.20208
 N487 N 0.06347 0.62681 0.17117
 C488 C 0.08185 0.65466 0.16977
 C489 C 0.09676 0.66661 0.20080
 N490 N 0.09297 0.64969 0.23168
 N491 N 0.07275 0.60411 0.26367
 C492 C 0.05538 0.57563 0.26493
 C493 C 0.03918 0.56453 0.23429
 N494 N 0.04184 0.58195 0.20345
 H495 H 0.08431 0.66764 0.14483
 H496 H 0.05381 0.56198 0.28964
 C497 C 0.80941 -0.08632 0.62998
 C498 C 0.78426 -0.05875 0.62231
 N499 N 0.75726 -0.05215 0.64413
 C500 C 0.75402 -0.07213 0.67311
 C501 C 0.77887 -0.10019 0.68062
 N502 N 0.80614 -0.10634 0.65884
 N503 N 0.83612 -0.09328 0.60787
 C504 C 0.83872 -0.07400 0.57826
 C505 C 0.81350 -0.04644 0.57037
 N506 N 0.78679 -0.03958 0.59270
 H507 H 0.73210 -0.06629 0.68983
 H508 H 0.86010 -0.08023 0.56088
 C509 C 0.21286 -0.07702 0.37469
 C510 C 0.18779 -0.07892 0.40040
 N511 N 0.16317 -0.10069 0.39574
 C512 C 0.16251 -0.12088 0.36659
 C513 C 0.18775 -0.11936 0.34077
 N514 N 0.21230 -0.09724 0.34553
 N515 N 0.23771 -0.05548 0.37963
 C516 C 0.23857 -0.03568 0.40911
 C517 C 0.21334 -0.03736 0.43488
 N518 N 0.18867 -0.05925 0.42984
 H519 H 0.14245 -0.13788 0.36383
 H520 H 0.25915 -0.01936 0.41270
 C521 C 0.81460 0.07030 0.37974
 C522 C 0.84001 0.07295 0.40589
 N523 N 0.86281 0.09672 0.40229
 C524 C 0.86120 0.11822 0.37384
 C525 C 0.83545 0.11602 0.34776
 N526 N 0.81287 0.09183 0.35141
 N527 N 0.79140 0.04697 0.38363
 C528 C 0.79243 0.02614 0.41255
 C529 C 0.81792 0.02861 0.43885
 N530 N 0.84098 0.05226 0.43484
 H531 H 0.87970 0.13693 0.37189
 H532 H 0.77293 0.00857 0.41542
 C533 C 0.21333 0.07812 0.62554
 C534 C 0.24396 0.07246 0.60672
 N535 N 0.27232 0.08678 0.61831
 C536 C 0.27142 0.10668 0.64782
 C537 C 0.24056 0.11303 0.66629
 N538 N 0.21225 0.09849 0.65458
 N539 N 0.18511 0.06333 0.61438
 C540 C 0.18607 0.04319 0.58509
 C541 C 0.21651 0.03794 0.56586
 N542 N 0.24478 0.05286 0.57710
 H543 H 0.29434 0.11800 0.65626
 H544 H 0.16322 0.03178 0.57656
   
