data_POSCAR
  _audit_creation_date              2014-09-24
  _audit_creation_method            'ToBaCCo'
  _symmetry_space_group_name_H-M    'P1'
  _symmetry_Int_Tables_number       1
  _symmetry_cell_setting            triclinic
  loop_
  _symmetry_equiv_pos_as_xyz
 x,y,z
_cell_length_a 40.1759
_cell_length_b 41.9202
_cell_length_c 40.5326
_cell_angle_alpha 89.919400
_cell_angle_beta 89.630700
_cell_angle_gamma 89.770900
loop_
  _atom_site_label
  _atom_site_type_symbol
  _atom_site_fract_x
  _atom_site_fract_y
  _atom_site_fract_z
Si1 Si 0.24929 0.24797 0.24715
 Si2 Si 0.74836 0.74856 0.25168
 Si3 Si 0.75098 0.25002 0.74779
 Si4 Si 0.24996 0.74957 0.75091
 C5 C 0.04363 0.04726 0.01210
 H6 H 0.04438 0.04864 -0.01455
 C7 C 0.06303 0.06789 0.03087
 H8 H 0.07855 0.08528 0.01845
 C9 C 0.02167 0.02343 0.06056
 H10 H 0.00526 0.00634 0.07209
 C11 C 0.04061 0.04362 0.08028
 H12 H 0.03903 0.04134 0.10685
 N13 N 0.02384 0.02528 0.02711
 C14 C 0.01164 -0.05052 -0.04539
 H15 H -0.01523 -0.05201 -0.04610
 C16 C 0.03100 -0.07129 -0.06448
 H17 H 0.01880 -0.08885 -0.07973
 C18 C 0.06004 -0.02644 -0.02372
 H19 H 0.07132 -0.00925 -0.00748
 C20 C 0.08035 -0.04676 -0.04235
 H21 H 0.10712 -0.04444 -0.04074
 Zn22 Zn -0.00175 -0.00173 -0.00012
 N23 N 0.02634 -0.02841 -0.02583
 C24 C -0.02598 0.02286 -0.06096
 N25 N -0.02806 0.02480 -0.02751
 C26 C -0.04818 0.04666 -0.01256
 C27 C -0.06789 0.06718 -0.03138
 C28 C -0.04528 0.04291 -0.08072
 C29 C -0.01355 -0.05047 0.04548
 C30 C -0.03215 -0.07116 0.06525
 C31 C -0.08237 -0.04729 0.04373
 C32 C -0.06279 -0.02703 0.02439
 N33 N -0.02902 -0.02868 0.02593
 H34 H -0.00918 0.00598 -0.07243
 H35 H -0.04899 0.04800 0.01409
 H36 H -0.08421 0.08398 -0.01897
 H37 H -0.04308 0.04118 -0.10730
 H38 H 0.01336 -0.05167 0.04575
 H39 H -0.01935 -0.08842 0.08055
 H40 H -0.10921 -0.04521 0.04263
 H41 H -0.07466 -0.01005 0.00819
 C42 C 0.06587 -0.06951 -0.06317
 C43 C 0.06178 0.06613 0.06546
 C44 C -0.06707 -0.06963 0.06464
 C45 C -0.06670 0.06538 -0.06597
 C46 C 0.04991 0.55058 0.51206
 H47 H 0.05042 0.55185 0.48540
 C48 C 0.06947 0.57132 0.53055
 H49 H 0.08486 0.58866 0.51791
 C50 C 0.02832 0.52702 0.56083
 H51 H 0.01196 0.51002 0.57257
 C52 C 0.04742 0.54733 0.58028
 H53 H 0.04601 0.54523 0.60687
 N54 N 0.03018 0.52873 0.52735
 C55 C 0.01624 0.45299 0.45512
 H56 H -0.01064 0.45154 0.45517
 C57 C 0.03499 0.43254 0.43513
 H58 H 0.02232 0.41518 0.42001
 C59 C 0.06530 0.47693 0.47552
 H60 H 0.07705 0.49404 0.49151
 C61 C 0.08502 0.45690 0.45595
 H62 H 0.11183 0.45929 0.45666
 Zn63 Zn 0.00406 0.50190 0.50041
 N64 N 0.03154 0.47496 0.47440
 C65 C -0.01995 0.52655 0.43959
 N66 N -0.02203 0.52862 0.47303
 C67 C -0.04202 0.55064 0.48789
 C68 C -0.06172 0.57110 0.46898
 C69 C -0.03918 0.54657 0.41974
 C70 C -0.00844 0.45336 0.54630
 C71 C -0.02743 0.43275 0.56581
 C72 C -0.07721 0.45701 0.54381
 C73 C -0.05727 0.47719 0.52475
 N74 N -0.02352 0.47528 0.52659
 H75 H -0.00337 0.50946 0.42818
 H76 H -0.04270 0.55221 0.51453
 H77 H -0.07739 0.58853 0.48127
 H78 H -0.03765 0.54411 0.39318
 H79 H 0.01845 0.45193 0.54680
 H80 H -0.01493 0.41534 0.58117
 H81 H -0.10402 0.45927 0.54239
 H82 H -0.06885 0.49423 0.50841
 C83 C 0.06988 0.43447 0.43523
 C84 C 0.06844 0.56980 0.56516
 C85 C -0.06233 0.43446 0.56478
 C86 C -0.06055 0.56911 0.43439
 C87 C 0.54317 0.04973 0.51367
 H88 H 0.54367 0.05085 0.48700
 C89 C 0.56272 0.07057 0.53203
 H90 H 0.57807 0.08787 0.51927
 C91 C 0.52174 0.02631 0.56258
 H92 H 0.50549 0.00927 0.57442
 C93 C 0.54084 0.04674 0.58190
 H94 H 0.53954 0.04470 0.60851
 N95 N 0.52357 0.02786 0.52909
 C96 C 0.51086 -0.04864 0.45757
 H97 H 0.48399 -0.05021 0.45730
 C98 C 0.52995 -0.06917 0.43798
 H99 H 0.51753 -0.08625 0.42233
 C100 C 0.55953 -0.02405 0.47805
 H101 H 0.57100 -0.00679 0.49407
 C102 C 0.57958 -0.04409 0.45883
 H103 H 0.60639 -0.04201 0.46032
 Zn104 Zn 0.49787 0.00061 0.50221
 N105 N 0.52580 -0.02633 0.47669
 C106 C 0.47431 0.02444 0.44096
 N107 N 0.47177 0.02682 0.47434
 C108 C 0.45133 0.04876 0.48872
 C109 C 0.43165 0.06882 0.46933
 C110 C 0.45508 0.04399 0.42065
 C111 C 0.48555 -0.04775 0.54825
 C112 C 0.46666 -0.06865 0.56752
 C113 C 0.41677 -0.04511 0.54491
 C114 C 0.43662 -0.02463 0.52611
 N115 N 0.47037 -0.02607 0.52834
 H116 H 0.49140 0.00756 0.42993
 H117 H 0.45016 0.05047 0.51533
 H118 H 0.41501 0.08567 0.48125
 H119 H 0.45762 0.04188 0.39413
 H120 H 0.51245 -0.04883 0.54904
 H121 H 0.47924 -0.08590 0.58300
 H122 H 0.38995 -0.04325 0.54316
 H123 H 0.42498 -0.00779 0.50960
 C124 C 0.56481 -0.06691 0.43829
 C125 C 0.56183 0.06914 0.56665
 C126 C 0.43175 -0.06746 0.56603
 C127 C 0.43325 0.06645 0.43479
 C128 C 0.54585 0.54946 0.01228
 H129 H 0.54671 0.55125 -0.01434
 C130 C 0.56529 0.56971 0.03146
 H131 H 0.58093 0.58722 0.01938
 C132 C 0.52357 0.52502 0.06027
 H133 H 0.50700 0.50786 0.07147
 C134 C 0.54253 0.54482 0.08039
 H135 H 0.54081 0.54216 0.10692
 N136 N 0.52587 0.52737 0.02686
 C137 C 0.51324 0.45292 -0.04714
 H138 H 0.48637 0.45166 -0.04803
 C139 C 0.53254 0.43247 -0.06667
 H140 H 0.52028 0.41582 -0.08292
 C141 C 0.56173 0.47638 -0.02493
 H142 H 0.57306 0.49307 -0.00818
 C143 C 0.58197 0.45641 -0.04403
 H144 H 0.60875 0.45803 -0.04174
 Zn145 Zn 0.50010 0.50101 -0.00090
 N146 N 0.52802 0.47459 -0.02711
 C147 C 0.47565 0.52671 -0.06123
 N148 N 0.47398 0.52822 -0.02773
 C149 C 0.45417 0.54997 -0.01224
 C150 C 0.43422 0.57073 -0.03052
 C151 C 0.45615 0.54706 -0.08047
 C152 C 0.48751 0.45175 0.04408
 C153 C 0.46848 0.43122 0.06364
 C154 C 0.41874 0.45592 0.04203
 C155 C 0.43873 0.47602 0.02293
 N156 N 0.47247 0.47392 0.02464
 H157 H 0.49206 0.50976 -0.07313
 H158 H 0.45380 0.55106 0.01443
 H159 H 0.41870 0.58794 -0.01770
 H160 H 0.45732 0.54506 -0.10708
 H161 H 0.51439 0.45020 0.04450
 H162 H 0.48092 0.41370 0.07890
 H163 H 0.39194 0.45842 0.04083
 H164 H 0.42718 0.49326 0.00680
 C165 C 0.56742 0.43415 -0.06535
 C166 C 0.56386 0.56746 0.06602
 C167 C 0.43359 0.43327 0.06289
 C168 C 0.43492 0.56934 -0.06513
 C169 C 0.18661 -0.18814 -0.18004
 C170 C 0.20892 -0.17379 -0.20209
 C171 C 0.22856 -0.19255 -0.22308
 C172 C 0.22578 -0.22598 -0.22253
 C173 C 0.20402 -0.24025 -0.19962
 C174 C 0.18438 -0.22142 -0.17866
 C175 C 0.16581 -0.16863 -0.15916
 C176 C 0.14832 -0.15196 -0.14206
 C177 C 0.12740 -0.13174 -0.12203
 C178 C 0.09822 -0.11873 -0.13519
 C179 C 0.07813 -0.09862 -0.11602
 C180 C 0.08699 -0.09121 -0.08339
 C181 C 0.11632 -0.10454 -0.07035
 C182 C 0.13637 -0.12466 -0.08957
 H183 H 0.21110 -0.14805 -0.20312
 H184 H 0.24582 -0.18064 -0.23946
 H185 H 0.20186 -0.26597 -0.19819
 H186 H 0.16736 -0.23281 -0.16152
 H187 H 0.09111 -0.12395 -0.16034
 H188 H 0.05596 -0.08843 -0.12691
 H189 H 0.12360 -0.09965 -0.04519
 H190 H 0.15888 -0.13465 -0.07912
 C191 C 0.18526 0.31498 0.31412
 C192 C 0.18682 0.32011 0.27999
 C193 C 0.20602 0.29993 0.26002
 C194 C 0.22378 0.27448 0.27402
 C195 C 0.22216 0.26942 0.30821
 C196 C 0.20297 0.28960 0.32817
 C197 C 0.16546 0.33565 0.33473
 C198 C 0.14888 0.35286 0.35212
 C199 C 0.12909 0.37334 0.37296
 C200 C 0.09952 0.38668 0.36110
 C201 C 0.08023 0.40652 0.38135
 C202 C 0.09031 0.41329 0.41378
 C203 C 0.12010 0.39975 0.42546
 C204 C 0.13934 0.37989 0.40517
 H205 H 0.17320 0.33967 0.26886
 H206 H 0.20701 0.30415 0.23366
 H207 H 0.23549 0.24984 0.31955
 H208 H 0.20189 0.28538 0.35453
 H209 H 0.09141 0.38182 0.33617
 H210 H 0.05767 0.41692 0.37148
 H211 H 0.12831 0.40417 0.45043
 H212 H 0.16214 0.36959 0.41464
 C213 C 0.68160 -0.18548 0.31759
 C214 C 0.67800 -0.21865 0.31901
 C215 C 0.69790 -0.23825 0.29912
 C216 C 0.72171 -0.22490 0.27775
 C217 C 0.72489 -0.19160 0.27610
 C218 C 0.70498 -0.17200 0.29601
 C219 C 0.66143 -0.16529 0.33835
 C220 C 0.64464 -0.14832 0.35579
 C221 C 0.62470 -0.12798 0.37662
 C222 C 0.59675 -0.14021 0.39298
 C223 C 0.57730 -0.12042 0.41313
 C224 C 0.58561 -0.08808 0.41719
 C225 C 0.61384 -0.07605 0.40070
 C226 C 0.63322 -0.09588 0.38055
 H227 H 0.65989 -0.22934 0.33552
 H228 H 0.69478 -0.26387 0.30044
 H229 H 0.74269 -0.18060 0.25957
 H230 H 0.70787 -0.14634 0.29461
 H231 H 0.59000 -0.16506 0.39019
 H232 H 0.55599 -0.13048 0.42581
 H233 H 0.62062 -0.05118 0.40297
 H234 H 0.65477 -0.08616 0.36793
 C235 C 0.68628 0.31502 -0.18369
 C236 C 0.68780 0.28206 -0.17816
 C237 C 0.70735 0.26270 -0.19868
 C238 C 0.72550 0.27614 -0.22487
 C239 C 0.72401 0.30917 -0.23025
 C240 C 0.70447 0.32852 -0.20973
 C241 C 0.66590 0.33501 -0.16288
 C242 C 0.64883 0.35197 -0.14566
 C243 C 0.62850 0.37246 -0.12532
 C244 C 0.59966 0.36063 -0.11021
 C245 C 0.57977 0.38065 -0.09070
 C246 C 0.58852 0.41280 -0.08602
 C247 C 0.61760 0.42443 -0.10130
 C248 C 0.63742 0.40439 -0.12082
 H249 H 0.67382 0.27135 -0.15810
 H250 H 0.70821 0.23723 -0.19422
 H251 H 0.73761 0.32007 -0.25041
 H252 H 0.70343 0.35399 -0.21427
 H253 H 0.59255 0.33594 -0.11349
 H254 H 0.55779 0.37087 -0.07893
 H255 H 0.62477 0.44915 -0.09856
 H256 H 0.65963 0.41383 -0.13251
 C257 C -0.18452 0.18495 -0.18366
 C258 C -0.20256 0.17139 -0.20946
 C259 C -0.22200 0.19066 -0.22995
 C260 C -0.22331 0.22381 -0.22509
 C261 C -0.20574 0.23717 -0.19869
 C262 C -0.18630 0.21787 -0.17818
 C263 C -0.16430 0.16500 -0.16286
 C264 C -0.14738 0.14797 -0.14574
 C265 C -0.12720 0.12732 -0.12562
 C266 C -0.12280 0.09532 -0.13447
 C267 C -0.10314 0.07519 -0.11510
 C268 C -0.08760 0.08680 -0.08654
 C269 C -0.09221 0.11902 -0.07783
 C270 C -0.11187 0.13913 -0.09727
 H271 H -0.20163 0.14589 -0.21374
 H272 H -0.23589 0.17941 -0.24938
 H273 H -0.20739 0.26244 -0.19356
 H274 H -0.17278 0.22860 -0.15803
 H275 H -0.13463 0.08591 -0.15633
 H276 H -0.10046 0.05042 -0.12222
 H277 H -0.08024 0.12879 -0.05624
 H278 H -0.11503 0.16389 -0.09025
 C279 C -0.18140 0.68594 0.31696
 C280 C -0.20742 0.70316 0.33167
 C281 C -0.22843 0.72202 0.31234
 C282 C -0.22388 0.72358 0.27800
 C283 C -0.19725 0.70681 0.26350
 C284 C -0.17622 0.68795 0.28284
 C285 C -0.16009 0.66626 0.33692
 C286 C -0.14250 0.64969 0.35383
 C287 C -0.12178 0.62979 0.37418
 C288 C -0.13457 0.61679 0.40342
 C289 C -0.11463 0.59720 0.42309
 C290 C -0.08158 0.59031 0.41374
 C291 C -0.06892 0.60361 0.38434
 C292 C -0.08892 0.62322 0.36471
 H293 H -0.21147 0.70202 0.35810
 H294 H -0.24803 0.73528 0.32449
 H295 H -0.19234 0.70862 0.23729
 H296 H -0.15590 0.67503 0.27123
 H297 H -0.16002 0.62166 0.41092
 H298 H -0.12523 0.58700 0.44533
 H299 H -0.04347 0.59910 0.37669
 H300 H -0.07875 0.63323 0.34216
 C301 C 0.31568 0.18321 0.31410
 C302 C 0.28938 0.16989 0.29642
 C303 C 0.26961 0.18917 0.27625
 C304 C 0.27610 0.22195 0.27337
 C305 C 0.30231 0.23520 0.29145
 C306 C 0.32207 0.21591 0.31162
 C307 C 0.33590 0.16337 0.33498
 C308 C 0.35279 0.14667 0.35244
 C309 C 0.37291 0.12659 0.37318
 C310 C 0.37764 0.09445 0.36509
 C311 C 0.39723 0.07489 0.38513
 C312 C 0.41235 0.08724 0.41359
 C313 C 0.40737 0.11958 0.42155
 C314 C 0.38778 0.13912 0.40144
 H315 H 0.28403 0.14464 0.29837
 H316 H 0.24904 0.17838 0.26340
 H317 H 0.30748 0.26042 0.29029
 H318 H 0.34223 0.22653 0.32538
 H319 H 0.36615 0.08450 0.34332
 H320 H 0.40021 0.05000 0.37859
 H321 H 0.41900 0.12989 0.44305
 H322 H 0.38433 0.16399 0.40788
 C323 C 0.31328 0.68715 -0.18079
 C324 C 0.29117 0.67281 -0.20274
 C325 C 0.27151 0.69161 -0.22349
 C326 C 0.27407 0.72504 -0.22279
 C327 C 0.29561 0.73928 -0.19997
 C328 C 0.31527 0.72043 -0.17926
 C329 C 0.33413 0.66764 -0.16017
 C330 C 0.35171 0.65107 -0.14322
 C331 C 0.37274 0.63103 -0.12333
 C332 C 0.40549 0.62464 -0.13336
 C333 C 0.42578 0.60471 -0.11439
 C334 C 0.41356 0.59087 -0.08509
 C335 C 0.38064 0.59758 -0.07514
 C336 C 0.36038 0.61750 -0.09416
 H337 H 0.28919 0.64706 -0.20388
 H338 H 0.25443 0.67972 -0.23982
 H339 H 0.29760 0.76501 -0.19844
 H340 H 0.33213 0.73180 -0.16220
 H341 H 0.41532 0.63503 -0.15587
 H342 H 0.45113 0.60036 -0.12249
 H343 H 0.37036 0.58697 -0.05296
 H344 H 0.33502 0.62218 -0.08624
 C345 C -0.18361 -0.18881 0.18439
 C346 C -0.17762 -0.19086 0.21832
 C347 C -0.19796 -0.20984 0.23835
 C348 C -0.22442 -0.22688 0.22459
 C349 C -0.23024 -0.22491 0.19056
 C350 C -0.20990 -0.20593 0.17055
 C351 C -0.16312 -0.16880 0.16383
 C352 C -0.14617 -0.15190 0.14655
 C353 C -0.12613 -0.13156 0.12590
 C354 C -0.09697 -0.11803 0.13823
 C355 C -0.07769 -0.09799 0.11830
 C356 C -0.08738 -0.09117 0.08572
 C357 C -0.11671 -0.10497 0.07353
 C358 C -0.13593 -0.12503 0.09351
 H359 H -0.15738 -0.17767 0.22930
 H360 H -0.19318 -0.21108 0.26459
 H361 H -0.25063 -0.23766 0.17942
 H362 H -0.21479 -0.20444 0.14433
 H363 H -0.08923 -0.12285 0.16332
 H364 H -0.05550 -0.08741 0.12853
 H365 H -0.12459 -0.10053 0.04844
 H366 H -0.15843 -0.13543 0.08370
 C367 C -0.18089 0.31437 0.68169
 C368 C -0.17521 0.31204 0.71563
 C369 C -0.19548 0.29265 0.73529
 C370 C -0.22152 0.27521 0.72121
 C371 C -0.22729 0.27790 0.68717
 C372 C -0.20700 0.29729 0.66751
 C373 C -0.16026 0.33463 0.66152
 C374 C -0.14307 0.35172 0.64465
 C375 C -0.12266 0.37223 0.62453
 C376 C -0.09359 0.38546 0.63742
 C377 C -0.07390 0.40561 0.61799
 C378 C -0.08308 0.41284 0.58536
 C379 C -0.11232 0.39934 0.57261
 C380 C -0.13195 0.37917 0.59208
 H381 H -0.15524 0.32535 0.72693
 H382 H -0.19088 0.29163 0.76148
 H383 H -0.24769 0.26550 0.67569
 H384 H -0.21183 0.29914 0.64131
 H385 H -0.08623 0.38032 0.66255
 H386 H -0.05179 0.41594 0.62866
 H387 H -0.11981 0.40408 0.54746
 H388 H -0.15436 0.36900 0.58182
 C389 C 0.31458 -0.18935 0.68220
 C390 C 0.27984 -0.18751 0.68079
 C391 C 0.26035 -0.20652 0.70159
 C392 C 0.27540 -0.22728 0.72439
 C393 C 0.31031 -0.22969 0.72493
 C394 C 0.32975 -0.21066 0.70409
 C395 C 0.33468 -0.16901 0.66161
 C396 C 0.35159 -0.15173 0.64468
 C397 C 0.37185 -0.13088 0.62480
 C398 C 0.36282 -0.12399 0.59227
 C399 C 0.38231 -0.10342 0.57311
 C400 C 0.41112 -0.08947 0.58627
 C401 C 0.42002 -0.09664 0.61898
 C402 C 0.40049 -0.11719 0.63810
 H403 H 0.26782 -0.17124 0.66379
 H404 H 0.23348 -0.20462 0.70019
 H405 H 0.32285 -0.24613 0.74125
 H406 H 0.35663 -0.21249 0.70514
 H407 H 0.34073 -0.13451 0.58172
 H408 H 0.37504 -0.09873 0.54788
 H409 H 0.44180 -0.08597 0.62996
 H410 H 0.40763 -0.12227 0.66330
 C411 C 0.31521 0.31450 0.18129
 C412 C 0.31280 0.31960 0.21533
 C413 C 0.29299 0.29964 0.23485
 C414 C 0.27565 0.27419 0.22059
 C415 C 0.27763 0.26964 0.18632
 C416 C 0.29746 0.28958 0.16681
 C417 C 0.33565 0.33493 0.16114
 C418 C 0.35275 0.35195 0.14414
 C419 C 0.37311 0.37222 0.12373
 C420 C 0.40246 0.38522 0.13623
 C421 C 0.42220 0.40498 0.11643
 C422 C 0.41281 0.41201 0.08382
 C423 C 0.38328 0.39875 0.07147
 C424 C 0.36359 0.37898 0.09131
 H425 H 0.32610 0.33907 0.22676
 H426 H 0.29084 0.30448 0.26099
 H427 H 0.26394 0.25087 0.17436
 H428 H 0.29887 0.28561 0.14043
 H429 H 0.41001 0.38019 0.16133
 H430 H 0.44455 0.41514 0.12679
 H431 H 0.37560 0.40336 0.04635
 H432 H 0.34097 0.36895 0.08135
 C433 C 0.18082 0.18383 0.18246
 C434 C 0.16661 0.20665 0.20349
 C435 C 0.18694 0.22591 0.22293
 C436 C 0.22170 0.22260 0.22137
 C437 C 0.23577 0.19945 0.20048
 C438 C 0.21545 0.18022 0.18106
 C439 C 0.15996 0.16404 0.16237
 C440 C 0.14266 0.14737 0.14547
 C441 C 0.12221 0.12732 0.12523
 C442 C 0.08937 0.12078 0.13465
 C443 C 0.06964 0.10099 0.11516
 C444 C 0.08253 0.08750 0.08596
 C445 C 0.11555 0.09436 0.07664
 C446 C 0.13523 0.11412 0.09618
 H447 H 0.13982 0.20954 0.20487
 H448 H 0.17538 0.24324 0.23911
 H449 H 0.26251 0.19625 0.19925
 H450 H 0.22672 0.16253 0.16499
 H451 H 0.07903 0.13094 0.15705
 H452 H 0.04420 0.09651 0.12277
 H453 H 0.12633 0.08401 0.05455
 H454 H 0.16066 0.11896 0.08872
 C455 C 0.18565 0.68931 0.68212
 C456 C 0.17039 0.71043 0.70428
 C457 C 0.18974 0.72913 0.72522
 C458 C 0.22465 0.72659 0.72449
 C459 C 0.23980 0.70600 0.70148
 C460 C 0.22040 0.68731 0.68058
 C461 C 0.16563 0.66941 0.66130
 C462 C 0.14874 0.65254 0.64417
 C463 C 0.12848 0.63218 0.62406
 C464 C 0.09575 0.62538 0.63366
 C465 C 0.07617 0.60520 0.61447
 C466 C 0.08910 0.59153 0.58537
 C467 C 0.12200 0.59864 0.57586
 C468 C 0.14155 0.61882 0.59511
 H469 H 0.14351 0.71238 0.70545
 H470 H 0.17713 0.74547 0.74172
 H471 H 0.26667 0.70402 0.69993
 H472 H 0.23249 0.67119 0.66337
 H473 H 0.08536 0.63565 0.65599
 H474 H 0.05081 0.60055 0.62222
 H475 H 0.13281 0.58819 0.55383
 H476 H 0.16690 0.62382 0.58752
 C477 C 0.68198 0.18797 0.68140
 C478 C 0.66794 0.20856 0.70487
 C479 C 0.68843 0.22734 0.72466
 C480 C 0.72318 0.22553 0.72127
 C481 C 0.73708 0.20517 0.69737
 C482 C 0.71660 0.18642 0.67760
 C483 C 0.66095 0.16821 0.66144
 C484 C 0.64348 0.15144 0.64479
 C485 C 0.62281 0.13118 0.62498
 C486 C 0.59012 0.12459 0.63489
 C487 C 0.57022 0.10452 0.61590
 C488 C 0.58278 0.09077 0.58669
 C489 C 0.61565 0.09766 0.57688
 C490 C 0.63551 0.11771 0.59592
 H491 H 0.64116 0.21004 0.70793
 H492 H 0.67698 0.24310 0.74254
 H493 H 0.76382 0.20372 0.69410
 H494 H 0.72775 0.17065 0.65945
 H495 H 0.58003 0.13495 0.65732
 H496 H 0.54490 0.10002 0.62389
 H497 H 0.62619 0.08711 0.55477
 H498 H 0.66083 0.12255 0.58809
 C499 C 0.68161 0.68405 0.18550
 C500 C 0.66723 0.70882 0.20385
 C501 C 0.68709 0.72807 0.22376
 C502 C 0.72153 0.72258 0.22571
 C503 C 0.73582 0.69790 0.20695
 C504 C 0.71596 0.67867 0.18703
 C505 C 0.66121 0.66432 0.16489
 C506 C 0.64418 0.64774 0.14760
 C507 C 0.62393 0.62787 0.12699
 C508 C 0.59104 0.62120 0.13611
 C509 C 0.57144 0.60166 0.11625
 C510 C 0.58452 0.58852 0.08695
 C511 C 0.61759 0.59548 0.07794
 C512 C 0.63715 0.61501 0.09786
 H513 H 0.64070 0.71338 0.20262
 H514 H 0.67543 0.74743 0.23716
 H515 H 0.76231 0.69354 0.20736
 H516 H 0.72740 0.65971 0.17274
 H517 H 0.58053 0.63111 0.15857
 H518 H 0.54595 0.59710 0.12363
 H519 H 0.62851 0.58541 0.05578
 H520 H 0.66262 0.61995 0.09062
   
