data_POSCAR
  _audit_creation_date              2014-09-24
  _audit_creation_method            'ToBaCCo'
  _symmetry_space_group_name_H-M    'P1'
  _symmetry_Int_Tables_number       1
  _symmetry_cell_setting            triclinic
  loop_
  _symmetry_equiv_pos_as_xyz
 x,y,z
_cell_length_a 57.7026
_cell_length_b 32.4736
_cell_length_c 19.3898
_cell_angle_alpha 90.009000
_cell_angle_beta 89.895600
_cell_angle_gamma 90.167900
loop_
  _atom_site_label
  _atom_site_type_symbol
  _atom_site_fract_x
  _atom_site_fract_y
  _atom_site_fract_z
C1 C 0.74944 0.24996 0.46675
 C2 C 0.74934 0.25018 0.53696
 C3 C 0.73008 0.26914 0.57666
 C4 C 0.76852 0.23138 0.57690
 C5 C 0.76955 0.23459 0.42711
 C6 C 0.72948 0.26511 0.42651
 C7 C 0.72367 0.31017 0.56521
 C8 C 0.70481 0.32722 0.60006
 C9 C 0.69204 0.30383 0.64856
 C10 C 0.69930 0.26305 0.66181
 C11 C 0.71806 0.24602 0.62621
 C12 C 0.78097 0.25510 0.62467
 C13 C 0.79973 0.23811 0.66011
 C14 C 0.80633 0.19701 0.64847
 C15 C 0.79332 0.17301 0.60209
 C16 C 0.77450 0.18994 0.56713
 C17 C 0.76778 0.19757 0.39033
 C18 C 0.78713 0.18147 0.35644
 C19 C 0.80834 0.20282 0.35712
 C20 C 0.80983 0.24065 0.39209
 C21 C 0.79062 0.25620 0.42748
 C22 C 0.70828 0.24389 0.42773
 C23 C 0.68917 0.25941 0.39205
 C24 C 0.69091 0.29681 0.35591
 C25 C 0.71225 0.31770 0.35423
 C26 C 0.73149 0.30162 0.38842
 H27 H 0.73321 0.32901 0.52880
 H28 H 0.70031 0.35883 0.58847
 H29 H 0.69032 0.24377 0.69884
 H30 H 0.72293 0.21440 0.63635
 H31 H 0.77646 0.28705 0.63333
 H32 H 0.80931 0.25741 0.69564
 H33 H 0.76468 0.17079 0.53194
 H34 H 0.75159 0.18060 0.38960
 H35 H 0.78549 0.15239 0.32948
 H36 H 0.82601 0.25761 0.39360
 H37 H 0.79218 0.28491 0.45557
 H38 H 0.70653 0.21557 0.45681
 H39 H 0.67288 0.24281 0.39431
 H40 H 0.71406 0.34643 0.32635
 H41 H 0.74778 0.31827 0.38701
 H42 H 0.79772 0.14112 0.59251
 C43 C 0.25002 0.75042 0.46379
 C44 C 0.25016 0.75037 0.53398
 C45 C 0.23104 0.76927 0.57419
 C46 C 0.26945 0.73149 0.57337
 C47 C 0.26997 0.73511 0.42344
 C48 C 0.22994 0.76587 0.42436
 C49 C 0.22509 0.81071 0.56440
 C50 C 0.20631 0.82774 0.59968
 C51 C 0.19333 0.80383 0.64640
 C52 C 0.19991 0.76273 0.65805
 C53 C 0.21862 0.74565 0.62228
 C54 C 0.28189 0.75504 0.62139
 C55 C 0.30069 0.73797 0.65658
 C56 C 0.30735 0.69695 0.64444
 C57 C 0.29438 0.67312 0.59771
 C58 C 0.27551 0.69013 0.56300
 C59 C 0.26805 0.69816 0.38652
 C60 C 0.28731 0.68196 0.35235
 C61 C 0.30857 0.70315 0.35290
 C62 C 0.31020 0.74095 0.38788
 C63 C 0.29107 0.75661 0.42354
 C64 C 0.20883 0.74437 0.42504
 C65 C 0.18963 0.76005 0.38998
 C66 C 0.19117 0.79788 0.35505
 C67 C 0.21242 0.81911 0.35403
 C68 C 0.23176 0.80288 0.38758
 H69 H 0.23488 0.82978 0.52895
 H70 H 0.20193 0.85962 0.59009
 H71 H 0.19036 0.74351 0.69383
 H72 H 0.22311 0.71370 0.63097
 H73 H 0.27734 0.78691 0.63053
 H74 H 0.31024 0.75715 0.69238
 H75 H 0.26571 0.67108 0.52763
 H76 H 0.25183 0.68128 0.38602
 H77 H 0.28558 0.65291 0.32539
 H78 H 0.32642 0.75778 0.38928
 H79 H 0.29275 0.78525 0.45175
 H80 H 0.20723 0.71568 0.45314
 H81 H 0.17342 0.74319 0.39174
 H82 H 0.21409 0.84818 0.32709
 H83 H 0.24797 0.81977 0.38662
 H84 H 0.29882 0.64130 0.58774
 C85 C 0.25004 0.24882 -0.46542
 C86 C 0.25004 0.24927 -0.53560
 C87 C 0.26933 0.26825 -0.57535
 C88 C 0.23067 0.23090 -0.57548
 C89 C 0.23000 0.23316 -0.42572
 C90 C 0.27004 0.26407 -0.42526
 C91 C 0.27580 0.30936 -0.56411
 C92 C 0.29469 0.32641 -0.59908
 C93 C 0.30734 0.30294 -0.64731
 C94 C 0.30012 0.26214 -0.66040
 C95 C 0.28132 0.24506 -0.62475
 C96 C 0.21796 0.25520 -0.62152
 C97 C 0.19914 0.23849 -0.65732
 C98 C 0.19259 0.19699 -0.64762
 C99 C 0.20596 0.17250 -0.60278
 C100 C 0.22490 0.18920 -0.56780
 C101 C 0.23080 0.19389 -0.39614
 C102 C 0.21141 0.17784 -0.36215
 C103 C 0.19108 0.20147 -0.35478
 C104 C 0.19082 0.24167 -0.38242
 C105 C 0.21000 0.25708 -0.41840
 C106 C 0.29110 0.24265 -0.42593
 C107 C 0.31028 0.25823 -0.39041
 C108 C 0.30876 0.29589 -0.35500
 C109 C 0.28755 0.31700 -0.35388
 C110 C 0.26823 0.30087 -0.38790
 H111 H 0.26629 0.32822 -0.52781
 H112 H 0.29934 0.35805 -0.58793
 H113 H 0.30918 0.24300 -0.69732
 H114 H 0.27642 0.21339 -0.63470
 H115 H 0.22237 0.28736 -0.62874
 H116 H 0.18951 0.25842 -0.69159
 H117 H 0.23502 0.16956 -0.53437
 H118 H 0.24623 0.17521 -0.40115
 H119 H 0.21252 0.14699 -0.34126
 H120 H 0.17561 0.26094 -0.37805
 H121 H 0.20924 0.28760 -0.44080
 H122 H 0.29270 0.21411 -0.45448
 H123 H 0.32647 0.24147 -0.39225
 H124 H 0.28590 0.34595 -0.32658
 H125 H 0.25206 0.31771 -0.38695
 H126 H 0.20186 0.14032 -0.59441
 C127 C -0.24983 0.74878 -0.46571
 C128 C -0.25000 0.74926 -0.53589
 C129 C -0.23084 0.76844 -0.57589
 C130 C -0.26943 0.73083 -0.57550
 C131 C -0.26977 0.73306 -0.42570
 C132 C -0.22979 0.76421 -0.42586
 C133 C -0.22450 0.80961 -0.56470
 C134 C -0.20567 0.82682 -0.59971
 C135 C -0.19296 0.80344 -0.64793
 C136 C -0.20009 0.76260 -0.66106
 C137 C -0.21882 0.74535 -0.62535
 C138 C -0.28216 0.75504 -0.62161
 C139 C -0.30100 0.73827 -0.65728
 C140 C -0.30755 0.69679 -0.64738
 C141 C -0.29417 0.67239 -0.60243
 C142 C -0.27521 0.68914 -0.56759
 C143 C -0.26885 0.69383 -0.39598
 C144 C -0.28818 0.67766 -0.36193
 C145 C -0.30859 0.70111 -0.35467
 C146 C -0.30895 0.74129 -0.38238
 C147 C -0.28983 0.75682 -0.41842
 C148 C -0.20866 0.74298 -0.42684
 C149 C -0.18949 0.75867 -0.39137
 C150 C -0.19109 0.79623 -0.35569
 C151 C -0.21236 0.81717 -0.35435
 C152 C -0.23166 0.80093 -0.38831
 H153 H -0.23404 0.82837 -0.52833
 H154 H -0.20110 0.85850 -0.58856
 H155 H -0.19098 0.74353 -0.69799
 H156 H -0.22364 0.71363 -0.63526
 H157 H -0.27775 0.78719 -0.62902
 H158 H -0.31063 0.75815 -0.69163
 H159 H -0.26508 0.66954 -0.53414
 H160 H -0.25337 0.67528 -0.40099
 H161 H -0.28700 0.64683 -0.34096
 H162 H -0.32423 0.76043 -0.37808
 H163 H -0.29068 0.78730 -0.44094
 H164 H -0.20702 0.71451 -0.45552
 H165 H -0.17327 0.74203 -0.39338
 H166 H -0.21407 0.84603 -0.32685
 H167 H -0.24788 0.81762 -0.38711
 H168 H -0.29827 0.64022 -0.59391
 N169 N -0.02434 0.92732 -0.07384
 N170 N -0.04171 0.90140 -0.08349
 N171 N 0.02434 0.95653 -0.12097
 N172 N 0.04215 0.95208 -0.16303
 N173 N 0.02436 0.92772 -0.07345
 N174 N 0.04217 0.90275 -0.08203
 N175 N -0.02451 0.95641 -0.12086
 N176 N -0.04215 0.95141 -0.16328
 C177 C -0.05266 0.91694 -0.13937
 C178 C 0.05305 0.91840 -0.13818
 N179 N 0.02417 1.07427 -0.07400
 N180 N 0.04161 1.10011 -0.08357
 N181 N -0.02443 1.04497 -0.12095
 N182 N -0.04222 1.04936 -0.16291
 N183 N -0.02452 1.07378 -0.07341
 N184 N -0.04234 1.09869 -0.08190
 N185 N 0.02444 1.04505 -0.12081
 N186 N 0.04226 1.04980 -0.16287
 Mn187 Mn -0.00004 1.00075 -0.12171
 C188 C 0.05272 1.08432 -0.13910
 C189 C -0.05317 1.08301 -0.13800
 N190 N 0.02414 0.92758 0.07529
 N191 N 0.04153 0.90186 0.08484
 N192 N -0.02455 0.95633 0.12244
 N193 N -0.04242 0.95182 0.16430
 N194 N -0.02455 0.92749 0.07497
 N195 N -0.04239 0.90239 0.08344
 N196 N 0.02432 0.95669 0.12230
 N197 N 0.04199 0.95189 0.16465
 Mn198 Mn -0.00010 0.92701 0.00074
 C199 C 0.05250 0.91753 0.14068
 C200 C -0.05332 0.91802 0.13943
 N201 N -0.02443 1.07396 0.07537
 N202 N -0.04184 1.09964 0.08500
 N203 N 0.02425 1.04524 0.12228
 N204 N 0.04210 1.04974 0.16405
 N205 N 0.02427 1.07413 0.07488
 N206 N 0.04208 1.09927 0.08338
 N207 N -0.02461 1.04487 0.12240
 N208 N -0.04232 1.04963 0.16481
 Mn209 Mn -0.00013 1.07455 0.00071
 Mn210 Mn -0.00015 1.00078 0.12318
 Cl211 Cl -0.00010 1.00077 0.00073
 C212 C -0.05284 1.08395 0.14089
 C213 C 0.05298 1.08360 0.13927
 N214 N 0.52473 0.45531 -0.12189
 N215 N 0.54260 0.45083 -0.16371
 N216 N 0.47596 0.42624 -0.07506
 N217 N 0.45853 0.40044 -0.08457
 N218 N 0.47587 0.45527 -0.12219
 N219 N 0.45821 0.45034 -0.16458
 N220 N 0.52466 0.42649 -0.07437
 N221 N 0.54245 0.40145 -0.08281
 C222 C 0.55343 0.41709 -0.13880
 C223 C 0.44763 0.41597 -0.14052
 N224 N 0.47561 0.45547 0.12115
 N225 N 0.45774 0.45098 0.16306
 N226 N 0.52430 0.42653 0.07440
 N227 N 0.54165 0.40078 0.08414
 N228 N 0.52447 0.45570 0.12131
 N229 N 0.54211 0.45091 0.16377
 N230 N 0.47560 0.42656 0.07377
 N231 N 0.45777 0.40146 0.08239
 Mn232 Mn 0.50013 0.42594 -0.00031
 C233 C 0.44684 0.41715 0.13834
 C234 C 0.55259 0.41650 0.13998
 N235 N 0.47599 0.54382 -0.12258
 N236 N 0.45828 0.54828 -0.16483
 N237 N 0.52456 0.57308 -0.07528
 N238 N 0.54198 0.59892 -0.08479
 N239 N 0.52487 0.54382 -0.12202
 N240 N 0.54271 0.54856 -0.16399
 N241 N 0.47588 0.57268 -0.07512
 N242 N 0.45811 0.59769 -0.08394
 Mn243 Mn 0.50037 0.49955 -0.12299
 C244 C 0.44734 0.58202 -0.14017
 C245 C 0.55314 0.58310 -0.14020
 N246 N 0.52448 0.54426 0.12105
 N247 N 0.54226 0.54885 0.16305
 N248 N 0.47586 0.57302 0.07365
 N249 N 0.45845 0.59873 0.08298
 N250 N 0.47561 0.54400 0.12079
 N251 N 0.45786 0.54885 0.16301
 N252 N 0.52455 0.57310 0.07357
 N253 N 0.54233 0.59828 0.08224
 Mn254 Mn 0.50004 0.49986 0.12190
 Mn255 Mn 0.50021 0.57348 -0.00079
 Cl256 Cl 0.50019 0.49971 -0.00055
 C257 C 0.55317 0.58269 0.13831
 C258 C 0.44739 0.58314 0.13882
 C259 C 0.36533 0.35165 0.25747
 N260 N 0.35341 0.37382 0.30494
 N261 N 0.33458 0.35823 0.33507
 C262 C 0.32691 0.31973 0.31930
 N263 N 0.33890 0.29766 0.27149
 N264 N 0.35770 0.31332 0.24108
 C265 C 0.38637 0.36872 0.22554
 N266 N 0.39736 0.34843 0.17374
 N267 N 0.41660 0.36390 0.14556
 C268 C 0.42558 0.40007 0.16849
 N269 N 0.41460 0.42032 0.22024
 N270 N 0.39532 0.40497 0.24816
 C271 C -0.13496 0.85244 0.25743
 N272 N -0.14696 0.87454 0.30481
 N273 N -0.16581 0.85887 0.33472
 C274 C -0.17341 0.82035 0.31880
 N275 N -0.16134 0.79836 0.27106
 N276 N -0.14254 0.81410 0.24087
 C277 C -0.11390 0.86955 0.22580
 N278 N -0.10285 0.84932 0.17406
 N279 N -0.08357 0.86481 0.14616
 C280 C -0.07462 0.90094 0.16934
 N281 N -0.08565 0.92114 0.22104
 N282 N -0.10496 0.90576 0.24868
 C283 C 0.63448 0.64838 0.25747
 N284 N 0.64155 0.68740 0.24352
 N285 N 0.66032 0.70300 0.27394
 C286 C 0.67288 0.68017 0.31926
 N287 N 0.66578 0.64099 0.33257
 N288 N 0.64696 0.62547 0.30249
 C289 C 0.61348 0.63131 0.22557
 N290 N 0.60480 0.59462 0.24716
 N291 N 0.58557 0.57922 0.21925
 C292 C 0.57438 0.59985 0.16848
 N293 N 0.58308 0.63647 0.14656
 N294 N 0.60226 0.65200 0.17478
 C295 C 0.13454 1.14884 0.25744
 N296 N 0.14161 1.18787 0.24358
 N297 N 0.16043 1.20338 0.27390
 C298 C 0.17300 1.18045 0.31903
 N299 N 0.16589 1.14126 0.33222
 N300 N 0.14704 1.12583 0.30224
 C301 C 0.11348 1.13189 0.22576
 N302 N 0.10480 1.09520 0.24736
 N303 N 0.08551 1.07991 0.21969
 C304 C 0.07425 1.10064 0.16917
 N305 N 0.08295 1.13726 0.14723
 N306 N 0.10220 1.15269 0.17521
 C307 C 0.63486 0.35181 -0.25747
 N308 N 0.64697 0.37414 -0.30446
 N309 N 0.66576 0.35859 -0.33457
 C310 C 0.67324 0.31994 -0.31936
 N311 N 0.66104 0.29776 -0.27192
 N312 N 0.64228 0.31338 -0.24153
 C313 C 0.61385 0.36883 -0.22562
 N314 N 0.60274 0.34845 -0.17402
 N315 N 0.58352 0.36387 -0.14594
 C316 C 0.57468 0.40008 -0.16879
 N317 N 0.58578 0.42040 -0.22034
 N318 N 0.60504 0.40511 -0.24815
 C319 C 0.13442 0.85326 -0.25721
 N320 N 0.14279 0.81603 -0.23767
 N321 N 0.16158 0.80043 -0.26786
 C322 C 0.17279 0.82150 -0.31857
 N323 N 0.16441 0.85884 -0.33770
 N324 N 0.14560 0.87439 -0.30771
 C325 C 0.11342 0.87024 -0.22536
 N326 N 0.10411 0.90576 -0.24950
 N327 N 0.08488 0.92104 -0.22156
 C328 C 0.07427 0.90142 -0.16836
 N329 N 0.08358 0.86596 -0.14396
 N330 N 0.10280 0.85059 -0.17208
 C331 C 0.36625 0.64744 -0.25978
 N332 N 0.35514 0.62642 -0.31042
 N333 N 0.33635 0.64200 -0.34028
 C334 C 0.32792 0.67928 -0.32086
 N335 N 0.33907 0.70025 -0.27003
 N336 N 0.35784 0.68461 -0.23998
 C337 C 0.38721 0.63039 -0.22789
 N338 N 0.39654 0.59488 -0.25204
 N339 N 0.41571 0.57953 -0.22396
 C340 C 0.42621 0.59907 -0.17059
 N341 N 0.41686 0.63453 -0.14620
 N342 N 0.39772 0.64997 -0.17445
 C343 C -0.13462 1.14785 -0.25612
 N344 N -0.14580 1.12667 -0.30644
 N345 N -0.16466 1.14213 -0.33613
 C346 C -0.17307 1.17944 -0.31686
 N347 N -0.16186 1.20057 -0.26634
 N348 N -0.14303 1.18505 -0.23645
 C349 C -0.11359 1.13095 -0.22456
 N350 N -0.10300 1.15064 -0.17138
 N351 N -0.08376 1.13534 -0.14348
 C352 C -0.07440 1.09992 -0.16800
 N353 N -0.08498 1.08027 -0.22111
 N354 N -0.10424 1.09547 -0.24883
 C355 C 0.63354 0.65191 -0.25993
 N356 N 0.65201 0.62781 -0.27516
 N357 N 0.67081 0.64386 -0.30483
 C358 C 0.67178 0.68451 -0.32152
 N359 N 0.65316 0.70848 -0.30633
 N360 N 0.63449 0.69258 -0.27568
 C361 C 0.61275 0.63405 -0.22810
 N362 N 0.59813 0.65779 -0.19035
 N363 N 0.57921 0.64146 -0.16166
 C364 C 0.57409 0.60099 -0.17066
 N365 N 0.58863 0.57733 -0.20874
 N366 N 0.60772 0.59351 -0.23653
 C367 C 0.13315 1.15273 -0.25953
 N368 N 0.13418 1.19339 -0.27534
 N369 N 0.15287 1.20915 -0.30616
 C370 C 0.17142 1.18503 -0.32151
 N371 N 0.17036 1.14439 -0.30479
 N372 N 0.15155 1.12850 -0.27493
 C373 C 0.11235 1.13502 -0.22750
 N374 N 0.10725 1.09449 -0.23585
 N375 N 0.08816 1.07841 -0.20787
 C376 C 0.07369 1.10215 -0.16968
 N377 N 0.07888 1.14259 -0.16076
 N378 N 0.09779 1.15883 -0.18963
 C379 C 0.36749 0.34671 -0.26052
 N380 N 0.36473 0.30524 -0.26430
 N381 N 0.34606 0.28902 -0.29434
 C382 C 0.32933 0.31368 -0.32092
 N383 N 0.33204 0.35516 -0.31661
 N384 N 0.35083 0.37137 -0.28733
 C385 C 0.38825 0.36469 -0.22884
 N386 N 0.39443 0.40421 -0.24263
 N387 N 0.41343 0.42048 -0.21465
 C388 C 0.42677 0.39796 -0.17125
 N389 N 0.42052 0.35854 -0.15702
 N390 N 0.40166 0.34210 -0.18567
 C391 C -0.13252 0.84725 -0.26051
 N392 N -0.13516 0.80577 -0.26471
 N393 N -0.15377 0.78949 -0.29502
 C394 C -0.17056 0.81408 -0.32146
 N395 N -0.16796 0.85557 -0.31673
 N396 N -0.14923 0.87185 -0.28719
 C397 C -0.11183 0.86532 -0.22849
 N398 N -0.10576 0.90494 -0.24190
 N399 N -0.08683 0.92131 -0.21364
 C400 C -0.07346 0.89881 -0.17031
 N401 N -0.07961 0.85928 -0.15645
 N402 N -0.09839 0.84274 -0.18539
 C403 C 0.36720 0.65225 0.25829
 N404 N 0.36453 0.69372 0.26177
 N405 N 0.34589 0.70996 0.29182
 C406 C 0.32909 0.68532 0.31870
 N407 N 0.33171 0.64384 0.31467
 N408 N 0.35047 0.62761 0.28537
 C409 C 0.38795 0.63428 0.22667
 N410 N 0.39403 0.59481 0.24064
 N411 N 0.41305 0.57857 0.21280
 C412 C 0.42650 0.60109 0.16936
 N413 N 0.42035 0.64046 0.15495
 N414 N 0.40148 0.65686 0.18345
 C415 C -0.13296 1.15250 0.26190
 N416 N -0.14962 1.12770 0.28898
 N417 N -0.16839 1.14374 0.31853
 C418 C -0.17109 1.18520 0.32286
 N419 N -0.15436 1.21000 0.29601
 N420 N -0.13570 1.19395 0.26570
 C421 C -0.11221 1.13471 0.22989
 N422 N -0.09877 1.15744 0.18664
 N423 N -0.07993 1.14117 0.15775
 C424 C -0.07371 1.10177 0.17180
 N425 N -0.08707 1.07912 0.21527
 N426 N -0.10606 1.09522 0.24349
 C427 C 0.63243 0.34748 0.26082
 N428 N 0.64922 0.37218 0.28724
 N429 N 0.66793 0.35601 0.31672
 C430 C 0.67043 0.31454 0.32162
 N431 N 0.65356 0.28984 0.29542
 N432 N 0.63497 0.30601 0.26518
 C433 C 0.61175 0.36540 0.22890
 N434 N 0.59825 0.34268 0.18596
 N435 N 0.57946 0.35906 0.15712
 C436 C 0.57338 0.39856 0.17091
 N437 N 0.58681 0.42121 0.21409
 N438 N 0.60573 0.40499 0.24226
 C439 C 0.13250 0.84857 0.26088
 N440 N 0.13518 0.80711 0.26453
 N441 N 0.15382 0.79094 0.29451
 C442 C 0.17060 0.81564 0.32117
 N443 N 0.16796 0.85711 0.31700
 N444 N 0.14920 0.87327 0.28778
 C445 C 0.11177 0.86648 0.22915
 N446 N 0.10567 0.90599 0.24288
 N447 N 0.08671 0.92219 0.21486
 C448 C 0.07333 0.89961 0.17146
 N449 N 0.07949 0.86020 0.15729
 N450 N 0.09831 0.84383 0.18599
   
