data_POSCAR
  _audit_creation_date              2014-09-24
  _audit_creation_method            'ToBaCCo'
  _symmetry_space_group_name_H-M    'P1'
  _symmetry_Int_Tables_number       1
  _symmetry_cell_setting            triclinic
  loop_
  _symmetry_equiv_pos_as_xyz
 x,y,z
_cell_length_a 56.6953
_cell_length_b 56.6415
_cell_length_c 20.2431
_cell_angle_alpha 89.955200
_cell_angle_beta 90.019500
_cell_angle_gamma 119.983600
loop_
  _atom_site_label
  _atom_site_type_symbol
  _atom_site_fract_x
  _atom_site_fract_y
  _atom_site_fract_z
O1 O 0.25955 0.47345 0.56174
 O2 O 0.21319 0.47337 0.43394
 O3 O 0.25927 0.47348 0.43328
 O4 O 0.21348 0.47334 0.56240
 O5 O 0.23591 0.51842 0.56238
 O6 O 0.28170 0.51855 0.43326
 O7 O 0.23562 0.51844 0.43393
 O8 O 0.28198 0.51853 0.56172
 Cu9 Cu 0.23411 0.46886 0.49783
 Cu10 Cu 0.26106 0.52303 0.49781
 C11 C 0.27867 0.49600 0.58309
 C12 C 0.21649 0.49589 0.41260
 C13 C 0.27830 0.49604 0.41173
 C14 C 0.21689 0.49585 0.58395
 O15 O 0.52508 -0.26101 0.43549
 O16 O 0.52433 -0.21511 0.56332
 O17 O 0.52516 -0.26078 0.56407
 O18 O 0.52420 -0.21536 0.43526
 O19 O 0.47917 -0.23849 0.43547
 O20 O 0.48013 -0.28392 0.56431
 O21 O 0.47929 -0.23824 0.56356
 O22 O 0.48006 -0.28415 0.43570
 Cu23 Cu 0.52923 -0.23577 0.49951
 Cu24 Cu 0.47512 -0.26358 0.49977
 C25 C 0.50270 -0.28040 0.41418
 C26 C 0.50169 -0.21876 0.58454
 C27 C 0.50281 -0.28009 0.58577
 C28 C 0.50152 -0.21908 0.41413
 O29 O 1.21488 0.74044 0.56208
 O30 O 1.26176 0.78636 0.43456
 O31 O 1.21523 0.74078 0.43357
 O32 O 1.26139 0.78599 0.56272
 O33 O 1.28320 0.76274 0.56281
 O34 O 1.23702 0.71752 0.43361
 O35 O 1.28357 0.76311 0.43460
 O36 O 1.23667 0.71717 0.56217
 Cu37 Cu 1.23609 0.76571 0.49822
 Cu38 Cu 1.26229 0.73776 0.49829
 C39 C 1.21779 0.72098 0.58347
 C40 C 1.28073 0.78265 0.41347
 C41 C 1.21825 0.72144 0.41202
 C42 C 1.28023 0.78215 0.58415
 O43 O 0.73732 0.52196 0.56473
 O44 O 0.78379 0.52195 0.43751
 O45 O 0.73769 0.52191 0.43657
 O46 O 0.78339 0.52191 0.56571
 O47 O 0.76089 0.47683 0.56582
 O48 O 0.71518 0.47683 0.43664
 O49 O 0.76130 0.47687 0.43757
 O50 O 0.71480 0.47688 0.56484
 Cu51 Cu 0.76282 0.52648 0.50113
 Cu52 Cu 0.73577 0.47231 0.50124
 C53 C 0.71805 0.49943 0.58581
 C54 C 0.78054 0.49942 0.41648
 C55 C 0.71856 0.49937 0.41526
 C56 C 0.78002 0.49938 0.58710
 O57 O 0.47517 0.26077 0.43776
 O58 O 0.47470 0.21403 0.56522
 O59 O 0.47518 0.26035 0.56588
 O60 O 0.47457 0.21439 0.43668
 O61 O 0.51960 0.23652 0.43649
 O62 O 0.52022 0.28253 0.56574
 O63 O 0.51973 0.23618 0.56507
 O64 O 0.52020 0.28292 0.43758
 Cu65 Cu 0.47036 0.23512 0.50140
 Cu66 Cu 0.52448 0.26174 0.50120
 C67 C 0.49776 0.27988 0.41659
 C68 C 0.49714 0.21715 0.58649
 C69 C 0.49779 0.27935 0.58716
 C70 C 0.49698 0.21762 0.41497
 O71 O 0.78644 0.26156 0.56518
 O72 O 0.74018 0.21467 0.43817
 O73 O 0.78591 0.26103 0.43705
 O74 O 0.74073 0.21516 0.56669
 O75 O 0.71776 0.23726 0.56672
 O76 O 0.76296 0.28316 0.43705
 O77 O 0.71723 0.23678 0.43819
 O78 O 0.76348 0.28366 0.56520
 Cu79 Cu 0.76560 0.23585 0.50178
 Cu80 Cu 0.73801 0.26241 0.50180
 C81 C 0.78292 0.28068 0.58620
 C82 C 0.72083 0.21775 0.41693
 C83 C 0.78222 0.27999 0.41561
 C84 C 0.72154 0.21838 0.58836
 O85 O 0.96231 0.52153 -0.12265
 O86 O 0.93224 0.48569 -0.05805
 C87 C 0.93791 0.50327 -0.10497
 O88 O 1.03856 0.47655 -0.11667
 O89 O 1.06861 0.51401 -0.05657
 C90 C 1.06296 0.49507 -0.09980
 O91 O 0.96250 0.44039 -0.12199
 O92 O 0.93234 0.44630 -0.05826
 C93 C 0.93807 0.43428 -0.10478
 O94 O 1.03828 0.56216 -0.11659
 O95 O 1.06851 0.55503 -0.05632
 C96 C 1.06274 0.56820 -0.09977
 Zr97 Zr 1.00032 0.53026 -0.08253
 O98 O 1.00087 0.53430 -0.18646
 O99 O 0.99922 0.56674 -0.07045
 Zr100 Zr 1.00052 0.47055 -0.08363
 O101 O 1.00303 0.47170 -0.18804
 O102 O 0.99765 0.43181 -0.08182
 O103 O 0.97625 0.48826 -0.09608
 O104 O 1.02401 0.51227 -0.09556
 O105 O 1.03868 0.56228 0.11501
 O106 O 1.06883 0.55480 0.05528
 C107 C 1.06312 0.56816 0.09822
 O108 O 0.96277 0.44034 0.12174
 O109 O 0.93248 0.44620 0.05826
 C110 C 0.93831 0.43418 0.10460
 O111 O 1.03896 0.47665 0.11523
 O112 O 1.06892 0.51419 0.05504
 C113 C 1.06335 0.49524 0.09830
 O114 O 0.96243 0.52186 0.12223
 O115 O 0.93231 0.48561 0.05887
 C116 C 0.93801 0.50338 0.10534
 Zr117 Zr 1.00044 0.52997 0.08324
 O118 O 1.00358 0.53195 0.18754
 O119 O 0.99760 0.56584 0.08121
 Zr120 Zr 1.00068 0.47034 0.08261
 O121 O 1.00374 0.47063 0.18683
 O122 O 0.99772 0.43157 0.07858
 Zr123 Zr 0.95964 0.47971 0.00009
 Zr124 Zr 1.04118 0.52069 -0.00038
 O125 O 1.02414 0.51200 0.09507
 O126 O 0.97633 0.48794 0.09616
 O127 O 1.02488 0.54697 0.00018
 O128 O 0.97674 0.45418 -0.00041
 O129 O 0.97634 0.52228 0.00040
 O130 O 1.02507 0.47812 -0.00068
 H131 H 1.03617 0.51836 -0.13459
 H132 H 0.96438 0.43416 -0.00045
 H133 H 1.03627 0.51808 0.13417
 H134 H 0.96380 0.52971 0.00047
 H135 H 1.01352 0.43369 -0.05696
 H136 H 1.01437 0.43388 0.05683
 H137 H 0.99019 0.47506 0.20474
 H138 H 0.98907 0.51434 0.20518
 H139 H 1.01242 0.57916 0.05246
 H140 H 0.99857 0.57315 -0.11560
 H141 H 1.00534 0.52090 -0.20507
 H142 H 0.98849 0.47494 -0.20486
 O143 O 0.55912 0.52186 0.12232
 O144 O 0.55353 0.48604 0.05795
 C145 C 0.56532 0.50360 0.10493
 O146 O 0.43804 0.47713 0.11479
 O147 O 0.44552 0.51462 0.05434
 C148 C 0.43218 0.49568 0.09760
 O149 O 0.47793 0.44075 0.12134
 O150 O 0.51411 0.44666 0.05806
 C151 C 0.49629 0.43464 0.10444
 O152 O 0.52376 0.56249 0.11536
 O153 O 0.48650 0.55532 0.05468
 C154 C 0.50533 0.56849 0.09829
 Zr155 Zr 0.52993 0.53061 0.08161
 O156 O 0.53324 0.53470 0.18554
 O157 O 0.56749 0.56708 0.06960
 Zr158 Zr 0.47008 0.47090 0.08253
 O159 O 0.46839 0.47193 0.18690
 O160 O 0.43426 0.43217 0.08052
 O161 O 0.51202 0.48861 0.09537
 O162 O 0.48826 0.51260 0.09431
 O163 O 0.52386 0.56260 -0.11652
 O164 O 0.48618 0.55511 -0.05704
 C165 C 0.50526 0.56846 -0.09998
 O166 O 0.47789 0.44049 -0.12194
 O167 O 0.51403 0.44648 -0.05832
 C168 C 0.49619 0.43436 -0.10455
 O169 O 0.43798 0.47684 -0.11653
 O170 O 0.44549 0.51446 -0.05683
 C171 C 0.43215 0.49545 -0.09991
 O172 O 0.55969 0.52214 -0.12290
 O173 O 0.55355 0.48593 -0.05914
 C174 C 0.56563 0.50365 -0.10574
 Zr175 Zr 0.52981 0.53034 -0.08417
 O176 O 0.52895 0.53241 -0.18849
 O177 O 0.56847 0.56621 -0.08159
 Zr178 Zr 0.47004 0.47069 -0.08379
 O179 O 0.46795 0.47150 -0.18812
 O180 O 0.43426 0.43194 -0.08106
 Zr181 Zr 0.52026 0.48006 -0.00060
 Zr182 Zr 0.47965 0.52099 -0.00109
 O183 O 0.48818 0.51235 -0.09637
 O184 O 0.51199 0.48830 -0.09688
 O185 O 0.52218 0.54732 -0.00135
 O186 O 0.47767 0.45454 -0.00042
 O187 O 0.54609 0.52263 -0.00103
 O188 O 0.45325 0.47843 -0.00077
 H189 H 0.48212 0.51869 0.13321
 H190 H 0.47000 0.43452 -0.00021
 H191 H 0.48214 0.51841 -0.13556
 H192 H 0.56605 0.53004 -0.00093
 H193 H 0.42016 0.43415 0.05641
 H194 H 0.42015 0.43398 -0.05725
 H195 H 0.48553 0.47457 -0.20568
 H196 H 0.52529 0.51459 -0.20592
 H197 H 0.56680 0.57960 -0.05350
 H198 H 0.57446 0.57350 0.11477
 H199 H 0.51546 0.52106 0.20405
 H200 H 0.48613 0.47522 0.20403
 O201 O 0.52152 -0.03768 0.12319
 O202 O 0.48586 -0.06785 0.05839
 C203 C 0.50336 -0.06213 0.10549
 O204 O 0.47635 0.03841 0.11597
 O205 O 0.51384 0.06859 0.05609
 C206 C 0.49484 0.06286 0.09916
 O207 O 0.44035 -0.03774 0.12142
 O208 O 0.44645 -0.06787 0.05799
 C209 C 0.43433 -0.06218 0.10431
 O210 O 0.56195 0.03839 0.11706
 O211 O 0.55484 0.06861 0.05650
 C212 C 0.56795 0.06286 0.10016
 Zr213 Zr 0.53021 0.00033 0.08289
 O214 O 0.53406 0.00087 0.18687
 O215 O 0.56675 -0.00065 0.07135
 Zr216 Zr 0.47049 0.00034 0.08314
 O217 O 0.47140 0.00283 0.18754
 O218 O 0.43175 -0.00264 0.08087
 O219 O 0.48825 -0.02386 0.09605
 O220 O 0.51212 0.02395 0.09547
 O221 O 0.56256 0.03858 -0.11489
 O222 O 0.55498 0.06867 -0.05525
 C223 C 0.56840 0.06300 -0.09808
 O224 O 0.44065 -0.03746 -0.12202
 O225 O 0.44655 -0.06773 -0.05844
 C226 C 0.43454 -0.06193 -0.10484
 O227 O 0.47684 0.03883 -0.11587
 O228 O 0.51423 0.06890 -0.05549
 C229 C 0.49535 0.06327 -0.09893
 O230 O 0.52226 -0.03756 -0.12177
 O231 O 0.48600 -0.06778 -0.05855
 C232 C 0.50383 -0.06202 -0.10487
 Zr233 Zr 0.53023 0.00044 -0.08285
 O234 O 0.53244 0.00357 -0.18714
 O235 O 0.56610 -0.00235 -0.07995
 Zr236 Zr 0.47061 0.00055 -0.08313
 O237 O 0.47140 0.00362 -0.18741
 O238 O 0.43186 -0.00246 -0.08024
 Zr239 Zr 0.47992 -0.04047 -0.00010
 Zr240 Zr 0.52069 0.04119 0.00030
 O241 O 0.51225 0.02413 -0.09512
 O242 O 0.48829 -0.02377 -0.09619
 O243 O 0.54701 0.02494 0.00023
 O244 O 0.45434 -0.02344 -0.00012
 O245 O 0.52245 -0.02367 0.00008
 O246 O 0.47814 0.02492 0.00010
 H247 H 0.51810 0.03611 0.13450
 H248 H 0.43435 -0.03582 -0.00021
 H249 H 0.51839 0.03628 -0.13422
 H250 H 0.52992 -0.03619 0.00020
 H251 H 0.43364 0.01328 0.05611
 H252 H 0.43397 0.01395 -0.05759
 H253 H 0.47505 -0.01051 -0.20508
 H254 H 0.51477 -0.01073 -0.20485
 H255 H 0.57936 0.01256 -0.05135
 H256 H 0.57308 -0.00125 0.11659
 H257 H 0.52068 0.00540 0.20527
 H258 H 0.47472 -0.01165 0.20452
 C259 C 1.16351 0.49594 0.28216
 N260 N 1.16426 0.51960 0.26657
 N261 N 1.14542 0.51952 0.22703
 C262 C 1.12526 0.49578 0.20181
 N263 N 1.12453 0.47212 0.21728
 N264 N 1.14338 0.47220 0.25682
 C265 C 1.18294 0.49589 0.32760
 C266 C 1.19889 0.49588 0.36702
 C267 C 1.10397 0.49553 0.16281
 C268 C 1.08566 0.49536 0.13210
 C269 C 0.50355 0.66718 0.28325
 N270 N 0.52747 0.67079 0.25925
 N271 N 0.52785 0.65222 0.21953
 C272 C 0.50431 0.62948 0.20254
 N273 N 0.48039 0.62591 0.22642
 N274 N 0.48001 0.64448 0.26613
 C275 C 0.50325 0.68643 0.32888
 C276 C 0.50299 0.70221 0.36845
 C277 C 0.50483 0.60863 0.16332
 C278 C 0.50514 0.59060 0.13239
 C279 C 0.33508 -0.16363 0.28642
 N280 N 0.35928 -0.16256 0.27702
 N281 N 0.37835 -0.14329 0.23886
 C282 C 0.37380 -0.12449 0.20897
 N283 N 0.34957 -0.12559 0.21826
 N284 N 0.33050 -0.14487 0.25642
 C285 C 0.31514 -0.18347 0.33038
 C286 C 0.29875 -0.19966 0.36875
 C287 C 0.39484 -0.10293 0.17058
 C288 C 0.41275 -0.08448 0.13963
 C289 C 0.83603 0.49988 0.28771
 N290 N 0.83728 0.47686 0.27757
 N291 N 0.85674 0.47739 0.23961
 C292 C 0.87557 0.50096 0.21066
 N293 N 0.87430 0.52397 0.22070
 N294 N 0.85483 0.52344 0.25866
 C295 C 0.81592 0.49960 0.33132
 C296 C 0.79948 0.49946 0.36938
 C297 C 0.89724 0.50177 0.17220
 C298 C 0.91573 0.50250 0.14106
 C299 C 0.49789 0.33513 0.28723
 N300 N 0.47402 0.33240 0.26550
 N301 N 0.47386 0.35150 0.22732
 C302 C 0.49756 0.37392 0.20972
 N303 N 0.52144 0.37663 0.23135
 N304 N 0.52160 0.35753 0.26954
 C305 C 0.49796 0.31524 0.33112
 C306 C 0.49792 0.29887 0.36936
 C307 C 0.49729 0.39508 0.17119
 C308 C 0.49690 0.41304 0.14005
 C309 C 0.66692 0.16328 0.28456
 N310 N 0.67081 0.14339 0.25879
 N311 N 0.65212 0.12442 0.21936
 C312 C 0.62897 0.12478 0.20445
 N313 N 0.62511 0.14471 0.23011
 N314 N 0.64380 0.16367 0.26952
 C315 C 0.68636 0.18288 0.32976
 C316 C 0.70230 0.19899 0.36895
 C317 C 0.60807 0.10342 0.16535
 C318 C 0.59003 0.08510 0.13443
 C319 C 0.49667 0.16381 -0.28312
 N320 N 0.52025 0.16459 -0.26674
 N321 N 0.52000 0.14563 -0.22721
 C322 C 0.49616 0.12532 -0.20279
 N323 N 0.47258 0.12457 -0.21905
 N324 N 0.47284 0.14354 -0.25858
 C325 C 0.49683 0.18338 -0.32855
 C326 C 0.49697 0.19944 -0.36796
 C327 C 0.49575 0.10395 -0.16372
 C328 C 0.49550 0.08559 -0.13291
 C329 C 0.66390 0.49980 -0.28824
 N330 N 0.66936 0.52287 -0.25550
 N331 N 0.65043 0.52343 -0.21753
 C332 C 0.62547 0.50094 -0.21118
 N333 N 0.62003 0.47785 -0.24385
 N334 N 0.63895 0.47730 -0.28181
 C335 C 0.68379 0.49957 -0.33177
 C336 C 0.70012 0.49946 -0.36978
 C337 C 0.60469 0.50186 -0.17263
 C338 C 0.58699 0.50268 -0.14144
 C339 C 0.83682 0.33507 -0.28722
 N340 N 0.85548 0.33043 -0.25699
 N341 N 0.87473 0.34950 -0.21883
 C342 C 0.87591 0.37379 -0.20977
 N343 N 0.85722 0.37841 -0.23990
 N344 N 0.83798 0.35934 -0.27805
 C345 C 0.81697 0.31510 -0.33105
 C346 C 0.80072 0.29870 -0.36927
 C347 C 0.89742 0.39482 -0.17128
 C348 C 0.91582 0.41272 -0.14023
 C349 C 0.50118 -0.16376 -0.28668
 N350 N 0.47861 -0.16139 -0.28100
 N351 N 0.47891 -0.14200 -0.24312
 C352 C 0.50179 -0.12439 -0.20980
 N353 N 0.52434 -0.12679 -0.21537
 N354 N 0.52404 -0.14618 -0.25325
 C355 C 0.50126 -0.18371 -0.33023
 C356 C 0.50141 -0.20000 -0.36829
 C357 C 0.50246 -0.10275 -0.17145
 C358 C 0.50307 -0.08429 -0.14043
 C359 C 0.33266 0.49608 -0.28376
 N360 N 0.32929 0.47229 -0.25927
 N361 N 0.34806 0.47220 -0.21974
 C362 C 0.37074 0.49590 -0.20343
 N363 N 0.37407 0.51969 -0.22779
 N364 N 0.35531 0.51978 -0.26731
 C365 C 0.31320 0.49606 -0.32922
 C366 C 0.29723 0.49604 -0.36864
 C367 C 0.39179 0.49566 -0.16447
 C368 C 0.40995 0.49552 -0.13377
 C369 C 1.16307 0.66755 -0.28374
 N370 N 1.14035 0.66871 -0.26875
 N371 N 1.12134 0.65004 -0.22933
 C372 C 1.12447 0.62965 -0.20364
 N373 N 1.14721 0.62852 -0.21850
 N374 N 1.16623 0.64719 -0.25793
 C375 C 1.18282 0.68680 -0.32905
 C376 C 1.19900 0.70260 -0.36836
 C377 C 1.10320 0.60858 -0.16466
 C378 C 1.08494 0.59041 -0.13385
 C379 C 0.83528 0.49981 -0.28388
 N380 N 0.83621 0.47667 -0.27291
 N381 N 0.85585 0.47720 -0.23564
 C382 C 0.87516 0.50090 -0.20831
 N383 N 0.87420 0.52403 -0.21914
 N384 N 0.85457 0.52350 -0.25642
 C385 C 0.81515 0.49954 -0.32723
 C386 C 0.79878 0.49941 -0.36538
 C387 C 0.89699 0.50170 -0.17077
 C388 C 0.91559 0.50242 -0.14026
 C389 C 0.49784 0.33419 -0.28307
 N390 N 0.47393 0.33163 -0.26237
 N391 N 0.47371 0.35083 -0.22486
 C392 C 0.49739 0.37319 -0.20699
 N393 N 0.52132 0.37573 -0.22755
 N394 N 0.52154 0.35652 -0.26507
 C395 C 0.49799 0.31437 -0.32678
 C396 C 0.49797 0.29812 -0.36517
 C397 C 0.49708 0.39449 -0.16952
 C398 C 0.49671 0.41260 -0.13926
 C399 C 0.66827 0.16426 -0.27811
 N400 N 0.64575 0.16534 -0.26053
 N401 N 0.62696 0.14619 -0.22165
 C402 C 0.63013 0.12538 -0.19916
 N403 N 0.65268 0.12433 -0.21660
 N404 N 0.67148 0.14349 -0.25549
 C405 C 0.68758 0.18387 -0.32337
 C406 C 0.70333 0.19989 -0.36291
 C407 C 0.60902 0.10380 -0.16118
 C408 C 0.59075 0.08532 -0.13125
 C409 C 1.16324 0.49575 -0.28228
 N410 N 1.16428 0.51945 -0.26571
 N411 N 1.14537 0.51932 -0.22637
 C412 C 1.12488 0.49550 -0.20238
 N413 N 1.12387 0.47180 -0.21882
 N414 N 1.14278 0.47193 -0.25816
 C415 C 1.18262 0.49577 -0.32779
 C416 C 1.19849 0.49580 -0.36741
 C417 C 1.10355 0.49524 -0.16381
 C418 C 1.08521 0.49510 -0.13341
 C419 C 0.50381 0.66775 -0.28289
 N420 N 0.48023 0.64529 -0.26484
 N421 N 0.48061 0.62663 -0.22542
 C422 C 0.50458 0.62988 -0.20282
 N423 N 0.52816 0.65238 -0.22073
 N424 N 0.52778 0.67104 -0.26016
 C425 C 0.50348 0.68697 -0.32850
 C426 C 0.50316 0.70267 -0.36822
 C427 C 0.50505 0.60889 -0.16416
 C428 C 0.50526 0.59072 -0.13369
 C429 C 0.33517 -0.16354 -0.28546
 N430 N 0.35936 -0.16247 -0.27602
 N431 N 0.37846 -0.14313 -0.23815
 C432 C 0.37395 -0.12426 -0.20865
 N433 N 0.34972 -0.12536 -0.21796
 N434 N 0.33062 -0.14471 -0.25583
 C435 C 0.31530 -0.18331 -0.32944
 C436 C 0.29903 -0.19939 -0.36802
 C437 C 0.39502 -0.10263 -0.17072
 C438 C 0.41296 -0.08417 -0.14006
 C439 C 0.50078 -0.16424 0.28540
 N440 N 0.47812 -0.16204 0.27964
 N441 N 0.47837 -0.14256 0.24220
 C442 C 0.50130 -0.12467 0.20946
 N443 N 0.52395 -0.12690 0.21510
 N444 N 0.52370 -0.14639 0.25255
 C445 C 0.50094 -0.18419 0.32873
 C446 C 0.50117 -0.20044 0.36679
 C447 C 0.50193 -0.10295 0.17166
 C448 C 0.50255 -0.08442 0.14096
 C449 C 0.33209 0.49617 0.27839
 N450 N 0.32893 0.47236 0.25469
 N451 N 0.34781 0.47229 0.21564
 C452 C 0.37041 0.49602 0.19908
 N453 N 0.37354 0.51983 0.22264
 N454 N 0.35466 0.51990 0.26169
 C455 C 0.31263 0.49613 0.32368
 C456 C 0.29672 0.49609 0.36318
 C457 C 0.39161 0.49582 0.16089
 C458 C 0.40989 0.49571 0.13083
 C459 C 1.16385 0.66825 0.27885
 N460 N 1.14121 0.66948 0.26347
 N461 N 1.12212 0.65068 0.22452
 C462 C 1.12510 0.63009 0.19975
 N463 N 1.14778 0.62889 0.21499
 N464 N 1.16687 0.64769 0.25395
 C465 C 1.18354 0.68749 0.32405
 C466 C 1.19964 0.70323 0.36349
 C467 C 1.10372 0.60885 0.16160
 C468 C 1.08537 0.59052 0.13152
 C469 C 0.49616 0.16361 0.28116
 N470 N 0.51976 0.16487 0.26284
 N471 N 0.51941 0.14582 0.22359
 C472 C 0.49544 0.12495 0.20145
 N473 N 0.47183 0.12373 0.21964
 N474 N 0.47219 0.14279 0.25889
 C475 C 0.49646 0.18316 0.32664
 C476 C 0.49672 0.19914 0.36627
 C477 C 0.49501 0.10350 0.16300
 C478 C 0.49481 0.08511 0.13270
 C479 C 0.66379 0.49975 0.28597
 N480 N 0.66894 0.52306 0.25484
 N481 N 0.64994 0.52365 0.21722
 C482 C 0.62523 0.50095 0.20970
 N483 N 0.62010 0.47763 0.24073
 N484 N 0.63909 0.47704 0.27834
 C485 C 0.68362 0.49951 0.32949
 C486 C 0.69985 0.49940 0.36772
 C487 C 0.60438 0.50187 0.17164
 C488 C 0.58664 0.50267 0.14069
 C489 C 0.83666 0.33478 0.28515
 N490 N 0.85571 0.33033 0.25648
 N491 N 0.87510 0.34942 0.21865
 C492 C 0.87603 0.37354 0.20843
 N493 N 0.85694 0.37796 0.23696
 N494 N 0.83755 0.35886 0.27479
 C495 C 0.81684 0.31494 0.32910
 C496 C 0.80071 0.29871 0.36770
 C497 C 0.89766 0.39460 0.17051
 C498 C 0.91612 0.41256 0.13985
   
