data_POSCAR
  _audit_creation_date              2014-09-24
  _audit_creation_method            'ToBaCCo'
  _symmetry_space_group_name_H-M    'P1'
  _symmetry_Int_Tables_number       1
  _symmetry_cell_setting            triclinic
  loop_
  _symmetry_equiv_pos_as_xyz
 x,y,z
_cell_length_a 18.6043
_cell_length_b 18.5896
_cell_length_c 18.6366
_cell_angle_alpha 90.164900
_cell_angle_beta 85.833000
_cell_angle_gamma 90.611400
loop_
  _atom_site_label
  _atom_site_type_symbol
  _atom_site_fract_x
  _atom_site_fract_y
  _atom_site_fract_z
Si1 Si 0.01916 0.49987 0.24859
 Si2 Si -0.01578 0.49730 0.75092
 Si3 Si 0.25022 -0.00060 0.48153
 Si4 Si 0.74931 0.00303 0.51823
 Si5 Si 0.50163 0.25095 0.99906
 Si6 Si 0.49526 0.74943 1.00142
 B7 B 1.00000 1.07362 0.04322
 B8 B 0.99996 1.07150 -0.04690
 B9 B 1.07288 1.04374 -0.00653
 B10 B 1.04354 1.00059 0.06971
 B11 B 0.95302 1.00169 0.07636
 B12 B 0.92597 1.04514 0.00414
 B13 B 0.99690 0.92476 -0.04345
 B14 B 0.99668 0.92711 0.04677
 B15 B 0.92398 0.95481 0.00631
 B16 B 0.95331 0.99788 -0.06988
 B17 B 1.04386 0.99691 -0.07662
 B18 B 1.07081 0.95337 -0.00426
 B19 B 0.57758 0.50439 0.45481
 B20 B 0.57082 0.50116 0.54524
 B21 B 0.54512 0.57540 0.50272
 B22 B 0.50586 0.54900 0.42832
 B23 B 0.50688 0.45869 0.42508
 B24 B 0.54697 0.42893 0.49734
 B25 B 0.42415 0.49833 0.54511
 B26 B 0.43115 0.50145 0.45478
 B27 B 0.45666 0.42718 0.49728
 B28 B 0.49593 0.45356 0.57174
 B29 B 0.49490 0.54390 0.57491
 B30 B 0.45483 0.57373 0.50261
 C31 C 1.01545 1.27701 0.13579
 C32 C 1.03528 1.28395 0.20623
 C33 C 1.03968 1.35182 0.23731
 C34 C 1.02451 1.41366 0.19827
 C35 C 1.00675 1.40707 0.12675
 C36 C 1.00217 1.33858 0.09550
 C37 C 1.00818 1.20632 0.10594
 C38 C 1.00325 1.14701 0.08079
 H39 H 1.04586 1.23678 0.23769
 H40 H 1.05260 1.35576 0.29295
 H41 H 0.99438 1.45413 0.09611
 H42 H 0.98699 1.33352 0.04067
 C43 C 1.00464 0.72411 0.14007
 C44 C 0.95379 0.67037 0.12668
 C45 C 0.96036 0.60125 0.15528
 C46 C 1.01812 0.58545 0.19682
 C47 C 1.06965 0.63935 0.20829
 C48 C 1.06307 0.70799 0.17986
 C49 C 0.99842 0.79566 0.11235
 C50 C 0.99607 0.85501 0.08704
 H51 H 0.90856 0.68226 0.09536
 H52 H 0.91917 0.56105 0.14716
 H53 H 1.11384 0.63003 0.24148
 H54 H 1.10293 0.74899 0.19015
 C55 C 0.98586 1.27722 -0.13262
 C56 C 0.92508 1.29644 -0.16788
 C57 C 0.92003 1.36557 -0.19620
 C58 C 0.97642 1.41563 -0.19063
 C59 C 1.03354 1.39847 -0.14867
 C60 C 1.03869 1.32919 -0.12045
 C61 C 0.99359 1.20441 -0.10870
 C62 C 0.99845 1.14423 -0.08591
 H63 H 0.88261 1.25736 -0.17536
 H64 H 0.87339 1.37822 -0.22475
 H65 H 1.07697 1.43677 -0.14257
 H66 H 1.08501 1.31546 -0.09142
 C67 C 0.99541 0.71700 -0.12918
 C68 C 0.93456 0.67241 -0.11693
 C69 C 0.93374 0.60337 -0.14724
 C70 C 0.99294 0.57941 -0.19164
 C71 C 1.05615 0.62168 -0.19739
 C72 C 1.05708 0.69040 -0.16706
 C73 C 0.99494 0.79002 -0.10339
 C74 C 0.99545 0.85060 -0.08031
 H75 H 0.88710 0.69177 -0.08594
 H76 H 0.88524 0.57067 -0.14000
 H77 H 1.10454 0.60303 -0.22670
 H78 H 1.10536 0.72344 -0.17468
 C79 C 1.14053 1.00131 0.26477
 C80 C 1.21531 1.00548 0.26652
 C81 C 1.24644 1.00472 0.33221
 C82 C 1.20324 0.99950 0.39700
 C83 C 1.12812 0.99581 0.39557
 C84 C 1.09675 0.99661 0.32933
 C85 C 1.10946 1.00153 0.19643
 C86 C 1.08297 1.00144 0.13941
 H87 H 1.24960 1.00922 0.21708
 H88 H 1.30460 1.00791 0.33245
 H89 H 1.09414 0.99225 0.44513
 H90 H 1.03863 0.99349 0.32837
 C91 C 1.13518 0.99685 -0.28791
 C92 C 1.12134 0.94122 -0.33624
 C93 C 1.15146 0.94408 -0.40747
 C94 C 1.19529 1.00265 -0.43064
 C95 C 1.20662 1.05913 -0.38221
 C96 C 1.17661 1.05629 -0.31160
 C97 C 1.10728 0.99414 -0.21394
 C98 C 1.08258 0.99446 -0.15238
 H99 H 1.08872 0.89512 -0.31849
 H100 H 1.14296 0.89946 -0.44349
 H101 H 1.24098 1.10460 -0.39717
 H102 H 1.18725 1.09982 -0.27489
 C103 C 0.86335 1.00318 0.28778
 C104 C 0.87702 1.05963 0.33520
 C105 C 0.84741 1.05744 0.40658
 C106 C 0.80427 0.99874 0.43070
 C107 C 0.79340 0.94133 0.38323
 C108 C 0.82289 0.94352 0.31248
 C109 C 0.89042 1.00528 0.21367
 C110 C 0.91456 1.00448 0.15202
 H111 H 0.90899 1.10587 0.31659
 H112 H 0.85559 1.10269 0.44191
 H113 H 0.75969 0.89563 0.39900
 H114 H 0.81253 0.89934 0.27644
 C115 C 0.85746 0.99930 -0.26486
 C116 C 0.90176 1.00330 -0.32910
 C117 C 0.87086 1.00501 -0.39550
 C118 C 0.79576 1.00297 -0.39724
 C119 C 0.75204 0.99870 -0.33273
 C120 C 0.78270 0.99702 -0.26691
 C121 C 0.88798 0.99795 -0.19647
 C122 C 0.91410 0.99733 -0.13939
 H123 H 0.95989 1.00503 -0.32778
 H124 H 0.90515 1.00778 -0.44492
 H125 H 0.69385 0.99675 -0.33329
 H126 H 0.74809 0.99392 -0.21763
 C127 C 1.27810 1.13685 -0.00692
 C128 C 1.29176 1.18363 0.04935
 C129 C 1.36017 1.21398 0.05345
 C130 C 1.41627 1.19745 0.00162
 C131 C 1.40298 1.14904 -0.05390
 C132 C 1.33407 1.11858 -0.05803
 C133 C 1.20654 1.10773 -0.01089
 C134 C 1.14671 1.08231 -0.01101
 H135 H 1.24901 1.19792 0.08931
 H136 H 1.36776 1.25257 0.09577
 H137 H 1.44508 1.13676 -0.09518
 H138 H 1.32412 1.08197 -0.10162
 C139 C 0.72482 1.14172 0.00484
 C140 C 0.71845 1.21638 0.00409
 C141 C 0.65088 1.24719 0.00172
 C142 C 0.58882 1.20378 -0.00025
 C143 C 0.59488 1.12878 0.00056
 C144 C 0.66308 1.09770 0.00295
 C145 C 0.79512 1.11103 0.00647
 C146 C 0.85390 1.08478 0.00668
 H147 H 0.76574 1.25080 0.00529
 H148 H 0.64703 1.30531 0.00139
 H149 H 0.54743 1.09469 -0.00041
 H150 H 0.66773 1.03967 0.00334
 C151 C 1.27185 0.85744 -0.00439
 C152 C 1.33330 0.90178 -0.00222
 C153 C 1.40160 0.87106 0.00034
 C154 C 1.40796 0.79610 0.00107
 C155 C 1.34618 0.75235 -0.00112
 C156 C 1.27852 0.78283 -0.00369
 C157 C 1.20153 0.88775 -0.00626
 C158 C 1.14275 0.91380 -0.00663
 H159 H 1.32836 0.95979 -0.00258
 H160 H 1.44889 0.90536 0.00143
 H161 H 1.35031 0.69425 -0.00090
 H162 H 1.23140 0.74819 -0.00515
 C163 C 0.71871 0.86278 0.00708
 C164 C 0.66291 0.88136 0.05822
 C165 C 0.59387 0.85129 0.05409
 C166 C 0.58039 0.80302 -0.00146
 C167 C 0.63635 0.78629 -0.05338
 C168 C 0.70486 0.81622 -0.04926
 C169 C 0.79034 0.89138 0.01100
 C170 C 0.85024 0.91645 0.01095
 H171 H 0.67309 0.91785 0.10186
 H172 H 0.55186 0.86365 0.09545
 H173 H 0.62866 0.74775 -0.09571
 H174 H 0.74755 0.80173 -0.08921
 C175 C 0.78914 0.50389 0.36424
 C176 C 0.81281 0.44290 0.32608
 C177 C 0.88351 0.43951 0.29624
 C178 C 0.93193 0.49705 0.30449
 C179 C 0.90889 0.55708 0.34545
 C180 C 0.83759 0.56048 0.37535
 C181 C 0.71506 0.50719 0.39170
 C182 C 0.65340 0.50716 0.41621
 H183 H 0.77599 0.39857 0.31776
 H184 H 0.89856 0.39277 0.26435
 H185 H 0.94496 0.60243 0.35158
 H186 H 0.81984 0.60777 0.40550
 C187 C 0.23638 0.50053 0.35739
 C188 C 0.17184 0.50571 0.40107
 C189 C 0.10546 0.50534 0.36989
 C190 C 0.10391 0.49992 0.29507
 C191 C 0.16867 0.49406 0.25195
 C192 C 0.23453 0.49451 0.28291
 C193 C 0.30474 0.50115 0.38841
 C194 C 0.36167 0.50144 0.41508
 H195 H 0.17292 0.51012 0.45894
 H196 H 0.05591 0.50955 0.40378
 H197 H 0.16828 0.48965 0.19400
 H198 H 0.28401 0.49031 0.24875
 C199 C 0.77004 0.50445 0.63536
 C200 C 0.81687 0.44638 0.62359
 C201 C 0.88391 0.44701 0.65331
 C202 C 0.90380 0.50486 0.69651
 C203 C 0.85921 0.56544 0.70267
 C204 C 0.79243 0.56493 0.67286
 C205 C 0.69939 0.50249 0.60857
 C206 C 0.64115 0.50147 0.58414
 H207 H 0.80087 0.39996 0.59302
 H208 H 0.91844 0.40063 0.64592
 H209 H 0.87465 0.61282 0.73157
 H210 H 0.75769 0.61119 0.68026
 C211 C 0.21014 0.48940 0.62838
 C212 C 0.16504 0.54778 0.61789
 C213 C 0.09369 0.54665 0.64758
 C214 C 0.06798 0.48810 0.68976
 C215 C 0.11102 0.42669 0.69289
 C216 C 0.18202 0.42767 0.66306
 C217 C 0.28532 0.49287 0.60450
 C218 C 0.34774 0.49542 0.58245
 H219 H 0.18576 0.59513 0.58925
 H220 H 0.06069 0.59378 0.64270
 H221 H 0.09142 0.37874 0.72071
 H222 H 0.21567 0.38117 0.66917
 C223 C 0.50412 0.64243 0.22571
 C224 C 0.55498 0.62353 0.16975
 C225 C 0.54989 0.65158 0.10056
 C226 C 0.49362 0.69813 0.08704
 C227 C 0.44204 0.71525 0.14320
 C228 C 0.44711 0.68731 0.21189
 C229 C 0.50861 0.61493 0.29717
 C230 C 0.50926 0.58966 0.35649
 H231 H 0.59904 0.58819 0.17987
 H232 H 0.59101 0.63898 0.05839
 H233 H 0.39919 0.75258 0.13545
 H234 H 0.40727 0.70190 0.25465
 C235 C 0.49047 0.63753 0.77853
 C236 C 0.49394 0.59419 0.83984
 C237 C 0.49583 0.62603 0.90807
 C238 C 0.49464 0.70109 0.91448
 C239 C 0.49098 0.74376 0.85285
 C240 C 0.48901 0.71220 0.78533
 C241 C 0.48992 0.60647 0.70806
 C242 C 0.49078 0.58097 0.64867
 H243 H 0.49533 0.53615 0.83482
 H244 H 0.49817 0.59252 0.95523
 H245 H 0.48981 0.80190 0.85696
 H246 H 0.48656 0.74610 0.73836
 C247 C 0.50869 0.36409 0.22159
 C248 C 0.50835 0.28931 0.21525
 C249 C 0.50532 0.25740 0.14794
 C250 C 0.50238 0.29974 0.08598
 C251 C 0.50279 0.37488 0.09195
 C252 C 0.50573 0.40709 0.15996
 C253 C 0.51053 0.39560 0.29190
 C254 C 0.51054 0.42143 0.35119
 H255 H 0.51034 0.25561 0.26242
 H256 H 0.50536 0.19921 0.14422
 H257 H 0.50111 0.40820 0.04458
 H258 H 0.50570 0.46519 0.16453
 C259 C 0.49562 0.35884 0.77436
 C260 C 0.44484 0.37843 0.83019
 C261 C 0.44892 0.34984 0.89935
 C262 C 0.50412 0.30207 0.91307
 C263 C 0.55548 0.28403 0.85701
 C264 C 0.55142 0.31249 0.78834
 C265 C 0.49222 0.38705 0.70291
 C266 C 0.49222 0.41273 0.64364
 H267 H 0.40165 0.41480 0.81999
 H268 H 0.40793 0.36318 0.94139
 H269 H 0.59746 0.24573 0.86485
 H270 H 0.59114 0.29723 0.74573
 C271 C 0.63680 0.77931 0.51923
 C272 C 0.59574 0.84029 0.50626
 C273 C 0.62678 0.90919 0.50967
 C274 C 0.69881 0.91666 0.52594
 C275 C 0.73851 0.85539 0.54111
 C276 C 0.70765 0.78717 0.53789
 C277 C 0.60759 0.70828 0.51211
 C278 C 0.58287 0.64871 0.50689
 H279 H 0.54054 0.83442 0.49202
 H280 H 0.59566 0.95582 0.49736
 H281 H 0.79455 0.86000 0.55286
 H282 H 0.73966 0.74043 0.54819
 C283 C 0.64070 0.22662 0.50333
 C284 C 0.62528 0.17233 0.45413
 C285 C 0.65434 0.10353 0.46062
 C286 C 0.69834 0.08866 0.51668
 C287 C 0.71225 0.14325 0.56633
 C288 C 0.68336 0.21153 0.55985
 C289 C 0.61223 0.29771 0.49752
 C290 C 0.58669 0.35683 0.49574
 H291 H 0.59184 0.18348 0.41033
 H292 H 0.64435 0.06280 0.42080
 H293 H 0.74753 0.13469 0.60897
 H294 H 0.69539 0.25301 0.59833
 C295 C 0.36060 0.77625 0.49590
 C296 C 0.37498 0.83040 0.54564
 C297 C 0.34548 0.89905 0.53926
 C298 C 0.30197 0.91402 0.48280
 C299 C 0.28922 0.85968 0.43251
 C300 C 0.31859 0.79152 0.43887
 C301 C 0.38933 0.70512 0.50186
 C302 C 0.41501 0.64600 0.50391
 H303 H 0.40792 0.81922 0.58983
 H304 H 0.35470 0.93959 0.57950
 H305 H 0.25448 0.86836 0.38945
 H306 H 0.30739 0.75023 0.39991
 C307 C 0.36339 0.22335 0.48127
 C308 C 0.29190 0.21585 0.46435
 C309 C 0.26068 0.14771 0.46111
 C310 C 0.30057 0.08610 0.47461
 C311 C 0.37310 0.09323 0.48929
 C312 C 0.40452 0.16201 0.49269
 C313 C 0.39330 0.29432 0.48807
 C314 C 0.41856 0.35378 0.49312
 H315 H 0.25975 0.26280 0.45526
 H316 H 0.20433 0.14334 0.45045
 H317 H 0.40446 0.04635 0.50025
 H318 H 0.46017 0.16748 0.50559
   
