data_POSCAR
  _audit_creation_date              2014-09-24
  _audit_creation_method            'ToBaCCo'
  _symmetry_space_group_name_H-M    'P1'
  _symmetry_Int_Tables_number       1
  _symmetry_cell_setting            triclinic
  loop_
  _symmetry_equiv_pos_as_xyz
 x,y,z
_cell_length_a 36.1868
_cell_length_b 20.6499
_cell_length_c 13.3184
_cell_angle_alpha 94.189900
_cell_angle_beta 89.264300
_cell_angle_gamma 90.048900
loop_
  _atom_site_label
  _atom_site_type_symbol
  _atom_site_fract_x
  _atom_site_fract_y
  _atom_site_fract_z
C1 C 0.70314 0.42196 0.62849
 C2 C 0.69494 0.44995 0.53913
 C3 C 0.71239 0.42959 0.44803
 C4 C 0.74222 0.38545 0.44750
 C5 C 0.75326 0.36050 0.53894
 C6 C 0.73357 0.37865 0.62985
 C7 C 0.74675 0.35755 0.72050
 C8 C 0.77752 0.31764 0.72193
 C9 C 0.79631 0.29595 0.63244
 C10 C 0.78407 0.31754 0.53956
 C11 C 0.76121 0.36567 0.35809
 C12 C 0.79095 0.32302 0.35816
 C13 C 0.80285 0.29745 0.44767
 C14 C 0.83357 0.25420 0.44852
 C15 C 0.84584 0.23631 0.54247
 C16 C 0.82831 0.25669 0.63405
 H17 H 0.73445 0.37403 0.79226
 H18 H 0.78673 0.30563 0.79509
 H19 H 0.75366 0.38389 0.28702
 H20 H 0.80504 0.31249 0.28695
 H21 H 0.67205 0.48390 0.53805
 H22 H 0.86696 0.19971 0.54523
 C23 C 0.16751 0.79443 0.60462
 C24 C 0.15643 0.81939 0.51461
 C25 C 0.17818 0.81245 0.42670
 C26 C 0.21208 0.77846 0.42812
 C27 C 0.22417 0.75366 0.51895
 C28 C 0.20210 0.76259 0.60775
 C29 C 0.21517 0.73916 0.69720
 C30 C 0.24943 0.70895 0.70040
 C31 C 0.27156 0.69794 0.61313
 C32 C 0.25849 0.72006 0.52097
 C33 C 0.23402 0.76803 0.34069
 C34 C 0.26711 0.73407 0.34197
 C35 C 0.27972 0.70912 0.43074
 C36 C 0.31297 0.67344 0.43155
 C37 C 0.32523 0.65246 0.52275
 C38 C 0.30669 0.66711 0.61499
 H39 H 0.19917 0.74405 0.76643
 H40 H 0.25788 0.69408 0.77261
 H41 H 0.22566 0.78524 0.26965
 H42 H 0.28288 0.72838 0.27238
 H43 H 0.13127 0.84778 0.51425
 H44 H 0.34863 0.61982 0.52083
 C45 C 0.19317 0.12799 -0.43960
 C46 C 0.17147 0.12807 -0.52568
 C47 C 0.18544 0.14763 -0.61802
 C48 C 0.22327 0.16694 -0.62344
 C49 C 0.24490 0.17115 -0.53474
 C50 C 0.22970 0.15157 -0.44283
 C51 C 0.25111 0.15750 -0.35552
 C52 C 0.28631 0.18407 -0.35727
 C53 C 0.30185 0.20471 -0.44677
 C54 C 0.28169 0.19597 -0.53729
 C55 C 0.23992 0.18452 -0.71371
 C56 C 0.27645 0.20525 -0.71716
 C57 C 0.29777 0.21366 -0.62943
 C58 C 0.33475 0.23798 -0.63120
 C59 C 0.35348 0.24775 -0.53909
 C60 C 0.33693 0.23447 -0.44699
 H61 H 0.24050 0.14332 -0.28403
 H62 H 0.30145 0.18757 -0.28752
 H63 H 0.22526 0.18302 -0.78379
 H64 H 0.28730 0.21483 -0.79043
 H65 H 0.14402 0.10744 -0.52169
 H66 H 0.37960 0.27327 -0.53721
 C67 C -0.33395 0.70068 -0.42377
 C68 C -0.35684 0.69810 -0.50895
 C69 C -0.34438 0.71635 -0.60352
 C70 C -0.30764 0.74083 -0.61163
 C71 C -0.28477 0.74738 -0.52526
 C72 C -0.29798 0.72750 -0.43144
 C73 C -0.27529 0.73741 -0.34644
 C74 C -0.24039 0.76465 -0.35325
 C75 C -0.22643 0.78406 -0.44506
 C76 C -0.24846 0.77416 -0.53257
 C77 C -0.29331 0.76088 -0.70324
 C78 C -0.25734 0.78340 -0.71146
 C79 C -0.23438 0.79133 -0.62713
 C80 C -0.19744 0.81405 -0.63489
 C81 C -0.17701 0.82575 -0.54630
 C82 C -0.19111 0.81336 -0.45126
 H83 H -0.28444 0.72605 -0.27223
 H84 H -0.22432 0.76932 -0.28524
 H85 H -0.30950 0.76033 -0.77072
 H86 H -0.24823 0.79492 -0.78552
 H87 H -0.38311 0.67353 -0.50476
 H88 H -0.15099 0.85111 -0.55103
 O89 O -0.03476 0.89858 0.10939
 O90 O 0.02329 0.96171 -0.19988
 O91 O -0.07985 0.95172 -0.10684
 O92 O 0.08257 0.95330 0.06914
 O93 O -0.04145 0.99392 -0.21343
 O94 O 0.03029 0.91124 0.10864
 O95 O 0.04105 0.90983 -0.07215
 O96 O -0.08371 0.95225 0.08249
 C97 C -0.06880 0.90214 0.10998
 C98 C 0.03642 0.91125 -0.16505
 C99 C -0.06787 0.95587 -0.19499
 C100 C 0.06433 0.91693 0.12772
 O101 O 0.02289 1.03417 0.19514
 O102 O -0.02367 1.11323 -0.12207
 O103 O -0.07313 1.07753 0.09632
 O104 O 0.07627 1.01337 -0.09874
 O105 O 0.03707 1.08534 -0.11011
 O106 O -0.04392 1.02009 0.20214
 O107 O 0.05349 1.06504 0.06844
 O108 O -0.07736 1.07659 -0.09237
 Co109 Co -0.00669 0.96929 0.14072
 Co110 Co -0.00171 1.03575 -0.14992
 Co111 Co -0.07195 1.01359 -0.00490
 Co112 Co 0.04484 0.98741 0.00103
 O113 O -0.01102 1.00419 -0.00689
 C114 C 0.04583 1.07184 0.15966
 C115 C -0.05737 1.12034 -0.12231
 C116 C -0.06388 1.06819 0.18436
 C117 C 0.06853 1.06585 -0.13238
 O118 O 0.48869 0.37717 0.12915
 O119 O 0.54964 0.44325 -0.17667
 O120 O 0.43303 0.41071 -0.11211
 O121 O 0.58976 0.50255 0.09968
 O122 O 0.48547 0.40216 -0.20042
 O123 O 0.54986 0.42972 0.14361
 O124 O 0.56416 0.42183 -0.02867
 O125 O 0.43403 0.40228 0.07671
 C126 C 0.45521 0.36356 0.11791
 C127 C 0.56890 0.41202 -0.12024
 C128 C 0.45306 0.38334 -0.18261
 C129 C 0.58003 0.45955 0.16269
 O130 O 0.51643 0.54275 0.20147
 O131 O 0.46176 0.51893 -0.20170
 O132 O 0.43033 0.53546 0.09786
 O133 O 0.57158 0.54256 -0.08299
 O134 O 0.52099 0.56492 -0.15221
 O135 O 0.45734 0.48361 0.20601
 O136 O 0.53906 0.58450 0.07155
 O137 O 0.42549 0.54035 -0.07568
 Co138 Co 0.50256 0.46095 0.15391
 Co139 Co 0.50424 0.48241 -0.16573
 Co140 Co 0.43643 0.47222 -0.00254
 Co141 Co 0.54913 0.50263 0.02170
 O142 O 0.49560 0.48105 -0.00501
 C143 C 0.53021 0.59059 0.16221
 C144 C 0.43456 0.54792 -0.16350
 C145 C 0.43702 0.52898 0.18658
 C146 C 0.55421 0.57665 -0.14040
 C147 C 0.35128 0.26026 0.28028
 C148 C 0.38796 0.26506 0.26497
 C149 C 0.40306 0.30210 0.18297
 C150 C 0.43960 0.30868 0.16945
 H151 H 0.40719 0.24484 0.31597
 H152 H 0.38414 0.33096 0.14220
 H153 H 0.33378 0.27658 0.22203
 H154 H 0.45837 0.28021 0.21129
 C155 C -0.18137 0.83097 0.27326
 C156 C -0.14497 0.82568 0.25466
 C157 C -0.12691 0.85881 0.17346
 C158 C -0.09043 0.85313 0.15924
 H159 H -0.12754 0.80056 0.30493
 H160 H -0.14241 0.89452 0.13555
 H161 H -0.19838 0.85018 0.21626
 H162 H -0.07529 0.81699 0.19727
 C163 C 0.63326 0.70293 0.31020
 C164 C 0.59624 0.69616 0.31187
 C165 C 0.57677 0.66800 0.22189
 C166 C 0.54191 0.64673 0.22846
 H167 H 0.58035 0.70714 0.38043
 H168 H 0.59309 0.65382 0.15499
 H169 H 0.64662 0.69449 0.23744
 H170 H 0.52650 0.65688 0.29818
 C171 C 0.16231 1.14292 0.29652
 C172 C 0.12528 1.14695 0.30238
 C173 C 0.10214 1.12703 0.21535
 C174 C 0.06592 1.11747 0.22850
 H175 H 0.11152 1.16092 0.37340
 H176 H 0.11550 1.10994 0.14497
 H177 H 0.17441 1.13395 0.22226
 H178 H 0.05322 1.13064 0.30132
 C179 C 0.67913 0.43758 -0.28952
 C180 C 0.66393 0.39300 -0.23338
 C181 C 0.63328 0.41281 -0.16453
 C182 C 0.60204 0.37845 -0.16089
 H183 H 0.67041 0.34189 -0.24773
 H184 H 0.63398 0.46167 -0.12851
 H185 H 0.66656 0.48552 -0.28428
 H186 H 0.59930 0.33248 -0.20480
 C187 C 0.14405 0.80811 -0.30380
 C188 C 0.10707 0.80731 -0.30666
 C189 C 0.08509 0.83596 -0.22101
 C190 C 0.05147 0.85997 -0.23574
 H191 H 0.09317 0.79192 -0.37599
 H192 H 0.09874 0.84741 -0.14981
 H193 H 0.15744 0.82411 -0.23404
 H194 H 0.03927 0.85350 -0.30973
 C195 C 0.32321 0.64722 -0.29596
 C196 C 0.36010 0.64191 -0.28861
 C197 C 0.37861 0.60778 -0.21003
 C198 C 0.41395 0.59053 -0.22597
 H199 H 0.37780 0.66039 -0.34629
 H200 H 0.36316 0.59210 -0.14591
 H201 H 0.30641 0.63512 -0.23235
 H202 H 0.42798 0.60388 -0.29397
 C203 C -0.15837 1.23269 -0.27647
 C204 C -0.12236 1.22178 -0.26304
 C205 C -0.10916 1.18248 -0.18338
 C206 C -0.07287 1.17509 -0.17176
 H207 H -0.10211 1.23862 -0.31599
 H208 H -0.12874 1.15337 -0.14390
 H209 H -0.17751 1.22177 -0.21693
 H210 H -0.05370 1.20507 -0.21113
 C211 C 0.65422 0.67103 -0.33606
 C212 C 0.61872 0.66602 -0.30843
 C213 C 0.60689 0.62693 -0.22535
 C214 C 0.57114 0.62581 -0.20031
 H215 H 0.59756 0.69058 -0.34821
 H216 H 0.62631 0.59496 -0.19225
 H217 H 0.67457 0.65078 -0.28839
 H218 H 0.55219 0.65705 -0.23682
 C219 C 0.17743 1.09928 -0.34918
 C220 C 0.14367 1.11527 -0.31409
 C221 C 0.12539 1.08121 -0.23347
 C222 C 0.09250 1.10212 -0.19820
 H223 H 0.12852 1.15299 -0.34858
 H224 H 0.13747 1.03738 -0.20796
 H225 H 0.19351 1.06366 -0.31281
 H226 H 0.08103 1.14617 -0.22479
 C227 C 0.35304 0.26315 -0.35146
 C228 C 0.38928 0.27030 -0.33698
 C229 C 0.40310 0.31311 -0.25225
 C230 C 0.43879 0.32905 -0.24857
 H231 H 0.40879 0.24891 -0.39226
 H232 H 0.38359 0.33690 -0.19921
 H233 H 0.33409 0.28396 -0.29417
 H234 H 0.45780 0.30619 -0.30398
 C235 C -0.17090 0.83896 -0.35917
 C236 C -0.13444 0.85104 -0.35740
 C237 C -0.11734 0.88650 -0.26980
 C238 C -0.08484 0.91673 -0.27916
 H239 H -0.11697 0.83735 -0.42198
 H240 H -0.13235 0.89084 -0.19864
 H241 H -0.18702 0.85351 -0.29225
 H242 H -0.07091 0.91486 -0.35188
 C243 C 0.33377 0.65176 0.33764
 C244 C 0.37027 0.64089 0.33727
 C245 C 0.38896 0.60521 0.25189
 C246 C 0.41910 0.57005 0.26748
 H247 H 0.38634 0.65365 0.40391
 H248 H 0.37658 0.60363 0.17803
 H249 H 0.31841 0.63893 0.26979
 H250 H 0.42982 0.56863 0.34295
 C251 C -0.15020 1.22463 0.35828
 C252 C -0.11733 1.19383 0.35361
 C253 C -0.10452 1.15463 0.26279
 C254 C -0.07706 1.11174 0.26971
 H255 H -0.09910 1.19591 0.41738
 H256 H -0.11857 1.15840 0.19206
 H257 H -0.16547 1.22376 0.28901
 H258 H -0.06452 1.10645 0.34218
 C259 C 0.69538 0.44952 0.35456
 C260 C 0.65959 0.43700 0.33934
 C261 C 0.63913 0.45827 0.25313
 C262 C 0.60436 0.43803 0.24051
 H263 H 0.64451 0.41045 0.39418
 H264 H 0.65179 0.49092 0.20265
 H265 H 0.71181 0.47319 0.29939
 H266 H 0.59260 0.40432 0.29092
 C267 C 0.16580 0.84481 0.33665
 C268 C 0.13053 0.84302 0.30805
 C269 C 0.11708 0.88017 0.22537
 C270 C 0.08140 0.87705 0.20137
 H271 H 0.11082 0.81455 0.34827
 H272 H 0.13576 0.91168 0.18734
 H273 H 0.18580 0.87149 0.29467
 H274 H 0.06312 0.84561 0.24086
   
