data_POSCAR
  _audit_creation_date              2014-09-24
  _audit_creation_method            'ToBaCCo'
  _symmetry_space_group_name_H-M    'P1'
  _symmetry_Int_Tables_number       1
  _symmetry_cell_setting            triclinic
  loop_
  _symmetry_equiv_pos_as_xyz
 x,y,z
_cell_length_a 39.2314
_cell_length_b 40.3268
_cell_length_c 40.5035
_cell_angle_alpha 90.058700
_cell_angle_beta 90.216900
_cell_angle_gamma 90.023200
loop_
  _atom_site_label
  _atom_site_type_symbol
  _atom_site_fract_x
  _atom_site_fract_y
  _atom_site_fract_z
O1 O 0.31454 0.35826 0.03272
 O2 O 0.36047 0.30956 -0.02941
 O3 O 0.31591 0.35683 -0.03130
 O4 O 0.36010 0.31149 0.03451
 O5 O 0.31939 0.27372 0.03489
 O6 O 0.27419 0.32023 -0.03074
 O7 O 0.31974 0.27173 -0.02884
 O8 O 0.27329 0.32106 0.03323
 Cu9 Cu 0.34182 0.33775 0.00164
 Cu10 Cu 0.29246 0.29294 0.00211
 C11 C 0.28588 0.34830 0.04331
 C12 C 0.34828 0.28213 -0.03932
 C13 C 0.28721 0.34684 -0.04198
 C14 C 0.34780 0.28459 0.04555
 O15 O 0.68435 0.63912 0.03017
 O16 O 0.63862 0.68580 -0.03368
 O17 O 0.68422 0.63931 -0.03390
 O18 O 0.63883 0.68567 0.03025
 O19 O 0.67904 0.72394 0.03024
 O20 O 0.72567 0.67621 -0.03310
 O21 O 0.67925 0.72366 -0.03381
 O22 O 0.72516 0.67679 0.03085
 Cu23 Cu 0.65748 0.65872 -0.00184
 Cu24 Cu 0.70640 0.70398 -0.00152
 C25 C 0.71262 0.64972 0.04131
 C26 C 0.65077 0.71289 -0.04439
 C27 C 0.71304 0.64930 -0.04411
 C28 C 0.65081 0.71290 0.04094
 O29 O 0.68572 0.36191 0.97035
 O30 O 0.63892 0.31376 1.03230
 O31 O 0.68325 0.36139 1.03434
 O32 O 0.63995 0.31564 0.96820
 O33 O 0.68030 0.27753 0.96899
 O34 O 0.72523 0.32511 1.03422
 O35 O 0.68011 0.27652 1.03317
 O36 O 0.72669 0.32445 0.97031
 Cu37 Cu 0.65787 0.34185 1.00128
 Cu38 Cu 0.70720 0.29710 1.00179
 C39 C 0.71430 0.35160 0.95988
 C40 C 0.65133 0.28679 1.04316
 C41 C 0.71196 0.35172 1.04523
 C42 C 0.65234 0.28865 0.95748
 O43 O 0.31582 0.63741 0.96813
 O44 O 0.36079 0.68532 1.03160
 O45 O 0.31569 0.63846 1.03210
 O46 O 0.36019 0.68533 0.96754
 O47 O 0.31929 0.72287 0.96759
 O48 O 0.27373 0.67477 1.03126
 O49 O 0.31960 0.72257 1.03172
 O50 O 0.27433 0.67432 0.96739
 Cu51 Cu 0.34225 0.65799 0.99982
 Cu52 Cu 0.29258 0.70240 0.99946
 C53 C 0.28721 0.64726 0.95721
 C54 C 0.34819 0.71218 1.04239
 C55 C 0.28677 0.64813 1.04237
 C56 C 0.34771 0.71236 0.95688
 O57 O 0.03615 0.31770 0.35872
 O58 O -0.03559 0.36077 0.31896
 O59 O -0.02582 0.31264 0.36579
 O60 O 0.03256 0.36184 0.31574
 O61 O 0.02868 0.32466 0.27590
 O62 O -0.03953 0.28222 0.32249
 O63 O -0.03541 0.32532 0.27746
 O64 O 0.02926 0.27693 0.32293
 Cu65 Cu 0.00061 0.34280 0.34303
 Cu66 Cu -0.00363 0.29762 0.29636
 C67 C 0.04396 0.28902 0.34832
 C68 C -0.04674 0.35149 0.29089
 C69 C -0.04284 0.28917 0.35292
 C70 C 0.04125 0.35139 0.28744
 O71 O 0.03444 0.68225 0.63900
 O72 O -0.03113 0.63674 0.68486
 O73 O -0.03167 0.68174 0.63937
 O74 O 0.03486 0.63610 0.68392
 O75 O 0.03507 0.67411 0.72313
 O76 O -0.03026 0.72134 0.67690
 O77 O -0.03101 0.67556 0.72330
 O78 O 0.03554 0.72082 0.67767
 Cu79 Cu 0.00163 0.65537 0.65795
 Cu80 Cu 0.00241 0.70183 0.70418
 C81 C 0.04583 0.70956 0.65016
 C82 C -0.04208 0.64815 0.71206
 C83 C -0.04194 0.70966 0.64993
 C84 C 0.04585 0.64679 0.71145
 O85 O 1.03404 0.63773 0.31636
 O86 O 0.96951 0.68317 0.36361
 O87 O 0.96793 0.63844 0.31748
 O88 O 1.03555 0.68222 0.36264
 O89 O 1.03445 0.72245 0.32587
 O90 O 0.96804 0.67723 0.27910
 O91 O 0.96865 0.72252 0.32580
 O92 O 1.03424 0.67716 0.27864
 Cu93 Cu 1.00180 0.65645 0.34374
 Cu94 Cu 1.00139 0.70378 0.29849
 C95 C 1.04495 0.64940 0.28929
 C96 C 0.95831 0.71077 0.35309
 C97 C 0.95673 0.64998 0.29038
 C98 C 1.04603 0.71026 0.35262
 O99 O 0.96344 0.31768 0.63809
 O100 O 1.03280 0.36030 0.68226
 O101 O 1.03001 0.31621 0.63549
 O102 O 0.96691 0.36207 0.68409
 O103 O 0.96735 0.32274 0.72194
 O104 O 1.03029 0.27609 0.67238
 O105 O 1.03334 0.32082 0.71994
 O106 O 0.96440 0.27756 0.67518
 Cu107 Cu 0.99831 0.34294 0.65618
 Cu108 Cu 0.99895 0.29528 0.70112
 C109 C 0.95227 0.29025 0.64897
 C110 C 1.04445 0.34827 0.70898
 C111 C 1.04075 0.28812 0.64520
 C112 C 0.95661 0.35058 0.71146
 O113 O 0.36287 0.03021 0.31522
 O114 O 0.31691 -0.03332 0.36197
 O115 O 0.36201 -0.03402 0.31528
 O116 O 0.31711 0.03091 0.36139
 O117 O 0.27600 0.03094 0.32405
 O118 O 0.32144 -0.03393 0.27739
 O119 O 0.27575 -0.03338 0.32470
 O120 O 0.32238 0.03028 0.27726
 Cu121 Cu 0.34379 -0.00155 0.34221
 Cu122 Cu 0.29474 -0.00150 0.29706
 C123 C 0.35088 0.04079 0.28806
 C124 C 0.28833 -0.04397 0.35168
 C125 C 0.34974 -0.04477 0.28826
 C126 C 0.28866 0.04172 0.35092
 O127 O 0.68463 -0.03321 0.63939
 O128 O 0.63688 0.02956 0.68534
 O129 O 0.68275 0.03122 0.63877
 O130 O 0.63872 -0.03411 0.68505
 O131 O 0.67809 -0.03161 0.72403
 O132 O 0.72441 0.03145 0.67555
 O133 O 0.67817 0.03297 0.72238
 O134 O 0.72490 -0.03279 0.67757
 Cu135 Cu 0.65679 -0.00166 0.65829
 Cu136 Cu 0.70550 0.00014 0.70373
 C137 C 0.71288 -0.04382 0.65050
 C138 C 0.64899 0.04173 0.71182
 C139 C 0.71143 0.04197 0.64874
 C140 C 0.65034 -0.04351 0.71278
 O141 O 0.36043 0.96971 0.68548
 O142 O 0.31682 1.03542 0.63876
 O143 O 0.36405 1.03354 0.68432
 O144 O 0.31547 0.97104 0.63855
 O145 O 0.27515 0.97190 0.67638
 O146 O 0.32270 1.03761 0.72102
 O147 O 0.27544 1.03615 0.67550
 O148 O 0.32108 0.97280 0.72414
 Cu149 Cu 0.34318 1.00231 0.65798
 Cu150 Cu 0.29456 1.00472 0.70314
 C151 C 0.34858 0.96043 0.71311
 C152 C 0.28836 1.04656 0.64875
 C153 C 0.35185 1.04617 0.71038
 C154 C 0.28711 0.96069 0.64942
 O155 O 0.68671 1.03166 0.35875
 O156 O 0.64143 0.96558 0.31417
 O157 O 0.68648 0.96697 0.36154
 O158 O 0.64158 1.02971 0.31255
 O159 O 0.68328 1.02963 0.27612
 O160 O 0.72684 0.96381 0.32387
 O161 O 0.68151 0.96516 0.27610
 O162 O 0.72971 1.02738 0.32411
 Cu163 Cu 0.66001 0.99852 0.34048
 Cu164 Cu 0.70944 0.99646 0.29621
 C165 C 0.71643 1.04015 0.34972
 C166 C 0.65321 0.95466 0.28710
 C167 C 0.71435 0.95475 0.35133
 C168 C 0.65458 1.04043 0.28599
 C169 C 0.91944 0.77307 0.48583
 C170 C 0.91960 0.77317 0.51968
 C171 C 0.88841 0.78594 0.52947
 N172 N 0.86931 0.79381 0.50277
 C173 C 0.88822 0.78587 0.47607
 C174 C 0.87673 0.78737 0.56242
 C175 C 0.84833 0.80674 0.57174
 C176 C 0.83127 0.80440 0.60158
 C177 C 0.80685 0.82893 0.60160
 C178 C 0.80960 0.84541 0.57170
 N179 N 0.83498 0.83182 0.55373
 C180 C 0.79031 0.87343 0.56232
 C181 C 0.78835 0.88464 0.52933
 C182 C 0.77501 0.91491 0.51953
 C183 C 0.77479 0.91483 0.48568
 C184 C 0.78797 0.88449 0.47592
 N185 N 0.79630 0.86609 0.50264
 C186 C 0.78967 0.87314 0.44294
 C187 C 0.80891 0.84505 0.43371
 C188 C 0.80618 0.82854 0.40376
 C189 C 0.83081 0.80421 0.40381
 C190 C 0.84783 0.80660 0.43378
 N191 N 0.83437 0.83156 0.45180
 C192 C 0.87642 0.78747 0.44312
 H193 H 0.93987 0.76432 0.47020
 H194 H 0.94019 0.76452 0.53530
 H195 H 0.84450 0.84124 0.47355
 H196 H 0.83602 0.78698 0.62138
 H197 H 0.78916 0.83409 0.62139
 H198 H 0.76610 0.93489 0.53514
 H199 H 0.76573 0.93475 0.47006
 H200 H 0.83576 0.78692 0.38395
 H201 H 0.84502 0.84143 0.53200
 H202 H 0.78847 0.83363 0.38386
 C203 C 0.22729 0.08580 0.51708
 C204 C 0.22744 0.08490 0.48326
 C205 C 0.21402 0.11485 0.47265
 N206 N 0.20563 0.13399 0.49881
 C207 C 0.21379 0.11628 0.52600
 C208 C 0.21214 0.12520 0.43939
 C209 C 0.19267 0.15284 0.42933
 C210 C 0.19521 0.16850 0.39898
 C211 C 0.17052 0.19275 0.39835
 C212 C 0.15365 0.19114 0.42834
 N213 N 0.16722 0.16669 0.44699
 C214 C 0.12515 0.21051 0.43711
 C215 C 0.11299 0.21275 0.46982
 C216 C 0.08174 0.22594 0.47873
 C217 C 0.08101 0.22625 0.51258
 C218 C 0.11199 0.21355 0.52324
 N219 N 0.13145 0.20518 0.49703
 C220 C 0.12312 0.21246 0.55650
 C221 C 0.15199 0.19388 0.56642
 C222 C 0.16884 0.19711 0.59642
 C223 C 0.19398 0.17326 0.59702
 C224 C 0.19182 0.15622 0.56734
 N225 N 0.16615 0.16888 0.54889
 C226 C 0.21179 0.12840 0.55867
 H227 H 0.23632 0.06631 0.53325
 H228 H 0.23659 0.06460 0.46821
 H229 H 0.15646 0.15864 0.52722
 H230 H 0.21286 0.16293 0.37927
 H231 H 0.16541 0.20947 0.37805
 H232 H 0.06165 0.23461 0.46251
 H233 H 0.06015 0.23516 0.52758
 H234 H 0.21169 0.16886 0.61709
 H235 H 0.15722 0.15761 0.46895
 H236 H 0.16353 0.21470 0.61592
 C237 C 0.08416 0.77204 0.48432
 C238 C 0.08416 0.77222 0.51816
 C239 C 0.11501 0.78586 0.52798
 N240 N 0.13386 0.79399 0.50132
 C241 C 0.11509 0.78542 0.47458
 C242 C 0.12653 0.78813 0.56099
 C243 C 0.15418 0.80852 0.57048
 C244 C 0.17084 0.80726 0.60071
 C245 C 0.19444 0.83256 0.60079
 C246 C 0.19155 0.84845 0.57057
 N247 N 0.16688 0.83374 0.55233
 C248 C 0.21017 0.87683 0.56104
 C249 C 0.21206 0.88759 0.52790
 C250 C 0.22506 0.91788 0.51781
 C251 C 0.22546 0.91728 0.48397
 C252 C 0.21269 0.88663 0.47451
 N253 N 0.20447 0.86853 0.50140
 C254 C 0.21151 0.87472 0.44170
 C255 C 0.19299 0.84610 0.43254
 C256 C 0.19647 0.82923 0.40289
 C257 C 0.17252 0.80425 0.40290
 C258 C 0.15506 0.80668 0.43251
 N259 N 0.16768 0.83225 0.45039
 C260 C 0.12684 0.78698 0.44166
 H261 H 0.06380 0.76285 0.46869
 H262 H 0.06385 0.76319 0.53377
 H263 H 0.15710 0.84198 0.47183
 H264 H 0.16633 0.79007 0.62072
 H265 H 0.21167 0.83861 0.62084
 H266 H 0.23369 0.93817 0.53323
 H267 H 0.23444 0.93702 0.46815
 H268 H 0.16833 0.78649 0.38325
 H269 H 0.15678 0.84263 0.53026
 H270 H 0.21429 0.83446 0.38323
 C271 C 0.76421 0.08786 0.51502
 C272 C 0.76494 0.08767 0.48128
 C273 C 0.78316 0.11551 0.47164
 N274 N 0.79371 0.13253 0.49858
 C275 C 0.78183 0.11589 0.52518
 C276 C 0.79042 0.12369 0.43832
 C277 C 0.81441 0.14825 0.42869
 C278 C 0.82906 0.15027 0.39765
 C279 C 0.85239 0.17553 0.39875
 C280 C 0.85035 0.18979 0.42985
 N281 N 0.82702 0.17293 0.44798
 C282 C 0.86919 0.21819 0.44017
 C283 C 0.86939 0.23014 0.47321
 C284 C 0.88429 0.25967 0.48330
 C285 C 0.88427 0.25966 0.51702
 C286 C 0.86777 0.23090 0.52680
 N287 N 0.85864 0.21300 0.49990
 C288 C 0.86225 0.22145 0.56009
 C289 C 0.84011 0.19556 0.56994
 C290 C 0.82860 0.19132 0.60198
 C291 C 0.80655 0.16487 0.60150
 C292 C 0.80544 0.15326 0.56924
 N293 N 0.82619 0.17202 0.55022
 C294 C 0.78562 0.12581 0.55861
 H295 H 0.75225 0.06919 0.53025
 H296 H 0.75398 0.06858 0.46573
 H297 H 0.83250 0.16752 0.52585
 H298 H 0.82439 0.13494 0.37627
 H299 H 0.86896 0.18226 0.37858
 H300 H 0.89490 0.27909 0.46806
 H301 H 0.89519 0.27899 0.53218
 H302 H 0.79268 0.15554 0.62258
 H303 H 0.81803 0.17955 0.47112
 H304 H 0.83468 0.20633 0.62337
 C305 C 0.51593 0.91829 0.77614
 C306 C 0.48100 0.91859 0.77635
 C307 C 0.47074 0.88873 0.79004
 N308 N 0.49821 0.87024 0.79827
 C309 C 0.52587 0.88827 0.78973
 C310 C 0.43657 0.87778 0.79200
 C311 C 0.42656 0.85030 0.81132
 C312 C 0.39523 0.83448 0.80929
 C313 C 0.39523 0.81011 0.83312
 C314 C 0.42655 0.81179 0.84903
 N315 N 0.44535 0.83648 0.83574
 C316 C 0.43653 0.79195 0.87616
 C317 C 0.47068 0.78994 0.88724
 C318 C 0.48093 0.77618 0.91702
 C319 C 0.51586 0.77603 0.91693
 C320 C 0.52582 0.78970 0.88709
 N321 N 0.49817 0.79826 0.86899
 C322 C 0.55982 0.79144 0.87582
 C323 C 0.56955 0.81079 0.84839
 C324 C 0.60051 0.80844 0.83214
 C325 C 0.60052 0.83267 0.80821
 C326 C 0.56957 0.84908 0.81057
 N327 N 0.55095 0.83571 0.83521
 C328 C 0.55985 0.87677 0.79144
 H329 H 0.53215 0.93781 0.76673
 H330 H 0.46498 0.93840 0.76713
 H331 H 0.52845 0.84531 0.84478
 H332 H 0.37451 0.83993 0.79243
 H333 H 0.37451 0.79315 0.83817
 H334 H 0.46490 0.76693 0.93666
 H335 H 0.53207 0.76664 0.93647
 H336 H 0.62103 0.83769 0.79113
 H337 H 0.46829 0.84558 0.84501
 H338 H 0.62100 0.79116 0.83707
 C339 C 0.48238 0.22217 0.08356
 C340 C 0.51731 0.22223 0.08298
 C341 C 0.52807 0.20856 0.11263
 N342 N 0.50092 0.20008 0.13126
 C343 C 0.47296 0.20846 0.11353
 C344 C 0.56236 0.20682 0.12330
 C345 C 0.57286 0.18718 0.15036
 C346 C 0.60429 0.18934 0.16602
 C347 C 0.60491 0.16493 0.18978
 C348 C 0.57385 0.14861 0.18794
 N349 N 0.55458 0.16219 0.16374
 C350 C 0.56448 0.12095 0.20725
 C351 C 0.53046 0.10964 0.20959
 C352 C 0.52068 0.07964 0.22330
 C353 C 0.48574 0.07961 0.22391
 C354 C 0.47531 0.10961 0.21059
 N355 N 0.50269 0.12791 0.20177
 C356 C 0.44120 0.12083 0.20937
 C357 C 0.43096 0.14857 0.19051
 C358 C 0.39992 0.16475 0.19339
 C359 C 0.39932 0.18904 0.16952
 C360 C 0.43002 0.18698 0.15279
 N361 N 0.44905 0.16217 0.16563
 C362 C 0.43915 0.20651 0.12529
 H363 H 0.46583 0.23146 0.06424
 H364 H 0.53299 0.23158 0.06313
 H365 H 0.47147 0.15276 0.15569
 H366 H 0.62467 0.20663 0.16084
 H367 H 0.62587 0.15978 0.20645
 H368 H 0.53702 0.05997 0.23226
 H369 H 0.46985 0.05989 0.23342
 H370 H 0.37861 0.20617 0.16495
 H371 H 0.53172 0.15277 0.15462
 H372 H 0.37975 0.15954 0.21079
 C373 C 0.51940 0.23102 0.91373
 C374 C 0.48456 0.23034 0.91458
 C375 C 0.47393 0.21308 0.88679
 N376 N 0.50123 0.20317 0.86897
 C377 C 0.52909 0.21460 0.88514
 C378 C 0.43938 0.20645 0.87904
 C379 C 0.42889 0.18423 0.85400
 C380 C 0.39715 0.16915 0.85229
 C381 C 0.39752 0.14869 0.82513
 C382 C 0.42902 0.15275 0.81024
 N383 N 0.44791 0.17453 0.82798
 C384 C 0.43926 0.13781 0.78027
 C385 C 0.47280 0.14067 0.76824
 C386 C 0.48220 0.13517 0.73579
 C387 C 0.51712 0.13544 0.73530
 C388 C 0.52783 0.14000 0.76767
 N389 N 0.50069 0.14419 0.78762
 C390 C 0.56202 0.13809 0.77879
 C391 C 0.57312 0.16131 0.80281
 C392 C 0.60244 0.18036 0.80064
 C393 C 0.60258 0.20143 0.82732
 C394 C 0.57263 0.19574 0.84440
 N395 N 0.55460 0.17149 0.82916
 C396 C 0.56296 0.21309 0.87325
 H397 H 0.53566 0.24274 0.93196
 H398 H 0.46887 0.24097 0.93380
 H399 H 0.53214 0.16069 0.83761
 H400 H 0.37604 0.17184 0.86915
 H401 H 0.37674 0.13286 0.81736
 H402 H 0.46554 0.13090 0.71484
 H403 H 0.53292 0.13188 0.71373
 H404 H 0.62170 0.22009 0.83254
 H405 H 0.47125 0.18452 0.82105
 H406 H 0.62050 0.18125 0.78056
 C407 C 0.48339 0.91527 0.22532
 C408 C 0.51832 0.91521 0.22516
 C409 C 0.52822 0.88528 0.21135
 N410 N 0.50055 0.86709 0.20299
 C411 C 0.47311 0.88538 0.21159
 C412 C 0.56223 0.87398 0.20924
 C413 C 0.57180 0.84670 0.18944
 C414 C 0.60286 0.83039 0.19118
 C415 C 0.60261 0.80671 0.16664
 C416 C 0.57140 0.80927 0.15066
 N417 N 0.55289 0.83380 0.16459
 C418 C 0.56131 0.79047 0.12285
 C419 C 0.52715 0.78892 0.11176
 C420 C 0.51675 0.77583 0.08170
 C421 C 0.48181 0.77588 0.08188
 C422 C 0.47203 0.78902 0.11203
 N423 N 0.49978 0.79703 0.13025
 C424 C 0.43809 0.79065 0.12347
 C425 C 0.42855 0.80952 0.15132
 C426 C 0.39761 0.80706 0.16758
 C427 C 0.39789 0.83075 0.19210
 C428 C 0.42899 0.84696 0.19007
 N429 N 0.44741 0.83399 0.16506
 C430 C 0.43902 0.87421 0.20976
 H431 H 0.46739 0.93496 0.23473
 H432 H 0.53456 0.93485 0.23443
 H433 H 0.46999 0.84363 0.15569
 H434 H 0.62360 0.83512 0.20825
 H435 H 0.62311 0.78964 0.16115
 H436 H 0.53267 0.76684 0.06185
 H437 H 0.46548 0.76692 0.06221
 H438 H 0.37747 0.83556 0.20935
 H439 H 0.53020 0.84352 0.15543
 H440 H 0.37694 0.79006 0.16227
 C441 C 0.77790 0.51795 0.91903
 C442 C 0.77817 0.48396 0.91944
 C443 C 0.79049 0.47385 0.88902
 N444 N 0.79775 0.50046 0.87006
 C445 C 0.78995 0.52746 0.88833
 C446 C 0.79194 0.44063 0.87807
 C447 C 0.81081 0.43084 0.85008
 C448 C 0.80803 0.40044 0.83425
 C449 C 0.83210 0.40019 0.80958
 C450 C 0.84885 0.43044 0.81108
 N451 N 0.83582 0.44888 0.83590
 C452 C 0.87660 0.43982 0.79103
 C453 C 0.88788 0.47300 0.78859
 C454 C 0.91835 0.48289 0.77446
 C455 C 0.91809 0.51688 0.77411
 C456 C 0.88743 0.52663 0.78799
 N457 N 0.86902 0.49977 0.79690
 C458 C 0.87559 0.55968 0.78966
 C459 C 0.84745 0.56913 0.80915
 C460 C 0.83012 0.59899 0.80657
 C461 C 0.80596 0.59918 0.83115
 C462 C 0.80935 0.56949 0.84810
 N463 N 0.83472 0.55138 0.83456
 C464 C 0.79068 0.56040 0.87645
 H465 H 0.76944 0.53382 0.93894
 H466 H 0.76993 0.46845 0.93969
 H467 H 0.84525 0.52982 0.84432
 H468 H 0.79059 0.38047 0.83995
 H469 H 0.83680 0.38000 0.79257
 H470 H 0.93854 0.46723 0.76511
 H471 H 0.93805 0.53260 0.76444
 H472 H 0.78809 0.61900 0.83607
 H473 H 0.84584 0.47102 0.84491
 H474 H 0.83451 0.61863 0.78889
 C475 C 0.08170 0.48403 0.22574
 C476 C 0.08242 0.51802 0.22603
 C477 C 0.11313 0.52737 0.21200
 N478 N 0.13116 0.50026 0.20309
 C479 C 0.11199 0.47374 0.21153
 C480 C 0.12536 0.56030 0.21019
 C481 C 0.15350 0.56939 0.19049
 C482 C 0.17101 0.59919 0.19276
 C483 C 0.19514 0.59897 0.16814
 C484 C 0.19160 0.56907 0.15151
 N485 N 0.16613 0.55126 0.16526
 C486 C 0.21025 0.55956 0.12324
 C487 C 0.21104 0.52642 0.11181
 C488 C 0.22324 0.51642 0.08129
 C489 C 0.22290 0.48243 0.08131
 C490 C 0.21034 0.47279 0.11176
 N491 N 0.20304 0.49970 0.13036
 C492 C 0.20852 0.43970 0.12303
 C493 C 0.18926 0.43039 0.15091
 C494 C 0.19151 0.40010 0.16696
 C495 C 0.16709 0.40025 0.19130
 C496 C 0.15071 0.43065 0.18943
 N497 N 0.16427 0.44878 0.16469
 C498 C 0.12280 0.44040 0.20909
 H499 H 0.06135 0.46866 0.23521
 H500 H 0.06270 0.53401 0.23575
 H501 H 0.15458 0.47094 0.15544
 H502 H 0.16677 0.61907 0.21023
 H503 H 0.21312 0.61864 0.16301
 H504 H 0.23181 0.53198 0.06121
 H505 H 0.23117 0.46661 0.06128
 H506 H 0.16193 0.38022 0.20833
 H507 H 0.15552 0.52961 0.15572
 H508 H 0.20880 0.37991 0.16160
 C509 C 0.91261 0.51845 0.23196
 C510 C 0.91187 0.48449 0.23273
 C511 C 0.88100 0.47495 0.21891
 N512 N 0.86290 0.50192 0.20964
 C513 C 0.88220 0.52854 0.21765
 C514 C 0.86889 0.44200 0.21714
 C515 C 0.84090 0.43271 0.19713
 C516 C 0.82350 0.40285 0.19922
 C517 C 0.80002 0.40257 0.17384
 C518 C 0.80385 0.43223 0.15696
 N519 N 0.82880 0.45042 0.17132
 C520 C 0.78607 0.44116 0.12789
 C521 C 0.78550 0.47410 0.11596
 C522 C 0.77406 0.48356 0.08494
 C523 C 0.77448 0.51756 0.08444
 C524 C 0.78632 0.52773 0.11510
 N525 N 0.79309 0.50114 0.13433
 C526 C 0.78795 0.56102 0.12589
 C527 C 0.80648 0.57085 0.15423
 C528 C 0.80398 0.60150 0.16960
 C529 C 0.82777 0.60176 0.19472
 C530 C 0.84401 0.57125 0.19396
 N531 N 0.83098 0.55264 0.16917
 C532 C 0.87151 0.56184 0.21448
 H533 H 0.93315 0.53395 0.24102
 H534 H 0.93177 0.46865 0.24246
 H535 H 0.84082 0.53028 0.16064
 H536 H 0.82751 0.38320 0.21699
 H537 H 0.78238 0.38267 0.16831
 H538 H 0.76595 0.46766 0.06485
 H539 H 0.76673 0.53303 0.06392
 H540 H 0.83265 0.62215 0.21148
 H541 H 0.83968 0.47188 0.16178
 H542 H 0.78700 0.62167 0.16325
 C543 C 0.22513 0.47850 0.91765
 C544 C 0.22519 0.51250 0.91764
 C545 C 0.21309 0.52228 0.88697
 N546 N 0.20570 0.49544 0.86825
 C547 C 0.21315 0.46862 0.88693
 C548 C 0.21167 0.55541 0.87572
 C549 C 0.19322 0.56483 0.84724
 C550 C 0.19620 0.59508 0.83123
 C551 C 0.17228 0.59518 0.80627
 C552 C 0.15544 0.56499 0.80776
 N553 N 0.16830 0.54669 0.83282
 C554 C 0.12755 0.55568 0.78766
 C555 C 0.11634 0.52248 0.78500
 C556 C 0.08587 0.51255 0.77066
 C557 C 0.08610 0.47855 0.77045
 C558 C 0.11672 0.46884 0.78466
 N559 N 0.13515 0.49573 0.79359
 C560 C 0.12841 0.43575 0.78677
 C561 C 0.15618 0.42633 0.80700
 C562 C 0.17320 0.39626 0.80521
 C563 C 0.19693 0.39617 0.83037
 C564 C 0.19365 0.42616 0.84685
 N565 N 0.16872 0.44434 0.83247
 C566 C 0.21203 0.43547 0.87550
 H567 H 0.23329 0.46285 0.93789
 H568 H 0.23341 0.52823 0.93783
 H569 H 0.15833 0.46617 0.84171
 H570 H 0.21360 0.61509 0.83706
 H571 H 0.16768 0.61527 0.78912
 H572 H 0.06566 0.52815 0.76117
 H573 H 0.06608 0.46280 0.76075
 H574 H 0.21446 0.37622 0.83595
 H575 H 0.15808 0.52472 0.84190
 H576 H 0.16886 0.37639 0.78771
 C577 C 0.28281 0.39609 0.08250
 C578 C 0.26663 0.36937 0.06658
 C579 C 0.23148 0.36451 0.07134
 C580 C 0.21265 0.38682 0.09044
 C581 C 0.22874 0.41413 0.10533
 C582 C 0.26408 0.41811 0.10186
 H583 H 0.30988 0.40036 0.07949
 H584 H 0.21831 0.34420 0.05929
 H585 H 0.18539 0.38338 0.09283
 H586 H 0.27697 0.43889 0.11340
 C587 C 0.76642 0.63457 0.07138
 C588 C 0.73138 0.62958 0.06583
 C589 C 0.71474 0.60359 0.08231
 C590 C 0.73296 0.58227 0.10292
 C591 C 0.76823 0.58623 0.10714
 C592 C 0.78475 0.61292 0.09177
 H593 H 0.77990 0.65436 0.05895
 H594 H 0.68772 0.59929 0.07874
 H595 H 0.71975 0.56195 0.11480
 H596 H 0.81198 0.61632 0.09474
 C597 C 0.71755 0.39847 0.91975
 C598 C 0.73362 0.37204 0.93616
 C599 C 0.76866 0.36673 0.93123
 C600 C 0.78755 0.38841 0.91150
 C601 C 0.77160 0.41548 0.89616
 C602 C 0.73633 0.41984 0.89978
 H603 H 0.69055 0.40304 0.92286
 H604 H 0.78173 0.34659 0.94361
 H605 H 0.81476 0.38470 0.90900
 H606 H 0.72355 0.44047 0.88791
 C607 C 0.28499 0.59949 0.91795
 C608 C 0.26841 0.62616 0.93346
 C609 C 0.23331 0.63075 0.92797
 C610 C 0.21492 0.60824 0.90852
 C611 C 0.23141 0.58099 0.89406
 C612 C 0.26670 0.57725 0.89830
 H613 H 0.31203 0.59540 0.92153
 H614 H 0.21984 0.65099 0.93970
 H615 H 0.18769 0.61151 0.90549
 H616 H 0.27989 0.55655 0.88708
 C617 C 0.08787 0.28437 0.39275
 C618 C 0.06880 0.26920 0.36744
 C619 C 0.07103 0.23465 0.36322
 C620 C 0.09045 0.21550 0.38513
 C621 C 0.10795 0.23068 0.41138
 C622 C 0.10729 0.26529 0.41445
 H623 H 0.08685 0.31094 0.39653
 H624 H 0.05652 0.22228 0.34404
 H625 H 0.09077 0.18878 0.38243
 H626 H 0.12089 0.27739 0.43444
 C627 C 0.07404 0.76324 0.63541
 C628 C 0.07002 0.72899 0.63007
 C629 C 0.08709 0.71401 0.60353
 C630 C 0.10671 0.73307 0.58203
 C631 C 0.10920 0.76754 0.58633
 C632 C 0.09331 0.78239 0.61358
 H633 H 0.06105 0.77546 0.65558
 H634 H 0.08463 0.68766 0.59892
 H635 H 0.11904 0.72112 0.56130
 H636 H 0.09489 0.80896 0.61726
 C637 C 0.92925 0.76394 0.36842
 C638 C 0.93412 0.72979 0.37362
 C639 C 0.91763 0.71441 0.40028
 C640 C 0.89775 0.73299 0.42199
 C641 C 0.89432 0.76736 0.41775
 C642 C 0.90963 0.78261 0.39043
 H643 H 0.94172 0.77647 0.34815
 H644 H 0.92071 0.68812 0.40479
 H645 H 0.88586 0.72074 0.44277
 H646 H 0.90728 0.80912 0.38678
 C647 C 0.89955 0.28952 0.61415
 C648 C 0.92604 0.27230 0.63003
 C649 C 0.92900 0.23795 0.62551
 C650 C 0.90733 0.22144 0.60356
 C651 C 0.88188 0.23887 0.58641
 C652 C 0.87705 0.27272 0.59309
 H653 H 0.89667 0.31600 0.61761
 H654 H 0.94928 0.22423 0.63751
 H655 H 0.91119 0.19523 0.59900
 H656 H 0.85704 0.28641 0.58064
 C657 C 0.39860 0.08146 0.28322
 C658 C 0.37118 0.06451 0.26847
 C659 C 0.36522 0.06846 0.23444
 C660 C 0.38735 0.08763 0.21528
 C661 C 0.41552 0.10338 0.22993
 C662 C 0.42040 0.10089 0.26417
 H663 H 0.40369 0.07910 0.30941
 H664 H 0.34436 0.05561 0.22240
 H665 H 0.38319 0.08931 0.18888
 H666 H 0.44182 0.11313 0.27594
 C667 C 0.59252 0.06302 0.72888
 C668 C 0.62800 0.06547 0.73060
 C669 C 0.64252 0.08973 0.75103
 C670 C 0.62177 0.11277 0.76743
 C671 C 0.58588 0.11276 0.76309
 C672 C 0.57196 0.08539 0.74576
 H673 H 0.58051 0.04320 0.71498
 H674 H 0.66992 0.09105 0.75415
 H675 H 0.63456 0.12957 0.78389
 H676 H 0.54491 0.08049 0.74534
 C677 C 0.36234 0.93267 0.76701
 C678 C 0.36785 0.93588 0.73286
 C679 C 0.39384 0.91717 0.71803
 C680 C 0.41490 0.89689 0.73712
 C681 C 0.41071 0.89524 0.77147
 C682 C 0.38375 0.91259 0.78621
 H683 H 0.34252 0.94682 0.77910
 H684 H 0.39852 0.91888 0.69175
 H685 H 0.43544 0.88348 0.72530
 H686 H 0.38017 0.91163 0.81269
 C687 C 0.63837 0.92660 0.23370
 C688 C 0.63295 0.93053 0.26778
 C689 C 0.60615 0.91315 0.28282
 C690 C 0.58430 0.89339 0.26396
 C691 C 0.58849 0.89106 0.22964
 C692 C 0.61616 0.90714 0.21473
 H693 H 0.65878 0.93977 0.22146
 H694 H 0.60153 0.91548 0.30907
 H695 H 0.56325 0.88091 0.27593
 H696 H 0.61976 0.90564 0.18827
 C697 C 0.37055 0.22738 0.94151
 C698 C 0.36834 0.26193 0.93756
 C699 C 0.38797 0.27750 0.91322
 C700 C 0.40978 0.25893 0.89338
 C701 C 0.41299 0.22460 0.89804
 C702 C 0.39321 0.20887 0.92222
 H703 H 0.35602 0.21500 0.96055
 H704 H 0.38675 0.30413 0.90989
 H705 H 0.42511 0.27149 0.87503
 H706 H 0.39592 0.18252 0.92664
 C707 C 0.63617 0.76667 0.92796
 C708 C 0.63060 0.73244 0.93168
 C709 C 0.60352 0.71744 0.91446
 C710 C 0.58155 0.73647 0.89508
 C711 C 0.58592 0.77093 0.89291
 C712 C 0.61385 0.78582 0.90883
 H713 H 0.65678 0.77888 0.94104
 H714 H 0.59876 0.69108 0.91665
 H715 H 0.56031 0.72452 0.88269
 H716 H 0.61762 0.81239 0.90740
 C717 C 0.39477 0.71679 0.08418
 C718 C 0.36794 0.73179 0.06665
 C719 C 0.36223 0.76599 0.07052
 C720 C 0.38425 0.78512 0.09007
 C721 C 0.41200 0.77021 0.10623
 C722 C 0.41643 0.73578 0.10394
 H723 H 0.39960 0.69044 0.08192
 H724 H 0.34178 0.77818 0.05723
 H725 H 0.38046 0.81168 0.09160
 H726 H 0.43754 0.72384 0.11649
 C727 C 0.63741 0.23268 0.07042
 C728 C 0.63134 0.26685 0.06678
 C729 C 0.60430 0.28145 0.08417
 C730 C 0.58298 0.26211 0.10379
 C731 C 0.58789 0.22771 0.10596
 C732 C 0.61570 0.21321 0.08972
 H733 H 0.65803 0.22078 0.05723
 H734 H 0.59919 0.30776 0.08206
 H735 H 0.56182 0.27378 0.11639
 H736 H 0.61986 0.18670 0.09109
 C737 C 0.28600 0.08743 0.60239
 C738 C 0.26958 0.07093 0.62839
 C739 C 0.23451 0.07619 0.63326
 C740 C 0.21589 0.09606 0.61141
 C741 C 0.23211 0.11125 0.58458
 C742 C 0.26748 0.10760 0.58085
 H743 H 0.31303 0.08408 0.59819
 H744 H 0.22116 0.06378 0.65308
 H745 H 0.18861 0.09853 0.61464
 H746 H 0.28046 0.11934 0.56039
 C747 C 0.71788 0.08450 0.39058
 C748 C 0.73490 0.06291 0.36889
 C749 C 0.77079 0.06303 0.36854
 C750 C 0.78910 0.08249 0.39110
 C751 C 0.77200 0.10437 0.41236
 C752 C 0.73625 0.10570 0.41125
 H753 H 0.69029 0.08525 0.39141
 H754 H 0.78474 0.04630 0.35259
 H755 H 0.81654 0.07994 0.39241
 H756 H 0.72252 0.12215 0.42766
 C757 C 0.76735 0.92710 0.63592
 C758 C 0.73219 0.93170 0.63086
 C759 C 0.71594 0.91452 0.60501
 C760 C 0.73466 0.89435 0.58377
 C761 C 0.77005 0.89127 0.58768
 C762 C 0.78618 0.90712 0.61437
 H763 H 0.78053 0.94007 0.65561
 H764 H 0.68884 0.91732 0.60067
 H765 H 0.72175 0.88205 0.56349
 H766 H 0.81349 0.90499 0.61775
 C767 C 0.28555 0.91602 0.39862
 C768 C 0.26924 0.93208 0.37213
 C769 C 0.23416 0.92687 0.36706
 C770 C 0.21548 0.90731 0.38906
 C771 C 0.23166 0.89249 0.41626
 C772 C 0.26697 0.89627 0.42034
 H773 H 0.31258 0.91934 0.40303
 H774 H 0.22091 0.93897 0.34690
 H775 H 0.18824 0.90462 0.38554
 H776 H 0.27992 0.88476 0.44103
 C777 C 0.07426 0.36182 0.76212
 C778 C 0.06996 0.36735 0.72808
 C779 C 0.08793 0.39339 0.71305
 C780 C 0.10847 0.41445 0.73192
 C781 C 0.11098 0.41023 0.76624
 C782 C 0.09448 0.38324 0.78109
 H783 H 0.06064 0.34201 0.77437
 H784 H 0.08531 0.39808 0.68684
 H785 H 0.12127 0.43497 0.71998
 H786 H 0.09610 0.37960 0.80754
 C787 C 0.07294 0.63509 0.23553
 C788 C 0.06924 0.62959 0.26961
 C789 C 0.08682 0.60305 0.28433
 C790 C 0.10643 0.58159 0.26518
 C791 C 0.10846 0.58592 0.23088
 C792 C 0.09228 0.61329 0.21628
 H793 H 0.05962 0.65530 0.22353
 H794 H 0.08469 0.59835 0.31057
 H795 H 0.11901 0.56077 0.27693
 H796 H 0.09358 0.61702 0.18983
 C797 C 0.92251 0.36719 0.23904
 C798 C 0.92806 0.37205 0.27304
 C799 C 0.91133 0.39828 0.28907
 C800 C 0.89061 0.42002 0.27118
 C801 C 0.88671 0.41622 0.23691
 C802 C 0.90216 0.38920 0.22111
 H803 H 0.93509 0.34723 0.22599
 H804 H 0.91495 0.40251 0.31526
 H805 H 0.87866 0.44063 0.28382
 H806 H 0.89951 0.38591 0.19468
 C807 C 0.92906 0.63394 0.76529
 C808 C 0.93319 0.62845 0.73125
 C809 C 0.91559 0.60210 0.71617
 C810 C 0.89549 0.58078 0.73497
 C811 C 0.89302 0.58510 0.76925
 C812 C 0.90924 0.61230 0.78418
 H813 H 0.94238 0.65402 0.77756
 H814 H 0.91806 0.59743 0.68995
 H815 H 0.88287 0.56009 0.72299
 H816 H 0.90759 0.61601 0.81062
 C817 C 0.71612 0.60138 0.91918
 C818 C 0.73129 0.62975 0.93329
 C819 C 0.76561 0.63676 0.92578
 C820 C 0.78477 0.61475 0.90658
 C821 C 0.76980 0.58579 0.89384
 C822 C 0.73504 0.57996 0.89937
 H823 H 0.68967 0.59528 0.92384
 H824 H 0.77820 0.65839 0.93599
 H825 H 0.81155 0.61976 0.90251
 H826 H 0.72284 0.55804 0.88932
 C827 C 0.23522 0.35951 0.92653
 C828 C 0.26954 0.36615 0.93464
 C829 C 0.28534 0.39403 0.92034
 C830 C 0.26704 0.41538 0.89983
 C831 C 0.23226 0.41001 0.89370
 C832 C 0.21667 0.38149 0.90659
 H833 H 0.22215 0.33828 0.93685
 H834 H 0.31181 0.39982 0.92542
 H835 H 0.27974 0.43692 0.88968
 H836 H 0.18987 0.37681 0.90207
 C837 C 0.23451 0.63541 0.07288
 C838 C 0.26883 0.62857 0.06519
 C839 C 0.28429 0.60045 0.07943
 C840 C 0.26565 0.57913 0.09960
 C841 C 0.23090 0.58481 0.10537
 C842 C 0.21565 0.61350 0.09244
 H843 H 0.22168 0.65683 0.06258
 H844 H 0.31073 0.59450 0.07461
 H845 H 0.27807 0.55742 0.10978
 H846 H 0.18887 0.61839 0.09665
 C847 C 0.71335 0.39932 0.08248
 C848 C 0.72934 0.37131 0.06861
 C849 C 0.76353 0.36475 0.07722
 C850 C 0.78181 0.38689 0.09726
 C851 C 0.76605 0.41554 0.10969
 C852 C 0.73138 0.42089 0.10304
 H853 H 0.68696 0.40507 0.07700
 H854 H 0.77673 0.34341 0.06724
 H855 H 0.80853 0.38225 0.10220
 H856 H 0.71859 0.44255 0.11283
 C857 C 0.91941 0.71364 0.60279
 C858 C 0.93472 0.72798 0.63090
 C859 C 0.92781 0.76153 0.63808
 C860 C 0.90822 0.78073 0.61635
 C861 C 0.89436 0.76656 0.58760
 C862 C 0.89910 0.73259 0.58173
 H863 H 0.92354 0.68781 0.59661
 H864 H 0.93896 0.77346 0.65952
 H865 H 0.90479 0.80689 0.62140
 H866 H 0.88813 0.72101 0.56000
 C867 C 0.94712 0.26069 0.40430
 C868 C 0.93570 0.27045 0.37293
 C869 C 0.90273 0.26149 0.36263
 C870 C 0.88059 0.24560 0.38466
 C871 C 0.89228 0.23510 0.41589
 C872 C 0.92641 0.24153 0.42460
 H873 H 0.97274 0.26658 0.41254
 H874 H 0.89330 0.26890 0.33856
 H875 H 0.85437 0.24144 0.37730
 H876 H 0.93665 0.23286 0.44791
 C877 C 0.07788 0.28488 0.59701
 C878 C 0.06352 0.27014 0.62525
 C879 C 0.07131 0.23670 0.63206
 C880 C 0.09116 0.21808 0.61013
 C881 C 0.10444 0.23270 0.58146
 C882 C 0.09850 0.26654 0.57574
 H883 H 0.07304 0.31064 0.59105
 H884 H 0.06089 0.22443 0.65355
 H885 H 0.09546 0.19203 0.61510
 H886 H 0.10898 0.27852 0.55411
 C887 C 0.08437 0.71357 0.40011
 C888 C 0.06937 0.72822 0.37203
 C889 C 0.07644 0.76183 0.36533
 C890 C 0.09582 0.78078 0.38747
 C891 C 0.10935 0.76633 0.41619
 C892 C 0.10450 0.73230 0.42161
 H893 H 0.08010 0.68769 0.40593
 H894 H 0.06553 0.77402 0.34395
 H895 H 0.09935 0.80699 0.38275
 H896 H 0.11524 0.72050 0.44330
 C897 C 0.63581 0.92928 0.76664
 C898 C 0.63034 0.93258 0.73246
 C899 C 0.60345 0.91492 0.71759
 C900 C 0.58158 0.89560 0.73665
 C901 C 0.58588 0.89383 0.77099
 C902 C 0.61363 0.91013 0.78579
 H903 H 0.65626 0.94266 0.77877
 H904 H 0.59873 0.91676 0.69129
 H905 H 0.56047 0.88294 0.72478
 H906 H 0.61733 0.90900 0.81228
 C907 C 0.39639 0.91341 0.28366
 C908 C 0.36947 0.93095 0.26881
 C909 C 0.36355 0.92711 0.23476
 C910 C 0.38538 0.90759 0.21562
 C911 C 0.41318 0.89137 0.23034
 C912 C 0.41786 0.89361 0.26464
 H913 H 0.40140 0.91568 0.30988
 H914 H 0.34304 0.94041 0.22266
 H915 H 0.38140 0.90615 0.18919
 H916 H 0.43902 0.88102 0.27645
 C917 C 0.64034 0.06790 0.23201
 C918 C 0.63509 0.06474 0.26619
 C919 C 0.60867 0.08286 0.28104
 C920 C 0.58692 0.10243 0.26199
 C921 C 0.59081 0.10396 0.22762
 C922 C 0.61822 0.08728 0.21281
 H923 H 0.66045 0.05413 0.21992
 H924 H 0.60418 0.08116 0.30736
 H925 H 0.56611 0.11538 0.27387
 H926 H 0.62162 0.08822 0.18631
 C927 C 0.40560 0.06020 0.73893
 C928 C 0.37286 0.06983 0.72900
 C929 C 0.36141 0.10204 0.73592
 C930 C 0.38297 0.12464 0.75208
 C931 C 0.41570 0.11481 0.76248
 C932 C 0.42659 0.08227 0.75594
 H933 H 0.41479 0.03539 0.73378
 H934 H 0.33626 0.10989 0.72806
 H935 H 0.37417 0.14970 0.75650
 H936 H 0.45157 0.07398 0.76390
 C937 C 0.63657 0.76640 0.06941
 C938 C 0.63086 0.73223 0.06514
 C939 C 0.60409 0.71702 0.08240
 C940 C 0.58259 0.73578 0.10241
 C941 C 0.58710 0.77019 0.10518
 C942 C 0.61472 0.78528 0.08918
 H943 H 0.65698 0.77877 0.05635
 H944 H 0.59925 0.69070 0.07983
 H945 H 0.56158 0.72368 0.11482
 H946 H 0.61857 0.81181 0.09105
 C947 C 0.39485 0.28037 0.08700
 C948 C 0.36780 0.26527 0.06982
 C949 C 0.36229 0.23103 0.07372
 C950 C 0.38470 0.21198 0.09286
 C951 C 0.41268 0.22696 0.10862
 C952 C 0.41692 0.26144 0.10639
 H953 H 0.39958 0.30673 0.08467
 H954 H 0.34172 0.21873 0.06068
 H955 H 0.38104 0.18541 0.09433
 H956 H 0.43820 0.27346 0.11862
 C957 C 0.63741 0.23531 0.92894
 C958 C 0.63310 0.26976 0.93227
 C959 C 0.60805 0.28576 0.91316
 C960 C 0.58659 0.26750 0.89245
 C961 C 0.58934 0.23286 0.89095
 C962 C 0.61553 0.21696 0.90852
 H963 H 0.65650 0.22238 0.94337
 H964 H 0.60440 0.31232 0.91495
 H965 H 0.56673 0.28018 0.87877
 H966 H 0.61807 0.19023 0.90750
 C967 C 0.39405 0.71744 0.91504
 C968 C 0.36731 0.73216 0.93276
 C969 C 0.36137 0.76636 0.92913
 C970 C 0.38302 0.78575 0.90963
 C971 C 0.41065 0.77115 0.89320
 C972 C 0.41532 0.73670 0.89525
 H973 H 0.39908 0.69111 0.91712
 H974 H 0.34099 0.77838 0.94256
 H975 H 0.37904 0.81230 0.90838
 H976 H 0.43634 0.72494 0.88254
 C977 C 0.71627 0.91530 0.39886
 C978 C 0.73290 0.93080 0.37236
 C979 C 0.76791 0.92510 0.36774
 C980 C 0.78624 0.90558 0.39014
 C981 C 0.76977 0.89115 0.41728
 C982 C 0.73449 0.89545 0.42095
 H983 H 0.68927 0.91905 0.40292
 H984 H 0.78141 0.93682 0.34761
 H985 H 0.81346 0.90255 0.38691
 H986 H 0.72128 0.88425 0.44156
 C987 C 0.28413 0.91882 0.60410
 C988 C 0.26776 0.93618 0.62964
 C989 C 0.23257 0.93160 0.63429
 C990 C 0.21386 0.91137 0.61267
 C991 C 0.23016 0.89528 0.58634
 C992 C 0.26555 0.89844 0.58281
 H993 H 0.31126 0.92158 0.60008
 H994 H 0.21929 0.94470 0.65372
 H995 H 0.18655 0.90916 0.61577
 H996 H 0.27859 0.88595 0.56282
 C997 C 0.28614 0.08289 0.39700
 C998 C 0.26971 0.06609 0.37102
 C999 C 0.23457 0.07099 0.36607
 C1000 C 0.21596 0.09101 0.38770
 C1001 C 0.23226 0.10670 0.41438
 C1002 C 0.26762 0.10318 0.41833
 H1003 H 0.31321 0.07979 0.40129
 H1004 H 0.22122 0.05829 0.34631
 H1005 H 0.18868 0.09345 0.38428
 H1006 H 0.28068 0.11535 0.43860
 C1007 C 0.71281 0.08584 0.60521
 C1008 C 0.73027 0.06599 0.62819
 C1009 C 0.76604 0.06761 0.62967
 C1010 C 0.78406 0.08756 0.60752
 C1011 C 0.76657 0.10666 0.58399
 C1012 C 0.73079 0.10629 0.58357
 H1013 H 0.68525 0.08518 0.60365
 H1014 H 0.78013 0.05242 0.64703
 H1015 H 0.81167 0.08755 0.60818
 H1016 H 0.71687 0.12104 0.56571
 C1017 C 0.92739 0.63522 0.23725
 C1018 C 0.93132 0.63061 0.27146
 C1019 C 0.91273 0.60536 0.28709
 C1020 C 0.89186 0.58420 0.26872
 C1021 C 0.88958 0.58751 0.23430
 C1022 C 0.90680 0.61368 0.21877
 H1023 H 0.94147 0.65444 0.22456
 H1024 H 0.91501 0.60140 0.31345
 H1025 H 0.87851 0.56432 0.28117
 H1026 H 0.90537 0.61660 0.19222
 C1027 C 0.91483 0.39691 0.71683
 C1028 C 0.93284 0.37062 0.73150
 C1029 C 0.92982 0.36545 0.76570
 C1030 C 0.91059 0.38728 0.78506
 C1031 C 0.89384 0.41433 0.77043
 C1032 C 0.89535 0.41838 0.73607
 H1033 H 0.91641 0.40135 0.69051
 H1034 H 0.94349 0.34544 0.77766
 H1035 H 0.90970 0.38376 0.81155
 H1036 H 0.88233 0.43893 0.72431
 C1037 C 0.07422 0.63077 0.76469
 C1038 C 0.07022 0.62629 0.73046
 C1039 C 0.08753 0.60009 0.71492
 C1040 C 0.10730 0.57805 0.73337
 C1041 C 0.10979 0.58147 0.76777
 C1042 C 0.09372 0.60841 0.78322
 H1043 H 0.06109 0.65066 0.77733
 H1044 H 0.08512 0.59613 0.68856
 H1045 H 0.11980 0.55761 0.72096
 H1046 H 0.09537 0.61146 0.80975
 C1047 C 0.08385 0.39716 0.28268
 C1048 C 0.06530 0.37138 0.26763
 C1049 C 0.06804 0.36675 0.23332
 C1050 C 0.08763 0.38853 0.21429
 C1051 C 0.10493 0.41507 0.22932
 C1052 C 0.10360 0.41865 0.26374
 H1053 H 0.08248 0.40122 0.30908
 H1054 H 0.05398 0.34715 0.22105
 H1055 H 0.08841 0.38538 0.18774
 H1056 H 0.11704 0.43880 0.27579
   
