data_POSCAR
  _audit_creation_date              2014-09-24
  _audit_creation_method            'ToBaCCo'
  _symmetry_space_group_name_H-M    'P1'
  _symmetry_Int_Tables_number       1
  _symmetry_cell_setting            triclinic
  loop_
  _symmetry_equiv_pos_as_xyz
 x,y,z
_cell_length_a 33.0192
_cell_length_b 30.7410
_cell_length_c 35.4369
_cell_angle_alpha 84.982800
_cell_angle_beta 97.078200
_cell_angle_gamma 101.089500
loop_
  _atom_site_label
  _atom_site_type_symbol
  _atom_site_fract_x
  _atom_site_fract_y
  _atom_site_fract_z
N1 N 0.26965 0.27575 0.22153
 N2 N 0.77872 -0.28049 0.31024
 N3 N 0.66957 0.23399 0.71122
 N4 N 0.29729 -0.23357 0.77081
 N5 N 0.79706 -0.21373 0.82360
 N6 N 0.20258 0.25461 0.71512
 N7 N 0.29225 -0.21349 0.23712
 N8 N 0.73706 0.16682 0.22013
 O9 O 0.21727 0.03236 0.44440
 O10 O 0.23337 -0.05437 0.51922
 O11 O 0.20863 0.02179 0.51736
 O12 O 0.24292 -0.04158 0.44780
 O13 O 0.30792 -0.00965 0.46358
 O14 O 0.27259 0.05828 0.52976
 O15 O 0.29688 -0.01856 0.53583
 O16 O 0.28240 0.06587 0.45613
 Cu17 Cu 0.21899 -0.01361 0.48113
 Cu18 Cu 0.29635 0.02770 0.49788
 C19 C 0.24729 0.06280 0.43616
 C20 C 0.26769 -0.05161 0.54014
 C21 C 0.23454 0.05094 0.53543
 C22 C 0.28130 -0.03661 0.44386
 O23 O 0.71786 0.01413 0.54096
 O24 O 0.75170 -0.07656 0.49980
 O25 O 0.72796 -0.00320 0.47218
 O26 O 0.73858 -0.06112 0.56746
 O27 O 0.67248 -0.09271 0.55902
 O28 O 0.66415 -0.04119 0.46179
 O29 O 0.68698 -0.11322 0.49430
 O30 O 0.65245 -0.01860 0.52928
 Cu31 Cu 0.74052 -0.02791 0.52097
 Cu32 Cu 0.66229 -0.06948 0.50990
 C33 C 0.67951 0.01331 0.54237
 C34 C 0.72525 -0.11092 0.49109
 C35 C 0.69454 -0.01347 0.45035
 C36 C 0.70721 -0.08700 0.57943
 O37 O 0.43200 0.22426 0.01510
 O38 O 0.48638 0.19733 -0.06244
 O39 O 0.50151 0.19762 0.01081
 O40 O 0.41569 0.22236 -0.06019
 O41 O 0.44655 0.29261 -0.06453
 O42 O 0.53486 0.26658 0.00128
 O43 O 0.51558 0.26790 -0.07059
 O44 O 0.46609 0.29323 0.01018
 Cu45 Cu 0.45522 0.20351 -0.02349
 Cu46 Cu 0.49340 0.28734 -0.03119
 C47 C 0.44097 0.26325 0.02675
 C48 C 0.51042 0.22798 -0.07961
 C49 C 0.53348 0.22759 0.01679
 C50 C 0.41697 0.26167 -0.07510
 O51 O 0.59437 0.84544 0.07980
 O52 O 0.52479 0.83852 -0.01035
 O53 O 0.51492 0.82859 0.06245
 O54 O 0.60548 0.85699 0.00766
 O55 O 0.60856 0.78584 0.00825
 O56 O 0.51745 0.75754 0.06135
 O57 O 0.52958 0.76793 -0.01141
 O58 O 0.59739 0.77436 0.07851
 Cu59 Cu 0.55947 0.84960 0.03472
 Cu60 Cu 0.56299 0.76411 0.03403
 C61 C 0.60769 0.81089 0.09433
 C62 C 0.51613 0.80207 -0.02650
 C63 C 0.50128 0.78813 0.07197
 C64 C 0.62286 0.82622 -0.00088
 O65 O 0.03471 0.46500 0.18790
 O66 O -0.04969 0.51802 0.20934
 O67 O 0.02635 0.54663 0.19265
 O68 O -0.04097 0.43743 0.20479
 O69 O -0.01741 0.43305 0.26589
 O70 O 0.05012 0.54228 0.25356
 O71 O -0.02591 0.51559 0.27041
 O72 O 0.05765 0.46043 0.24903
 Cu73 Cu -0.00965 0.49233 0.19252
 Cu74 Cu 0.01832 0.48760 0.26594
 C75 C 0.06044 0.45332 0.21474
 C76 C -0.05235 0.52559 0.24349
 C77 C 0.05019 0.56289 0.22090
 C78 C -0.04059 0.41664 0.23736
 O79 O 0.03143 0.52468 0.80775
 O80 O -0.06654 0.44992 0.77595
 O81 O 0.01245 0.45008 0.77457
 O82 O -0.04819 0.52315 0.81046
 O83 O -0.04887 0.56256 0.75523
 O84 O 0.00931 0.48725 0.71846
 O85 O -0.06898 0.48894 0.72072
 O86 O 0.02880 0.56207 0.75169
 Cu87 Cu -0.01736 0.48324 0.79785
 Cu88 Cu -0.02014 0.52892 0.73094
 C89 C 0.04689 0.55602 0.78492
 C90 C -0.08470 0.45710 0.74284
 C91 C 0.02111 0.45596 0.74035
 C92 C -0.05901 0.55510 0.78893
 C93 C 0.34076 0.25516 0.15386
 C94 C 0.36718 0.29566 0.15280
 C95 C 0.36530 0.32913 0.17617
 C96 C 0.33416 0.32098 0.20086
 C97 C 0.30598 0.27992 0.20190
 C98 C 0.30998 0.24613 0.17870
 O99 O 0.34595 0.22913 0.12748
 C100 C 0.37618 0.25378 0.10933
 C101 C 0.39019 0.29476 0.12371
 C102 C 0.42010 0.32678 0.10770
 C103 C 0.43644 0.31606 0.07571
 C104 C 0.42275 0.27391 0.06027
 C105 C 0.39214 0.24231 0.07758
 H106 H 0.38597 0.36098 0.17440
 H107 H 0.33069 0.34717 0.21807
 H108 H 0.28787 0.21517 0.17806
 H109 H 0.43021 0.35905 0.11920
 H110 H 0.45980 0.34071 0.06300
 H111 H 0.38066 0.21003 0.06640
 C112 C 0.72663 0.76527 0.21904
 C113 C 0.70093 0.78881 0.23299
 C114 C 0.69937 0.79116 0.27166
 C115 C 0.72512 0.76811 0.29698
 C116 C 0.75290 0.74412 0.28354
 C117 C 0.75397 0.74387 0.24366
 O118 O 0.72006 0.76308 0.18153
 C119 C 0.68966 0.78582 0.17164
 C120 C 0.67731 0.80299 0.20199
 C121 C 0.64485 0.82658 0.19819
 C122 C 0.62363 0.83175 0.16171
 C123 C 0.63448 0.81224 0.13052
 C124 C 0.66838 0.78964 0.13543
 H125 H 0.67788 0.80864 0.28200
 H126 H 0.72243 0.76833 0.32705
 H127 H 0.77450 0.72637 0.23195
 H128 H 0.63555 0.83956 0.22255
 H129 H 0.59738 0.84868 0.15812
 H130 H 0.67685 0.77401 0.11206
 C131 C 0.61263 0.24220 -0.20539
 C132 C 0.60258 0.19803 -0.19343
 C133 C 0.61527 0.16457 -0.21036
 C134 C 0.63868 0.17707 -0.24127
 C135 C 0.64861 0.22232 -0.25487
 C136 C 0.63582 0.25537 -0.23615
 O137 O 0.59700 0.26862 -0.18571
 C138 C 0.57658 0.24051 -0.16091
 C139 C 0.57887 0.19691 -0.16453
 C140 C 0.55880 0.16194 -0.14207
 C141 C 0.53569 0.17238 -0.11450
 C142 C 0.53329 0.21719 -0.10983
 C143 C 0.55408 0.25166 -0.13356
 H144 H 0.60708 0.13005 -0.20040
 H145 H 0.64862 0.15146 -0.25505
 H146 H 0.64256 0.29004 -0.24608
 H147 H 0.56083 0.12785 -0.14565
 H148 H 0.52013 0.14561 -0.09654
 H149 H 0.55272 0.28617 -0.13093
 C150 C 0.37997 0.79590 -0.14889
 C151 C 0.41319 0.78421 -0.16286
 C152 C 0.41081 0.76910 -0.19908
 C153 C 0.37243 0.76525 -0.22162
 C154 C 0.33742 0.77582 -0.20746
 C155 C 0.34141 0.79193 -0.17075
 O156 O 0.38843 0.80791 -0.11324
 C157 C 0.42775 0.80338 -0.10442
 C158 C 0.44421 0.78865 -0.13374
 C159 C 0.48383 0.77848 -0.12985
 C160 C 0.50737 0.78350 -0.09423
 C161 C 0.49130 0.79919 -0.06380
 C162 C 0.45112 0.80978 -0.06903
 H163 H 0.43728 0.75971 -0.20929
 H164 H 0.36936 0.75238 -0.24952
 H165 H 0.31491 0.79961 -0.15926
 H166 H 0.49580 0.76612 -0.15309
 H167 H 0.53807 0.77508 -0.09020
 H168 H 0.43792 0.82080 -0.04586
 C169 C 0.19309 0.34947 0.22773
 C170 C 0.18467 0.36240 0.18987
 C171 C 0.20405 0.34917 0.16128
 C172 C 0.23294 0.32111 0.17212
 C173 C 0.24180 0.30682 0.21099
 C174 C 0.22173 0.32169 0.23914
 O175 O 0.17060 0.36480 0.25030
 C176 C 0.14735 0.38777 0.22617
 C177 C 0.15467 0.38731 0.18884
 C178 C 0.13269 0.40802 0.15881
 C179 C 0.10187 0.43005 0.16764
 C180 C 0.09372 0.43102 0.20597
 C181 C 0.11712 0.40969 0.23561
 H182 H 0.19675 0.35956 0.13165
 H183 H 0.24765 0.30958 0.15021
 H184 H 0.22782 0.31128 0.26895
 H185 H 0.13872 0.40685 0.12962
 H186 H 0.08434 0.44621 0.14458
 H187 H 0.11142 0.40933 0.26509
 C188 C 0.19169 0.69836 0.78200
 C189 C 0.20139 0.66625 0.80928
 C190 C 0.24163 0.66640 0.82640
 C191 C 0.27317 0.70048 0.81437
 C192 C 0.26411 0.73397 0.78588
 C193 C 0.22225 0.73324 0.77051
 O194 O 0.15246 0.69020 0.76675
 C195 C 0.13703 0.65207 0.78474
 C196 C 0.16549 0.63613 0.81137
 C197 C 0.15616 0.59555 0.83213
 C198 C 0.11615 0.57012 0.82466
 C199 C 0.08684 0.58521 0.79628
 C200 C 0.09740 0.62719 0.77658
 H201 H 0.24877 0.64026 0.84720
 H202 H 0.30480 0.69965 0.82632
 H203 H 0.21393 0.75800 0.74884
 H204 H 0.17915 0.58342 0.85269
 H205 H 0.10863 0.53795 0.83978
 H206 H 0.07588 0.63954 0.75457
 C207 C -0.15057 0.64195 0.29701
 C208 C -0.17664 0.61255 0.27375
 C209 C -0.21815 0.61506 0.26326
 C210 C -0.23322 0.64977 0.27677
 C211 C -0.20646 0.68178 0.29930
 C212 C -0.16480 0.67706 0.31032
 O213 O -0.11196 0.63436 0.30275
 C214 C -0.11362 0.59967 0.28240
 C215 C -0.15243 0.58529 0.26386
 C216 C -0.16049 0.55150 0.23882
 C217 C -0.12712 0.53188 0.23250
 C218 C -0.08698 0.54571 0.25167
 C219 C -0.08024 0.57974 0.27733
 H220 H -0.23810 0.59145 0.24503
 H221 H -0.26543 0.65247 0.26901
 H222 H -0.14383 0.70102 0.32751
 H223 H -0.19111 0.54134 0.22402
 H224 H -0.13246 0.50591 0.21271
 H225 H -0.04966 0.59149 0.29165
 C226 C -0.23574 0.32031 0.73379
 C227 C -0.23497 0.34545 0.69973
 C228 C -0.26525 0.33661 0.66907
 C229 C -0.29741 0.30005 0.67357
 C230 C -0.29880 0.27329 0.70828
 C231 C -0.26765 0.28396 0.73897
 O232 O -0.20333 0.33367 0.75890
 C233 C -0.18165 0.36796 0.74024
 C234 C -0.19972 0.37651 0.70395
 C235 C -0.18198 0.41036 0.67917
 C236 C -0.14410 0.43662 0.69234
 C237 C -0.12461 0.42863 0.72970
 C238 C -0.14388 0.39364 0.75396
 H239 H -0.26385 0.35675 0.64248
 H240 H -0.32110 0.29215 0.64996
 H241 H -0.26763 0.26369 0.76553
 H242 H -0.19671 0.41630 0.65066
 H243 H -0.12998 0.46314 0.67330
 H244 H -0.12994 0.38653 0.78257
 C245 C 0.27271 0.19345 0.30587
 C246 C 0.23187 0.17234 0.30282
 C247 C 0.20294 0.18170 0.27279
 C248 C 0.21638 0.21496 0.24512
 C249 C 0.25804 0.23825 0.24792
 C250 C 0.28686 0.22667 0.27841
 O251 O 0.29479 0.17973 0.33710
 C252 C 0.26717 0.14943 0.35407
 C253 C 0.22825 0.14390 0.33421
 C254 C 0.19442 0.11453 0.34680
 C255 C 0.20102 0.08913 0.38100
 C256 C 0.24100 0.09330 0.40200
 C257 C 0.27452 0.12438 0.38837
 H258 H 0.17099 0.16450 0.27104
 H259 H 0.19419 0.22339 0.22182
 H260 H 0.31868 0.24426 0.28139
 H261 H 0.16404 0.11104 0.33070
 H262 H 0.17492 0.06568 0.39075
 H263 H 0.30541 0.12833 0.40351
 C264 C 0.68210 0.15960 0.63737
 C265 C 0.64123 0.14297 0.62537
 C266 C 0.60835 0.15634 0.63941
 C267 C 0.61806 0.18771 0.66720
 C268 C 0.66000 0.20476 0.68038
 C269 C 0.69240 0.19090 0.66475
 O270 O 0.70865 0.14077 0.62226
 C271 C 0.68409 0.11153 0.60031
 C272 C 0.64254 0.11149 0.60110
 C273 C 0.61151 0.08156 0.58186
 C274 C 0.62385 0.05004 0.56143
 C275 C 0.66658 0.04907 0.56068
 C276 C 0.69700 0.08088 0.58001
 H277 H 0.57642 0.14242 0.62994
 H278 H 0.59311 0.19823 0.67907
 H279 H 0.72460 0.20276 0.67487
 H280 H 0.57899 0.08175 0.58329
 H281 H 0.60013 0.02583 0.54700
 H282 H 0.72984 0.08071 0.58063
 C283 C 0.29933 -0.15497 0.68378
 C284 C 0.28144 -0.18381 0.65630
 C285 C 0.26964 -0.22925 0.66431
 C286 C 0.27608 -0.24564 0.70232
 C287 C 0.29316 -0.21649 0.73152
 C288 C 0.30574 -0.17057 0.72190
 O289 O 0.30705 -0.11284 0.67020
 C290 C 0.29348 -0.11516 0.63339
 C291 C 0.27735 -0.15788 0.62356
 C292 C 0.25892 -0.16786 0.58718
 C293 C 0.25662 -0.13234 0.55986
 C294 C 0.27320 -0.08800 0.56909
 C295 C 0.29247 -0.07930 0.60629
 H296 H 0.25563 -0.25125 0.64215
 H297 H 0.26720 -0.28093 0.70925
 H298 H 0.31885 -0.14769 0.74366
 H299 H 0.24585 -0.20167 0.58032
 H300 H 0.24169 -0.13928 0.53150
 H301 H 0.30452 -0.04565 0.61425
 C302 C 0.79332 -0.21505 0.39476
 C303 C 0.76940 -0.24441 0.41842
 C304 C 0.75430 -0.28851 0.41044
 C305 C 0.76222 -0.30215 0.37574
 C306 C 0.78413 -0.27152 0.34982
 C307 C 0.80198 -0.22821 0.36047
 O308 O 0.79921 -0.17335 0.40422
 C309 C 0.77808 -0.17617 0.43406
 C310 C 0.75906 -0.21889 0.44386
 C311 C 0.72985 -0.22844 0.47001
 C312 C 0.71962 -0.19256 0.48635
 C313 C 0.73893 -0.14839 0.47661
 C314 C 0.76931 -0.14021 0.45085
 H315 H 0.73447 -0.31061 0.42883
 H316 H 0.74776 -0.33503 0.36725
 H317 H 0.81715 -0.20390 0.34027
 H318 H 0.71402 -0.26209 0.47618
 H319 H 0.69605 -0.19900 0.50589
 H320 H 0.78319 -0.10665 0.44183
 C321 C 0.75533 0.80372 -0.08682
 C322 C 0.74931 0.84683 -0.09431
 C323 C 0.76401 0.87332 -0.12532
 C324 C 0.78357 0.85379 -0.15064
 C325 C 0.78789 0.80842 -0.14486
 C326 C 0.77605 0.78425 -0.11081
 O327 O 0.73420 0.78214 -0.05929
 C328 C 0.71407 0.81202 -0.04944
 C329 C 0.72243 0.85236 -0.06971
 C330 C 0.70117 0.88668 -0.06672
 C331 C 0.66958 0.87877 -0.04240
 C332 C 0.65950 0.83680 -0.02232
 C333 C 0.68291 0.80347 -0.02531
 H334 H 0.75821 0.90686 -0.13121
 H335 H 0.79295 0.87314 -0.17615
 H336 H 0.77890 0.74999 -0.10452
 H337 H 0.70751 0.91778 -0.08365
 H338 H 0.65180 0.90452 -0.04061
 H339 H 0.67560 0.77082 -0.01092
 C340 C 0.28422 0.24601 -0.20236
 C341 C 0.30154 0.29018 -0.19950
 C342 C 0.28916 0.32362 -0.22465
 C343 C 0.25710 0.31117 -0.25358
 C344 C 0.23796 0.26595 -0.25688
 C345 C 0.25223 0.23282 -0.23110
 O346 O 0.30069 0.21967 -0.17542
 C347 C 0.32895 0.24790 -0.15518
 C348 C 0.33055 0.29141 -0.16876
 C349 C 0.35785 0.32648 -0.15211
 C350 C 0.38523 0.31631 -0.12051
 C351 C 0.38493 0.27164 -0.10612
 C352 C 0.35586 0.23698 -0.12359
 H353 H 0.30344 0.35813 -0.22190
 H354 H 0.24672 0.33678 -0.27324
 H355 H 0.23799 0.19815 -0.23276
 H356 H 0.35841 0.36046 -0.16333
 H357 H 0.40713 0.34331 -0.10770
 H358 H 0.35494 0.20253 -0.11361
 C359 C 0.37776 0.79794 0.17480
 C360 C 0.37824 0.75387 0.17099
 C361 C 0.35274 0.71941 0.18942
 C362 C 0.32516 0.73081 0.21230
 C363 C 0.32362 0.77597 0.21639
 C364 C 0.35064 0.81005 0.19763
 O365 O 0.40411 0.82539 0.15428
 C366 C 0.42151 0.79803 0.13718
 C367 C 0.40672 0.75395 0.14643
 C368 C 0.42038 0.71966 0.13153
 C369 C 0.45095 0.73127 0.10637
 C370 C 0.46717 0.77654 0.09660
 C371 C 0.45185 0.81035 0.11215
 H372 H 0.35361 0.68500 0.18588
 H373 H 0.30446 0.70456 0.22648
 H374 H 0.34953 0.84468 0.19988
 H375 H 0.40811 0.68520 0.13916
 H376 H 0.46222 0.70493 0.09485
 H377 H 0.46357 0.84520 0.10546
 C378 C 0.64889 0.17963 0.14511
 C379 C 0.66998 0.18989 0.11342
 C380 C 0.71237 0.19084 0.11458
 C381 C 0.73402 0.18131 0.14997
 C382 C 0.71336 0.17205 0.18342
 C383 C 0.66997 0.17074 0.18072
 O384 O 0.60877 0.18134 0.13788
 C385 C 0.60452 0.19324 0.10087
 C386 C 0.64118 0.19924 0.08467
 C387 C 0.64444 0.21418 0.04678
 C388 C 0.60846 0.22349 0.02473
 C389 C 0.57025 0.21688 0.04063
 C390 C 0.56807 0.20114 0.07912
 H391 H 0.72828 0.19907 0.08925
 H392 H 0.76710 0.18203 0.15162
 H393 H 0.65347 0.16438 0.20578
 H394 H 0.67375 0.21923 0.03485
 H395 H 0.61019 0.23563 -0.00477
 H396 H 0.53928 0.19657 0.09192
 C397 C -0.13489 0.70461 0.81586
 C398 C -0.15902 0.66602 0.82911
 C399 C -0.19767 0.66489 0.84127
 C400 C -0.21192 0.70519 0.83983
 C401 C -0.18662 0.74581 0.82834
 C402 C -0.14779 0.74531 0.81570
 O403 O -0.10108 0.69784 0.80221
 C404 C -0.10379 0.65410 0.80725
 C405 C -0.13839 0.63316 0.82409
 C406 C -0.14757 0.58738 0.83169
 C407 C -0.12002 0.56210 0.82134
 C408 C -0.08501 0.58278 0.80271
 C409 C -0.07670 0.62945 0.79566
 H410 H -0.21690 0.63389 0.85000
 H411 H -0.24305 0.70470 0.84668
 H412 H -0.12906 0.77555 0.80475
 H413 H -0.17505 0.57167 0.84488
 H414 H -0.12671 0.52633 0.82653
 H415 H -0.05019 0.64591 0.78136
 C416 C -0.18147 0.27001 0.22409
 C417 C -0.14887 0.25408 0.24502
 C418 C -0.15144 0.20968 0.25792
 C419 C -0.18920 0.18067 0.24897
 C420 C -0.22376 0.19665 0.22842
 C421 C -0.21950 0.24213 0.21586
 O422 O -0.17236 0.31282 0.21330
 C423 C -0.13318 0.32431 0.22788
 C424 C -0.11740 0.28978 0.24797
 C425 C -0.07709 0.29497 0.26622
 C426 C -0.05209 0.33740 0.26340
 C427 C -0.06749 0.37299 0.24188
 C428 C -0.10860 0.36629 0.22392
 H429 H -0.12520 0.19768 0.27385
 H430 H -0.19167 0.14581 0.25807
 H431 H -0.24513 0.25541 0.20009
 H432 H -0.06537 0.26741 0.28204
 H433 H -0.02052 0.34235 0.27713
 H434 H -0.12112 0.39309 0.20757
 C435 C 0.12832 0.32667 0.73247
 C436 C 0.11698 0.34206 0.69580
 C437 C 0.13158 0.32875 0.66426
 C438 C 0.15927 0.29875 0.67086
 C439 C 0.17196 0.28304 0.70850
 C440 C 0.15587 0.29702 0.73966
 O441 O 0.11157 0.34389 0.75850
 C442 C 0.08930 0.37089 0.73787
 C443 C 0.09162 0.37118 0.69936
 C444 C 0.07171 0.39832 0.67277
 C445 C 0.04848 0.42623 0.68646
 C446 C 0.04536 0.42626 0.72608
 C447 C 0.06609 0.39795 0.75202
 H448 H 0.12238 0.34140 0.63566
 H449 H 0.17169 0.28851 0.64688
 H450 H 0.16511 0.28556 0.76863
 H451 H 0.07427 0.39832 0.64261
 H452 H 0.03291 0.44770 0.66619
 H453 H 0.06483 0.39747 0.78245
 C454 C 0.19144 0.70837 0.24269
 C455 C 0.17371 0.71275 0.20563
 C456 C 0.19248 0.74250 0.17827
 C457 C 0.23132 0.76831 0.18949
 C458 C 0.25027 0.76405 0.22742
 C459 C 0.22974 0.73409 0.25450
 O460 O 0.17028 0.67579 0.26339
 C461 C 0.13856 0.65913 0.23891
 C462 C 0.13909 0.68059 0.20320
 C463 C 0.11028 0.66659 0.17262
 C464 C 0.08005 0.62861 0.17901
 C465 C 0.07932 0.60539 0.21546
 C466 C 0.10872 0.62154 0.24593
 H467 H 0.17840 0.74471 0.14909
 H468 H 0.24732 0.79079 0.16858
 H469 H 0.24434 0.72931 0.28326
 H470 H 0.11169 0.68359 0.14462
 H471 H 0.05798 0.61667 0.15528
 H472 H 0.10957 0.60431 0.27393
 C473 C 0.77281 -0.16399 0.72574
 C474 C 0.73088 -0.18053 0.71986
 C475 C 0.70963 -0.20960 0.74612
 C476 C 0.73245 -0.22157 0.78014
 C477 C 0.77554 -0.20462 0.78697
 C478 C 0.79618 -0.17586 0.75927
 O479 O 0.78661 -0.13580 0.69759
 C480 C 0.75264 -0.13452 0.67351
 C481 C 0.71777 -0.16130 0.68584
 C482 C 0.67874 -0.16454 0.66541
 C483 C 0.67554 -0.13939 0.63059
 C484 C 0.71108 -0.11163 0.61699
 C485 C 0.75018 -0.10913 0.63900
 H486 H 0.67658 -0.22185 0.74096
 H487 H 0.71664 -0.24318 0.80167
 H488 H 0.82894 -0.16205 0.76441
 H489 H 0.65175 -0.18574 0.67583
 H490 H 0.64536 -0.14179 0.61420
 H491 H 0.77790 -0.08839 0.62947
 C492 C 0.28135 -0.14132 0.31390
 C493 C 0.32089 -0.13467 0.33249
 C494 C 0.35271 -0.15226 0.32071
 C495 C 0.34323 -0.17800 0.28875
 C496 C 0.30250 -0.18542 0.26903
 C497 C 0.27141 -0.16614 0.28191
 O498 O 0.25524 -0.12277 0.32993
 C499 C 0.27876 -0.10392 0.35932
 C500 C 0.31927 -0.10993 0.36219
 C501 C 0.34905 -0.09266 0.39105
 C502 C 0.33649 -0.06820 0.41786
 C503 C 0.29469 -0.06206 0.41562
 C504 C 0.26555 -0.08034 0.38582
 H505 H 0.38358 -0.14696 0.33591
 H506 H 0.36745 -0.19276 0.27989
 H507 H 0.24009 -0.17068 0.26770
 H508 H 0.38077 -0.09779 0.39285
 H509 H 0.35915 -0.05449 0.44052
 H510 H 0.23352 -0.07602 0.38307
 C511 C 0.71803 0.10638 0.31462
 C512 C 0.69459 0.06678 0.30327
 C513 C 0.68342 0.05823 0.26512
 C514 C 0.69740 0.09172 0.23762
 C515 C 0.72143 0.13312 0.24862
 C516 C 0.73105 0.14049 0.28790
 O517 O 0.72746 0.10707 0.35206
 C518 C 0.70949 0.06703 0.36472
 C519 C 0.68855 0.04119 0.33610
 C520 C 0.66779 -0.00208 0.34316
 C521 C 0.66890 -0.01941 0.38121
 C522 C 0.69131 0.00627 0.41100
 C523 C 0.71178 0.05016 0.40257
 H524 H 0.66551 0.02653 0.25681
 H525 H 0.69018 0.08512 0.20781
 H526 H 0.74902 0.17160 0.29748
 H527 H 0.65158 -0.02187 0.32022
 H528 H 0.65340 -0.05322 0.38739
 H529 H 0.72908 0.07047 0.42477
 C530 C 0.22631 0.17466 0.65049
 C531 C 0.18737 0.14966 0.64250
 C532 C 0.15294 0.15614 0.65876
 C533 C 0.15872 0.19023 0.68383
 C534 C 0.19839 0.21704 0.69222
 C535 C 0.23282 0.20859 0.67565
 O536 O 0.25451 0.16393 0.63102
 C537 C 0.23285 0.13152 0.61028
 C538 C 0.19164 0.12158 0.61629
 C539 C 0.16311 0.08953 0.59691
 C540 C 0.17762 0.06662 0.57033
 C541 C 0.22005 0.07600 0.56350
 C542 C 0.24802 0.10906 0.58396
 H543 H 0.12255 0.13618 0.65188
 H544 H 0.13220 0.19639 0.69631
 H545 H 0.26328 0.22897 0.68103
 H546 H 0.13075 0.08253 0.60195
 H547 H 0.15567 0.04154 0.55511
 H548 H 0.28053 0.11722 0.57946
   
