data_POSCAR
  _audit_creation_date              2014-09-24
  _audit_creation_method            'ToBaCCo'
  _symmetry_space_group_name_H-M    'P1'
  _symmetry_Int_Tables_number       1
  _symmetry_cell_setting            triclinic
  loop_
  _symmetry_equiv_pos_as_xyz
 x,y,z
_cell_length_a 65.0242
_cell_length_b 63.4701
_cell_length_c 64.8919
_cell_angle_alpha 90.196500
_cell_angle_beta 89.941200
_cell_angle_gamma 90.091800
loop_
  _atom_site_label
  _atom_site_type_symbol
  _atom_site_fract_x
  _atom_site_fract_y
  _atom_site_fract_z
C1 C 0.60910 0.62598 0.64140
 C2 C 0.59355 0.64127 0.64107
 C3 C 0.59328 0.65662 0.62561
 C4 C 0.60854 0.65682 0.61036
 C5 C 0.62421 0.64165 0.61045
 C6 C 0.62451 0.62614 0.62603
 C7 C 0.60951 0.61053 0.65680
 C8 C 0.62511 0.59531 0.65698
 C9 C 0.64042 0.59545 0.64175
 C10 C 0.64023 0.61079 0.62624
 C11 C 0.65546 0.61106 0.61092
 C12 C 0.65512 0.62644 0.59549
 C13 C 0.63956 0.64168 0.59525
 H14 H 0.58165 0.64126 0.65280
 H15 H 0.60818 0.66877 0.59846
 H16 H 0.59770 0.61035 0.66863
 H17 H 0.65245 0.58362 0.64197
 H18 H 0.66758 0.59933 0.61096
 H19 H 0.63944 0.65352 0.58324
 C20 C 0.89141 0.37557 0.13953
 C21 C 0.90679 0.36010 0.13906
 C22 C 0.90692 0.34477 0.12346
 C23 C 0.89166 0.34480 0.10821
 C24 C 0.87617 0.36016 0.10846
 C25 C 0.87602 0.37563 0.12418
 C26 C 0.89114 0.39098 0.15508
 C27 C 0.87570 0.40635 0.15541
 C28 C 0.86042 0.40645 0.14020
 C29 C 0.86046 0.39116 0.12454
 C30 C 0.84524 0.39110 0.10924
 C31 C 0.84543 0.37575 0.09367
 C32 C 0.86083 0.36034 0.09328
 H33 H 0.91865 0.35999 0.15082
 H34 H 0.89185 0.33288 0.09618
 H35 H 0.90289 0.39104 0.16692
 H36 H 0.84854 0.41842 0.14060
 H37 H 0.83325 0.40296 0.10940
 H38 H 0.86083 0.34852 0.08116
 C39 C 0.39134 0.12426 -0.14112
 C40 C 0.40679 0.13972 -0.14088
 C41 C 0.40700 0.15522 -0.12547
 C42 C 0.39178 0.15542 -0.11018
 C43 C 0.37622 0.14008 -0.11017
 C44 C 0.37597 0.12442 -0.12570
 C45 C 0.39097 0.10866 -0.15648
 C46 C 0.37546 0.09329 -0.15657
 C47 C 0.36020 0.09342 -0.14129
 C48 C 0.36034 0.10891 -0.12582
 C49 C 0.34515 0.10919 -0.11046
 C50 C 0.34543 0.12474 -0.09509
 C51 C 0.36090 0.14013 -0.09494
 H52 H 0.41864 0.13971 -0.15266
 H53 H 0.39208 0.16750 -0.09831
 H54 H 0.40274 0.10847 -0.16836
 H55 H 0.34823 0.08149 -0.14145
 H56 H 0.33310 0.09735 -0.11044
 H57 H 0.36097 0.15210 -0.08296
 C58 C 0.10895 0.87474 0.35779
 C59 C 0.09364 0.85914 0.35806
 C60 C 0.09359 0.84372 0.37348
 C61 C 0.10885 0.84378 0.38872
 C62 C 0.12427 0.85927 0.38866
 C63 C 0.12435 0.87483 0.37314
 C64 C 0.10915 0.89025 0.34243
 C65 C 0.12451 0.90575 0.34231
 C66 C 0.13979 0.90588 0.35751
 C67 C 0.13983 0.89049 0.37298
 C68 C 0.15505 0.89047 0.38828
 C69 C 0.15493 0.87502 0.40365
 C70 C 0.13961 0.85948 0.40385
 H71 H 0.08178 0.85900 0.34631
 H72 H 0.10873 0.83180 0.40061
 H73 H 0.09739 0.89029 0.33059
 H74 H 0.15161 0.91795 0.35727
 H75 H 0.16698 0.90243 0.38827
 H76 H 0.13966 0.84759 0.41582
 N77 N 0.10205 0.15951 0.11375
 N78 N 0.09413 0.15119 0.13052
 C79 C 0.07734 0.16228 0.13606
 C80 C 0.07476 0.17829 0.12201
 C81 C 0.09061 0.17617 0.10806
 H82 H 0.06770 0.15902 0.14927
 H83 H 0.09358 0.18600 0.09480
 Cu84 Cu 0.10650 0.12668 0.14345
 Cu85 Cu 0.12656 0.14815 0.10056
 Cu86 Cu 0.14847 0.10396 0.12279
 N87 N 0.11871 0.10161 0.15547
 N88 N 0.13513 0.09280 0.14731
 C89 C 0.14036 0.07582 0.15853
 C90 C 0.12647 0.07400 0.17447
 C91 C 0.11293 0.09050 0.17217
 H92 H 0.15327 0.06559 0.15535
 H93 H 0.09990 0.09408 0.18193
 N94 N 0.15973 0.11754 0.09795
 N95 N 0.15138 0.13438 0.08948
 C96 C 0.16255 0.13990 0.07284
 C97 C 0.17856 0.12587 0.07087
 C98 C 0.17642 0.11191 0.08692
 H99 H 0.15933 0.15312 0.06288
 H100 H 0.18631 0.09868 0.09027
 H101 H 0.12233 0.11754 0.11054
 H102 H 0.13915 0.13483 0.12668
 N103 N 0.39437 0.83928 0.61609
 N104 N 0.40044 0.84608 0.63427
 C105 C 0.41706 0.83502 0.64020
 C106 C 0.42149 0.82059 0.62491
 C107 C 0.40689 0.82363 0.60984
 H108 H 0.42528 0.83726 0.65453
 H109 H 0.40546 0.81507 0.59547
 Cu110 Cu 0.38608 0.86858 0.64860
 Cu111 Cu 0.37063 0.85114 0.60204
 Cu112 Cu 0.34868 0.89537 0.62425
 N113 N 0.37599 0.89536 0.65901
 N114 N 0.36136 0.90578 0.64948
 C115 C 0.35726 0.92360 0.66003
 C116 C 0.37004 0.92426 0.67695
 C117 C 0.38173 0.90620 0.67594
 H118 H 0.34585 0.93516 0.65576
 H119 H 0.39349 0.90131 0.68669
 N120 N 0.33811 0.88233 0.59877
 N121 N 0.34649 0.86545 0.59029
 C122 C 0.33577 0.86021 0.57326
 C123 C 0.32002 0.87449 0.57104
 C124 C 0.32184 0.88829 0.58736
 H125 H 0.33906 0.84695 0.56329
 H126 H 0.31195 0.90155 0.59071
 H127 H 0.37545 0.88065 0.61478
 H128 H 0.35550 0.86369 0.62732
 N129 N 0.90040 0.65629 0.38802
 N130 N 0.90989 0.64576 0.37335
 C131 C 0.92677 0.65653 0.36750
 C132 C 0.92780 0.67467 0.37918
 C133 C 0.91093 0.67412 0.39205
 H134 H 0.93747 0.65156 0.35567
 H135 H 0.90668 0.68578 0.40347
 Cu136 Cu 0.89949 0.61895 0.36329
 Cu137 Cu 0.87524 0.64600 0.40083
 Cu138 Cu 0.85300 0.60174 0.37886
 N139 N 0.88513 0.59646 0.34889
 N140 N 0.86698 0.58975 0.35501
 C141 C 0.86069 0.57411 0.34243
 C142 C 0.87572 0.57099 0.32773
 C143 C 0.89101 0.58535 0.33218
 H144 H 0.84632 0.56563 0.34386
 H145 H 0.90530 0.58754 0.32390
 N146 N 0.84133 0.61618 0.40311
 N147 N 0.84982 0.63308 0.41150
 C148 C 0.83846 0.63914 0.42785
 C149 C 0.82217 0.62539 0.42972
 C150 C 0.82435 0.61104 0.41391
 H151 H 0.84183 0.65244 0.43775
 H152 H 0.81437 0.59780 0.41064
 H153 H 0.87825 0.61428 0.39398
 H154 H 0.86576 0.63119 0.37402
 N155 N 0.60236 0.34253 -0.11527
 N156 N 0.59407 0.35135 -0.13158
 C157 C 0.57735 0.34018 -0.13725
 C158 C 0.57519 0.32362 -0.12374
 C159 C 0.59122 0.32548 -0.10999
 H160 H 0.56750 0.34376 -0.15018
 H161 H 0.59450 0.31522 -0.09714
 Cu162 Cu 0.60594 0.37655 -0.14381
 Cu163 Cu 0.62694 0.35379 -0.10210
 Cu164 Cu 0.64890 0.39820 -0.12405
 N165 N 0.61871 0.40119 -0.15621
 N166 N 0.63551 0.40958 -0.14840
 C167 C 0.64107 0.42632 -0.15983
 C168 C 0.62700 0.42841 -0.17555
 C169 C 0.61302 0.41232 -0.17290
 H170 H 0.65433 0.43621 -0.15695
 H171 H 0.59976 0.40901 -0.18243
 N172 N 0.66019 0.38440 -0.09938
 N173 N 0.65182 0.36748 -0.09102
 C174 C 0.66298 0.36185 -0.07444
 C175 C 0.67900 0.37590 -0.07239
 C176 C 0.67688 0.38998 -0.08833
 H177 H 0.65973 0.34857 -0.06456
 H178 H 0.68677 0.40328 -0.09159
 H179 H 0.62296 0.38468 -0.11123
 H180 H 0.63893 0.36755 -0.12835
 C181 C -0.07808 0.32980 0.12313
 C182 C -0.06479 0.31658 0.12288
 C183 C -0.04890 0.30083 0.12262
 C184 C -0.05306 0.28062 0.11498
 C185 C -0.03764 0.26529 0.11479
 C186 C -0.01783 0.26999 0.12224
 C187 C -0.01381 0.29036 0.12988
 C188 C -0.02926 0.30566 0.13007
 C189 C -0.00145 0.25371 0.12209
 C190 C 0.01886 0.25902 0.11667
 C191 C 0.03429 0.24369 0.11659
 C192 C 0.02963 0.22288 0.12194
 C193 C 0.00948 0.21743 0.12734
 C194 C -0.00597 0.23272 0.12741
 C195 C 0.04554 0.20714 0.12194
 C196 C 0.05887 0.19397 0.12196
 H197 H -0.06820 0.27673 0.10913
 H198 H -0.04114 0.24985 0.10857
 H199 H 0.00119 0.29438 0.13597
 H200 H -0.02590 0.32123 0.13608
 H201 H 0.02278 0.27496 0.11223
 H202 H 0.04983 0.24807 0.11233
 H203 H 0.00572 0.20138 0.13157
 H204 H -0.02139 0.22820 0.13191
 C205 C 0.57723 0.67221 0.62539
 C206 C 0.56375 0.68522 0.62525
 C207 C 0.54760 0.70070 0.62513
 C208 C 0.55073 0.72019 0.61559
 C209 C 0.53504 0.73523 0.61548
 C210 C 0.51599 0.73095 0.62491
 C211 C 0.51302 0.71131 0.63446
 C212 C 0.52873 0.69630 0.63457
 C213 C 0.49930 0.74690 0.62480
 C214 C 0.47875 0.74079 0.62152
 C215 C 0.46303 0.75579 0.62148
 C216 C 0.46763 0.77709 0.62473
 C217 C 0.48802 0.78335 0.62798
 C218 C 0.50377 0.76837 0.62800
 C219 C 0.45142 0.79250 0.62477
 C220 C 0.43779 0.80535 0.62483
 H221 H 0.56527 0.72373 0.60819
 H222 H 0.53771 0.75009 0.60777
 H223 H 0.49864 0.70765 0.64209
 H224 H 0.52617 0.68129 0.64205
 H225 H 0.47485 0.72443 0.61874
 H226 H 0.44731 0.75079 0.61890
 H227 H 0.49174 0.79979 0.63056
 H228 H 0.51939 0.77354 0.63083
 C229 C 1.07867 0.82862 0.37367
 C230 C 1.06549 0.81524 0.37389
 C231 C 1.04979 0.79924 0.37422
 C232 C 1.05419 0.77924 0.38205
 C233 C 1.03894 0.76369 0.38246
 C234 C 1.01905 0.76797 0.37504
 C235 C 1.01479 0.78814 0.36718
 C236 C 1.03008 0.80365 0.36677
 C237 C 1.00282 0.75149 0.37557
 C238 C 0.98251 0.75665 0.38113
 C239 C 0.96727 0.74109 0.38176
 C240 C 0.97211 0.72020 0.37681
 C241 C 0.99224 0.71491 0.37120
 C242 C 1.00750 0.73044 0.37059
 C243 C 0.95645 0.70418 0.37759
 C244 C 0.94336 0.69073 0.37829
 H245 H 1.06938 0.77567 0.38791
 H246 H 1.04262 0.74842 0.38885
 H247 H 0.99972 0.79183 0.36112
 H248 H 1.02652 0.81907 0.36063
 H249 H 0.97847 0.77265 0.38531
 H250 H 0.95175 0.74535 0.38618
 H251 H 0.99613 0.69880 0.36730
 H252 H 1.02292 0.72602 0.36598
 C253 C 0.42289 0.17103 -0.12535
 C254 C 0.43620 0.18427 -0.12523
 C255 C 0.45207 0.20010 -0.12507
 C256 C 0.46668 0.20072 -0.14090
 C257 C 0.48209 0.21611 -0.14077
 C258 C 0.48309 0.23109 -0.12476
 C259 C 0.46833 0.23031 -0.10890
 C260 C 0.45292 0.21492 -0.10908
 C261 C 0.49945 0.24745 -0.12459
 C262 C 0.50926 0.25315 -0.10607
 C263 C 0.52464 0.26857 -0.10593
 C264 C 0.53042 0.27849 -0.12427
 C265 C 0.52077 0.27294 -0.14277
 C266 C 0.50539 0.25751 -0.14295
 C267 C 0.54622 0.29439 -0.12409
 C268 C 0.55945 0.30772 -0.12394
 H269 H 0.46619 0.18928 -0.15333
 H270 H 0.49339 0.21612 -0.15304
 H271 H 0.46852 0.24179 -0.09652
 H272 H 0.44165 0.21462 -0.09678
 H273 H 0.50522 0.24550 -0.09173
 H274 H 0.53206 0.27271 -0.09152
 H275 H 0.52508 0.28057 -0.15705
 H276 H 0.49795 0.25367 -0.15741
 C277 C 0.12460 -0.07841 0.32650
 C278 C 0.12469 -0.06513 0.31326
 C279 C 0.12481 -0.04928 0.29746
 C280 C 0.11711 -0.05393 0.27783
 C281 C 0.11725 -0.03855 0.26246
 C282 C 0.12510 -0.01829 0.26653
 C283 C 0.13280 -0.01377 0.28632
 C284 C 0.13265 -0.02918 0.30167
 C285 C 0.12529 -0.00194 0.25020
 C286 C 0.12028 0.01910 0.25491
 C287 C 0.12048 0.03447 0.23953
 C288 C 0.12570 0.02905 0.21927
 C289 C 0.13070 0.00817 0.21443
 C290 C 0.13049 -0.00723 0.22977
 C291 C 0.12595 0.04490 0.20347
 C292 C 0.12618 0.05818 0.19023
 H293 H 0.11095 -0.06943 0.27443
 H294 H 0.11097 -0.04243 0.24746
 H295 H 0.13919 0.00158 0.28986
 H296 H 0.13871 -0.02543 0.31679
 H297 H 0.11595 0.02361 0.27042
 H298 H 0.11654 0.05058 0.24344
 H299 H 0.13482 0.00382 0.19880
 H300 H 0.13467 -0.02322 0.22572
 C301 C 0.62537 0.58035 -0.32803
 C302 C 0.62557 0.56711 -0.31475
 C303 C 0.62578 0.55131 -0.29890
 C304 C 0.64114 0.53589 -0.29876
 C305 C 0.64134 0.52053 -0.28337
 C306 C 0.62614 0.52039 -0.26790
 C307 C 0.61077 0.53597 -0.26819
 C308 C 0.61061 0.55133 -0.28359
 C309 C 0.62632 0.50407 -0.25156
 C310 C 0.60785 0.49475 -0.24483
 C311 C 0.60803 0.47939 -0.22944
 C312 C 0.62664 0.47316 -0.22055
 C313 C 0.64509 0.48233 -0.22712
 C314 C 0.64495 0.49767 -0.24253
 C315 C 0.62680 0.45737 -0.20468
 C316 C 0.62690 0.44416 -0.19139
 H317 H 0.65292 0.53570 -0.31058
 H318 H 0.65321 0.50859 -0.28372
 H319 H 0.59903 0.53646 -0.25636
 H320 H 0.59869 0.56323 -0.28352
 H321 H 0.59330 0.49913 -0.25167
 H322 H 0.59367 0.47235 -0.22450
 H323 H 0.65958 0.47766 -0.22030
 H324 H 0.65939 0.50474 -0.24717
 C325 C 0.37517 1.07820 0.82845
 C326 C 0.37487 1.06483 0.81521
 C327 C 0.37443 1.04886 0.79943
 C328 C 0.35796 1.03467 0.79840
 C329 C 0.35747 1.01916 0.78306
 C330 C 0.37349 1.01763 0.76853
 C331 C 0.38999 1.03196 0.76971
 C332 C 0.39043 1.04747 0.78506
 C333 C 0.37297 1.00116 0.75222
 C334 C 0.39098 0.99029 0.74661
 C335 C 0.39044 0.97473 0.73131
 C336 C 0.37193 0.96986 0.72140
 C337 C 0.35394 0.98060 0.72683
 C338 C 0.35443 0.99615 0.74214
 C339 C 0.37135 0.95379 0.70570
 C340 C 0.37079 0.94032 0.69257
 H341 H 0.34552 1.03557 0.80949
 H342 H 0.34471 1.00820 0.78273
 H343 H 0.40241 1.03136 0.75860
 H344 H 0.40323 1.05841 0.78568
 H345 H 0.40543 0.99360 0.75426
 H346 H 0.40445 0.96647 0.72726
 H347 H 0.33953 0.97699 0.71922
 H348 H 0.34037 1.00443 0.74591
 C349 C 0.87556 0.42207 0.17144
 C350 C 0.87549 0.43520 0.18491
 C351 C 0.87548 0.45083 0.20102
 C352 C 0.85936 0.46534 0.20250
 C353 C 0.85933 0.48049 0.21820
 C354 C 0.87546 0.48132 0.23263
 C355 C 0.89160 0.46666 0.23099
 C356 C 0.89159 0.45152 0.21529
 C357 C 0.87543 0.49736 0.24935
 C358 C 0.89376 0.50763 0.25510
 C359 C 0.89375 0.52264 0.27091
 C360 C 0.87544 0.52759 0.28119
 C361 C 0.85713 0.51751 0.27557
 C362 C 0.85710 0.50250 0.25975
 C363 C 0.87549 0.54294 0.29757
 C364 C 0.87557 0.55576 0.31132
 H365 H 0.84684 0.46497 0.19150
 H366 H 0.84683 0.49171 0.21889
 H367 H 0.90408 0.46671 0.24202
 H368 H 0.90411 0.44031 0.21433
 H369 H 0.90806 0.50423 0.24721
 H370 H 0.90800 0.53040 0.27511
 H371 H 0.84288 0.52118 0.28347
 H372 H 0.84280 0.49468 0.25586
 C373 C 0.32976 0.12490 -0.07941
 C374 C 0.31663 0.12502 -0.06628
 C375 C 0.30093 0.12514 -0.05063
 C376 C 0.29127 0.10632 -0.04494
 C377 C 0.27601 0.10641 -0.02975
 C378 C 0.27020 0.12536 -0.02005
 C379 C 0.28001 0.14420 -0.02589
 C380 C 0.29528 0.14406 -0.04108
 C381 C 0.25397 0.12547 -0.00392
 C382 C 0.23925 0.14169 -0.00321
 C383 C 0.22396 0.14176 0.01196
 C384 C 0.22319 0.12566 0.02662
 C385 C 0.23776 0.10947 0.02606
 C386 C 0.25305 0.10936 0.01090
 C387 C 0.20744 0.12575 0.04222
 C388 C 0.19426 0.12581 0.05529
 H389 H 0.29548 0.09159 -0.05228
 H390 H 0.26855 0.09170 -0.02578
 H391 H 0.27608 0.15899 -0.01853
 H392 H 0.30271 0.15871 -0.04534
 H393 H 0.23938 0.15416 -0.01456
 H394 H 0.21271 0.15434 0.01221
 H395 H 0.23734 0.09696 0.03737
 H396 H 0.26432 0.09681 0.01093
 C397 C 0.67081 0.62657 0.57983
 C398 C 0.68396 0.62664 0.56672
 C399 C 0.69967 0.62667 0.55109
 C400 C 0.69526 0.63407 0.53130
 C401 C 0.71051 0.63405 0.51609
 C402 C 0.73041 0.62663 0.52051
 C403 C 0.73468 0.61925 0.54047
 C404 C 0.71940 0.61927 0.55564
 C405 C 0.74662 0.62656 0.50436
 C406 C 0.76696 0.63231 0.50921
 C407 C 0.78222 0.63216 0.49402
 C408 C 0.77738 0.62624 0.47381
 C409 C 0.75720 0.62052 0.46881
 C410 C 0.74190 0.62068 0.48397
 C411 C 0.79314 0.62598 0.45822
 C412 C 0.80637 0.62573 0.44519
 H413 H 0.68005 0.63989 0.52762
 H414 H 0.70682 0.64008 0.50095
 H415 H 0.74976 0.61318 0.54427
 H416 H 0.72296 0.61344 0.57090
 H417 H 0.77102 0.63718 0.52469
 H418 H 0.79779 0.63667 0.49804
 H419 H 0.75330 0.61585 0.45322
 H420 H 0.72646 0.61590 0.47981
 C421 C 0.82975 0.37580 0.07803
 C422 C 0.81663 0.37583 0.06493
 C423 C 0.80097 0.37585 0.04928
 C424 C 0.78582 0.39149 0.04929
 C425 C 0.77059 0.39152 0.03409
 C426 C 0.77032 0.37588 0.01867
 C427 C 0.78563 0.36023 0.01880
 C428 C 0.80084 0.36024 0.03401
 C429 C 0.75415 0.37589 0.00252
 C430 C 0.74505 0.35688 -0.00405
 C431 C 0.72982 0.35691 -0.01924
 C432 C 0.72349 0.37590 -0.02808
 C433 C 0.73243 0.39488 -0.02167
 C434 C 0.74766 0.39490 -0.00647
 C435 C 0.70781 0.37590 -0.04372
 C436 C 0.69467 0.37590 -0.05681
 H437 H 0.78574 0.40362 0.06108
 H438 H 0.75887 0.40361 0.03457
 H439 H 0.78600 0.34814 0.00699
 H440 H 0.81254 0.34810 0.03382
 H441 H 0.74952 0.34203 0.00276
 H442 H 0.72295 0.34213 -0.02405
 H443 H 0.72768 0.40966 -0.02846
 H444 H 0.75454 0.40975 -0.00194
 C445 C 0.17059 0.87511 0.41931
 C446 C 0.18367 0.87514 0.43246
 C447 C 0.19926 0.87512 0.44818
 C448 C 0.19908 0.85963 0.46347
 C449 C 0.21418 0.85960 0.47879
 C450 C 0.22969 0.87510 0.47901
 C451 C 0.22974 0.89060 0.46355
 C452 C 0.21461 0.89060 0.44825
 C453 C 0.24572 0.87509 0.49529
 C454 C 0.26636 0.87960 0.49041
 C455 C 0.28144 0.87953 0.50575
 C456 C 0.27611 0.87497 0.52616
 C457 C 0.25564 0.87050 0.53118
 C458 C 0.24054 0.87054 0.51587
 C459 C 0.29164 0.87485 0.54194
 C460 C 0.30461 0.87471 0.55520
 H461 H 0.18730 0.84754 0.46353
 H462 H 0.21388 0.84730 0.49031
 H463 H 0.24131 0.90289 0.46345
 H464 H 0.21485 0.90270 0.43652
 H465 H 0.27088 0.88290 0.47469
 H466 H 0.29726 0.88296 0.50169
 H467 H 0.25134 0.86701 0.54694
 H468 H 0.22476 0.86729 0.52016
   
