data_POSCAR
  _audit_creation_date              2014-09-24
  _audit_creation_method            'ToBaCCo'
  _symmetry_space_group_name_H-M    'P1'
  _symmetry_Int_Tables_number       1
  _symmetry_cell_setting            triclinic
  loop_
  _symmetry_equiv_pos_as_xyz
 x,y,z
_cell_length_a 29.6158
_cell_length_b 29.6600
_cell_length_c 29.6768
_cell_angle_alpha 89.946500
_cell_angle_beta 90.008200
_cell_angle_gamma 90.023600
loop_
  _atom_site_label
  _atom_site_type_symbol
  _atom_site_fract_x
  _atom_site_fract_y
  _atom_site_fract_z
C1 C 0.28189 0.25041 0.21781
 N2 N 0.24962 0.28286 0.21790
 C3 C 0.21717 0.28279 0.25017
 N4 N 0.21699 0.25026 0.28236
 C5 C 0.24926 0.21780 0.28226
 N6 N 0.28171 0.21788 0.24999
 C7 C 0.71697 -0.25067 0.21670
 N8 N 0.74952 -0.28287 0.21657
 C9 C 0.78200 -0.28281 0.24884
 N10 N 0.78193 -0.25055 0.28122
 C11 C 0.74940 -0.21835 0.28136
 N12 N 0.71692 -0.21841 0.24910
 C13 C 0.71862 0.25043 0.78159
 N14 N 0.75078 0.28302 0.78140
 C15 C 0.78315 0.28315 0.74905
 N16 N 0.78337 0.25066 0.71688
 C17 C 0.75120 0.21806 0.71708
 N18 N 0.71883 0.21795 0.74943
 C19 C 0.28357 -0.25035 0.78408
 N20 N 0.28382 -0.21817 0.75154
 C21 C 0.25140 -0.21809 0.71922
 N22 N 0.21873 -0.25017 0.71945
 C23 C 0.21846 -0.28234 0.75198
 N24 N 0.25088 -0.28244 0.78430
 C25 C 0.71682 -0.25058 0.78387
 N26 N 0.74925 -0.28292 0.78393
 C27 C 0.78159 -0.28302 0.75153
 N28 N 0.78149 -0.25077 0.71905
 C29 C 0.74909 -0.21843 0.71896
 N30 N 0.71676 -0.21834 0.75137
 C31 C 0.28181 0.24998 0.78187
 N32 N 0.28180 0.21761 0.74958
 C33 C 0.24941 0.21759 0.71723
 N34 N 0.21701 0.24994 0.71718
 C35 C 0.21701 0.28232 0.74947
 N36 N 0.24942 0.28232 0.78181
 C37 C 0.28284 -0.25117 0.21632
 N38 N 0.25014 -0.28326 0.21613
 C39 C 0.21766 -0.28317 0.24840
 N40 N 0.21789 -0.25097 0.28086
 C41 C 0.25056 -0.21887 0.28108
 N42 N 0.28303 -0.21898 0.24881
 C43 C 0.71922 0.25120 0.21809
 N44 N 0.75139 0.28380 0.21826
 C45 C 0.78378 0.28389 0.25062
 N46 N 0.78400 0.25135 0.28282
 C47 C 0.75182 0.21874 0.28265
 N48 N 0.71945 0.21868 0.25029
 O49 O 0.21257 0.04242 0.45586
 O50 O 0.21346 -0.04528 0.54377
 O51 O 0.21273 0.04251 0.54357
 O52 O 0.21321 -0.04540 0.45595
 O53 O 0.28788 -0.04482 0.45579
 O54 O 0.28741 0.04310 0.54342
 O55 O 0.28814 -0.04469 0.54361
 O56 O 0.28725 0.04300 0.45571
 Cu57 Cu 0.20546 -0.00152 0.49980
 Cu58 Cu 0.29520 -0.00082 0.49961
 C59 C 0.24977 0.05755 0.44099
 C60 C 0.25094 -0.05974 0.55858
 C61 C 0.24999 0.05766 0.55827
 C62 C 0.25062 -0.05993 0.44105
 O63 O 0.78824 0.04279 0.54378
 O64 O 0.78754 -0.04493 0.45604
 O65 O 0.78841 0.04290 0.45607
 O66 O 0.78743 -0.04502 0.54386
 O67 O 0.71276 -0.04436 0.54374
 O68 O 0.71373 0.04355 0.45594
 O69 O 0.71287 -0.04428 0.45592
 O70 O 0.71357 0.04344 0.54365
 Cu71 Cu 0.79544 -0.00116 0.49994
 Cu72 Cu 0.70570 -0.00037 0.49979
 C73 C 0.75102 0.05795 0.55849
 C74 C 0.75009 -0.05939 0.44115
 C75 C 0.75123 0.05811 0.44123
 C76 C 0.74994 -0.05949 0.55866
 O77 O 0.45663 0.21319 0.04398
 O78 O 0.54445 0.21307 -0.04382
 O79 O 0.54457 0.21330 0.04394
 O80 O 0.45652 0.21301 -0.04377
 O81 O 0.45648 0.28758 -0.04400
 O82 O 0.54453 0.28787 0.04370
 O83 O 0.54441 0.28764 -0.04406
 O84 O 0.45658 0.28776 0.04374
 Cu85 Cu 0.50055 0.20562 0.00011
 Cu86 Cu 0.50050 0.29524 -0.00018
 C87 C 0.44177 0.25049 0.05866
 C88 C 0.55924 0.25034 -0.05877
 C89 C 0.55941 0.25063 0.05862
 C90 C 0.44164 0.25025 -0.05869
 O91 O 0.54409 0.78649 0.04441
 O92 O 0.45624 0.78655 -0.04342
 O93 O 0.45612 0.78633 0.04434
 O94 O 0.54418 0.78662 -0.04338
 O95 O 0.54424 0.71206 -0.04344
 O96 O 0.45618 0.71177 0.04426
 O97 O 0.45629 0.71199 -0.04350
 O98 O 0.54416 0.71192 0.04434
 Cu99 Cu 0.50016 0.79402 0.00050
 Cu100 Cu 0.50023 0.70442 0.00041
 C101 C 0.55896 0.74920 0.05920
 C102 C 0.44144 0.74928 -0.05829
 C103 C 0.44127 0.74900 0.05909
 C104 C 0.55906 0.74939 -0.05823
 O105 O 0.04327 0.45746 0.21243
 O106 O -0.04462 0.54525 0.21190
 O107 O 0.04340 0.54527 0.21173
 O108 O -0.04461 0.45742 0.21261
 O109 O -0.04446 0.45792 0.28713
 O110 O 0.04355 0.54577 0.28625
 O111 O -0.04447 0.54575 0.28642
 O112 O 0.04342 0.45797 0.28696
 Cu113 Cu -0.00066 0.50133 0.20465
 Cu114 Cu -0.00048 0.50194 0.29421
 C115 C 0.05815 0.44287 0.24978
 C116 C -0.05941 0.56028 0.24908
 C117 C 0.05838 0.56030 0.24885
 C118 C -0.05934 0.44279 0.25001
 O119 O 0.04253 0.54422 0.78835
 O120 O -0.04539 0.45642 0.78725
 O121 O 0.04250 0.45645 0.78746
 O122 O -0.04547 0.54425 0.78813
 O123 O -0.04530 0.54505 0.71362
 O124 O 0.04266 0.45724 0.71294
 O125 O -0.04523 0.45721 0.71273
 O126 O 0.04269 0.54502 0.71383
 Cu127 Cu -0.00149 0.50028 0.79532
 Cu128 Cu -0.00129 0.50124 0.70576
 C129 C 0.05750 0.55939 0.75127
 C130 C -0.06010 0.44195 0.74981
 C131 C 0.05741 0.44201 0.75009
 C132 C -0.06025 0.55946 0.75099
 C133 C 0.31619 0.25047 0.18370
 C134 C 0.34501 0.25051 0.15504
 C135 C 0.37873 0.25053 0.12148
 C136 C 0.40753 0.25052 0.09281
 C137 C 0.68450 0.74928 0.18440
 C138 C 0.65569 0.74924 0.15571
 C139 C 0.62197 0.74920 0.12210
 C140 C 0.59319 0.74919 0.09339
 C141 C 0.68441 0.25032 -0.18420
 C142 C 0.65570 0.25028 -0.15545
 C143 C 0.62210 0.25027 -0.12176
 C144 C 0.59340 0.25029 -0.09299
 C145 C 0.31601 0.74955 -0.18358
 C146 C 0.34479 0.74946 -0.15487
 C147 C 0.37847 0.74937 -0.12123
 C148 C 0.40722 0.74932 -0.09249
 C149 C 0.18306 0.31711 0.25024
 C150 C 0.15442 0.34596 0.25021
 C151 C 0.12091 0.37975 0.25011
 C152 C 0.09227 0.40859 0.24998
 C153 C 0.18393 0.68373 0.75213
 C154 C 0.15490 0.65525 0.75210
 C155 C 0.12092 0.62191 0.75192
 C156 C 0.09192 0.59340 0.75167
 C157 C -0.18544 0.68497 0.24874
 C158 C -0.15652 0.65640 0.24872
 C159 C -0.12266 0.62294 0.24878
 C160 C -0.09376 0.59435 0.24889
 C161 C -0.18467 0.31576 0.74894
 C162 C -0.15613 0.34473 0.74897
 C163 C -0.12272 0.37865 0.74916
 C164 C -0.09416 0.40758 0.74941
 C165 C 0.24914 0.18342 0.31629
 C166 C 0.24915 0.15453 0.34485
 C167 C 0.24927 0.12070 0.37831
 C168 C 0.24946 0.09184 0.40690
 C169 C 0.75138 0.18372 0.68307
 C170 C 0.75143 0.15486 0.65452
 C171 C 0.75138 0.12106 0.62110
 C172 C 0.75125 0.09222 0.59253
 C173 C 0.25160 -0.18409 0.68481
 C174 C 0.25161 -0.15559 0.65585
 C175 C 0.25148 -0.12223 0.62193
 C176 C 0.25127 -0.09372 0.59297
 C177 C 0.74938 -0.18424 0.31561
 C178 C 0.74946 -0.15561 0.34439
 C179 C 0.74963 -0.12210 0.37811
 C180 C 0.74983 -0.09347 0.40691
 C181 C 0.68445 0.74949 -0.18370
 C182 C 0.65571 0.74952 -0.15491
 C183 C 0.62206 0.74952 -0.12121
 C184 C 0.59331 0.74948 -0.09244
 C185 C 0.31607 0.24998 -0.18391
 C186 C 0.34485 0.25001 -0.15519
 C187 C 0.37857 0.25007 -0.12156
 C188 C 0.40736 0.25014 -0.09285
 C189 C 0.31535 0.74876 0.18402
 C190 C 0.34422 0.74876 0.15538
 C191 C 0.37804 0.74881 0.12184
 C192 C 0.40692 0.74889 0.09320
 C193 C 0.68497 0.25110 0.18386
 C194 C 0.65620 0.25100 0.15513
 C195 C 0.62250 0.25086 0.12149
 C196 C 0.59370 0.25074 0.09278
 C197 C -0.18597 0.68461 0.75156
 C198 C -0.15715 0.65590 0.75152
 C199 C -0.12339 0.62230 0.75140
 C200 C -0.09455 0.59362 0.75123
 C201 C -0.18402 0.31652 0.25072
 C202 C -0.15546 0.34551 0.25070
 C203 C -0.12202 0.37945 0.25054
 C204 C -0.09343 0.40840 0.25033
 C205 C 0.18275 0.31654 0.74945
 C206 C 0.15401 0.34530 0.74952
 C207 C 0.12035 0.37900 0.74967
 C208 C 0.09162 0.40777 0.74984
 C209 C 0.18495 0.68470 0.24825
 C210 C 0.15589 0.65621 0.24824
 C211 C 0.12186 0.62284 0.24835
 C212 C 0.09284 0.59432 0.24854
 C213 C 0.74906 -0.18433 0.68460
 C214 C 0.74914 -0.15572 0.65571
 C215 C 0.74934 -0.12222 0.62187
 C216 C 0.74958 -0.09360 0.59299
 C217 C 0.25074 -0.18481 0.31541
 C218 C 0.25082 -0.15621 0.34425
 C219 C 0.25083 -0.12270 0.37802
 C220 C 0.25077 -0.09406 0.40682
 C221 C 0.75199 0.18432 0.31669
 C222 C 0.75197 0.15537 0.34524
 C223 C 0.75182 0.12145 0.37865
 C224 C 0.75159 0.09251 0.40720
 C225 C 0.24942 0.18333 0.68309
 C226 C 0.24951 0.15453 0.65446
 C227 C 0.24965 0.12078 0.62095
 C228 C 0.24980 0.09195 0.59234
   
