data_POSCAR
  _audit_creation_date              2014-09-24
  _audit_creation_method            'ToBaCCo'
  _symmetry_space_group_name_H-M    'P1'
  _symmetry_Int_Tables_number       1
  _symmetry_cell_setting            triclinic
  loop_
  _symmetry_equiv_pos_as_xyz
 x,y,z
_cell_length_a 51.3727
_cell_length_b 50.2162
_cell_length_c 50.8621
_cell_angle_alpha 92.138000
_cell_angle_beta 88.129700
_cell_angle_gamma 92.970200
loop_
  _atom_site_label
  _atom_site_type_symbol
  _atom_site_fract_x
  _atom_site_fract_y
  _atom_site_fract_z
C1 C 0.59512 0.61452 0.63630
 C2 C 0.57510 0.63229 0.63442
 C3 C 0.57661 0.65179 0.61517
 C4 C 0.59803 0.65287 0.59732
 C5 C 0.61822 0.63533 0.59900
 C6 C 0.61683 0.61616 0.61866
 C7 C 0.59380 0.59525 0.65564
 C8 C 0.61400 0.57761 0.65798
 C9 C 0.63568 0.57953 0.64017
 C10 C 0.63721 0.59868 0.62072
 C11 C 0.65892 0.60067 0.60331
 C12 C 0.66036 0.61953 0.58359
 C13 C 0.63992 0.63686 0.58154
 H14 H 0.55829 0.63067 0.64778
 H15 H 0.59915 0.66773 0.58232
 H16 H 0.57698 0.59414 0.66909
 H17 H 0.65148 0.56625 0.64084
 H18 H 0.67474 0.58740 0.60499
 H19 H 0.64114 0.65199 0.56685
 C20 C 0.89707 0.36917 0.13836
 C21 C 0.91793 0.35215 0.13687
 C22 C 0.91898 0.33130 0.11763
 C23 C 0.89905 0.32837 0.09907
 C24 C 0.87823 0.34543 0.10017
 C25 C 0.87712 0.36577 0.11997
 C26 C 0.89566 0.38927 0.15824
 C27 C 0.87449 0.40603 0.15995
 C28 C 0.85468 0.40242 0.14159
 C29 C 0.85593 0.38258 0.12152
 C30 C 0.83621 0.37921 0.10308
 C31 C 0.83752 0.35940 0.08282
 C32 C 0.85842 0.34240 0.08175
 H33 H 0.93314 0.35483 0.15119
 H34 H 0.89964 0.31331 0.08335
 H35 H 0.91071 0.39123 0.17269
 H36 H 0.83826 0.41519 0.14291
 H37 H 0.81974 0.39183 0.10489
 H38 H 0.85933 0.32688 0.06639
 C39 C 0.38017 0.14587 -0.15122
 C40 C 0.39992 0.16620 -0.15251
 C41 C 0.40013 0.18794 -0.13424
 C42 C 0.38011 0.18942 -0.11489
 C43 C 0.36034 0.16916 -0.11324
 C44 C 0.36037 0.14727 -0.13146
 C45 C 0.37989 0.12428 -0.16955
 C46 C 0.36006 0.10373 -0.16837
 C47 C 0.34035 0.10550 -0.14855
 C48 C 0.34043 0.12696 -0.13007
 C49 C 0.32083 0.12844 -0.11026
 C50 C 0.32097 0.15000 -0.09173
 C51 C 0.34058 0.17042 -0.09363
 H52 H 0.41482 0.16527 -0.16804
 H53 H 0.38011 0.20626 -0.10090
 H54 H 0.39501 0.12418 -0.18480
 H55 H 0.32489 0.08999 -0.14735
 H56 H 0.30533 0.11301 -0.10964
 H57 H 0.34061 0.18721 -0.07957
 C58 C 0.11721 0.88013 0.36855
 C59 C 0.09836 0.85883 0.36848
 C60 C 0.09843 0.83893 0.38727
 C61 C 0.11799 0.84064 0.40598
 C62 C 0.13671 0.86200 0.40665
 C63 C 0.13651 0.88200 0.38783
 C64 C 0.11674 0.89917 0.34921
 C65 C 0.13649 0.92233 0.34772
 C66 C 0.15574 0.92291 0.36916
 C67 C 0.15540 0.90346 0.38821
 C68 C 0.17425 0.90563 0.40757
 C69 C 0.17587 0.88557 0.42836
 C70 C 0.15534 0.86317 0.42614
 H71 H 0.08420 0.85768 0.35317
 H72 H 0.11845 0.82536 0.42049
 H73 H 0.10196 0.89716 0.33446
 H74 H 0.17054 0.93911 0.36957
 H75 H 0.18847 0.92236 0.40773
 H76 H 0.15498 0.84768 0.44043
 N77 N 0.08202 0.15693 0.11321
 N78 N 0.06778 0.14259 0.12995
 C79 C 0.04504 0.15423 0.13500
 C80 C 0.04513 0.17714 0.12082
 C81 C 0.06889 0.17830 0.10716
 H82 H 0.02951 0.14656 0.14792
 H83 H 0.07579 0.19308 0.09331
 Cu84 Cu 0.07991 0.10996 0.14353
 Cu85 Cu 0.11555 0.14563 0.09914
 Cu86 Cu 0.14149 0.09287 0.12928
 N87 N 0.09684 0.08421 0.16386
 N88 N 0.12100 0.07786 0.15855
 C89 C 0.12770 0.05979 0.17569
 C90 C 0.10654 0.05460 0.19263
 C91 C 0.08731 0.07037 0.18451
 H92 H 0.14642 0.05088 0.17557
 H93 H 0.06785 0.07169 0.19307
 N94 N 0.15897 0.11079 0.09924
 N95 N 0.14908 0.13096 0.08774
 C96 C 0.16465 0.13787 0.06702
 C97 C 0.18531 0.12120 0.06546
 C98 C 0.18113 0.10438 0.08618
 H99 H 0.16075 0.15330 0.05365
 H100 H 0.19298 0.08811 0.09083
 H101 H 0.11153 0.10542 0.10713
 H102 H 0.12354 0.12871 0.13429
 N103 N 0.41187 0.82632 0.62970
 N104 N 0.42323 0.84018 0.64895
 C105 C 0.44335 0.82676 0.65707
 C106 C 0.44470 0.80336 0.64207
 C107 C 0.42440 0.80368 0.62486
 H108 H 0.45609 0.83338 0.67278
 H109 H 0.41898 0.78856 0.61009
 Cu110 Cu 0.41050 0.87424 0.66179
 Cu111 Cu 0.38156 0.83850 0.61257
 Cu112 Cu 0.35743 0.89842 0.63581
 N113 N 0.39608 0.90734 0.67513
 N114 N 0.37523 0.91660 0.66511
 C115 C 0.36938 0.93946 0.67815
 C116 C 0.38760 0.94475 0.69735
 C117 C 0.40424 0.92405 0.69484
 H118 H 0.35322 0.95137 0.67382
 H119 H 0.42099 0.92141 0.70663
 N120 N 0.34211 0.87709 0.60633
 N121 N 0.35111 0.85410 0.59773
 C122 C 0.33640 0.84422 0.57784
 C123 C 0.31742 0.86188 0.57360
 C124 C 0.32154 0.88252 0.59201
 H125 H 0.33929 0.82559 0.56704
 H126 H 0.31026 0.90002 0.59493
 H127 H 0.38911 0.87886 0.62018
 H128 H 0.36783 0.86064 0.64478
 N129 N 0.90729 0.67215 0.39325
 N130 N 0.92341 0.65913 0.37749
 C131 C 0.94488 0.67491 0.37257
 C132 C 0.94196 0.69912 0.38595
 C133 C 0.91789 0.69671 0.39878
 H134 H 0.96102 0.66937 0.35968
 H135 H 0.90873 0.71181 0.41108
 Cu136 Cu 0.91447 0.62331 0.36378
 Cu137 Cu 0.87378 0.65626 0.40516
 Cu138 Cu 0.85358 0.59707 0.37338
 N139 N 0.90109 0.59308 0.34238
 N140 N 0.87719 0.58298 0.34610
 C141 C 0.87239 0.56241 0.32895
 C142 C 0.89563 0.55813 0.31166
 C143 C 0.91328 0.57970 0.32254
 H144 H 0.85409 0.55087 0.32811
 H145 H 0.93306 0.58435 0.31565
 N146 N 0.83264 0.61443 0.40164
 N147 N 0.84059 0.63675 0.41413
 C148 C 0.82262 0.64307 0.43289
 C149 C 0.80238 0.62384 0.43203
 C150 C 0.80928 0.60610 0.41196
 H151 H 0.82411 0.66043 0.44608
 H152 H 0.79819 0.58823 0.40567
 H153 H 0.88058 0.61629 0.39781
 H154 H 0.86951 0.63538 0.36961
 N155 N 0.60467 0.33593 -0.11863
 N156 N 0.59287 0.34859 -0.13663
 C157 C 0.57167 0.33379 -0.14430
 C158 C 0.57016 0.31062 -0.13031
 C159 C 0.59142 0.31260 -0.11430
 H160 H 0.55852 0.33943 -0.15905
 H161 H 0.59667 0.29820 -0.10035
 Cu162 Cu 0.60612 0.38316 -0.14855
 Cu163 Cu 0.63586 0.35098 -0.10172
 Cu164 Cu 0.66411 0.40855 -0.12775
 N165 N 0.62474 0.41256 -0.16597
 N166 N 0.64737 0.42239 -0.15775
 C167 C 0.65601 0.44223 -0.17333
 C168 C 0.63787 0.44500 -0.19232
 C169 C 0.61820 0.42583 -0.18714
 H170 H 0.67426 0.45372 -0.17119
 H171 H 0.60066 0.42157 -0.19804
 N172 N 0.67807 0.39151 -0.09738
 N173 N 0.66741 0.36947 -0.08742
 C174 C 0.68121 0.36308 -0.06665
 C175 C 0.70147 0.38208 -0.06352
 C176 C 0.69887 0.39974 -0.08326
 H177 H 0.67662 0.34612 -0.05456
 H178 H 0.71115 0.41745 -0.08682
 H179 H 0.63159 0.39068 -0.10904
 H180 H 0.64852 0.37023 -0.13530
 C181 C -0.06005 0.31428 0.11772
 C182 C -0.05877 0.29013 0.10315
 C183 C -0.03665 0.27261 0.10472
 C184 C -0.04130 0.24490 0.10191
 C185 C -0.02090 0.22775 0.10350
 C186 C 0.00467 0.23806 0.10756
 C187 C 0.00950 0.26581 0.10948
 C188 C -0.01100 0.28298 0.10830
 C189 C 0.02662 0.22033 0.10910
 C190 C 0.02352 0.19513 0.11973
 H191 H -0.07532 0.28220 0.09228
 H192 H -0.06084 0.23649 0.09874
 H193 H -0.02513 0.20647 0.10111
 H194 H 0.02912 0.27419 0.11219
 H195 H -0.00667 0.30430 0.10975
 H196 H 0.04593 0.22792 0.10308
 H197 H -0.04447 0.31942 0.13115
 H198 H 0.00485 0.18856 0.12835
 C199 C 0.55602 0.67106 0.61288
 C200 C 0.54044 0.67960 0.63426
 C201 C 0.52090 0.70003 0.63225
 C202 C 0.51388 0.71518 0.65487
 C203 C 0.49577 0.73491 0.65368
 C204 C 0.48418 0.73977 0.62975
 C205 C 0.49056 0.72401 0.60733
 C206 C 0.50877 0.70438 0.60850
 C207 C 0.46496 0.76050 0.62759
 C208 C 0.46376 0.78279 0.64474
 H209 H 0.54405 0.67272 0.65366
 H210 H 0.52261 0.71189 0.67351
 H211 H 0.49067 0.74594 0.67161
 H212 H 0.48155 0.72703 0.58878
 H213 H 0.51297 0.69245 0.59087
 H214 H 0.45217 0.75876 0.61105
 H215 H 0.55468 0.68046 0.59420
 H216 H 0.47764 0.78591 0.66022
 C217 C 1.08007 0.81710 0.38789
 C218 C 1.05723 0.81476 0.37350
 C219 C 1.03905 0.79100 0.37472
 C220 C 1.01228 0.79399 0.37206
 C221 C 0.99465 0.77186 0.37301
 C222 C 1.00358 0.74622 0.37626
 C223 C 1.03043 0.74315 0.37819
 C224 C 1.04802 0.76532 0.37761
 C225 C 0.98555 0.72230 0.37669
 C226 C 0.95975 0.72305 0.38598
 H227 H 1.05109 0.83138 0.36275
 H228 H 1.00497 0.81354 0.36942
 H229 H 0.97415 0.77482 0.37064
 H230 H 1.03780 0.72353 0.38029
 H231 H 1.06863 0.76226 0.37890
 H232 H 0.99330 0.70326 0.37082
 H233 H 1.08321 0.80144 0.40136
 H234 H 0.95250 0.74145 0.39441
 C235 C 0.42060 0.20974 -0.13531
 C236 C 0.44597 0.20584 -0.14485
 C237 C 0.46658 0.22750 -0.14520
 C238 C 0.49270 0.22109 -0.14336
 C239 C 0.51262 0.24113 -0.14322
 C240 C 0.50675 0.26802 -0.14522
 C241 C 0.48073 0.27432 -0.14806
 C242 C 0.46079 0.25430 -0.14791
 C243 C 0.52727 0.28979 -0.14490
 C244 C 0.55041 0.28834 -0.13153
 H245 H 0.45152 0.18584 -0.15037
 H246 H 0.49767 0.20052 -0.14174
 H247 H 0.53256 0.23547 -0.14192
 H248 H 0.47579 0.29484 -0.15010
 H249 H 0.44094 0.25984 -0.15028
 H250 H 0.52316 0.30824 -0.15392
 H251 H 0.41602 0.22897 -0.12651
 H252 H 0.55373 0.27091 -0.12045
 C253 C 0.13793 -0.05455 0.32462
 C254 C 0.11824 -0.05224 0.30688
 C255 C 0.12021 -0.03246 0.28599
 C256 C 0.09851 -0.02919 0.27060
 C257 C 0.09983 -0.01097 0.25042
 C258 C 0.12301 0.00434 0.24521
 C259 C 0.14482 0.00082 0.26037
 C260 C 0.14343 -0.01725 0.28069
 C261 C 0.12532 0.02338 0.22363
 C262 C 0.10404 0.03596 0.21433
 H263 H 0.10075 -0.06519 0.30838
 H264 H 0.08049 -0.04087 0.27411
 H265 H 0.08287 -0.00941 0.23863
 H266 H 0.16296 0.01220 0.25656
 H267 H 0.16061 -0.01945 0.29203
 H268 H 0.14465 0.02857 0.21568
 H269 H 0.13643 -0.06660 0.33585
 H270 H 0.08496 0.03284 0.22368
 C271 C 0.61157 0.55887 -0.32196
 C272 C 0.63061 0.54116 -0.31606
 C273 C 0.62747 0.52208 -0.29450
 C274 C 0.64995 0.51246 -0.28402
 C275 C 0.64806 0.49446 -0.26370
 C276 C 0.62352 0.48563 -0.25337
 C277 C 0.60099 0.49457 -0.26439
 C278 C 0.60289 0.51264 -0.28473
 C279 C 0.62081 0.46666 -0.23172
 C280 C 0.64027 0.46409 -0.21361
 H281 H 0.64938 0.54201 -0.32620
 H282 H 0.66912 0.51899 -0.29153
 H283 H 0.66587 0.48724 -0.25651
 H284 H 0.58186 0.48765 -0.25713
 H285 H 0.58507 0.51874 -0.29294
 H286 H 0.60248 0.45524 -0.22934
 H287 H 0.59396 0.55877 -0.30968
 H288 H 0.65786 0.47686 -0.21450
 C289 C 0.35885 1.08167 0.81363
 C290 C 0.37826 1.07571 0.79461
 C291 C 0.37585 1.05262 0.77572
 C292 C 0.39864 1.04171 0.76506
 C293 C 0.39725 1.02009 0.74699
 C294 C 0.37293 1.00899 0.73907
 C295 C 0.35013 1.02038 0.74913
 C296 C 0.35152 1.04194 0.76734
 C297 C 0.37073 0.98616 0.71986
 C298 C 0.38981 0.96744 0.71644
 H299 H 0.39674 1.08695 0.79430
 H300 H 0.41762 1.04991 0.77081
 H301 H 0.41527 1.01250 0.73894
 H302 H 0.33118 1.01249 0.74297
 H303 H 0.33355 1.05044 0.77437
 H304 H 0.35293 0.98331 0.70907
 H305 H 0.34205 1.06782 0.81518
 H306 H 0.40667 0.96876 0.72871
 C307 C 0.87171 0.42672 0.18126
 C308 C 0.89262 0.43815 0.19535
 C309 C 0.88931 0.45837 0.21700
 C310 C 0.91051 0.47583 0.22359
 C311 C 0.90807 0.49511 0.24398
 C312 C 0.88434 0.49710 0.25836
 C313 C 0.86330 0.47937 0.25205
 C314 C 0.86572 0.46014 0.23167
 C315 C 0.88089 0.51720 0.28000
 C316 C 0.90054 0.53577 0.28722
 H317 H 0.91231 0.43335 0.18945
 H318 H 0.92897 0.47470 0.21278
 H319 H 0.92473 0.50837 0.24845
 H320 H 0.84489 0.48030 0.26299
 H321 H 0.84920 0.44646 0.22783
 H322 H 0.86222 0.51752 0.29051
 H323 H 0.85248 0.43412 0.18502
 H324 H 0.89797 0.54726 0.29980
 C325 C 0.30064 0.15219 -0.07055
 C326 C 0.28664 0.13011 -0.06033
 C327 C 0.26681 0.13225 -0.03866
 C328 C 0.26065 0.10993 -0.02344
 C329 C 0.24198 0.11109 -0.00287
 C330 C 0.22898 0.13471 0.00286
 C331 C 0.23469 0.15682 -0.01278
 C332 C 0.25340 0.15567 -0.03332
 C333 C 0.20871 0.13670 0.02414
 C334 C 0.20648 0.11973 0.04531
 H335 H 0.29156 0.11028 -0.06718
 H336 H 0.27037 0.09151 -0.02745
 H337 H 0.23751 0.09328 0.00804
 H338 H 0.22461 0.17508 -0.00911
 H339 H 0.25689 0.17299 -0.04519
 H340 H 0.19539 0.15264 0.02333
 H341 H 0.29805 0.17174 -0.06146
 H342 H 0.22058 0.10476 0.04744
 C343 C 0.68392 0.62136 0.56613
 C344 C 0.68354 0.62978 0.54031
 C345 C 0.70725 0.63152 0.52307
 C346 C 0.70494 0.62748 0.49579
 C347 C 0.72704 0.62896 0.47901
 C348 C 0.75185 0.63493 0.48926
 C349 C 0.75405 0.63976 0.51645
 C350 C 0.73201 0.63790 0.53326
 C351 C 0.77557 0.63703 0.47207
 C352 C 0.77837 0.62204 0.44861
 H353 H 0.66505 0.63345 0.53183
 H354 H 0.68601 0.62295 0.48747
 H355 H 0.72458 0.62592 0.45805
 H356 H 0.77291 0.64477 0.52473
 H357 H 0.73434 0.64193 0.55412
 H358 H 0.79198 0.64944 0.47903
 H359 H 0.70180 0.61422 0.57334
 H360 H 0.76313 0.60754 0.44276
 C361 C 0.81715 0.35555 0.06284
 C362 C 0.80140 0.37590 0.05593
 C363 C 0.78147 0.37264 0.03549
 C364 C 0.77285 0.39556 0.02422
 C365 C 0.75412 0.39353 0.00486
 C366 C 0.74354 0.36841 -0.00369
 C367 C 0.75156 0.34552 0.00813
 C368 C 0.77036 0.34755 0.02749
 C369 C 0.72372 0.36554 -0.02426
 C370 C 0.72144 0.38446 -0.04335
 H371 H 0.80490 0.39573 0.06456
 H372 H 0.78069 0.41517 0.03038
 H373 H 0.74772 0.41174 -0.00298
 H374 H 0.74335 0.32598 0.00224
 H375 H 0.77577 0.32947 0.03634
 H376 H 0.71130 0.34746 -0.02500
 H377 H 0.81589 0.33659 0.05203
 H378 H 0.73507 0.40159 -0.04410
 C379 C 0.19858 0.88876 0.45144
 C380 C 0.20331 0.86839 0.46814
 C381 C 0.22331 0.87149 0.48845
 C382 C 0.22964 0.84909 0.50215
 C383 C 0.24857 0.85129 0.52135
 C384 C 0.26149 0.87606 0.52728
 C385 C 0.25475 0.89858 0.51399
 C386 C 0.23600 0.89633 0.49461
 C387 C 0.28154 0.87915 0.54755
 C388 C 0.29721 0.85853 0.55372
 H389 H 0.19250 0.84938 0.46592
 H390 H 0.21994 0.82979 0.49797
 H391 H 0.25268 0.83368 0.53179
 H392 H 0.26425 0.91792 0.51841
 H393 H 0.23138 0.91406 0.48460
 H394 H 0.28513 0.89876 0.55671
 H395 H 0.18684 0.88635 0.44018
 H396 H 0.29552 0.83957 0.54294
   
