data_POSCAR
  _audit_creation_date              2014-09-24
  _audit_creation_method            'ToBaCCo'
  _symmetry_space_group_name_H-M    'P1'
  _symmetry_Int_Tables_number       1
  _symmetry_cell_setting            triclinic
  loop_
  _symmetry_equiv_pos_as_xyz
 x,y,z
_cell_length_a 29.0258
_cell_length_b 28.9445
_cell_length_c 31.3058
_cell_angle_alpha 89.964600
_cell_angle_beta 89.860300
_cell_angle_gamma 119.691700
loop_
  _atom_site_label
  _atom_site_type_symbol
  _atom_site_fract_x
  _atom_site_fract_y
  _atom_site_fract_z
C1 C 0.04899 0.51419 1.33979
 C2 C 0.00004 0.47905 1.35889
 C3 C -0.04882 0.46708 1.34073
 C4 C -0.04930 0.47495 1.29581
 C5 C -0.00058 0.50109 1.27268
 C6 C 0.04862 0.52279 1.29489
 C7 C 0.09584 0.55076 1.27119
 C8 C 0.09526 0.55646 1.22723
 C9 C 0.04756 0.53325 1.20422
 C10 C -0.00108 0.50607 1.22727
 C11 C -0.09700 0.45582 1.27303
 C12 C -0.09741 0.46031 1.22899
 C13 C -0.05024 0.48335 1.20502
 C14 C -0.05063 0.48654 1.15960
 C15 C -0.00224 0.52078 1.13945
 C16 C 0.04698 0.53824 1.15904
 H17 H 0.13439 0.56821 1.28593
 H18 H 0.13320 0.57996 1.21181
 H19 H -0.13523 0.43584 1.28853
 H20 H -0.13568 0.44592 1.21425
 H21 H -0.00019 0.45963 1.38815
 H22 H -0.00312 0.53461 1.10774
 C23 C 0.47605 0.52506 1.34117
 C24 C 0.50163 0.50128 1.36251
 C25 C 0.52556 0.47577 1.34103
 C26 C 0.53049 0.48187 1.29585
 C27 C 0.49889 0.49871 1.27349
 C28 C 0.46894 0.51723 1.29635
 C29 C 0.43244 0.52628 1.27365
 C30 C 0.43098 0.52489 1.22925
 C31 C 0.46512 0.51317 1.20566
 C32 C 0.49719 0.49690 1.22808
 C33 C 0.56695 0.47340 1.27229
 C34 C 0.56597 0.47254 1.22792
 C35 C 0.52804 0.47935 1.20529
 C36 C 0.52076 0.47069 1.16061
 C37 C 0.49242 0.49146 1.13926
 C38 C 0.46769 0.51625 1.16038
 H39 H 0.40373 0.53350 1.28981
 H40 H 0.40201 0.53226 1.21377
 H41 H 0.59723 0.46813 1.28782
 H42 H 0.59591 0.46726 1.21173
 H43 H 0.50276 0.50261 1.39690
 H44 H 0.48982 0.48832 1.10508
 C45 C 0.48460 0.94976 1.34201
 C46 C 0.51521 0.99816 1.36327
 C47 C 0.53225 1.04806 1.34402
 C48 C 0.52771 1.04898 1.29846
 C49 C 0.50585 1.00055 1.27489
 C50 C 0.48594 0.95113 1.29669
 C51 C 0.47156 0.90511 1.27254
 C52 C 0.47027 0.90606 1.22832
 C53 C 0.48230 0.95283 1.20608
 C54 C 0.50415 1.00139 1.22927
 C55 C 0.54576 1.09672 1.27539
 C56 C 0.54229 1.09721 1.23118
 C57 C 0.52471 1.05065 1.20702
 C58 C 0.52659 1.05140 1.16140
 C59 C 0.49734 1.00221 1.14047
 C60 C 0.47411 0.95281 1.16138
 H61 H 0.46242 0.86784 1.28744
 H62 H 0.46066 0.86959 1.21199
 H63 H 0.56364 1.13502 1.29069
 H64 H 0.55349 1.13505 1.21647
 H65 H 0.52639 0.99577 1.39553
 H66 H 0.49334 1.00239 1.10646
 C67 C 1.05241 0.52302 0.84059
 C68 C 1.00332 0.50134 0.86215
 C69 C 0.95426 0.47860 0.84114
 C70 C 0.95439 0.47312 0.79611
 C71 C 1.00267 0.50158 0.77297
 C72 C 1.05162 0.52854 0.79527
 C73 C 1.09790 0.55978 0.77142
 C74 C 1.09748 0.55965 0.72714
 C75 C 1.04995 0.53271 0.70391
 C76 C 1.00182 0.50276 0.72736
 C77 C 0.90816 0.43900 0.77355
 C78 C 0.90754 0.43849 0.72926
 C79 C 0.95286 0.47277 0.70549
 C80 C 0.95146 0.47498 0.66037
 C81 C 0.99999 0.49926 0.63851
 C82 C 1.04900 0.53282 0.65819
 H83 H 1.13555 0.58531 0.78634
 H84 H 1.13578 0.58027 0.71201
 H85 H 0.87210 0.41098 0.78972
 H86 H 0.87121 0.40969 0.71407
 H87 H 1.00311 0.50190 0.89645
 H88 H 0.99905 0.48992 0.60510
 C89 C 0.51623 0.46852 0.65806
 C90 C 0.48074 0.48155 0.63842
 C91 C 0.45889 0.50897 0.65940
 C92 C 0.46116 0.51074 0.70465
 C93 C 0.49226 0.49284 0.72667
 C94 C 0.51994 0.47181 0.70343
 C95 C 0.54858 0.45268 0.72646
 C96 C 0.55096 0.45483 0.77076
 C97 C 0.52373 0.47497 0.79455
 C98 C 0.49547 0.49585 0.77216
 C99 C 0.43058 0.52668 0.72867
 C100 C 0.43408 0.52988 0.77286
 C101 C 0.46941 0.51875 0.79512
 C102 C 0.47854 0.52833 0.83966
 C103 C 0.50409 0.50450 0.86088
 C104 C 0.52346 0.47451 0.84000
 H105 H 0.56857 0.43427 0.71094
 H106 H 0.57509 0.44075 0.78584
 H107 H 0.40240 0.53567 0.71378
 H108 H 0.40731 0.53971 0.78917
 H109 H 0.46854 0.46895 0.60614
 H110 H 0.50844 0.50917 0.89480
 C111 C 0.48445 -0.04880 0.84139
 C112 C 0.52128 -0.00016 0.86020
 C113 C 0.54090 0.04885 0.83947
 C114 C 0.53732 0.04844 0.79440
 C115 C 0.50512 -0.00023 0.77265
 C116 C 0.47784 -0.04885 0.79605
 C117 C 0.44657 -0.09602 0.77301
 C118 C 0.44246 -0.09584 0.72879
 C119 C 0.47080 -0.04888 0.70495
 C120 C 0.50049 -0.00015 0.72725
 C121 C 0.56795 0.09464 0.77028
 C122 C 0.56291 0.09469 0.72623
 C123 C 0.52664 0.04865 0.70422
 C124 C 0.51673 0.04940 0.65981
 C125 C 0.48998 0.00024 0.63866
 C126 C 0.47067 -0.04897 0.65950
 H127 H 0.42557 -0.13435 0.78838
 H128 H 0.41617 -0.13335 0.71372
 H129 H 0.59746 0.13111 0.78501
 H130 H 0.58924 0.13120 0.70980
 H131 H 0.53602 0.00068 0.89182
 H132 H 0.48510 0.00022 0.60473
 O133 O 0.41243 0.66960 0.95404
 O134 O 0.41431 0.76020 0.96609
 C135 C 0.38295 0.76926 0.94398
 O136 O 0.33298 0.74344 0.94876
 O137 O 0.24216 0.65644 0.96265
 C138 C 0.23324 0.61438 0.94310
 O139 O 0.25849 0.59005 0.95083
 O140 O 0.34567 0.58760 0.96683
 C141 C 0.38789 0.61991 0.94703
 O142 O 0.41089 0.65503 1.03882
 O143 O 0.40859 0.74363 1.05077
 C144 C 0.38514 0.77047 1.05522
 O145 O 0.34476 0.76167 1.03343
 O146 O 0.25689 0.67283 1.04708
 C147 C 0.23064 0.62328 1.05439
 O148 O 0.23938 0.58964 1.03509
 O149 O 0.32832 0.58981 1.05106
 C150 C 0.37776 0.61277 1.05808
 Cr151 Cr 0.40855 0.70562 1.00238
 Cr152 Cr 0.29567 0.70705 0.99801
 Cr153 Cr 0.29451 0.59232 1.00098
 O154 O 0.33291 0.66826 1.00045
 O155 O 0.59166 0.32885 0.94844
 O156 O 0.59291 0.24033 0.96325
 C157 C 0.62705 0.23145 0.94525
 O158 O 0.67625 0.25772 0.95358
 O159 O 0.76332 0.34826 0.96762
 C160 C 0.77094 0.38861 0.94589
 O161 O 0.74392 0.41177 0.95114
 O162 O 0.65425 0.41158 0.96351
 C163 C 0.61427 0.37866 0.94222
 O164 O 0.58623 0.34230 1.03334
 O165 O 0.59042 0.25542 1.04771
 C166 C 0.61609 0.23164 1.05629
 O167 O 0.65951 0.24277 1.03810
 O168 O 0.74422 0.33446 1.05224
 C169 C 0.76874 0.38440 1.05755
 O170 O 0.75921 0.41553 1.03557
 O171 O 0.66690 0.40997 1.04793
 C172 C 0.61700 0.38448 1.05371
 Cr173 Cr 0.59335 0.29335 0.99824
 Cr174 Cr 0.70925 0.29730 1.00276
 Cr175 Cr 0.70462 0.40912 0.99957
 O176 O 0.66896 0.33310 1.00011
 O177 O 0.66955 0.41218 0.54763
 O178 O 0.75934 0.41355 0.53514
 C179 C 0.76860 0.38115 0.55559
 O180 O 0.74264 0.33126 0.54956
 O181 O 0.65420 0.24176 0.53538
 C182 C 0.61211 0.23305 0.55481
 O183 O 0.58847 0.25914 0.54731
 O184 O 0.58777 0.34787 0.53174
 C185 C 0.61968 0.38851 0.55309
 O186 O 0.65692 0.41463 0.46283
 O187 O 0.74499 0.41146 0.45017
 C188 C 0.77035 0.38662 0.44437
 O189 O 0.76069 0.34513 0.46525
 O190 O 0.67100 0.25784 0.45079
 C191 C 0.62149 0.23221 0.44389
 O192 O 0.58875 0.24182 0.46336
 O193 O 0.59208 0.33275 0.44775
 C194 C 0.61602 0.38268 0.44184
 Cr195 Cr 0.70621 0.40997 0.49889
 Cr196 Cr 0.70558 0.29549 0.50022
 Cr197 Cr 0.59233 0.29692 0.49756
 O198 O 0.66810 0.33412 0.49894
 O199 O 0.32246 0.58732 0.55067
 O200 O 0.23526 0.58926 0.53210
 C201 C 0.22780 0.62326 0.55226
 O202 O 0.25470 0.67287 0.54511
 O203 O 0.34441 0.76109 0.53120
 C204 C 0.38247 0.76716 0.55507
 O205 O 0.40451 0.73891 0.55148
 O206 O 0.40598 0.65009 0.53822
 C207 C 0.37178 0.60859 0.55771
 O208 O 0.34272 0.58514 0.46695
 O209 O 0.25770 0.58997 0.44826
 C210 C 0.23177 0.61357 0.44059
 O211 O 0.23994 0.65530 0.46050
 O212 O 0.33256 0.74137 0.44673
 C213 C 0.38273 0.76705 0.44317
 O214 O 0.41308 0.75833 0.46697
 O215 O 0.40962 0.66696 0.45381
 C216 C 0.38502 0.61717 0.44711
 Cr217 Cr 0.29095 0.59078 0.49952
 Cr218 Cr 0.29425 0.70617 0.49594
 Cr219 Cr 0.40548 0.70227 0.50253
 O220 O 0.33021 0.66631 0.49937
 C221 C 0.45291 0.55310 0.36835
 C222 C 0.48289 0.57743 0.41052
 C223 C 0.45983 0.59828 0.43593
 C224 C 0.40924 0.59422 0.41723
 C225 C 0.42664 0.62137 0.37333
 C226 C 0.45050 0.60068 0.34808
 C227 C 0.39583 0.51373 0.38193
 C228 C 0.37307 0.53487 0.40723
 H229 H 0.52216 0.58379 0.41772
 H230 H 0.47918 0.62085 0.46442
 H231 H 0.42361 0.65589 0.36400
 H232 H 0.46889 0.61880 0.31782
 H233 H 0.37469 0.47244 0.37188
 H234 H 0.33244 0.51136 0.41838
 C235 C 0.45606 0.90110 0.36736
 C236 C 0.48774 0.87187 0.37265
 C237 C 0.46293 0.82680 0.39659
 C238 C 0.40836 0.81451 0.41385
 C239 C 0.41827 0.86477 0.43759
 C240 C 0.44229 0.90962 0.41358
 C241 C 0.40110 0.85871 0.35022
 C242 C 0.37670 0.81317 0.37412
 H243 H 0.52637 0.88523 0.35820
 H244 H 0.48039 0.80175 0.40225
 H245 H 0.40318 0.86446 0.46942
 H246 H 0.44584 0.94647 0.42546
 H247 H 0.38193 0.86471 0.32273
 H248 H 0.33765 0.78044 0.36643
 C249 C 0.09697 0.53997 0.36619
 C250 C 0.13712 0.52098 0.35652
 C251 C 0.18277 0.54584 0.37980
 C252 C 0.18435 0.58716 0.41148
 C253 C 0.17440 0.62551 0.38422
 C254 C 0.12865 0.60112 0.36115
 C255 C 0.08870 0.53303 0.41536
 C256 C 0.13408 0.55645 0.43822
 H257 H 0.13015 0.49045 0.33320
 H258 H 0.21456 0.53668 0.37607
 H259 H 0.20055 0.66829 0.38373
 H260 H 0.11577 0.62351 0.34150
 H261 H 0.05124 0.51515 0.43229
 H262 H 0.13406 0.55336 0.47264
 C263 C 0.54773 0.44889 0.36610
 C264 C 0.60621 0.48682 0.37682
 C265 C 0.62914 0.46477 0.40084
 C266 C 0.59177 0.40616 0.41268
 C267 C 0.54375 0.40519 0.43399
 C268 C 0.52032 0.42662 0.40979
 C269 C 0.54639 0.39934 0.34582
 C270 C 0.57041 0.37780 0.36982
 H271 H 0.62814 0.52776 0.36578
 H272 H 0.67064 0.48703 0.40984
 H273 H 0.52649 0.38478 0.46388
 H274 H 0.48234 0.42221 0.41923
 H275 H 0.52577 0.38084 0.31642
 H276 H 0.57123 0.34215 0.36031
 C277 C 0.55496 0.09602 0.37067
 C278 C 0.61478 0.13276 0.36219
 C279 C 0.63750 0.17860 0.38532
 C280 C 0.59877 0.18406 0.41549
 C281 C 0.55302 0.17771 0.38683
 C282 C 0.52945 0.13138 0.36426
 C283 C 0.55092 0.08787 0.41997
 C284 C 0.57451 0.13357 0.44275
 H285 H 0.63743 0.12336 0.33965
 H286 H 0.67917 0.20815 0.38226
 H287 H 0.53909 0.20625 0.38557
 H288 H 0.49495 0.12035 0.34437
 H289 H 0.52557 0.05117 0.43682
 H290 H 0.57200 0.13367 0.47733
 C291 C 0.90389 0.44672 0.36795
 C292 C 0.87245 0.47670 0.36288
 C293 C 0.82723 0.45663 0.38689
 C294 C 0.81762 0.40893 0.41482
 C295 C 0.81828 0.36834 0.38364
 C296 C 0.86334 0.38776 0.35965
 C297 C 0.91337 0.44958 0.41692
 C298 C 0.86856 0.42897 0.44072
 H299 H 0.88524 0.51147 0.34266
 H300 H 0.80152 0.47393 0.38662
 H301 H 0.78617 0.32759 0.38091
 H302 H 0.86957 0.36332 0.33664
 H303 H 0.95137 0.47044 0.43282
 H304 H 0.86966 0.42909 0.47524
 C305 C 0.54587 0.44450 1.13341
 C306 C 0.55180 0.39891 1.15367
 C307 C 0.57668 0.37975 1.12793
 C308 C 0.59182 0.40641 1.08374
 C309 C 0.53937 0.39931 1.06610
 C310 C 0.51517 0.41828 1.09199
 C311 C 0.60188 0.48582 1.11857
 C312 C 0.62576 0.46620 1.09279
 H313 H 0.53475 0.38067 1.18423
 H314 H 0.58194 0.34649 1.13713
 H315 H 0.51898 0.37480 1.03874
 H316 H 0.47450 0.40848 1.08603
 H317 H 0.62125 0.52740 1.12778
 H318 H 0.66537 0.49124 1.08004
 C319 C 0.90167 0.45796 1.13345
 C320 C 0.91156 0.45380 1.08517
 C321 C 0.86695 0.42945 1.06131
 C322 C 0.81567 0.40953 1.08699
 C323 C 0.81924 0.37388 1.12176
 C324 C 0.86453 0.39886 1.14557
 C325 C 0.86648 0.48385 1.13476
 C326 C 0.82167 0.45852 1.11090
 H327 H 0.94922 0.46234 1.07124
 H328 H 0.86797 0.42000 1.02788
 H329 H 0.78991 0.33230 1.12631
 H330 H 0.87382 0.37792 1.16981
 H331 H 0.87584 0.51904 1.15341
 H332 H 0.79284 0.47202 1.10942
 C333 C 0.55257 0.09980 1.13518
 C334 C 0.51677 0.12464 1.12958
 C335 C 0.53752 0.16871 1.10438
 C336 C 0.59275 0.18483 1.08646
 C337 C 0.62681 0.19046 1.12581
 C338 C 0.60649 0.14574 1.15079
 C339 C 0.56687 0.09147 1.08906
 C340 C 0.58643 0.13515 1.06385
 H341 H 0.47812 0.10892 1.14466
 H342 H 0.51647 0.19026 1.09818
 H343 H 0.66505 0.22526 1.13204
 H344 H 0.62846 0.14248 1.17752
 H345 H 0.56934 0.05703 1.07854
 H346 H 0.60255 0.13579 1.03239
 C347 C 0.44359 0.54374 1.13352
 C348 C 0.45193 0.59732 1.15094
 C349 C 0.42862 0.61957 1.12697
 C350 C 0.39994 0.58707 1.08716
 C351 C 0.44210 0.57978 1.06346
 C352 C 0.46563 0.55858 1.08747
 C353 C 0.38320 0.50883 1.12808
 C354 C 0.36039 0.53136 1.10412
 H355 H 0.47562 0.61700 1.17888
 H356 H 0.43176 0.65754 1.13488
 H357 H 0.45610 0.59485 1.03160
 H358 H 0.50128 0.55957 1.07575
 H359 H 0.36025 0.46958 1.14221
 H360 H 0.31806 0.51122 1.09797
 C361 C 0.09721 0.56118 1.13070
 C362 C 0.08744 0.55170 1.08199
 C363 C 0.13214 0.57380 1.05798
 C364 C 0.18338 0.60209 1.08378
 C365 C 0.17744 0.64321 1.11076
 C366 C 0.13247 0.62187 1.13502
 C367 C 0.13419 0.53822 1.13993
 C368 C 0.17947 0.56016 1.11596
 H369 H 0.04986 0.52529 1.06699
 H370 H 0.13105 0.56898 1.02364
 H371 H 0.20612 0.68542 1.11103
 H372 H 0.12285 0.64600 1.15572
 H373 H 0.12498 0.50652 1.16273
 H374 H 0.20898 0.54768 1.11878
 C375 C 0.44683 0.90201 1.13377
 C376 C 0.48570 0.88195 1.12337
 C377 C 0.46549 0.83819 1.09811
 C378 C 0.40767 0.81756 1.08495
 C379 C 0.37709 0.80894 1.12709
 C380 C 0.39695 0.85329 1.15232
 C381 C 0.42654 0.90893 1.08988
 C382 C 0.40724 0.86553 1.06445
 H383 H 0.52613 0.90086 1.13514
 H384 H 0.48886 0.82008 1.08842
 H385 H 0.34139 0.77218 1.13530
 H386 H 0.37726 0.85428 1.18153
 H387 H 0.41945 0.94129 1.08168
 H388 H 0.38658 0.86345 1.03505
 C389 C 0.54676 0.44894 0.62977
 C390 C 0.54592 0.45851 0.58110
 C391 C 0.57048 0.43830 0.55694
 C392 C 0.59532 0.41135 0.58270
 C393 C 0.63212 0.45423 0.61454
 C394 C 0.60687 0.47441 0.63873
 C395 C 0.52461 0.38871 0.63427
 C396 C 0.55001 0.36923 0.61009
 H397 H 0.53483 0.48559 0.56662
 H398 H 0.57721 0.44659 0.52298
 H399 H 0.67438 0.46865 0.61700
 H400 H 0.62800 0.50654 0.66130
 H401 H 0.49182 0.36351 0.65527
 H402 H 0.53903 0.32750 0.61064
 C403 C 0.54029 0.10060 0.63254
 C404 C 0.59821 0.11854 0.62116
 C405 C 0.62225 0.16273 0.59644
 C406 C 0.58647 0.18596 0.58458
 C407 C 0.53723 0.13988 0.56420
 C408 C 0.51275 0.09574 0.58912
 C409 C 0.54122 0.15009 0.65228
 C410 C 0.56634 0.19496 0.62755
 H411 H 0.61896 0.09827 0.63228
 H412 H 0.66352 0.18000 0.58693
 H413 H 0.51973 0.14355 0.53468
 H414 H 0.47362 0.06378 0.58071
 H415 H 0.52162 0.14937 0.68204
 H416 H 0.56897 0.23236 0.63668
 C417 C 0.90023 0.44977 0.63354
 C418 C 0.87922 0.39036 0.62508
 C419 C 0.83522 0.36690 0.60008
 C420 C 0.81553 0.40478 0.58537
 C421 C 0.80784 0.42892 0.62664
 C422 C 0.85230 0.45324 0.65150
 C423 C 0.90730 0.47514 0.58883
 C424 C 0.86371 0.45143 0.56389
 H425 H 0.89748 0.36849 0.63798
 H426 H 0.81618 0.32506 0.59174
 H427 H 0.77159 0.42931 0.63452
 H428 H 0.85386 0.47524 0.68003
 H429 H 0.94104 0.51285 0.57931
 H430 H 0.86182 0.46937 0.53401
 C431 C 0.43470 0.53623 0.63236
 C432 C 0.45055 0.59333 0.64651
 C433 C 0.42804 0.61663 0.62299
 C434 C 0.39257 0.58154 0.58661
 C435 C 0.42803 0.56628 0.56103
 C436 C 0.45075 0.54385 0.58458
 C437 C 0.37359 0.50591 0.63204
 C438 C 0.35156 0.52957 0.60835
 H439 H 0.47820 0.61421 0.67217
 H440 H 0.43591 0.65682 0.62901
 H441 H 0.43730 0.57547 0.52749
 H442 H 0.48143 0.53772 0.57048
 H443 H 0.34970 0.46891 0.64920
 H444 H 0.30897 0.51275 0.60551
 C445 C 0.44833 0.90009 0.63201
 C446 C 0.38757 0.87208 0.62892
 C447 C 0.36559 0.82740 0.60456
 C448 C 0.40613 0.81419 0.58476
 C449 C 0.44547 0.86445 0.56065
 C450 C 0.46805 0.90889 0.58505
 C451 C 0.46087 0.85663 0.64715
 C452 C 0.43812 0.81144 0.62288
 H453 H 0.36369 0.88604 0.64517
 H454 H 0.32303 0.80324 0.60023
 H455 H 0.45920 0.86407 0.52843
 H456 H 0.50221 0.94462 0.57303
 H457 H 0.48710 0.86169 0.67356
 H458 H 0.44417 0.77797 0.62926
 C459 C 0.09638 0.56005 0.63110
 C460 C 0.08605 0.56542 0.58319
 C461 C 0.13008 0.58685 0.55828
 C462 C 0.18132 0.60232 0.58255
 C463 C 0.18223 0.64010 0.61757
 C464 C 0.13723 0.61851 0.64226
 C465 C 0.12772 0.53011 0.63140
 C466 C 0.17170 0.55201 0.60643
 H467 H 0.04991 0.56287 0.57094
 H468 H 0.12951 0.60097 0.52632
 H469 H 0.21365 0.68106 0.62096
 H470 H 0.13024 0.64183 0.66587
 H471 H 0.11650 0.49465 0.65038
 H472 H 0.19792 0.53535 0.60445
 C473 C 0.45600 0.55689 0.86716
 C474 C 0.48600 0.58095 0.90940
 C475 C 0.46285 0.60142 0.93510
 C476 C 0.41218 0.59743 0.91666
 C477 C 0.42962 0.62507 0.87291
 C478 C 0.45364 0.60474 0.84739
 C479 C 0.39888 0.51743 0.88071
 C480 C 0.37609 0.53824 0.90630
 H481 H 0.52578 0.58842 0.91609
 H482 H 0.48274 0.62461 0.96317
 H483 H 0.42665 0.65974 0.86395
 H484 H 0.47222 0.62329 0.81728
 H485 H 0.37769 0.47624 0.87039
 H486 H 0.33546 0.51458 0.91739
 C487 C 0.10089 0.54463 0.86611
 C488 C 0.09447 0.51951 0.91107
 C489 C 0.13871 0.54323 0.93553
 C490 C 0.18644 0.58933 0.91339
 C491 C 0.19325 0.56448 0.87215
 C492 C 0.14815 0.53985 0.84795
 C493 C 0.12286 0.60421 0.87420
 C494 C 0.16709 0.62741 0.89858
 H495 H 0.06126 0.48153 0.92077
 H496 H 0.14148 0.52579 0.96543
 H497 H 0.22895 0.56308 0.86417
 H498 H 0.14556 0.51647 0.82003
 H499 H 0.10532 0.62670 0.86111
 H500 H 0.18715 0.66961 0.90579
 C501 C 0.45650 0.90362 0.86832
 C502 C 0.47487 0.86274 0.85993
 C503 C 0.44931 0.81746 0.88370
 C504 C 0.40788 0.81671 0.91459
 C505 C 0.43785 0.86748 0.94091
 C506 C 0.46211 0.91261 0.91744
 C507 C 0.39554 0.87246 0.86281
 C508 C 0.37029 0.82678 0.88646
 H509 H 0.50546 0.86890 0.83691
 H510 H 0.45794 0.78513 0.88081
 H511 H 0.43643 0.86837 0.97546
 H512 H 0.47643 0.95025 0.93370
 H513 H 0.37393 0.88585 0.84279
 H514 H 0.32754 0.80124 0.88599
 C515 C 0.54625 0.44580 0.86712
 C516 C 0.60724 0.47604 0.86664
 C517 C 0.62974 0.45288 0.89004
 C518 C 0.58955 0.40145 0.91278
 C519 C 0.55427 0.41665 0.93851
 C520 C 0.53094 0.43863 0.91508
 C521 C 0.53008 0.38832 0.85353
 C522 C 0.55323 0.36540 0.87705
 H523 H 0.63083 0.51253 0.84876
 H524 H 0.67241 0.46951 0.89184
 H525 H 0.54396 0.40586 0.97165
 H526 H 0.49873 0.44233 0.92905
 H527 H 0.50176 0.36697 0.82838
 H528 H 0.54522 0.32509 0.87147
 C529 C 0.90336 0.45624 0.86846
 C530 C 0.85615 0.46028 0.84973
 C531 C 0.81123 0.43671 0.87434
 C532 C 0.81797 0.41288 0.91620
 C533 C 0.83713 0.37428 0.90227
 C534 C 0.88146 0.39690 0.87767
 C535 C 0.91009 0.48227 0.91292
 C536 C 0.86589 0.45918 0.93773
 H537 H 0.85851 0.48196 0.82076
 H538 H 0.77536 0.43742 0.86583
 H539 H 0.81701 0.33228 0.91035
 H540 H 0.89911 0.37423 0.86515
 H541 H 0.94407 0.51963 0.92247
 H542 H 0.86382 0.47586 0.96826
 C543 C 0.56467 0.09963 0.86706
 C544 C 0.54425 0.08982 0.91375
 C545 C 0.56632 0.13367 0.93871
 C546 C 0.60615 0.18456 0.91539
 C547 C 0.64710 0.17153 0.89595
 C548 C 0.62540 0.12728 0.87084
 C549 C 0.55272 0.14357 0.85222
 C550 C 0.57509 0.18814 0.87706
 H551 H 0.51115 0.05302 0.92550
 H552 H 0.55263 0.13296 0.97112
 H553 H 0.68953 0.19512 0.90117
 H554 H 0.64935 0.11326 0.85480
 H555 H 0.52709 0.13928 0.82555
 H556 H 0.56931 0.22186 0.87100
   
