data_POSCAR
  _audit_creation_date              2014-09-24
  _audit_creation_method            'ToBaCCo'
  _symmetry_space_group_name_H-M    'P1'
  _symmetry_Int_Tables_number       1
  _symmetry_cell_setting            triclinic
  loop_
  _symmetry_equiv_pos_as_xyz
 x,y,z
_cell_length_a 55.7834
_cell_length_b 55.3939
_cell_length_c 55.3531
_cell_angle_alpha 88.474400
_cell_angle_beta 92.494200
_cell_angle_gamma 87.821500
loop_
  _atom_site_label
  _atom_site_type_symbol
  _atom_site_fract_x
  _atom_site_fract_y
  _atom_site_fract_z
N1 N 0.28736 0.24109 0.21461
 N2 N 0.27460 0.25923 0.20424
 C3 C 0.28618 0.26778 0.18520
 C4 C 0.30738 0.25421 0.18341
 C5 C 0.30749 0.23739 0.20242
 H6 H 0.27944 0.28257 0.17337
 H7 H 0.32121 0.22357 0.20717
 Cu8 Cu 0.24388 0.26985 0.21614
 Cu9 Cu 0.27672 0.22369 0.24298
 Cu10 Cu 0.22624 0.24757 0.26940
 N11 N 0.21839 0.28562 0.23333
 N12 N 0.21160 0.27704 0.25419
 C13 C 0.19367 0.29143 0.26189
 C14 C 0.18894 0.31006 0.24489
 C15 C 0.20506 0.30572 0.22702
 H16 H 0.18455 0.28833 0.27845
 H17 H 0.20712 0.31645 0.21070
 N18 N 0.24373 0.21782 0.28179
 N19 N 0.26299 0.20881 0.27172
 C20 C 0.27057 0.18837 0.28385
 C21 C 0.25534 0.18417 0.30249
 C22 C 0.23851 0.20327 0.30058
 H23 H 0.28576 0.17707 0.27909
 H24 H 0.22351 0.20633 0.31198
 H25 H 0.24017 0.23216 0.23920
 H26 H 0.25915 0.25427 0.25545
 N27 N 0.71052 -0.22929 0.23078
 N28 N 0.71514 -0.25231 0.22727
 C29 C 0.70194 -0.25927 0.20799
 C30 C 0.68804 -0.23951 0.19872
 C31 C 0.69407 -0.22077 0.21383
 H32 H 0.70265 -0.27743 0.20135
 H33 H 0.68701 -0.20232 0.21283
 Cu34 Cu 0.73833 -0.27104 0.24773
 Cu35 Cu 0.72540 -0.21257 0.25785
 Cu36 Cu 0.76471 -0.24717 0.29641
 N37 N 0.76833 -0.28474 0.26211
 N38 N 0.77862 -0.27553 0.28134
 C39 C 0.79911 -0.28831 0.28735
 C40 C 0.80205 -0.30652 0.27074
 C41 C 0.78194 -0.30359 0.25503
 H42 H 0.81106 -0.28416 0.30243
 H43 H 0.77747 -0.31403 0.23937
 N44 N 0.75553 -0.21324 0.30223
 N45 N 0.74191 -0.19963 0.28676
 C46 C 0.74026 -0.17702 0.29507
 C47 C 0.75323 -0.17648 0.31690
 C48 C 0.76262 -0.19976 0.32094
 H49 H 0.72984 -0.16216 0.28630
 H50 H 0.77418 -0.20627 0.33610
 H51 H 0.75633 -0.23458 0.26192
 H52 H 0.73016 -0.24247 0.27996
 N53 N 0.69707 0.26210 0.77562
 N54 N 0.70471 0.28373 0.78008
 C55 C 0.69212 0.29328 0.79794
 C56 C 0.67581 0.27659 0.80534
 C57 C 0.67949 0.25702 0.79060
 H58 H 0.69523 0.31081 0.80534
 H59 H 0.67047 0.24011 0.79097
 Cu60 Cu 0.73125 0.29713 0.76301
 Cu61 Cu 0.71131 0.24241 0.75108
 Cu62 Cu 0.76801 0.25319 0.73834
 N63 N 0.76455 0.30259 0.75462
 N64 N 0.77908 0.28533 0.74702
 C65 C 0.80120 0.29392 0.74531
 C66 C 0.80059 0.31796 0.75195
 C67 C 0.77689 0.32277 0.75760
 H68 H 0.81639 0.28350 0.73911
 H69 H 0.76929 0.33932 0.76446
 N70 N 0.75000 0.22851 0.72173
 N71 N 0.72765 0.22442 0.72661
 C72 C 0.71978 0.20639 0.71292
 C73 C 0.73823 0.19864 0.69865
 C74 C 0.75719 0.21313 0.70482
 H75 H 0.70193 0.19952 0.71334
 H76 H 0.77497 0.21246 0.69779
 H77 H 0.74621 0.26333 0.76656
 H78 H 0.73703 0.27310 0.73487
 N79 N 0.28451 -0.26313 0.77370
 N80 N 0.27451 -0.28167 0.78389
 C81 C 0.28763 -0.28879 0.80399
 C82 C 0.30692 -0.27388 0.80662
 C83 C 0.30430 -0.25778 0.78698
 H84 H 0.28321 -0.30347 0.81602
 H85 H 0.31591 -0.24326 0.78260
 Cu86 Cu 0.24505 -0.29440 0.77020
 Cu87 Cu 0.27093 -0.24719 0.74411
 Cu88 Cu 0.21858 -0.27005 0.71911
 N89 N 0.21590 -0.30726 0.75594
 N90 N 0.20558 -0.29767 0.73599
 C91 C 0.18572 -0.30974 0.73026
 C92 C 0.18332 -0.32800 0.74763
 C93 C 0.20299 -0.32577 0.76360
 H94 H 0.17393 -0.30533 0.71464
 H95 H 0.20761 -0.33665 0.77972
 N96 N 0.23452 -0.24224 0.70478
 N97 N 0.25442 -0.23360 0.71428
 C98 C 0.26059 -0.21452 0.70065
 C99 C 0.24376 -0.21086 0.68163
 C100 C 0.22750 -0.22883 0.68488
 H101 H 0.27596 -0.20378 0.70460
 H102 H 0.21167 -0.23192 0.67362
 H103 H 0.23571 -0.25580 0.74907
 H104 H 0.25394 -0.27695 0.73086
 N105 N 0.70581 -0.24533 0.77072
 N106 N 0.71137 -0.26812 0.77632
 C107 C 0.69816 -0.27530 0.79478
 C108 C 0.68339 -0.25597 0.80110
 C109 C 0.68880 -0.23727 0.78535
 H110 H 0.69930 -0.29328 0.80294
 H111 H 0.68102 -0.21909 0.78454
 Cu112 Cu 0.73588 -0.28613 0.75964
 Cu113 Cu 0.71998 -0.22803 0.74410
 Cu114 Cu 0.76189 -0.26051 0.71259
 N115 N 0.76699 -0.29800 0.74922
 N116 N 0.77757 -0.28705 0.73151
 C117 C 0.79931 -0.29765 0.72887
 C118 C 0.80266 -0.31658 0.74577
 C119 C 0.78154 -0.31634 0.75827
 H120 H 0.81145 -0.29214 0.71524
 H121 H 0.77736 -0.32793 0.77341
 N122 N 0.75060 -0.22765 0.70296
 N123 N 0.73605 -0.21451 0.71597
 C124 C 0.73315 -0.19224 0.70561
 C125 C 0.74626 -0.19158 0.68497
 C126 C 0.75704 -0.21434 0.68381
 H127 H 0.72179 -0.17777 0.71210
 H128 H 0.76911 -0.22057 0.67032
 H129 H 0.72672 -0.25811 0.72491
 H130 H 0.75184 -0.24840 0.74535
 N131 N 0.29502 0.23554 0.76385
 N132 N 0.28662 0.25723 0.76881
 C133 C 0.29818 0.26473 0.78895
 C134 C 0.31467 0.24667 0.79712
 C135 C 0.31214 0.22843 0.78067
 H136 H 0.29442 0.28180 0.79733
 H137 H 0.32203 0.21126 0.78086
 Cu138 Cu 0.26079 0.27326 0.74906
 Cu139 Cu 0.28303 0.21802 0.73611
 Cu140 Cu 0.23213 0.24250 0.70546
 N141 N 0.22969 0.28433 0.73498
 N142 N 0.21859 0.27235 0.71795
 C143 C 0.19725 0.28359 0.71208
 C144 C 0.19471 0.30372 0.72626
 C145 C 0.21575 0.30357 0.74058
 H146 H 0.18429 0.27713 0.69894
 H147 H 0.22054 0.31626 0.75431
 N148 N 0.24873 0.21244 0.69583
 N149 N 0.26817 0.20316 0.70754
 C150 C 0.27521 0.18268 0.69690
 C151 C 0.25942 0.17876 0.67751
 C152 C 0.24284 0.19805 0.67742
 H153 H 0.29053 0.17129 0.70305
 H154 H 0.22766 0.20144 0.66485
 H155 H 0.26783 0.24685 0.71532
 H156 H 0.24869 0.23312 0.73861
 N157 N 0.30146 -0.25729 0.21680
 N158 N 0.29053 -0.27602 0.20811
 C159 C 0.30042 -0.28224 0.18728
 C160 C 0.31880 -0.26683 0.18299
 C161 C 0.31902 -0.25129 0.20211
 H162 H 0.29471 -0.29687 0.17610
 H163 H 0.33042 -0.23610 0.20453
 Cu164 Cu 0.26463 -0.29071 0.22490
 Cu165 Cu 0.29024 -0.24023 0.24473
 Cu166 Cu 0.23733 -0.25944 0.26785
 N167 N 0.23398 -0.30005 0.23688
 N168 N 0.22281 -0.28696 0.25270
 C169 C 0.20192 -0.29704 0.25753
 C170 C 0.20007 -0.31775 0.24430
 C171 C 0.22076 -0.31919 0.23142
 H172 H 0.18942 -0.29038 0.27042
 H173 H 0.22572 -0.33303 0.21894
 N174 N 0.25486 -0.23217 0.28099
 N175 N 0.27534 -0.22524 0.27259
 C176 C 0.28289 -0.20636 0.28530
 C177 C 0.26639 -0.20111 0.30263
 C178 C 0.24889 -0.21796 0.29931
 H179 H 0.29901 -0.19688 0.28183
 H180 H 0.23292 -0.21979 0.30946
 H181 H 0.27287 -0.26805 0.26139
 H182 H 0.25538 -0.24977 0.23724
 N183 N 0.71547 0.26150 0.22584
 N184 N 0.72966 0.27543 0.21383
 C185 C 0.71968 0.28046 0.19160
 C186 C 0.69794 0.26931 0.18970
 C187 C 0.69580 0.25749 0.21178
 H188 H 0.72754 0.29154 0.17789
 H189 H 0.68140 0.24612 0.21689
 Cu190 Cu 0.75964 0.28619 0.22826
 Cu191 Cu 0.72475 0.24771 0.25775
 Cu192 Cu 0.77382 0.27191 0.28688
 N193 N 0.78345 0.30354 0.24687
 N194 N 0.78881 0.29802 0.26974
 C195 C 0.80594 0.31255 0.27798
 C196 C 0.81168 0.32814 0.25927
 C197 C 0.79695 0.32185 0.23978
 H198 H 0.81361 0.31176 0.29626
 H199 H 0.79630 0.32971 0.22167
 N200 N 0.75618 0.24529 0.30100
 N201 N 0.73735 0.23610 0.28996
 C202 C 0.73038 0.21710 0.30323
 C203 C 0.74562 0.21408 0.32366
 C204 C 0.76169 0.23244 0.32159
 H205 H 0.71597 0.20566 0.29779
 H206 H 0.77685 0.23574 0.33369
 H207 H 0.74195 0.27880 0.26682
 H208 H 0.76137 0.25251 0.25752
 C209 C 0.24698 0.00965 0.44074
 C210 C 0.24826 -0.01220 0.42870
 C211 C 0.24905 -0.03445 0.44131
 C212 C 0.24890 -0.03503 0.46689
 C213 C 0.24769 -0.01302 0.47941
 C214 C 0.24680 0.00940 0.46631
 C215 C 0.24657 0.03096 0.47915
 C216 C 0.24682 0.03057 0.50429
 C217 C 0.24728 0.00860 0.51765
 C218 C 0.24794 -0.01342 0.50512
 C219 C 0.25072 -0.05699 0.48031
 C220 C 0.25098 -0.05739 0.50547
 C221 C 0.24946 -0.03584 0.51825
 C222 C 0.25023 -0.03604 0.54385
 C223 C 0.24959 -0.01418 0.55590
 C224 C 0.24795 0.00804 0.54325
 H225 H 0.24659 0.04841 0.46992
 H226 H 0.24704 0.04774 0.51314
 H227 H 0.25235 -0.07415 0.47151
 H228 H 0.25275 -0.07481 0.51481
 H229 H 0.24832 -0.01187 0.40909
 H230 H 0.25016 -0.01447 0.57553
 C231 C 0.76114 -0.00968 0.55891
 C232 C 0.75807 0.01232 0.57049
 C233 C 0.75466 0.03422 0.55743
 C234 C 0.75325 0.03423 0.53185
 C235 C 0.75675 0.01219 0.51976
 C236 C 0.76143 -0.00972 0.53331
 C237 C 0.76677 -0.03093 0.52090
 C238 C 0.76564 -0.03105 0.49574
 C239 C 0.75896 -0.01000 0.48193
 C240 C 0.75541 0.01204 0.49404
 C241 C 0.74784 0.05557 0.51809
 C242 C 0.74637 0.05540 0.49294
 C243 C 0.75041 0.03390 0.48053
 C244 C 0.74906 0.03359 0.45495
 C245 C 0.75154 0.01159 0.44333
 C246 C 0.75625 -0.01024 0.45634
 H247 H 0.77216 -0.04765 0.53050
 H248 H 0.77026 -0.04786 0.48726
 H249 H 0.74426 0.07260 0.52662
 H250 H 0.74167 0.07230 0.48336
 H251 H 0.75818 0.01243 0.59008
 H252 H 0.74971 0.01149 0.42374
 C253 C 0.44825 0.25698 0.02164
 C254 C 0.43504 0.25786 -0.00046
 C255 C 0.44626 0.26039 -0.02239
 C256 C 0.47146 0.26214 -0.02247
 C257 C 0.48515 0.26131 -0.00022
 C258 C 0.47353 0.25860 0.02193
 C259 C 0.48746 0.25782 0.04372
 C260 C 0.51228 0.25969 0.04379
 C261 C 0.52414 0.26312 0.02212
 C262 C 0.51048 0.26333 -0.00015
 C263 C 0.48332 0.26459 -0.04422
 C264 C 0.50812 0.26630 -0.04417
 C265 C 0.52208 0.26548 -0.02236
 C266 C 0.54732 0.26708 -0.02220
 C267 C 0.56044 0.26771 -0.00016
 C268 C 0.54933 0.26592 0.02200
 H269 H 0.47933 0.25575 0.06100
 H270 H 0.52202 0.25822 0.06111
 H271 H 0.47352 0.26522 -0.06155
 H272 H 0.51619 0.26854 -0.06146
 H273 H 0.41567 0.25663 -0.00058
 H274 H 0.57974 0.26945 -0.00029
 C275 C 0.45611 0.74183 0.01803
 C276 C 0.44333 0.74018 -0.00418
 C277 C 0.45489 0.73984 -0.02608
 C278 C 0.48023 0.74027 -0.02597
 C279 C 0.49352 0.74240 -0.00374
 C280 C 0.48143 0.74371 0.01828
 C281 C 0.49499 0.74709 0.03986
 C282 C 0.51992 0.74740 0.04013
 C283 C 0.53233 0.74512 0.01870
 C284 C 0.51901 0.74293 -0.00351
 C285 C 0.49265 0.73796 -0.04740
 C286 C 0.51759 0.73806 -0.04712
 C287 C 0.53114 0.74069 -0.02542
 C288 C 0.55655 0.74037 -0.02489
 C289 C 0.56939 0.74201 -0.00277
 C290 C 0.55772 0.74449 0.01891
 H291 H 0.48651 0.74959 0.05685
 H292 H 0.52937 0.74932 0.05741
 H293 H 0.48322 0.73553 -0.06461
 H294 H 0.52614 0.73573 -0.06411
 H295 H 0.42395 0.73898 -0.00446
 H296 H 0.58887 0.74145 -0.00242
 C297 C -0.01900 0.56197 0.26731
 C298 C 0.00232 0.57351 0.26309
 C299 C 0.02381 0.56047 0.25944
 C300 C 0.02407 0.53483 0.26030
 C301 C 0.00258 0.52283 0.26490
 C302 C -0.01903 0.53643 0.26832
 C303 C -0.03996 0.52416 0.27320
 C304 C -0.03989 0.49904 0.27410
 C305 C -0.01883 0.48518 0.27042
 C306 C 0.00271 0.49715 0.26615
 C307 C 0.04504 0.52081 0.25638
 C308 C 0.04534 0.49569 0.25845
 C309 C 0.02441 0.48350 0.26341
 C310 C 0.02459 0.45802 0.26599
 C311 C 0.00319 0.44650 0.26991
 C312 C -0.01855 0.45962 0.27157
 H313 H -0.05663 0.53383 0.27660
 H314 H -0.05647 0.49060 0.27818
 H315 H 0.06153 0.52902 0.25171
 H316 H 0.06217 0.48592 0.25595
 H317 H 0.00213 0.59311 0.26257
 H318 H 0.00341 0.42692 0.27128
 C319 C -0.02898 0.53976 0.76110
 C320 C -0.00868 0.55284 0.75603
 C321 C 0.01363 0.54134 0.75272
 C322 C 0.01572 0.51580 0.75336
 C323 C -0.00451 0.50220 0.75872
 C324 C -0.02670 0.51419 0.76343
 C325 C -0.04579 0.50029 0.77079
 C326 C -0.04399 0.47516 0.77105
 C327 C -0.02297 0.46289 0.76414
 C328 C -0.00263 0.47651 0.75914
 C329 C 0.03733 0.50351 0.74819
 C330 C 0.03919 0.47839 0.74869
 C331 C 0.01949 0.46452 0.75432
 C332 C 0.02115 0.43896 0.75466
 C333 C 0.00059 0.42586 0.75821
 C334 C -0.02153 0.43737 0.76259
 H335 H -0.06231 0.50867 0.77657
 H336 H -0.05926 0.46545 0.77693
 H337 H 0.05295 0.51319 0.74326
 H338 H 0.05615 0.46996 0.74413
 H339 H -0.01024 0.57240 0.75449
 H340 H 0.00186 0.40631 0.75741
 C341 C 0.32564 0.27800 0.15022
 C342 C 0.34226 0.28028 0.13224
 C343 C 0.35909 0.26156 0.12848
 C344 C 0.35938 0.24050 0.14321
 C345 C 0.34278 0.23821 0.16129
 C346 C 0.32557 0.25687 0.16486
 N347 N 0.37513 0.26426 0.10920
 N348 N 0.39058 0.24790 0.10408
 C349 C 0.40591 0.25093 0.08420
 C350 C 0.42196 0.23202 0.07865
 C351 C 0.43623 0.23407 0.05857
 C352 C 0.43467 0.25520 0.04393
 C353 C 0.41882 0.27424 0.04964
 C354 C 0.40458 0.27218 0.06965
 H355 H 0.31289 0.29286 0.15259
 H356 H 0.34190 0.29661 0.12100
 H357 H 0.37222 0.22576 0.14060
 H358 H 0.34318 0.22162 0.17210
 H359 H 0.42309 0.21552 0.08966
 H360 H 0.44818 0.21911 0.05420
 H361 H 0.41729 0.29058 0.03840
 H362 H 0.39230 0.28704 0.07350
 C363 C 0.65842 0.78267 0.17136
 C364 C 0.64227 0.78322 0.15125
 C365 C 0.63891 0.76249 0.13785
 C366 C 0.65184 0.74104 0.14486
 C367 C 0.66793 0.74039 0.16492
 C368 C 0.67159 0.76121 0.17854
 N369 N 0.62252 0.76360 0.11713
 N370 N 0.61931 0.74521 0.10422
 C371 C 0.60330 0.74561 0.08329
 C372 C 0.60166 0.72458 0.06996
 C373 C 0.58662 0.72424 0.04918
 C374 C 0.57285 0.74495 0.04150
 C375 C 0.57443 0.76611 0.05480
 C376 C 0.58954 0.76645 0.07565
 H377 H 0.66043 0.79917 0.18111
 H378 H 0.63240 0.79989 0.14604
 H379 H 0.64959 0.72471 0.13482
 H380 H 0.67744 0.72341 0.16946
 H381 H 0.61223 0.70845 0.07563
 H382 H 0.58573 0.70784 0.03900
 H383 H 0.56408 0.78232 0.04894
 H384 H 0.59057 0.78293 0.08565
 C385 C 0.65810 0.29943 -0.16053
 C386 C 0.64323 0.30075 -0.14088
 C387 C 0.62920 0.28133 -0.13473
 C388 C 0.62991 0.26056 -0.14872
 C389 C 0.64475 0.25918 -0.16836
 C390 C 0.65923 0.27852 -0.17443
 N391 N 0.61483 0.28289 -0.11396
 N392 N 0.60197 0.26565 -0.10732
 C393 C 0.58792 0.26678 -0.08632
 C394 C 0.57434 0.24697 -0.08020
 C395 C 0.56092 0.24716 -0.05948
 C396 C 0.56080 0.26733 -0.04466
 C397 C 0.57442 0.28721 -0.05072
 C398 C 0.58785 0.28700 -0.07147
 H399 H 0.66884 0.31474 -0.16458
 H400 H 0.64284 0.31688 -0.13023
 H401 H 0.61921 0.24527 -0.14434
 H402 H 0.64496 0.24280 -0.17853
 H403 H 0.57436 0.23125 -0.09142
 H404 H 0.55076 0.23154 -0.05487
 H405 H 0.57465 0.30282 -0.03936
 H406 H 0.59829 0.30249 -0.07578
 C407 C 0.32820 0.70532 -0.15723
 C408 C 0.34549 0.70474 -0.13818
 C409 C 0.36070 0.72399 -0.13502
 C410 C 0.35863 0.74386 -0.15138
 C411 C 0.34133 0.74448 -0.17048
 C412 C 0.32577 0.72527 -0.17355
 N413 N 0.37763 0.72307 -0.11479
 N414 N 0.39203 0.73992 -0.11063
 C415 C 0.40845 0.73900 -0.08997
 C416 C 0.42357 0.75828 -0.08619
 C417 C 0.43905 0.75839 -0.06563
 C418 C 0.43969 0.73907 -0.04866
 C419 C 0.42468 0.71965 -0.05252
 C420 C 0.40922 0.71956 -0.07305
 H421 H 0.31680 0.69005 -0.15908
 H422 H 0.34694 0.68929 -0.12572
 H423 H 0.37022 0.75898 -0.14928
 H424 H 0.33997 0.76019 -0.18256
 H425 H 0.42309 0.77341 -0.09903
 H426 H 0.45028 0.77367 -0.06275
 H427 H 0.42482 0.70469 -0.03950
 H428 H 0.39767 0.70447 -0.07552
 C429 C 0.16370 0.34378 0.22435
 C430 C 0.14595 0.36225 0.22478
 C431 C 0.13467 0.36737 0.24623
 C432 C 0.14145 0.35381 0.26742
 C433 C 0.15914 0.33529 0.26701
 C434 C 0.17044 0.32998 0.24545
 N435 N 0.11603 0.38591 0.24590
 N436 N 0.10545 0.39163 0.26495
 C437 C 0.08628 0.40959 0.26482
 C438 C 0.07536 0.41435 0.28656
 C439 C 0.05570 0.43066 0.28696
 C440 C 0.04677 0.44258 0.26559
 C441 C 0.05788 0.43817 0.24379
 C442 C 0.07759 0.42179 0.24339
 H443 H 0.17182 0.34012 0.20737
 H444 H 0.14081 0.37249 0.20831
 H445 H 0.13298 0.35740 0.28425
 H446 H 0.16399 0.32523 0.28364
 H447 H 0.08184 0.40501 0.30315
 H448 H 0.04714 0.43371 0.30387
 H449 H 0.05098 0.44702 0.22710
 H450 H 0.08570 0.41833 0.22635
 C451 C 0.16508 0.63787 0.76821
 C452 C 0.14675 0.62150 0.76979
 C453 C 0.12787 0.62191 0.75236
 C454 C 0.12754 0.63889 0.73306
 C455 C 0.14587 0.65532 0.73138
 C456 C 0.16496 0.65519 0.74901
 N457 N 0.10915 0.60516 0.75497
 N458 N 0.09129 0.60451 0.73992
 C459 C 0.07248 0.58794 0.74299
 C460 C 0.05308 0.58846 0.72605
 C461 C 0.03407 0.57305 0.72898
 C462 C 0.03434 0.55676 0.74887
 C463 C 0.05381 0.55618 0.76583
 C464 C 0.07280 0.57158 0.76289
 H465 H 0.17917 0.63682 0.78226
 H466 H 0.14718 0.60849 0.78477
 H467 H 0.11309 0.63955 0.71934
 H468 H 0.14481 0.66811 0.71625
 H469 H 0.05258 0.60102 0.71069
 H470 H 0.01908 0.57388 0.71583
 H471 H 0.05413 0.54397 0.78147
 H472 H 0.08755 0.57088 0.77629
 C473 C -0.17805 0.65949 0.25091
 C474 C -0.15863 0.64300 0.24938
 C475 C -0.13938 0.64281 0.26636
 C476 C -0.13980 0.65928 0.28521
 C477 C -0.15918 0.67585 0.28680
 C478 C -0.17862 0.67637 0.26957
 N479 N -0.11950 0.62607 0.26379
 N480 N -0.10136 0.62490 0.27859
 C481 C -0.08131 0.60845 0.27572
 C482 C -0.06199 0.60821 0.29275
 C483 C -0.04186 0.59286 0.29017
 C484 C -0.04085 0.57740 0.27054
 C485 C -0.06017 0.57762 0.25341
 C486 C -0.08033 0.59297 0.25601
 H487 H -0.19240 0.65893 0.23721
 H488 H -0.15851 0.63041 0.23474
 H489 H -0.12508 0.65948 0.29860
 H490 H -0.15864 0.68824 0.30155
 H491 H -0.06248 0.62012 0.30794
 H492 H -0.02700 0.59306 0.30343
 H493 H -0.05952 0.56604 0.23797
 H494 H -0.09498 0.59292 0.24253
 C495 C -0.18448 0.35881 0.75618
 C496 C -0.16545 0.37450 0.75725
 C497 C -0.14178 0.36558 0.75614
 C498 C -0.13726 0.34075 0.75334
 C499 C -0.15628 0.32508 0.75154
 C500 C -0.18023 0.33381 0.75316
 N501 N -0.12267 0.38207 0.75733
 N502 N -0.10136 0.37522 0.76418
 C503 C -0.08203 0.39149 0.76432
 C504 C -0.06130 0.38580 0.77880
 C505 C -0.04194 0.40110 0.77885
 C506 C -0.04286 0.42214 0.76401
 C507 C -0.06355 0.42753 0.74914
 C508 C -0.08314 0.41257 0.74959
 H509 H -0.20249 0.36653 0.75717
 H510 H -0.16913 0.39366 0.75924
 H511 H -0.11905 0.33352 0.75221
 H512 H -0.15197 0.30608 0.74944
 H513 H -0.06020 0.36951 0.79011
 H514 H -0.02612 0.39640 0.79031
 H515 H -0.06442 0.44320 0.73695
 H516 H -0.09886 0.41709 0.73795
 C517 C 0.27720 0.14806 0.32257
 C518 C 0.27810 0.12808 0.33856
 C519 C 0.25840 0.12293 0.35230
 C520 C 0.23770 0.13822 0.35009
 C521 C 0.23677 0.15827 0.33411
 C522 C 0.25647 0.16335 0.32002
 N523 N 0.25981 0.10188 0.36797
 N524 N 0.24261 0.09583 0.38094
 C525 C 0.24423 0.07447 0.39621
 C526 C 0.22471 0.06877 0.41009
 C527 C 0.22561 0.04779 0.42478
 C528 C 0.24616 0.03231 0.42586
 C529 C 0.26570 0.03796 0.41192
 C530 C 0.26481 0.05892 0.39725
 H531 H 0.29284 0.15148 0.31230
 H532 H 0.29418 0.11646 0.34015
 H533 H 0.22220 0.13459 0.36052
 H534 H 0.22045 0.16950 0.33256
 H535 H 0.20873 0.08053 0.40936
 H536 H 0.21026 0.04351 0.43521
 H537 H 0.28162 0.02610 0.41241
 H538 H 0.28010 0.06286 0.38664
 C539 C 0.71927 0.16237 0.68084
 C540 C 0.71899 0.14360 0.66448
 C541 C 0.73710 0.14098 0.64797
 C542 C 0.75561 0.15749 0.64790
 C543 C 0.75596 0.17626 0.66431
 C544 C 0.73781 0.17890 0.68103
 N545 N 0.73651 0.12112 0.63194
 N546 N 0.75216 0.11768 0.61621
 C547 C 0.75168 0.09736 0.60072
 C548 C 0.76960 0.09442 0.58399
 C549 C 0.77027 0.07417 0.56945
 C550 C 0.75286 0.05665 0.57137
 C551 C 0.73475 0.05970 0.58796
 C552 C 0.73409 0.07994 0.60249
 H553 H 0.70510 0.16362 0.69353
 H554 H 0.70468 0.13093 0.66477
 H555 H 0.76984 0.15582 0.63529
 H556 H 0.77040 0.18873 0.66377
 H557 H 0.78330 0.10764 0.58253
 H558 H 0.78460 0.07190 0.55701
 H559 H 0.72131 0.04625 0.58984
 H560 H 0.72008 0.08175 0.61533
 C561 C 0.22229 -0.18697 0.64735
 C562 C 0.22139 -0.16821 0.62986
 C563 C 0.24107 -0.15363 0.62714
 C564 C 0.26193 -0.15824 0.64195
 C565 C 0.26287 -0.17697 0.65943
 C566 C 0.24299 -0.19147 0.66250
 N567 N 0.23927 -0.13396 0.60971
 N568 N 0.25638 -0.11972 0.60698
 C569 C 0.25475 -0.09963 0.59009
 C570 C 0.27404 -0.08426 0.58916
 C571 C 0.27272 -0.06383 0.57375
 C572 C 0.25209 -0.05862 0.55885
 C573 C 0.23280 -0.07414 0.55951
 C574 C 0.23411 -0.09456 0.57502
 H575 H 0.20659 -0.19763 0.64917
 H576 H 0.20520 -0.16484 0.61858
 H577 H 0.27745 -0.14729 0.64015
 H578 H 0.27923 -0.18000 0.67047
 H579 H 0.29000 -0.08795 0.60071
 H580 H 0.28768 -0.05193 0.57359
 H581 H 0.21664 -0.07018 0.54832
 H582 H 0.21894 -0.10616 0.57546
 C583 C 0.75669 -0.13211 0.32251
 C584 C 0.75897 -0.11227 0.33740
 C585 C 0.75990 -0.11547 0.36259
 C586 C 0.75929 -0.13892 0.37282
 C587 C 0.75765 -0.15885 0.35793
 C588 C 0.75601 -0.15558 0.33265
 N589 N 0.76119 -0.09465 0.37731
 N590 N 0.75513 -0.09510 0.39922
 C591 C 0.75649 -0.07423 0.41386
 C592 C 0.74241 -0.07270 0.43412
 C593 C 0.74240 -0.05201 0.44803
 C594 C 0.75722 -0.03286 0.44243
 C595 C 0.77168 -0.03464 0.42232
 C596 C 0.77120 -0.05508 0.40804
 H597 H 0.75568 -0.12914 0.30307
 H598 H 0.75953 -0.09429 0.32932
 H599 H 0.76017 -0.14181 0.39227
 H600 H 0.75708 -0.17676 0.36616
 H601 H 0.73088 -0.08728 0.43868
 H602 H 0.73061 -0.05081 0.46303
 H603 H 0.78314 -0.02007 0.41754
 H604 H 0.78232 -0.05593 0.39251
 C605 C 0.64940 0.76449 -0.17796
 C606 C 0.63319 0.76537 -0.15942
 C607 C 0.63303 0.74660 -0.14205
 C608 C 0.64923 0.72670 -0.14352
 C609 C 0.66546 0.72577 -0.16206
 C610 C 0.66584 0.74473 -0.17947
 N611 N 0.61666 0.74845 -0.12287
 N612 N 0.61572 0.73207 -0.10642
 C613 C 0.59981 0.73409 -0.08688
 C614 C 0.60039 0.71560 -0.06911
 C615 C 0.58595 0.71746 -0.04919
 C616 C 0.57055 0.73781 -0.04688
 C617 C 0.56972 0.75627 -0.06480
 C618 C 0.58422 0.75442 -0.08473
 H619 H 0.64893 0.77934 -0.19108
 H620 H 0.62079 0.78081 -0.15849
 H621 H 0.64951 0.71197 -0.13025
 H622 H 0.67789 0.71034 -0.16247
 H623 H 0.61233 0.69988 -0.07054
 H624 H 0.58691 0.70313 -0.03544
 H625 H 0.55812 0.77221 -0.06316
 H626 H 0.58347 0.76896 -0.09823
 C627 C 0.34089 0.22459 -0.17096
 C628 C 0.35621 0.22437 -0.15031
 C629 C 0.36215 0.24598 -0.13948
 C630 C 0.35244 0.26800 -0.14949
 C631 C 0.33694 0.26825 -0.17005
 C632 C 0.33103 0.24653 -0.18106
 N633 N 0.37783 0.24498 -0.11827
 N634 N 0.38555 0.26388 -0.10848
 C635 C 0.40099 0.26258 -0.08707
 C636 C 0.41047 0.28385 -0.07827
 C637 C 0.42542 0.28317 -0.05730
 C638 C 0.43096 0.26114 -0.04487
 C639 C 0.42142 0.23983 -0.05355
 C640 C 0.40660 0.24049 -0.07459
 H641 H 0.33654 0.20751 -0.17878
 H642 H 0.36351 0.20729 -0.14271
 H643 H 0.35675 0.28496 -0.14139
 H644 H 0.32980 0.28545 -0.17746
 H645 H 0.40624 0.30097 -0.08769
 H646 H 0.43259 0.29977 -0.05068
 H647 H 0.42548 0.22273 -0.04402
 H648 H 0.39943 0.22381 -0.08097
 C649 C 0.32436 0.72975 0.13865
 C650 C 0.33866 0.73138 0.11859
 C651 C 0.36304 0.73625 0.12159
 C652 C 0.37293 0.73997 0.14490
 C653 C 0.35846 0.73914 0.16489
 C654 C 0.33410 0.73385 0.16193
 N655 N 0.37723 0.73793 0.10073
 N656 N 0.39982 0.73359 0.10197
 C657 C 0.41398 0.73621 0.08118
 C658 C 0.43490 0.72173 0.07948
 C659 C 0.44861 0.72346 0.05899
 C660 C 0.44224 0.74062 0.04040
 C661 C 0.42140 0.75541 0.04239
 C662 C 0.40725 0.75307 0.06249
 H663 H 0.30556 0.72588 0.13593
 H664 H 0.33082 0.72863 0.10068
 H665 H 0.39169 0.74401 0.14756
 H666 H 0.36632 0.74235 0.18269
 H667 H 0.44019 0.70858 0.09373
 H668 H 0.46412 0.71131 0.05756
 H669 H 0.41599 0.76866 0.02827
 H670 H 0.39121 0.76455 0.06358
 C671 C 0.68994 0.26924 0.14496
 C672 C 0.67413 0.26825 0.12475
 C673 C 0.64934 0.26786 0.12756
 C674 C 0.64045 0.26806 0.15091
 C675 C 0.65629 0.26837 0.17119
 C676 C 0.68116 0.26910 0.16835
 N677 N 0.63366 0.26658 0.10651
 N678 N 0.61156 0.27317 0.10651
 C679 C 0.59596 0.27092 0.08554
 C680 C 0.57522 0.28593 0.08255
 C681 C 0.56003 0.28443 0.06190
 C682 C 0.56485 0.26715 0.04444
 C683 C 0.58555 0.25193 0.04765
 C684 C 0.60107 0.25391 0.06793
 H685 H 0.70905 0.26954 0.14233
 H686 H 0.68118 0.26794 0.10684
 H687 H 0.62134 0.26753 0.15347
 H688 H 0.64912 0.26829 0.18905
 H689 H 0.57116 0.29919 0.09595
 H690 H 0.54455 0.29681 0.05950
 H691 H 0.58975 0.23859 0.03435
 H692 H 0.61692 0.24201 0.06998
 C693 C -0.15503 0.67350 0.73924
 C694 C -0.13472 0.65812 0.74284
 C695 C -0.13601 0.63624 0.75573
 C696 C -0.15766 0.63018 0.76587
 C697 C -0.17783 0.64602 0.76314
 C698 C -0.17693 0.66776 0.74940
 N699 N -0.11509 0.62050 0.75814
 N700 N -0.11642 0.59762 0.75883
 C701 C -0.09515 0.58235 0.76115
 C702 C -0.09403 0.56094 0.74834
 C703 C -0.07263 0.54696 0.74844
 C704 C -0.05235 0.55353 0.76240
 C705 C -0.05386 0.57465 0.77590
 C706 C -0.07498 0.58910 0.77505
 H707 H -0.15320 0.69015 0.72895
 H708 H -0.11803 0.66301 0.73508
 H709 H -0.15886 0.61337 0.77610
 H710 H -0.19425 0.64074 0.77117
 H711 H -0.10941 0.55571 0.73736
 H712 H -0.07176 0.53125 0.73722
 H713 H -0.03850 0.58022 0.78673
 H714 H -0.07560 0.60558 0.78514
 C715 C -0.16889 0.36402 0.24079
 C716 C -0.15114 0.38119 0.24114
 C717 C -0.13413 0.38151 0.26044
 C718 C -0.13522 0.36457 0.27966
 C719 C -0.15295 0.34743 0.27936
 C720 C -0.16993 0.34682 0.25985
 N721 N -0.11555 0.39864 0.25977
 N722 N -0.09934 0.39945 0.27660
 C723 C -0.08022 0.41595 0.27576
 C724 C -0.06239 0.41479 0.29439
 C725 C -0.04264 0.42950 0.29340
 C726 C -0.04059 0.44577 0.27379
 C727 C -0.05867 0.44727 0.25530
 C728 C -0.07840 0.43249 0.25627
 H729 H -0.18174 0.36430 0.22557
 H730 H -0.15049 0.39416 0.22621
 H731 H -0.12223 0.36438 0.29478
 H732 H -0.15300 0.33443 0.29429
 H733 H -0.06356 0.40206 0.30945
 H734 H -0.02875 0.42796 0.30771
 H735 H -0.05719 0.45947 0.23986
 H736 H -0.09192 0.43366 0.24162
 C737 C 0.15494 0.32048 0.70891
 C738 C 0.13470 0.33603 0.70990
 C739 C 0.13268 0.35221 0.72872
 C740 C 0.15136 0.35294 0.74651
 C741 C 0.17163 0.33741 0.74556
 C742 C 0.17360 0.32083 0.72684
 N743 N 0.11131 0.36728 0.72961
 N744 N 0.10823 0.38229 0.74631
 C745 C 0.08662 0.39696 0.74746
 C746 C 0.08442 0.41294 0.76648
 C747 C 0.06327 0.42690 0.76862
 C748 C 0.04405 0.42517 0.75160
 C749 C 0.04625 0.40922 0.73247
 C750 C 0.06742 0.39524 0.73035
 H751 H 0.15586 0.30822 0.69407
 H752 H 0.12044 0.33535 0.69605
 H753 H 0.15021 0.36530 0.76127
 H754 H 0.18550 0.33820 0.75975
 H755 H 0.09904 0.41433 0.77983
 H756 H 0.06173 0.43886 0.78369
 H757 H 0.03153 0.40752 0.71929
 H758 H 0.06865 0.38296 0.71553
 C759 C 0.18579 0.63998 0.24377
 C760 C 0.16745 0.62359 0.24574
 C761 C 0.14368 0.63192 0.24808
 C762 C 0.13843 0.65690 0.24879
 C763 C 0.15684 0.67324 0.24756
 C764 C 0.18064 0.66493 0.24495
 N765 N 0.12520 0.61487 0.25037
 N766 N 0.10345 0.62055 0.24415
 C767 C 0.08444 0.60433 0.24744
 C768 C 0.06335 0.60757 0.23295
 C769 C 0.04405 0.59271 0.23635
 C770 C 0.04533 0.57464 0.25473
 C771 C 0.06639 0.57170 0.26959
 C772 C 0.08599 0.58614 0.26569
 H773 H 0.20406 0.63316 0.24199
 H774 H 0.17171 0.60437 0.24527
 H775 H 0.12021 0.66371 0.25082
 H776 H 0.15245 0.69240 0.24848
 H777 H 0.06189 0.62168 0.21898
 H778 H 0.02791 0.59554 0.22485
 H779 H 0.06752 0.55844 0.28438
 H780 H 0.10200 0.58368 0.27740
 C781 C 0.74925 -0.17526 0.64281
 C782 C 0.75080 -0.15589 0.62633
 C783 C 0.75213 -0.13228 0.63450
 C784 C 0.75132 -0.12810 0.65939
 C785 C 0.74905 -0.14739 0.67583
 C786 C 0.74819 -0.17113 0.66767
 N787 N 0.75363 -0.11280 0.61721
 N788 N 0.76222 -0.09269 0.62299
 C789 C 0.76266 -0.07280 0.60600
 C790 C 0.77830 -0.05415 0.61061
 C791 C 0.77849 -0.03408 0.59479
 C792 C 0.76267 -0.03216 0.57429
 C793 C 0.74679 -0.05082 0.56986
 C794 C 0.74703 -0.07115 0.58537
 H795 H 0.74842 -0.19340 0.63609
 H796 H 0.75123 -0.15930 0.60718
 H797 H 0.75206 -0.10993 0.66606
 H798 H 0.74834 -0.14381 0.69493
 H799 H 0.79033 -0.05517 0.62653
 H800 H 0.79073 -0.01984 0.59873
 H801 H 0.73392 -0.04943 0.55462
 H802 H 0.73451 -0.08520 0.58169
 C803 C 0.28684 -0.16658 0.32245
 C804 C 0.28702 -0.14759 0.33859
 C805 C 0.26738 -0.14295 0.35287
 C806 C 0.24752 -0.15773 0.35102
 C807 C 0.24729 -0.17671 0.33488
 C808 C 0.26690 -0.18132 0.32026
 N809 N 0.26788 -0.12289 0.36866
 N810 N 0.25064 -0.11765 0.38215
 C811 C 0.25100 -0.09725 0.39753
 C812 C 0.23139 -0.09247 0.41185
 C813 C 0.23085 -0.07225 0.42644
 C814 C 0.25007 -0.05661 0.42695
 C815 C 0.26976 -0.06141 0.41266
 C816 C 0.27030 -0.08163 0.39810
 H817 H 0.30236 -0.16955 0.31172
 H818 H 0.30245 -0.13634 0.33987
 H819 H 0.23209 -0.15449 0.36186
 H820 H 0.23157 -0.18752 0.33378
 H821 H 0.21637 -0.10431 0.41149
 H822 H 0.21537 -0.06861 0.43712
 H823 H 0.28465 -0.04940 0.41271
 H824 H 0.28564 -0.08489 0.38715
 C825 C 0.76506 0.19177 0.36000
 C826 C 0.76632 0.17232 0.37666
 C827 C 0.74883 0.15492 0.37602
 C828 C 0.72964 0.15743 0.35875
 C829 C 0.72832 0.17689 0.34205
 C830 C 0.74619 0.19418 0.34226
 N831 N 0.75141 0.13463 0.39261
 N832 N 0.73646 0.11784 0.39281
 C833 C 0.73957 0.09730 0.40907
 C834 C 0.72244 0.07948 0.40839
 C835 C 0.72535 0.05886 0.42351
 C836 C 0.74543 0.05590 0.43965
 C837 C 0.76264 0.07373 0.44032
 C838 C 0.75971 0.09435 0.42522
 H839 H 0.77917 0.20459 0.36091
 H840 H 0.78120 0.17058 0.38990
 H841 H 0.71582 0.14423 0.35795
 H842 H 0.71339 0.17814 0.32890
 H843 H 0.70691 0.08151 0.39596
 H844 H 0.71200 0.04518 0.42262
 H845 H 0.77842 0.07155 0.45241
 H846 H 0.77327 0.10780 0.42600
 C847 C 0.28052 0.14262 0.66048
 C848 C 0.28097 0.12297 0.64520
 C849 C 0.26105 0.11844 0.63004
 C850 C 0.24056 0.13398 0.63014
 C851 C 0.24007 0.15369 0.64542
 C852 C 0.26002 0.15819 0.66088
 N853 N 0.26209 0.09781 0.61503
 N854 N 0.24469 0.09235 0.60083
 C855 C 0.24600 0.07144 0.58618
 C856 C 0.22625 0.06628 0.57096
 C857 C 0.22687 0.04576 0.55678
 C858 C 0.24738 0.03023 0.55758
 C859 C 0.26714 0.03534 0.57287
 C860 C 0.26651 0.05583 0.58703
 H861 H 0.29632 0.14558 0.67186
 H862 H 0.29688 0.11113 0.64523
 H863 H 0.22491 0.13081 0.61858
 H864 H 0.22392 0.16514 0.64530
 H865 H 0.21031 0.07811 0.57023
 H866 H 0.21135 0.04189 0.54529
 H867 H 0.28302 0.02342 0.57383
 H868 H 0.28198 0.05936 0.59871
   
