data_POSCAR
  _audit_creation_date              2014-09-24
  _audit_creation_method            'ToBaCCo'
  _symmetry_space_group_name_H-M    'P1'
  _symmetry_Int_Tables_number       1
  _symmetry_cell_setting            triclinic
  loop_
  _symmetry_equiv_pos_as_xyz
 x,y,z
_cell_length_a 18.5985
_cell_length_b 18.2155
_cell_length_c 17.1170
_cell_angle_alpha 89.830900
_cell_angle_beta 90.068700
_cell_angle_gamma 89.924100
loop_
  _atom_site_label
  _atom_site_type_symbol
  _atom_site_fract_x
  _atom_site_fract_y
  _atom_site_fract_z
C1 C 1.25003 0.24993 0.24969
 C2 C 0.74864 -0.24791 0.24828
 C3 C 0.74919 0.24849 -0.25090
 C4 C 1.24897 -0.24821 -0.25019
 C5 C 0.25013 0.24611 0.75048
 C6 C 0.75076 0.75175 0.75036
 C7 C 0.74944 0.24948 0.24959
 C8 C 0.25641 0.74959 0.24975
 O9 O 1.09987 0.12630 0.14354
 O10 O 1.18123 0.05845 0.07346
 C11 C 1.16521 0.10826 0.12471
 O12 O 0.89646 -0.13525 0.13273
 O13 O 0.81654 -0.06389 0.06454
 C14 C 0.83168 -0.11590 0.11352
 O15 O 1.09307 -0.13674 0.14527
 O16 O 1.17610 -0.07061 0.07527
 C17 C 1.15845 -0.12033 0.12700
 O18 O 0.89959 0.13402 0.13473
 O19 O 0.81819 0.06572 0.06536
 C20 C 0.83427 0.11662 0.11516
 Zr21 Zr 0.99949 0.08912 0.10196
 O22 O 0.99065 0.08074 0.22508
 O23 O 1.00696 0.20453 0.11202
 Zr24 Zr 0.99709 -0.09407 0.09977
 O25 O 0.98779 -0.09068 0.22308
 O26 O 1.00243 -0.21020 0.10193
 O27 O 1.06354 -0.00353 0.11733
 O28 O 0.93457 -0.00169 0.11433
 O29 O 0.90159 0.13521 -0.13231
 O30 O 0.81940 0.06598 -0.06515
 C31 C 0.83600 0.11732 -0.11435
 O32 O 1.09990 -0.12892 -0.13804
 O33 O 1.18126 -0.06588 -0.06310
 C34 C 1.16518 -0.11299 -0.11714
 O35 O 0.89998 -0.13350 -0.13348
 O36 O 0.81844 -0.06394 -0.06578
 C37 C 0.83468 -0.11508 -0.11530
 O38 O 1.10174 0.12770 -0.13579
 O39 O 1.18219 0.06086 -0.06265
 C40 C 1.16679 0.10992 -0.11558
 Zr41 Zr 1.00122 0.09170 -0.09476
 O42 O 0.99488 0.09078 -0.21833
 O43 O 1.00975 0.20763 -0.09595
 Zr44 Zr 0.99971 -0.09174 -0.09675
 O45 O 0.99296 -0.08606 -0.22020
 O46 O 1.00636 -0.20758 -0.10299
 Zr47 Zr 1.10838 -0.00278 0.00419
 Zr48 Zr 0.89078 0.00017 0.00084
 O49 O 0.93727 0.00081 -0.11120
 O50 O 1.06577 -0.00063 -0.11024
 O51 O 0.93634 0.10623 0.00283
 O52 O 1.06084 -0.10758 0.00227
 O53 O 1.06296 0.10337 0.00449
 O54 O 0.93403 -0.10702 0.00036
 H55 H 0.90127 -0.00152 0.15949
 H56 H 1.09143 -0.15214 0.00212
 H57 H 0.90521 0.00149 -0.15748
 H58 H 1.09444 0.14720 0.00492
 H59 H 0.96563 -0.22891 0.06536
 H60 H 0.97098 -0.22778 -0.06566
 H61 H 1.03745 -0.06259 -0.23963
 H62 H 1.03727 0.06382 -0.23816
 H63 H 0.97024 0.22743 -0.06361
 H64 H 0.98018 0.22578 0.06747
 H65 H 1.03707 0.06228 0.24556
 H66 H 1.03086 -0.06556 0.24386
 O67 O 1.09840 0.62927 0.64118
 O68 O 1.18021 0.56161 0.57157
 C69 C 1.16378 0.61154 0.62282
 O70 O 0.89862 0.36312 0.63044
 O71 O 0.81769 0.43563 0.56468
 C72 C 0.83346 0.38245 0.61283
 O73 O 1.09732 0.36615 0.63767
 O74 O 1.17958 0.43397 0.56850
 C75 C 1.16288 0.38359 0.61948
 O76 O 0.90027 0.63672 0.63209
 O77 O 0.81832 0.56776 0.56422
 C78 C 0.83486 0.61915 0.61373
 Zr79 Zr 0.99903 0.58976 0.60005
 O80 O 0.99087 0.57618 0.72276
 O81 O 1.00286 0.70461 0.61661
 Zr82 Zr 0.99820 0.40651 0.59552
 O83 O 0.99029 0.40787 0.71897
 O84 O 1.00370 0.29038 0.59563
 O85 O 1.06382 0.49744 0.61410
 O86 O 0.93478 0.49845 0.61159
 O87 O 0.90087 0.63863 0.36690
 O88 O 0.81876 0.56707 0.43193
 C89 C 0.83533 0.61975 0.38396
 O90 O 1.09923 0.37141 0.35939
 O91 O 1.18068 0.43715 0.43156
 C92 C 1.16453 0.38815 0.37919
 O93 O 0.90034 0.36584 0.36563
 O94 O 0.81839 0.43624 0.43186
 C95 C 0.83485 0.38423 0.38314
 O96 O 1.10179 0.63696 0.36257
 O97 O 1.17921 0.56553 0.43486
 C98 C 1.16600 0.61747 0.38465
 Zr99 Zr 1.00102 0.59522 0.40279
 O100 O 0.99541 0.59230 0.27923
 O101 O 1.00698 0.71130 0.40190
 Zr102 Zr 0.99952 0.41184 0.39872
 O103 O 0.99298 0.42581 0.27593
 O104 O 1.00232 0.29704 0.38144
 Zr105 Zr 1.10816 0.49992 0.50074
 Zr106 Zr 0.89047 0.50149 0.49850
 O107 O 0.93652 0.50408 0.38606
 O108 O 1.06591 0.50316 0.38624
 O109 O 0.93599 0.60773 0.50104
 O110 O 1.06119 0.39483 0.49748
 O111 O 1.06230 0.60574 0.50258
 O112 O 0.93471 0.39474 0.49627
 H113 H 0.90149 0.49823 0.65675
 H114 H 1.09204 0.35048 0.49725
 H115 H 0.90375 0.50445 0.34036
 H116 H 1.09321 0.64995 0.50373
 H117 H 0.96711 0.27232 0.55835
 H118 H 1.00693 0.27432 0.43365
 H119 H 1.04132 0.43950 0.25672
 H120 H 1.04042 0.56975 0.25995
 H121 H 0.96957 0.72987 0.43787
 H122 H 1.00492 0.72702 0.56406
 H123 H 1.03884 0.56195 0.74286
 H124 H 1.03383 0.43222 0.73964
 O125 O 0.59875 0.12649 0.64155
 O126 O 0.68092 0.06187 0.56924
 C127 C 0.66410 0.11005 0.62196
 O128 O 0.40114 -0.13776 0.63036
 O129 O 0.31942 -0.06680 0.56373
 C130 C 0.33592 -0.11892 0.61264
 O131 O 0.59928 -0.13173 0.63742
 O132 O 0.68109 -0.06506 0.56649
 C133 C 0.66449 -0.11416 0.61858
 O134 O 0.40056 0.13200 0.63406
 O135 O 0.31893 0.06449 0.56388
 C136 C 0.33538 0.11478 0.61471
 Zr137 Zr 0.49967 0.08859 0.59902
 O138 O 0.49145 0.07906 0.72214
 O139 O 0.50612 0.20411 0.60927
 Zr140 Zr 0.50019 -0.09447 0.59441
 O141 O 0.49201 -0.09511 0.71785
 O142 O 0.50816 -0.21047 0.59347
 O143 O 0.56509 -0.00311 0.61274
 O144 O 0.43636 -0.00328 0.61071
 O145 O 0.40106 0.13682 0.36713
 O146 O 0.31932 0.06431 0.43129
 C147 C 0.33585 0.11741 0.38383
 O148 O 0.60017 -0.12641 0.35609
 O149 O 0.68161 -0.06218 0.42966
 C150 C 0.66518 -0.11013 0.37646
 O151 O 0.40427 -0.13189 0.35782
 O152 O 0.32133 -0.06785 0.42987
 C153 C 0.33899 -0.11658 0.37760
 O154 O 0.59961 0.13165 0.36158
 O155 O 0.68138 0.06513 0.43313
 C156 C 0.66483 0.11434 0.38107
 Zr157 Zr 0.50034 0.09350 0.40274
 O158 O 0.49282 0.09323 0.27921
 O159 O 0.50751 0.20953 0.40213
 Zr160 Zr 0.50133 -0.08945 0.39826
 O161 O 0.49491 -0.08175 0.27486
 O162 O 0.50871 -0.20530 0.39224
 Zr163 Zr 0.60927 -0.00014 0.49926
 Zr164 Zr 0.39143 -0.00088 0.49783
 O165 O 0.43740 0.00209 0.38565
 O166 O 0.56614 0.00259 0.38526
 O167 O 0.43563 0.10577 0.50078
 O168 O 0.56340 -0.10573 0.49652
 O169 O 0.56242 0.10521 0.50151
 O170 O 0.43633 -0.10718 0.49553
 H171 H 0.40370 -0.00393 0.65641
 H172 H 0.59469 -0.14978 0.49594
 H173 H 0.40531 0.00294 0.33939
 H174 H 0.59319 0.14957 0.50248
 H175 H 0.46921 -0.22943 0.55976
 H176 H 0.47245 -0.22587 0.42835
 H177 H 0.53922 -0.05761 0.25585
 H178 H 0.53628 0.06872 0.25852
 H179 H 0.46938 0.22863 0.43681
 H180 H 0.47602 0.22539 0.56730
 H181 H 0.53755 0.05932 0.74212
 H182 H 0.53353 -0.06764 0.73893
 O183 O 0.36981 0.40038 -0.13990
 O184 O 0.43595 0.31600 -0.07038
 C185 C 0.38645 0.33352 -0.12124
 O186 O 0.63749 0.59960 -0.13056
 O187 O 0.56590 0.68455 -0.06963
 C188 C 0.61885 0.66647 -0.11567
 O189 O 0.63032 0.40075 -0.13898
 O190 O 0.56414 0.31626 -0.07014
 C191 C 0.61376 0.33400 -0.12075
 O192 O 0.36331 0.60083 -0.13149
 O193 O 0.43282 0.68556 -0.06728
 C194 C 0.38093 0.66771 -0.11491
 Zr195 Zr 0.41099 0.50102 -0.10054
 O196 O 0.42296 0.50881 -0.22341
 O197 O 0.29830 0.49790 -0.11624
 Zr198 Zr 0.58895 0.50064 -0.09938
 O199 O 0.57757 0.50868 -0.22235
 O200 O 0.70180 0.49704 -0.11363
 O201 O 0.49998 0.43333 -0.11528
 O202 O 0.50007 0.56688 -0.11454
 O203 O 0.36670 0.60256 0.13119
 O204 O 0.43670 0.68643 0.06619
 C205 C 0.38535 0.66934 0.11468
 O206 O 0.62774 0.40104 0.13999
 O207 O 0.56349 0.31654 0.06928
 C208 C 0.61216 0.33433 0.12094
 O209 O 0.63208 0.60010 0.13388
 O210 O 0.56707 0.68495 0.06381
 C211 C 0.61669 0.66688 0.11433
 O212 O 0.37011 0.40152 0.13822
 O213 O 0.43507 0.31671 0.06847
 C214 C 0.38609 0.33463 0.11963
 Zr215 Zr 0.40978 0.50129 0.09573
 O216 O 0.41970 0.50353 0.21873
 O217 O 0.29612 0.49666 0.10120
 Zr218 Zr 0.58840 0.50054 0.09700
 O219 O 0.58183 0.50678 0.22041
 O220 O 0.70206 0.49429 0.10161
 Zr221 Zr 0.49949 0.38862 -0.00120
 Zr222 Zr 0.49994 0.61278 -0.00186
 O223 O 0.49924 0.56625 0.11070
 O224 O 0.49882 0.43379 0.11206
 O225 O 0.39586 0.56668 -0.00256
 O226 O 0.60239 0.43666 -0.00082
 O227 O 0.39664 0.43723 -0.00211
 O228 O 0.60368 0.56593 -0.00118
 H229 H 0.50004 0.60123 -0.15958
 H230 H 0.64603 0.40545 -0.00007
 H231 H 0.49944 0.59932 0.15658
 H232 H 0.35288 0.40632 -0.00175
 H233 H 0.72283 0.49023 -0.06111
 H234 H 0.72130 0.52973 0.06304
 H235 H 0.55415 0.46377 0.23900
 H236 H 0.37004 0.50547 0.23955
 H237 H 0.27714 0.53074 0.06103
 H238 H 0.27685 0.49270 -0.06377
 H239 H 0.43513 0.45939 -0.24336
 H240 H 0.56480 0.45951 -0.24250
 N241 N 1.20322 0.20244 0.20405
 N242 N 1.22195 0.14841 0.16171
 N243 N 1.20157 0.70742 0.70118
 N244 N 1.21998 0.65157 0.66110
 N245 N 0.70055 0.20256 0.70431
 N246 N 0.71986 0.15027 0.65984
 N247 N 0.70638 0.70220 0.20041
 N248 N 0.65700 0.72271 0.15322
 N249 N 0.79459 -0.20285 0.20009
 N250 N 0.77481 -0.15433 0.15122
 N251 N 0.79563 0.29147 0.69776
 N252 N 0.77683 0.34357 0.65215
 N253 N 0.29853 -0.20578 0.70213
 N254 N 0.27984 -0.15735 0.65228
 N255 N 0.29181 0.29856 0.19948
 N256 N 0.34574 0.27853 0.15858
 N257 N 0.79740 0.20407 -0.20330
 N258 N 0.77926 0.15610 -0.15308
 N259 N 0.79682 0.70989 0.29826
 N260 N 0.77874 0.65842 0.34462
 N261 N 0.29898 0.20695 0.29758
 N262 N 0.27989 0.15658 0.34481
 N263 N 0.28997 0.70315 -0.19924
 N264 N 0.34089 0.72375 -0.15435
 N265 N 1.20234 -0.20040 -0.20493
 N266 N 1.22164 -0.15233 -0.15542
 N267 N 1.20247 0.29434 0.29813
 N268 N 1.22096 0.34826 0.34101
 N269 N 0.70064 -0.20260 0.29424
 N270 N 0.72071 -0.15036 0.33844
 N271 N 0.70686 0.29813 -0.20250
 N272 N 0.65437 0.27799 -0.15934
 N273 N 1.20433 0.19899 -0.20194
 N274 N 1.22365 0.14903 -0.15405
 N275 N 1.23299 0.70260 0.30474
 N276 N 1.22799 0.65653 0.35765
 N277 N 0.70121 0.20470 0.29611
 N278 N 0.72073 0.15380 0.34258
 N279 N 0.70964 0.70199 -0.20030
 N280 N 0.65882 0.72231 -0.15516
 N281 N 0.79762 -0.20233 -0.20283
 N282 N 0.77825 -0.15406 -0.15366
 N283 N 0.79695 0.29272 0.29921
 N284 N 0.77842 0.34477 0.34451
 N285 N 0.30334 -0.20211 0.28530
 N286 N 0.28440 -0.15825 0.33968
 N287 N 0.29222 0.29597 -0.20097
 N288 N 0.34623 0.27690 -0.15942
 N289 N 1.20073 -0.21213 0.21433
 N290 N 1.21436 -0.16113 0.16482
 N291 N 1.20150 0.28955 0.70159
 N292 N 1.21926 0.34375 0.65840
 N293 N 0.70141 -0.20389 0.70453
 N294 N 0.72043 -0.15326 0.65760
 N295 N 0.70671 0.29876 0.20094
 N296 N 0.65319 0.27843 0.15945
 N297 N 0.79640 0.20400 0.20230
 N298 N 0.77750 0.15598 0.15269
 N299 N 0.79787 0.70899 0.69992
 N300 N 0.77872 0.65849 0.65294
 N301 N 0.29875 0.20268 0.70277
 N302 N 0.27946 0.15389 0.65388
 N303 N 0.29252 0.70748 0.19506
 N304 N 0.34867 0.72602 0.15693
   
