data_POSCAR
  _audit_creation_date              2014-09-24
  _audit_creation_method            'ToBaCCo'
  _symmetry_space_group_name_H-M    'P1'
  _symmetry_Int_Tables_number       1
  _symmetry_cell_setting            triclinic
  loop_
  _symmetry_equiv_pos_as_xyz
 x,y,z
_cell_length_a 38.8184
_cell_length_b 39.7932
_cell_length_c 40.0734
_cell_angle_alpha 89.791900
_cell_angle_beta 89.951600
_cell_angle_gamma 90.179100
loop_
  _atom_site_label
  _atom_site_type_symbol
  _atom_site_fract_x
  _atom_site_fract_y
  _atom_site_fract_z
C1 C 0.34992 0.33336 1.38479
 C2 C 0.32212 0.34728 1.40224
 C3 C 0.30503 0.37633 1.39047
 C4 C 0.31799 0.39208 1.36131
 C5 C 0.34590 0.37844 1.34369
 C6 C 0.36173 0.34879 1.35534
 C7 C 0.36561 0.30380 1.39626
 C8 C 0.39288 0.28863 1.37844
 C9 C 0.40448 0.30462 1.34890
 C10 C 0.38901 0.33427 1.33724
 C11 C 0.39980 0.34913 1.30718
 C12 C 0.38397 0.37851 1.29525
 C13 C 0.35739 0.39330 1.31385
 H14 H 0.31435 0.33543 1.42542
 H15 H 0.30525 0.41381 1.35077
 H16 H 0.35684 0.29331 1.41974
 H17 H 0.42439 0.29333 1.33374
 H18 H 0.42046 0.33781 1.29293
 H19 H 0.34488 0.41574 1.30445
 C20 C 1.15247 0.66509 0.88110
 C21 C 1.18034 0.64996 0.89762
 C22 C 1.19822 0.62274 0.88320
 C23 C 1.18636 0.61005 0.85240
 C24 C 1.15796 0.62431 0.83617
 C25 C 1.14121 0.65222 0.85033
 C26 C 1.13620 0.69337 0.89469
 C27 C 1.10863 0.70943 0.87799
 C28 C 1.09733 0.69564 0.84738
 C29 C 1.11342 0.66743 0.83351
 C30 C 1.10253 0.65455 0.80269
 C31 C 1.11873 0.62636 0.78880
 C32 C 1.14632 0.61129 0.80571
 H33 H 1.18928 0.66094 0.92075
 H34 H 1.19849 0.58831 0.84128
 H35 H 1.14471 0.70211 0.91887
 H36 H 1.07714 0.70767 0.83312
 H37 H 1.08120 0.66619 0.78960
 H38 H 1.15918 0.58984 0.79473
 C39 C 0.65578 -0.16069 0.11719
 C40 C 0.68525 -0.14692 0.10212
 C41 C 0.70157 -0.11850 0.11575
 C42 C 0.68813 -0.10401 0.14496
 C43 C 0.65871 -0.11753 0.16037
 C44 C 0.64224 -0.14575 0.14617
 C45 C 0.63993 -0.18945 0.10393
 C46 C 0.60992 -0.20322 0.11865
 C47 C 0.59621 -0.18734 0.14715
 C48 C 0.61252 -0.15933 0.16127
 C49 C 0.60010 -0.14539 0.19096
 C50 C 0.61710 -0.11814 0.20601
 C51 C 0.64596 -0.10382 0.19016
 H52 H 0.69590 -0.15871 0.08007
 H53 H 0.70045 -0.08205 0.15562
 H54 H 0.65049 -0.20032 0.08140
 H55 H 0.57401 -0.19791 0.15984
 H56 H 0.57741 -0.15610 0.20273
 H57 H 0.65925 -0.08285 0.20167
 C58 C -0.15604 1.16074 -0.38317
 C59 C -0.18495 1.14694 -0.39905
 C60 C -0.20069 1.11713 -0.38710
 C61 C -0.18622 1.10140 -0.35866
 C62 C -0.15720 1.11490 -0.34265
 C63 C -0.14193 1.14457 -0.35502
 C64 C -0.14153 1.19100 -0.39455
 C65 C -0.11272 1.20496 -0.37852
 C66 C -0.09814 1.18828 -0.35107
 C67 C -0.11284 1.15839 -0.33893
 C68 C -0.09947 1.14259 -0.31046
 C69 C -0.11497 1.11331 -0.29750
 C70 C -0.14359 1.09941 -0.31403
 H71 H -0.19600 1.16067 -0.41978
 H72 H -0.19660 1.07792 -0.34931
 H73 H -0.15264 1.20384 -0.41588
 H74 H -0.07610 1.19924 -0.33849
 H75 H -0.07709 1.15324 -0.29822
 H76 H -0.15598 1.07711 -0.30402
 C77 C 0.65602 0.65550 0.61828
 C78 C 0.68436 0.64173 0.60145
 C79 C 0.70202 0.61390 0.61470
 C80 C 0.69040 0.59930 0.64475
 C81 C 0.66220 0.61280 0.66195
 C82 C 0.64510 0.64115 0.64872
 C83 C 0.63935 0.68420 0.60575
 C84 C 0.61200 0.69942 0.62347
 C85 C 0.60105 0.68412 0.65357
 C86 C 0.61749 0.65555 0.66628
 C87 C 0.60715 0.64170 0.69688
 C88 C 0.62432 0.61385 0.71055
 C89 C 0.65151 0.59912 0.69268
 H90 H 0.69344 0.65344 0.57861
 H91 H 0.70355 0.57759 0.65495
 H92 H 0.64934 0.69559 0.58315
 H93 H 0.57915 0.69384 0.66714
 H94 H 0.58588 0.65290 0.71037
 H95 H 0.66505 0.57782 0.70325
 C96 C 0.84153 0.34249 0.11787
 C97 C 0.81188 0.35730 0.10415
 C98 C 0.79606 0.38542 0.11934
 C99 C 0.81200 0.39901 0.14810
 C100 C 0.84113 0.38409 0.16238
 C101 C 0.85582 0.35560 0.14736
 C102 C 0.85633 0.31397 0.10311
 C103 C 0.88506 0.29774 0.11767
 C104 C 0.89890 0.31139 0.14730
 C105 C 0.88455 0.33996 0.16211
 C106 C 0.89827 0.35281 0.19184
 C107 C 0.88349 0.38099 0.20726
 C108 C 0.85522 0.39680 0.19206
 H109 H 0.80039 0.34538 0.08266
 H110 H 0.80238 0.42170 0.15952
 H111 H 0.84409 0.30360 0.08117
 H112 H 0.92166 0.30061 0.15860
 H113 H 0.92039 0.34072 0.20314
 H114 H 0.84334 0.41824 0.20402
 C115 C 0.34521 0.16602 0.87744
 C116 C 0.31690 0.15174 0.89413
 C117 C 0.30214 0.12108 0.88342
 C118 C 0.31698 0.10493 0.85554
 C119 C 0.34497 0.11917 0.83840
 C120 C 0.35910 0.14988 0.84927
 C121 C 0.35985 0.19625 0.88852
 C122 C 0.38801 0.21082 0.87163
 C123 C 0.40130 0.19484 0.84317
 C124 C 0.38700 0.16456 0.83184
 C125 C 0.39998 0.14879 0.80323
 C126 C 0.38585 0.11824 0.79221
 C127 C 0.35860 0.10343 0.81008
 H128 H 0.30725 0.16422 0.91619
 H129 H 0.30578 0.08208 0.84571
 H130 H 0.34959 0.20826 0.91062
 H131 H 0.42256 0.20620 0.82961
 H132 H 0.42125 0.16009 0.78963
 H133 H 0.34750 0.08000 0.80140
 C134 C 0.15270 0.83813 0.38035
 C135 C 0.18087 0.85204 0.39743
 C136 C 0.19738 0.88103 0.38522
 C137 C 0.18484 0.89682 0.35632
 C138 C 0.15625 0.88365 0.33941
 C139 C 0.14032 0.85397 0.35126
 C140 C 0.13717 0.80833 0.39164
 C141 C 0.10933 0.79348 0.37422
 C142 C 0.09698 0.81007 0.34534
 C143 C 0.11230 0.83992 0.33379
 C144 C 0.10042 0.85563 0.30458
 C145 C 0.11591 0.88540 0.29292
 C146 C 0.14371 0.89935 0.31052
 H147 H 0.19079 0.83970 0.41958
 H148 H 0.19749 0.91931 0.34699
 H149 H 0.14649 0.79743 0.41469
 H150 H 0.07654 0.79913 0.33056
 H151 H 0.07891 0.84490 0.29100
 H152 H 0.15602 0.92205 0.30128
 Zn153 Zn 0.04208 0.98267 0.00704
 Zn154 Zn 0.01017 1.04463 -0.02124
 Zn155 Zn -0.02660 0.97863 -0.02627
 Zn156 Zn -0.01921 1.01292 0.03983
 O157 O 0.00157 1.00468 -0.00020
 O158 O 0.07871 1.00564 -0.00795
 O159 O -0.00997 1.04713 -0.06123
 O160 O -0.00709 0.93950 -0.03789
 O161 O 0.05519 1.05187 -0.02842
 O162 O 0.04369 0.94278 -0.01319
 O163 O -0.03804 0.99884 -0.06483
 O164 O -0.06030 0.99287 0.04316
 O165 O -0.00556 1.08019 0.00138
 O166 O -0.06626 0.96778 -0.00569
 O167 O -0.02700 1.05666 0.04694
 O168 O 0.00514 0.99791 0.07476
 O169 O 0.04992 0.97422 0.05026
 C170 C 0.08152 1.03402 -0.02228
 C171 C -0.02953 1.02716 -0.07707
 C172 C 0.02220 0.92706 -0.03122
 C173 C -0.07761 0.97476 0.02321
 C174 C -0.02083 1.08253 0.02929
 C175 C 0.03315 0.98162 0.07640
 Zn176 Zn 0.49124 -0.04769 0.48315
 Zn177 Zn 0.52110 -0.01285 0.54170
 Zn178 Zn 0.52768 0.01809 0.47371
 Zn179 Zn 0.45911 0.01522 0.50840
 O180 O 0.49981 -0.00672 0.50166
 O181 O 0.50630 -0.08228 0.50801
 O182 O 0.56228 0.00697 0.54324
 O183 O 0.53912 -0.00413 0.43615
 O184 O 0.52850 -0.05600 0.55146
 O185 O 0.51165 -0.05231 0.44377
 O186 O 0.56758 0.03016 0.49324
 O187 O 0.45735 0.05416 0.48621
 O188 O 0.49737 0.00389 0.57603
 O189 O 0.50768 0.05654 0.46033
 O190 O 0.45162 0.02555 0.55129
 O191 O 0.42233 -0.00851 0.49480
 O192 O 0.44646 -0.05483 0.47548
 C193 C 0.52170 -0.08293 0.53593
 C194 C 0.57934 0.02423 0.52226
 C195 C 0.53083 -0.03336 0.42624
 C196 C 0.47846 0.06917 0.46703
 C197 C 0.46908 0.01968 0.57743
 C198 C 0.41996 -0.03710 0.48101
 Zn199 Zn 0.98456 0.49405 0.54086
 Zn200 Zn 1.01182 0.45604 0.48325
 Zn201 Zn 0.97577 0.52165 0.47162
 Zn202 Zn 1.04564 0.51973 0.50373
 O203 O 1.00437 0.49797 0.49978
 O204 O 0.97601 0.45151 0.55278
 O205 O 0.99099 0.44989 0.44419
 O206 O 0.93603 0.53394 0.49163
 O207 O 0.99638 0.42304 0.50990
 O208 O 0.94383 0.51424 0.54274
 O209 O 0.96397 0.49791 0.43503
 O210 O 1.04688 0.55765 0.48009
 O211 O 1.05624 0.44755 0.47582
 O212 O 0.99541 0.55997 0.45656
 O213 O 1.08170 0.49514 0.48996
 O214 O 1.05486 0.53208 0.54570
 O215 O 1.00991 0.51225 0.57349
 C216 C 0.98150 0.42387 0.53808
 C217 C 0.97194 0.46830 0.42609
 C218 C 0.92559 0.52970 0.52144
 C219 C 1.02510 0.57251 0.46169
 C220 C 1.08323 0.46531 0.47893
 C221 C 1.03844 0.52790 0.57280
 Zn222 Zn 0.51373 0.51011 1.04384
 Zn223 Zn 0.52502 0.47803 0.97701
 Zn224 Zn 0.45411 0.48145 1.00739
 Zn225 Zn 0.48779 0.54370 0.98265
 O226 O 0.49526 0.50321 1.00263
 O227 O 0.55382 0.48940 1.04857
 O228 O 0.50520 0.43971 0.96252
 O229 O 0.44436 0.47081 1.04975
 O230 O 0.56342 0.46572 0.99956
 O231 O 0.48754 0.49410 1.07722
 O232 O 0.45320 0.44287 0.98501
 O233 O 0.44363 0.55082 0.97240
 O234 O 0.53941 0.50009 0.93999
 O235 O 0.41810 0.50522 0.99231
 O236 O 0.51096 0.54792 0.94461
 O237 O 0.50120 0.57858 1.00757
 O238 O 0.52215 0.55348 1.05249
 C239 C 0.57239 0.47169 1.02948
 C240 C 0.47519 0.42764 0.96720
 C241 C 0.45970 0.47731 1.07693
 C242 C 0.41668 0.53352 0.97769
 C243 C 0.53169 0.52910 0.92894
 C244 C 0.51591 0.57991 1.03579
 C245 C 1.21294 0.41158 0.43490
 C246 C 1.22275 0.37802 0.43933
 C247 C 1.25337 0.36659 0.42529
 C248 C 1.27484 0.38840 0.40665
 C249 C 1.26434 0.42228 0.40395
 N250 N 1.23428 0.43273 0.41792
 C251 C 1.17969 0.42436 0.44764
 N252 N 1.17657 0.45757 0.45515
 C253 C 1.14638 0.47110 0.46588
 C254 C 1.11680 0.45090 0.46899
 C255 C 1.11947 0.41665 0.46125
 C256 C 1.15073 0.40332 0.45063
 H257 H 1.25885 0.34010 0.42781
 H258 H 1.28015 0.44087 0.39148
 H259 H 1.14540 0.49769 0.47135
 H260 H 1.09729 0.40016 0.46307
 H261 H 1.20693 0.36055 0.45335
 H262 H 1.15177 0.37704 0.44391
 C263 C 0.28789 0.58326 0.92815
 C264 C 0.26157 0.59583 0.94843
 C265 C 0.23194 0.60908 0.93372
 C266 C 0.22791 0.60907 0.89872
 C267 C 0.25503 0.59556 0.87953
 N268 N 0.28397 0.58377 0.89448
 C269 C 0.32042 0.57067 0.94228
 N270 N 0.35050 0.57836 0.92653
 C271 C 0.38144 0.56727 0.93781
 C272 C 0.38318 0.54641 0.96605
 C273 C 0.35244 0.53778 0.98245
 C274 C 0.32100 0.55021 0.97086
 H275 H 0.21181 0.61823 0.94999
 H276 H 0.25427 0.59588 0.85256
 H277 H 0.40458 0.57420 0.92431
 H278 H 0.35279 0.52168 1.00430
 H279 H 0.26417 0.59605 0.97534
 H280 H 0.29739 0.54330 0.98359
 C281 C -0.20689 0.92137 0.07049
 C282 C -0.23431 0.91076 0.05017
 C283 C -0.26418 0.89786 0.06490
 C284 C -0.26699 0.89561 0.09977
 C285 C -0.23918 0.90689 0.11915
 N286 N -0.21036 0.91929 0.10425
 C287 C -0.17442 0.93528 0.05665
 N288 N -0.15421 0.95443 0.07682
 C289 C -0.12363 0.96755 0.06656
 C290 C -0.11143 0.96136 0.03417
 C291 C -0.13175 0.94159 0.01290
 C292 C -0.16318 0.92848 0.02400
 H293 H -0.28529 0.89011 0.04902
 H294 H -0.24006 0.90535 0.14610
 H295 H -0.10880 0.98253 0.08390
 H296 H -0.12322 0.93595 -0.01220
 H297 H -0.23319 0.91289 0.02329
 H298 H -0.17785 0.91261 0.00738
 C299 C 0.70914 0.07829 0.56716
 C300 C 0.73263 0.09716 0.54810
 C301 C 0.76237 0.10989 0.56309
 C302 C 0.76943 0.10377 0.59714
 C303 C 0.74531 0.08409 0.61498
 N304 N 0.71643 0.07235 0.59984
 C305 C 0.67655 0.06440 0.55347
 N306 N 0.65829 0.04255 0.57287
 C307 C 0.62769 0.02920 0.56322
 C308 C 0.61335 0.03781 0.53222
 C309 C 0.63168 0.06012 0.51158
 C310 C 0.66316 0.07356 0.52210
 H311 H 0.78035 0.12339 0.54732
 H312 H 0.74816 0.07917 0.64136
 H313 H 0.61453 0.01205 0.57999
 H314 H 0.62146 0.06761 0.48755
 H315 H 0.72875 0.10185 0.52182
 H316 H 0.67611 0.09131 0.50592
 C317 C 0.43576 0.19662 0.41221
 C318 C 0.45589 0.21862 0.39280
 C319 C 0.44180 0.24887 0.38150
 C320 C 0.40766 0.25789 0.38963
 C321 C 0.38864 0.23491 0.40931
 N322 N 0.40291 0.20561 0.41971
 C323 C 0.44856 0.16406 0.42548
 N324 N 0.42834 0.14724 0.44777
 C325 C 0.43736 0.11719 0.46123
 C326 C 0.46862 0.10200 0.45240
 C327 C 0.48999 0.11872 0.42940
 C328 C 0.48007 0.14962 0.41581
 H329 H 0.45849 0.26566 0.36762
 H330 H 0.36192 0.23918 0.41547
 H331 H 0.42001 0.10528 0.47885
 H332 H 0.51426 0.10782 0.42174
 H333 H 0.48240 0.21324 0.38671
 H334 H 0.49689 0.16146 0.39777
 C335 C 0.92771 0.29985 0.59028
 C336 C 0.89235 0.29652 0.59691
 C337 C 0.87915 0.26543 0.60677
 C338 C 0.90113 0.23780 0.61043
 C339 C 0.93632 0.24211 0.60366
 N340 N 0.94855 0.27256 0.59351
 C341 C 0.94242 0.33208 0.57874
 N342 N 0.96786 0.33201 0.55535
 C343 C 0.98131 0.36092 0.54255
 C344 C 0.96923 0.39223 0.55352
 C345 C 0.94383 0.39281 0.57844
 C346 C 0.93026 0.36284 0.59097
 H347 H 0.85185 0.26299 0.61187
 H348 H 0.95395 0.22121 0.60600
 H349 H 1.00111 0.35940 0.52360
 H350 H 0.93382 0.41640 0.58765
 H351 H 0.87497 0.31753 0.59386
 H352 H 0.91051 0.36373 0.61003
 C353 C 0.06447 0.79899 -0.08416
 C354 C 0.04461 0.77760 -0.10430
 C355 C 0.05903 0.74802 -0.11661
 C356 C 0.09326 0.73900 -0.10885
 C357 C 0.11181 0.76100 -0.08789
 N358 N 0.09727 0.78980 -0.07661
 C359 C 0.05155 0.83139 -0.07076
 N360 N 0.07190 0.84838 -0.04883
 C361 C 0.06296 0.87857 -0.03578
 C362 C 0.03171 0.89375 -0.04475
 C363 C 0.01014 0.87677 -0.06719
 C364 C 0.01993 0.84574 -0.08032
 H365 H 0.04257 0.73177 -0.13121
 H366 H 0.13848 0.75655 -0.08163
 H367 H 0.08043 0.89068 -0.01853
 H368 H -0.01413 0.88763 -0.07493
 H369 H 0.01814 0.78302 -0.11044
 H370 H 0.00294 0.83382 -0.09802
 C371 C 0.56504 0.70723 1.08259
 C372 C 0.54392 0.73182 1.09668
 C373 C 0.55865 0.76145 1.10861
 C374 C 0.59443 0.76722 1.10581
 C375 C 0.61439 0.74193 1.09062
 N376 N 0.59950 0.71287 1.08017
 C377 C 0.55087 0.67489 1.07125
 N378 N 0.56817 0.64610 1.07852
 C379 C 0.55679 0.61547 1.06838
 C380 C 0.52690 0.61278 1.04892
 C381 C 0.50881 0.64217 1.04091
 C382 C 0.52047 0.67327 1.05242
 H383 H 0.54166 0.78019 1.11905
 H384 H 0.64208 0.74422 1.08862
 H385 H 0.57165 0.59337 1.07470
 H386 H 0.48570 0.64106 1.02581
 H387 H 0.51642 0.72787 1.09908
 H388 H 0.50647 0.69586 1.04594
 C389 C 0.41230 0.42040 1.20079
 C390 C 0.40540 0.38584 1.20349
 C391 C 0.39650 0.37217 1.23441
 C392 C 0.39416 0.39284 1.26256
 C393 C 0.40129 0.42725 1.25887
 N394 N 0.41040 0.43996 1.22854
 C395 C 0.42264 0.43568 1.16865
 N396 N 0.44601 0.46127 1.16843
 C397 C 0.45765 0.47546 1.13959
 C398 C 0.44548 0.46403 1.10863
 C399 C 0.42056 0.43840 1.10840
 C400 C 0.40919 0.42412 1.13828
 H401 H 0.39107 0.34551 1.23628
 H402 H 0.40002 0.44389 1.28014
 H403 H 0.47664 0.49538 1.14090
 H404 H 0.41039 0.42887 1.08511
 H405 H 0.40745 0.36941 1.18212
 H406 H 0.39002 0.40432 1.13758
 C407 C 0.58173 -0.08373 0.30105
 C408 C 0.58486 -0.11832 0.29498
 C409 C 0.59655 -0.12932 0.26408
 C410 C 0.60552 -0.10609 0.23914
 C411 C 0.60328 -0.07169 0.24653
 N412 N 0.59147 -0.06150 0.27685
 C413 C 0.56806 -0.07108 0.33314
 N414 N 0.57747 -0.03999 0.34408
 C415 C 0.56593 -0.02720 0.37352
 C416 C 0.54349 -0.04609 0.39380
 C417 C 0.53302 -0.07788 0.38258
 C418 C 0.54504 -0.09033 0.35237
 H419 H 0.59893 -0.15607 0.25980
 H420 H 0.61015 -0.05297 0.22801
 H421 H 0.57442 -0.00245 0.38109
 H422 H 0.51538 -0.09321 0.39708
 H423 H 0.57879 -0.13685 0.31391
 H424 H 0.53583 -0.11458 0.34409
 C425 C -0.07920 1.07055 -0.20556
 C426 C -0.08910 1.04919 -0.23174
 C427 C -0.10058 1.06304 -0.26181
 C428 C -0.10211 1.09806 -0.26599
 C429 C -0.09164 1.11845 -0.23932
 N430 N -0.08059 1.10440 -0.21033
 C431 C -0.06660 1.05776 -0.17304
 N432 N -0.04736 1.07865 -0.15368
 C433 C -0.03522 1.06937 -0.12326
 C434 C -0.04254 1.03730 -0.11034
 C435 C -0.06258 1.01535 -0.12970
 C436 C -0.07467 1.02545 -0.16100
 H437 H -0.10781 1.04637 -0.28194
 H438 H -0.09278 1.14555 -0.24122
 H439 H -0.02001 1.08721 -0.10918
 H440 H -0.06904 0.99045 -0.12062
 H441 H -0.08746 1.02216 -0.22946
 H442 H -0.09068 1.00833 -0.17506
 C443 C 1.08686 0.58643 0.69499
 C444 C 1.09359 0.62100 0.69783
 C445 C 1.10357 0.63415 0.72858
 C446 C 1.10726 0.61290 0.75630
 C447 C 1.10020 0.57853 0.75247
 N448 N 1.09001 0.56635 0.72239
 C449 C 1.07560 0.57147 0.66315
 N450 N 1.05262 0.54556 0.66368
 C451 C 1.04070 0.53105 0.63526
 C452 C 1.05234 0.54230 0.60397
 C453 C 1.07671 0.56841 0.60292
 C454 C 1.08823 0.58318 0.63241
 H455 H 1.10884 0.66081 0.73065
 H456 H 1.10245 0.56147 0.77345
 H457 H 1.02213 0.51078 0.63716
 H458 H 1.08637 0.57783 0.57930
 H459 H 1.09061 0.63777 0.67671
 H460 H 1.10707 0.60326 0.63115
 C461 C 0.79461 0.57888 0.56804
 C462 C 0.76631 0.58783 0.54805
 C463 C 0.73598 0.59904 0.56318
 C464 C 0.73363 0.60118 0.59809
 C465 C 0.76238 0.59171 0.61707
 N466 N 0.79156 0.58097 0.60181
 C467 C 0.82761 0.56648 0.55414
 N468 N 0.84951 0.55025 0.57516
 C469 C 0.88056 0.53840 0.56519
 C470 C 0.89158 0.54273 0.53207
 C471 C 0.86962 0.55957 0.50982
 C472 C 0.83766 0.57153 0.52073
 H473 H 0.71423 0.60561 0.54759
 H474 H 0.76198 0.59339 0.64401
 H475 H 0.89659 0.52566 0.58331
 H476 H 0.87717 0.56364 0.48410
 H477 H 0.76711 0.58576 0.52118
 H478 H 0.82157 0.58501 0.50326
 C479 C 0.70070 0.42311 1.08326
 C480 C 0.71104 0.42977 1.11610
 C481 C 0.74230 0.41750 1.12780
 C482 C 0.76448 0.39891 1.10694
 C483 C 0.75337 0.39380 1.07370
 N484 N 0.72243 0.40578 1.06304
 C485 C 0.66701 0.43473 1.06998
 N486 N 0.66194 0.43615 1.03631
 C487 C 0.63187 0.44712 1.02257
 C488 C 0.60482 0.45789 1.04315
 C489 C 0.60923 0.45586 1.07781
 C490 C 0.63990 0.44404 1.09127
 H491 H 0.74785 0.42168 1.15386
 H492 H 0.76936 0.38118 1.05563
 H493 H 0.62941 0.44807 0.99568
 H494 H 0.58879 0.46321 1.09467
 H495 H 0.69543 0.44435 1.13299
 H496 H 0.64179 0.44200 1.11808
 C497 C 0.21290 1.08077 -0.07043
 C498 C 0.23648 1.05913 -0.08574
 C499 C 0.26608 1.07231 -0.10062
 C500 C 0.27276 1.10720 -0.10032
 C501 C 0.24849 1.12781 -0.08399
 N502 N 0.21955 1.11432 -0.07021
 C503 C 0.18003 1.06831 -0.05627
 N504 N 0.15210 1.08892 -0.05655
 C505 C 0.12068 1.07880 -0.04530
 C506 C 0.11600 1.04611 -0.03273
 C507 C 0.14470 1.02478 -0.03132
 C508 C 0.17668 1.03574 -0.04305
 H509 H 0.28402 1.05475 -0.11154
 H510 H 0.25122 1.15484 -0.08366
 H511 H 0.09935 1.09621 -0.04654
 H512 H 0.14236 0.99944 -0.02161
 H513 H 0.23183 1.03235 -0.08705
 H514 H 0.19847 1.01890 -0.04159
 C515 C 0.28926 -0.08319 0.43176
 C516 C 0.25949 -0.08792 0.45119
 C517 C 0.22936 -0.09969 0.43609
 C518 C 0.22878 -0.10610 0.40171
 C519 C 0.25898 -0.10084 0.38320
 N520 N 0.28814 -0.09001 0.39852
 C521 C 0.32214 -0.07187 0.44643
 N522 N 0.35210 -0.08374 0.43344
 C523 C 0.38343 -0.07372 0.44480
 C524 C 0.38589 -0.04964 0.47020
 C525 C 0.35532 -0.03692 0.48391
 C526 C 0.32338 -0.04819 0.47230
 H527 H 0.20649 -0.10362 0.45113
 H528 H 0.25956 -0.10595 0.35669
 H529 H 0.40636 -0.08392 0.43333
 H530 H 0.35614 -0.01821 0.50345
 H531 H 0.25971 -0.08332 0.47780
 H532 H 0.30003 -0.03777 0.48272
 C533 C 0.56889 -0.20890 0.58966
 C534 C 0.56757 -0.21718 0.62362
 C535 C 0.58137 -0.24749 0.63467
 C536 C 0.59669 -0.27017 0.61209
 C537 C 0.59668 -0.26093 0.57800
 N538 N 0.58290 -0.23119 0.56791
 C539 C 0.55571 -0.17644 0.57698
 N540 N 0.54377 -0.17439 0.54509
 C541 C 0.53208 -0.14510 0.53168
 C542 C 0.53255 -0.11542 0.55054
 C543 C 0.54492 -0.11699 0.58339
 C544 C 0.55646 -0.14733 0.59668
 H545 H 0.58129 -0.25201 0.66129
 H546 H 0.60660 -0.27755 0.55905
 H547 H 0.52303 -0.14496 0.50614
 H548 H 0.54600 -0.09469 0.59878
 H549 H 0.55599 -0.20047 0.64165
 H550 H 0.56670 -0.14765 0.62177
 C551 C 1.06690 0.70053 0.40683
 C552 C 1.04641 0.72290 0.38840
 C553 C 1.06031 0.75350 0.37757
 C554 C 1.09467 0.76247 0.38512
 C555 C 1.11405 0.73911 0.40381
 N556 N 1.09994 0.70950 0.41379
 C557 C 1.05437 0.66761 0.41969
 N558 N 1.07575 0.64986 0.44002
 C559 C 1.06702 0.61962 0.45331
 C560 C 1.03478 0.60518 0.44645
 C561 C 1.01222 0.62275 0.42537
 C562 C 1.02188 0.65388 0.41187
 H563 H 1.04334 0.77053 0.36449
 H564 H 1.14092 0.74334 0.40947
 H565 H 1.08534 0.60705 0.46939
 H566 H 0.98713 0.61248 0.41934
 H567 H 1.01980 0.71751 0.38266
 H568 H 1.00399 0.66653 0.39553
 C569 C -0.07237 1.20944 0.07592
 C570 C -0.08894 1.23269 0.05509
 C571 C -0.10310 1.26177 0.06876
 C572 C -0.10066 1.26826 0.10329
 C573 C -0.08370 1.24397 0.12310
 N574 N -0.07062 1.21567 0.10918
 C575 C -0.05803 1.17759 0.06309
 N576 N -0.05677 1.15045 0.08383
 C577 C -0.04456 1.12014 0.07380
 C578 C -0.03239 1.11586 0.04109
 C579 C -0.03264 1.14374 0.01951
 C580 C -0.04548 1.17458 0.03036
 H581 H -0.11485 1.27956 0.05181
 H582 H -0.08208 1.24639 0.14990
 H583 H -0.04460 1.09941 0.09135
 H584 H -0.02339 1.14162 -0.00589
 H585 H -0.09155 1.22832 0.02858
 H586 H -0.04520 1.19578 0.01339
 C587 C 0.43157 0.30263 0.90834
 C588 C 0.45348 0.27722 0.89657
 C589 C 0.43931 0.24743 0.88425
 C590 C 0.40344 0.24272 0.88376
 C591 C 0.38252 0.26875 0.89563
 N592 N 0.39688 0.29747 0.90751
 C593 C 0.44456 0.33444 0.92289
 N594 N 0.42267 0.35267 0.94216
 C595 C 0.43198 0.38217 0.95649
 C596 C 0.46524 0.39528 0.95171
 C597 C 0.48830 0.37712 0.93174
 C598 C 0.47808 0.34676 0.91724
 H599 H 0.45643 0.22774 0.87588
 H600 H 0.35474 0.26641 0.89534
 H601 H 0.41323 0.39532 0.97155
 H602 H 0.51412 0.38644 0.92717
 H603 H 0.48119 0.27969 0.89756
 H604 H 0.49613 0.33366 0.90144
 C605 C 0.59059 0.57891 0.80622
 C606 C 0.59664 0.61332 0.80091
 C607 C 0.60830 0.62444 0.76994
 C608 C 0.61442 0.60147 0.74419
 C609 C 0.60987 0.56708 0.75095
 N610 N 0.59797 0.55679 0.78134
 C611 C 0.57549 0.56651 0.83795
 N612 N 0.58227 0.53467 0.84871
 C613 C 0.56880 0.52204 0.87760
 C614 C 0.54687 0.54179 0.89734
 C615 C 0.53922 0.57443 0.88631
 C616 C 0.55329 0.58677 0.85678
 H617 H 0.61248 0.65110 0.76605
 H618 H 0.61459 0.54856 0.73179
 H619 H 0.57517 0.49664 0.88503
 H620 H 0.52218 0.59053 0.90043
 H621 H 0.59245 0.63162 0.82039
 H622 H 0.54616 0.61172 0.84858
 C623 C 0.42247 0.07195 0.70303
 C624 C 0.41898 0.05260 0.73222
 C625 C 0.40709 0.06770 0.76140
 C626 C 0.39908 0.10203 0.76163
 C627 C 0.40302 0.12050 0.73200
 N628 N 0.41416 0.10516 0.70375
 C629 C 0.43425 0.05711 0.67132
 N630 N 0.42191 0.06966 0.64205
 C631 C 0.43205 0.05763 0.61191
 C632 C 0.45660 0.03188 0.61005
 C633 C 0.46986 0.01875 0.63993
 C634 C 0.45862 0.03113 0.67058
 H635 H 0.40429 0.05265 0.78382
 H636 H 0.39663 0.14695 0.73115
 H637 H 0.42143 0.06868 0.58945
 H638 H 0.48895 -0.00104 0.63960
 H639 H 0.42465 0.02598 0.73237
 H640 H 0.46956 0.02107 0.69334
 C641 C 0.08053 0.93157 0.20291
 C642 C 0.08494 0.95127 0.23160
 C643 C 0.09659 0.93625 0.26102
 C644 C 0.10343 0.90167 0.26197
 C645 C 0.09869 0.88289 0.23278
 N646 N 0.08779 0.89815 0.20431
 C647 C 0.06882 0.94619 0.17097
 N648 N 0.08029 0.93256 0.14193
 C649 C 0.06997 0.94405 0.11159
 C650 C 0.04605 0.97034 0.10927
 C651 C 0.03373 0.98467 0.13891
 C652 C 0.04521 0.97282 0.16978
 H653 H 0.10003 0.95153 0.28309
 H654 H 0.10415 0.85624 0.23248
 H655 H 0.07986 0.93209 0.08935
 H656 H 0.01513 1.00489 0.13822
 H657 H 0.08009 0.97804 0.23120
 H658 H 0.03496 0.98375 0.19239
 C659 C 0.92146 0.41534 0.30160
 C660 C 0.91790 0.38073 0.29565
 C661 C 0.90569 0.36966 0.26490
 C662 C 0.89669 0.39285 0.23997
 C663 C 0.89988 0.42726 0.24711
 N664 N 0.91203 0.43749 0.27728
 C665 C 0.93483 0.42832 0.33373
 N666 N 0.92633 0.45998 0.34361
 C667 C 0.93771 0.47337 0.37284
 C668 C 0.95910 0.45458 0.39408
 C669 C 0.96853 0.42211 0.38408
 C670 C 0.95665 0.40900 0.35404
 H671 H 0.90269 0.34292 0.26084
 H672 H 0.89321 0.44600 0.22860
 H673 H 0.93000 0.49860 0.37943
 H674 H 0.98532 0.40679 0.39938
 H675 H 0.92377 0.36223 0.31462
 H676 H 0.96511 0.38423 0.34672
   
