data_POSCAR
  _audit_creation_date              2014-09-24
  _audit_creation_method            'ToBaCCo'
  _symmetry_space_group_name_H-M    'P1'
  _symmetry_Int_Tables_number       1
  _symmetry_cell_setting            triclinic
  loop_
  _symmetry_equiv_pos_as_xyz
 x,y,z
_cell_length_a 19.3953
_cell_length_b 19.4015
_cell_length_c 32.5485
_cell_angle_alpha 89.694700
_cell_angle_beta 89.977300
_cell_angle_gamma 98.211300
loop_
  _atom_site_label
  _atom_site_type_symbol
  _atom_site_fract_x
  _atom_site_fract_y
  _atom_site_fract_z
O1 O 0.05223 0.44018 0.96025
 O2 O 0.05259 0.57427 1.03984
 O3 O 0.05524 0.43987 1.04008
 O4 O 0.05030 0.57485 0.96098
 O5 O -0.06476 0.55605 0.96182
 O6 O -0.05948 0.42014 1.04097
 O7 O -0.06237 0.55411 1.04236
 O8 O -0.06265 0.42223 0.96140
 Cu9 Cu 0.06411 0.50894 1.00014
 Cu10 Cu -0.07387 0.48642 1.00181
 C11 C -0.00528 0.40800 0.94732
 C12 C -0.00482 0.58733 1.05444
 C13 C -0.00113 0.40620 1.05388
 C14 C -0.00793 0.58901 0.94825
 O15 O 0.44878 0.06322 0.54073
 O16 O 0.58017 0.05907 0.45968
 O17 O 0.44520 0.06328 0.46066
 O18 O 0.58264 0.05977 0.53801
 O19 O 0.56352 -0.05528 0.53854
 O20 O 0.42388 -0.05144 0.46204
 O21 O 0.55706 -0.05548 0.45792
 O22 O 0.42971 -0.05158 0.54167
 Cu23 Cu 0.51574 0.07288 0.49963
 Cu24 Cu 0.49166 -0.06499 0.50012
 C25 C 0.41683 0.00654 0.55520
 C26 C 0.59174 0.00116 0.44511
 C27 C 0.41049 0.00663 0.44835
 C28 C 0.59731 0.00178 0.55092
 C29 C -0.00103 -0.00239 0.25024
 C30 C 0.00380 0.00041 0.75018
 C31 C -0.00448 -0.24716 0.14162
 C32 C 0.03809 -0.23820 0.10612
 C33 C 0.03938 -0.29355 0.07873
 C34 C -0.00442 -0.35669 0.08477
 C35 C -0.04916 -0.36464 0.11878
 C36 C -0.04868 -0.31082 0.14726
 C37 C -0.00273 -0.18723 0.17066
 C38 C -0.03412 -0.19340 0.20963
 C39 C -0.03207 -0.13546 0.23515
 C40 C -0.00208 -0.06804 0.22212
 C41 C 0.03416 -0.06399 0.18422
 C42 C 0.03473 -0.12236 0.15903
 C43 C 0.07719 -0.17342 0.09740
 C44 C 0.07409 -0.11627 0.12273
 H45 H 0.10918 -0.16626 0.06997
 H46 H 0.10388 -0.06675 0.11405
 H47 H 0.07251 -0.28667 0.05172
 H48 H -0.08401 -0.41286 0.12353
 H49 H -0.05371 -0.14406 0.26570
 H50 H 0.06364 -0.01588 0.17383
 H51 H -0.08424 -0.31926 0.17291
 H52 H -0.05883 -0.24299 0.22137
 C53 C 0.00677 0.24029 0.13854
 C54 C -0.05808 0.25690 0.12474
 C55 C -0.06046 0.31267 0.09733
 C56 C 0.00120 0.35260 0.08290
 C57 C 0.06540 0.33656 0.09735
 C58 C 0.06823 0.28152 0.12479
 C59 C 0.00699 0.17926 0.16704
 C60 C 0.06855 0.15667 0.18114
 C61 C 0.06604 0.09944 0.20747
 C62 C 0.00211 0.06294 0.22167
 C63 C -0.05948 0.08384 0.20571
 C64 C -0.05754 0.14156 0.17931
 C65 C -0.12025 0.21744 0.13810
 C66 C -0.11998 0.16111 0.16482
 H67 H -0.16998 0.23015 0.12763
 H68 H -0.16955 0.13221 0.17416
 H69 H -0.11067 0.32415 0.08681
 H70 H 0.11406 0.36629 0.08725
 H71 H 0.11498 0.08247 0.21575
 H72 H -0.10972 0.05500 0.21344
 H73 H 0.11912 0.27212 0.13464
 H74 H 0.11937 0.18165 0.17174
 C75 C 0.25394 0.01218 0.64484
 C76 C 0.27106 -0.05229 0.63093
 C77 C 0.32530 -0.05377 0.60252
 C78 C 0.36304 0.00828 0.58734
 C79 C 0.34728 0.07206 0.60204
 C80 C 0.29370 0.07414 0.63047
 C81 C 0.19327 0.01143 0.67355
 C82 C 0.16938 0.07242 0.68720
 C83 C 0.11057 0.06899 0.71220
 C84 C 0.07367 0.00464 0.72567
 C85 C 0.09762 -0.05637 0.71131
 C86 C 0.15649 -0.05349 0.68589
 C87 C 0.23325 -0.11490 0.64492
 C88 C 0.17734 -0.11549 0.67187
 H89 H 0.24658 -0.16431 0.63449
 H90 H 0.14929 -0.16539 0.68137
 H91 H 0.33718 -0.10347 0.59162
 H92 H 0.37585 0.12078 0.59114
 H93 H 0.09201 0.11758 0.71919
 H94 H 0.06967 -0.10703 0.71870
 H95 H 0.28396 0.12478 0.64041
 H96 H 0.19394 0.12350 0.67793
 C97 C -0.22862 0.00282 0.63244
 C98 C -0.29177 -0.04126 0.64083
 C99 C -0.34830 -0.04317 0.61356
 C100 C -0.34384 0.00147 0.57934
 C101 C -0.28251 0.04742 0.57225
 C102 C -0.22532 0.04777 0.59814
 C103 C -0.16863 0.00136 0.66121
 C104 C -0.10207 0.03752 0.65322
 C105 C -0.04790 0.03578 0.68105
 C106 C -0.05690 -0.00282 0.71812
 C107 C -0.12503 -0.03733 0.72644
 C108 C -0.17938 -0.03801 0.69778
 C109 C -0.29851 -0.08140 0.67693
 C110 C -0.24415 -0.07832 0.70533
 H111 H -0.34708 -0.11447 0.68379
 H112 H -0.25247 -0.10920 0.73320
 H113 H -0.39641 -0.07760 0.61958
 H114 H -0.27846 0.08258 0.54609
 H115 H 0.00078 0.06642 0.67286
 H116 H -0.13679 -0.06274 0.75580
 H117 H -0.17961 0.08442 0.59108
 H118 H -0.09032 0.06736 0.62541
 C119 C -0.00884 -0.24379 0.86125
 C120 C 0.03623 -0.23654 0.89564
 C121 C 0.03723 -0.29225 0.92312
 C122 C -0.00894 -0.35407 0.91831
 C123 C -0.05628 -0.36013 0.88560
 C124 C -0.05581 -0.30591 0.85701
 C125 C -0.00605 -0.18387 0.83174
 C126 C -0.03961 -0.18901 0.79341
 C127 C -0.03553 -0.13132 0.76713
 C128 C -0.00141 -0.06498 0.77899
 C129 C 0.03682 -0.06229 0.81606
 C130 C 0.03532 -0.12047 0.84193
 C131 C 0.07860 -0.17319 0.90303
 C132 C 0.07682 -0.11586 0.87733
 H133 H 0.11249 -0.16734 0.92964
 H134 H 0.10948 -0.06750 0.88488
 H135 H 0.07250 -0.28678 0.94914
 H136 H -0.09292 -0.40731 0.88181
 H137 H -0.05783 -0.13979 0.73684
 H138 H 0.06992 -0.01549 0.82492
 H139 H -0.09321 -0.31289 0.83230
 H140 H -0.06720 -0.23783 0.78263
 C141 C -0.00806 0.24070 0.86034
 C142 C 0.05584 0.27374 0.87661
 C143 C 0.05661 0.32925 0.90423
 C144 C -0.00567 0.35238 0.91630
 C145 C -0.06877 0.32031 0.89959
 C146 C -0.07008 0.26547 0.87190
 C147 C -0.00675 0.18035 0.83186
 C148 C -0.06737 0.14224 0.81538
 C149 C -0.06367 0.08584 0.78948
 C150 C 0.00072 0.06552 0.77800
 C151 C 0.06127 0.10271 0.79602
 C152 C 0.05812 0.15956 0.82211
 C153 C 0.11849 0.25072 0.86560
 C154 C 0.11961 0.19492 0.83893
 H155 H 0.16748 0.27602 0.87797
 H156 H 0.16947 0.17898 0.83152
 H157 H 0.10576 0.35358 0.91690
 H158 H -0.11760 0.33730 0.90814
 H159 H -0.11256 0.05825 0.77909
 H160 H 0.11160 0.08643 0.79068
 H161 H -0.12025 0.24310 0.86021
 H162 H -0.11856 0.15439 0.82248
 C163 C -0.24634 -0.00350 0.35821
 C164 C -0.24679 0.05445 0.38425
 C165 C -0.30301 0.05739 0.41100
 C166 C -0.35571 -0.00007 0.41554
 C167 C -0.35239 -0.05959 0.39153
 C168 C -0.29932 -0.06072 0.36253
 C169 C -0.18685 -0.00323 0.32894
 C170 C -0.18869 -0.04892 0.29559
 C171 C -0.13124 -0.04702 0.26946
 C172 C -0.06744 -0.00405 0.27780
 C173 C -0.06919 0.04639 0.30887
 C174 C -0.12832 0.04820 0.33344
 C175 C -0.18938 0.10723 0.38501
 C176 C -0.13022 0.10271 0.36134
 H177 H -0.18897 0.15119 0.40547
 H178 H -0.08602 0.14341 0.36417
 H179 H -0.30304 0.10277 0.43032
 H180 H -0.39160 -0.10506 0.39456
 H181 H -0.13849 -0.07823 0.24205
 H182 H -0.02570 0.08669 0.31329
 H183 H -0.29899 -0.10749 0.34470
 H184 H -0.23531 -0.08423 0.28831
 C185 C 0.24031 0.01124 0.36342
 C186 C 0.25951 -0.05298 0.37665
 C187 C 0.31538 -0.05404 0.40395
 C188 C 0.35323 0.00821 0.41838
 C189 C 0.33492 0.07183 0.40466
 C190 C 0.27935 0.07349 0.37755
 C191 C 0.17933 0.00987 0.33488
 C192 C 0.15404 0.07037 0.32132
 C193 C 0.09722 0.06632 0.29472
 C194 C 0.06347 0.00188 0.27965
 C195 C 0.08780 -0.05872 0.29483
 C196 C 0.14484 -0.05524 0.32169
 C197 C 0.22281 -0.11584 0.36266
 C198 C 0.16697 -0.11694 0.33565
 H199 H 0.23756 -0.16505 0.37268
 H200 H 0.14047 -0.16704 0.32567
 H201 H 0.32913 -0.10361 0.41411
 H202 H 0.36330 0.12070 0.41516
 H203 H 0.07992 0.11492 0.28607
 H204 H 0.06289 -0.10973 0.28638
 H205 H 0.26790 0.12399 0.36813
 H206 H 0.17690 0.12155 0.33114
   
