data_POSCAR
  _audit_creation_date              2014-09-24
  _audit_creation_method            'ToBaCCo'
  _symmetry_space_group_name_H-M    'P1'
  _symmetry_Int_Tables_number       1
  _symmetry_cell_setting            triclinic
  loop_
  _symmetry_equiv_pos_as_xyz
 x,y,z
_cell_length_a 40.2071
_cell_length_b 38.8010
_cell_length_c 39.0748
_cell_angle_alpha 84.189700
_cell_angle_beta 94.355300
_cell_angle_gamma 95.176200
loop_
  _atom_site_label
  _atom_site_type_symbol
  _atom_site_fract_x
  _atom_site_fract_y
  _atom_site_fract_z
C1 C 0.29394 0.30165 0.24280
 H2 H 0.29680 0.30128 0.27058
 C3 C 0.31621 0.32281 0.22244
 H4 H 0.33625 0.33891 0.23452
 C5 C 0.26493 0.28041 0.19303
 H6 H 0.24545 0.26332 0.18165
 C7 C 0.28666 0.30115 0.17175
 H8 H 0.28356 0.30022 0.14407
 N9 N 0.26876 0.28120 0.22787
 C10 C 0.19403 0.26071 0.30464
 H11 H 0.19129 0.23260 0.30699
 C12 C 0.17474 0.27905 0.32364
 H13 H 0.15719 0.26506 0.34084
 C14 C 0.21984 0.31344 0.27897
 H15 H 0.23698 0.32679 0.26113
 C16 C 0.20103 0.33275 0.29747
 H17 H 0.20406 0.36089 0.29409
 Zn18 Zn 0.24093 0.25164 0.25736
 N19 N 0.21630 0.27806 0.28312
 C20 C 0.26999 0.22224 0.32166
 N21 N 0.26945 0.22356 0.28666
 C22 C 0.29048 0.20558 0.27095
 C23 C 0.31267 0.18457 0.29052
 C24 C 0.29185 0.20149 0.34225
 C25 C 0.18686 0.23947 0.20910
 C26 C 0.16447 0.22004 0.18794
 C27 C 0.18871 0.16793 0.21359
 C28 C 0.21066 0.18830 0.23423
 N29 N 0.20987 0.22349 0.23110
 H30 H 0.25365 0.23732 0.33368
 H31 H 0.28989 0.20754 0.24309
 H32 H 0.32916 0.17019 0.27775
 H33 H 0.29208 0.20041 0.37008
 H34 H 0.18647 0.26743 0.20749
 H35 H 0.14681 0.23303 0.16987
 H36 H 0.19000 0.14001 0.21570
 H37 H 0.22850 0.17595 0.25242
 C38 C 0.17834 0.31540 0.32005
 C39 C 0.31253 0.32249 0.18660
 C40 C 0.16570 0.18398 0.18996
 C41 C 0.31329 0.18243 0.32649
 C42 C 0.79482 0.80287 0.24244
 H43 H 0.79773 0.80261 0.27021
 C44 C 0.81698 0.82406 0.22197
 H45 H 0.83695 0.84028 0.23404
 C46 C 0.76582 0.78132 0.19282
 H47 H 0.74639 0.76410 0.18154
 C48 C 0.78742 0.80208 0.17141
 H49 H 0.78420 0.80098 0.14374
 N50 N 0.76970 0.78226 0.22764
 C51 C 0.69504 0.76161 0.30448
 H52 H 0.69239 0.73349 0.30683
 C53 C 0.67567 0.77987 0.32347
 H54 H 0.65815 0.76582 0.34067
 C55 C 0.72070 0.81441 0.27881
 H56 H 0.73783 0.82781 0.26097
 C57 C 0.70182 0.83365 0.29730
 H58 H 0.70476 0.86179 0.29391
 Zn59 Zn 0.74199 0.75266 0.25724
 N60 N 0.71727 0.77903 0.28296
 C61 C 0.77108 0.72337 0.32157
 N62 N 0.77062 0.72473 0.28658
 C63 C 0.79172 0.70678 0.27089
 C64 C 0.81385 0.68574 0.29051
 C65 C 0.79289 0.70259 0.34219
 C66 C 0.68791 0.74016 0.20907
 C67 C 0.66558 0.72058 0.18799
 C68 C 0.69006 0.66864 0.21375
 C69 C 0.71194 0.68916 0.23431
 N70 N 0.71100 0.72433 0.23109
 H71 H 0.75469 0.73841 0.33356
 H72 H 0.79118 0.70876 0.24304
 H73 H 0.83037 0.67136 0.27776
 H74 H 0.79303 0.70144 0.37002
 H75 H 0.68740 0.76811 0.20739
 H76 H 0.64785 0.73345 0.16990
 H77 H 0.69146 0.64074 0.21593
 H78 H 0.72985 0.67693 0.25252
 C79 C 0.67916 0.81623 0.31987
 C80 C 0.81325 0.82362 0.18612
 C81 C 0.66696 0.68454 0.19010
 C82 C 0.81436 0.68352 0.32646
 C83 C 0.79575 0.30867 0.74399
 H84 H 0.79819 0.30850 0.77177
 C85 C 0.81824 0.32980 0.72386
 H86 H 0.83802 0.34609 0.73611
 C87 C 0.76768 0.28687 0.69403
 H88 H 0.74850 0.26956 0.68250
 C89 C 0.78964 0.30758 0.67298
 H90 H 0.78702 0.30639 0.64532
 N91 N 0.77095 0.28793 0.72886
 C92 C 0.69486 0.26639 0.80401
 H93 H 0.69215 0.23829 0.80571
 C94 C 0.67532 0.28415 0.82327
 H95 H 0.65753 0.26974 0.83994
 C96 C 0.72109 0.31964 0.77996
 H97 H 0.73860 0.33340 0.76272
 C98 C 0.70203 0.33841 0.79875
 H99 H 0.70514 0.36656 0.79616
 Zn100 Zn 0.74289 0.25822 0.75800
 N101 N 0.71749 0.28426 0.78324
 C102 C 0.77078 0.22972 0.82304
 N103 N 0.77116 0.23065 0.78814
 C104 C 0.79267 0.21247 0.77331
 C105 C 0.81429 0.19147 0.79373
 C106 C 0.79201 0.20902 0.84448
 C107 C 0.68962 0.24507 0.70905
 C108 C 0.66759 0.22518 0.68796
 C109 C 0.69202 0.17356 0.71464
 C110 C 0.71360 0.19439 0.73518
 N111 N 0.71253 0.22955 0.73154
 H112 H 0.75410 0.24499 0.83435
 H113 H 0.79279 0.21414 0.74551
 H114 H 0.83103 0.17684 0.78151
 H115 H 0.79129 0.20823 0.87223
 H116 H 0.68896 0.27302 0.70705
 H117 H 0.64998 0.23780 0.66954
 H118 H 0.69351 0.14566 0.71721
 H119 H 0.73133 0.18240 0.75377
 C120 C 0.67906 0.32048 0.82070
 C121 C 0.81517 0.32917 0.68804
 C122 C 0.66908 0.18913 0.69057
 C123 C 0.81385 0.18957 0.82966
 C124 C 0.29471 0.81006 0.74330
 H125 H 0.29710 0.80996 0.77108
 C126 C 0.31727 0.83112 0.72318
 H127 H 0.33702 0.84743 0.73543
 C128 C 0.26679 0.78808 0.69336
 H129 H 0.24765 0.77071 0.68184
 C130 C 0.28880 0.80872 0.67232
 H131 H 0.28627 0.80742 0.64467
 N132 N 0.26997 0.78925 0.72818
 C133 C 0.19387 0.76751 0.80331
 H134 H 0.19125 0.73940 0.80501
 C135 C 0.17426 0.78519 0.82256
 H136 H 0.15650 0.77071 0.83924
 C137 C 0.21994 0.82084 0.77926
 H138 H 0.23743 0.83465 0.76203
 C139 C 0.20081 0.83953 0.79805
 H140 H 0.20383 0.86768 0.79546
 Zn141 Zn 0.24197 0.75949 0.75734
 N142 N 0.21646 0.78545 0.78254
 C143 C 0.26994 0.73115 0.82241
 N144 N 0.27032 0.73207 0.78751
 C145 C 0.29192 0.71396 0.77270
 C146 C 0.31362 0.69308 0.79315
 C147 C 0.29127 0.71055 0.84385
 C148 C 0.18878 0.74607 0.70836
 C149 C 0.16683 0.72605 0.68731
 C150 C 0.19140 0.67458 0.71418
 C151 C 0.21290 0.69553 0.73467
 N152 N 0.21172 0.73068 0.73091
 H153 H 0.25320 0.74635 0.83372
 H154 H 0.29205 0.71560 0.74490
 H155 H 0.33046 0.67846 0.78112
 H156 H 0.29066 0.70967 0.87159
 H157 H 0.18804 0.77401 0.70627
 H158 H 0.14919 0.73856 0.66884
 H159 H 0.19297 0.64669 0.71684
 H160 H 0.23064 0.68364 0.75331
 C161 C 0.17788 0.82152 0.81999
 C162 C 0.31430 0.83035 0.68737
 C163 C 0.16843 0.69001 0.69004
 C164 C 0.31316 0.69123 0.82903
 C165 C 0.02716 -0.02802 -0.03356
 C166 C 0.04829 -0.00247 -0.01145
 C167 C 0.03014 0.01495 0.00818
 C168 C -0.00780 0.00569 0.00345
 C169 C 0.00599 -0.05141 -0.00807
 C170 C -0.01240 -0.03398 0.01125
 C171 C 0.00223 -0.00514 -0.05482
 C172 C -0.01622 0.01229 -0.03554
 H173 H 0.07532 0.00115 -0.01111
 H174 H -0.02264 0.02003 0.01919
 H175 H 0.00482 -0.07952 -0.00656
 H176 H 0.00121 -0.00044 -0.08260
 C177 C 0.03638 0.47107 0.47048
 C178 C 0.05676 0.49728 0.49260
 C179 C 0.03778 0.51597 0.51009
 C180 C -0.00001 0.50659 0.50422
 C181 C 0.01463 0.44872 0.49639
 C182 C -0.00466 0.46714 0.51383
 C183 C 0.01180 0.49269 0.44749
 C184 C -0.00721 0.51137 0.46495
 H185 H 0.08368 0.49881 0.49696
 H186 H -0.01548 0.52166 0.51858
 H187 H 0.01418 0.42065 0.50006
 H188 H 0.01052 0.49388 0.41962
 C189 C 0.53653 -0.02880 0.47036
 C190 C 0.55692 -0.00263 0.49250
 C191 C 0.53795 0.01611 0.50994
 C192 C 0.50015 0.00681 0.50402
 C193 C 0.51471 -0.05111 0.49624
 C194 C 0.49542 -0.03264 0.51363
 C195 C 0.51201 -0.00715 0.44732
 C196 C 0.49300 0.01157 0.46474
 H197 H 0.58383 -0.00120 0.49693
 H198 H 0.48469 0.02192 0.51834
 H199 H 0.51421 -0.07918 0.49994
 H200 H 0.51071 -0.00604 0.41945
 C201 C 0.52894 0.47169 -0.03300
 C202 C 0.55009 0.49717 -0.01082
 C203 C 0.53195 0.51460 0.00880
 C204 C 0.49399 0.50544 0.00399
 C205 C 0.50768 0.44832 -0.00758
 C206 C 0.48929 0.46577 0.01172
 C207 C 0.50409 0.49466 -0.05427
 C208 C 0.48565 0.51211 -0.03500
 H209 H 0.57712 0.50077 -0.01046
 H210 H 0.47916 0.51978 0.01973
 H211 H 0.50642 0.42021 -0.00613
 H212 H 0.50311 0.49938 -0.08206
 C213 C 0.09587 -0.08264 -0.05601
 C214 C 0.08572 -0.08932 -0.08989
 C215 C 0.05610 -0.07695 -0.10545
 C216 C 0.03700 -0.05736 -0.08753
 C217 C 0.15806 -0.15971 -0.16030
 C218 C 0.07682 -0.06306 -0.03801
 C219 C 0.10557 -0.10894 -0.10872
 C220 C 0.12214 -0.12514 -0.12479
 C221 C 0.14150 -0.14387 -0.14387
 C222 C 0.04763 -0.04913 -0.05385
 H223 H 0.11849 -0.09261 -0.04348
 H224 H 0.04765 -0.08259 -0.13145
 H225 H 0.01373 -0.04936 -0.10014
 H226 H 0.08495 -0.05881 -0.01161
 C227 C 0.05696 0.40056 0.41535
 C228 C 0.09072 0.40963 0.40990
 C229 C 0.10697 0.43922 0.42331
 C230 C 0.08979 0.45935 0.44264
 C231 C 0.15882 0.33495 0.33933
 C232 C 0.03970 0.42065 0.43466
 C233 C 0.10875 0.38879 0.39042
 C234 C 0.12422 0.37155 0.37425
 C235 C 0.14272 0.35165 0.35542
 C236 C 0.05604 0.44984 0.44946
 H237 H 0.04396 0.37798 0.40466
 H238 H 0.13296 0.44686 0.41869
 H239 H 0.10312 0.48253 0.45149
 H240 H 0.01346 0.41329 0.43814
 C241 C 0.55745 -0.09942 0.41550
 C242 C 0.59110 -0.09002 0.40977
 C243 C 0.60714 -0.06019 0.42290
 C244 C 0.58987 -0.04015 0.44223
 C245 C 0.65955 -0.16430 0.33915
 C246 C 0.54009 -0.07943 0.43482
 C247 C 0.60922 -0.11075 0.39027
 C248 C 0.62478 -0.12790 0.37409
 C249 C 0.64338 -0.14768 0.35524
 C250 C 0.55625 -0.05000 0.44937
 H251 H 0.54460 -0.12219 0.40502
 H252 H 0.63303 -0.05229 0.41804
 H253 H 0.60300 -0.01676 0.45085
 H254 H 0.51393 -0.08703 0.43849
 C255 C 0.55770 0.42258 -0.10484
 C256 C 0.58731 0.41018 -0.08929
 C257 C 0.59754 0.41692 -0.05545
 C258 C 0.57856 0.43659 -0.03746
 C259 C 0.65932 0.33934 -0.15961
 C260 C 0.53868 0.44226 -0.08693
 C261 C 0.60706 0.39043 -0.10809
 C262 C 0.62355 0.37412 -0.12414
 C263 C 0.64283 0.35528 -0.14319
 C264 C 0.54937 0.45055 -0.05328
 H265 H 0.54919 0.41689 -0.13080
 H266 H 0.62015 0.40693 -0.04292
 H267 H 0.58674 0.44087 -0.01108
 H268 H 0.51540 0.45028 -0.09951
 C269 C -0.06735 0.09058 -0.05176
 C270 C -0.08605 0.08340 -0.08230
 C271 C -0.08250 0.05266 -0.09701
 C272 C -0.06007 0.02936 -0.08156
 C273 C -0.16646 0.16947 -0.15095
 C274 C -0.04489 0.06723 -0.03619
 C275 C -0.10826 0.10780 -0.09932
 C276 C -0.12673 0.12774 -0.11465
 C277 C -0.14822 0.15051 -0.13375
 C278 C -0.04082 0.03652 -0.05113
 H279 H -0.06981 0.11440 -0.04024
 H280 H -0.09689 0.04681 -0.12061
 H281 H -0.05786 0.00568 -0.09338
 H282 H -0.03010 0.07368 -0.01304
 C283 C -0.06025 0.58782 0.44465
 C284 C -0.07857 0.57899 0.41443
 C285 C -0.07375 0.54794 0.40084
 C286 C -0.05062 0.52586 0.41729
 C287 C -0.16306 0.66168 0.34692
 C288 C -0.03711 0.56574 0.46117
 C289 C -0.10194 0.60196 0.39696
 C290 C -0.12137 0.62102 0.38179
 C291 C -0.14395 0.64308 0.36334
 C292 C -0.03198 0.53457 0.44760
 H293 H -0.06366 0.61188 0.45530
 H294 H -0.08783 0.54082 0.37749
 H295 H -0.04758 0.50182 0.40647
 H296 H -0.02278 0.57347 0.48413
 C297 C 0.42619 0.04770 0.40069
 C298 C 0.42123 0.07873 0.41424
 C299 C 0.43958 0.08771 0.44439
 C300 C 0.46288 0.06580 0.46089
 C301 C 0.33602 0.16072 0.34691
 C302 C 0.44948 0.02579 0.41711
 C303 C 0.39766 0.10151 0.39682
 C304 C 0.37805 0.12039 0.38169
 C305 C 0.35528 0.14227 0.36329
 C306 C 0.46814 0.03464 0.44736
 H307 H 0.41209 0.04046 0.37738
 H308 H 0.43606 0.11176 0.45501
 H309 H 0.47721 0.07364 0.48380
 H310 H 0.45261 0.00175 0.40632
 C311 C 0.43448 0.59038 -0.05105
 C312 C 0.41577 0.58325 -0.08160
 C313 C 0.41938 0.55257 -0.09641
 C314 C 0.44185 0.52929 -0.08104
 C315 C 0.33493 0.66922 -0.14966
 C316 C 0.45699 0.56703 -0.03556
 C317 C 0.39347 0.60761 -0.09848
 C318 C 0.37489 0.62753 -0.11368
 C319 C 0.35328 0.65028 -0.13261
 C320 C 0.46108 0.53638 -0.05059
 H321 H 0.43198 0.61414 -0.03945
 H322 H 0.40498 0.54676 -0.12002
 H323 H 0.44408 0.50565 -0.09293
 H324 H 0.47176 0.57344 -0.01239
 C325 C -0.08798 -0.05523 0.06433
 C326 C -0.08004 -0.08634 0.08326
 C327 C -0.04974 -0.10004 0.07909
 C328 C -0.02757 -0.08289 0.05589
 C329 C -0.16487 -0.15677 0.16564
 C330 C -0.06581 -0.03800 0.04112
 C331 C -0.10329 -0.10474 0.10630
 C332 C -0.12274 -0.12065 0.12531
 C333 C -0.14547 -0.13987 0.14723
 C334 C -0.03545 -0.05176 0.03652
 H335 H -0.11146 -0.04450 0.06721
 H336 H -0.04333 -0.12408 0.09364
 H337 H -0.00418 -0.09388 0.05327
 H338 H -0.07285 -0.01441 0.02620
 C339 C -0.08186 0.44806 0.56476
 C340 C -0.07415 0.41790 0.58553
 C341 C -0.04340 0.40425 0.58341
 C342 C -0.02060 0.42044 0.56037
 C343 C -0.16123 0.34965 0.66678
 C344 C -0.05906 0.46433 0.54171
 C345 C -0.09808 0.40029 0.60829
 C346 C -0.11806 0.38491 0.62704
 C347 C -0.14139 0.36621 0.64864
 C348 C -0.02829 0.45054 0.53910
 H349 H -0.10567 0.45874 0.56607
 H350 H -0.03715 0.38094 0.59939
 H351 H 0.00309 0.40949 0.55932
 H352 H -0.06592 0.48714 0.52533
 C353 C 0.45627 -0.09539 0.58307
 C354 C 0.42557 -0.08162 0.58508
 C355 C 0.41800 -0.05144 0.56426
 C356 C 0.44092 -0.03527 0.54129
 C357 C 0.33801 -0.14932 0.66614
 C358 C 0.47919 -0.07929 0.56010
 C359 C 0.40152 -0.09911 0.60777
 C360 C 0.38143 -0.11436 0.62648
 C361 C 0.35797 -0.13290 0.64804
 C362 C 0.47167 -0.04917 0.53880
 H363 H 0.46241 -0.11872 0.59909
 H364 H 0.39423 -0.04067 0.56548
 H365 H 0.43417 -0.01244 0.52487
 H366 H 0.50285 -0.09033 0.55915
 C367 C 0.41341 0.44462 0.06435
 C368 C 0.42117 0.41344 0.08325
 C369 C 0.45147 0.39966 0.07922
 C370 C 0.47380 0.41680 0.05618
 C371 C 0.33577 0.34317 0.16509
 C372 C 0.43574 0.46184 0.04131
 C373 C 0.39777 0.39506 0.10613
 C374 C 0.37818 0.37918 0.12501
 C375 C 0.35528 0.36002 0.14678
 C376 C 0.46608 0.44800 0.03684
 H377 H 0.38994 0.45542 0.06714
 H378 H 0.45775 0.37556 0.09375
 H379 H 0.49717 0.40575 0.05365
 H380 H 0.42882 0.48549 0.02640
 C381 C 0.04757 0.06457 0.08724
 C382 C 0.07673 0.08530 0.07902
 C383 C 0.09012 0.08374 0.04725
 C384 C 0.07474 0.06122 0.02397
 C385 C 0.14450 0.16357 0.16691
 C386 C 0.03209 0.04204 0.06394
 C387 C 0.09373 0.10726 0.10353
 C388 C 0.10887 0.12534 0.12381
 C389 C 0.12762 0.14613 0.14723
 C390 C 0.04571 0.03990 0.03219
 H391 H 0.03709 0.06543 0.11185
 H392 H 0.11266 0.09969 0.04060
 H393 H 0.08553 0.06057 -0.00049
 H394 H 0.01005 0.02561 0.07121
 C395 C 0.05232 0.56800 0.58779
 C396 C 0.08211 0.58800 0.58038
 C397 C 0.09690 0.58506 0.54965
 C398 C 0.08225 0.56195 0.52660
 C399 C 0.14764 0.66894 0.66725
 C400 C 0.03757 0.54485 0.56470
 C401 C 0.09833 0.61067 0.60467
 C402 C 0.11293 0.62938 0.62471
 C403 C 0.13115 0.65091 0.64782
 C404 C 0.05257 0.54138 0.53400
 H405 H 0.04076 0.56992 0.61161
 H406 H 0.11994 0.60043 0.54364
 H407 H 0.09413 0.56021 0.50294
 H408 H 0.01499 0.52903 0.57136
 C409 C 0.59722 0.08492 0.54977
 C410 C 0.58241 0.08782 0.58050
 C411 C 0.55254 0.06792 0.58780
 C412 C 0.53773 0.04490 0.56462
 C413 C 0.64821 0.16820 0.66771
 C414 C 0.58252 0.06192 0.52663
 C415 C 0.59870 0.11034 0.60489
 C416 C 0.61335 0.12891 0.62502
 C417 C 0.63165 0.15029 0.64822
 C418 C 0.55276 0.04145 0.53393
 H419 H 0.62032 0.10020 0.54384
 H420 H 0.54096 0.06982 0.61162
 H421 H 0.51509 0.02914 0.57120
 H422 H 0.59442 0.06019 0.50298
 C423 C 0.59187 0.58349 0.04779
 C424 C 0.57840 0.58516 0.07950
 C425 C 0.54925 0.56443 0.08773
 C426 C 0.53383 0.54181 0.06448
 C427 C 0.64583 0.66398 0.16712
 C428 C 0.57654 0.56089 0.02456
 C429 C 0.59532 0.60726 0.10394
 C430 C 0.61038 0.62546 0.12416
 C431 C 0.62903 0.64641 0.14750
 C432 C 0.54750 0.53959 0.03278
 H433 H 0.61441 0.59945 0.04113
 H434 H 0.53872 0.56537 0.11230
 H435 H 0.51178 0.52540 0.07176
 H436 H 0.58737 0.56017 0.00013
   
