data_POSCAR
  _audit_creation_date              2014-09-24
  _audit_creation_method            'ToBaCCo'
  _symmetry_space_group_name_H-M    'P1'
  _symmetry_Int_Tables_number       1
  _symmetry_cell_setting            triclinic
  loop_
  _symmetry_equiv_pos_as_xyz
 x,y,z
_cell_length_a 19.0767
_cell_length_b 11.9313
_cell_length_c 12.7881
_cell_angle_alpha 89.771700
_cell_angle_beta 90.030500
_cell_angle_gamma 89.851400
loop_
  _atom_site_label
  _atom_site_type_symbol
  _atom_site_fract_x
  _atom_site_fract_y
  _atom_site_fract_z
O1 O 0.04909 0.23541 0.19112
 O2 O 0.14453 0.18234 0.09368
 C3 C 0.11461 0.24220 0.16550
 O4 O -0.04491 -0.25257 0.17951
 O5 O -0.14131 -0.19158 0.08752
 C6 C -0.11093 -0.25736 0.15448
 O7 O 0.13827 -0.13422 0.18770
 O8 O 0.18705 0.00579 0.08826
 C9 C 0.19102 -0.07220 0.15893
 O10 O -0.13500 0.13527 0.18136
 O11 O -0.18327 -0.00904 0.08806
 C12 C -0.18735 0.07272 0.15406
 Zr13 Zr -0.02894 0.12692 0.13388
 O14 O -0.02590 0.10482 0.29786
 O15 O -0.06727 0.29243 0.15077
 Zr16 Zr 0.03346 -0.13769 0.13014
 O17 O 0.02976 -0.14600 0.29541
 O18 O 0.07500 -0.30159 0.11865
 O19 O 0.06111 0.02977 0.15220
 O20 O -0.05511 -0.03974 0.15112
 O21 O -0.13650 0.13577 -0.17935
 O22 O -0.18459 -0.00900 -0.08505
 C23 C -0.18876 0.07299 -0.15137
 O24 O 0.13642 -0.12595 -0.19313
 O25 O 0.18642 0.01111 -0.09176
 C26 C 0.18906 -0.06398 -0.16456
 O27 O -0.04566 -0.24808 -0.18260
 O28 O -0.14182 -0.18972 -0.08912
 C29 C -0.11155 -0.25387 -0.15713
 O30 O 0.04815 0.23926 -0.18961
 O31 O 0.14393 0.18469 -0.09305
 C32 C 0.11387 0.24537 -0.16463
 Zr33 Zr -0.03018 0.13178 -0.13067
 O34 O -0.02660 0.13523 -0.29645
 O35 O -0.06515 0.30038 -0.12792
 Zr36 Zr 0.03251 -0.13317 -0.13348
 O37 O 0.02592 -0.13303 -0.29868
 O38 O 0.07768 -0.29536 -0.13547
 Zr39 Zr 0.09956 0.05650 -0.00033
 Zr40 Zr -0.09607 -0.06131 -0.00018
 O41 O -0.05607 -0.03477 -0.15140
 O42 O 0.05949 0.03472 -0.15241
 O43 O -0.09258 0.11527 0.00188
 O44 O 0.09466 -0.11984 -0.00203
 O45 O 0.02297 0.18330 0.00158
 O46 O -0.02093 -0.19100 -0.00178
 H47 H -0.08478 -0.05781 0.21247
 H48 H 0.13865 -0.16415 -0.00324
 H49 H -0.08635 -0.05266 -0.21191
 H50 H 0.03824 0.26259 0.00164
 H51 H 0.08134 -0.32868 0.19142
 H52 H 0.05407 -0.33983 -0.08038
 H53 H 0.04293 -0.05917 -0.32318
 H54 H -0.06146 0.08188 -0.32428
 H55 H -0.10651 0.30404 -0.08133
 H56 H -0.06019 0.33108 0.08318
 H57 H -0.04480 0.17495 0.32817
 H58 H 0.04913 -0.07471 0.32200
 O59 O 0.63622 0.63155 0.68760
 O60 O 0.68595 0.49221 0.58881
 C61 C 0.68912 0.56910 0.65997
 O62 O 0.36384 0.36524 0.67948
 O63 O 0.31560 0.51178 0.58779
 C64 C 0.31134 0.42892 0.65325
 O65 O 0.54853 0.26400 0.69076
 O66 O 0.64383 0.31774 0.59380
 C67 C 0.61422 0.25740 0.66589
 O68 O 0.45296 0.75183 0.67694
 O69 O 0.35702 0.69189 0.58460
 C70 C 0.38703 0.75746 0.65160
 Zr71 Zr 0.53181 0.63720 0.62885
 O72 O 0.52593 0.64240 0.79403
 O73 O 0.57745 0.79878 0.62625
 Zr74 Zr 0.47016 0.37236 0.63255
 O75 O 0.47238 0.39222 0.79667
 O76 O 0.43249 0.20659 0.64886
 O77 O 0.55972 0.46964 0.65147
 O78 O 0.44362 0.53890 0.64974
 O79 O 0.45220 0.74718 0.31263
 O80 O 0.35687 0.68881 0.40711
 C81 C 0.38623 0.75272 0.33785
 O82 O 0.54896 0.26307 0.30952
 O83 O 0.64390 0.31674 0.40698
 C84 C 0.61462 0.25651 0.33494
 O85 O 0.36385 0.36467 0.31910
 O86 O 0.31536 0.51043 0.41044
 C87 C 0.31127 0.42784 0.34531
 O88 O 0.63587 0.62768 0.30632
 O89 O 0.68571 0.49040 0.40851
 C90 C 0.68882 0.56586 0.33557
 Zr91 Zr 0.53159 0.63485 0.36543
 O92 O 0.52661 0.63793 0.20016
 O93 O 0.57696 0.79669 0.36626
 Zr94 Zr 0.46987 0.36948 0.36826
 O95 O 0.46927 0.38010 0.20321
 O96 O 0.43680 0.20018 0.36689
 Zr97 Zr 0.59877 0.44423 0.49930
 Zr98 Zr 0.40274 0.56119 0.49827
 O99 O 0.44360 0.53577 0.34736
 O100 O 0.55928 0.46684 0.34685
 O101 O 0.47735 0.69153 0.49651
 O102 O 0.52278 0.31716 0.50084
 O103 O 0.59338 0.62062 0.49724
 O104 O 0.40671 0.38465 0.50031
 H105 H 0.41383 0.55687 0.71091
 H106 H 0.53837 0.23790 0.50105
 H107 H 0.41416 0.55223 0.28528
 H108 H 0.63738 0.66455 0.49667
 H109 H 0.43877 0.16941 0.58064
 H110 H 0.39604 0.19413 0.41444
 H111 H 0.45120 0.30727 0.17789
 H112 H 0.54249 0.56357 0.17552
 H113 H 0.54438 0.84728 0.40354
 H114 H 0.54701 0.84759 0.58296
 H115 H 0.54700 0.57204 0.82082
 H116 H 0.45335 0.32184 0.82649
 N117 N 0.18516 0.45296 0.33004
 N118 N 0.13100 0.40495 0.28357
 C119 C 0.15729 0.32283 0.22283
 C120 C 0.22907 0.32160 0.23328
 N121 N 0.24428 0.40382 0.30105
 H122 H 0.26611 0.26321 0.19937
 N123 N 0.81392 0.53160 0.31617
 N124 N 0.86918 0.57669 0.26958
 C125 C 0.84483 0.66117 0.20935
 C126 C 0.77290 0.66659 0.22035
 N127 N 0.75575 0.58457 0.28791
 H128 H 0.73734 0.72863 0.18812
 N129 N 0.63100 0.09844 0.78282
 N130 N 0.68252 0.04660 0.83306
 C131 C 0.74244 0.09732 0.80353
 C132 C 0.72640 0.18125 0.73320
 N133 N 0.65641 0.17915 0.72259
 H134 H 0.76154 0.24140 0.69749
 N135 N 0.36871 0.92050 0.76244
 N136 N 0.31672 0.97072 0.81269
 C137 C 0.25727 0.91710 0.78559
 C138 C 0.27426 0.83293 0.71659
 N139 N 0.34420 0.83775 0.70442
 H140 H 0.24000 0.76954 0.68441
 N141 N 0.18526 0.45508 0.66861
 N142 N 0.13095 0.40788 0.71574
 C143 C 0.15690 0.32548 0.77712
 C144 C 0.22871 0.32324 0.76623
 N145 N 0.24424 0.40518 0.69767
 H146 H 0.26555 0.26445 0.80056
 N147 N 0.81436 0.53621 0.68012
 N148 N 0.86927 0.58131 0.72734
 C149 C 0.84447 0.66513 0.78733
 C150 C 0.77259 0.67020 0.77543
 N151 N 0.75594 0.58859 0.70766
 H152 H 0.73670 0.73157 0.80747
 N153 N 0.36601 0.91308 0.22277
 N154 N 0.31334 0.96234 0.17276
 C155 C 0.25420 0.90814 0.20122
 C156 C 0.27227 0.82493 0.27183
 N157 N 0.34245 0.83058 0.28252
 H158 H 0.23856 0.76234 0.30701
 N159 N 0.63213 0.09785 0.21897
 N160 N 0.68385 0.04627 0.16941
 C161 C 0.74369 0.09718 0.19883
 C162 C 0.72729 0.18112 0.26847
 N163 N 0.65722 0.17871 0.27876
 H164 H 0.76225 0.24139 0.30398
   
