data_POSCAR
  _audit_creation_date              2014-09-24
  _audit_creation_method            'ToBaCCo'
  _symmetry_space_group_name_H-M    'P1'
  _symmetry_Int_Tables_number       1
  _symmetry_cell_setting            triclinic
  loop_
  _symmetry_equiv_pos_as_xyz
 x,y,z
_cell_length_a 28.4914
_cell_length_b 28.4972
_cell_length_c 66.2202
_cell_angle_alpha 89.987100
_cell_angle_beta 90.030500
_cell_angle_gamma 120.006500
loop_
  _atom_site_label
  _atom_site_type_symbol
  _atom_site_fract_x
  _atom_site_fract_y
  _atom_site_fract_z
Si1 Si -0.00133 -0.00267 0.50042
 Si2 Si 1.00159 0.00059 0.16632
 Si3 Si 0.00157 1.00394 0.83331
 O4 O 0.57077 0.05279 -0.02086
 O5 O 0.48064 0.05233 0.01955
 O6 O 0.57435 0.05665 0.01838
 O7 O 0.48133 0.05704 -0.01969
 O8 O 0.43551 -0.03232 -0.01975
 O9 O 0.53081 -0.03270 0.01817
 O10 O 0.43725 -0.03702 0.01944
 O11 O 0.52480 -0.03656 -0.02103
 Cu12 Cu 0.53122 0.06360 -0.00064
 Cu13 Cu 0.47765 -0.04352 -0.00081
 C14 C 0.56303 0.00778 -0.02779
 C15 C 0.44331 0.00717 0.02635
 C16 C 0.56909 0.01227 0.02471
 C17 C 0.44227 0.01278 -0.02615
 O18 O -0.05129 0.42903 0.68768
 O19 O -0.05149 0.51875 0.64721
 O20 O -0.05583 0.42505 0.64844
 O21 O -0.05550 0.51847 0.68646
 O22 O 0.03387 0.56424 0.68631
 O23 O 0.03354 0.46855 0.64845
 O24 O 0.03788 0.56210 0.64712
 O25 O 0.03808 0.47496 0.68764
 Cu26 Cu -0.06243 0.46838 0.66745
 Cu27 Cu 0.04472 0.52189 0.66737
 C28 C -0.00615 0.43683 0.69452
 C29 C -0.00643 0.55600 0.64030
 C30 C -0.01156 0.43023 0.64202
 C31 C -0.01111 0.55758 0.69280
 O32 O 0.53075 0.56381 0.31443
 O33 O 0.43528 0.46833 0.35231
 O34 O 0.52453 0.56187 0.35362
 O35 O 0.43721 0.47456 0.31312
 O36 O 0.48062 0.42862 0.31315
 O37 O 0.57052 0.51850 0.35360
 O38 O 0.48111 0.42480 0.35240
 O39 O 0.57432 0.51803 0.31436
 Cu40 Cu 0.47751 0.52158 0.33337
 Cu41 Cu 0.53109 0.46804 0.33338
 C42 C 0.56907 0.55711 0.30797
 C43 C 0.44202 0.43002 0.35878
 C44 C 0.56272 0.55578 0.36047
 C45 C 0.44331 0.43640 0.30628
 C46 C 0.02874 0.11885 0.54087
 C47 C -0.01972 0.12005 0.54135
 C48 C -0.06416 0.08282 0.52982
 C49 C -0.05985 0.04478 0.51773
 C50 C -0.01114 0.04382 0.51721
 C51 C 0.03304 0.08106 0.52882
 C52 C -0.02272 0.16030 0.55352
 C53 C -0.02297 0.19489 0.56391
 C54 C -0.02146 0.23591 0.57631
 C55 C -0.01946 0.27092 0.58709
 C56 C -0.01706 0.31228 0.60025
 C57 C -0.06500 0.30980 0.60665
 C58 C -0.06305 0.34865 0.62001
 C59 C -0.01301 0.39062 0.62719
 C60 C 0.03506 0.39321 0.62047
 C61 C 0.03299 0.35421 0.60709
 H62 H 0.06340 0.14749 0.54966
 H63 H -0.10181 0.08355 0.53004
 H64 H -0.09412 0.01686 0.50865
 H65 H 0.07112 0.08120 0.52843
 H66 H -0.10395 0.27750 0.60148
 H67 H -0.10083 0.34544 0.62487
 H68 H 0.07418 0.42494 0.62573
 H69 H 0.07037 0.35644 0.60224
 C70 C 0.88009 0.90906 0.20675
 C71 C 0.87887 0.85940 0.20724
 C72 C 0.91608 0.85220 0.19570
 C73 C 0.95411 0.89457 0.18360
 C74 C 0.95509 0.94425 0.18310
 C75 C 0.91787 0.95117 0.19471
 C76 C 0.83864 0.81614 0.21941
 C77 C 0.80407 0.78128 0.22981
 C78 C 0.76309 0.74174 0.24221
 C79 C 0.72811 0.70870 0.25300
 C80 C 0.68682 0.66970 0.26616
 C81 C 0.68935 0.62425 0.27254
 C82 C 0.65056 0.58730 0.28591
 C83 C 0.60861 0.59532 0.29313
 C84 C 0.60597 0.64080 0.28644
 C85 C 0.64491 0.67778 0.27305
 H86 H 0.85147 0.91507 0.21556
 H87 H 0.91533 0.81383 0.19591
 H88 H 0.98201 0.88824 0.17452
 H89 H 0.91775 0.98911 0.19433
 H90 H 0.72163 0.61763 0.26733
 H91 H 0.65380 0.55272 0.29074
 H92 H 0.57425 0.64814 0.29173
 H93 H 0.64264 0.71292 0.26822
 C94 C 0.14776 0.06565 -0.13851
 C95 C 0.14002 0.02166 -0.12660
 C96 C 0.08985 -0.02619 -0.12667
 C97 C 0.04771 -0.03041 -0.13868
 C98 C 0.05503 0.01337 -0.15070
 C99 C 0.10542 0.06152 -0.15059
 C100 C 0.18331 0.02445 -0.11450
 C101 C 0.21819 0.02456 -0.10416
 C102 C 0.25774 0.02292 -0.09181
 C103 C 0.29079 0.02085 -0.08105
 C104 C 0.32979 0.01839 -0.06793
 C105 C 0.32165 -0.03167 -0.06111
 C106 C 0.35861 -0.03378 -0.04773
 C107 C 0.40412 0.01427 -0.04099
 C108 C 0.41221 0.06431 -0.04815
 C109 C 0.37528 0.06629 -0.06151
 H110 H 0.18659 0.10280 -0.13864
 H111 H 0.08343 -0.06053 -0.11758
 H112 H 0.00944 -0.06823 -0.13868
 H113 H 0.11261 0.09555 -0.15998
 H114 H 0.28647 -0.06902 -0.06596
 H115 H 0.35121 -0.07290 -0.04248
 H116 H 0.44681 0.10207 -0.04329
 H117 H 0.38195 0.10525 -0.06667
 C118 C 0.01112 0.90969 0.54786
 C119 C 0.01817 0.87020 0.53802
 C120 C 0.02440 0.87218 0.51700
 C121 C 0.02188 0.91258 0.50584
 C122 C 0.01319 0.95124 0.51562
 C123 C 0.00848 0.94992 0.53673
 C124 C 0.01563 0.82607 0.54949
 C125 C 0.01217 0.78919 0.55954
 C126 C 0.00743 0.74650 0.57179
 C127 C 0.00360 0.71083 0.58267
 C128 C 0.00016 0.66958 0.59615
 C129 C 0.04761 0.67071 0.60236
 C130 C 0.04518 0.63303 0.61640
 C131 C -0.00487 0.59354 0.62450
 C132 C -0.05258 0.59195 0.61787
 C133 C -0.05001 0.62987 0.60380
 H134 H 0.00592 0.90835 0.56410
 H135 H 0.02959 0.84166 0.50920
 H136 H 0.02469 0.91246 0.48953
 H137 H 0.00056 0.97842 0.54463
 H138 H 0.08665 0.70132 0.59658
 H139 H 0.08269 0.63537 0.62113
 H140 H -0.09168 0.56214 0.62384
 H141 H -0.08701 0.62875 0.59914
 C142 C 0.08935 0.10053 0.21378
 C143 C 0.12885 0.14709 0.20394
 C144 C 0.12685 0.15139 0.18293
 C145 C 0.08642 0.10852 0.17175
 C146 C 0.04774 0.06114 0.18153
 C147 C 0.04907 0.05769 0.20264
 C148 C 0.17301 0.18864 0.21542
 C149 C 0.20992 0.22202 0.22548
 C150 C 0.25264 0.25993 0.23774
 C151 C 0.28833 0.29175 0.24863
 C152 C 0.32961 0.32951 0.26212
 C153 C 0.32844 0.37576 0.26836
 C154 C 0.36616 0.41098 0.28241
 C155 C 0.40572 0.40045 0.29047
 C156 C 0.40734 0.35440 0.28381
 C157 C 0.36938 0.31908 0.26973
 H158 H 0.09070 0.09661 0.23001
 H159 H 0.15738 0.18712 0.17514
 H160 H 0.08652 0.11150 0.15545
 H161 H 0.02056 0.02125 0.21053
 H162 H 0.29778 0.38417 0.26261
 H163 H 0.36379 0.44610 0.28717
 H164 H 0.43721 0.34514 0.28974
 H165 H 0.37052 0.28325 0.26504
 C166 C 0.84988 -0.02336 -0.15031
 C167 C 0.85431 -0.01585 -0.12935
 C168 C 0.90130 -0.00733 -0.11942
 C169 C 0.94440 -0.00457 -0.13043
 C170 C 0.94079 -0.01069 -0.15150
 C171 C 0.89302 -0.02072 -0.16135
 C172 C 0.81240 -0.01351 -0.11803
 C173 C 0.77873 -0.01020 -0.10810
 C174 C 0.74052 -0.00560 -0.09596
 C175 C 0.70847 -0.00187 -0.08517
 C176 C 0.67046 0.00148 -0.07178
 C177 C 0.62406 -0.04600 -0.06568
 C178 C 0.58864 -0.04367 -0.05169
 C179 C 0.59913 0.00632 -0.04356
 C180 C 0.64532 0.05406 -0.05010
 C181 C 0.68083 0.05159 -0.06411
 H182 H 0.81383 -0.02965 -0.15817
 H183 H 0.90533 -0.00107 -0.10323
 H184 H 0.98114 0.00462 -0.12247
 H185 H 0.88990 -0.02452 -0.17764
 H186 H 0.61570 -0.08500 -0.07147
 H187 H 0.55343 -0.08120 -0.04703
 H188 H 0.65455 0.09312 -0.04411
 H189 H 0.71678 0.08861 -0.06870
 C190 C 0.12677 -0.02503 0.14970
 C191 C 0.12870 -0.01874 0.12868
 C192 C 0.08916 -0.01171 0.11885
 C193 C 0.04892 -0.00913 0.13000
 C194 C 0.04766 -0.01388 0.15110
 C195 C 0.08637 -0.02257 0.16087
 C196 C 0.17285 -0.01611 0.11720
 C197 C 0.20974 -0.01255 0.10714
 C198 C 0.25246 -0.00767 0.09487
 C199 C 0.28816 -0.00371 0.08398
 C200 C 0.32946 -0.00009 0.07049
 C201 C 0.36929 0.05019 0.06297
 C202 C 0.40728 0.05297 0.04889
 C203 C 0.40564 0.00536 0.04214
 C204 C 0.36602 -0.04482 0.05011
 C205 C 0.32826 -0.04745 0.06415
 H206 H 0.15733 -0.03021 0.15748
 H207 H 0.09046 -0.00646 0.10261
 H208 H 0.02039 -0.00121 0.12210
 H209 H 0.08653 -0.02542 0.17718
 H210 H 0.37045 0.08713 0.06773
 H211 H 0.43720 0.09216 0.04304
 H212 H 0.36364 -0.08225 0.04528
 H213 H 0.29756 -0.08658 0.06983
 C214 C 0.84780 0.87211 0.48383
 C215 C 0.85206 0.87015 0.46281
 C216 C 0.89861 0.90968 0.45297
 C217 C 0.94147 0.94993 0.46411
 C218 C 0.93807 0.95122 0.48522
 C219 C 0.89071 0.91252 0.49500
 C220 C 0.81050 0.82601 0.45133
 C221 C 0.77710 0.78911 0.44127
 C222 C 0.73919 0.74641 0.42901
 C223 C 0.70737 0.71073 0.41812
 C224 C 0.66961 0.66946 0.40463
 C225 C 0.68006 0.62971 0.39703
 C226 C 0.64474 0.59177 0.38295
 C227 C 0.59867 0.59337 0.37627
 C228 C 0.58812 0.63291 0.38432
 C229 C 0.62334 0.67062 0.39837
 H230 H 0.81209 0.84156 0.49161
 H231 H 0.90249 0.90836 0.43673
 H232 H 0.97790 0.97846 0.45621
 H233 H 0.88776 0.91239 0.51131
 H234 H 0.71590 0.62858 0.40173
 H235 H 0.65401 0.56191 0.37703
 H236 H 0.55299 0.63526 0.37955
 H237 H 0.61492 0.70126 0.40411
 C238 C 0.01274 0.10114 0.78668
 C239 C 0.01964 0.14752 0.79658
 C240 C 0.02591 0.15164 0.81759
 C241 C 0.02361 0.10876 0.82870
 C242 C 0.01512 0.06141 0.81888
 C243 C 0.01031 0.05825 0.79774
 C244 C 0.01691 0.18909 0.78517
 C245 C 0.01331 0.22250 0.77517
 C246 C 0.00841 0.26043 0.76295
 C247 C 0.00446 0.29226 0.75210
 C248 C 0.00088 0.33003 0.73865
 C249 C 0.04827 0.37630 0.73238
 C250 C 0.04571 0.41150 0.71835
 C251 C -0.00443 0.40093 0.71032
 C252 C -0.05208 0.35487 0.71700
 C253 C -0.04937 0.31957 0.73106
 H254 H 0.00749 0.09738 0.77044
 H255 H 0.03099 0.18726 0.82543
 H256 H 0.02655 0.11189 0.84502
 H257 H 0.00245 0.02208 0.78965
 H258 H 0.08738 0.38473 0.73811
 H259 H 0.08317 0.44662 0.71357
 H260 H -0.09124 0.34558 0.71109
 H261 H -0.08633 0.28372 0.73577
 C262 C 0.87997 -0.02936 0.12590
 C263 C 0.87879 0.01910 0.12542
 C264 C 0.91606 0.06350 0.13696
 C265 C 0.95411 0.05915 0.14904
 C266 C 0.95506 0.01043 0.14955
 C267 C 0.91777 -0.03371 0.13794
 C268 C 0.83854 0.02216 0.11325
 C269 C 0.80396 0.02249 0.10286
 C270 C 0.76298 0.02110 0.09047
 C271 C 0.72801 0.01924 0.07968
 C272 C 0.68673 0.01705 0.06652
 C273 C 0.64487 -0.03288 0.05955
 C274 C 0.60595 -0.03472 0.04616
 C275 C 0.60857 0.01346 0.03955
 C276 C 0.65046 0.06336 0.04686
 C277 C 0.68922 0.06508 0.06023
 H278 H 0.85130 -0.06399 0.11710
 H279 H 0.91535 0.10115 0.13674
 H280 H 0.98206 0.09339 0.15813
 H281 H 0.91762 -0.07179 0.13831
 H282 H 0.64263 -0.07032 0.06431
 H283 H 0.57428 -0.07373 0.04080
 H284 H 0.65368 0.10122 0.04210
 H285 H 0.72146 0.10393 0.06551
 C286 C 0.14702 0.08290 0.47102
 C287 C 0.13979 0.12012 0.45950
 C288 C 0.09012 0.11890 0.46000
 C289 C 0.04803 0.08110 0.47204
 C290 C 0.05498 0.04386 0.48364
 C291 C 0.10467 0.04485 0.48312
 C292 C 0.18303 0.16037 0.44733
 C293 C 0.21788 0.19496 0.43693
 C294 C 0.25740 0.23595 0.42453
 C295 C 0.29044 0.27094 0.41374
 C296 C 0.32943 0.31224 0.40058
 C297 C 0.32133 0.35413 0.39369
 C298 C 0.35831 0.39309 0.38029
 C299 C 0.40381 0.39047 0.37361
 C300 C 0.41186 0.34855 0.38085
 C301 C 0.37491 0.30975 0.39422
 H302 H 0.18540 0.08365 0.47080
 H303 H 0.08409 0.14753 0.45120
 H304 H 0.01007 0.08121 0.47243
 H305 H 0.11103 0.01694 0.49220
 H306 H 0.28617 0.35638 0.39850
 H307 H 0.35094 0.42479 0.37500
 H308 H 0.44645 0.34533 0.37603
 H309 H 0.38155 0.27749 0.39943
 C310 C -0.06178 0.85474 0.80436
 C311 C -0.01743 0.86151 0.79290
 C312 C 0.03115 0.91104 0.79331
 C313 C 0.03565 0.95348 0.80518
 C314 C -0.00847 0.94706 0.81670
 C315 C -0.05728 0.89744 0.81629
 C316 C -0.02067 0.81793 0.78087
 C317 C -0.02113 0.78283 0.77058
 C318 C -0.01985 0.74304 0.75828
 C319 C -0.01805 0.70980 0.74756
 C320 C -0.01588 0.67060 0.73448
 C321 C 0.03406 0.67859 0.72757
 C322 C 0.03589 0.64146 0.71422
 C323 C -0.01230 0.59591 0.70761
 C324 C -0.06222 0.58796 0.71487
 C325 C -0.06393 0.62506 0.72820
 H326 H -0.09952 0.81645 0.80422
 H327 H 0.06575 0.91672 0.78456
 H328 H 0.07383 0.99134 0.80550
 H329 H -0.09148 0.89138 0.82533
 H330 H 0.07152 0.71380 0.73232
 H331 H 0.07491 0.64876 0.70890
 H332 H -0.10009 0.55333 0.71010
 H333 H -0.10278 0.61851 0.73343
   
