data_POSCAR
  _audit_creation_date              2014-09-24
  _audit_creation_method            'ToBaCCo'
  _symmetry_space_group_name_H-M    'P1'
  _symmetry_Int_Tables_number       1
  _symmetry_cell_setting            triclinic
  loop_
  _symmetry_equiv_pos_as_xyz
 x,y,z
_cell_length_a 32.4029
_cell_length_b 30.0433
_cell_length_c 31.4355
_cell_angle_alpha 89.784100
_cell_angle_beta 89.929600
_cell_angle_gamma 87.922100
loop_
  _atom_site_label
  _atom_site_type_symbol
  _atom_site_fract_x
  _atom_site_fract_y
  _atom_site_fract_z
C1 C 1.17843 0.28384 0.28988
 H2 H 1.16519 0.25150 0.28674
 C3 C 1.15942 0.31578 0.31667
 H4 H 1.13167 0.30778 0.33389
 C5 C 1.23216 0.33264 0.27414
 H6 H 1.26112 0.33894 0.25875
 C7 C 1.21433 0.36524 0.30037
 H8 H 1.22957 0.39648 0.30381
 N9 N 1.21499 0.29223 0.27038
 C10 C 1.24262 0.16434 0.20966
 H11 H 1.27369 0.16086 0.22207
 C12 C 1.22715 0.13067 0.18472
 H13 H 1.24650 0.10117 0.17927
 C14 C 1.18065 0.20784 0.20162
 H15 H 1.16326 0.23864 0.20729
 C16 C 1.16392 0.17478 0.17603
 H17 H 1.13341 0.18022 0.16254
 Zn18 Zn 1.24965 0.24646 0.24549
 N19 N 1.21968 0.20220 0.21727
 C20 C 1.25285 0.20263 0.32136
 N21 N 1.27870 0.21681 0.29065
 C22 C 1.32004 0.20708 0.29271
 C23 C 1.33652 0.18181 0.32689
 C24 C 1.26773 0.17816 0.35594
 C25 C 1.26857 0.27386 0.16398
 C26 C 1.28622 0.29943 0.13228
 C27 C 1.33811 0.32111 0.18236
 C28 C 1.31917 0.29510 0.21351
 N29 N 1.28442 0.27286 0.20402
 H30 H 1.22008 0.20954 0.31862
 H31 H 1.34012 0.21761 0.26741
 H32 H 1.36939 0.17385 0.32748
 H33 H 1.24516 0.16798 0.37891
 H34 H 1.24072 0.25665 0.15699
 H35 H 1.27211 0.30061 0.10108
 H36 H 1.36453 0.34033 0.19074
 H37 H 1.33076 0.29491 0.24575
 C38 C 1.18774 0.13604 0.16647
 C39 C 1.17852 0.35630 0.32355
 C40 C 1.32058 0.32469 0.14162
 C41 C 1.31020 0.16647 0.35924
 C42 C 0.68022 -0.22586 0.28938
 H43 H 0.67683 -0.26133 0.29314
 C44 C 0.65929 -0.19642 0.31714
 H45 H 0.63929 -0.20937 0.34151
 C46 C 0.71458 -0.16601 0.25728
 H47 H 0.73751 -0.15417 0.23547
 C48 C 0.69496 -0.13577 0.28474
 H49 H 0.70253 -0.10097 0.28317
 N50 N 0.70834 -0.21039 0.26112
 C51 C 0.75117 -0.32161 0.18069
 H52 H 0.78333 -0.31354 0.17936
 C53 C 0.73727 -0.35650 0.15615
 H54 H 0.75946 -0.37506 0.13686
 C55 C 0.68323 -0.30418 0.20458
 H56 H 0.66208 -0.28304 0.22260
 C57 C 0.66785 -0.33885 0.18014
 H58 H 0.63502 -0.34444 0.18018
 Zn59 Zn 0.74871 -0.24936 0.23503
 N60 N 0.72445 -0.29668 0.20491
 C61 C 0.81341 -0.30569 0.27192
 N62 N 0.78413 -0.27284 0.27919
 C63 C 0.77634 -0.25817 0.31944
 C64 C 0.79486 -0.27949 0.35428
 C65 C 0.83329 -0.32759 0.30610
 C66 C 0.75473 -0.20341 0.16000
 C67 C 0.77036 -0.17492 0.12948
 C68 C 0.83414 -0.17365 0.16911
 C69 C 0.81715 -0.20250 0.19915
 N70 N 0.77775 -0.21593 0.19436
 H71 H 0.82027 -0.31634 0.23990
 H72 H 0.75460 -0.23083 0.32503
 H73 H 0.78668 -0.26850 0.38607
 H74 H 0.85491 -0.35518 0.30001
 H75 H 0.72355 -0.21472 0.15699
 H76 H 0.75101 -0.16539 0.10272
 H77 H 0.86502 -0.16199 0.17383
 H78 H 0.83481 -0.21287 0.22686
 C79 C 0.69511 -0.36580 0.15579
 C80 C 0.66831 -0.15116 0.31620
 C81 C 0.81017 -0.15863 0.13430
 C82 C 0.82255 -0.31570 0.34785
 C83 C 0.68888 0.27079 -0.20734
 H84 H 0.68398 0.23544 -0.20500
 C85 C 0.66939 0.30025 -0.17842
 H86 H 0.64934 0.28749 -0.15400
 C87 C 0.72374 0.33032 -0.23933
 H88 H 0.74609 0.34207 -0.26180
 C89 C 0.70561 0.36048 -0.21085
 H90 H 0.71371 0.39512 -0.21239
 N91 N 0.71591 0.28620 -0.23671
 C92 C 0.74654 0.17929 -0.32666
 H93 H 0.77929 0.18511 -0.32735
 C94 C 0.73078 0.14542 -0.35113
 H95 H 0.75190 0.12606 -0.37097
 C96 C 0.67987 0.19885 -0.30021
 H97 H 0.66026 0.21994 -0.28034
 C98 C 0.66261 0.16506 -0.32454
 H99 H 0.62969 0.16022 -0.32307
 Zn100 Zn 0.75065 0.24698 -0.26948
 N101 N 0.72135 0.20473 -0.30131
 C102 C 0.77853 0.17202 -0.22350
 N103 N 0.78623 0.21568 -0.23052
 C104 C 0.81374 0.23724 -0.20594
 C105 C 0.83405 0.21485 -0.17222
 C106 C 0.79749 0.14884 -0.18998
 C107 C 0.75258 0.30021 -0.33945
 C108 C 0.76655 0.32983 -0.36983
 C109 C 0.83537 0.31972 -0.34111
 C110 C 0.81979 0.29003 -0.31090
 N111 N 0.77879 0.28171 -0.31020
 H112 H 0.75565 0.15567 -0.24215
 H113 H 0.81841 0.27231 -0.21114
 H114 H 0.85453 0.23268 -0.15171
 H115 H 0.78943 0.11476 -0.18364
 H116 H 0.72018 0.29274 -0.33832
 H117 H 0.74390 0.34374 -0.39174
 H118 H 0.86796 0.32654 -0.34049
 H119 H 0.84027 0.27453 -0.28764
 C120 C 0.68837 0.13733 -0.34987
 C121 C 0.67895 0.34542 -0.17926
 C122 C 0.80848 0.34107 -0.37078
 C123 C 0.82493 0.17049 -0.16345
 C124 C 1.18035 -0.22210 -0.20510
 H125 H 1.16845 -0.25523 -0.20609
 C126 C 1.16148 -0.18987 -0.17859
 H127 H 1.13535 -0.19849 -0.15910
 C128 C 1.23011 -0.17097 -0.22708
 H129 H 1.25736 -0.16361 -0.24503
 C130 C 1.21254 -0.13815 -0.20100
 H131 H 1.22632 -0.10588 -0.19986
 N132 N 1.21498 -0.21259 -0.22756
 C133 C 1.24117 -0.33988 -0.28887
 H134 H 1.27239 -0.34389 -0.27697
 C135 C 1.22494 -0.37300 -0.31392
 H136 H 1.24385 -0.40268 -0.31999
 C137 C 1.17953 -0.29551 -0.29552
 H138 H 1.16258 -0.26457 -0.28919
 C139 C 1.16207 -0.32793 -0.32125
 H140 H 1.13146 -0.32188 -0.33432
 Zn141 Zn 1.24940 -0.25782 -0.25323
 N142 N 1.21878 -0.30182 -0.28067
 C143 C 1.25537 -0.30504 -0.17883
 N144 N 1.27996 -0.28727 -0.20897
 C145 C 1.32186 -0.29254 -0.20665
 C146 C 1.34030 -0.31547 -0.17212
 C147 C 1.27230 -0.32778 -0.14408
 C148 C 1.26633 -0.23022 -0.33533
 C149 C 1.28230 -0.20336 -0.36706
 C150 C 1.33395 -0.17969 -0.31760
 C151 C 1.31659 -0.20679 -0.28639
 N152 N 1.28275 -0.23070 -0.29551
 H153 H 1.22225 -0.30207 -0.18205
 H154 H 1.34102 -0.27970 -0.23164
 H155 H 1.37362 -0.31941 -0.17052
 H156 H 1.25146 -0.34185 -0.12122
 H157 H 1.23915 -0.24869 -0.34203
 H158 H 1.26768 -0.20242 -0.39802
 H159 H 1.35957 -0.15920 -0.30945
 H160 H 1.32836 -0.20618 -0.25425
 C161 C 1.18540 -0.36673 -0.33169
 C162 C 1.17891 -0.14800 -0.17501
 C163 C 1.31564 -0.17655 -0.35798
 C164 C 1.31534 -0.33295 -0.13997
 C165 C 0.27205 0.22857 0.67534
 H166 H 0.24716 0.25150 0.66673
 C167 C 0.28978 0.20169 0.64387
 H168 H 0.27797 0.20417 0.61169
 C169 C 0.31716 0.19658 0.72713
 H170 H 0.32780 0.19456 0.75959
 C171 C 0.33631 0.16931 0.69626
 H172 H 0.36084 0.14576 0.70539
 N173 N 0.28419 0.22394 0.71660
 C174 C 0.18223 0.20562 0.79708
 H175 H 0.16122 0.22791 0.78002
 C176 C 0.16646 0.17438 0.82550
 H177 H 0.13332 0.17255 0.82916
 C178 C 0.25061 0.18272 0.81510
 H179 H 0.28333 0.18738 0.81256
 C180 C 0.23642 0.15114 0.84339
 H181 H 0.25932 0.13162 0.86089
 Zn182 Zn 0.24950 0.25238 0.75844
 N183 N 0.22378 0.20888 0.79222
 C184 C 0.17921 0.27570 0.70598
 N185 N 0.21068 0.29106 0.72999
 C186 C 0.22125 0.33440 0.72785
 C187 C 0.20237 0.36321 0.69853
 C188 C 0.15902 0.30383 0.67636
 C189 C 0.31944 0.29803 0.79248
 C190 C 0.33671 0.32751 0.82144
 C191 C 0.27129 0.33219 0.85850
 C192 C 0.25544 0.30303 0.82911
 N193 N 0.27922 0.28714 0.79662
 H194 H 0.17232 0.24077 0.70691
 H195 H 0.24675 0.34595 0.74636
 H196 H 0.21306 0.39682 0.69543
 H197 H 0.13611 0.29060 0.65527
 H198 H 0.33766 0.28500 0.76619
 H199 H 0.36840 0.33703 0.81741
 H200 H 0.25140 0.34418 0.88394
 H201 H 0.22361 0.29363 0.83158
 C202 C 0.19370 0.14655 0.84932
 C203 C 0.32104 0.17032 0.65459
 C204 C 0.31211 0.34571 0.85436
 C205 C 0.17219 0.34742 0.67118
 C206 C 0.77390 0.67147 0.72636
 H207 H 0.75053 0.65813 0.74677
 C208 C 0.79177 0.64426 0.69525
 H209 H 0.78253 0.61009 0.69258
 C210 C 0.81127 0.73299 0.70187
 H211 H 0.81707 0.76817 0.70333
 C212 C 0.83064 0.70645 0.67055
 H213 H 0.85165 0.72116 0.64816
 N214 N 0.78328 0.71516 0.72881
 C215 C 0.67967 0.70789 0.80438
 H216 H 0.65890 0.72677 0.78370
 C217 C 0.66404 0.67666 0.83298
 H218 H 0.63110 0.67172 0.83386
 C219 C 0.74777 0.69135 0.82841
 H220 H 0.78045 0.69727 0.82631
 C221 C 0.73377 0.65997 0.85692
 H222 H 0.75657 0.64297 0.87668
 Zn223 Zn 0.74912 0.75127 0.76458
 N224 N 0.72106 0.71383 0.80226
 C225 C 0.72314 0.82936 0.72382
 N226 N 0.71386 0.78583 0.72859
 C227 C 0.68536 0.76680 0.70330
 C228 C 0.66560 0.79179 0.67100
 C229 C 0.70487 0.85504 0.69168
 C230 C 0.75300 0.81324 0.82649
 C231 C 0.76828 0.84588 0.85265
 C232 C 0.83651 0.82970 0.82426
 C233 C 0.81974 0.79697 0.79838
 N234 N 0.77842 0.79026 0.79941
 H235 H 0.74680 0.84363 0.74307
 H236 H 0.67953 0.73175 0.70677
 H237 H 0.64423 0.77606 0.64983
 H238 H 0.71407 0.88904 0.68708
 H239 H 0.72039 0.80673 0.82696
 H240 H 0.74702 0.86354 0.87369
 H241 H 0.86923 0.83565 0.82260
 H242 H 0.83953 0.77769 0.77714
 C243 C 0.69136 0.65141 0.85921
 C244 C 0.81978 0.66195 0.66643
 C245 C 0.81037 0.85530 0.85108
 C246 C 0.67656 0.83596 0.66427
 C247 C 0.77916 0.16652 0.23066
 H248 H 0.75663 0.15257 0.25169
 C249 C 0.79755 0.13953 0.19965
 H250 H 0.78948 0.10493 0.19754
 C251 C 0.81387 0.22924 0.20457
 H252 H 0.81829 0.26474 0.20532
 C253 C 0.83371 0.20302 0.17339
 H254 H 0.85373 0.21829 0.15037
 N255 N 0.78671 0.21073 0.23196
 C256 C 0.67909 0.20316 0.29893
 H257 H 0.66036 0.22059 0.27535
 C258 C 0.66118 0.17218 0.32616
 H259 H 0.62868 0.16556 0.32315
 C260 C 0.74433 0.18980 0.33152
 H261 H 0.77682 0.19672 0.33320
 C262 C 0.72784 0.15919 0.35926
 H263 H 0.74805 0.14353 0.38268
 Zn264 Zn 0.75103 0.24699 0.26571
 N265 N 0.72027 0.21031 0.30154
 C266 C 0.69174 0.26260 0.20036
 N267 N 0.71821 0.28173 0.22785
 C268 C 0.72706 0.32552 0.22452
 C269 C 0.71028 0.35150 0.19181
 C270 C 0.67339 0.28788 0.16750
 C271 C 0.82012 0.29273 0.30161
 C272 C 0.83608 0.32548 0.32795
 C273 C 0.76723 0.34074 0.35519
 C274 C 0.75274 0.30816 0.32850
 N275 N 0.77889 0.28562 0.30182
 H276 H 0.68642 0.22734 0.20269
 H277 H 0.74919 0.33988 0.24558
 H278 H 0.71900 0.38582 0.18850
 H279 H 0.65345 0.27225 0.14480
 H280 H 0.84042 0.27388 0.28052
 H281 H 0.86875 0.33183 0.32688
 H282 H 0.74541 0.35805 0.37587
 H283 H 0.72018 0.30137 0.32819
 C284 C 0.68602 0.14898 0.35605
 C285 C 0.82425 0.15806 0.16999
 C286 C 0.80923 0.35062 0.35442
 C287 C 0.68384 0.33242 0.16248
 C288 C 0.28149 0.66490 0.23329
 H289 H 0.25656 0.65431 0.25327
 C290 C 0.30093 0.63389 0.20663
 H291 H 0.29120 0.59977 0.20711
 C292 C 0.32164 0.72251 0.20514
 H293 H 0.32777 0.75758 0.20285
 C294 C 0.34230 0.69217 0.17796
 H295 H 0.36466 0.70396 0.15531
 N296 N 0.29078 0.70865 0.23101
 C297 C 0.18172 0.70356 0.29208
 H298 H 0.16395 0.71482 0.26474
 C299 C 0.16454 0.67460 0.32182
 H300 H 0.13336 0.66370 0.31735
 C301 C 0.24472 0.70220 0.33047
 H302 H 0.27621 0.71263 0.33322
 C303 C 0.22896 0.67357 0.36062
 H304 H 0.24844 0.66303 0.38697
 Zn305 Zn 0.25144 0.74884 0.25694
 N306 N 0.22147 0.71586 0.29666
 C307 C 0.18426 0.80328 0.22233
 N308 N 0.21671 0.77461 0.21345
 C309 C 0.22758 0.76565 0.17246
 C310 C 0.20873 0.78898 0.13902
 C311 C 0.16416 0.82723 0.18955
 C312 C 0.31786 0.79822 0.29366
 C313 C 0.33303 0.82928 0.32243
 C314 C 0.26267 0.85084 0.34042
 C315 C 0.24914 0.81945 0.31184
 N316 N 0.27643 0.79397 0.28898
 H317 H 0.17454 0.80874 0.25475
 H318 H 0.25201 0.74158 0.16536
 H319 H 0.21923 0.78257 0.10684
 H320 H 0.13990 0.85166 0.19718
 H321 H 0.33923 0.77662 0.27636
 H322 H 0.36613 0.83151 0.32604
 H323 H 0.23920 0.86951 0.35787
 H324 H 0.21655 0.81397 0.30949
 C325 C 0.18880 0.65836 0.35592
 C326 C 0.33036 0.64779 0.17729
 C327 C 0.30531 0.85599 0.34688
 C328 C 0.17780 0.82152 0.14755
 O329 O 1.06163 0.06911 0.08267
 O330 O 1.10491 0.02767 0.03913
 C331 C 1.09806 0.05439 0.07084
 O332 O 0.93816 -0.07770 0.06630
 O333 O 0.89611 -0.02788 0.02967
 C334 C 0.90202 -0.06171 0.05490
 O335 O 1.05459 -0.08463 0.07195
 O336 O 1.10120 -0.04506 0.03367
 C337 C 1.09201 -0.07568 0.06073
 O338 O 0.94555 0.08420 0.07835
 O339 O 0.89988 0.04922 0.03520
 C340 C 0.90840 0.07638 0.06550
 Zr341 Zr 1.00281 0.05642 0.05599
 O342 O 0.99972 0.05361 0.12314
 O343 O 1.00362 0.12696 0.05710
 Zr344 Zr 0.99777 -0.05603 0.04890
 O345 O 0.99506 -0.05626 0.11606
 O346 O 0.99867 -0.12644 0.04620
 O347 O 1.03675 -0.00388 0.06089
 O348 O 0.96441 0.00281 0.05982
 O349 O 0.94751 0.09567 -0.07129
 O350 O 0.90059 0.05471 -0.03464
 C351 C 0.90999 0.08635 -0.06068
 O352 O 1.05686 -0.07175 -0.08429
 O353 O 1.10264 -0.03849 -0.03990
 C354 C 1.09408 -0.06336 -0.07202
 O355 O 0.93974 -0.06641 -0.08059
 O356 O 0.89696 -0.02104 -0.04016
 C357 C 0.90340 -0.05105 -0.06903
 O358 O 1.06404 0.08064 -0.07436
 O359 O 1.10575 0.03296 -0.03500
 C360 C 1.10006 0.06398 -0.06321
 Zr361 Zr 1.00436 0.06438 -0.05139
 O362 O 1.00093 0.07146 -0.11830
 O363 O 1.01160 0.13372 -0.04454
 Zr364 Zr 0.99914 -0.04819 -0.05888
 O365 O 0.99483 -0.04327 -0.12592
 O366 O 1.00112 -0.11857 -0.06282
 Zr367 Zr 1.06183 -0.00164 -0.00085
 Zr368 Zr 0.94018 0.00961 -0.00194
 O369 O 0.96630 0.01196 -0.06320
 O370 O 1.03824 0.00531 -0.06308
 O371 O 0.96721 0.07210 0.00248
 O372 O 1.03377 -0.06347 -0.00527
 O373 O 1.04001 0.06497 0.00319
 O374 O 0.96150 -0.05735 -0.00590
 H375 H 0.94526 0.00244 0.08441
 H376 H 1.05146 -0.09100 -0.00704
 H377 H 0.94791 0.01550 -0.08824
 H378 H 1.06062 0.08844 0.00479
 H379 H 0.97784 -0.13467 0.02495
 H380 H 0.97670 -0.12931 -0.04752
 H381 H 1.01825 -0.02573 -0.13584
 H382 H 1.02098 0.04956 -0.13072
 H383 H 0.98975 0.14489 -0.02487
 H384 H 1.03219 0.13625 0.05205
 H385 H 1.01351 0.02514 0.13194
 H386 H 0.99348 -0.08792 0.12468
 O387 O 1.05818 0.56942 0.58314
 O388 O 1.10151 0.52815 0.53951
 C389 C 1.09464 0.55474 0.57128
 O390 O 0.93548 0.42141 0.56636
 O391 O 0.89325 0.47147 0.53013
 C392 C 0.89929 0.43718 0.55481
 O393 O 1.05225 0.41742 0.57390
 O394 O 1.09866 0.45635 0.53465
 C395 C 1.08964 0.42751 0.56355
 O396 O 0.94197 0.58463 0.57796
 O397 O 0.89652 0.54894 0.53518
 C398 C 0.90488 0.57671 0.56502
 Zr399 Zr 0.99942 0.55609 0.55665
 O400 O 0.99460 0.55127 0.62363
 O401 O 1.00696 0.62565 0.56069
 Zr402 Zr 0.99501 0.44369 0.54949
 O403 O 0.99225 0.44342 0.61665
 O404 O 0.99122 0.37346 0.54677
 O405 O 1.03361 0.49617 0.56138
 O406 O 0.96122 0.50235 0.56039
 O407 O 0.94398 0.59460 0.42889
 O408 O 0.89711 0.55301 0.46491
 C409 C 0.90655 0.58523 0.43959
 O410 O 1.05444 0.42862 0.41582
 O411 O 1.09982 0.46237 0.46024
 C412 C 1.09158 0.43758 0.42793
 O413 O 0.93744 0.43157 0.42108
 O414 O 0.89439 0.47700 0.46119
 C415 C 0.90102 0.44658 0.43277
 O416 O 1.06051 0.58169 0.42721
 O417 O 1.10265 0.53456 0.46674
 C418 C 1.09665 0.56588 0.43886
 Zr419 Zr 1.00093 0.56393 0.44882
 O420 O 0.99754 0.56915 0.38173
 O421 O 1.00799 0.63348 0.45397
 Zr422 Zr 0.99663 0.45132 0.44183
 O423 O 0.99196 0.45569 0.37479
 O424 O 0.99855 0.38095 0.43862
 Zr425 Zr 1.05870 0.49857 0.49962
 Zr426 Zr 0.93720 0.50922 0.49860
 O427 O 0.96322 0.51115 0.43728
 O428 O 1.03534 0.50520 0.43734
 O429 O 0.96392 0.57190 0.50290
 O430 O 1.03152 0.43638 0.49547
 O431 O 1.03614 0.56496 0.50367
 O432 O 0.95901 0.44243 0.49474
 H433 H 0.94180 0.50203 0.58476
 H434 H 1.05026 0.40968 0.49370
 H435 H 0.94469 0.51421 0.41231
 H436 H 1.05607 0.58909 0.50579
 H437 H 1.01603 0.36115 0.53200
 H438 H 0.97942 0.37029 0.46069
 H439 H 1.01405 0.47509 0.36488
 H440 H 1.02042 0.55037 0.36983
 H441 H 0.98437 0.64571 0.47073
 H442 H 0.98457 0.64038 0.54385
 H443 H 1.01226 0.52536 0.63259
 H444 H 0.99038 0.41179 0.62524
 O445 O 0.55770 0.06008 0.58177
 O446 O 0.60015 0.01879 0.53725
 C447 C 0.59394 0.04590 0.56880
 O448 O 0.43672 -0.09011 0.57012
 O449 O 0.39244 -0.04038 0.53610
 C450 C 0.39998 -0.07468 0.56041
 O451 O 0.55318 -0.09337 0.57272
 O452 O 0.59794 -0.05365 0.53218
 C453 C 0.59010 -0.08312 0.56089
 O454 O 0.44125 0.07325 0.58033
 O455 O 0.39479 0.03620 0.53974
 C456 C 0.40386 0.06491 0.56855
 Zr457 Zr 0.49838 0.04511 0.55765
 O458 O 0.49638 0.04133 0.62483
 O459 O 0.50242 0.11515 0.55806
 Zr460 Zr 0.49511 -0.06730 0.55060
 O461 O 0.49403 -0.06795 0.61782
 O462 O 0.49764 -0.13770 0.54748
 O463 O 0.53348 -0.01436 0.56131
 O464 O 0.46104 -0.00912 0.56264
 O465 O 0.43823 0.08414 0.43288
 O466 O 0.39348 0.04122 0.47035
 C467 C 0.40131 0.07377 0.44479
 O468 O 0.54991 -0.08132 0.41511
 O469 O 0.59660 -0.04765 0.45817
 C470 C 0.58735 -0.07235 0.42609
 O471 O 0.43335 -0.07816 0.42195
 O472 O 0.39126 -0.03568 0.46560
 C473 C 0.39719 -0.06435 0.43546
 O474 O 0.55506 0.07216 0.42644
 O475 O 0.59845 0.02401 0.46332
 C476 C 0.59159 0.05579 0.43619
 Zr477 Zr 0.49628 0.05346 0.45022
 O478 O 0.49066 0.05899 0.38331
 O479 O 0.50204 0.12314 0.45575
 Zr480 Zr 0.49283 -0.05945 0.44291
 O481 O 0.48679 -0.05580 0.37597
 O482 O 0.49579 -0.12992 0.44038
 Zr483 Zr 0.55644 -0.01161 0.49878
 Zr484 Zr 0.43477 -0.00285 0.50174
 O485 O 0.45883 0.00017 0.43966
 O486 O 0.53080 -0.00497 0.43739
 O487 O 0.46087 0.06020 0.50538
 O488 O 0.52955 -0.07407 0.49533
 O489 O 0.53349 0.05455 0.50363
 O490 O 0.45707 -0.06940 0.49709
 H491 H 0.44263 -0.00947 0.58782
 H492 H 0.54796 -0.10104 0.49321
 H493 H 0.43954 0.00347 0.41534
 H494 H 0.55323 0.07893 0.50490
 H495 H 0.47595 -0.14640 0.52736
 H496 H 0.47076 -0.14072 0.45454
 H497 H 0.50718 -0.03458 0.36563
 H498 H 0.51334 0.04058 0.37056
 H499 H 0.48261 0.13348 0.47825
 H500 H 0.50315 0.12390 0.58840
 H501 H 0.51335 0.01468 0.63320
 H502 H 0.49367 -0.09971 0.62637
 O503 O 0.56674 0.55842 0.08404
 O504 O 0.60906 0.51800 0.03872
 C505 C 0.60293 0.54446 0.07075
 O506 O 0.44522 0.40874 0.07017
 O507 O 0.40102 0.45832 0.03586
 C508 C 0.40846 0.42400 0.06014
 O509 O 0.56191 0.40538 0.07222
 O510 O 0.60664 0.44590 0.03237
 C511 C 0.59879 0.41585 0.06049
 O512 O 0.45048 0.57085 0.08468
 O513 O 0.40387 0.53536 0.04305
 C514 C 0.41304 0.56229 0.07337
 Zr515 Zr 0.50722 0.54412 0.06001
 O516 O 0.50643 0.53789 0.12707
 O517 O 0.50688 0.61453 0.06461
 Zr518 Zr 0.50377 0.43187 0.05089
 O519 O 0.50298 0.42961 0.11809
 O520 O 0.50627 0.36155 0.04634
 O521 O 0.54226 0.48455 0.06241
 O522 O 0.46985 0.48975 0.06417
 O523 O 0.44677 0.58566 -0.06359
 O524 O 0.40189 0.54269 -0.02624
 C525 C 0.40990 0.57569 -0.05122
 O526 O 0.55836 0.41931 -0.08427
 O527 O 0.60503 0.45307 -0.04132
 C528 C 0.59582 0.42822 -0.07326
 O529 O 0.44171 0.42251 -0.07652
 O530 O 0.39969 0.46546 -0.03313
 C531 C 0.40559 0.43633 -0.06290
 O532 O 0.56336 0.57382 -0.07110
 O533 O 0.60699 0.52519 -0.03506
 C534 C 0.59997 0.55764 -0.06146
 Zr535 Zr 0.50478 0.55436 -0.04753
 O536 O 0.49871 0.56026 -0.11438
 O537 O 0.51054 0.62398 -0.04167
 Zr538 Zr 0.50129 0.44201 -0.05671
 O539 O 0.49469 0.44934 -0.12338
 O540 O 0.50410 0.37180 -0.06264
 Zr541 Zr 0.56512 0.48858 -0.00014
 Zr542 Zr 0.44340 0.49745 0.00350
 O543 O 0.46704 0.50152 -0.05870
 O544 O 0.53944 0.49632 -0.06140
 O545 O 0.46970 0.56030 0.00802
 O546 O 0.53802 0.42626 -0.00458
 O547 O 0.54212 0.55459 0.00589
 O548 O 0.46574 0.43101 -0.00255
 H549 H 0.45157 0.48850 0.08941
 H550 H 0.55623 0.39918 -0.00716
 H551 H 0.44739 0.50527 -0.08268
 H552 H 0.56218 0.57861 0.00726
 H553 H 0.48374 0.35317 0.02709
 H554 H 0.48153 0.36007 -0.04512
 H555 H 0.51814 0.46661 -0.13367
 H556 H 0.52170 0.54252 -0.12738
 H557 H 0.49290 0.63374 -0.01749
 H558 H 0.53357 0.62515 0.05409
 H559 H 0.52379 0.51121 0.13448
 H560 H 0.50254 0.39766 0.12594
 C561 C 1.17284 0.10265 0.13586
 C562 C 1.19818 0.07122 0.11568
 C563 C 1.17325 0.04911 0.08902
 C564 C 1.13442 0.06836 0.09463
 O565 O 1.13392 0.10098 0.12295
 H566 H 1.23117 0.06557 0.11884
 H567 H 1.18236 0.02230 0.06768
 C568 C 1.17001 0.60093 0.63701
 C569 C 1.19514 0.57031 0.61555
 C570 C 1.16995 0.54925 0.58844
 C571 C 1.13116 0.56822 0.59508
 O572 O 1.13094 0.59978 0.62446
 H573 H 1.22818 0.56464 0.61812
 H574 H 1.17891 0.52337 0.56606
 C575 C 0.67159 0.10025 0.62502
 C576 C 0.69554 0.06534 0.60854
 C577 C 0.66926 0.04036 0.58607
 C578 C 0.63099 0.06126 0.59057
 O579 O 0.63208 0.09755 0.61442
 H580 H 0.72835 0.05861 0.61219
 H581 H 0.67710 0.01050 0.56820
 C582 C 0.67961 0.59776 0.12904
 C583 C 0.70439 0.56462 0.11069
 C584 C 0.67863 0.54008 0.08704
 C585 C 0.63989 0.55955 0.09276
 O586 O 0.64021 0.59444 0.11840
 H587 H 0.73738 0.55885 0.11377
 H588 H 0.68710 0.51152 0.06759
 C589 C 0.82548 -0.12472 0.10424
 C590 C 0.80009 -0.09806 0.07868
 C591 C 0.82561 -0.07111 0.05717
 C592 C 0.86484 -0.08298 0.07095
 O593 O 0.86501 -0.11543 0.09969
 H594 H 0.76677 -0.09744 0.07642
 H595 H 0.81668 -0.04566 0.03414
 C596 C 0.82241 0.37190 0.60141
 C597 C 0.79792 0.39636 0.57276
 C598 C 0.82367 0.42393 0.55240
 C599 C 0.86215 0.41469 0.56936
 O600 O 0.86172 0.38317 0.59902
 H601 H 0.76511 0.39540 0.56704
 H602 H 0.81537 0.44786 0.52773
 C603 C 0.32851 -0.14283 0.61077
 C604 C 0.30166 -0.12112 0.58285
 C605 C 0.32489 -0.09196 0.56105
 C606 C 0.36430 -0.09808 0.57699
 O607 O 0.36668 -0.12880 0.60736
 H608 H 0.26884 -0.12548 0.57927
 H609 H 0.31451 -0.06934 0.53607
 C610 C 0.33506 0.35748 0.11012
 C611 C 0.30913 0.37940 0.08145
 C612 C 0.33332 0.40751 0.05962
 C613 C 0.37239 0.40072 0.07623
 O614 O 0.37367 0.37049 0.10713
 H615 H 0.27624 0.37599 0.07746
 H616 H 0.32370 0.43010 0.03432
 C617 C 0.83880 0.14817 -0.12388
 C618 C 0.81147 0.13246 -0.09428
 C619 C 0.83502 0.10907 -0.06568
 C620 C 0.87513 0.11196 -0.07995
 O621 O 0.87766 0.13586 -0.11540
 H622 H 0.77813 0.13635 -0.09452
 H623 H 0.82414 0.09061 -0.03849
 C624 C 0.83682 0.65686 0.38444
 C625 C 0.81222 0.64795 0.41912
 C626 C 0.83512 0.61939 0.44392
 C627 C 0.87222 0.61330 0.42290
 O628 O 0.87342 0.63579 0.38659
 H629 H 0.78084 0.65993 0.42504
 H630 H 0.82605 0.60491 0.47393
 C631 C 0.32492 0.14028 0.39160
 C632 C 0.30093 0.12312 0.42404
 C633 C 0.32684 0.09701 0.44779
 C634 C 0.36504 0.09990 0.42913
 O635 O 0.36429 0.12623 0.39509
 H636 H 0.26825 0.12769 0.43016
 H637 H 0.31863 0.07742 0.47523
 C638 C 0.33354 0.64247 -0.10299
 C639 C 0.31186 0.63267 -0.06636
 C640 C 0.33813 0.60710 -0.04228
 C641 C 0.37420 0.60341 -0.06538
 O642 O 0.37180 0.62504 -0.10219
 H643 H 0.28048 0.64248 -0.05799
 H644 H 0.33171 0.59250 -0.01154
 C645 C 1.16546 -0.11638 -0.14143
 C646 C 1.19236 -0.08963 -0.12023
 C647 C 1.16904 -0.06723 -0.09095
 C648 C 1.12948 -0.08160 -0.09643
 O649 O 1.12709 -0.11175 -0.12693
 H650 H 1.22530 -0.08735 -0.12497
 H651 H 1.17956 -0.04296 -0.06845
 C652 C 1.16421 0.38719 0.35763
 C653 C 1.19050 0.41383 0.37983
 C654 C 1.16662 0.43521 0.40930
 C655 C 1.12732 0.42038 0.40317
 O656 O 1.12561 0.39094 0.37188
 H657 H 1.22345 0.41669 0.37574
 H658 H 1.17665 0.45911 0.43244
 C659 C 0.65598 -0.12148 0.35161
 C660 C 0.68342 -0.09471 0.37188
 C661 C 0.66141 -0.07417 0.40336
 C662 C 0.62195 -0.08944 0.39981
 O663 O 0.61848 -0.11859 0.36853
 H664 H 0.71585 -0.09117 0.36484
 H665 H 0.67265 -0.05037 0.42589
 C666 C 0.66597 0.37596 -0.14465
 C667 C 0.69266 0.40453 -0.12561
 C668 C 0.66988 0.42676 -0.09576
 C669 C 0.63072 0.41054 -0.09888
 O670 O 0.62814 0.37937 -0.12847
 H671 H 0.72504 0.40846 -0.13261
 H672 H 0.68036 0.45243 -0.07471
 C673 C 1.17859 0.11583 -0.12102
 C674 C 1.20306 0.08695 -0.09646
 C675 C 1.17656 0.06429 -0.07198
 C676 C 1.13772 0.08045 -0.08301
 O677 O 1.13863 0.11170 -0.11279
 H678 H 1.23626 0.08232 -0.09577
 H679 H 1.18467 0.03894 -0.04858
 C680 C 1.17343 0.62431 0.38549
 C681 C 1.19888 0.59565 0.40895
 C682 C 1.17320 0.56999 0.43159
 C683 C 1.13387 0.58456 0.42035
 O684 O 1.13375 0.61742 0.39215
 H685 H 1.23226 0.59314 0.40927
 H686 H 1.18208 0.54377 0.45383
 C687 C 0.66935 0.11333 0.38295
 C688 C 0.69391 0.08093 0.40278
 C689 C 0.66763 0.05554 0.42470
 C690 C 0.62873 0.07364 0.41655
 O691 O 0.62945 0.10878 0.39099
 H692 H 0.72709 0.07589 0.40146
 H693 H 0.67596 0.02730 0.44476
 C694 C 0.67685 0.61818 -0.11337
 C695 C 0.70205 0.58911 -0.08978
 C696 C 0.67622 0.56276 -0.06830
 C697 C 0.63698 0.57718 -0.07984
 O698 O 0.63703 0.61075 -0.10732
 H699 H 0.73533 0.58635 -0.08819
 H700 H 0.68504 0.53624 -0.04635
 C701 C 0.82635 -0.10794 -0.12314
 C702 C 0.80170 -0.07412 -0.10576
 C703 C 0.82768 -0.04838 -0.08384
 C704 C 0.86642 -0.06790 -0.08952
 O705 O 0.86593 -0.10398 -0.11358
 H706 H 0.76869 -0.06844 -0.10869
 H707 H 0.81936 -0.01885 -0.06566
 C708 C 0.82450 0.38744 0.38050
 C709 C 0.79929 0.42019 0.39885
 C710 C 0.82500 0.44667 0.42024
 C711 C 0.86411 0.42859 0.41330
 O712 O 0.86410 0.39271 0.38901
 H713 H 0.76611 0.42480 0.39687
 H714 H 0.81627 0.47575 0.43888
 C715 C 0.31931 -0.11535 0.37636
 C716 C 0.29449 -0.08813 0.40223
 C717 C 0.32070 -0.06609 0.42738
 C718 C 0.35972 -0.08087 0.41553
 O719 O 0.35921 -0.11064 0.38456
 H720 H 0.26126 -0.08413 0.40348
 H721 H 0.31230 -0.04186 0.45159
 C722 C 0.32802 0.37966 -0.11649
 C723 C 0.30299 0.40878 -0.09320
 C724 C 0.32905 0.43378 -0.07061
 C725 C 0.36819 0.41849 -0.08170
 O726 O 0.36785 0.38574 -0.10978
 H727 H 0.26965 0.41203 -0.09287
 H728 H 0.32051 0.46014 -0.04855
 C729 C 1.16321 -0.14805 0.11330
 C730 C 1.18846 -0.13429 0.08078
 C731 C 1.16500 -0.10491 0.05761
 C732 C 1.12696 -0.10296 0.07736
 O733 O 1.12566 -0.12897 0.11145
 H734 H 1.22055 -0.14375 0.07518
 H735 H 1.17437 -0.08721 0.02934
 C736 C 1.15981 0.37427 0.63378
 C737 C 1.18780 0.39652 0.60929
 C738 C 1.16505 0.41755 0.57864
 C739 C 1.12472 0.40689 0.58673
 O740 O 1.12132 0.38020 0.62012
 H741 H 1.22091 0.39735 0.61347
 H742 H 1.17639 0.43916 0.55395
 C743 C 0.66300 -0.13914 0.62616
 C744 C 0.69015 -0.11829 0.59957
 C745 C 0.66616 -0.09625 0.57051
 C746 C 0.62603 -0.10497 0.58164
 O747 O 0.62389 -0.13132 0.61541
 H748 H 0.72349 -0.11851 0.60178
 H749 H 0.67659 -0.07507 0.54503
 C750 C 0.67106 0.35813 0.12474
 C751 C 0.69852 0.37998 0.09932
 C752 C 0.67483 0.40287 0.07055
 C753 C 0.63461 0.39354 0.08080
 O754 O 0.63212 0.36612 0.11366
 H755 H 0.73181 0.37996 0.10220
 H756 H 0.68548 0.42504 0.04597
 C757 C 0.83700 0.13182 0.13262
 C758 C 0.80927 0.11025 0.10751
 C759 C 0.83259 0.08823 0.07796
 C760 C 0.87292 0.09767 0.08743
 O761 O 0.87581 0.12445 0.12059
 H762 H 0.77602 0.11022 0.11085
 H763 H 0.82161 0.06663 0.05325
 C764 C 0.83292 0.63520 0.62945
 C765 C 0.80539 0.61368 0.60407
 C766 C 0.82898 0.59035 0.57565
 C767 C 0.86929 0.59906 0.58593
 O768 O 0.87191 0.62658 0.61859
 H769 H 0.77205 0.61440 0.60660
 H770 H 0.81815 0.56841 0.55116
 C771 C 0.33367 0.13589 0.62349
 C772 C 0.30589 0.11566 0.59733
 C773 C 0.32866 0.08557 0.57443
 C774 C 0.36883 0.08986 0.58786
 O775 O 0.37207 0.12017 0.61809
 H776 H 0.27280 0.12173 0.59567
 H777 H 0.31735 0.06325 0.55055
 C778 C 0.34302 0.61760 0.14244
 C779 C 0.31539 0.59188 0.12115
 C780 C 0.33808 0.56909 0.09168
 C781 C 0.37806 0.58225 0.09720
 O782 O 0.38128 0.61207 0.12791
 H783 H 0.28248 0.59015 0.12650
 H784 H 0.32697 0.54492 0.06937
   
