data_POSCAR
  _audit_creation_date              2014-09-24
  _audit_creation_method            'ToBaCCo'
  _symmetry_space_group_name_H-M    'P1'
  _symmetry_Int_Tables_number       1
  _symmetry_cell_setting            triclinic
  loop_
  _symmetry_equiv_pos_as_xyz
 x,y,z
_cell_length_a 43.5165
_cell_length_b 43.5643
_cell_length_c 43.4832
_cell_angle_alpha 89.973900
_cell_angle_beta 90.014500
_cell_angle_gamma 89.819100
loop_
  _atom_site_label
  _atom_site_type_symbol
  _atom_site_fract_x
  _atom_site_fract_y
  _atom_site_fract_z
C1 C 0.19302 0.15468 0.19198
 C2 C 0.17963 0.14227 0.21856
 C3 C 0.15324 0.15574 0.23127
 C4 C 0.14010 0.18179 0.21755
 C5 C 0.15321 0.19449 0.19097
 C6 C 0.17978 0.18090 0.17809
 C7 C 0.21931 0.14124 0.17895
 C8 C 0.23239 0.15371 0.15228
 C9 C 0.21931 0.17976 0.13850
 C10 C 0.19303 0.19346 0.15123
 C11 C 0.17965 0.21941 0.13751
 C12 C 0.15330 0.23280 0.15030
 C13 C 0.14013 0.22043 0.17694
 H14 H 0.18966 0.12208 0.22926
 H15 H 0.11964 0.19208 0.22747
 H16 H 0.22952 0.12105 0.18948
 H17 H 0.22951 0.18927 0.11782
 H18 H 0.18963 0.22915 0.11685
 H19 H 0.11969 0.23095 0.18662
 C20 C -0.19010 0.84819 0.19569
 C21 C -0.17609 0.86126 0.22160
 C22 C -0.14938 0.84812 0.23403
 C23 C -0.13653 0.82176 0.22067
 C24 C -0.15025 0.80841 0.19475
 C25 C -0.17715 0.82164 0.18216
 C26 C -0.21672 0.86127 0.18295
 C27 C -0.23043 0.84812 0.15694
 C28 C -0.21765 0.82176 0.14352
 C29 C -0.19103 0.80840 0.15597
 C30 C -0.17794 0.78214 0.14260
 C31 C -0.15125 0.76910 0.15509
 C32 C -0.13747 0.78215 0.18108
 H33 H -0.18590 0.88169 0.23203
 H34 H -0.11583 0.81173 0.23037
 H35 H -0.22670 0.88171 0.19320
 H36 H -0.22833 0.81173 0.12335
 H37 H -0.18840 0.77189 0.12243
 H38 H -0.11678 0.77190 0.19054
 C39 C -0.19561 0.15070 -0.19220
 C40 C -0.18185 0.13794 -0.21844
 C41 C -0.15587 0.15169 -0.23149
 C42 C -0.14348 0.17832 -0.21846
 C43 C -0.15694 0.19139 -0.19222
 C44 C -0.18313 0.17754 -0.17899
 C45 C -0.22151 0.13701 -0.17884
 C46 C -0.23496 0.14984 -0.15250
 C47 C -0.22263 0.17650 -0.13938
 C48 C -0.19674 0.19047 -0.15246
 C49 C -0.18409 0.21703 -0.13940
 C50 C -0.15810 0.23067 -0.15254
 C51 C -0.14460 0.21794 -0.17887
 H52 H -0.19122 0.11729 -0.22868
 H53 H -0.12333 0.18876 -0.22871
 H54 H -0.23113 0.11635 -0.18886
 H55 H -0.23312 0.18629 -0.11896
 H56 H -0.19432 0.22705 -0.11898
 H57 H -0.12445 0.22864 -0.18883
 C58 C 0.19415 0.84658 -0.19291
 C59 C 0.18157 0.86052 -0.21916
 C60 C 0.15527 0.84826 -0.23308
 C61 C 0.14141 0.82192 -0.22088
 C62 C 0.15370 0.80770 -0.19465
 C63 C 0.18019 0.82005 -0.18056
 C64 C 0.22034 0.85877 -0.17868
 C65 C 0.23259 0.84480 -0.15235
 C66 C 0.21882 0.81848 -0.14008
 C67 C 0.19262 0.80597 -0.15402
 C68 C 0.17852 0.77974 -0.14182
 C69 C 0.15224 0.76757 -0.15581
 C70 C 0.13990 0.78146 -0.18214
 H71 H 0.19216 0.88095 -0.22868
 H72 H 0.12102 0.81257 -0.23173
 H73 H 0.23115 0.87918 -0.18796
 H74 H 0.22846 0.80786 -0.11965
 H75 H 0.18785 0.76884 -0.12141
 H76 H 0.11951 0.77188 -0.19275
 C77 C 0.15417 1.19305 0.80828
 C78 C 0.14169 1.17973 0.78172
 C79 C 0.15512 1.15335 0.76896
 C80 C 0.18119 1.14017 0.78264
 C81 C 0.19396 1.15321 0.80921
 C82 C 0.18042 1.17977 0.82213
 C83 C 0.14079 1.21933 0.82135
 C84 C 0.15333 1.23234 0.84802
 C85 C 0.17940 1.21922 0.86175
 C86 C 0.19305 1.19295 0.84898
 C87 C 0.21903 1.17953 0.86265
 C88 C 0.23238 1.15320 0.84982
 C89 C 0.21992 1.14010 0.82319
 H90 H 0.12148 1.18979 0.77105
 H91 H 0.19145 1.11972 0.77269
 H92 H 0.12058 1.22957 0.81086
 H93 H 0.18897 1.22937 0.88242
 H94 H 0.22882 1.18946 0.88330
 H95 H 0.23041 1.11967 0.81347
 C96 C 0.84794 0.80944 0.80399
 C97 C 0.86104 0.82338 0.77805
 C98 C 0.84794 0.85009 0.76562
 C99 C 0.82161 0.86300 0.77901
 C100 C 0.80823 0.84935 0.80495
 C101 C 0.82142 0.82245 0.81754
 C102 C 0.86098 0.78282 0.81673
 C103 C 0.84782 0.76918 0.84277
 C104 C 0.82148 0.78203 0.85622
 C105 C 0.80816 0.80864 0.84377
 C106 C 0.78192 0.82180 0.85717
 C107 C 0.76893 0.84850 0.84467
 C108 C 0.78199 0.86220 0.81865
 H109 H 0.88145 0.81353 0.76760
 H110 H 0.81161 0.88371 0.76930
 H111 H 0.88141 0.77280 0.80646
 H112 H 0.81144 0.77139 0.87642
 H113 H 0.77165 0.81140 0.87736
 H114 H 0.77178 0.88289 0.80919
 C115 C 0.15044 0.80416 1.19203
 C116 C 0.13760 0.81783 1.21828
 C117 C 0.15129 0.84377 1.23139
 C118 C 0.17796 0.85621 1.21844
 C119 C 0.19111 0.84284 1.19220
 C120 C 0.17732 0.81670 1.17889
 C121 C 0.13680 0.77830 1.17859
 C122 C 0.14971 0.76494 1.15224
 C123 C 0.17640 0.77733 1.13919
 C124 C 0.19032 0.80318 1.15235
 C125 C 0.21692 0.81589 1.13936
 C126 C 0.23051 0.84183 1.15258
 C127 C 0.21770 0.85524 1.17891
 H128 H 0.11692 0.80841 1.22847
 H129 H 0.18836 0.87634 1.22874
 H130 H 0.11611 0.76863 1.18855
 H131 H 0.18626 0.76691 1.11877
 H132 H 0.22700 0.80572 1.11894
 H133 H 0.22837 0.87536 1.18893
 C134 C 0.84686 1.19423 1.19284
 C135 C 0.86089 1.18173 1.21908
 C136 C 0.84874 1.15540 1.23301
 C137 C 0.82242 1.14145 1.22085
 C138 C 0.80811 1.15366 1.19463
 C139 C 0.82036 1.18017 1.18052
 C140 C 0.85894 1.22044 1.17859
 C141 C 0.84487 1.23262 1.15227
 C142 C 0.81857 1.21875 1.14004
 C143 C 0.80617 1.19253 1.15400
 C144 C 0.77996 1.17833 1.14184
 C145 C 0.76790 1.15204 1.15585
 C146 C 0.78188 1.13976 1.18216
 H147 H 0.88131 1.19239 1.22857
 H148 H 0.81315 1.12104 1.23171
 H149 H 0.87933 1.23133 1.18784
 H150 H 0.80788 1.22833 1.11962
 H151 H 0.76899 1.18761 1.12144
 H152 H 0.77239 1.11936 1.19279
 O153 O 0.45731 0.94086 0.94977
 O154 O 0.42344 0.97060 0.97732
 C155 C 0.42978 0.94921 0.95764
 O156 O 0.54363 0.94380 1.05979
 O157 O 0.57714 0.97178 1.03018
 C158 C 0.57107 0.95202 1.05156
 O159 O 0.45720 0.94056 1.05678
 O160 O 0.42333 0.97002 1.02886
 C161 C 0.42966 0.94868 1.04861
 O162 O 0.54365 0.94397 0.94711
 O163 O 0.57716 0.97184 0.97681
 C164 C 0.57108 0.95216 0.95537
 Zr165 Zr 0.50035 0.95819 0.96457
 O166 O 0.50414 0.90972 0.96500
 O167 O 0.49694 0.95810 0.91600
 Zr168 Zr 0.50031 0.95811 1.04237
 O169 O 0.50415 0.90965 1.04221
 O170 O 0.49679 0.95818 1.09093
 O171 O 0.47296 0.95205 1.00344
 O172 O 0.52706 0.95265 1.00348
 O173 O 0.54295 1.05047 0.94718
 O174 O 0.57683 1.02274 0.97682
 C175 C 0.57049 1.04245 0.95543
 O176 O 0.45653 1.05301 1.05690
 O177 O 0.42302 1.02331 1.02906
 C178 C 0.42909 1.04469 1.04881
 O179 O 0.54294 1.05043 1.05981
 O180 O 0.57680 1.02271 1.03020
 C181 C 0.57048 1.04243 1.05156
 O182 O 0.45652 1.05308 0.95009
 O183 O 0.42299 1.02344 0.97802
 C184 C 0.42908 1.04478 0.95822
 Zr185 Zr 0.49985 1.03590 0.96461
 O186 O 0.50304 1.08439 0.96492
 O187 O 0.49636 1.03598 0.91605
 Zr188 Zr 0.49984 1.03585 1.04236
 O189 O 0.50302 1.08433 1.04208
 O190 O 0.49638 1.03581 1.09092
 Zr191 Zr 0.45443 0.99684 1.00348
 Zr192 Zr 0.54573 0.99715 1.00350
 O193 O 0.52651 1.04154 1.00350
 O194 O 0.47240 1.04175 1.00348
 O195 O 0.52745 0.99714 0.95858
 O196 O 0.47341 0.99688 1.04799
 O197 O 0.47347 0.99698 0.95898
 O198 O 0.52743 0.99706 1.04840
 H199 H 0.54116 0.93474 1.00347
 H200 H 0.45945 0.99680 1.06598
 H201 H 0.54036 1.05955 1.00350
 H202 H 0.45962 0.99703 0.94090
 H203 H 0.51390 0.97071 1.09900
 H204 H 0.51347 1.02313 1.09897
 H205 H 0.48563 1.09230 1.02976
 H206 H 0.48563 1.09234 0.97720
 H207 H 0.51348 1.02336 0.90797
 H208 H 0.51378 0.97100 0.90795
 H209 H 0.48661 0.90165 0.97697
 H210 H 0.48710 0.90158 1.02957
 O211 O 0.05034 0.54278 -0.05996
 O212 O 0.02303 0.57663 -0.02999
 C213 C 0.04258 0.57030 -0.05152
 O214 O -0.05980 0.45716 -0.05648
 O215 O -0.03013 0.42340 -0.02865
 C216 C -0.05159 0.42967 -0.04832
 O217 O -0.05664 0.54349 -0.05967
 O218 O -0.02849 0.57703 -0.03029
 C219 C -0.04837 0.57092 -0.05156
 O220 O 0.05281 0.45651 -0.05694
 O221 O 0.02321 0.42308 -0.02889
 C222 C 0.04454 0.42911 -0.04872
 Zr223 Zr 0.03554 0.49979 -0.04256
 O224 O 0.03486 0.49624 -0.09112
 O225 O 0.08408 0.50293 -0.04289
 Zr226 Zr -0.04220 0.50027 -0.04222
 O227 O -0.04223 0.49666 -0.09078
 O228 O -0.09072 0.50404 -0.04196
 O229 O -0.00328 0.52741 -0.04847
 O230 O -0.00343 0.47336 -0.04792
 O231 O 0.05326 0.45673 0.04979
 O232 O 0.02345 0.42319 0.02212
 C233 C 0.04493 0.42931 0.04178
 O234 O -0.05612 0.54367 0.05299
 O235 O -0.02838 0.57712 0.02310
 C236 C -0.04800 0.57107 0.04463
 O237 O -0.05925 0.45737 0.05032
 O238 O -0.02988 0.42351 0.02236
 C239 C -0.05111 0.42986 0.04223
 O240 O 0.05053 0.54308 0.05250
 O241 O 0.02257 0.57685 0.02296
 C242 C 0.04242 0.57057 0.04426
 Zr243 Zr 0.03590 0.49995 0.03530
 O244 O 0.03590 0.49654 0.08387
 O245 O 0.08443 0.50318 0.03505
 Zr246 Zr -0.04180 0.50039 0.03566
 O247 O -0.04130 0.49699 0.08423
 O248 O -0.09031 0.50414 0.03587
 Zr249 Zr -0.00305 0.54571 -0.00359
 Zr250 Zr -0.00326 0.45451 -0.00335
 O251 O -0.00299 0.47351 0.04113
 O252 O -0.00286 0.52755 0.04139
 O253 O 0.04167 0.47251 -0.00359
 O254 O -0.04757 0.52699 -0.00332
 O255 O 0.04138 0.52645 -0.00370
 O256 O -0.04809 0.47304 -0.00319
 H257 H -0.00355 0.45935 -0.06587
 H258 H -0.06552 0.54104 -0.00329
 H259 H -0.00294 0.45960 0.05916
 H260 H 0.05947 0.54019 -0.00373
 H261 H -0.09875 0.48705 -0.02924
 H262 H -0.09847 0.48712 0.02326
 H263 H -0.02888 0.51423 0.09217
 H264 H 0.02361 0.51389 0.09194
 H265 H 0.09240 0.48600 0.02248
 H266 H 0.09214 0.48602 -0.02999
 H267 H 0.02285 0.51382 -0.09912
 H268 H -0.02972 0.51375 -0.09891
 O269 O 1.05946 -0.05047 0.54316
 O270 O 1.02987 -0.02263 0.57694
 C271 C 1.05119 -0.04245 0.57069
 O272 O 1.05646 0.05935 0.45682
 O273 O 1.02865 0.02985 0.42307
 C274 C 1.04837 0.05116 0.42930
 O275 O 1.05925 0.05647 0.54330
 O276 O 1.02938 0.02891 0.57694
 C277 C 1.05080 0.04854 0.57079
 O278 O 1.05649 -0.05320 0.45668
 O279 O 1.02865 -0.02345 0.42298
 C280 C 1.04833 -0.04494 0.42918
 Zr281 Zr 1.04223 -0.03569 0.49994
 O282 O 1.09075 -0.03511 0.49641
 O283 O 1.04272 -0.08416 0.50330
 Zr284 Zr 1.04207 0.04187 0.50005
 O285 O 1.09060 0.04128 0.49660
 O286 O 1.04217 0.09033 0.50352
 O287 O 1.04812 0.00302 0.52748
 O288 O 1.04772 0.00312 0.47324
 O289 O 0.94995 -0.05291 0.45667
 O290 O 0.97776 -0.02332 0.42299
 C291 C 0.95804 -0.04465 0.42917
 O292 O 0.94688 0.05653 0.54323
 O293 O 0.97692 0.02901 0.57691
 C294 C 0.95533 0.04858 0.57073
 O295 O 0.94974 0.05947 0.45680
 O296 O 0.97768 0.02994 0.42305
 C297 C 0.95786 0.05127 0.42928
 O298 O 0.94708 -0.05025 0.54312
 O299 O 0.97657 -0.02252 0.57693
 C300 C 0.95529 -0.04225 0.57065
 Zr301 Zr 0.96431 -0.03556 0.49992
 O302 O 0.91578 -0.03495 0.49639
 O303 O 0.96411 -0.08404 0.50327
 Zr304 Zr 0.96426 0.04202 0.50002
 O305 O 0.91573 0.04188 0.49652
 O306 O 0.96428 0.09049 0.50355
 Zr307 Zr 1.00320 0.00297 0.54571
 Zr308 Zr 1.00321 0.00322 0.45431
 O309 O 0.95870 0.00328 0.47324
 O310 O 0.95830 0.00317 0.52743
 O311 O 1.00327 -0.04162 0.47259
 O312 O 1.00315 0.04744 0.52668
 O313 O 1.00327 -0.04137 0.52654
 O314 O 1.00316 0.04801 0.47266
 H315 H 1.06567 0.00309 0.45922
 H316 H 1.00310 0.06551 0.54050
 H317 H 0.94073 0.00333 0.45925
 H318 H 1.00329 -0.05941 0.54043
 H319 H 1.02920 0.09843 0.48667
 H320 H 0.97675 0.09853 0.48635
 H321 H 0.90773 0.02944 0.51376
 H322 H 0.90775 -0.02306 0.51403
 H323 H 0.97710 -0.09210 0.48643
 H324 H 1.02944 -0.09220 0.48672
 H325 H 1.09872 -0.02330 0.51410
 H326 H 1.09861 0.02930 0.51421
 C327 C 1.07093 0.11034 0.32986
 C328 C 1.09549 0.13601 0.33072
 C329 C 1.11425 0.11834 0.30655
 C330 C 1.08992 0.09289 0.30528
 C331 C 1.08866 0.09314 0.35515
 C332 C 1.10742 0.07548 0.33097
 C333 C 1.11299 0.11858 0.35644
 C334 C 1.13197 0.10114 0.33184
 C335 C 1.12848 0.13214 0.27935
 C336 C 1.14014 0.14330 0.25684
 C337 C 1.07437 0.07873 0.38200
 C338 C 1.06254 0.06642 0.40379
 H339 H 1.04567 0.11396 0.32935
 H340 H 1.09074 0.16106 0.33030
 H341 H 1.08059 0.08247 0.28396
 H342 H 1.11217 0.05043 0.33138
 H343 H 1.12231 0.12899 0.37778
 H344 H 1.15723 0.09750 0.33234
 C345 C 0.89890 -0.06963 0.33090
 C346 C 0.91594 -0.08814 0.30568
 C347 C 0.89103 -0.11297 0.30773
 C348 C 0.87377 -0.09467 0.33254
 C349 C 0.91732 -0.08704 0.35554
 C350 C 0.89242 -0.11186 0.35759
 C351 C 0.93459 -0.10532 0.33073
 C352 C 0.90945 -0.13039 0.33236
 C353 C 0.87634 -0.12725 0.28104
 C354 C 0.86425 -0.13887 0.25901
 C355 C 0.93190 -0.07233 0.38204
 C356 C 0.94385 -0.05989 0.40368
 H357 H 0.89474 -0.04447 0.33060
 H358 H 0.92544 -0.07853 0.28405
 H359 H 0.84861 -0.09045 0.33299
 H360 H 0.88292 -0.12145 0.37924
 H361 H 0.95976 -0.10954 0.33029
 H362 H 0.91361 -0.15554 0.33266
 C363 C 0.92809 0.10963 0.66754
 C364 C 0.89987 0.13136 0.66632
 C365 C 0.88519 0.11309 0.69270
 C366 C 0.91318 0.09157 0.69432
 C367 C 0.91205 0.08820 0.64457
 C368 C 0.89737 0.06993 0.67095
 C369 C 0.88406 0.10972 0.64293
 C370 C 0.86914 0.09166 0.66974
 C371 C 0.87038 0.12691 0.71960
 C372 C 0.85834 0.13823 0.74184
 C373 C 0.92720 0.07426 0.61793
 C374 C 0.93990 0.06264 0.59623
 H375 H 0.95250 0.11686 0.66633
 H376 H 0.90073 0.15678 0.66472
 H377 H 0.92500 0.08426 0.71575
 H378 H 0.89652 0.04451 0.67255
 H379 H 0.87225 0.11702 0.62149
 H380 H 0.84473 0.08443 0.67095
 C381 C 1.10932 -0.06676 0.67057
 C382 C 1.09198 -0.08689 0.69423
 C383 C 1.11810 -0.11064 0.69255
 C384 C 1.13567 -0.09074 0.66931
 C385 C 1.09296 -0.08392 0.64444
 C386 C 1.11908 -0.10766 0.64275
 C387 C 1.07541 -0.10381 0.66769
 C388 C 1.10174 -0.12779 0.66642
 C389 C 1.13185 -0.12556 0.71945
 C390 C 1.14294 -0.13786 0.74168
 C391 C 1.07860 -0.06909 0.61782
 C392 C 1.06635 -0.05692 0.59615
 H393 H 1.11227 -0.04149 0.67197
 H394 H 1.08098 -0.07851 0.71569
 H395 H 1.16060 -0.08553 0.67029
 H396 H 1.13006 -0.11603 0.62128
 H397 H 1.05047 -0.10902 0.66673
 H398 H 1.09876 -0.15305 0.66501
 C399 C 0.32431 1.07130 1.09477
 C400 C 0.32351 1.08557 1.12738
 C401 C 0.30691 1.11381 1.11413
 C402 C 0.30730 1.09975 1.08173
 C403 C 0.35511 1.08741 1.08885
 C404 C 0.33851 1.11564 1.07559
 C405 C 0.35472 1.10145 1.12125
 C406 C 0.33770 1.12993 1.10821
 C407 C 0.27996 1.12840 1.12812
 C408 C 0.25768 1.14031 1.13953
 C409 C 0.38179 1.07250 1.07469
 C410 C 0.40353 1.05997 1.06294
 H411 H 0.31910 1.04703 1.08908
 H412 H 0.31703 1.07337 1.14883
 H413 H 0.28751 1.09922 1.06563
 H414 H 0.34498 1.12783 1.05414
 H415 H 0.37453 1.10198 1.13734
 H416 H 0.34290 1.15420 1.11390
 C417 C 0.35768 0.87926 0.89516
 C418 C 0.32954 0.86575 0.91224
 C419 C 0.30823 0.88247 0.88953
 C420 C 0.33594 0.89575 0.87221
 C421 C 0.35624 0.90754 0.91620
 C422 C 0.33491 0.92424 0.89349
 C423 C 0.32852 0.89426 0.93352
 C424 C 0.30680 0.91076 0.91058
 C425 C 0.28139 0.86878 0.87461
 C426 C 0.25921 0.85774 0.86232
 C427 C 0.38279 0.92188 0.93100
 C428 C 0.40441 0.93411 0.94315
 H429 H 0.37890 0.86646 0.88899
 H430 H 0.32701 0.84154 0.91979
 H431 H 0.33869 0.89622 0.84684
 H432 H 0.33743 0.94846 0.88595
 H433 H 0.32578 0.89381 0.95890
 H434 H 0.28559 0.92356 0.91675
 C435 C 0.64443 0.89016 1.12145
 C436 C 0.66757 0.86881 1.10475
 C437 C 0.69415 0.88685 1.11929
 C438 C 0.67144 0.90798 1.13621
 C439 C 0.64543 0.91214 1.09383
 C440 C 0.67201 0.93019 1.10837
 C441 C 0.66815 0.89101 1.07693
 C442 C 0.69513 0.90884 1.09168
 C443 C 0.72141 0.87276 1.13322
 C444 C 0.74396 0.86118 1.14445
 C445 C 0.61852 0.92627 1.07929
 C446 C 0.59666 0.93796 1.06689
 H447 H 0.62328 0.88265 1.13352
 H448 H 0.66606 0.84341 1.10342
 H449 H 0.67312 0.91480 1.16075
 H450 H 0.67352 0.95559 1.10969
 H451 H 0.66650 0.88419 1.05239
 H452 H 0.71627 0.91636 1.07959
 C453 C 0.66581 1.06705 0.89032
 C454 C 0.66433 1.09549 0.86894
 C455 C 0.69148 1.10950 0.88657
 C456 C 0.69337 1.08129 0.90771
 C457 C 0.64381 1.08326 0.91271
 C458 C 0.67097 1.09727 0.93033
 C459 C 0.64191 1.11147 0.89158
 C460 C 0.66948 1.12570 0.90897
 C461 C 0.71810 1.12416 0.87220
 C462 C 0.74010 1.13623 0.86054
 C463 C 0.61740 1.06869 0.92755
 C464 C 0.59586 1.05672 0.94008
 H465 H 0.66400 1.04276 0.88282
 H466 H 0.66190 1.09493 0.84354
 H467 H 0.71483 1.06904 0.91419
 H468 H 0.67340 1.09784 0.95574
 H469 H 0.62044 1.12371 0.88511
 H470 H 0.67129 1.14998 0.91649
 C471 C 0.11240 0.35769 0.10761
 C472 C 0.09524 0.33273 0.12622
 C473 C 0.11356 0.30792 0.10900
 C474 C 0.13096 0.33246 0.09061
 C475 C 0.08752 0.35571 0.08262
 C476 C 0.10584 0.33090 0.06539
 C477 C 0.07014 0.33115 0.10101
 C478 C 0.08868 0.30594 0.08401
 C479 C 0.12789 0.28123 0.12374
 C480 C 0.13953 0.25921 0.13586
 C481 C 0.07274 0.38220 0.06800
 C482 C 0.06024 0.40383 0.05602
 H483 H 0.12199 0.37927 0.11713
 H484 H 0.09103 0.33318 0.15140
 H485 H 0.15613 0.33269 0.08650
 H486 H 0.11003 0.33046 0.04021
 H487 H 0.04496 0.33092 0.10512
 H488 H 0.07908 0.28437 0.07448
 C489 C -0.11979 0.35706 -0.11230
 C490 C -0.10256 0.33223 -0.13117
 C491 C -0.11976 0.30726 -0.11319
 C492 C -0.13723 0.33164 -0.09454
 C493 C -0.09416 0.35575 -0.08803
 C494 C -0.11136 0.33077 -0.07004
 C495 C -0.07671 0.33134 -0.10668
 C496 C -0.09413 0.30596 -0.08892
 C497 C -0.13374 0.28011 -0.12722
 C498 C -0.14497 0.25764 -0.13876
 C499 C -0.07952 0.38252 -0.07397
 C500 C -0.06704 0.40425 -0.06233
 H501 H -0.13018 0.37837 -0.12175
 H502 H -0.09908 0.33253 -0.15646
 H503 H -0.16227 0.33145 -0.08970
 H504 H -0.11482 0.33047 -0.04475
 H505 H -0.05167 0.33151 -0.11152
 H506 H -0.08373 0.28466 -0.07946
 C507 C 0.06686 0.67272 -0.10410
 C508 C 0.09169 0.69273 -0.08840
 C509 C 0.11062 0.69184 -0.11821
 C510 C 0.08601 0.67225 -0.13414
 C511 C 0.08399 0.64380 -0.09323
 C512 C 0.10291 0.64289 -0.12304
 C513 C 0.10860 0.66341 -0.07732
 C514 C 0.12775 0.66292 -0.10734
 C515 C 0.12547 0.71870 -0.13187
 C516 C 0.13769 0.74092 -0.14288
 C517 C 0.06921 0.61724 -0.07891
 C518 C 0.05706 0.59564 -0.06667
 H519 H 0.04165 0.67646 -0.10262
 H520 H 0.08726 0.71352 -0.07431
 H521 H 0.07689 0.67620 -0.15766
 H522 H 0.10735 0.62210 -0.13713
 H523 H 0.11772 0.65948 -0.05379
 H524 H 0.15295 0.65919 -0.10882
 C525 C -0.11174 0.64342 0.11338
 C526 C -0.09391 0.66840 0.13134
 C527 C -0.11250 0.69321 0.11437
 C528 C -0.13055 0.66866 0.09665
 C529 C -0.08751 0.64503 0.08776
 C530 C -0.10609 0.66984 0.07079
 C531 C -0.06946 0.66958 0.10547
 C532 C -0.08826 0.69480 0.08874
 C533 C -0.12638 0.72015 0.12904
 C534 C -0.13775 0.74240 0.14097
 C535 C -0.07354 0.61834 0.07272
 C536 C -0.06195 0.59661 0.06007
 H537 H -0.12124 0.62199 0.12335
 H538 H -0.08906 0.66812 0.15640
 H539 H -0.15582 0.66859 0.09318
 H540 H -0.11094 0.67014 0.04573
 H541 H -0.04418 0.66966 0.10893
 H542 H -0.07876 0.71623 0.07876
 C543 C 1.10923 0.07122 0.67058
 C544 C 1.13525 0.09540 0.66976
 C545 C 1.11761 0.11453 0.69367
 C546 C 1.09182 0.09056 0.69490
 C547 C 1.09244 0.08897 0.64504
 C548 C 1.07482 0.10810 0.66895
 C549 C 1.11824 0.11293 0.64379
 C550 C 1.10083 0.13228 0.66813
 C551 C 1.13143 0.12871 0.72088
 C552 C 1.14262 0.14032 0.74339
 C553 C 1.07809 0.07468 0.61817
 C554 C 1.06588 0.06281 0.59635
 H555 H 1.11253 0.04594 0.67129
 H556 H 1.16026 0.09034 0.67041
 H557 H 1.08110 0.08152 0.71620
 H558 H 1.04981 0.11316 0.66832
 H559 H 1.12894 0.12197 0.62247
 H560 H 1.09751 0.15755 0.66742
 C561 C 0.89783 -0.06575 0.67092
 C562 C 0.87019 -0.08804 0.66942
 C563 C 0.88691 -0.10956 0.69192
 C564 C 0.91432 -0.08750 0.69383
 C565 C 0.91288 -0.08322 0.64415
 C566 C 0.92959 -0.10474 0.66666
 C567 C 0.88547 -0.10527 0.64223
 C568 C 0.90197 -0.12702 0.66515
 C569 C 0.87262 -0.12426 0.71860
 C570 C 0.86098 -0.13633 0.74063
 C571 C 0.92760 -0.06858 0.61768
 C572 C 0.94004 -0.05656 0.59608
 H573 H 0.89629 -0.04040 0.67298
 H574 H 0.84559 -0.08135 0.67087
 H575 H 0.92603 -0.08037 0.71535
 H576 H 0.95419 -0.11144 0.66524
 H577 H 0.87377 -0.11241 0.62071
 H578 H 0.90351 -0.15238 0.66309
 C579 C 1.11121 -0.11478 0.35708
 C580 C 1.09321 -0.13195 0.33163
 C581 C 1.11252 -0.11535 0.30721
 C582 C 1.13073 -0.09841 0.33223
 C583 C 1.08767 -0.08848 0.35534
 C584 C 1.10697 -0.07189 0.33091
 C585 C 1.06945 -0.10541 0.33031
 C586 C 1.08898 -0.08905 0.30548
 C587 C 1.12637 -0.13013 0.28031
 C588 C 1.13775 -0.14211 0.25807
 C589 C 1.07377 -0.07328 0.38198
 C590 C 1.06224 -0.06050 0.40368
 H591 H 1.12019 -0.12518 0.37860
 H592 H 1.08771 -0.15681 0.33161
 H593 H 1.15608 -0.09570 0.33271
 H594 H 1.11248 -0.04702 0.33091
 H595 H 1.04410 -0.10812 0.32983
 H596 H 1.07999 -0.07864 0.28396
 C597 C 0.93368 0.10362 0.32639
 C598 C 0.90847 0.08828 0.30654
 C599 C 0.88996 0.11836 0.30738
 C600 C 0.91494 0.13393 0.32681
 C601 C 0.91663 0.09320 0.35550
 C602 C 0.89813 0.12327 0.35636
 C603 C 0.89166 0.07764 0.33604
 C604 C 0.87292 0.10793 0.33649
 C605 C 0.87503 0.13209 0.28048
 C606 C 0.86269 0.14314 0.25825
 C607 C 0.93141 0.07880 0.38213
 C608 C 0.94351 0.06650 0.40381
 H609 H 0.95883 0.10169 0.32255
 H610 H 0.91255 0.07405 0.28576
 H611 H 0.92435 0.15723 0.32270
 H612 H 0.89405 0.13749 0.37715
 H613 H 0.88225 0.05434 0.34013
 H614 H 0.84777 0.10985 0.34033
 C615 C 0.10528 0.33054 -0.07073
 C616 C 0.08834 0.30533 -0.08919
 C617 C 0.11358 0.30688 -0.11384
 C618 C 0.13076 0.33168 -0.09559
 C619 C 0.08726 0.35511 -0.08863
 C620 C 0.11249 0.35667 -0.11327
 C621 C 0.07009 0.33031 -0.10687
 C622 C 0.09555 0.33145 -0.13173
 C623 C 0.12813 0.27992 -0.12781
 C624 C 0.14000 0.25763 -0.13921
 C625 C 0.07237 0.38181 -0.07451
 C626 C 0.05984 0.40356 -0.06280
 H627 H 0.10911 0.33047 -0.04549
 H628 H 0.07857 0.28392 -0.07945
 H629 H 0.15587 0.33193 -0.09111
 H630 H 0.12226 0.37809 -0.12301
 H631 H 0.04497 0.33005 -0.11135
 H632 H 0.09171 0.33151 -0.15697
 C633 C -0.07689 0.33659 0.10819
 C634 C -0.10682 0.33715 0.12744
 C635 C -0.11776 0.30834 0.11033
 C636 C -0.08803 0.30739 0.09131
 C637 C -0.09284 0.35636 0.08362
 C638 C -0.10378 0.32755 0.06650
 C639 C -0.12257 0.35734 0.10263
 C640 C -0.13374 0.32809 0.08575
 C641 C -0.13136 0.28148 0.12527
 C642 C -0.14231 0.25927 0.13758
 C643 C -0.07855 0.38292 0.06881
 C644 C -0.06630 0.40452 0.05667
 H645 H -0.05335 0.34040 0.11724
 H646 H -0.10822 0.34080 0.15267
 H647 H -0.07397 0.28656 0.08681
 H648 H -0.10237 0.32392 0.04127
 H649 H -0.13660 0.37819 0.10711
 H650 H -0.15727 0.32429 0.07669
 C651 C -0.10876 0.66834 -0.07689
 C652 C -0.09090 0.69485 -0.09241
 C653 C -0.11354 0.69380 -0.11950
 C654 C -0.13162 0.66769 -0.10419
 C655 C -0.08829 0.64514 -0.09395
 C656 C -0.11093 0.64407 -0.12104
 C657 C -0.07021 0.67125 -0.10926
 C658 C -0.09307 0.67062 -0.13658
 C659 C -0.12760 0.72104 -0.13347
 C660 C -0.13915 0.74358 -0.14472
 C661 C -0.07418 0.61827 -0.07935
 C662 C -0.06248 0.59645 -0.06692
 H663 H -0.11505 0.66710 -0.05218
 H664 H -0.08282 0.71602 -0.08078
 H665 H -0.15702 0.66654 -0.10225
 H666 H -0.11900 0.62289 -0.13265
 H667 H -0.04480 0.67241 -0.11119
 H668 H -0.08679 0.67187 -0.16129
 C669 C 0.06574 0.66978 0.10329
 C670 C 0.08926 0.66811 0.13000
 C671 C 0.10947 0.69148 0.11302
 C672 C 0.08617 0.69356 0.08654
 C673 C 0.08325 0.64387 0.08686
 C674 C 0.10345 0.66725 0.06989
 C675 C 0.10654 0.64178 0.11333
 C676 C 0.12697 0.66557 0.09659
 C677 C 0.12411 0.71807 0.12742
 C678 C 0.13615 0.74004 0.13913
 C679 C 0.06868 0.61748 0.07203
 C680 C 0.05671 0.59594 0.05953
 H681 H 0.04039 0.67119 0.10587
 H682 H 0.08360 0.66877 0.15488
 H683 H 0.07796 0.71515 0.07568
 H684 H 0.10911 0.66660 0.04501
 H685 H 0.11474 0.62018 0.12418
 H686 H 0.15231 0.66414 0.09398
 C687 C 0.34485 1.08088 0.88423
 C688 C 0.31128 1.07860 0.89582
 C689 C 0.30756 1.11335 0.89097
 C690 C 0.34073 1.11586 0.87916
 C691 C 0.35538 1.08727 0.91734
 C692 C 0.35168 1.12202 0.91250
 C693 C 0.32221 1.08476 0.92915
 C694 C 0.31809 1.11974 0.92408
 C695 C 0.28086 1.12771 0.87627
 C696 C 0.25881 1.13938 0.86419
 C697 C 0.38189 1.07249 0.93197
 C698 C 0.40354 1.06002 0.94396
 H699 H 0.35615 1.06474 0.86801
 H700 H 0.29438 1.06090 0.88880
 H701 H 0.34805 1.12881 0.85843
 H702 H 0.36859 1.13970 0.91953
 H703 H 0.31490 1.07182 0.94988
 H704 H 0.30678 1.13587 0.94031
 C705 C 0.35703 0.87984 1.11198
 C706 C 0.33253 0.89685 1.13148
 C707 C 0.30719 0.88031 1.11338
 C708 C 0.33125 0.86307 1.09409
 C709 C 0.35572 0.90600 1.08830
 C710 C 0.33038 0.88946 1.07019
 C711 C 0.33164 0.92322 1.10759
 C712 C 0.30590 0.90647 1.08970
 C713 C 0.28001 0.86629 1.12735
 C714 C 0.25752 0.85502 1.13886
 C715 C 0.38252 0.92069 1.07429
 C716 C 0.40425 0.93321 1.06265
 H717 H 0.37836 0.86906 1.12098
 H718 H 0.33310 0.89974 1.15684
 H719 H 0.33078 0.83817 1.08869
 H720 H 0.32980 0.88658 1.04483
 H721 H 0.33210 0.94812 1.11299
 H722 H 0.28458 0.91727 1.08068
 C723 C 0.66814 1.10217 1.07541
 C724 C 0.66680 1.12730 1.10056
 C725 C 0.69216 1.11026 1.11833
 C726 C 0.69390 1.08535 1.09339
 C727 C 0.64409 1.08364 1.09335
 C728 C 0.66945 1.06658 1.11111
 C729 C 0.64233 1.10854 1.11829
 C730 C 0.66812 1.09173 1.13629
 C731 C 0.71903 1.12514 1.13197
 C732 C 0.74125 1.13740 1.14296
 C733 C 0.61750 1.06889 1.07903
 C734 C 0.59586 1.05679 1.06677
 H735 H 0.66785 1.10630 1.05022
 H736 H 0.66602 1.15243 1.09637
 H737 H 0.71540 1.07598 1.08329
 H738 H 0.67023 1.04145 1.11530
 H739 H 0.62083 1.11790 1.12837
 H740 H 0.66844 1.08761 1.16148
 C741 C 0.66956 0.89353 0.92900
 C742 C 0.66827 0.86947 0.90282
 C743 C 0.69314 0.88747 0.88548
 C744 C 0.69483 0.91132 0.91143
 C745 C 0.64501 0.91258 0.91214
 C746 C 0.66988 0.93058 0.89481
 C747 C 0.64329 0.88873 0.88619
 C748 C 0.66859 0.90652 0.86861
 C749 C 0.72004 0.87351 0.87077
 C750 C 0.74227 0.86207 0.85881
 C751 C 0.61836 0.92661 0.92722
 C752 C 0.59663 0.93822 0.93990
 H753 H 0.66965 0.88836 0.95400
 H754 H 0.66791 0.84418 0.90596
 H755 H 0.71632 0.92045 0.92165
 H756 H 0.67023 0.95588 0.89168
 H757 H 0.62180 0.87961 0.87599
 H758 H 0.66850 0.91170 0.84362
   
