data_POSCAR
  _audit_creation_date              2014-09-24
  _audit_creation_method            'ToBaCCo'
  _symmetry_space_group_name_H-M    'P1'
  _symmetry_Int_Tables_number       1
  _symmetry_cell_setting            triclinic
  loop_
  _symmetry_equiv_pos_as_xyz
 x,y,z
_cell_length_a 44.7180
_cell_length_b 44.0590
_cell_length_c 44.2954
_cell_angle_alpha 90.129900
_cell_angle_beta 88.421300
_cell_angle_gamma 90.712600
loop_
  _atom_site_label
  _atom_site_type_symbol
  _atom_site_fract_x
  _atom_site_fract_y
  _atom_site_fract_z
C1 C 0.26125 0.28618 0.24808
 C2 C 0.28468 0.28469 0.22640
 C3 C 0.30435 0.25994 0.22581
 C4 C 0.30036 0.23677 0.24734
 C5 C 0.27714 0.23801 0.26924
 C6 C 0.25729 0.26264 0.26944
 C7 C 0.24136 0.31057 0.24840
 C8 C 0.21708 0.31127 0.26912
 C9 C 0.21318 0.28775 0.29032
 C10 C 0.23327 0.26354 0.29074
 C11 C 0.22966 0.24017 0.31206
 C12 C 0.24982 0.21598 0.31256
 C13 C 0.27329 0.21484 0.29075
 H14 H 0.28675 0.30235 0.20952
 H15 H 0.31538 0.21762 0.24696
 H16 H 0.24432 0.32874 0.23207
 H17 H 0.19478 0.28851 0.30673
 H18 H 0.21128 0.24092 0.32852
 H19 H 0.28831 0.19575 0.29003
 C20 C 0.73786 -0.29636 0.24729
 C21 C 0.71627 -0.30077 0.22536
 C22 C 0.69025 -0.27971 0.22178
 C23 C 0.69027 -0.25391 0.24487
 C24 C 0.71258 -0.25062 0.26617
 C25 C 0.73619 -0.27150 0.26735
 C26 C 0.76152 -0.31691 0.24912
 C27 C 0.78396 -0.31309 0.27068
 C28 C 0.78207 -0.28812 0.29045
 C29 C 0.75854 -0.26746 0.28902
 C30 C 0.75717 -0.24278 0.30907
 C31 C 0.73386 -0.22174 0.30774
 C32 C 0.71154 -0.22610 0.28647
 H33 H 0.71809 -0.31989 0.20999
 H34 H 0.67249 -0.23747 0.24440
 H35 H 0.76204 -0.33553 0.23328
 H36 H 0.79908 -0.28467 0.30718
 H37 H 0.77405 -0.24049 0.32599
 H38 H 0.69340 -0.21004 0.28554
 C39 C 0.73266 0.28981 0.75214
 C40 C 0.71083 0.29285 0.77525
 C41 C 0.68638 0.27246 0.77788
 C42 C 0.68408 0.24871 0.75649
 C43 C 0.70583 0.24534 0.73328
 C44 C 0.73018 0.26597 0.73111
 C45 C 0.75691 0.31034 0.74981
 C46 C 0.77900 0.30733 0.72658
 C47 C 0.77600 0.28350 0.70562
 C48 C 0.75195 0.26286 0.70778
 C49 C 0.74944 0.23913 0.68686
 C50 C 0.72563 0.21799 0.68920
 C51 C 0.70368 0.22157 0.71220
 H52 H 0.71298 0.31128 0.79138
 H53 H 0.66561 0.23270 0.75734
 H54 H 0.75797 0.32853 0.76613
 H55 H 0.79263 0.28082 0.68753
 H56 H 0.76588 0.23759 0.66855
 H57 H 0.68510 0.20555 0.71387
 C58 C 0.26879 -0.29792 0.76879
 C59 C 0.28994 -0.30019 0.79142
 C60 C 0.31430 -0.27986 0.79253
 C61 C 0.31709 -0.25666 0.77075
 C62 C 0.29602 -0.25410 0.74796
 C63 C 0.27179 -0.27484 0.74695
 C64 C 0.24464 -0.31840 0.76781
 C65 C 0.22320 -0.31645 0.74524
 C66 C 0.22638 -0.29319 0.72341
 C67 C 0.25049 -0.27242 0.72420
 C68 C 0.25356 -0.24919 0.70261
 C69 C 0.27750 -0.22814 0.70369
 C70 C 0.29871 -0.23099 0.72630
 H71 H 0.28753 -0.31798 0.80824
 H72 H 0.33513 -0.24012 0.77168
 H73 H 0.24257 -0.33603 0.78485
 H74 H 0.21022 -0.29057 0.70596
 H75 H 0.23751 -0.24798 0.68483
 H76 H 0.31730 -0.21499 0.72713
 C77 C 0.77771 -0.24896 0.79596
 C78 C 0.75449 -0.24681 0.81766
 C79 C 0.73241 -0.22116 0.81781
 C80 C 0.73822 -0.19881 0.79295
 C81 C 0.76178 -0.20194 0.77181
 C82 C 0.78139 -0.22672 0.77330
 C83 C 0.79732 -0.27365 0.79655
 C84 C 0.82068 -0.27672 0.77484
 C85 C 0.82456 -0.25389 0.75274
 C86 C 0.80507 -0.22929 0.75173
 C87 C 0.80889 -0.20738 0.72902
 C88 C 0.78911 -0.18315 0.72703
 C89 C 0.76581 -0.18031 0.74875
 H90 H 0.75198 -0.26418 0.83483
 H91 H 0.72330 -0.17970 0.79143
 H92 H 0.79410 -0.29082 0.81391
 H93 H 0.84255 -0.25461 0.73604
 H94 H 0.82701 -0.20951 0.71239
 H95 H 0.75094 -0.16113 0.74803
 C96 C 0.22978 0.25514 0.79357
 C97 C 0.25186 0.25263 0.81529
 C98 C 0.27278 0.22900 0.81363
 C99 C 0.27080 0.20736 0.79042
 C100 C 0.24883 0.20954 0.76855
 C101 C 0.22827 0.23356 0.77008
 C102 C 0.20923 0.27895 0.79493
 C103 C 0.18739 0.28176 0.77296
 C104 C 0.18566 0.25977 0.74991
 C105 C 0.20603 0.23584 0.74828
 C106 C 0.20453 0.21416 0.72511
 C107 C 0.22523 0.19049 0.72308
 C108 C 0.24715 0.18812 0.74515
 H109 H 0.25229 0.26890 0.83363
 H110 H 0.28670 0.18898 0.78918
 H111 H 0.21047 0.29564 0.81291
 H112 H 0.16827 0.26081 0.73345
 H113 H 0.18745 0.21593 0.70830
 H114 H 0.26264 0.16943 0.74458
 C115 C 0.22918 -0.26091 0.21208
 C116 C 0.25243 -0.25867 0.19040
 C117 C 0.27448 -0.23197 0.18943
 C118 C 0.26818 -0.20933 0.21425
 C119 C 0.24459 -0.21287 0.23543
 C120 C 0.22492 -0.23812 0.23426
 C121 C 0.21004 -0.28639 0.21174
 C122 C 0.18577 -0.28922 0.23231
 C123 C 0.18125 -0.26625 0.25405
 C124 C 0.20084 -0.24113 0.25552
 C125 C 0.19665 -0.21974 0.27864
 C126 C 0.21728 -0.19307 0.28252
 C127 C 0.24127 -0.19100 0.25815
 H128 H 0.25507 -0.27645 0.17365
 H129 H 0.28295 -0.18969 0.21554
 H130 H 0.21381 -0.30397 0.19491
 H131 H 0.16340 -0.26838 0.27094
 H132 H 0.17841 -0.22270 0.29504
 H133 H 0.25683 -0.17200 0.25866
 C134 C 0.74308 0.26292 0.21040
 C135 C 0.71945 0.26292 0.19014
 C136 C 0.69626 0.24103 0.19258
 C137 C 0.69677 0.21948 0.21583
 C138 C 0.72022 0.21918 0.23614
 C139 C 0.74354 0.24091 0.23340
 C140 C 0.76611 0.28478 0.20815
 C141 C 0.78983 0.28511 0.22847
 C142 C 0.79012 0.26268 0.25125
 C143 C 0.76713 0.24078 0.25387
 C144 C 0.76723 0.21890 0.27690
 C145 C 0.74404 0.19707 0.27964
 C146 C 0.72060 0.19755 0.25924
 H147 H 0.71898 0.28039 0.17304
 H148 H 0.67885 0.20273 0.21799
 H149 H 0.76546 0.30173 0.19045
 H150 H 0.80793 0.26173 0.26716
 H151 H 0.78502 0.21949 0.29297
 H152 H 0.70256 0.18094 0.26135
 O153 O 0.29436 0.02423 0.48010
 O154 O 0.28297 -0.03939 0.53330
 O155 O 0.28698 -0.03410 0.47485
 O156 O 0.29009 0.01906 0.53873
 O157 O 0.24128 0.02542 0.53688
 O158 O 0.23814 -0.02806 0.47285
 O159 O 0.23268 -0.03294 0.53144
 O160 O 0.24552 0.03047 0.47814
 Cu161 Cu 0.29332 -0.00810 0.50692
 Cu162 Cu 0.23468 -0.00062 0.50463
 C163 C 0.27202 0.03805 0.46994
 C164 C 0.25547 -0.04843 0.54267
 C165 C 0.26213 -0.04009 0.46291
 C166 C 0.26626 0.03127 0.54873
 O167 O 0.74850 0.03504 0.51958
 O168 O 0.75075 -0.02893 0.46559
 O169 O 0.74317 -0.02350 0.52385
 O170 O 0.75438 0.03027 0.46102
 O171 O 0.80341 0.02786 0.46502
 O172 O 0.79364 -0.02566 0.52845
 O173 O 0.79972 -0.03118 0.47002
 O174 O 0.79755 0.03269 0.52334
 Cu175 Cu 0.74446 0.00348 0.49191
 Cu176 Cu 0.80334 0.00066 0.49696
 C177 C 0.77274 0.04460 0.53075
 C178 C 0.77570 -0.04105 0.45880
 C179 C 0.76636 -0.03461 0.53863
 C180 C 0.78060 0.03842 0.45246
 O181 O 0.46831 0.30600 0.02581
 O182 O 0.51851 0.29065 -0.03988
 O183 O 0.46130 0.29873 -0.03193
 O184 O 0.52585 0.29975 0.01754
 O185 O 0.52027 0.25046 0.02519
 O186 O 0.45540 0.24942 -0.02461
 O187 O 0.51275 0.24139 -0.03214
 O188 O 0.46273 0.25669 0.03321
 Cu189 Cu 0.49405 0.30373 -0.00786
 Cu190 Cu 0.48718 0.24454 0.00119
 C191 C 0.45699 0.28388 0.04070
 C192 C 0.52418 0.26334 -0.04713
 C193 C 0.44740 0.27402 -0.03678
 C194 C 0.53413 0.27535 0.02974
 O195 O 0.52584 0.72082 0.03895
 O196 O 0.48136 0.72055 -0.03034
 O197 O 0.53821 0.71974 -0.01875
 O198 O 0.46899 0.71792 0.02730
 O199 O 0.46805 0.76804 0.02791
 O200 O 0.53826 0.76988 -0.01835
 O201 O 0.48146 0.77069 -0.02964
 O202 O 0.52488 0.77094 0.03931
 Cu203 Cu 0.50364 0.71475 0.00424
 Cu204 Cu 0.50313 0.77490 0.00488
 C205 C 0.53290 0.74614 0.05085
 C206 C 0.47389 0.74576 -0.04171
 C207 C 0.55009 0.74492 -0.02640
 C208 C 0.45663 0.74245 0.03539
 O209 O 0.02830 0.46774 0.26466
 O210 O -0.03438 0.52144 0.26254
 O211 O -0.02982 0.46314 0.26994
 O212 O 0.02389 0.52623 0.25824
 O213 O 0.02089 0.52064 0.20884
 O214 O -0.03212 0.45669 0.22059
 O215 O -0.03673 0.51474 0.21321
 O216 O 0.02574 0.46145 0.21530
 Cu217 Cu -0.00270 0.49529 0.26880
 Cu218 Cu -0.00559 0.48773 0.20951
 C219 C 0.03745 0.45525 0.24028
 C220 C -0.04630 0.52706 0.23745
 C221 C -0.04016 0.44920 0.24732
 C222 C 0.03123 0.53442 0.23157
 O223 O 0.02762 0.52283 0.69798
 O224 O -0.03517 0.46949 0.71316
 O225 O -0.02991 0.52774 0.70575
 O226 O 0.02250 0.46419 0.70453
 O227 O 0.02868 0.46949 0.75357
 O228 O -0.02416 0.53318 0.75485
 O229 O -0.02894 0.47469 0.76220
 O230 O 0.03334 0.52827 0.74706
 Cu231 Cu -0.00431 0.49544 0.70043
 Cu232 Cu 0.00288 0.50189 0.75935
 C233 C 0.04100 0.53484 0.72001
 C234 C -0.04282 0.46314 0.74029
 C235 C -0.03594 0.54132 0.73042
 C236 C 0.03453 0.45600 0.72874
 C237 C 0.32827 0.25656 0.20220
 C238 C 0.34033 0.28069 0.18514
 C239 C 0.36280 0.27692 0.16015
 C240 C 0.36667 0.30040 0.13896
 C241 C 0.38703 0.29762 0.11459
 C242 C 0.40425 0.27127 0.11107
 C243 C 0.40065 0.24797 0.13244
 C244 C 0.38037 0.25077 0.15683
 C245 C 0.42524 0.26665 0.08503
 C246 C 0.43687 0.29005 0.06680
 H247 H 0.33245 0.30343 0.18949
 H248 H 0.35347 0.32080 0.14095
 H249 H 0.38858 0.31584 0.09831
 H250 H 0.41370 0.22747 0.13032
 H251 H 0.37890 0.23246 0.17300
 H252 H 0.43243 0.24366 0.08043
 H253 H 0.33635 0.23385 0.19821
 H254 H 0.43170 0.31346 0.07185
 C255 C 0.66650 0.71496 0.19606
 C256 C 0.64215 0.73369 0.19205
 C257 C 0.62137 0.72936 0.16693
 C258 C 0.59817 0.75010 0.16358
 C259 C 0.57892 0.74764 0.13938
 C260 C 0.58259 0.72438 0.11783
 C261 C 0.60514 0.70297 0.12173
 C262 C 0.62449 0.70549 0.14595
 C263 C 0.56344 0.72208 0.09112
 C264 C 0.55061 0.74752 0.07828
 H265 H 0.63854 0.75271 0.20719
 H266 H 0.59506 0.76847 0.17962
 H267 H 0.56112 0.76391 0.13777
 H268 H 0.60822 0.68467 0.10561
 H269 H 0.64203 0.68896 0.14799
 H270 H 0.56118 0.70027 0.08002
 H271 H 0.67790 0.71886 0.20963
 H272 H 0.55479 0.76979 0.08773
 C273 C 0.66538 0.27694 -0.19821
 C274 C 0.64036 0.25836 -0.19165
 C275 C 0.61909 0.26422 -0.16605
 C276 C 0.60162 0.24002 -0.15450
 C277 C 0.58138 0.24446 -0.13032
 C278 C 0.57817 0.27337 -0.11708
 C279 C 0.59505 0.29773 -0.12920
 C280 C 0.61523 0.29330 -0.15343
 C281 C 0.55725 0.27927 -0.09118
 C282 C 0.54428 0.25653 -0.07304
 H283 H 0.63660 0.23778 -0.20433
 H284 H 0.60373 0.21750 -0.16413
 H285 H 0.56820 0.22518 -0.12251
 H286 H 0.59266 0.32033 -0.11983
 H287 H 0.62730 0.31285 -0.16239
 H288 H 0.55264 0.30273 -0.08551
 H289 H 0.66939 0.29594 -0.18327
 H290 H 0.54925 0.23293 -0.07721
 C291 C 0.33555 0.71682 -0.18260
 C292 C 0.36454 0.72907 -0.18308
 C293 C 0.38508 0.72602 -0.15760
 C294 C 0.40785 0.74784 -0.15420
 C295 C 0.42723 0.74628 -0.13006
 C296 C 0.42428 0.72268 -0.10879
 C297 C 0.40236 0.70012 -0.11290
 C298 C 0.38286 0.70176 -0.13698
 C299 C 0.44369 0.72099 -0.08230
 C300 C 0.45617 0.74680 -0.06913
 H301 H 0.37242 0.74234 -0.20226
 H302 H 0.41042 0.76642 -0.17009
 H303 H 0.44459 0.76346 -0.12831
 H304 H 0.40001 0.68141 -0.09715
 H305 H 0.36640 0.68382 -0.13948
 H306 H 0.44639 0.69917 -0.07153
 H307 H 0.32784 0.70384 -0.16313
 H308 H 0.45162 0.76900 -0.07822
 C309 C 0.19616 0.33692 0.26842
 C310 C 0.16538 0.33272 0.27270
 C311 C 0.14405 0.35787 0.27035
 C312 C 0.11609 0.35223 0.25778
 C313 C 0.09536 0.37552 0.25547
 C314 C 0.10201 0.40475 0.26638
 C315 C 0.12967 0.41021 0.27969
 C316 C 0.15073 0.38707 0.28132
 C317 C 0.07990 0.42931 0.26515
 C318 C 0.06126 0.43260 0.24070
 H319 H 0.15643 0.30988 0.27526
 H320 H 0.11038 0.32979 0.24951
 H321 H 0.07389 0.37049 0.24579
 H322 H 0.13507 0.43248 0.28859
 H323 H 0.17191 0.39183 0.29173
 H324 H 0.07905 0.44582 0.28332
 H325 H 0.20481 0.35901 0.26161
 H326 H 0.06432 0.41818 0.22104
 C327 C 0.19934 0.66233 0.74602
 C328 C 0.17671 0.65996 0.72484
 C329 C 0.15176 0.63763 0.72813
 C330 C 0.13753 0.62698 0.70226
 C331 C 0.11410 0.60569 0.70463
 C332 C 0.10427 0.59474 0.73312
 C333 C 0.11807 0.60605 0.75899
 C334 C 0.14142 0.62730 0.75660
 C335 C 0.07965 0.57211 0.73727
 C336 C 0.06553 0.55675 0.71388
 H337 H 0.17771 0.67331 0.70442
 H338 H 0.14477 0.63496 0.68009
 H339 H 0.10386 0.59820 0.68407
 H340 H 0.11070 0.59845 0.78125
 H341 H 0.15093 0.63587 0.77718
 H342 H 0.07237 0.56702 0.76027
 H343 H 0.19878 0.64605 0.76431
 H344 H 0.07213 0.56066 0.69056
 C345 C -0.19162 0.66710 0.27325
 C346 C -0.18695 0.64086 0.25581
 C347 C -0.16056 0.62092 0.25812
 C348 C -0.15516 0.59976 0.23493
 C349 C -0.13070 0.58044 0.23570
 C350 C -0.11081 0.58190 0.25974
 C351 C -0.11659 0.60246 0.28337
 C352 C -0.14117 0.62180 0.28265
 C353 C -0.08450 0.56184 0.26123
 C354 C -0.07164 0.54785 0.23581
 H355 H -0.20256 0.63452 0.23873
 H356 H -0.16997 0.59813 0.21602
 H357 H -0.12789 0.56412 0.21762
 H358 H -0.10194 0.60366 0.30243
 H359 H -0.14488 0.63691 0.30157
 H360 H -0.07441 0.55867 0.28294
 H361 H -0.17515 0.67299 0.28975
 H362 H -0.08013 0.55222 0.21364
 C363 C -0.19609 0.32708 0.72311
 C364 C -0.18890 0.35101 0.74262
 C365 C -0.16246 0.37118 0.73749
 C366 C -0.15047 0.38663 0.76219
 C367 C -0.12561 0.40592 0.75834
 C368 C -0.11216 0.41021 0.72951
 C369 C -0.12461 0.39528 0.70472
 C370 C -0.14950 0.37605 0.70857
 C371 C -0.08588 0.43056 0.72406
 C372 C -0.06813 0.44235 0.74684
 H373 H -0.20171 0.35452 0.76331
 H374 H -0.16033 0.38369 0.78463
 H375 H -0.11748 0.41760 0.77800
 H376 H -0.11507 0.39856 0.68220
 H377 H -0.15874 0.36560 0.68873
 H378 H -0.07996 0.43618 0.70083
 H379 H -0.18087 0.32286 0.70419
 H380 H -0.07261 0.43650 0.77022
 C381 C 0.24520 0.19189 0.33561
 C382 C 0.26835 0.17385 0.34579
 C383 C 0.26410 0.14993 0.36907
 C384 C 0.28901 0.14034 0.38492
 C385 C 0.28615 0.11758 0.40679
 C386 C 0.25822 0.10350 0.41299
 C387 C 0.23330 0.11313 0.39711
 C388 C 0.23617 0.13595 0.37529
 C389 C 0.25397 0.07904 0.43580
 C390 C 0.27735 0.06291 0.44824
 H391 H 0.29101 0.17855 0.33775
 H392 H 0.31080 0.15070 0.38054
 H393 H 0.30587 0.11152 0.41884
 H394 H 0.21153 0.10268 0.40136
 H395 H 0.21656 0.14207 0.36303
 H396 H 0.23122 0.07269 0.44232
 H397 H 0.22321 0.18983 0.34627
 H398 H 0.30030 0.06770 0.44144
 C399 C 0.72283 0.19246 0.66755
 C400 C 0.74760 0.18008 0.65223
 C401 C 0.74615 0.15558 0.62931
 C402 C 0.77163 0.15059 0.61086
 C403 C 0.77191 0.12757 0.58919
 C404 C 0.74674 0.10856 0.58573
 C405 C 0.72104 0.11377 0.60382
 C406 C 0.72071 0.13694 0.62552
 C407 C 0.74658 0.08344 0.56341
 C408 C 0.77274 0.06974 0.55258
 H409 H 0.76964 0.18900 0.65693
 H410 H 0.79144 0.16475 0.61308
 H411 H 0.79181 0.12511 0.57502
 H412 H 0.70130 0.09954 0.60149
 H413 H 0.70073 0.13963 0.63948
 H414 H 0.72518 0.07451 0.55639
 H415 H 0.70072 0.18307 0.66426
 H416 H 0.79420 0.07683 0.56100
 C417 C 0.28166 -0.20341 0.68121
 C418 C 0.25864 -0.19216 0.66382
 C419 C 0.26296 -0.16715 0.64167
 C420 C 0.23790 -0.15093 0.63267
 C421 C 0.24099 -0.12718 0.61187
 C422 C 0.26931 -0.11927 0.59946
 C423 C 0.29430 -0.13576 0.60809
 C424 C 0.29122 -0.15954 0.62884
 C425 C 0.27352 -0.09405 0.57767
 C426 C 0.24974 -0.07747 0.56717
 H427 H 0.23606 -0.20059 0.66777
 H428 H 0.21585 -0.15648 0.64197
 H429 H 0.22121 -0.11500 0.60564
 H430 H 0.31632 -0.13032 0.59864
 H431 H 0.31096 -0.17208 0.63431
 H432 H 0.29602 -0.08830 0.56967
 H433 H 0.30346 -0.19249 0.67977
 H434 H 0.25273 -0.06324 0.55515
 C435 C 0.73159 -0.19539 0.32856
 C436 C 0.75614 -0.18262 0.34306
 C437 C 0.75423 -0.15634 0.36398
 C438 C 0.77775 -0.15123 0.38375
 C439 C 0.77730 -0.12659 0.40365
 C440 C 0.75339 -0.10611 0.40390
 C441 C 0.72975 -0.11128 0.38426
 C442 C 0.73018 -0.13599 0.36436
 C443 C 0.75210 -0.07961 0.42459
 C444 C 0.77734 -0.06695 0.43786
 H445 H 0.77800 -0.19240 0.33935
 H446 H 0.79649 -0.16658 0.38402
 H447 H 0.79552 -0.12408 0.41902
 H448 H 0.71105 -0.09590 0.38403
 H449 H 0.71193 -0.13856 0.34904
 H450 H 0.73061 -0.06905 0.42874
 H451 H 0.70975 -0.18549 0.33188
 H452 H 0.79929 -0.07588 0.43263
 C453 C 0.70350 0.78302 -0.15761
 C454 C 0.69764 0.76318 -0.13382
 C455 C 0.67117 0.76628 -0.11336
 C456 C 0.66593 0.74441 -0.09083
 C457 C 0.64053 0.74585 -0.07186
 C458 C 0.61969 0.76919 -0.07516
 C459 C 0.62540 0.79166 -0.09703
 C460 C 0.65081 0.79017 -0.11611
 C461 C 0.59196 0.77053 -0.05619
 C462 C 0.57796 0.74441 -0.04470
 H463 H 0.71243 0.74426 -0.13050
 H464 H 0.68143 0.72599 -0.08803
 H465 H 0.63743 0.72873 -0.05455
 H466 H 0.60983 0.81002 -0.09979
 H467 H 0.65429 0.80754 -0.13314
 H468 H 0.58133 0.79228 -0.05282
 H469 H 0.71842 0.77977 -0.16934
 H470 H 0.58712 0.72236 -0.05006
 C471 C 0.29669 0.22592 -0.16408
 C472 C 0.30810 0.25054 -0.14785
 C473 C 0.33267 0.24877 -0.12605
 C474 C 0.33991 0.27503 -0.10966
 C475 C 0.36329 0.27512 -0.08942
 C476 C 0.38029 0.24890 -0.08527
 C477 C 0.37270 0.22240 -0.10107
 C478 C 0.34926 0.22228 -0.12136
 C479 C 0.40574 0.24840 -0.06457
 C480 C 0.42179 0.27452 -0.05684
 H481 H 0.29907 0.27281 -0.15171
 H482 H 0.32739 0.29568 -0.11251
 H483 H 0.36767 0.29572 -0.07689
 H484 H 0.38530 0.20182 -0.09809
 H485 H 0.34474 0.20147 -0.13339
 H486 H 0.41305 0.22662 -0.05641
 H487 H 0.30627 0.20371 -0.16173
 H488 H 0.41618 0.29618 -0.06647
 C489 C 0.30175 0.77291 0.16597
 C490 C 0.30838 0.75291 0.14251
 C491 C 0.33471 0.75738 0.12202
 C492 C 0.34086 0.73547 0.09978
 C493 C 0.36621 0.73824 0.08083
 C494 C 0.38611 0.76298 0.08389
 C495 C 0.37943 0.78546 0.10542
 C496 C 0.35406 0.78266 0.12445
 C497 C 0.41388 0.76578 0.06506
 C498 C 0.42870 0.74044 0.05353
 H499 H 0.29438 0.73295 0.13941
 H500 H 0.32611 0.71599 0.09720
 H501 H 0.36998 0.72103 0.06374
 H502 H 0.39423 0.80490 0.10797
 H503 H 0.34984 0.80012 0.14122
 H504 H 0.42390 0.78809 0.06183
 H505 H 0.28749 0.76905 0.17717
 H506 H 0.42012 0.71790 0.05863
 C507 C 0.67064 0.24031 0.17205
 C508 C 0.67127 0.25325 0.14327
 C509 C 0.64544 0.25205 0.12302
 C510 C 0.64351 0.27401 0.10030
 C511 C 0.61937 0.27389 0.08091
 C512 C 0.59664 0.25163 0.08382
 C513 C 0.59910 0.22906 0.10586
 C514 C 0.62318 0.22923 0.12531
 C515 C 0.57056 0.25083 0.06392
 C516 C 0.56020 0.27645 0.04921
 H517 H 0.69108 0.26537 0.13523
 H518 H 0.66065 0.29147 0.09767
 H519 H 0.61893 0.29099 0.06347
 H520 H 0.58219 0.21132 0.10817
 H521 H 0.62442 0.21116 0.14168
 H522 H 0.55824 0.22962 0.06192
 H523 H 0.65062 0.22847 0.18002
 H524 H 0.57096 0.29829 0.05243
 C525 C -0.16098 0.69746 0.77604
 C526 C -0.13843 0.69030 0.75463
 C527 C -0.11994 0.66267 0.75572
 C528 C -0.10518 0.65321 0.72904
 C529 C -0.08709 0.62765 0.72876
 C530 C -0.08335 0.61081 0.75530
 C531 C -0.09755 0.62061 0.78218
 C532 C -0.11572 0.64626 0.78246
 C533 C -0.06397 0.58379 0.75586
 C534 C -0.05663 0.56693 0.73006
 H535 H -0.13480 0.70425 0.73488
 H536 H -0.10760 0.66572 0.70823
 H537 H -0.07564 0.62168 0.70781
 H538 H -0.09457 0.60837 0.80305
 H539 H -0.12582 0.65336 0.80373
 H540 H -0.05568 0.57660 0.77743
 H541 H -0.16545 0.68150 0.79419
 H542 H -0.06627 0.57243 0.70865
 C543 C -0.18788 0.30792 0.22502
 C544 C -0.16336 0.31201 0.24377
 C545 C -0.14061 0.33653 0.23937
 C546 C -0.12325 0.34521 0.26393
 C547 C -0.10159 0.36822 0.26093
 C548 C -0.09679 0.38315 0.23313
 C549 C -0.11355 0.37389 0.20834
 C550 C -0.13520 0.35083 0.21133
 C551 C -0.07427 0.40789 0.22885
 C552 C -0.06180 0.42423 0.25256
 H553 H -0.16099 0.29803 0.26349
 H554 H -0.12654 0.33419 0.28564
 H555 H -0.08851 0.37378 0.28038
 H556 H -0.10994 0.38460 0.18653
 H557 H -0.14715 0.34408 0.19149
 H558 H -0.06810 0.41433 0.20589
 H559 H -0.19040 0.32396 0.20684
 H560 H -0.06847 0.41942 0.27571
 C561 C 0.16646 0.30756 0.77516
 C562 C 0.15170 0.31907 0.75031
 C563 C 0.13053 0.34468 0.75196
 C564 C 0.11032 0.34799 0.72858
 C565 C 0.09020 0.37198 0.72873
 C566 C 0.09019 0.39361 0.75215
 C567 C 0.11026 0.39021 0.77568
 C568 C 0.13037 0.36612 0.77557
 C569 C 0.06936 0.41956 0.75301
 C570 C 0.05537 0.43046 0.72749
 H571 H 0.15537 0.30871 0.72838
 H572 H 0.10989 0.33174 0.71019
 H573 H 0.07451 0.37309 0.71065
 H574 H 0.11069 0.40652 0.79401
 H575 H 0.14602 0.36489 0.79367
 H576 H 0.06572 0.43117 0.77437
 H577 H 0.16328 0.31810 0.79706
 H578 H 0.06000 0.42047 0.70556
 C579 C 0.16762 0.68452 0.23110
 C580 C 0.13925 0.68168 0.24490
 C581 C 0.12241 0.65274 0.24430
 C582 C 0.09204 0.65257 0.23724
 C583 C 0.07560 0.62536 0.23748
 C584 C 0.08911 0.59812 0.24578
 C585 C 0.11936 0.59838 0.25332
 C586 C 0.13606 0.62541 0.25208
 C587 C 0.07143 0.56979 0.24862
 C588 C 0.05126 0.56074 0.22686
 H589 H 0.12790 0.70136 0.25401
 H590 H 0.08111 0.67349 0.23145
 H591 H 0.05212 0.62574 0.23213
 H592 H 0.13004 0.57763 0.26008
 H593 H 0.15938 0.62516 0.25806
 H594 H 0.07502 0.55527 0.26787
 H595 H 0.17544 0.66555 0.21750
 H596 H 0.05024 0.57320 0.20586
 C597 C 0.79370 -0.16119 0.70207
 C598 C 0.77053 -0.14442 0.69016
 C599 C 0.77473 -0.12427 0.66365
 C600 C 0.74983 -0.11737 0.64647
 C601 C 0.75292 -0.09880 0.62103
 C602 C 0.78106 -0.08656 0.61240
 C603 C 0.80588 -0.09305 0.62983
 C604 C 0.80279 -0.11160 0.65529
 C605 C 0.78513 -0.06679 0.58568
 C606 C 0.76128 -0.05819 0.56839
 H607 H 0.74792 -0.14800 0.69890
 H608 H 0.72794 -0.12666 0.65256
 H609 H 0.73326 -0.09413 0.60816
 H610 H 0.82772 -0.08361 0.62383
 H611 H 0.82234 -0.11552 0.66849
 H612 H 0.80738 -0.05821 0.57979
 H613 H 0.81557 -0.16043 0.69100
 H614 H 0.76406 -0.04663 0.55382
 C615 C 0.21389 -0.16870 0.31162
 C616 C 0.23645 -0.14785 0.31795
 C617 C 0.23518 -0.12734 0.34437
 C618 C 0.26005 -0.10868 0.34996
 C619 C 0.26031 -0.08969 0.37521
 C620 C 0.23563 -0.08906 0.39556
 C621 C 0.21036 -0.10707 0.38955
 C622 C 0.21015 -0.12622 0.36428
 C623 C 0.23553 -0.06941 0.42271
 C624 C 0.26178 -0.06090 0.43697
 H625 H 0.25657 -0.14736 0.30379
 H626 H 0.27948 -0.10886 0.33479
 H627 H 0.27974 -0.07530 0.37844
 H628 H 0.19093 -0.10669 0.40471
 H629 H 0.19053 -0.14020 0.36047
 H630 H 0.21418 -0.06234 0.43232
 H631 H 0.21598 -0.18072 0.29681
 H632 H 0.28304 -0.06982 0.42904
 C633 C 0.74275 0.17412 0.30405
 C634 C 0.76752 0.16520 0.32026
 C635 C 0.76554 0.14204 0.34446
 C636 C 0.79136 0.12624 0.35188
 C637 C 0.79027 0.10399 0.37438
 C638 C 0.76326 0.09740 0.39024
 C639 C 0.73755 0.11349 0.38302
 C640 C 0.73865 0.13569 0.36056
 C641 C 0.76062 0.07389 0.41409
 C642 C 0.78488 0.06061 0.42792
 H643 H 0.78951 0.17388 0.31384
 H644 H 0.81239 0.13082 0.33992
 H645 H 0.81055 0.09190 0.37877
 H646 H 0.71649 0.10903 0.39497
 H647 H 0.71846 0.14805 0.35629
 H648 H 0.73825 0.06746 0.42192
 H649 H 0.72153 0.16260 0.30817
 H650 H 0.80757 0.06718 0.42170
 C651 C 0.22283 0.16841 0.69796
 C652 C 0.24711 0.15184 0.68652
 C653 C 0.24524 0.13013 0.66099
 C654 C 0.26792 0.10863 0.65711
 C655 C 0.26745 0.08797 0.63315
 C656 C 0.24438 0.08865 0.61220
 C657 C 0.22161 0.11002 0.61614
 C658 C 0.22207 0.13071 0.64012
 C659 C 0.24307 0.06724 0.58640
 C660 C 0.26809 0.05233 0.57442
 H661 H 0.26868 0.15463 0.69672
 H662 H 0.28599 0.10763 0.67287
 H663 H 0.28496 0.07130 0.63150
 H664 H 0.20359 0.11102 0.60033
 H665 H 0.20457 0.14736 0.64169
 H666 H 0.22179 0.06406 0.57563
 H667 H 0.20127 0.16601 0.68772
 H668 H 0.28995 0.05656 0.58351
   
