data_POSCAR
  _audit_creation_date              2014-09-24
  _audit_creation_method            'ToBaCCo'
  _symmetry_space_group_name_H-M    'P1'
  _symmetry_Int_Tables_number       1
  _symmetry_cell_setting            triclinic
  loop_
  _symmetry_equiv_pos_as_xyz
 x,y,z
_cell_length_a 50.3993
_cell_length_b 49.1844
_cell_length_c 21.3695
_cell_angle_alpha 90.072100
_cell_angle_beta 90.063400
_cell_angle_gamma 134.127800
loop_
  _atom_site_label
  _atom_site_type_symbol
  _atom_site_fract_x
  _atom_site_fract_y
  _atom_site_fract_z
C1 C 0.49710 1.00129 0.47817
 C2 C 0.49297 0.99726 0.54160
 C3 C 0.48090 0.96340 0.57410
 C4 C 0.49977 1.02624 0.58192
 C5 C 0.50795 1.03443 0.44585
 C6 C 0.48999 0.97220 0.43789
 C7 C 0.44898 0.92668 0.55551
 C8 C 0.43900 0.89523 0.58438
 C9 C 0.45978 0.89931 0.63504
 C10 C 0.49075 0.93668 0.65558
 C11 C 0.50124 0.96808 0.62513
 C12 C 0.47191 1.01530 0.62256
 C13 C 0.47759 1.04197 0.66088
 C14 C 0.51132 1.08022 0.65943
 C15 C 0.53939 1.09105 0.61916
 C16 C 0.53377 1.06425 0.58113
 C17 C 0.54105 1.05888 0.41203
 C18 C 0.55258 1.09122 0.38369
 C19 C 0.53089 1.09944 0.38782
 C20 C 0.49722 1.07427 0.42061
 C21 C 0.48587 1.04207 0.44938
 C22 C 0.51053 0.96288 0.44506
 C23 C 0.50053 0.93226 0.41223
 C24 C 0.46966 0.91025 0.37185
 C25 C 0.45029 0.92092 0.36273
 C26 C 0.46058 0.95179 0.39506
 H27 H 0.43161 0.92224 0.51849
 H28 H 0.41354 0.86778 0.56860
 H29 H 0.50871 0.94239 0.69262
 H30 H 0.52585 0.99624 0.64072
 H31 H 0.44562 0.98603 0.62435
 H32 H 0.45569 1.03250 0.69228
 H33 H 0.55592 1.07316 0.55105
 H34 H 0.55842 1.05339 0.40894
 H35 H 0.57886 1.11017 0.35961
 H36 H 0.47946 1.07926 0.42362
 H37 H 0.45995 1.02316 0.47462
 H38 H 0.53362 0.97867 0.47739
 H39 H 0.51669 0.92552 0.41918
 H40 H 0.42622 0.90452 0.33260
 H41 H 0.44440 0.95861 0.38906
 H42 H 0.56561 1.12030 0.61659
 C43 C -0.00140 0.49487 0.46203
 C44 C -0.00410 0.49104 0.52553
 C45 C 0.02245 0.49392 0.56401
 C46 C -0.03397 0.48407 0.55977
 C47 C -0.02759 0.49276 0.42455
 C48 C 0.02704 0.50032 0.42571
 C49 C 0.03172 0.47360 0.54885
 C50 C 0.05886 0.47913 0.58287
 C51 C 0.07617 0.50374 0.63492
 C52 C 0.06505 0.52220 0.65217
 C53 C 0.03880 0.51760 0.61685
 C54 C -0.06030 0.45014 0.59275
 C55 C -0.08983 0.44208 0.62228
 C56 C -0.09333 0.46805 0.62001
 C57 C -0.06621 0.50256 0.58829
 C58 C -0.03678 0.51049 0.55848
 C59 C -0.01402 0.52361 0.38750
 C60 C -0.03789 0.52193 0.35024
 C61 C -0.07623 0.48899 0.34836
 C62 C -0.08950 0.45805 0.38625
 C63 C -0.06547 0.45991 0.42356
 C64 C 0.06494 0.53198 0.43505
 C65 C 0.09106 0.53595 0.40048
 C66 C 0.07960 0.50837 0.35603
 C67 C 0.04161 0.47706 0.34636
 C68 C 0.01563 0.47320 0.38062
 H69 H 0.01851 0.45396 0.50987
 H70 H 0.06663 0.46454 0.56733
 H71 H 0.07651 0.54029 0.69305
 H72 H 0.03162 0.53303 0.63037
 H73 H -0.05850 0.42945 0.59416
 H74 H -0.11038 0.41510 0.64562
 H75 H -0.01635 0.53709 0.53396
 H76 H 0.01529 0.54904 0.38708
 H77 H -0.02551 0.54608 0.32074
 H78 H -0.11862 0.43251 0.38896
 H79 H -0.07642 0.43563 0.45153
 H80 H 0.07421 0.55339 0.46923
 H81 H 0.12017 0.56034 0.40892
 H82 H 0.03195 0.45577 0.31160
 H83 H -0.01352 0.44874 0.37247
 H84 H -0.06762 0.52353 0.58675
 C85 C 0.51564 0.51655 0.47098
 C86 C 0.51555 0.51592 0.53496
 C87 C 0.50599 0.53371 0.57247
 C88 C 0.52389 0.49634 0.56972
 C89 C 0.53482 0.50874 0.43400
 C90 C 0.49594 0.52427 0.43544
 C91 C 0.52091 0.56972 0.55699
 C92 C 0.51089 0.58585 0.59009
 C93 C 0.48654 0.56717 0.64181
 C94 C 0.47242 0.53119 0.65790
 C95 C 0.48197 0.51478 0.62367
 C96 C 0.54796 0.51366 0.62120
 C97 C 0.55481 0.49468 0.65487
 C98 C 0.53750 0.45753 0.63822
 C99 C 0.51361 0.44072 0.58568
 C100 C 0.50663 0.45962 0.55266
 C101 C 0.51759 0.48461 0.38166
 C102 C 0.53605 0.47823 0.34590
 C103 C 0.57211 0.49574 0.36188
 C104 C 0.58910 0.51958 0.41472
 C105 C 0.57087 0.52636 0.44984
 C106 C 0.46015 0.50671 0.45282
 C107 C 0.44130 0.51315 0.41910
 C108 C 0.45699 0.53602 0.36524
 C109 C 0.49283 0.55354 0.34763
 C110 C 0.51214 0.54784 0.38254
 H111 H 0.53994 0.58524 0.51821
 H112 H 0.52159 0.61249 0.57261
 H113 H 0.45483 0.51570 0.69806
 H114 H 0.47037 0.48707 0.63706
 H115 H 0.56131 0.54189 0.63565
 H116 H 0.57245 0.50891 0.69558
 H117 H 0.48757 0.44541 0.51349
 H118 H 0.48987 0.47083 0.36830
 H119 H 0.52233 0.46022 0.30498
 H120 H 0.61658 0.53308 0.42910
 H121 H 0.58504 0.54560 0.48931
 H122 H 0.44657 0.48769 0.49247
 H123 H 0.41419 0.49985 0.43521
 H124 H 0.50564 0.57086 0.30601
 H125 H 0.53961 0.56153 0.36785
 H126 H 0.50077 0.41324 0.56809
 O127 O 0.40167 0.66121 -0.06053
 O128 O 0.40406 0.71448 -0.03548
 C129 C 0.38358 0.71232 -0.07494
 O130 O 0.34884 0.68944 -0.06941
 O131 O 0.28302 0.62140 -0.05968
 C132 C 0.27827 0.59753 -0.09510
 O133 O 0.29593 0.58826 -0.08755
 O134 O 0.35298 0.59861 -0.06126
 C135 C 0.38435 0.62858 -0.08218
 O136 O 0.39233 0.64145 0.06124
 O137 O 0.39142 0.69254 0.08722
 C138 C 0.37713 0.70554 0.09459
 O139 O 0.35400 0.69892 0.05589
 O140 O 0.29038 0.62776 0.06504
 C141 C 0.27063 0.59240 0.06951
 O142 O 0.27528 0.57475 0.03479
 O143 O 0.33306 0.58697 0.06073
 C144 C 0.36558 0.60809 0.08183
 Cr145 Cr 0.39554 0.67624 0.01278
 Cr146 Cr 0.32002 0.65892 -0.00192
 Cr147 Cr 0.31535 0.58903 -0.01290
 O148 O 0.34365 0.64120 -0.00051
 O149 O 0.60069 0.34553 -0.05343
 O150 O 0.59189 0.28903 -0.01953
 C151 C 0.60748 0.28306 -0.05592
 O152 O 0.64218 0.30404 -0.05662
 O153 O 0.71096 0.37005 -0.06066
 C154 C 0.71613 0.39273 -0.09995
 O155 O 0.70319 0.40712 -0.09220
 O156 O 0.65277 0.40665 -0.06164
 C157 C 0.61977 0.37770 -0.07857
 O158 O 0.61771 0.37272 0.06474
 O159 O 0.61183 0.31772 0.09866
 C160 C 0.62315 0.30177 0.10746
 O161 O 0.64417 0.30465 0.06886
 O162 O 0.71106 0.37294 0.06470
 C163 C 0.73381 0.40881 0.06356
 O164 O 0.73030 0.42655 0.02661
 O165 O 0.67828 0.42341 0.05730
 C166 C 0.64700 0.40621 0.08088
 Cr167 Cr 0.60739 0.33233 0.02201
 Cr168 Cr 0.67642 0.33877 0.00405
 Cr169 Cr 0.68997 0.41401 -0.01678
 O170 O 0.65789 0.36180 0.00313
 C171 C 0.44789 0.83688 -0.24604
 C172 C 0.42732 0.80389 -0.27971
 C173 C 0.41730 0.80092 -0.34156
 C174 C 0.42866 0.83323 -0.37009
 C175 C 0.45005 0.86838 -0.33699
 C176 C 0.46024 0.86974 -0.27371
 O177 O 0.45138 0.83265 -0.18603
 C178 C 0.43259 0.79610 -0.18194
 C179 C 0.41756 0.77737 -0.23829
 C180 C 0.39429 0.73847 -0.24434
 C181 C 0.38534 0.71783 -0.18983
 C182 C 0.39969 0.73622 -0.13094
 C183 C 0.42438 0.77605 -0.12691
 H184 H 0.40076 0.77441 -0.36688
 H185 H 0.42165 0.83057 -0.41899
 H186 H 0.47467 0.89447 -0.24431
 H187 H 0.38224 0.72432 -0.28897
 H188 H 0.36600 0.68725 -0.19293
 H189 H 0.43456 0.79045 -0.08212
 C190 C 0.16106 0.55030 -0.26486
 C191 C 0.16075 0.52217 -0.26330
 C192 C 0.13364 0.48740 -0.29278
 C193 C 0.10575 0.48141 -0.32545
 C194 C 0.10571 0.51028 -0.32928
 C195 C 0.13418 0.54536 -0.29836
 O196 O 0.18817 0.58051 -0.23103
 C197 C 0.20541 0.57123 -0.20770
 C198 C 0.18994 0.53598 -0.22662
 C199 C 0.20336 0.52045 -0.20740
 C200 C 0.23359 0.54185 -0.16618
 C201 C 0.24936 0.57781 -0.14414
 C202 C 0.23517 0.59281 -0.16590
 H203 H 0.13354 0.46537 -0.28972
 H204 H 0.08392 0.45393 -0.34666
 H205 H 0.13575 0.56841 -0.30035
 H206 H 0.19070 0.49263 -0.22289
 H207 H 0.24382 0.52974 -0.14971
 H208 H 0.24644 0.62003 -0.14983
 C209 C 0.43644 0.58032 -0.25286
 C210 C 0.45872 0.61860 -0.25857
 C211 C 0.49045 0.64144 -0.29459
 C212 C 0.49966 0.62418 -0.32676
 C213 C 0.47691 0.58419 -0.32383
 C214 C 0.44465 0.56224 -0.28532
 O215 O 0.40832 0.56419 -0.21379
 C216 C 0.41318 0.59314 -0.19449
 C217 C 0.44358 0.62694 -0.22103
 C218 C 0.45460 0.66110 -0.20713
 C219 C 0.43388 0.66068 -0.16301
 C220 C 0.40284 0.62648 -0.13308
 C221 C 0.39196 0.59198 -0.15005
 H222 H 0.50806 0.67177 -0.29681
 H223 H 0.52559 0.64295 -0.35160
 H224 H 0.42554 0.53184 -0.28141
 H225 H 0.47864 0.68729 -0.22882
 H226 H 0.44257 0.68736 -0.15146
 H227 H 0.36868 0.56549 -0.12791
 C228 C 0.55623 0.16301 -0.23098
 C229 C 0.52730 0.15990 -0.22025
 C230 C 0.49281 0.13201 -0.24807
 C231 C 0.48791 0.10618 -0.28826
 C232 C 0.51723 0.10848 -0.29955
 C233 C 0.55194 0.13759 -0.27043
 O234 O 0.58672 0.19142 -0.19996
 C235 C 0.57684 0.20656 -0.16891
 C236 C 0.54075 0.18832 -0.17946
 C237 C 0.52466 0.19931 -0.15076
 C238 C 0.54674 0.23043 -0.10966
 C239 C 0.58420 0.24992 -0.09841
 C240 C 0.59930 0.23763 -0.12873
 H241 H 0.47048 0.13020 -0.23921
 H242 H 0.46133 0.08456 -0.31086
 H243 H 0.57478 0.13998 -0.27712
 H244 H 0.49615 0.18445 -0.15962
 H245 H 0.53474 0.23949 -0.08713
 H246 H 0.62767 0.25165 -0.12108
 C247 C 0.83049 0.43123 -0.26553
 C248 C 0.81486 0.44227 -0.29437
 C249 C 0.82769 0.46160 -0.35097
 C250 C 0.85782 0.46984 -0.37897
 C251 C 0.87468 0.45900 -0.34996
 C252 C 0.86055 0.43931 -0.29228
 O253 O 0.81467 0.41380 -0.21142
 C254 C 0.78849 0.41385 -0.20590
 C255 C 0.78745 0.43099 -0.25531
 C256 C 0.76300 0.43534 -0.25782
 C257 C 0.73895 0.42187 -0.20700
 C258 C 0.73959 0.40421 -0.15526
 C259 C 0.76454 0.39982 -0.15535
 H260 H 0.81495 0.47001 -0.37284
 H261 H 0.86771 0.48431 -0.42356
 H262 H 0.87298 0.43111 -0.26820
 H263 H 0.76287 0.44919 -0.29696
 H264 H 0.72012 0.42555 -0.20770
 H265 H 0.76621 0.38707 -0.11627
 C266 C 0.57941 0.43565 -0.25408
 C267 C 0.55296 0.39684 -0.25683
 C268 C 0.52117 0.37647 -0.29268
 C269 C 0.51631 0.39687 -0.32741
 C270 C 0.54321 0.43738 -0.32649
 C271 C 0.57537 0.45670 -0.28852
 O272 O 0.60717 0.44940 -0.21562
 C273 C 0.59782 0.41844 -0.19352
 C274 C 0.56487 0.38559 -0.21747
 C275 C 0.54923 0.34985 -0.19988
 C276 C 0.56807 0.34779 -0.15509
 C277 C 0.60197 0.38119 -0.12869
 C278 C 0.61725 0.41711 -0.14897
 H279 H 0.50039 0.34581 -0.29304
 H280 H 0.49048 0.38040 -0.35246
 H281 H 0.59740 0.48723 -0.28656
 H282 H 0.52318 0.32442 -0.21934
 H283 H 0.55594 0.32003 -0.14060
 H284 H 0.64282 0.44311 -0.12949
 C285 C 0.84406 0.45017 0.24484
 C286 C 0.85399 0.48292 0.22611
 C287 C 0.88598 0.51840 0.24713
 C288 C 0.90882 0.52024 0.28862
 C289 C 0.89968 0.48680 0.30854
 C290 C 0.86616 0.45120 0.28606
 O291 O 0.81304 0.41932 0.21841
 C292 C 0.80314 0.43292 0.18225
 C293 C 0.82721 0.47168 0.18513
 C294 C 0.82235 0.49169 0.14977
 C295 C 0.79143 0.47085 0.10986
 C296 C 0.76618 0.43075 0.10607
 C297 C 0.77231 0.41170 0.14322
 H298 H 0.89316 0.54386 0.23210
 H299 H 0.93303 0.54792 0.30620
 H300 H 0.85802 0.42480 0.29702
 H301 H 0.84176 0.52225 0.15253
 H302 H 0.78725 0.48597 0.08194
 H303 H 0.75385 0.38122 0.14148
 C304 C 0.57356 0.17948 0.27340
 C305 C 0.56643 0.19875 0.30258
 C306 C 0.54808 0.18733 0.35955
 C307 C 0.53667 0.15476 0.38754
 C308 C 0.54341 0.13411 0.35809
 C309 C 0.56224 0.14694 0.30004
 O310 O 0.59078 0.19455 0.21906
 C311 C 0.59455 0.22396 0.21369
 C312 C 0.58004 0.22779 0.26339
 C313 C 0.57982 0.25591 0.26595
 C314 C 0.59480 0.28077 0.21489
 C315 C 0.60989 0.27732 0.16298
 C316 C 0.61006 0.24866 0.16302
 H317 H 0.54277 0.20295 0.38172
 H318 H 0.52293 0.14592 0.43241
 H319 H 0.56734 0.13169 0.27552
 H320 H 0.56796 0.25820 0.30528
 H321 H 0.59434 0.30246 0.21555
 H322 H 0.62073 0.24479 0.12377
 C323 C 0.59381 0.45115 0.25657
 C324 C 0.63122 0.48122 0.24884
 C325 C 0.65085 0.51642 0.27619
 C326 C 0.63112 0.52085 0.31320
 C327 C 0.59245 0.49021 0.32272
 C328 C 0.57365 0.45479 0.29375
 O329 O 0.58035 0.42048 0.22485
 C330 C 0.60997 0.43152 0.19648
 C331 C 0.64177 0.46840 0.20991
 C332 C 0.67589 0.48603 0.18469
 C333 C 0.67731 0.46492 0.14338
 C334 C 0.64483 0.42688 0.12768
 C335 C 0.61068 0.40992 0.15529
 H336 H 0.68024 0.53981 0.26862
 H337 H 0.64597 0.54844 0.33339
 H338 H 0.54429 0.43070 0.30006
 H339 H 0.70051 0.51513 0.19593
 H340 H 0.70374 0.47857 0.12296
 H341 H 0.58536 0.38112 0.14429
 C342 C 0.16137 0.54998 0.25341
 C343 C 0.15512 0.51841 0.24137
 C344 C 0.12558 0.48317 0.26706
 C345 C 0.10132 0.48031 0.30609
 C346 C 0.10691 0.51240 0.31851
 C347 C 0.13774 0.54783 0.29221
 O348 O 0.19017 0.58046 0.22278
 C349 C 0.20234 0.56789 0.19063
 C350 C 0.18193 0.53014 0.20022
 C351 C 0.18931 0.51108 0.16929
 C352 C 0.21884 0.53179 0.12664
 C353 C 0.24023 0.57080 0.11579
 C354 C 0.23178 0.58897 0.14887
 H355 H 0.12108 0.45866 0.25678
 H356 H 0.07806 0.45306 0.32633
 H357 H 0.14244 0.57267 0.29975
 H358 H 0.17269 0.48126 0.17719
 H359 H 0.22483 0.51736 0.10189
 H360 H 0.24719 0.61856 0.14156
 C361 C 0.42827 0.83093 0.25516
 C362 C 0.43148 0.80930 0.28792
 C363 C 0.44683 0.81892 0.34751
 C364 C 0.45931 0.85216 0.37461
 C365 C 0.45674 0.87539 0.34173
 C366 C 0.44089 0.86435 0.28090
 O367 O 0.41313 0.81689 0.19892
 C368 C 0.40671 0.78574 0.19611
 C369 C 0.41758 0.77993 0.24933
 C370 C 0.41477 0.74988 0.25559
 C371 C 0.40065 0.72509 0.20459
 C372 C 0.38922 0.73040 0.14907
 C373 C 0.39186 0.76095 0.14520
 H374 H 0.44891 0.80133 0.37247
 H375 H 0.47041 0.85938 0.42167
 H376 H 0.43880 0.88142 0.25397
 H377 H 0.42380 0.74608 0.29774
 H378 H 0.39884 0.70187 0.20813
 H379 H 0.38400 0.76611 0.10305
 C380 C 0.43038 0.57552 0.25757
 C381 C 0.39275 0.54513 0.25540
 C382 C 0.37465 0.51137 0.28639
 C383 C 0.39617 0.50873 0.32167
 C384 C 0.43513 0.53985 0.32650
 C385 C 0.45242 0.57379 0.29344
 O386 O 0.44192 0.60434 0.22220
 C387 C 0.41076 0.59170 0.19737
 C388 C 0.38002 0.55571 0.21679
 C389 C 0.34456 0.53645 0.19664
 C390 C 0.34045 0.55473 0.15384
 C391 C 0.37161 0.59164 0.13122
 C392 C 0.40738 0.61060 0.15413
 H393 H 0.34501 0.48761 0.28271
 H394 H 0.38230 0.48204 0.34427
 H395 H 0.48197 0.59814 0.29577
 H396 H 0.32087 0.50812 0.21280
 H397 H 0.31277 0.53956 0.13757
 H398 H 0.43172 0.63857 0.13780
   
