data_POSCAR
  _audit_creation_date              2014-09-24
  _audit_creation_method            'ToBaCCo'
  _symmetry_space_group_name_H-M    'P1'
  _symmetry_Int_Tables_number       1
  _symmetry_cell_setting            triclinic
  loop_
  _symmetry_equiv_pos_as_xyz
 x,y,z
_cell_length_a 33.4759
_cell_length_b 19.3274
_cell_length_c 11.8354
_cell_angle_alpha 90.000300
_cell_angle_beta 89.999700
_cell_angle_gamma 90.000100
loop_
  _atom_site_label
  _atom_site_type_symbol
  _atom_site_fract_x
  _atom_site_fract_y
  _atom_site_fract_z
O1 O 0.72852 0.33596 0.60963
 O2 O 0.80709 0.26006 0.38579
 O3 O 0.72863 0.33580 0.38880
 O4 O 0.80505 0.26091 0.61290
 O5 O 0.77228 0.16308 0.61022
 O6 O 0.69600 0.23805 0.38627
 O7 O 0.77422 0.16251 0.38486
 O8 O 0.69578 0.23834 0.61039
 Cu9 Cu 0.76993 0.30540 0.49901
 Cu10 Cu 0.73211 0.19295 0.49784
 C11 C 0.69688 0.30241 0.64098
 C12 C 0.80581 0.19618 0.35161
 C13 C 0.69695 0.30237 0.35750
 C14 C 0.80364 0.19681 0.64243
 O15 O 0.22810 0.83627 0.61058
 O16 O 0.30492 0.76112 0.38757
 O17 O 0.22800 0.83631 0.38919
 O18 O 0.30485 0.76124 0.61198
 O19 O 0.27184 0.66367 0.61039
 O20 O 0.19514 0.73866 0.38779
 O21 O 0.27177 0.66374 0.38905
 O22 O 0.19515 0.73869 0.61215
 Cu23 Cu 0.26908 0.80628 0.49984
 Cu24 Cu 0.23092 0.69377 0.49987
 C25 C 0.19651 0.80287 0.64187
 C26 C 0.30347 0.69685 0.35821
 C27 C 0.19653 0.80290 0.35754
 C28 C 0.30345 0.69711 0.64169
 O29 O 0.27186 0.33654 -0.61058
 O30 O 0.19513 0.26120 -0.38780
 O31 O 0.27173 0.33619 -0.38923
 O32 O 0.19512 0.26119 -0.61224
 O33 O 0.22807 0.16361 -0.61067
 O34 O 0.30492 0.23884 -0.38771
 O35 O 0.22817 0.16366 -0.38932
 O36 O 0.30478 0.23887 -0.61201
 Cu37 Cu 0.23088 0.30621 -0.49995
 Cu38 Cu 0.26908 0.19378 -0.49994
 C39 C 0.30349 0.30304 -0.64165
 C40 C 0.19645 0.19694 -0.35876
 C41 C 0.30345 0.30310 -0.35852
 C42 C 0.19640 0.19713 -0.64184
 O43 O -0.22815 0.83656 -0.61057
 O44 O -0.30486 0.76121 -0.38777
 O45 O -0.22827 0.83620 -0.38912
 O46 O -0.30504 0.76112 -0.61272
 O47 O -0.27184 0.66402 -0.61091
 O48 O -0.19507 0.73887 -0.38766
 O49 O -0.27183 0.66365 -0.38929
 O50 O -0.19524 0.73888 -0.61201
 Cu51 Cu -0.26912 0.80623 -0.49985
 Cu52 Cu -0.23093 0.69379 -0.49990
 C53 C -0.19651 0.80303 -0.64158
 C54 C -0.30355 0.69690 -0.35893
 C55 C -0.19656 0.80311 -0.35825
 C56 C -0.30328 0.69715 -0.64401
 O57 O -0.05845 0.87739 0.20855
 O58 O -0.10418 0.93791 0.10332
 C59 C -0.09604 0.89312 0.18480
 O60 O 0.05827 1.12459 0.20739
 O61 O 0.10369 1.06256 0.10290
 C62 C 0.09585 1.10829 0.18334
 O63 O -0.05990 1.12302 0.21136
 O64 O -0.10541 1.06254 0.10544
 C65 C -0.09779 1.10725 0.18858
 O66 O 0.05843 0.87542 0.20602
 O67 O 0.10376 0.93753 0.10210
 C68 C 0.09596 0.89174 0.18261
 Zr69 Zr -0.00013 0.91208 0.14297
 O70 O 0.00000 0.90627 0.32110
 O71 O 0.00012 0.80273 0.16581
 Zr72 Zr -0.00063 1.08890 0.14555
 O73 O -0.00027 1.10007 0.32693
 O74 O -0.00034 1.19889 0.15657
 O75 O -0.03660 1.00018 0.16631
 O76 O 0.03481 1.00049 0.16332
 O77 O 0.05842 0.87570 -0.20715
 O78 O 0.10369 0.93770 -0.10288
 C79 C 0.09597 0.89171 -0.18313
 O80 O -0.05848 1.12284 -0.20997
 O81 O -0.10398 1.06283 -0.10290
 C82 C -0.09597 1.10724 -0.18504
 O83 O 0.05844 1.12485 -0.20721
 O84 O 0.10368 1.06297 -0.10236
 C85 C 0.09593 1.10842 -0.18330
 O86 O -0.05851 0.87767 -0.20984
 O87 O -0.10400 0.93780 -0.10308
 C88 C -0.09599 0.89326 -0.18506
 Zr89 Zr -0.00017 0.91252 -0.14504
 O90 O -0.00009 0.90130 -0.32501
 O91 O -0.00022 0.80291 -0.16780
 Zr92 Zr -0.00016 1.08940 -0.14339
 O93 O 0.00003 1.09839 -0.32342
 O94 O -0.00020 1.20011 -0.16138
 Zr95 Zr -0.06285 1.00043 0.00059
 Zr96 Zr 0.06212 1.00040 -0.00004
 O97 O 0.03501 1.00090 -0.16405
 O98 O -0.03645 1.00103 -0.16573
 O99 O 0.03613 0.89832 -0.00102
 O100 O -0.03571 1.10089 0.00084
 O101 O -0.03549 0.89987 -0.00078
 O102 O 0.03596 1.10240 0.00132
 H103 H 0.05252 1.00008 0.22999
 H104 H -0.05382 1.14114 0.00067
 H105 H 0.05272 1.00033 -0.23092
 H106 H -0.05332 0.85912 -0.00075
 H107 H -0.00017 1.21800 0.07996
 H108 H 0.00028 1.22392 -0.08791
 H109 H -0.00026 1.05237 -0.35907
 H110 H 0.00003 0.94648 -0.36329
 H111 H 0.00033 0.77955 -0.09435
 H112 H -0.00047 0.78009 0.09179
 H113 H -0.00010 0.95369 0.34856
 H114 H -0.00009 1.05504 0.36594
 O115 O 0.44164 0.37741 0.20860
 O116 O 0.39610 0.43770 0.10251
 C117 C 0.40408 0.39312 0.18454
 O118 O 0.55850 0.62443 0.20692
 O119 O 0.60394 0.56244 0.10268
 C120 C 0.59603 0.60831 0.18274
 O121 O 0.44154 0.62264 0.20975
 O122 O 0.39615 0.56214 0.10305
 C123 C 0.40408 0.60679 0.18498
 O124 O 0.55851 0.37542 0.20604
 O125 O 0.60398 0.43727 0.10215
 C126 C 0.59611 0.39174 0.18291
 Zr127 Zr 0.50002 0.41185 0.14271
 O128 O 0.49992 0.40629 0.32098
 O129 O 0.50024 0.30257 0.16581
 Zr130 Zr 0.50000 0.58848 0.14461
 O131 O 0.49988 0.59993 0.32595
 O132 O 0.50010 0.69843 0.15634
 O133 O 0.46379 0.50006 0.16548
 O134 O 0.53514 0.50008 0.16303
 O135 O 0.55857 0.37555 -0.20745
 O136 O 0.60389 0.43747 -0.10320
 C137 C 0.59613 0.39154 -0.18351
 O138 O 0.44156 0.62286 -0.21016
 O139 O 0.39622 0.56249 -0.10326
 C140 C 0.40407 0.60715 -0.18521
 O141 O 0.55854 0.62486 -0.20742
 O142 O 0.60379 0.56279 -0.10277
 C143 C 0.59600 0.60840 -0.18349
 O144 O 0.44153 0.37752 -0.21007
 O145 O 0.39617 0.43786 -0.10340
 C146 C 0.40406 0.39319 -0.18522
 Zr147 Zr 0.49999 0.41220 -0.14539
 O148 O 0.49989 0.40120 -0.32531
 O149 O 0.49991 0.30268 -0.16794
 Zr150 Zr 0.50003 0.58922 -0.14401
 O151 O 0.50001 0.59840 -0.32385
 O152 O 0.49990 0.70002 -0.16141
 Zr153 Zr 0.43765 0.50016 -0.00046
 Zr154 Zr 0.56238 0.50013 -0.00045
 O155 O 0.53512 0.50066 -0.16430
 O156 O 0.46382 0.50079 -0.16661
 O157 O 0.53627 0.39807 -0.00130
 O158 O 0.46470 0.60065 0.00015
 O159 O 0.46471 0.39952 -0.00121
 O160 O 0.53637 0.60220 0.00028
 H161 H 0.55269 0.49991 0.23003
 H162 H 0.44657 0.64090 -0.00002
 H163 H 0.55278 0.50024 -0.23120
 H164 H 0.44667 0.35903 -0.00091
 H165 H 0.49987 0.71788 0.07998
 H166 H 0.50028 0.72383 -0.08790
 H167 H 0.49975 0.55233 -0.35924
 H168 H 0.50004 0.44647 -0.36331
 H169 H 0.50033 0.27951 -0.09434
 H170 H 0.49953 0.28002 0.09175
 H171 H 0.49996 0.45371 0.34847
 H172 H 0.50002 0.55508 0.36553
 N173 N 0.34015 0.34030 0.31144
 N174 N 0.37202 0.37274 0.27078
 N175 N -0.15985 0.84021 0.31163
 N176 N -0.12797 0.87257 0.27097
 N177 N 0.65977 0.65795 0.31572
 N178 N 0.62803 0.62874 0.26856
 N179 N 0.15983 1.15971 0.31090
 N180 N 0.12805 1.12718 0.26989
 N181 N 0.66018 0.33996 -0.31156
 N182 N 0.62834 0.37253 -0.27040
 N183 N 0.15995 0.84024 -0.31061
 N184 N 0.12816 0.87315 -0.27028
 N185 N 0.33996 0.65940 -0.31173
 N186 N 0.37170 0.62696 -0.27042
 N187 N -0.15987 1.15939 -0.31121
 N188 N -0.12810 1.12688 -0.27072
 N189 N 0.65997 0.65997 -0.31081
 N190 N 0.62821 0.62736 -0.27002
 N191 N 0.15994 1.15979 -0.31114
 N192 N 0.12818 1.12744 -0.26972
 N193 N 0.34001 0.34086 -0.31249
 N194 N 0.37166 0.37239 -0.26966
 N195 N -0.15993 0.84129 -0.31417
 N196 N -0.12831 0.87216 -0.26944
 N197 N 0.34013 0.65883 0.31265
 N198 N 0.37179 0.62770 0.26966
 N199 N -0.16123 1.16265 0.30127
 N200 N -0.12960 1.12665 0.27912
 N201 N 0.66009 0.33990 0.31105
 N202 N 0.62813 0.37226 0.27026
 N203 N 0.15985 0.84061 0.31133
 N204 N 0.12801 0.87286 0.27003
   
