data_POSCAR
  _audit_creation_date              2014-09-24
  _audit_creation_method            'ToBaCCo'
  _symmetry_space_group_name_H-M    'P1'
  _symmetry_Int_Tables_number       1
  _symmetry_cell_setting            triclinic
  loop_
  _symmetry_equiv_pos_as_xyz
 x,y,z
_cell_length_a 31.1562
_cell_length_b 31.0459
_cell_length_c 53.3776
_cell_angle_alpha 90.061200
_cell_angle_beta 91.261400
_cell_angle_gamma 89.887600
loop_
  _atom_site_label
  _atom_site_type_symbol
  _atom_site_fract_x
  _atom_site_fract_y
  _atom_site_fract_z
C1 C -0.03093 0.37129 0.98621
 C2 C -0.03307 0.37130 1.01183
 C3 C -0.01254 0.40847 1.02022
 N4 N 0.00103 0.43164 1.00049
 C5 C -0.00989 0.40874 0.97975
 C6 C -0.00388 0.41972 1.04558
 C7 C 0.00558 0.46308 1.05213
 C8 C 0.02878 0.47623 1.07327
 C9 C 0.02855 0.52045 1.07327
 C10 C 0.00528 0.53340 1.05212
 N11 N -0.00779 0.49820 1.03902
 C12 C -0.00458 0.57670 1.04562
 C13 C -0.01220 0.58816 1.02017
 C14 C -0.03204 0.62563 1.01158
 C15 C -0.02914 0.62552 0.98599
 C16 C -0.00846 0.58768 0.97971
 N17 N 0.00163 0.56470 1.00055
 C18 C 0.00300 0.57582 0.95524
 C19 C 0.01296 0.53286 0.94896
 C20 C 0.03318 0.51971 0.92735
 C21 C 0.03263 0.47538 0.92731
 C22 C 0.01215 0.46283 0.94891
 N23 N 0.00061 0.49802 0.96209
 C24 C 0.00143 0.42017 0.95522
 H25 H -0.04390 0.34680 0.97377
 H26 H -0.04864 0.34689 1.02283
 H27 H -0.01910 0.49829 0.97761
 H28 H 0.04527 0.45625 1.08701
 H29 H 0.04479 0.54062 1.08702
 H30 H -0.04777 0.65029 1.02238
 H31 H -0.04156 0.65012 0.97343
 H32 H 0.04550 0.45483 0.91290
 H33 H -0.02820 0.49816 1.02325
 H34 H 0.04655 0.53987 0.91297
 C35 C 0.37030 -0.01929 0.48836
 C36 C 0.37235 -0.02041 0.51405
 C37 C 0.41225 -0.00425 0.52115
 N38 N 0.43469 0.00650 0.50072
 C39 C 0.40904 -0.00255 0.48066
 C40 C 0.42622 0.00378 0.54602
 C41 C 0.46942 0.01338 0.55227
 C42 C 0.48303 0.03402 0.57402
 C43 C 0.52709 0.03519 0.57362
 C44 C 0.53938 0.01444 0.55182
 N45 N 0.50383 0.00187 0.53871
 C46 C 0.58235 0.00607 0.54476
 C47 C 0.59208 -0.00238 0.51934
 C48 C 0.62909 -0.02229 0.51097
 C49 C 0.62697 -0.02138 0.48532
 C50 C 0.58847 -0.00169 0.47878
 N51 N 0.56698 0.00970 0.49954
 C52 C 0.57472 0.00760 0.45400
 C53 C 0.53144 0.01677 0.44775
 C54 C 0.51694 0.03526 0.42549
 C55 C 0.47280 0.03486 0.42592
 C56 C 0.46164 0.01612 0.44843
 N57 N 0.49759 0.00542 0.46168
 C58 C 0.41931 0.00685 0.45563
 H59 H 0.34336 -0.02967 0.47674
 H60 H 0.34726 -0.03176 0.52608
 H61 H 0.49904 -0.01310 0.47792
 H62 H 0.46326 0.04743 0.58852
 H63 H 0.54744 0.05038 0.58771
 H64 H 0.65468 -0.03694 0.52203
 H65 H 0.65072 -0.03451 0.47292
 H66 H 0.45144 0.04683 0.41125
 H67 H 0.50318 -0.01741 0.52270
 H68 H 0.53609 0.04751 0.41041
 C69 C 0.07769 0.00210 0.26222
 H70 H 0.08093 0.00154 0.24208
 C71 C 0.11427 0.00405 0.27781
 H72 H 0.14561 0.00481 0.26946
 C73 C 0.03270 0.00227 0.29742
 H74 H 0.00091 0.00228 0.30505
 C75 C 0.06832 0.00427 0.31367
 H76 H 0.06328 0.00530 0.33367
 N77 N 0.03793 0.00058 0.27221
 C78 C -0.04482 -0.06134 0.21587
 H79 H -0.07096 -0.03836 0.21505
 C80 C -0.04629 -0.09809 0.20079
 H81 H -0.07377 -0.10301 0.18837
 C82 C 0.02272 -0.08235 0.23311
 H83 H 0.04938 -0.07636 0.24589
 C84 C 0.02260 -0.11955 0.21835
 H85 H 0.04954 -0.14155 0.21984
 Zn86 Zn -0.01052 -0.00202 0.25016
 N87 N -0.01030 -0.05372 0.23125
 C88 C -0.00695 0.04061 0.20328
 N89 N -0.00816 0.04627 0.22852
 C90 C -0.00636 0.08633 0.23884
 C91 C -0.00464 0.12279 0.22356
 C92 C -0.00518 0.07610 0.18733
 C93 C -0.06910 -0.03572 0.28373
 C94 C -0.10534 -0.03675 0.29863
 C95 C -0.12678 0.03222 0.28154
 C96 C -0.09009 0.03191 0.26694
 N97 N -0.06170 -0.00134 0.26868
 H98 H -0.00717 0.00859 0.19540
 H99 H -0.00655 0.08991 0.25901
 H100 H -0.00367 0.15437 0.23217
 H101 H -0.00456 0.07070 0.16730
 H102 H -0.04631 -0.06205 0.28446
 H103 H -0.11007 -0.06411 0.31081
 H104 H -0.14857 0.05936 0.28017
 H105 H -0.08428 0.05844 0.25442
 C106 C -0.01201 -0.12757 0.20168
 C107 C 0.10985 0.00493 0.30395
 C108 C -0.13451 -0.00219 0.29790
 C109 C -0.00428 0.11793 0.19739
 C110 C 0.00688 0.08531 0.76112
 H111 H 0.00713 0.08909 0.74098
 C112 C 0.00520 0.12163 0.77658
 H113 H 0.00434 0.15331 0.76812
 C114 C 0.00723 0.03926 0.79647
 H115 H 0.00732 0.00716 0.80422
 C116 C 0.00550 0.07458 0.81259
 H117 H 0.00479 0.06898 0.83259
 N118 N 0.00858 0.04515 0.77126
 C119 C 0.06954 -0.03677 0.71580
 H120 H 0.04674 -0.06300 0.71498
 C121 C 0.10586 -0.03794 0.70096
 H122 H 0.11063 -0.06530 0.68873
 C123 C 0.09053 0.03071 0.73277
 H124 H 0.08470 0.05721 0.74535
 C125 C 0.12729 0.03087 0.71824
 H126 H 0.14913 0.05788 0.71972
 Zn127 Zn 0.01098 -0.00303 0.74949
 N128 N 0.06211 -0.00241 0.73091
 C129 C -0.03255 0.00124 0.70232
 N130 N -0.03762 -0.00038 0.72754
 C131 C -0.07731 0.00122 0.73762
 C132 C -0.11399 0.00316 0.72211
 C133 C -0.06828 0.00323 0.68614
 C134 C 0.04571 -0.06223 0.78364
 C135 C 0.04723 -0.09865 0.79894
 C136 C -0.02190 -0.12000 0.78176
 C137 C -0.02208 -0.08313 0.76678
 N138 N 0.01102 -0.05467 0.76837
 H139 H -0.00081 0.00118 0.69462
 H140 H -0.08042 0.00072 0.75777
 H141 H -0.14528 0.00398 0.73053
 H142 H -0.06337 0.00419 0.66614
 H143 H 0.07188 -0.03937 0.78427
 H144 H 0.07483 -0.10348 0.81131
 H145 H -0.04892 -0.14182 0.78052
 H146 H -0.04888 -0.07717 0.75409
 C147 C 0.13510 -0.00355 0.70183
 C148 C 0.00476 0.11651 0.80272
 C149 C 0.01284 -0.12786 0.79839
 C150 C -0.10975 0.00395 0.69596
 N151 N 0.00128 -0.31887 0.07681
 C152 C -0.00648 -0.32959 0.10086
 N153 N -0.01341 -0.37144 0.10666
 N154 N -0.01268 -0.40160 0.08889
 C155 C -0.00512 -0.39118 0.06460
 N156 N 0.00199 -0.34905 0.05909
 C157 C -0.00784 -0.29677 0.11978
 C158 C -0.00905 -0.26839 0.13519
 C159 C -0.01056 -0.23369 0.15293
 N160 N 0.02265 -0.22675 0.16927
 N161 N 0.02194 -0.19339 0.18498
 C162 C -0.01193 -0.16570 0.18491
 N163 N -0.04518 -0.17298 0.16855
 N164 N -0.04450 -0.20633 0.15284
 N165 N -0.00880 0.36606 0.10627
 C166 C -0.00140 0.32450 0.09987
 N167 N 0.00538 0.31464 0.07558
 N168 N 0.00468 0.34534 0.05819
 C169 C -0.00292 0.38718 0.06429
 N170 N -0.00948 0.39677 0.08882
 C171 C -0.00140 0.29094 0.11834
 C172 C -0.00152 0.26153 0.13307
 C173 C -0.00182 0.22521 0.14967
 N174 N -0.00201 0.18474 0.14016
 N175 N -0.00264 0.15077 0.15535
 C176 C -0.00311 0.15596 0.18062
 N177 N -0.00286 0.19667 0.19007
 N178 N -0.00223 0.23071 0.17486
 N179 N 0.37244 -0.01710 0.60589
 C180 C 0.33447 0.00369 0.60236
 N181 N 0.32680 0.02498 0.58057
 N182 N 0.35610 0.02533 0.56278
 C183 C 0.39406 0.00427 0.56612
 N184 N 0.40177 -0.01676 0.58809
 C185 C 0.30210 0.00211 0.62105
 C186 C 0.27410 0.00066 0.63626
 C187 C 0.23986 -0.00116 0.65377
 N188 N 0.23312 0.03187 0.66984
 N189 N 0.20018 0.03087 0.68535
 C190 C 0.17275 -0.00315 0.68531
 N191 N 0.17985 -0.03623 0.66921
 N192 N 0.21277 -0.03524 0.65372
 N193 N -0.31128 0.01709 0.57380
 C194 C -0.31912 0.00818 0.59809
 N195 N -0.35973 -0.00121 0.60479
 N196 N -0.39150 -0.00173 0.58765
 C197 C -0.38397 0.00700 0.56314
 N198 N -0.34305 0.01655 0.55672
 C199 C -0.28450 0.00797 0.61627
 C200 C -0.25453 0.00767 0.63094
 C201 C -0.21785 0.00714 0.64767
 N202 N -0.22268 0.00640 0.67285
 N203 N -0.18838 0.00553 0.68823
 C204 C -0.14805 0.00537 0.67898
 N205 N -0.14352 0.00616 0.65372
 N206 N -0.17776 0.00703 0.63836
 N207 N -0.01124 -0.36677 0.89490
 C208 C 0.00769 -0.32838 0.90001
 N209 N 0.02514 -0.32140 0.92314
 N210 N 0.02373 -0.35189 0.94064
 C211 C 0.00480 -0.39042 0.93563
 N212 N -0.01266 -0.39728 0.91241
 C213 C 0.00888 -0.29525 0.88132
 C214 C 0.00996 -0.26690 0.86594
 C215 C 0.01133 -0.23249 0.84805
 N216 N -0.02192 -0.22582 0.83171
 N217 N -0.02121 -0.19291 0.81571
 C218 C 0.01274 -0.16547 0.81548
 N219 N 0.04604 -0.17250 0.83187
 N220 N 0.04534 -0.20538 0.84786
 N221 N -0.01465 0.36173 0.89528
 C222 C 0.00351 0.32299 0.90061
 N223 N 0.02132 0.31628 0.92366
 N224 N 0.02093 0.34729 0.94091
 C225 C 0.00265 0.38612 0.93571
 N226 N -0.01506 0.39279 0.91254
 C227 C 0.00310 0.28898 0.88239
 C228 C 0.00289 0.25947 0.86770
 C229 C 0.00287 0.22329 0.85096
 N230 N 0.00282 0.18273 0.86028
 N231 N 0.00325 0.14891 0.84492
 C232 C 0.00373 0.15435 0.81967
 N233 N 0.00372 0.19516 0.81042
 N234 N 0.00330 0.22904 0.82579
 N235 N -0.32512 0.02684 0.41992
 C236 C -0.33310 0.00630 0.39790
 N237 N -0.37149 -0.01341 0.39408
 N238 N -0.40097 -0.01268 0.41180
 C239 C -0.39303 0.00775 0.43394
 N240 N -0.35457 0.02758 0.43763
 C241 C -0.30072 0.00449 0.37922
 C242 C -0.27280 0.00286 0.36397
 C243 C -0.23872 0.00084 0.34636
 N244 N -0.21171 -0.03341 0.34627
 N245 N -0.17897 -0.03460 0.33065
 C246 C -0.17199 -0.00157 0.31455
 N247 N -0.19935 0.03261 0.31466
 N248 N -0.23210 0.03382 0.33029
 N249 N 0.35620 -0.01205 0.39715
 C250 C 0.31936 0.00963 0.40173
 N251 N 0.31543 0.03069 0.42381
 N252 N 0.34731 0.03005 0.44084
 C253 C 0.38421 0.00823 0.43641
 N254 N 0.38812 -0.01270 0.41420
 C255 C 0.28437 0.00932 0.38380
 C256 C 0.25429 0.00893 0.36921
 C257 C 0.21767 0.00830 0.35244
 N258 N 0.17753 0.00817 0.36169
 N259 N 0.14337 0.00724 0.34626
 C260 C 0.14804 0.00640 0.32101
 N261 N 0.18842 0.00658 0.31184
 N262 N 0.22263 0.00751 0.32727
   
