data_POSCAR
  _audit_creation_date              2014-09-24
  _audit_creation_method            'ToBaCCo'
  _symmetry_space_group_name_H-M    'P1'
  _symmetry_Int_Tables_number       1
  _symmetry_cell_setting            triclinic
  loop_
  _symmetry_equiv_pos_as_xyz
 x,y,z
_cell_length_a 22.4477
_cell_length_b 22.8933
_cell_length_c 61.1901
_cell_angle_alpha 89.682700
_cell_angle_beta 89.572900
_cell_angle_gamma 121.899200
loop_
  _atom_site_label
  _atom_site_type_symbol
  _atom_site_fract_x
  _atom_site_fract_y
  _atom_site_fract_z
C1 C -0.02897 0.10136 0.52368
 H2 H 0.01248 0.13079 0.51185
 C3 C -0.04167 0.13586 0.53998
 H4 H -0.01013 0.19154 0.54016
 C5 C -0.11549 -0.00648 0.53883
 H6 H -0.14267 -0.06204 0.53855
 C7 C -0.12999 0.02604 0.55549
 H8 H -0.16997 -0.00543 0.56753
 N9 N -0.06494 0.03143 0.52356
 C10 C 0.05922 -0.01319 0.53455
 H11 H 0.08574 0.04217 0.53298
 C12 C 0.08125 -0.04246 0.55017
 H13 H 0.12606 -0.00875 0.56008
 C14 C -0.03244 -0.12367 0.52373
 H15 H -0.07841 -0.15528 0.51403
 C16 C -0.01239 -0.15500 0.53912
 H17 H -0.04313 -0.21051 0.54078
 Zn18 Zn -0.03497 -0.01301 0.50440
 N19 N 0.00266 -0.05393 0.52195
 C20 C 0.09629 0.06304 0.48044
 N21 N 0.03081 0.05116 0.48392
 C22 C 0.00453 0.08036 0.47094
 C23 C 0.04378 0.12268 0.45346
 C24 C 0.13745 0.10490 0.46286
 C25 C -0.08510 -0.11030 0.47295
 C26 C -0.13006 -0.15702 0.45764
 C27 C -0.22289 -0.14376 0.47186
 C28 C -0.17545 -0.09696 0.48710
 N29 N -0.10795 -0.08107 0.48721
 H30 H 0.11556 0.03815 0.49073
 H31 H -0.04793 0.06950 0.47401
 H32 H 0.02147 0.14566 0.44361
 H33 H 0.18863 0.11237 0.45983
 H34 H -0.03085 -0.09609 0.47328
 H35 H -0.10826 -0.17803 0.44662
 H36 H -0.27544 -0.15355 0.47232
 H37 H -0.19213 -0.07210 0.49842
 C38 C 0.04377 -0.11441 0.55311
 C39 C -0.09114 0.09838 0.55663
 C40 C -0.20047 -0.17426 0.45632
 C41 C 0.11040 0.13386 0.44877
 C42 C 1.10144 0.06293 0.13401
 H43 H 1.08813 0.10117 0.13718
 C44 C 1.14610 0.07239 0.11667
 H45 H 1.16863 0.11943 0.10713
 C46 C 1.08736 -0.04457 0.14299
 H47 H 1.06260 -0.09079 0.15299
 C48 C 1.13141 -0.03757 0.12547
 H49 H 1.14083 -0.07848 0.12223
 N50 N 1.07263 0.00510 0.14662
 C51 C 0.91149 0.03729 0.14773
 H52 H 0.93205 0.07883 0.15932
 C53 C 0.86346 0.03088 0.13192
 H54 H 0.84665 0.06735 0.13163
 C55 C 0.91028 -0.05920 0.13334
 H56 H 0.93003 -0.09326 0.13374
 C57 C 0.86301 -0.06724 0.11736
 H58 H 0.84824 -0.10706 0.10540
 Zn59 Zn 1.00332 -0.00334 0.16628
 N60 N 0.93359 -0.00776 0.14809
 C61 C 1.00117 0.07896 0.20014
 N62 N 1.04306 0.07223 0.18553
 C63 C 1.11413 0.11268 0.18660
 C64 C 1.14574 0.16060 0.20321
 C65 C 1.03071 0.12655 0.21707
 C66 C 0.89250 -0.12528 0.18507
 C67 C 0.86071 -0.17654 0.20111
 C68 C 0.97563 -0.14418 0.21387
 C69 C 1.00532 -0.09316 0.19756
 N70 N 0.96353 -0.08373 0.18391
 H71 H 0.94477 0.04534 0.19917
 H72 H 1.14676 0.10520 0.17536
 H73 H 1.20245 0.18987 0.20412
 H74 H 0.99600 0.13018 0.22855
 H75 H 0.85999 -0.11610 0.17446
 H76 H 0.80398 -0.20646 0.20226
 H77 H 1.01031 -0.14962 0.22466
 H78 H 1.06170 -0.05891 0.19644
 C79 C 0.83849 -0.02212 0.11646
 C80 C 1.15974 0.02072 0.11167
 C81 C 0.90208 -0.18501 0.21640
 C82 C 1.10420 0.16666 0.21923
 C83 C 0.10825 1.10059 0.86595
 H84 H 0.07500 1.12163 0.86548
 C85 C 0.15893 1.12131 0.88222
 H86 H 0.16528 1.15997 0.89364
 C87 C 0.13782 1.02275 0.85201
 H88 H 0.12759 0.98203 0.84093
 C89 C 0.18874 1.04177 0.86792
 H90 H 0.21736 1.01576 0.86844
 N91 N 0.09789 1.05125 0.85150
 C92 C -0.06684 0.92763 0.86844
 H93 H -0.02959 0.91132 0.86911
 C94 C -0.11624 0.90917 0.88534
 H95 H -0.11612 0.87726 0.89834
 C96 C -0.10761 0.99182 0.85075
 H97 H -0.10267 1.02626 0.83777
 C98 C -0.15805 0.97425 0.86708
 H99 H -0.19144 0.99505 0.86577
 Zn100 Zn 0.01806 1.01080 0.83330
 N101 N -0.06200 0.97001 0.85197
 C102 C -0.03130 0.88014 0.81246
 N103 N 0.02092 0.94727 0.81448
 C104 C 0.07718 0.97702 0.80065
 C105 C 0.08209 0.93987 0.78363
 C106 C -0.02891 0.84094 0.79531
 C107 C 0.05762 1.14385 0.81423
 C108 C 0.04876 1.18392 0.79868
 C109 C -0.04706 1.07948 0.78341
 C110 C -0.03678 1.04193 0.79916
 N111 N 0.01427 1.07413 0.81428
 H112 H -0.07613 0.85805 0.82346
 H113 H 0.11753 1.03069 0.80256
 H114 H 0.12781 0.96515 0.77299
 H115 H -0.07199 0.78837 0.79329
 H116 H 0.09887 1.16833 0.82614
 H117 H 0.08314 1.23938 0.79883
 H118 H -0.08694 1.05159 0.77130
 H119 H -0.06964 0.98637 0.79933
 C120 C -0.16126 0.93505 0.88545
 C121 C 0.19841 1.08989 0.88384
 C122 C -0.00490 1.15163 0.78316
 C123 C 0.02739 0.87166 0.78022
 C124 C 0.37658 0.04157 -0.00409
 C125 C 0.41541 0.05380 -0.02347
 C126 C 0.47548 0.04932 -0.02302
 C127 C 0.49453 0.02907 -0.00383
 C128 C 0.45356 0.01574 0.01528
 C129 C 0.39515 0.02294 0.01542
 C130 C 0.55597 0.02021 -0.00381
 C131 C 0.59489 0.03112 0.01534
 C132 C 0.64797 0.01643 0.01593
 C133 C 0.66574 -0.00517 -0.00303
 C134 C 0.63131 -0.01176 -0.02274
 C135 C 0.57484 -0.00141 -0.02278
 H136 H 0.33026 0.04498 -0.00432
 H137 H 0.50796 0.06253 -0.03755
 H138 H 0.46741 0.00002 0.03006
 H139 H 0.58325 0.04947 0.03005
 H140 H 0.70822 -0.01461 -0.00250
 H141 H 0.54461 -0.01186 -0.03750
 C142 C 0.01930 0.66702 0.66540
 C143 C 0.00647 0.63140 0.68533
 C144 C 0.00042 0.56705 0.68536
 C145 C 0.00949 0.53947 0.66594
 C146 C 0.02406 0.57746 0.64629
 C147 C 0.02715 0.64035 0.64578
 C148 C 0.00252 0.47071 0.66610
 C149 C -0.02261 0.42803 0.64759
 C150 C -0.03022 0.36294 0.64762
 C151 C -0.01764 0.33851 0.66702
 C152 C 0.00691 0.37975 0.68558
 C153 C 0.01914 0.44636 0.68488
 H154 H 0.02167 0.71552 0.66506
 H155 H -0.01097 0.53858 0.70051
 H156 H 0.03414 0.55877 0.63140
 H157 H -0.03795 0.44460 0.63328
 H158 H -0.02499 0.28777 0.66763
 H159 H 0.04003 0.47807 0.69922
 C160 C 0.67999 0.63015 0.33186
 C161 C 0.64863 0.59500 0.31256
 C162 C 0.57996 0.53720 0.31368
 C163 C 0.54016 0.51823 0.33330
 C164 C 0.57234 0.55654 0.35228
 C165 C 0.64292 0.61053 0.35180
 C166 C 0.46584 0.45815 0.33375
 C167 C 0.43533 0.41853 0.35295
 C168 C 0.36604 0.36124 0.35310
 C169 C 0.32855 0.34199 0.33346
 C170 C 0.35788 0.37966 0.31406
 C171 C 0.42525 0.43925 0.31464
 H172 H 0.73317 0.67443 0.33135
 H173 H 0.55796 0.50640 0.29925
 H174 H 0.54344 0.54425 0.36756
 H175 H 0.46529 0.43246 0.36778
 H176 H 0.27636 0.29626 0.33318
 H177 H 0.44581 0.47134 0.30016
 C178 C -0.06781 0.24262 0.59098
 C179 C -0.08782 0.21179 0.61173
 N180 N -0.11344 0.14350 0.61401
 C181 C -0.11884 0.10468 0.59650
 C182 C -0.09666 0.13575 0.57563
 N183 N -0.07224 0.20421 0.57353
 N184 N -0.04031 0.31128 0.58878
 C185 C -0.03079 0.35089 0.60648
 C186 C -0.04881 0.32062 0.62754
 N187 N -0.07750 0.25133 0.62945
 H188 H -0.13695 0.05111 0.59922
 H189 H -0.00627 0.40577 0.60411
 C190 C 0.76034 0.68559 0.25332
 C191 C 0.79590 0.69524 0.27294
 N192 N 0.86641 0.73962 0.27346
 C193 C 0.90298 0.77602 0.25534
 C194 C 0.86724 0.76847 0.23566
 N195 N 0.79655 0.72244 0.23530
 N196 N 0.68954 0.64302 0.25293
 C197 C 0.65236 0.61040 0.27141
 C198 C 0.68751 0.62140 0.29140
 N199 N 0.75887 0.66341 0.29145
 H200 H 0.95856 0.81270 0.25682
 H201 H 0.59581 0.57915 0.27052
 C202 C 0.32762 0.07976 -0.08113
 C203 C 0.31665 0.10066 -0.06085
 N204 N 0.27167 0.12310 -0.05921
 C205 C 0.23588 0.12427 -0.07688
 C206 C 0.24464 0.10093 -0.09724
 N207 N 0.29130 0.08002 -0.09871
 N208 N 0.37087 0.05523 -0.08264
 C209 C 0.40280 0.04947 -0.06466
 C210 C 0.39023 0.06831 -0.04403
 N211 N 0.34770 0.09414 -0.04285
 H212 H 0.19856 0.13992 -0.07457
 H213 H 0.43468 0.02721 -0.06644
 C214 C 0.03784 0.74871 0.58798
 C215 C 0.06629 0.78351 0.60754
 N216 N 0.09161 0.85188 0.60862
 C217 C 0.08869 0.88705 0.59110
 C218 C 0.05804 0.85204 0.57153
 N219 N 0.03396 0.78349 0.57056
 N220 N 0.01079 0.67990 0.58711
 C221 C 0.00977 0.64399 0.60506
 C222 C 0.03617 0.67831 0.62500
 N223 N 0.06438 0.74765 0.62553
 H224 H 0.10696 0.94085 0.59298
 H225 H -0.01451 0.58887 0.60393
 C226 C 0.24539 0.29282 0.25563
 C227 C 0.21019 0.27979 0.27573
 N228 N 0.13997 0.23383 0.27685
 C229 C 0.10341 0.19923 0.25884
 C230 C 0.13885 0.21042 0.23864
 N231 N 0.20920 0.25783 0.23771
 N232 N 0.31592 0.33704 0.25459
 C233 C 0.35321 0.36822 0.27284
 C234 C 0.31849 0.35407 0.29328
 N235 N 0.24736 0.31026 0.29401
 H236 H 0.04813 0.16122 0.26072
 H237 H 0.40963 0.40096 0.27139
 C238 C 0.72016 -0.03998 -0.08003
 C239 C 0.72281 -0.06832 -0.06005
 N240 N 0.75922 -0.10022 -0.05869
 C241 C 0.79476 -0.10361 -0.07628
 C242 C 0.79546 -0.07205 -0.09636
 N243 N 0.75647 -0.04222 -0.09746
 N244 N 0.68470 -0.00713 -0.08143
 C245 C 0.65259 -0.00027 -0.06356
 C246 C 0.65694 -0.02665 -0.04317
 N247 N 0.69180 -0.06060 -0.04208
 H248 H 0.82346 -0.12879 -0.07398
 H249 H 0.62704 0.02844 -0.06517
 C250 C 0.27613 -0.00003 0.07282
 C251 C 0.27729 0.03831 0.05472
 N252 N 0.23963 0.06890 0.05524
 C253 C 0.20126 0.06369 0.07320
 C254 C 0.20086 0.02657 0.09174
 N255 N 0.23801 -0.00513 0.09092
 N256 N 0.31305 -0.03159 0.07195
 C257 C 0.35156 -0.02602 0.05385
 C258 C 0.35369 0.01345 0.03570
 N259 N 0.31580 0.04416 0.03679
 H260 H 0.17055 0.08744 0.07271
 H261 H 0.37898 -0.05310 0.05368
 C262 C 0.75098 0.72075 0.40810
 C263 C 0.68173 0.70267 0.40482
 N264 N 0.65122 0.72395 0.41934
 C265 C 0.68708 0.76331 0.43683
 C266 C 0.75800 0.78328 0.44004
 N267 N 0.78658 0.75988 0.42537
 N268 N 0.78258 0.70066 0.39367
 C269 C 0.74822 0.66397 0.37577
 C270 C 0.67904 0.64675 0.37200
 N271 N 0.64694 0.66586 0.38686
 H272 H 0.65966 0.77850 0.44765
 H273 H 0.77481 0.64859 0.36453
 C274 C 0.03226 0.28790 0.74192
 C275 C -0.03295 0.25910 0.73167
 N276 N -0.08859 0.19944 0.73941
 C277 C -0.08174 0.16582 0.75659
 C278 C -0.01553 0.19194 0.76621
 N279 N 0.03973 0.25347 0.75882
 N280 N 0.08745 0.34864 0.73429
 C281 C 0.08044 0.38116 0.71667
 C282 C 0.01580 0.35066 0.70591
 N283 N -0.03940 0.29050 0.71383
 H284 H -0.12773 0.11884 0.76246
 H285 H 0.12529 0.42896 0.71068
 C286 C 0.75459 0.02689 0.07376
 C287 C 0.71469 -0.03518 0.06253
 N288 N 0.71117 -0.09268 0.07004
 C289 C 0.74744 -0.09074 0.08794
 C290 C 0.79111 -0.02780 0.09862
 N291 N 0.79235 0.02937 0.09139
 N292 N 0.75649 0.08402 0.06643
 C293 C 0.72093 0.08190 0.04820
 C294 C 0.68318 0.02029 0.03653
 N295 N 0.68075 -0.03687 0.04410
 H296 H 0.74233 -0.13804 0.09356
 H297 H 0.72365 0.12813 0.04252
 C298 C 0.25847 0.24650 0.41047
 C299 C 0.22234 0.24716 0.39201
 N300 N 0.15131 0.21039 0.39211
 C301 C 0.11435 0.17337 0.41001
 C302 C 0.14996 0.17335 0.42890
 N303 N 0.22163 0.20962 0.42851
 N304 N 0.32977 0.28276 0.41002
 C305 C 0.36651 0.32004 0.39197
 C306 C 0.33022 0.32144 0.37343
 N307 N 0.25877 0.28435 0.37413
 H308 H 0.05771 0.14347 0.40924
 H309 H 0.42310 0.34707 0.39216
 C310 C -0.00248 0.73047 0.74283
 C311 C 0.03061 0.76743 0.72361
 N312 N 0.06047 0.83652 0.72298
 C313 C 0.05961 0.87084 0.74084
 C314 C 0.02789 0.83458 0.76046
 N315 N -0.00327 0.76471 0.76084
 N316 N -0.03326 0.66098 0.74310
 C317 C -0.03196 0.62693 0.72506
 C318 C 0.00208 0.66420 0.70575
 N319 N 0.03214 0.73371 0.70575
 H320 H 0.08261 0.92582 0.73950
 H321 H -0.05824 0.57154 0.72585
   
