data_POSCAR
  _audit_creation_date              2014-09-24
  _audit_creation_method            'ToBaCCo'
  _symmetry_space_group_name_H-M    'P1'
  _symmetry_Int_Tables_number       1
  _symmetry_cell_setting            triclinic
  loop_
  _symmetry_equiv_pos_as_xyz
 x,y,z
_cell_length_a 18.6758
_cell_length_b 18.1809
_cell_length_c 23.5298
_cell_angle_alpha 91.583000
_cell_angle_beta 88.487800
_cell_angle_gamma 95.449500
loop_
  _atom_site_label
  _atom_site_type_symbol
  _atom_site_fract_x
  _atom_site_fract_y
  _atom_site_fract_z
O1 O -0.09196 0.54409 0.93474
 O2 O -0.12601 0.40394 1.04262
 O3 O -0.09518 0.55055 1.04802
 O4 O -0.09824 0.40290 0.93621
 O5 O 0.01891 0.40060 0.94496
 O6 O 0.02150 0.54501 1.05637
 O7 O -0.00924 0.40115 1.05386
 O8 O 0.02529 0.54513 0.94542
 Cu9 Cu -0.11340 0.47745 0.99087
 Cu10 Cu 0.02571 0.47269 1.00108
 C11 C -0.02816 0.56911 0.92166
 C12 C -0.07422 0.37742 1.06605
 C13 C -0.03590 0.57311 1.07099
 C14 C -0.03955 0.37622 0.92198
 O15 O 0.59405 0.15332 0.44682
 O16 O 0.46248 0.15068 0.56275
 O17 O 0.60032 0.13744 0.55649
 O18 O 0.45344 0.13874 0.45237
 O19 O 0.44830 0.01705 0.44716
 O20 O 0.58443 0.01560 0.55421
 O21 O 0.44618 0.02875 0.55822
 O22 O 0.58988 0.03153 0.44463
 Cu23 Cu 0.52859 0.15672 0.50488
 Cu24 Cu 0.51601 0.01146 0.50054
 C25 C 0.61640 0.09431 0.42675
 C26 C 0.43089 0.09063 0.57999
 C27 C 0.61678 0.07516 0.57319
 C28 C 0.42605 0.07694 0.43202
 C29 C -0.06220 -0.01603 0.28047
 C30 C 0.00609 0.00195 0.25585
 C31 C 0.02138 0.06913 0.22852
 C32 C -0.03174 0.11784 0.22373
 C33 C -0.09998 0.10000 0.24955
 C34 C -0.11523 0.03349 0.27910
 C35 C 0.06111 -0.05068 0.25679
 C36 C 0.04934 -0.11898 0.22806
 C37 C 0.10210 -0.16924 0.22680
 C38 C 0.16679 -0.14973 0.25509
 C39 C 0.17938 -0.08119 0.28413
 C40 C 0.12591 -0.03170 0.28460
 H41 H -0.07330 -0.06798 0.30202
 H42 H 0.07418 0.08212 0.20903
 H43 H 0.00000 -0.13075 0.20510
 H44 H 0.13307 0.02080 0.30746
 H45 H -0.14076 0.13780 0.24671
 H46 H 0.20781 -0.18816 0.25434
 C47 C -0.04655 -0.12519 0.77047
 C48 C -0.04509 -0.05698 0.74411
 C49 C -0.10594 -0.03767 0.71663
 C50 C -0.16883 -0.08656 0.71510
 C51 C -0.16964 -0.15497 0.74172
 C52 C -0.10901 -0.17487 0.76973
 C53 C 0.01953 -0.00434 0.74723
 C54 C 0.08424 -0.02155 0.72107
 C55 C 0.14618 0.02831 0.72411
 C56 C 0.14284 0.09479 0.75628
 C57 C 0.07786 0.11299 0.78204
 C58 C 0.01625 0.06284 0.77712
 H59 H 0.00034 -0.13729 0.79319
 H60 H -0.10285 0.01472 0.69559
 H61 H 0.08577 -0.07333 0.69727
 H62 H -0.03389 0.07395 0.79827
 H63 H -0.21807 -0.19290 0.74092
 H64 H 0.19024 0.13297 0.76186
 C65 C -0.03386 -0.36621 0.11392
 C66 C 0.02786 -0.33779 0.13695
 C67 C 0.03058 -0.27199 0.17505
 C68 C 0.09369 -0.24003 0.19350
 H69 H 0.07773 -0.36113 0.12551
 H70 H -0.01935 -0.24915 0.18654
 H71 H -0.08355 -0.34231 0.12492
 H72 H 0.14216 -0.26642 0.18281
 C73 C -0.09042 0.32082 0.10442
 C74 C -0.04056 0.28678 0.13053
 C75 C -0.06240 0.22336 0.16685
 C76 C -0.01345 0.18618 0.19120
 H77 H 0.01619 0.30386 0.12378
 H78 H -0.11909 0.20510 0.17095
 H79 H -0.14679 0.30249 0.11205
 H80 H 0.04308 0.20394 0.18392
 C81 C 0.37556 0.09637 0.62496
 C82 C 0.32638 0.04180 0.63984
 C83 C 0.26687 0.05927 0.67893
 C84 C 0.21191 0.00948 0.69180
 H85 H 0.32737 -0.01304 0.62074
 H86 H 0.26633 0.11593 0.69389
 H87 H 0.37201 0.15105 0.64391
 H88 H 0.21271 -0.04625 0.67426
 C89 C -0.32485 0.07109 0.61380
 C90 C -0.30944 0.00563 0.63276
 C91 C -0.24699 -0.00266 0.66819
 C92 C -0.23322 -0.07026 0.68383
 H93 H -0.34224 -0.04424 0.62002
 H94 H -0.21228 0.04604 0.68009
 H95 H -0.29280 0.12139 0.62647
 H96 H -0.27126 -0.11697 0.67272
 C97 C -0.01578 -0.37193 0.87976
 C98 C -0.07058 -0.34257 0.85604
 C99 C -0.05882 -0.27748 0.81986
 C100 C -0.11498 -0.24526 0.80087
 H101 H -0.12546 -0.36443 0.86578
 H102 H -0.00414 -0.25526 0.81048
 H103 H 0.03908 -0.34973 0.87048
 H104 H -0.16876 -0.27112 0.80962
 C105 C -0.04002 0.31507 0.87953
 C106 C 0.01969 0.28273 0.86540
 C107 C 0.01750 0.21683 0.82746
 C108 C 0.07707 0.18279 0.81617
 H109 H 0.07056 0.30324 0.88386
 H110 H -0.03345 0.19583 0.80959
 H111 H -0.09094 0.29418 0.86137
 H112 H 0.12786 0.20729 0.83256
 C113 C -0.32802 0.10166 0.38608
 C114 C -0.29244 0.04641 0.36464
 C115 C -0.22833 0.06482 0.32784
 C116 C -0.18490 0.01419 0.30981
 H117 H -0.30744 -0.01024 0.37659
 H118 H -0.21416 0.12248 0.31898
 H119 H -0.31016 0.15762 0.37358
 H120 H -0.19816 -0.04273 0.32182
 C121 C 0.36642 0.07384 0.39172
 C122 C 0.33842 0.00889 0.36969
 C123 C 0.27387 0.00160 0.33451
 C124 C 0.24717 -0.06558 0.31569
 H125 H 0.36201 -0.04132 0.37965
 H126 H 0.24816 0.05064 0.32535
 H127 H 0.34355 0.12446 0.38194
 H128 H 0.27655 -0.11260 0.32428
   
