data_POSCAR
  _audit_creation_date              2014-09-24
  _audit_creation_method            'ToBaCCo'
  _symmetry_space_group_name_H-M    'P1'
  _symmetry_Int_Tables_number       1
  _symmetry_cell_setting            triclinic
  loop_
  _symmetry_equiv_pos_as_xyz
 x,y,z
_cell_length_a 50.8824
_cell_length_b 50.8582
_cell_length_c 58.7954
_cell_angle_alpha 90.051600
_cell_angle_beta 89.973700
_cell_angle_gamma 120.051200
loop_
  _atom_site_label
  _atom_site_type_symbol
  _atom_site_fract_x
  _atom_site_fract_y
  _atom_site_fract_z
O1 O 0.02912 0.53613 1.27193
 O2 O -0.02979 0.50687 1.22748
 O3 O -0.02996 0.50665 1.27177
 O4 O 0.02929 0.53630 1.22763
 O5 O 0.02913 0.49285 1.22752
 O6 O -0.03011 0.46322 1.27164
 O7 O -0.02995 0.46346 1.22735
 O8 O 0.02897 0.49269 1.27181
 Cu9 Cu -0.00032 0.52584 1.24972
 Cu10 Cu -0.00051 0.47370 1.24957
 C11 C 0.03912 0.51941 1.27951
 C12 C -0.04000 0.48014 1.21973
 C13 C -0.04016 0.47986 1.27929
 C14 C 0.03934 0.51964 1.22000
 O15 O 0.46353 0.49369 1.27266
 O16 O 0.49286 0.46405 1.22822
 O17 O 0.49302 0.46411 1.27252
 O18 O 0.46339 0.49365 1.22835
 O19 O 0.50679 0.53702 1.22831
 O20 O 0.53641 0.50749 1.27246
 O21 O 0.53626 0.50742 1.22816
 O22 O 0.50689 0.53703 1.27261
 Cu23 Cu 0.47386 0.47453 1.25044
 Cu24 Cu 0.52593 0.52658 1.25038
 C25 C 0.48016 0.52045 1.28032
 C26 C 0.51958 0.48067 1.22055
 C27 C 0.51979 0.48075 1.28008
 C28 C 0.48003 0.52039 1.22074
 O29 O 0.50630 0.97037 1.27297
 O30 O 0.53616 1.02936 1.22856
 O31 O 0.53602 1.02950 1.27287
 O32 O 0.50637 0.97023 1.22866
 O33 O 0.46311 0.97039 1.22857
 O34 O 0.49279 1.02965 1.27276
 O35 O 0.49290 1.02952 1.22846
 O36 O 0.46307 0.97053 1.27288
 Cu37 Cu 0.52553 0.99985 1.25078
 Cu38 Cu 0.47364 1.00004 1.25066
 C39 C 0.47956 0.96031 1.28061
 C40 C 0.51963 1.03952 1.22088
 C41 C 0.51950 1.03977 1.28045
 C42 C 0.47966 0.96018 1.22102
 O43 O 0.97078 0.50731 0.72759
 O44 O 1.03004 0.53693 0.77173
 O45 O 1.02988 0.53694 0.72743
 O46 O 0.97094 0.50722 0.77190
 O47 O 0.97101 0.46390 0.77176
 O48 O 1.02995 0.49365 0.72730
 O49 O 1.03011 0.49360 0.77161
 O50 O 0.97084 0.46398 0.72745
 Cu51 Cu 1.00040 0.52643 0.74967
 Cu52 Cu 1.00049 0.47445 0.74951
 C53 C 0.96068 0.48058 0.71993
 C54 C 1.04021 0.52033 0.77926
 C55 C 1.04005 0.52041 0.71967
 C56 C 0.96089 0.48047 0.77947
 O57 O 0.49296 0.46327 0.72795
 O58 O 0.46350 0.49300 0.77212
 O59 O 0.46343 0.49280 0.72783
 O60 O 0.49308 0.46353 0.77225
 O61 O 0.53644 0.50695 0.77214
 O62 O 0.50679 0.53621 0.72773
 O63 O 0.50685 0.53643 0.77203
 O64 O 0.53632 0.50668 0.72784
 Cu65 Cu 0.47389 0.47380 0.75005
 Cu66 Cu 0.52595 0.52592 0.74992
 C67 C 0.51967 0.47989 0.72031
 C68 C 0.48013 0.51979 0.77967
 C69 C 0.48004 0.51951 0.72015
 C70 C 0.51983 0.48024 0.77982
 O71 O 0.53660 0.02932 0.72762
 O72 O 0.50713 -0.02988 0.77176
 O73 O 0.50718 -0.02979 0.72747
 O74 O 0.53646 0.02923 0.77192
 O75 O 0.49301 0.02901 0.77188
 O76 O 0.46378 -0.03000 0.72744
 O77 O 0.46367 -0.03010 0.77174
 O78 O 0.49316 0.02911 0.72758
 Cu79 Cu 0.52619 -0.00026 0.74970
 Cu80 Cu 0.47405 -0.00052 0.74966
 C81 C 0.51993 0.03934 0.72001
 C82 C 0.48036 -0.04011 0.77934
 C83 C 0.48045 -0.04004 0.71977
 C84 C 0.51974 0.03921 0.77954
 O85 O 0.37913 0.65960 0.98130
 O86 O 0.37779 0.70945 0.97388
 C87 C 0.36375 0.72361 0.96968
 O88 O 0.34090 0.71973 0.98120
 O89 O 0.29107 0.66847 0.97366
 C90 C 0.27690 0.64023 0.96948
 O91 O 0.28072 0.62127 0.98105
 O92 O 0.33197 0.62271 0.97376
 C93 C 0.36022 0.63678 0.96968
 O94 O 0.37753 0.66844 1.02647
 O95 O 0.37901 0.71970 1.01905
 C96 C 0.36003 0.72357 1.03057
 O97 O 0.33181 0.70939 1.02634
 O98 O 0.28060 0.65954 1.01880
 C99 C 0.27666 0.63670 1.03036
 O100 O 0.29082 0.62264 1.02624
 O101 O 0.34066 0.62125 1.01895
 C102 C 0.36344 0.64019 1.03058
 Cr103 Cr 0.37675 0.68849 1.00017
 Cr104 Cr 0.31190 0.68847 1.00000
 Cr105 Cr 0.31185 0.62358 1.00000
 O106 O 0.33350 0.66685 1.00006
 O107 O 0.62127 0.34058 0.98130
 O108 O 0.62258 0.29065 0.97401
 C109 C 0.63668 0.27654 0.96978
 O110 O 0.65964 0.28059 0.98123
 O111 O 0.70955 0.33187 0.97390
 C112 C 0.72367 0.36011 0.96969
 O113 O 0.71968 0.37905 0.98118
 O114 O 0.66841 0.37764 0.97396
 C115 C 0.64018 0.36350 0.96979
 O116 O 0.62272 0.33195 1.02651
 O117 O 0.62129 0.28064 1.01923
 C118 C 0.64022 0.27664 1.03068
 O119 O 0.66844 0.29074 1.02644
 O120 O 0.71971 0.34067 1.01911
 C121 C 0.72376 0.36363 1.03059
 O122 O 0.70967 0.37775 1.02640
 O123 O 0.65978 0.37910 1.01918
 C124 C 0.63685 0.36020 1.03069
 Cr125 Cr 0.62361 0.31178 1.00026
 Cr126 Cr 0.68851 0.31179 1.00017
 Cr127 Cr 0.68856 0.37674 1.00018
 O128 O 0.66689 0.33344 1.00021
 O129 O 0.65920 0.37867 0.51874
 O130 O 0.70902 0.37729 0.52615
 C131 C 0.72319 0.36324 0.53027
 O132 O 0.71929 0.34042 0.51869
 O133 O 0.66803 0.29055 0.52606
 C134 C 0.63979 0.27636 0.53019
 O135 O 0.62086 0.28022 0.51861
 O136 O 0.62228 0.33146 0.52608
 C137 C 0.63635 0.35970 0.53027
 O138 O 0.66812 0.37733 0.47357
 O139 O 0.71932 0.37873 0.48098
 C140 C 0.72319 0.35978 0.46939
 O141 O 0.70901 0.33154 0.47352
 O142 O 0.65917 0.28026 0.48089
 C143 C 0.63636 0.27637 0.46931
 O144 O 0.62232 0.29055 0.47346
 O145 O 0.62093 0.34039 0.48093
 C146 C 0.63989 0.36326 0.46940
 Cr147 Cr 0.68811 0.37638 0.49986
 Cr148 Cr 0.68807 0.31150 0.49979
 Cr149 Cr 0.62322 0.31147 0.49977
 O150 O 0.66646 0.33312 0.49981
 O151 O 0.33172 0.62259 0.52616
 O152 O 0.28043 0.62117 0.51898
 C153 C 0.27645 0.64011 0.53049
 O154 O 0.29058 0.66834 0.52629
 O155 O 0.34049 0.71964 0.51898
 C156 C 0.36346 0.72367 0.53040
 O157 O 0.37755 0.70957 0.52614
 O158 O 0.37886 0.65964 0.51881
 C159 C 0.35995 0.63671 0.53031
 O160 O 0.34032 0.62116 0.48093
 O161 O 0.29043 0.62252 0.47375
 C162 C 0.27633 0.63664 0.46958
 O163 O 0.28038 0.65959 0.48108
 O164 O 0.33165 0.70953 0.47377
 C165 C 0.35986 0.72365 0.46952
 O166 O 0.37880 0.71962 0.48093
 O167 O 0.37737 0.66832 0.47360
 C168 C 0.36324 0.64008 0.46942
 Cr169 Cr 0.31155 0.62350 0.49995
 Cr170 Cr 0.31160 0.68845 0.50003
 Cr171 Cr 0.37650 0.68847 0.49988
 O172 O 0.33322 0.66681 0.49995
 C173 C 0.47611 0.57235 0.32324
 C174 C 0.44680 0.55411 0.33185
 C175 C 0.42850 0.52475 0.32328
 C176 C 0.43945 0.51360 0.30620
 C177 C 0.46901 0.53170 0.29739
 C178 C 0.48717 0.56130 0.30615
 C179 C 0.43556 0.56544 0.34959
 C180 C 0.42621 0.57491 0.36450
 C181 C 0.41533 0.58596 0.38202
 C182 C 0.40611 0.59539 0.39704
 C183 C 0.39518 0.60663 0.41505
 C184 C 0.36970 0.58649 0.42776
 C185 C 0.35924 0.59734 0.44540
 C186 C 0.37417 0.62856 0.45059
 C187 C 0.39972 0.64864 0.43764
 C188 C 0.41012 0.63772 0.42001
 H189 H 0.49048 0.59511 0.32976
 H190 H 0.40576 0.51043 0.32984
 H191 H 0.42471 0.49075 0.29998
 H192 H 0.50999 0.57600 0.29989
 H193 H 0.35795 0.56237 0.42406
 H194 H 0.33950 0.58125 0.45497
 H195 H 0.41174 0.67279 0.44114
 H196 H 0.42987 0.65352 0.41029
 C197 C 0.47502 0.90427 0.32355
 C198 C 0.44569 0.89327 0.33210
 C199 C 0.42754 0.90442 0.32347
 C200 C 0.43866 0.92653 0.30640
 C201 C 0.46823 0.93790 0.29766
 C202 C 0.48624 0.92637 0.30648
 C203 C 0.43429 0.87070 0.34982
 C204 C 0.42479 0.85188 0.36471
 C205 C 0.41373 0.82993 0.38222
 C206 C 0.40432 0.81128 0.39723
 C207 C 0.39313 0.78910 0.41523
 C208 C 0.36208 0.77297 0.42026
 C209 C 0.35121 0.75163 0.43786
 C210 C 0.37131 0.74612 0.45072
 C211 C 0.40250 0.76241 0.44546
 C212 C 0.41329 0.78373 0.42784
 H213 H 0.48927 0.89580 0.33012
 H214 H 0.40479 0.89607 0.32997
 H215 H 0.42403 0.93471 0.30013
 H216 H 0.50907 0.93443 0.30028
 H217 H 0.34626 0.77694 0.41060
 H218 H 0.32709 0.73950 0.44142
 H219 H 0.41860 0.75873 0.45496
 H220 H 0.43737 0.79609 0.42409
 C221 C 0.09597 0.52385 0.32328
 C222 C 0.10710 0.55318 0.33194
 C223 C 0.09613 0.57153 0.32339
 C224 C 0.07408 0.56061 0.30628
 C225 C 0.06268 0.53111 0.29749
 C226 C 0.07392 0.51286 0.30617
 C227 C 0.12960 0.56436 0.34971
 C228 C 0.14837 0.57367 0.36464
 C229 C 0.17024 0.58452 0.38219
 C230 C 0.18885 0.59372 0.39723
 C231 C 0.21097 0.60463 0.41526
 C232 C 0.21633 0.63013 0.42796
 C233 C 0.23762 0.64060 0.44560
 C234 C 0.25387 0.62566 0.45079
 C235 C 0.24836 0.60009 0.43784
 C236 C 0.22705 0.58967 0.42021
 H237 H 0.10430 0.50944 0.32978
 H238 H 0.10458 0.59427 0.32999
 H239 H 0.06592 0.57523 0.29999
 H240 H 0.06564 0.49007 0.29978
 H241 H 0.20400 0.64188 0.42427
 H242 H 0.24130 0.66036 0.45518
 H243 H 0.26046 0.58806 0.44134
 H244 H 0.22308 0.56991 0.41048
 C245 C 0.52467 0.42841 0.32363
 C246 C 0.55406 0.44670 0.33213
 C247 C 0.57231 0.47605 0.32354
 C248 C 0.56121 0.48712 0.30655
 C249 C 0.53166 0.46894 0.29793
 C250 C 0.51351 0.43943 0.30664
 C251 C 0.56541 0.43546 0.34978
 C252 C 0.57489 0.42612 0.36464
 C253 C 0.58596 0.41527 0.38211
 C254 C 0.59539 0.40607 0.39710
 C255 C 0.60660 0.39517 0.41509
 C256 C 0.63766 0.41009 0.42001
 C257 C 0.64855 0.39970 0.43764
 C258 C 0.62843 0.37420 0.45061
 C259 C 0.59722 0.35929 0.44545
 C260 C 0.58642 0.36974 0.42781
 H261 H 0.51035 0.40566 0.33018
 H262 H 0.59509 0.49040 0.33001
 H263 H 0.57576 0.50993 0.30021
 H264 H 0.49067 0.42486 0.30037
 H265 H 0.65348 0.42981 0.41026
 H266 H 0.67269 0.41169 0.44112
 H267 H 0.58112 0.33958 0.45504
 H268 H 0.56231 0.35802 0.42413
 C269 C 0.52382 0.09604 0.32311
 C270 C 0.55310 0.10707 0.33174
 C271 C 0.57131 0.09590 0.32326
 C272 C 0.56028 0.07370 0.30624
 C273 C 0.53075 0.06228 0.29743
 C274 C 0.51269 0.07384 0.30610
 C275 C 0.56436 0.12967 0.34943
 C276 C 0.57370 0.14850 0.36432
 C277 C 0.58454 0.17042 0.38183
 C278 C 0.59372 0.18905 0.39685
 C279 C 0.60458 0.21116 0.41488
 C280 C 0.62994 0.21639 0.42766
 C281 C 0.64035 0.23765 0.44534
 C282 C 0.62547 0.25397 0.45048
 C283 C 0.60003 0.24860 0.43745
 C284 C 0.58968 0.22733 0.41979
 H285 H 0.50953 0.10454 0.32958
 H286 H 0.59402 0.10429 0.32985
 H287 H 0.57494 0.06549 0.30008
 H288 H 0.48988 0.06575 0.29982
 H289 H 0.64164 0.20399 0.42400
 H290 H 0.66000 0.24123 0.45498
 H291 H 0.58806 0.26077 0.44092
 H292 H 0.57002 0.22344 0.40999
 C293 C 0.90261 0.42735 0.32279
 C294 C 0.89163 0.44564 0.33146
 C295 C 0.90276 0.47504 0.32298
 C296 C 0.92489 0.48617 0.30594
 C297 C 0.93617 0.46800 0.29716
 C298 C 0.92473 0.43842 0.30575
 C299 C 0.86914 0.43433 0.34920
 C300 C 0.85042 0.42487 0.36413
 C301 C 0.82862 0.41381 0.38170
 C302 C 0.81011 0.40439 0.39678
 C303 C 0.78812 0.39316 0.41486
 C304 C 0.78297 0.41333 0.42768
 C305 C 0.76181 0.40250 0.44540
 C306 C 0.74552 0.37128 0.45054
 C307 C 0.75083 0.35118 0.43748
 C308 C 0.77200 0.36208 0.41978
 H309 H 0.89415 0.40455 0.32925
 H310 H 0.89442 0.48939 0.32960
 H311 H 0.93321 0.50903 0.29970
 H312 H 0.93293 0.42385 0.29936
 H313 H 0.79534 0.43745 0.42401
 H314 H 0.75827 0.41860 0.45506
 H315 H 0.73868 0.32702 0.44095
 H316 H 0.77583 0.34628 0.40995
 C317 C 0.52412 0.42817 1.17682
 C318 C 0.55345 0.44641 1.16818
 C319 C 0.57176 0.47579 1.17674
 C320 C 0.56081 0.48693 1.19383
 C321 C 0.53131 0.46880 1.20258
 C322 C 0.51310 0.43926 1.19390
 C323 C 0.56466 0.43504 1.15045
 C324 C 0.57398 0.42555 1.13555
 C325 C 0.58483 0.41445 1.11804
 C326 C 0.59403 0.40499 1.10302
 C327 C 0.60494 0.39371 1.08502
 C328 C 0.63042 0.41384 1.07231
 C329 C 0.64087 0.40296 1.05468
 C330 C 0.62592 0.37174 1.04950
 C331 C 0.60037 0.35168 1.06245
 C332 C 0.58997 0.36262 1.08007
 H333 H 0.50973 0.40540 1.17031
 H334 H 0.59450 0.49011 1.17018
 H335 H 0.57540 0.50976 1.20013
 H336 H 0.49031 0.42472 1.20026
 H337 H 0.64219 0.43795 1.07600
 H338 H 0.66062 0.41904 1.04510
 H339 H 0.58833 0.32752 1.05896
 H340 H 0.57022 0.34684 1.08979
 C341 C 0.90420 0.47627 1.17686
 C342 C 0.89305 0.44695 1.16819
 C343 C 0.90401 0.42860 1.17671
 C344 C 0.92609 0.43949 1.19380
 C345 C 0.93762 0.46904 1.20267
 C346 C 0.92627 0.48726 1.19395
 C347 C 0.87052 0.43580 1.15045
 C348 C 0.85174 0.42651 1.13553
 C349 C 0.82985 0.41570 1.11799
 C350 C 0.81123 0.40652 1.10296
 C351 C 0.78911 0.39562 1.08493
 C352 C 0.78373 0.37011 1.07224
 C353 C 0.76244 0.35965 1.05459
 C354 C 0.74622 0.37461 1.04939
 C355 C 0.75175 0.40020 1.06233
 C356 C 0.77305 0.41061 1.07996
 H357 H 0.89587 0.49068 1.17038
 H358 H 0.89554 0.40586 1.17011
 H359 H 0.93413 0.42470 1.19999
 H360 H 0.93445 0.51008 1.20026
 H361 H 0.79603 0.35834 1.07594
 H362 H 0.75874 0.33988 1.04503
 H363 H 0.73967 0.41224 1.05882
 H364 H 0.77704 0.43038 1.08968
 C365 C 0.52476 0.09660 1.17701
 C366 C 0.55411 0.10756 1.16847
 C367 C 0.57225 0.09641 1.17715
 C368 C 0.56110 0.07435 1.19425
 C369 C 0.53158 0.06311 1.20291
 C370 C 0.51355 0.07453 1.19411
 C371 C 0.56553 0.13007 1.15070
 C372 C 0.57506 0.14883 1.13577
 C373 C 0.58618 0.17070 1.11821
 C374 C 0.59563 0.18929 1.10316
 C375 C 0.60686 0.21139 1.08510
 C376 C 0.63792 0.22746 1.08008
 C377 C 0.64881 0.24873 1.06242
 C378 C 0.62874 0.25422 1.04951
 C379 C 0.59755 0.23799 1.05477
 C380 C 0.58673 0.21673 1.07243
 H381 H 0.51051 0.10505 1.17041
 H382 H 0.59500 0.10472 1.17066
 H383 H 0.57556 0.06605 1.20064
 H384 H 0.49075 0.06638 1.20039
 H385 H 0.65371 0.22351 1.08978
 H386 H 0.67294 0.26082 1.05887
 H387 H 0.58147 0.24165 1.04522
 H388 H 0.56264 0.20442 1.07617
 C389 C 0.47535 0.57275 1.17711
 C390 C 0.44601 0.55447 1.16853
 C391 C 0.42770 0.52513 1.17711
 C392 C 0.43870 0.51404 1.19417
 C393 C 0.46822 0.53221 1.20286
 C394 C 0.48641 0.56172 1.19416
 C395 C 0.43481 0.56573 1.15079
 C396 C 0.42552 0.57515 1.13585
 C397 C 0.41476 0.58618 1.11828
 C398 C 0.40567 0.59559 1.10321
 C399 C 0.39491 0.60681 1.08513
 C400 C 0.36960 0.58663 1.07228
 C401 C 0.35930 0.59746 1.05456
 C402 C 0.37423 0.62869 1.04944
 C403 C 0.39962 0.64880 1.06253
 C404 C 0.40986 0.63789 1.08024
 H405 H 0.48972 0.59549 1.17057
 H406 H 0.40495 0.51078 1.17057
 H407 H 0.42412 0.49123 1.20049
 H408 H 0.50922 0.57628 1.20048
 H409 H 0.35786 0.56251 1.07593
 H410 H 0.33968 0.58136 1.04488
 H411 H 0.41162 0.67296 1.05908
 H412 H 0.42948 0.65371 1.09008
 C413 C 0.09646 0.52433 1.17641
 C414 C 0.10763 0.55371 1.16789
 C415 C 0.09665 0.57204 1.17648
 C416 C 0.07449 0.56102 1.19350
 C417 C 0.06303 0.53147 1.20214
 C418 C 0.07430 0.51325 1.19343
 C419 C 0.13018 0.56494 1.15019
 C420 C 0.14896 0.57425 1.13530
 C421 C 0.17083 0.58504 1.11778
 C422 C 0.18941 0.59417 1.10275
 C423 C 0.21148 0.60499 1.08472
 C424 C 0.21672 0.63036 1.07194
 C425 C 0.23796 0.64073 1.05428
 C426 C 0.25424 0.62581 1.04915
 C427 C 0.24885 0.60036 1.06217
 C428 C 0.22760 0.59004 1.07983
 H429 H 0.10480 0.50995 1.16986
 H430 H 0.10514 0.59482 1.16998
 H431 H 0.06629 0.57561 1.19984
 H432 H 0.06596 0.49041 1.19971
 H433 H 0.20435 0.64209 1.07560
 H434 H 0.24157 0.66040 1.04464
 H435 H 0.26099 0.58836 1.05872
 H436 H 0.22370 0.57037 1.08962
 C437 C 0.47475 0.90296 1.17736
 C438 C 0.44545 0.89200 1.16874
 C439 C 0.42725 0.90315 1.17731
 C440 C 0.43832 0.92525 1.19439
 C441 C 0.46779 0.93651 1.20312
 C442 C 0.48588 0.92507 1.19444
 C443 C 0.43415 0.86952 1.15097
 C444 C 0.42471 0.85080 1.13600
 C445 C 0.41370 0.82900 1.11840
 C446 C 0.40432 0.81049 1.10329
 C447 C 0.39317 0.78850 1.08518
 C448 C 0.36212 0.77239 1.08016
 C449 C 0.35129 0.75122 1.06243
 C450 C 0.37144 0.74590 1.04944
 C451 C 0.40262 0.76219 1.05469
 C452 C 0.41337 0.78334 1.07243
 H453 H 0.48903 0.89449 1.17083
 H454 H 0.40454 0.89482 1.17074
 H455 H 0.42383 0.93358 1.20069
 H456 H 0.50865 0.93325 1.20079
 H457 H 0.34628 0.77622 1.08993
 H458 H 0.32717 0.73907 1.05888
 H459 H 0.41875 0.75864 1.04509
 H460 H 0.43746 0.79570 1.07618
 C461 C 0.57186 0.47494 0.67662
 C462 C 0.55354 0.44553 0.66813
 C463 C 0.52424 0.42728 0.67678
 C464 C 0.51323 0.43840 0.69383
 C465 C 0.53143 0.46798 0.70243
 C466 C 0.56091 0.48612 0.69366
 C467 C 0.56470 0.43417 0.65040
 C468 C 0.57396 0.42468 0.63548
 C469 C 0.58472 0.41361 0.61793
 C470 C 0.59384 0.40418 0.60286
 C471 C 0.60465 0.39298 0.58479
 C472 C 0.58969 0.36190 0.57982
 C473 C 0.60001 0.35103 0.56212
 C474 C 0.62547 0.37116 0.54912
 C475 C 0.64041 0.40237 0.55433
 C476 C 0.63003 0.41317 0.57204
 H477 H 0.59458 0.48926 0.67002
 H478 H 0.50987 0.40448 0.67031
 H479 H 0.49045 0.42386 0.70020
 H480 H 0.57549 0.50898 0.69991
 H481 H 0.57001 0.34608 0.58960
 H482 H 0.58799 0.32688 0.55861
 H483 H 0.66009 0.41849 0.54471
 H484 H 0.64178 0.43728 0.57575
 C485 C 0.52461 0.09639 0.67638
 C486 C 0.55399 0.10757 0.66786
 C487 C 0.57231 0.09660 0.67648
 C488 C 0.56129 0.07447 0.69351
 C489 C 0.53173 0.06301 0.70215
 C490 C 0.51353 0.07426 0.69342
 C491 C 0.56526 0.13009 0.65015
 C492 C 0.57470 0.14885 0.63524
 C493 C 0.58574 0.17069 0.61771
 C494 C 0.59516 0.18925 0.60266
 C495 C 0.60639 0.21129 0.58462
 C496 C 0.63746 0.22745 0.57972
 C497 C 0.64837 0.24867 0.56204
 C498 C 0.62828 0.25399 0.54901
 C499 C 0.59707 0.23766 0.55415
 C500 C 0.58623 0.21646 0.57183
 H501 H 0.51024 0.10472 0.66982
 H502 H 0.59509 0.10510 0.66998
 H503 H 0.57587 0.06630 0.69986
 H504 H 0.49069 0.06591 0.69970
 H505 H 0.65325 0.22361 0.58952
 H506 H 0.67252 0.26085 0.55858
 H507 H 0.58099 0.24120 0.54450
 H508 H 0.56212 0.20405 0.57550
 C509 C 0.90341 0.47582 0.67647
 C510 C 0.89234 0.44650 0.66782
 C511 C 0.90346 0.42824 0.67628
 C512 C 0.92563 0.43926 0.69330
 C513 C 0.93698 0.46876 0.70207
 C514 C 0.92558 0.48690 0.69349
 C515 C 0.86977 0.43527 0.65013
 C516 C 0.85096 0.42594 0.63524
 C517 C 0.82906 0.41511 0.61773
 C518 C 0.81045 0.40593 0.60271
 C519 C 0.78836 0.39506 0.58468
 C520 C 0.78313 0.36968 0.57189
 C521 C 0.76189 0.35927 0.55422
 C522 C 0.74558 0.37415 0.54910
 C523 C 0.75095 0.39961 0.56214
 C524 C 0.77220 0.40997 0.57980
 H525 H 0.89496 0.49016 0.67003
 H526 H 0.89506 0.40551 0.66968
 H527 H 0.93393 0.42472 0.69953
 H528 H 0.93382 0.50970 0.69987
 H529 H 0.79551 0.35797 0.57553
 H530 H 0.75830 0.33959 0.54457
 H531 H 0.73879 0.41159 0.55869
 H532 H 0.77609 0.42965 0.58960
 C533 C 0.47521 0.57164 0.67632
 C534 C 0.44585 0.55331 0.66778
 C535 C 0.42760 0.52399 0.67643
 C536 C 0.43867 0.51299 0.69351
 C537 C 0.46819 0.53122 0.70218
 C538 C 0.48633 0.56071 0.69341
 C539 C 0.43453 0.56450 0.65004
 C540 C 0.42507 0.57382 0.63513
 C541 C 0.41403 0.58467 0.61761
 C542 C 0.40462 0.59387 0.60259
 C543 C 0.39339 0.60477 0.58459
 C544 C 0.36231 0.58982 0.57965
 C545 C 0.35140 0.60021 0.56204
 C546 C 0.37147 0.62577 0.54909
 C547 C 0.40268 0.64070 0.55426
 C548 C 0.41352 0.63025 0.57188
 H549 H 0.48954 0.59438 0.66975
 H550 H 0.40484 0.50959 0.66993
 H551 H 0.42412 0.49021 0.69988
 H552 H 0.50915 0.57532 0.69970
 H553 H 0.34652 0.57007 0.58938
 H554 H 0.32726 0.58819 0.55856
 H555 H 0.41876 0.66045 0.54468
 H556 H 0.43763 0.64201 0.57556
 C557 C 0.47652 0.90414 0.67680
 C558 C 0.44720 0.89297 0.66819
 C559 C 0.42886 0.90392 0.67678
 C560 C 0.43977 0.92601 0.69389
 C561 C 0.46933 0.93756 0.70270
 C562 C 0.48754 0.92622 0.69391
 C563 C 0.43602 0.87044 0.65042
 C564 C 0.42669 0.85166 0.63548
 C565 C 0.41581 0.82977 0.61792
 C566 C 0.40658 0.81115 0.60286
 C567 C 0.39561 0.78903 0.58481
 C568 C 0.37010 0.78368 0.57218
 C569 C 0.35957 0.76238 0.55452
 C570 C 0.37448 0.74613 0.54923
 C571 C 0.40008 0.75163 0.56210
 C572 C 0.41055 0.77293 0.57975
 H573 H 0.49092 0.89582 0.67025
 H574 H 0.40612 0.89543 0.67022
 H575 H 0.42499 0.93403 0.70013
 H576 H 0.51037 0.93442 0.70016
 H577 H 0.35836 0.79601 0.57595
 H578 H 0.33980 0.75871 0.54500
 H579 H 0.41209 0.73952 0.55853
 H580 H 0.43033 0.77689 0.58942
 C581 C 0.09600 0.52483 0.67664
 C582 C 0.10702 0.55418 0.66811
 C583 C 0.09593 0.57237 0.67678
 C584 C 0.07385 0.56129 0.69387
 C585 C 0.06244 0.53170 0.70260
 C586 C 0.07391 0.51364 0.69373
 C587 C 0.12957 0.56554 0.65036
 C588 C 0.14837 0.57503 0.63544
 C589 C 0.17029 0.58609 0.61791
 C590 C 0.18893 0.59551 0.60288
 C591 C 0.21109 0.60674 0.58486
 C592 C 0.22723 0.63781 0.57989
 C593 C 0.24855 0.64871 0.56226
 C594 C 0.25401 0.62862 0.54931
 C595 C 0.23771 0.59741 0.55451
 C596 C 0.21641 0.58658 0.57216
 H597 H 0.10442 0.51054 0.67005
 H598 H 0.10431 0.59513 0.67029
 H599 H 0.06571 0.57596 0.70017
 H600 H 0.06583 0.49080 0.69992
 H601 H 0.22330 0.65363 0.58961
 H602 H 0.26069 0.67286 0.55876
 H603 H 0.24135 0.58131 0.54494
 H604 H 0.20404 0.56247 0.57585
 C605 C 0.47543 0.57225 0.82328
 C606 C 0.44611 0.55395 0.83188
 C607 C 0.42783 0.52457 0.82333
 C608 C 0.43884 0.51347 0.80627
 C609 C 0.46834 0.53165 0.79755
 C610 C 0.48650 0.56121 0.80622
 C611 C 0.43485 0.56520 0.84962
 C612 C 0.42543 0.57451 0.86455
 C613 C 0.41439 0.58530 0.88210
 C614 C 0.40496 0.59442 0.89717
 C615 C 0.39371 0.60520 0.91523
 C616 C 0.36263 0.59024 0.92009
 C617 C 0.35169 0.60052 0.93777
 C618 C 0.37176 0.62594 0.95086
 C619 C 0.40299 0.64087 0.94577
 C620 C 0.41385 0.63053 0.92807
 H621 H 0.48977 0.59503 0.82980
 H622 H 0.40510 0.51021 0.82989
 H623 H 0.42428 0.49063 0.79998
 H624 H 0.50930 0.57578 0.79988
 H625 H 0.34684 0.57060 0.91025
 H626 H 0.32753 0.58852 0.94120
 H627 H 0.41906 0.66051 0.95546
 H628 H 0.43797 0.64227 0.92444
 C629 C 0.09741 0.52518 0.82283
 C630 C 0.10842 0.55451 0.83146
 C631 C 0.09731 0.57275 0.82293
 C632 C 0.07520 0.56169 0.80588
 C633 C 0.06388 0.53219 0.79714
 C634 C 0.07528 0.51407 0.80578
 C635 C 0.13093 0.56581 0.84920
 C636 C 0.14966 0.57525 0.86414
 C637 C 0.17148 0.58629 0.88171
 C638 C 0.19001 0.59570 0.89679
 C639 C 0.21201 0.60691 0.91488
 C640 C 0.22816 0.63799 0.91984
 C641 C 0.24933 0.64888 0.93756
 C642 C 0.25460 0.62876 0.95059
 C643 C 0.23828 0.59753 0.94540
 C644 C 0.21714 0.58672 0.92767
 H645 H 0.10585 0.51087 0.82933
 H646 H 0.10568 0.59549 0.82950
 H647 H 0.06691 0.57622 0.79960
 H648 H 0.06706 0.49127 0.79943
 H649 H 0.22436 0.65381 0.91004
 H650 H 0.26149 0.67303 0.94105
 H651 H 0.24179 0.58142 0.95505
 H652 H 0.20474 0.56261 0.92397
 C653 C 0.42816 0.90270 0.82301
 C654 C 0.44653 0.89179 0.83159
 C655 C 0.47587 0.90295 0.82299
 C656 C 0.48687 0.92503 0.80592
 C657 C 0.46861 0.93624 0.79723
 C658 C 0.43909 0.92478 0.80593
 C659 C 0.43540 0.86935 0.84935
 C660 C 0.42616 0.85066 0.86431
 C661 C 0.41543 0.82891 0.88191
 C662 C 0.40633 0.81044 0.89701
 C663 C 0.39552 0.78849 0.91513
 C664 C 0.41047 0.77241 0.92012
 C665 C 0.40014 0.75126 0.93784
 C666 C 0.37468 0.74594 0.95083
 C667 C 0.35977 0.76220 0.94561
 C668 C 0.37015 0.78332 0.92788
 H669 H 0.40541 0.89422 0.82956
 H670 H 0.49029 0.89466 0.82953
 H671 H 0.50968 0.93337 0.79959
 H672 H 0.42447 0.93293 0.79962
 H673 H 0.43014 0.77625 0.91035
 H674 H 0.41213 0.73914 0.94137
 H675 H 0.34010 0.75864 0.95522
 H676 H 0.35842 0.79567 0.92414
 C677 C 0.52472 0.42817 0.82367
 C678 C 0.55409 0.44652 0.83220
 C679 C 0.57232 0.47583 0.82353
 C680 C 0.56123 0.48680 0.80644
 C681 C 0.53170 0.46855 0.79778
 C682 C 0.51358 0.43907 0.80658
 C683 C 0.56545 0.43537 0.84994
 C684 C 0.57494 0.42610 0.86486
 C685 C 0.58602 0.41532 0.88239
 C686 C 0.59547 0.40617 0.89742
 C687 C 0.60672 0.39531 0.91545
 C688 C 0.63779 0.41031 0.92040
 C689 C 0.64872 0.39996 0.93803
 C690 C 0.62866 0.37441 0.95099
 C691 C 0.59745 0.35944 0.94581
 C692 C 0.58660 0.36985 0.92816
 H693 H 0.51041 0.40544 0.83026
 H694 H 0.59509 0.49025 0.83001
 H695 H 0.57576 0.50958 0.80005
 H696 H 0.49076 0.42445 0.80030
 H697 H 0.65358 0.43005 0.91066
 H698 H 0.67286 0.41201 0.94152
 H699 H 0.58138 0.33970 0.95539
 H700 H 0.56250 0.35806 0.92448
 C701 C 0.90398 0.42792 0.82322
 C702 C 0.89288 0.44612 0.83192
 C703 C 0.90389 0.47548 0.82339
 C704 C 0.92595 0.48666 0.80628
 C705 C 0.93732 0.46857 0.79746
 C706 C 0.92604 0.43904 0.80611
 C707 C 0.87036 0.43473 0.84969
 C708 C 0.85159 0.42523 0.86462
 C709 C 0.82970 0.41413 0.88218
 C710 C 0.81109 0.40469 0.89723
 C711 C 0.78897 0.39347 0.91528
 C712 C 0.78364 0.41362 0.92798
 C713 C 0.76237 0.40279 0.94564
 C714 C 0.74610 0.37159 0.95086
 C715 C 0.75157 0.35150 0.93792
 C716 C 0.77286 0.36240 0.92027
 H717 H 0.89563 0.40516 0.82970
 H718 H 0.89548 0.48977 0.83000
 H719 H 0.93414 0.50947 0.80001
 H720 H 0.93429 0.42453 0.79971
 H721 H 0.79598 0.43772 0.92426
 H722 H 0.75872 0.41889 0.95520
 H723 H 0.73946 0.32736 0.94144
 H724 H 0.77680 0.34658 0.91055
 C725 C 0.52411 0.09610 0.82333
 C726 C 0.55343 0.10728 0.83198
 C727 C 0.57181 0.09635 0.82340
 C728 C 0.56091 0.07427 0.80628
 C729 C 0.53142 0.06281 0.79752
 C730 C 0.51315 0.07402 0.80622
 C731 C 0.56457 0.12981 0.84975
 C732 C 0.57384 0.14858 0.86469
 C733 C 0.58463 0.17047 0.88226
 C734 C 0.59380 0.18908 0.89732
 C735 C 0.60469 0.21120 0.91537
 C736 C 0.63019 0.21657 0.92804
 C737 C 0.64065 0.23785 0.94571
 C738 C 0.62570 0.25408 0.95096
 C739 C 0.60013 0.24856 0.93805
 C740 C 0.58972 0.22726 0.92039
 H741 H 0.50968 0.10440 0.82986
 H742 H 0.59455 0.10483 0.82997
 H743 H 0.57556 0.06613 0.79997
 H744 H 0.49036 0.06569 0.79986
 H745 H 0.64196 0.20426 0.92430
 H746 H 0.66041 0.24154 0.95525
 H747 H 0.58810 0.26065 0.94160
 H748 H 0.56996 0.22328 0.91069
   
