data_POSCAR
  _audit_creation_date              2014-09-24
  _audit_creation_method            'ToBaCCo'
  _symmetry_space_group_name_H-M    'P1'
  _symmetry_Int_Tables_number       1
  _symmetry_cell_setting            triclinic
  loop_
  _symmetry_equiv_pos_as_xyz
 x,y,z
_cell_length_a 48.5194
_cell_length_b 48.8554
_cell_length_c 21.6484
_cell_angle_alpha 90.316400
_cell_angle_beta 89.801400
_cell_angle_gamma 118.944300
loop_
  _atom_site_label
  _atom_site_type_symbol
  _atom_site_fract_x
  _atom_site_fract_y
  _atom_site_fract_z
C1 C 0.15965 0.45762 0.53586
 C2 C 0.16006 0.45847 0.47253
 C3 C 0.17672 0.44355 0.45285
 N4 N 0.18686 0.43406 0.50224
 C5 C 0.17642 0.44264 0.55287
 C6 C 0.18197 0.43837 0.39031
 C7 C 0.20553 0.43024 0.37417
 C8 C 0.20712 0.41684 0.31844
 C9 C 0.23425 0.41451 0.31971
 C10 C 0.24829 0.42611 0.37645
 N11 N 0.23059 0.43545 0.40959
 C12 C 0.27815 0.43049 0.39410
 C13 C 0.28847 0.43536 0.45601
 C14 C 0.31949 0.44735 0.47443
 C15 C 0.31934 0.44728 0.53775
 C16 C 0.28808 0.43450 0.55603
 N17 N 0.26927 0.42750 0.50577
 C18 C 0.27696 0.42926 0.61794
 C19 C 0.24592 0.42310 0.63169
 C20 C 0.22929 0.40860 0.68489
 C21 C 0.20199 0.41056 0.68383
 C22 C 0.20250 0.42570 0.62958
 N23 N 0.22906 0.43286 0.59755
 C24 C 0.18062 0.43566 0.61410
 H25 H 0.14858 0.46724 0.56592
 H26 H 0.14962 0.46924 0.44434
 H27 H 0.23715 0.44741 0.55913
 H28 H 0.19054 0.40958 0.28056
 H29 H 0.24282 0.40554 0.28287
 H30 H 0.34015 0.45587 0.44526
 H31 H 0.34004 0.45622 0.56669
 H32 H 0.18409 0.40234 0.71946
 H33 H 0.23722 0.44797 0.45092
 H34 H 0.23644 0.39834 0.72140
 C35 C 0.53376 -0.16628 0.53670
 C36 C 0.53398 -0.16569 0.47329
 C37 C 0.54984 -0.18135 0.45403
 N38 N 0.55970 -0.19114 0.50341
 C39 C 0.55001 -0.18183 0.55423
 C40 C 0.55617 -0.18529 0.39185
 C41 C 0.56698 -0.20625 0.37366
 C42 C 0.58104 -0.20537 0.31733
 C43 C 0.58504 -0.23135 0.31482
 C44 C 0.57287 -0.24766 0.36935
 N45 N 0.56234 -0.23190 0.40541
 C46 C 0.57022 -0.27718 0.38338
 C47 C 0.56567 -0.28835 0.44499
 C48 C 0.55460 -0.31930 0.46205
 C49 C 0.55424 -0.31994 0.52534
 C50 C 0.56477 -0.28947 0.54491
 N51 N 0.57174 -0.27016 0.49589
 C52 C 0.56883 -0.27956 0.60707
 C53 C 0.57335 -0.24983 0.62445
 C54 C 0.58565 -0.23541 0.68057
 C55 C 0.58192 -0.20929 0.68320
 C56 C 0.56693 -0.20881 0.62898
 N57 N 0.56240 -0.23330 0.59281
 C58 C 0.55579 -0.18742 0.61599
 H59 H 0.52238 -0.15680 0.56624
 H60 H 0.52324 -0.15536 0.44464
 H61 H 0.54863 -0.24082 0.55307
 H62 H 0.58745 -0.18797 0.28148
 H63 H 0.59540 -0.23767 0.27679
 H64 H 0.54692 -0.33950 0.43213
 H65 H 0.54658 -0.34058 0.55358
 H66 H 0.58883 -0.19290 0.72137
 H67 H 0.54923 -0.24009 0.44582
 H68 H 0.59562 -0.24332 0.71641
 C69 C 1.11642 0.72201 0.46980
 C70 C 1.11822 0.72002 0.53262
 C71 C 1.14997 0.73623 0.54765
 N72 N 1.16753 0.74896 0.49661
 C73 C 1.14704 0.73990 0.44903
 C74 C 1.16293 0.73503 0.60524
 C75 C 1.19367 0.75864 0.62173
 C76 C 1.21305 0.75579 0.66529
 C77 C 1.24104 0.78347 0.66501
 C78 C 1.23806 0.80253 0.62127
 N79 N 1.20917 0.78718 0.59511
 C80 C 1.26174 0.83291 0.60429
 C81 C 1.26038 0.84509 0.54611
 C82 C 1.27487 0.87662 0.53138
 C83 C 1.27358 0.87821 0.46838
 C84 C 1.25818 0.84761 0.44706
 N85 N 1.24954 0.82733 0.49466
 C86 C 1.25608 0.83844 0.38458
 C87 C 1.23078 0.80929 0.36543
 C88 C 1.22959 0.79272 0.31218
 C89 C 1.20109 0.76550 0.31290
 C90 C 1.18602 0.76598 0.36701
 N91 N 1.20403 0.79276 0.39831
 C92 C 1.15639 0.74228 0.38701
 H93 H 1.09526 0.71043 0.44211
 H94 H 1.09862 0.70675 0.56338
 H95 H 1.19762 0.80009 0.43862
 H96 H 1.20822 0.73547 0.69258
 H97 H 1.26164 0.78832 0.69203
 H98 H 1.28642 0.89630 0.56269
 H99 H 1.28378 0.89935 0.44103
 H100 H 1.19290 0.74706 0.27854
 H101 H 1.20002 0.79638 0.56269
 H102 H 1.24765 0.79888 0.27736
 C103 C 0.90313 0.62571 0.53749
 C104 C 0.90454 0.62742 0.47433
 C105 C 0.87374 0.61151 0.45364
 N106 N 0.85352 0.60005 0.50163
 C107 C 0.87150 0.60826 0.55292
 C108 C 0.86487 0.60317 0.39177
 C109 C 0.83387 0.59314 0.37120
 C110 C 0.82163 0.57889 0.31482
 C111 C 0.79103 0.57341 0.31282
 C112 C 0.78536 0.58409 0.36840
 N113 N 0.81175 0.59660 0.40315
 C114 C 0.75691 0.58348 0.38495
 C115 C 0.75003 0.58808 0.44627
 C116 C 0.72558 0.59347 0.46352
 C117 C 0.72451 0.59263 0.52682
 C118 C 0.74766 0.58567 0.54621
 N119 N 0.76363 0.58345 0.49680
 C120 C 0.75166 0.57815 0.60770
 C121 C 0.77941 0.57738 0.62556
 C122 C 0.78129 0.55992 0.67411
 C123 C 0.81163 0.56486 0.67531
 C124 C 0.82773 0.58537 0.62764
 N125 N 0.80780 0.59271 0.59719
 C126 C 0.85983 0.59613 0.61212
 H127 H 0.92312 0.63496 0.56848
 H128 H 0.92576 0.63811 0.44659
 H129 H 0.81369 0.60877 0.56133
 H130 H 0.83341 0.57298 0.27885
 H131 H 0.77486 0.56268 0.27476
 H132 H 0.70987 0.59720 0.43369
 H133 H 0.70790 0.59585 0.55525
 H134 H 0.82037 0.55360 0.70648
 H135 H 0.81516 0.60896 0.44434
 H136 H 0.76244 0.54421 0.70417
 C137 C 0.44899 0.29233 0.53049
 C138 C 0.44773 0.29261 0.46729
 C139 C 0.43064 0.26172 0.44837
 N140 N 0.42116 0.24254 0.49808
 C141 C 0.43227 0.26125 0.54856
 C142 C 0.42378 0.25178 0.38601
 C143 C 0.41301 0.22046 0.36754
 C144 C 0.40098 0.20823 0.30968
 C145 C 0.39810 0.17878 0.30722
 C146 C 0.40816 0.17383 0.36380
 N147 N 0.41696 0.19921 0.40037
 C148 C 0.41234 0.14796 0.37798
 C149 C 0.41763 0.14072 0.43826
 C150 C 0.42475 0.11719 0.45232
 C151 C 0.42789 0.11752 0.51499
 C152 C 0.42280 0.14141 0.53740
 N153 N 0.41581 0.15506 0.49040
 C154 C 0.42225 0.14860 0.60064
 C155 C 0.41641 0.17300 0.62048
 C156 C 0.40642 0.17593 0.67902
 C157 C 0.40729 0.20447 0.68112
 C158 C 0.41901 0.21888 0.62468
 N159 N 0.42381 0.19920 0.58758
 C160 C 0.42790 0.25052 0.61068
 H161 H 0.46169 0.31275 0.55950
 H162 H 0.45893 0.31322 0.43856
 H163 H 0.43597 0.20524 0.54584
 H164 H 0.39593 0.21976 0.27234
 H165 H 0.39038 0.16317 0.26772
 H166 H 0.42715 0.10117 0.42087
 H167 H 0.43261 0.10137 0.54091
 H168 H 0.40105 0.21397 0.72069
 H169 H 0.42948 0.20377 0.44140
 H170 H 0.39967 0.15963 0.71692
 C171 C 0.65892 0.17428 0.47283
 C172 C 0.65854 0.17539 0.53619
 C173 C 0.68839 0.19795 0.55436
 N174 N 0.70696 0.21059 0.50443
 C175 C 0.68899 0.19617 0.45452
 C176 C 0.69893 0.20450 0.61608
 C177 C 0.72836 0.22988 0.63306
 C178 C 0.74308 0.23228 0.68910
 C179 C 0.77036 0.26041 0.68894
 C180 C 0.77148 0.27477 0.63306
 N181 N 0.74580 0.25585 0.59898
 C182 C 0.79577 0.30484 0.61547
 C183 C 0.80138 0.31425 0.55263
 C184 C 0.82042 0.34464 0.53241
 C185 C 0.82062 0.34351 0.46908
 C186 C 0.80146 0.31254 0.45248
 N187 N 0.78969 0.29466 0.50355
 C188 C 0.79637 0.30105 0.39111
 C189 C 0.77310 0.27042 0.37508
 C190 C 0.77181 0.25586 0.31915
 C191 C 0.74451 0.22764 0.31956
 C192 C 0.72985 0.22574 0.37571
 N193 N 0.74746 0.25192 0.40933
 C194 C 0.70013 0.20095 0.39302
 H195 H 0.63941 0.15884 0.44366
 H196 H 0.63872 0.16093 0.56556
 H197 H 0.74067 0.25847 0.44994
 H198 H 0.73519 0.21534 0.72609
 H199 H 0.78761 0.26906 0.72569
 H200 H 0.83276 0.36555 0.56034
 H201 H 0.83328 0.36327 0.43874
 H202 H 0.73628 0.21057 0.28248
 H203 H 0.73908 0.26160 0.55755
 H204 H 0.78865 0.26477 0.28165
 O205 O 0.97713 0.50401 -0.12207
 O206 O 1.03780 0.52857 0.13163
 O207 O 0.98084 0.53628 0.05693
 O208 O 1.06618 0.55882 -0.05818
 O209 O 0.98150 0.50843 0.13074
 O210 O 1.03455 0.52579 -0.12752
 O211 O 1.05894 0.56140 0.05665
 O212 O 0.97655 0.53382 -0.05136
 C213 C 0.97453 0.52731 -0.10667
 C214 C 1.05114 0.55633 0.11184
 C215 C 0.97949 0.53166 0.11296
 C216 C 1.05633 0.55260 -0.11242
 O217 O 1.02943 0.47186 -0.09375
 O218 O 0.97317 0.45357 0.08093
 O219 O 0.94080 0.46983 -0.04778
 O220 O 1.07023 0.51400 0.07060
 O221 O 1.02844 0.47163 0.08886
 O222 O 0.97119 0.45099 -0.07394
 O223 O 1.07052 0.50802 -0.04441
 O224 O 0.94291 0.47278 0.06379
 Co225 Co 1.00333 0.48939 -0.09358
 Co226 Co 1.00551 0.49170 0.09932
 Co227 Co 0.96425 0.50310 0.00547
 Co228 Co 1.06076 0.53246 0.00648
 O229 O 1.00881 0.50410 0.00368
 C230 C 1.05797 0.48445 -0.07979
 C231 C 0.94629 0.45034 0.08210
 C232 C 0.94419 0.44762 -0.06972
 C233 C 1.05743 0.48668 0.09056
 O234 O 0.48350 0.44630 -0.10271
 O235 O 0.47298 0.46464 0.11006
 O236 O 0.50833 0.43058 0.03823
 O237 O 0.45081 0.48276 -0.03103
 O238 O 0.51900 0.45757 0.11899
 O239 O 0.47444 0.49059 -0.11594
 O240 O 0.46222 0.49873 0.07240
 O241 O 0.52007 0.43813 -0.06746
 C242 C 0.49445 0.42826 -0.09584
 C243 C 0.45389 0.47440 0.10351
 C244 C 0.50535 0.43138 0.09461
 C245 C 0.44918 0.47869 -0.08735
 O246 O 0.53620 0.52960 -0.10918
 O247 O 0.55645 0.51867 0.10229
 O248 O 0.57265 0.49592 -0.04160
 O249 O 0.51830 0.55034 0.03548
 O250 O 0.51118 0.52617 0.11887
 O251 O 0.54459 0.48479 -0.12099
 O252 O 0.50164 0.53910 -0.06756
 O253 O 0.56583 0.48346 0.06436
 Co254 Co 0.50995 0.48804 -0.10092
 Co255 Co 0.51464 0.49157 0.10137
 Co256 Co 0.53902 0.46465 -0.00142
 Co257 Co 0.48599 0.51512 0.00215
 O258 O 0.51241 0.48987 0.00030
 C259 C 0.52592 0.54805 -0.09998
 C260 C 0.57515 0.50853 0.09413
 C261 C 0.57122 0.49861 -0.09792
 C262 C 0.52298 0.55151 0.09152
 O263 O 0.54813 0.02162 -0.09229
 O264 O 0.52411 -0.03597 0.07817
 O265 O 0.53008 0.05211 0.06668
 O266 O 0.48258 -0.07676 -0.04977
 O267 O 0.54622 0.01959 0.08652
 O268 O 0.52678 -0.03703 -0.07636
 O269 O 0.47959 -0.07575 0.06281
 O270 O 0.53506 0.05414 -0.04778
 C271 C 0.55367 0.04892 -0.08061
 C272 C 0.50743 -0.06461 0.08089
 C273 C 0.55110 0.04687 0.08741
 C274 C 0.51000 -0.06586 -0.07189
 O275 O 0.47249 -0.04655 -0.12519
 O276 O 0.49067 0.01268 0.13029
 O277 O 0.47416 0.03110 -0.05963
 O278 O 0.43710 -0.05453 0.05257
 O279 O 0.46873 -0.04357 0.12782
 O280 O 0.49217 0.01074 -0.12886
 O281 O 0.43737 -0.05904 -0.05588
 O282 O 0.46717 0.02247 0.05608
 Co283 Co 0.50848 -0.01312 -0.09508
 Co284 Co 0.50628 -0.01208 0.09715
 Co285 Co 0.50080 0.03474 0.00441
 Co286 Co 0.46232 -0.06208 0.00262
 O287 O 0.49471 -0.01285 0.00171
 C288 C 0.44422 -0.05689 -0.11114
 C289 C 0.47040 0.01995 0.11222
 C290 C 0.47710 0.02500 -0.11460
 C291 C 0.44141 -0.05220 0.10883
 C292 C 1.12680 0.44918 0.25163
 C293 C 1.11217 0.43174 0.30474
 C294 C 1.13029 0.42780 0.35007
 C295 C 1.16312 0.44108 0.34312
 C296 C 1.17668 0.45780 0.28842
 N297 N 1.15855 0.46174 0.24533
 C298 C 1.10889 0.45625 0.20485
 N299 N 1.12379 0.48358 0.17289
 C300 C 1.10824 0.49294 0.13336
 C301 C 1.07560 0.47454 0.12484
 C302 C 1.06010 0.44555 0.15489
 C303 C 1.07661 0.43631 0.19469
 H304 H 1.11854 0.41415 0.39058
 H305 H 1.20189 0.46893 0.28117
 H306 H 1.12119 0.51532 0.11059
 H307 H 1.03499 0.43046 0.14926
 H308 H 1.08714 0.42204 0.31248
 H309 H 1.06406 0.41399 0.21775
 C310 C 0.56751 0.66027 0.24551
 C311 C 0.58745 0.66664 0.29666
 C312 C 0.58917 0.68808 0.34123
 C313 C 0.57150 0.70376 0.33493
 C314 C 0.55391 0.69859 0.28029
 N315 N 0.55196 0.67692 0.23823
 C316 C 0.56053 0.63387 0.20290
 N317 N 0.54960 0.63378 0.14486
 C318 C 0.53934 0.60854 0.10639
 C319 C 0.53858 0.58101 0.12697
 C320 C 0.55037 0.58090 0.18589
 C321 C 0.56144 0.60715 0.22375
 H322 H 0.60415 0.69223 0.38111
 H323 H 0.53993 0.71010 0.27302
 H324 H 0.53030 0.60944 0.06124
 H325 H 0.55009 0.56007 0.20358
 H326 H 0.60116 0.65480 0.30306
 H327 H 0.56885 0.60567 0.27009
 C328 C 0.33208 -0.10716 0.26469
 C329 C 0.30106 -0.12117 0.24190
 C330 C 0.27581 -0.13876 0.28142
 C331 C 0.28112 -0.14278 0.34372
 C332 C 0.31261 -0.12793 0.36449
 N333 N 0.33670 -0.11111 0.32512
 C334 C 0.36022 -0.09002 0.22486
 N335 N 0.38875 -0.08473 0.24660
 C336 C 0.41543 -0.07116 0.21182
 C337 C 0.41414 -0.06267 0.15068
 C338 C 0.38536 -0.06658 0.12814
 C339 C 0.35847 -0.07998 0.16505
 H340 H 0.25210 -0.14889 0.26328
 H341 H 0.31832 -0.13080 0.41147
 H342 H 0.43724 -0.06829 0.23108
 H343 H 0.38353 -0.05976 0.08145
 H344 H 0.29599 -0.11939 0.19402
 H345 H 0.33675 -0.08256 0.14620
 C346 C 0.92688 0.58789 0.27323
 C347 C 0.91767 0.61011 0.25615
 C348 C 0.89782 0.61569 0.29505
 C349 C 0.88739 0.59941 0.35074
 C350 C 0.89785 0.57828 0.36702
 N351 N 0.91682 0.57301 0.32835
 C352 C 0.94506 0.57790 0.23239
 N353 N 0.95167 0.55553 0.25380
 C354 C 0.96474 0.54198 0.21783
 C355 C 0.97116 0.55020 0.15553
 C356 C 0.96619 0.57435 0.13309
 C357 C 0.95322 0.58829 0.17121
 H358 H 0.89026 0.63232 0.28147
 H359 H 0.89025 0.56534 0.40982
 H360 H 0.96857 0.52371 0.23720
 H361 H 0.97107 0.58157 0.08527
 H362 H 0.92501 0.62281 0.21326
 H363 H 0.94866 0.60595 0.15153
 C364 C 0.44745 0.32362 0.25146
 C365 C 0.42506 0.31908 0.29729
 C366 C 0.41651 0.29502 0.34004
 C367 C 0.43030 0.27561 0.33737
 C368 C 0.45162 0.28011 0.28938
 N369 N 0.45964 0.30374 0.24828
 C370 C 0.45982 0.35084 0.20969
 N371 N 0.46880 0.34840 0.15105
 C372 C 0.48236 0.37341 0.11229
 C373 C 0.48855 0.40311 0.13303
 C374 C 0.47951 0.40601 0.19326
 C375 C 0.46493 0.38000 0.23139
 H376 H 0.39970 0.29196 0.37603
 H377 H 0.46260 0.26545 0.28580
 H378 H 0.48917 0.37029 0.06623
 H379 H 0.48402 0.42852 0.21125
 H380 H 0.41455 0.33417 0.30049
 H381 H 0.45894 0.38302 0.27823
 C382 C 0.64383 0.13558 0.25305
 C383 C 0.65601 0.12565 0.30170
 C384 C 0.67436 0.14696 0.34728
 C385 C 0.68050 0.17804 0.34480
 C386 C 0.66802 0.18714 0.29570
 N387 N 0.65007 0.16594 0.25192
 C388 C 0.62274 0.11356 0.20528
 N389 N 0.60216 0.12045 0.17558
 C390 C 0.58043 0.10041 0.13471
 C391 C 0.57815 0.07113 0.12241
 C392 C 0.60014 0.06419 0.15009
 C393 C 0.62252 0.08534 0.19118
 H394 H 0.68364 0.13923 0.38473
 H395 H 0.67234 0.21100 0.29254
 H396 H 0.56409 0.10682 0.11404
 H397 H 0.59943 0.04200 0.14149
 H398 H 0.65086 0.10159 0.30581
 H399 H 0.63910 0.07931 0.21198
 C400 C 0.44256 0.09224 -0.28374
 C401 C 0.46625 0.11460 -0.32130
 C402 C 0.45977 0.13435 -0.35705
 C403 C 0.42975 0.13196 -0.35576
 C404 C 0.40694 0.10995 -0.31606
 N405 N 0.41387 0.09093 -0.28132
 C406 C 0.44873 0.07110 -0.24484
 N407 N 0.43484 0.06293 -0.18837
 C408 C 0.44188 0.04615 -0.14774
 C409 C 0.46440 0.03694 -0.16292
 C410 C 0.47749 0.04336 -0.22232
 C411 C 0.46975 0.06048 -0.26342
 H412 H 0.47800 0.15111 -0.38704
 H413 H 0.38330 0.10688 -0.31475
 H414 H 0.43090 0.04122 -0.10260
 H415 H 0.49490 0.03662 -0.23579
 H416 H 0.48962 0.11702 -0.32283
 H417 H 0.48061 0.06591 -0.30867
 C418 C 0.67605 0.54815 -0.26557
 C419 C 0.67028 0.53748 -0.32692
 C420 C 0.69517 0.54736 -0.36844
 C421 C 0.72618 0.56809 -0.34973
 C422 C 0.73101 0.57748 -0.28711
 N423 N 0.70622 0.56746 -0.24727
 C424 C 0.64975 0.53824 -0.22098
 N425 N 0.65391 0.53353 -0.16042
 C426 C 0.62964 0.52217 -0.11899
 C427 C 0.59913 0.51447 -0.13839
 C428 C 0.59487 0.52058 -0.19981
 C429 C 0.61998 0.53256 -0.24091
 H430 H 0.69016 0.53793 -0.41495
 H431 H 0.75441 0.59338 -0.27021
 H432 H 0.63394 0.51812 -0.07176
 H433 H 0.57190 0.51563 -0.21654
 H434 H 0.64680 0.52106 -0.34258
 H435 H 0.61598 0.53704 -0.28805
 C436 C 0.85558 0.36115 -0.24148
 C437 C 0.86866 0.35694 -0.29626
 C438 C 0.84897 0.33919 -0.34434
 C439 C 0.81607 0.32511 -0.33798
 C440 C 0.80401 0.33048 -0.28255
 N441 N 0.82376 0.34829 -0.23662
 C442 C 0.87603 0.37978 -0.18984
 N443 N 0.86959 0.40031 -0.15850
 C444 C 0.88964 0.42045 -0.11528
 C445 C 0.91826 0.42093 -0.10252
 C446 C 0.92406 0.39836 -0.13122
 C447 C 0.90313 0.37790 -0.17487
 H448 H 0.85946 0.33541 -0.38551
 H449 H 0.77886 0.32062 -0.27599
 H450 H 0.88414 0.43731 -0.09391
 H451 H 0.94566 0.39762 -0.12254
 H452 H 0.89392 0.36740 -0.30202
 H453 H 0.90853 0.36135 -0.19799
 C454 C 0.53924 -0.14081 -0.23501
 C455 C 0.52873 -0.17301 -0.23123
 C456 C 0.53427 -0.18832 -0.28040
 C457 C 0.55015 -0.17182 -0.33390
 C458 C 0.56059 -0.13948 -0.33521
 N459 N 0.55507 -0.12508 -0.28651
 C460 C 0.53326 -0.12335 -0.18532
 N461 N 0.55284 -0.09200 -0.18030
 C462 C 0.54730 -0.07369 -0.14026
 C463 C 0.51996 -0.08661 -0.10359
 C464 C 0.50004 -0.11908 -0.10617
 C465 C 0.50663 -0.13754 -0.14677
 H466 H 0.52544 -0.21331 -0.27716
 H467 H 0.57380 -0.12547 -0.37426
 H468 H 0.56335 -0.04877 -0.13994
 H469 H 0.47856 -0.12998 -0.07918
 H470 H 0.51658 -0.18629 -0.19072
 H471 H 0.49005 -0.16226 -0.15024
 C472 C 0.33976 0.43786 -0.23890
 C473 C 0.31923 0.45020 -0.23062
 C474 C 0.29808 0.44676 -0.27740
 C475 C 0.29711 0.43104 -0.33283
 C476 C 0.31733 0.41802 -0.33793
 N477 N 0.33804 0.42209 -0.29205
 C478 C 0.36567 0.44464 -0.19515
 N479 N 0.39228 0.44556 -0.21777
 C480 C 0.41848 0.45472 -0.18291
 C481 C 0.41910 0.46412 -0.12135
 C482 C 0.39147 0.46177 -0.09573
 C483 C 0.36465 0.45207 -0.13255
 H484 H 0.28360 0.45788 -0.27137
 H485 H 0.31678 0.40467 -0.37842
 H486 H 0.43917 0.45565 -0.20404
 H487 H 0.39100 0.46860 -0.04822
 H488 H 0.32048 0.46380 -0.19010
 H489 H 0.34369 0.45092 -0.11240
 C490 C 1.11363 0.65496 -0.28319
 C491 C 1.11411 0.65158 -0.34739
 C492 C 1.13038 0.67801 -0.38395
 C493 C 1.14631 0.70813 -0.35722
 C494 C 1.14543 0.71032 -0.29252
 N495 N 1.12944 0.68413 -0.25785
 C496 C 1.09787 0.62771 -0.24171
 N497 N 1.10785 0.63113 -0.18221
 C498 C 1.09505 0.60745 -0.14088
 C499 C 1.07043 0.57798 -0.15844
 C500 C 1.05941 0.57389 -0.21941
 C501 C 1.07303 0.59870 -0.26119
 H502 H 1.13140 0.67469 -0.43325
 H503 H 1.15687 0.73285 -0.26954
 H504 H 1.10420 0.61182 -0.09423
 H505 H 1.04017 0.55171 -0.23458
 H506 H 1.10297 0.62881 -0.36937
 H507 H 1.06374 0.59521 -0.30762
 C508 C 0.91713 0.57788 -0.26716
 C509 C 0.89930 0.59125 -0.24350
 C510 C 0.88064 0.59776 -0.28330
 C511 C 0.87964 0.59109 -0.34676
 C512 C 0.89819 0.57799 -0.36832
 N513 N 0.91584 0.57157 -0.32860
 C514 C 0.93524 0.56798 -0.22691
 N515 N 0.94067 0.54448 -0.24670
 C516 C 0.95493 0.53232 -0.21065
 C517 C 0.96414 0.54355 -0.15035
 C518 C 0.96029 0.56886 -0.13019
 C519 C 0.94599 0.58121 -0.16831
 H520 H 0.86707 0.60811 -0.26451
 H521 H 0.89760 0.57150 -0.41639
 H522 H 0.95777 0.51305 -0.22818
 H523 H 0.96748 0.57853 -0.08421
 H524 H 0.89884 0.59579 -0.19468
 H525 H 0.94313 0.60058 -0.15153
 C526 C 0.44978 0.31765 -0.24669
 C527 C 0.45913 0.29466 -0.24135
 C528 C 0.45158 0.27237 -0.28798
 C529 C 0.43416 0.27218 -0.34001
 C530 C 0.42408 0.29479 -0.34204
 N531 N 0.43219 0.31662 -0.29645
 C532 C 0.45952 0.34389 -0.20176
 N533 N 0.44615 0.36277 -0.20577
 C534 C 0.45560 0.38884 -0.17017
 C535 C 0.48049 0.39770 -0.12816
 C536 C 0.49399 0.37817 -0.12183
 C537 C 0.48372 0.35142 -0.15839
 H538 H 0.46053 0.25598 -0.28429
 H539 H 0.40975 0.29515 -0.37992
 H540 H 0.44449 0.40322 -0.17651
 H541 H 0.51330 0.38413 -0.09008
 H542 H 0.47243 0.29373 -0.20233
 H543 H 0.49577 0.33788 -0.15387
 C544 C 0.64494 0.14059 -0.24103
 C545 C 0.65728 0.13053 -0.28960
 C546 C 0.67466 0.15134 -0.33629
 C547 C 0.67963 0.18203 -0.33513
 C548 C 0.66690 0.19127 -0.28622
 N549 N 0.64990 0.17054 -0.24120
 C550 C 0.62494 0.11882 -0.19217
 N551 N 0.60286 0.12409 -0.16360
 C552 C 0.58149 0.10335 -0.12318
 C553 C 0.58106 0.07496 -0.11098
 C554 C 0.60483 0.07000 -0.13688
 C555 C 0.62693 0.09193 -0.17691
 H556 H 0.68423 0.14353 -0.37344
 H557 H 0.67040 0.21488 -0.28404
 H558 H 0.56362 0.10813 -0.10397
 H559 H 0.60561 0.04858 -0.12806
 H560 H 0.65301 0.10670 -0.29271
 H561 H 0.64482 0.08735 -0.19663
 C562 C 1.12753 0.44712 -0.23956
 C563 C 1.11167 0.42594 -0.28796
 C564 C 1.12893 0.42207 -0.33560
 C565 C 1.16184 0.43930 -0.33540
 C566 C 1.17685 0.46010 -0.28636
 N567 N 1.15957 0.46363 -0.24057
 C568 C 1.11032 0.45387 -0.19037
 N569 N 1.12476 0.48224 -0.16141
 C570 C 1.10932 0.49151 -0.12095
 C571 C 1.07716 0.47204 -0.10928
 C572 C 1.06242 0.44194 -0.13537
 C573 C 1.07894 0.43266 -0.17536
 H574 H 1.11667 0.40585 -0.37289
 H575 H 1.20228 0.47380 -0.28498
 H576 H 1.12159 0.51485 -0.10151
 H577 H 1.03772 0.42600 -0.12686
 H578 H 1.08626 0.41314 -0.29044
 H579 H 1.06686 0.40945 -0.19532
 C580 C 0.55859 0.65487 -0.25224
 C581 C 0.53900 0.66867 -0.25227
 C582 C 0.54281 0.69031 -0.29764
 C583 C 0.56593 0.69827 -0.34327
 C584 C 0.58522 0.68424 -0.34167
 N585 N 0.58095 0.66297 -0.29710
 C586 C 0.55375 0.62996 -0.20772
 N587 N 0.56284 0.60848 -0.22370
 C588 C 0.55621 0.58319 -0.18795
 C589 C 0.53869 0.57799 -0.13339
 C590 C 0.53063 0.60068 -0.11439
 C591 C 0.53837 0.62679 -0.15094
 H592 H 0.52723 0.70038 -0.29803
 H593 H 0.60332 0.68989 -0.37627
 H594 H 0.56313 0.56635 -0.20390
 H595 H 0.51762 0.59782 -0.07196
 H596 H 0.52011 0.66214 -0.21923
 H597 H 0.53180 0.64387 -0.13510
 C598 C 0.34229 -0.11624 -0.28406
 C599 C 0.34543 -0.11606 -0.34846
 C600 C 0.31889 -0.13299 -0.38489
 C601 C 0.28875 -0.14994 -0.35808
 C602 C 0.28668 -0.14919 -0.29332
 N603 N 0.31302 -0.13259 -0.25871
 C604 C 0.36966 -0.09919 -0.24248
 N605 N 0.36406 -0.09478 -0.18261
 C606 C 0.38754 -0.08053 -0.14061
 C607 C 0.41899 -0.06993 -0.15787
 C608 C 0.42551 -0.07373 -0.21941
 C609 C 0.40097 -0.08847 -0.26177
 H610 H 0.32222 -0.13338 -0.43432
 H611 H 0.26409 -0.16110 -0.27023
 H612 H 0.38150 -0.07800 -0.09352
 H613 H 0.44945 -0.06611 -0.23439
 H614 H 0.36791 -0.10297 -0.37123
 H615 H 0.40675 -0.09209 -0.30823
 C616 C 0.54210 -0.13292 0.24920
 C617 C 0.56434 -0.11705 0.29602
 C618 C 0.56885 -0.13407 0.34275
 C619 C 0.55129 -0.16676 0.34307
 C620 C 0.52925 -0.18177 0.29582
 N621 N 0.52511 -0.16472 0.25095
 C622 C 0.53530 -0.11595 0.20018
 N623 N 0.50620 -0.12968 0.17369
 C624 C 0.49742 -0.11459 0.13203
 C625 C 0.51838 -0.08356 0.11559
 C626 C 0.54904 -0.06959 0.13970
 C627 C 0.55762 -0.08568 0.18168
 H628 H 0.58599 -0.12180 0.37869
 H629 H 0.51525 -0.20701 0.29491
 H630 H 0.47361 -0.12632 0.11419
 H631 H 0.56608 -0.04578 0.12784
 H632 H 0.57760 -0.09180 0.29770
 H633 H 0.58133 -0.07427 0.19991
 C634 C 0.34543 0.43595 0.25946
 C635 C 0.33412 0.41187 0.30362
 C636 C 0.31159 0.40960 0.34667
 C637 C 0.30005 0.43091 0.34547
 C638 C 0.31086 0.45372 0.29930
 N639 N 0.33308 0.45576 0.25842
 C640 C 0.37139 0.44185 0.21572
 N641 N 0.37795 0.46331 0.17029
 C642 C 0.40307 0.47266 0.13186
 C643 C 0.42401 0.46074 0.13873
 C644 C 0.41721 0.43774 0.18361
 C645 C 0.39105 0.42828 0.22226
 H646 H 0.30346 0.39152 0.38152
 H647 H 0.30236 0.47050 0.29697
 H648 H 0.40724 0.49026 0.09747
 H649 H 0.43274 0.42794 0.19049
 H650 H 0.34248 0.39504 0.30579
 H651 H 0.38740 0.41157 0.25810
 C652 C 1.10120 0.66439 0.26910
 C653 C 1.10603 0.69428 0.25273
 C654 C 1.12414 0.71991 0.29090
 C655 C 1.13692 0.71568 0.34546
 C656 C 1.13087 0.68545 0.36106
 N657 N 1.11353 0.66096 0.32297
 C658 C 1.08464 0.63667 0.22852
 N659 N 1.07426 0.60759 0.25286
 C660 C 1.06188 0.58124 0.21735
 C661 C 1.06042 0.58351 0.15312
 C662 C 1.07002 0.61309 0.12740
 C663 C 1.08212 0.63962 0.16468
 H664 H 1.12809 0.74294 0.27815
 H665 H 1.14034 0.68142 0.40316
 H666 H 1.05450 0.55883 0.23899
 H667 H 1.06905 0.61589 0.07798
 H668 H 1.09599 0.69804 0.21129
 H669 H 1.09076 0.66213 0.14281
 C670 C 0.42571 0.08763 0.25601
 C671 C 0.39478 0.07979 0.27277
 C672 C 0.38966 0.10065 0.30919
 C673 C 0.41522 0.12930 0.32699
 C674 C 0.44539 0.13698 0.30602
 N675 N 0.44992 0.11599 0.27252
 C676 C 0.43331 0.06551 0.22407
 N677 N 0.46032 0.06526 0.23973
 C678 C 0.47090 0.04809 0.20823
 C679 C 0.45473 0.03110 0.15580
 C680 C 0.42616 0.03001 0.14013
 C681 C 0.41512 0.04692 0.17474
 H682 H 0.36620 0.09386 0.32613
 H683 H 0.46561 0.15872 0.32008
 H684 H 0.49317 0.04972 0.22132
 H685 H 0.41319 0.01724 0.09958
 H686 H 0.37516 0.05720 0.26095
 H687 H 0.39376 0.04702 0.16078
 C688 C 0.68423 0.55390 0.24913
 C689 C 0.69035 0.53179 0.27835
 C690 C 0.71392 0.54161 0.32288
 C691 C 0.73160 0.57336 0.33801
 C692 C 0.72480 0.59480 0.30825
 N693 N 0.70136 0.58464 0.26541
 C694 C 0.65849 0.54401 0.20350
 N695 N 0.64124 0.55920 0.20131
 C696 C 0.61554 0.54941 0.16422
 C697 C 0.60570 0.52263 0.12698
 C698 C 0.62416 0.50769 0.12621
 C699 C 0.65050 0.51828 0.16428
 H700 H 0.71845 0.52449 0.34560
 H701 H 0.73798 0.61947 0.31936
 H702 H 0.60221 0.56187 0.16556
 H703 H 0.61767 0.48716 0.09776
 H704 H 0.67659 0.50707 0.26808
 H705 H 0.66416 0.50614 0.16361
 C706 C 0.85427 0.35963 0.24485
 C707 C 0.82162 0.34879 0.24402
 C708 C 0.80286 0.33001 0.29210
 C709 C 0.81641 0.32185 0.34075
 C710 C 0.84895 0.33271 0.33960
 N711 N 0.86679 0.35105 0.29238
 C712 C 0.87573 0.38051 0.19634
 N713 N 0.90461 0.38263 0.18948
 C714 C 0.92668 0.40311 0.14986
 C715 C 0.92058 0.42383 0.11531
 C716 C 0.89064 0.42143 0.12010
 C717 C 0.86819 0.39987 0.16040
 H718 H 0.77772 0.32166 0.29129
 H719 H 0.86009 0.32650 0.37605
 H720 H 0.94950 0.40423 0.14782
 H721 H 0.88504 0.43714 0.09470
 H722 H 0.81047 0.35426 0.20653
 H723 H 0.84592 0.39968 0.16530
   
