data_POSCAR
  _audit_creation_date              2014-09-24
  _audit_creation_method            'ToBaCCo'
  _symmetry_space_group_name_H-M    'P1'
  _symmetry_Int_Tables_number       1
  _symmetry_cell_setting            triclinic
  loop_
  _symmetry_equiv_pos_as_xyz
 x,y,z
_cell_length_a 42.3945
_cell_length_b 42.4094
_cell_length_c 42.4818
_cell_angle_alpha 90.002900
_cell_angle_beta 89.989900
_cell_angle_gamma 90.033700
loop_
  _atom_site_label
  _atom_site_type_symbol
  _atom_site_fract_x
  _atom_site_fract_y
  _atom_site_fract_z
N1 N 0.15643 0.23095 0.23912
 N2 N 0.16474 0.20554 0.25484
 C3 C 0.14480 0.20149 0.27924
 C4 C 0.12301 0.22561 0.27851
 C5 C 0.13092 0.24388 0.25289
 H6 H 0.14600 0.18258 0.29626
 H7 H 0.11904 0.26498 0.24490
 Cu8 Cu 0.20126 0.18107 0.24170
 Cu9 Cu 0.17937 0.24561 0.20208
 Cu10 Cu 0.24529 0.20218 0.17984
 N11 N 0.23850 0.15694 0.22998
 N12 N 0.25571 0.16554 0.20565
 C13 C 0.28014 0.14551 0.20254
 C14 C 0.27806 0.12336 0.22618
 C15 C 0.25150 0.13115 0.24323
 H16 H 0.29806 0.14692 0.18447
 H17 H 0.24245 0.11895 0.26369
 N18 N 0.23076 0.23994 0.15686
 N19 N 0.20570 0.25644 0.16533
 C20 C 0.20193 0.28061 0.14509
 C21 C 0.22570 0.27911 0.12308
 C22 C 0.24356 0.25321 0.13102
 H23 H 0.18333 0.29801 0.14618
 H24 H 0.26427 0.24473 0.11881
 H25 H 0.19750 0.20256 0.18866
 H26 H 0.22263 0.22716 0.21498
 N27 N 0.65694 0.73157 0.73913
 N28 N 0.66571 0.70660 0.75529
 C29 C 0.64558 0.70238 0.77951
 C30 C 0.62331 0.72602 0.77833
 C31 C 0.63104 0.74412 0.75253
 H32 H 0.64696 0.68365 0.79675
 H33 H 0.61879 0.76484 0.74415
 Cu34 Cu 0.70256 0.68226 0.74285
 Cu35 Cu 0.67983 0.74608 0.70209
 Cu36 Cu 0.74562 0.70271 0.67976
 N37 N 0.73945 0.65802 0.73029
 N38 N 0.75614 0.66619 0.70547
 C39 C 0.78022 0.64582 0.70191
 C40 C 0.77840 0.62386 0.72572
 C41 C 0.75234 0.63206 0.74331
 H42 H 0.79774 0.64692 0.68344
 H43 H 0.74359 0.62003 0.76401
 N44 N 0.73112 0.74042 0.65687
 N45 N 0.70609 0.75693 0.66538
 C46 C 0.70237 0.78116 0.64522
 C47 C 0.72615 0.77967 0.62324
 C48 C 0.74397 0.75374 0.63108
 H49 H 0.68381 0.79860 0.64635
 H50 H 0.76468 0.74528 0.61886
 H51 H 0.69788 0.70261 0.68937
 H52 H 0.72328 0.72798 0.71477
 N53 N 0.34251 0.76912 0.73923
 N54 N 0.33425 0.79459 0.75491
 C55 C 0.35421 0.79863 0.77929
 C56 C 0.37596 0.77447 0.77860
 C57 C 0.36800 0.75616 0.75300
 H58 H 0.35305 0.81757 0.79629
 H59 H 0.37982 0.73502 0.74505
 Cu60 Cu 0.29774 0.81911 0.74174
 Cu61 Cu 0.31952 0.75442 0.70223
 Cu62 Cu 0.25366 0.79790 0.67996
 N63 N 0.26053 0.84332 0.72994
 N64 N 0.24331 0.83467 0.70564
 C65 C 0.21890 0.85472 0.70244
 C66 C 0.22102 0.87694 0.72601
 C67 C 0.24757 0.86920 0.74312
 H68 H 0.20098 0.85324 0.68438
 H69 H 0.25665 0.88142 0.76355
 N70 N 0.26808 0.76002 0.65706
 N71 N 0.29313 0.74352 0.66555
 C72 C 0.29687 0.71929 0.64539
 C73 C 0.27310 0.72072 0.62339
 C74 C 0.25527 0.74668 0.63125
 H75 H 0.31548 0.70190 0.64649
 H76 H 0.23458 0.75515 0.61900
 H77 H 0.30147 0.79744 0.68876
 H78 H 0.27634 0.77293 0.71515
 N79 N 0.84395 0.26869 0.23989
 N80 N 0.83516 0.29367 0.25606
 C81 C 0.85518 0.29782 0.28037
 C82 C 0.87745 0.27418 0.27912
 C83 C 0.86981 0.25608 0.25329
 H84 H 0.85374 0.31653 0.29760
 H85 H 0.88208 0.23534 0.24490
 Cu86 Cu 0.79827 0.31790 0.24354
 Cu87 Cu 0.82115 0.25420 0.20274
 Cu88 Cu 0.75543 0.29759 0.18039
 N89 N 0.76148 0.34229 0.23100
 N90 N 0.74483 0.33409 0.20616
 C91 C 0.72075 0.35444 0.20253
 C92 C 0.72250 0.37641 0.22634
 C93 C 0.74850 0.36820 0.24403
 H94 H 0.70326 0.35334 0.18401
 H95 H 0.75722 0.38021 0.26473
 N96 N 0.76998 0.25992 0.15740
 N97 N 0.79500 0.24340 0.16590
 C98 C 0.79872 0.21918 0.14571
 C99 C 0.77496 0.22068 0.12370
 C100 C 0.75716 0.24663 0.13158
 H101 H 0.81726 0.20172 0.14686
 H102 H 0.73644 0.25510 0.11939
 H103 H 0.80316 0.29766 0.19011
 H104 H 0.77773 0.27224 0.21542
 N105 N 0.84308 0.73165 0.26081
 N106 N 0.83432 0.70663 0.24469
 C107 C 0.85439 0.70245 0.22046
 C108 C 0.87665 0.72611 0.22158
 C109 C 0.86896 0.74424 0.24737
 H110 H 0.85298 0.68370 0.20329
 H111 H 0.88125 0.76500 0.25568
 Cu112 Cu 0.79755 0.68212 0.25706
 Cu113 Cu 0.82021 0.74610 0.29784
 Cu114 Cu 0.75452 0.70263 0.32024
 N115 N 0.76070 0.65791 0.26980
 N116 N 0.74399 0.66608 0.29461
 C117 C 0.71995 0.64564 0.29823
 C118 C 0.72181 0.62365 0.27445
 C119 C 0.74782 0.63193 0.25683
 H120 H 0.70243 0.64667 0.31672
 H121 H 0.75661 0.61991 0.23617
 N122 N 0.76898 0.74038 0.34309
 N123 N 0.79399 0.75693 0.33456
 C124 C 0.79769 0.78120 0.35469
 C125 C 0.77393 0.77968 0.37669
 C126 C 0.75613 0.75370 0.36887
 H127 H 0.81624 0.79867 0.35353
 H128 H 0.73543 0.74520 0.38110
 H129 H 0.80226 0.70256 0.31055
 H130 H 0.77683 0.72785 0.28513
 N131 N 0.34344 0.23113 -0.23968
 N132 N 0.33518 0.20566 -0.25537
 C133 C 0.35525 0.20154 -0.27969
 C134 C 0.37709 0.22568 -0.27893
 C135 C 0.36905 0.24404 -0.25337
 H136 H 0.35410 0.18253 -0.29662
 H137 H 0.38091 0.26515 -0.24533
 Cu138 Cu 0.29856 0.18115 -0.24217
 Cu139 Cu 0.32028 0.24578 -0.20266
 Cu140 Cu 0.25430 0.20232 -0.18041
 N141 N 0.26121 0.15702 -0.23048
 N142 N 0.24397 0.16565 -0.20619
 C143 C 0.21950 0.14563 -0.20308
 C144 C 0.22158 0.12344 -0.22667
 C145 C 0.24819 0.13120 -0.24370
 H146 H 0.20154 0.14709 -0.18505
 H147 H 0.25725 0.11896 -0.26412
 N148 N 0.26876 0.24015 -0.15749
 N149 N 0.29382 0.25669 -0.16595
 C150 C 0.29752 0.28089 -0.14571
 C151 C 0.27371 0.27937 -0.12373
 C152 C 0.25590 0.25342 -0.13167
 H153 H 0.31612 0.29830 -0.14675
 H154 H 0.23519 0.24489 -0.11948
 H155 H 0.30204 0.20270 -0.18910
 H156 H 0.27695 0.22717 -0.21552
 N157 N 0.65695 0.26827 -0.23937
 N158 N 0.66565 0.29325 -0.25560
 C159 C 0.64547 0.29738 -0.27980
 C160 C 0.62319 0.27368 -0.27851
 C161 C 0.63101 0.25562 -0.25268
 H162 H 0.64681 0.31612 -0.29702
 H163 H 0.61880 0.23489 -0.24421
 Cu164 Cu 0.70255 0.31769 -0.24310
 Cu165 Cu 0.67999 0.25395 -0.20224
 Cu166 Cu 0.74572 0.29752 -0.17999
 N167 N 0.73941 0.34214 -0.23061
 N168 N 0.75613 0.33403 -0.20580
 C169 C 0.78017 0.35448 -0.20223
 C170 C 0.77831 0.37643 -0.22603
 C171 C 0.75227 0.36814 -0.24364
 H172 H 0.79769 0.35345 -0.18376
 H173 H 0.74350 0.38014 -0.26431
 N174 N 0.73132 0.25978 -0.15700
 N175 N 0.70631 0.24320 -0.16545
 C176 C 0.70267 0.21899 -0.14521
 C177 C 0.72646 0.22057 -0.12323
 C178 C 0.74422 0.24655 -0.13119
 H179 H 0.68413 0.20151 -0.14628
 H180 H 0.76493 0.25512 -0.11902
 H181 H 0.69809 0.29756 -0.18954
 H182 H 0.72350 0.27222 -0.21491
 N183 N 0.15689 0.76919 0.26065
 N184 N 0.16522 0.79465 0.24500
 C185 C 0.14531 0.79872 0.22059
 C186 C 0.12352 0.77457 0.22123
 C187 C 0.13140 0.75625 0.24683
 H188 H 0.14652 0.81767 0.20361
 H189 H 0.11951 0.73513 0.25476
 Cu190 Cu 0.20170 0.81917 0.25825
 Cu191 Cu 0.17975 0.75449 0.29771
 Cu192 Cu 0.24558 0.79802 0.32014
 N193 N 0.23893 0.84335 0.27006
 N194 N 0.25608 0.83473 0.29442
 C195 C 0.28054 0.85477 0.29762
 C196 C 0.27851 0.87693 0.27399
 C197 C 0.25197 0.86917 0.25685
 H198 H 0.29842 0.85330 0.31572
 H199 H 0.24297 0.88135 0.23637
 N200 N 0.23102 0.76019 0.34305
 N201 N 0.20600 0.74365 0.33449
 C202 C 0.20220 0.71944 0.35468
 C203 C 0.22591 0.72094 0.37675
 C204 C 0.24376 0.74690 0.36890
 H205 H 0.18362 0.70200 0.35352
 H206 H 0.26443 0.75540 0.38117
 H207 H 0.19776 0.79752 0.31122
 H208 H 0.22298 0.77302 0.28492
 N209 N 0.48105 0.40612 0.48964
 N210 N 0.45662 0.41543 0.50635
 C211 C 0.45255 0.39547 0.53074
 C212 C 0.47572 0.37269 0.52912
 C213 C 0.49338 0.38001 0.50285
 H214 H 0.43422 0.39728 0.54835
 H215 H 0.51370 0.36735 0.49408
 Cu216 Cu 0.43285 0.45267 0.49389
 Cu217 Cu 0.49528 0.42882 0.45215
 Cu218 Cu 0.45161 0.49448 0.42970
 N219 N 0.40777 0.48894 0.48123
 N220 N 0.41530 0.50505 0.45583
 C221 C 0.39458 0.52877 0.45198
 C222 C 0.37306 0.52733 0.47620
 C223 C 0.38188 0.50188 0.49437
 H224 H 0.39515 0.54583 0.43307
 H225 H 0.37032 0.49354 0.51549
 N226 N 0.48923 0.47989 0.40656
 N227 N 0.50584 0.45494 0.41508
 C228 C 0.53024 0.45147 0.39503
 C229 C 0.52878 0.47531 0.37309
 C230 C 0.50265 0.49292 0.38089
 H231 H 0.54791 0.43315 0.39633
 H232 H 0.49423 0.51375 0.36884
 H233 H 0.47777 0.47274 0.46420
 H234 H 0.45159 0.44703 0.44004
 N235 N -0.01897 -0.09305 0.98921
 N236 N -0.04387 -0.08427 1.00545
 C237 C -0.04803 -0.10435 1.02973
 C238 C -0.02439 -0.12662 1.02847
 C239 C -0.00637 -0.11894 1.00257
 H240 H -0.06668 -0.10292 1.04704
 H241 H 0.01431 -0.13122 0.99413
 Cu242 Cu -0.06819 -0.04745 0.99305
 Cu243 Cu -0.00461 -0.07015 0.95202
 Cu244 Cu -0.04803 -0.00441 0.92982
 N245 N -0.09251 -0.01065 0.98061
 N246 N -0.08444 0.00603 0.95578
 C247 C -0.10482 0.03009 0.95229
 C248 C -0.12666 0.02825 0.97619
 C249 C -0.11843 0.00222 0.99377
 H250 H -0.10383 0.04761 0.93382
 H251 H -0.13036 -0.00651 1.01452
 N252 N -0.01038 -0.01890 0.90670
 N253 N 0.00615 -0.04393 0.91516
 C254 C 0.03031 -0.04767 0.89487
 C255 C 0.02879 -0.02392 0.87283
 C256 C 0.00286 -0.00609 0.88083
 H257 H 0.04774 -0.06623 0.89596
 H258 H -0.00566 0.01463 0.86867
 H259 H -0.02269 -0.02661 0.96473
 H260 H -0.04820 -0.05201 0.93947
 N261 N 1.01904 0.59303 0.98926
 N262 N 1.04396 0.58424 1.00550
 C263 C 1.04810 0.60431 1.02977
 C264 C 1.02448 0.62659 1.02852
 C265 C 1.00645 0.61891 1.00264
 H266 H 1.06679 0.60291 1.04702
 H267 H 0.98573 0.63118 0.99426
 Cu268 Cu 1.06830 0.54745 0.99301
 Cu269 Cu 1.00468 0.57018 0.95208
 Cu270 Cu 1.04810 0.50447 0.92978
 N271 N 1.09262 0.51066 0.98052
 N272 N 1.08452 0.49401 0.95566
 C273 C 1.10492 0.46997 0.95209
 C274 C 1.12680 0.47180 0.97595
 C275 C 1.11855 0.49777 0.99360
 H276 H 1.10390 0.45246 0.93362
 H277 H 1.13054 0.50652 1.01430
 N278 N 1.01045 0.51898 0.90674
 N279 N 0.99392 0.54400 0.91522
 C280 C 0.96973 0.54772 0.89499
 C281 C 0.97125 0.52397 0.87296
 C282 C 0.99720 0.50616 0.88090
 H283 H 0.95228 0.56626 0.89612
 H284 H 1.00570 0.48544 0.86872
 H285 H 1.02281 0.52664 0.96474
 H286 H 1.04826 0.55204 0.93945
 N287 N 0.51900 0.09321 0.48951
 N288 N 0.54402 0.08449 0.50564
 C289 C 0.54815 0.10447 0.52998
 C290 C 0.52445 0.12670 0.52893
 C291 C 0.50636 0.11902 0.50305
 H292 H 0.56687 0.10302 0.54720
 H293 H 0.48559 0.13125 0.49473
 Cu294 Cu 0.56839 0.04771 0.49304
 Cu295 Cu 0.50464 0.07024 0.45228
 Cu296 Cu 0.54816 0.00465 0.42979
 N297 N 0.59278 0.01102 0.48044
 N298 N 0.58464 -0.00568 0.45560
 C299 C 0.60504 -0.02970 0.45202
 C300 C 0.62693 -0.02784 0.47584
 C301 C 0.61871 -0.00187 0.49349
 H302 H 0.60403 -0.04723 0.43355
 H303 H 0.63068 0.00684 0.51422
 N304 N 0.51042 0.01906 0.40682
 N305 N 0.49383 0.04402 0.41535
 C306 C 0.46959 0.04766 0.39512
 C307 C 0.47114 0.02390 0.37306
 C308 C 0.49717 0.00620 0.38098
 H309 H 0.45207 0.06614 0.39628
 H310 H 0.50573 -0.01450 0.36880
 H311 H 0.52295 0.02658 0.46484
 H312 H 0.54826 0.05207 0.43949
 N313 N -0.01948 0.09358 0.51053
 N314 N -0.04442 0.08478 0.49432
 C315 C -0.04847 0.10468 0.46991
 C316 C -0.02484 0.12697 0.47111
 C317 C -0.00682 0.11938 0.49703
 H318 H -0.06710 0.10316 0.45259
 H319 H 0.01396 0.13163 0.50533
 Cu320 Cu -0.06873 0.04800 0.50686
 Cu321 Cu -0.00504 0.07069 0.54770
 Cu322 Cu -0.04807 0.00452 0.56951
 N323 N -0.09298 0.01114 0.51917
 N324 N -0.08457 -0.00583 0.54371
 C325 C -0.10491 -0.02994 0.54721
 C326 C -0.12705 -0.02782 0.52363
 C327 C -0.11901 -0.00166 0.50618
 H328 H -0.10370 -0.04765 0.56548
 H329 H -0.13121 0.00731 0.48570
 N330 N -0.01047 0.01906 0.59263
 N331 N 0.00579 0.04438 0.58450
 C332 C 0.02989 0.04815 0.60486
 C333 C 0.02858 0.02410 0.62662
 C334 C 0.00284 0.00609 0.61837
 H335 H 0.04717 0.06688 0.60397
 H336 H -0.00548 -0.01487 0.63027
 H337 H -0.02304 0.02730 0.53467
 H338 H -0.04851 0.05223 0.56042
 N339 N 0.48141 0.59317 0.01089
 N340 N 0.45638 0.58444 -0.00524
 C341 C 0.45227 0.60443 -0.02955
 C342 C 0.47596 0.62666 -0.02845
 C343 C 0.49405 0.61900 -0.00261
 H344 H 0.43355 0.60299 -0.04678
 H345 H 0.51482 0.63125 0.00569
 Cu346 Cu 0.43183 0.54771 0.00715
 Cu347 Cu 0.49575 0.57029 0.04803
 Cu348 Cu 0.45214 0.50467 0.07038
 N349 N 0.40751 0.51094 0.01982
 N350 N 0.41563 0.49422 0.04463
 C351 C 0.39519 0.47017 0.04813
 C352 C 0.37328 0.47204 0.02429
 C353 C 0.38159 0.49806 0.00671
 H354 H 0.39619 0.45261 0.06656
 H355 H 0.36967 0.50681 -0.01403
 N356 N 0.48988 0.51910 0.09339
 N357 N 0.50648 0.54408 0.08489
 C358 C 0.53074 0.54772 0.10507
 C359 C 0.52919 0.52395 0.12709
 C360 C 0.50315 0.50622 0.11919
 H361 H 0.54827 0.56621 0.10391
 H362 H 0.49462 0.48550 0.13135
 H363 H 0.47745 0.52687 0.03532
 H364 H 0.45216 0.55233 0.06071
 N365 N 0.51908 -0.09341 0.01079
 N366 N 0.54349 -0.08407 -0.00594
 C367 C 0.54755 -0.10400 -0.03034
 C368 C 0.52436 -0.12675 -0.02870
 C369 C 0.50671 -0.11949 -0.00243
 H370 H 0.56588 -0.10218 -0.04795
 H371 H 0.48640 -0.13219 0.00635
 Cu372 Cu 0.56730 -0.04690 0.00653
 Cu373 Cu 0.50488 -0.07084 0.04830
 Cu374 Cu 0.54857 -0.00517 0.07075
 N375 N 0.59241 -0.01070 0.01920
 N376 N 0.58491 0.00540 0.04461
 C377 C 0.60569 0.02909 0.04847
 C378 C 0.62720 0.02763 0.02424
 C379 C 0.61834 0.00219 0.00606
 H380 H 0.60517 0.04614 0.06739
 H381 H 0.62988 -0.00616 -0.01505
 N382 N 0.51091 -0.01980 0.09391
 N383 N 0.49432 -0.04478 0.08538
 C384 C 0.46990 -0.04830 0.10540
 C385 C 0.47133 -0.02448 0.12738
 C386 C 0.49747 -0.00681 0.11960
 H387 H 0.45224 -0.06665 0.10407
 H388 H 0.50588 0.01401 0.13166
 H389 H 0.52233 -0.02696 0.03621
 H390 H 0.54854 -0.05264 0.06035
 N391 N 1.01866 0.40713 0.51031
 N392 N 1.04362 0.41587 0.49411
 C393 C 1.04772 0.39583 0.46981
 C394 C 1.02402 0.37360 0.47102
 C395 C 1.00599 0.38129 0.49689
 H396 H 1.06641 0.39724 0.45254
 H397 H 0.98525 0.36903 0.50528
 Cu398 Cu 1.06802 0.45263 0.50661
 Cu399 Cu 1.00433 0.42998 0.54750
 Cu400 Cu 1.04794 0.49560 0.56984
 N401 N 1.09246 0.48935 0.51912
 N402 N 1.08439 0.50602 0.54397
 C403 C 1.10483 0.53004 0.54753
 C404 C 1.12671 0.52820 0.52366
 C405 C 1.11841 0.50222 0.50602
 H406 H 1.10387 0.54753 0.56603
 H407 H 1.13036 0.49349 0.48529
 N408 N 1.01025 0.48114 0.59287
 N409 N 0.99364 0.45616 0.58438
 C410 C 0.96944 0.45247 0.60462
 C411 C 0.97104 0.47621 0.62666
 C412 C 0.99704 0.49397 0.61873
 H413 H 0.95193 0.43397 0.60350
 H414 H 1.00560 0.51466 0.63091
 H415 H 1.02258 0.47350 0.53485
 H416 H 1.04797 0.44801 0.56013
 C417 C 0.37398 -0.00070 0.25021
 C418 C 0.12558 -0.00071 0.74947
 C419 C 0.62583 0.49976 0.25025
 C420 C 0.87451 0.50020 0.74988
 C421 C 0.25006 0.37541 -0.00012
 C422 C 0.75019 0.12465 0.00041
 C423 C 0.25017 0.62448 0.49983
 C424 C 0.74985 0.87567 0.49994
 C425 C -0.00065 0.25030 0.37457
 C426 C 0.00002 0.75001 0.12492
 C427 C 0.50033 0.24965 0.62652
 C428 C 0.49970 0.74995 0.87471
 C429 C 0.09716 0.23059 0.29982
 C430 C 0.07528 0.23491 0.31743
 C431 C 0.04939 0.24011 0.33768
 C432 C 0.02699 0.24465 0.35459
 C433 C 0.59738 0.73086 0.79958
 C434 C 0.57550 0.73503 0.81723
 C435 C 0.54965 0.74004 0.83759
 C436 C 0.52729 0.74445 0.85460
 C437 C 0.40182 0.76945 0.79991
 C438 C 0.42371 0.76512 0.81751
 C439 C 0.44962 0.75996 0.83776
 C440 C 0.47204 0.75548 0.85470
 C441 C -0.09807 0.26957 0.29926
 C442 C -0.07627 0.26536 0.31697
 C443 C -0.05050 0.26031 0.33739
 C444 C -0.02819 0.25587 0.35445
 C445 C -0.09748 0.73091 0.20026
 C446 C -0.07566 0.73504 0.18252
 C447 C -0.04988 0.74003 0.16209
 C448 C -0.02755 0.74444 0.14503
 C449 C 0.40180 0.23030 0.70103
 C450 C 0.42388 0.23454 0.68354
 C451 C 0.45001 0.23965 0.66340
 C452 C 0.47256 0.24411 0.64655
 C453 C 0.59848 0.26906 0.70147
 C454 C 0.57646 0.26484 0.68390
 C455 C 0.55045 0.25974 0.66363
 C456 C 0.52800 0.25525 0.64665
 C457 C 0.09771 0.76960 0.19987
 C458 C 0.07586 0.76530 0.18222
 C459 C 0.05001 0.76013 0.16191
 C460 C 0.02764 0.75562 0.14494
 C461 C 0.29905 0.09731 0.23160
 C462 C 0.31658 0.07535 0.23596
 C463 C 0.33688 0.04942 0.24090
 C464 C 0.35389 0.02700 0.24508
 C465 C 0.79939 0.59784 0.73105
 C466 C 0.81697 0.57596 0.73541
 C467 C 0.83735 0.55016 0.74042
 C468 C 0.85442 0.52783 0.74468
 C469 C 0.79928 0.40251 0.76864
 C470 C 0.81687 0.42442 0.76431
 C471 C 0.83728 0.45024 0.75934
 C472 C 0.85438 0.47258 0.75510
 C473 C 0.29849 -0.09845 0.26887
 C474 C 0.31616 -0.07656 0.26453
 C475 C 0.33666 -0.05073 0.25960
 C476 C 0.35380 -0.02837 0.25540
 C477 C 0.20108 -0.09843 0.73109
 C478 C 0.18340 -0.07654 0.73536
 C479 C 0.16288 -0.05073 0.74019
 C480 C 0.14573 -0.02838 0.74432
 C481 C 0.70143 0.40239 0.23162
 C482 C 0.68374 0.42421 0.23592
 C483 C 0.66320 0.44992 0.24085
 C484 C 0.64602 0.47219 0.24505
 C485 C 0.70088 0.59756 0.26913
 C486 C 0.68334 0.57562 0.26475
 C487 C 0.66297 0.54978 0.25974
 C488 C 0.64591 0.52742 0.25547
 C489 C 0.20056 0.09737 0.76795
 C490 C 0.18300 0.07540 0.76366
 C491 C 0.16268 0.04944 0.75878
 C492 C 0.14567 0.02700 0.75462
 C493 C 0.23084 0.30024 0.09719
 C494 C 0.23521 0.31786 0.07539
 C495 C 0.24036 0.33825 0.04968
 C496 C 0.24476 0.35531 0.02741
 C497 C 0.73121 0.80074 0.59735
 C498 C 0.73545 0.81831 0.57552
 C499 C 0.74042 0.83861 0.54977
 C500 C 0.74467 0.85562 0.52747
 C501 C 0.76883 0.80077 0.40256
 C502 C 0.76454 0.81835 0.42438
 C503 C 0.75949 0.83866 0.45011
 C504 C 0.75515 0.85565 0.47241
 C505 C 0.26864 0.30042 -0.09774
 C506 C 0.26442 0.31799 -0.07585
 C507 C 0.25950 0.33833 -0.05005
 C508 C 0.25527 0.35536 -0.02771
 C509 C 0.73157 0.19957 -0.09723
 C510 C 0.73580 0.18204 -0.07532
 C511 C 0.74073 0.16175 -0.04949
 C512 C 0.74496 0.14473 -0.02716
 C513 C 0.23102 0.69977 0.40261
 C514 C 0.23537 0.68210 0.42438
 C515 C 0.24051 0.66168 0.45006
 C516 C 0.24491 0.64459 0.47230
 C517 C 0.26816 0.69962 0.59743
 C518 C 0.26413 0.68199 0.57556
 C519 C 0.25942 0.66159 0.54976
 C520 C 0.25533 0.64454 0.52743
 C521 C 0.76976 0.19956 0.09782
 C522 C 0.76530 0.18199 0.07600
 C523 C 0.76003 0.16168 0.05026
 C524 C 0.75553 0.14469 0.02797
 C525 C 0.48071 0.34686 0.55058
 C526 C 0.48506 0.32513 0.56843
 C527 C 0.49027 0.29945 0.58906
 C528 C 0.49479 0.27722 0.60628
 C529 C -0.01948 0.84750 0.04975
 C530 C -0.01523 0.82567 0.06742
 C531 C -0.01010 0.79989 0.08780
 C532 C -0.00559 0.77757 0.10484
 C533 C 0.01956 0.65245 0.04983
 C534 C 0.01528 0.67427 0.06751
 C535 C 0.01012 0.70007 0.08787
 C536 C 0.00561 0.72241 0.10487
 C537 C 0.51953 0.15246 0.55047
 C538 C 0.51535 0.17413 0.56844
 C539 C 0.51033 0.19976 0.58916
 C540 C 0.50590 0.22201 0.60638
 C541 C -0.01997 0.15279 0.44977
 C542 C -0.01580 0.17460 0.43205
 C543 C -0.01078 0.20041 0.41167
 C544 C -0.00632 0.22275 0.39466
 C545 C 0.48079 0.65250 0.95017
 C546 C 0.48490 0.67428 0.93239
 C547 C 0.48985 0.70003 0.91189
 C548 C 0.49422 0.72235 0.89481
 C549 C 0.51941 0.84741 0.94996
 C550 C 0.51508 0.82562 0.93225
 C551 C 0.50985 0.79985 0.91183
 C552 C 0.50530 0.77754 0.89479
 C553 C 0.01906 0.34776 0.44971
 C554 C 0.01473 0.32596 0.43201
 C555 C 0.00951 0.30021 0.41161
 C556 C 0.00496 0.27789 0.39460
 C557 C 0.34711 0.54842 0.48149
 C558 C 0.32540 0.56624 0.48570
 C559 C 0.29985 0.58697 0.49050
 C560 C 0.27770 0.60429 0.49464
 C561 C 0.84740 0.04923 -0.01839
 C562 C 0.82560 0.06688 -0.01403
 C563 C 0.79995 0.08738 -0.00905
 C564 C 0.77773 0.10454 -0.00482
 C565 C 0.65316 0.04868 0.01890
 C566 C 0.67490 0.06647 0.01464
 C567 C 0.70046 0.08718 0.00979
 C568 C 0.72264 0.10448 0.00562
 C569 C 0.15274 0.54915 0.51834
 C570 C 0.17458 0.56678 0.51405
 C571 C 0.20029 0.58726 0.50915
 C572 C 0.22257 0.60439 0.50497
 C573 C 0.15275 0.45080 -0.01869
 C574 C 0.17454 0.43314 -0.01437
 C575 C 0.20023 0.41265 -0.00946
 C576 C 0.22249 0.39551 -0.00529
 C577 C 0.65281 0.95113 0.48122
 C578 C 0.67452 0.93342 0.48557
 C579 C 0.70009 0.91286 0.49053
 C580 C 0.72229 0.89569 0.49475
 C581 C 0.84697 0.95123 0.51836
 C582 C 0.82518 0.93357 0.51412
 C583 C 0.79954 0.91305 0.50928
 C584 C 0.77733 0.89585 0.50513
 C585 C 0.34730 0.45102 0.01883
 C586 C 0.32550 0.43334 0.01442
 C587 C 0.29985 0.41278 0.00939
 C588 C 0.27763 0.39557 0.00513
 C589 C 0.55017 0.48073 0.34741
 C590 C 0.56799 0.48516 0.32573
 C591 C 0.58855 0.49023 0.30009
 C592 C 0.60570 0.49451 0.27783
 C593 C 0.04993 -0.01889 0.84686
 C594 C 0.06765 -0.01477 0.82503
 C595 C 0.08821 -0.01000 0.79932
 C596 C 0.10541 -0.00587 0.77706
 C597 C 0.04979 0.01877 0.65246
 C598 C 0.06755 0.01427 0.67418
 C599 C 0.08815 0.00899 0.69976
 C600 C 0.10538 0.00454 0.72192
 C601 C 0.55039 0.51870 0.15294
 C602 C 0.56809 0.51434 0.17472
 C603 C 0.58857 0.50928 0.20041
 C604 C 0.60570 0.50497 0.22267
 C605 C 0.44988 -0.01917 0.15305
 C606 C 0.43197 -0.01489 0.17470
 C607 C 0.41131 -0.01001 0.20032
 C608 C 0.39410 -0.00585 0.22257
 C609 C 0.94990 0.48139 0.65257
 C610 C 0.93223 0.48570 0.67436
 C611 C 0.91175 0.49071 0.70005
 C612 C 0.89463 0.49498 0.72231
 C613 C 0.95009 0.51885 0.84707
 C614 C 0.93238 0.51460 0.82530
 C615 C 0.91185 0.50965 0.79964
 C616 C 0.89467 0.50541 0.77741
 C617 C 0.44987 0.01857 0.34724
 C618 C 0.43208 0.01410 0.32553
 C619 C 0.41146 0.00891 0.29992
 C620 C 0.39422 0.00454 0.27774
   
