data_POSCAR
  _audit_creation_date              2014-09-24
  _audit_creation_method            'ToBaCCo'
  _symmetry_space_group_name_H-M    'P1'
  _symmetry_Int_Tables_number       1
  _symmetry_cell_setting            triclinic
  loop_
  _symmetry_equiv_pos_as_xyz
 x,y,z
_cell_length_a 40.4714
_cell_length_b 37.1802
_cell_length_c 40.2124
_cell_angle_alpha 87.116000
_cell_angle_beta 90.586300
_cell_angle_gamma 90.937600
loop_
  _atom_site_label
  _atom_site_type_symbol
  _atom_site_fract_x
  _atom_site_fract_y
  _atom_site_fract_z
C1 C 0.61767 0.66107 0.61695
 C2 C 0.64367 0.64472 0.60089
 C3 C 0.65807 0.61413 0.61530
 C4 C 0.64687 0.59967 0.64614
 C5 C 0.62118 0.61573 0.66188
 C6 C 0.60662 0.64670 0.64731
 C7 C 0.59919 0.69115 0.60902
 N8 N 0.57737 0.69531 0.63398
 C9 C 0.58189 0.66841 0.65753
 C10 C 0.61517 0.59586 0.69100
 N11 N 0.63679 0.56830 0.69363
 C12 C 0.65638 0.57044 0.66620
 C13 C 0.68264 0.60426 0.59434
 N14 N 0.68349 0.62818 0.56763
 C15 C 0.65994 0.65312 0.57156
 H16 H 0.60198 0.70904 0.58712
 H17 H 0.56818 0.66499 0.68048
 H18 H 0.59645 0.60116 0.70911
 H19 H 0.67571 0.55198 0.66063
 H20 H 0.69908 0.58181 0.59865
 H21 H 0.65506 0.67575 0.55430
 C22 C 0.88471 0.34364 0.12278
 C23 C 0.85700 0.35799 0.10597
 C24 C 0.84067 0.38668 0.11857
 C25 C 0.85166 0.40119 0.14834
 C26 C 0.87892 0.38690 0.16497
 C27 C 0.89538 0.35775 0.15224
 C28 C 0.90587 0.31646 0.11584
 N29 N 0.92903 0.31354 0.14064
 C30 C 0.92255 0.33854 0.16308
 C31 C 0.88468 0.40695 0.19234
 N32 N 0.86156 0.43305 0.19267
 C33 C 0.84107 0.42948 0.16609
 C34 C 0.81503 0.39518 0.09697
 N35 N 0.81538 0.37217 0.07175
 C36 C 0.84082 0.34926 0.07715
 H37 H 0.90397 0.29991 0.09452
 H38 H 0.93692 0.34283 0.18545
 H39 H 0.90427 0.40280 0.21058
 H40 H 0.82046 0.44681 0.15973
 H41 H 0.79708 0.41604 0.09986
 H42 H 0.84705 0.32779 0.06121
 C43 C 0.39502 0.13057 -0.10425
 C44 C 0.36733 0.11233 -0.09061
 C45 C 0.35520 0.08157 -0.10480
 C46 C 0.37035 0.06891 -0.13307
 C47 C 0.39763 0.08690 -0.14651
 C48 C 0.40996 0.11803 -0.13211
 C49 C 0.41240 0.16084 -0.09548
 N50 N 0.43720 0.16719 -0.11756
 C51 C 0.43598 0.14107 -0.14004
 C52 C 0.40700 0.06887 -0.17384
 N53 N 0.38582 0.04043 -0.17750
 C54 C 0.36331 0.04042 -0.15266
 C55 C 0.32849 0.06939 -0.08629
 N56 N 0.32385 0.09230 -0.06162
 C57 C 0.34753 0.11863 -0.06396
 H58 H 0.40738 0.17716 -0.07461
 H59 H 0.45307 0.13852 -0.16027
 H60 H 0.42723 0.07677 -0.19013
 H61 H 0.34313 0.02113 -0.14920
 H62 H 0.31332 0.04579 -0.09057
 H63 H 0.35043 0.14045 -0.04728
 C64 C 0.10288 0.85730 0.40259
 C65 C 0.13409 0.86994 0.41264
 C66 C 0.15089 0.89564 0.39294
 C67 C 0.13641 0.90960 0.36328
 C68 C 0.10559 0.89727 0.35352
 C69 C 0.08895 0.87058 0.37303
 C70 C 0.08128 0.83173 0.41615
 N71 N 0.05495 0.82859 0.39521
 C72 C 0.05938 0.85257 0.36882
 C73 C 0.09722 0.91611 0.32443
 N74 N 0.12225 0.93982 0.31630
 C75 C 0.14644 0.93561 0.33979
 C76 C 0.18069 0.90231 0.40842
 N77 N 0.18231 0.88124 0.43700
 C78 C 0.15385 0.86162 0.43992
 H79 H 0.08494 0.81576 0.43914
 H80 H 0.04256 0.85696 0.34799
 H81 H 0.07445 0.91257 0.31060
 H82 H 0.16937 0.95103 0.34020
 H83 H 0.19955 0.92138 0.39970
 H84 H 0.14814 0.84241 0.46027
 N85 N 0.08307 0.18154 0.09195
 N86 N 0.07053 0.16684 0.11955
 C87 C 0.04248 0.18387 0.12650
 C88 C 0.03709 0.21030 0.10168
 C89 C 0.06314 0.20794 0.08009
 H90 H 0.02664 0.17697 0.14743
 H91 H 0.06734 0.22440 0.05754
 Cu92 Cu 0.09109 0.12548 0.14238
 Cu93 Cu 0.12459 0.16589 0.07387
 Cu94 Cu 0.16214 0.09273 0.11471
 N95 N 0.11209 0.08415 0.16479
 N96 N 0.14013 0.07178 0.15415
 C97 C 0.14934 0.04351 0.17417
 C98 C 0.12563 0.03758 0.19835
 C99 C 0.10234 0.06390 0.19173
 H100 H 0.17146 0.02810 0.17120
 H101 H 0.08017 0.06817 0.20568
 N102 N 0.18053 0.11769 0.07444
 N103 N 0.16669 0.14614 0.05947
 C104 C 0.18575 0.15800 0.03379
 C105 C 0.21247 0.13565 0.03223
 C106 C 0.20848 0.11036 0.05833
 H107 H 0.18057 0.18107 0.01722
 H108 H 0.22506 0.08875 0.06545
 H109 H 0.12009 0.11285 0.09152
 H110 H 0.14397 0.14403 0.11807
 N111 N 0.42769 0.84126 0.58421
 N112 N 0.43993 0.84961 0.61329
 C113 C 0.46788 0.83114 0.61931
 C114 C 0.47343 0.81016 0.59251
 C115 C 0.44763 0.81746 0.57060
 H116 H 0.48280 0.83246 0.64168
 H117 H 0.44300 0.80515 0.54716
 Cu118 Cu 0.41753 0.88281 0.64092
 Cu119 Cu 0.38510 0.85885 0.56789
 Cu120 Cu 0.34305 0.91508 0.61872
 N121 N 0.39515 0.91687 0.66769
 N122 N 0.36546 0.92833 0.65954
 C123 C 0.35566 0.95142 0.68208
 C124 C 0.38071 0.95498 0.70529
 C125 C 0.40542 0.93260 0.69551
 H126 H 0.33250 0.96556 0.68109
 H127 H 0.42909 0.92827 0.70762
 N128 N 0.32487 0.89901 0.57621
 N129 N 0.34153 0.87907 0.55612
 C130 C 0.32317 0.87406 0.52854
 C131 C 0.29354 0.89157 0.53159
 C132 C 0.29537 0.90689 0.56208
 H133 H 0.33047 0.85822 0.50812
 H134 H 0.27662 0.92291 0.57293
 H135 H 0.38581 0.90614 0.59296
 H136 H 0.36556 0.86594 0.61426
 N137 N 0.90163 0.68890 0.38317
 N138 N 0.91092 0.67576 0.35505
 C139 C 0.93538 0.69670 0.34183
 C140 C 0.94211 0.72394 0.36306
 C141 C 0.92027 0.71828 0.38910
 H142 H 0.94783 0.69228 0.31875
 H143 H 0.91769 0.73467 0.41035
 Cu144 Cu 0.89123 0.63159 0.33940
 Cu145 Cu 0.86501 0.66792 0.40898
 Cu146 Cu 0.82812 0.59025 0.38025
 N147 N 0.87122 0.58741 0.32415
 N148 N 0.84609 0.57170 0.33981
 C149 C 0.83720 0.54174 0.32423
 C150 C 0.85817 0.53827 0.29775
 C151 C 0.87942 0.56776 0.29834
 H152 H 0.81747 0.52333 0.33202
 H153 H 0.89932 0.57438 0.28127
 N154 N 0.81362 0.61318 0.42072
 N155 N 0.82753 0.64285 0.43148
 C156 C 0.81180 0.65218 0.45903
 C157 C 0.78711 0.62706 0.46614
 C158 C 0.78888 0.60268 0.44137
 H159 H 0.81776 0.67555 0.47302
 H160 H 0.77301 0.57939 0.43832
 H161 H 0.87113 0.61558 0.39523
 H162 H 0.84127 0.64359 0.37001
 N163 N 0.58835 0.30812 -0.10010
 N164 N 0.57485 0.32407 -0.12668
 C165 C 0.54890 0.30408 -0.13668
 C166 C 0.54594 0.27411 -0.11500
 C167 C 0.57123 0.27763 -0.09204
 H168 H 0.53322 0.31109 -0.15787
 H169 H 0.57687 0.25917 -0.07119
 Cu170 Cu 0.59181 0.36978 -0.14544
 Cu171 Cu 0.62733 0.32783 -0.07834
 Cu172 Cu 0.66480 0.40221 -0.11806
 N173 N 0.61598 0.40764 -0.17027
 N174 N 0.64495 0.41951 -0.16008
 C175 C 0.65615 0.44527 -0.18207
 C176 C 0.63277 0.44985 -0.20723
 C177 C 0.60757 0.42572 -0.19887
 H178 H 0.67908 0.46025 -0.17945
 H179 H 0.58482 0.42167 -0.21262
 N180 N 0.68088 0.38067 -0.07525
 N181 N 0.66691 0.35189 -0.06042
 C182 C 0.68359 0.34340 -0.03203
 C183 C 0.70892 0.36825 -0.02864
 C184 C 0.70658 0.39151 -0.05648
 H185 H 0.67757 0.32108 -0.01476
 H186 H 0.72253 0.41441 -0.06272
 H187 H 0.62287 0.38129 -0.09468
 H188 H 0.64494 0.35107 -0.12267
 C189 C -0.04544 0.29011 0.14374
 C190 C -0.03593 0.26987 0.11901
 C191 C -0.00807 0.24513 0.12374
 C192 C 0.00908 0.23491 0.09774
 H193 H -0.04757 0.27235 0.09469
 H194 H -0.00090 0.23612 0.14881
 H195 H -0.03133 0.28881 0.16685
 H196 H 0.00331 0.24601 0.07296
 C197 C 0.55410 0.72369 0.63677
 C198 C 0.54219 0.74249 0.61020
 C199 C 0.51740 0.77042 0.61432
 C200 C 0.49968 0.78377 0.58846
 H201 H 0.54974 0.73641 0.58537
 H202 H 0.51270 0.77903 0.63915
 H203 H 0.54474 0.72872 0.66126
 H204 H 0.50330 0.77373 0.56394
 C205 C 1.02955 0.80449 0.40048
 C206 C 1.00707 0.79714 0.37697
 C207 C 0.98115 0.76949 0.38323
 C208 C 0.96708 0.75281 0.35794
 H209 H 1.00862 0.80980 0.35221
 H210 H 0.97467 0.76158 0.40868
 H211 H 1.02848 0.78919 0.42417
 H212 H 0.97541 0.75908 0.33274
 C213 C 0.46105 0.19607 -0.11585
 C214 C 0.47778 0.20869 -0.14268
 C215 C 0.50209 0.23867 -0.14180
 C216 C 0.52118 0.24464 -0.11517
 H217 H 0.47218 0.19828 -0.16678
 H218 H 0.50563 0.25483 -0.16466
 H219 H 0.46428 0.20889 -0.09241
 H220 H 0.51966 0.22665 -0.09319
 C221 C 0.12371 -0.03541 0.29014
 C222 C 0.09793 -0.02843 0.26962
 C223 C 0.09871 -0.00014 0.24254
 C224 C 0.12595 0.00932 0.22538
 H225 H 0.07428 -0.04160 0.27396
 H226 H 0.07532 0.01190 0.23552
 H227 H 0.14625 -0.01955 0.28679
 H228 H 0.14883 -0.00475 0.23031
 C229 C 0.63716 0.54328 -0.28042
 C230 C 0.66083 0.51856 -0.27593
 C231 C 0.66073 0.49201 -0.24739
 C232 C 0.63292 0.47611 -0.23585
 H233 H 0.68216 0.51898 -0.29190
 H234 H 0.68440 0.48402 -0.23692
 H235 H 0.61789 0.54415 -0.26194
 H236 H 0.60955 0.48164 -0.24831
 C237 C 0.38541 1.01621 0.79814
 C238 C 0.40955 1.01446 0.77562
 C239 C 0.40873 0.98875 0.74883
 C240 C 0.38077 0.97882 0.73346
 H241 H 0.43172 1.03084 0.77745
 H242 H 0.43231 0.98012 0.73988
 H243 H 0.36499 0.99700 0.79744
 H244 H 0.35740 0.98998 0.74034
 C245 C 0.85890 0.46047 0.21636
 C246 C 0.88532 0.47227 0.23321
 C247 C 0.88423 0.50196 0.25614
 C248 C 0.85786 0.50884 0.27451
 H249 H 0.90945 0.46177 0.22822
 H250 H 0.90692 0.51728 0.25927
 H251 H 0.83532 0.47343 0.21876
 H252 H 0.83603 0.49165 0.27371
 C253 C 0.29842 0.08818 -0.03707
 C254 C 0.28539 0.11655 -0.02322
 C255 C 0.25876 0.11187 0.00133
 C256 C 0.23960 0.13941 0.00815
 H257 H 0.29361 0.14355 -0.03090
 H258 H 0.25420 0.08543 0.01314
 H259 H 0.28841 0.06143 -0.03106
 H260 H 0.24304 0.16522 -0.00524
 C261 C 0.70605 0.62888 0.54026
 C262 C 0.72170 0.59933 0.53156
 C263 C 0.74471 0.59924 0.50329
 C264 C 0.76374 0.62771 0.49394
 H265 H 0.71615 0.57363 0.54425
 H266 H 0.74728 0.57409 0.49122
 H267 H 0.70916 0.65386 0.52549
 H268 H 0.76320 0.65197 0.50772
 C269 C 0.79229 0.37041 0.04452
 C270 C 0.77501 0.39908 0.03341
 C271 C 0.75143 0.39797 0.00521
 C272 C 0.73305 0.36875 -0.00100
 H273 H 0.77959 0.42494 0.04390
 H274 H 0.74775 0.42282 -0.00946
 H275 H 0.79012 0.34545 0.03182
 H276 H 0.73459 0.34482 0.01541
 C277 C 0.20886 0.87988 0.46095
 C278 C 0.24009 0.88806 0.45237
 C279 C 0.26803 0.88579 0.47620
 C280 C 0.26525 0.89325 0.50827
 H281 H 0.24595 0.89435 0.42651
 H282 H 0.29202 0.87989 0.46632
 H283 H 0.20347 0.87001 0.48615
 H284 H 0.24192 0.90224 0.51757
   
