data_POSCAR
  _audit_creation_date              2014-09-24
  _audit_creation_method            'ToBaCCo'
  _symmetry_space_group_name_H-M    'P1'
  _symmetry_Int_Tables_number       1
  _symmetry_cell_setting            triclinic
  loop_
  _symmetry_equiv_pos_as_xyz
 x,y,z
_cell_length_a 48.0438
_cell_length_b 47.8894
_cell_length_c 48.0312
_cell_angle_alpha 89.922800
_cell_angle_beta 89.996400
_cell_angle_gamma 90.090900
loop_
  _atom_site_label
  _atom_site_type_symbol
  _atom_site_fract_x
  _atom_site_fract_y
  _atom_site_fract_z
N1 N 0.59218 0.66908 0.61358
 N2 N 0.58121 0.65758 0.63594
 C3 C 0.55866 0.67240 0.64365
 C4 C 0.55554 0.69417 0.62512
 C5 C 0.57703 0.69157 0.60631
 H6 H 0.54552 0.66781 0.66136
 H7 H 0.58131 0.70503 0.58872
 Cu8 Cu 0.59777 0.62457 0.65278
 Cu9 Cu 0.62527 0.65410 0.59556
 Cu10 Cu 0.65472 0.59494 0.62510
 N11 N 0.61423 0.59124 0.66908
 N12 N 0.63662 0.57983 0.65817
 C13 C 0.64388 0.55733 0.67336
 C14 C 0.62501 0.55467 0.69480
 C15 C 0.60646 0.57637 0.69164
 H16 H 0.66152 0.54398 0.66916
 H17 H 0.58877 0.58095 0.70479
 N18 N 0.66996 0.61331 0.59163
 N19 N 0.65874 0.63584 0.58038
 C20 C 0.67377 0.64330 0.55787
 C21 C 0.69530 0.62459 0.55497
 C22 C 0.69241 0.60586 0.57656
 H23 H 0.66944 0.66098 0.54453
 H24 H 0.70568 0.58817 0.58088
 H25 H 0.61960 0.61328 0.60839
 H26 H 0.64214 0.63578 0.63070
 N27 N 0.90860 0.33007 0.11326
 N28 N 0.91983 0.34182 0.13534
 C29 C 0.94242 0.32706 0.14307
 C30 C 0.94526 0.30507 0.12482
 C31 C 0.92362 0.30745 0.10617
 H32 H 0.95571 0.33182 0.16061
 H33 H 0.91910 0.29377 0.08884
 Cu34 Cu 0.90332 0.37495 0.15185
 Cu35 Cu 0.87533 0.34486 0.09536
 Cu36 Cu 0.84585 0.40402 0.12485
 N37 N 0.88681 0.40808 0.16837
 N38 N 0.86417 0.41925 0.15772
 C39 C 0.85679 0.44156 0.17305
 C40 C 0.87583 0.44440 0.19431
 C41 C 0.89461 0.42295 0.19088
 H42 H 0.83893 0.45469 0.16910
 H43 H 0.91247 0.41853 0.20385
 N44 N 0.83048 0.38551 0.09156
 N45 N 0.84170 0.36299 0.08034
 C46 C 0.82660 0.35549 0.05790
 C47 C 0.80504 0.37416 0.05503
 C48 C 0.80796 0.39291 0.07654
 H49 H 0.83096 0.33785 0.04457
 H50 H 0.79471 0.41062 0.08082
 H51 H 0.88078 0.38578 0.10768
 H52 H 0.85877 0.36325 0.13053
 N53 N 0.40766 0.16958 -0.11343
 N54 N 0.41863 0.15810 -0.13576
 C55 C 0.44119 0.17296 -0.14349
 C56 C 0.44434 0.19471 -0.12500
 C57 C 0.42285 0.19208 -0.10619
 H58 H 0.45438 0.16835 -0.16114
 H59 H 0.41862 0.20548 -0.08860
 Cu60 Cu 0.40237 0.12477 -0.15223
 Cu61 Cu 0.37459 0.15451 -0.09537
 Cu62 Cu 0.34501 0.09538 -0.12484
 N63 N 0.38545 0.09182 -0.16882
 N64 N 0.36304 0.08038 -0.15790
 C65 C 0.35573 0.05793 -0.17310
 C66 C 0.37457 0.05530 -0.19454
 C67 C 0.39316 0.07701 -0.19137
 H68 H 0.33809 0.04452 -0.16887
 H69 H 0.41092 0.08155 -0.20446
 N70 N 0.32985 0.11366 -0.09139
 N71 N 0.34112 0.13619 -0.08017
 C72 C 0.32607 0.14366 -0.05772
 C73 C 0.30448 0.12495 -0.05483
 C74 C 0.30734 0.10622 -0.07635
 H75 H 0.33041 0.16135 -0.04444
 H76 H 0.29399 0.08855 -0.08068
 H77 H 0.38014 0.11363 -0.10792
 H78 H 0.35794 0.13615 -0.13056
 N79 N 0.09139 0.83009 0.38679
 N80 N 0.08014 0.84188 0.36473
 C81 C 0.05755 0.82707 0.35699
 C82 C 0.05471 0.80501 0.37523
 C83 C 0.07637 0.80739 0.39387
 H84 H 0.04425 0.83186 0.33946
 H85 H 0.08090 0.79367 0.41119
 Cu86 Cu 0.09664 0.87514 0.34824
 Cu87 Cu 0.12468 0.84496 0.40469
 Cu88 Cu 0.15411 0.90431 0.37520
 N89 N 0.11313 0.90836 0.33171
 N90 N 0.13578 0.91957 0.34235
 C91 C 0.14314 0.94196 0.32704
 C92 C 0.12409 0.94481 0.30580
 C93 C 0.10531 0.92329 0.30922
 H94 H 0.16101 0.95514 0.33099
 H95 H 0.08745 0.91886 0.29626
 N96 N 0.16952 0.88578 0.40847
 N97 N 0.15833 0.86319 0.41970
 C98 C 0.17344 0.85571 0.44214
 C99 C 0.19498 0.87448 0.44499
 C100 C 0.19203 0.89325 0.42347
 H101 H 0.16912 0.83802 0.45548
 H102 H 0.20526 0.91102 0.41917
 H103 H 0.11921 0.88590 0.39238
 H104 H 0.14121 0.86352 0.36951
 C105 C 0.10351 0.14617 0.12524
 C106 C 0.12411 0.14619 0.10460
 C107 C 0.14475 0.12555 0.10461
 C108 C 0.14476 0.10488 0.12527
 C109 C 0.12416 0.10482 0.14590
 C110 C 0.10354 0.12548 0.14589
 H111 H 0.12409 0.16220 0.08860
 H112 H 0.16073 0.08889 0.12527
 H113 H 0.08759 0.12544 0.16187
 C114 C 0.39595 0.85411 0.62516
 C115 C 0.37534 0.85415 0.60453
 C116 C 0.35474 0.87483 0.60451
 C117 C 0.35476 0.89548 0.62514
 C118 C 0.37537 0.89546 0.64578
 C119 C 0.39595 0.87478 0.64578
 H120 H 0.37532 0.83816 0.58856
 H121 H 0.33882 0.91149 0.62515
 H122 H 0.41190 0.87476 0.66176
 C123 C 0.89628 0.64565 0.37463
 C124 C 0.87563 0.64563 0.39524
 C125 C 0.85499 0.62493 0.39529
 C126 C 0.85502 0.60422 0.37471
 C127 C 0.87567 0.60419 0.35410
 C128 C 0.89628 0.62492 0.35407
 H129 H 0.87562 0.66167 0.41116
 H130 H 0.83905 0.58818 0.37473
 H131 H 0.91226 0.62491 0.33812
 C132 C 0.60447 0.35451 -0.12552
 C133 C 0.62513 0.35448 -0.10494
 C134 C 0.64579 0.37516 -0.10495
 C135 C 0.64577 0.39589 -0.12557
 C136 C 0.62511 0.39594 -0.14616
 C137 C 0.60447 0.37524 -0.14612
 H138 H 0.62513 0.33843 -0.08898
 H139 H 0.66176 0.41190 -0.12559
 H140 H 0.58847 0.37527 -0.16206
 C141 C 0.02400 0.21317 0.15020
 C142 C 0.02927 0.24477 0.14558
 C143 C 0.00444 0.24559 0.12544
 C144 C -0.00118 0.21433 0.13007
 C145 C 0.04308 0.20675 0.12536
 C146 C 0.01824 0.20756 0.10523
 C147 C 0.04869 0.23800 0.12074
 C148 C 0.02353 0.23915 0.10061
 C149 C -0.01705 0.26723 0.12536
 C150 C -0.03475 0.28503 0.12517
 C151 C 0.06461 0.18514 0.12530
 C152 C 0.08234 0.16738 0.12526
 H153 H 0.02444 0.20223 0.17059
 H154 H 0.03356 0.26030 0.16217
 H155 H -0.02192 0.20484 0.13392
 H156 H 0.01395 0.19203 0.08864
 H157 H 0.06944 0.24749 0.11689
 H158 H 0.02308 0.25008 0.08022
 C159 C 0.47227 0.78372 0.59940
 C160 C 0.49977 0.78502 0.61621
 C161 C 0.49506 0.75466 0.62550
 C162 C 0.46789 0.75304 0.60869
 C163 C 0.45638 0.79348 0.62537
 C164 C 0.45167 0.76313 0.63467
 C165 C 0.48354 0.79511 0.64218
 C166 C 0.47916 0.76442 0.65148
 C167 C 0.51660 0.73304 0.62548
 C168 C 0.53435 0.71528 0.62537
 C169 C 0.43483 0.81509 0.62528
 C170 C 0.41710 0.83287 0.62520
 H171 H 0.46921 0.79190 0.57798
 H172 H 0.51979 0.79379 0.60862
 H173 H 0.46170 0.73550 0.59493
 H174 H 0.43165 0.75437 0.64226
 H175 H 0.48973 0.81265 0.65595
 H176 H 0.48223 0.75625 0.67290
 C177 C 0.95683 0.73204 0.35516
 C178 C 0.96449 0.75065 0.38039
 C179 C 0.99546 0.74536 0.37445
 C180 C 0.98814 0.72709 0.34922
 C181 C 0.95678 0.70641 0.37444
 C182 C 0.98775 0.70111 0.36849
 C183 C 0.96411 0.72469 0.39967
 C184 C 0.99541 0.71972 0.39372
 C185 C 1.01699 0.76706 0.37461
 C186 C 1.03470 0.78491 0.37485
 C187 C 0.93522 0.68475 0.37449
 C188 C 0.91747 0.66693 0.37456
 H189 H 0.94073 0.73687 0.33930
 H190 H 0.95517 0.77127 0.38528
 H191 H 0.99825 0.72831 0.32847
 H192 H 0.99708 0.68050 0.36360
 H193 H 0.95400 0.72347 0.42042
 H194 H 1.01151 0.71490 0.40958
 C195 C 0.54548 0.26657 -0.10850
 C196 C 0.51488 0.27096 -0.09933
 C197 C 0.50518 0.25498 -0.12531
 C198 C 0.53544 0.25025 -0.13447
 C199 C 0.54396 0.29380 -0.12538
 C200 C 0.53427 0.27782 -0.15136
 C201 C 0.51370 0.29852 -0.11621
 C202 C 0.50367 0.28221 -0.14218
 C203 C 0.48353 0.23342 -0.12526
 C204 C 0.46567 0.21574 -0.12518
 C205 C 0.56553 0.31544 -0.12545
 C206 C 0.58328 0.33325 -0.12549
 H207 H 0.56292 0.26039 -0.09465
 H208 H 0.50667 0.26789 -0.07794
 H209 H 0.54414 0.23017 -0.14198
 H210 H 0.54248 0.28089 -0.17275
 H211 H 0.50500 0.31861 -0.10870
 H212 H 0.48623 0.28839 -0.15603
 C213 C 0.12712 0.01264 0.20055
 C214 C 0.14824 0.01057 0.22484
 C215 C 0.12399 0.00511 0.24499
 C216 C 0.10287 0.00683 0.22104
 C217 C 0.12411 0.04403 0.20631
 C218 C 0.09986 0.03857 0.22646
 C219 C 0.14523 0.04231 0.23026
 C220 C 0.12099 0.03651 0.25074
 C221 C 0.12394 -0.01649 0.26660
 C222 C 0.12396 -0.03419 0.28445
 C223 C 0.12415 0.06572 0.18479
 C224 C 0.12416 0.08355 0.16707
 H225 H 0.12964 0.00308 0.17966
 H226 H 0.16813 -0.00118 0.22440
 H227 H 0.08545 -0.00800 0.21748
 H228 H 0.07998 0.05033 0.22689
 H229 H 0.16265 0.05714 0.23381
 H230 H 0.11847 0.04608 0.27163
 C231 C 0.60566 0.48226 -0.20671
 C232 C 0.63085 0.50092 -0.21455
 C233 C 0.62478 0.49549 -0.24548
 C234 C 0.59959 0.47717 -0.23798
 C235 C 0.62493 0.45669 -0.20667
 C236 C 0.61886 0.45126 -0.23760
 C237 C 0.65013 0.47501 -0.21416
 C238 C 0.64405 0.46992 -0.24543
 C239 C 0.62476 0.51706 -0.26714
 C240 C 0.62483 0.53476 -0.28501
 C241 C 0.62502 0.43505 -0.18507
 C242 C 0.62508 0.41724 -0.16733
 H243 H 0.58987 0.48708 -0.19055
 H244 H 0.63578 0.52157 -0.20529
 H245 H 0.57880 0.47830 -0.24801
 H246 H 0.61393 0.43061 -0.24685
 H247 H 0.67091 0.47387 -0.20413
 H248 H 0.65984 0.46509 -0.26158
 C249 C 0.37118 0.98736 0.70059
 C250 C 0.35060 0.98869 0.72539
 C251 C 0.37516 0.99486 0.74494
 C252 C 0.39573 0.99387 0.72048
 C253 C 0.37530 0.95606 0.70625
 C254 C 0.39986 0.96222 0.72580
 C255 C 0.35473 0.95705 0.73072
 C256 C 0.37929 0.96355 0.75060
 C257 C 0.37501 1.01646 0.76650
 C258 C 0.37484 1.03420 0.78425
 C259 C 0.37535 0.93445 0.68470
 C260 C 0.37537 0.91668 0.66696
 H261 H 0.36784 0.99691 0.67979
 H262 H 0.33035 0.99981 0.72547
 H263 H 0.41258 1.00925 0.71651
 H264 H 0.42011 0.95110 0.72572
 H265 H 0.33788 0.94167 0.73469
 H266 H 0.38262 0.95401 0.77141
 C267 C 0.85973 0.54528 0.26624
 C268 C 0.88591 0.53470 0.25068
 C269 C 0.87595 0.50452 0.25517
 C270 C 0.84978 0.51477 0.27041
 C271 C 0.87582 0.54338 0.29382
 C272 C 0.86586 0.51321 0.29833
 C273 C 0.90199 0.53313 0.27859
 C274 C 0.89204 0.50262 0.28275
 C275 C 0.87599 0.48298 0.23355
 C276 C 0.87597 0.46534 0.21568
 C277 C 0.87575 0.56505 0.31532
 C278 C 0.87570 0.58289 0.33300
 H279 H 0.84645 0.56306 0.25968
 H280 H 0.89415 0.54328 0.23084
 H281 H 0.82830 0.50698 0.26682
 H282 H 0.85761 0.50463 0.31816
 H283 H 0.92347 0.54092 0.28218
 H284 H 0.90531 0.48484 0.28931
 C285 C 0.20151 0.11295 0.01493
 C286 C 0.21543 0.13932 0.00237
 C287 C 0.24396 0.12521 0.00548
 C288 C 0.23038 0.09885 0.01770
 C289 C 0.20521 0.12543 0.04415
 C290 C 0.23374 0.11133 0.04725
 C291 C 0.21879 0.15180 0.03192
 C292 C 0.24766 0.13769 0.03470
 C293 C 0.26554 0.12509 -0.01605
 C294 C 0.28330 0.12501 -0.03375
 C295 C 0.18364 0.12552 0.06568
 C296 C 0.16590 0.12556 0.08341
 H297 H 0.18229 0.10277 0.00704
 H298 H 0.20814 0.15082 -0.01633
 H299 H 0.23540 0.07707 0.01161
 H300 H 0.24103 0.09982 0.06595
 H301 H 0.21378 0.17357 0.03802
 H302 H 0.26688 0.14786 0.04258
 C303 C 0.80020 0.62637 0.48713
 C304 C 0.77676 0.64837 0.48994
 C305 C 0.75566 0.62464 0.49441
 C306 C 0.77877 0.60264 0.49194
 C307 C 0.79441 0.62477 0.45571
 C308 C 0.77331 0.60104 0.46018
 C309 C 0.77130 0.64677 0.45819
 C310 C 0.74987 0.62304 0.46300
 C311 C 0.73411 0.62460 0.51600
 C312 C 0.71640 0.62458 0.53377
 C313 C 0.81601 0.62485 0.43417
 C314 C 0.83378 0.62490 0.41645
 H315 H 0.82113 0.62774 0.49682
 H316 H 0.77794 0.66783 0.50241
 H317 H 0.78160 0.58449 0.50605
 H318 H 0.77213 0.58157 0.44771
 H319 H 0.76846 0.66491 0.44407
 H320 H 0.72893 0.62166 0.45331
 C321 C 0.73600 0.38581 -0.04845
 C322 C 0.73387 0.40091 -0.02002
 C323 C 0.74482 0.37445 -0.00561
 C324 C 0.74728 0.35935 -0.03370
 C325 C 0.70622 0.37477 -0.04444
 C326 C 0.71717 0.34832 -0.03003
 C327 C 0.70376 0.38988 -0.01635
 C328 C 0.71504 0.36342 -0.00160
 C329 C 0.76630 0.37431 0.01603
 C330 C 0.78397 0.37423 0.03383
 C331 C 0.68471 0.37496 -0.06604
 C332 C 0.66699 0.37508 -0.08380
 H333 H 0.74437 0.39501 -0.06795
 H334 H 0.74098 0.42253 -0.01566
 H335 H 0.76541 0.34679 -0.04059
 H336 H 0.71005 0.32669 -0.03438
 H337 H 0.68563 0.40243 -0.00945
 H338 H 0.70667 0.35421 0.01790
 C339 C 0.26278 0.87655 0.54998
 C340 C 0.25993 0.89856 0.52648
 C341 C 0.25539 0.87483 0.50546
 C342 C 0.25790 0.85282 0.52862
 C343 C 0.29417 0.87492 0.54411
 C344 C 0.28962 0.85120 0.52308
 C345 C 0.29166 0.89693 0.52095
 C346 C 0.28678 0.87321 0.49959
 C347 C 0.23382 0.87471 0.48391
 C348 C 0.21609 0.87459 0.46616
 C349 C 0.31577 0.87490 0.56563
 C350 C 0.33354 0.87487 0.58334
 H351 H 0.25315 0.87793 0.57094
 H352 H 0.24748 0.91803 0.52764
 H353 H 0.24377 0.83469 0.53154
 H354 H 0.30207 0.83173 0.52192
 H355 H 0.30578 0.91507 0.51803
 H356 H 0.29641 0.87184 0.47863
   
