data_POSCAR
  _audit_creation_date              2014-09-24
  _audit_creation_method            'ToBaCCo'
  _symmetry_space_group_name_H-M    'P1'
  _symmetry_Int_Tables_number       1
  _symmetry_cell_setting            triclinic
  loop_
  _symmetry_equiv_pos_as_xyz
 x,y,z
_cell_length_a 40.7989
_cell_length_b 40.6447
_cell_length_c 45.9578
_cell_angle_alpha 90.076800
_cell_angle_beta 89.962200
_cell_angle_gamma 120.176800
loop_
  _atom_site_label
  _atom_site_type_symbol
  _atom_site_fract_x
  _atom_site_fract_y
  _atom_site_fract_z
O1 O 0.03671 0.54639 1.27787
 O2 O -0.03695 0.50988 1.22103
 O3 O -0.03706 0.51000 1.27773
 O4 O 0.03682 0.54616 1.22118
 O5 O 0.03593 0.49130 1.22130
 O6 O -0.03793 0.45515 1.27782
 O7 O -0.03784 0.45504 1.22113
 O8 O 0.03584 0.49154 1.27799
 Cu9 Cu -0.00003 0.53364 1.24944
 Cu10 Cu -0.00109 0.46772 1.24957
 C11 C 0.04866 0.52511 1.28756
 C12 C -0.04979 0.47632 1.21144
 C13 C -0.04990 0.47650 1.28736
 C14 C 0.04879 0.52480 1.21167
 O15 O 0.45283 0.49036 1.27886
 O16 O 0.49036 0.45407 1.22209
 O17 O 0.49000 0.45377 1.27879
 O18 O 0.45326 0.49071 1.22215
 O19 O 0.50746 0.54542 1.22246
 O20 O 0.54419 0.50849 1.27909
 O21 O 0.54455 0.50878 1.22239
 O22 O 0.50700 0.54507 1.27918
 Cu23 Cu 0.46614 0.46671 1.25045
 Cu24 Cu 0.53126 0.53246 1.25082
 C25 C 0.47359 0.52383 1.28864
 C26 C 0.52377 0.47531 1.21262
 C27 C 0.52327 0.47491 1.28852
 C28 C 0.47419 0.52427 1.21271
 O29 O 0.50908 0.96275 1.27933
 O30 O 0.54627 1.03676 1.22257
 O31 O 0.54640 1.03684 1.27928
 O32 O 0.50884 0.96269 1.22261
 O33 O 0.45477 0.96297 1.22277
 O34 O 0.49233 1.03711 1.27942
 O35 O 0.49221 1.03705 1.22271
 O36 O 0.45502 0.96301 1.27949
 Cu37 Cu 0.53310 0.99973 1.25094
 Cu38 Cu 0.46813 1.00006 1.25112
 C39 C 0.47580 0.95042 1.28903
 C40 C 0.52550 1.04935 1.21301
 C41 C 0.52568 1.04945 1.28895
 C42 C 0.47549 0.95038 1.21308
 O43 O 0.96391 0.50852 0.72099
 O44 O 1.03780 0.54571 0.77757
 O45 O 1.03774 0.54537 0.72085
 O46 O 0.96399 0.50876 0.77771
 O47 O 0.96367 0.45419 0.77783
 O48 O 1.03739 0.49080 0.72098
 O49 O 1.03747 0.49113 0.77770
 O50 O 0.96357 0.45394 0.72111
 Cu51 Cu 1.00089 0.53259 0.74926
 Cu52 Cu 1.00050 0.46701 0.74941
 C53 C 0.95131 0.47498 0.71147
 C54 C 1.05005 0.52467 0.78723
 C55 C 1.04998 0.52424 0.71127
 C56 C 0.95143 0.47531 0.78741
 O57 O 0.49240 0.45496 0.72158
 O58 O 0.45468 0.49108 0.77816
 O59 O 0.45505 0.49133 0.72146
 O60 O 0.49215 0.45483 0.77828
 O61 O 0.54619 0.50969 0.77850
 O62 O 0.50910 0.54619 0.72170
 O63 O 0.50872 0.54595 0.77839
 O64 O 0.54646 0.50982 0.72179
 Cu65 Cu 0.46812 0.46751 0.74985
 Cu66 Cu 0.53308 0.53345 0.75012
 C67 C 0.52576 0.47631 0.71210
 C68 C 0.47535 0.52458 0.78785
 C69 C 0.47584 0.52491 0.71196
 C70 C 0.52542 0.47613 0.78801
 O71 O 0.54497 0.03665 0.72115
 O72 O 0.50872 -0.03738 0.77772
 O73 O 0.50830 -0.03742 0.72101
 O74 O 0.54526 0.03667 0.77785
 O75 O 0.49081 0.03619 0.77813
 O76 O 0.45387 -0.03788 0.72131
 O77 O 0.45427 -0.03787 0.77801
 O78 O 0.49053 0.03618 0.72143
 Cu79 Cu 0.53230 -0.00032 0.74940
 Cu80 Cu 0.46687 -0.00090 0.74975
 C81 C 0.52385 0.04886 0.71171
 C82 C 0.47541 -0.05005 0.78746
 C83 C 0.47486 -0.05011 0.71152
 C84 C 0.52424 0.04888 0.78762
 O85 O 0.39025 0.65735 0.97576
 O86 O 0.38908 0.72008 0.96690
 C87 C 0.37123 0.73734 0.96146
 O88 O 0.34231 0.73223 0.97561
 O89 O 0.27975 0.66807 0.96654
 C90 C 0.26244 0.63277 0.96114
 O91 O 0.26739 0.60887 0.97539
 O92 O 0.33126 0.61036 0.96669
 C93 C 0.36645 0.62839 0.96143
 O94 O 0.38841 0.66770 1.03365
 O95 O 0.39047 0.73205 1.02479
 C96 C 0.36674 0.73729 1.03895
 O97 O 0.33161 0.72017 1.03347
 O98 O 0.26747 0.65762 1.02439
 C99 C 0.26208 0.62855 1.03861
 O100 O 0.27909 0.61040 1.03330
 O101 O 0.34132 0.60861 1.02460
 C102 C 0.37022 0.63239 1.03894
 Cr103 Cr 0.38745 0.69324 1.00027
 Cr104 Cr 0.30633 0.69346 1.00001
 Cr105 Cr 0.30583 0.61168 1.00000
 O106 O 0.33320 0.66613 1.00010
 O107 O 0.61020 0.34253 0.97574
 O108 O 0.61158 0.27979 0.96714
 C109 C 0.62966 0.26276 0.96159
 O110 O 0.65880 0.26826 0.97561
 O111 O 0.72137 0.33258 0.96691
 C112 C 0.73843 0.36784 0.96138
 O113 O 0.73312 0.39166 0.97548
 O114 O 0.66907 0.38996 0.96700
 C115 C 0.63390 0.37170 0.96159
 O116 O 0.61194 0.33265 1.03371
 O117 O 0.61019 0.26833 1.02512
 C118 C 0.63391 0.26297 1.03915
 O119 O 0.66903 0.28005 1.03358
 O120 O 0.73313 0.34283 1.02487
 C121 C 0.73863 0.37209 1.03895
 O122 O 0.72169 0.39026 1.03348
 O123 O 0.65922 0.39172 1.02500
 C124 C 0.63013 0.36795 1.03914
 Cr125 Cr 0.61313 0.30691 1.00042
 Cr126 Cr 0.69451 0.30701 1.00024
 Cr127 Cr 0.69469 0.38874 1.00024
 O128 O 0.66745 0.33422 1.00031
 O129 O 0.66861 0.38929 0.53322
 O130 O 0.73256 0.39102 0.52426
 C131 C 0.73768 0.36719 0.53844
 O132 O 0.72041 0.33189 0.53306
 O133 O 0.65792 0.26761 0.52413
 C134 C 0.62900 0.26239 0.53836
 O135 O 0.61106 0.27958 0.53303
 O136 O 0.60963 0.34220 0.52426
 C137 C 0.63343 0.37121 0.53855
 O138 O 0.65820 0.39098 0.47537
 O139 O 0.72050 0.38941 0.46640
 C140 C 0.73759 0.37137 0.46099
 O141 O 0.73239 0.34235 0.47518
 O142 O 0.66831 0.27966 0.46626
 C143 C 0.63315 0.26239 0.46091
 O144 O 0.60943 0.26757 0.47514
 O145 O 0.61123 0.33183 0.46636
 C146 C 0.62926 0.36714 0.46110
 Cr147 Cr 0.69391 0.38806 0.49981
 Cr148 Cr 0.69371 0.30643 0.49966
 Cr149 Cr 0.61244 0.30635 0.49970
 O150 O 0.66669 0.33361 0.49972
 O151 O 0.34111 0.60873 0.52451
 O152 O 0.27879 0.61040 0.53329
 C153 C 0.26192 0.62863 0.53885
 O154 O 0.26744 0.65787 0.52480
 O155 O 0.33173 0.72056 0.53333
 C156 C 0.36689 0.73759 0.53872
 O157 O 0.39046 0.73214 0.52452
 O158 O 0.38863 0.66779 0.53299
 C159 C 0.37036 0.63253 0.53851
 O160 O 0.33090 0.61020 0.46656
 O161 O 0.26703 0.60880 0.47533
 C162 C 0.26174 0.63262 0.46130
 O163 O 0.27888 0.66790 0.46681
 O164 O 0.34159 0.73219 0.47534
 C165 C 0.37059 0.73756 0.46115
 O166 O 0.38859 0.72042 0.46651
 O167 O 0.38987 0.65763 0.47498
 C168 C 0.36601 0.62836 0.46096
 Cr169 Cr 0.30554 0.61169 0.49992
 Cr170 Cr 0.30598 0.69355 0.50007
 Cr171 Cr 0.38724 0.69341 0.49976
 O172 O 0.33292 0.66621 0.49991
 C173 C 0.45984 0.53707 0.30972
 C174 C 0.44765 0.54872 0.32856
 C175 C 0.43314 0.56247 0.35119
 C176 C 0.43898 0.59949 0.34986
 C177 C 0.42512 0.61291 0.37199
 C178 C 0.40536 0.58936 0.39555
 C179 C 0.39945 0.55232 0.39684
 C180 C 0.41331 0.53891 0.37472
 C181 C 0.39138 0.60323 0.41848
 C182 C 0.37975 0.61475 0.43781
 H183 H 0.45430 0.61798 0.33179
 H184 H 0.42988 0.64160 0.37077
 H185 H 0.38423 0.53386 0.41495
 H186 H 0.40864 0.51025 0.37599
 C187 C 0.46225 0.92340 0.31015
 C188 C 0.45036 0.89958 0.32903
 C189 C 0.43634 0.87135 0.35174
 C190 C 0.44102 0.88265 0.38097
 C191 C 0.42754 0.85531 0.40308
 C192 C 0.40931 0.81651 0.39606
 C193 C 0.40460 0.80519 0.36682
 C194 C 0.41808 0.83255 0.34471
 C195 C 0.39553 0.78843 0.41887
 C196 C 0.38409 0.76510 0.43810
 H197 H 0.45509 0.91257 0.38667
 H198 H 0.43134 0.86440 0.42560
 H199 H 0.39055 0.77527 0.36113
 H200 H 0.41431 0.82347 0.32218
 C201 C 0.07706 0.53921 0.30992
 C202 C 0.10074 0.55101 0.32884
 C203 C 0.12880 0.56505 0.35160
 C204 C 0.16675 0.59142 0.34521
 C205 C 0.19392 0.60517 0.36739
 C206 C 0.18326 0.59261 0.39606
 C207 C 0.14532 0.56621 0.40244
 C208 C 0.11816 0.55247 0.38027
 C209 C 0.21113 0.60683 0.41895
 C210 C 0.23432 0.61866 0.43823
 H211 H 0.17529 0.60135 0.32312
 H212 H 0.22317 0.62558 0.36221
 H213 H 0.13676 0.55631 0.42453
 H214 H 0.08890 0.53210 0.38547
 C215 C 0.53747 0.46065 0.31074
 C216 C 0.54931 0.44874 0.32955
 C217 C 0.56334 0.43463 0.35215
 C218 C 0.55787 0.44034 0.38140
 C219 C 0.57143 0.42661 0.40342
 C220 C 0.59052 0.40711 0.39628
 C221 C 0.59602 0.40140 0.36702
 C222 C 0.58245 0.41514 0.34499
 C223 C 0.60435 0.39295 0.41898
 C224 C 0.61581 0.38113 0.43815
 H225 H 0.54312 0.45537 0.38717
 H226 H 0.56702 0.43117 0.42598
 H227 H 0.61074 0.38635 0.36127
 H228 H 0.58683 0.41057 0.32243
 C229 C 0.53937 0.07651 0.31002
 C230 C 0.55141 0.10036 0.32887
 C231 C 0.56563 0.12860 0.35155
 C232 C 0.58513 0.16739 0.34451
 C233 C 0.59891 0.19477 0.36662
 C234 C 0.59323 0.18346 0.39584
 C235 C 0.57374 0.14467 0.40288
 C236 C 0.55996 0.11730 0.38078
 C237 C 0.60740 0.21154 0.41863
 C238 C 0.61919 0.23487 0.43786
 H239 H 0.58965 0.17642 0.32197
 H240 H 0.61395 0.22470 0.36095
 H241 H 0.56920 0.13562 0.42541
 H242 H 0.54492 0.08738 0.38646
 C243 C 0.92169 0.46257 0.30963
 C244 C 0.89804 0.45093 0.32853
 C245 C 0.87009 0.43714 0.35129
 C246 C 0.88152 0.44514 0.38042
 C247 C 0.85442 0.43168 0.40260
 C248 C 0.81579 0.41017 0.39575
 C249 C 0.80434 0.40217 0.36662
 C250 C 0.83145 0.41563 0.34442
 C251 C 0.78799 0.39635 0.41862
 C252 C 0.76488 0.38488 0.43791
 H253 H 0.91132 0.46173 0.38595
 H254 H 0.86356 0.43802 0.42506
 H255 H 0.77453 0.38556 0.36110
 H256 H 0.82233 0.40929 0.32196
 C257 C 0.53822 0.46129 1.19029
 C258 C 0.55022 0.44954 1.17140
 C259 C 0.56439 0.43555 1.14868
 C260 C 0.56196 0.44422 1.11954
 C261 C 0.57551 0.43052 1.09742
 C262 C 0.59157 0.40808 1.10431
 C263 C 0.59405 0.39944 1.13345
 C264 C 0.58048 0.41314 1.15559
 C265 C 0.60534 0.39386 1.08147
 C266 C 0.61673 0.38200 1.06222
 H267 H 0.54956 0.46151 1.11393
 H268 H 0.57344 0.43738 1.07497
 H269 H 0.60639 0.38210 1.13904
 H270 H 0.58250 0.40624 1.17803
 C271 C 0.92336 0.46304 1.19028
 C272 C 0.89968 0.45137 1.17135
 C273 C 0.87164 0.43759 1.14858
 C274 C 0.88294 0.44605 1.11946
 C275 C 0.85577 0.43271 1.09730
 C276 C 0.81716 0.41084 1.10414
 C277 C 0.80583 0.40237 1.13327
 C278 C 0.83302 0.41572 1.15544
 C279 C 0.78925 0.39709 1.08128
 C280 C 0.76605 0.38565 1.06201
 H281 H 0.91272 0.46294 1.11390
 H282 H 0.86485 0.43943 1.07486
 H283 H 0.77605 0.38548 1.13881
 H284 H 0.82395 0.40900 1.17789
 C285 C 0.53985 0.07785 1.19066
 C286 C 0.55185 0.10160 1.17173
 C287 C 0.56612 0.12971 1.14894
 C288 C 0.58546 0.16857 1.15586
 C289 C 0.59934 0.19582 1.13367
 C290 C 0.59393 0.18432 1.10445
 C291 C 0.57458 0.14547 1.09754
 C292 C 0.56071 0.11824 1.11973
 C293 C 0.60817 0.21229 1.08156
 C294 C 0.61999 0.23553 1.06226
 H295 H 0.58981 0.17778 1.17836
 H296 H 0.61425 0.22578 1.13927
 H297 H 0.57023 0.13624 1.07504
 H298 H 0.54581 0.08828 1.11411
 C299 C 0.46007 0.53850 1.19041
 C300 C 0.44834 0.55039 1.17150
 C301 C 0.43449 0.56447 1.14875
 C302 C 0.42287 0.59077 1.15517
 C303 C 0.40962 0.60459 1.13296
 C304 C 0.40796 0.59214 1.10426
 C305 C 0.41953 0.56580 1.09786
 C306 C 0.43277 0.55200 1.12006
 C307 C 0.39453 0.60644 1.08136
 C308 C 0.38338 0.61834 1.06205
 H309 H 0.42410 0.60061 1.17728
 H310 H 0.40075 0.62496 1.13813
 H311 H 0.41837 0.55601 1.07575
 H312 H 0.44171 0.53168 1.11487
 C313 C 0.07725 0.53870 1.18943
 C314 C 0.10097 0.55023 1.17058
 C315 C 0.12903 0.56382 1.14791
 C316 C 0.11786 0.55405 1.11888
 C317 C 0.14507 0.56724 1.09678
 C318 C 0.18355 0.59025 1.10362
 C319 C 0.19474 0.60001 1.13265
 C320 C 0.16752 0.58681 1.15476
 C321 C 0.21146 0.60384 1.08083
 C322 C 0.23467 0.61515 1.06161
 H323 H 0.08817 0.53629 1.11336
 H324 H 0.13613 0.55954 1.07439
 H325 H 0.22444 0.61780 1.13815
 H326 H 0.17644 0.59452 1.17715
 C327 C 0.46103 0.92188 1.19075
 C328 C 0.44895 0.89817 1.17179
 C329 C 0.43465 0.87014 1.14896
 C330 C 0.44128 0.88169 1.11981
 C331 C 0.42737 0.85453 1.09756
 C332 C 0.40676 0.81570 1.10438
 C333 C 0.40012 0.80413 1.13353
 C334 C 0.41404 0.83131 1.15579
 C335 C 0.39250 0.78783 1.08144
 C336 C 0.38067 0.76466 1.06209
 H337 H 0.45718 0.91165 1.11429
 H338 H 0.43267 0.86377 1.07508
 H339 H 0.38422 0.77417 1.13903
 H340 H 0.40875 0.82208 1.17827
 C341 C 0.54026 0.46238 0.68983
 C342 C 0.55228 0.45073 0.67093
 C343 C 0.56646 0.43691 0.64819
 C344 C 0.58389 0.41574 0.65510
 C345 C 0.59757 0.40227 0.63292
 C346 C 0.59386 0.40993 0.60377
 C347 C 0.57644 0.43110 0.59688
 C348 C 0.56277 0.44457 0.61905
 C349 C 0.60789 0.39611 0.58091
 C350 C 0.61958 0.38466 0.56163
 H351 H 0.58687 0.40966 0.67757
 H352 H 0.61100 0.38591 0.63847
 H353 H 0.57344 0.43718 0.57440
 H354 H 0.54932 0.46091 0.61348
 C355 C 0.53782 0.07736 0.68945
 C356 C 0.54950 0.10111 0.67057
 C357 C 0.56335 0.12920 0.64785
 C358 C 0.58170 0.16801 0.65483
 C359 C 0.59515 0.19526 0.63267
 C360 C 0.59029 0.18378 0.60347
 C361 C 0.57195 0.14498 0.59651
 C362 C 0.55850 0.11774 0.61865
 C363 C 0.60407 0.21172 0.58065
 C364 C 0.61551 0.23495 0.56140
 H365 H 0.58559 0.17716 0.67734
 H366 H 0.60930 0.22520 0.63828
 H367 H 0.56805 0.13581 0.57400
 H368 H 0.54435 0.08780 0.61303
 C369 C 0.92282 0.46065 0.68923
 C370 C 0.89906 0.44873 0.67039
 C371 C 0.87094 0.43463 0.64772
 C372 C 0.88206 0.44347 0.61860
 C373 C 0.85480 0.42976 0.59652
 C374 C 0.81630 0.40714 0.60346
 C375 C 0.80516 0.39831 0.63258
 C376 C 0.83243 0.41204 0.65468
 C377 C 0.78834 0.39297 0.58068
 C378 C 0.76510 0.38117 0.56146
 H379 H 0.91177 0.46092 0.61299
 H380 H 0.86372 0.43674 0.57407
 H381 H 0.77546 0.38084 0.63818
 H382 H 0.82353 0.40503 0.67713
 C383 C 0.46156 0.53902 0.68963
 C384 C 0.44970 0.55084 0.67073
 C385 C 0.43568 0.56489 0.64802
 C386 C 0.42412 0.59123 0.65449
 C387 C 0.41070 0.60500 0.63235
 C388 C 0.40879 0.59248 0.60364
 C389 C 0.42032 0.56611 0.59718
 C390 C 0.43373 0.55235 0.61932
 C391 C 0.39514 0.60672 0.58080
 C392 C 0.38379 0.61856 0.56155
 H393 H 0.42552 0.60114 0.67660
 H394 H 0.40187 0.62538 0.63759
 H395 H 0.41897 0.55624 0.57507
 H396 H 0.44261 0.53201 0.61405
 C397 C 0.46137 0.92291 0.69034
 C398 C 0.44942 0.89914 0.67139
 C399 C 0.43521 0.87100 0.64858
 C400 C 0.44222 0.88240 0.61940
 C401 C 0.42833 0.85515 0.59719
 C402 C 0.40735 0.81634 0.60405
 C403 C 0.40036 0.80492 0.63324
 C404 C 0.41426 0.83219 0.65546
 C405 C 0.39299 0.78835 0.58114
 C406 C 0.38103 0.76508 0.56183
 H407 H 0.45837 0.91233 0.61382
 H408 H 0.43390 0.86431 0.57471
 H409 H 0.38417 0.77499 0.63880
 H410 H 0.40866 0.82304 0.67795
 C411 C 0.07688 0.53758 0.69013
 C412 C 0.10061 0.54929 0.67121
 C413 C 0.12873 0.56311 0.64847
 C414 C 0.11761 0.55337 0.61942
 C415 C 0.14484 0.56674 0.59728
 C416 C 0.18333 0.58993 0.60408
 C417 C 0.19446 0.59968 0.63313
 C418 C 0.16722 0.58630 0.65528
 C419 C 0.21130 0.60370 0.58123
 C420 C 0.23452 0.61513 0.56195
 H421 H 0.08794 0.53546 0.61389
 H422 H 0.13590 0.55902 0.57490
 H423 H 0.22414 0.61759 0.63864
 H424 H 0.17615 0.59401 0.67766
 C425 C 0.46076 0.53847 0.81009
 C426 C 0.44852 0.54999 0.82892
 C427 C 0.43395 0.56354 0.85156
 C428 C 0.44179 0.60129 0.85131
 C429 C 0.42787 0.61451 0.87350
 C430 C 0.40608 0.59002 0.89600
 C431 C 0.39817 0.55226 0.89621
 C432 C 0.41208 0.53904 0.87403
 C433 C 0.39204 0.60366 0.91898
 C434 C 0.38032 0.61499 0.93832
 H435 H 0.45869 0.62046 0.83403
 H436 H 0.43416 0.64377 0.87315
 H437 H 0.38136 0.53311 0.91353
 H438 H 0.40589 0.50981 0.87443
 C439 C 0.07846 0.53900 0.80953
 C440 C 0.10211 0.55095 0.82845
 C441 C 0.13006 0.56512 0.85124
 C442 C 0.16860 0.58791 0.84446
 C443 C 0.19570 0.60174 0.86668
 C444 C 0.18434 0.59282 0.89576
 C445 C 0.14581 0.57001 0.90252
 C446 C 0.11873 0.55619 0.88031
 C447 C 0.21212 0.60705 0.91867
 C448 C 0.23520 0.61886 0.93800
 H449 H 0.17766 0.59499 0.82204
 H450 H 0.22543 0.61936 0.86122
 H451 H 0.13673 0.56295 0.92494
 H452 H 0.08900 0.53860 0.88579
 C453 C 0.46151 0.92151 0.80977
 C454 C 0.44997 0.89785 0.82872
 C455 C 0.43635 0.86990 0.85154
 C456 C 0.44306 0.88156 0.88069
 C457 C 0.42983 0.85447 0.90293
 C458 C 0.40985 0.81561 0.89611
 C459 C 0.40315 0.80393 0.86696
 C460 C 0.41638 0.83104 0.84470
 C461 C 0.39620 0.78781 0.91903
 C462 C 0.38479 0.76468 0.93836
 H463 H 0.45847 0.91155 0.88620
 H464 H 0.43515 0.86379 0.92540
 H465 H 0.38772 0.77394 0.86146
 H466 H 0.41105 0.82173 0.82223
 C467 C 0.53974 0.46208 0.81035
 C468 C 0.55174 0.45042 0.82927
 C469 C 0.56599 0.43665 0.85202
 C470 C 0.56071 0.44275 0.88124
 C471 C 0.57458 0.42947 0.90339
 C472 C 0.59380 0.41003 0.89642
 C473 C 0.59908 0.40392 0.86720
 C474 C 0.58520 0.41721 0.84505
 C475 C 0.60807 0.39642 0.91927
 C476 C 0.61992 0.38509 0.93853
 H477 H 0.54590 0.45775 0.88689
 H478 H 0.57033 0.43436 0.92590
 H479 H 0.61390 0.38893 0.86157
 H480 H 0.58946 0.41234 0.82253
 C481 C 0.92303 0.46118 0.80979
 C482 C 0.89936 0.44934 0.82874
 C483 C 0.87133 0.43527 0.85155
 C484 C 0.88270 0.43946 0.88073
 C485 C 0.85555 0.42574 0.90292
 C486 C 0.81688 0.40774 0.89605
 C487 C 0.80549 0.40356 0.86687
 C488 C 0.83266 0.41729 0.84467
 C489 C 0.78898 0.39359 0.91895
 C490 C 0.76580 0.38179 0.93826
 H491 H 0.91251 0.45330 0.88632
 H492 H 0.86469 0.42914 0.92540
 H493 H 0.77568 0.38969 0.86130
 H494 H 0.82353 0.41387 0.82218
 C495 C 0.53844 0.07741 0.81000
 C496 C 0.55021 0.10117 0.82896
 C497 C 0.56410 0.12931 0.85176
 C498 C 0.58330 0.16815 0.84487
 C499 C 0.59669 0.19542 0.86709
 C500 C 0.59095 0.18396 0.89629
 C501 C 0.57177 0.14513 0.90317
 C502 C 0.55838 0.11787 0.88096
 C503 C 0.60469 0.21196 0.91919
 C504 C 0.61612 0.23525 0.93849
 H505 H 0.58787 0.17732 0.82237
 H506 H 0.61148 0.22537 0.86151
 H507 H 0.56717 0.13594 0.92566
 H508 H 0.54357 0.08792 0.88655
   
