data_POSCAR
  _audit_creation_date              2014-09-24
  _audit_creation_method            'ToBaCCo'
  _symmetry_space_group_name_H-M    'P1'
  _symmetry_Int_Tables_number       1
  _symmetry_cell_setting            triclinic
  loop_
  _symmetry_equiv_pos_as_xyz
 x,y,z
_cell_length_a 34.3891
_cell_length_b 37.4376
_cell_length_c 34.5729
_cell_angle_alpha 90.471900
_cell_angle_beta 89.987600
_cell_angle_gamma 90.308000
loop_
  _atom_site_label
  _atom_site_type_symbol
  _atom_site_fract_x
  _atom_site_fract_y
  _atom_site_fract_z
C1 C 1.19424 0.26211 0.30835
 H2 H 1.18930 0.23367 0.30933
 C3 C 1.16942 0.28489 0.32880
 H4 H 1.14609 0.27383 0.34611
 C5 C 1.22834 0.31164 0.28259
 H6 H 1.25038 0.32232 0.26374
 C7 C 1.20409 0.33533 0.30240
 H8 H 1.20808 0.36386 0.29909
 N9 N 1.22356 0.27565 0.28628
 C10 C 1.22603 0.17829 0.22710
 H11 H 1.24723 0.16558 0.24541
 C12 C 1.20132 0.15730 0.20413
 H13 H 1.20341 0.12847 0.20510
 C14 C 1.19739 0.23118 0.20322
 H15 H 1.19609 0.26005 0.20313
 C16 C 1.17254 0.21123 0.17937
 H17 H 1.15228 0.22480 0.16063
 Zn18 Zn 1.25616 0.24347 0.25796
 N19 N 1.22354 0.21454 0.22636
 C20 C 1.32497 0.21346 0.28939
 N21 N 1.28555 0.21435 0.29232
 C22 C 1.26673 0.19409 0.31892
 C23 C 1.28750 0.17281 0.34455
 C24 C 1.34697 0.19268 0.31456
 C25 C 1.28830 0.26804 0.18708
 C26 C 1.30978 0.29133 0.16397
 C27 C 1.33796 0.31726 0.22182
 C28 C 1.31597 0.29349 0.24383
 N29 N 1.29068 0.27037 0.22633
 H30 H 1.33959 0.22825 0.26696
 H31 H 1.23544 0.19403 0.32022
 H32 H 1.27115 0.15825 0.36611
 H33 H 1.37806 0.19130 0.30980
 H34 H 1.26874 0.24903 0.17360
 H35 H 1.30639 0.29045 0.13283
 H36 H 1.35650 0.33678 0.23609
 H37 H 1.31759 0.29463 0.27507
 C38 C 1.17391 0.17380 0.18020
 C39 C 1.17432 0.32189 0.32577
 C40 C 1.33392 0.31697 0.18155
 C41 C 1.32861 0.17227 0.34357
 C42 C 0.70099 -0.23565 0.31008
 H43 H 0.70316 -0.26419 0.31417
 C44 C 0.67749 -0.21530 0.33466
 H45 H 0.66158 -0.22817 0.35777
 C46 C 0.71949 -0.18388 0.27542
 H47 H 0.73598 -0.17169 0.25240
 C48 C 0.69620 -0.16258 0.29921
 H49 H 0.69479 -0.13407 0.29434
 N50 N 0.72108 -0.21980 0.28087
 C51 C 0.73538 -0.29339 0.18401
 H52 H 0.76514 -0.28735 0.17624
 C53 C 0.71383 -0.31736 0.16143
 H54 H 0.72719 -0.33026 0.13666
 C55 C 0.68150 -0.28398 0.22559
 H56 H 0.66888 -0.27095 0.25049
 C57 C 0.65888 -0.30771 0.20375
 H58 H 0.62906 -0.31304 0.21211
 Zn59 Zn 0.75175 -0.24854 0.24725
 N60 N 0.71938 -0.27806 0.21607
 C61 C 0.80234 -0.30651 0.25927
 N62 N 0.78557 -0.27768 0.27663
 C63 C 0.79269 -0.26959 0.31445
 C64 C 0.81703 -0.29123 0.33642
 C65 C 0.82664 -0.32894 0.28023
 C66 C 0.76341 -0.20412 0.18345
 C67 C 0.78436 -0.18252 0.15810
 C68 C 0.84188 -0.19211 0.19678
 C69 C 0.81991 -0.21384 0.22120
 N70 N 0.78140 -0.21926 0.21420
 H71 H 0.79684 -0.31234 0.22919
 H72 H 0.77972 -0.24621 0.32755
 H73 H 0.82253 -0.28465 0.36650
 H74 H 0.83969 -0.35190 0.26618
 H75 H 0.73271 -0.20884 0.17869
 H76 H 0.76972 -0.17051 0.13375
 H77 H 0.87232 -0.18728 0.20306
 H78 H 0.83346 -0.22601 0.24601
 C79 C 0.67549 -0.32533 0.17194
 C80 C 0.67446 -0.17842 0.32883
 C81 C 0.82412 -0.17649 0.16457
 C82 C 0.83418 -0.32124 0.31916
 C83 C 0.68658 0.26677 -0.19928
 H84 H 0.68380 0.23806 -0.20195
 C85 C 0.66035 0.28597 -0.17635
 H86 H 0.63760 0.27193 -0.16092
 C87 C 0.72043 0.32003 -0.21501
 H88 H 0.74441 0.33321 -0.22924
 C89 C 0.69448 0.34026 -0.19305
 H90 H 0.69839 0.36894 -0.19104
 N91 N 0.71577 0.28402 -0.21821
 C92 C 0.72102 0.19027 -0.27782
 H93 H 0.73982 0.17888 -0.25628
 C94 C 0.69788 0.16756 -0.30046
 H95 H 0.69954 0.13893 -0.29656
 C96 C 0.69415 0.24103 -0.30803
 H97 H 0.69185 0.26962 -0.31027
 C98 C 0.67061 0.21926 -0.33139
 H99 H 0.65098 0.23127 -0.35197
 Zn100 Zn 0.74997 0.25690 -0.24973
 N101 N 0.71915 0.22637 -0.28214
 C102 C 0.80827 0.20563 -0.23454
 N103 N 0.78284 0.22879 -0.21767
 C104 C 0.78074 0.23220 -0.17848
 C105 C 0.80464 0.21174 -0.15472
 C106 C 0.83271 0.18473 -0.21186
 C107 C 0.76351 0.31407 -0.30184
 C108 C 0.78553 0.33938 -0.32180
 C109 C 0.84371 0.31142 -0.29808
 C110 C 0.82054 0.28716 -0.27792
 N111 N 0.78110 0.28874 -0.28002
 H112 H 0.80942 0.20334 -0.26573
 H113 H 0.76060 0.25084 -0.16554
 H114 H 0.80260 0.21455 -0.12358
 H115 H 0.85252 0.16616 -0.22562
 H116 H 0.73223 0.31559 -0.30279
 H117 H 0.77037 0.35828 -0.33985
 H118 H 0.87494 0.30976 -0.29455
 H119 H 0.83438 0.26763 -0.25988
 C120 C 0.67214 0.18209 -0.32738
 C121 C 0.66375 0.32329 -0.17374
 C122 C 0.82650 0.33903 -0.31969
 C123 C 0.83115 0.18788 -0.17147
 C124 C 1.18895 -0.23570 -0.18868
 H125 H 1.18807 -0.26447 -0.18608
 C126 C 1.16359 -0.21456 -0.16679
 H127 H 1.14313 -0.22705 -0.14722
 C128 C 1.21728 -0.18409 -0.21658
 H129 H 1.23861 -0.17218 -0.23548
 C130 C 1.19253 -0.16203 -0.19527
 H131 H 1.19473 -0.13330 -0.19817
 N132 N 1.21479 -0.22024 -0.21333
 C133 C 1.24212 -0.30013 -0.30210
 H134 H 1.27356 -0.29924 -0.30110
 C135 C 1.22334 -0.32341 -0.32780
 H136 H 1.24034 -0.34074 -0.34639
 C137 C 1.18159 -0.27922 -0.27844
 H138 H 1.16542 -0.26188 -0.25930
 C139 C 1.16163 -0.30178 -0.30404
 H140 H 1.13014 -0.30185 -0.30431
 Zn141 Zn 1.24903 -0.24976 -0.24221
 N142 N 1.22114 -0.27922 -0.27749
 C143 C 1.27809 -0.31432 -0.21175
 N144 N 1.27741 -0.27820 -0.20714
 C145 C 1.29694 -0.26186 -0.17761
 C146 C 1.31972 -0.28189 -0.15238
 C147 C 1.30080 -0.33523 -0.18756
 C148 C 1.26752 -0.20254 -0.30133
 C149 C 1.29050 -0.17936 -0.32305
 C150 C 1.34590 -0.19553 -0.28403
 C151 C 1.32189 -0.21863 -0.26317
 N152 N 1.28327 -0.22100 -0.27152
 H153 H 1.26138 -0.32710 -0.23438
 H154 H 1.29524 -0.23317 -0.17406
 H155 H 1.33541 -0.26868 -0.12912
 H156 H 1.30176 -0.36387 -0.19211
 H157 H 1.23686 -0.20538 -0.30770
 H158 H 1.27755 -0.16437 -0.34636
 H159 H 1.37640 -0.19311 -0.27660
 H160 H 1.33408 -0.23413 -0.24000
 C161 C 1.18260 -0.32422 -0.32904
 C162 C 1.16509 -0.17730 -0.17038
 C163 C 1.32992 -0.17502 -0.31372
 C164 C 1.32254 -0.31893 -0.15801
 C165 C 0.26713 0.20306 0.68481
 H166 H 0.23608 0.20421 0.67996
 C167 C 0.29032 0.18173 0.66105
 H168 H 0.27707 0.16637 0.63782
 C169 C 0.32218 0.22123 0.72144
 H170 H 0.33451 0.23668 0.74493
 C171 C 0.34639 0.19986 0.69867
 H172 H 0.37714 0.19848 0.70522
 N173 N 0.28321 0.22185 0.71463
 C174 C 0.19387 0.23096 0.80351
 H175 H 0.19102 0.25966 0.80596
 C176 C 0.17287 0.20872 0.82829
 H177 H 0.15411 0.22074 0.84987
 C178 C 0.22316 0.18089 0.77329
 H179 H 0.24291 0.17008 0.75199
 C180 C 0.20296 0.15772 0.79757
 H181 H 0.20648 0.12921 0.79347
 Zn182 Zn 0.24887 0.24819 0.74637
 N183 N 0.21850 0.21679 0.77678
 C184 C 0.17763 0.27363 0.71577
 N185 N 0.21705 0.27596 0.71378
 C186 C 0.23490 0.29895 0.68909
 C187 C 0.21298 0.32291 0.66749
 C188 C 0.15459 0.29677 0.69432
 C189 C 0.29904 0.26341 0.80884
 C190 C 0.31916 0.28503 0.83534
 C191 C 0.29246 0.33692 0.80409
 C192 C 0.27280 0.31444 0.77841
 N193 N 0.27671 0.27839 0.78085
 H194 H 0.16396 0.25440 0.73457
 H195 H 0.26632 0.29968 0.68749
 H196 H 0.22751 0.34216 0.64919
 H197 H 0.12322 0.29531 0.69675
 H198 H 0.30106 0.23465 0.81062
 H199 H 0.33686 0.27295 0.85754
 H200 H 0.28934 0.36560 0.80161
 H201 H 0.25412 0.32599 0.75689
 C202 C 0.17818 0.17146 0.82648
 C203 C 0.33041 0.17983 0.66807
 C204 C 0.31554 0.32221 0.83320
 C205 C 0.17240 0.32265 0.67104
 C206 C 0.76510 0.69292 0.70126
 H207 H 0.73375 0.69107 0.69931
 C208 C 0.78833 0.67159 0.67737
 H209 H 0.77485 0.65343 0.65677
 C210 C 0.82098 0.71912 0.73020
 H211 H 0.83364 0.73748 0.75097
 C212 C 0.84523 0.69795 0.70732
 H213 H 0.87648 0.70022 0.71052
 N214 N 0.78170 0.71691 0.72613
 C215 C 0.67743 0.72451 0.78935
 H216 H 0.66514 0.74781 0.77606
 C217 C 0.65318 0.70149 0.80992
 H218 H 0.62290 0.70861 0.81339
 C219 C 0.73196 0.68848 0.80296
 H220 H 0.76279 0.68355 0.79992
 C221 C 0.70860 0.66431 0.82318
 H222 H 0.72198 0.64064 0.83492
 Zn223 Zn 0.74916 0.74716 0.75599
 N224 N 0.71605 0.71762 0.78605
 C225 C 0.69722 0.80300 0.73956
 N226 N 0.71971 0.77726 0.72299
 C227 C 0.72217 0.77387 0.68380
 C228 C 0.70012 0.79573 0.65979
 C229 C 0.67451 0.82527 0.71662
 C230 C 0.78086 0.77274 0.82731
 C231 C 0.80354 0.79558 0.85037
 C232 C 0.82340 0.82693 0.79272
 C233 C 0.80061 0.80340 0.77077
 N234 N 0.77997 0.77697 0.78826
 H235 H 0.69672 0.80602 0.77070
 H236 H 0.74122 0.75432 0.67094
 H237 H 0.70191 0.79250 0.62868
 H238 H 0.65624 0.84529 0.73011
 H239 H 0.76396 0.75174 0.84061
 H240 H 0.80406 0.79221 0.88144
 H241 H 0.83952 0.84804 0.77856
 H242 H 0.79914 0.80627 0.73969
 C243 C 0.66817 0.66993 0.82599
 C244 C 0.82890 0.67473 0.67965
 C245 C 0.82508 0.82296 0.83291
 C246 C 0.67549 0.82130 0.67630
 C247 C 0.76186 0.20328 0.19376
 H248 H 0.73072 0.20293 0.18933
 C249 C 0.78575 0.18270 0.16999
 H250 H 0.77288 0.16661 0.14713
 C251 C 0.81643 0.22453 0.22915
 H252 H 0.82815 0.24070 0.25248
 C253 C 0.84136 0.20360 0.20657
 H254 H 0.87221 0.20346 0.21285
 N255 N 0.77746 0.22412 0.22227
 C256 C 0.68654 0.23523 0.31015
 H257 H 0.68504 0.26373 0.31452
 C258 C 0.66322 0.21293 0.33268
 H259 H 0.64326 0.22443 0.35351
 C260 C 0.71575 0.18513 0.27987
 H261 H 0.73663 0.17416 0.25982
 C262 C 0.69298 0.16188 0.30181
 H263 H 0.69617 0.13328 0.29815
 Zn264 Zn 0.74309 0.25213 0.25281
 N265 N 0.71182 0.22117 0.28384
 C266 C 0.68245 0.30035 0.23536
 N267 N 0.71143 0.28026 0.21973
 C268 C 0.71914 0.28134 0.18108
 C269 C 0.69613 0.30165 0.15646
 C270 C 0.65876 0.32107 0.21179
 C271 C 0.77274 0.28022 0.32360
 C272 C 0.79303 0.30491 0.34647
 C273 C 0.81226 0.33595 0.28844
 C274 C 0.79135 0.31084 0.26667
 N275 N 0.77198 0.28382 0.28448
 H276 H 0.67785 0.30083 0.26615
 H277 H 0.74356 0.26705 0.16917
 H278 H 0.70244 0.30211 0.12577
 H279 H 0.63579 0.33694 0.22458
 H280 H 0.75778 0.25818 0.33713
 H281 H 0.79341 0.30188 0.37760
 H282 H 0.82794 0.35716 0.27397
 H283 H 0.79044 0.31287 0.23549
 C284 C 0.66601 0.17584 0.32811
 C285 C 0.82606 0.18290 0.17608
 C286 C 0.81269 0.33339 0.32887
 C287 C 0.66517 0.32130 0.17179
 C288 C 0.26831 0.70486 0.18735
 H289 H 0.23716 0.70082 0.18596
 C290 C 0.29270 0.68476 0.16358
 H291 H 0.28037 0.66506 0.14395
 C292 C 0.32253 0.73475 0.21533
 H293 H 0.33403 0.75429 0.23551
 C294 C 0.34803 0.71500 0.19222
 H295 H 0.37911 0.71919 0.19484
 N296 N 0.28346 0.72916 0.21277
 C297 C 0.19215 0.73407 0.30074
 H298 H 0.18780 0.76238 0.30429
 C299 C 0.16914 0.71035 0.32184
 H300 H 0.14676 0.72053 0.34096
 C301 C 0.22725 0.68597 0.27307
 H302 H 0.25042 0.67639 0.25479
 C303 C 0.20503 0.66134 0.29377
 H304 H 0.21077 0.63303 0.29074
 Zn305 Zn 0.24883 0.75469 0.24551
 N306 N 0.21984 0.72163 0.27598
 C307 C 0.18865 0.80493 0.23254
 N308 N 0.21444 0.78272 0.21472
 C309 C 0.21650 0.78095 0.17540
 C310 C 0.19128 0.80092 0.15261
 C311 C 0.16314 0.82561 0.21084
 C312 C 0.29895 0.76964 0.30772
 C313 C 0.32044 0.79093 0.33341
 C314 C 0.29811 0.84305 0.29951
 C315 C 0.27752 0.82074 0.27424
 N316 N 0.27776 0.78480 0.27911
 H317 H 0.18857 0.80755 0.26362
 H318 H 0.23792 0.76439 0.16139
 H319 H 0.19322 0.79913 0.12139
 H320 H 0.14324 0.84357 0.22541
 H321 H 0.29892 0.74089 0.31070
 H322 H 0.33587 0.77785 0.35658
 H323 H 0.29860 0.87141 0.29358
 H324 H 0.26181 0.83221 0.25035
 C325 C 0.17510 0.67355 0.31778
 C326 C 0.33301 0.68977 0.16600
 C327 C 0.31931 0.82858 0.33064
 C328 C 0.16391 0.82324 0.17038
 N329 N 1.06620 0.03924 0.04374
 N330 N 1.09284 0.06393 0.05123
 N331 N 1.03468 -0.03505 0.06869
 N332 N 1.04035 -0.06022 0.09455
 N333 N 1.06184 -0.03601 0.04208
 N334 N 1.08649 -0.06209 0.04894
 N335 N 1.03897 0.03976 0.07033
 N336 N 1.04635 0.06461 0.09657
 C337 C 1.07967 0.08002 0.08401
 C338 C 1.07234 -0.07746 0.08144
 N339 N 0.92406 -0.02940 0.04074
 N340 N 0.89700 -0.05397 0.04622
 N341 N 0.95564 0.04371 0.06943
 N342 N 0.94934 0.06792 0.09665
 N343 N 0.92886 0.04537 0.04243
 N344 N 0.90338 0.07051 0.05075
 N345 N 0.95115 -0.03143 0.06738
 N346 N 0.94356 -0.05771 0.09148
 Mn347 Mn 0.99508 0.00421 0.06933
 C348 C 0.90989 -0.07160 0.07767
 C349 C 0.91705 0.08473 0.08420
 N350 N 1.06269 -0.03539 -0.04109
 N351 N 1.08699 -0.06185 -0.04800
 N352 N 1.04082 0.04102 -0.06720
 N353 N 1.05181 0.06321 -0.09469
 N354 N 1.06730 0.03962 -0.03986
 N355 N 1.09688 0.06082 -0.04803
 N356 N 1.03620 -0.03384 -0.06834
 N357 N 1.04204 -0.05899 -0.09463
 Mn358 Mn 1.06492 0.00189 0.00123
 C359 C 1.07339 -0.07682 -0.08123
 C360 C 1.08677 0.07546 -0.08220
 N361 N 0.92984 0.04634 -0.04109
 N362 N 0.90538 0.07258 -0.04799
 N363 N 0.95245 -0.03022 -0.06880
 N364 N 0.94540 -0.05633 -0.09378
 N365 N 0.92486 -0.02858 -0.04259
 N366 N 0.89805 -0.05323 -0.04923
 N367 N 0.95690 0.04501 -0.06785
 N368 N 0.95148 0.07031 -0.09366
 Mn369 Mn 0.92650 0.00851 -0.00015
 Mn370 Mn 0.99654 0.00550 -0.06846
 Cl371 Cl 0.99579 0.00508 0.00045
 C372 C 0.91963 0.08779 -0.08052
 C373 C 0.91152 -0.07052 -0.08097
 N374 N 1.04697 0.54076 0.56468
 N375 N 1.07359 0.54860 0.59100
 N376 N 0.96567 0.56800 0.53941
 N377 N 0.94347 0.59540 0.54850
 N378 N 0.96550 0.54441 0.56731
 N379 N 0.94338 0.55545 0.59626
 N380 N 1.04717 0.56471 0.53718
 N381 N 1.07382 0.58937 0.54406
 C382 C 1.09083 0.57860 0.57721
 C383 C 0.92973 0.58731 0.58403
 N384 N 0.96141 0.54118 0.42950
 N385 N 0.93914 0.55155 0.40058
 N386 N 1.04497 0.56284 0.45422
 N387 N 1.06928 0.58834 0.44375
 N388 N 1.04277 0.53786 0.42736
 N389 N 1.06536 0.54602 0.39776
 N390 N 0.96358 0.56633 0.45618
 N391 N 0.94290 0.59430 0.44607
 Mn392 Mn 1.00532 0.56560 0.49678
 C393 C 0.92743 0.58452 0.41166
 C394 C 1.08239 0.57710 0.40895
 N395 N 0.96101 0.46724 0.56856
 N396 N 0.93674 0.46044 0.59722
 N397 N 1.04027 0.43819 0.53998
 N398 N 1.06136 0.41050 0.55032
 N399 N 1.04259 0.46371 0.56623
 N400 N 1.06560 0.45405 0.59477
 N401 N 0.95907 0.44187 0.54213
 N402 N 0.93366 0.41715 0.55224
 Mn403 Mn 1.00403 0.50402 0.56701
 C404 C 0.91923 0.42951 0.58615
 C405 C 1.07718 0.42083 0.58447
 N406 N 1.03864 0.46056 0.42898
 N407 N 1.06086 0.44995 0.39998
 N408 N 0.95659 0.44010 0.45885
 N409 N 0.92965 0.41570 0.45192
 N410 N 0.95714 0.46405 0.43132
 N411 N 0.93055 0.45644 0.40490
 N412 N 1.03794 0.43636 0.45630
 N413 N 1.05957 0.40870 0.44644
 Mn414 Mn 0.99999 0.50086 0.42901
 Mn415 Mn 0.99849 0.43892 0.49929
 Cl416 Cl 1.00197 0.50234 0.49801
 C417 C 1.07384 0.41761 0.41132
 C418 C 0.91302 0.42663 0.41862
 N419 N 0.57083 0.03694 0.54469
 N420 N 0.59562 0.06357 0.55035
 N421 N 0.54706 -0.03831 0.57373
 N422 N 0.55421 -0.06348 0.59914
 N423 N 0.57342 -0.03836 0.54626
 N424 N 0.59927 -0.06371 0.55233
 N425 N 0.54449 0.03653 0.57215
 N426 N 0.55074 0.06264 0.59723
 C427 C 0.58228 0.07982 0.58295
 C428 C 0.58650 -0.07954 0.58518
 N429 N 0.43588 -0.04307 0.55010
 N430 N 0.40908 -0.06655 0.56019
 N431 N 0.46096 0.03382 0.57430
 N432 N 0.45434 0.06014 0.59904
 N433 N 0.43303 0.03168 0.54850
 N434 N 0.40642 0.05620 0.55511
 N435 N 0.46356 -0.04130 0.57623
 N436 N 0.45639 -0.06370 0.60469
 Mn437 Mn 0.50406 -0.00229 0.57447
 C438 C 0.42278 -0.07974 0.59379
 C439 C 0.42042 0.07395 0.58635
 N440 N 0.57092 -0.04042 0.46259
 N441 N 0.59730 -0.06510 0.45538
 N442 N 0.54061 0.03286 0.43518
 N443 N 0.54585 0.05730 0.40841
 N444 N 0.56831 0.03476 0.46124
 N445 N 0.59286 0.06086 0.45299
 N446 N 0.54301 -0.04192 0.43668
 N447 N 0.54969 -0.06756 0.41120
 Mn448 Mn 0.57141 -0.00177 0.50368
 C449 C 0.58329 -0.08229 0.42359
 C450 C 0.57809 0.07518 0.42022
 N451 N 0.43044 0.02962 0.46547
 N452 N 0.40376 0.05420 0.45984
 N453 N 0.45910 -0.04472 0.43883
 N454 N 0.44870 -0.06694 0.41073
 N455 N 0.43321 -0.04513 0.46680
 N456 N 0.40462 -0.06748 0.45839
 N457 N 0.45684 0.03052 0.43805
 N458 N 0.44905 0.05608 0.41314
 Mn459 Mn 0.43287 -0.00679 0.50774
 Mn460 Mn 0.49992 -0.00582 0.43680
 Cl461 Cl 0.50210 -0.00422 0.50564
 C462 C 0.41600 0.07072 0.42738
 C463 C 0.41500 -0.08132 0.42370
 N464 N 0.56492 0.53648 0.04219
 N465 N 0.59388 0.55870 0.05010
 N466 N 0.53731 0.46202 0.07065
 N467 N 0.54414 0.43653 0.09582
 N468 N 0.56329 0.46150 0.04281
 N469 N 0.58861 0.43569 0.04839
 N470 N 0.53912 0.53691 0.07022
 N471 N 0.54980 0.55936 0.09784
 C472 C 0.58377 0.57293 0.08475
 C473 C 0.57588 0.41998 0.08124
 N474 N 0.42579 0.46302 0.04913
 N475 N 0.39838 0.43993 0.05860
 N476 N 0.45562 0.53837 0.07379
 N477 N 0.45236 0.56627 0.09717
 N478 N 0.42745 0.53797 0.04823
 N479 N 0.40422 0.56544 0.05348
 N480 N 0.45374 0.46324 0.07495
 N481 N 0.44602 0.44034 0.10279
 Mn482 Mn 0.49647 0.50013 0.07279
 C483 C 0.41134 0.42601 0.09217
 C484 C 0.42035 0.58316 0.08378
 N485 N 0.55918 0.46008 -0.04044
 N486 N 0.58415 0.43431 -0.04796
 N487 N 0.53276 0.53465 -0.06714
 N488 N 0.53956 0.55792 -0.09470
 N489 N 0.56078 0.53546 -0.04143
 N490 N 0.58706 0.55982 -0.05079
 N491 N 0.53111 0.45997 -0.06616
 N492 N 0.53658 0.43441 -0.09208
 Mn493 Mn 0.56251 0.49843 0.00073
 C494 C 0.56941 0.41803 -0.07996
 C495 C 0.57308 0.57420 -0.08396
 N496 N 0.42347 0.53672 -0.03445
 N497 N 0.39905 0.56346 -0.03853
 N498 N 0.44716 0.46124 -0.06231
 N499 N 0.43630 0.43794 -0.08914
 N500 N 0.42200 0.46172 -0.03376
 N501 N 0.39367 0.43860 -0.04020
 N502 N 0.44917 0.53642 -0.06251
 N503 N 0.44303 0.56315 -0.08641
 Mn504 Mn 0.42433 0.49980 0.00729
 Mn505 Mn 0.49002 0.49803 -0.06496
 Cl506 Cl 0.49340 0.49907 0.00396
 C507 C 0.41190 0.58002 -0.07075
 C508 C 0.40283 0.42402 -0.07491
 C509 C 1.10659 0.15412 0.15695
 C510 C 1.14778 0.15182 0.15525
 C511 C 1.16495 0.12820 0.12877
 C512 C 1.14232 0.10644 0.10483
 C513 C 1.10163 0.10764 0.10625
 C514 C 1.08337 0.13286 0.13128
 C515 C 1.08786 0.17657 0.18413
 C516 C 1.04752 0.17986 0.18435
 C517 C 1.02506 0.16102 0.15762
 C518 C 1.04264 0.13787 0.13120
 H519 H 1.10403 0.19159 0.20563
 H520 H 1.03363 0.19739 0.20516
 H521 H 0.99380 0.16424 0.15748
 H522 H 1.02395 0.12470 0.11039
 H523 H 1.19632 0.12628 0.12691
 H524 H 1.15691 0.08763 0.08586
 C525 C 1.16631 0.65029 0.60423
 C526 C 1.16177 0.65037 0.64505
 C527 C 1.13701 0.62525 0.66217
 C528 C 1.11595 0.60098 0.63974
 C529 C 1.11903 0.60082 0.59934
 C530 C 1.14574 0.62456 0.58130
 C531 C 1.19019 0.67568 0.58556
 C532 C 1.19560 0.67440 0.54562
 C533 C 1.17749 0.64793 0.52354
 C534 C 1.15287 0.62317 0.54105
 H535 H 1.20471 0.69684 0.60148
 H536 H 1.21425 0.69386 0.53177
 H537 H 1.18244 0.64662 0.49263
 H538 H 1.14030 0.60262 0.52277
 H539 H 1.13351 0.62476 0.69331
 H540 H 1.09592 0.58306 0.65416
 C541 C 0.60586 0.15842 0.65145
 C542 C 0.64704 0.15825 0.64881
 C543 C 0.66517 0.13453 0.62313
 C544 C 0.64346 0.11059 0.60084
 C545 C 0.60279 0.10946 0.60342
 C546 C 0.58348 0.13455 0.62781
 C547 C 0.58643 0.18132 0.67766
 C548 C 0.54595 0.18204 0.67924
 C549 C 0.52408 0.16022 0.65476
 C550 C 0.54248 0.13688 0.62909
 H551 H 0.60219 0.19870 0.69732
 H552 H 0.53148 0.19986 0.69935
 H553 H 0.49266 0.16133 0.65575
 H554 H 0.52412 0.12137 0.60994
 H555 H 0.69658 0.13421 0.62074
 H556 H 0.65883 0.09189 0.58238
 C557 C 0.64202 0.61439 0.16800
 C558 C 0.65329 0.64700 0.15057
 C559 C 0.64380 0.65330 0.11185
 C560 C 0.62199 0.62854 0.09070
 C561 C 0.60894 0.59692 0.10775
 C562 C 0.61971 0.58906 0.14639
 C563 C 0.65342 0.60596 0.20612
 C564 C 0.64281 0.57350 0.22263
 C565 C 0.62127 0.54863 0.20145
 C566 C 0.61003 0.55606 0.16364
 H567 H 0.67109 0.62402 0.22332
 H568 H 0.65179 0.56743 0.25184
 H569 H 0.61362 0.52325 0.21423
 H570 H 0.59452 0.53534 0.14802
 H571 H 0.65280 0.67791 0.09812
 H572 H 0.61437 0.63454 0.06105
 C573 C 0.88108 -0.16183 0.12002
 C574 C 0.84627 -0.15184 0.13932
 C575 C 0.83230 -0.11694 0.13545
 C576 C 0.85283 -0.09166 0.11432
 C577 C 0.88817 -0.10037 0.09680
 C578 C 0.90238 -0.13570 0.09887
 C579 C 0.89471 -0.19734 0.12038
 C580 C 0.92883 -0.20665 0.10102
 C581 C 0.94978 -0.18102 0.08069
 C582 C 0.93679 -0.14583 0.07951
 H583 H 0.87889 -0.21831 0.13497
 H584 H 0.93894 -0.23397 0.10159
 H585 H 0.97619 -0.18844 0.06567
 H586 H 0.95362 -0.12681 0.06296
 H587 H 0.80567 -0.10891 0.14978
 H588 H 0.84164 -0.06471 0.11265
 C589 C 0.83883 0.40012 0.65630
 C590 C 0.84884 0.36317 0.66063
 C591 C 0.88288 0.35089 0.64210
 C592 C 0.90434 0.37268 0.61773
 C593 C 0.89372 0.40807 0.61142
 C594 C 0.86086 0.42223 0.63068
 C595 C 0.80998 0.41671 0.67945
 C596 C 0.80010 0.45242 0.67424
 C597 C 0.81929 0.47281 0.64670
 C598 C 0.84959 0.45807 0.62527
 H599 H 0.79555 0.40274 0.70265
 H600 H 0.77759 0.46440 0.69189
 H601 H 0.81128 0.50044 0.64256
 H602 H 0.86417 0.47511 0.60468
 H603 H 0.89184 0.32326 0.64396
 H604 H 0.92976 0.36164 0.60356
 C605 C 0.34550 -0.11195 0.66457
 C606 C 0.35424 -0.14896 0.66506
 C607 C 0.38632 -0.16172 0.64418
 C608 C 0.40875 -0.13876 0.62171
 C609 C 0.39954 -0.10254 0.61939
 C610 C 0.36812 -0.08863 0.64117
 C611 C 0.31530 -0.09742 0.68742
 C612 C 0.30696 -0.06103 0.68635
 C613 C 0.32864 -0.03837 0.66292
 C614 C 0.35906 -0.05186 0.64061
 H615 H 0.29823 -0.11384 0.70670
 H616 H 0.28369 -0.05032 0.70397
 H617 H 0.32210 -0.01012 0.66230
 H618 H 0.37557 -0.03319 0.62331
 H619 H 0.39352 -0.18985 0.64462
 H620 H 0.43298 -0.14947 0.60536
 C621 C 0.32983 0.37367 0.14259
 C622 C 0.35206 0.34550 0.15833
 C623 C 0.39243 0.34536 0.15353
 C624 C 0.41092 0.37200 0.13240
 C625 C 0.38966 0.39957 0.11544
 C626 C 0.34876 0.40120 0.12130
 C627 C 0.28924 0.37565 0.14869
 C628 C 0.26781 0.40407 0.13430
 C629 C 0.28632 0.43133 0.11427
 C630 C 0.32636 0.43023 0.10809
 H631 H 0.27373 0.35561 0.16504
 H632 H 0.23676 0.40523 0.13927
 H633 H 0.26964 0.45373 0.10386
 H634 H 0.33930 0.45289 0.09384
 H635 H 0.40973 0.32429 0.16604
 H636 H 0.44216 0.37085 0.12878
 C637 C 0.89709 0.16690 -0.14719
 C638 C 0.85586 0.16504 -0.14680
 C639 C 0.83729 0.14040 -0.12277
 C640 C 0.85865 0.11657 -0.10074
 C641 C 0.89941 0.11650 -0.10188
 C642 C 0.91911 0.14267 -0.12428
 C643 C 0.91687 0.19298 -0.16907
 C644 C 0.95733 0.19522 -0.16853
 C645 C 0.97881 0.17205 -0.14579
 C646 C 0.96005 0.14622 -0.12361
 H647 H 0.90133 0.21222 -0.18627
 H648 H 0.97209 0.21540 -0.18541
 H649 H 1.01018 0.17440 -0.14498
 H650 H 0.97803 0.12993 -0.10532
 H651 H 0.80582 0.13889 -0.12191
 H652 H 0.84298 0.09713 -0.08360
 C653 C 0.89741 0.66675 0.35419
 C654 C 0.86006 0.65541 0.34170
 C655 C 0.84702 0.62088 0.35030
 C656 C 0.86967 0.59800 0.37234
 C657 C 0.90590 0.60908 0.38650
 C658 C 0.92067 0.64333 0.37664
 C659 C 0.91257 0.70051 0.34393
 C660 C 0.94983 0.71092 0.35541
 C661 C 0.97275 0.68794 0.37696
 C662 C 0.95854 0.65443 0.38740
 H663 H 0.89608 0.71891 0.32651
 H664 H 0.96114 0.73680 0.34717
 H665 H 1.00189 0.69594 0.38526
 H666 H 0.97795 0.63719 0.40309
 H667 H 0.81874 0.61179 0.34037
 H668 H 0.85841 0.57170 0.37917
 C669 C 0.38736 0.16008 0.38256
 C670 C 0.34949 0.15089 0.36787
 C671 C 0.33389 0.11721 0.37803
 C672 C 0.35580 0.09214 0.39768
 C673 C 0.39412 0.09940 0.40836
 C674 C 0.40991 0.13379 0.40210
 C675 C 0.40176 0.19563 0.38216
 C676 C 0.43833 0.20417 0.39708
 C677 C 0.46090 0.17800 0.41417
 C678 C 0.44676 0.14322 0.41715
 H679 H 0.38440 0.21754 0.37183
 H680 H 0.44888 0.23144 0.39608
 H681 H 0.48913 0.18485 0.42602
 H682 H 0.46449 0.12411 0.43234
 H683 H 0.30557 0.10845 0.36797
 H684 H 0.34311 0.06611 0.40325
 C685 C 0.38823 0.66270 -0.13064
 C686 C 0.34718 0.65876 -0.13283
 C687 C 0.32883 0.63156 -0.11199
 C688 C 0.35034 0.60742 -0.09061
 C689 C 0.39096 0.60963 -0.08935
 C690 C 0.41017 0.63843 -0.10784
 C691 C 0.40813 0.68967 -0.15114
 C692 C 0.44821 0.69416 -0.14714
 C693 C 0.46921 0.67187 -0.12296
 C694 C 0.45058 0.64402 -0.10371
 H695 H 0.39311 0.70757 -0.17033
 H696 H 0.46301 0.71526 -0.16262
 H697 H 0.50018 0.67599 -0.11937
 H698 H 0.46797 0.62747 -0.08505
 H699 H 0.29751 0.62840 -0.11315
 H700 H 0.33512 0.58587 -0.07623
 C701 C 1.09834 -0.15322 -0.15232
 C702 C 1.13924 -0.15397 -0.14715
 C703 C 1.15653 -0.13140 -0.11965
 C704 C 1.13433 -0.10775 -0.09786
 C705 C 1.09392 -0.10566 -0.10275
 C706 C 1.07530 -0.12947 -0.12936
 C707 C 1.07990 -0.17516 -0.18030
 C708 C 1.03963 -0.17487 -0.18461
 C709 C 1.01699 -0.15301 -0.16112
 C710 C 1.03443 -0.13076 -0.13354
 H711 H 1.09635 -0.19260 -0.19918
 H712 H 1.02589 -0.19193 -0.20609
 H713 H 0.98566 -0.15333 -0.16424
 H714 H 1.01533 -0.11534 -0.11528
 H715 H 1.18775 -0.13177 -0.11537
 H716 H 1.14926 -0.09009 -0.07773
 C717 C 1.11784 0.36505 0.32596
 C718 C 1.14745 0.34653 0.34587
 C719 C 1.15139 0.35098 0.38586
 C720 C 1.12714 0.37408 0.40625
 C721 C 1.09807 0.39340 0.38736
 C722 C 1.09248 0.38830 0.34688
 C723 C 1.11221 0.36009 0.28580
 C724 C 1.08206 0.37725 0.26666
 C725 C 1.05664 0.39912 0.28711
 C726 C 1.06144 0.40443 0.32679
 H727 H 1.13069 0.34261 0.26893
 H728 H 1.07804 0.37311 0.23589
 H729 H 1.03278 0.41178 0.27220
 H730 H 1.03992 0.42053 0.34128
 H731 H 1.17374 0.33668 0.40136
 H732 H 1.13145 0.37720 0.43715
 C733 C 0.60837 -0.16056 0.35578
 C734 C 0.64935 -0.15613 0.35405
 C735 C 0.66725 -0.12964 0.37672
 C736 C 0.64538 -0.10712 0.40026
 C737 C 0.60480 -0.11024 0.40193
 C738 C 0.58599 -0.13803 0.38065
 C739 C 0.58901 -0.18646 0.33281
 C740 C 0.54890 -0.19135 0.33572
 C741 C 0.52736 -0.17072 0.36149
 C742 C 0.54557 -0.14438 0.38386
 H743 H 0.60451 -0.20307 0.31232
 H744 H 0.53451 -0.21149 0.31812
 H745 H 0.49633 -0.17511 0.36414
 H746 H 0.52768 -0.12973 0.40410
 H747 H 0.69853 -0.12608 0.37581
 H748 H 0.66032 -0.08622 0.41635
 C749 C 0.59596 0.34491 -0.15433
 C750 C 0.63696 0.34474 -0.14924
 C751 C 0.65358 0.36606 -0.12015
 C752 C 0.63085 0.38827 -0.09723
 C753 C 0.59041 0.38983 -0.10206
 C754 C 0.57234 0.36656 -0.12955
 C755 C 0.57789 0.32461 -0.18395
 C756 C 0.53753 0.32356 -0.18742
 C757 C 0.51441 0.34257 -0.16156
 C758 C 0.53146 0.36380 -0.13285
 H759 H 0.59462 0.30951 -0.20482
 H760 H 0.52411 0.30758 -0.21003
 H761 H 0.48305 0.34092 -0.16382
 H762 H 0.51212 0.37709 -0.11289
 H763 H 0.68476 0.36602 -0.11559
 H764 H 0.64545 0.40530 -0.07625
 C765 C 1.17583 0.11798 -0.13073
 C766 C 1.15807 0.14834 -0.14800
 C767 C 1.11829 0.15440 -0.14110
 C768 C 1.09588 0.13027 -0.12016
 C769 C 1.11226 0.09937 -0.10486
 C770 C 1.15244 0.09260 -0.11059
 C771 C 1.21665 0.11318 -0.13103
 C772 C 1.23335 0.08242 -0.11607
 C773 C 1.21001 0.05602 -0.10003
 C774 C 1.16999 0.06095 -0.09715
 H775 H 1.23617 0.13338 -0.14208
 H776 H 1.26458 0.07900 -0.11709
 H777 H 1.22304 0.03182 -0.08920
 H778 H 1.15321 0.03953 -0.08460
 H779 H 1.10370 0.17710 -0.15366
 H780 H 1.06526 0.13577 -0.11591
 C781 C 1.11026 0.64315 0.33012
 C782 C 1.15027 0.64790 0.33887
 C783 C 1.16702 0.62846 0.36896
 C784 C 1.14465 0.60513 0.39101
 C785 C 1.10511 0.60018 0.38313
 C786 C 1.08743 0.61920 0.35259
 C787 C 1.09245 0.66163 0.29945
 C788 C 1.05289 0.65727 0.29177
 C789 C 1.03041 0.63440 0.31422
 C790 C 1.04736 0.61548 0.34436
 H791 H 1.10887 0.67949 0.28111
 H792 H 1.03958 0.67175 0.26830
 H793 H 0.99967 0.63129 0.30826
 H794 H 1.02875 0.59810 0.36111
 H795 H 1.19753 0.63197 0.37594
 H796 H 1.15823 0.59104 0.41466
 C797 C 0.60046 0.14987 0.34723
 C798 C 0.64142 0.15160 0.35141
 C799 C 0.65975 0.12996 0.37854
 C800 C 0.63839 0.10646 0.40121
 C801 C 0.59785 0.10364 0.39759
 C802 C 0.57828 0.12637 0.37110
 C803 C 0.58111 0.17071 0.31939
 C804 C 0.54077 0.16960 0.31605
 C805 C 0.51895 0.14804 0.34043
 C806 C 0.53730 0.12690 0.36790
 H807 H 0.59691 0.18788 0.29981
 H808 H 0.52634 0.18581 0.29466
 H809 H 0.48755 0.14776 0.33811
 H810 H 0.51875 0.11181 0.38685
 H811 H 0.69105 0.13113 0.38204
 H812 H 0.65403 0.08960 0.42115
 C813 C 0.60501 0.63680 -0.16674
 C814 C 0.64361 0.64532 -0.15433
 C815 C 0.65712 0.62993 -0.11993
 C816 C 0.63342 0.60810 -0.09758
 C817 C 0.59469 0.60095 -0.10785
 C818 C 0.57958 0.61690 -0.14209
 C819 C 0.59172 0.64562 -0.20422
 C820 C 0.55315 0.64008 -0.21495
 C821 C 0.52712 0.62521 -0.18894
 C822 C 0.54003 0.61365 -0.15300
 H823 H 0.61107 0.65630 -0.22593
 H824 H 0.54333 0.64775 -0.24343
 H825 H 0.49680 0.62216 -0.19680
 H826 H 0.51805 0.60336 -0.13396
 H827 H 0.68605 0.63575 -0.10912
 H828 H 0.64584 0.59666 -0.07173
 C829 C 0.88372 -0.16090 -0.12564
 C830 C 0.84810 -0.15152 -0.14344
 C831 C 0.83398 -0.11669 -0.13929
 C832 C 0.85461 -0.09109 -0.11816
 C833 C 0.89021 -0.09944 -0.10101
 C834 C 0.90489 -0.13462 -0.10408
 C835 C 0.89900 -0.19569 -0.12910
 C836 C 0.93378 -0.20460 -0.11088
 C837 C 0.95393 -0.17916 -0.08903
 C838 C 0.93981 -0.14442 -0.08568
 H839 H 0.88424 -0.21622 -0.14580
 H840 H 0.94511 -0.23142 -0.11366
 H841 H 0.98084 -0.18629 -0.07488
 H842 H 0.95633 -0.12543 -0.06846
 H843 H 0.80676 -0.10925 -0.15271
 H844 H 0.84306 -0.06428 -0.11583
 C845 C 0.82900 0.39644 0.35254
 C846 C 0.83561 0.35902 0.35264
 C847 C 0.86522 0.34521 0.37577
 C848 C 0.88908 0.36766 0.39749
 C849 C 0.88442 0.40480 0.39674
 C850 C 0.85364 0.41958 0.37477
 C851 C 0.79773 0.41129 0.33177
 C852 C 0.79120 0.44801 0.33235
 C853 C 0.81514 0.47055 0.35406
 C854 C 0.84584 0.45659 0.37537
 H855 H 0.77767 0.39473 0.31544
 H856 H 0.76713 0.45899 0.31625
 H857 H 0.80956 0.49898 0.35481
 H858 H 0.86264 0.47506 0.39285
 H859 H 0.87049 0.31671 0.37634
 H860 H 0.91226 0.35582 0.41421
 C861 C 0.32585 -0.11559 0.36847
 C862 C 0.33954 -0.14989 0.35581
 C863 C 0.37668 -0.16080 0.36854
 C864 C 0.40086 -0.13798 0.38970
 C865 C 0.38884 -0.10365 0.39980
 C866 C 0.35133 -0.09195 0.38898
 C867 C 0.28643 -0.10533 0.36445
 C868 C 0.27406 -0.07130 0.37530
 C869 C 0.30021 -0.04700 0.39139
 C870 C 0.33839 -0.05718 0.39856
 H871 H 0.26448 -0.12370 0.35385
 H872 H 0.24398 -0.06381 0.37130
 H873 H 0.29061 -0.02043 0.39930
 H874 H 0.35748 -0.03757 0.41180
 H875 H 0.38875 -0.18628 0.35984
 H876 H 0.42942 -0.14720 0.39814
 C877 C 0.31575 0.37135 -0.11606
 C878 C 0.33600 0.34614 -0.13919
 C879 C 0.37666 0.34618 -0.13924
 C880 C 0.39746 0.37148 -0.11791
 C881 C 0.37833 0.39776 -0.09608
 C882 C 0.33690 0.39826 -0.09546
 C883 C 0.27476 0.37047 -0.11330
 C884 C 0.25483 0.39670 -0.09267
 C885 C 0.27519 0.42439 -0.07476
 C886 C 0.31569 0.42544 -0.07625
 H887 H 0.25778 0.34946 -0.12692
 H888 H 0.22340 0.39581 -0.09104
 H889 H 0.25950 0.44526 -0.05964
 H890 H 0.32958 0.44826 -0.06294
 H891 H 0.39245 0.32709 -0.15688
 H892 H 0.42894 0.37072 -0.11878
 C893 C 1.09695 -0.15537 0.14925
 C894 C 1.13813 -0.15409 0.14662
 C895 C 1.15574 -0.13018 0.12109
 C896 C 1.13362 -0.10662 0.09957
 C897 C 1.09299 -0.10593 0.10279
 C898 C 1.07409 -0.13121 0.12706
 C899 C 1.07797 -0.18081 0.17269
 C900 C 1.03755 -0.18206 0.17494
 C901 C 1.01524 -0.15868 0.15333
 C902 C 1.03311 -0.13392 0.12912
 H903 H 1.09406 -0.20025 0.18908
 H904 H 1.02343 -0.20159 0.19319
 H905 H 0.98384 -0.16009 0.15493
 H906 H 1.01429 -0.11777 0.11160
 H907 H 1.18713 -0.12903 0.11856
 H908 H 1.14873 -0.08784 0.08113
 C909 C 1.12329 0.37307 0.67109
 C910 C 1.14863 0.34964 0.65089
 C911 C 1.15039 0.35086 0.61051
 C912 C 1.12709 0.37423 0.58989
 C913 C 1.10097 0.39702 0.60888
 C914 C 1.09811 0.39595 0.64996
 C915 C 1.12253 0.37431 0.71195
 C916 C 1.09583 0.39563 0.73157
 C917 C 1.06930 0.41591 0.71102
 C918 C 1.07017 0.41605 0.67071
 H919 H 1.14262 0.35901 0.72916
 H920 H 1.09537 0.39604 0.76288
 H921 H 1.04792 0.43170 0.72640
 H922 H 1.04808 0.43145 0.65650
 H923 H 1.16968 0.33317 0.59474
 H924 H 1.12948 0.37446 0.55864
 C925 C 0.60997 -0.15889 0.65064
 C926 C 0.65108 -0.15593 0.65140
 C927 C 0.66962 -0.13077 0.62795
 C928 C 0.64814 -0.10731 0.60548
 C929 C 0.60739 -0.10834 0.60561
 C930 C 0.58791 -0.13526 0.62716
 C931 C 0.59037 -0.18544 0.67206
 C932 C 0.55003 -0.18881 0.67029
 C933 C 0.52853 -0.16633 0.64677
 C934 C 0.54713 -0.14003 0.62513
 H935 H 0.60600 -0.20411 0.68992
 H936 H 0.53542 -0.20933 0.68682
 H937 H 0.49727 -0.16955 0.64495
 H938 H 0.52922 -0.12433 0.60615
 H939 H 0.70106 -0.12859 0.62791
 H940 H 0.66356 -0.08725 0.58896
 C941 C 0.60016 0.33836 0.14260
 C942 C 0.64087 0.34357 0.14636
 C943 C 0.65912 0.37115 0.12605
 C944 C 0.63757 0.39467 0.10387
 C945 C 0.59706 0.39149 0.10146
 C946 C 0.57801 0.36251 0.11988
 C947 C 0.58114 0.30914 0.16011
 C948 C 0.54126 0.30387 0.15548
 C949 C 0.51968 0.32721 0.13306
 C950 C 0.53772 0.35623 0.11528
 H951 H 0.59694 0.28976 0.17689
 H952 H 0.52712 0.28125 0.16894
 H953 H 0.48888 0.32248 0.12901
 H954 H 0.51994 0.37297 0.09720
 H955 H 0.69026 0.37518 0.12836
 H956 H 0.65259 0.41647 0.08970
 C957 C 0.88422 0.17218 0.13130
 C958 C 0.85131 0.15947 0.15210
 C959 C 0.84132 0.12315 0.14974
 C960 C 0.86303 0.09950 0.12748
 C961 C 0.89581 0.11125 0.10736
 C962 C 0.90701 0.14761 0.10926
 C963 C 0.89442 0.20876 0.13081
 C964 C 0.92708 0.22054 0.11053
 C965 C 0.94982 0.19635 0.08988
 C966 C 0.93984 0.16022 0.08893
 H967 H 0.87712 0.22868 0.14553
 H968 H 0.93466 0.24864 0.11065
 H969 H 0.97512 0.20568 0.07422
 H970 H 0.95790 0.14232 0.07209
 H971 H 0.81639 0.11292 0.16539
 H972 H 0.85429 0.07166 0.12615
 C973 C 0.88227 0.67066 0.62899
 C974 C 0.85435 0.65396 0.65318
 C975 C 0.85186 0.61663 0.65377
 C976 C 0.87674 0.59574 0.63139
 C977 C 0.90525 0.61142 0.60793
 C978 C 0.90905 0.64933 0.60751
 C979 C 0.88404 0.70824 0.62555
 C980 C 0.91319 0.72454 0.60389
 C981 C 0.94119 0.70390 0.58546
 C982 C 0.93940 0.66675 0.58731
 H983 H 0.86287 0.72538 0.63934
 H984 H 0.91437 0.75337 0.60184
 H985 H 0.96444 0.71675 0.56957
 H986 H 0.96269 0.65231 0.57351
 H987 H 0.83069 0.60351 0.67211
 H988 H 0.87353 0.56695 0.63229
 C989 C 0.38846 0.16505 0.62486
 C990 C 0.35467 0.15450 0.64560
 C991 C 0.34345 0.11845 0.64556
 C992 C 0.36519 0.09286 0.62606
 C993 C 0.39907 0.10244 0.60636
 C994 C 0.41100 0.13864 0.60529
 C995 C 0.39974 0.20125 0.62207
 C996 C 0.43288 0.21103 0.60133
 C997 C 0.45506 0.18516 0.58257
 C998 C 0.44424 0.14926 0.58429
 H999 H 0.38287 0.22234 0.63531
 H1000 H 0.44124 0.23889 0.59955
 H1001 H 0.48067 0.19295 0.56643
 H1002 H 0.46192 0.13000 0.56889
 H1003 H 0.31775 0.10994 0.66120
 H1004 H 0.35573 0.06521 0.62672
 C1005 C 0.35934 0.66682 0.10192
 C1006 C 0.35924 0.66684 0.14292
 C1007 C 0.38291 0.64287 0.16277
 C1008 C 0.40427 0.61723 0.14284
 C1009 C 0.40268 0.61483 0.10242
 C1010 C 0.38169 0.64090 0.08141
 C1011 C 0.33816 0.69238 0.08090
 C1012 C 0.33915 0.69257 0.04058
 C1013 C 0.36162 0.66778 0.02051
 C1014 C 0.38296 0.64236 0.04058
 H1015 H 0.32120 0.71274 0.09539
 H1016 H 0.32286 0.71239 0.02484
 H1017 H 0.36285 0.66848 -0.01077
 H1018 H 0.40116 0.62470 0.02372
 H1019 H 0.38333 0.64287 0.19412
 H1020 H 0.42053 0.59789 0.15935
   
