data_POSCAR
  _audit_creation_date              2014-09-24
  _audit_creation_method            'ToBaCCo'
  _symmetry_space_group_name_H-M    'P1'
  _symmetry_Int_Tables_number       1
  _symmetry_cell_setting            triclinic
  loop_
  _symmetry_equiv_pos_as_xyz
 x,y,z
_cell_length_a 19.3729
_cell_length_b 20.4763
_cell_length_c 19.0661
_cell_angle_alpha 90.283800
_cell_angle_beta 89.994200
_cell_angle_gamma 90.149100
loop_
  _atom_site_label
  _atom_site_type_symbol
  _atom_site_fract_x
  _atom_site_fract_y
  _atom_site_fract_z
C1 C 0.43874 1.09317 -0.53761
 C2 C 0.43863 1.09235 -0.46396
 C3 C 0.50107 1.09540 -0.42771
 C4 C 0.56375 1.09154 -0.46358
 C5 C 0.56391 1.09135 -0.53739
 C6 C 0.50145 1.09605 -0.57353
 H7 H 0.50148 1.09424 -0.63060
 H8 H 0.50065 1.09304 -0.37073
 C9 C -0.53556 1.42822 0.00037
 C10 C -0.46261 1.42808 -0.00025
 C11 C -0.42705 1.48792 -0.00025
 C12 C -0.46200 1.54800 0.00002
 C13 C -0.53509 1.54808 -0.00002
 C14 C -0.57053 1.48817 0.00031
 H15 H -0.62660 1.48820 0.00053
 H16 H -0.37095 1.48760 -0.00047
 C17 C 0.00004 0.54611 0.53756
 C18 C -0.00036 0.54637 0.46365
 C19 C -0.00014 0.48694 0.42704
 C20 C 0.00008 0.42720 0.46250
 C21 C -0.00034 0.42694 0.53639
 C22 C -0.00015 0.48635 0.57301
 H23 H -0.00016 0.48594 0.63002
 H24 H -0.00014 0.48733 0.37004
 O25 O -0.17622 0.99208 -0.09660
 O26 O 0.17713 0.98767 -0.09513
 O27 O -0.00188 1.07309 -0.17973
 O28 O 0.00266 0.89865 -0.17969
 O29 O 0.00207 0.81793 -0.09597
 O30 O -0.00238 1.15467 -0.09602
 O31 O 0.09196 0.98503 -0.17927
 O32 O -0.09044 0.98934 -0.18006
 Zr33 Zr 0.00039 0.98612 -0.12151
 O34 O 0.06304 0.92678 -0.06298
 O35 O -0.06234 1.04610 -0.06309
 C36 C -0.15417 0.99396 -0.16097
 C37 C 0.15576 0.98751 -0.15978
 C38 C -0.00317 1.13392 -0.16065
 C39 C 0.00332 0.83801 -0.16060
 H40 H 0.09141 1.07423 -0.09225
 O41 O 0.06220 1.04624 -0.06230
 H42 H -0.09218 0.89971 -0.09373
 O43 O -0.06258 0.92701 -0.06307
 O44 O 0.17580 0.99363 0.09657
 O45 O -0.17754 0.98755 0.09524
 O46 O 0.09518 1.15565 0.00255
 O47 O 0.09525 0.81872 -0.00180
 O48 O -0.09572 0.81834 0.00163
 O49 O -0.09538 1.15525 -0.00225
 O50 O 0.00148 1.07453 0.17992
 O51 O -0.00308 0.90007 0.17962
 O52 O 0.00210 1.15544 0.09633
 O53 O -0.00258 0.81868 0.09578
 O54 O 0.17817 1.07498 0.00277
 O55 O -0.17853 1.07431 -0.00258
 O56 O -0.17873 0.89906 0.00109
 O57 O 0.17822 0.89986 -0.00120
 O58 O 0.09008 0.99131 0.18009
 O59 O -0.09233 0.98595 0.17933
 Zr60 Zr 0.12128 0.98729 0.00045
 Zr61 Zr -0.12175 0.98678 -0.00041
 Zr62 Zr -0.00015 1.10318 0.00012
 Zr63 Zr -0.00023 0.87060 -0.00006
 Zr64 Zr -0.00079 0.98709 0.12156
 O65 O -0.06348 0.92704 0.06291
 O66 O 0.06197 1.04687 0.06323
 C67 C 0.15380 0.99605 0.16095
 C68 C -0.15613 0.98788 0.15989
 C69 C 0.15915 1.13568 0.00365
 C70 C 0.15923 0.83903 -0.00232
 C71 C -0.15971 0.83833 0.00216
 C72 C -0.15938 1.13508 -0.00337
 C73 C 0.00282 1.13521 0.16093
 C74 C -0.00380 0.83928 0.16044
 H75 H -0.09179 1.07454 0.09245
 O76 O -0.06259 1.04647 0.06243
 H77 H 0.09174 0.90086 0.09368
 O78 O 0.06214 0.92777 0.06306
 C79 C 0.29160 1.04702 0.32691
 C80 C 0.31329 1.05258 0.25713
 C81 C 0.26969 1.03319 0.20265
 C82 C 0.38193 1.08029 0.42315
 C83 C 0.18339 1.00108 0.28824
 C84 C 0.22712 1.02044 0.34255
 C85 C 0.33772 1.06603 0.38179
 C86 C 0.20389 1.00806 0.21767
 H87 H 0.36374 1.07246 0.24485
 H88 H 0.28662 1.03976 0.14899
 H89 H 0.13301 0.98175 0.30159
 H90 H 0.21051 1.01512 0.39650
 C91 C -0.29279 1.03661 0.32676
 C92 C -0.22950 1.00756 0.34177
 C93 C -0.18668 0.98765 0.28698
 C94 C -0.38008 1.07540 0.42342
 C95 C -0.27203 1.02326 0.20225
 C96 C -0.31472 1.04314 0.25718
 C97 C -0.33710 1.05836 0.38198
 C98 C -0.20685 0.99675 0.21662
 H99 H -0.21279 1.00138 0.39555
 H100 H -0.13681 0.96708 0.29974
 H101 H -0.28870 1.03141 0.14878
 H102 H -0.36432 1.06484 0.24538
 C103 C -0.29088 1.04357 -0.32750
 C104 C -0.31268 1.05023 -0.25780
 C105 C -0.26956 1.03112 -0.20309
 C106 C -0.37990 1.07769 -0.42416
 C107 C -0.18363 0.99694 -0.28830
 C108 C -0.22687 1.01603 -0.34282
 C109 C -0.33627 1.06287 -0.38262
 C110 C -0.20413 1.00520 -0.21782
 H111 H -0.36278 1.07088 -0.24576
 H112 H -0.28646 1.03867 -0.14951
 H113 H -0.13353 0.97694 -0.30140
 H114 H -0.21017 1.00988 -0.39669
 C115 C 0.29229 1.03709 -0.32613
 C116 C 0.22917 1.00737 -0.34141
 C117 C 0.18643 0.98715 -0.28683
 C118 C 0.37925 1.07607 -0.42278
 C119 C 0.27154 1.02378 -0.20175
 C120 C 0.31415 1.04398 -0.25649
 C121 C 0.33651 1.05903 -0.38119
 C122 C 0.20651 0.99659 -0.21639
 H123 H 0.21253 1.00089 -0.39526
 H124 H 0.13667 0.96607 -0.29979
 H125 H 0.28812 1.03222 -0.14821
 H126 H 0.36363 1.06618 -0.24447
 C127 C 0.32471 1.27793 0.00336
 C128 C 0.33934 1.21118 0.00651
 C129 C 0.28554 1.16530 0.00714
 C130 C 0.42198 1.36975 0.00130
 C131 C 0.20163 1.25257 0.00189
 C132 C 0.25563 1.29838 0.00125
 C133 C 0.37979 1.32597 0.00224
 C134 C 0.21581 1.18527 0.00461
 H135 H 0.39234 1.19450 0.00829
 H136 H 0.29882 1.11402 0.00939
 H137 H 0.14891 1.26989 -0.00015
 H138 H 0.24344 1.34994 -0.00110
 C139 C 0.32508 0.69773 -0.00219
 C140 C 0.33962 0.76462 -0.00356
 C141 C 0.28574 0.81016 -0.00400
 C142 C 0.42256 0.60650 -0.00067
 C143 C 0.20191 0.72230 -0.00198
 C144 C 0.25600 0.67681 -0.00154
 C145 C 0.38030 0.65004 -0.00136
 C146 C 0.21599 0.78974 -0.00305
 H147 H 0.39260 0.78167 -0.00415
 H148 H 0.29898 0.86155 -0.00489
 H149 H 0.14920 0.70462 -0.00119
 H150 H 0.24387 0.62514 -0.00053
 C151 C -0.32519 0.69580 0.00201
 C152 C -0.33994 0.76261 0.00319
 C153 C -0.28619 0.80858 0.00362
 C154 C -0.42201 0.60345 0.00058
 C155 C -0.20211 0.72133 0.00194
 C156 C -0.25604 0.67543 0.00152
 C157 C -0.38017 0.64759 0.00122
 C158 C -0.21638 0.78868 0.00284
 H159 H -0.39298 0.77924 0.00366
 H160 H -0.29958 0.85988 0.00437
 H161 H -0.14934 0.70403 0.00130
 H162 H -0.24374 0.62384 0.00066
 C163 C -0.32420 1.27733 -0.00309
 C164 C -0.25500 1.29777 -0.00125
 C165 C -0.20129 1.25194 -0.00185
 C166 C -0.42072 1.36942 -0.00112
 C167 C -0.28569 1.16461 -0.00653
 C168 C -0.33924 1.21053 -0.00592
 C169 C -0.37894 1.32547 -0.00202
 C170 C -0.21584 1.18460 -0.00428
 H171 H -0.24249 1.34935 0.00086
 H172 H -0.14847 1.26928 -0.00004
 H173 H -0.29925 1.11330 -0.00852
 H174 H -0.39234 1.19386 -0.00749
 C175 C 0.00305 1.27823 0.32679
 C176 C 0.00216 1.29809 0.25661
 C177 C 0.00261 1.25179 0.20254
 C178 C 0.00097 1.37173 0.42263
 C179 C 0.00529 1.16528 0.28887
 C180 C 0.00482 1.21176 0.34286
 C181 C 0.00194 1.32694 0.38139
 C182 C 0.00392 1.18474 0.21796
 H183 H 0.00087 1.34954 0.24364
 H184 H 0.00154 1.26857 0.14878
 H185 H 0.00643 1.11410 0.30283
 H186 H 0.00563 1.19586 0.39698
 C187 C -0.00338 1.27560 -0.32633
 C188 C -0.00513 1.20899 -0.34248
 C189 C -0.00559 1.16295 -0.28855
 C190 C -0.00128 1.36826 -0.42212
 C191 C -0.00297 1.25017 -0.20210
 C192 C -0.00252 1.29604 -0.25612
 C193 C -0.00226 1.32386 -0.38088
 C194 C -0.00426 1.18299 -0.21761
 H195 H -0.00591 1.19265 -0.39661
 H196 H -0.00671 1.11165 -0.30258
 H197 H -0.00193 1.26739 -0.14832
 H198 H -0.00125 1.34760 -0.24308
 C199 C 0.00309 0.69494 -0.32648
 C200 C 0.00495 0.76141 -0.34252
 C201 C 0.00556 0.80788 -0.28853
 C202 C 0.00093 0.60155 -0.42250
 C203 C 0.00280 0.72136 -0.20219
 C204 C 0.00221 0.67506 -0.25629
 C205 C 0.00191 0.64627 -0.38115
 C206 C 0.00425 0.78842 -0.21760
 H207 H 0.00574 0.77733 -0.39663
 H208 H 0.00676 0.85906 -0.30250
 H209 H 0.00176 0.70459 -0.14843
 H210 H 0.00085 0.62360 -0.24334
 C211 C -0.00359 0.69753 0.32613
 C212 C -0.00265 0.67709 0.25590
 C213 C -0.00324 0.72296 0.20187
 C214 C -0.00135 0.60500 0.42209
 C215 C -0.00614 0.81015 0.28832
 C216 C -0.00553 0.76412 0.34225
 C217 C -0.00238 0.64932 0.38075
 C218 C -0.00476 0.79014 0.21737
 H219 H -0.00122 0.62554 0.24288
 H220 H -0.00214 0.70576 0.14808
 H221 H -0.00740 0.86144 0.30236
 H222 H -0.00637 0.78047 0.39638
   
