data_POSCAR
  _audit_creation_date              2014-09-24
  _audit_creation_method            'ToBaCCo'
  _symmetry_space_group_name_H-M    'P1'
  _symmetry_Int_Tables_number       1
  _symmetry_cell_setting            triclinic
  loop_
  _symmetry_equiv_pos_as_xyz
 x,y,z
_cell_length_a 44.6573
_cell_length_b 10.3631
_cell_length_c 12.9344
_cell_angle_alpha 90.038500
_cell_angle_beta 90.052800
_cell_angle_gamma 90.365700
loop_
  _atom_site_label
  _atom_site_type_symbol
  _atom_site_fract_x
  _atom_site_fract_y
  _atom_site_fract_z
C1 C 0.68568 0.22253 0.59737
 C2 C 0.67119 0.23189 0.50093
 C3 C 0.68685 0.22905 0.40723
 C4 C 0.71811 0.21006 0.40847
 C5 C 0.73348 0.19904 0.50417
 C6 C 0.71729 0.20568 0.59874
 C7 C 0.73314 0.19244 0.69204
 C8 C 0.76413 0.18313 0.69343
 C9 C 0.78087 0.18160 0.60135
 C10 C 0.76528 0.18600 0.50525
 C11 C 0.73439 0.20276 0.31602
 C12 C 0.76530 0.18984 0.31676
 C13 C 0.78140 0.18240 0.41020
 C14 C 0.81317 0.17877 0.41146
 C15 C 0.82783 0.17745 0.50744
 C16 C 0.81269 0.18196 0.60234
 H17 H 0.72192 0.18955 0.76596
 H18 H 0.77454 0.17929 0.76864
 H19 H 0.72336 0.20799 0.24162
 H20 H 0.77628 0.18991 0.24246
 H21 H 0.64765 0.25600 0.49806
 H22 H 0.85168 0.15982 0.50859
 C23 C 0.31258 0.67624 0.39941
 C24 C 0.32715 0.66351 0.49450
 C25 C 0.31190 0.67281 0.58856
 C26 C 0.28051 0.68969 0.58795
 C27 C 0.26512 0.70091 0.49222
 C28 C 0.28119 0.69285 0.39757
 C29 C 0.26553 0.70418 0.30385
 C30 C 0.23473 0.72326 0.30267
 C31 C 0.21842 0.73354 0.39515
 C32 C 0.23367 0.72220 0.49112
 C33 C 0.26420 0.69778 0.68035
 C34 C 0.23345 0.71782 0.67940
 C35 C 0.21764 0.73309 0.58589
 C36 C 0.18619 0.75392 0.58423
 C37 C 0.17175 0.76276 0.48765
 C38 C 0.18721 0.75366 0.39395
 H39 H 0.27691 0.69905 0.23022
 H40 H 0.22383 0.72974 0.22814
 H41 H 0.27503 0.68907 0.75482
 H42 H 0.22233 0.71941 0.75350
 H43 H 0.35095 0.64338 0.49525
 H44 H 0.14829 0.78837 0.48416
 C45 C 0.18638 0.25270 -0.40184
 C46 C 0.17139 0.24770 -0.49670
 C47 C 0.18656 0.25432 -0.59201
 C48 C 0.21824 0.26990 -0.59101
 C49 C 0.23381 0.27687 -0.49512
 C50 C 0.21780 0.26736 -0.40052
 C51 C 0.23359 0.27325 -0.30669
 C52 C 0.26457 0.28477 -0.30518
 C53 C 0.28101 0.29322 -0.39743
 C54 C 0.26557 0.29117 -0.49362
 C55 C 0.23474 0.28287 -0.68304
 C56 C 0.26572 0.29641 -0.68169
 C57 C 0.28181 0.30062 -0.58811
 C58 C 0.31365 0.30817 -0.58594
 C59 C 0.32806 0.31066 -0.48930
 C60 C 0.31254 0.30124 -0.39594
 H61 H 0.22215 0.26866 -0.23307
 H62 H 0.27546 0.28577 -0.23048
 H63 H 0.22402 0.28377 -0.75792
 H64 H 0.27670 0.30133 -0.75589
 H65 H 0.14764 0.22583 -0.49524
 H66 H 0.35194 0.32882 -0.48542
 C67 C -0.31438 0.78607 -0.41383
 C68 C -0.32919 0.78378 -0.50999
 C69 C -0.31384 0.78709 -0.60499
 C70 C -0.28215 0.79936 -0.60361
 C71 C -0.26662 0.80647 -0.50771
 C72 C -0.28273 0.80016 -0.41288
 C73 C -0.26675 0.81172 -0.31942
 C74 C -0.23574 0.82095 -0.31828
 C75 C -0.21928 0.82207 -0.41054
 C76 C -0.23475 0.81739 -0.50652
 C77 C -0.26555 0.80841 -0.69575
 C78 C -0.23451 0.81672 -0.69461
 C79 C -0.21842 0.82067 -0.60113
 C80 C -0.18655 0.82214 -0.59907
 C81 C -0.17211 0.82736 -0.50268
 C82 C -0.18770 0.82586 -0.40919
 H83 H -0.27794 0.81510 -0.24544
 H84 H -0.22484 0.82609 -0.24368
 H85 H -0.27625 0.80979 -0.77067
 H86 H -0.22353 0.81826 -0.76887
 H87 H -0.35281 0.76052 -0.51123
 H88 H -0.14808 0.84147 -0.49957
 O89 O -0.04067 0.77104 0.18548
 O90 O -0.07422 0.88793 0.08986
 C91 C -0.06769 0.80649 0.16228
 O92 O 0.04257 1.22720 0.18480
 O93 O 0.07586 1.10843 0.08945
 C94 C 0.06949 1.19427 0.15925
 O95 O -0.04077 1.21004 0.19820
 O96 O -0.07431 1.10012 0.09623
 C97 C -0.06777 1.17656 0.17238
 O98 O 0.04296 0.75511 0.16698
 O99 O 0.07604 0.88581 0.07942
 C100 C 0.06988 0.79278 0.14339
 Zr101 Zr 0.00094 0.82886 0.12086
 O102 O 0.00443 0.80358 0.28264
 O103 O -0.00109 0.62827 0.09768
 Zr104 Zr 0.00091 1.15396 0.13500
 O105 O 0.00490 1.14359 0.29811
 O106 O -0.00094 1.35648 0.13880
 O107 O -0.02559 0.98962 0.14945
 O108 O 0.02701 0.99097 0.14637
 O109 O 0.04155 0.77929 -0.19270
 O110 O 0.07553 0.89777 -0.09787
 C111 C 0.06866 0.81322 -0.16851
 O112 O -0.04178 1.23102 -0.18282
 O113 O -0.07477 1.10952 -0.08725
 C114 C -0.06865 1.19361 -0.15844
 O115 O 0.04187 1.24802 -0.17216
 O116 O 0.07546 1.11782 -0.08794
 C117 C 0.06892 1.21102 -0.15100
 O118 O -0.04209 0.78672 -0.19769
 O119 O -0.07491 0.89610 -0.09371
 C120 C -0.06892 0.81882 -0.16967
 Zr121 Zr -0.00006 0.84577 -0.13751
 O122 O 0.00244 0.85233 -0.30090
 O123 O -0.00264 0.64261 -0.14126
 Zr124 Zr 0.00012 1.17156 -0.12361
 O125 O 0.00292 1.19227 -0.28602
 O126 O -0.00296 1.37328 -0.10605
 Zr127 Zr -0.04448 0.99897 0.00009
 Zr128 Zr 0.04540 1.00119 -0.00309
 O129 O 0.02587 1.01057 -0.15111
 O130 O -0.02661 1.00924 -0.15057
 O131 O 0.02748 0.81295 -0.01036
 O132 O -0.02591 1.18570 0.00747
 O133 O -0.02606 0.81301 -0.00792
 O134 O 0.02752 1.18826 0.00589
 H135 H 0.04044 0.98762 0.20732
 H136 H -0.03964 1.26035 0.01062
 H137 H 0.03879 1.01520 -0.21322
 H138 H -0.03990 0.73791 -0.00951
 H139 H -0.00053 1.37960 0.21317
 H140 H 0.01221 1.39841 -0.05393
 H141 H -0.01035 1.12588 -0.31680
 H142 H -0.01401 0.90781 -0.32565
 H143 H 0.01436 0.61136 -0.09937
 H144 H -0.00220 0.59288 0.16852
 H145 H -0.00501 0.87956 0.31493
 H146 H -0.01266 1.09551 0.32490
 O147 O 0.45981 0.28811 0.19901
 O148 O 0.42600 0.39555 0.09749
 C149 C 0.43275 0.32009 0.17384
 O150 O 0.54272 0.74551 0.16823
 O151 O 0.57614 0.61864 0.08014
 C152 C 0.56969 0.71084 0.14458
 O153 O 0.45925 0.72705 0.18479
 O154 O 0.42584 0.60755 0.08913
 C155 C 0.43225 0.69028 0.16108
 O156 O 0.54331 0.27441 0.18131
 O157 O 0.57657 0.39755 0.08749
 C158 C 0.57024 0.30892 0.15556
 Zr159 Zr 0.50129 0.34466 0.13366
 O160 O 0.50550 0.34926 0.29673
 O161 O 0.49925 0.14137 0.13326
 Zr162 Zr 0.50086 0.67079 0.12067
 O163 O 0.50466 0.69506 0.28248
 O164 O 0.49693 0.87256 0.10149
 O165 O 0.47465 0.50765 0.14908
 O166 O 0.52707 0.50983 0.14566
 O167 O 0.54167 0.25458 -0.17378
 O168 O 0.57556 0.38693 -0.09099
 C169 C 0.56875 0.29299 -0.15380
 O170 O 0.45784 0.70938 -0.19820
 O171 O 0.42506 0.59774 -0.09441
 C172 C 0.43104 0.67520 -0.17048
 O173 O 0.54141 0.72375 -0.19268
 O174 O 0.57563 0.60831 -0.09819
 C175 C 0.56858 0.69329 -0.16806
 O176 O 0.45831 0.26429 -0.18257
 O177 O 0.42537 0.38376 -0.08648
 C178 C 0.43144 0.29929 -0.15732
 Zr179 Zr 0.50018 0.32854 -0.12467
 O180 O 0.50287 0.31081 -0.28738
 O181 O 0.49728 0.12651 -0.10840
 Zr182 Zr 0.49990 0.65420 -0.13781
 O183 O 0.50255 0.64759 -0.30117
 O184 O 0.49651 0.85702 -0.14189
 Zr185 Zr 0.45560 0.49750 -0.00008
 Zr186 Zr 0.54551 0.50151 -0.00391
 O187 O 0.52591 0.49125 -0.15182
 O188 O 0.47335 0.48900 -0.15094
 O189 O 0.52780 0.31308 0.00422
 O190 O 0.47392 0.68472 -0.00818
 O191 O 0.47428 0.31203 0.00666
 O192 O 0.52744 0.68882 -0.01066
 H193 H 0.54052 0.51318 0.20658
 H194 H 0.45999 0.75878 -0.01001
 H195 H 0.53884 0.48795 -0.21396
 H196 H 0.46056 0.23659 0.01028
 H197 H 0.51584 0.90441 0.07058
 H198 H 0.51484 0.89127 -0.10869
 H199 H 0.48607 0.59156 -0.32625
 H200 H 0.48845 0.37236 -0.31737
 H201 H 0.51280 0.10181 -0.05767
 H202 H 0.50002 0.11448 0.20673
 H203 H 0.48985 0.40739 0.32358
 H204 H 0.49346 0.62315 0.31478
 C205 C 0.33138 0.31918 0.32354
 C206 C 0.35972 0.27689 0.31966
 C207 C 0.38035 0.30977 0.23496
 C208 C 0.40873 0.26975 0.24021
 H209 H 0.36859 0.21940 0.38249
 H210 H 0.37322 0.37518 0.17454
 H211 H 0.32232 0.36351 0.25480
 H212 H 0.41536 0.20582 0.30243
 C213 C -0.16871 0.82450 0.31031
 C214 C -0.14095 0.77528 0.30778
 C215 C -0.12004 0.80101 0.22242
 C216 C -0.09199 0.75661 0.22782
 H217 H -0.13273 0.71884 0.37228
 H218 H -0.12658 0.86672 0.16139
 H219 H -0.17716 0.86819 0.24038
 H220 H -0.08582 0.69238 0.29035
 C221 C 0.66990 0.76198 0.30260
 C222 C 0.64099 0.79322 0.29106
 C223 C 0.62195 0.74022 0.20764
 C224 C 0.59354 0.77912 0.20149
 H225 H 0.63041 0.85523 0.34768
 H226 H 0.62991 0.66117 0.16037
 H227 H 0.68069 0.71216 0.23935
 H228 H 0.58633 0.85779 0.25084
 C229 C 0.17012 1.23299 0.31556
 C230 C 0.14120 1.26494 0.30636
 C231 C 0.12188 1.21826 0.22157
 C232 C 0.09341 1.25685 0.21946
 H233 H 0.13085 1.32375 0.36560
 H234 H 0.12977 1.14409 0.16931
 H235 H 0.18079 1.18714 0.25017
 H236 H 0.08629 1.33024 0.27389
 C237 C 0.66894 0.24552 -0.31127
 C238 C 0.63964 0.21807 -0.30357
 C239 C 0.62076 0.26692 -0.21869
 C240 C 0.59224 0.22784 -0.21361
 H241 H 0.62876 0.16143 -0.36346
 H242 H 0.62908 0.34285 -0.16843
 H243 H 0.67974 0.28967 -0.24509
 H244 H 0.58473 0.15164 -0.26526
 C245 C 0.16933 0.77626 -0.32461
 C246 C 0.14008 0.74752 -0.31802
 C247 C 0.12087 0.79175 -0.23254
 C248 C 0.09221 0.75400 -0.23165
 H249 H 0.12947 0.69185 -0.37906
 H250 H 0.12915 0.86266 -0.17774
 H251 H 0.18002 0.81895 -0.25760
 H252 H 0.08473 0.68341 -0.28823
 C253 C 0.32970 0.66093 -0.31487
 C254 C 0.35644 0.71883 -0.30625
 C255 C 0.37812 0.68321 -0.22573
 C256 C 0.40632 0.72642 -0.23282
 H257 H 0.36362 0.78556 -0.36605
 H258 H 0.37191 0.61266 -0.16760
 H259 H 0.32181 0.59793 -0.25395
 H260 H 0.41215 0.79425 -0.29352
 C261 C -0.17007 1.18019 -0.30539
 C262 C -0.14223 1.22984 -0.30081
 C263 C -0.12136 1.20095 -0.21601
 C264 C -0.09323 1.24589 -0.22095
 H265 H -0.13374 1.28760 -0.36437
 H266 H -0.12787 1.13215 -0.15696
 H267 H -0.17895 1.13629 -0.23610
 H268 H -0.08717 1.31335 -0.28163
 C269 C 0.66905 0.75814 -0.32264
 C270 C 0.63979 0.78389 -0.31314
 C271 C 0.62086 0.72891 -0.23032
 C272 C 0.59184 0.75924 -0.22913
 H273 H 0.62890 0.84382 -0.37045
 H274 H 0.62971 0.65675 -0.17815
 H275 H 0.67993 0.71023 -0.25863
 H276 H 0.58386 0.83114 -0.28341
 C277 C 0.16874 1.22676 -0.30652
 C278 C 0.14196 1.28042 -0.29124
 C279 C 0.12114 1.23146 -0.21193
 C280 C 0.09313 1.27610 -0.20828
 H281 H 0.13423 1.35409 -0.34432
 H282 H 0.12768 1.15018 -0.16441
 H283 H 0.17691 1.15517 -0.25252
 H284 H 0.08688 1.35558 -0.25821
 C285 C 0.33027 0.30822 -0.29869
 C286 C 0.35662 0.24838 -0.29029
 C287 C 0.37848 0.28422 -0.21008
 C288 C 0.40668 0.24239 -0.21723
 H289 H 0.36351 0.18200 -0.35051
 H290 H 0.37246 0.35566 -0.15262
 H291 H 0.32288 0.37135 -0.23724
 H292 H 0.41243 0.17322 -0.27687
 C293 C -0.16989 0.83533 -0.31225
 C294 C -0.14405 0.77194 -0.30196
 C295 C -0.12192 0.80767 -0.22266
 C296 C -0.09378 0.76553 -0.23110
 H297 H -0.13771 0.70175 -0.36011
 H298 H -0.12775 0.87848 -0.16446
 H299 H -0.17669 0.90305 -0.25315
 H300 H -0.08819 0.69774 -0.29193
 C301 C 0.33109 0.66777 0.30431
 C302 C 0.35771 0.72754 0.29857
 C303 C 0.37959 0.69622 0.21765
 C304 C 0.40766 0.74182 0.22414
 H305 H 0.36454 0.79248 0.36016
 H306 H 0.37359 0.62599 0.15891
 H307 H 0.32376 0.60546 0.24186
 H308 H 0.41344 0.81007 0.28466
 C309 C -0.16927 1.17021 0.32036
 C310 C -0.14116 1.21674 0.31570
 C311 C -0.12034 1.18466 0.23164
 C312 C -0.09198 1.22652 0.23751
 H313 H -0.13255 1.27627 0.37810
 H314 H -0.12726 1.11786 0.17156
 H315 H -0.17827 1.12338 0.25224
 H316 H -0.08554 1.29155 0.29954
 C317 C 0.67040 0.26500 0.31130
 C318 C 0.64280 0.22035 0.29247
 C319 C 0.62283 0.27981 0.21512
 C320 C 0.59420 0.24202 0.21191
 H321 H 0.63372 0.14533 0.34209
 H322 H 0.63055 0.36094 0.16919
 H323 H 0.68009 0.33748 0.26082
 H324 H 0.58712 0.16262 0.26102
 C325 C 0.17021 0.77854 0.29713
 C326 C 0.14324 0.72517 0.28134
 C327 C 0.12244 0.77406 0.20216
 C328 C 0.09437 0.72839 0.19898
 H329 H 0.13523 0.65206 0.33478
 H330 H 0.12896 0.85603 0.15504
 H331 H 0.17886 0.84932 0.24303
 H332 H 0.08821 0.64826 0.24872
   
