data_POSCAR
  _audit_creation_date              2014-09-24
  _audit_creation_method            'ToBaCCo'
  _symmetry_space_group_name_H-M    'P1'
  _symmetry_Int_Tables_number       1
  _symmetry_cell_setting            triclinic
  loop_
  _symmetry_equiv_pos_as_xyz
 x,y,z
_cell_length_a 40.7169
_cell_length_b 40.6946
_cell_length_c 46.1530
_cell_angle_alpha 90.076300
_cell_angle_beta 89.960500
_cell_angle_gamma 120.044000
loop_
  _atom_site_label
  _atom_site_type_symbol
  _atom_site_fract_x
  _atom_site_fract_y
  _atom_site_fract_z
O1 O 0.03622 0.54453 1.27784
 O2 O -0.03747 0.50762 1.22120
 O3 O -0.03762 0.50753 1.27765
 O4 O 0.03637 0.54464 1.22139
 O5 O 0.03638 0.49029 1.22131
 O6 O -0.03760 0.45319 1.27756
 O7 O -0.03745 0.45329 1.22112
 O8 O 0.03623 0.49019 1.27775
 Cu9 Cu -0.00063 0.53157 1.24953
 Cu10 Cu -0.00061 0.46626 1.24943
 C11 C 0.04863 0.52357 1.28738
 C12 C -0.04988 0.47424 1.21157
 C13 C -0.05005 0.47412 1.28713
 C14 C 0.04883 0.52371 1.21183
 O15 O 0.45494 0.49267 1.27888
 O16 O 0.49204 0.45593 1.22225
 O17 O 0.49195 0.45581 1.27872
 O18 O 0.45496 0.49269 1.22240
 O19 O 0.50925 0.54713 1.22248
 O20 O 0.54624 0.51026 1.27879
 O21 O 0.54632 0.51037 1.22234
 O22 O 0.50923 0.54710 1.27895
 Cu23 Cu 0.46800 0.46879 1.25056
 Cu24 Cu 0.53323 0.53421 1.25065
 C25 C 0.47584 0.52608 1.28851
 C26 C 0.52543 0.47696 1.21271
 C27 C 0.52533 0.47682 1.28827
 C28 C 0.47589 0.52611 1.21290
 O29 O 0.50721 0.96287 1.27937
 O30 O 0.54437 1.03665 1.22278
 O31 O 0.54435 1.03680 1.27925
 O32 O 0.50725 0.96275 1.22289
 O33 O 0.45300 0.96289 1.22286
 O34 O 0.49011 1.03693 1.27922
 O35 O 0.49013 1.03679 1.22275
 O36 O 0.45298 0.96301 1.27933
 Cu37 Cu 0.53126 0.99975 1.25108
 Cu38 Cu 0.46608 0.99992 1.25104
 C39 C 0.47383 0.95051 1.28893
 C40 C 0.52350 1.04913 1.21318
 C41 C 0.52348 1.04934 1.28877
 C42 C 0.47389 0.95038 1.21333
 O43 O 0.96362 0.50993 0.72129
 O44 O 1.03766 0.54697 0.77758
 O45 O 1.03751 0.54695 0.72110
 O46 O 0.96379 0.50998 0.77777
 O47 O 0.96378 0.45564 0.77768
 O48 O 1.03751 0.49262 0.72099
 O49 O 1.03766 0.49262 0.77748
 O50 O 0.96362 0.45558 0.72120
 Cu51 Cu 1.00065 0.53394 0.74944
 Cu52 Cu 1.00065 0.46864 0.74932
 C53 C 0.95116 0.47652 0.71172
 C54 C 1.05011 0.52602 0.78706
 C55 C 1.04993 0.52602 0.71144
 C56 C 0.95138 0.47659 0.78732
 O57 O 0.49023 0.45319 0.72183
 O58 O 0.45356 0.49045 0.77819
 O59 O 0.45350 0.49028 0.72174
 O60 O 0.49028 0.45335 0.77828
 O61 O 0.54471 0.50765 0.77823
 O62 O 0.50793 0.54458 0.72168
 O63 O 0.50800 0.54476 0.77814
 O64 O 0.54467 0.50749 0.72178
 Cu65 Cu 0.46639 0.46634 0.75001
 Cu66 Cu 0.53182 0.53160 0.74995
 C67 C 0.52362 0.47407 0.71227
 C68 C 0.47461 0.52387 0.78770
 C69 C 0.47452 0.52364 0.71213
 C70 C 0.52368 0.47428 0.78783
 O71 O 0.54645 0.03636 0.72133
 O72 O 0.50968 -0.03756 0.77761
 O73 O 0.50959 -0.03753 0.72116
 O74 O 0.54654 0.03632 0.77778
 O75 O 0.49217 0.03621 0.77789
 O76 O 0.45523 -0.03764 0.72126
 O77 O 0.45531 -0.03767 0.77773
 O78 O 0.49208 0.03626 0.72143
 Cu79 Cu 0.53355 -0.00059 0.74945
 Cu80 Cu 0.46821 -0.00072 0.74959
 C81 C 0.52546 0.04875 0.71186
 C82 C 0.47632 -0.05003 0.78721
 C83 C 0.47619 -0.05002 0.71161
 C84 C 0.52557 0.04869 0.78743
 O85 O 0.39053 0.65780 0.97626
 O86 O 0.38886 0.72009 0.96674
 C87 C 0.37137 0.73783 0.96142
 O88 O 0.34282 0.73301 0.97610
 O89 O 0.28058 0.66898 0.96642
 C90 C 0.26281 0.63367 0.96112
 O91 O 0.26757 0.60998 0.97588
 O92 O 0.33161 0.61177 0.96659
 C93 C 0.36692 0.62930 0.96144
 O94 O 0.38849 0.66893 1.03377
 O95 O 0.39035 0.73299 1.02427
 C96 C 0.36662 0.73781 1.03895
 O97 O 0.33136 0.72005 1.03358
 O98 O 0.26738 0.65777 1.02389
 C99 C 0.26245 0.62924 1.03863
 O100 O 0.28021 0.61170 1.03344
 O101 O 0.34248 0.60995 1.02414
 C102 C 0.37093 0.63362 1.03897
 Cr103 Cr 0.38755 0.69395 1.00026
 Cr104 Cr 0.30654 0.69395 1.00000
 Cr105 Cr 0.30648 0.61287 1.00002
 O106 O 0.33352 0.66692 1.00010
 O107 O 0.61167 0.33133 0.96693
 O108 O 0.60996 0.26726 0.97617
 C109 C 0.63356 0.26217 0.96155
 O110 O 0.66884 0.27983 0.96687
 O111 O 0.73295 0.34227 0.97603
 C112 C 0.73804 0.37097 0.96144
 O113 O 0.72043 0.38862 0.96682
 O114 O 0.65806 0.39030 0.97611
 C115 C 0.62932 0.36661 0.96155
 O116 O 0.61005 0.34233 1.02453
 O117 O 0.61176 0.27995 1.03378
 C118 C 0.62939 0.26233 1.03912
 O119 O 0.65807 0.26739 1.02450
 O120 O 0.72048 0.33154 1.03366
 C121 C 0.73811 0.36684 1.03900
 O122 O 0.73303 0.39045 1.02443
 O123 O 0.66897 0.38876 1.03371
 C124 C 0.63370 0.37111 1.03909
 Cr125 Cr 0.61292 0.30625 1.00035
 Cr126 Cr 0.69405 0.30629 1.00027
 Cr127 Cr 0.69409 0.38747 1.00027
 O128 O 0.66702 0.33334 1.00030
 O129 O 0.65727 0.38976 0.52383
 O130 O 0.71951 0.38804 0.53329
 C131 C 0.73729 0.37054 0.53848
 O132 O 0.73242 0.34201 0.52371
 O133 O 0.66837 0.27972 0.53316
 C134 C 0.63307 0.26192 0.53838
 O135 O 0.60942 0.26674 0.52363
 O136 O 0.61117 0.33076 0.53321
 C137 C 0.62872 0.36605 0.53852
 O138 O 0.66844 0.38809 0.46631
 O139 O 0.73242 0.38983 0.47577
 C140 C 0.73723 0.36615 0.46098
 O141 O 0.71948 0.33085 0.46619
 O142 O 0.65722 0.26677 0.47564
 C143 C 0.62872 0.26190 0.46089
 O144 O 0.61123 0.27969 0.46613
 O145 O 0.60948 0.34197 0.47572
 C146 C 0.63316 0.37057 0.46105
 Cr147 Cr 0.69340 0.38691 0.49980
 Cr148 Cr 0.69336 0.30584 0.49968
 Cr149 Cr 0.61234 0.30580 0.49967
 O150 O 0.66637 0.33285 0.49971
 O151 O 0.33129 0.61157 0.53327
 O152 O 0.26719 0.60982 0.52417
 C153 C 0.26213 0.63346 0.53880
 O154 O 0.27979 0.66875 0.53348
 O155 O 0.34219 0.73286 0.52423
 C156 C 0.37095 0.73796 0.53873
 O157 O 0.38858 0.72035 0.53328
 O158 O 0.39019 0.65792 0.52395
 C159 C 0.36657 0.62922 0.53856
 O160 O 0.34200 0.60980 0.47563
 O161 O 0.27963 0.61151 0.46654
 C162 C 0.26203 0.62917 0.46124
 O163 O 0.26715 0.65790 0.47586
 O164 O 0.33122 0.72034 0.46661
 C165 C 0.36648 0.73798 0.46119
 O166 O 0.39013 0.73286 0.47568
 O167 O 0.38834 0.66872 0.46635
 C168 C 0.37069 0.63342 0.46101
 Cr169 Cr 0.30606 0.61274 0.49990
 Cr170 Cr 0.30612 0.69393 0.50004
 Cr171 Cr 0.38724 0.69393 0.49982
 O172 O 0.33314 0.66687 0.49992
 C173 C 0.37899 0.56632 0.40815
 C174 C 0.41093 0.59144 0.39205
 C175 C 0.42957 0.63031 0.39832
 C176 C 0.41643 0.64402 0.42066
 C177 C 0.46229 0.53954 0.30952
 C178 C 0.36578 0.57995 0.43050
 C179 C 0.42479 0.57729 0.36930
 C180 C 0.43651 0.56542 0.35035
 C181 C 0.45035 0.55147 0.32827
 C182 C 0.38442 0.61898 0.43709
 H183 H 0.36433 0.53617 0.40350
 H184 H 0.45433 0.65002 0.38600
 H185 H 0.43145 0.67421 0.42509
 H186 H 0.34105 0.55987 0.44265
 C187 C 0.36943 0.80010 0.39873
 C188 C 0.40825 0.82027 0.39237
 C189 C 0.43337 0.81338 0.40835
 C190 C 0.41982 0.78653 0.43065
 C191 C 0.46023 0.92350 0.30993
 C192 C 0.35578 0.77323 0.42103
 C193 C 0.42234 0.84828 0.36964
 C194 C 0.43422 0.87186 0.35071
 C195 C 0.44822 0.89965 0.32866
 C196 C 0.38084 0.76618 0.43733
 H197 H 0.34971 0.80520 0.38651
 H198 H 0.46348 0.82883 0.40362
 H199 H 0.43990 0.78182 0.44270
 H200 H 0.32563 0.75809 0.42553
 C201 C 0.18680 0.62089 0.40841
 C202 C 0.17997 0.58894 0.39228
 C203 C 0.20010 0.57026 0.39854
 C204 C 0.22688 0.58337 0.42089
 C205 C 0.07711 0.53782 0.30961
 C206 C 0.21356 0.63408 0.43078
 C207 C 0.15207 0.57513 0.36949
 C208 C 0.12857 0.56346 0.35050
 C209 C 0.10088 0.54968 0.32839
 C210 C 0.23388 0.61541 0.43735
 H211 H 0.17137 0.63557 0.40375
 H212 H 0.19503 0.54549 0.38619
 H213 H 0.24200 0.56834 0.42531
 H214 H 0.21825 0.65883 0.44295
 C215 C 0.63031 0.42950 0.39850
 C216 C 0.59146 0.41101 0.39236
 C217 C 0.56626 0.37914 0.40848
 C218 C 0.57980 0.36586 0.43075
 C219 C 0.53965 0.46255 0.31032
 C220 C 0.64394 0.41629 0.42076
 C221 C 0.57740 0.42496 0.36973
 C222 C 0.56556 0.43673 0.35088
 C223 C 0.55162 0.45061 0.32895
 C224 C 0.61882 0.38436 0.43723
 H225 H 0.65006 0.45421 0.38615
 H226 H 0.53611 0.36463 0.40390
 H227 H 0.55968 0.34120 0.44294
 H228 H 0.67413 0.43118 0.42512
 C229 C 0.57002 0.20019 0.39810
 C230 C 0.58849 0.17980 0.39197
 C231 C 0.62026 0.18642 0.40817
 C232 C 0.63346 0.21323 0.43053
 C233 C 0.53704 0.07643 0.30968
 C234 C 0.58316 0.22701 0.42043
 C235 C 0.57461 0.15181 0.36925
 C236 C 0.56287 0.12819 0.35035
 C237 C 0.54900 0.10036 0.32836
 C238 C 0.61499 0.23378 0.43699
 H239 H 0.54539 0.19526 0.38567
 H240 H 0.63475 0.17078 0.40360
 H241 H 0.65806 0.21774 0.44278
 H242 H 0.56830 0.24234 0.42478
 C243 C 0.81227 0.43312 0.40812
 C244 C 0.81877 0.40792 0.39183
 C245 C 0.79850 0.36906 0.39797
 C246 C 0.77187 0.35540 0.42041
 C247 C 0.92142 0.45979 0.30924
 C248 C 0.78566 0.41956 0.43057
 C249 C 0.84654 0.42200 0.36901
 C250 C 0.86998 0.43386 0.35003
 C251 C 0.89762 0.44781 0.32796
 C252 C 0.76521 0.38052 0.43703
 H253 H 0.82784 0.46328 0.40353
 H254 H 0.80335 0.34932 0.38548
 H255 H 0.75661 0.32520 0.42476
 H256 H 0.78121 0.43967 0.44288
 C257 C 0.56675 0.37953 1.09194
 C258 C 0.59187 0.41158 1.10799
 C259 C 0.63070 0.43027 1.10167
 C260 C 0.64437 0.41707 1.07935
 C261 C 0.53980 0.46277 1.19051
 C262 C 0.58033 0.36627 1.06961
 C263 C 0.57775 0.42547 1.13074
 C264 C 0.56585 0.43716 1.14969
 C265 C 0.55182 0.45093 1.17176
 C266 C 0.61933 0.38494 1.06298
 H267 H 0.53664 0.36484 1.09664
 H268 H 0.65041 0.45511 1.11395
 H269 H 0.67453 0.43211 1.07488
 H270 H 0.56026 0.34145 1.05751
 C271 C 0.80004 0.36995 1.10163
 C272 C 0.82022 0.40881 1.10794
 C273 C 0.81341 0.43392 1.09186
 C274 C 0.78663 0.42030 1.06951
 C275 C 0.92318 0.46073 1.19055
 C276 C 0.77324 0.35624 1.07929
 C277 C 0.84814 0.42294 1.13071
 C278 C 0.87167 0.43482 1.14968
 C279 C 0.89937 0.44878 1.17178
 C280 C 0.76627 0.38128 1.06289
 H281 H 0.80510 0.35025 1.11393
 H282 H 0.82887 0.46406 1.09656
 H283 H 0.78197 0.44037 1.05738
 H284 H 0.75809 0.32606 1.07483
 C285 C 0.57053 0.20058 1.10188
 C286 C 0.58915 0.18039 1.10818
 C287 C 0.62106 0.18715 1.09207
 C288 C 0.63425 0.21387 1.06967
 C289 C 0.53783 0.07761 1.19094
 C290 C 0.58366 0.22732 1.07950
 C291 C 0.57531 0.15252 1.13101
 C292 C 0.56360 0.12904 1.15001
 C293 C 0.54976 0.10138 1.17215
 C294 C 0.61564 0.23423 1.06306
 H295 H 0.54580 0.19558 1.11421
 H296 H 0.63569 0.17168 1.09675
 H297 H 0.65896 0.21849 1.05751
 H298 H 0.56867 0.24248 1.07505
 C299 C 0.37899 0.56667 1.09183
 C300 C 0.41066 0.59190 1.10814
 C301 C 0.42920 0.63077 1.10201
 C302 C 0.41624 0.64440 1.07958
 C303 C 0.46162 0.54033 1.19077
 C304 C 0.36595 0.58022 1.06938
 C305 C 0.42437 0.57786 1.13095
 C306 C 0.43599 0.56606 1.14994
 C307 C 0.44975 0.55221 1.17203
 C308 C 0.38449 0.61926 1.06293
 H309 H 0.36444 0.53652 1.09639
 H310 H 0.45377 0.65053 1.11451
 H311 H 0.43116 0.67461 1.07525
 H312 H 0.34142 0.56009 1.05705
 C313 C 0.20076 0.57064 1.10135
 C314 C 0.18046 0.58920 1.10747
 C315 C 0.18710 0.62096 1.09125
 C316 C 0.21385 0.63410 1.06891
 C317 C 0.07741 0.53803 1.18976
 C318 C 0.22753 0.58370 1.07902
 C319 C 0.15256 0.57541 1.13018
 C320 C 0.12901 0.56374 1.14909
 C321 C 0.10127 0.54994 1.17109
 C322 C 0.23433 0.61555 1.06247
 H323 H 0.19581 0.54601 1.11378
 H324 H 0.17151 0.63552 1.09582
 H325 H 0.21840 0.65870 1.05665
 H326 H 0.24281 0.56879 1.07469
 C327 C 0.36922 0.79907 1.10195
 C328 C 0.40803 0.81932 1.10827
 C329 C 0.43329 0.81280 1.09209
 C330 C 0.41984 0.78622 1.06959
 C331 C 0.45959 0.92186 1.19115
 C332 C 0.35569 0.77246 1.07946
 C333 C 0.42199 0.84706 1.13117
 C334 C 0.43377 0.87047 1.15022
 C335 C 0.44765 0.89808 1.17237
 C336 C 0.38087 0.76579 1.06295
 H337 H 0.34944 0.80393 1.11434
 H338 H 0.46340 0.82835 1.09682
 H339 H 0.44000 0.78176 1.05738
 H340 H 0.32553 0.75723 1.07497
 C341 C 0.57011 0.36887 0.60140
 C342 C 0.58869 0.40773 0.60763
 C343 C 0.62048 0.43295 0.59145
 C344 C 0.63361 0.41941 0.56903
 C345 C 0.53778 0.45967 0.69016
 C346 C 0.58317 0.35524 0.57899
 C347 C 0.57491 0.42179 0.63042
 C348 C 0.56329 0.43366 0.64939
 C349 C 0.54958 0.44765 0.67144
 C350 C 0.61503 0.38038 0.56247
 H351 H 0.54545 0.34911 0.61380
 H352 H 0.63505 0.46310 0.59611
 H353 H 0.65823 0.43954 0.55680
 H354 H 0.56823 0.32504 0.57456
 C355 C 0.56612 0.18666 0.59112
 C356 C 0.59131 0.18015 0.60735
 C357 C 0.63016 0.20051 0.60121
 C358 C 0.64381 0.22722 0.57884
 C359 C 0.53967 0.07729 0.68976
 C360 C 0.57968 0.21334 0.56874
 C361 C 0.57725 0.15230 0.63010
 C362 C 0.56544 0.12881 0.64904
 C363 C 0.55156 0.10111 0.67107
 C364 C 0.61870 0.23388 0.56227
 H365 H 0.53598 0.17102 0.59571
 H366 H 0.64990 0.19567 0.61365
 H367 H 0.67400 0.24254 0.57449
 H368 H 0.55957 0.21779 0.55647
 C369 C 0.81271 0.37902 0.59112
 C370 C 0.81932 0.41080 0.60737
 C371 C 0.79895 0.42928 0.60129
 C372 C 0.77215 0.41613 0.57896
 C373 C 0.92254 0.46221 0.68965
 C374 C 0.78593 0.36580 0.56878
 C375 C 0.84727 0.42468 0.63008
 C376 C 0.87085 0.43642 0.64898
 C377 C 0.89865 0.45028 0.67098
 C378 C 0.76540 0.38428 0.56237
 H379 H 0.82834 0.36451 0.59566
 H380 H 0.80386 0.45393 0.61374
 H381 H 0.75684 0.43100 0.57465
 H382 H 0.78143 0.34119 0.55650
 C383 C 0.36965 0.57037 0.60117
 C384 C 0.40849 0.58903 0.60741
 C385 C 0.43361 0.62096 0.59130
 C386 C 0.42001 0.63414 0.56897
 C387 C 0.46029 0.53790 0.68994
 C388 C 0.35596 0.58348 0.57886
 C389 C 0.42260 0.57522 0.63017
 C390 C 0.43445 0.56356 0.64912
 C391 C 0.44837 0.54977 0.67120
 C392 C 0.38100 0.61549 0.56242
 H393 H 0.34994 0.54562 0.61350
 H394 H 0.46374 0.63563 0.59595
 H395 H 0.44007 0.65886 0.55682
 H396 H 0.32578 0.56846 0.57445
 C397 C 0.37940 0.81319 0.59181
 C398 C 0.41140 0.82002 0.60782
 C399 C 0.43004 0.79988 0.60140
 C400 C 0.41685 0.77310 0.57901
 C401 C 0.46270 0.92300 0.69058
 C402 C 0.36615 0.78643 0.56941
 C403 C 0.42528 0.84794 0.63065
 C404 C 0.43699 0.87146 0.64965
 C405 C 0.45081 0.89918 0.67179
 C406 C 0.38478 0.76611 0.56267
 H407 H 0.36475 0.82863 0.59659
 H408 H 0.45484 0.80495 0.61365
 H409 H 0.43186 0.75797 0.57446
 H410 H 0.34137 0.78175 0.55734
 C411 C 0.18680 0.56643 0.59165
 C412 C 0.17998 0.59155 0.60778
 C413 C 0.20019 0.63040 0.60152
 C414 C 0.22701 0.64410 0.57917
 C415 C 0.07691 0.53956 0.69041
 C416 C 0.21360 0.58003 0.56929
 C417 C 0.15202 0.57742 0.63056
 C418 C 0.12847 0.56553 0.64953
 C419 C 0.10073 0.55155 0.67164
 C420 C 0.23398 0.61905 0.56272
 H421 H 0.17133 0.53629 0.59630
 H422 H 0.19515 0.65012 0.61385
 H423 H 0.24217 0.67428 0.57475
 H424 H 0.21825 0.55994 0.55713
 C425 C 0.36995 0.57085 0.89850
 C426 C 0.40882 0.58939 0.89242
 C427 C 0.43399 0.62111 0.90873
 C428 C 0.42039 0.63420 0.93114
 C429 C 0.46045 0.53823 0.80984
 C430 C 0.35626 0.58387 0.92089
 C431 C 0.42291 0.57565 0.86963
 C432 C 0.43472 0.56399 0.85065
 C433 C 0.44858 0.55017 0.82857
 C434 C 0.38135 0.61566 0.93754
 H435 H 0.35024 0.54625 0.88599
 H436 H 0.46414 0.63566 0.90419
 H437 H 0.44047 0.65877 0.94347
 H438 H 0.32606 0.56895 0.92520
 C439 C 0.20166 0.63086 0.89809
 C440 C 0.18132 0.59200 0.89187
 C441 C 0.18778 0.56677 0.90811
 C442 C 0.21437 0.58030 0.93057
 C443 C 0.07865 0.54031 0.80919
 C444 C 0.22827 0.64448 0.92054
 C445 C 0.15354 0.57795 0.86903
 C446 C 0.13010 0.56614 0.85003
 C447 C 0.10245 0.55224 0.82793
 C448 C 0.23488 0.61933 0.93712
 H449 H 0.19686 0.65063 0.88565
 H450 H 0.17217 0.53662 0.90346
 H451 H 0.21877 0.56016 0.94284
 H452 H 0.24356 0.67468 0.92495
 C453 C 0.37964 0.81272 0.90837
 C454 C 0.41139 0.81921 0.89218
 C455 C 0.42997 0.79900 0.89848
 C456 C 0.41693 0.77244 0.92095
 C457 C 0.46216 0.92150 0.80936
 C458 C 0.36653 0.78619 0.93086
 C459 C 0.42512 0.84687 0.86930
 C460 C 0.43670 0.87023 0.85026
 C461 C 0.45038 0.89777 0.82812
 C462 C 0.38509 0.76578 0.93747
 H463 H 0.36507 0.82824 0.90367
 H464 H 0.45460 0.80384 0.88607
 H465 H 0.43185 0.75722 0.92541
 H466 H 0.34192 0.78174 0.94308
 C467 C 0.57033 0.36943 0.89893
 C468 C 0.58900 0.40826 0.89260
 C469 C 0.62099 0.43345 0.90865
 C470 C 0.63420 0.41993 0.93101
 C471 C 0.53789 0.46000 0.81002
 C472 C 0.58348 0.35582 0.92127
 C473 C 0.57516 0.42231 0.86983
 C474 C 0.56349 0.43414 0.85086
 C475 C 0.54973 0.44806 0.82878
 C476 C 0.61554 0.38093 0.93765
 H477 H 0.54554 0.34968 0.88664
 H478 H 0.63567 0.46357 0.90394
 H479 H 0.65897 0.44005 0.94312
 H480 H 0.56845 0.32565 0.92575
 C481 C 0.81324 0.37925 0.90846
 C482 C 0.82006 0.41119 0.89238
 C483 C 0.79990 0.42984 0.89872
 C484 C 0.77313 0.41673 0.92110
 C485 C 0.92290 0.46232 0.80958
 C486 C 0.78650 0.36607 0.93086
 C487 C 0.84796 0.42500 0.86955
 C488 C 0.87145 0.43667 0.85054
 C489 C 0.89913 0.45045 0.82839
 C490 C 0.76616 0.38471 0.93751
 H491 H 0.82868 0.36458 0.90376
 H492 H 0.80494 0.45460 0.88641
 H493 H 0.75800 0.43175 0.92557
 H494 H 0.78184 0.34134 0.94299
 C495 C 0.56656 0.18688 0.90862
 C496 C 0.59167 0.18008 0.89248
 C497 C 0.63050 0.20027 0.89878
 C498 C 0.64418 0.22705 0.92117
 C499 C 0.53985 0.07720 0.80967
 C500 C 0.58015 0.21364 0.93102
 C501 C 0.57757 0.15219 0.86965
 C502 C 0.56572 0.12868 0.85063
 C503 C 0.55179 0.10099 0.82848
 C504 C 0.61914 0.23401 0.93762
 H505 H 0.53644 0.17141 0.90394
 H506 H 0.65020 0.19524 0.88643
 H507 H 0.67435 0.24222 0.92561
 H508 H 0.56008 0.21829 0.94319
   
