data_POSCAR
  _audit_creation_date              2014-09-24
  _audit_creation_method            'ToBaCCo'
  _symmetry_space_group_name_H-M    'P1'
  _symmetry_Int_Tables_number       1
  _symmetry_cell_setting            triclinic
  loop_
  _symmetry_equiv_pos_as_xyz
 x,y,z
_cell_length_a 32.0671
_cell_length_b 32.0379
_cell_length_c 32.0988
_cell_angle_alpha 80.595500
_cell_angle_beta 99.240500
_cell_angle_gamma 98.883500
loop_
  _atom_site_label
  _atom_site_type_symbol
  _atom_site_fract_x
  _atom_site_fract_y
  _atom_site_fract_z
C1 C 0.60192 0.60132 -0.00018
 C2 C 0.61011 0.55912 0.00377
 C3 C 0.57637 0.52563 0.00479
 C4 C 0.53371 0.53391 -0.00026
 C5 C 0.52608 0.57684 -0.00526
 C6 C 0.55998 0.61017 -0.00416
 C7 C 0.49750 0.49810 -0.00030
 C8 C 0.45814 0.50290 0.01170
 C9 C 0.42418 0.46969 0.01078
 C10 C 0.42949 0.43066 -0.00020
 C11 C 0.46832 0.42490 -0.01125
 C12 C 0.50181 0.45859 -0.01227
 H13 H 0.62813 0.62721 -0.00013
 H14 H 0.58381 0.49321 0.00983
 H15 H 0.49389 0.58479 -0.01029
 H16 H 0.45350 0.53212 0.02205
 H17 H 0.40335 0.40473 -0.00014
 H18 H 0.53089 0.45359 -0.02265
 C19 C -0.00093 0.57152 0.42782
 C20 C -0.01125 0.57743 0.46690
 C21 C -0.01200 0.54360 0.50062
 C22 C -0.00046 0.50383 0.49632
 C23 C 0.01084 0.49889 0.45675
 C24 C 0.00961 0.53222 0.42251
 C25 C -0.00026 0.46784 0.53274
 C26 C -0.00562 0.42494 0.52531
 C27 C -0.00444 0.39145 0.55932
 C28 C 0.00003 0.40006 0.60122
 C29 C 0.00434 0.44220 0.60927
 C30 C 0.00524 0.47587 0.57542
 H31 H -0.00111 0.59756 0.40149
 H32 H -0.02185 0.54860 0.52993
 H33 H 0.02087 0.46940 0.45222
 H34 H -0.01102 0.41704 0.49321
 H35 H 0.00014 0.37404 0.62749
 H36 H 0.01052 0.50816 0.58287
 C37 C 0.57166 -0.00030 0.57049
 C38 C 0.53255 0.01042 0.57595
 C39 C 0.49898 0.01107 0.54217
 C40 C 0.50349 -0.00093 0.50283
 C41 C 0.54311 -0.01265 0.49830
 C42 C 0.57719 -0.01135 0.53162
 C43 C 0.46726 -0.00112 0.46686
 C44 C 0.47495 0.00399 0.42409
 C45 C 0.44112 0.00288 0.39059
 C46 C 0.39915 -0.00128 0.39903
 C47 C 0.39087 -0.00534 0.44104
 C48 C 0.42454 -0.00629 0.47476
 H49 H 0.59780 -0.00002 0.59659
 H50 H 0.46966 0.02122 0.54695
 H51 H 0.54779 -0.02304 0.46916
 H52 H 0.50710 0.00917 0.41630
 H53 H 0.37302 -0.00133 0.37298
 H54 H 0.41692 -0.01133 0.50698
 O55 O 0.46971 0.01365 -0.08006
 O56 O 0.46085 0.00270 0.03408
 O57 O 0.46140 0.06544 -0.02852
 O58 O 0.47108 -0.04923 -0.01765
 O59 O 0.54108 -0.03446 -0.00295
 O60 O 0.53147 0.07982 -0.01396
 O61 O 0.53085 0.01739 0.04884
 O62 O 0.53978 0.02820 -0.06565
 Cu63 Cu 0.45869 0.00653 -0.02435
 Cu64 Cu 0.54287 0.02405 -0.00683
 C65 C 0.50617 0.02286 -0.09216
 C66 C 0.49420 0.00874 0.06068
 C67 C 0.49489 0.09196 -0.02317
 C68 C 0.50786 -0.06109 -0.00896
 O69 O -0.03551 0.53972 1.00303
 O70 O 0.07900 0.53166 1.01435
 O71 O 0.01697 0.53025 0.95140
 O72 O 0.02674 0.53909 1.06588
 O73 O 0.01308 0.46885 1.08052
 O74 O 0.00315 0.46008 0.96642
 O75 O 0.06550 0.46142 1.02915
 O76 O -0.04939 0.46955 1.01799
 Cu77 Cu 0.02302 0.54226 1.00704
 Cu78 Cu 0.00658 0.45789 1.02485
 C79 C -0.06174 0.50615 1.00917
 C80 C 0.09162 0.49525 1.02372
 C81 C 0.00895 0.49352 0.93970
 C82 C 0.02164 0.50538 1.09250
 O83 O -0.02850 -0.06507 0.46045
 O84 O -0.01819 0.04930 0.47047
 O85 O 0.03381 -0.00262 0.45990
 O86 O -0.08030 -0.01326 0.46904
 O87 O -0.06573 -0.02873 0.53911
 O88 O 0.04877 -0.01825 0.52990
 O89 O -0.00330 0.03360 0.54046
 O90 O -0.01376 -0.08038 0.53052
 Cu91 Cu -0.02462 -0.00621 0.45790
 Cu92 Cu -0.00689 -0.02484 0.54207
 C93 C -0.02297 -0.09201 0.49388
 C94 C -0.00953 0.06065 0.50730
 C95 C 0.06051 -0.00920 0.49319
 C96 C -0.09232 -0.02288 0.50554
 C97 C -0.34920 0.55065 1.00563
 C98 C -0.31329 0.54328 1.00641
 C99 C -0.27046 0.53479 1.00655
 C100 C -0.25525 0.53514 0.96791
 C101 C -0.21336 0.52781 0.96788
 C102 C -0.18651 0.52005 1.00650
 C103 C -0.20182 0.51939 1.04515
 C104 C -0.24371 0.52673 1.04518
 C105 C -0.14289 0.51412 1.00655
 C106 C -0.10603 0.50997 1.00724
 H107 H -0.27565 0.54138 0.93784
 H108 H -0.20182 0.52855 0.93780
 H109 H -0.18129 0.51358 1.07520
 H110 H -0.25512 0.52642 1.07524
 C111 C 0.38307 0.47573 1.01950
 C112 C 0.34771 0.47969 1.02511
 C113 C 0.30466 0.48333 1.02989
 C114 C 0.28859 0.52233 1.01666
 C115 C 0.24563 0.52488 1.01767
 C116 C 0.21858 0.48843 1.03187
 C117 C 0.23484 0.44962 1.04588
 C118 C 0.27780 0.44707 1.04487
 C119 C 0.17384 0.49046 1.03011
 C120 C 0.13628 0.49239 1.02764
 H121 H 0.30900 0.55046 1.00469
 H122 H 0.23333 0.55500 1.00660
 H123 H 0.21416 0.42122 1.05675
 H124 H 0.28983 0.41668 1.05484
 C125 C -0.01898 -0.38330 0.47223
 C126 C -0.02433 -0.34777 0.47605
 C127 C -0.02885 -0.30460 0.47967
 C128 C -0.01817 -0.28980 0.51923
 C129 C -0.01911 -0.24687 0.52206
 C130 C -0.03068 -0.21857 0.48532
 C131 C -0.04210 -0.23354 0.44588
 C132 C -0.04116 -0.27647 0.44306
 C133 C -0.02899 -0.17393 0.48787
 C134 C -0.02666 -0.13648 0.49032
 H135 H -0.00829 -0.31121 0.54768
 H136 H -0.01006 -0.23558 0.55269
 H137 H -0.05093 -0.21189 0.41726
 H138 H -0.04917 -0.28752 0.41225
 C139 C -0.00674 0.34817 0.55123
 C140 C -0.00773 0.31198 0.54470
 C141 C -0.00812 0.26877 0.53732
 C142 C -0.00493 0.26020 0.49658
 C143 C -0.00453 0.21823 0.48971
 C144 C -0.00726 0.18469 0.52358
 C145 C -0.01049 0.19329 0.56428
 C146 C -0.01090 0.23521 0.57114
 C147 C -0.00725 0.14137 0.51673
 C148 C -0.00782 0.10473 0.51188
 H149 H -0.00265 0.28592 0.47021
 H150 H -0.00210 0.21195 0.45809
 H151 H -0.01270 0.16761 0.59068
 H152 H -0.01326 0.24147 0.60279
 C153 C 0.52676 0.01910 -0.38295
 C154 C 0.52289 0.02467 -0.34764
 C155 C 0.51925 0.02938 -0.30465
 C156 C 0.47994 0.01782 -0.28936
 C157 C 0.47723 0.01875 -0.24649
 C158 C 0.51382 0.03118 -0.21877
 C159 C 0.55297 0.04353 -0.23425
 C160 C 0.55567 0.04261 -0.27712
 C161 C 0.51152 0.02931 -0.17414
 C162 C 0.50933 0.02679 -0.13667
 H163 H 0.45166 0.00722 -0.31031
 H164 H 0.44684 0.00897 -0.23478
 H165 H 0.58147 0.05302 -0.21303
 H166 H 0.58629 0.05128 -0.28856
 C167 C 0.44956 0.00495 0.34753
 C168 C 0.45662 0.00575 0.31161
 C169 C 0.46489 0.00593 0.26881
 C170 C 0.46410 -0.03275 0.25346
 C171 C 0.47144 -0.03272 0.21166
 C172 C 0.47965 0.00599 0.18504
 C173 C 0.48070 0.04467 0.20048
 C174 C 0.47335 0.04464 0.24228
 C175 C 0.48574 0.00612 0.14156
 C176 C 0.49009 0.00684 0.10482
 H177 H 0.45757 -0.06287 0.27370
 H178 H 0.47041 -0.06281 0.20002
 H179 H 0.48687 0.07479 0.18011
 H180 H 0.47402 0.07473 0.25380
 C181 C 0.55220 -0.34889 -0.00588
 C182 C 0.54555 -0.31273 -0.00648
 C183 C 0.53807 -0.26959 -0.00633
 C184 C 0.56972 -0.24116 0.01353
 C185 C 0.56257 -0.19928 0.01396
 C186 C 0.52370 -0.18561 -0.00542
 C187 C 0.49197 -0.21406 -0.02520
 C188 C 0.49912 -0.25599 -0.02562
 C189 C 0.51701 -0.14209 -0.00595
 C190 C 0.51228 -0.10531 -0.00690
 H191 H 0.59992 -0.25135 0.02861
 H192 H 0.58739 -0.17752 0.02921
 H193 H 0.46185 -0.20379 -0.04043
 H194 H 0.47439 -0.27773 -0.04101
 C195 C 0.47396 0.38358 -0.01979
 C196 C 0.47771 0.34810 -0.02524
 C197 C 0.48124 0.30493 -0.02981
 C198 C 0.52073 0.28956 -0.01900
 C199 C 0.52345 0.24657 -0.01985
 C200 C 0.48669 0.21880 -0.03146
 C201 C 0.44733 0.23434 -0.04303
 C202 C 0.44461 0.27733 -0.04219
 C203 C 0.48911 0.17407 -0.02959
 C204 C 0.49145 0.13655 -0.02708
 H205 H 0.54918 0.31056 -0.00906
 H206 H 0.55402 0.23483 -0.01068
 H207 H 0.41869 0.21310 -0.05189
 H208 H 0.41386 0.28882 -0.05028
 C209 C -0.38367 -0.01924 0.52608
 C210 C -0.34822 -0.02467 0.52217
 C211 C -0.30509 -0.02922 0.51855
 C212 C -0.28970 -0.01692 0.47932
 C213 C -0.24674 -0.01779 0.47666
 C214 C -0.21902 -0.03090 0.51323
 C215 C -0.23458 -0.04395 0.55230
 C216 C -0.27754 -0.04309 0.55496
 C217 C -0.17433 -0.02911 0.51097
 C218 C -0.13685 -0.02668 0.50878
 H219 H -0.31065 -0.00582 0.45105
 H220 H -0.23499 -0.00747 0.44632
 H221 H -0.21338 -0.05398 0.58080
 H222 H -0.28904 -0.05234 0.58552
 C223 C 0.34776 -0.00738 0.44948
 C224 C 0.31168 -0.00811 0.45615
 C225 C 0.26853 -0.00816 0.46350
 C226 C 0.25902 -0.01129 0.50512
 C227 C 0.21712 -0.01068 0.51203
 C228 C 0.18460 -0.00686 0.47733
 C229 C 0.19416 -0.00372 0.43575
 C230 C 0.23600 -0.00433 0.42886
 C231 C 0.14128 -0.00688 0.48415
 C232 C 0.10462 -0.00747 0.48887
 H233 H 0.28395 -0.01415 0.53214
 H234 H 0.21008 -0.01324 0.54432
 H235 H 0.16926 -0.00086 0.40869
 H236 H 0.24300 -0.00178 0.39654
 C237 C 0.01720 0.52635 1.38344
 C238 C 0.02243 0.52220 1.34806
 C239 C 0.02687 0.51837 1.30500
 C240 C 0.01338 0.47944 1.28938
 C241 C 0.01434 0.47670 1.24651
 C242 C 0.02874 0.51289 1.21909
 C243 C 0.04292 0.55164 1.23488
 C244 C 0.04196 0.55438 1.27775
 C245 C 0.02723 0.51064 1.17446
 C246 C 0.02508 0.50851 1.13701
 H247 H 0.00134 0.45149 1.31009
 H248 H 0.00316 0.44662 1.23458
 H249 H 0.05396 0.57986 1.21393
 H250 H 0.05215 0.58472 1.28943
 C251 C 0.00680 0.45081 0.65234
 C252 C 0.00792 0.45759 0.68841
 C253 C 0.00849 0.46506 0.73157
 C254 C 0.02050 0.43408 0.76573
 C255 C 0.02008 0.44074 0.80765
 C256 C 0.00761 0.47838 0.81566
 C257 C -0.00428 0.50946 0.78151
 C258 C -0.00386 0.50280 0.73955
 C259 C 0.00722 0.48489 0.85896
 C260 C 0.00752 0.48940 0.89560
 H261 H 0.02998 0.40474 0.75996
 H262 H 0.02937 0.41650 0.83378
 H263 H -0.01394 0.53870 0.78732
 H264 H -0.01334 0.52692 0.71338
   
