data_POSCAR
  _audit_creation_date              2014-09-24
  _audit_creation_method            'ToBaCCo'
  _symmetry_space_group_name_H-M    'P1'
  _symmetry_Int_Tables_number       1
  _symmetry_cell_setting            triclinic
  loop_
  _symmetry_equiv_pos_as_xyz
 x,y,z
_cell_length_a 47.7564
_cell_length_b 49.2921
_cell_length_c 45.6367
_cell_angle_alpha 91.706700
_cell_angle_beta 89.912900
_cell_angle_gamma 92.681200
loop_
  _atom_site_label
  _atom_site_type_symbol
  _atom_site_fract_x
  _atom_site_fract_y
  _atom_site_fract_z
C1 C 0.26986 0.45726 0.99337
 C2 C 0.25048 0.45624 1.02019
 C3 C 0.23442 0.47835 1.02320
 C4 C 0.23913 0.49943 0.99927
 C5 C 0.25044 0.46090 0.96721
 C6 C 0.23436 0.48297 0.97038
 C7 C 0.28689 0.48421 0.99689
 C8 C 0.27086 0.50621 1.00000
 H9 H 0.24929 0.43948 1.03514
 H10 H 0.22608 0.51745 1.00176
 H11 H 0.24894 0.44691 0.94837
 H12 H 0.30967 0.48575 0.99726
 C13 C 0.73143 0.54320 0.00748
 C14 C 0.75046 0.53963 0.03397
 C15 C 0.76650 0.51749 0.03118
 C16 C 0.76210 0.50094 0.00229
 C17 C 0.75118 0.54407 -0.01904
 C18 C 0.76722 0.52192 -0.02167
 C19 C 0.71438 0.51627 0.00384
 C20 C 0.73037 0.49422 0.00113
 H21 H 0.75173 0.55369 0.05277
 H22 H 0.77513 0.48288 0.00009
 H23 H 0.75265 0.56078 -0.03405
 H24 H 0.69160 0.51476 0.00336
 C25 C 0.03944 0.22470 0.50168
 C26 C 0.03763 0.24096 0.47575
 C27 C 0.01321 0.25674 0.47538
 C28 C -0.00493 0.25336 0.50086
 C29 C 0.03780 0.24491 0.52786
 C30 C 0.01448 0.25997 0.52734
 C31 C 0.01190 0.20753 0.50261
 C32 C -0.01133 0.22250 0.50219
 H33 H 0.05424 0.24285 0.45953
 H34 H -0.02402 0.26545 0.50058
 H35 H 0.05419 0.24807 0.54426
 H36 H 0.01085 0.18548 0.50331
 C37 C 0.95952 0.77577 0.49704
 C38 C 0.96148 0.75553 0.47099
 C39 C 0.98488 0.74063 0.47168
 C40 C 1.00417 0.74736 0.49813
 C41 C 0.96140 0.75851 0.52433
 C42 C 0.98478 0.74359 0.52479
 C43 C 0.98695 0.79300 0.49655
 C44 C 1.01025 0.77822 0.49711
 H45 H 0.94517 0.75217 0.45454
 H46 H 1.02330 0.73536 0.49859
 H47 H 0.94493 0.75685 0.54072
 H48 H 0.98788 0.81505 0.49577
 C49 C 0.50140 0.04519 0.21759
 C50 C 0.47571 0.04443 0.23791
 C51 C 0.47478 0.02272 0.25587
 C52 C 0.49945 0.00393 0.25188
 C53 C 0.52671 0.04479 0.23827
 C54 C 0.52559 0.02310 0.25624
 C55 C 0.50045 0.01912 0.20191
 C56 C 0.49937 -0.00347 0.22079
 H57 H 0.45998 0.05966 0.23828
 H58 H 0.49863 -0.01370 0.26658
 H59 H 0.54364 0.06031 0.23893
 H60 H 0.50032 0.01684 0.17813
 C61 C 0.49794 -0.04671 0.78062
 C62 C 0.47227 -0.04615 0.76055
 C63 C 0.47308 -0.02451 0.74258
 C64 C 0.49931 -0.00544 0.74620
 C65 C 0.52329 -0.04583 0.75995
 C66 C 0.52391 -0.02418 0.74198
 C67 C 0.49924 -0.01913 0.79707
 C68 C 0.49995 0.00240 0.77901
 H69 H 0.45525 -0.06158 0.76029
 H70 H 0.49989 0.01218 0.73153
 H71 H 0.53914 -0.06094 0.75945
 H72 H 0.49966 -0.01683 0.82083
 C73 C 0.29475 0.01766 0.46649
 H74 H 0.29574 0.03256 0.48439
 C75 C 0.31419 0.01940 0.44371
 H76 H 0.33016 0.03576 0.44395
 C77 C 0.27315 -0.02229 0.44465
 H78 H 0.25747 -0.03876 0.44540
 C79 C 0.29225 -0.02130 0.42140
 H80 H 0.29107 -0.03688 0.40414
 N81 N 0.27465 -0.00283 0.46647
 C82 C 0.20963 0.02928 0.52318
 H83 H 0.20794 0.01382 0.53951
 C84 C 0.19229 0.05135 0.52479
 H85 H 0.17720 0.05295 0.54243
 C86 C 0.23083 0.04582 0.47977
 H87 H 0.24545 0.04337 0.46193
 C88 C 0.21389 0.06818 0.48057
 H89 H 0.21571 0.08296 0.46348
 Zn90 Zn 0.25071 -0.00391 0.49947
 N91 N 0.22858 0.02703 0.50103
 C92 C 0.27427 0.01503 0.55431
 N93 N 0.27432 -0.00455 0.53262
 C94 C 0.29283 -0.02470 0.53279
 C95 C 0.31208 -0.02594 0.55559
 C96 C 0.29324 0.01454 0.57758
 C97 C 0.20717 -0.03767 0.47549
 C98 C 0.18792 -0.05989 0.47379
 C99 C 0.20781 -0.07660 0.51806
 C100 C 0.22670 -0.05408 0.51894
 N101 N 0.22616 -0.03525 0.49773
 H102 H 0.25988 0.03125 0.55340
 H103 H 0.29273 -0.03969 0.51498
 H104 H 0.32681 -0.04201 0.55547
 H105 H 0.29325 0.03024 0.59470
 H106 H 0.20689 -0.02218 0.45920
 H107 H 0.17273 -0.06156 0.45615
 H108 H 0.20819 -0.09135 0.53517
 H109 H 0.24143 -0.05149 0.53684
 C110 C 0.19447 0.07097 0.50327
 C111 C 0.31295 -0.00027 0.42100
 C112 C 0.18824 -0.07951 0.49531
 C113 C 0.31234 -0.00612 0.57813
 C114 C 0.70632 0.02343 0.53586
 H115 H 0.70615 0.03949 0.52022
 C116 C 0.68687 0.02275 0.55873
 H117 H 0.67174 0.03839 0.56086
 C118 C 0.72545 -0.01727 0.55154
 H119 H 0.73999 -0.03320 0.54825
 C120 C 0.70636 -0.01871 0.57472
 H121 H 0.70647 -0.03560 0.58937
 N122 N 0.72511 0.00363 0.53271
 C123 C 0.79213 0.03849 0.47847
 H124 H 0.79252 0.02310 0.46109
 C125 C 0.81122 0.06081 0.47827
 H126 H 0.82642 0.06264 0.46070
 C127 C 0.77231 0.05462 0.52300
 H128 H 0.75743 0.05191 0.54064
 C129 C 0.79108 0.07727 0.52365
 H130 H 0.79051 0.09201 0.54171
 Zn131 Zn 0.74858 0.00452 0.49931
 N132 N 0.77305 0.03590 0.50049
 C133 C 0.72614 0.02539 0.44728
 N134 N 0.72462 0.00467 0.46638
 C135 C 0.70445 -0.01568 0.46375
 C136 C 0.68484 -0.01583 0.44109
 C137 C 0.70693 0.02602 0.42429
 C138 C 0.79017 -0.02845 0.51930
 C139 C 0.80743 -0.05055 0.51931
 C140 C 0.78528 -0.06749 0.47438
 C141 C 0.76840 -0.04506 0.47521
 N142 N 0.77093 -0.02625 0.49764
 H143 H 0.74182 0.04175 0.45016
 H144 H 0.70339 -0.03160 0.47959
 H145 H 0.66867 -0.03196 0.43932
 H146 H 0.70805 0.04272 0.40937
 H147 H 0.79200 -0.01300 0.53663
 H148 H 0.82264 -0.05217 0.53668
 H149 H 0.78316 -0.08238 0.45649
 H150 H 0.75346 -0.04266 0.45786
 C151 C 0.81069 0.08038 0.50106
 C152 C 0.68681 0.00139 0.57822
 C153 C 0.80490 -0.07027 0.49668
 C154 C 0.68604 0.00528 0.42128
 C155 C 0.48953 0.21631 1.00974
 H156 H 0.47402 0.21419 0.99247
 C157 C 0.48845 0.19851 1.03294
 H158 H 0.47203 0.18261 1.03364
 C159 C 0.53033 0.23921 1.02961
 H160 H 0.54691 0.25474 1.02795
 C161 C 0.53002 0.22179 1.05323
 H162 H 0.54623 0.22409 1.06982
 N163 N 0.51010 0.23630 1.00861
 C164 C 0.47448 0.29643 0.95320
 H165 H 0.49011 0.29796 0.93607
 C166 C 0.45122 0.31260 0.95273
 H167 H 0.44886 0.32664 0.93518
 C168 C 0.45874 0.27686 0.99751
 H169 H 0.46200 0.26337 1.01526
 C170 C 0.43522 0.29263 0.99786
 H171 H 0.42035 0.29106 1.01576
 Zn172 Zn 0.51027 0.25841 0.97547
 N173 N 0.47770 0.27888 0.97527
 C174 C 0.49010 0.23286 0.92225
 N175 N 0.51121 0.23458 0.94234
 C176 C 0.53250 0.21719 0.94112
 C177 C 0.53299 0.19686 0.91923
 C178 C 0.48977 0.21275 0.89999
 C179 C 0.54312 0.30207 0.99855
 C180 C 0.56574 0.32099 1.00062
 C181 C 0.58506 0.30088 0.95653
 C182 C 0.56205 0.28228 0.95529
 N183 N 0.54182 0.28305 0.97632
 H184 H 0.47298 0.24637 0.92406
 H185 H 0.54866 0.21864 0.95776
 H186 H 0.54963 0.18265 0.91891
 H187 H 0.47250 0.21096 0.88458
 H188 H 0.52655 0.30244 1.01473
 H189 H 0.56662 0.33605 1.01841
 H190 H 0.60107 0.30022 0.93972
 H191 H 0.56033 0.26741 0.93745
 C192 C 0.43144 0.31066 0.97530
 C193 C 0.50888 0.20128 1.05486
 C194 C 0.58692 0.32034 0.97947
 C195 C 0.51126 0.19443 0.89871
 C196 C 0.47050 0.78129 -0.01177
 H197 H 0.45450 0.78242 0.00497
 C198 C 0.47040 0.79874 -0.03529
 H199 H 0.45423 0.81334 -0.03677
 C200 C 0.51171 0.76151 -0.02984
 H201 H 0.52812 0.74743 -0.02731
 C202 C 0.51239 0.77862 -0.05372
 H203 H 0.52917 0.77749 -0.06964
 N204 N 0.49086 0.76305 -0.00956
 C205 C 0.45406 0.70122 0.04714
 H206 H 0.46943 0.70157 0.06456
 C207 C 0.43107 0.68263 0.04749
 H208 H 0.42868 0.66857 0.06522
 C209 C 0.43893 0.71830 0.00206
 H210 H 0.44239 0.73174 -0.01598
 C211 C 0.41568 0.70005 0.00157
 H212 H 0.40124 0.69963 -0.01675
 Zn213 Zn 0.49025 0.74177 0.02425
 N214 N 0.45753 0.71860 0.02467
 C215 C 0.47033 0.76679 0.07709
 N216 N 0.49117 0.76648 0.05670
 C217 C 0.51268 0.78557 0.05730
 C218 C 0.51384 0.80609 0.07901
 C219 C 0.47066 0.78707 0.09921
 C220 C 0.52353 0.70045 0.00289
 C221 C 0.54647 0.68391 0.00156
 C222 C 0.56483 0.70687 0.04547
 C223 C 0.54154 0.72301 0.04598
 N224 N 0.52169 0.71980 0.02461
 H225 H 0.45306 0.75185 0.07578
 H226 H 0.52864 0.78513 0.04046
 H227 H 0.53078 0.82150 0.07898
 H228 H 0.45374 0.78761 0.11502
 H229 H 0.50725 0.69809 -0.01358
 H230 H 0.54791 0.66872 -0.01596
 H231 H 0.58065 0.70964 0.06242
 H232 H 0.53940 0.73803 0.06344
 C233 C 0.41179 0.68199 0.02441
 C234 C 0.49157 0.79742 -0.05638
 C235 C 0.56738 0.68729 0.02295
 C236 C 0.49254 0.80698 0.09999
 C237 C 1.03467 0.46986 0.21423
 H238 H 1.01810 0.45411 0.21361
 C239 C 1.05652 0.46905 0.19394
 H240 H 1.05690 0.45257 0.17772
 C241 C 1.05397 0.51106 0.23552
 H242 H 1.05256 0.52768 0.25134
 C243 C 1.07624 0.51104 0.21556
 H244 H 1.09208 0.52750 0.21626
 N245 N 1.03382 0.49057 0.23455
 C246 C 0.97950 0.45750 0.30330
 H247 H 0.96341 0.47225 0.30413
 C248 C 0.97852 0.43601 0.32266
 H249 H 0.96158 0.43410 0.33838
 C250 C 1.02170 0.44231 0.28239
 H251 H 1.03882 0.44512 0.26713
 C252 C 1.02152 0.42056 0.30134
 H253 H 1.03834 0.40656 0.30037
 Zn254 Zn 1.00188 0.49070 0.25920
 N255 N 1.00079 0.46017 0.28357
 C256 C 0.94953 0.47018 0.23465
 N257 N 0.97039 0.48996 0.23396
 C258 C 0.97036 0.50979 0.21385
 C259 C 0.94852 0.51058 0.19370
 C260 C 0.92722 0.47022 0.21480
 C261 C 1.02342 0.52623 0.30395
 C262 C 1.02410 0.54887 0.32319
 C263 C 0.98137 0.56295 0.30114
 C264 C 0.98148 0.54009 0.28233
 N265 N 1.00244 0.52238 0.28388
 H266 H 0.95025 0.45426 0.25036
 H267 H 0.98743 0.52500 0.21352
 H268 H 0.94867 0.52652 0.17784
 H269 H 0.91065 0.45447 0.21544
 H270 H 1.03956 0.51160 0.30506
 H271 H 1.04084 0.55178 0.33912
 H272 H 0.96456 0.57688 0.29980
 H273 H 0.96460 0.53638 0.26682
 C274 C 0.99977 0.41741 0.32168
 C275 C 1.07743 0.48987 0.19453
 C276 C 1.00286 0.56739 0.32174
 C277 C 0.92675 0.49065 0.19417
 C278 C -0.03430 0.48852 0.78696
 H279 H -0.01891 0.47310 0.78711
 C280 C -0.05595 0.48818 0.80758
 H281 H -0.05736 0.47237 0.82358
 C282 C -0.05073 0.52856 0.76663
 H283 H -0.04827 0.54461 0.75111
 C284 C -0.07270 0.52896 0.78688
 H285 H -0.08724 0.54518 0.78669
 N286 N -0.03213 0.50846 0.76697
 C287 C 0.01901 0.47565 0.69614
 H288 H 0.03522 0.49169 0.69508
 C289 C 0.01951 0.45324 0.67674
 H290 H 0.03619 0.45192 0.66071
 C291 C -0.02268 0.45784 0.71815
 H292 H -0.03927 0.45987 0.73406
 C293 C -0.02297 0.43506 0.69913
 H294 H -0.03964 0.41949 0.70062
 Zn295 Zn -0.00061 0.50873 0.74171
 N296 N -0.00168 0.47741 0.71655
 C297 C 0.04971 0.48902 0.76453
 N298 N 0.03151 0.50947 0.76610
 C299 C 0.03446 0.52984 0.78682
 C300 C 0.05643 0.53018 0.80705
 C301 C 0.07196 0.48861 0.78432
 C302 C -0.02128 0.54057 0.69782
 C303 C -0.02194 0.56218 0.67878
 C304 C 0.02122 0.58084 0.70039
 C305 C 0.02108 0.55885 0.71907
 N306 N -0.00012 0.53940 0.71762
 H307 H 0.04664 0.47263 0.74847
 H308 H 0.01937 0.54554 0.78796
 H309 H 0.05839 0.54626 0.82372
 H310 H 0.08610 0.47204 0.78321
 H311 H -0.03762 0.52462 0.69684
 H312 H -0.03890 0.56296 0.66313
 H313 H 0.03814 0.59625 0.70164
 H314 H 0.03802 0.55726 0.73448
 C315 C -0.00161 0.43271 0.67831
 C316 C -0.07524 0.50865 0.80761
 C317 C -0.00051 0.58251 0.68008
 C318 C 0.07523 0.50927 0.80588
 C319 C 0.11970 0.13721 0.47895
 C320 C 0.09647 0.14130 0.50211
 C321 C 0.10412 0.17195 0.50309
 C322 C 0.12708 0.16816 0.47991
 C323 C 0.14075 0.13372 0.50384
 C324 C 0.14849 0.16436 0.50482
 C325 C 0.11778 0.13754 0.52699
 C326 C 0.12515 0.16850 0.52800
 C327 C 0.08266 0.19223 0.50259
 C328 C 0.06384 0.20767 0.50215
 C329 C 0.16047 0.11182 0.50402
 C330 C 0.17617 0.09336 0.50387
 H331 H 0.11764 0.12409 0.45880
 H332 H 0.07485 0.13202 0.50097
 H333 H 0.13069 0.18099 0.46056
 H334 H 0.17013 0.17358 0.50596
 H335 H 0.11413 0.12471 0.54634
 H336 H 0.12717 0.18163 0.54815
 C337 C 0.63915 0.61868 -0.00769
 C338 C 0.67083 0.62694 -0.00653
 C339 C 0.67514 0.60403 0.01487
 C340 C 0.64377 0.59552 0.01365
 C341 C 0.63428 0.63793 0.01872
 C342 C 0.63861 0.61501 0.04010
 C343 C 0.66562 0.64653 0.01996
 C344 C 0.67031 0.62326 0.04132
 C345 C 0.69679 0.58402 0.01249
 C346 C 0.71327 0.56630 0.01033
 C347 C 0.61090 0.65609 0.02059
 C348 C 0.59122 0.67050 0.02183
 H349 H 0.62607 0.61696 -0.02781
 H350 H 0.68435 0.63163 -0.02570
 H351 H 0.63502 0.57432 0.01102
 H352 H 0.62511 0.61028 0.05927
 H353 H 0.67431 0.66775 0.02258
 H354 H 0.68341 0.62493 0.06142
 C355 C 0.87765 -0.14014 0.47008
 C356 C 0.90214 -0.14142 0.49208
 C357 C 0.89462 -0.17177 0.49590
 C358 C 0.87042 -0.17081 0.47388
 C359 C 0.85801 -0.13352 0.49574
 C360 C 0.85040 -0.16385 0.49956
 C361 C 0.88223 -0.13453 0.51773
 C362 C 0.87499 -0.16517 0.52157
 C363 C 0.91612 -0.19201 0.49614
 C364 C 0.93502 -0.20737 0.49648
 C365 C 0.83838 -0.11153 0.49583
 C366 C 0.82287 -0.09293 0.49611
 H367 H 0.87856 -0.12960 0.44892
 H368 H 0.92364 -0.13240 0.48901
 H369 H 0.86578 -0.18599 0.45587
 H370 H 0.82888 -0.17281 0.50264
 H371 H 0.88692 -0.11937 0.53575
 H372 H 0.87411 -0.17571 0.54274
 C373 C 0.34558 0.36333 1.00582
 C374 C 0.35007 0.39464 1.00599
 C375 C 0.32554 0.39599 0.98441
 C376 C 0.32068 0.36497 0.98426
 C377 C 0.36564 0.36133 0.97957
 C378 C 0.34114 0.36263 0.95794
 C379 C 0.37041 0.39237 0.97973
 C380 C 0.34561 0.39399 0.95816
 C381 C 0.30424 0.41631 0.98739
 C382 C 0.28795 0.43415 0.99004
 C383 C 0.38860 0.34271 0.97734
 C384 C 0.40796 0.32790 0.97608
 H385 H 0.34585 0.35051 1.02540
 H386 H 0.35349 0.40800 1.02580
 H387 H 0.29998 0.35395 0.98617
 H388 H 0.33776 0.34926 0.93814
 H389 H 0.39108 0.40345 0.97783
 H390 H 0.34536 0.40681 0.93858
 C391 C 0.89368 0.14544 0.52670
 C392 C 0.91675 0.14712 0.50296
 C393 C 0.91404 0.17806 0.50249
 C394 C 0.89126 0.17667 0.52628
 C395 C 0.87148 0.14216 0.50237
 C396 C 0.86862 0.17308 0.50191
 C397 C 0.89429 0.14360 0.47863
 C398 C 0.89187 0.17481 0.47813
 C399 C 0.93909 0.19639 0.50246
 C400 C 0.96103 0.20949 0.50237
 C401 C 0.84880 0.12108 0.50214
 C402 C 0.83103 0.10287 0.50176
 H403 H 0.89422 0.13314 0.54666
 H404 H 0.93679 0.13659 0.50338
 H405 H 0.89027 0.19051 0.54586
 H406 H 0.84852 0.18349 0.50148
 H407 H 0.89535 0.12977 0.45905
 H408 H 0.89138 0.18711 0.45817
 C409 C 0.31817 0.62325 0.01514
 C410 C 0.31842 0.60183 -0.01048
 C411 C 0.31450 0.57919 0.01177
 C412 C 0.31391 0.60013 0.03735
 C413 C 0.35006 0.62133 0.01819
 C414 C 0.34613 0.59867 0.04042
 C415 C 0.35058 0.60034 -0.00735
 C416 C 0.34640 0.57742 0.01482
 C417 C 0.29643 0.55454 0.00783
 C418 C 0.28358 0.53308 0.00434
 C419 C 0.37104 0.64387 0.02120
 C420 C 0.38923 0.66161 0.02303
 H421 H 0.30682 0.64240 0.01533
 H422 H 0.30679 0.60288 -0.03144
 H423 H 0.29858 0.59978 0.05566
 H424 H 0.35776 0.59759 0.06136
 H425 H 0.36588 0.60062 -0.02568
 H426 H 0.35786 0.55832 0.01464
 C427 C 0.10365 -0.14340 0.47188
 C428 C 0.10614 -0.17464 0.47079
 C429 C 0.08460 -0.17692 0.49574
 C430 C 0.08181 -0.14596 0.49679
 C431 C 0.12705 -0.14092 0.49499
 C432 C 0.10547 -0.14325 0.51991
 C433 C 0.12998 -0.17186 0.49394
 C434 C 0.10797 -0.17448 0.51890
 C435 C 0.05965 -0.19536 0.49623
 C436 C 0.03780 -0.20859 0.49665
 C437 C 0.14974 -0.11986 0.49478
 C438 C 0.16762 -0.10177 0.49486
 H439 H 0.10207 -0.13039 0.45256
 H440 H 0.10616 -0.18779 0.45062
 H441 H 0.06175 -0.13546 0.49798
 H442 H 0.10539 -0.13010 0.54008
 H443 H 0.15009 -0.18225 0.49275
 H444 H 0.10949 -0.18750 0.53821
 C445 C 0.65060 0.40049 1.01123
 C446 C 0.68282 0.39857 1.01298
 C447 C 0.68618 0.42143 0.99093
 C448 C 0.65422 0.42363 0.98925
 C449 C 0.64990 0.37977 0.98538
 C450 C 0.65329 0.40266 0.96336
 C451 C 0.68184 0.37743 0.98705
 C452 C 0.68555 0.40077 0.96504
 C453 C 0.70457 0.44592 0.99431
 C454 C 0.71759 0.46733 0.99733
 C455 C 0.62850 0.35759 0.98272
 C456 C 0.60993 0.34022 0.98098
 H457 H 0.63599 0.40018 1.03017
 H458 H 0.69520 0.39714 1.03340
 H459 H 0.64302 0.44287 0.99019
 H460 H 0.64090 0.40414 0.94295
 H461 H 0.69292 0.35812 0.98610
 H462 H 0.70017 0.40114 0.94611
 C463 C 0.50586 0.15164 1.15346
 C464 C 0.48232 0.12906 1.15595
 C465 C 0.50479 0.10815 1.15977
 C466 C 0.52831 0.13035 1.15766
 C467 C 0.50690 0.14587 1.12022
 C468 C 0.52935 0.12495 1.12406
 C469 C 0.48340 0.12365 1.12237
 C470 C 0.50583 0.10244 1.12652
 C471 C 0.50356 0.08656 1.18110
 C472 C 0.50256 0.06820 1.19794
 C473 C 0.50790 0.16629 1.09759
 C474 C 0.50849 0.18253 1.07838
 H475 H 0.50589 0.17213 1.16424
 H476 H 0.46298 0.13049 1.16932
 H477 H 0.54675 0.13284 1.17244
 H478 H 0.54870 0.12349 1.11070
 H479 H 0.46496 0.12113 1.10760
 H480 H 0.50580 0.08197 1.11569
 C481 C -0.01907 0.67111 0.62832
 C482 C 0.00619 0.68818 0.61615
 C483 C -0.00626 0.68436 0.58520
 C484 C -0.03154 0.66763 0.59706
 C485 C -0.00286 0.64523 0.62285
 C486 C -0.01531 0.64145 0.59189
 C487 C 0.02244 0.66194 0.61102
 C488 C 0.00995 0.65848 0.57972
 C489 C -0.00873 0.70587 0.56398
 C490 C -0.01136 0.72324 0.54627
 C491 C -0.00147 0.62317 0.64359
 C492 C -0.00080 0.60477 0.66037
 H493 H -0.03100 0.67607 0.64853
 H494 H 0.01502 0.70763 0.62589
 H495 H -0.05377 0.67019 0.59109
 H496 H -0.02415 0.62201 0.58212
 H497 H 0.04466 0.65935 0.61700
 H498 H 0.02186 0.65352 0.55951
 C499 C 0.47203 0.87416 -0.12483
 C500 C 0.49587 0.89621 -0.12816
 C501 C 0.49568 0.89046 -0.16142
 C502 C 0.47183 0.86871 -0.15843
 C503 C 0.49416 0.85277 -0.12183
 C504 C 0.49396 0.84696 -0.15509
 C505 C 0.51799 0.87454 -0.12484
 C506 C 0.51782 0.86909 -0.15845
 C507 C 0.49650 0.91202 -0.18279
 C508 C 0.49716 0.93034 -0.19968
 C509 C 0.49328 0.83236 -0.09917
 C510 C 0.49252 0.81614 -0.07995
 H511 H 0.45320 0.87601 -0.11075
 H512 H 0.49667 0.91670 -0.11732
 H513 H 0.45287 0.86657 -0.17251
 H514 H 0.49316 0.82646 -0.16588
 H515 H 0.53695 0.87671 -0.11077
 H516 H 0.53665 0.86727 -0.17254
 C517 C 1.00346 0.32513 0.37105
 C518 C 1.02726 0.32279 0.39373
 C519 C 1.00515 0.31601 0.41723
 C520 C 0.98136 0.31801 0.39487
 C521 C 1.00176 0.35535 0.37982
 C522 C 0.97964 0.34859 0.40331
 C523 C 1.02553 0.35332 0.40219
 C524 C 1.00345 0.34623 0.42599
 C525 C 1.00754 0.29425 0.43818
 C526 C 1.00998 0.27654 0.45554
 C527 C 1.00040 0.37738 0.35903
 C528 C 0.99981 0.39558 0.34198
 H529 H 1.00345 0.31668 0.34823
 H530 H 1.04687 0.31196 0.39001
 H531 H 0.96322 0.30324 0.39209
 H532 H 0.96003 0.35944 0.40703
 H533 H 1.04369 0.36807 0.40500
 H534 H 1.00348 0.35468 0.44882
 C535 C 0.47075 0.89553 0.15356
 C536 C 0.47206 0.89888 0.18741
 C537 C 0.49541 0.92112 0.18427
 C538 C 0.49408 0.91813 0.15069
 C539 C 0.49337 0.87444 0.15475
 C540 C 0.51668 0.89673 0.15166
 C541 C 0.49470 0.87731 0.18834
 C542 C 0.51805 0.90005 0.18548
 C543 C 0.49673 0.94782 0.19920
 C544 C 0.49794 0.97043 0.21001
 C545 C 0.49258 0.84928 0.13686
 C546 C 0.49233 0.82948 0.12074
 H547 H 0.45129 0.89340 0.14026
 H548 H 0.45375 0.90009 0.20232
 H549 H 0.49384 0.93519 0.13535
 H550 H 0.53501 0.89559 0.13676
 H551 H 0.49494 0.86020 0.20359
 H552 H 0.53751 0.90223 0.19878
 C553 C -0.01987 0.35881 0.59712
 C554 C 0.00497 0.35407 0.57598
 C555 C 0.00494 0.32436 0.58527
 C556 C -0.01987 0.32872 0.60609
 C557 C 0.00117 0.36635 0.62181
 C558 C 0.00113 0.33664 0.63111
 C559 C 0.02596 0.36196 0.60098
 C560 C 0.02596 0.33192 0.60997
 C561 C 0.00762 0.30115 0.56480
 C562 C 0.01042 0.28226 0.54783
 C563 C -0.00041 0.38987 0.64208
 C564 C -0.00121 0.40934 0.65865
 H565 H -0.03874 0.37013 0.59205
 H566 H 0.00657 0.36099 0.55309
 H567 H -0.03869 0.31478 0.60796
 H568 H -0.00046 0.32973 0.65401
 H569 H 0.04479 0.37587 0.59908
 H570 H 0.04484 0.32062 0.61505
 C571 C 0.52788 0.10383 0.84831
 C572 C 0.50294 0.08272 0.84932
 C573 C 0.50426 0.07941 0.81577
 C574 C 0.52922 0.10018 0.81452
 C575 C 0.50706 0.12634 0.84481
 C576 C 0.50840 0.12315 0.81125
 C577 C 0.48214 0.10555 0.84602
 C578 C 0.48341 0.10189 0.81222
 C579 C 0.50271 0.05262 0.80103
 C580 C 0.50144 0.02999 0.79030
 C581 C 0.50861 0.15168 0.86239
 C582 C 0.50984 0.17167 0.87825
 H583 H 0.54618 0.10489 0.86334
 H584 H 0.50068 0.06583 0.86483
 H585 H 0.54855 0.09765 0.80138
 H586 H 0.51066 0.14010 0.79582
 H587 H 0.46279 0.10803 0.85916
 H588 H 0.46511 0.10077 0.79719
 C589 C 1.01979 0.64083 0.40410
 C590 C 1.02093 0.67091 0.39496
 C591 C 0.99529 0.67587 0.41443
 C592 C 0.99411 0.64618 0.42389
 C593 C 0.99980 0.63363 0.37838
 C594 C 0.97418 0.63863 0.39788
 C595 C 1.00098 0.66332 0.36892
 C596 C 0.97532 0.66864 0.38871
 C597 C 0.99221 0.69924 0.43461
 C598 C 0.98913 0.71824 0.45137
 C599 C 1.00169 0.61002 0.35827
 C600 C 1.00258 0.59059 0.34167
 H601 H 1.03809 0.62913 0.41021
 H602 H 1.04013 0.68446 0.39398
 H603 H 0.99125 0.63938 0.44672
 H604 H 0.95497 0.62510 0.39888
 H605 H 1.00384 0.67011 0.34609
 H606 H 0.95701 0.68033 0.38259
 C607 C 1.16984 0.48265 0.13634
 C608 C 1.16853 0.46200 0.11005
 C609 C 1.17649 0.48520 0.08941
 C610 C 1.17814 0.50584 0.11533
 C611 C 1.13881 0.48807 0.13138
 C612 C 1.14675 0.51128 0.11075
 C613 C 1.13720 0.46745 0.10545
 C614 C 1.14545 0.49062 0.08448
 C615 C 1.19728 0.48320 0.06589
 C616 C 1.21424 0.48117 0.04646
 C617 C 1.11746 0.48924 0.15444
 C618 C 1.09947 0.48977 0.17298
 H619 H 1.17964 0.47939 0.15791
 H620 H 1.17770 0.44171 0.10950
 H621 H 1.19521 0.52161 0.11912
 H622 H 1.13757 0.53157 0.11131
 H623 H 1.12014 0.45166 0.10163
 H624 H 1.13565 0.49387 0.06290
 C625 C 0.60501 -0.03037 0.64232
 C626 C 0.60981 -0.03194 0.67576
 C627 C 0.58624 -0.01219 0.68100
 C628 C 0.58111 -0.01067 0.64789
 C629 C 0.62608 -0.00587 0.64163
 C630 C 0.60251 0.01389 0.64686
 C631 C 0.63123 -0.00738 0.67474
 C632 C 0.60730 0.01232 0.68035
 C633 C 0.56401 -0.01607 0.70280
 C634 C 0.54572 -0.01961 0.72066
 C635 C 0.64807 -0.00277 0.61943
 C636 C 0.66590 -0.00064 0.60084
 H637 H 0.60431 -0.04789 0.62644
 H638 H 0.61256 -0.05082 0.68788
 H639 H 0.56025 -0.01207 0.63709
 H640 H 0.59978 0.03277 0.63473
 H641 H 0.65209 -0.00599 0.68553
 H642 H 0.60796 0.02983 0.69624
 C643 C -0.16776 0.51257 0.86586
 C644 C -0.17293 0.49146 0.89003
 C645 C -0.17401 0.51484 0.91297
 C646 C -0.16917 0.53597 0.88917
 C647 C -0.13607 0.51174 0.87129
 C648 C -0.13717 0.53511 0.89425
 C649 C -0.14090 0.49061 0.89508
 C650 C -0.14232 0.51401 0.91839
 C651 C -0.19503 0.51692 0.93626
 C652 C -0.21225 0.51900 0.95543
 C653 C -0.11472 0.51032 0.84826
 C654 C -0.09689 0.50942 0.82957
 H655 H -0.17798 0.51196 0.84401
 H656 H -0.18787 0.47353 0.88856
 H657 H -0.18102 0.55464 0.88700
 H658 H -0.12225 0.55305 0.89574
 H659 H -0.12904 0.47193 0.89725
 H660 H -0.13209 0.51463 0.94024
 C661 C 0.36739 0.01120 0.32404
 C662 C 0.39173 0.03312 0.32537
 C663 C 0.41231 0.01120 0.31677
 C664 C 0.38833 -0.01068 0.31508
 C665 C 0.37264 0.00538 0.35640
 C666 C 0.39321 -0.01656 0.34782
 C667 C 0.39664 0.02724 0.35805
 C668 C 0.41753 0.00537 0.34913
 C669 C 0.43452 0.01488 0.29493
 C670 C 0.45285 0.01829 0.27709
 C671 C 0.35086 0.00267 0.37887
 C672 C 0.33333 0.00102 0.39781
 H673 H 0.34653 0.01355 0.31399
 H674 H 0.39138 0.05358 0.31590
 H675 H 0.38519 -0.02624 0.29715
 H676 H 0.39354 -0.03702 0.35730
 H677 H 0.39981 0.04281 0.37597
 H678 H 0.43839 0.00303 0.35920
 C679 C 0.16821 0.50524 0.86260
 C680 C 0.17244 0.52335 0.89077
 C681 C 0.17480 0.49761 0.90862
 C682 C 0.17091 0.47948 0.88081
 C683 C 0.13648 0.50386 0.86832
 C684 C 0.13888 0.47815 0.88621
 C685 C 0.14033 0.52202 0.89612
 C686 C 0.14306 0.49623 0.91433
 C687 C 0.19607 0.49335 0.93092
 C688 C 0.21353 0.48905 0.94904
 C689 C 0.11494 0.50662 0.84590
 C690 C 0.09699 0.50819 0.82756
 H691 H 0.17833 0.50898 0.84109
 H692 H 0.18648 0.54189 0.89291
 H693 H 0.18370 0.46193 0.87475
 H694 H 0.12486 0.45959 0.88410
 H695 H 0.12752 0.53955 0.90215
 H696 H 0.13294 0.49248 0.93584
 C697 C 0.61261 -0.01468 0.33956
 C698 C 0.58322 -0.00359 0.34547
 C699 C 0.58648 0.01356 0.31802
 C700 C 0.61551 0.00252 0.31173
 C701 C 0.62575 0.00937 0.35773
 C702 C 0.62900 0.02652 0.33026
 C703 C 0.59672 0.02041 0.36399
 C704 C 0.59965 0.03758 0.33620
 C705 C 0.56465 0.01637 0.29599
 C706 C 0.54679 0.01918 0.27788
 C707 C 0.64750 0.00747 0.38004
 C708 C 0.66520 0.00628 0.39867
 H709 H 0.61821 -0.03618 0.34120
 H710 H 0.56414 -0.01593 0.35147
 H711 H 0.62298 -0.00481 0.28998
 H712 H 0.64807 0.03887 0.32426
 H713 H 0.58924 0.02775 0.38573
 H714 H 0.59407 0.05910 0.33458
 C715 C 0.83341 0.50188 0.14015
 C716 C 0.83489 0.52401 0.11674
 C717 C 0.82554 0.50243 0.09334
 C718 C 0.82371 0.48032 0.11640
 C719 C 0.86402 0.49572 0.13335
 C720 C 0.85471 0.47411 0.10996
 C721 C 0.86579 0.51781 0.11026
 C722 C 0.85615 0.49628 0.08655
 C723 C 0.80432 0.50694 0.07106
 C724 C 0.78703 0.51139 0.05282
 C725 C 0.88585 0.49283 0.15544
 C726 C 0.90424 0.49135 0.17331
 H727 H 0.82429 0.50414 0.16243
 H728 H 0.82654 0.54459 0.11929
 H729 H 0.80616 0.46495 0.11866
 H730 H 0.86309 0.45354 0.10744
 H731 H 0.88332 0.53320 0.10797
 H732 H 0.86528 0.49402 0.06427
 C733 C 0.36638 -0.01276 0.67547
 C734 C 0.38733 -0.03581 0.67584
 C735 C 0.41126 -0.01448 0.68195
 C736 C 0.39067 0.00855 0.68195
 C737 C 0.37183 -0.00990 0.64250
 C738 C 0.39575 0.01144 0.64860
 C739 C 0.39245 -0.03292 0.64255
 C740 C 0.41669 -0.01163 0.64898
 C741 C 0.43330 -0.01753 0.70370
 C742 C 0.45144 -0.02049 0.72146
 C743 C 0.35015 -0.00790 0.62014
 C744 C 0.33268 -0.00679 0.60126
 H745 H 0.34545 -0.01319 0.68610
 H746 H 0.38413 -0.05528 0.68728
 H747 H 0.39022 0.02556 0.69840
 H748 H 0.39895 0.03089 0.63715
 H749 H 0.39293 -0.04995 0.62612
 H750 H 0.43762 -0.01120 0.63834
   
