data_POSCAR
  _audit_creation_date              2014-09-24
  _audit_creation_method            'ToBaCCo'
  _symmetry_space_group_name_H-M    'P1'
  _symmetry_Int_Tables_number       1
  _symmetry_cell_setting            triclinic
  loop_
  _symmetry_equiv_pos_as_xyz
 x,y,z
_cell_length_a 31.9545
_cell_length_b 19.4788
_cell_length_c 19.4052
_cell_angle_alpha 89.835900
_cell_angle_beta 90.106600
_cell_angle_gamma 89.897200
loop_
  _atom_site_label
  _atom_site_type_symbol
  _atom_site_fract_x
  _atom_site_fract_y
  _atom_site_fract_z
O1 O 0.05913 0.11658 0.12762
 O2 O 0.10489 0.05509 0.06096
 C3 C 0.09673 0.09874 0.10945
 O4 O -0.05846 -0.12777 0.11855
 O5 O -0.10428 -0.06086 0.05680
 C6 C -0.09609 -0.10944 0.10061
 O7 O 0.05943 -0.12129 0.12540
 O8 O 0.10490 -0.05955 0.05878
 C9 C 0.09716 -0.10397 0.10710
 O10 O -0.05865 0.12384 0.12054
 O11 O -0.10439 0.05843 0.05772
 C12 C -0.09627 0.10606 0.10230
 Zr13 Zr 0.00025 0.08512 0.08833
 O14 O -0.00456 0.08377 0.19712
 O15 O 0.00506 0.19350 0.08922
 Zr16 Zr 0.00041 -0.08848 0.08704
 O17 O -0.00433 -0.08885 0.19585
 O18 O 0.00529 -0.19687 0.08679
 O19 O 0.03766 -0.00187 0.10124
 O20 O -0.03603 -0.00178 0.10026
 O21 O -0.05884 0.12630 -0.11764
 O22 O -0.10449 0.05953 -0.05596
 C23 C -0.09641 0.10812 -0.09973
 O24 O 0.05910 -0.11816 -0.12652
 O25 O 0.10489 -0.05671 -0.05978
 C26 C 0.09671 -0.10035 -0.10830
 O27 O -0.05871 -0.12535 -0.11961
 O28 O -0.10443 -0.05982 -0.05686
 C29 C -0.09632 -0.10748 -0.10143
 O30 O 0.05892 0.11935 -0.12477
 O31 O 0.10477 0.05664 -0.05882
 C32 C 0.09657 0.10124 -0.10673
 Zr33 Zr 0.00009 0.08678 -0.08619
 O34 O -0.00494 0.08701 -0.19500
 O35 O 0.00485 0.19516 -0.08609
 Zr36 Zr 0.00019 -0.08670 -0.08737
 O37 O -0.00483 -0.08527 -0.19617
 O38 O 0.00518 -0.19508 -0.08837
 Zr39 Zr 0.06232 -0.00078 0.00056
 Zr40 Zr -0.06182 -0.00073 0.00044
 O41 O -0.03626 0.00021 -0.09938
 O42 O 0.03743 0.00016 -0.10017
 O43 O -0.03704 0.09949 0.00115
 O44 O 0.03660 -0.10016 -0.00028
 O45 O 0.03646 0.09859 0.00121
 O46 O -0.03691 -0.10103 -0.00027
 H47 H -0.05513 -0.00217 0.14043
 H48 H 0.05561 -0.14039 -0.00073
 H49 H -0.05545 0.00063 -0.13954
 H50 H 0.05552 0.13866 0.00154
 H51 H -0.01765 -0.21466 0.05763
 H52 H -0.01795 -0.21347 -0.06003
 H53 H 0.01857 -0.05728 -0.21408
 H54 H 0.01887 0.06020 -0.21326
 H55 H -0.01791 0.21302 -0.05665
 H56 H -0.01822 0.21191 0.06101
 H57 H 0.01875 0.05535 0.21502
 H58 H 0.01956 -0.06225 0.21412
 O59 O 0.55861 0.62035 0.62401
 O60 O 0.60435 0.55764 0.55849
 C61 C 0.59622 0.60215 0.60621
 O62 O 0.44099 0.37564 0.61934
 O63 O 0.39513 0.44158 0.55656
 C64 C 0.40334 0.39371 0.60122
 O65 O 0.55870 0.38320 0.62694
 O66 O 0.60440 0.44439 0.55977
 C67 C 0.59629 0.40089 0.60863
 O68 O 0.44086 0.62729 0.61686
 O69 O 0.39509 0.56081 0.55524
 C70 C 0.40326 0.60915 0.59901
 Zr71 Zr 0.49970 0.58813 0.58524
 O72 O 0.49489 0.58883 0.69404
 O73 O 0.50450 0.69651 0.58397
 Zr74 Zr 0.49978 0.41431 0.58692
 O75 O 0.49548 0.41191 0.69573
 O76 O 0.50217 0.30605 0.58138
 O77 O 0.53694 0.50129 0.59970
 O78 O 0.46344 0.50135 0.59872
 O79 O 0.44063 0.62546 0.37821
 O80 O 0.39502 0.56004 0.44135
 C81 C 0.40304 0.60765 0.39648
 O82 O 0.55864 0.38030 0.37458
 O83 O 0.60436 0.44330 0.43992
 C84 C 0.59625 0.39858 0.39237
 O85 O 0.44094 0.37318 0.38211
 O86 O 0.39509 0.44069 0.44260
 C87 C 0.40331 0.39176 0.39946
 O88 O 0.55850 0.61820 0.37164
 O89 O 0.60428 0.55666 0.43886
 C90 C 0.59612 0.60033 0.39011
 Zr91 Zr 0.49958 0.58672 0.41086
 O92 O 0.49466 0.58558 0.30206
 O93 O 0.50439 0.69510 0.40966
 Zr94 Zr 0.49975 0.41304 0.41291
 O95 O 0.49481 0.41283 0.30409
 O96 O 0.50387 0.30462 0.41397
 Zr97 Zr 0.56178 0.50054 0.49915
 Zr98 Zr 0.43763 0.50071 0.49896
 O99 O 0.46328 0.49978 0.39921
 O100 O 0.53692 0.49973 0.39844
 O101 O 0.46239 0.60095 0.49786
 O102 O 0.53627 0.40113 0.50020
 O103 O 0.53597 0.59997 0.49797
 O104 O 0.46249 0.40054 0.50007
 H105 H 0.44443 0.50157 0.63900
 H106 H 0.55543 0.36107 0.50072
 H107 H 0.44411 0.49936 0.35902
 H108 H 0.55505 0.64001 0.49758
 H109 H 0.50213 0.28935 0.62966
 H110 H 0.48506 0.28810 0.45090
 H111 H 0.51853 0.43979 0.28575
 H112 H 0.51800 0.55733 0.28433
 H113 H 0.48112 0.71342 0.43772
 H114 H 0.48115 0.71437 0.55555
 H115 H 0.51845 0.56138 0.71254
 H116 H 0.51652 0.44442 0.71377
 C117 C 0.20068 0.19255 0.21325
 C118 C 0.15972 0.21100 0.23061
 C119 C 0.12584 0.18024 0.19719
 C120 C 0.13255 0.13058 0.14579
 C121 C 0.17392 0.11207 0.12908
 C122 C 0.20772 0.14291 0.16261
 C123 C 0.23549 0.22532 0.24664
 C124 C 0.26465 0.25324 0.27418
 C125 C 0.29945 0.28707 0.30653
 C126 C 0.29238 0.33816 0.35568
 C127 C 0.32615 0.37204 0.38618
 C128 C 0.36753 0.35522 0.36781
 C129 C 0.37427 0.30342 0.31861
 C130 C 0.34042 0.26965 0.28818
 H131 H 0.15396 0.24944 0.26973
 H132 H 0.09446 0.19569 0.21138
 H133 H 0.18026 0.07395 0.08991
 H134 H 0.23933 0.12829 0.14879
 H135 H 0.26075 0.35204 0.37022
 H136 H 0.31978 0.41151 0.42396
 H137 H 0.40566 0.28914 0.30328
 H138 H 0.34620 0.23019 0.25012
 C139 C 0.79969 0.78686 0.19364
 C140 C 0.79283 0.83755 0.14368
 C141 C 0.82673 0.87106 0.11318
 C142 C 0.86805 0.85429 0.13234
 C143 C 0.87459 0.80288 0.18236
 C144 C 0.84060 0.76947 0.21280
 C145 C 0.76472 0.75344 0.22592
 C146 C 0.73538 0.72591 0.25335
 C147 C 0.70039 0.69351 0.28663
 C148 C 0.65949 0.71244 0.26896
 C149 C 0.62548 0.68192 0.30228
 C150 C 0.63200 0.63206 0.35386
 C151 C 0.67332 0.61311 0.37088
 C152 C 0.70723 0.64369 0.33747
 H153 H 0.76127 0.85141 0.12850
 H154 H 0.82049 0.91023 0.07476
 H155 H 0.90593 0.78866 0.19829
 H156 H 0.84623 0.73030 0.25150
 H157 H 0.65388 0.75102 0.22968
 H158 H 0.59415 0.69769 0.28786
 H159 H 0.67954 0.57483 0.41019
 H160 H 0.73879 0.62869 0.35154
 C161 C 0.79942 0.21276 0.80694
 C162 C 0.79251 0.16195 0.85670
 C163 C 0.82639 0.12809 0.88732
 C164 C 0.86771 0.14465 0.86847
 C165 C 0.87428 0.19617 0.81866
 C166 C 0.84033 0.22992 0.78811
 C167 C 0.76451 0.24655 0.77446
 C168 C 0.73527 0.27443 0.74679
 C169 C 0.70038 0.30718 0.71320
 C170 C 0.65946 0.28855 0.73046
 C171 C 0.62552 0.31929 0.69680
 C172 C 0.63214 0.36909 0.64527
 C173 C 0.67348 0.38778 0.62866
 C174 C 0.70733 0.35697 0.66243
 H175 H 0.76094 0.14827 0.87161
 H176 H 0.82015 0.08884 0.92557
 H177 H 0.90562 0.21024 0.80296
 H178 H 0.84598 0.26916 0.74957
 H179 H 0.65377 0.24999 0.76968
 H180 H 0.59417 0.30370 0.71089
 H181 H 0.67975 0.42601 0.58940
 H182 H 0.73891 0.37172 0.64868
 C183 C 0.20061 0.80630 0.78742
 C184 C 0.20767 0.85547 0.83851
 C185 C 0.17389 0.88611 0.87226
 C186 C 0.13251 0.86786 0.85530
 C187 C 0.12578 0.81861 0.80352
 C188 C 0.15964 0.78805 0.76988
 C189 C 0.23540 0.77385 0.75367
 C190 C 0.26456 0.74624 0.72580
 C191 C 0.29935 0.71280 0.69304
 C192 C 0.34032 0.73007 0.71154
 C193 C 0.37418 0.69667 0.68073
 C194 C 0.36745 0.64538 0.63097
 C195 C 0.32607 0.62872 0.61244
 C196 C 0.29229 0.66224 0.64333
 H197 H 0.23929 0.86992 0.85248
 H198 H 0.18025 0.92389 0.91174
 H199 H 0.09440 0.80337 0.78913
 H200 H 0.15386 0.74997 0.73042
 H201 H 0.34610 0.76913 0.75003
 H202 H 0.40557 0.71082 0.69619
 H203 H 0.31971 0.58964 0.57426
 H204 H 0.26067 0.64848 0.62867
 C205 C 0.20053 0.19667 0.79050
 C206 C 0.20758 0.14627 0.84074
 C207 C 0.17379 0.11502 0.87399
 C208 C 0.13238 0.13384 0.85744
 C209 C 0.12566 0.18436 0.80655
 C210 C 0.15952 0.21553 0.77340
 C211 C 0.23536 0.22952 0.75703
 C212 C 0.26454 0.25733 0.72929
 C213 C 0.29938 0.29088 0.69653
 C214 C 0.34038 0.27395 0.71558
 C215 C 0.37425 0.30714 0.68447
 C216 C 0.36752 0.35790 0.63382
 C217 C 0.32612 0.37431 0.61483
 C218 C 0.29234 0.34101 0.64601
 H219 H 0.23920 0.13127 0.85438
 H220 H 0.18017 0.07627 0.91276
 H221 H 0.09426 0.20009 0.79248
 H222 H 0.15371 0.25452 0.73460
 H223 H 0.34619 0.23524 0.75466
 H224 H 0.40564 0.29319 0.70033
 H225 H 0.31974 0.41297 0.57597
 H226 H 0.26072 0.35452 0.63087
 C227 C 0.79948 0.79012 0.80347
 C228 C 0.79257 0.84000 0.85394
 C229 C 0.82643 0.87312 0.88509
 C230 C 0.86779 0.85679 0.86610
 C231 C 0.87438 0.80624 0.81553
 C232 C 0.84044 0.77322 0.78445
 C233 C 0.76456 0.75683 0.77067
 C234 C 0.73530 0.72927 0.74288
 C235 C 0.70039 0.69672 0.70931
 C236 C 0.65942 0.71575 0.72613
 C237 C 0.62549 0.68487 0.69286
 C238 C 0.63211 0.63448 0.64214
 C239 C 0.67348 0.61549 0.62586
 C240 C 0.70733 0.64645 0.65924
 H241 H 0.76099 0.85348 0.86906
 H242 H 0.82015 0.91163 0.92389
 H243 H 0.90573 0.79235 0.79967
 H244 H 0.84614 0.73470 0.74540
 H245 H 0.65370 0.75464 0.76480
 H246 H 0.59413 0.70071 0.70672
 H247 H 0.67978 0.57683 0.58723
 H248 H 0.73892 0.63132 0.64580
 C249 C 0.19888 0.80307 0.20670
 C250 C 0.15800 0.78579 0.22541
 C251 C 0.12390 0.81684 0.19238
 C252 C 0.13008 0.86603 0.13960
 C253 C 0.17173 0.88298 0.12162
 C254 C 0.20564 0.85175 0.15488
 C255 C 0.23394 0.77047 0.24025
 C256 C 0.26335 0.74296 0.26802
 C257 C 0.29844 0.70977 0.30088
 C258 C 0.29174 0.65998 0.35177
 C259 C 0.32574 0.62698 0.38306
 C260 C 0.36704 0.64333 0.36382
 C261 C 0.37342 0.69378 0.31283
 C262 C 0.33934 0.72669 0.28160
 H263 H 0.15243 0.74810 0.26552
 H264 H 0.09276 0.80187 0.20842
 H265 H 0.17846 0.92037 0.08171
 H266 H 0.23720 0.86551 0.13999
 H267 H 0.26022 0.64648 0.36711
 H268 H 0.31960 0.58855 0.42218
 H269 H 0.40472 0.70768 0.29677
 H270 H 0.34488 0.76515 0.24224
 C271 C 0.79956 0.20904 0.19688
 C272 C 0.84052 0.22576 0.21605
 C273 C 0.87445 0.19252 0.18518
 C274 C 0.86785 0.14193 0.13466
 C275 C 0.82648 0.12574 0.11554
 C276 C 0.79263 0.15909 0.14648
 C277 C 0.76464 0.24261 0.22940
 C278 C 0.73538 0.27042 0.25693
 C279 C 0.70046 0.30326 0.29016
 C280 C 0.70737 0.35380 0.33996
 C281 C 0.67350 0.38502 0.37303
 C282 C 0.63214 0.36603 0.35670
 C283 C 0.62555 0.31537 0.30624
 C284 C 0.65950 0.28423 0.27329
 H285 H 0.84623 0.26434 0.25505
 H286 H 0.90581 0.20631 0.20113
 H287 H 0.82019 0.08721 0.07677
 H288 H 0.76104 0.14573 0.13124
 H289 H 0.73895 0.36893 0.35343
 H290 H 0.67978 0.42389 0.41146
 H291 H 0.59420 0.29951 0.29236
 H292 H 0.65380 0.24512 0.23482
   
