data_POSCAR
  _audit_creation_date              2014-09-24
  _audit_creation_method            'ToBaCCo'
  _symmetry_space_group_name_H-M    'P1'
  _symmetry_Int_Tables_number       1
  _symmetry_cell_setting            triclinic
  loop_
  _symmetry_equiv_pos_as_xyz
 x,y,z
_cell_length_a 37.4950
_cell_length_b 37.2164
_cell_length_c 44.6413
_cell_angle_alpha 90.292900
_cell_angle_beta 89.989900
_cell_angle_gamma 123.430800
loop_
  _atom_site_label
  _atom_site_type_symbol
  _atom_site_fract_x
  _atom_site_fract_y
  _atom_site_fract_z
C1 C 0.03771 0.50751 1.30969
 C2 C -0.00149 0.49007 1.32454
 C3 C -0.04065 0.46732 1.30903
 C4 C -0.04021 0.46640 1.27716
 C5 C -0.00085 0.48562 1.26165
 C6 C 0.03816 0.50676 1.27785
 C7 C 0.07679 0.52901 1.26173
 C8 C 0.07716 0.52825 1.23065
 C9 C 0.03889 0.50640 1.21415
 C10 C -0.00046 0.48443 1.22973
 C11 C -0.07786 0.44998 1.26026
 C12 C -0.07758 0.44753 1.22923
 C13 C -0.03944 0.46237 1.21346
 C14 C -0.03898 0.45923 1.18167
 C15 C 0.00045 0.48286 1.16674
 C16 C 0.03905 0.50679 1.18247
 H17 H 0.10734 0.54828 1.27296
 H18 H 0.10795 0.54522 1.21970
 H19 H -0.10800 0.43967 1.27078
 H20 H -0.10755 0.43529 1.21770
 H21 H -0.00176 0.48926 1.34883
 H22 H 0.00146 0.48207 1.14247
 C23 C 0.54208 0.50257 1.18470
 C24 C 0.52066 0.51886 1.17047
 C25 C 0.49900 0.53322 1.18688
 C26 C 0.49624 0.52865 1.21845
 C27 C 0.51758 0.51198 1.23326
 C28 C 0.54114 0.49955 1.21637
 C29 C 0.56345 0.48484 1.23162
 C30 C 0.56291 0.48266 1.26271
 C31 C 0.53763 0.49216 1.28000
 C32 C 0.51583 0.50833 1.26507
 C33 C 0.47268 0.54034 1.23558
 C34 C 0.47130 0.53719 1.26661
 C35 C 0.49248 0.52113 1.28183
 C36 C 0.49121 0.51803 1.31341
 C37 C 0.51362 0.50310 1.32791
 C38 C 0.53544 0.48828 1.31187
 H39 H 0.58207 0.47524 1.21973
 H40 H 0.58322 0.47396 1.27295
 H41 H 0.45489 0.55199 1.22514
 H42 H 0.45366 0.54792 1.27857
 H43 H 0.52309 0.52280 1.14633
 H44 H 0.51041 0.49922 1.35203
 C45 C 0.46058 0.95467 1.31829
 C46 C 0.47205 0.99197 1.33456
 C47 C 0.48404 1.03077 1.32046
 C48 C 0.48591 1.03273 1.28860
 C49 C 0.47196 0.99486 1.27166
 C50 C 0.45843 0.95559 1.28648
 C51 C 0.44119 0.91785 1.26908
 C52 C 0.44202 0.91939 1.23802
 C53 C 0.45887 0.95852 1.22298
 C54 C 0.47250 0.99641 1.23973
 C55 C 0.50458 1.07209 1.27322
 C56 C 0.50575 1.07370 1.24208
 C57 C 0.48808 1.03603 1.22465
 C58 C 0.48908 1.03720 1.19265
 C59 C 0.47676 0.99923 1.17691
 C60 C 0.46224 0.96055 1.19153
 H61 H 0.42649 0.88650 1.27927
 H62 H 0.42912 0.88942 1.22585
 H63 H 0.52009 1.10251 1.28505
 H64 H 0.52213 1.10519 1.23195
 H65 H 0.47233 0.99103 1.35883
 H66 H 0.47762 0.99922 1.15262
 C67 C 1.03966 0.51748 0.81780
 C68 C 1.00032 0.49503 0.83284
 C69 C 0.96146 0.47350 0.81716
 C70 C 0.96134 0.47603 0.78553
 C71 C 1.00061 0.50054 0.77004
 C72 C 1.03969 0.52226 0.78622
 C73 C 1.07770 0.55040 0.77060
 C74 C 1.07796 0.55289 0.73958
 C75 C 1.04036 0.52685 0.72275
 C76 C 1.00094 0.50286 0.73821
 C77 C 0.92298 0.45522 0.76901
 C78 C 0.92331 0.45755 0.73784
 C79 C 0.96200 0.48064 0.72195
 C80 C 0.96281 0.48248 0.69025
 C81 C 1.00206 0.50576 0.67529
 C82 C 1.04110 0.52593 0.69088
 H83 H 1.10765 0.57120 0.78230
 H84 H 1.10808 0.57560 0.72886
 H85 H 0.89228 0.43716 0.78008
 H86 H 0.89284 0.44123 0.72631
 H87 H 0.99970 0.49059 0.85689
 H88 H 1.00180 0.50392 0.65103
 C89 C 0.49449 0.52591 0.81469
 C90 C 0.51665 0.51144 0.83019
 C91 C 0.54031 0.49833 0.81498
 C92 C 0.54144 0.49898 0.78326
 C93 C 0.51767 0.51187 0.76725
 C94 C 0.49355 0.52466 0.78300
 C95 C 0.46932 0.53625 0.76668
 C96 C 0.46959 0.53632 0.73553
 C97 C 0.49394 0.52461 0.71943
 C98 C 0.51865 0.51282 0.73544
 C99 C 0.56552 0.48690 0.76712
 C100 C 0.56733 0.48884 0.73596
 C101 C 0.54442 0.50206 0.71970
 C102 C 0.54603 0.50420 0.68807
 C103 C 0.52099 0.51521 0.67257
 C104 C 0.49454 0.52476 0.68773
 H105 H 0.44962 0.54511 0.77788
 H106 H 0.45089 0.54625 0.72422
 H107 H 0.58332 0.47592 0.77844
 H108 H 0.58657 0.47945 0.72469
 H109 H 0.51784 0.51309 0.85448
 H110 H 0.52157 0.51564 0.64827
 C111 C 0.43980 -0.04636 0.80845
 C112 C 0.45205 -0.00799 0.82378
 C113 C 0.46465 0.02995 0.80841
 C114 C 0.46102 0.02873 0.77678
 C115 C 0.44867 -0.00950 0.76086
 C116 C 0.43693 -0.04742 0.77659
 C117 C 0.42134 -0.08568 0.75997
 C118 C 0.42326 -0.08522 0.72881
 C119 C 0.43938 -0.04679 0.71296
 C120 C 0.45017 -0.00914 0.72903
 C121 C 0.47024 0.06520 0.76060
 C122 C 0.47269 0.06582 0.72953
 C123 C 0.46498 0.02963 0.71347
 C124 C 0.47281 0.03170 0.68235
 C125 C 0.46165 -0.00579 0.66665
 C126 C 0.44526 -0.04491 0.68153
 H127 H 0.40779 -0.11640 0.77091
 H128 H 0.41228 -0.11524 0.71723
 H129 H 0.47664 0.09399 0.77190
 H130 H 0.48127 0.09517 0.71816
 H131 H 0.45693 -0.00611 0.84783
 H132 H 0.46913 -0.00376 0.64299
 O133 O 0.41070 0.66190 0.97700
 O134 O 0.40633 0.72667 0.96194
 C135 C 0.38641 0.74420 0.95550
 O136 O 0.35535 0.73874 0.97104
 O137 O 0.28469 0.66217 0.96446
 C138 C 0.26636 0.62193 0.96039
 O139 O 0.27291 0.59808 0.97669
 O140 O 0.34502 0.60470 0.96871
 C141 C 0.38425 0.62867 0.96199
 O142 O 0.40985 0.68094 1.03488
 O143 O 0.41066 0.74850 1.01997
 C144 C 0.38460 0.75100 1.03646
 O145 O 0.34480 0.72955 1.03131
 O146 O 0.27330 0.65600 1.02387
 C147 C 0.26903 0.62697 1.04118
 O148 O 0.28729 0.60707 1.03681
 O149 O 0.35893 0.61109 1.02919
 C150 C 0.39100 0.64210 1.04314
 Cr151 Cr 0.40713 0.70316 0.99848
 Cr152 Cr 0.31568 0.69567 0.99766
 Cr153 Cr 0.31706 0.60737 1.00278
 O154 O 0.34644 0.66854 0.99951
 O155 O 0.61065 0.34599 0.96475
 O156 O 0.58155 0.26464 0.97247
 C157 C 0.60215 0.25250 0.95752
 O158 O 0.63836 0.26081 0.96537
 O159 O 0.71830 0.31586 0.97678
 C160 C 0.73503 0.35044 0.96172
 O161 O 0.72744 0.37904 0.96695
 O162 O 0.67533 0.40357 0.97554
 C163 C 0.64125 0.38445 0.95994
 O164 O 0.61162 0.35870 1.02464
 O165 O 0.58573 0.27867 1.03290
 C166 C 0.59382 0.25079 1.03937
 O167 O 0.62014 0.24641 1.02448
 O168 O 0.69979 0.30534 1.03603
 C169 C 0.73026 0.34362 1.04168
 O170 O 0.73696 0.37564 1.02652
 O171 O 0.68147 0.39627 1.03501
 C172 C 0.64396 0.38678 1.04000
 Cr173 Cr 0.59949 0.31244 0.99876
 Cr174 Cr 0.66860 0.28363 1.00067
 Cr175 Cr 0.70351 0.38640 1.00101
 O176 O 0.65715 0.32752 1.00013
 O177 O 0.68195 0.41590 0.52349
 O178 O 0.73908 0.39707 0.53056
 C179 C 0.74851 0.36972 0.53568
 O180 O 0.73401 0.33573 0.51994
 O181 O 0.65698 0.27712 0.53574
 C182 C 0.62012 0.26546 0.54468
 O183 O 0.59682 0.27549 0.53131
 O184 O 0.62239 0.35599 0.53901
 C185 C 0.65076 0.39583 0.54157
 O186 O 0.68281 0.40342 0.46364
 O187 O 0.74399 0.39014 0.47060
 C188 C 0.73709 0.35804 0.45516
 O189 O 0.70843 0.31964 0.46191
 O190 O 0.63191 0.25781 0.47785
 C191 C 0.60221 0.25876 0.46488
 O192 O 0.59314 0.28586 0.47165
 O193 O 0.61514 0.36454 0.47967
 C194 C 0.64341 0.38873 0.46055
 Cr195 Cr 0.71044 0.39966 0.49718
 Cr196 Cr 0.68230 0.29901 0.49889
 Cr197 Cr 0.60896 0.32115 0.50529
 O198 O 0.66717 0.33986 0.50054
 O199 O 0.33635 0.58385 0.52449
 O200 O 0.27267 0.59032 0.53589
 C201 C 0.25678 0.61185 0.54220
 O202 O 0.26234 0.64270 0.52603
 O203 O 0.33824 0.71318 0.53340
 C204 C 0.37771 0.73140 0.53911
 O205 O 0.40189 0.72317 0.52481
 O206 O 0.39299 0.64948 0.53410
 C207 C 0.36905 0.60975 0.54001
 O208 O 0.32236 0.58506 0.46574
 O209 O 0.25503 0.58578 0.47703
 C210 C 0.25360 0.61242 0.46039
 O211 O 0.27498 0.65249 0.46559
 O212 O 0.34904 0.72433 0.47376
 C213 C 0.38028 0.72878 0.45897
 O214 O 0.39735 0.70821 0.46498
 O215 O 0.39127 0.63556 0.47385
 C216 C 0.36151 0.60315 0.45928
 Cr217 Cr 0.29785 0.58856 0.50075
 Cr218 Cr 0.30703 0.68189 0.49971
 Cr219 Cr 0.39365 0.67809 0.49943
 O220 O 0.33300 0.64970 0.49997
 C221 C 0.45076 0.56152 0.37164
 C222 C 0.40746 0.53470 0.36679
 C223 C 0.38972 0.50245 0.34507
 C224 C 0.41781 0.49763 0.32751
 C225 C 0.46262 0.52507 0.33178
 C226 C 0.47936 0.55727 0.35435
 O227 O 0.46069 0.58954 0.39383
 C228 C 0.42278 0.58011 0.40317
 C229 C 0.38931 0.54678 0.38730
 C230 C 0.34688 0.53090 0.39349
 C231 C 0.33842 0.55001 0.41710
 C232 C 0.37217 0.58459 0.43404
 C233 C 0.41512 0.59992 0.42677
 H234 H 0.35549 0.48154 0.34192
 H235 H 0.40482 0.47243 0.31064
 H236 H 0.51345 0.57814 0.35828
 H237 H 0.32113 0.50446 0.38075
 H238 H 0.30535 0.53744 0.42222
 H239 H 0.44163 0.62597 0.43927
 C240 C 0.42404 0.86953 0.37639
 C241 C 0.44316 0.84914 0.36629
 C242 C 0.46823 0.86192 0.34067
 C243 C 0.47359 0.89695 0.32467
 C244 C 0.45381 0.91852 0.33426
 C245 C 0.42931 0.90475 0.36103
 O246 O 0.40130 0.85216 0.40114
 C247 C 0.40630 0.82018 0.40683
 C248 C 0.43179 0.81709 0.38625
 C249 C 0.44167 0.78623 0.38812
 C250 C 0.42462 0.75740 0.41221
 C251 C 0.39791 0.75960 0.43372
 C252 C 0.38861 0.79154 0.43080
 H253 H 0.48335 0.84566 0.33333
 H254 H 0.49414 0.90798 0.30519
 H255 H 0.41364 0.92010 0.36921
 H256 H 0.46188 0.78447 0.37168
 H257 H 0.43202 0.73316 0.41394
 H258 H 0.36861 0.79436 0.44685
 C259 C 0.12011 0.55762 0.37005
 C260 C 0.14480 0.54224 0.36223
 C261 C 0.13609 0.51579 0.33755
 C262 C 0.10057 0.50492 0.31995
 C263 C 0.07445 0.52057 0.32713
 C264 C 0.08412 0.54666 0.35310
 O265 O 0.13390 0.58196 0.39466
 C266 C 0.16791 0.58167 0.40256
 C267 C 0.17564 0.55753 0.38349
 C268 C 0.20832 0.55105 0.38807
 C269 C 0.23393 0.56994 0.41353
 C270 C 0.22694 0.59523 0.43343
 C271 C 0.19378 0.60169 0.42777
 H272 H 0.15571 0.50359 0.33219
 H273 H 0.09268 0.48319 0.30118
 H274 H 0.06480 0.55884 0.35953
 H275 H 0.21343 0.53154 0.37288
 H276 H 0.25926 0.56491 0.41785
 H277 H 0.18750 0.62033 0.44298
 C278 C 0.58554 0.46094 0.37206
 C279 C 0.57836 0.42298 0.36098
 C280 C 0.55722 0.40486 0.33408
 C281 C 0.54320 0.42696 0.31775
 C282 C 0.55117 0.46707 0.32807
 C283 C 0.57208 0.48360 0.35614
 O284 O 0.60491 0.47182 0.39860
 C285 C 0.61004 0.43996 0.40438
 C286 C 0.59435 0.40928 0.38200
 C287 C 0.59528 0.37251 0.38368
 C288 C 0.61281 0.36698 0.40960
 C289 C 0.62886 0.39795 0.43300
 C290 C 0.62773 0.43510 0.43039
 H291 H 0.55097 0.37434 0.32622
 H292 H 0.52489 0.41200 0.29750
 H293 H 0.57843 0.51369 0.36512
 H294 H 0.58245 0.34868 0.36589
 H295 H 0.61331 0.33827 0.41175
 H296 H 0.63921 0.45874 0.44828
 C297 C 0.53085 0.11307 0.38132
 C298 C 0.51395 0.13668 0.37433
 C299 C 0.48649 0.12663 0.35021
 C300 C 0.47643 0.09105 0.33235
 C301 C 0.49400 0.06637 0.33871
 C302 C 0.52088 0.07729 0.36416
 O303 O 0.55724 0.12869 0.40465
 C304 C 0.55693 0.16291 0.41261
 C305 C 0.53081 0.16912 0.39487
 C306 C 0.52610 0.20332 0.39907
 C307 C 0.54934 0.23233 0.42247
 C308 C 0.57693 0.22694 0.44097
 C309 C 0.58058 0.19151 0.43586
 H310 H 0.47343 0.14561 0.34522
 H311 H 0.45451 0.08237 0.31376
 H312 H 0.53525 0.05967 0.36971
 H313 H 0.50547 0.20765 0.38476
 H314 H 0.54621 0.25930 0.42588
 H315 H 0.60131 0.18639 0.44945
 C316 C 0.87713 0.43444 0.36842
 C317 C 0.84741 0.39281 0.35960
 C318 C 0.85279 0.37394 0.33462
 C319 C 0.89017 0.39913 0.31782
 C320 C 0.92128 0.44273 0.32590
 C321 C 0.91470 0.46006 0.35216
 O322 O 0.86594 0.44601 0.39304
 C323 C 0.82837 0.41084 0.39990
 C324 C 0.81568 0.37736 0.38018
 C325 C 0.77775 0.33732 0.38337
 C326 C 0.75191 0.33143 0.40803
 C327 C 0.76421 0.36543 0.42882
 C328 C 0.80300 0.40585 0.42446
 H329 H 0.82925 0.34084 0.32843
 H330 H 0.89536 0.38420 0.29892
 H331 H 0.93757 0.49292 0.35930
 H332 H 0.76852 0.31143 0.36756
 H333 H 0.72234 0.30034 0.41090
 H334 H 0.81354 0.43235 0.43997
 C335 C 0.57220 0.44956 1.12665
 C336 C 0.61594 0.47370 1.12983
 C337 C 0.63739 0.50757 1.15022
 C338 C 0.61270 0.51683 1.16819
 C339 C 0.56751 0.49191 1.16575
 C340 C 0.54701 0.45810 1.14443
 O341 O 0.55832 0.41923 1.10565
 C342 C 0.59409 0.42431 1.09538
 C343 C 0.63015 0.45716 1.10951
 C344 C 0.67101 0.46818 1.10236
 C345 C 0.67498 0.44449 1.07964
 C346 C 0.63838 0.41049 1.06440
 C347 C 0.59726 0.40031 1.07257
 H348 H 0.67187 0.52632 1.15210
 H349 H 0.62858 0.54327 1.18408
 H350 H 0.51259 0.43908 1.14191
 H351 H 0.69890 0.49417 1.11383
 H352 H 0.70676 0.45299 1.07384
 H353 H 0.56866 0.37467 1.06151
 C354 C 0.87798 0.42115 1.12224
 C355 C 0.84838 0.38034 1.13228
 C356 C 0.85457 0.36334 1.15787
 C357 C 0.89253 0.38977 1.17406
 C358 C 0.92343 0.43258 1.16464
 C359 C 0.91623 0.44778 1.13771
 O360 O 0.86544 0.43150 1.09784
 C361 C 0.82710 0.39641 1.09235
 C362 C 0.81523 0.36409 1.11269
 C363 C 0.77623 0.32463 1.11121
 C364 C 0.74838 0.31816 1.08772
 C365 C 0.75977 0.35111 1.06647
 C366 C 0.79979 0.39086 1.06900
 H367 H 0.83091 0.33099 1.16523
 H368 H 0.89805 0.37672 1.19383
 H369 H 0.93868 0.48018 1.12980
 H370 H 0.76756 0.29971 1.12754
 H371 H 0.71788 0.28759 1.08622
 H372 H 0.80960 0.41660 1.05315
 C373 C 0.53626 0.11862 1.13177
 C374 C 0.51977 0.14271 1.13852
 C375 C 0.49421 0.13465 1.16349
 C376 C 0.48499 0.10012 1.18207
 C377 C 0.50144 0.07440 1.17557
 C378 C 0.52750 0.08425 1.14979
 O379 O 0.55960 0.13118 1.10699
 C380 C 0.55770 0.16391 1.09775
 C381 C 0.53362 0.17224 1.11616
 C382 C 0.52707 0.20487 1.11034
 C383 C 0.54638 0.23006 1.08470
 C384 C 0.57183 0.22242 1.06547
 C385 C 0.57731 0.18860 1.07224
 H386 H 0.48117 0.15377 1.16822
 H387 H 0.46349 0.09232 1.20074
 H388 H 0.54105 0.06589 1.14398
 H389 H 0.50790 0.21082 1.12506
 H390 H 0.54189 0.25585 1.08010
 H391 H 0.59646 0.18176 1.05820
 C392 C 0.44453 0.56352 1.13052
 C393 C 0.46133 0.60555 1.13890
 C394 C 0.48971 0.62540 1.16268
 C395 C 0.50129 0.60092 1.17855
 C396 C 0.48409 0.55734 1.17067
 C397 C 0.45547 0.53845 1.14615
 O398 O 0.41953 0.55158 1.10644
 C399 C 0.42069 0.58691 1.09949
 C400 C 0.44584 0.62074 1.11872
 C401 C 0.45304 0.66125 1.11510
 C402 C 0.43396 0.66739 1.09044
 C403 C 0.40816 0.63328 1.06993
 C404 C 0.40096 0.59218 1.07484
 H405 H 0.50302 0.65876 1.16849
 H406 H 0.52409 0.61596 1.19676
 H407 H 0.44268 0.50554 1.13929
 H408 H 0.47319 0.68740 1.13046
 H409 H 0.43963 0.69895 1.08722
 H410 H 0.38191 0.56568 1.05945
 C411 C 0.13097 0.54300 1.12893
 C412 C 0.15263 0.58689 1.13272
 C413 C 0.13898 0.60637 1.15202
 C414 C 0.10152 0.57947 1.16830
 C415 C 0.07880 0.53411 1.16514
 C416 C 0.09353 0.51557 1.14498
 O417 O 0.14864 0.53138 1.10848
 C418 C 0.18212 0.56881 1.09915
 C419 C 0.18583 0.60364 1.11337
 C420 C 0.21703 0.64594 1.10621
 C421 C 0.24512 0.65275 1.08299
 C422 C 0.24183 0.61756 1.06761
 C423 C 0.21038 0.57487 1.07619
 H424 H 0.15632 0.64103 1.15423
 H425 H 0.08998 0.59381 1.18335
 H426 H 0.07628 0.48102 1.14190
 H427 H 0.21896 0.67275 1.11754
 H428 H 0.26908 0.68554 1.07656
 H429 H 0.20667 0.54752 1.06437
 C430 C 0.41802 0.87266 1.13309
 C431 C 0.44748 0.86165 1.13492
 C432 C 0.48078 0.87999 1.15561
 C433 C 0.48421 0.91146 1.17502
 C434 C 0.45480 0.92395 1.17316
 C435 C 0.42108 0.90418 1.15203
 O436 O 0.38962 0.85213 1.11125
 C437 C 0.40163 0.82788 1.09890
 C438 C 0.43706 0.83285 1.11248
 C439 C 0.45668 0.81261 1.10226
 C440 C 0.43908 0.78608 1.07695
 C441 C 0.40217 0.77981 1.06271
 C442 C 0.38291 0.80075 1.07403
 H443 H 0.50370 0.87096 1.15642
 H444 H 0.51039 0.92704 1.19094
 H445 H 0.39875 0.91386 1.14998
 H446 H 0.48488 0.81753 1.11310
 H447 H 0.45405 0.77013 1.06857
 H448 H 0.35504 0.79690 1.06339
 C449 C 0.58020 0.45103 0.63395
 C450 C 0.62354 0.48127 0.63270
 C451 C 0.64367 0.51875 0.64998
 C452 C 0.61797 0.52544 0.66904
 C453 C 0.57323 0.49496 0.67020
 C454 C 0.55415 0.45719 0.65254
 O455 O 0.56715 0.41819 0.61530
 C456 C 0.60293 0.42792 0.60185
 C457 C 0.63836 0.46626 0.61152
 C458 C 0.67876 0.48332 0.59934
 C459 C 0.68271 0.45990 0.57625
 C460 C 0.64660 0.42008 0.56610
 C461 C 0.60623 0.40390 0.57933
 H462 H 0.67776 0.54223 0.64853
 H463 H 0.63256 0.55465 0.68235
 H464 H 0.51993 0.43382 0.65284
 H465 H 0.70613 0.51377 0.60707
 H466 H 0.71383 0.47269 0.56638
 H467 H 0.57793 0.37397 0.57183
 C468 C 0.51772 0.12397 0.62750
 C469 C 0.55792 0.15091 0.63951
 C470 C 0.57178 0.14114 0.66516
 C471 C 0.54298 0.10196 0.67912
 C472 C 0.50119 0.07362 0.66743
 C473 C 0.48841 0.08463 0.64109
 O474 O 0.51199 0.13874 0.60214
 C475 C 0.54943 0.17564 0.59809
 C476 C 0.57855 0.18438 0.62037
 C477 C 0.62055 0.21971 0.61983
 C478 C 0.63336 0.24691 0.59503
 C479 C 0.60413 0.23861 0.57163
 C480 C 0.56129 0.20288 0.57341
 H481 H 0.60384 0.16257 0.67383
 H482 H 0.55332 0.09327 0.69887
 H483 H 0.45701 0.06307 0.63142
 H484 H 0.64296 0.22546 0.63746
 H485 H 0.66625 0.27413 0.59378
 H486 H 0.53871 0.19534 0.55548
 C487 C 0.87724 0.44779 0.63137
 C488 C 0.85759 0.40384 0.63231
 C489 C 0.86923 0.38372 0.65255
 C490 C 0.90289 0.41003 0.67241
 C491 C 0.92405 0.45544 0.67165
 C492 C 0.91097 0.47458 0.65085
 O493 O 0.86181 0.46034 0.60998
 C494 C 0.83194 0.42352 0.59706
 C495 C 0.82832 0.38807 0.60980
 C496 C 0.80024 0.34646 0.59914
 C497 C 0.77465 0.34107 0.57441
 C498 C 0.77724 0.37698 0.56100
 C499 C 0.80628 0.41885 0.57267
 H500 H 0.85348 0.34909 0.65269
 H501 H 0.91337 0.39526 0.68785
 H502 H 0.92726 0.50923 0.64947
 H503 H 0.79822 0.31911 0.60941
 H504 H 0.75233 0.30878 0.56599
 H505 H 0.80917 0.44689 0.56286
 C506 C 0.45488 0.57077 0.63153
 C507 C 0.41150 0.54139 0.63371
 C508 C 0.39338 0.50676 0.65330
 C509 C 0.42114 0.50212 0.67139
 C510 C 0.46596 0.53194 0.66961
 C511 C 0.48310 0.56670 0.64931
 O512 O 0.46541 0.60054 0.61080
 C513 C 0.42783 0.58959 0.59961
 C514 C 0.39393 0.55355 0.61287
 C515 C 0.35186 0.53525 0.60391
 C516 C 0.34435 0.55460 0.58010
 C517 C 0.37863 0.59176 0.56585
 C518 C 0.42102 0.60987 0.57607
 H519 H 0.35914 0.48383 0.65434
 H520 H 0.40792 0.47505 0.68652
 H521 H 0.51728 0.58943 0.64726
 H522 H 0.32580 0.50670 0.61457
 H523 H 0.31171 0.54052 0.57270
 H524 H 0.44782 0.63787 0.56543
 C525 C 0.40888 0.86462 0.62567
 C526 C 0.43992 0.85608 0.62973
 C527 C 0.47237 0.87761 0.65092
 C528 C 0.47300 0.90940 0.66845
 C529 C 0.44170 0.91913 0.66435
 C530 C 0.40919 0.89643 0.64265
 O531 O 0.38104 0.84068 0.60428
 C532 C 0.39488 0.81667 0.59455
 C533 C 0.43096 0.82499 0.60921
 C534 C 0.45147 0.80434 0.60185
 C535 C 0.43399 0.77378 0.57850
 C536 C 0.39638 0.76413 0.56333
 C537 C 0.37663 0.78599 0.57164
 H538 H 0.49649 0.87043 0.65370
 H539 H 0.49824 0.92707 0.68484
 H540 H 0.38525 0.90368 0.63897
 H541 H 0.48004 0.81166 0.61355
 H542 H 0.44943 0.75730 0.57248
 H543 H 0.34819 0.77976 0.56031
 C544 C 0.12363 0.56968 0.63051
 C545 C 0.15083 0.55934 0.64199
 C546 C 0.14397 0.53863 0.66914
 C547 C 0.10760 0.52824 0.68536
 C548 C 0.07886 0.53905 0.67459
 C549 C 0.08700 0.55956 0.64627
 O550 O 0.13561 0.58811 0.60372
 C551 C 0.17105 0.58918 0.59824
 C552 C 0.18150 0.57180 0.62102
 C553 C 0.21611 0.56777 0.61973
 C554 C 0.24085 0.58183 0.59371
 C555 C 0.23089 0.59978 0.56969
 C556 C 0.19576 0.60409 0.57217
 H557 H 0.16541 0.52993 0.67729
 H558 H 0.10103 0.51015 0.70583
 H559 H 0.06590 0.56800 0.63697
 H560 H 0.22341 0.55367 0.63790
 H561 H 0.26778 0.57855 0.59222
 H562 H 0.18711 0.61713 0.55405
 C563 C 0.43686 0.55230 0.87147
 C564 C 0.45560 0.59528 0.86543
 C565 C 0.48603 0.61686 0.84322
 C566 C 0.49776 0.59316 0.82640
 C567 C 0.47898 0.54877 0.83195
 C568 C 0.44820 0.52800 0.85495
 O569 O 0.40997 0.53882 0.89451
 C570 C 0.41205 0.57419 0.90321
 C571 C 0.43970 0.60950 0.88607
 C572 C 0.44914 0.65046 0.89202
 C573 C 0.42972 0.65551 0.91692
 C574 C 0.40099 0.61990 0.93508
 C575 C 0.39138 0.57834 0.92789
 H576 H 0.50071 0.65088 0.83929
 H577 H 0.52200 0.60945 0.80930
 H578 H 0.43413 0.49434 0.85997
 H579 H 0.47153 0.67778 0.87844
 H580 H 0.43746 0.68742 0.92234
 H581 H 0.37023 0.55083 0.94177
 C582 C 0.12307 0.56154 0.87765
 C583 C 0.14956 0.55006 0.86632
 C584 C 0.14193 0.52863 0.83917
 C585 C 0.10558 0.51872 0.82291
 C586 C 0.07722 0.52982 0.83404
 C587 C 0.08595 0.55086 0.86227
 O588 O 0.13689 0.58288 0.90348
 C589 C 0.17270 0.58457 0.90862
 C590 C 0.18157 0.56446 0.88672
 C591 C 0.21683 0.56131 0.88799
 C592 C 0.24417 0.57978 0.91283
 C593 C 0.23634 0.60167 0.93524
 C594 C 0.20018 0.60424 0.93311
 H595 H 0.16324 0.51985 0.83076
 H596 H 0.09881 0.50112 0.80202
 H597 H 0.06523 0.55989 0.87153
 H598 H 0.22292 0.54502 0.87058
 H599 H 0.27187 0.57778 0.91441
 H600 H 0.19348 0.62055 0.95014
 C601 C 0.41303 0.87419 0.86888
 C602 C 0.43426 0.85594 0.85883
 C603 C 0.45759 0.86831 0.83245
 C604 C 0.45885 0.90064 0.81559
 C605 C 0.43669 0.91983 0.82511
 C606 C 0.41423 0.90677 0.85267
 O607 O 0.39264 0.85766 0.89452
 C608 C 0.40136 0.82845 0.90079
 C609 C 0.42690 0.82630 0.87975
 C610 C 0.44051 0.79844 0.88215
 C611 C 0.42719 0.77164 0.90730
 C612 C 0.40039 0.77284 0.92923
 C613 C 0.38731 0.80176 0.92577
 H614 H 0.47453 0.85386 0.82522
 H615 H 0.47823 0.91164 0.79553
 H616 H 0.39728 0.92078 0.86088
 H617 H 0.46078 0.79748 0.86534
 H618 H 0.43754 0.74981 0.90953
 H619 H 0.36719 0.80379 0.94215
 C620 C 0.57144 0.44337 0.86979
 C621 C 0.61520 0.47143 0.86996
 C622 C 0.63638 0.50807 0.85219
 C623 C 0.61139 0.51617 0.83360
 C624 C 0.56627 0.48776 0.83317
 C625 C 0.54603 0.45091 0.85157
 O626 O 0.55759 0.41099 0.88878
 C627 C 0.59334 0.41881 0.90129
 C628 C 0.62947 0.45547 0.89064
 C629 C 0.67017 0.47039 0.90143
 C630 C 0.67376 0.44663 0.92418
 C631 C 0.63697 0.40857 0.93551
 C632 C 0.59620 0.39444 0.92363
 H633 H 0.67081 0.52985 0.85287
 H634 H 0.62694 0.54478 0.81985
 H635 H 0.51156 0.42917 0.85188
 H636 H 0.69812 0.49950 0.89286
 H637 H 0.70522 0.45789 0.93292
 H638 H 0.56744 0.36587 0.93197
 C639 C 0.87183 0.43364 0.87291
 C640 C 0.85256 0.38982 0.87024
 C641 C 0.86628 0.37146 0.84990
 C642 C 0.90149 0.39943 0.83181
 C643 C 0.92211 0.44468 0.83447
 C644 C 0.90705 0.46200 0.85530
 O645 O 0.85425 0.44454 0.89381
 C646 C 0.82334 0.40684 0.90466
 C647 C 0.82105 0.37232 0.89116
 C648 C 0.79180 0.32999 0.89985
 C649 C 0.76374 0.32299 0.92335
 C650 C 0.76515 0.35808 0.93738
 C651 C 0.79543 0.40060 0.92772
 H652 H 0.85077 0.33692 0.84827
 H653 H 0.91335 0.38607 0.81616
 H654 H 0.92271 0.49647 0.85797
 H655 H 0.79079 0.30333 0.88906
 H656 H 0.74064 0.29027 0.93038
 H657 H 0.79765 0.42811 0.93812
 C658 C 0.50298 0.11769 0.86786
 C659 C 0.54243 0.14796 0.85636
 C660 C 0.55800 0.14193 0.82994
 C661 C 0.53177 0.10315 0.81448
 C662 C 0.49022 0.07160 0.82506
 C663 C 0.47580 0.07887 0.85243
 O664 O 0.49614 0.12879 0.89463
 C665 C 0.53212 0.16684 0.90001
 C666 C 0.56123 0.17985 0.87710
 C667 C 0.60200 0.21702 0.87842
 C668 C 0.61382 0.24150 0.90475
 C669 C 0.58503 0.22868 0.92910
 C670 C 0.54312 0.19126 0.92652
 H671 H 0.58976 0.16575 0.82193
 H672 H 0.54412 0.09732 0.79440
 H673 H 0.44493 0.05478 0.86162
 H674 H 0.62443 0.22614 0.86021
 H675 H 0.64600 0.26995 0.90656
 H676 H 0.52100 0.18022 0.94510
   
