data_POSCAR
  _audit_creation_date              2014-09-24
  _audit_creation_method            'ToBaCCo'
  _symmetry_space_group_name_H-M    'P1'
  _symmetry_Int_Tables_number       1
  _symmetry_cell_setting            triclinic
  loop_
  _symmetry_equiv_pos_as_xyz
 x,y,z
_cell_length_a 39.8246
_cell_length_b 39.8853
_cell_length_c 10.9150
_cell_angle_alpha 90.180100
_cell_angle_beta 89.723800
_cell_angle_gamma 119.893700
loop_
  _atom_site_label
  _atom_site_type_symbol
  _atom_site_fract_x
  _atom_site_fract_y
  _atom_site_fract_z
C1 C 0.20303 0.47220 0.42854
 C2 C 0.20819 0.47991 0.55682
 C3 C 0.24002 0.48014 0.61421
 C4 C 0.26773 0.47528 0.54737
 C5 C 0.26200 0.46763 0.42018
 C6 C 0.22906 0.46460 0.36356
 H7 H 0.22646 0.46125 0.26475
 H8 H 0.24338 0.48409 0.71263
 C9 C 0.49007 -0.28566 0.42250
 C10 C 0.49063 -0.28496 0.55231
 C11 C 0.49260 -0.25329 0.61520
 C12 C 0.49568 -0.22117 0.55165
 C13 C 0.49224 -0.22361 0.42184
 C14 C 0.48842 -0.25598 0.35999
 H15 H 0.48680 -0.25677 0.26067
 H16 H 0.49343 -0.25305 0.71450
 C17 C 1.27157 0.79356 0.42207
 C18 C 1.26957 0.79802 0.55050
 C19 C 1.23810 0.76982 0.61776
 C20 C 1.20912 0.73612 0.56147
 C21 C 1.20930 0.73305 0.43198
 C22 C 1.24063 0.76156 0.36472
 H23 H 1.24095 0.75859 0.26595
 H24 H 1.23796 0.77252 0.71665
 C25 C 0.78147 0.50675 0.44089
 C26 C 0.78096 0.49776 0.56627
 C27 C 0.75016 0.49222 0.64112
 C28 C 0.72292 0.50157 0.59841
 C29 C 0.72258 0.51133 0.47224
 C30 C 0.75157 0.51213 0.39440
 H31 H 0.75224 0.51912 0.29829
 H32 H 0.75120 0.48704 0.73834
 C33 C 0.48319 0.27228 0.43737
 C34 C 0.49191 0.27587 0.56460
 C35 C 0.49614 0.24672 0.62262
 C36 C 0.49298 0.21490 0.55727
 C37 C 0.48426 0.21152 0.43057
 C38 C 0.47885 0.23988 0.37265
 H39 H 0.47467 0.23847 0.27428
 H40 H 0.50148 0.24849 0.72048
 C41 C 0.73349 0.20889 0.43459
 C42 C 0.72980 0.21413 0.56200
 C43 C 0.75904 0.24655 0.62205
 C44 C 0.79073 0.27567 0.55748
 C45 C 0.79369 0.27083 0.42984
 C46 C 0.76561 0.23736 0.37062
 H47 H 0.76770 0.23452 0.27244
 H48 H 0.75653 0.24958 0.71996
 O49 O 0.94470 0.41715 0.21806
 O50 O 0.90307 0.42616 0.09761
 C51 C 0.90994 0.40763 0.18134
 O52 O 1.05352 0.59244 0.20964
 O53 O 1.09670 0.58037 0.10597
 C54 C 1.08831 0.60048 0.18071
 O55 O 0.94566 0.53725 0.21518
 O56 O 0.90360 0.48409 0.10300
 C57 C 0.91104 0.51106 0.18281
 O58 O 1.05469 0.46926 0.21171
 O59 O 1.09750 0.52195 0.09937
 C60 C 1.08973 0.49499 0.17891
 Zr61 Zr 1.00001 0.46151 0.15649
 O62 O 1.00328 0.46617 0.34990
 O63 O 0.99653 0.40691 0.16790
 Zr64 Zr 0.99993 0.54570 0.15339
 O65 O 1.00299 0.54467 0.34692
 O66 O 0.99696 0.59718 0.16077
 O67 O 0.96493 0.48625 0.17842
 O68 O 1.03394 0.52054 0.17733
 O69 O 1.05497 0.46553 -0.19736
 O70 O 1.09751 0.52174 -0.10132
 C71 C 1.09002 0.49240 -0.17071
 O72 O 0.94707 0.53496 -0.22460
 O73 O 0.90438 0.48380 -0.10655
 C74 C 0.91227 0.50938 -0.19089
 O75 O 1.05489 0.59470 -0.19954
 O76 O 1.09739 0.58168 -0.10078
 C77 C 1.08989 0.60340 -0.17045
 O78 O 0.94590 0.41583 -0.21653
 O79 O 0.90406 0.42762 -0.10741
 C80 C 0.91090 0.40764 -0.18614
 Zr81 Zr 1.00089 0.46091 -0.15480
 O82 O 1.00619 0.46748 -0.34757
 O83 O 0.99778 0.40677 -0.17570
 Zr84 Zr 1.00130 0.54513 -0.15803
 O85 O 1.00732 0.54267 -0.35027
 O86 O 0.99928 0.59655 -0.18339
 Zr87 Zr 0.94299 0.47478 -0.00139
 Zr88 Zr 1.05832 0.53207 0.00018
 O89 O 1.03553 0.52006 -0.17819
 O90 O 0.96619 0.48565 -0.18062
 O91 O 1.03455 0.47147 0.00180
 O92 O 0.96737 0.53528 -0.00351
 O93 O 0.96728 0.43841 0.00043
 O94 O 1.03470 0.56904 -0.00137
 H95 H 1.05154 0.52932 0.24887
 H96 H 0.95048 0.54692 -0.00493
 H97 H 1.05430 0.52928 -0.24714
 H98 H 0.95047 0.40992 0.00033
 H99 H 1.01506 0.61492 0.09811
 H100 H 0.99836 0.60623 -0.10076
 H101 H 0.98217 0.52226 -0.38259
 H102 H 0.98051 0.46111 -0.37991
 H103 H 1.00016 0.39842 -0.09266
 H104 H 1.01549 0.40706 0.10868
 H105 H 0.97880 0.46409 0.37964
 H106 H 0.97816 0.52298 0.37697
 O107 O 0.52752 0.58274 -0.24184
 O108 O 0.47454 0.57220 -0.12832
 C109 C 0.50108 0.59120 -0.20987
 O110 O 0.46758 0.40824 -0.19872
 O111 O 0.52332 0.42485 -0.09446
 C112 C 0.49551 0.40207 -0.16675
 O113 O 0.41053 0.46104 -0.22687
 O114 O 0.41998 0.51498 -0.12553
 C115 C 0.40069 0.48700 -0.20041
 O116 O 0.58682 0.53298 -0.22532
 O117 O 0.57917 0.48348 -0.10106
 C118 C 0.59707 0.50847 -0.18790
 Zr119 Zr 0.54020 0.54111 -0.16688
 O120 O 0.54206 0.54243 -0.36074
 O121 O 0.59234 0.59449 -0.15420
 Zr122 Zr 0.45775 0.45473 -0.15943
 O123 O 0.46304 0.45367 -0.35231
 O124 O 0.40484 0.40196 -0.17085
 O125 O 0.48028 0.51347 -0.19229
 O126 O 0.51717 0.48193 -0.17981
 O127 O 0.58387 0.54116 0.21609
 O128 O 0.58142 0.49097 0.10985
 C129 C 0.59751 0.51901 0.19091
 O130 O 0.41109 0.46692 0.21007
 O131 O 0.41758 0.51534 0.08334
 C132 C 0.40007 0.49061 0.17005
 O133 O 0.46857 0.41486 0.21656
 O134 O 0.52284 0.42674 0.10825
 C135 C 0.49592 0.40726 0.18834
 O136 O 0.52434 0.58692 0.20341
 O137 O 0.47260 0.57412 0.08137
 C138 C 0.49752 0.59366 0.16585
 Zr139 Zr 0.53882 0.54568 0.14015
 O140 O 0.54254 0.55438 0.33191
 O141 O 0.59022 0.59873 0.10617
 Zr142 Zr 0.45729 0.45855 0.15059
 O143 O 0.45986 0.46095 0.34432
 O144 O 0.40395 0.40589 0.15847
 Zr145 Zr 0.46716 0.52616 -0.01676
 Zr146 Zr 0.53013 0.47375 0.00097
 O147 O 0.51651 0.48717 0.17360
 O148 O 0.47910 0.51802 0.16486
 O149 O 0.56488 0.53429 -0.00797
 O150 O 0.43334 0.46541 -0.00835
 O151 O 0.52701 0.56500 -0.01872
 O152 O 0.46990 0.43429 0.00105
 H153 H 0.52628 0.47217 -0.24844
 H154 H 0.40469 0.45250 -0.00898
 H155 H 0.52566 0.47984 0.24762
 H156 H 0.53695 0.59316 -0.02158
 H157 H 0.40224 0.38782 -0.09404
 H158 H 0.40711 0.38640 0.11140
 H159 H 0.46026 0.48499 0.36981
 H160 H 0.52680 0.52868 0.37003
 H161 H 0.59324 0.61646 0.17426
 H162 H 0.60133 0.60231 -0.23961
 H163 H 0.53258 0.51574 -0.38996
 H164 H 0.46094 0.47562 -0.38558
 O165 O 0.47247 0.05560 0.21279
 O166 O 0.52504 0.09739 0.09929
 C167 C 0.49910 0.09045 0.18186
 O168 O 0.53348 -0.05851 0.19500
 O169 O 0.48052 -0.09835 0.07908
 C170 C 0.50718 -0.09249 0.15754
 O171 O 0.58824 0.04880 0.21879
 O172 O 0.58164 0.09424 0.11202
 C173 C 0.59847 0.08431 0.19508
 O174 O 0.41119 -0.05357 0.18703
 O175 O 0.42364 -0.09578 0.08253
 C176 C 0.40230 -0.08852 0.15509
 Zr177 Zr 0.46012 0.00065 0.14211
 O178 O 0.45536 -0.00566 0.33498
 O179 O 0.40945 0.00503 0.13223
 Zr180 Zr 0.54276 -0.00302 0.14888
 O181 O 0.53386 -0.00911 0.34085
 O182 O 0.59546 -0.00280 0.17259
 O183 O 0.51960 0.03336 0.17362
 O184 O 0.48336 -0.03517 0.16438
 O185 O 0.41666 -0.04998 -0.22901
 O186 O 0.42452 -0.09403 -0.11760
 C187 C 0.40649 -0.08540 -0.19834
 O188 O 0.59218 0.05428 -0.22459
 O189 O 0.58329 0.09656 -0.10421
 C190 C 0.60107 0.08879 -0.18953
 O191 O 0.53796 -0.05403 -0.22339
 O192 O 0.48257 -0.09598 -0.11923
 C193 C 0.51039 -0.08851 -0.19555
 O194 O 0.47807 0.05980 -0.22896
 O195 O 0.52838 0.09961 -0.10459
 C196 C 0.50417 0.09407 -0.19146
 Zr197 Zr 0.46408 0.00363 -0.16815
 O198 O 0.46570 0.00137 -0.36182
 O199 O 0.41383 0.00880 -0.17715
 Zr200 Zr 0.54705 0.00036 -0.16145
 O201 O 0.54624 -0.00201 -0.35535
 O202 O 0.60124 0.00247 -0.15822
 Zr203 Zr 0.53401 0.05804 -0.00271
 Zr204 Zr 0.47346 -0.05671 -0.01561
 O205 O 0.48799 -0.03149 -0.19070
 O206 O 0.52410 0.03689 -0.18428
 O207 O 0.43767 -0.03181 -0.01705
 O208 O 0.56870 0.03191 -0.00221
 O209 O 0.47371 0.03575 -0.00995
 O210 O 0.53360 -0.03563 -0.00958
 H211 H 0.47308 -0.05390 0.23300
 H212 H 0.59726 0.04839 0.00001
 H213 H 0.47925 -0.04862 -0.26352
 H214 H 0.46313 0.05358 -0.01005
 H215 H 0.60519 -0.00336 0.08970
 H216 H 0.59786 -0.02014 -0.11094
 H217 H 0.54520 0.02081 -0.38560
 H218 H 0.48951 0.02473 -0.38982
 H219 H 0.39745 -0.00554 -0.10616
 H220 H 0.40075 0.00426 0.21793
 H221 H 0.47891 0.01624 0.37056
 H222 H 0.53637 0.01530 0.37250
 C223 C 1.18490 0.51828 0.34197
 C224 C 1.17780 0.47999 0.35966
 C225 C 1.14513 0.44909 0.30610
 C226 C 1.11735 0.45496 0.24853
 C227 C 1.12244 0.49219 0.23431
 C228 C 1.15776 0.52462 0.27529
 C229 C 1.21930 0.55054 0.38537
 C230 C 1.22756 0.58808 0.36096
 C231 C 1.20178 0.59437 0.29363
 C232 C 1.16710 0.56321 0.25280
 H233 H 1.24047 0.54720 0.43690
 H234 H 1.25427 0.61241 0.39352
 H235 H 1.20866 0.62366 0.27318
 H236 H 1.14848 0.57033 0.20259
 H237 H 1.13986 0.41981 0.31562
 H238 H 1.09142 0.42994 0.21451
 C239 C 0.52219 0.69516 0.26292
 C240 C 0.49308 0.68577 0.35444
 C241 C 0.46611 0.64672 0.37673
 C242 C 0.46836 0.61739 0.31556
 C243 C 0.49572 0.62595 0.22325
 C244 C 0.52253 0.66490 0.19426
 C245 C 0.55228 0.73361 0.24214
 C246 C 0.57949 0.74216 0.14914
 C247 C 0.57807 0.71270 0.07699
 C248 C 0.55021 0.67438 0.09996
 H249 H 0.55564 0.75743 0.29823
 H250 H 0.60190 0.77180 0.13340
 H251 H 0.59911 0.71949 0.00438
 H252 H 0.55064 0.65237 0.04342
 H253 H 0.44244 0.63864 0.44044
 H254 H 0.44841 0.58765 0.34040
 C255 C 0.32344 -0.19043 0.26503
 C256 C 0.30358 -0.17942 0.35091
 C257 C 0.31470 -0.14024 0.36060
 C258 C 0.34573 -0.11213 0.29450
 C259 C 0.36627 -0.12165 0.20952
 C260 C 0.35299 -0.16185 0.18768
 C261 C 0.31578 -0.22906 0.25778
 C262 C 0.33270 -0.24043 0.16710
 C263 C 0.35758 -0.21372 0.08206
 C264 C 0.36762 -0.17500 0.09160
 H265 H 0.29688 -0.25088 0.32246
 H266 H 0.32590 -0.27027 0.16145
 H267 H 0.36948 -0.22298 0.00860
 H268 H 0.38567 -0.15661 0.01933
 H269 H 0.29867 -0.13107 0.41857
 H270 H 0.35353 -0.08232 0.31090
 C271 C 0.83968 0.54312 0.29531
 C272 C 0.81302 0.50918 0.35986
 C273 C 0.81889 0.47730 0.36011
 C274 C 0.85138 0.47926 0.30576
 C275 C 0.87772 0.51186 0.24020
 C276 C 0.87171 0.54400 0.23224
 C277 C 0.83595 0.57650 0.29382
 C278 C 0.86175 0.60908 0.22696
 C279 C 0.89180 0.60920 0.16094
 C280 C 0.89690 0.57709 0.16351
 H281 H 0.81330 0.57799 0.34404
 H282 H 0.85831 0.63434 0.22596
 H283 H 0.91145 0.63445 0.10818
 H284 H 0.92063 0.57845 0.11105
 H285 H 0.79902 0.45113 0.40873
 H286 H 0.85674 0.45552 0.31860
 C287 C 0.52516 0.33789 0.34053
 C288 C 0.48794 0.30619 0.36579
 C289 C 0.45519 0.30758 0.32790
 C290 C 0.45874 0.34066 0.27218
 C291 C 0.49520 0.37332 0.24946
 C292 C 0.52906 0.37185 0.28320
 C293 C 0.55874 0.33631 0.37171
 C294 C 0.59537 0.36707 0.34641
 C295 C 0.59934 0.40030 0.29280
 C296 C 0.56682 0.40329 0.26443
 H297 H 0.55710 0.31123 0.41492
 H298 H 0.62083 0.36522 0.36922
 H299 H 0.62790 0.42384 0.27338
 H300 H 0.57206 0.43058 0.22917
 H301 H 0.42655 0.28324 0.34504
 H302 H 0.43251 0.34059 0.24583
 C303 C 0.68812 0.13682 0.40395
 C304 C 0.70267 0.17539 0.36513
 C305 C 0.68400 0.18284 0.26939
 C306 C 0.65052 0.15313 0.21659
 C307 C 0.63291 0.11515 0.26232
 C308 C 0.65109 0.10736 0.36297
 C309 C 0.70922 0.12733 0.48665
 C310 C 0.69234 0.09093 0.54068
 C311 C 0.65412 0.06379 0.51468
 C312 C 0.63356 0.07186 0.42780
 H313 H 0.73850 0.14845 0.51267
 H314 H 0.70840 0.08436 0.60676
 H315 H 0.64026 0.03632 0.56222
 H316 H 0.60356 0.05045 0.41789
 H317 H 0.69487 0.21216 0.23726
 H318 H 0.63813 0.16027 0.13986
 C319 C 0.53389 0.19603 -0.32205
 C320 C 0.49850 0.18702 -0.38022
 C321 C 0.46704 0.14956 -0.37013
 C322 C 0.47016 0.12087 -0.30878
 C323 C 0.50454 0.12830 -0.25001
 C324 C 0.53680 0.16712 -0.25242
 C325 C 0.56716 0.23279 -0.33765
 C326 C 0.60166 0.24239 -0.27867
 C327 C 0.60407 0.21542 -0.20499
 C328 C 0.57241 0.17826 -0.19254
 H329 H 0.56706 0.25409 -0.39814
 H330 H 0.62676 0.27079 -0.29113
 H331 H 0.63105 0.22300 -0.15953
 H332 H 0.57755 0.15914 -0.13742
 H333 H 0.43917 0.14248 -0.40783
 H334 H 0.44465 0.09239 -0.30575
 C335 C 0.70186 0.54378 -0.33880
 C336 C 0.70291 0.51051 -0.31550
 C337 C 0.67577 0.48201 -0.23774
 C338 C 0.64304 0.48310 -0.19613
 C339 C 0.63170 0.50888 -0.24388
 C340 C 0.65603 0.53588 -0.33336
 C341 C 0.74110 0.57886 -0.42078
 C342 C 0.74105 0.60998 -0.52429
 C343 C 0.70021 0.61153 -0.55357
 C344 C 0.64273 0.56161 -0.42571
 H345 H 0.76842 0.57962 -0.41040
 H346 H 0.76756 0.62945 -0.57198
 H347 H 0.70260 0.63276 -0.62128
 H348 H 0.61262 0.55472 -0.42360
 H349 H 0.67848 0.45705 -0.21479
 H350 H 0.62468 0.46106 -0.13089
 C351 C 0.80813 0.33142 -0.30220
 C352 C 0.81848 0.30914 -0.37918
 C353 C 0.85743 0.31900 -0.38589
 C354 C 0.88598 0.35066 -0.32342
 C355 C 0.87707 0.37301 -0.24428
 C356 C 0.83686 0.36168 -0.22752
 C357 C 0.76984 0.32509 -0.30149
 C358 C 0.75866 0.34444 -0.21950
 C359 C 0.78517 0.37036 -0.13656
 C360 C 0.82361 0.37885 -0.13971
 H361 H 0.74817 0.30532 -0.36492
 H362 H 0.72910 0.33879 -0.21897
 H363 H 0.77605 0.38442 -0.07003
 H364 H 0.84149 0.39848 -0.07012
 H365 H 0.86598 0.30121 -0.43711
 H366 H 0.91558 0.35702 -0.33587
 C367 C 0.53058 -0.16937 -0.28980
 C368 C 0.50186 -0.18760 -0.38316
 C369 C 0.47828 -0.17166 -0.41108
 C370 C 0.48297 -0.13863 -0.35316
 C371 C 0.50946 -0.12160 -0.25837
 C372 C 0.53328 -0.13697 -0.22448
 C373 C 0.55811 -0.18091 -0.26372
 C374 C 0.58462 -0.16381 -0.16859
 C375 C 0.58517 -0.13414 -0.09964
 C376 C 0.56011 -0.12042 -0.12796
 H377 H 0.56011 -0.20263 -0.31740
 H378 H 0.60503 -0.17350 -0.14874
 H379 H 0.60571 -0.12112 -0.02561
 H380 H 0.56210 -0.09661 -0.07443
 H381 H 0.45470 -0.18570 -0.47533
 H382 H 0.46478 -0.12688 -0.38033
 C383 C 0.32494 0.51306 -0.31924
 C384 C 0.30158 0.48021 -0.39269
 C385 C 0.31110 0.45076 -0.39910
 C386 C 0.34308 0.45375 -0.33729
 C387 C 0.36522 0.48475 -0.25767
 C388 C 0.35365 0.51340 -0.24066
 C389 C 0.32142 0.54650 -0.32637
 C390 C 0.34005 0.57657 -0.24290
 C391 C 0.36232 0.57368 -0.15074
 C392 C 0.36908 0.54258 -0.14899
 H393 H 0.30475 0.54976 -0.39825
 H394 H 0.33642 0.60167 -0.24795
 H395 H 0.37513 0.59605 -0.08152
 H396 H 0.38527 0.54188 -0.07187
 H397 H 0.29308 0.42457 -0.45006
 H398 H 0.34984 0.43082 -0.34989
 C399 C 1.19136 0.68598 -0.26813
 C400 C 1.18027 0.70393 -0.35955
 C401 C 1.14096 0.69099 -0.37674
 C402 C 1.11278 0.65923 -0.31280
 C403 C 1.12248 0.64015 -0.22310
 C404 C 1.16250 0.65591 -0.19333
 C405 C 1.23067 0.69709 -0.24984
 C406 C 1.24188 0.68266 -0.15200
 C407 C 1.21427 0.65690 -0.07058
 C408 C 1.17508 0.64349 -0.09078
 H409 H 1.25316 0.71705 -0.31041
 H410 H 1.27222 0.69220 -0.13777
 H411 H 1.22323 0.64713 0.00869
 H412 H 1.15563 0.62484 -0.02142
 H413 H 1.13189 0.70472 -0.44418
 H414 H 1.08287 0.64927 -0.33611
 C415 C 0.84600 0.53960 -0.34895
 C416 C 0.81426 0.50233 -0.37598
 C417 C 0.81479 0.46929 -0.33695
 C418 C 0.84723 0.47251 -0.27950
 C419 C 0.87909 0.50877 -0.25209
 C420 C 0.87800 0.54279 -0.28200
 C421 C 0.84573 0.57376 -0.38146
 C422 C 0.87564 0.60997 -0.34618
 C423 C 0.90588 0.61291 -0.27525
 C424 C 0.90693 0.57973 -0.24217
 H425 H 0.82226 0.57285 -0.43288
 H426 H 0.87486 0.63578 -0.37151
 H427 H 0.92841 0.64100 -0.24448
 H428 H 0.92983 0.58341 -0.18178
 H429 H 0.79044 0.44073 -0.35498
 H430 H 0.84761 0.44635 -0.25704
 C431 C 0.52641 0.32946 -0.28346
 C432 C 0.49523 0.30741 -0.36541
 C433 C 0.46488 0.31546 -0.37145
 C434 C 0.46539 0.34507 -0.30358
 C435 C 0.49552 0.36748 -0.22151
 C436 C 0.52529 0.35771 -0.20471
 C437 C 0.55975 0.32549 -0.28253
 C438 C 0.58883 0.34470 -0.19639
 C439 C 0.58542 0.36832 -0.10956
 C440 C 0.55413 0.37479 -0.11302
 H441 H 0.56395 0.30805 -0.34967
 H442 H 0.61382 0.34075 -0.19586
 H443 H 0.60735 0.38205 -0.03961
 H444 H 0.55285 0.39211 -0.03965
 H445 H 0.43978 0.29804 -0.42782
 H446 H 0.44144 0.35030 -0.31662
 C447 C 0.65736 0.17554 -0.39731
 C448 C 0.69574 0.18597 -0.36498
 C449 C 0.70189 0.16623 -0.26936
 C450 C 0.67079 0.13471 -0.21291
 C451 C 0.63295 0.12164 -0.25270
 C452 C 0.62589 0.14157 -0.34680
 C453 C 0.64960 0.19805 -0.47912
 C454 C 0.61188 0.18561 -0.51742
 C455 C 0.58149 0.15026 -0.47796
 C456 C 0.58825 0.12840 -0.39250
 H457 H 0.67261 0.22538 -0.51350
 H458 H 0.60626 0.20354 -0.57762
 H459 H 0.55237 0.14042 -0.51021
 H460 H 0.56381 0.10160 -0.36108
 H461 H 0.73106 0.17421 -0.24209
 H462 H 0.67632 0.11981 -0.13978
 C463 C 1.19173 0.51415 -0.27951
 C464 C 1.18097 0.48512 -0.37174
 C465 C 1.14141 0.45878 -0.38768
 C466 C 1.11321 0.46148 -0.32040
 C467 C 1.12281 0.48928 -0.22767
 C468 C 1.16289 0.51418 -0.20062
 C469 C 1.23030 0.54456 -0.26777
 C470 C 1.24158 0.57027 -0.16972
 C471 C 1.21454 0.56648 -0.08218
 C472 C 1.17561 0.53907 -0.09756
 H473 H 1.25181 0.54912 -0.33552
 H474 H 1.27151 0.59280 -0.16061
 H475 H 1.22365 0.58525 -0.00278
 H476 H 1.15647 0.53709 -0.02497
 H477 H 1.13186 0.43501 -0.45166
 H478 H 1.08329 0.44112 -0.34211
 C479 C 0.53250 0.68977 -0.36090
 C480 C 0.49565 0.68624 -0.37691
 C481 C 0.46274 0.65403 -0.33016
 C482 C 0.46536 0.62358 -0.27896
 C483 C 0.50122 0.62528 -0.26558
 C484 C 0.53557 0.65987 -0.29989
 C485 C 0.56647 0.72296 -0.40187
 C486 C 0.60284 0.72753 -0.37798
 C487 C 0.60606 0.69964 -0.31119
 C488 C 0.57290 0.66638 -0.27136
 H489 H 0.56526 0.74589 -0.45082
 H490 H 0.62866 0.75326 -0.40887
 H491 H 0.63441 0.70395 -0.28910
 H492 H 0.57712 0.64689 -0.21438
 H493 H 0.43446 0.65142 -0.34014
 H494 H 0.43888 0.59809 -0.25115
 C495 C 0.33349 -0.18274 -0.34903
 C496 C 0.30421 -0.17407 -0.37971
 C497 C 0.30771 -0.13888 -0.34349
 C498 C 0.34123 -0.11084 -0.28649
 C499 C 0.37153 -0.11779 -0.25712
 C500 C 0.36696 -0.15507 -0.28401
 C501 C 0.32981 -0.21879 -0.38147
 C502 C 0.35732 -0.22847 -0.34573
 C503 C 0.38926 -0.20234 -0.27894
 C504 C 0.39448 -0.16597 -0.25031
 H505 H 0.30552 -0.24003 -0.43402
 H506 H 0.35378 -0.25641 -0.36973
 H507 H 0.41050 -0.21009 -0.25037
 H508 H 0.42043 -0.14735 -0.20172
 H509 H 0.28483 -0.13254 -0.36350
 H510 H 0.34327 -0.08341 -0.26381
 C511 C 0.53590 -0.15887 0.32291
 C512 C 0.49846 -0.19058 0.34514
 C513 C 0.46617 -0.19175 0.29115
 C514 C 0.46991 -0.16006 0.22732
 C515 C 0.50632 -0.12695 0.21079
 C516 C 0.54004 -0.12723 0.25152
 C517 C 0.56931 -0.15842 0.36784
 C518 C 0.60612 -0.12803 0.33941
 C519 C 0.61031 -0.09800 0.26455
 C520 C 0.57773 -0.09763 0.22011
 H521 H 0.56734 -0.18174 0.42355
 H522 H 0.63151 -0.12818 0.37361
 H523 H 0.63898 -0.07505 0.23976
 H524 H 0.58254 -0.07476 0.15759
 H525 H 0.43756 -0.21655 0.30474
 H526 H 0.44383 -0.16098 0.19466
 C527 C 0.32246 0.51208 0.30117
 C528 C 0.29506 0.47434 0.34068
 C529 C 0.30053 0.44335 0.31152
 C530 C 0.33471 0.44972 0.25612
 C531 C 0.36379 0.48706 0.22223
 C532 C 0.35677 0.51864 0.23887
 C533 C 0.31630 0.54354 0.32330
 C534 C 0.34257 0.58053 0.28243
 C535 C 0.37556 0.58700 0.21936
 C536 C 0.38279 0.55668 0.19847
 H537 H 0.29100 0.53984 0.37147
 H538 H 0.33723 0.60422 0.29950
 H539 H 0.39596 0.61582 0.18733
 H540 H 0.40913 0.56428 0.15090
 H541 H 0.27903 0.41419 0.33748
 H542 H 0.33848 0.42497 0.24002
 C543 C 1.15661 0.70530 0.26917
 C544 C 1.17798 0.69994 0.36368
 C545 C 1.17001 0.66241 0.39203
 C546 C 1.14058 0.63048 0.33249
 C547 C 1.12023 0.63517 0.23660
 C548 C 1.12846 0.67268 0.20253
 C549 C 1.16198 0.74220 0.24060
 C550 C 1.14200 0.74703 0.14392
 C551 C 1.11597 0.71531 0.07495
 C552 C 1.10895 0.67838 0.10414
 H553 H 1.18132 0.76761 0.29286
 H554 H 1.14677 0.77555 0.12239
 H555 H 1.10077 0.71928 -0.00058
 H556 H 1.08824 0.65443 0.04897
 H557 H 1.18620 0.65769 0.46275
 H558 H 1.13329 0.60182 0.36272
 C559 C 0.52457 0.19271 0.29752
 C560 C 0.48875 0.18317 0.35353
 C561 C 0.45766 0.14559 0.34384
 C562 C 0.46233 0.11656 0.28994
 C563 C 0.49803 0.12406 0.23971
 C564 C 0.52972 0.16320 0.24063
 C565 C 0.55543 0.23135 0.29708
 C566 C 0.59030 0.24138 0.23888
 C567 C 0.59587 0.21297 0.18510
 C568 C 0.56660 0.17436 0.18897
 H569 H 0.55276 0.25430 0.34003
 H570 H 0.61342 0.27122 0.23789
 H571 H 0.62352 0.22073 0.14328
 H572 H 0.57448 0.15432 0.15256
 H573 H 0.42964 0.13835 0.38147
 H574 H 0.43729 0.08776 0.28703
 C575 C 0.68138 0.55044 0.46207
 C576 C 0.69284 0.52171 0.41916
 C577 C 0.67622 0.50092 0.31076
 C578 C 0.64808 0.50242 0.24030
 C579 C 0.63251 0.52608 0.26474
 C580 C 0.64875 0.55380 0.36244
 C581 C 0.69983 0.60232 0.64206
 C582 C 0.67705 0.62887 0.62515
 C583 C 0.64600 0.62075 0.49959
 C584 C 0.63455 0.58784 0.38591
 H585 H 0.71877 0.60912 0.72165
 H586 H 0.68575 0.65144 0.70712
 H587 H 0.66231 0.62649 0.56904
 H588 H 0.61913 0.59360 0.31773
 H589 H 0.68487 0.48065 0.27816
 H590 H 0.63756 0.48314 0.16208
 C591 C 0.81010 0.33098 0.31003
 C592 C 0.82045 0.30393 0.35264
 C593 C 0.85688 0.30898 0.32528
 C594 C 0.88486 0.34276 0.26995
 C595 C 0.87677 0.37174 0.23312
 C596 C 0.83792 0.36469 0.24593
 C597 C 0.77230 0.32483 0.32969
 C598 C 0.76146 0.35050 0.28385
 C599 C 0.78785 0.38262 0.21778
 C600 C 0.82552 0.38978 0.19910
 H601 H 0.75060 0.29991 0.37927
 H602 H 0.73235 0.34528 0.29884
 H603 H 0.77920 0.40239 0.18135
 H604 H 0.84391 0.41536 0.14786
 H605 H 0.86434 0.28742 0.35254
 H606 H 0.91336 0.34619 0.25589
   
