data_POSCAR
  _audit_creation_date              2014-09-24
  _audit_creation_method            'ToBaCCo'
  _symmetry_space_group_name_H-M    'P1'
  _symmetry_Int_Tables_number       1
  _symmetry_cell_setting            triclinic
  loop_
  _symmetry_equiv_pos_as_xyz
 x,y,z
_cell_length_a 25.4495
_cell_length_b 20.8170
_cell_length_c 22.1933
_cell_angle_alpha 89.601500
_cell_angle_beta 90.081900
_cell_angle_gamma 90.076900
loop_
  _atom_site_label
  _atom_site_type_symbol
  _atom_site_fract_x
  _atom_site_fract_y
  _atom_site_fract_z
C1 C 0.21344 0.24804 0.19891
 C2 C 0.21533 0.31397 0.21503
 C3 C 0.25585 0.33648 0.25235
 C4 C 0.29524 0.29523 0.27499
 C5 C 0.29261 0.22870 0.26072
 C6 C 0.25308 0.20718 0.22164
 H7 H 0.25121 0.15608 0.21387
 H8 H 0.25782 0.38755 0.26091
 C9 C 0.79139 0.28556 0.22213
 C10 C 0.79298 0.21687 0.22360
 C11 C 0.76851 0.18380 0.27158
 C12 C 0.74165 0.21628 0.31732
 C13 C 0.73860 0.28385 0.31528
 C14 C 0.76348 0.31722 0.26817
 H15 H 0.76204 0.36928 0.26836
 H16 H 0.76882 0.13173 0.27243
 C17 C 0.68946 0.73860 0.74128
 C18 C 0.69028 0.80644 0.73967
 C19 C 0.72478 0.83972 0.77727
 C20 C 0.76081 0.80815 0.81522
 C21 C 0.75954 0.73953 0.81790
 C22 C 0.72418 0.70603 0.78024
 H23 H 0.72123 0.65426 0.78417
 H24 H 0.72449 0.89187 0.77525
 C25 C 0.28629 0.79784 0.72190
 C26 C 0.28683 0.73337 0.70233
 C27 C 0.24729 0.69133 0.72260
 C28 C 0.20931 0.71032 0.76475
 C29 C 0.20815 0.77592 0.78314
 C30 C 0.24726 0.81826 0.76168
 H31 H 0.24625 0.86864 0.77341
 H32 H 0.24668 0.64237 0.70630
 O33 O 0.94967 -0.03603 -0.03996
 O34 O 1.04647 0.06607 0.04035
 O35 O 1.04775 -0.00220 -0.05626
 O36 O 0.94481 0.04744 0.04906
 O37 O 0.96690 -0.03177 0.11045
 O38 O 1.06529 -0.08748 0.00022
 O39 O 1.07056 -0.01986 0.09257
 O40 O 0.97137 -0.11777 0.01903
 Cu41 Cu 0.99450 0.02705 -0.00739
 Cu42 Cu 1.01841 -0.07125 0.06302
 C43 C 0.94523 -0.09499 -0.02462
 C44 C 1.07647 0.03881 0.07877
 C45 C 1.07401 -0.05284 -0.04621
 C46 C 0.93955 0.01789 0.09876
 O47 O 0.55928 0.43417 0.46893
 O48 O 0.45881 0.48833 0.57624
 O49 O 0.45680 0.43404 0.47026
 O50 O 0.56109 0.48384 0.57574
 O51 O 0.56107 0.58030 0.53356
 O52 O 0.45537 0.53136 0.42995
 O53 O 0.46020 0.58479 0.53417
 O54 O 0.55859 0.52961 0.42493
 Cu55 Cu 0.50887 0.45032 0.52682
 Cu56 Cu 0.50933 0.56602 0.47595
 C57 C 0.57599 0.47262 0.42859
 C58 C 0.44272 0.54605 0.57378
 C59 C 0.43785 0.47431 0.43283
 C60 C 0.57821 0.54103 0.57309
 O61 O -0.04342 0.39075 -0.02956
 O62 O 0.04182 0.51582 -0.09806
 O63 O 0.05551 0.41613 -0.03131
 O64 O -0.05821 0.48593 -0.10792
 O65 O -0.07173 0.55201 -0.03216
 O66 O 0.04084 0.47641 0.04851
 O67 O 0.02794 0.57731 -0.01894
 O68 O -0.06022 0.45642 0.04562
 Cu69 Cu -0.00046 0.44617 -0.07485
 Cu70 Cu -0.01770 0.52174 0.01845
 C71 C -0.06530 0.40211 0.02075
 C72 C 0.05050 0.56717 -0.06876
 C73 C 0.06763 0.43375 0.02137
 C74 C -0.08351 0.53174 -0.08452
 O75 O 0.46005 1.08767 0.48742
 O76 O 0.54727 0.96765 0.55146
 O77 O 0.55784 1.05512 0.46774
 O78 O 0.44622 0.98511 0.55487
 O79 O 0.42886 0.92311 0.47694
 O80 O 0.54005 0.98788 0.39387
 O81 O 0.53018 0.90024 0.47769
 O82 O 0.44338 1.02497 0.40981
 Cu83 Cu 0.50451 1.03021 0.52264
 Cu84 Cu 0.48383 0.95274 0.43231
 C85 C 0.43712 1.07774 0.43784
 C86 C 0.55369 0.91362 0.52682
 C87 C 0.56762 1.03265 0.41554
 C88 C 0.41842 0.94189 0.52960
 C89 C 1.17082 0.22288 0.16486
 C90 C 1.17079 0.16464 0.13927
 C91 C 1.12387 0.13696 0.11056
 C92 C 1.12044 0.07314 0.10658
 H93 H 1.20549 0.13486 0.13928
 H94 H 1.09219 0.16760 0.09494
 H95 H 1.13551 0.25133 0.15966
 H96 H 1.15126 0.04368 0.12621
 C97 C 0.64883 0.70300 0.70702
 C98 C 0.65717 0.64682 0.67989
 C99 C 0.61784 0.62276 0.63677
 C100 C 0.61780 0.56235 0.61703
 H101 H 0.69380 0.62113 0.68606
 H102 H 0.58776 0.65566 0.62077
 H103 H 0.61141 0.72665 0.69971
 H104 H 0.64524 0.52766 0.63552
 C105 C -0.18446 0.32653 0.17872
 C106 C -0.14684 0.31199 0.13864
 C107 C -0.12387 0.36336 0.10081
 C108 C -0.09466 0.35078 0.05221
 H109 H -0.12913 0.26522 0.13591
 H110 H -0.12986 0.41282 0.11420
 H111 H -0.19574 0.37683 0.17988
 H112 H -0.09017 0.30170 0.03707
 C113 C 0.32559 0.84542 0.70106
 C114 C 0.32562 0.86605 0.64403
 C115 C 0.36802 0.90678 0.61944
 C116 C 0.37326 0.91175 0.55977
 H117 H 0.29559 0.84823 0.61361
 H118 H 0.39696 0.92790 0.64924
 H119 H 0.35446 0.86313 0.73281
 H120 H 0.34542 0.88698 0.53102
 C121 C -0.21085 0.70223 -0.13585
 C122 C -0.18634 0.64721 -0.14878
 C123 C -0.15094 0.61522 -0.10511
 C124 C -0.12546 0.56179 -0.12086
 H125 H -0.18963 0.62759 -0.19376
 H126 H -0.14347 0.63718 -0.06179
 H127 H -0.20656 0.72237 -0.09121
 H128 H -0.13320 0.54105 -0.16469
 C129 C 0.32661 1.18076 0.28377
 C130 C 0.34857 1.18146 0.33852
 C131 C 0.38126 1.12741 0.35956
 C132 C 0.40331 1.12909 0.41400
 H133 H 0.34041 1.21997 0.36965
 H134 H 0.38774 1.08662 0.33039
 H135 H 0.33075 1.13681 0.25813
 H136 H 0.39720 1.17071 0.44227
 C137 C 1.16313 -0.19762 -0.18227
 C138 C 1.16724 -0.14839 -0.14424
 C139 C 1.12288 -0.13086 -0.10545
 C140 C 1.11597 -0.07036 -0.08808
 H141 H 1.20380 -0.12235 -0.13919
 H142 H 1.09537 -0.16783 -0.09128
 H143 H 1.12519 -0.22082 -0.18674
 H144 H 1.14070 -0.03252 -0.10630
 C145 C 0.70797 0.31931 0.36134
 C146 C 0.67885 0.37113 0.34863
 C147 C 0.64309 0.39710 0.39445
 C148 C 0.61538 0.45066 0.38485
 H149 H 0.67855 0.39174 0.30368
 H150 H 0.63823 0.37067 0.43637
 H151 H 0.70616 0.29982 0.40659
 H152 H 0.62135 0.47856 0.34401
 C153 C 0.79521 -0.15123 -0.15215
 C154 C 0.84178 -0.16751 -0.12852
 C155 C 0.87368 -0.11983 -0.09593
 C156 C 0.91129 -0.13931 -0.05821
 H157 H 0.85841 -0.21466 -0.13454
 H158 H 0.86552 -0.06902 -0.10148
 H159 H 0.78455 -0.10086 -0.14897
 H160 H 0.91709 -0.19037 -0.05071
 C161 C 0.34185 0.32264 0.30662
 C162 C 0.34093 0.37619 0.33964
 C163 C 0.38721 0.39510 0.37538
 C164 C 0.39406 0.45565 0.39326
 H165 H 0.30564 0.40487 0.34304
 H166 H 0.41600 0.35882 0.38740
 H167 H 0.37861 0.29663 0.30389
 H168 H 0.36725 0.49273 0.37785
 C169 C 0.17445 0.66197 -0.21449
 C170 C 0.15166 0.66131 -0.16015
 C171 C 0.11429 0.61057 -0.14237
 C172 C 0.08756 0.61599 -0.09097
 H173 H 0.16148 0.69723 -0.12700
 H174 H 0.10821 0.56952 -0.17136
 H175 H 0.16889 0.61988 -0.24241
 H176 H 0.09359 0.65795 -0.06307
 C177 C 0.71311 1.17914 0.36437
 C178 C 0.67993 1.13207 0.34984
 C179 C 0.64353 1.10400 0.39449
 C180 C 0.60984 1.05858 0.37731
 H181 H 0.67661 1.11747 0.30316
 H182 H 0.64248 1.12248 0.44002
 H183 H 0.71519 1.19456 0.41078
 H184 H 0.61200 1.04050 0.33165
 C185 C 0.17714 0.36173 0.19148
 C186 C 0.16863 0.36805 0.13238
 C187 C 0.12596 0.40819 0.10781
 C188 C 0.11320 0.40257 0.04973
 H189 H 0.19147 0.33909 0.10153
 H190 H 0.10314 0.43854 0.13738
 H191 H 0.15645 0.39203 0.22306
 H192 H 0.13576 0.37028 0.02165
 C193 C 0.65445 0.84607 0.70203
 C194 C 0.64285 0.83420 0.64424
 C195 C 0.60798 0.87855 0.61145
 C196 C 0.58865 0.86650 0.55646
 H197 H 0.65911 0.79298 0.62136
 H198 H 0.59712 0.92262 0.63402
 H199 H 0.63946 0.88963 0.72232
 H200 H 0.59791 0.82196 0.53387
 C201 C 0.81487 0.17783 0.17399
 C202 C 0.84548 0.12661 0.18433
 C203 C 0.87322 0.09456 0.13469
 C204 C 0.90350 0.04303 0.14486
 H205 H 0.85329 0.11107 0.23019
 H206 H 0.87149 0.11593 0.09003
 H207 H 0.80726 0.19294 0.12798
 H208 H 0.90461 0.02140 0.18941
 C209 C 0.32805 0.70980 0.66046
 C210 C 0.34598 0.64937 0.66139
 C211 C 0.38585 0.62839 0.61787
 C212 C 0.40336 0.56787 0.61757
 H213 H 0.33173 0.61516 0.69455
 H214 H 0.40072 0.66292 0.58527
 H215 H 0.34514 0.74313 0.62842
 H216 H 0.38845 0.53344 0.65020
   
