data_POSCAR
  _audit_creation_date              2014-09-24
  _audit_creation_method            'ToBaCCo'
  _symmetry_space_group_name_H-M    'P1'
  _symmetry_Int_Tables_number       1
  _symmetry_cell_setting            triclinic
  loop_
  _symmetry_equiv_pos_as_xyz
 x,y,z
_cell_length_a 17.9045
_cell_length_b 17.9449
_cell_length_c 22.4950
_cell_angle_alpha 90.056800
_cell_angle_beta 89.982900
_cell_angle_gamma 90.064000
loop_
  _atom_site_label
  _atom_site_type_symbol
  _atom_site_fract_x
  _atom_site_fract_y
  _atom_site_fract_z
Si1 Si 1.25028 0.25130 0.25118
 Si2 Si 0.75004 -0.25110 0.25142
 Si3 Si 0.74945 0.24974 -0.24879
 Si4 Si 1.25195 -0.25062 -0.24825
 Si5 Si 0.24918 0.24975 0.75165
 Si6 Si 0.74957 0.75163 0.75053
 Si7 Si 0.75076 0.24996 0.25141
 Si8 Si 0.24891 0.74962 0.25076
 O9 O 1.11168 0.07177 0.07404
 O10 O 0.88775 -0.07433 0.07261
 O11 O 0.92916 0.11115 0.07360
 O12 O 1.07110 -0.11535 0.07373
 O13 O 0.84074 0.04255 0.04203
 O14 O 1.15947 -0.04534 0.04379
 O15 O 0.95493 -0.16245 0.03944
 O16 O 1.04513 0.15964 0.04010
 C17 C 1.08571 0.13475 0.08042
 C18 C 0.91400 -0.13713 0.07946
 C19 C 0.86684 0.08387 0.08162
 C20 C 1.13324 -0.08789 0.08256
 O21 O 1.13559 -0.00517 -0.07260
 O22 O 0.86685 0.00283 -0.07422
 O23 O 1.00278 0.13142 -0.07419
 O24 O 0.99846 -0.13447 -0.07489
 O25 O 0.88776 -0.12174 -0.04260
 O26 O 1.11348 0.11903 -0.04162
 O27 O 1.12304 -0.11491 -0.03956
 O28 O 0.87813 0.11224 -0.04021
 Co29 Co 1.11770 0.03153 0.00080
 Co30 Co 0.88306 -0.03413 -0.00059
 Co31 Co 0.96741 0.11586 -0.00020
 Co32 Co 1.03325 -0.11913 -0.00042
 O33 O 1.00038 -0.00149 -0.00001
 C34 C 1.14439 -0.07252 -0.07996
 C35 C 0.85758 0.07022 -0.08117
 C36 C 1.07041 0.13896 -0.08225
 C37 C 0.93076 -0.14121 -0.08335
 O38 O 1.11457 0.62316 0.54443
 O39 O 0.88842 0.37949 0.54550
 O40 O 0.88025 0.61388 0.54504
 O41 O 1.12288 0.38885 0.54591
 O42 O 0.86805 0.50381 0.57812
 O43 O 1.13546 0.49910 0.57844
 O44 O 0.99846 0.36824 0.57880
 O45 O 1.00430 0.63550 0.57710
 C46 C 1.07177 0.64333 0.58510
 C47 C 0.93094 0.35970 0.58642
 C48 C 0.85988 0.57123 0.58577
 C49 C 1.14284 0.43166 0.58662
 O50 O 1.16221 0.45636 0.46338
 O51 O 0.84107 0.54488 0.46304
 O52 O 1.04613 0.66069 0.46124
 O53 O 0.95712 0.34065 0.46324
 O54 O 0.88913 0.42862 0.43081
 O55 O 1.11519 0.57254 0.43022
 O56 O 1.07381 0.38816 0.43135
 O57 O 0.92928 0.61231 0.42996
 Co58 Co 1.11939 0.53419 0.50422
 Co59 Co 0.88424 0.46781 0.50437
 Co60 Co 0.96858 0.61817 0.50342
 Co61 Co 1.03447 0.38387 0.50484
 O62 O 1.00169 0.50102 0.50411
 C63 C 1.13645 0.41490 0.42379
 C64 C 0.86647 0.58577 0.42302
 C65 C 1.08849 0.63495 0.42208
 C66 C 0.91554 0.36596 0.42355
 O67 O 0.61128 0.07070 0.57052
 O68 O 0.38532 -0.07246 0.57021
 O69 O 0.42680 0.11156 0.57096
 O70 O 0.56973 -0.11419 0.56929
 O71 O 0.33790 0.04413 0.53882
 O72 O 0.65804 -0.04574 0.53747
 O73 O 0.45254 -0.16063 0.53705
 O74 O 0.54333 0.15915 0.53883
 C75 C 0.58524 0.13345 0.57812
 C76 C 0.41185 -0.13507 0.57719
 C77 C 0.36381 0.08567 0.57832
 C78 C 0.63242 -0.08750 0.57684
 O79 O 0.63175 -0.00311 0.42269
 O80 O 0.36406 0.00292 0.42332
 O81 O 0.50120 0.13349 0.42345
 O82 O 0.49375 -0.13346 0.42179
 O83 O 0.38365 -0.12128 0.45518
 O84 O 0.61148 0.12074 0.45621
 O85 O 0.61854 -0.11347 0.45481
 O86 O 0.37687 0.11274 0.45661
 Co87 Co 0.61559 0.03210 0.49668
 Co88 Co 0.38030 -0.03311 0.49685
 Co89 Co 0.46554 0.11674 0.49732
 Co90 Co 0.53013 -0.11797 0.49575
 O91 O 0.49791 -0.00057 0.49673
 C92 C 0.63972 -0.07045 0.41471
 C93 C 0.35625 0.07029 0.41590
 C94 C 0.56878 0.14158 0.41575
 C95 C 0.42608 -0.14169 0.41429
 O96 O 0.61345 0.57244 0.07262
 O97 O 0.38791 0.42931 0.07414
 O98 O 0.42742 0.61353 0.07383
 O99 O 0.57273 0.38906 0.07313
 O100 O 0.33907 0.54517 0.04206
 O101 O 0.66105 0.45637 0.04013
 O102 O 0.45589 0.34127 0.04169
 O103 O 0.54444 0.66036 0.04129
 C104 C 0.58566 0.63434 0.08084
 C105 C 0.41529 0.36716 0.08172
 C106 C 0.36448 0.58734 0.08140
 C107 C 0.63577 0.41515 0.08002
 O108 O 0.63264 0.49784 -0.07510
 O109 O 0.36562 0.50292 -0.07333
 O110 O 0.50271 0.63481 -0.07394
 O111 O 0.49617 0.36714 -0.07380
 O112 O 0.38608 0.37909 -0.04029
 O113 O 0.61319 0.62219 -0.04146
 O114 O 0.62115 0.38803 -0.04176
 O115 O 0.37796 0.61308 -0.04066
 Co116 Co 0.61747 0.53358 -0.00098
 Co117 Co 0.38229 0.46774 0.00053
 Co118 Co 0.46670 0.61811 0.00002
 Co119 Co 0.53291 0.38378 -0.00024
 O120 O 0.49983 0.50083 -0.00009
 C121 C 0.64040 0.43038 -0.08289
 C122 C 0.35838 0.57029 -0.08148
 C123 C 0.57034 0.64327 -0.08172
 C124 C 0.42857 0.35817 -0.08095
 N125 N 1.07598 0.24348 0.14540
 N126 N 1.11385 0.27494 0.18949
 C127 C 1.17231 0.22989 0.20098
 C128 C 1.16934 0.17018 0.16287
 N129 N 1.10863 0.18056 0.12904
 H130 H 1.20940 0.12537 0.15823
 N131 N 1.05667 0.71258 0.67760
 N132 N 1.09851 0.74055 0.72085
 C133 C 1.16989 0.72419 0.70707
 C134 C 1.17080 0.68565 0.65421
 N135 N 1.09923 0.67973 0.63721
 H136 H 1.21871 0.66385 0.63053
 N137 N 0.57555 0.24008 0.64489
 N138 N 0.61352 0.27102 0.68908
 C139 C 0.67329 0.22715 0.69917
 C140 C 0.67084 0.16827 0.66005
 N141 N 0.60916 0.17836 0.62702
 H142 H 0.71139 0.12407 0.65456
 N143 N 0.57414 0.74018 0.14836
 N144 N 0.61185 0.77069 0.19290
 C145 C 0.67064 0.72572 0.20358
 C146 C 0.66804 0.66700 0.16462
 N147 N 0.60734 0.67806 0.13089
 H148 H 0.70889 0.62312 0.15880
 N149 N 0.92394 -0.24485 0.14527
 N150 N 0.88629 -0.27552 0.18978
 C151 C 0.82796 -0.23020 0.20112
 C152 C 0.83074 -0.17117 0.16247
 N153 N 0.89122 -0.18222 0.12845
 H154 H 0.79067 -0.12642 0.15757
 N155 N 0.94544 0.28997 0.67874
 N156 N 0.90327 0.26079 0.72126
 C157 C 0.83181 0.27589 0.70682
 C158 C 0.83130 0.31512 0.65428
 N159 N 0.90312 0.32259 0.63815
 H160 H 0.78346 0.33646 0.63031
 N161 N 0.42371 -0.24161 0.64365
 N162 N 0.38694 -0.27237 0.68853
 C163 C 0.32769 -0.22817 0.69972
 C164 C 0.32911 -0.16948 0.66065
 N165 N 0.38968 -0.17987 0.62648
 H166 H 0.28835 -0.12537 0.65576
 N167 N 0.42630 0.26034 0.14814
 N168 N 0.38832 0.22932 0.19229
 C169 C 0.32975 0.27442 0.20341
 C170 C 0.33277 0.33376 0.16518
 N171 N 0.39351 0.32295 0.13141
 H172 H 0.29218 0.37796 0.15984
 N173 N 0.78044 0.05650 -0.16979
 N174 N 0.75107 0.09840 -0.21226
 C175 C 0.77166 0.16926 -0.20083
 C176 C 0.81465 0.16962 -0.15001
 N177 N 0.81863 0.09831 -0.13198
 H178 H 0.84122 0.21686 -0.12873
 N179 N 0.75814 0.57580 0.35769
 N180 N 0.72691 0.61339 0.31350
 C181 C 0.77218 0.67172 0.30193
 C182 C 0.83196 0.66888 0.34004
 N183 N 0.82118 0.60843 0.37407
 H184 H 0.87697 0.70885 0.34456
 N185 N 0.28446 0.05615 0.32466
 N186 N 0.25587 0.09844 0.28213
 C187 C 0.27330 0.16942 0.29608
 C188 C 0.31330 0.16969 0.34813
 N189 N 0.31888 0.09813 0.36459
 H190 H 0.33667 0.21709 0.37146
 N191 N 0.30316 0.55536 -0.17954
 N192 N 0.27598 0.59717 -0.22292
 C193 C 0.27981 0.66834 -0.20396
 C194 C 0.31031 0.66922 -0.14791
 N195 N 0.32394 0.59772 -0.13427
 H196 H 0.32260 0.71706 -0.12020
 N197 N 1.22259 -0.05821 -0.16784
 N198 N 1.25182 -0.09978 -0.21064
 C199 C 1.23019 -0.17050 -0.20005
 C200 C 1.18686 -0.17121 -0.14949
 N201 N 1.18364 -0.10020 -0.13070
 H202 H 1.15957 -0.21845 -0.12886
 N203 N 1.24384 0.42467 0.35744
 N204 N 1.27429 0.38702 0.31286
 C205 C 1.22875 0.32875 0.30169
 C206 C 1.16965 0.33164 0.34046
 N207 N 1.18108 0.39206 0.37448
 H208 H 1.12469 0.29169 0.34544
 N209 N 0.71497 -0.05591 0.32514
 N210 N 0.74506 -0.09818 0.28315
 C211 C 0.72638 -0.16911 0.29618
 C212 C 0.68404 -0.16934 0.34702
 N213 N 0.67835 -0.09787 0.36378
 H214 H 0.65931 -0.21672 0.36943
 N215 N 0.69622 0.44426 -0.18092
 N216 N 0.72418 0.40208 -0.22386
 C217 C 0.72087 0.33108 -0.20452
 C218 C 0.68974 0.33075 -0.14859
 N219 N 0.67530 0.40237 -0.13548
 H220 H 0.67757 0.28317 -0.12065
 N221 N 1.05502 0.19825 -0.17866
 N222 N 1.09667 0.22698 -0.22160
 C223 C 1.16823 0.22155 -0.20356
 C224 C 1.16948 0.18832 -0.14851
 N225 N 1.09781 0.17482 -0.13453
 H226 H 1.21766 0.17421 -0.12172
 N227 N 1.07840 0.74105 0.35455
 N228 N 1.11589 0.77155 0.30985
 C229 C 1.17527 0.72731 0.29913
 C230 C 1.17309 0.66872 0.33872
 N231 N 1.11192 0.67933 0.37247
 H232 H 1.21379 0.62468 0.34430
 N233 N 0.55478 0.21469 0.32512
 N234 N 0.59726 0.24394 0.28285
 C235 C 0.66841 0.22625 0.29639
 C236 C 0.66847 0.18532 0.34799
 N237 N 0.59671 0.17951 0.36457
 H238 H 0.71594 0.16156 0.37097
 N239 N 0.55615 0.72095 -0.16986
 N240 N 0.59806 0.75049 -0.21235
 C241 C 0.66901 0.72942 -0.20145
 C242 C 0.66943 0.68598 -0.15102
 N243 N 0.59809 0.68220 -0.13262
 H244 H 0.71675 0.65910 -0.13017
 N245 N 0.94481 -0.19541 -0.18201
 N246 N 0.90241 -0.22271 -0.22512
 C247 C 0.83129 -0.21974 -0.20558
 C248 C 0.83110 -0.18959 -0.14938
 N249 N 0.90290 -0.17530 -0.13628
 H250 H 0.78347 -0.17807 -0.12117
 N251 N 0.92477 0.25811 0.35771
 N252 N 0.88686 0.22715 0.31345
 C253 C 0.82827 0.27216 0.30222
 C254 C 0.83133 0.33158 0.34073
 N255 N 0.89216 0.32081 0.37458
 H256 H 0.79135 0.37643 0.34554
 N257 N 0.44009 -0.21468 0.32345
 N258 N 0.39796 -0.24409 0.28099
 C259 C 0.32664 -0.22650 0.29409
 C260 C 0.32622 -0.18532 0.34587
 N261 N 0.39798 -0.17940 0.36282
 H262 H 0.27862 -0.16168 0.36881
 N263 N 0.44264 0.28042 -0.16912
 N264 N 0.40075 0.25084 -0.21163
 C265 C 0.32980 0.27170 -0.20049
 C266 C 0.32932 0.31499 -0.14992
 N267 N 0.40066 0.31893 -0.13166
 H268 H 0.28199 0.34180 -0.12895
 N269 N 1.23854 -0.07715 0.15110
 N270 N 1.26926 -0.11520 0.19530
 C271 C 1.22540 -0.17518 0.20490
 C272 C 1.16685 -0.17279 0.16524
 N273 N 1.17711 -0.11097 0.13247
 H274 H 1.12348 -0.21408 0.15856
 N275 N 1.21030 0.44590 0.68022
 N276 N 1.23840 0.40351 0.72297
 C277 C 1.22362 0.33231 0.70779
 C278 C 1.18576 0.33214 0.65464
 N279 N 1.17872 0.40389 0.63884
 H280 H 1.16513 0.28455 0.62995
 N281 N 0.73894 -0.07596 0.64359
 N282 N 0.77013 -0.11303 0.68803
 C283 C 0.72653 -0.17294 0.69844
 C284 C 0.66763 -0.17154 0.65932
 N285 N 0.67740 -0.11031 0.62592
 H286 H 0.62370 -0.21254 0.65400
 N287 N 0.74406 0.42434 0.14579
 N288 N 0.77494 0.38639 0.19000
 C289 C 0.72965 0.32790 0.20102
 C290 C 0.67031 0.33100 0.16239
 N291 N 0.68122 0.39178 0.12877
 H292 H 0.62536 0.29106 0.15735
 N293 N 0.76028 0.07335 0.14883
 N294 N 0.72939 0.11152 0.19294
 C295 C 0.77423 0.17054 0.20339
 C296 C 0.83339 0.16752 0.16464
 N297 N 0.82265 0.10634 0.13134
 H298 H 0.87748 0.20823 0.15878
 N299 N 0.78819 0.55652 0.67719
 N300 N 0.75884 0.59844 0.71976
 C301 C 0.77553 0.66965 0.70610
 C302 C 0.81581 0.67033 0.65403
 N303 N 0.82235 0.59882 0.63735
 H304 H 0.83836 0.71806 0.63067
 N305 N 0.25672 0.07649 0.64491
 N306 N 0.22615 0.11447 0.68923
 C307 C 0.27084 0.17365 0.69955
 C308 C 0.32975 0.17085 0.66047
 N309 N 0.31894 0.10956 0.62722
 H310 H 0.37449 0.21095 0.65514
 N311 N 0.25746 0.57767 0.14862
 N312 N 0.22649 0.61570 0.19286
 C313 C 0.27053 0.67544 0.20291
 C314 C 0.32932 0.67297 0.16337
 N315 N 0.31926 0.61124 0.13043
 H316 H 0.37330 0.71376 0.15732
   
