data_POSCAR
  _audit_creation_date              2014-09-24
  _audit_creation_method            'ToBaCCo'
  _symmetry_space_group_name_H-M    'P1'
  _symmetry_Int_Tables_number       1
  _symmetry_cell_setting            triclinic
  loop_
  _symmetry_equiv_pos_as_xyz
 x,y,z
_cell_length_a 35.5559
_cell_length_b 36.8635
_cell_length_c 37.6781
_cell_angle_alpha 84.682900
_cell_angle_beta 95.120700
_cell_angle_gamma 96.930700
loop_
  _atom_site_label
  _atom_site_type_symbol
  _atom_site_fract_x
  _atom_site_fract_y
  _atom_site_fract_z
C1 C 0.20651 0.27342 0.28926
 C2 C 0.23296 0.29638 0.26382
 C3 C 0.25303 0.27629 0.24536
 C4 C 0.24487 0.23464 0.25421
 C5 C 0.18147 0.24704 0.26543
 C6 C 0.20148 0.22675 0.24704
 C7 C 0.23203 0.24914 0.31322
 C8 C 0.25215 0.22879 0.29508
 H9 H 0.23460 0.32601 0.25998
 H10 H 0.26118 0.21822 0.23914
 H11 H 0.15074 0.24519 0.26269
 H12 H 0.23356 0.24801 0.34214
 C13 C 0.71138 0.77928 0.27891
 C14 C 0.73353 0.80211 0.24995
 C15 C 0.75455 0.78245 0.23201
 C16 C 0.75118 0.74137 0.24442
 C17 C 0.68745 0.74865 0.25932
 C18 C 0.70818 0.72896 0.24104
 C19 C 0.74119 0.75984 0.30276
 C20 C 0.76201 0.73986 0.28494
 H21 H 0.73286 0.83141 0.24450
 H22 H 0.76810 0.72522 0.22967
 H23 H 0.65676 0.74386 0.25882
 H24 H 0.74468 0.76115 0.33149
 C25 C 0.71604 0.29025 0.77668
 C26 C 0.74310 0.31402 0.75610
 C27 C 0.76624 0.29494 0.73673
 C28 C 0.75798 0.25508 0.74176
 C29 C 0.69311 0.26595 0.74950
 C30 C 0.71503 0.24741 0.73121
 C31 C 0.73967 0.26413 0.80060
 C32 C 0.76177 0.24565 0.78252
 H33 H 0.74476 0.34366 0.75469
 H34 H 0.77566 0.23979 0.72690
 H35 H 0.66243 0.26363 0.74508
 H36 H 0.73871 0.26060 0.82939
 C37 C 0.22307 0.78487 0.78866
 C38 C 0.25312 0.80882 0.76766
 C39 C 0.27497 0.78958 0.75011
 C40 C 0.26486 0.74773 0.75544
 C41 C 0.20046 0.76103 0.76098
 C42 C 0.22223 0.74153 0.74369
 C43 C 0.24535 0.75836 0.81345
 C44 C 0.26738 0.73896 0.79626
 H45 H 0.25589 0.83850 0.76601
 H46 H 0.28262 0.73196 0.74117
 H47 H 0.16993 0.75971 0.75545
 H48 H 0.24404 0.75567 0.84220
 C49 C 0.03279 0.06004 0.01305
 H50 H 0.01622 0.07259 -0.00905
 C51 C 0.05329 0.08237 0.03760
 H52 H 0.05153 0.11163 0.03432
 C53 C 0.05637 0.00738 0.04354
 H54 H 0.05793 -0.02177 0.04561
 C55 C 0.07801 0.02889 0.06841
 H56 H 0.09541 0.01588 0.08979
 N57 N 0.03345 0.02302 0.01701
 C58 C 0.01189 -0.05681 -0.06340
 H59 H -0.01879 -0.06203 -0.06458
 C60 C 0.03246 -0.07671 -0.08308
 H61 H 0.01728 -0.09723 -0.09944
 C62 C 0.06874 -0.02387 -0.04016
 H63 H 0.08272 -0.00314 -0.02348
 C64 C 0.09044 -0.04322 -0.05926
 H65 H 0.12108 -0.03714 -0.05694
 Zn66 Zn 0.00093 -0.00645 -0.01511
 N67 N 0.03023 -0.03111 -0.04239
 C68 C -0.02814 0.02853 -0.08165
 N69 N -0.02937 0.02477 -0.04547
 C70 C -0.05224 0.04387 -0.02903
 C71 C -0.07516 0.06764 -0.04888
 C72 C -0.05076 0.05220 -0.10270
 C73 C -0.01707 -0.06752 0.03520
 C74 C -0.04081 -0.09153 0.05668
 C75 C -0.09479 -0.06474 0.02641
 C76 C -0.07017 -0.04164 0.00536
 N77 N -0.03187 -0.04214 0.01105
 H78 H -0.00954 0.01336 -0.09420
 H79 H -0.05252 0.04062 -0.00021
 H80 H -0.09301 0.08241 -0.03491
 H81 H -0.04943 0.05490 -0.13143
 H82 H 0.01317 -0.06902 0.03812
 H83 H -0.02838 -0.11067 0.07657
 H84 H -0.12505 -0.06294 0.02203
 H85 H -0.08198 -0.02312 -0.01529
 C86 C 0.07234 -0.07020 -0.08097
 C87 C 0.07577 0.06678 0.06605
 C88 C -0.08015 -0.08948 0.05310
 C89 C -0.07470 0.07214 -0.08625
 C90 C 0.05892 0.57053 0.50970
 H91 H 0.04551 0.58200 0.48506
 C92 C 0.08219 0.59371 0.53174
 H93 H 0.08592 0.62288 0.52401
 C94 C 0.07072 0.51883 0.54951
 H95 H 0.06585 0.48969 0.55654
 C96 C 0.09488 0.54102 0.57208
 H97 H 0.10816 0.52870 0.59650
 N98 N 0.05246 0.53398 0.51946
 C99 C 0.01859 0.44884 0.44602
 H100 H -0.01198 0.44546 0.44684
 C101 C 0.03592 0.42610 0.42636
 H102 H 0.01836 0.40528 0.41202
 C103 C 0.07847 0.48003 0.46413
 H104 H 0.09490 0.50113 0.47890
 C105 C 0.09698 0.45787 0.44492
 H106 H 0.12766 0.46226 0.44518
 Zn107 Zn 0.01556 0.50473 0.49125
 N108 N 0.03998 0.47519 0.46430
 C109 C -0.01843 0.53442 0.42452
 N110 N -0.01378 0.53656 0.46055
 C111 C -0.02983 0.56202 0.47626
 C112 C -0.05220 0.58599 0.45590
 C113 C -0.04081 0.55792 0.40301
 C114 C -0.00346 0.44416 0.54102
 C115 C -0.02631 0.42175 0.56459
 C116 C -0.07668 0.45977 0.54726
 C117 C -0.05323 0.48093 0.52368
 N118 N -0.01692 0.47360 0.52165
 H119 H -0.00504 0.51439 0.41239
 H120 H -0.02536 0.56352 0.50490
 H121 H -0.06486 0.60568 0.46930
 H122 H -0.04454 0.55555 0.37445
 H123 H 0.02506 0.43806 0.53821
 H124 H -0.01497 0.39882 0.58024
 H125 H -0.10522 0.46664 0.54884
 H126 H -0.06427 0.50337 0.50734
 C127 C 0.07568 0.43043 0.42569
 C128 C 0.09988 0.57911 0.56374
 C129 C -0.06318 0.43001 0.56839
 C130 C -0.05826 0.58400 0.41876
 C131 C 0.54517 0.06544 0.50820
 H132 H 0.52473 0.07469 0.48740
 C133 C 0.56738 0.09103 0.52850
 H134 H 0.56377 0.11981 0.52303
 C135 C 0.57393 0.01675 0.54123
 H136 H 0.57553 -0.01239 0.54656
 C137 C 0.59717 0.04150 0.56187
 H138 H 0.61671 0.03118 0.58304
 N139 N 0.54825 0.02902 0.51530
 C140 C 0.51787 -0.05679 0.44147
 H141 H 0.48722 -0.06044 0.44147
 C142 C 0.53582 -0.07722 0.41998
 H143 H 0.51868 -0.09679 0.40381
 C144 C 0.57715 -0.02624 0.46205
 H145 H 0.59320 -0.00613 0.47821
 C146 C 0.59625 -0.04600 0.44093
 H147 H 0.62691 -0.04093 0.44140
 Zn148 Zn 0.51322 -0.00549 0.49165
 N149 N 0.53867 -0.03223 0.46233
 C150 C 0.47646 0.02446 0.42700
 N151 N 0.47629 0.02004 0.46327
 C152 C 0.45093 0.03539 0.48046
 C153 C 0.42469 0.05637 0.46128
 C154 C 0.45058 0.04531 0.40668
 C155 C 0.47963 -0.07378 0.52497
 C156 C 0.45988 -0.09530 0.55143
 C157 C 0.46090 -0.04138 0.58347
 C158 C 0.48055 -0.02102 0.55654
 N159 N 0.48884 -0.03714 0.52760
 H160 H 0.49724 0.01260 0.41382
 H161 H 0.45147 0.03205 0.50923
 H162 H 0.40516 0.06858 0.47578
 H163 H 0.45152 0.04893 0.37792
 H164 H 0.48700 -0.08642 0.50225
 H165 H 0.45210 -0.12423 0.54847
 H166 H 0.45414 -0.02761 0.60586
 H167 H 0.48893 0.00794 0.55859
 C168 C 0.57559 -0.07211 0.41969
 C169 C 0.59336 0.07911 0.55612
 C170 C 0.44974 -0.07896 0.58092
 C171 C 0.42443 0.06188 0.42389
 C172 C 0.56051 0.53425 0.01880
 H173 H 0.56417 0.53867 -0.00953
 C174 C 0.58319 0.55602 0.04271
 H175 H 0.60438 0.57708 0.03254
 C176 C 0.52728 0.50245 0.06620
 H177 H 0.50492 0.48217 0.07524
 C178 C 0.54885 0.52397 0.09091
 H179 H 0.54315 0.51950 0.11883
 N180 N 0.53342 0.50786 0.03087
 C181 C 0.50985 0.43480 -0.05576
 H182 H 0.47917 0.43313 -0.05920
 C183 C 0.52941 0.41600 -0.07743
 H184 H 0.51346 0.39998 -0.09758
 C185 C 0.56766 0.45759 -0.02504
 H186 H 0.58250 0.47330 -0.00424
 C187 C 0.58834 0.43927 -0.04607
 H188 H 0.61898 0.44155 -0.04130
 Zn189 Zn 0.50102 0.48135 -0.00291
 N190 N 0.52918 0.45565 -0.03065
 C191 C 0.47357 0.51913 -0.06841
 N192 N 0.47444 0.51617 -0.03208
 C193 C 0.45624 0.53866 -0.01459
 C194 C 0.43478 0.56434 -0.03364
 C195 C 0.45243 0.54455 -0.08859
 C196 C 0.47979 0.41913 0.04327
 C197 C 0.45553 0.39558 0.06461
 C198 C 0.40334 0.42835 0.03907
 C199 C 0.42845 0.45094 0.01803
 N200 N 0.46613 0.44684 0.02138
 H201 H 0.48898 0.50169 -0.08186
 H202 H 0.45789 0.53614 0.01433
 H203 H 0.42006 0.58145 -0.01900
 H204 H 0.45160 0.54609 -0.11748
 H205 H 0.50984 0.41623 0.04516
 H206 H 0.46716 0.37460 0.08291
 H207 H 0.37367 0.43291 0.03682
 H208 H 0.41782 0.47236 -0.00022
 C209 C 0.56926 0.41837 -0.07293
 C210 C 0.57715 0.55126 0.07925
 C211 C 0.41694 0.40079 0.06336
 C212 C 0.43228 0.56728 -0.07119
 C213 C 0.15857 -0.15317 -0.15593
 N214 N 0.19700 -0.15037 -0.15013
 N215 N 0.21723 -0.17004 -0.16761
 C216 C 0.19980 -0.19320 -0.19160
 N217 N 0.16133 -0.19599 -0.19732
 N218 N 0.14110 -0.17638 -0.17980
 C219 C 0.13624 -0.13151 -0.13667
 N220 N 0.09772 -0.13549 -0.14134
 N221 N 0.07745 -0.11597 -0.12375
 C222 C 0.09489 -0.09163 -0.10087
 N223 N 0.13348 -0.08766 -0.09632
 N224 N 0.15376 -0.10722 -0.11385
 C225 C 0.14967 0.33940 0.34773
 N226 N 0.18819 0.34232 0.34959
 N227 N 0.20591 0.32133 0.33117
 C228 C 0.18581 0.29662 0.31013
 N229 N 0.14723 0.29366 0.30833
 N230 N 0.12949 0.31465 0.32680
 C231 C 0.13032 0.36282 0.36794
 N232 N 0.09181 0.35964 0.36689
 N233 N 0.07444 0.38106 0.38522
 C234 C 0.09488 0.40653 0.40526
 N235 N 0.13342 0.40961 0.40621
 N236 N 0.15079 0.38820 0.38795
 C237 C 0.65226 -0.15659 0.33723
 N238 N 0.69057 -0.15026 0.33637
 N239 N 0.70899 -0.17051 0.31780
 C240 C 0.68984 -0.19791 0.29940
 N241 N 0.65147 -0.20421 0.30023
 N242 N 0.63301 -0.18392 0.31880
 C243 C 0.63217 -0.13445 0.35814
 N244 N 0.59383 -0.14037 0.35902
 N245 N 0.57583 -0.12047 0.37839
 C246 C 0.59545 -0.09391 0.39765
 N247 N 0.63382 -0.08804 0.39663
 N248 N 0.65182 -0.10789 0.37725
 C249 C 0.65253 0.34645 -0.16119
 N250 N 0.69105 0.34986 -0.15678
 N251 N 0.71091 0.33240 -0.17674
 C252 C 0.69304 0.31088 -0.20194
 N253 N 0.65446 0.30760 -0.20644
 N254 N 0.63458 0.32508 -0.18646
 C255 C 0.63079 0.36519 -0.13857
 N256 N 0.59224 0.36190 -0.14264
 N257 N 0.57267 0.37873 -0.12180
 C258 C 0.59088 0.39942 -0.09605
 N259 N 0.62946 0.40262 -0.09209
 N260 N 0.64902 0.38584 -0.11291
 C261 C -0.16812 0.17089 -0.16435
 N262 N -0.19012 0.18891 -0.14600
 N263 N -0.21232 0.21257 -0.16301
 C264 C -0.21347 0.21922 -0.19910
 N265 N -0.19146 0.20118 -0.21757
 N266 N -0.16915 0.17742 -0.20050
 C267 C -0.14377 0.14501 -0.14482
 N268 N -0.12106 0.12645 -0.16197
 N269 N -0.09908 0.10320 -0.14354
 C270 C -0.09901 0.09768 -0.10732
 N271 N -0.12182 0.11632 -0.09042
 N272 N -0.14372 0.13947 -0.10876
 C273 C -0.15743 0.67611 0.33888
 N274 N -0.16621 0.67446 0.30318
 N275 N -0.19151 0.69504 0.28580
 C276 C -0.20898 0.71790 0.30353
 N277 N -0.19997 0.71959 0.33915
 N278 N -0.17470 0.69913 0.35646
 C279 C -0.13063 0.65285 0.35880
 N280 N -0.12280 0.65519 0.39445
 N281 N -0.09956 0.63357 0.41322
 C282 C -0.08315 0.60866 0.39717
 N283 N -0.09084 0.60646 0.36137
 N284 N -0.11416 0.62815 0.34252
 C285 C 0.32469 0.15603 0.34787
 N286 N 0.32194 0.16130 0.31160
 N287 N 0.29886 0.18441 0.29470
 C288 C 0.27780 0.20315 0.31345
 N289 N 0.28065 0.19780 0.34968
 N290 N 0.30360 0.17470 0.36654
 C291 C 0.35014 0.13092 0.36702
 N292 N 0.35132 0.12549 0.40317
 N293 N 0.37464 0.10332 0.42102
 C294 C 0.39781 0.08566 0.40350
 N295 N 0.39653 0.09103 0.36723
 N296 N 0.37310 0.11322 0.34931
 C297 C 0.33816 0.66584 -0.14871
 N298 N 0.33608 0.67067 -0.18498
 N299 N 0.31347 0.69383 -0.20256
 C300 C 0.29208 0.71291 -0.18452
 N301 N 0.29418 0.70795 -0.14827
 N302 N 0.31677 0.68488 -0.13072
 C303 C 0.36300 0.64051 -0.12896
 N304 N 0.36527 0.63684 -0.09271
 N305 N 0.38745 0.61380 -0.07450
 C306 C 0.40830 0.59346 -0.09176
 N307 N 0.40604 0.59721 -0.12811
 N308 N 0.38385 0.62033 -0.14637
 C309 C -0.17681 -0.16763 0.15247
 N310 N -0.17029 -0.20089 0.16897
 N311 N -0.19246 -0.21712 0.19396
 C312 C -0.22165 -0.20048 0.20356
 N313 N -0.22809 -0.16727 0.18699
 N314 N -0.20621 -0.15124 0.16183
 C315 C -0.15219 -0.14889 0.12556
 N316 N -0.16305 -0.11910 0.10517
 N317 N -0.14039 -0.10083 0.08172
 C318 C -0.10580 -0.11141 0.07786
 N319 N -0.09493 -0.14134 0.09824
 N320 N -0.11778 -0.15984 0.12156
 C321 C -0.15826 0.35005 0.66815
 N322 N -0.18057 0.36846 0.68576
 N323 N -0.20451 0.35054 0.70826
 C324 C -0.20744 0.31342 0.71387
 N325 N -0.18495 0.29496 0.69629
 N326 N -0.16070 0.31295 0.67394
 C327 C -0.13300 0.37031 0.64253
 N328 N -0.10514 0.35442 0.62949
 N329 N -0.08263 0.37334 0.60608
 C330 C -0.08748 0.40867 0.59461
 N331 N -0.11539 0.42437 0.60771
 N332 N -0.13759 0.40563 0.63128
 C333 C 0.35513 -0.15757 0.68198
 N334 N 0.34510 -0.19432 0.68206
 N335 N 0.32008 -0.21135 0.70416
 C336 C 0.30407 -0.19222 0.72683
 N337 N 0.31436 -0.15554 0.72682
 N338 N 0.33943 -0.13857 0.70489
 C339 C 0.38129 -0.13804 0.65674
 N340 N 0.39414 -0.15548 0.63080
 N341 N 0.41636 -0.13693 0.60697
 C342 C 0.42661 -0.10028 0.60824
 N343 N 0.41394 -0.08309 0.63446
 N344 N 0.39172 -0.10156 0.65817
 C345 C 0.32210 0.32541 0.16575
 N346 N 0.32593 0.29064 0.17985
 N347 N 0.30393 0.27481 0.20516
 C348 C 0.27768 0.29337 0.21752
 N349 N 0.27406 0.32812 0.20343
 N350 N 0.29573 0.34378 0.17798
 C351 C 0.34609 0.34351 0.13803
 N352 N 0.33690 0.37514 0.11988
 N353 N 0.35903 0.39273 0.09564
 C354 C 0.39142 0.37956 0.08870
 N355 N 0.40060 0.34777 0.10681
 N356 N 0.37824 0.32996 0.13092
 C357 C 0.14912 0.15655 0.17147
 N358 N 0.13027 0.18265 0.18280
 N359 N 0.14682 0.20460 0.20717
 C360 C 0.18300 0.20154 0.22093
 N361 N 0.20195 0.17547 0.20954
 N362 N 0.18524 0.15322 0.18537
 C363 C 0.13064 0.13301 0.14412
 N364 N 0.14459 0.10163 0.13802
 N365 N 0.12722 0.08040 0.11326
 C366 C 0.09556 0.09003 0.09344
 N367 N 0.08185 0.12152 0.09954
 N368 N 0.09894 0.14250 0.12447
 C369 C 0.17488 0.67318 0.66468
 N370 N 0.15756 0.70224 0.67176
 N371 N 0.17271 0.72391 0.69690
 C372 C 0.20600 0.71761 0.71566
 N373 N 0.22361 0.68874 0.70836
 N374 N 0.20818 0.66675 0.68345
 C375 C 0.15716 0.64903 0.63753
 N376 N 0.16638 0.61438 0.63717
 N377 N 0.14856 0.59212 0.61349
 C378 C 0.12121 0.60388 0.58906
 N379 N 0.11241 0.63868 0.58929
 N380 N 0.12988 0.66074 0.61316
 C381 C 0.66759 0.17778 0.65327
 N382 N 0.70297 0.17433 0.66912
 N383 N 0.71834 0.19674 0.69367
 C384 C 0.69870 0.22308 0.70353
 N385 N 0.66335 0.22643 0.68765
 N386 N 0.64816 0.20432 0.66290
 C387 C 0.64986 0.15284 0.62680
 N388 N 0.61809 0.16096 0.60643
 N389 N 0.60075 0.13785 0.58344
 C390 C 0.61430 0.10555 0.58009
 N391 N 0.64623 0.09746 0.60044
 N392 N 0.66380 0.12077 0.62326
 C393 C 0.65624 0.64877 0.17520
 N394 N 0.69224 0.66442 0.17058
 N395 N 0.70909 0.68943 0.19199
 C396 C 0.69043 0.69991 0.21857
 N397 N 0.65450 0.68414 0.22320
 N398 N 0.63778 0.65894 0.20203
 C399 C 0.63686 0.62227 0.15093
 N400 N 0.60350 0.60263 0.15902
 N401 N 0.58495 0.57964 0.13649
 C402 C 0.59883 0.57561 0.10483
 N403 N 0.63230 0.59524 0.09678
 N404 N 0.65104 0.61805 0.11947
   
