data_POSCAR
  _audit_creation_date              2014-09-24
  _audit_creation_method            'ToBaCCo'
  _symmetry_space_group_name_H-M    'P1'
  _symmetry_Int_Tables_number       1
  _symmetry_cell_setting            triclinic
  loop_
  _symmetry_equiv_pos_as_xyz
 x,y,z
_cell_length_a 50.2791
_cell_length_b 52.3232
_cell_length_c 51.5279
_cell_angle_alpha 90.032200
_cell_angle_beta 89.840800
_cell_angle_gamma 89.971800
loop_
  _atom_site_label
  _atom_site_type_symbol
  _atom_site_fract_x
  _atom_site_fract_y
  _atom_site_fract_z
O1 O 0.32878 0.36291 0.02753
 O2 O 0.36200 0.32636 -0.02402
 O3 O 0.32715 0.36332 -0.02340
 O4 O 0.36331 0.32573 0.02554
 O5 O 0.33035 0.29785 0.02669
 O6 O 0.29418 0.33562 -0.02220
 O7 O 0.32900 0.29850 -0.02397
 O8 O 0.29589 0.33503 0.02814
 Cu9 Cu 0.34844 0.34758 0.00134
 Cu10 Cu 0.30905 0.31395 0.00219
 C11 C 0.30674 0.35522 0.03676
 C12 C 0.35145 0.30597 -0.03244
 C13 C 0.30442 0.35598 -0.03121
 C14 C 0.35317 0.30518 0.03416
 O15 O 0.63948 0.67678 -0.02555
 O16 O 0.67904 0.64210 0.02310
 O17 O 0.64215 0.67691 0.02496
 O18 O 0.67512 0.64102 -0.02711
 O19 O 0.70685 0.67000 -0.02911
 O20 O 0.67278 0.70699 0.02244
 O21 O 0.70999 0.67191 0.02095
 O22 O 0.67074 0.70627 -0.02802
 Cu23 Cu 0.65581 0.65629 -0.00088
 Cu24 Cu 0.69317 0.69182 -0.00368
 C25 C 0.64837 0.69748 -0.03510
 C26 C 0.70142 0.65096 0.03014
 C27 C 0.65159 0.69812 0.03253
 C28 C 0.69681 0.64900 -0.03684
 O29 O 0.67534 0.35866 0.97393
 O30 O 0.64225 0.32359 1.02650
 O31 O 0.67770 0.35969 1.02441
 O32 O 0.64095 0.32154 0.97601
 O33 O 0.67353 0.29328 0.97558
 O34 O 0.70972 0.33092 1.02414
 O35 O 0.67410 0.29456 1.02589
 O36 O 0.70813 0.33061 0.97384
 Cu37 Cu 0.65583 0.34371 1.00023
 Cu38 Cu 0.69461 0.30949 0.99983
 C39 C 0.69748 0.35087 0.96505
 C40 C 0.65228 0.30300 1.03505
 C41 C 0.70016 0.35185 1.03250
 C42 C 0.65096 0.30077 0.96764
 O43 O 0.36292 0.67754 1.02332
 O44 O 0.32653 0.64015 0.97471
 O45 O 0.35971 0.67804 0.97341
 O46 O 0.32908 0.63966 1.02535
 O47 O 0.29504 0.66617 1.02661
 O48 O 0.32697 0.70598 0.97662
 O49 O 0.29334 0.66771 0.97634
 O50 O 0.32886 0.70396 1.02706
 Cu51 Cu 0.34783 0.65602 0.99904
 Cu52 Cu 0.30768 0.68869 1.00186
 C53 C 0.35223 0.69718 1.03338
 C54 C 0.30384 0.64758 0.96703
 C55 C 0.34883 0.69886 0.96650
 C56 C 0.30661 0.64611 1.03468
 O57 O 0.02171 0.32724 0.36306
 O58 O -0.02790 0.36104 0.32370
 O59 O -0.02924 0.32535 0.35862
 O60 O 0.02377 0.36332 0.32794
 O61 O 0.02713 0.33475 0.29660
 O62 O -0.02410 0.29555 0.32877
 O63 O -0.02423 0.33160 0.29323
 O64 O 0.02724 0.29887 0.33175
 Cu65 Cu -0.00327 0.34726 0.34632
 Cu66 Cu 0.00188 0.31229 0.30946
 C67 C 0.03270 0.30713 0.35430
 C68 C -0.03462 0.35210 0.30177
 C69 C -0.03529 0.30359 0.34940
 C70 C 0.03427 0.35572 0.30684
 O71 O 0.02612 0.67590 0.63871
 O72 O -0.02424 0.64008 0.67561
 O73 O -0.02534 0.67423 0.63942
 O74 O 0.02752 0.64104 0.67542
 O75 O 0.02613 0.67087 0.70566
 O76 O -0.02490 0.70537 0.66823
 O77 O -0.02530 0.67072 0.70505
 O78 O 0.02695 0.70550 0.66926
 Cu79 Cu 0.00123 0.65476 0.65433
 Cu80 Cu 0.00066 0.69121 0.68999
 C81 C 0.03503 0.69685 0.64759
 C82 C -0.03345 0.64929 0.69660
 C83 C -0.03401 0.69565 0.64744
 C84 C 0.03542 0.64994 0.69702
 O85 O 1.02861 0.64065 0.32662
 O86 O 0.97435 0.67175 0.36299
 O87 O 0.97749 0.63704 0.32643
 O88 O 1.02618 0.67437 0.36328
 O89 O 1.02465 0.70496 0.33394
 O90 O 0.97446 0.66797 0.29747
 O91 O 0.97314 0.70271 0.33397
 O92 O 1.02613 0.67079 0.29679
 Cu93 Cu 1.00172 0.65297 0.34786
 Cu94 Cu 0.99938 0.68969 0.31259
 C95 C 1.03640 0.65024 0.30527
 C96 C 0.96475 0.69276 0.35490
 C97 C 0.96794 0.64587 0.30551
 C98 C 1.03396 0.69597 0.35498
 O99 O 0.97583 0.32213 0.63999
 O100 O 1.02635 0.35808 0.67696
 O101 O 1.02765 0.32291 0.64118
 O102 O 0.97470 0.35822 0.67477
 O103 O 0.97427 0.32941 0.70603
 O104 O 1.02609 0.29281 0.67104
 O105 O 1.02577 0.32824 0.70718
 O106 O 0.97457 0.29315 0.67105
 Cu107 Cu 1.00125 0.34326 0.65516
 Cu108 Cu 1.00013 0.30795 0.69189
 C109 C 0.96662 0.30140 0.64924
 C110 C 1.03451 0.34936 0.69855
 C111 C 1.03569 0.30159 0.64997
 C112 C 0.96566 0.35013 0.69628
 O113 O 0.32120 -0.02373 0.35342
 O114 O 0.35389 0.02653 0.31526
 O115 O 0.31842 0.02599 0.35234
 O116 O 0.35564 -0.02307 0.31578
 O117 O 0.32320 -0.02492 0.28708
 O118 O 0.28629 0.02429 0.32334
 O119 O 0.32200 0.02448 0.28601
 O120 O 0.28852 -0.02534 0.32497
 Cu121 Cu 0.34048 0.00167 0.33711
 Cu122 Cu 0.30172 -0.00049 0.30250
 C123 C 0.29927 -0.03310 0.34584
 C124 C 0.34389 0.03378 0.29390
 C125 C 0.29586 0.03338 0.34417
 C126 C 0.34583 -0.03225 0.29505
 O127 O 0.63548 0.02446 0.67451
 O128 O 0.67269 -0.02375 0.63770
 O129 O 0.63761 -0.02477 0.67428
 O130 O 0.67135 0.02613 0.63755
 O131 O 0.70391 0.02641 0.66615
 O132 O 0.66882 -0.02277 0.70426
 O133 O 0.70445 -0.02327 0.66717
 O134 O 0.66804 0.02693 0.70307
 Cu135 Cu 0.65116 0.00057 0.65298
 Cu136 Cu 0.68955 0.00199 0.68808
 C137 C 0.64516 0.03369 0.69521
 C138 C 0.69471 -0.03206 0.64625
 C139 C 0.64726 -0.03224 0.69573
 C140 C 0.69360 0.03469 0.64532
 O141 O 0.35642 0.97710 0.68137
 O142 O 0.32218 1.02551 0.64219
 O143 O 0.35607 1.02680 0.68061
 O144 O 0.32255 0.97615 0.64354
 O145 O 0.28872 0.97741 0.67089
 O146 O 0.32346 1.02646 0.70935
 O147 O 0.28976 1.02727 0.67115
 O148 O 0.32304 0.97703 0.70926
 Cu149 Cu 0.34265 1.00141 0.65913
 Cu150 Cu 0.30286 1.00203 0.69296
 C151 C 0.34566 0.96879 0.70202
 C152 C 0.30015 1.03463 0.64994
 C153 C 0.34575 1.03498 0.70157
 C154 C 0.29974 0.96837 0.65064
 O155 O 0.67706 1.02522 0.36069
 O156 O 0.63855 0.97677 0.32503
 O157 O 0.67400 0.97533 0.36208
 O158 O 0.64120 1.02610 0.32470
 O159 O 0.67193 1.02269 0.29422
 O160 O 0.70665 0.97394 0.33342
 O161 O 0.67132 0.97296 0.29666
 O162 O 0.70827 1.02351 0.33063
 Cu163 Cu 0.65459 1.00102 0.34616
 Cu164 Cu 0.69274 0.99811 0.31077
 C165 C 0.69923 1.03286 0.35165
 C166 C 0.64841 0.96660 0.30478
 C167 C 0.69604 0.96613 0.35437
 C168 C 0.65064 1.03277 0.30286
 O169 O 0.85303 0.81559 0.47648
 O170 O 0.81801 0.85267 0.52683
 O171 O 0.85352 0.81638 0.52694
 O172 O 0.81777 0.85230 0.47640
 O173 O 0.78558 0.82368 0.47717
 O174 O 0.82167 0.78738 0.52720
 O175 O 0.78604 0.82380 0.52742
 O176 O 0.82097 0.78682 0.47709
 Cu177 Cu 0.83880 0.83712 0.50157
 Cu178 Cu 0.80033 0.80255 0.50225
 C179 C 0.84319 0.79467 0.46846
 C180 C 0.79587 0.84467 0.53555
 C181 C 0.84388 0.79556 0.53546
 C182 C 0.79535 0.84436 0.46844
 O183 O 0.17627 0.13942 0.52295
 O184 O 0.13655 0.17729 0.47729
 O185 O 0.17196 0.14086 0.47291
 O186 O 0.14074 0.17543 0.52729
 O187 O 0.17100 0.20579 0.52372
 O188 O 0.20517 0.16840 0.47289
 O189 O 0.16950 0.20492 0.47337
 O190 O 0.20680 0.16976 0.52349
 Cu191 Cu 0.15320 0.15532 0.50022
 Cu192 Cu 0.19137 0.19010 0.49814
 C193 C 0.19811 0.14831 0.53130
 C194 C 0.14622 0.19753 0.46750
 C195 C 0.19426 0.14829 0.46408
 C196 C 0.15013 0.19687 0.53434
 O197 O 0.14185 0.82217 0.52308
 O198 O 0.17915 0.85785 0.47345
 O199 O 0.14358 0.82182 0.47297
 O200 O 0.17795 0.85841 0.52409
 O201 O 0.21014 0.82976 0.52445
 O202 O 0.17477 0.79222 0.47513
 O203 O 0.21066 0.82849 0.47416
 O204 O 0.17437 0.79388 0.52554
 Cu205 Cu 0.15750 0.84305 0.49836
 Cu206 Cu 0.19568 0.80818 0.49989
 C207 C 0.15163 0.80188 0.53265
 C208 C 0.20126 0.84926 0.46525
 C209 C 0.15309 0.80047 0.46570
 C210 C 0.20015 0.85051 0.53273
 O211 O 0.82382 0.14191 0.47317
 O212 O 0.85884 0.17732 0.52412
 O213 O 0.82171 0.14254 0.52351
 O214 O 0.85980 0.17729 0.47351
 O215 O 0.82874 0.20709 0.47257
 O216 O 0.79091 0.17258 0.52268
 O217 O 0.82833 0.20762 0.52296
 O218 O 0.79234 0.17133 0.47247
 Cu219 Cu 0.84418 0.15683 0.49875
 Cu220 Cu 0.80699 0.19269 0.49762
 C221 C 0.80201 0.15035 0.46427
 C222 C 0.84985 0.19861 0.53208
 C223 C 0.79958 0.15146 0.53136
 C224 C 0.85074 0.19815 0.46449
 O225 O 0.47370 0.86188 0.82597
 O226 O 0.52487 0.82374 0.85914
 O227 O 0.52549 0.86018 0.82460
 O228 O 0.47326 0.82591 0.86055
 O229 O 0.47148 0.79683 0.82957
 O230 O 0.52335 0.83153 0.79324
 O231 O 0.52288 0.79486 0.82799
 O232 O 0.47183 0.83305 0.79475
 Cu233 Cu 0.49960 0.84584 0.84567
 Cu234 Cu 0.49726 0.81118 0.80823
 C235 C 0.46404 0.85400 0.80466
 C236 C 0.53232 0.80258 0.84945
 C237 C 0.53311 0.85192 0.80262
 C238 C 0.46357 0.80543 0.85133
 O239 O 0.52961 0.17631 0.14023
 O240 O 0.47571 0.13934 0.17099
 O241 O 0.47835 0.17643 0.13695
 O242 O 0.52763 0.13940 0.17394
 O243 O 0.52581 0.16791 0.20546
 O244 O 0.47484 0.20387 0.16936
 O245 O 0.47431 0.16705 0.20325
 O246 O 0.52657 0.20509 0.17141
 Cu247 Cu 0.50299 0.15496 0.15240
 Cu248 Cu 0.50022 0.18881 0.19056
 C249 C 0.53696 0.19729 0.15033
 C250 C 0.46599 0.14672 0.19253
 C251 C 0.46827 0.19650 0.14678
 C252 C 0.53523 0.14736 0.19600
 O253 O 0.52224 0.13780 0.82731
 O254 O 0.47411 0.17646 0.86386
 O255 O 0.47094 0.14058 0.82893
 O256 O 0.52543 0.17377 0.86236
 O257 O 0.52449 0.20423 0.83278
 O258 O 0.47338 0.16834 0.79678
 O259 O 0.47271 0.20438 0.83175
 O260 O 0.52508 0.16802 0.79755
 Cu261 Cu 0.49815 0.15423 0.84873
 Cu262 Cu 0.49906 0.18921 0.81160
 C263 C 0.53189 0.14626 0.80621
 C264 C 0.46500 0.19688 0.85398
 C265 C 0.46328 0.14841 0.80685
 C266 C 0.53375 0.19505 0.85372
 O267 O 0.52642 0.86026 0.17626
 O268 O 0.47844 0.82295 0.13816
 O269 O 0.47515 0.85934 0.17263
 O270 O 0.52983 0.82401 0.14124
 O271 O 0.52667 0.79405 0.17119
 O272 O 0.47519 0.83172 0.20498
 O273 O 0.47484 0.79530 0.17034
 O274 O 0.52679 0.83013 0.20626
 Cu275 Cu 0.50267 0.84453 0.15394
 Cu276 Cu 0.50074 0.80986 0.19130
 C277 C 0.53481 0.85156 0.19773
 C278 C 0.46825 0.80289 0.14784
 C279 C 0.46627 0.85194 0.19448
 C280 C 0.53712 0.80262 0.15046
 O281 O 0.85573 0.52509 0.81861
 O282 O 0.81920 0.47529 0.85438
 O283 O 0.85566 0.47526 0.81829
 O284 O 0.81906 0.52514 0.85432
 O285 O 0.78798 0.52499 0.82417
 O286 O 0.82451 0.47536 0.78822
 O287 O 0.78804 0.47544 0.82433
 O288 O 0.82488 0.52487 0.78824
 Cu289 Cu 0.84053 0.50018 0.83943
 Cu290 Cu 0.80324 0.50019 0.80323
 C291 C 0.84667 0.53335 0.79721
 C292 C 0.79727 0.46697 0.84559
 C293 C 0.84640 0.46691 0.79698
 C294 C 0.79714 0.53346 0.84545
 O295 O 0.14855 0.52741 0.18288
 O296 O 0.18485 0.47584 0.14990
 O297 O 0.14808 0.47774 0.18557
 O298 O 0.18572 0.52537 0.14788
 O299 O 0.21656 0.52619 0.17827
 O300 O 0.17867 0.47890 0.21616
 O301 O 0.21570 0.47685 0.18026
 O302 O 0.17903 0.52843 0.21360
 Cu303 Cu 0.16370 0.50146 0.16354
 Cu304 Cu 0.20054 0.50268 0.20018
 C305 C 0.15743 0.53666 0.20393
 C306 C 0.20668 0.46780 0.15915
 C307 C 0.15681 0.47035 0.20743
 C308 C 0.20774 0.53368 0.15649
 O309 O 0.86144 0.47456 0.17368
 O310 O 0.82924 0.52621 0.13681
 O311 O 0.86476 0.52382 0.17380
 O312 O 0.82671 0.47647 0.13679
 O313 O 0.79457 0.47784 0.16602
 O314 O 0.83206 0.52690 0.20232
 O315 O 0.79655 0.52732 0.16544
 O316 O 0.82986 0.47717 0.20340
 Cu317 Cu 0.84872 0.50020 0.15229
 Cu318 Cu 0.81003 0.50249 0.18724
 C319 C 0.85134 0.46728 0.19504
 C320 C 0.80716 0.53529 0.14458
 C321 C 0.85511 0.53329 0.19446
 C322 C 0.80425 0.46892 0.14507
 O323 O 0.17818 0.52503 0.85880
 O324 O 0.14087 0.47525 0.82396
 O325 O 0.17763 0.47538 0.85935
 O326 O 0.14120 0.52505 0.82363
 O327 O 0.17154 0.52424 0.79262
 O328 O 0.20881 0.47527 0.82910
 O329 O 0.17160 0.47459 0.79332
 O330 O 0.20874 0.52472 0.82799
 Cu331 Cu 0.15636 0.50022 0.84446
 Cu332 Cu 0.19323 0.49960 0.80765
 C333 C 0.19996 0.53325 0.84946
 C334 C 0.14976 0.46649 0.80264
 C335 C 0.19965 0.46714 0.85058
 C336 C 0.14999 0.53305 0.80197
 C337 C 0.26729 0.39925 0.09517
 C338 C 0.29428 0.40380 0.08984
 C339 C 0.30725 0.38927 0.07095
 C340 C 0.29349 0.37010 0.05748
 C341 C 0.26665 0.36588 0.06368
 N342 N 0.25433 0.38056 0.08187
 C343 C 0.25204 0.41548 0.11337
 N344 N 0.22572 0.41943 0.10878
 C345 C 0.21069 0.43532 0.12365
 C346 C 0.22211 0.44844 0.14461
 C347 C 0.24897 0.44390 0.15033
 C348 C 0.26402 0.42748 0.13475
 H349 H 0.32796 0.39320 0.06672
 H350 H 0.25527 0.35137 0.05367
 H351 H 0.18997 0.43805 0.11874
 H352 H 0.25854 0.45354 0.16639
 H353 H 0.30507 0.41897 0.09945
 H354 H 0.28474 0.42433 0.13938
 C355 C 0.74957 0.60667 0.08138
 C356 C 0.76076 0.62771 0.06847
 C357 C 0.74489 0.64255 0.05220
 C358 C 0.71796 0.63644 0.04867
 C359 C 0.70742 0.61561 0.06241
 N360 N 0.72325 0.60150 0.07823
 C361 C 0.76557 0.58973 0.09813
 N362 N 0.75332 0.57725 0.11800
 C363 C 0.76639 0.56043 0.13348
 C364 C 0.79332 0.55485 0.12894
 C365 C 0.80637 0.56748 0.10856
 C366 C 0.79262 0.58500 0.09319
 H367 H 0.75380 0.65853 0.04205
 H368 H 0.68670 0.61038 0.06043
 H369 H 0.75552 0.55098 0.14888
 H370 H 0.82710 0.56363 0.10432
 H371 H 0.78146 0.63277 0.07098
 H372 H 0.80286 0.59402 0.07713
 C373 C 0.73761 0.39649 0.90844
 C374 C 0.71022 0.39982 0.91255
 C375 C 0.69707 0.38462 0.93071
 C376 C 0.71102 0.36593 0.94466
 C377 C 0.73830 0.36286 0.93966
 N378 N 0.75080 0.37822 0.92216
 C379 C 0.75276 0.41349 0.89089
 N380 N 0.77856 0.41898 0.89659
 C381 C 0.79328 0.43553 0.88216
 C382 C 0.78208 0.44768 0.86049
 C383 C 0.75578 0.44168 0.85380
 C384 C 0.74107 0.42465 0.86892
 H385 H 0.67603 0.38770 0.93404
 H386 H 0.74983 0.34880 0.95015
 H387 H 0.81359 0.43938 0.88784
 H388 H 0.74640 0.45047 0.83714
 H389 H 0.69918 0.41460 0.90259
 H390 H 0.72082 0.42028 0.86341
 C391 C 0.26174 0.60234 0.91163
 C392 C 0.28918 0.59867 0.91496
 C393 C 0.30294 0.61363 0.93284
 C394 C 0.28953 0.63239 0.94731
 C395 C 0.26216 0.63569 0.94317
 N396 N 0.24908 0.62060 0.92591
 C397 C 0.24601 0.58577 0.89423
 N398 N 0.22024 0.58057 0.90046
 C399 C 0.20500 0.56442 0.88615
 C400 C 0.21560 0.55237 0.86406
 C401 C 0.24185 0.55812 0.85681
 C402 C 0.25710 0.57475 0.87181
 H403 H 0.32403 0.61038 0.93548
 H404 H 0.25104 0.64982 0.95406
 H405 H 0.18476 0.56075 0.89228
 H406 H 0.25078 0.54939 0.83983
 H407 H 0.29982 0.58387 0.90455
 H408 H 0.27730 0.57891 0.86588
 C409 C 0.08278 0.26200 0.40254
 C410 C 0.06358 0.27794 0.41386
 C411 C 0.04793 0.29342 0.39808
 C412 C 0.05104 0.29264 0.37104
 C413 C 0.07077 0.27671 0.36048
 N414 N 0.08613 0.26206 0.37632
 C415 C 0.09877 0.24472 0.41873
 N416 N 0.12564 0.24371 0.41560
 C417 C 0.14125 0.22861 0.43074
 C418 C 0.12974 0.21308 0.44993
 C419 C 0.10203 0.21338 0.45293
 C420 C 0.08651 0.22936 0.43755
 H421 H 0.03283 0.30536 0.40695
 H422 H 0.07384 0.27577 0.33970
 H423 H 0.16258 0.22871 0.42779
 H424 H 0.09244 0.20175 0.46761
 H425 H 0.06070 0.27834 0.43470
 H426 H 0.06514 0.22967 0.44023
 C427 C 0.08867 0.74122 0.60202
 C428 C 0.09140 0.74117 0.62910
 C429 C 0.07390 0.72662 0.64417
 C430 C 0.05433 0.71165 0.63217
 C431 C 0.05269 0.71183 0.60501
 N432 N 0.06939 0.72672 0.59082
 C433 C 0.10547 0.75743 0.58538
 N434 N 0.09390 0.77083 0.56581
 C435 C 0.10824 0.78571 0.54933
 C436 C 0.13599 0.78706 0.55159
 C437 C 0.14840 0.77322 0.57148
 C438 C 0.13313 0.75866 0.58869
 H439 H 0.07566 0.72699 0.66511
 H440 H 0.03763 0.70074 0.59511
 H441 H 0.09803 0.79590 0.53402
 H442 H 0.16980 0.77376 0.57371
 H443 H 0.10636 0.75280 0.63849
 H444 H 0.14284 0.74792 0.60393
 C445 C 0.90722 0.73297 0.40043
 C446 C 0.91200 0.70699 0.40547
 C447 C 0.93054 0.69369 0.39041
 C448 C 0.94410 0.70613 0.37023
 C449 C 0.93841 0.73199 0.36557
 N450 N 0.92062 0.74464 0.38076
 C451 C 0.88936 0.74845 0.41696
 N452 N 0.89497 0.77366 0.42048
 C453 C 0.88017 0.78891 0.43627
 C454 C 0.85815 0.77890 0.44961
 C455 C 0.85150 0.75315 0.44562
 C456 C 0.86707 0.73785 0.42939
 H457 H 0.93444 0.67378 0.39472
 H458 H 0.94856 0.74236 0.35032
 H459 H 0.88585 0.80872 0.43862
 H460 H 0.83462 0.74467 0.45548
 H461 H 0.90226 0.69723 0.42138
 H462 H 0.86165 0.71803 0.42659
 C463 C 0.91263 0.25665 0.60417
 C464 C 0.92306 0.24664 0.62727
 C465 C 0.94018 0.26149 0.64224
 C466 C 0.94703 0.28629 0.63431
 C467 C 0.93552 0.29588 0.61148
 N468 N 0.91884 0.28103 0.59720
 C469 C 0.89570 0.24105 0.58690
 N470 N 0.87673 0.25265 0.57221
 C471 C 0.86127 0.23944 0.55520
 C472 C 0.86500 0.21305 0.55179
 C473 C 0.88448 0.20076 0.56670
 C474 C 0.89974 0.21462 0.58431
 H475 H 0.94841 0.25335 0.65979
 H476 H 0.94004 0.31500 0.60480
 H477 H 0.84662 0.24967 0.54389
 H478 H 0.88809 0.18046 0.56459
 H479 H 0.91807 0.22756 0.63376
 H480 H 0.91511 0.20483 0.59511
 C481 C 0.38966 0.08497 0.24717
 C482 C 0.36826 0.07173 0.23596
 C483 C 0.35268 0.05562 0.25137
 C484 C 0.35846 0.05256 0.27782
 C485 C 0.37952 0.06672 0.28838
 N486 N 0.39432 0.08233 0.27303
 C487 C 0.40769 0.10141 0.23179
 N488 N 0.42055 0.12087 0.24399
 C489 C 0.43860 0.13591 0.23166
 C490 C 0.44519 0.13136 0.20557
 C491 C 0.43217 0.11140 0.19256
 C492 C 0.41334 0.09646 0.20554
 H493 H 0.33656 0.04509 0.24247
 H494 H 0.38449 0.06513 0.30874
 H495 H 0.44825 0.15101 0.24248
 H496 H 0.43673 0.10718 0.17245
 H497 H 0.36356 0.07378 0.21559
 H498 H 0.40409 0.08073 0.19536
 C499 C 0.59835 0.08323 0.74242
 C500 C 0.58584 0.06531 0.72638
 C501 C 0.60120 0.04973 0.71037
 C502 C 0.62901 0.05160 0.71075
 C503 C 0.64080 0.06994 0.72695
 N504 N 0.62534 0.08531 0.74210
 C505 C 0.58243 0.09922 0.76003
 N506 N 0.58472 0.12513 0.75924
 C507 C 0.56914 0.14063 0.77412
 C508 C 0.55030 0.13003 0.79116
 C509 C 0.54828 0.10336 0.79275
 C510 C 0.56411 0.08791 0.77701
 H511 H 0.59138 0.03572 0.69824
 H512 H 0.66221 0.07201 0.72760
 H513 H 0.57135 0.16115 0.77253
 H514 H 0.53389 0.09446 0.80555
 H515 H 0.56439 0.06342 0.72628
 H516 H 0.56202 0.06733 0.77798
 C517 C 0.39015 0.91673 0.74861
 C518 C 0.36799 0.92920 0.75940
 C519 C 0.35292 0.94568 0.74401
 C520 C 0.36001 0.94987 0.71800
 C521 C 0.38188 0.93651 0.70781
 N522 N 0.39615 0.92048 0.72312
 C523 C 0.40758 0.89999 0.76415
 N524 N 0.42080 0.88063 0.75207
 C525 C 0.43830 0.86532 0.76476
 C526 C 0.44388 0.86954 0.79109
 C527 C 0.43049 0.88941 0.80394
 C528 C 0.41224 0.90458 0.79060
 H529 H 0.33613 0.95555 0.75260
 H530 H 0.38784 0.93898 0.68776
 H531 H 0.44832 0.85030 0.75408
 H532 H 0.43428 0.89335 0.82423
 H533 H 0.36229 0.92624 0.77944
 H534 H 0.40265 0.92023 0.80070
 C535 C 0.60284 0.91369 0.26056
 C536 C 0.63045 0.91029 0.26236
 C537 C 0.64546 0.92755 0.27692
 C538 C 0.63286 0.94762 0.29017
 C539 C 0.60515 0.94997 0.28834
 N540 N 0.59106 0.93341 0.27343
 C541 C 0.58643 0.89706 0.24407
 N542 N 0.56755 0.90787 0.22873
 C543 C 0.55146 0.89369 0.21326
 C544 C 0.55338 0.86695 0.21329
 C545 C 0.57251 0.85535 0.22917
 C546 C 0.58936 0.87040 0.24434
 H547 H 0.66684 0.92523 0.27787
 H548 H 0.59481 0.96540 0.29809
 H549 H 0.53670 0.90326 0.20150
 H550 H 0.57445 0.83474 0.22974
 H551 H 0.64034 0.89496 0.25201
 H552 H 0.60403 0.86132 0.25663
 C553 C 0.39549 0.25964 0.91481
 C554 C 0.36772 0.26074 0.91238
 C555 C 0.35304 0.27589 0.92962
 C556 C 0.36617 0.29039 0.94856
 C557 C 0.39398 0.28912 0.94990
 N558 N 0.40772 0.27369 0.93349
 C559 C 0.41183 0.24274 0.89849
 N560 N 0.43145 0.22888 0.90991
 C561 C 0.44804 0.21359 0.89606
 C562 C 0.44594 0.21235 0.86897
 C563 C 0.42600 0.22664 0.85670
 C564 C 0.40859 0.24162 0.87148
 H565 H 0.33156 0.27638 0.92813
 H566 H 0.40475 0.29981 0.96448
 H567 H 0.46337 0.20302 0.90615
 H568 H 0.42387 0.22613 0.83580
 H569 H 0.35752 0.24946 0.89787
 H570 H 0.39335 0.25278 0.86192
 C571 C 0.60144 0.73945 0.91063
 C572 C 0.59553 0.71365 0.91541
 C573 C 0.61095 0.69986 0.93300
 C574 C 0.63238 0.71162 0.94564
 C575 C 0.63782 0.73736 0.94008
 N576 N 0.62225 0.75051 0.92319
 C577 C 0.58469 0.75532 0.89351
 N578 N 0.58174 0.78061 0.89905
 C579 C 0.56569 0.79617 0.88491
 C580 C 0.55148 0.78642 0.86369
 C581 C 0.55491 0.76059 0.85712
 C582 C 0.57142 0.74498 0.87200
 H583 H 0.60602 0.68007 0.93681
 H584 H 0.65404 0.74720 0.94956
 H585 H 0.56382 0.81603 0.89049
 H586 H 0.54440 0.75231 0.84084
 H587 H 0.57871 0.70439 0.90633
 H588 H 0.57377 0.72510 0.86665
 C589 C 0.39781 0.74248 0.08570
 C590 C 0.37016 0.74097 0.08917
 C591 C 0.35504 0.72624 0.07203
 C592 C 0.36759 0.71258 0.05201
 C593 C 0.39531 0.71434 0.04951
 N594 N 0.40948 0.72931 0.06596
 C595 C 0.41458 0.75867 0.10233
 N596 N 0.43452 0.77242 0.09118
 C597 C 0.45133 0.78715 0.10533
 C598 C 0.44908 0.78797 0.13244
 C599 C 0.42883 0.77377 0.14442
 C600 C 0.41127 0.75934 0.12937
 H601 H 0.33366 0.72537 0.07447
 H602 H 0.40565 0.70430 0.03412
 H603 H 0.46689 0.79765 0.09543
 H604 H 0.42655 0.77393 0.16533
 H605 H 0.36033 0.75155 0.10451
 H606 H 0.39582 0.74826 0.13877
 C607 C 0.60851 0.26026 0.09138
 C608 C 0.60313 0.28638 0.08802
 C609 C 0.61781 0.30041 0.07000
 C610 C 0.63800 0.28862 0.05546
 C611 C 0.64321 0.26262 0.05983
 N612 N 0.62828 0.24920 0.07716
 C613 C 0.59177 0.24411 0.10837
 N614 N 0.58768 0.21925 0.10169
 C615 C 0.57100 0.20375 0.11526
 C616 C 0.55712 0.21315 0.13695
 C617 C 0.56184 0.23844 0.14476
 C618 C 0.57910 0.25396 0.13055
 H619 H 0.61308 0.32042 0.06718
 H620 H 0.65850 0.25277 0.04889
 H621 H 0.56820 0.18427 0.10874
 H622 H 0.55170 0.24643 0.16148
 H623 H 0.58709 0.29571 0.09837
 H624 H 0.58234 0.27345 0.13681
 C625 C 0.25846 0.08722 0.60198
 C626 C 0.25722 0.09018 0.62902
 C627 C 0.27084 0.07296 0.64488
 C628 C 0.28620 0.05344 0.63372
 C629 C 0.28737 0.05155 0.60661
 N630 N 0.27329 0.06801 0.59160
 C631 C 0.24292 0.10362 0.58455
 N632 N 0.22908 0.09258 0.56488
 C633 C 0.21437 0.10652 0.54796
 C634 C 0.21367 0.13323 0.54994
 C635 C 0.22815 0.14509 0.56980
 C636 C 0.24253 0.13028 0.58743
 H637 H 0.26948 0.07491 0.66577
 H638 H 0.29881 0.03654 0.59736
 H639 H 0.20364 0.09678 0.53269
 H640 H 0.22802 0.16569 0.57185
 H641 H 0.24523 0.10511 0.63772
 H642 H 0.25363 0.13951 0.60278
 C643 C 0.74399 0.08662 0.39362
 C644 C 0.75439 0.07632 0.37060
 C645 C 0.73936 0.05886 0.35638
 C646 C 0.71397 0.05143 0.36509
 C647 C 0.70405 0.06281 0.38792
 N648 N 0.71908 0.07985 0.40135
 C649 C 0.75971 0.10404 0.41012
 N650 N 0.74696 0.12218 0.42448
 C651 C 0.76015 0.13786 0.44113
 C652 C 0.78769 0.13518 0.44460
 C653 C 0.80119 0.11665 0.42994
 C654 C 0.78734 0.10117 0.41261
 H655 H 0.74788 0.05092 0.33880
 H656 H 0.68449 0.05804 0.39530
 H657 H 0.74899 0.15179 0.45225
 H658 H 0.82242 0.11391 0.43211
 H659 H 0.77391 0.08171 0.36357
 H660 H 0.79803 0.08652 0.40203
 C661 C 0.73617 0.91074 0.60298
 C662 C 0.70904 0.91501 0.59836
 C663 C 0.69555 0.93360 0.61259
 C664 C 0.70891 0.94786 0.63157
 C665 C 0.73600 0.94288 0.63578
 N666 N 0.74885 0.92489 0.62137
 C667 C 0.75153 0.89230 0.58722
 N668 N 0.77748 0.89736 0.58168
 C669 C 0.79227 0.88206 0.56592
 C670 C 0.78093 0.86020 0.55464
 C671 C 0.75450 0.85414 0.56090
 C672 C 0.73976 0.87011 0.57713
 H673 H 0.67467 0.93687 0.60867
 H674 H 0.74706 0.95359 0.65012
 H675 H 0.81268 0.88727 0.56184
 H676 H 0.74500 0.83738 0.55279
 H677 H 0.69847 0.90468 0.58340
 H678 H 0.71936 0.86515 0.58163
 C679 C 0.26027 0.91139 0.39338
 C680 C 0.28744 0.91636 0.39702
 C681 C 0.30021 0.93425 0.38128
 C682 C 0.28610 0.94708 0.36177
 C683 C 0.25906 0.94128 0.35848
 N684 N 0.24693 0.92406 0.37434
 C685 C 0.24543 0.89403 0.41081
 N686 N 0.21932 0.89894 0.41577
 C687 C 0.20474 0.88463 0.43259
 C688 C 0.21641 0.86389 0.44560
 C689 C 0.24307 0.85800 0.44015
 C690 C 0.25765 0.87301 0.42283
 H691 H 0.32108 0.93821 0.38454
 H692 H 0.24742 0.95087 0.34377
 H693 H 0.18414 0.88967 0.43600
 H694 H 0.25281 0.84208 0.44963
 H695 H 0.29856 0.90724 0.41239
 H696 H 0.27819 0.86814 0.41891
 C697 C 0.08701 0.39461 0.74472
 C698 C 0.07524 0.37269 0.75543
 C699 C 0.05867 0.35757 0.74014
 C700 C 0.05368 0.36422 0.71422
 C701 C 0.06645 0.38589 0.70403
 N702 N 0.08258 0.40031 0.71931
 C703 C 0.10366 0.41194 0.76048
 N704 N 0.12358 0.42532 0.74878
 C705 C 0.13897 0.44228 0.76196
 C706 C 0.13425 0.44703 0.78840
 C707 C 0.11374 0.43353 0.80079
 C708 C 0.09851 0.41593 0.78697
 H709 H 0.04936 0.34095 0.74878
 H710 H 0.06336 0.39156 0.68407
 H711 H 0.15445 0.45245 0.75161
 H712 H 0.10935 0.43671 0.82113
 H713 H 0.07880 0.36722 0.77537
 H714 H 0.08239 0.40619 0.79678
 C715 C 0.09297 0.60871 0.25987
 C716 C 0.07997 0.62988 0.24896
 C717 C 0.06206 0.64393 0.26400
 C718 C 0.05701 0.63694 0.28983
 C719 C 0.07114 0.61620 0.30026
 N720 N 0.08848 0.60280 0.28523
 C721 C 0.11064 0.59202 0.24438
 N722 N 0.13048 0.57900 0.25654
 C723 C 0.14632 0.56200 0.24383
 C724 C 0.14206 0.55674 0.21746
 C725 C 0.12182 0.57005 0.20453
 C726 C 0.10617 0.58775 0.21785
 H727 H 0.05173 0.65990 0.25523
 H728 H 0.06809 0.61035 0.32018
 H729 H 0.16161 0.55203 0.25456
 H730 H 0.11781 0.56649 0.18420
 H731 H 0.08350 0.63551 0.22904
 H732 H 0.09012 0.59716 0.20767
 C733 C 0.91116 0.39554 0.25584
 C734 C 0.92668 0.37651 0.24399
 C735 C 0.94382 0.36172 0.25908
 C736 C 0.94578 0.36610 0.28587
 C737 C 0.92955 0.38499 0.29704
 N738 N 0.91291 0.39903 0.28197
 C739 C 0.89413 0.41271 0.24024
 N740 N 0.89903 0.41566 0.21441
 C741 C 0.88522 0.43246 0.19952
 C742 C 0.86511 0.44760 0.21058
 C743 C 0.85926 0.44442 0.23702
 C744 C 0.87383 0.42714 0.25193
 H745 H 0.95605 0.34737 0.24969
 H746 H 0.93030 0.38884 0.31766
 H747 H 0.89022 0.43418 0.17915
 H748 H 0.84394 0.45577 0.24632
 H749 H 0.92577 0.37325 0.22325
 H750 H 0.86943 0.42527 0.27243
 C751 C 0.91095 0.60442 0.73969
 C752 C 0.92507 0.62393 0.75228
 C753 C 0.94270 0.63913 0.73808
 C754 C 0.94661 0.63462 0.71150
 C755 C 0.93187 0.61511 0.69959
 N756 N 0.91464 0.60075 0.71376
 C757 C 0.89311 0.58715 0.75433
 N758 N 0.89666 0.58389 0.78031
 C759 C 0.88181 0.56719 0.79443
 C760 C 0.86193 0.55259 0.78240
 C761 C 0.85755 0.55605 0.75575
 C762 C 0.87322 0.57314 0.74163
 H763 H 0.95375 0.65394 0.74802
 H764 H 0.93417 0.61114 0.67909
 H765 H 0.88569 0.56522 0.81498
 H766 H 0.84247 0.54510 0.74572
 H767 H 0.92258 0.62735 0.77287
 H768 H 0.86989 0.57529 0.72100
 C769 C 0.73686 0.60340 0.90832
 C770 C 0.71109 0.59676 0.91625
 C771 C 0.69776 0.61201 0.93423
 C772 C 0.70980 0.63421 0.94419
 C773 C 0.73549 0.64044 0.93526
 N774 N 0.74832 0.62489 0.91812
 C775 C 0.75221 0.58664 0.89073
 N776 N 0.77870 0.58323 0.89489
 C777 C 0.79356 0.56678 0.88041
 C778 C 0.78177 0.55266 0.86030
 C779 C 0.75468 0.55656 0.85517
 C780 C 0.73984 0.57341 0.87038
 H781 H 0.67804 0.60624 0.94041
 H782 H 0.74571 0.65723 0.94239
 H783 H 0.81447 0.56455 0.88480
 H784 H 0.74481 0.54614 0.83979
 H785 H 0.70163 0.57948 0.90930
 H786 H 0.71890 0.57601 0.86629
 C787 C 0.26124 0.40007 0.91512
 C788 C 0.28758 0.40673 0.92088
 C789 C 0.30199 0.39214 0.93866
 C790 C 0.29043 0.37053 0.95039
 C791 C 0.26417 0.36418 0.94345
 N792 N 0.25040 0.37904 0.92653
 C793 C 0.24492 0.41604 0.89760
 N794 N 0.25687 0.43117 0.87950
 C795 C 0.24276 0.44687 0.86362
 C796 C 0.21498 0.44845 0.86596
 C797 C 0.20226 0.43287 0.88433
 C798 C 0.21711 0.41644 0.89995
 H799 H 0.32215 0.39786 0.94320
 H800 H 0.25429 0.34777 0.95186
 H801 H 0.25332 0.45870 0.84979
 H802 H 0.18086 0.43351 0.88672
 H803 H 0.29674 0.42343 0.91224
 H804 H 0.20701 0.40475 0.91424
 C805 C 0.26844 0.60011 0.09034
 C806 C 0.29446 0.59411 0.08254
 C807 C 0.30725 0.60940 0.06416
 C808 C 0.29432 0.63091 0.05371
 C809 C 0.26838 0.63639 0.06246
 N810 N 0.25621 0.62091 0.08000
 C811 C 0.25342 0.58362 0.10841
 N812 N 0.22672 0.58099 0.10508
 C813 C 0.21171 0.56551 0.12040
 C814 C 0.22352 0.55171 0.14068
 C815 C 0.25090 0.55470 0.14493
 C816 C 0.26594 0.57052 0.12876
 H817 H 0.32718 0.60425 0.05807
 H818 H 0.25747 0.65264 0.05501
 H819 H 0.19061 0.56391 0.11663
 H820 H 0.26077 0.54442 0.16039
 H821 H 0.30455 0.57735 0.08992
 H822 H 0.28705 0.57258 0.13227
 C823 C 0.74490 0.39731 0.08360
 C824 C 0.75541 0.37410 0.07461
 C825 C 0.74035 0.35878 0.05813
 C826 C 0.71477 0.36649 0.05035
 C827 C 0.70470 0.38956 0.06049
 N828 N 0.71979 0.40414 0.07661
 C829 C 0.76075 0.41477 0.09994
 N830 N 0.74831 0.42963 0.11798
 C831 C 0.76180 0.44659 0.13305
 C832 C 0.78935 0.44972 0.12990
 C833 C 0.80248 0.43472 0.11130
 C834 C 0.78832 0.41718 0.09640
 H835 H 0.74901 0.34108 0.05117
 H836 H 0.68500 0.39623 0.05540
 H837 H 0.75091 0.45798 0.14704
 H838 H 0.82371 0.43659 0.10818
 H839 H 0.77505 0.36778 0.08028
 H840 H 0.79878 0.40619 0.08178
 C841 C 0.90919 0.73551 0.60337
 C842 C 0.91625 0.71052 0.59634
 C843 C 0.93497 0.69726 0.61102
 C844 C 0.94654 0.70865 0.63301
 C845 C 0.93851 0.73362 0.63960
 N846 N 0.92061 0.74634 0.62462
 C847 C 0.89086 0.75076 0.58725
 N848 N 0.89551 0.77620 0.58411
 C849 C 0.88040 0.79101 0.56825
 C850 C 0.85907 0.78029 0.55447
 C851 C 0.85337 0.75430 0.55817
 C852 C 0.86925 0.73946 0.57443
 H853 H 0.94042 0.67812 0.60499
 H854 H 0.94686 0.74332 0.65625
 H855 H 0.88528 0.81105 0.56615
 H856 H 0.83707 0.74527 0.54797
 H857 H 0.90805 0.70156 0.57919
 H858 H 0.86472 0.71939 0.57688
 C859 C 0.91273 0.25661 0.39196
 C860 C 0.92474 0.24701 0.36935
 C861 C 0.94131 0.26283 0.35465
 C862 C 0.94623 0.28814 0.36256
 C863 C 0.93304 0.29713 0.38490
 N864 N 0.91690 0.28140 0.39876
 C865 C 0.89610 0.24049 0.40903
 N866 N 0.87625 0.25166 0.42302
 C867 C 0.86112 0.23838 0.44023
 C868 C 0.86610 0.21236 0.44472
 C869 C 0.88650 0.20044 0.43055
 C870 C 0.90142 0.21437 0.41258
 H871 H 0.95077 0.25498 0.33749
 H872 H 0.93580 0.31654 0.39169
 H873 H 0.84568 0.24835 0.45087
 H874 H 0.89101 0.18041 0.43349
 H875 H 0.92139 0.22754 0.36306
 H876 H 0.91750 0.20500 0.40231
 C877 C 0.08987 0.25806 0.60603
 C878 C 0.08453 0.28338 0.59889
 C879 C 0.06684 0.29792 0.61364
 C880 C 0.05475 0.28755 0.63593
 C881 C 0.06154 0.26238 0.64298
 N882 N 0.07834 0.24838 0.62786
 C883 C 0.10677 0.24163 0.58939
 N884 N 0.12473 0.25250 0.57292
 C885 C 0.13955 0.23848 0.55602
 C886 C 0.13613 0.21191 0.55447
 C887 C 0.11802 0.20024 0.57151
 C888 C 0.10354 0.21500 0.58919
 H889 H 0.06249 0.31723 0.60737
 H890 H 0.05286 0.25348 0.65997
 H891 H 0.15325 0.24823 0.54317
 H892 H 0.11486 0.17977 0.57098
 H893 H 0.09325 0.29162 0.58157
 H894 H 0.08929 0.20578 0.60190
 C895 C 0.08925 0.73820 0.39856
 C896 C 0.08279 0.71322 0.40608
 C897 C 0.06452 0.69924 0.39161
 C898 C 0.05276 0.70989 0.36934
 C899 C 0.06007 0.73494 0.36233
 N900 N 0.07760 0.74836 0.37709
 C901 C 0.10728 0.75409 0.41436
 N902 N 0.10220 0.77952 0.41697
 C903 C 0.11698 0.79485 0.43262
 C904 C 0.13834 0.78468 0.44679
 C905 C 0.14449 0.75871 0.44361
 C906 C 0.12900 0.74336 0.42750
 H907 H 0.05960 0.68009 0.39798
 H908 H 0.05152 0.74408 0.34546
 H909 H 0.11176 0.81486 0.43430
 H910 H 0.16085 0.75009 0.45408
 H911 H 0.09114 0.70479 0.42343
 H912 H 0.13390 0.72331 0.42546
 C913 C 0.60361 0.91373 0.74107
 C914 C 0.59882 0.91558 0.71432
 C915 C 0.61331 0.93298 0.69944
 C916 C 0.63290 0.94825 0.71104
 C917 C 0.63768 0.94526 0.73769
 N918 N 0.62292 0.92853 0.75189
 C919 C 0.58715 0.89682 0.75764
 N920 N 0.57243 0.87787 0.74663
 C921 C 0.55588 0.86271 0.76073
 C922 C 0.55293 0.86663 0.78754
 C923 C 0.56820 0.88579 0.79936
 C924 C 0.58549 0.90075 0.78454
 H925 H 0.60906 0.93462 0.67892
 H926 H 0.65257 0.95671 0.74739
 H927 H 0.54443 0.84818 0.75083
 H928 H 0.56657 0.88941 0.82000
 H929 H 0.58353 0.90422 0.70509
 H930 H 0.59680 0.91573 0.79393
 C931 C 0.39207 0.91528 0.25009
 C932 C 0.36910 0.92618 0.23932
 C933 C 0.35368 0.94287 0.25419
 C934 C 0.36112 0.94885 0.27972
 C935 C 0.38389 0.93707 0.28995
 N936 N 0.39854 0.92078 0.27512
 C937 C 0.40970 0.89831 0.23485
 N938 N 0.42386 0.87989 0.24737
 C939 C 0.44134 0.86437 0.23476
 C940 C 0.44588 0.86738 0.20804
 C941 C 0.43152 0.88625 0.19476
 C942 C 0.41335 0.90165 0.20804
 H943 H 0.33620 0.95143 0.24556
 H944 H 0.39019 0.94095 0.30963
 H945 H 0.45217 0.85019 0.24577
 H946 H 0.43452 0.88929 0.17417
 H947 H 0.36300 0.92181 0.21969
 H948 H 0.40299 0.91652 0.19754
 C949 C 0.60628 0.08580 0.25712
 C950 C 0.60247 0.08504 0.28409
 C951 C 0.61729 0.06803 0.29905
 C952 C 0.63624 0.05204 0.28731
 C953 C 0.64010 0.05396 0.26040
 N954 N 0.62503 0.07034 0.24613
 C955 C 0.58943 0.10236 0.24061
 N956 N 0.57516 0.12171 0.25158
 C957 C 0.55840 0.13672 0.23762
 C958 C 0.55479 0.13230 0.21100
 C959 C 0.56952 0.11266 0.19920
 C960 C 0.58700 0.09781 0.21387
 H961 H 0.61374 0.06722 0.31977
 H962 H 0.65447 0.04192 0.25059
 H963 H 0.54742 0.15164 0.24751
 H964 H 0.56741 0.10865 0.17869
 H965 H 0.58768 0.09694 0.29348
 H966 H 0.59793 0.08251 0.20452
 C967 C 0.38978 0.08741 0.74831
 C968 C 0.36655 0.07622 0.75833
 C969 C 0.35179 0.05961 0.74284
 C970 C 0.36011 0.05405 0.71743
 C971 C 0.38300 0.06625 0.70790
 N972 N 0.39704 0.08239 0.72335
 C973 C 0.40700 0.10399 0.76430
 N974 N 0.42195 0.12230 0.75246
 C975 C 0.43932 0.13727 0.76576
 C976 C 0.44291 0.13375 0.79253
 C977 C 0.42766 0.11503 0.80513
 C978 C 0.40964 0.10021 0.79115
 H979 H 0.33417 0.05075 0.75094
 H980 H 0.38996 0.06272 0.68833
 H981 H 0.45083 0.15137 0.75525
 H982 H 0.42991 0.11161 0.82574
 H983 H 0.35980 0.08023 0.77787
 H984 H 0.39867 0.08538 0.80115
 C985 C 0.60813 0.74082 0.08931
 C986 C 0.60333 0.71454 0.08640
 C987 C 0.61787 0.70059 0.06819
 C988 C 0.63735 0.71261 0.05295
 C989 C 0.64193 0.73881 0.05678
 N990 N 0.62717 0.75214 0.07437
 C991 C 0.59159 0.75676 0.10678
 N992 N 0.58680 0.78154 0.10026
 C993 C 0.57026 0.79678 0.11436
 C994 C 0.55724 0.78715 0.13645
 C995 C 0.56271 0.76195 0.14407
 C996 C 0.57984 0.74673 0.12934
 H997 H 0.61362 0.68043 0.06582
 H998 H 0.65664 0.74884 0.04530
 H999 H 0.56686 0.81619 0.10794
 H1000 H 0.55329 0.75379 0.16107
 H1001 H 0.58786 0.70497 0.09730
 H1002 H 0.58368 0.72732 0.13554
 C1003 C 0.39855 0.25853 0.08543
 C1004 C 0.37082 0.25953 0.08842
 C1005 C 0.35580 0.27473 0.07163
 C1006 C 0.36850 0.28937 0.05247
 C1007 C 0.39629 0.28811 0.05044
 N1008 N 0.41040 0.27266 0.06650
 C1009 C 0.41520 0.24191 0.10177
 N1010 N 0.43529 0.22844 0.09049
 C1011 C 0.45189 0.21328 0.10444
 C1012 C 0.44926 0.21172 0.13149
 C1013 C 0.42884 0.22564 0.14359
 C1014 C 0.41150 0.24050 0.12873
 H1015 H 0.33436 0.27518 0.07368
 H1016 H 0.40674 0.29891 0.03568
 H1017 H 0.46760 0.20303 0.09447
 H1018 H 0.42627 0.22493 0.16446
 H1019 H 0.36087 0.24821 0.10311
 H1020 H 0.39590 0.25132 0.13823
 C1021 C 0.60615 0.25395 0.91570
 C1022 C 0.62945 0.24428 0.92696
 C1023 C 0.64434 0.25975 0.94349
 C1024 C 0.63607 0.28482 0.94895
 C1025 C 0.61299 0.29397 0.93679
 N1026 N 0.59885 0.27855 0.92066
 C1027 C 0.58904 0.23795 0.89900
 N1028 N 0.57451 0.24924 0.87991
 C1029 C 0.55749 0.23580 0.86463
 C1030 C 0.55383 0.20949 0.86864
 C1031 C 0.56861 0.19749 0.88820
 C1032 C 0.58629 0.21159 0.90331
 H1033 H 0.66209 0.25193 0.95231
 H1034 H 0.60606 0.31326 0.94025
 H1035 H 0.54629 0.24583 0.84990
 H1036 H 0.56627 0.17726 0.89204
 H1037 H 0.63622 0.22503 0.92299
 H1038 H 0.59695 0.20206 0.91875
 C1039 C 0.39078 0.74681 0.91333
 C1040 C 0.36885 0.75669 0.92697
 C1041 C 0.35459 0.74084 0.94376
 C1042 C 0.36220 0.71524 0.94708
 C1043 C 0.38370 0.70592 0.93244
 N1044 N 0.39724 0.72171 0.91617
 C1045 C 0.40764 0.76302 0.89656
 N1046 N 0.42076 0.75211 0.87623
 C1047 C 0.43795 0.76547 0.86101
 C1048 C 0.44334 0.79125 0.86638
 C1049 C 0.42997 0.80291 0.88719
 C1050 C 0.41204 0.78893 0.90223
 H1051 H 0.33804 0.74877 0.95459
 H1052 H 0.39004 0.68623 0.93419
 H1053 H 0.44796 0.75572 0.84524
 H1054 H 0.43363 0.82274 0.89204
 H1055 H 0.36276 0.77641 0.92476
 H1056 H 0.40257 0.79810 0.91866
 C1057 C 0.73571 0.90983 0.40037
 C1058 C 0.70872 0.91515 0.40497
 C1059 C 0.69575 0.93343 0.38988
 C1060 C 0.70948 0.94630 0.37007
 C1061 C 0.73638 0.94027 0.36595
 N1062 N 0.74870 0.92265 0.38116
 C1063 C 0.75070 0.89168 0.41679
 N1064 N 0.77706 0.89588 0.42100
 C1065 C 0.79184 0.88070 0.43682
 C1066 C 0.78012 0.85978 0.44951
 C1067 C 0.75317 0.85461 0.44477
 C1068 C 0.73841 0.87050 0.42849
 H1069 H 0.67501 0.93755 0.39378
 H1070 H 0.74776 0.94988 0.35101
 H1071 H 0.81261 0.88524 0.43973
 H1072 H 0.74335 0.83862 0.45405
 H1073 H 0.69789 0.90590 0.42051
 H1074 H 0.71766 0.86618 0.42512
 C1075 C 0.25899 0.91388 0.60345
 C1076 C 0.28651 0.91733 0.60037
 C1077 C 0.29981 0.93488 0.61600
 C1078 C 0.28588 0.94892 0.63484
 C1079 C 0.25842 0.94474 0.63750
 N1080 N 0.24579 0.92776 0.62177
 C1081 C 0.24390 0.89644 0.58635
 N1082 N 0.21829 0.90224 0.58013
 C1083 C 0.20374 0.88767 0.56352
 C1084 C 0.21494 0.86577 0.55211
 C1085 C 0.24104 0.85906 0.55891
 C1086 C 0.25554 0.87429 0.57596
 H1087 H 0.32098 0.93760 0.61319
 H1088 H 0.24690 0.95534 0.65164
 H1089 H 0.18358 0.89340 0.55903
 H1090 H 0.25044 0.84224 0.55075
 H1091 H 0.29757 0.90721 0.58554
 H1092 H 0.27561 0.86869 0.58096
 C1093 C 0.25020 0.08555 0.39020
 C1094 C 0.23849 0.07377 0.36857
 C1095 C 0.25356 0.05719 0.35322
 C1096 C 0.28026 0.05223 0.35934
 C1097 C 0.29141 0.06493 0.38071
 N1098 N 0.27633 0.08104 0.39536
 C1099 C 0.23481 0.10234 0.40783
 N1100 N 0.24769 0.12111 0.42111
 C1101 C 0.23503 0.13649 0.43850
 C1102 C 0.20786 0.13300 0.44384
 C1103 C 0.19421 0.11376 0.43037
 C1104 C 0.20754 0.09849 0.41232
 H1105 H 0.24417 0.04795 0.33682
 H1106 H 0.31199 0.06187 0.38598
 H1107 H 0.24636 0.15097 0.44860
 H1108 H 0.17329 0.11031 0.43399
 H1109 H 0.21797 0.07735 0.36345
 H1110 H 0.19675 0.08333 0.40272
 C1111 C 0.73596 0.08921 0.59932
 C1112 C 0.70878 0.08505 0.59467
 C1113 C 0.69486 0.06744 0.60984
 C1114 C 0.70783 0.05413 0.62975
 C1115 C 0.73493 0.05907 0.63396
 N1116 N 0.74818 0.07602 0.61868
 C1117 C 0.75198 0.10647 0.58279
 N1118 N 0.77815 0.10101 0.57878
 C1119 C 0.79386 0.11537 0.56297
 C1120 C 0.78335 0.13675 0.55013
 C1121 C 0.75662 0.14317 0.55463
 C1122 C 0.74088 0.12809 0.57087
 H1123 H 0.67400 0.06412 0.60586
 H1124 H 0.74576 0.04907 0.64898
 H1125 H 0.81443 0.10987 0.56024
 H1126 H 0.74772 0.15956 0.54521
 H1127 H 0.69853 0.09464 0.57902
 H1128 H 0.72033 0.13339 0.57409
 C1129 C 0.91827 0.59888 0.25858
 C1130 C 0.93692 0.58759 0.27513
 C1131 C 0.95253 0.60301 0.29100
 C1132 C 0.94999 0.62968 0.28999
 C1133 C 0.93091 0.64027 0.27328
 N1134 N 0.91552 0.62478 0.25829
 C1135 C 0.90227 0.58289 0.24109
 N1136 N 0.87528 0.58508 0.24092
 C1137 C 0.85973 0.56967 0.22601
 C1138 C 0.87139 0.55112 0.20988
 C1139 C 0.89920 0.54911 0.20933
 C1140 C 0.91466 0.56476 0.22510
 H1141 H 0.96711 0.59411 0.30353
 H1142 H 0.92829 0.66077 0.27214
 H1143 H 0.83833 0.57188 0.22677
 H1144 H 0.90894 0.53497 0.19724
 H1145 H 0.93936 0.56703 0.27576
 H1146 H 0.93611 0.56276 0.22486
 C1147 C 0.90941 0.39631 0.73728
 C1148 C 0.91307 0.39986 0.71050
 C1149 C 0.93110 0.38448 0.69708
 C1150 C 0.94536 0.36540 0.71015
 C1151 C 0.94082 0.36215 0.73684
 N1152 N 0.92345 0.37768 0.74962
 C1153 C 0.89189 0.41336 0.75256
 N1154 N 0.89839 0.41891 0.77757
 C1155 C 0.88395 0.43551 0.79227
 C1156 C 0.86144 0.44762 0.78188
 C1157 C 0.85394 0.44154 0.75640
 C1158 C 0.86908 0.42449 0.74170
 H1159 H 0.93409 0.38772 0.67652
 H1160 H 0.95159 0.34779 0.74768
 H1161 H 0.89027 0.43942 0.81194
 H1162 H 0.83662 0.45029 0.74764
 H1163 H 0.90286 0.41492 0.70014
 H1164 H 0.86293 0.42008 0.72209
 C1165 C 0.08826 0.60526 0.74337
 C1166 C 0.07659 0.62734 0.75391
 C1167 C 0.05997 0.64234 0.73853
 C1168 C 0.05488 0.63543 0.71270
 C1169 C 0.06766 0.61368 0.70265
 N1170 N 0.08379 0.59935 0.71802
 C1171 C 0.10472 0.58788 0.75928
 N1172 N 0.12432 0.57396 0.74766
 C1173 C 0.13943 0.55686 0.76097
 C1174 C 0.13474 0.55254 0.78749
 C1175 C 0.11458 0.56660 0.79981
 C1176 C 0.09963 0.58432 0.78585
 H1177 H 0.05067 0.65904 0.74706
 H1178 H 0.06450 0.60779 0.68276
 H1179 H 0.15466 0.54627 0.75069
 H1180 H 0.11022 0.56379 0.82020
 H1181 H 0.08020 0.63300 0.77379
 H1182 H 0.08374 0.59447 0.79562
 C1183 C 0.09117 0.40276 0.26783
 C1184 C 0.08530 0.40743 0.29407
 C1185 C 0.06692 0.39193 0.30694
 C1186 C 0.05457 0.37167 0.29382
 C1187 C 0.06125 0.36746 0.26769
 N1188 N 0.07889 0.38306 0.25546
 C1189 C 0.10917 0.41954 0.25284
 N1190 N 0.10460 0.42290 0.22704
 C1191 C 0.11973 0.43866 0.21213
 C1192 C 0.14109 0.45210 0.22310
 C1193 C 0.14661 0.44839 0.24952
 C1194 C 0.13068 0.43222 0.26446
 H1195 H 0.06224 0.39590 0.32706
 H1196 H 0.05203 0.35217 0.25679
 H1197 H 0.11494 0.44077 0.19178
 H1198 H 0.16295 0.45831 0.25874
 H1199 H 0.09412 0.42332 0.30437
 H1200 H 0.13530 0.42957 0.28478
   
