data_POSCAR
  _audit_creation_date              2014-09-24
  _audit_creation_method            'ToBaCCo'
  _symmetry_space_group_name_H-M    'P1'
  _symmetry_Int_Tables_number       1
  _symmetry_cell_setting            triclinic
  loop_
  _symmetry_equiv_pos_as_xyz
 x,y,z
_cell_length_a 22.4890
_cell_length_b 22.8545
_cell_length_c 22.4889
_cell_angle_alpha 90.000100
_cell_angle_beta 90.000000
_cell_angle_gamma 90.000000
loop_
  _atom_site_label
  _atom_site_type_symbol
  _atom_site_fract_x
  _atom_site_fract_y
  _atom_site_fract_z
N1 N 0.20654 0.21159 0.21153
 N2 N 0.70654 0.71159 0.71153
 N3 N 0.29347 0.78841 0.71151
 N4 N 0.79347 0.28841 0.21151
 N5 N 0.79347 0.71158 0.28849
 N6 N 0.29347 0.21158 -0.21151
 N7 N 0.70653 0.28842 -0.21153
 N8 N 0.20653 0.78842 0.28847
 N9 N 0.46151 0.46158 0.45653
 N10 N -0.03849 -0.03842 0.95653
 N11 N 1.03848 0.53841 0.95654
 N12 N 0.53848 0.03841 0.45654
 N13 N -0.03848 0.03842 0.54347
 N14 N 0.46152 0.53842 0.04347
 N15 N 0.53847 -0.03841 0.04346
 N16 N 1.03847 0.46159 0.54346
 C17 C 0.42540 0.03203 0.14203
 H18 H 0.40143 0.07283 0.14569
 C19 C 0.46525 0.02381 0.09510
 H20 H 0.47112 0.05773 0.06202
 C21 C 0.44977 -0.06112 0.18165
 H22 H 0.44422 -0.09351 0.21629
 C23 C 0.48926 -0.07149 0.13505
 H24 H 0.51406 -0.11206 0.13342
 N25 N 0.41794 -0.01055 0.18371
 C26 C 0.31129 0.10631 0.28328
 H27 H 0.33442 0.10084 0.32501
 C28 C 0.27438 0.15473 0.27503
 H29 H 0.26988 0.18698 0.31001
 C30 C 0.28664 0.07033 0.18748
 H31 H 0.29117 0.03672 0.15391
 C32 C 0.24996 0.11854 0.17705
 H33 H 0.22613 0.12232 0.13539
 Zn34 Zn 0.36736 0.00000 0.25000
 N35 N 0.31753 0.06586 0.23932
 C36 C 0.44977 0.06113 0.31835
 N37 N 0.41794 0.01056 0.31629
 C38 C 0.42540 -0.03203 0.35797
 C39 C 0.46526 -0.02380 0.40490
 C40 C 0.48927 0.07149 0.36495
 C41 C 0.31128 -0.10630 0.21673
 C42 C 0.27438 -0.15472 0.22497
 C43 C 0.24996 -0.11854 0.32296
 C44 C 0.28664 -0.07033 0.31253
 N45 N 0.31753 -0.06585 0.26069
 H46 H 0.44423 0.09351 0.28371
 H47 H 0.40143 -0.07283 0.35431
 H48 H 0.47113 -0.05773 0.43798
 H49 H 0.51407 0.11206 0.36658
 H50 H 0.33441 -0.10083 0.17500
 H51 H 0.26987 -0.18696 0.18999
 H52 H 0.22614 -0.12232 0.36461
 H53 H 0.29118 -0.03672 0.34610
 C54 C 0.24403 0.16148 0.22108
 C55 C 0.49735 -0.02859 0.09138
 C56 C 0.24403 -0.16147 0.27892
 C57 C 0.49736 0.02860 0.40862
 C58 C 0.07460 -0.03202 0.64203
 H59 H 0.09857 -0.07282 0.64569
 C60 C 0.03475 -0.02380 0.59510
 H61 H 0.02888 -0.05772 0.56202
 C62 C 0.05024 0.06113 0.68166
 H63 H 0.05578 0.09352 0.71630
 C64 C 0.01075 0.07150 0.63505
 H65 H -0.01406 0.11207 0.63343
 N66 N 0.08206 0.01056 0.68371
 C67 C 0.18872 -0.10631 0.78327
 H68 H 0.16559 -0.10085 0.82500
 C69 C 0.22562 -0.15473 0.77502
 H70 H 0.23013 -0.18698 0.81000
 C71 C 0.21337 -0.07033 0.68747
 H72 H 0.20882 -0.03671 0.65391
 C73 C 0.25004 -0.11854 0.67703
 H74 H 0.27387 -0.12231 0.63538
 Zn75 Zn 0.13264 -0.00000 0.75000
 N76 N 0.18248 -0.06585 0.73931
 C77 C 0.05023 -0.06114 0.81834
 N78 N 0.08206 -0.01056 0.81629
 C79 C 0.07460 0.03202 0.85797
 C80 C 0.03474 0.02379 0.90490
 C81 C 0.01074 -0.07151 0.86494
 C82 C 0.18872 0.10630 0.71674
 C83 C 0.22563 0.15472 0.72499
 C84 C 0.25004 0.11853 0.82297
 C85 C 0.21336 0.07032 0.81254
 N86 N 0.18248 0.06585 0.76070
 H87 H 0.05578 -0.09352 0.78370
 H88 H 0.09856 0.07282 0.85431
 H89 H 0.02887 0.05771 0.93798
 H90 H -0.01407 -0.11208 0.86657
 H91 H 0.16560 0.10084 0.67500
 H92 H 0.23014 0.18696 0.69000
 H93 H 0.27386 0.12231 0.86463
 H94 H 0.20882 0.03671 0.84610
 C95 C 0.25597 -0.16147 0.72107
 C96 C 0.00265 0.02860 0.59138
 C97 C 0.25597 0.16146 0.77894
 C98 C 0.00264 -0.02861 0.90861
 C99 C 0.57460 0.46798 0.14203
 H100 H 0.59857 0.42718 0.14569
 C101 C 0.53475 0.47620 0.09510
 H102 H 0.52888 0.44228 0.06202
 C103 C 0.55024 0.56113 0.18166
 H104 H 0.55578 0.59352 0.21630
 C105 C 0.51075 0.57150 0.13505
 H106 H 0.48594 0.61207 0.13343
 N107 N 0.58206 0.51056 0.18371
 C108 C 0.68872 0.39369 0.28327
 H109 H 0.66558 0.39915 0.32500
 C110 C 0.72562 0.34527 0.27502
 H111 H 0.73013 0.31302 0.31000
 C112 C 0.71337 0.42967 0.18747
 H113 H 0.70882 0.46329 0.15391
 C114 C 0.75004 0.38146 0.17703
 H115 H 0.77387 0.37769 0.13538
 Zn116 Zn 0.63264 0.50000 0.25000
 N117 N 0.68248 0.43415 0.23931
 C118 C 0.55023 0.43887 0.31834
 N119 N 0.58206 0.48944 0.31629
 C120 C 0.57460 0.53202 0.35797
 C121 C 0.53474 0.52379 0.40490
 C122 C 0.51074 0.42849 0.36494
 C123 C 0.68872 0.60630 0.21674
 C124 C 0.72563 0.65472 0.22499
 C125 C 0.75004 0.61853 0.32297
 C126 C 0.71336 0.57032 0.31254
 N127 N 0.68248 0.56585 0.26070
 H128 H 0.55578 0.40648 0.28370
 H129 H 0.59856 0.57282 0.35432
 H130 H 0.52887 0.55771 0.43798
 H131 H 0.48593 0.38792 0.36657
 H132 H 0.66559 0.60084 0.17501
 H133 H 0.73014 0.68696 0.19001
 H134 H 0.77386 0.62231 0.36463
 H135 H 0.70882 0.53671 0.34610
 C136 C 0.75597 0.33853 0.22107
 C137 C 0.50265 0.52860 0.09138
 C138 C 0.75597 0.66146 0.27894
 C139 C 0.50264 0.47139 0.40861
 C140 C 0.92540 0.53203 0.64203
 H141 H 0.90143 0.57283 0.64569
 C142 C 0.96525 0.52381 0.59510
 H143 H 0.97112 0.55773 0.56202
 C144 C 0.94977 0.43888 0.68165
 H145 H 0.94423 0.40649 0.71629
 C146 C 0.98926 0.42851 0.63505
 H147 H 1.01407 0.38794 0.63342
 N148 N 0.91794 0.48945 0.68371
 C149 C 0.81129 0.60631 0.78328
 H150 H 0.83442 0.60085 0.82501
 C151 C 0.77439 0.65473 0.77503
 H152 H 0.76988 0.68698 0.81001
 C153 C 0.78664 0.57033 0.68748
 H154 H 0.79117 0.53672 0.65392
 C155 C 0.74996 0.61854 0.67705
 H156 H 0.72613 0.62232 0.63539
 Zn157 Zn 0.86736 0.50000 0.75000
 N158 N 0.81753 0.56586 0.73932
 C159 C 0.94978 0.56113 0.81835
 N160 N 0.91794 0.51056 0.81629
 C161 C 0.92540 0.46797 0.85797
 C162 C 0.96525 0.47620 0.90490
 C163 C 0.98927 0.57149 0.86495
 C164 C 0.81128 0.39370 0.71673
 C165 C 0.77438 0.34528 0.72497
 C166 C 0.74996 0.38146 0.82296
 C167 C 0.78664 0.42967 0.81253
 N168 N 0.81753 0.43415 0.76069
 H169 H 0.94423 0.59351 0.78371
 H170 H 0.90143 0.42717 0.85432
 H171 H 0.97112 0.44227 0.93799
 H172 H 1.01408 0.61206 0.86658
 H173 H 0.83441 0.39917 0.67500
 H174 H 0.76987 0.31304 0.68999
 H175 H 0.72614 0.37768 0.86461
 H176 H 0.79118 0.46329 0.84610
 C177 C 0.74404 0.66148 0.72108
 C178 C 0.99735 0.47141 0.59138
 C179 C 0.74403 0.33853 0.77892
 C180 C 0.99736 0.52859 0.90862
 C181 C 0.16421 0.45826 0.03039
 H182 H 0.18565 0.45564 0.07338
 C183 C 0.11589 0.49572 0.02222
 H184 H 0.10002 0.52117 0.05957
 C185 C 0.15913 0.42767 -0.07010
 H186 H 0.17690 0.40204 -0.10631
 C187 C 0.11116 0.46511 -0.08047
 H188 H 0.09247 0.46747 -0.12474
 N189 N 0.18408 0.42435 -0.01512
 C190 C 0.28040 0.29174 0.08580
 H191 H 0.32339 0.29437 0.06437
 C192 C 0.27223 0.25429 0.13412
 H193 H 0.30957 0.22884 0.15000
 C194 C 0.17990 0.32233 0.09088
 H195 H 0.14369 0.34795 0.07311
 C196 C 0.16953 0.28489 0.13885
 H197 H 0.12526 0.28253 0.15754
 Zn198 Zn 0.25001 0.37500 0.00001
 N199 N 0.23488 0.32565 0.06594
 C200 C 0.34088 0.42768 0.07011
 N201 N 0.31593 0.42435 0.01513
 C202 C 0.33580 0.45826 -0.03038
 C203 C 0.38412 0.49572 -0.02222
 C204 C 0.38884 0.46512 0.08048
 C205 C 0.21962 0.29174 -0.08578
 C206 C 0.22779 0.25428 -0.13410
 C207 C 0.33048 0.28488 -0.13883
 C208 C 0.32011 0.32232 -0.09087
 N209 N 0.26513 0.32565 -0.06592
 H210 H 0.32310 0.40206 0.10633
 H211 H 0.31437 0.45563 -0.07338
 H212 H 0.39999 0.52117 -0.05956
 H213 H 0.40753 0.46749 0.12476
 H214 H 0.17663 0.29436 -0.06435
 H215 H 0.19044 0.22883 -0.14997
 H216 H 0.37476 0.28251 -0.15752
 H217 H 0.35633 0.34795 -0.07309
 C218 C 0.21615 0.25042 0.16152
 C219 C 0.08849 0.49958 -0.03386
 C220 C 0.28387 0.25041 -0.16150
 C221 C 0.41151 0.49959 0.03386
 C222 C 0.66420 0.04174 -0.03040
 H223 H 0.68563 0.04437 -0.07339
 C224 C 0.61588 0.00429 -0.02223
 H225 H 0.60001 -0.02116 -0.05957
 C226 C 0.65912 0.07233 0.07010
 H227 H 0.67690 0.09796 0.10631
 C228 C 0.61116 0.03489 0.08047
 H229 H 0.59246 0.03253 0.12474
 N230 N 0.68407 0.07565 0.01511
 C231 C 0.78039 0.20826 -0.08580
 H232 H 0.82338 0.20563 -0.06437
 C233 C 0.77222 0.24571 -0.13412
 H234 H 0.80957 0.27116 -0.15000
 C235 C 0.67989 0.17768 -0.09088
 H236 H 0.64368 0.15205 -0.07310
 C237 C 0.66952 0.21512 -0.13884
 H238 H 0.62525 0.21748 -0.15754
 Zn239 Zn 0.75000 0.12500 -0.00001
 N240 N 0.73488 0.17435 -0.06594
 C241 C 0.84087 0.07232 -0.07011
 N242 N 0.81592 0.07565 -0.01513
 C243 C 0.83579 0.04174 0.03038
 C244 C 0.88410 0.00428 0.02221
 C245 C 0.88883 0.03488 -0.08049
 C246 C 0.71961 0.20826 0.08578
 C247 C 0.72778 0.24572 0.13410
 C248 C 0.83048 0.21511 0.13883
 C249 C 0.82010 0.17767 0.09087
 N250 N 0.76512 0.17435 0.06592
 H251 H 0.82310 0.09795 -0.10633
 H252 H 0.81436 0.04436 0.07337
 H253 H 0.89998 -0.02117 0.05956
 H254 H 0.90753 0.03251 -0.12476
 H255 H 0.67662 0.20564 0.06435
 H256 H 0.69044 0.27117 0.14997
 H257 H 0.87475 0.21747 0.15753
 H258 H 0.85632 0.15204 0.07309
 C259 C 0.71614 0.24959 -0.16152
 C260 C 0.58848 0.00042 0.03385
 C261 C 0.78386 0.24958 0.16150
 C262 C 0.91150 0.00041 -0.03387
 C263 C 0.16420 0.54174 0.46960
 H264 H 0.18563 0.54437 0.42661
 C265 C 0.11588 0.50429 0.47777
 H266 H 0.10001 0.47884 0.44043
 C267 C 0.15912 0.57233 0.57010
 H268 H 0.17690 0.59796 0.60631
 C269 C 0.11116 0.53489 0.58047
 H270 H 0.09246 0.53253 0.62474
 N271 N 0.18407 0.57565 0.51511
 C272 C 0.28039 0.70826 0.41420
 H273 H 0.32338 0.70563 0.43562
 C274 C 0.27222 0.74571 0.36588
 H275 H 0.30957 0.77116 0.35000
 C276 C 0.17989 0.67768 0.40912
 H277 H 0.14368 0.65205 0.42690
 C278 C 0.16952 0.71512 0.36116
 H279 H 0.12525 0.71749 0.34246
 Zn280 Zn 0.25000 0.62500 0.49999
 N281 N 0.23488 0.67435 0.43406
 C282 C 0.34087 0.57232 0.42989
 N283 N 0.31592 0.57565 0.48487
 C284 C 0.33579 0.54174 0.53038
 C285 C 0.38410 0.50428 0.52221
 C286 C 0.38883 0.53488 0.41951
 C287 C 0.21961 0.70826 0.58578
 C288 C 0.22778 0.74572 0.63410
 C289 C 0.33048 0.71511 0.63883
 C290 C 0.32010 0.67767 0.59087
 N291 N 0.26512 0.67435 0.56592
 H292 H 0.32309 0.59794 0.39367
 H293 H 0.31436 0.54437 0.57337
 H294 H 0.39998 0.47883 0.55956
 H295 H 0.40753 0.53251 0.37524
 H296 H 0.17662 0.70564 0.56435
 H297 H 0.19044 0.77117 0.64997
 H298 H 0.37475 0.71747 0.65753
 H299 H 0.35632 0.65204 0.57309
 C300 C 0.21614 0.74959 0.33848
 C301 C 0.08848 0.50042 0.53385
 C302 C 0.28386 0.74958 0.66150
 C303 C 0.41150 0.50041 0.46613
 C304 C 0.66421 0.95826 0.53039
 H305 H 0.68565 0.95564 0.57338
 C306 C 0.61589 0.99572 0.52222
 H307 H 0.60002 1.02117 0.55957
 C308 C 0.65913 0.92767 0.42990
 H309 H 0.67690 0.90204 0.39369
 C310 C 0.61116 0.96511 0.41953
 H311 H 0.59247 0.96747 0.37525
 N312 N 0.68408 0.92435 0.48488
 C313 C 0.78040 0.79175 0.58580
 H314 H 0.82339 0.79437 0.56437
 C315 C 0.77223 0.75429 0.63412
 H316 H 0.80957 0.72884 0.65000
 C317 C 0.67990 0.82233 0.59088
 H318 H 0.64369 0.84795 0.57311
 C319 C 0.66953 0.78489 0.63885
 H320 H 0.62526 0.78253 0.65754
 Zn321 Zn 0.75001 0.87500 0.50001
 N322 N 0.73488 0.82565 0.56594
 C323 C 0.84088 0.92768 0.57011
 N324 N 0.81593 0.92435 0.51513
 C325 C 0.83580 0.95826 0.46961
 C326 C 0.88412 0.99572 0.47778
 C327 C 0.88884 0.96512 0.58048
 C328 C 0.71962 0.79174 0.41422
 C329 C 0.72779 0.75428 0.36590
 C330 C 0.83048 0.78488 0.36117
 C331 C 0.82011 0.82232 0.40913
 N332 N 0.76513 0.82565 0.43408
 H333 H 0.82310 0.90206 0.60633
 H334 H 0.81437 0.95563 0.42662
 H335 H 0.89999 1.02116 0.44044
 H336 H 0.90753 0.96749 0.62476
 H337 H 0.67663 0.79436 0.43565
 H338 H 0.69044 0.72883 0.35003
 H339 H 0.87476 0.78251 0.34247
 H340 H 0.85633 0.84795 0.42691
 C341 C 0.71615 0.75042 0.66152
 C342 C 0.58849 0.99958 0.46614
 C343 C 0.78387 0.75041 0.33850
 C344 C 0.91151 0.99959 0.53386
 C345 C 0.03327 0.14370 0.43872
 H346 H 0.07500 0.14917 0.41559
 C347 C 0.02502 0.09529 0.47563
 H348 H 0.06001 0.06304 0.48014
 C349 C -0.06253 0.17968 0.46336
 H350 H -0.09610 0.21329 0.45882
 C351 C -0.07296 0.13146 0.50004
 H352 H -0.11462 0.12769 0.52386
 N353 N -0.01069 0.18415 0.43248
 C354 C 0.10797 0.28203 0.32461
 H355 H 0.10431 0.32283 0.34857
 C356 C 0.15490 0.27380 0.28476
 H357 H 0.18798 0.30773 0.27889
 C358 C 0.06835 0.18888 0.30023
 H359 H 0.03371 0.15649 0.30578
 C360 C 0.11495 0.17851 0.26075
 H361 H 0.11658 0.13794 0.23594
 Zn362 Zn -0.00000 0.25000 0.38264
 N363 N 0.06629 0.23945 0.33206
 C364 C 0.06252 0.32033 0.46337
 N365 N 0.01068 0.31586 0.43247
 C366 C -0.03328 0.35632 0.43871
 C367 C -0.02503 0.40473 0.47561
 C368 C 0.07295 0.36854 0.50004
 C369 C -0.10797 0.21798 0.32460
 C370 C -0.15490 0.22620 0.28474
 C371 C -0.11495 0.32150 0.26073
 C372 C -0.06834 0.31113 0.30022
 N373 N -0.06629 0.26056 0.33205
 H374 H 0.09608 0.28671 0.45883
 H375 H -0.07500 0.35085 0.41557
 H376 H -0.06001 0.43698 0.48012
 H377 H 0.11460 0.37232 0.52387
 H378 H -0.10432 0.17718 0.34857
 H379 H -0.18799 0.19228 0.27887
 H380 H -0.11657 0.36206 0.23592
 H381 H -0.03370 0.34351 0.30577
 C382 C 0.15862 0.22141 0.25266
 C383 C -0.02893 0.08854 0.50597
 C384 C -0.15862 0.27860 0.25264
 C385 C 0.02892 0.41148 0.50596
 C386 C -0.03327 0.64368 0.06129
 H387 H -0.07500 0.64915 0.08443
 C388 C -0.02502 0.59527 0.02439
 H389 H -0.06000 0.56302 0.01988
 C390 C 0.06253 0.67967 0.03663
 H391 H 0.09608 0.71329 0.04117
 C392 C 0.07296 0.63146 -0.00004
 H393 H 0.11461 0.62769 -0.02387
 N394 N 0.01069 0.68414 0.06753
 C395 C -0.10798 0.78202 0.17540
 H396 H -0.10432 0.82282 0.15143
 C397 C -0.15490 0.77379 0.21526
 H398 H -0.18799 0.80771 0.22113
 C399 C -0.06834 0.68887 0.19978
 H400 H -0.03370 0.65648 0.19423
 C401 C -0.11494 0.67850 0.23927
 H402 H -0.11657 0.63793 0.26408
 Zn403 Zn -0.00000 0.75000 0.11736
 N404 N -0.06629 0.73944 0.16795
 C405 C -0.06254 0.82032 0.03664
 N406 N -0.01070 0.81585 0.06752
 C407 C 0.03326 0.85630 0.06128
 C408 C 0.02502 0.90471 0.02437
 C409 C -0.07297 0.86853 -0.00004
 C410 C 0.10797 0.71797 0.17539
 C411 C 0.15490 0.72620 0.21525
 C412 C 0.11495 0.82150 0.23925
 C413 C 0.06834 0.81113 0.19977
 N414 N 0.06628 0.76056 0.16794
 H415 H -0.09610 0.78671 0.04118
 H416 H 0.07499 0.85084 0.08441
 H417 H 0.06000 0.93696 0.01986
 H418 H -0.11463 0.87231 -0.02387
 H419 H 0.10431 0.67717 0.15143
 H420 H 0.18798 0.69228 0.22112
 H421 H 0.11657 0.86207 0.26406
 H422 H 0.03370 0.84351 0.19422
 C423 C -0.15861 0.72139 0.24736
 C424 C 0.02893 0.58852 -0.00597
 C425 C 0.15862 0.77860 0.24735
 C426 C -0.02894 0.91146 -0.00598
 C427 C 0.46673 0.14368 0.56129
 H428 H 0.42500 0.14914 0.58443
 C429 C 0.47498 0.09527 0.52439
 H430 H 0.44000 0.06301 0.51988
 C431 C 0.56253 0.17967 0.53663
 H432 H 0.59608 0.21329 0.54117
 C433 C 0.57296 0.13146 0.49996
 H434 H 0.61461 0.12769 0.47613
 N435 N 0.51069 0.18414 0.56753
 C436 C 0.39202 0.28202 0.67540
 H437 H 0.39568 0.32282 0.65143
 C438 C 0.34510 0.27379 0.71526
 H439 H 0.31201 0.30771 0.72113
 C440 C 0.43166 0.18887 0.69978
 H441 H 0.46630 0.15649 0.69423
 C442 C 0.38506 0.17850 0.73927
 H443 H 0.38344 0.13793 0.76408
 Zn444 Zn 0.50000 0.25000 0.61736
 N445 N 0.43371 0.23944 0.66795
 C446 C 0.43746 0.32032 0.53664
 N447 N 0.48930 0.31585 0.56752
 C448 C 0.53326 0.35630 0.56128
 C449 C 0.52501 0.40472 0.52437
 C450 C 0.42703 0.36853 0.49996
 C451 C 0.60797 0.21797 0.67539
 C452 C 0.65490 0.22620 0.71525
 C453 C 0.61495 0.32150 0.73925
 C454 C 0.56834 0.31113 0.69977
 N455 N 0.56629 0.26056 0.66794
 H456 H 0.40390 0.28671 0.54118
 H457 H 0.57499 0.35084 0.58441
 H458 H 0.55999 0.43696 0.51986
 H459 H 0.38537 0.37231 0.47613
 H460 H 0.60431 0.17718 0.65143
 H461 H 0.68798 0.19228 0.72112
 H462 H 0.61657 0.36207 0.76406
 H463 H 0.53370 0.34351 0.69422
 C464 C 0.34139 0.22139 0.74736
 C465 C 0.52893 0.08852 0.49403
 C466 C 0.65862 0.27860 0.74735
 C467 C 0.47106 0.41146 0.49403
 C468 C 0.53327 0.64370 0.93872
 H469 H 0.57500 0.64917 0.91559
 C470 C 0.52502 0.59529 0.97563
 H471 H 0.56001 0.56304 0.98014
 C472 C 0.43746 0.67968 0.96336
 H473 H 0.40390 0.71329 0.95882
 C474 C 0.42704 0.63146 1.00004
 H475 H 0.38538 0.62769 1.02386
 N476 N 0.48931 0.68415 0.93248
 C477 C 0.60797 0.78203 0.82461
 H478 H 0.60431 0.82283 0.84857
 C479 C 0.65490 0.77381 0.78476
 H480 H 0.68798 0.80773 0.77889
 C481 C 0.56835 0.68888 0.80023
 H482 H 0.53371 0.65649 0.80578
 C483 C 0.61495 0.67851 0.76075
 H484 H 0.61658 0.63794 0.73594
 Zn485 Zn 0.50000 0.75000 0.88264
 N486 N 0.56629 0.73945 0.83206
 C487 C 0.56252 0.82033 0.96337
 N488 N 0.51068 0.81586 0.93247
 C489 C 0.46672 0.85632 0.93871
 C490 C 0.47497 0.90473 0.97561
 C491 C 0.57295 0.86854 1.00004
 C492 C 0.39203 0.71797 0.82460
 C493 C 0.34510 0.72620 0.78474
 C494 C 0.38505 0.82150 0.76073
 C495 C 0.43166 0.81113 0.80022
 N496 N 0.43371 0.76056 0.83205
 H497 H 0.59608 0.78671 0.95883
 H498 H 0.42500 0.85085 0.91557
 H499 H 0.43999 0.93698 0.98012
 H500 H 0.61460 0.87232 1.02387
 H501 H 0.39569 0.67718 0.84856
 H502 H 0.31202 0.69228 0.77887
 H503 H 0.38343 0.86207 0.73592
 H504 H 0.46630 0.84351 0.80577
 C505 C 0.65862 0.72141 0.75266
 C506 C 0.47107 0.58854 1.00597
 C507 C 0.34138 0.77860 0.75264
 C508 C 0.52892 0.91148 1.00596
   
