data_POSCAR
  _audit_creation_date              2014-09-24
  _audit_creation_method            'ToBaCCo'
  _symmetry_space_group_name_H-M    'P1'
  _symmetry_Int_Tables_number       1
  _symmetry_cell_setting            triclinic
  loop_
  _symmetry_equiv_pos_as_xyz
 x,y,z
_cell_length_a 34.5496
_cell_length_b 33.2294
_cell_length_c 34.1614
_cell_angle_alpha 88.860300
_cell_angle_beta 92.693500
_cell_angle_gamma 87.955100
loop_
  _atom_site_label
  _atom_site_type_symbol
  _atom_site_fract_x
  _atom_site_fract_y
  _atom_site_fract_z
N1 N 0.57503 0.68858 0.60769
 N2 N 0.56045 0.67191 0.63870
 C3 C 0.52896 0.69388 0.64844
 C4 C 0.52348 0.72586 0.62196
 C5 C 0.55304 0.72141 0.59638
 H6 H 0.51141 0.68720 0.67295
 H7 H 0.55862 0.74122 0.57194
 Cu8 Cu 0.58462 0.62380 0.66393
 Cu9 Cu 0.62250 0.66758 0.58559
 Cu10 Cu 0.66647 0.58218 0.63086
 N11 N 0.60923 0.57568 0.68876
 N12 N 0.64202 0.56039 0.67651
 C13 C 0.65411 0.52902 0.70006
 C14 C 0.62719 0.52425 0.72848
 C15 C 0.59902 0.55416 0.72023
 H16 H 0.68037 0.51107 0.69651
 H17 H 0.57353 0.56029 0.73665
 N18 N 0.68674 0.60861 0.58432
 N19 N 0.67061 0.64169 0.56767
 C20 C 0.69193 0.65305 0.53759
 C21 C 0.72270 0.62558 0.53512
 C22 C 0.71838 0.59775 0.56492
 H23 H 0.68532 0.67900 0.51855
 H24 H 0.73731 0.57177 0.57211
 H25 H 0.61680 0.60848 0.60371
 H26 H 0.64611 0.64091 0.63682
 N27 N 0.92798 0.31748 0.12307
 N28 N 0.93859 0.33196 0.15728
 C29 C 0.96904 0.30959 0.17280
 C30 C 0.97831 0.27996 0.14662
 C31 C 0.95163 0.28590 0.11527
 H32 H 0.98385 0.31478 0.20074
 H33 H 0.94891 0.26815 0.08918
 Cu34 Cu 0.91283 0.37966 0.17770
 Cu35 Cu 0.88302 0.33903 0.09226
 Cu36 Cu 0.83765 0.42544 0.12532
 N37 N 0.88911 0.43052 0.19334
 N38 N 0.85933 0.44777 0.17338
 C39 C 0.84826 0.48169 0.19136
 C40 C 0.87274 0.48625 0.22394
 C41 C 0.89835 0.45324 0.22439
 H42 H 0.82434 0.50179 0.18140
 H43 H 0.92151 0.44600 0.24604
 N44 N 0.82002 0.39834 0.07730
 N45 N 0.83702 0.36501 0.06507
 C46 C 0.81750 0.35283 0.03264
 C47 C 0.78713 0.38001 0.02378
 C48 C 0.78949 0.40855 0.05265
 H49 H 0.82461 0.32604 0.01662
 H50 H 0.76985 0.43417 0.05600
 H51 H 0.88934 0.39749 0.11102
 H52 H 0.85461 0.36605 0.13749
 N53 N 0.42787 0.18489 -0.10169
 N54 N 0.44050 0.17099 -0.13471
 C55 C 0.46970 0.19360 -0.14616
 C56 C 0.47568 0.22308 -0.11870
 C57 C 0.44883 0.21652 -0.09081
 H58 H 0.48555 0.18883 -0.17231
 H59 H 0.44456 0.23391 -0.06484
 Cu60 Cu 0.41737 0.12487 -0.15951
 Cu61 Cu 0.38437 0.16182 -0.07604
 Cu62 Cu 0.34223 0.07992 -0.12019
 N63 N 0.39380 0.07872 -0.18380
 N64 N 0.36371 0.06200 -0.16889
 C65 C 0.35200 0.03213 -0.19220
 C66 C 0.37629 0.02992 -0.22321
 C67 C 0.40259 0.05966 -0.21684
 H68 H 0.32792 0.01321 -0.18678
 H69 H 0.42594 0.06714 -0.23537
 N70 N 0.32471 0.10255 -0.07085
 N71 N 0.34015 0.13433 -0.05460
 C72 C 0.32061 0.14386 -0.02267
 C73 C 0.29194 0.11652 -0.01834
 C74 C 0.29528 0.09071 -0.04935
 H75 H 0.32646 0.16903 -0.00399
 H76 H 0.27683 0.06601 -0.05639
 H77 H 0.39228 0.10429 -0.09699
 H78 H 0.35780 0.13912 -0.12600
 N79 N 0.06862 0.80590 0.37155
 N80 N 0.05587 0.82483 0.33905
 C81 C 0.02440 0.80645 0.32436
 C82 C 0.01662 0.77486 0.34937
 C83 C 0.04529 0.77539 0.37912
 H84 H 0.00785 0.81567 0.29783
 H85 H 0.04954 0.75469 0.40388
 Cu86 Cu 0.08063 0.87280 0.32036
 Cu87 Cu 0.11568 0.82085 0.40047
 Cu88 Cu 0.16102 0.90554 0.36698
 N89 N 0.10591 0.92068 0.30226
 N90 N 0.13769 0.93295 0.32028
 C91 C 0.14963 0.96589 0.30141
 C92 C 0.12368 0.97506 0.27029
 C93 C 0.09628 0.94574 0.27160
 H94 H 0.17519 0.98215 0.30975
 H95 H 0.07163 0.94255 0.25135
 N96 N 0.18021 0.87364 0.41367
 N97 N 0.16361 0.84069 0.42567
 C98 C 0.18465 0.82445 0.45664
 C99 C 0.21545 0.84866 0.46490
 C100 C 0.21183 0.87960 0.43716
 H101 H 0.17813 0.79706 0.47221
 H102 H 0.23142 0.90394 0.43373
 H103 H 0.11063 0.88146 0.38555
 H104 H 0.14116 0.84913 0.35419
 C105 C 0.10099 0.15032 0.10521
 N106 N 0.12950 0.14873 0.07924
 C107 C 0.15802 0.11957 0.08272
 N108 N 0.15776 0.09160 0.11228
 C109 C 0.12915 0.09271 0.13821
 N110 N 0.10084 0.12223 0.13465
 C111 C 0.39390 0.84782 0.62413
 N112 N 0.39553 0.87358 0.65452
 C113 C 0.36937 0.90485 0.65611
 N114 N 0.34164 0.91066 0.62679
 C115 C 0.33975 0.88510 0.59631
 N116 N 0.36600 0.85372 0.59503
 C117 C 0.89357 0.65279 0.38930
 N118 N 0.86426 0.65290 0.41440
 C119 C 0.83519 0.62663 0.40991
 N120 N 0.83600 0.59967 0.38059
 C121 C 0.86541 0.59907 0.35558
 N122 N 0.89409 0.62581 0.35994
 C123 C 0.60219 0.33884 -0.12151
 N124 N 0.62952 0.34150 -0.09189
 C125 C 0.65612 0.37056 -0.09282
 N126 N 0.65550 0.39688 -0.12382
 C127 C 0.62828 0.39441 -0.15362
 N128 N 0.60154 0.36554 -0.15223
 C129 C 0.00817 0.25056 0.15187
 C130 C 0.01874 0.22611 0.12329
 C131 C 0.05014 0.19533 0.13003
 C132 C 0.06980 0.18147 0.10007
 H133 H 0.00520 0.22939 0.09410
 H134 H 0.05777 0.18465 0.15969
 H135 H 0.02400 0.24844 0.18006
 H136 H 0.06378 0.19439 0.07093
 C137 C 0.49354 0.75861 0.62112
 C138 C 0.47333 0.76734 0.65257
 C139 C 0.44473 0.80131 0.65339
 C140 C 0.42239 0.81395 0.62211
 H141 H 0.47982 0.75098 0.67994
 H142 H 0.44073 0.81491 0.68153
 H143 H 0.48964 0.77715 0.59470
 H144 H 0.42407 0.79840 0.59464
 C145 C 0.98628 0.74846 0.34436
 C146 C 0.97681 0.72224 0.37226
 C147 C 0.94487 0.69475 0.36534
 C148 C 0.92519 0.68080 0.39515
 H149 H 0.99161 0.72171 0.40094
 H150 H 0.93675 0.68672 0.33554
 H151 H 0.96901 0.75037 0.31699
 H152 H 0.93149 0.69134 0.42452
 C153 C 0.50426 0.25494 -0.11832
 C154 C 0.52288 0.26535 -0.15031
 C155 C 0.55099 0.29774 -0.15097
 C156 C 0.57358 0.30712 -0.11976
 H157 H 0.51582 0.25135 -0.17794
 H158 H 0.55456 0.31271 -0.17896
 H159 H 0.50876 0.27115 -0.09140
 H160 H 0.57227 0.29017 -0.09249
 C161 C 0.12619 0.00835 0.24151
 C162 C 0.09560 0.02147 0.21865
 C163 C 0.09731 0.05451 0.18933
 C164 C 0.12893 0.06144 0.16934
 H165 H 0.06750 0.00896 0.22258
 H166 H 0.07058 0.07163 0.18206
 H167 H 0.15356 0.02310 0.24014
 H168 H 0.15477 0.04224 0.17423
 C169 C 0.62750 0.49629 -0.24041
 C170 C 0.65788 0.47120 -0.23082
 C171 C 0.65834 0.44293 -0.19698
 C172 C 0.62713 0.42293 -0.18717
 H173 H 0.68452 0.47316 -0.24609
 H174 H 0.68591 0.43676 -0.18119
 H175 H 0.60239 0.49623 -0.22254
 H176 H 0.60046 0.42623 -0.20512
 C177 C 0.37535 1.00214 0.74377
 C178 C 0.34336 0.98293 0.73274
 C179 C 0.34167 0.95601 0.69892
 C180 C 0.37175 0.93225 0.68938
 H181 H 0.31662 0.98901 0.74720
 H182 H 0.31399 0.95410 0.68294
 H183 H 0.40114 0.99903 0.72707
 H184 H 0.39842 0.93146 0.70742
 C185 C 0.87038 0.51884 0.25241
 C186 C 0.90022 0.52710 0.27700
 C187 C 0.89836 0.55923 0.30614
 C188 C 0.86605 0.56895 0.32457
 H189 H 0.92785 0.51110 0.27474
 H190 H 0.92532 0.57302 0.31470
 H191 H 0.84378 0.53713 0.25218
 H192 H 0.83984 0.55279 0.31849
 C193 C 0.26267 0.11739 0.01160
 C194 C 0.24189 0.08539 0.02006
 C195 C 0.21192 0.08640 0.04945
 C196 C 0.18886 0.11896 0.05445
 H197 H 0.24810 0.05684 0.00652
 H198 H 0.20713 0.05865 0.06538
 H199 H 0.25893 0.14490 0.02770
 H200 H 0.19145 0.14559 0.03608
 C201 C 0.75363 0.62485 0.50692
 C202 C 0.76298 0.65776 0.48674
 C203 C 0.79492 0.65764 0.45956
 C204 C 0.80334 0.62627 0.43704
 H205 H 0.74870 0.68650 0.49219
 H206 H 0.81052 0.68517 0.45663
 H207 H 0.77031 0.59689 0.50425
 H208 H 0.78561 0.60004 0.43743
 C209 C 0.75786 0.37704 -0.00865
 C210 C 0.73505 0.40847 -0.02138
 C211 C 0.70597 0.40572 -0.05417
 C212 C 0.68555 0.37275 -0.06044
 H213 H 0.73918 0.43788 -0.00910
 H214 H 0.69976 0.43260 -0.07216
 H215 H 0.75613 0.34849 -0.02327
 H216 H 0.68937 0.34706 -0.04043
 C217 C 0.24615 0.84135 0.49584
 C218 C 0.26695 0.87107 0.51064
 C219 C 0.29735 0.86287 0.54169
 C220 C 0.30968 0.89225 0.56475
 H221 H 0.26078 0.90191 0.50065
 H222 H 0.30894 0.83231 0.54640
 H223 H 0.25070 0.81098 0.50775
 H224 H 0.29623 0.92218 0.56145
   
