data_POSCAR
  _audit_creation_date              2014-09-24
  _audit_creation_method            'ToBaCCo'
  _symmetry_space_group_name_H-M    'P1'
  _symmetry_Int_Tables_number       1
  _symmetry_cell_setting            triclinic
  loop_
  _symmetry_equiv_pos_as_xyz
 x,y,z
_cell_length_a 29.5416
_cell_length_b 29.4804
_cell_length_c 30.3978
_cell_angle_alpha 90.094200
_cell_angle_beta 90.007300
_cell_angle_gamma 92.953500
loop_
  _atom_site_label
  _atom_site_type_symbol
  _atom_site_fract_x
  _atom_site_fract_y
  _atom_site_fract_z
C1 C -0.10262 0.31442 0.04089
 C2 C -0.12474 0.31909 0.00032
 C3 C -0.10239 0.31553 -0.04027
 C4 C -0.05412 0.32025 -0.04008
 C5 C -0.03019 0.32064 0.00046
 C6 C -0.05434 0.31917 0.04094
 C7 C -0.02941 0.32401 0.08023
 C8 C 0.01754 0.32457 0.08026
 C9 C 0.04206 0.32043 0.04101
 C10 C 0.01816 0.32103 0.00051
 C11 C -0.02898 0.32600 -0.07918
 C12 C 0.01797 0.32591 -0.07912
 C13 C 0.04226 0.32038 -0.03993
 C14 C 0.09004 0.31570 -0.03987
 C15 C 0.11263 0.32059 0.00071
 C16 C 0.08985 0.31698 0.04110
 H17 H -0.04574 0.32771 0.11172
 H18 H 0.03421 0.32854 0.11173
 H19 H -0.04514 0.33071 -0.11058
 H20 H 0.03491 0.33050 -0.11040
 H21 H -0.16034 0.32532 0.00032
 H22 H 0.14888 0.32658 0.00085
 C23 C 0.60787 0.82515 0.45575
 C24 C 0.63119 0.83230 0.49554
 C25 C 0.60957 0.82854 0.53655
 C26 C 0.56145 0.83014 0.53724
 C27 C 0.53668 0.82978 0.49704
 C28 C 0.55995 0.82755 0.45626
 C29 C 0.53472 0.82877 0.41715
 C30 C 0.48772 0.82840 0.41775
 C31 C 0.46346 0.82792 0.45752
 C32 C 0.48833 0.82980 0.49768
 C33 C 0.53739 0.83298 0.57694
 C34 C 0.49043 0.83338 0.57751
 C35 C 0.46497 0.82986 0.53853
 C36 C 0.41682 0.82724 0.53921
 C37 C 0.39406 0.83228 0.49920
 C38 C 0.41516 0.82658 0.45830
 H39 H 0.55094 0.83062 0.38533
 H40 H 0.47096 0.82906 0.38626
 H41 H 0.55436 0.83546 0.60832
 H42 H 0.47447 0.83702 0.60919
 H43 H 0.66703 0.84009 0.49423
 H44 H 0.35902 0.84003 0.50041
 C45 C 0.91121 0.69035 -0.04322
 C46 C 0.88847 0.68699 -0.00258
 C47 C 0.91143 0.68702 0.03796
 C48 C 0.95869 0.68063 0.03724
 C49 C 0.98306 0.68698 -0.00262
 C50 C 0.95943 0.69560 -0.04219
 C51 C 0.98485 0.71134 -0.07859
 C52 C 1.03188 0.71176 -0.07839
 C53 C 1.05590 0.69594 -0.04195
 C54 C 1.03135 0.68711 -0.00247
 C55 C 0.98243 0.66890 0.07523
 C56 C 1.02949 0.66879 0.07538
 C57 C 1.05490 0.68072 0.03760
 C58 C 1.10301 0.68728 0.03867
 C59 C 1.12591 0.68703 -0.00202
 C60 C 1.10368 0.69050 -0.04294
 H61 H 0.96904 0.72493 -0.10736
 H62 H 1.04889 0.72581 -0.10706
 H63 H 0.96486 0.65990 0.10542
 H64 H 1.04572 0.65965 0.10574
 H65 H 0.85207 0.68662 -0.00226
 H66 H 1.16220 0.68614 -0.00156
 C67 C 0.39003 0.17754 0.46086
 C68 C 0.36753 0.17241 0.50130
 C69 C 0.39012 0.17807 0.54162
 C70 C 0.43822 0.17675 0.54153
 C71 C 0.46222 0.17565 0.50102
 C72 C 0.43800 0.17548 0.46066
 C73 C 0.46245 0.17336 0.42120
 C74 C 0.50945 0.17609 0.42086
 C75 C 0.53463 0.17918 0.46010
 C76 C 0.51067 0.17741 0.50084
 C77 C 0.46306 0.17686 0.58085
 C78 C 0.50997 0.17981 0.58079
 C79 C 0.53486 0.18007 0.54139
 C80 C 0.58294 0.18592 0.54122
 C81 C 0.60424 0.19376 0.50055
 C82 C 0.58266 0.18689 0.45983
 H83 H 0.44565 0.17026 0.38972
 H84 H 0.52520 0.17720 0.38893
 H85 H 0.44678 0.17549 0.61262
 H86 H 0.52578 0.18371 0.61253
 H87 H 0.33157 0.16490 0.50127
 H88 H 0.63759 0.20962 0.50102
 C89 C 0.69890 -0.09915 0.03857
 C90 C 0.70674 -0.12011 -0.00202
 C91 C 0.69980 -0.09963 -0.04301
 C92 C 0.69221 -0.05210 -0.04310
 C93 C 0.68765 -0.02822 -0.00271
 C94 C 0.69279 -0.05143 0.03799
 C95 C 0.69662 -0.02526 0.07649
 C96 C 0.69085 0.02093 0.07619
 C97 C 0.68039 0.04413 0.03745
 C98 C 0.68120 0.01980 -0.00299
 C99 C 0.69376 -0.02672 -0.08219
 C100 C 0.68872 0.01965 -0.08233
 C101 C 0.67994 0.04388 -0.04365
 C102 C 0.67433 0.09196 -0.04401
 C103 C 0.67305 0.11405 -0.00295
 C104 C 0.67386 0.09168 0.03766
 H105 H 0.70682 -0.03925 0.10746
 H106 H 0.69744 0.03799 0.10697
 H107 H 0.70149 -0.04146 -0.11357
 H108 H 0.69434 0.03585 -0.11362
 H109 H 0.72256 -0.15211 -0.00134
 H110 H 0.67725 0.15035 -0.00221
 C111 C 0.17288 0.39850 0.54622
 C112 C 0.16823 0.37496 0.50616
 C113 C 0.16578 0.39634 0.46492
 C114 C 0.16549 0.44482 0.46458
 C115 C 0.17366 0.46977 0.50426
 C116 C 0.18017 0.44649 0.54445
 C117 C 0.19719 0.47173 0.58069
 C118 C 0.20120 0.51878 0.57979
 C119 C 0.18892 0.54310 0.54243
 C120 C 0.17864 0.51823 0.50323
 C121 C 0.15980 0.46942 0.42549
 C122 C 0.16351 0.51656 0.42486
 C123 C 0.17589 0.54153 0.46263
 C124 C 0.18670 0.58896 0.46098
 C125 C 0.18838 0.61300 0.50099
 C126 C 0.18896 0.59143 0.54221
 H127 H 0.20952 0.45578 0.60988
 H128 H 0.21588 0.53546 0.60841
 H129 H 0.15296 0.45315 0.39438
 H130 H 0.15700 0.53320 0.39401
 H131 H 0.17115 0.33913 0.50765
 H132 H 0.19182 0.64946 0.49970
 C133 C 0.32145 0.90778 -0.03870
 C134 C 0.32486 0.88470 0.00158
 C135 C 0.32091 0.90631 0.04259
 C136 C 0.31411 0.95380 0.04263
 C137 C 0.32051 0.97928 0.00333
 C138 C 0.32544 0.95623 -0.03732
 C139 C 0.33263 0.98230 -0.07547
 C140 C 0.33039 1.02917 -0.07477
 C141 C 0.32339 1.05309 -0.03543
 C142 C 0.31903 1.02774 0.00435
 C143 C 0.29881 0.97636 0.08006
 C144 C 0.29645 1.02315 0.08095
 C145 C 0.30991 1.05014 0.04471
 C146 C 0.31038 1.09849 0.04641
 C147 C 0.31017 1.12150 0.00596
 C148 C 0.31750 1.10088 -0.03501
 H149 H 0.33929 0.96673 -0.10685
 H150 H 0.33306 1.04553 -0.10624
 H151 H 0.28662 0.95834 0.10887
 H152 H 0.28201 1.03732 0.11016
 H153 H 0.32809 0.84863 0.00087
 H154 H 0.29960 1.15568 0.00680
 C155 C 0.82072 0.40305 0.53917
 C156 C 0.82011 0.37966 0.49883
 C157 C 0.81696 0.40186 0.45804
 C158 C 0.81358 0.44994 0.45858
 C159 C 0.82275 0.47448 0.49805
 C160 C 0.82860 0.45085 0.53808
 C161 C 0.84135 0.47582 0.57588
 C162 C 0.84210 0.52303 0.57583
 C163 C 0.82953 0.54688 0.53818
 C164 C 0.82330 0.52279 0.49808
 C165 C 0.79934 0.47422 0.42170
 C166 C 0.80014 0.52139 0.42169
 C167 C 0.81506 0.54670 0.45858
 C168 C 0.81987 0.59506 0.45812
 C169 C 0.82255 0.61742 0.49906
 C170 C 0.82243 0.59399 0.53930
 H171 H 0.85039 0.45903 0.60600
 H172 H 0.85216 0.54068 0.60577
 H173 H 0.78589 0.45742 0.39265
 H174 H 0.78726 0.53736 0.39269
 H175 H 0.81920 0.34319 0.49962
 H176 H 0.82172 0.65389 0.50005
 O177 O 0.23670 0.18393 0.22023
 O178 O 0.18785 0.25905 0.30290
 O179 O 0.17434 0.24170 0.21890
 O180 O 0.25129 0.20145 0.30376
 O181 O 0.30238 0.25534 0.28525
 O182 O 0.22433 0.29729 0.20222
 O183 O 0.23967 0.31287 0.28632
 O184 O 0.28603 0.23929 0.20141
 Cu185 Cu 0.20744 0.21613 0.26331
 Cu186 Cu 0.26815 0.28170 0.24211
 C187 C 0.26832 0.19958 0.19533
 C188 C 0.20678 0.29805 0.31010
 C189 C 0.18692 0.27538 0.19508
 C190 C 0.28955 0.22223 0.30969
 O191 O 0.76531 0.81526 0.21557
 O192 O 0.80616 0.74026 0.30205
 O193 O 0.82627 0.75610 0.21859
 O194 O 0.74595 0.79988 0.29878
 O195 O 0.69548 0.74526 0.28043
 O196 O 0.77431 0.70413 0.19729
 O197 O 0.75670 0.68601 0.28064
 O198 O 0.71279 0.76279 0.19696
 Cu199 Cu 0.79107 0.78315 0.26073
 Cu200 Cu 0.72972 0.71919 0.23689
 C201 C 0.73308 0.80127 0.19052
 C202 C 0.78737 0.70087 0.30705
 C203 C 0.81319 0.72408 0.19282
 C204 C 0.70785 0.77880 0.30465
 O205 O 0.74457 0.31236 0.28052
 O206 O 0.69255 0.23715 0.19568
 O207 O 0.67581 0.25519 0.27968
 O208 O 0.75962 0.29545 0.19730
 O209 O 0.80433 0.24120 0.21697
 O210 O 0.71992 0.20017 0.29852
 O211 O 0.73665 0.18281 0.21636
 O212 O 0.78814 0.25752 0.30103
 Cu213 Cu 0.71347 0.28040 0.23640
 Cu214 Cu 0.76685 0.21510 0.26017
 C215 C 0.77381 0.29700 0.30647
 C216 C 0.70747 0.19787 0.19027
 C217 C 0.68452 0.22208 0.30445
 C218 C 0.79542 0.27406 0.19191
 O219 O 0.19034 0.74897 0.22096
 O220 O 0.27220 0.79559 0.30236
 O221 O 0.25573 0.80982 0.21930
 O222 O 0.21144 0.72899 0.30326
 O223 O 0.25876 0.67850 0.28021
 O224 O 0.30522 0.76027 0.19884
 O225 O 0.32038 0.74439 0.28299
 O226 O 0.23965 0.70033 0.19809
 Cu227 Cu 0.22742 0.77554 0.26373
 Cu228 Cu 0.28587 0.71584 0.23815
 C229 C 0.20193 0.71887 0.19388
 C230 C 0.30959 0.77704 0.30775
 C231 C 0.28695 0.79790 0.19358
 C232 C 0.22842 0.69035 0.30675
 O233 O 0.67904 0.25488 0.71870
 O234 O 0.76087 0.29733 0.80210
 O235 O 0.74411 0.31651 0.71942
 O236 O 0.69510 0.23734 0.80220
 O237 O 0.74173 0.18534 0.78109
 O238 O 0.79081 0.26462 0.69818
 O239 O 0.80787 0.24546 0.78140
 O240 O 0.72583 0.20264 0.69861
 Cu241 Cu 0.71501 0.28168 0.76257
 Cu242 Cu 0.77143 0.21950 0.73768
 C243 C 0.68917 0.22258 0.69337
 C244 C 0.79746 0.27717 0.80723
 C245 C 0.77468 0.30350 0.69363
 C246 C 0.71137 0.19860 0.80704
 O247 O 0.32562 0.75242 0.71785
 O248 O 0.24615 0.70691 0.80145
 O249 O 0.26118 0.68983 0.71769
 O250 O 0.30659 0.77199 0.80082
 O251 O 0.25598 0.82027 0.78025
 O252 O 0.21260 0.73970 0.69617
 O253 O 0.19542 0.75466 0.77997
 O254 O 0.27646 0.80231 0.69762
 Cu255 Cu 0.28999 0.72549 0.76133
 Cu256 Cu 0.23022 0.78411 0.73637
 C257 C 0.31406 0.78384 0.69236
 C258 C 0.20807 0.72429 0.80632
 C259 C 0.23030 0.70167 0.69152
 C260 C 0.28710 0.80909 0.80625
 O261 O 0.29272 0.23657 0.80334
 O262 O 0.24182 0.31111 0.72225
 O263 O 0.22770 0.29236 0.80544
 O264 O 0.30441 0.25392 0.71917
 O265 O 0.25543 0.19717 0.70319
 O266 O 0.17659 0.23878 0.78598
 O267 O 0.19369 0.25499 0.70241
 O268 O 0.24074 0.18258 0.78750
 Cu269 Cu 0.27171 0.27894 0.76446
 Cu270 Cu 0.21160 0.21277 0.74313
 C271 C 0.27398 0.19761 0.81078
 C272 C 0.21077 0.29500 0.69694
 C273 C 0.18929 0.27168 0.81085
 C274 C 0.29228 0.21985 0.69552
 O275 O 0.74785 0.80095 0.69541
 O276 O 0.82347 0.75219 0.77743
 O277 O 0.80325 0.73529 0.69453
 O278 O 0.76648 0.81442 0.77946
 O279 O 0.70911 0.76649 0.79597
 O280 O 0.75075 0.68427 0.71644
 O281 O 0.76731 0.70535 0.79945
 O282 O 0.69447 0.74880 0.71232
 Cu283 Cu 0.79066 0.78067 0.73447
 Cu284 Cu 0.72489 0.72121 0.75773
 C285 C 0.70894 0.78188 0.68853
 C286 C 0.80738 0.72253 0.80424
 C287 C 0.78309 0.69634 0.69084
 C288 C 0.73253 0.80303 0.80340
 C289 C 0.30241 0.12470 0.08641
 C290 C 0.31901 0.17552 0.08471
 C291 C 0.30773 0.20018 0.12051
 C292 C 0.28202 0.17220 0.15601
 C293 C 0.24086 0.15006 0.13201
 C294 C 0.25142 0.12539 0.09615
 C295 C 0.32454 0.10905 0.12964
 C296 C 0.31290 0.13316 0.16606
 H297 H 0.34128 0.19029 0.05955
 H298 H 0.31906 0.23559 0.12430
 H299 H 0.20600 0.15386 0.14212
 H300 H 0.22550 0.10810 0.07600
 H301 H 0.34920 0.08304 0.13120
 H302 H 0.32692 0.12703 0.19839
 C303 C 0.81125 0.61993 0.58164
 C304 C 0.78462 0.59262 0.61759
 C305 C 0.77642 0.61692 0.65476
 C306 C 0.79411 0.66682 0.65232
 C307 C 0.84480 0.66493 0.64177
 C308 C 0.85367 0.64057 0.60493
 C309 C 0.78082 0.66028 0.57387
 C310 C 0.77242 0.68463 0.61049
 H311 H 0.77059 0.55816 0.61330
 H312 H 0.75694 0.60253 0.68210
 H313 H 0.87149 0.68096 0.66186
 H314 H 0.88795 0.63591 0.59355
 H315 H 0.76242 0.66601 0.54365
 H316 H 0.74768 0.71043 0.61057
 C317 C 0.70501 0.87445 0.07878
 C318 C 0.75313 0.88306 0.09715
 C319 C 0.76188 0.85940 0.13408
 C320 C 0.72186 0.82850 0.15028
 C321 C 0.68214 0.85975 0.15525
 C322 C 0.67264 0.88303 0.11770
 C323 C 0.69918 0.82203 0.07368
 C324 C 0.70873 0.79842 0.11054
 H325 H 0.77859 0.90587 0.08196
 H326 H 0.79483 0.86210 0.14995
 H327 H 0.66173 0.86151 0.18482
 H328 H 0.64360 0.90401 0.11540
 H329 H 0.68395 0.80462 0.04543
 H330 H 0.70336 0.76175 0.11213
 C331 C 0.17940 0.37032 0.58822
 C332 C 0.23012 0.36497 0.59625
 C333 C 0.23957 0.34003 0.63208
 C334 C 0.19761 0.32231 0.65769
 C335 C 0.17110 0.36447 0.66814
 C336 C 0.16061 0.38900 0.63175
 C337 C 0.15820 0.32110 0.58759
 C338 C 0.16821 0.29602 0.62350
 H339 H 0.25661 0.37933 0.57491
 H340 H 0.27410 0.33300 0.64109
 H341 H 0.15909 0.37264 0.70081
 H342 H 0.13901 0.41764 0.63357
 H343 H 0.13364 0.30818 0.56352
 H344 H 0.15352 0.26190 0.62841
 C345 C 0.87065 0.30324 0.08034
 C346 C 0.88984 0.26540 0.10906
 C347 C 0.86629 0.25650 0.14687
 C348 C 0.82444 0.28491 0.15230
 C349 C 0.84241 0.33450 0.14895
 C350 C 0.86625 0.34411 0.11144
 C351 C 0.82110 0.28474 0.07257
 C352 C 0.79727 0.27587 0.10996
 H353 H 0.91852 0.24592 0.09967
 H354 H 0.87559 0.23021 0.16961
 H355 H 0.83680 0.35995 0.17394
 H356 H 0.88081 0.37790 0.10447
 H357 H 0.80696 0.27374 0.04120
 H358 H 0.76333 0.25983 0.10934
 C359 C 0.38879 0.81544 0.58092
 C360 C 0.40762 0.77677 0.60857
 C361 C 0.38412 0.76721 0.64620
 C362 C 0.34258 0.79599 0.65261
 C363 C 0.36121 0.84545 0.65036
 C364 C 0.38524 0.85560 0.61299
 C365 C 0.33904 0.79803 0.57290
 C366 C 0.31520 0.78840 0.61017
 H367 H 0.43606 0.75726 0.59857
 H368 H 0.39328 0.74019 0.66818
 H369 H 0.35601 0.87035 0.67596
 H370 H 0.40043 0.88927 0.60670
 H371 H 0.32458 0.78881 0.54117
 H372 H 0.28094 0.77315 0.60929
 C373 C 0.12869 0.69584 0.07943
 C374 C 0.10612 0.72766 0.11245
 C375 C 0.12910 0.73402 0.15100
 C376 C 0.17375 0.70938 0.15316
 C377 C 0.16031 0.65934 0.14400
 C378 C 0.13702 0.65225 0.10559
 C379 C 0.17648 0.71967 0.07399
 C380 C 0.19980 0.72584 0.11213
 H381 H 0.07564 0.74540 0.10547
 H382 H 0.11737 0.75620 0.17666
 H383 H 0.16841 0.63180 0.16582
 H384 H 0.12541 0.61853 0.09474
 H385 H 0.18940 0.73574 0.04415
 H386 H 0.23250 0.74439 0.11330
 C387 C 0.61194 0.19279 0.58316
 C388 C 0.60486 0.23965 0.60339
 C389 C 0.62967 0.24907 0.64004
 C390 C 0.66004 0.21087 0.65393
 C391 C 0.62805 0.16834 0.65828
 C392 C 0.60348 0.15835 0.62099
 C393 C 0.66386 0.19135 0.57655
 C394 C 0.68862 0.20146 0.61309
 H395 H 0.58211 0.26372 0.58967
 H396 H 0.62797 0.28121 0.65728
 H397 H 0.62650 0.14679 0.68721
 H398 H 0.58153 0.12781 0.61807
 H399 H 0.68008 0.17736 0.54792
 H400 H 0.72500 0.19780 0.61382
 C401 C 0.67996 0.12022 0.91641
 C402 C 0.73034 0.12409 0.90361
 C403 C 0.73982 0.14978 0.86768
 C404 C 0.69831 0.16993 0.84651
 C405 C 0.66482 0.12932 0.83767
 C406 C 0.65417 0.10412 0.87438
 C407 C 0.66586 0.17025 0.91987
 C408 C 0.67620 0.19606 0.88387
 H409 H 0.75684 0.10829 0.92201
 H410 H 0.77428 0.15587 0.85583
 H411 H 0.64847 0.12288 0.80614
 H412 H 0.62818 0.07672 0.87397
 H413 H 0.64394 0.18313 0.94511
 H414 H 0.66526 0.23050 0.88080
 C415 C 0.19856 0.61495 0.41811
 C416 C 0.15646 0.63071 0.39384
 C417 C 0.16580 0.65469 0.35633
 C418 C 0.21656 0.66110 0.34609
 C419 C 0.23799 0.68241 0.38753
 C420 C 0.22921 0.65853 0.42481
 C421 C 0.22538 0.58904 0.38323
 C422 C 0.23398 0.61279 0.34537
 H423 H 0.12204 0.62321 0.40515
 H424 H 0.13941 0.66754 0.33564
 H425 H 0.26318 0.71028 0.38677
 H426 H 0.24813 0.66679 0.45461
 H427 H 0.23884 0.55595 0.38864
 H428 H 0.25345 0.59920 0.31856
 C429 C 0.31211 0.88189 0.92073
 C430 C 0.35445 0.87714 0.89174
 C431 C 0.34658 0.85395 0.85337
 C432 C 0.29708 0.83704 0.84705
 C433 C 0.28513 0.80932 0.88842
 C434 C 0.29217 0.83246 0.92662
 C435 C 0.27651 0.90238 0.89033
 C436 C 0.26939 0.87963 0.85174
 H437 H 0.38795 0.89100 0.90074
 H438 H 0.37321 0.84815 0.82973
 H439 H 0.26849 0.77560 0.88765
 H440 H 0.27879 0.81808 0.95705
 H441 H 0.25695 0.93123 0.89915
 H442 H 0.24464 0.88996 0.82787
 C443 C 0.80889 0.37278 0.41638
 C444 C 0.75791 0.36751 0.40658
 C445 C 0.74714 0.34244 0.37039
 C446 C 0.78815 0.32448 0.34628
 C447 C 0.81948 0.36646 0.33680
 C448 C 0.83120 0.39114 0.37351
 C449 C 0.82469 0.32349 0.41790
 C450 C 0.81341 0.29829 0.38159
 H451 H 0.73217 0.38192 0.42707
 H452 H 0.71223 0.33541 0.36022
 H453 H 0.83341 0.37453 0.30454
 H454 H 0.85566 0.41988 0.37241
 H455 H 0.84718 0.31057 0.44256
 H456 H 0.82471 0.26413 0.37717
 C457 C 0.11564 0.30371 0.92092
 C458 C 0.09198 0.26653 0.89169
 C459 C 0.11514 0.25676 0.85438
 C460 C 0.16091 0.28370 0.84991
 C461 C 0.14952 0.33378 0.85298
 C462 C 0.12613 0.34425 0.88999
 C463 C 0.16235 0.28364 0.92962
 C464 C 0.18573 0.27397 0.89276
 H465 H 0.06056 0.24800 0.90042
 H466 H 0.10281 0.23077 0.83138
 H467 H 0.15902 0.35889 0.82812
 H468 H 0.11582 0.37841 0.89666
 H469 H 0.17417 0.27211 0.96125
 H470 H 0.21708 0.25661 0.89412
 C471 C 0.63484 0.81211 0.41452
 C472 C 0.61285 0.77209 0.38789
 C473 C 0.63579 0.76166 0.35064
 C474 C 0.67972 0.79112 0.34371
 C475 C 0.66512 0.84029 0.34443
 C476 C 0.64183 0.85124 0.38136
 C477 C 0.68312 0.79591 0.42328
 C478 C 0.70632 0.78552 0.38645
 H479 H 0.58266 0.75245 0.39827
 H480 H 0.62453 0.73377 0.32929
 H481 H 0.67238 0.86441 0.31811
 H482 H 0.62934 0.88482 0.38656
 H483 H 0.69658 0.78772 0.45529
 H484 H 0.73925 0.77079 0.38795
 C485 C 0.88279 0.69566 0.91465
 C486 C 0.87797 0.74615 0.90443
 C487 C 0.85304 0.75420 0.86811
 C488 C 0.83478 0.71115 0.84425
 C489 C 0.87655 0.68370 0.83508
 C490 C 0.90110 0.67475 0.87190
 C491 C 0.83347 0.67511 0.91616
 C492 C 0.80845 0.68364 0.87975
 H493 H 0.89267 0.77352 0.92463
 H494 H 0.84642 0.78842 0.85758
 H495 H 0.88455 0.67013 0.80295
 H496 H 0.92953 0.65287 0.87096
 H497 H 0.82032 0.65181 0.94119
 H498 H 0.77423 0.66909 0.87547
 C499 C 0.36258 0.18970 0.41972
 C500 C 0.38416 0.22988 0.39316
 C501 C 0.36121 0.23995 0.35591
 C502 C 0.31761 0.21001 0.34882
 C503 C 0.33277 0.16103 0.34948
 C504 C 0.35608 0.15040 0.38650
 C505 C 0.31407 0.20523 0.42838
 C506 C 0.29089 0.21523 0.39150
 H507 H 0.41419 0.24983 0.40357
 H508 H 0.37228 0.26786 0.33459
 H509 H 0.32576 0.13679 0.32313
 H510 H 0.36883 0.11696 0.39176
 H511 H 0.30020 0.21323 0.46027
 H512 H 0.25773 0.22915 0.39295
 C513 C 0.70650 0.87397 0.91684
 C514 C 0.75211 0.88778 0.89490
 C515 C 0.76033 0.86539 0.85697
 C516 C 0.72266 0.83009 0.84395
 C517 C 0.71677 0.79923 0.88433
 C518 C 0.70731 0.82157 0.92196
 C519 C 0.67015 0.87850 0.88064
 C520 C 0.67905 0.85619 0.84239
 H521 H 0.77622 0.91317 0.90839
 H522 H 0.79138 0.87187 0.83843
 H523 H 0.71569 0.76237 0.88274
 H524 H 0.69547 0.80229 0.95043
 H525 H 0.63941 0.89663 0.88516
 H526 H 0.65630 0.85578 0.81434
 C527 C 0.17331 0.36800 0.42262
 C528 C 0.21860 0.38395 0.40129
 C529 C 0.22896 0.36177 0.36389
 C530 C 0.19346 0.32459 0.35023
 C531 C 0.18783 0.29389 0.39065
 C532 C 0.17689 0.31590 0.42805
 C533 C 0.13758 0.37057 0.38562
 C534 C 0.14847 0.34848 0.34761
 H535 H 0.24117 0.41062 0.41495
 H536 H 0.26016 0.36985 0.34606
 H537 H 0.18580 0.25707 0.38886
 H538 H 0.16396 0.29558 0.45530
 H539 H 0.10558 0.38659 0.38967
 H540 H 0.12618 0.34644 0.31922
 C541 C 0.30936 0.12864 0.92271
 C542 C 0.26485 0.11099 0.90103
 C543 C 0.25383 0.13291 0.86379
 C544 C 0.28801 0.17145 0.85067
 C545 C 0.29233 0.20215 0.89133
 C546 C 0.30405 0.18041 0.92855
 C547 C 0.34559 0.12777 0.88601
 C548 C 0.33402 0.14944 0.84806
 H549 H 0.24341 0.08323 0.91424
 H550 H 0.22313 0.12356 0.84559
 H551 H 0.29322 0.23897 0.88977
 H552 H 0.31676 0.20063 0.95610
 H553 H 0.37836 0.11330 0.89023
 H554 H 0.35648 0.15264 0.81987
 C555 C 0.81434 0.62395 0.41639
 C556 C 0.83585 0.60664 0.37354
 C557 C 0.82673 0.63163 0.33704
 C558 C 0.79855 0.67284 0.34669
 C559 C 0.75569 0.65348 0.36989
 C560 C 0.76390 0.62808 0.40585
 C561 C 0.83403 0.67362 0.41886
 C562 C 0.82532 0.69909 0.38283
 H563 H 0.85817 0.57856 0.37232
 H564 H 0.84061 0.62434 0.30489
 H565 H 0.72148 0.65971 0.35920
 H566 H 0.73669 0.61257 0.42561
 H567 H 0.85687 0.68679 0.44431
 H568 H 0.83922 0.73370 0.37929
 C569 C 0.13097 0.69591 0.91706
 C570 C 0.17852 0.67588 0.91795
 C571 C 0.20394 0.68507 0.88143
 C572 C 0.17969 0.71241 0.84626
 C573 C 0.13549 0.68430 0.83728
 C574 C 0.11057 0.67464 0.87431
 C575 C 0.14027 0.74658 0.90691
 C576 C 0.16547 0.75510 0.87038
 H577 H 0.18964 0.65187 0.94217
 H578 H 0.23662 0.67057 0.87662
 H579 H 0.12615 0.67057 0.80520
 H580 H 0.08045 0.65196 0.87350
 H581 H 0.12834 0.77379 0.92733
 H582 H 0.17503 0.78948 0.85991
 C583 C 0.61089 0.19455 0.41734
 C584 C 0.60607 0.15639 0.38250
 C585 C 0.62923 0.16560 0.34430
 C586 C 0.65605 0.21168 0.34456
 C587 C 0.62114 0.24681 0.35553
 C588 C 0.59798 0.23803 0.39342
 C589 C 0.66308 0.20031 0.42315
 C590 C 0.68606 0.21020 0.38558
 H591 H 0.58702 0.12441 0.38789
 H592 H 0.62948 0.14179 0.31703
 H593 H 0.61527 0.27642 0.33556
 H594 H 0.57257 0.26027 0.40553
 H595 H 0.68200 0.19084 0.45193
 H596 H 0.72287 0.21213 0.38462
 C597 C 0.87118 0.30504 0.91997
 C598 C 0.86684 0.34644 0.88964
 C599 C 0.84340 0.33737 0.85175
 C600 C 0.82578 0.28776 0.84733
 C601 C 0.86777 0.25951 0.85259
 C602 C 0.89084 0.26781 0.89075
 C603 C 0.82164 0.28618 0.92700
 C604 C 0.79823 0.27782 0.88924
 H605 H 0.88111 0.38018 0.89741
 H606 H 0.83781 0.36321 0.82722
 H607 H 0.87746 0.23362 0.82950
 H608 H 0.91946 0.24823 0.90005
 H609 H 0.80723 0.27465 0.95805
 H610 H 0.76436 0.26161 0.88926
 C611 C 0.38569 0.81415 0.41745
 C612 C 0.38727 0.85049 0.38087
 C613 C 0.36308 0.83837 0.34393
 C614 C 0.33872 0.79121 0.34678
 C615 C 0.37603 0.75861 0.35797
 C616 C 0.40003 0.77028 0.39482
 C617 C 0.33427 0.80424 0.42552
 C618 C 0.31023 0.79317 0.38879
 H619 H 0.40564 0.88317 0.38402
 H620 H 0.36101 0.86055 0.31562
 H621 H 0.38243 0.72821 0.33927
 H622 H 0.42641 0.74947 0.40737
 H623 H 0.31708 0.80341 0.45690
 H624 H 0.27375 0.78670 0.38973
 C625 C 0.31556 0.87657 0.08414
 C626 C 0.26501 0.86784 0.09452
 C627 C 0.25636 0.84209 0.13063
 C628 C 0.29890 0.82674 0.15403
 C629 C 0.32546 0.80263 0.11812
 C630 C 0.33464 0.82864 0.08195
 C631 C 0.33726 0.89605 0.12696
 C632 C 0.32764 0.87050 0.16358
 H633 H 0.23799 0.88059 0.07452
 H634 H 0.22199 0.83287 0.14121
 H635 H 0.33922 0.76944 0.12208
 H636 H 0.35793 0.81748 0.05711
 H637 H 0.35983 0.92627 0.12806
 H638 H 0.34144 0.87926 0.19576
 C639 C 0.80826 0.37675 0.58173
 C640 C 0.84964 0.36397 0.60899
 C641 C 0.83909 0.34061 0.64668
 C642 C 0.78799 0.33177 0.65397
 C643 C 0.76809 0.37895 0.65201
 C644 C 0.77806 0.40206 0.61416
 C645 C 0.78048 0.33138 0.57454
 C646 C 0.77063 0.30807 0.61196
 H647 H 0.88437 0.37282 0.59944
 H648 H 0.86476 0.32963 0.66929
 H649 H 0.74651 0.39242 0.67725
 H650 H 0.76384 0.43450 0.60721
 H651 H 0.76489 0.32050 0.54374
 H652 H 0.74873 0.27746 0.61191
 C653 C 0.67845 0.12133 0.07951
 C654 C 0.72865 0.12650 0.09239
 C655 C 0.73718 0.15189 0.12871
 C656 C 0.69486 0.17035 0.15007
 C657 C 0.67214 0.19638 0.11305
 C658 C 0.66302 0.17079 0.07643
 C659 C 0.65303 0.10374 0.12107
 C660 C 0.66262 0.12868 0.15815
 H661 H 0.75566 0.11193 0.07367
 H662 H 0.77148 0.15904 0.14064
 H663 H 0.66070 0.23061 0.11648
 H664 H 0.64202 0.18348 0.05039
 H665 H 0.62818 0.07530 0.12091
 H666 H 0.64642 0.12119 0.18954
 C667 C 0.19707 0.62124 0.58362
 C668 C 0.24792 0.62625 0.59430
 C669 C 0.25838 0.65262 0.62984
 C670 C 0.21719 0.67202 0.65250
 C671 C 0.19287 0.69702 0.61571
 C672 C 0.18186 0.67059 0.58021
 C673 C 0.17391 0.60468 0.62675
 C674 C 0.18522 0.63067 0.66282
 H675 H 0.27378 0.61055 0.57497
 H676 H 0.29312 0.65945 0.64059
 H677 H 0.18202 0.73153 0.61849
 H678 H 0.16000 0.68286 0.55466
 H679 H 0.14901 0.57636 0.62845
 H680 H 0.17061 0.62396 0.69506
 C681 C 0.88540 0.69730 0.08054
 C682 C 0.84098 0.72207 0.07377
 C683 C 0.81801 0.72979 0.11137
 C684 C 0.84117 0.71346 0.15309
 C685 C 0.84832 0.66293 0.14505
 C686 C 0.87124 0.65452 0.10718
 C687 C 0.91169 0.72894 0.11337
 C688 C 0.88892 0.73681 0.15140
 H689 H 0.83068 0.73753 0.04328
 H690 H 0.78813 0.74965 0.11169
 H691 H 0.83653 0.63609 0.16729
 H692 H 0.87889 0.62042 0.09710
 H693 H 0.94468 0.74535 0.10662
 H694 H 0.90310 0.75894 0.17702
 C695 C 0.36273 0.18950 0.58313
 C696 C 0.31291 0.20203 0.57595
 C697 C 0.29050 0.21155 0.61356
 C698 C 0.31925 0.20860 0.65535
 C699 C 0.33708 0.16068 0.65468
 C700 C 0.35953 0.15066 0.61700
 C701 C 0.38297 0.23126 0.60843
 C702 C 0.36088 0.24071 0.64635
 H703 H 0.29733 0.20843 0.54449
 H704 H 0.25642 0.22378 0.61319
 H705 H 0.33229 0.13661 0.68146
 H706 H 0.37377 0.11789 0.61162
 H707 H 0.41151 0.25257 0.59673
 H708 H 0.37119 0.26957 0.66689
 C709 C 0.11666 0.30553 0.08281
 C710 C 0.12346 0.34584 0.11483
 C711 C 0.14581 0.33598 0.15259
 C712 C 0.15992 0.28673 0.15509
 C713 C 0.11593 0.25739 0.14819
 C714 C 0.09386 0.26666 0.11024
 C715 C 0.16497 0.28875 0.07548
 C716 C 0.18734 0.27947 0.11311
 H717 H 0.11161 0.37940 0.10822
 H718 H 0.15289 0.36101 0.17824
 H719 H 0.10390 0.23045 0.17022
 H720 H 0.06360 0.24699 0.09996
 H721 H 0.17918 0.27954 0.04408
 H722 H 0.22026 0.26464 0.11279
 C723 C 0.63769 0.81717 0.57772
 C724 C 0.61793 0.77453 0.60157
 C725 C 0.64047 0.76365 0.63872
 C726 C 0.68189 0.79570 0.64901
 C727 C 0.71053 0.79547 0.60703
 C728 C 0.68781 0.80584 0.56995
 C729 C 0.64072 0.85476 0.61318
 C730 C 0.66347 0.84342 0.65047
 H731 H 0.58898 0.75389 0.58964
 H732 H 0.63019 0.73410 0.65824
 H733 H 0.74605 0.78777 0.60636
 H734 H 0.70471 0.80352 0.53857
 H735 H 0.62646 0.88769 0.60906
 H736 H 0.66840 0.86650 0.67810
   
