data_POSCAR
  _audit_creation_date              2014-09-24
  _audit_creation_method            'ToBaCCo'
  _symmetry_space_group_name_H-M    'P1'
  _symmetry_Int_Tables_number       1
  _symmetry_cell_setting            triclinic
  loop_
  _symmetry_equiv_pos_as_xyz
 x,y,z
_cell_length_a 33.3243
_cell_length_b 33.6603
_cell_length_c 33.3877
_cell_angle_alpha 92.556800
_cell_angle_beta 89.460000
_cell_angle_gamma 87.371700
loop_
  _atom_site_label
  _atom_site_type_symbol
  _atom_site_fract_x
  _atom_site_fract_y
  _atom_site_fract_z
C1 C 0.03838 0.44686 0.19836
 H2 H 0.06320 0.46649 0.19833
 C3 C 0.04299 0.40852 0.18029
 H4 H 0.07118 0.40020 0.16521
 C5 C -0.02806 0.43489 0.21827
 H6 H -0.05518 0.44431 0.23457
 C7 C -0.02502 0.39668 0.20027
 H8 H -0.05022 0.37801 0.20396
 N9 N 0.00331 0.45922 0.21708
 C10 C -0.00560 0.58890 0.23407
 H11 H -0.01371 0.59007 0.26557
 C12 C -0.00381 0.62405 0.21379
 H13 H -0.01018 0.65219 0.23011
 C14 C 0.01357 0.55051 0.17520
 H15 H 0.02014 0.52171 0.16037
 C16 C 0.01586 0.58516 0.15365
 H17 H 0.02401 0.58271 0.12214
 Zn18 Zn 0.00004 0.50862 0.24734
 N19 N 0.00338 0.55312 0.21482
 C20 C 0.07043 0.53734 0.28297
 N21 N 0.04373 0.50798 0.28364
 C22 C 0.05041 0.47581 0.30636
 C23 C 0.08568 0.47175 0.32862
 C24 C 0.10574 0.53467 0.30498
 C25 C -0.08303 0.51923 0.24989
 C26 C -0.12176 0.52313 0.26622
 C27 C -0.09316 0.51970 0.33224
 C28 C -0.05484 0.51545 0.31454
 N29 N -0.05060 0.51469 0.27397
 H30 H 0.06517 0.56240 0.26435
 H31 H 0.02913 0.45248 0.30584
 H32 H 0.09116 0.44515 0.34517
 H33 H 0.12645 0.55846 0.30380
 H34 H -0.07873 0.51897 0.21772
 H35 H -0.14704 0.52509 0.24618
 H36 H -0.09589 0.52039 0.36459
 H37 H -0.02858 0.51261 0.33315
 C38 C 0.00713 0.62259 0.17304
 C39 C 0.01107 0.38228 0.18110
 C40 C -0.12741 0.52312 0.30796
 C41 C 0.11435 0.50110 0.32748
 C42 C 0.00628 0.53583 0.81976
 H43 H 0.00684 0.50860 0.83562
 C44 C 0.00881 0.57211 0.84146
 H45 H 0.01277 0.57170 0.87355
 C46 C 0.00092 0.56926 0.75913
 H47 H -0.00340 0.56840 0.72719
 C48 C 0.00173 0.60608 0.77968
 H49 H -0.00225 0.63255 0.76268
 N50 N 0.00248 0.53494 0.77920
 C51 C -0.03354 0.41598 0.77696
 H52 H -0.05802 0.42199 0.75693
 C53 C -0.03242 0.38064 0.79728
 H54 H -0.05560 0.35981 0.79123
 C55 C 0.02717 0.43480 0.80691
 H56 H 0.05093 0.45555 0.80977
 C57 C 0.02872 0.40050 0.82895
 H58 H 0.05318 0.39623 0.84962
 Zn59 Zn -0.00263 0.48646 0.74803
 N60 N -0.00340 0.44173 0.78108
 C61 C 0.07099 0.45202 0.71592
 N62 N 0.04133 0.48054 0.71134
 C63 C 0.04383 0.50723 0.68212
 C64 C 0.07882 0.50869 0.65908
 C65 C 0.10631 0.45201 0.69315
 C66 C -0.07710 0.52149 0.72694
 C67 C -0.11237 0.52578 0.70542
 C68 C -0.09516 0.46317 0.66980
 C69 C -0.05889 0.46143 0.69045
 N70 N -0.05083 0.49011 0.71878
 H71 H 0.06804 0.42999 0.73810
 H72 H 0.01912 0.52824 0.67732
 H73 H 0.08100 0.53194 0.63790
 H74 H 0.12993 0.42964 0.69801
 H75 H -0.07132 0.54308 0.75075
 H76 H -0.13269 0.55078 0.71399
 H77 H -0.10026 0.43992 0.64722
 H78 H -0.03734 0.43682 0.68439
 C79 C -0.00067 0.37204 0.82341
 C80 C 0.00582 0.60814 0.82154
 C81 C -0.12255 0.49619 0.67645
 C82 C 0.11127 0.48171 0.66546
 C83 C 0.20099 0.05551 0.44257
 H84 H 0.20158 0.07915 0.46542
 C85 C 0.18063 0.06213 0.40681
 H86 H 0.16491 0.09055 0.40291
 C87 C 0.22329 -0.00890 0.41807
 H88 H 0.24099 -0.03609 0.42150
 C89 C 0.20371 -0.00344 0.38194
 H90 H 0.20553 -0.02711 0.35884
 N91 N 0.22148 0.02019 0.44780
 C92 C 0.22985 -0.01162 0.57015
 H93 H 0.25153 -0.03585 0.56347
 C94 C 0.21066 -0.00918 0.60749
 H95 H 0.21749 -0.03196 0.62862
 C96 C 0.19717 0.04888 0.55240
 H97 H 0.19271 0.07202 0.53139
 C98 C 0.17744 0.05264 0.58972
 H99 H 0.15724 0.07821 0.59655
 Zn100 Zn 0.25348 0.01270 0.49425
 N101 N 0.22266 0.01690 0.54312
 C102 C 0.29595 0.07529 0.53011
 N103 N 0.29139 0.05284 0.49571
 C104 C 0.31006 0.06164 0.46103
 C105 C 0.33296 0.09536 0.45962
 C106 C 0.31855 0.10918 0.53005
 C107 C 0.25413 -0.07016 0.48939
 C108 C 0.26977 -0.10926 0.48558
 C109 C 0.33642 -0.08412 0.48225
 C110 C 0.31941 -0.04529 0.48605
 N111 N 0.27888 -0.03910 0.48947
 H112 H 0.28103 0.06768 0.55740
 H113 H 0.30559 0.04351 0.43401
 H114 H 0.34604 0.10294 0.43132
 H115 H 0.32118 0.12709 0.55757
 H116 H 0.22200 -0.06439 0.49232
 H117 H 0.24946 -0.13343 0.48624
 H118 H 0.36871 -0.08860 0.47926
 H119 H 0.33852 -0.02017 0.48619
 C120 C 0.18404 0.02323 0.61776
 C121 C 0.18222 0.03249 0.37582
 C122 C 0.31142 -0.11673 0.48192
 C123 C 0.33652 0.12022 0.49423
 C124 C 0.79612 0.01368 0.56194
 H125 H 0.79542 0.04187 0.54780
 C126 C 0.81490 0.01032 0.59908
 H127 H 0.82813 0.03625 0.61289
 C128 C 0.77820 -0.05348 0.56228
 H129 H 0.76382 -0.07843 0.54808
 C130 C 0.79662 -0.05812 0.59939
 H131 H 0.79642 -0.08675 0.61292
 N132 N 0.77727 -0.01769 0.54469
 C133 C 0.74965 0.00690 0.41944
 H134 H 0.71733 0.00824 0.42328
 C135 C 0.76639 0.01417 0.38227
 H136 H 0.74589 0.01961 0.35802
 C137 C 0.81398 -0.00457 0.44707
 H138 H 0.83225 -0.01150 0.47267
 C139 C 0.83222 0.00231 0.41011
 H140 H 0.86467 0.00140 0.40870
 Zn141 Zn 0.74401 -0.01080 0.49849
 N142 N 0.77333 -0.00249 0.45083
 C143 C 0.72890 0.07053 0.50261
 N144 N 0.70998 0.03596 0.50666
 C145 C 0.66944 0.03612 0.51246
 C146 C 0.64660 0.07220 0.51496
 C147 C 0.70733 0.10698 0.50456
 C148 C 0.72334 -0.08177 0.45674
 C149 C 0.70597 -0.11861 0.45165
 C150 C 0.66925 -0.10461 0.51371
 C151 C 0.68761 -0.06817 0.51781
 N152 N 0.71431 -0.05749 0.48964
 H153 H 0.76082 0.06975 0.49642
 H154 H 0.65455 0.00846 0.51431
 H155 H 0.61435 0.07192 0.51909
 H156 H 0.72317 0.13403 0.50118
 H157 H 0.74544 -0.07350 0.43516
 H158 H 0.71500 -0.13802 0.42612
 H159 H 0.64823 -0.11247 0.53664
 H160 H 0.68168 -0.04904 0.54430
 C161 C 0.80846 0.01184 0.37652
 C162 C 0.81459 -0.02573 0.61882
 C163 C 0.67900 -0.13085 0.48068
 C164 C 0.66560 0.10818 0.51051
 C165 C 0.55303 0.19904 0.96775
 H166 H 0.53298 0.19114 0.94386
 C167 C 0.59271 0.18350 0.96642
 H168 H 0.60273 0.16398 0.94129
 C169 C 0.56510 0.23418 1.02911
 H170 H 0.55450 0.25357 1.05391
 C171 C 0.60494 0.21964 1.02880
 H172 H 0.62429 0.22799 1.05335
 N173 N 0.54028 0.22498 0.99818
 C174 C 0.40999 0.24465 0.99722
 H175 H 0.41110 0.27619 0.99254
 C176 C 0.37314 0.22767 1.00110
 H177 H 0.34647 0.24671 0.99764
 C178 C 0.44455 0.18251 1.00500
 H179 H 0.47269 0.16540 1.00694
 C180 C 0.40789 0.16386 1.00851
 H181 H 0.40867 0.13239 1.01386
 Zn182 Zn 0.48965 0.25400 0.99674
 N183 N 0.44468 0.22236 1.00003
 C184 C 0.48042 0.25582 0.91414
 N185 N 0.48382 0.27980 0.94770
 C186 C 0.47923 0.32007 0.94614
 C187 C 0.47278 0.33762 0.90951
 C188 C 0.47424 0.27206 0.87693
 C189 C 0.46318 0.28303 1.07279
 C190 C 0.46472 0.30535 1.10876
 C191 C 0.51493 0.34499 1.07934
 C192 C 0.51261 0.32165 1.04385
 N193 N 0.48719 0.29113 1.04131
 H194 H 0.48156 0.22391 0.91631
 H195 H 0.47964 0.33871 0.97322
 H196 H 0.46902 0.36971 0.90891
 H197 H 0.47276 0.25233 0.85053
 H198 H 0.44435 0.25777 1.07097
 H199 H 0.44681 0.29686 1.13393
 H200 H 0.53579 0.36872 1.08103
 H201 H 0.53253 0.32664 1.01899
 C202 C 0.37118 0.18671 1.00761
 C203 C 0.61947 0.19470 0.99672
 C204 C 0.49132 0.33639 1.11266
 C205 C 0.47062 0.31351 0.87420
 C206 C 0.46316 0.81439 0.98925
 H207 H 0.48629 0.81694 0.96668
 C208 C 0.42703 0.83690 0.98697
 H209 H 0.42409 0.85771 0.96331
 C210 C 0.44010 0.78428 1.04723
 H211 H 0.44467 0.76292 1.07011
 C212 C 0.40366 0.80630 1.04631
 H213 H 0.38115 0.80022 1.06844
 N214 N 0.46828 0.78733 1.01798
 C215 C 0.59460 0.74539 1.00333
 H216 H 0.59070 0.71377 1.00284
 C217 C 0.63300 0.75923 0.99849
 H218 H 0.65832 0.73806 0.99428
 C219 C 0.56673 0.81134 1.01120
 H220 H 0.54087 0.83149 1.01658
 C221 C 0.60485 0.82653 1.00701
 H222 H 0.60804 0.85843 1.00876
 Zn223 Zn 0.51174 0.74853 1.01469
 N224 N 0.56232 0.77133 1.00911
 C225 C 0.52574 0.67698 0.96803
 N226 N 0.50486 0.71276 0.96979
 C227 C 0.48160 0.72425 0.93871
 C228 C 0.48077 0.70076 0.90334
 C229 C 0.52584 0.65253 0.93310
 C230 C 0.53551 0.73228 1.09289
 C231 C 0.53487 0.71293 1.12898
 C232 C 0.48597 0.66915 1.10061
 C233 C 0.48750 0.68935 1.06513
 N234 N 0.51213 0.72014 1.06193
 H235 H 0.54303 0.66770 0.99347
 H236 H 0.46469 0.75229 0.94047
 H237 H 0.46365 0.71156 0.87833
 H238 H 0.54344 0.62464 0.93187
 H239 H 0.55442 0.75723 1.08966
 H240 H 0.55399 0.72262 1.15321
 H241 H 0.46583 0.64497 1.10284
 H242 H 0.46867 0.68088 1.04026
 C243 C 0.63850 0.80024 1.00038
 C244 C 0.39553 0.83188 1.01470
 C245 C 0.50989 0.68088 1.13309
 C246 C 0.50390 0.66486 0.89984
 B247 B 1.00067 1.04133 0.02328
 B248 B 1.00106 1.03785 -0.02851
 B249 B 1.04403 1.02284 -0.00303
 B250 B 1.02844 1.00152 0.03973
 B251 B 0.97646 1.00103 0.04035
 B252 B 0.95934 1.02361 -0.00302
 B253 B 1.00376 0.95418 -0.02699
 B254 B 1.00348 0.95801 0.02509
 B255 B 0.96157 0.97233 -0.00130
 B256 B 0.97766 0.99521 -0.04425
 B257 B 1.02939 0.99439 -0.04373
 B258 B 1.04525 0.97103 -0.00070
 B259 B 0.53962 0.49758 0.47882
 B260 B 0.49776 0.52619 0.46492
 B261 B 0.49668 0.47457 0.46303
 B262 B 0.52260 0.45702 0.50334
 B263 B 0.54011 0.49740 0.53019
 B264 B 0.52475 0.54036 0.50655
 B265 B 0.45631 0.50367 0.53237
 B266 B 0.49783 0.47499 0.54672
 B267 B 0.49879 0.52614 0.54851
 B268 B 0.47287 0.54379 0.50788
 B269 B 0.45547 0.50308 0.48053
 B270 B 0.47103 0.46062 0.50486
 C271 C 1.05639 1.28194 0.14715
 C272 C 1.02231 1.26090 0.13538
 C273 C 0.98457 1.28210 0.13731
 C274 C 0.98128 1.32197 0.15172
 C275 C 1.01514 1.34248 0.16455
 C276 C 1.05284 1.32178 0.16118
 C277 C 0.95006 1.26365 0.12445
 C278 C 0.95193 1.22441 0.10984
 C279 C 0.98850 1.20154 0.10828
 C280 C 1.02432 1.21993 0.12126
 C281 C 1.06074 1.19661 0.11974
 C282 C 1.06242 1.15752 0.10408
 C283 C 1.02802 1.14011 0.08930
 C284 C 0.99057 1.16113 0.09301
 C285 C 0.95662 1.13988 0.08263
 C286 C 0.96078 1.10194 0.06413
 C287 C 0.99780 1.08386 0.05187
 C288 C 1.03079 1.10161 0.07077
 H289 H 1.08636 1.26850 0.14600
 H290 H 0.95199 1.33725 0.15145
 H291 H 1.07995 1.33545 0.17118
 H292 H 0.92118 1.27990 0.12528
 H293 H 0.92408 1.21299 0.09926
 H294 H 1.08871 1.20777 0.13025
 H295 H 1.09111 1.14097 0.10298
 H296 H 0.92638 1.15123 0.08915
 H297 H 0.93399 1.08734 0.05966
 H298 H 1.05929 1.08576 0.07217
 C299 C 1.04617 0.70178 0.10717
 C300 C 1.01838 0.73441 0.11521
 C301 C 0.98538 0.72834 0.14099
 C302 C 0.98149 0.69169 0.15882
 C303 C 1.00998 0.66016 0.15157
 C304 C 1.04195 0.66543 0.12512
 C305 C 0.95658 0.75900 0.14937
 C306 C 0.95942 0.79571 0.13249
 C307 C 0.99152 0.80340 0.10651
 C308 C 1.02208 0.77265 0.09859
 C309 C 1.05548 0.78138 0.07473
 C310 C 1.05864 0.81851 0.05874
 C311 C 1.02847 0.84831 0.06523
 C312 C 0.99425 0.84097 0.08840
 C313 C 0.96307 0.87070 0.09027
 C314 C 0.96656 0.90636 0.07103
 C315 C 1.00184 0.91611 0.05045
 C316 C 1.03150 0.88459 0.04642
 H317 H 1.07154 0.70325 0.08716
 H318 H 0.95610 0.68770 0.17855
 H319 H 1.06446 0.64163 0.11902
 H320 H 0.93149 0.75462 0.16936
 H321 H 0.93634 0.81793 0.14126
 H322 H 1.08020 0.76028 0.06824
 H323 H 1.08491 0.82381 0.04067
 H324 H 0.93469 0.86678 0.10496
 H325 H 0.94062 0.92631 0.07309
 H326 H 1.05371 0.88447 0.02307
 C327 C 1.04525 1.27948 -0.13078
 C328 C 1.01140 1.25752 -0.12193
 C329 C 0.97310 1.27330 -0.13268
 C330 C 0.96903 1.31117 -0.14877
 C331 C 1.00300 1.33298 -0.15701
 C332 C 1.04105 1.31614 -0.14834
 C333 C 0.93920 1.25095 -0.12780
 C334 C 0.94271 1.21271 -0.11354
 C335 C 0.98017 1.19619 -0.10166
 C336 C 1.01455 1.21998 -0.10378
 C337 C 1.05076 1.20600 -0.08671
 C338 C 1.05368 1.16942 -0.06940
 C339 C 1.02111 1.14484 -0.06952
 C340 C 0.98439 1.15715 -0.08655
 C341 C 0.95421 1.12913 -0.08894
 C342 C 0.96017 1.09145 -0.07308
 C343 C 0.99557 1.08011 -0.05253
 C344 C 1.02566 1.10767 -0.05278
 H345 H 1.07561 1.26829 -0.12617
 H346 H 0.93924 1.32336 -0.15501
 H347 H 1.06815 1.33072 -0.15605
 H348 H 0.90974 1.26280 -0.13592
 H349 H 0.91530 1.19718 -0.11066
 H350 H 1.07705 1.22344 -0.08479
 H351 H 1.08194 1.16013 -0.05605
 H352 H 0.92616 1.13505 -0.10390
 H353 H 0.93607 1.07149 -0.07707
 H354 H 1.05449 1.09973 -0.04327
 C355 C 0.98830 0.68840 -0.09554
 C356 C 1.00057 0.72305 -0.11374
 C357 C 1.01399 0.71933 -0.15414
 C358 C 1.01756 0.68179 -0.17422
 C359 C 1.00514 0.64751 -0.15588
 C360 C 0.99011 0.65156 -0.11644
 C361 C 1.02328 0.75316 -0.17451
 C362 C 1.01848 0.79087 -0.15589
 C363 C 1.00610 0.79588 -0.11544
 C364 C 0.99914 0.76130 -0.09346
 C365 C 0.99193 0.76604 -0.05177
 C366 C 0.99137 0.80333 -0.03238
 C367 C 0.99684 0.83732 -0.05388
 C368 C 1.00195 0.83431 -0.09572
 C369 C 0.99982 0.87007 -0.11609
 C370 C 0.99725 0.90696 -0.09484
 C371 C 1.00134 0.91044 -0.05266
 C372 C 0.99571 0.87456 -0.03361
 H373 H 0.97546 0.68905 -0.06575
 H374 H 1.02984 0.67963 -0.20441
 H375 H 0.97858 0.62643 -0.10167
 H376 H 1.03363 0.75054 -0.20543
 H377 H 1.02636 0.81570 -0.17329
 H378 H 0.98835 0.74124 -0.03293
 H379 H 0.98663 0.80554 -0.00018
 H380 H 0.99884 0.87033 -0.14840
 H381 H 0.99542 0.93255 -0.11281
 H382 H 0.98242 0.87507 -0.00466
 C383 C 1.10249 1.05715 0.29960
 C384 C 1.12120 1.04345 0.26289
 C385 C 1.16185 1.02917 0.26414
 C386 C 1.18178 1.02685 0.30087
 C387 C 1.16210 1.03866 0.33702
 C388 C 1.12269 1.05470 0.33594
 C389 C 1.18222 1.01632 0.22890
 C390 C 1.16293 1.01627 0.19225
 C391 C 1.12214 1.02887 0.18942
 C392 C 1.10085 1.04257 0.22529
 C393 C 1.05960 1.05361 0.22251
 C394 C 1.03951 1.04971 0.18647
 C395 C 1.05971 1.03526 0.15169
 C396 C 1.10140 1.02651 0.15214
 C397 C 1.12047 1.01685 0.11486
 C398 C 1.09803 1.01126 0.08001
 C399 C 1.05555 1.01188 0.08068
 C400 C 1.03811 1.02959 0.11632
 H401 H 1.07215 1.06958 0.30148
 H402 H 1.21269 1.01529 0.30139
 H403 H 1.10694 1.06424 0.36349
 H404 H 1.21333 1.00547 0.22974
 H405 H 1.18043 1.00463 0.16669
 H406 H 1.04145 1.06419 0.24795
 H407 H 1.00753 1.05728 0.18604
 H408 H 1.15269 1.01408 0.11144
 H409 H 1.11498 1.00521 0.05276
 H410 H 1.00775 1.04174 0.11669
 C411 C 1.14588 1.06384 -0.28013
 C412 C 1.13179 1.02939 -0.26262
 C413 C 1.13347 0.99344 -0.28661
 C414 C 1.14928 0.99219 -0.32573
 C415 C 1.16418 1.02618 -0.34211
 C416 C 1.16175 1.06213 -0.31920
 C417 C 1.11963 0.95865 -0.27149
 C418 C 1.10517 0.95813 -0.23253
 C419 C 1.10424 0.99256 -0.20676
 C420 C 1.11655 1.02910 -0.22227
 C421 C 1.11312 1.06388 -0.19688
 C422 C 1.09809 1.06296 -0.15786
 C423 C 1.08659 1.02733 -0.14229
 C424 C 1.09049 0.99173 -0.16616
 C425 C 1.08169 0.95639 -0.14777
 C426 C 1.06552 0.95720 -0.10919
 C427 C 1.05615 0.99262 -0.08651
 C428 C 1.07076 1.02715 -0.10299
 H429 H 1.14579 1.09240 -0.26425
 H430 H 1.15032 0.96438 -0.34350
 H431 H 1.17330 1.08881 -0.33108
 H432 H 1.12014 0.93131 -0.28999
 H433 H 1.09420 0.93018 -0.22369
 H434 H 1.12129 1.09258 -0.20644
 H435 H 1.09538 1.09049 -0.13970
 H436 H 1.08786 0.92733 -0.16193
 H437 H 1.06239 0.92875 -0.09729
 H438 H 1.06940 1.05438 -0.08595
 C439 C 0.82039 1.04356 0.27061
 C440 C 0.85765 1.02489 0.25856
 C441 C 0.87927 1.00353 0.28771
 C442 C 0.86366 1.00045 0.32669
 C443 C 0.82574 1.01776 0.33805
 C444 C 0.80491 1.04003 0.30930
 C445 C 0.91627 0.98459 0.27777
 C446 C 0.93178 0.98500 0.23915
 C447 C 0.91074 1.00437 0.20848
 C448 C 0.87386 1.02600 0.21861
 C449 C 0.85454 1.04770 0.18837
 C450 C 0.87030 1.04764 0.14954
 C451 C 0.90543 1.02531 0.13883
 C452 C 0.92556 1.00295 0.16804
 C453 C 0.95942 0.97929 0.15538
 C454 C 0.97344 0.97908 0.11617
 C455 C 0.95492 1.00171 0.08609
 C456 C 0.92022 1.02493 0.09891
 H457 H 0.80206 1.06083 0.25076
 H458 H 0.88049 0.98224 0.34717
 H459 H 0.77668 1.05594 0.31656
 H460 H 0.93338 0.96884 0.30006
 H461 H 0.96081 0.97005 0.23456
 H462 H 0.82718 1.06547 0.19383
 H463 H 0.85449 1.06495 0.12752
 H464 H 0.97625 0.96037 0.17494
 H465 H 1.00141 0.96236 0.11061
 H466 H 0.90264 1.04136 0.07787
 C467 C 0.82755 0.94762 -0.27206
 C468 C 0.86257 0.96740 -0.26062
 C469 C 0.88194 0.98877 -0.29039
 C470 C 0.86671 0.99018 -0.32948
 C471 C 0.83172 0.97091 -0.34017
 C472 C 0.81254 0.94944 -0.31104
 C473 C 0.91642 1.00894 -0.28109
 C474 C 0.93174 1.00948 -0.24264
 C475 C 0.91320 0.98964 -0.21148
 C476 C 0.87874 0.96727 -0.22079
 C477 C 0.86183 0.94559 -0.18999
 C478 C 0.87749 0.94639 -0.15136
 C479 C 0.91014 0.96935 -0.14145
 C480 C 0.92818 0.99129 -0.17135
 C481 C 0.96039 1.01445 -0.15965
 C482 C 0.97404 1.01547 -0.12050
 C483 C 0.95689 0.99421 -0.08968
 C484 C 0.92489 0.97039 -0.10176
 H485 H 0.81058 0.93106 -0.25144
 H486 H 0.88229 1.00641 -0.35175
 H487 H 0.78511 0.93469 -0.31807
 H488 H 0.93165 1.02490 -0.30382
 H489 H 0.95864 1.02563 -0.23858
 H490 H 0.83651 0.92728 -0.19486
 H491 H 0.86350 0.92918 -0.12884
 H492 H 0.97565 1.03299 -0.17975
 H493 H 0.99804 1.03469 -0.11500
 H494 H 0.91132 0.95179 -0.08116
 C495 C 1.26209 1.17893 0.03052
 C496 C 1.25450 1.13989 0.01638
 C497 C 1.28782 1.11515 0.00249
 C498 C 1.32669 1.12993 0.00124
 C499 C 1.33326 1.16988 0.01269
 C500 C 1.30038 1.19347 0.02853
 C501 C 1.28207 1.07596 -0.01084
 C502 C 1.24383 1.06113 -0.01204
 C503 C 1.20953 1.08522 -0.00039
 C504 C 1.21503 1.12488 0.01508
 C505 C 1.18073 1.14852 0.02781
 C506 C 1.14258 1.13391 0.02577
 C507 C 1.13679 1.09535 0.01074
 C508 C 1.16983 1.07100 -0.00360
 C509 C 1.16120 1.03457 -0.02309
 C510 C 1.12189 1.02210 -0.02511
 C511 C 1.08894 1.04331 -0.00624
 C512 C 1.09767 1.08166 0.00888
 H513 H 1.23914 1.19941 0.04317
 H514 H 1.35110 1.11076 -0.01122
 H515 H 1.30407 1.22346 0.04054
 H516 H 1.30742 1.05655 -0.02077
 H517 H 1.24210 1.03037 -0.02202
 H518 H 1.18207 1.17873 0.03948
 H519 H 1.11722 1.15331 0.03564
 H520 H 1.18387 1.01569 -0.03861
 H521 H 1.11786 0.99630 -0.04357
 H522 H 1.07404 1.10350 0.01514
 C523 C 0.73324 1.19313 0.00310
 C524 C 0.74437 1.15275 -0.00680
 C525 C 0.71299 1.12669 -0.01581
 C526 C 0.67269 1.14067 -0.01510
 C527 C 0.66228 1.18052 -0.00492
 C528 C 0.69288 1.20659 0.00417
 C529 C 0.72171 1.08649 -0.02481
 C530 C 0.76094 1.07121 -0.02525
 C531 C 0.79345 1.09582 -0.01747
 C532 C 0.78522 1.13716 -0.00766
 C533 C 0.81809 1.16114 0.00126
 C534 C 0.85740 1.14498 0.00171
 C535 C 0.86561 1.10447 -0.00706
 C536 C 0.83390 1.07997 -0.01810
 C537 C 0.84429 1.04064 -0.03086
 C538 C 0.88322 1.02519 -0.02734
 C539 C 0.91433 1.04657 -0.00977
 C540 C 0.90536 1.08811 -0.00507
 H541 H 0.75488 1.21506 0.01036
 H542 H 0.64916 1.12019 -0.02159
 H543 H 0.68556 1.23772 0.01180
 H544 H 0.69781 1.06637 -0.03106
 H545 H 0.76459 1.03951 -0.03090
 H546 H 0.81440 1.19259 0.00856
 H547 H 0.88153 1.16431 0.00954
 H548 H 0.82324 1.02090 -0.04444
 H549 H 0.88771 0.99556 -0.03869
 H550 H 0.92924 1.10841 -0.00115
 C551 C 1.30290 0.87152 -0.03527
 C552 C 1.27467 0.87564 -0.00333
 C553 C 1.28875 0.86871 0.03571
 C554 C 1.32883 0.85562 0.04175
 C555 C 1.35629 0.84932 0.00940
 C556 C 1.34265 0.85872 -0.02900
 C557 C 1.26276 0.87474 0.06866
 C558 C 1.22293 0.88751 0.06378
 C559 C 1.20709 0.89377 0.02539
 C560 C 1.23320 0.88688 -0.00878
 C561 C 1.21686 0.89092 -0.04731
 C562 C 1.17711 0.90345 -0.05231
 C563 C 1.15199 0.91263 -0.01924
 C564 C 1.16620 0.90729 0.01989
 C565 C 1.13865 0.91613 0.05166
 C566 C 1.10063 0.93350 0.04459
 C567 C 1.08781 0.94385 0.00592
 C568 C 1.11304 0.92860 -0.02546
 H569 H 1.29536 0.87788 -0.06568
 H570 H 1.33854 0.85123 0.07215
 H571 H 1.36176 0.85409 -0.05529
 H572 H 1.27339 0.86980 0.09870
 H573 H 1.20520 0.89194 0.09087
 H574 H 1.23395 0.88430 -0.07451
 H575 H 1.16617 0.90684 -0.08251
 H576 H 1.14556 0.91075 0.08245
 H577 H 1.08098 0.93867 0.07035
 H578 H 1.10523 0.93270 -0.05525
 C579 C 0.74511 0.81357 -0.03554
 C580 C 0.75861 0.84289 -0.00772
 C581 C 0.73118 0.85783 0.02276
 C582 C 0.69218 0.84409 0.02483
 C583 C 0.67941 0.81521 -0.00293
 C584 C 0.70621 0.79992 -0.03295
 C585 C 0.74274 0.88630 0.05131
 C586 C 0.78037 0.90189 0.04939
 C587 C 0.80796 0.88986 0.01836
 C588 C 0.79788 0.85848 -0.00942
 C589 C 0.82734 0.84411 -0.03791
 C590 C 0.86461 0.86109 -0.04023
 C591 C 0.87365 0.89365 -0.01504
 C592 C 0.84526 0.90847 0.01420
 C593 C 0.85397 0.94346 0.03601
 C594 C 0.88958 0.96194 0.02969
 C595 C 0.91985 0.94704 0.00288
 C596 C 0.91019 0.91257 -0.02019
 H597 H 0.76361 0.80092 -0.05993
 H598 H 0.67177 0.85553 0.04856
 H599 H 0.69684 0.77760 -0.05486
 H600 H 0.72231 0.89695 0.07532
 H601 H 0.78720 0.92308 0.07321
 H602 H 0.82260 0.81953 -0.05883
 H603 H 0.88617 0.84925 -0.06272
 H604 H 0.83266 0.95920 0.05614
 H605 H 0.89095 0.99061 0.04300
 H606 H 0.92839 0.90187 -0.04510
 C607 C 0.76052 0.54732 0.32350
 C608 C 0.75101 0.52455 0.35668
 C609 C 0.78314 0.50300 0.37470
 C610 C 0.82242 0.50318 0.35910
 C611 C 0.83119 0.52508 0.32566
 C612 C 0.79985 0.54756 0.30846
 C613 C 0.77609 0.48110 0.40821
 C614 C 0.73775 0.47950 0.42421
 C615 C 0.70433 0.49913 0.40671
 C616 C 0.71099 0.52228 0.37255
 C617 C 0.67737 0.54192 0.35532
 C618 C 0.63876 0.53933 0.37107
 C619 C 0.63191 0.51709 0.40456
 C620 C 0.66449 0.49648 0.42246
 C621 C 0.65558 0.47315 0.45493
 C622 C 0.61685 0.47268 0.47043
 C623 C 0.58420 0.49538 0.45548
 C624 C 0.59254 0.51542 0.42030
 H625 H 0.73836 0.56538 0.30848
 H626 H 0.84607 0.48526 0.37257
 H627 H 0.80569 0.56560 0.28318
 H628 H 0.80062 0.46504 0.42244
 H629 H 0.73554 0.46247 0.45059
 H630 H 0.67982 0.55956 0.32936
 H631 H 0.61399 0.55512 0.35694
 H632 H 0.67765 0.45435 0.46916
 H633 H 0.61319 0.45273 0.49400
 H634 H 0.56879 0.52978 0.40437
 C635 C 0.19334 0.47507 0.40495
 C636 C 0.22912 0.48795 0.38740
 C637 C 0.22606 0.50539 0.34961
 C638 C 0.18892 0.50888 0.33024
 C639 C 0.15369 0.49624 0.34810
 C640 C 0.15641 0.47921 0.38558
 C641 C 0.26004 0.51947 0.33125
 C642 C 0.29696 0.51805 0.35015
 C643 C 0.30155 0.50187 0.38818
 C644 C 0.26756 0.48489 0.40627
 C645 C 0.27331 0.46527 0.44243
 C646 C 0.31049 0.46358 0.46093
 C647 C 0.34315 0.48229 0.44487
 C648 C 0.33908 0.50194 0.40870
 C649 C 0.37219 0.52276 0.39586
 C650 C 0.40746 0.52375 0.41811
 C651 C 0.41290 0.50346 0.45392
 C652 C 0.37949 0.48250 0.46584
 H653 H 0.19261 0.46252 0.43405
 H654 H 0.18756 0.52143 0.30091
 H655 H 0.12971 0.46972 0.40047
 H656 H 0.25799 0.53228 0.30207
 H657 H 0.32171 0.52923 0.33372
 H658 H 0.24970 0.45034 0.45701
 H659 H 0.31342 0.44828 0.48873
 H660 H 0.37092 0.54094 0.37009
 H661 H 0.42762 0.54484 0.40863
 H662 H 0.37981 0.46870 0.49344
 C663 C 0.78762 0.54081 0.62956
 C664 C 0.76647 0.50701 0.61777
 C665 C 0.78319 0.46911 0.62673
 C666 C 0.82147 0.46538 0.64383
 C667 C 0.84213 0.49938 0.65644
 C668 C 0.82414 0.53706 0.64909
 C669 C 0.76097 0.43531 0.61986
 C670 C 0.72179 0.43870 0.60591
 C671 C 0.70440 0.47591 0.59584
 C672 C 0.72842 0.50993 0.59896
 C673 C 0.71413 0.54556 0.58231
 C674 C 0.67656 0.54845 0.56514
 C675 C 0.65116 0.51669 0.56572
 C676 C 0.66424 0.48029 0.58167
 C677 C 0.63646 0.45001 0.58274
 C678 C 0.59761 0.45592 0.56806
 C679 C 0.58418 0.49219 0.55178
 C680 C 0.61295 0.52125 0.54939
 H681 H 0.77582 0.57075 0.62571
 H682 H 0.83313 0.43589 0.65064
 H683 H 0.83900 0.56428 0.65668
 H684 H 0.77345 0.40610 0.62664
 H685 H 0.70624 0.41143 0.60190
 H686 H 0.73213 0.57127 0.58065
 H687 H 0.66689 0.57625 0.55220
 H688 H 0.64355 0.42175 0.59561
 H689 H 0.57810 0.43162 0.57002
 H690 H 0.60802 0.54651 0.53210
 C691 C 0.19055 0.50741 0.58957
 C692 C 0.22664 0.50175 0.61109
 C693 C 0.22389 0.48645 0.64984
 C694 C 0.18642 0.47954 0.66691
 C695 C 0.15084 0.48645 0.64573
 C696 C 0.15341 0.49983 0.60668
 C697 C 0.25852 0.47818 0.67157
 C698 C 0.29616 0.48409 0.65552
 C699 C 0.30065 0.49996 0.61739
 C700 C 0.26527 0.51016 0.59536
 C701 C 0.26969 0.52895 0.55870
 C702 C 0.30738 0.53566 0.54305
 C703 C 0.34209 0.52313 0.56276
 C704 C 0.33934 0.50556 0.60027
 C705 C 0.37570 0.49445 0.61895
 C706 C 0.41235 0.49633 0.59888
 C707 C 0.41475 0.50855 0.55920
 C708 C 0.37962 0.52689 0.54430
 H709 H 0.18997 0.51705 0.55924
 H710 H 0.18503 0.46961 0.69731
 H711 H 0.12658 0.50444 0.58912
 H712 H 0.25655 0.46637 0.70118
 H713 H 0.32121 0.47621 0.67415
 H714 H 0.24446 0.53933 0.54148
 H715 H 0.30935 0.54965 0.51450
 H716 H 0.37711 0.48376 0.64883
 H717 H 0.43865 0.49026 0.61605
 H718 H 0.38047 0.54187 0.51673
 C719 C 0.50686 0.59687 0.20405
 C720 C 0.50563 0.61691 0.24230
 C721 C 0.50688 0.65900 0.24384
 C722 C 0.50862 0.67977 0.20829
 C723 C 0.50905 0.65929 0.17075
 C724 C 0.50847 0.61777 0.16911
 C725 C 0.50628 0.68013 0.28079
 C726 C 0.50413 0.66053 0.31648
 C727 C 0.50215 0.61875 0.31663
 C728 C 0.50313 0.59661 0.27887
 C729 C 0.50127 0.55483 0.27886
 C730 C 0.49902 0.53526 0.31419
 C731 C 0.49847 0.55631 0.35105
 C732 C 0.49934 0.59814 0.35315
 C733 C 0.49615 0.61721 0.39175
 C734 C 0.49431 0.59514 0.42634
 C735 C 0.49697 0.55308 0.42457
 C736 C 0.49628 0.53508 0.38582
 H737 H 0.50670 0.56503 0.19969
 H738 H 0.50889 0.71200 0.20982
 H739 H 0.50965 0.60120 0.14052
 H740 H 0.50753 0.71229 0.28215
 H741 H 0.50426 0.67904 0.34364
 H742 H 0.50145 0.53595 0.25201
 H743 H 0.49787 0.50309 0.31255
 H744 H 0.49507 0.64912 0.39638
 H745 H 0.49309 0.61187 0.45453
 H746 H 0.48993 0.50495 0.38145
 C747 C 0.54892 0.61001 0.80754
 C748 C 0.51562 0.60782 0.78158
 C749 C 0.47756 0.62202 0.79700
 C750 C 0.47361 0.63868 0.83618
 C751 C 0.50721 0.64225 0.86072
 C752 C 0.54466 0.62704 0.84631
 C753 C 0.44362 0.62033 0.77307
 C754 C 0.44666 0.60631 0.73344
 C755 C 0.48405 0.59350 0.71600
 C756 C 0.51889 0.59294 0.74078
 C757 C 0.55579 0.57788 0.72377
 C758 C 0.55870 0.56436 0.68393
 C759 C 0.52518 0.56562 0.65930
 C760 C 0.48767 0.58073 0.67467
 C761 C 0.45567 0.58362 0.64751
 C762 C 0.46009 0.56881 0.60802
 C763 C 0.49616 0.54968 0.59328
 C764 C 0.52914 0.55148 0.61926
 H765 H 0.57893 0.59995 0.79861
 H766 H 0.44435 0.64975 0.84735
 H767 H 0.57122 0.62977 0.86451
 H768 H 0.41435 0.63046 0.78496
 H769 H 0.41887 0.60556 0.71729
 H770 H 0.58318 0.57574 0.74052
 H771 H 0.58758 0.55271 0.67228
 H772 H 0.42686 0.59771 0.65553
 H773 H 0.43452 0.57325 0.58906
 H774 H 0.55877 0.54227 0.60833
 C775 C 0.54078 0.38086 0.20478
 C776 C 0.50810 0.38718 0.23212
 C777 C 0.46925 0.37868 0.21809
 C778 C 0.46377 0.36449 0.17851
 C779 C 0.49662 0.35697 0.15236
 C780 C 0.53503 0.36584 0.16574
 C781 C 0.43605 0.38353 0.24377
 C782 C 0.44051 0.39547 0.28367
 C783 C 0.47856 0.40363 0.29945
 C784 C 0.51270 0.40081 0.27294
 C785 C 0.55014 0.41210 0.28805
 C786 C 0.55415 0.42552 0.32761
 C787 C 0.52134 0.42751 0.35394
 C788 C 0.48341 0.41581 0.34060
 C789 C 0.45181 0.41734 0.36905
 C790 C 0.45695 0.43327 0.40776
 C791 C 0.49376 0.44806 0.42068
 C792 C 0.52607 0.44320 0.39311
 H793 H 0.57140 0.38579 0.21288
 H794 H 0.43379 0.35833 0.16832
 H795 H 0.56112 0.35965 0.14651
 H796 H 0.40624 0.37746 0.23305
 H797 H 0.41321 0.39874 0.30126
 H798 H 0.57694 0.41195 0.26981
 H799 H 0.58331 0.43473 0.33762
 H800 H 0.42252 0.40662 0.36245
 H801 H 0.43122 0.43366 0.42731
 H802 H 0.55423 0.45540 0.39975
 C803 C 0.44082 0.32934 0.76641
 C804 C 0.46261 0.36290 0.75699
 C805 C 0.48542 0.38088 0.78799
 C806 C 0.48684 0.36527 0.82614
 C807 C 0.46607 0.33143 0.83462
 C808 C 0.44264 0.31396 0.80458
 C809 C 0.50730 0.41410 0.78077
 C810 C 0.50888 0.42889 0.74285
 C811 C 0.48875 0.41070 0.71039
 C812 C 0.46351 0.37861 0.71785
 C813 C 0.44043 0.36335 0.68583
 C814 C 0.44283 0.37834 0.64771
 C815 C 0.46908 0.40825 0.63971
 C816 C 0.49286 0.42395 0.67071
 C817 C 0.52160 0.45079 0.66022
 C818 C 0.52412 0.46375 0.62152
 C819 C 0.49826 0.45228 0.59053
 C820 C 0.47202 0.42228 0.60070
 H821 H 0.42280 0.31374 0.74481
 H822 H 0.50552 0.37875 0.84892
 H823 H 0.42575 0.28809 0.81051
 H824 H 0.52385 0.42860 0.80465
 H825 H 0.52575 0.45521 0.74002
 H826 H 0.41973 0.34008 0.68938
 H827 H 0.42434 0.36599 0.62413
 H828 H 0.54379 0.46141 0.68089
 H829 H 0.54808 0.48224 0.61689
 H830 H 0.45514 0.40776 0.57854
 C831 C 0.64001 0.77129 0.43849
 C832 C 0.63521 0.74947 0.47338
 C833 C 0.64444 0.76851 0.51072
 C834 C 0.65875 0.80706 0.51262
 C835 C 0.66328 0.82837 0.47791
 C836 C 0.65371 0.81005 0.44085
 C837 C 0.63935 0.74909 0.54623
 C838 C 0.62345 0.71181 0.54592
 C839 C 0.61255 0.69200 0.50976
 C840 C 0.62074 0.70996 0.47276
 C841 C 0.61446 0.68761 0.43668
 C842 C 0.59901 0.64979 0.43687
 C843 C 0.58757 0.63352 0.47282
 C844 C 0.59377 0.65472 0.50945
 C845 C 0.57949 0.63835 0.54438
 C846 C 0.55907 0.60333 0.54266
 C847 C 0.55118 0.58167 0.50682
 C848 C 0.56876 0.59674 0.47225
 H849 H 0.63250 0.75961 0.40906
 H850 H 0.66679 0.82036 0.54144
 H851 H 0.65631 0.82592 0.41351
 H852 H 0.64712 0.76318 0.57478
 H853 H 0.62091 0.69886 0.57471
 H854 H 0.62191 0.69834 0.40772
 H855 H 0.59467 0.63372 0.40848
 H856 H 0.58185 0.65270 0.57370
 H857 H 0.54936 0.59443 0.57053
 H858 H 0.56607 0.58179 0.44387
 C859 C 0.59374 0.19459 0.54299
 C860 C 0.60323 0.22404 0.51574
 C861 C 0.63168 0.21308 0.48490
 C862 C 0.65095 0.17508 0.48293
 C863 C 0.64246 0.14697 0.51116
 C864 C 0.61310 0.15677 0.54062
 C865 C 0.64141 0.24024 0.45647
 C866 C 0.62402 0.27851 0.45808
 C867 C 0.59630 0.29146 0.48867
 C868 C 0.58594 0.26390 0.51818
 C869 C 0.55947 0.27746 0.54967
 C870 C 0.54418 0.31656 0.55260
 C871 C 0.55398 0.34364 0.52402
 C872 C 0.57924 0.33135 0.49127
 C873 C 0.58596 0.35964 0.46236
 C874 C 0.56902 0.39832 0.46659
 C875 C 0.54536 0.41193 0.49998
 C876 C 0.53801 0.38296 0.52802
 H877 H 0.57170 0.19978 0.56665
 H878 H 0.67296 0.16738 0.45939
 H879 H 0.60587 0.13546 0.56266
 H880 H 0.66308 0.23193 0.43279
 H881 H 0.63388 0.29761 0.43529
 H882 H 0.55055 0.25879 0.57322
 H883 H 0.52439 0.32571 0.57764
 H884 H 0.60357 0.35282 0.43552
 H885 H 0.57569 0.41724 0.44317
 H886 H 0.51863 0.38982 0.55270
 C887 C 0.32391 0.77238 0.45572
 C888 C 0.35788 0.76070 0.47830
 C889 C 0.37713 0.79097 0.50084
 C890 C 0.36256 0.83078 0.50093
 C891 C 0.32842 0.84161 0.47915
 C892 C 0.30953 0.81208 0.45629
 C893 C 0.41066 0.78145 0.52365
 C894 C 0.42512 0.74236 0.52565
 C895 C 0.40644 0.71086 0.50489
 C896 C 0.37306 0.72020 0.47981
 C897 C 0.35617 0.68873 0.45720
 C898 C 0.37113 0.64958 0.45927
 C899 C 0.40299 0.63995 0.48445
 C900 C 0.42049 0.67034 0.50797
 C901 C 0.45097 0.65869 0.53433
 C902 C 0.46504 0.61930 0.53515
 C903 C 0.45005 0.58864 0.51044
 C904 C 0.41763 0.60004 0.48596
 H905 H 0.30732 0.75158 0.43776
 H906 H 0.37714 0.85324 0.51914
 H907 H 0.28333 0.81969 0.43876
 H908 H 0.42586 0.80452 0.54042
 H909 H 0.45158 0.73800 0.54347
 H910 H 0.33152 0.69339 0.43707
 H911 H 0.35744 0.62653 0.44104
 H912 H 0.46451 0.67913 0.55532
 H913 H 0.48767 0.61371 0.55643
 H914 H 0.40327 0.57858 0.46765
 C915 C 0.40984 0.19844 0.46777
 C916 C 0.39258 0.23352 0.48731
 C917 C 0.35676 0.22995 0.50987
 C918 C 0.33916 0.19302 0.51224
 C919 C 0.35646 0.15873 0.49249
 C920 C 0.39193 0.16184 0.47028
 C921 C 0.33831 0.26326 0.52978
 C922 C 0.35463 0.30031 0.52821
 C923 C 0.39036 0.30570 0.50644
 C924 C 0.40945 0.27185 0.48528
 C925 C 0.44463 0.27754 0.46273
 C926 C 0.46078 0.31473 0.46114
 C927 C 0.44295 0.34775 0.48221
 C928 C 0.40768 0.34382 0.50514
 C929 C 0.39174 0.37822 0.52639
 C930 C 0.41070 0.41427 0.52560
 C931 C 0.44619 0.41884 0.50329
 C932 C 0.46094 0.38458 0.48087
 H933 H 0.43719 0.19807 0.45032
 H934 H 0.31129 0.19116 0.52894
 H935 H 0.40613 0.13575 0.45500
 H936 H 0.31081 0.26068 0.54689
 H937 H 0.33812 0.32428 0.54431
 H938 H 0.46055 0.25379 0.44572
 H939 H 0.48796 0.31753 0.44356
 H940 H 0.36543 0.37821 0.54533
 H941 H 0.39828 0.43773 0.54534
 H942 H 0.48721 0.38566 0.46214
   
