data_POSCAR
  _audit_creation_date              2014-09-24
  _audit_creation_method            'ToBaCCo'
  _symmetry_space_group_name_H-M    'P1'
  _symmetry_Int_Tables_number       1
  _symmetry_cell_setting            triclinic
  loop_
  _symmetry_equiv_pos_as_xyz
 x,y,z
_cell_length_a 49.8468
_cell_length_b 49.7243
_cell_length_c 49.9513
_cell_angle_alpha 90.054400
_cell_angle_beta 90.038200
_cell_angle_gamma 89.968100
loop_
  _atom_site_label
  _atom_site_type_symbol
  _atom_site_fract_x
  _atom_site_fract_y
  _atom_site_fract_z
C1 C 0.20476 0.19750 0.23127
 C2 C 0.18359 0.20258 0.24906
 C3 C 0.16517 0.22337 0.24411
 C4 C 0.16857 0.23968 0.22132
 C5 C 0.18979 0.23499 0.20345
 C6 C 0.20790 0.21375 0.20837
 C7 C 0.22284 0.17642 0.23607
 C8 C 0.24393 0.17111 0.21806
 C9 C 0.24712 0.18766 0.19550
 C10 C 0.22923 0.20886 0.19046
 C11 C 0.23234 0.22529 0.16784
 C12 C 0.21465 0.24675 0.16298
 C13 C 0.19319 0.25126 0.18078
 H14 H 0.18120 0.19010 0.26670
 H15 H 0.15518 0.25643 0.21766
 H16 H 0.22062 0.16457 0.25410
 H17 H 0.26351 0.18386 0.18172
 H18 H 0.24874 0.22155 0.15407
 H19 H 0.17875 0.26705 0.17687
 C20 C 0.70076 0.68863 0.72580
 C21 C 0.67908 0.69231 0.74331
 C22 C 0.66102 0.71382 0.73965
 C23 C 0.66463 0.73127 0.71785
 C24 C 0.68627 0.72788 0.70019
 C25 C 0.70444 0.70650 0.70420
 C26 C 0.71874 0.66723 0.72947
 C27 C 0.74059 0.66357 0.71210
 C28 C 0.74395 0.68129 0.69038
 C29 C 0.72606 0.70272 0.68638
 C30 C 0.72936 0.72034 0.66472
 C31 C 0.71162 0.74192 0.66075
 C32 C 0.68992 0.74543 0.67849
 H33 H 0.67607 0.67802 0.75936
 H34 H 0.65062 0.74768 0.71476
 H35 H 0.71590 0.65347 0.74607
 H36 H 0.76006 0.67822 0.67618
 H37 H 0.74594 0.71740 0.65098
 H38 H 0.67548 0.76136 0.67522
 C39 C 0.29370 0.80655 0.72993
 C40 C 0.31526 0.80253 0.74758
 C41 C 0.33265 0.78042 0.74430
 C42 C 0.32840 0.76255 0.72294
 C43 C 0.30685 0.76621 0.70527
 C44 C 0.28945 0.78832 0.70873
 C45 C 0.27650 0.82870 0.73301
 C46 C 0.25513 0.83324 0.71508
 C47 C 0.25096 0.81457 0.69409
 C48 C 0.26795 0.79230 0.69086
 C49 C 0.26379 0.77402 0.66984
 C50 C 0.28081 0.75164 0.66651
 C51 C 0.30248 0.74813 0.68414
 H52 H 0.31877 0.81704 0.76336
 H53 H 0.34185 0.74561 0.72021
 H54 H 0.28001 0.84265 0.74935
 H55 H 0.23440 0.81666 0.68030
 H56 H 0.24763 0.77769 0.65582
 H57 H 0.31586 0.73112 0.68150
 C58 C 0.79563 0.30378 0.23264
 C59 C 0.81824 0.29966 0.24887
 C60 C 0.83577 0.27785 0.24440
 C61 C 0.82996 0.25993 0.22314
 C62 C 0.80747 0.26391 0.20670
 C63 C 0.79024 0.28586 0.21144
 C64 C 0.77843 0.32568 0.23719
 C65 C 0.75571 0.32979 0.22088
 C66 C 0.75077 0.31202 0.19957
 C67 C 0.76775 0.29005 0.19481
 C68 C 0.76265 0.27230 0.17355
 C69 C 0.77960 0.25010 0.16888
 C70 C 0.80202 0.24623 0.18547
 H71 H 0.82222 0.31364 0.26509
 H72 H 0.84246 0.24270 0.21902
 H73 H 0.78317 0.33967 0.25310
 H74 H 0.73348 0.31522 0.18677
 H75 H 0.74579 0.27626 0.16048
 H76 H 0.81530 0.22934 0.18180
 C77 C 0.79596 0.69232 0.26538
 C78 C 0.81764 0.69666 0.24801
 C79 C 0.83520 0.71871 0.25177
 C80 C 0.83050 0.73615 0.27355
 C81 C 0.80886 0.73204 0.29102
 C82 C 0.79150 0.71008 0.28691
 C83 C 0.77863 0.67043 0.26144
 C84 C 0.75696 0.66591 0.27894
 C85 C 0.75252 0.68387 0.30017
 C86 C 0.76967 0.70584 0.30436
 C87 C 0.76537 0.72355 0.32580
 C88 C 0.78245 0.74575 0.32989
 C89 C 0.80428 0.74963 0.31254
 H90 H 0.82049 0.68244 0.23193
 H91 H 0.84371 0.75315 0.27692
 H92 H 0.78180 0.65735 0.24440
 H93 H 0.73572 0.68061 0.31357
 H94 H 0.74901 0.71960 0.33947
 H95 H 0.81765 0.76654 0.31572
 C96 C 0.29389 0.19099 -0.23248
 C97 C 0.31513 0.19549 -0.25032
 C98 C 0.33248 0.21777 -0.24707
 C99 C 0.32800 0.23530 -0.22531
 C100 C 0.30683 0.23098 -0.20730
 C101 C 0.28968 0.20876 -0.21091
 C102 C 0.27672 0.16892 -0.23601
 C103 C 0.25542 0.16423 -0.21813
 C104 C 0.25113 0.18228 -0.19692
 C105 C 0.26818 0.20440 -0.19308
 C106 C 0.26411 0.22220 -0.17167
 C107 C 0.28132 0.24419 -0.16761
 C108 C 0.30250 0.24863 -0.18577
 H109 H 0.31781 0.18119 -0.26635
 H110 H 0.34107 0.25249 -0.22233
 H111 H 0.27971 0.15584 -0.25309
 H112 H 0.23458 0.17893 -0.18324
 H113 H 0.24762 0.21881 -0.15793
 H114 H 0.31539 0.26600 -0.18360
 C115 C 0.70434 0.31146 -0.22891
 C116 C 0.68343 0.30721 -0.24726
 C117 C 0.66631 0.28463 -0.24494
 C118 C 0.67062 0.26660 -0.22360
 C119 C 0.69140 0.27067 -0.20510
 C120 C 0.70839 0.29313 -0.20780
 C121 C 0.72131 0.33384 -0.23139
 C122 C 0.74244 0.33804 -0.21327
 C123 C 0.74606 0.31989 -0.19195
 C124 C 0.72927 0.29742 -0.18921
 C125 C 0.73298 0.27927 -0.16806
 C126 C 0.71634 0.25654 -0.16544
 C127 C 0.69544 0.25260 -0.18391
 H128 H 0.68086 0.32185 -0.26299
 H129 H 0.65770 0.24919 -0.22131
 H130 H 0.71828 0.34794 -0.24767
 H131 H 0.76159 0.32332 -0.17718
 H132 H 0.74857 0.28323 -0.15349
 H133 H 0.68238 0.23528 -0.18185
 C134 C 0.21224 0.80994 0.26910
 C135 C 0.19104 0.80560 0.25110
 C136 C 0.17340 0.78384 0.25448
 C137 C 0.17687 0.76660 0.27657
 C138 C 0.19800 0.77064 0.29465
 C139 C 0.21578 0.79236 0.29093
 C140 C 0.22990 0.83160 0.26562
 C141 C 0.25121 0.83622 0.28363
 C142 C 0.25436 0.81850 0.30557
 C143 C 0.23689 0.79667 0.30919
 C144 C 0.24021 0.77911 0.33096
 C145 C 0.22280 0.75709 0.33454
 C146 C 0.20156 0.75328 0.31647
 H147 H 0.18829 0.81913 0.23429
 H148 H 0.16292 0.75032 0.28014
 H149 H 0.22699 0.84496 0.24870
 H150 H 0.27011 0.82124 0.32014
 H151 H 0.25609 0.78299 0.34523
 H152 H 0.18791 0.73655 0.31928
 C153 C 0.44151 0.45279 0.48001
 C154 C 0.44601 0.43131 0.49761
 C155 C 0.46830 0.41434 0.49440
 C156 C 0.48597 0.41877 0.47283
 C157 C 0.48178 0.44027 0.45513
 C158 C 0.45950 0.45737 0.45873
 C159 C 0.41930 0.46975 0.48337
 C160 C 0.41458 0.49116 0.46565
 C161 C 0.43280 0.49580 0.44460
 C162 C 0.45512 0.47897 0.44098
 C163 C 0.47312 0.48342 0.41985
 C164 C 0.49560 0.46659 0.41629
 C165 C 0.49954 0.44490 0.43386
 H166 H 0.43218 0.42785 0.51401
 H167 H 0.50273 0.40537 0.46940
 H168 H 0.40548 0.46620 0.49976
 H169 H 0.43009 0.51273 0.43128
 H170 H 0.46915 0.49964 0.40597
 H171 H 0.51666 0.43173 0.43108
 C172 C -0.05937 -0.04115 0.98374
 C173 C -0.05588 -0.06276 1.00147
 C174 C -0.03458 -0.08106 0.99795
 C175 C -0.01705 -0.07772 0.97623
 C176 C -0.02021 -0.05616 0.95844
 C177 C -0.04145 -0.03779 0.96220
 C178 C -0.08063 -0.02297 0.98715
 C179 C -0.08447 -0.00130 0.96938
 C180 C -0.06635 0.00174 0.94779
 C181 C -0.04495 -0.01625 0.94423
 C182 C -0.02704 -0.01307 0.92280
 C183 C -0.00546 -0.03101 0.91923
 C184 C -0.00246 -0.05269 0.93695
 H185 H -0.07015 -0.06555 1.01755
 H186 H -0.00074 -0.09187 0.97330
 H187 H -0.09430 -0.02579 1.00381
 H188 H -0.06847 0.01779 0.93343
 H189 H -0.03033 0.00314 0.90871
 H190 H 0.01392 -0.06678 0.93412
 C191 C 1.05962 0.55234 0.98089
 C192 C 1.05431 0.57352 0.99874
 C193 C 1.03195 0.59051 0.99518
 C194 C 1.01508 0.58606 0.97284
 C195 C 1.02014 0.56493 0.95491
 C196 C 1.04245 0.54800 0.95893
 C197 C 1.08186 0.53544 0.98481
 C198 C 1.08740 0.51409 0.96686
 C199 C 1.06996 0.51012 0.94496
 C200 C 1.04765 0.52683 0.94088
 C201 C 1.03044 0.52267 0.91900
 C202 C 1.00794 0.53922 0.91502
 C203 C 1.00317 0.56059 0.93292
 H204 H 1.06763 0.57667 1.01564
 H205 H 0.99814 0.59895 0.96874
 H206 H 1.09436 0.53926 1.00203
 H207 H 1.07374 0.49388 0.93093
 H208 H 1.03439 0.50636 0.90512
 H209 H 0.98656 0.57423 0.92962
 C210 C 0.56326 0.04950 0.47733
 C211 C 0.55837 0.07098 0.49490
 C212 C 0.53639 0.08832 0.49086
 C213 C 0.51886 0.08340 0.46938
 C214 C 0.52344 0.06193 0.45170
 C215 C 0.54581 0.04499 0.45560
 C216 C 0.58529 0.03241 0.48138
 C217 C 0.59044 0.01069 0.46380
 C218 C 0.57267 0.00641 0.44223
 C219 C 0.55052 0.02334 0.43800
 C220 C 0.53290 0.01880 0.41652
 C221 C 0.51064 0.03578 0.41233
 C222 C 0.50597 0.05710 0.43020
 H223 H 0.57149 0.07374 0.51196
 H224 H 0.50170 0.09646 0.46633
 H225 H 0.59791 0.03635 0.49850
 H226 H 0.57609 -0.01020 0.42855
 H227 H 0.53632 0.00169 0.40357
 H228 H 0.48874 0.07009 0.42722
 C229 C -0.05610 0.04303 0.52021
 C230 C -0.05088 0.06436 0.50261
 C231 C -0.02885 0.08149 0.50674
 C232 C -0.01153 0.07665 0.52851
 C233 C -0.01650 0.05542 0.54631
 C234 C -0.03890 0.03858 0.54220
 C235 C -0.07823 0.02605 0.51617
 C236 C -0.08326 0.00446 0.53360
 C237 C -0.06616 0.00038 0.55569
 C238 C -0.04401 0.01721 0.56001
 C239 C -0.02685 0.01293 0.58188
 C240 C -0.00459 0.02980 0.58624
 C241 C 0.00060 0.05075 0.56814
 H242 H -0.06412 0.06782 0.48572
 H243 H 0.00611 0.08899 0.53148
 H244 H -0.09147 0.02945 0.49928
 H245 H -0.07026 -0.01550 0.56992
 H246 H -0.03061 -0.00395 0.59502
 H247 H 0.01786 0.06365 0.57127
 C248 C 0.44182 0.54445 0.02229
 C249 C 0.44636 0.56664 0.00558
 C250 C 0.46888 0.58341 0.00919
 C251 C 0.48705 0.57726 0.03011
 C252 C 0.48264 0.55520 0.04705
 C253 C 0.45998 0.53874 0.04314
 C254 C 0.41937 0.52785 0.01843
 C255 C 0.41497 0.50541 0.03490
 C256 C 0.43302 0.50007 0.05595
 C257 C 0.45548 0.51653 0.06011
 C258 C 0.47351 0.51110 0.08100
 C259 C 0.49601 0.52768 0.08526
 C260 C 0.50058 0.54942 0.06794
 H261 H 0.43219 0.57085 -0.01038
 H262 H 0.50478 0.58920 0.03360
 H263 H 0.40538 0.53223 0.00237
 H264 H 0.42943 0.48350 0.06952
 H265 H 0.47017 0.49365 0.09350
 H266 H 0.51802 0.56210 0.07100
 C267 C 0.55498 -0.04681 0.01650
 C268 C 0.55148 -0.06941 0.00006
 C269 C 0.52989 -0.08718 0.00428
 C270 C 0.51222 -0.08243 0.02567
 C271 C 0.51548 -0.05992 0.04232
 C272 C 0.53690 -0.04199 0.03767
 C273 C 0.57645 -0.02909 0.01222
 C274 C 0.57992 -0.00632 0.02866
 C275 C 0.56199 -0.00188 0.04989
 C276 C 0.54048 -0.01945 0.05444
 C277 C 0.52260 -0.01489 0.07562
 C278 C 0.50090 -0.03244 0.08016
 C279 C 0.49771 -0.05506 0.06357
 H280 H 0.56592 -0.07330 -0.01565
 H281 H 0.49575 -0.09622 0.02920
 H282 H 0.59060 -0.03345 -0.00363
 H283 H 0.56473 0.01545 0.06280
 H284 H 0.52605 0.00206 0.08880
 H285 H 0.48124 -0.06883 0.06716
 C286 C 1.05737 0.45227 0.52105
 C287 C 1.05280 0.42980 0.50465
 C288 C 1.03080 0.41255 0.50910
 C289 C 1.01315 0.41852 0.53049
 C290 C 1.01758 0.44085 0.54711
 C291 C 1.03974 0.45777 0.54241
 C292 C 1.07931 0.46935 0.51641
 C293 C 1.08370 0.49203 0.53263
 C294 C 1.06621 0.49712 0.55417
 C295 C 1.04426 0.48022 0.55908
 C296 C 1.02677 0.48547 0.58044
 C297 C 1.00477 0.46848 0.58546
 C298 C 1.00015 0.44646 0.56846
 H299 H 1.06656 0.42574 0.48831
 H300 H 0.99578 0.40626 0.53459
 H301 H 1.09291 0.46515 0.49999
 H302 H 1.06985 0.51384 0.56758
 H303 H 1.03010 0.50313 0.59269
 H304 H 0.98307 0.43346 0.57212
 C305 C 0.41531 0.01674 0.21126
 H306 H 0.41672 0.03535 0.22242
 C307 C 0.43204 0.01236 0.18928
 H308 H 0.44651 0.02766 0.18404
 C309 C 0.39562 -0.02628 0.20585
 H310 H 0.38176 -0.04148 0.21265
 C311 C 0.41206 -0.03156 0.18382
 H312 H 0.41049 -0.05075 0.17366
 N313 N 0.39730 -0.00229 0.21886
 C314 C 0.33586 0.04228 0.26256
 H315 H 0.33583 0.03137 0.28129
 C316 C 0.31815 0.06371 0.25877
 H317 H 0.30506 0.06940 0.27506
 C318 C 0.35366 0.04815 0.21900
 H319 H 0.36721 0.04179 0.20337
 C320 C 0.33629 0.06969 0.21435
 H321 H 0.33686 0.07990 0.19520
 Zn322 Zn 0.37597 0.00514 0.24933
 N323 N 0.35329 0.03506 0.24290
 C324 C 0.39913 0.03592 0.29167
 N325 N 0.39978 0.01220 0.27810
 C326 C 0.41821 -0.00705 0.28408
 C327 C 0.43661 -0.00310 0.30481
 C328 C 0.41719 0.04073 0.31254
 C329 C 0.33444 -0.03131 0.23917
 C330 C 0.31724 -0.05292 0.24397
 C331 C 0.33932 -0.05994 0.28645
 C332 C 0.35605 -0.03813 0.28087
 N333 N 0.35363 -0.02459 0.25734
 H334 H 0.38474 0.05123 0.28630
 H335 H 0.41843 -0.02565 0.27282
 H336 H 0.45044 -0.01916 0.30956
 H337 H 0.41632 0.05969 0.32321
 H338 H 0.33260 -0.01986 0.22085
 H339 H 0.30220 -0.05812 0.22919
 H340 H 0.34139 -0.07001 0.30552
 H341 H 0.37075 -0.03193 0.29550
 C342 C 0.31805 0.07759 0.23422
 C343 C 0.43030 -0.01201 0.17505
 C344 C 0.31982 -0.06783 0.26765
 C345 C 0.43637 0.02121 0.31926
 C346 C 0.08329 -0.01372 0.71707
 H347 H 0.08202 -0.03209 0.72859
 C348 C 0.06561 -0.00937 0.69583
 H349 H 0.05127 -0.02491 0.69094
 C350 C 0.10433 0.02826 0.70934
 H351 H 0.11920 0.04304 0.71487
 C352 C 0.08703 0.03346 0.68795
 H353 H 0.08894 0.05217 0.67702
 N354 N 0.10234 0.00483 0.72323
 C355 C 0.16467 -0.04115 0.76425
 H356 H 0.16626 -0.03004 0.78281
 C357 C 0.18126 -0.06333 0.75967
 H358 H 0.19557 -0.06928 0.77488
 C359 C 0.14423 -0.04669 0.72178
 H360 H 0.12998 -0.04003 0.70692
 C361 C 0.16039 -0.06897 0.71638
 H362 H 0.15750 -0.07946 0.69764
 Zn363 Zn 0.12499 -0.00281 0.75272
 N364 N 0.14645 -0.03342 0.74550
 C365 C 0.10286 -0.03251 0.79625
 N366 N 0.10240 -0.00892 0.78249
 C367 C 0.08467 0.01088 0.78878
 C368 C 0.06696 0.00773 0.81016
 C369 C 0.08542 -0.03655 0.81775
 C370 C 0.16663 0.03280 0.74044
 C371 C 0.18447 0.05408 0.74439
 C372 C 0.16488 0.06137 0.78802
 C373 C 0.14741 0.03996 0.78323
 N374 N 0.14838 0.02637 0.75960
 H375 H 0.11654 -0.04832 0.79046
 H376 H 0.08425 0.02914 0.77702
 H377 H 0.05275 0.02363 0.81432
 H378 H 0.08604 -0.05542 0.82857
 H379 H 0.16710 0.02152 0.72192
 H380 H 0.19815 0.05925 0.72842
 H381 H 0.16373 0.07208 0.80688
 H382 H 0.13319 0.03421 0.79847
 C383 C 0.17942 -0.07747 0.73541
 C384 C 0.06723 0.01465 0.68105
 C385 C 0.18382 0.06861 0.76858
 C386 C 0.06744 -0.01617 0.82519
 C387 C 0.58695 0.48459 0.21457
 H388 H 0.58646 0.46618 0.22609
 C389 C 0.56933 0.48808 0.19311
 H390 H 0.55583 0.47184 0.18803
 C391 C 0.60584 0.52766 0.20720
 H392 H 0.61977 0.54324 0.21300
 C393 C 0.58856 0.53201 0.18561
 H394 H 0.58957 0.55085 0.17480
 N395 N 0.60484 0.50417 0.22108
 C396 C 0.66758 0.46192 0.26518
 H397 H 0.66793 0.47372 0.28339
 C398 C 0.68546 0.44054 0.26196
 H399 H 0.69968 0.43640 0.27777
 C400 C 0.64944 0.45438 0.22197
 H401 H 0.63577 0.46017 0.20622
 C402 C 0.66704 0.43291 0.21786
 H403 H 0.66649 0.42211 0.19902
 Zn404 Zn 0.62708 0.49814 0.25122
 N405 N 0.64982 0.46819 0.24548
 C406 C 0.60478 0.46850 0.29456
 N407 N 0.60416 0.49207 0.28077
 C408 C 0.58602 0.51158 0.28680
 C409 C 0.56802 0.50813 0.30791
 C410 C 0.58706 0.46415 0.31576
 C411 C 0.66780 0.53435 0.23831
 C412 C 0.68545 0.55584 0.24187
 C413 C 0.66553 0.56399 0.28520
 C414 C 0.64824 0.54234 0.28079
 N415 N 0.64953 0.52816 0.25753
 H416 H 0.61875 0.45287 0.28897
 H417 H 0.58548 0.52982 0.27502
 H418 H 0.55349 0.52379 0.31186
 H419 H 0.58780 0.44528 0.32655
 H420 H 0.66852 0.52259 0.22009
 H421 H 0.69920 0.56071 0.22586
 H422 H 0.66422 0.57510 0.30382
 H423 H 0.63400 0.53679 0.29610
 C424 C 0.68513 0.42553 0.23807
 C425 C 0.56980 0.51224 0.17847
 C426 C 0.68461 0.57086 0.26574
 C427 C 0.56860 0.48421 0.32290
 C428 C 0.91594 0.51401 0.71521
 H429 H 0.91666 0.53268 0.72633
 C430 C 0.93352 0.50982 0.69385
 H431 H 0.94721 0.52577 0.68847
 C432 C 0.89645 0.47107 0.70863
 H433 H 0.88227 0.45584 0.71468
 C434 C 0.91367 0.46601 0.68717
 H435 H 0.91236 0.44697 0.67670
 N436 N 0.89773 0.49487 0.72201
 C437 C 0.83485 0.53921 0.76384
 H438 H 0.83402 0.52805 0.78241
 C439 C 0.81742 0.56078 0.75963
 H440 H 0.80325 0.56625 0.77515
 C441 C 0.85396 0.54518 0.72086
 H442 H 0.86774 0.53863 0.70551
 C443 C 0.83686 0.56686 0.71578
 H444 H 0.83778 0.57645 0.69639
 Zn445 Zn 0.87522 0.50202 0.75168
 N446 N 0.85290 0.53208 0.74472
 C447 C 0.89685 0.53235 0.79500
 N448 N 0.89785 0.50865 0.78142
 C449 C 0.91596 0.48929 0.78799
 C450 C 0.93349 0.49305 0.80949
 C451 C 0.91399 0.53695 0.81665
 C452 C 0.83429 0.46568 0.73930
 C453 C 0.81681 0.44411 0.74317
 C454 C 0.83635 0.43722 0.78690
 C455 C 0.85350 0.45891 0.78216
 N456 N 0.85245 0.47236 0.75849
 H457 H 0.88300 0.54789 0.78891
 H458 H 0.91672 0.47085 0.77649
 H459 H 0.94767 0.47733 0.81455
 H460 H 0.91309 0.55618 0.82674
 H461 H 0.83350 0.47709 0.72088
 H462 H 0.80263 0.43892 0.72756
 H463 H 0.83732 0.42726 0.80610
 H464 H 0.86740 0.46511 0.79755
 C465 C 0.81845 0.57513 0.73549
 C466 C 0.93266 0.48539 0.67964
 C467 C 0.81793 0.42931 0.76703
 C468 C 0.93240 0.51693 0.82438
 C469 C 0.21284 0.41861 0.01060
 H470 H 0.22498 0.41890 0.02856
 C471 C 0.19163 0.43674 0.00777
 H472 H 0.18738 0.45044 0.02405
 C473 C 0.20352 0.39961 -0.03190
 H474 H 0.20841 0.38537 -0.04748
 C475 C 0.18206 0.41734 -0.03554
 H476 H 0.17044 0.41639 -0.05385
 N477 N 0.21825 0.40040 -0.00898
 C478 C 0.26021 0.33521 0.03199
 H479 H 0.27828 0.33397 0.02006
 C480 C 0.25658 0.31778 0.05360
 H481 H 0.27202 0.30318 0.05828
 C482 C 0.21804 0.35560 0.04017
 H483 H 0.20282 0.36999 0.03457
 C484 C 0.21358 0.33856 0.06194
 H485 H 0.19474 0.34006 0.07255
 Zn486 Zn 0.24787 0.37716 -0.00337
 N487 N 0.24128 0.35397 0.02601
 C488 C 0.29207 0.39700 0.02688
 N489 N 0.27808 0.39921 0.00359
 C490 C 0.28463 0.41806 -0.01499
 C491 C 0.30658 0.43502 -0.01092
 C492 C 0.31416 0.41355 0.03178
 C493 C 0.23477 0.33743 -0.04111
 C494 C 0.23862 0.32048 -0.06310
 C495 C 0.28246 0.34012 -0.06942
 C496 C 0.27774 0.35673 -0.04737
 N497 N 0.25411 0.35528 -0.03384
 H498 H 0.28600 0.38260 0.04186
 H499 H 0.27281 0.41980 -0.03308
 H500 H 0.31166 0.44976 -0.02604
 H501 H 0.32456 0.41165 0.05069
 H502 H 0.21631 0.33640 -0.02979
 H503 H 0.22295 0.30647 -0.06870
 H504 H 0.30116 0.34227 -0.08016
 H505 H 0.29308 0.37069 -0.04107
 C506 C 0.23327 0.31962 0.06920
 C507 C 0.17601 0.43638 -0.01570
 C508 C 0.26279 0.32149 -0.07743
 C509 C 0.32193 0.43264 0.01251
 C510 C 0.71057 0.08358 -0.01496
 H511 H 0.72218 0.08359 -0.03325
 C512 C 0.68937 0.06551 -0.01189
 H513 H 0.68517 0.05150 -0.02791
 C514 C 0.70333 0.10099 0.02862
 H515 H 0.70916 0.11445 0.04456
 C516 C 0.68205 0.08319 0.03258
 H517 H 0.67145 0.08336 0.05150
 N518 N 0.71689 0.10108 0.00500
 C519 C 0.75929 0.16621 -0.03517
 H520 H 0.77734 0.16690 -0.02315
 C521 C 0.75587 0.18433 -0.05622
 H522 H 0.77133 0.19913 -0.05986
 C523 C 0.71672 0.14684 -0.04372
 H524 H 0.70131 0.13252 -0.03850
 C525 C 0.71241 0.16466 -0.06489
 H526 H 0.69377 0.16370 -0.07601
 Zn527 Zn 0.74650 0.12419 -0.00051
 N528 N 0.74006 0.14766 -0.02962
 C529 C 0.79079 0.10443 -0.03059
 N530 N 0.77667 0.10214 -0.00742
 C531 C 0.78303 0.08316 0.01111
 C532 C 0.80480 0.06598 0.00701
 C533 C 0.81278 0.08773 -0.03547
 C534 C 0.73298 0.16358 0.03707
 C535 C 0.73654 0.18074 0.05893
 C536 C 0.78071 0.16179 0.06540
 C537 C 0.77624 0.14490 0.04350
 N538 N 0.75256 0.14590 0.03001
 H539 H 0.78487 0.11895 -0.04553
 H540 H 0.77112 0.08142 0.02913
 H541 H 0.80967 0.05105 0.02203
 H542 H 0.82330 0.08964 -0.05430
 H543 H 0.71462 0.16444 0.02554
 H544 H 0.72084 0.19496 0.06372
 H545 H 0.79970 0.16080 0.07590
 H546 H 0.79187 0.13129 0.03712
 C547 C 0.73227 0.18343 -0.07165
 C548 C 0.67461 0.06538 0.01210
 C549 C 0.76064 0.17979 0.07356
 C550 C 0.82023 0.06839 -0.01632
 C551 C 0.21257 0.58296 0.48416
 H552 H 0.22428 0.58243 0.46593
 C553 C 0.19069 0.56569 0.48721
 H554 H 0.18553 0.55194 0.47119
 C555 C 0.20540 0.60118 0.52740
 H556 H 0.21158 0.61453 0.54330
 C557 C 0.18337 0.58431 0.53129
 H558 H 0.17309 0.58491 0.55034
 N559 N 0.21924 0.60052 0.50395
 C560 C 0.26328 0.66498 0.46449
 H561 H 0.28117 0.66524 0.47677
 C562 C 0.26037 0.68349 0.44371
 H563 H 0.27608 0.69813 0.44053
 C564 C 0.22056 0.64633 0.45511
 H565 H 0.20489 0.63215 0.45992
 C566 C 0.21678 0.66455 0.43417
 H567 H 0.19827 0.66402 0.42280
 Zn568 Zn 0.24940 0.62302 0.49862
 N569 N 0.24370 0.64666 0.46954
 C570 C 0.29312 0.60234 0.46848
 N571 N 0.27929 0.60055 0.49187
 C572 C 0.28603 0.58213 0.51082
 C573 C 0.30792 0.56506 0.50691
 C574 C 0.31508 0.58558 0.46369
 C575 C 0.23618 0.66290 0.53565
 C576 C 0.23964 0.68023 0.55737
 C577 C 0.28336 0.66062 0.56482
 C578 C 0.27901 0.64358 0.54300
 N579 N 0.25555 0.64480 0.52912
 H580 H 0.28719 0.61677 0.45345
 H581 H 0.27446 0.58090 0.52910
 H582 H 0.31320 0.55069 0.52233
 H583 H 0.32615 0.58803 0.44525
 H584 H 0.21804 0.66396 0.52378
 H585 H 0.22410 0.69477 0.56170
 H586 H 0.30215 0.65944 0.57566
 H587 H 0.29455 0.62970 0.53701
 C588 C 0.23695 0.68319 0.42800
 C589 C 0.17552 0.56651 0.51083
 C590 C 0.26344 0.67902 0.57246
 C591 C 0.32266 0.56652 0.48306
 C592 C 0.71543 0.91614 0.51010
 H593 H 0.72727 0.91681 0.52825
 C594 C 0.69429 0.93420 0.50653
 H595 H 0.68977 0.94826 0.52243
 C596 C 0.70676 0.89617 0.46789
 H597 H 0.71189 0.88158 0.45272
 C598 C 0.68538 0.91381 0.46352
 H599 H 0.67405 0.91246 0.44505
 N600 N 0.72112 0.89748 0.49103
 C601 C 0.76228 0.83363 0.53463
 H602 H 0.78073 0.83232 0.52331
 C603 C 0.75799 0.81644 0.55630
 H604 H 0.77334 0.80197 0.56165
 C605 C 0.71970 0.85378 0.54104
 H606 H 0.70455 0.86792 0.53466
 C607 C 0.71454 0.83694 0.56281
 H608 H 0.69528 0.83840 0.57263
 Zn609 Zn 0.75053 0.87432 0.49770
 N610 N 0.74341 0.85210 0.52768
 C611 C 0.79445 0.89518 0.52771
 N612 N 0.78081 0.89641 0.50416
 C613 C 0.78770 0.91439 0.48486
 C614 C 0.80960 0.93151 0.48853
 C615 C 0.81649 0.91193 0.53224
 C616 C 0.73717 0.83365 0.46130
 C617 C 0.74072 0.81602 0.43981
 C618 C 0.78500 0.83455 0.43316
 C619 C 0.78055 0.85192 0.45469
 N620 N 0.75677 0.85142 0.46803
 H621 H 0.78811 0.88146 0.54321
 H622 H 0.77615 0.91536 0.46654
 H623 H 0.81491 0.94558 0.47287
 H624 H 0.82658 0.91086 0.55137
 H625 H 0.71875 0.83317 0.47273
 H626 H 0.72495 0.80182 0.43522
 H627 H 0.80402 0.83523 0.42270
 H628 H 0.79623 0.86557 0.46083
 C629 C 0.73403 0.81814 0.57093
 C630 C 0.67906 0.93330 0.48283
 C631 C 0.76484 0.81658 0.42521
 C632 C 0.82455 0.93018 0.51229
 C633 C 0.01345 0.21266 0.41723
 H634 H 0.03154 0.22465 0.41808
 C635 C 0.01014 0.19103 0.43475
 H636 H 0.02620 0.18632 0.44852
 C637 C -0.02897 0.20424 0.39756
 H638 H -0.04437 0.20965 0.38334
 C639 C -0.03313 0.18247 0.41470
 H640 H -0.05166 0.17117 0.41328
 N641 N -0.00587 0.21872 0.39898
 C642 C 0.03494 0.26288 0.33544
 H643 H 0.02266 0.28081 0.33474
 C644 C 0.05622 0.25981 0.31753
 H645 H 0.06039 0.27591 0.30361
 C646 C 0.04442 0.22059 0.35510
 H647 H 0.03952 0.20515 0.36947
 C648 C 0.06587 0.21667 0.33755
 H649 H 0.07748 0.19829 0.33879
 Zn650 Zn -0.00039 0.24893 0.37654
 N651 N 0.02957 0.24351 0.35387
 C652 C 0.02753 0.29448 0.39717
 N653 N 0.00502 0.27914 0.39902
 C654 C -0.01410 0.28444 0.41770
 C655 C -0.01122 0.30616 0.43520
 C656 C 0.03119 0.31646 0.41422
 C657 C -0.03562 0.23498 0.33546
 C658 C -0.05731 0.23760 0.31797
 C659 C -0.06807 0.28005 0.33894
 C660 C -0.04611 0.27664 0.35600
 N661 N -0.03056 0.25423 0.35412
 H662 H 0.04277 0.28968 0.38258
 H663 H -0.03173 0.27181 0.41885
 H664 H -0.02715 0.31029 0.44931
 H665 H 0.04917 0.32854 0.41242
 H666 H -0.02285 0.21742 0.33434
 H667 H -0.06126 0.22155 0.30389
 H668 H -0.08035 0.29795 0.34074
 H669 H -0.04151 0.29197 0.37062
 C670 C 0.07188 0.23627 0.31828
 C671 C -0.01359 0.17573 0.43376
 C672 C -0.07378 0.26054 0.31946
 C673 C 0.01182 0.32241 0.43371
 C674 C -0.00924 0.72062 0.08521
 H675 H -0.02716 0.73291 0.08499
 C676 C -0.00620 0.69995 0.06654
 H677 H -0.02184 0.69699 0.05183
 C678 C 0.03335 0.71103 0.10396
 H679 H 0.04893 0.71570 0.11826
 C680 C 0.03724 0.69014 0.08564
 H681 H 0.05573 0.67870 0.08621
 N682 N 0.01018 0.72550 0.10368
 C683 C -0.03219 0.76454 0.16954
 H684 H -0.02061 0.78282 0.17158
 C685 C -0.05385 0.75974 0.18660
 H686 H -0.05895 0.77448 0.20176
 C687 C -0.03936 0.72293 0.14754
 H688 H -0.03330 0.70833 0.13272
 C689 C -0.06119 0.71735 0.16412
 H690 H -0.07139 0.69830 0.16184
 Zn691 Zn 0.00400 0.75423 0.12783
 N692 N -0.02564 0.74642 0.15021
 C693 C -0.02662 0.79864 0.10881
 N694 N -0.00295 0.78516 0.10693
 C695 C 0.01609 0.79255 0.08892
 C696 C 0.01197 0.81473 0.07232
 C697 C -0.03162 0.82093 0.09253
 C698 C 0.04149 0.73968 0.16698
 C699 C 0.06334 0.74286 0.18420
 C700 C 0.06912 0.78798 0.16726
 C701 C 0.04724 0.78387 0.15027
 N702 N 0.03415 0.75988 0.15017
 H703 H -0.04187 0.79192 0.12260
 H704 H 0.03450 0.78112 0.08745
 H705 H 0.02741 0.82036 0.05815
 H706 H -0.05087 0.83081 0.09407
 H707 H 0.03025 0.72107 0.16703
 H708 H 0.06841 0.72662 0.19767
 H709 H 0.07935 0.80719 0.16708
 H710 H 0.04062 0.80000 0.13741
 C711 C -0.06895 0.73612 0.18373
 C712 C 0.01718 0.68408 0.06686
 C713 C 0.07767 0.76724 0.18424
 C714 C -0.01200 0.82940 0.07412
 C715 C 0.48826 0.21264 0.58649
 H716 H 0.46976 0.22400 0.58563
 C717 C 0.49232 0.19112 0.56900
 H718 H 0.47680 0.18589 0.55473
 C719 C 0.53110 0.20591 0.60596
 H720 H 0.54625 0.21187 0.62023
 C721 C 0.53607 0.18433 0.58872
 H722 H 0.55482 0.17354 0.59060
 N723 N 0.50742 0.21945 0.60465
 C724 C 0.46359 0.26251 0.66705
 H725 H 0.47494 0.28103 0.66794
 C726 C 0.44184 0.25863 0.68425
 H727 H 0.43643 0.27431 0.69831
 C728 C 0.45720 0.21934 0.64799
 H729 H 0.46364 0.20378 0.63435
 C730 C 0.43530 0.21465 0.66474
 H731 H 0.42540 0.19532 0.66376
 Zn732 Zn 0.50054 0.24960 0.62677
 N733 N 0.47058 0.24314 0.64912
 C734 C 0.47041 0.29280 0.60436
 N735 N 0.49395 0.27897 0.60368
 C736 C 0.51325 0.28485 0.58538
 C737 C 0.50963 0.30590 0.56728
 C738 C 0.46591 0.31397 0.58654
 C739 C 0.53703 0.23827 0.66796
 C740 C 0.55843 0.24292 0.68542
 C741 C 0.56520 0.28614 0.66446
 C742 C 0.54363 0.28070 0.64746
 N743 N 0.53027 0.25692 0.64924
 H744 H 0.45499 0.28733 0.61850
 H745 H 0.53147 0.27303 0.58483
 H746 H 0.52514 0.30976 0.55265
 H747 H 0.44709 0.32484 0.58734
 H748 H 0.52570 0.21977 0.66932
 H749 H 0.56362 0.22782 0.70016
 H750 H 0.57504 0.30545 0.66296
 H751 H 0.53738 0.29570 0.63314
 C752 C 0.42712 0.23464 0.68294
 C753 C 0.51657 0.17685 0.56975
 C754 C 0.57306 0.26693 0.68357
 C755 C 0.48578 0.32099 0.56795
 C756 C 0.51286 0.70966 0.91516
 H757 H 0.53069 0.72206 0.91562
 C758 C 0.51033 0.68810 0.93286
 H759 H 0.52671 0.68384 0.94640
 C760 C 0.47035 0.70010 0.89618
 H761 H 0.45463 0.70505 0.88215
 C762 C 0.46702 0.67829 0.91347
 H763 H 0.44881 0.66646 0.91238
 N764 N 0.49312 0.71514 0.89717
 C765 C 0.53330 0.75908 0.83308
 H766 H 0.52111 0.77707 0.83235
 C767 C 0.55472 0.75595 0.81532
 H768 H 0.55900 0.77171 0.80099
 C769 C 0.54220 0.71650 0.85238
 H770 H 0.53691 0.70090 0.86644
 C771 C 0.56379 0.71253 0.83500
 H772 H 0.57458 0.69369 0.83592
 Zn773 Zn 0.49816 0.74529 0.87459
 N774 N 0.52772 0.73967 0.85140
 C775 C 0.52724 0.79003 0.89523
 N776 N 0.50430 0.77536 0.89706
 C777 C 0.48535 0.78116 0.91578
 C778 C 0.48867 0.80303 0.93301
 C779 C 0.53139 0.81207 0.91208
 C780 C 0.46073 0.73189 0.83485
 C781 C 0.43861 0.73546 0.81805
 C782 C 0.43140 0.77912 0.83802
 C783 C 0.45361 0.77468 0.85448
 N784 N 0.46754 0.75120 0.85289
 H785 H 0.54250 0.78455 0.88090
 H786 H 0.46754 0.76881 0.91717
 H787 H 0.47325 0.80750 0.94762
 H788 H 0.55004 0.82305 0.91047
 H789 H 0.47253 0.71367 0.83356
 H790 H 0.43340 0.71979 0.80389
 H791 H 0.42115 0.79824 0.83936
 H792 H 0.45989 0.79022 0.86822
 C793 C 0.57053 0.73264 0.81637
 C794 C 0.48701 0.67220 0.93228
 C795 C 0.42342 0.75916 0.81968
 C796 C 0.51171 0.81908 0.93103
 C797 C 0.14319 0.22786 0.26362
 C798 C 0.11967 0.23931 0.25711
 C799 C 0.09736 0.24400 0.27611
 C800 C 0.09476 0.23160 0.29985
 H801 H 0.11622 0.24605 0.23682
 H802 H 0.08178 0.25744 0.26920
 H803 H 0.14662 0.22088 0.28382
 H804 H 0.10910 0.21637 0.30570
 C805 C 0.63767 0.71809 0.75759
 C806 C 0.63723 0.71003 0.78325
 C807 C 0.61418 0.71338 0.80165
 C808 C 0.59316 0.72970 0.79727
 H809 H 0.65453 0.69997 0.79164
 H810 H 0.61554 0.70239 0.82027
 H811 H 0.62065 0.72859 0.74918
 H812 H 0.59280 0.74244 0.77976
 C813 C 0.35607 0.77587 0.76206
 C814 C 0.35705 0.78424 0.78760
 C815 C 0.38029 0.78027 0.80567
 C816 C 0.40026 0.76266 0.80131
 H817 H 0.34022 0.79502 0.79605
 H818 H 0.37996 0.79193 0.82394
 H819 H 0.37270 0.76483 0.75358
 H820 H 0.39939 0.74934 0.78422
 C821 C -0.14180 0.27500 0.26154
 C822 C -0.12269 0.25597 0.25921
 C823 C -0.09936 0.25313 0.27737
 C824 C -0.09735 0.26441 0.30174
 H825 H -0.12286 0.24183 0.24285
 H826 H -0.08328 0.24054 0.27001
 H827 H -0.13981 0.28969 0.27739
 H828 H -0.11315 0.27727 0.30919
 C829 C -0.14264 0.72411 0.23492
 C830 C -0.13616 0.70999 0.21281
 C831 C -0.11288 0.71574 0.19532
 C832 C -0.09195 0.73139 0.20194
 H833 H -0.14857 0.69367 0.20587
 H834 H -0.11324 0.70595 0.17598
 H835 H -0.13038 0.74125 0.24016
 H836 H -0.09149 0.74162 0.22103
 C837 C 0.35428 0.22324 0.73565
 C838 C 0.36036 0.20905 0.71346
 C839 C 0.38347 0.21443 0.69564
 C840 C 0.40415 0.23075 0.70138
 H841 H 0.34785 0.19270 0.70682
 H842 H 0.38324 0.20373 0.67678
 H843 H 0.36662 0.24038 0.74066
 H844 H 0.40446 0.24210 0.71982
 C845 C 0.64494 0.27922 0.73721
 C846 C 0.63871 0.29398 0.71547
 C847 C 0.61611 0.28818 0.69706
 C848 C 0.59553 0.27164 0.70248
 H849 H 0.65077 0.31096 0.70964
 H850 H 0.61665 0.29873 0.67815
 H851 H 0.63306 0.26152 0.74135
 H852 H 0.59490 0.26070 0.72115
 C853 C 0.15100 0.78035 0.23520
 C854 C 0.13895 0.75660 0.23075
 C855 C 0.11627 0.75242 0.21208
 C856 C 0.10072 0.77218 0.20234
 H857 H 0.14648 0.73868 0.24043
 H858 H 0.11211 0.73175 0.20679
 H859 H 0.14520 0.79781 0.22370
 H860 H 0.10494 0.79291 0.20733
 C861 C 0.26348 0.14904 0.22259
 C862 C 0.25759 0.12672 0.23653
 C863 C 0.27654 0.10438 0.24178
 C864 C 0.29979 0.10054 0.22875
 H865 H 0.23781 0.12433 0.24506
 H866 H 0.26999 0.08983 0.25645
 H867 H 0.28305 0.15136 0.21360
 H868 H 0.30532 0.11377 0.21252
 C869 C 0.75886 0.64049 0.71684
 C870 C 0.78458 0.64008 0.70885
 C871 C 0.80319 0.61727 0.71320
 C872 C 0.79941 0.59772 0.73135
 H873 H 0.79279 0.65707 0.69814
 H874 H 0.82143 0.61769 0.70152
 H875 H 0.75066 0.62362 0.72773
 H876 H 0.78236 0.59866 0.74467
 C877 C 0.75984 0.36194 0.78311
 C878 C 0.78540 0.36296 0.79158
 C879 C 0.80341 0.38635 0.78808
 C880 C 0.79916 0.40645 0.77064
 H881 H 0.79402 0.34591 0.80190
 H882 H 0.82171 0.38590 0.79970
 H883 H 0.75122 0.37880 0.77252
 H884 H 0.78205 0.40570 0.75735
 C885 C 0.26825 -0.14155 0.27880
 C886 C 0.28983 -0.13488 0.29365
 C887 C 0.30757 -0.11159 0.28828
 C888 C 0.30138 -0.09075 0.27234
 H889 H 0.29613 -0.14712 0.31029
 H890 H 0.32668 -0.11189 0.29853
 H891 H 0.26363 -0.12938 0.26148
 H892 H 0.28247 -0.09033 0.26176
 C893 C 0.23878 -0.14388 0.71915
 C894 C 0.21952 -0.13539 0.70223
 C895 C 0.20264 -0.11136 0.70685
 C896 C 0.19710 -0.10113 0.73112
 H897 H 0.21639 -0.14505 0.68315
 H898 H 0.19391 -0.10252 0.68913
 H899 H 0.24274 -0.13189 0.73681
 H900 H 0.20582 -0.11023 0.74876
 C901 C 0.73710 0.35278 0.22481
 C902 C 0.73422 0.36584 0.24817
 C903 C 0.71543 0.38849 0.25264
 C904 C 0.70387 0.40291 0.23304
 H905 H 0.74511 0.35907 0.26563
 H906 H 0.71138 0.39338 0.27334
 H907 H 0.72448 0.35802 0.20800
 H908 H 0.70772 0.39797 0.21232
 C909 C 0.73800 0.64325 0.27512
 C910 C 0.74484 0.62009 0.26307
 C911 C 0.72634 0.59728 0.25844
 C912 C 0.70265 0.59403 0.27081
 H913 H 0.76503 0.61740 0.25562
 H914 H 0.73351 0.58198 0.24481
 H915 H 0.71797 0.64594 0.28296
 H916 H 0.69649 0.60806 0.28616
 C917 C 0.23669 0.14131 0.77839
 C918 C 0.24369 0.11825 0.76623
 C919 C 0.22538 0.09531 0.76151
 C920 C 0.20180 0.09176 0.77395
 H921 H 0.26385 0.11578 0.75864
 H922 H 0.23258 0.08022 0.74766
 H923 H 0.21672 0.14377 0.78644
 H924 H 0.19564 0.10556 0.78951
 C925 C 0.21876 0.26352 0.13875
 C926 C 0.21054 0.28920 0.13700
 C927 C 0.21397 0.30665 0.11323
 C928 C 0.22998 0.30116 0.09231
 H929 H 0.20044 0.29844 0.15381
 H930 H 0.20336 0.32561 0.11395
 H931 H 0.22940 0.25430 0.12229
 H932 H 0.24231 0.28328 0.09244
 C933 C 0.71597 0.75973 0.63733
 C934 C 0.70771 0.78542 0.63638
 C935 C 0.71191 0.80364 0.61331
 C936 C 0.72989 0.79943 0.59372
 H937 H 0.69696 0.79394 0.65317
 H938 H 0.70026 0.82198 0.61354
 H939 H 0.72690 0.75120 0.62067
 H940 H 0.74315 0.78225 0.59476
 C941 C 0.77870 0.76475 0.35253
 C942 C 0.75499 0.76877 0.36466
 C943 C 0.75053 0.78747 0.38732
 C944 C 0.77010 0.79820 0.40241
 H945 H 0.73726 0.75875 0.35718
 H946 H 0.72980 0.79210 0.39172
 H947 H 0.79597 0.77651 0.35840
 H948 H 0.79088 0.79396 0.39794
 C949 C 0.27604 0.26239 -0.14462
 C950 C 0.29499 0.27786 -0.13329
 C951 C 0.29057 0.29581 -0.11001
 C952 C 0.26640 0.30338 -0.10078
 H953 H 0.31544 0.27671 -0.14040
 H954 H 0.30855 0.30313 -0.10035
 H955 H 0.25613 0.26175 -0.13611
 H956 H 0.24834 0.29583 -0.11011
 C957 C 0.71961 0.23699 -0.14324
 C958 C 0.74299 0.23302 -0.13047
 C959 C 0.74708 0.21380 -0.10823
 C960 C 0.72727 0.20223 -0.09413
 H961 H 0.76076 0.24354 -0.13707
 H962 H 0.76775 0.20950 -0.10325
 H963 H 0.70236 0.22480 -0.13831
 H964 H 0.70655 0.20608 -0.09923
 C965 C 0.22561 0.73804 0.35721
 C966 C 0.24888 0.73362 0.37005
 C967 C 0.25251 0.71429 0.39229
 C968 C 0.23244 0.70247 0.40582
 H969 H 0.26689 0.74371 0.36342
 H970 H 0.27309 0.70989 0.39757
 H971 H 0.20806 0.72639 0.36231
 H972 H 0.21182 0.70637 0.40041
 C973 C 0.27720 0.73211 0.64431
 C974 C 0.25350 0.72770 0.63229
 C975 C 0.24911 0.70867 0.60990
 C976 C 0.26871 0.69732 0.59531
 H977 H 0.23573 0.73782 0.63956
 H978 H 0.22838 0.70438 0.60520
 H979 H 0.29456 0.72038 0.63870
 H980 H 0.28951 0.70110 0.60014
 C981 C 0.77527 0.23115 0.14631
 C982 C 0.75143 0.22747 0.13431
 C983 C 0.74667 0.20887 0.11162
 C984 C 0.76608 0.19792 0.09649
 H985 H 0.73386 0.23773 0.14185
 H986 H 0.72587 0.20455 0.10721
 H987 H 0.79232 0.21915 0.14030
 H988 H 0.78692 0.20189 0.10095
 C989 C 0.47192 0.39180 0.51352
 C990 C 0.49570 0.38008 0.51834
 C991 C 0.50007 0.35776 0.53747
 C992 C 0.48048 0.34334 0.54905
 H993 H 0.51355 0.38764 0.50865
 H994 H 0.52081 0.35318 0.54190
 H995 H 0.45440 0.38577 0.52472
 H996 H 0.45968 0.34807 0.54522
 C997 C -0.03046 0.89557 0.01590
 C998 C -0.03843 0.89505 0.04157
 C999 C -0.03437 0.87190 0.05975
 C1000 C -0.01604 0.85251 0.05577
 H1001 H -0.04886 0.91214 0.05000
 H1002 H -0.04635 0.87193 0.07777
 H1003 H -0.02000 0.87850 0.00746
 H1004 H -0.00245 0.85393 0.03897
 C1005 C 0.02769 0.61134 0.01400
 C1006 C 0.00596 0.62742 0.01473
 C1007 C 0.00188 0.64913 0.03458
 C1008 C 0.02179 0.66183 0.04755
 H1009 H -0.01079 0.62421 0.00143
 H1010 H -0.01871 0.65514 0.03776
 H1011 H 0.04276 0.61390 0.02941
 H1012 H 0.04237 0.65578 0.04424
 C1013 C 0.53064 0.11116 0.50914
 C1014 C 0.54959 0.12324 0.52404
 C1015 C 0.54475 0.14595 0.54261
 C1016 C 0.52047 0.15410 0.55095
 H1017 H 0.57030 0.11707 0.52211
 H1018 H 0.56252 0.15613 0.54982
 H1019 H 0.51032 0.11874 0.50925
 H1020 H 0.50256 0.14442 0.54350
 C1021 C -0.02416 0.10368 0.48746
 C1022 C -0.01112 0.12643 0.49391
 C1023 C -0.00608 0.14903 0.47529
 C1024 C -0.01859 0.15249 0.45172
 H1025 H -0.00335 0.12903 0.51396
 H1026 H 0.00788 0.16408 0.48236
 H1027 H -0.03236 0.10110 0.46759
 H1028 H -0.03415 0.13864 0.44564
 C1029 C 0.47213 0.60544 0.99159
 C1030 C 0.49199 0.62377 0.99294
 C1031 C 0.49509 0.64677 0.97436
 C1032 C 0.48310 0.64888 0.95037
 H1033 H 0.50667 0.62320 1.00878
 H1034 H 0.50845 0.66251 0.98110
 H1035 H 0.45706 0.60782 0.97620
 H1036 H 0.46952 0.63339 0.94354
 C1037 C 0.52572 0.88867 0.98731
 C1038 C 0.53385 0.88722 0.96171
 C1039 C 0.53053 0.86349 0.94410
 C1040 C 0.51475 0.84229 0.94947
 H1041 H 0.54384 0.90425 0.95269
 H1042 H 0.54107 0.86443 0.92521
 H1043 H 0.51517 0.87202 0.99634
 H1044 H 0.50249 0.84221 0.96730
 C1045 C 0.02748 0.39024 0.49181
 C1046 C 0.00820 0.37138 0.49410
 C1047 C 0.00491 0.34811 0.47585
 C1048 C 0.01603 0.34597 0.45146
 H1049 H -0.00580 0.37171 0.51052
 H1050 H -0.00788 0.33219 0.48319
 H1051 H 0.04200 0.38809 0.47588
 H1052 H 0.02908 0.36162 0.44404
 C1053 C 0.39092 0.50864 0.47043
 C1054 C 0.37943 0.52376 0.45133
 C1055 C 0.35580 0.54132 0.45553
 C1056 C 0.34616 0.54858 0.47958
 H1057 H 0.38681 0.52275 0.43101
 H1058 H 0.34626 0.54869 0.43753
 H1059 H 0.38220 0.50788 0.49021
 H1060 H 0.35532 0.54101 0.49768
 C1061 C 0.89360 0.01614 -0.02599
 C1062 C 0.88758 0.03802 -0.04073
 C1063 C 0.86438 0.05598 -0.03576
 C1064 C 0.84317 0.04985 -0.02038
 H1065 H 0.90023 0.04432 -0.05703
 H1066 H 0.86503 0.07518 -0.04590
 H1067 H 0.88103 0.01153 -0.00898
 H1068 H 0.84238 0.03088 -0.00988
 C1069 C 0.60245 0.01280 0.02492
 C1070 C 0.61526 0.01619 0.00153
 C1071 C 0.63761 0.03529 -0.00276
 C1072 C 0.65219 0.04643 0.01696
 H1073 H 0.60851 0.00546 -0.01606
 H1074 H 0.64220 0.03987 -0.02341
 H1075 H 0.60757 0.02532 0.04188
 H1076 H 0.64756 0.04204 0.03763
 C1077 C 0.10727 0.50941 0.52715
 C1078 C 0.10816 0.53553 0.53398
 C1079 C 0.13161 0.55332 0.53011
 C1080 C 0.15237 0.54802 0.51384
 H1081 H 0.09107 0.54474 0.54365
 H1082 H 0.13089 0.57227 0.54073
 H1083 H 0.12408 0.50019 0.51702
 H1084 H 0.15211 0.53028 0.50131
 C1085 C 0.10940 0.49633 -0.03022
 C1086 C 0.12819 0.49784 -0.01087
 C1087 C 0.15102 0.47896 -0.00785
 C1088 C 0.15298 0.45484 -0.01984
 H1089 H 0.12806 0.51396 0.00356
 H1090 H 0.16678 0.48557 0.00550
 H1091 H 0.11125 0.48059 -0.04504
 H1092 H 0.13756 0.44814 -0.03352
 C1093 C 0.61235 0.99285 0.46689
 C1094 C 0.63168 0.99513 0.48564
 C1095 C 0.65438 0.97621 0.48911
 C1096 C 0.65614 0.95170 0.47795
 H1097 H 0.63212 1.01196 0.49923
 H1098 H 0.67028 0.98318 0.50213
 H1099 H 0.61370 0.97647 0.45271
 H1100 H 0.64071 0.94464 0.46447
 C1101 C 0.89298 0.98718 0.52862
 C1102 C 0.89147 0.96149 0.53678
 C1103 C 0.86797 0.94371 0.53280
 C1104 C 0.84767 0.94865 0.51582
 H1105 H 0.90814 0.95258 0.54742
 H1106 H 0.86835 0.92507 0.54392
 H1107 H 0.87662 0.99609 0.51753
 H1108 H 0.84832 0.96613 0.50299
 C1109 C 0.39089 0.48854 0.03006
 C1110 C 0.38952 0.46246 0.03691
 C1111 C 0.36579 0.44505 0.03277
 C1112 C 0.34520 0.45083 0.01641
 H1113 H 0.40650 0.45292 0.04647
 H1114 H 0.36628 0.42594 0.04306
 H1115 H 0.37415 0.49809 0.02011
 H1116 H 0.34574 0.46883 0.00430
 C1117 C 0.51493 0.47043 0.39403
 C1118 C 0.51880 0.49410 0.38170
 C1119 C 0.53801 0.49859 0.35954
 C1120 C 0.54971 0.47896 0.34521
 H1121 H 0.50826 0.51178 0.38864
 H1122 H 0.54223 0.51939 0.35490
 H1123 H 0.52712 0.45326 0.38869
 H1124 H 0.54587 0.45812 0.34995
 C1125 C 0.01382 -0.02824 0.89678
 C1126 C 0.01913 -0.00464 0.88487
 C1127 C 0.03817 -0.00092 0.86246
 C1128 C 0.04890 -0.02092 0.84790
 H1129 H 0.00985 0.01355 0.89231
 H1130 H 0.04314 0.01972 0.85780
 H1131 H 0.02468 -0.04612 0.89098
 H1132 H 0.04454 -0.04164 0.85271
 C1133 C 0.01421 0.02557 0.60888
 C1134 C 0.00689 0.01402 0.63204
 C1135 C 0.02520 0.00885 0.65480
 C1136 C 0.04931 0.02044 0.65803
 H1137 H -0.01357 0.00735 0.63474
 H1138 H 0.01755 -0.00453 0.67004
 H1139 H 0.03453 0.03264 0.60618
 H1140 H 0.05598 0.03562 0.64407
 C1141 C 0.51555 0.52256 0.10709
 C1142 C 0.50907 0.51000 0.12998
 C1143 C 0.52801 0.50473 0.15221
 C1144 C 0.55156 0.51741 0.15556
 H1145 H 0.48884 0.50277 0.13296
 H1146 H 0.52116 0.49060 0.16714
 H1147 H 0.53568 0.53007 0.10415
 H1148 H 0.55732 0.53327 0.14194
 C1149 C 0.48182 -0.02833 0.10260
 C1150 C 0.47689 -0.00410 0.11346
 C1151 C 0.45853 0.00097 0.13621
 C1152 C 0.44786 -0.01815 0.15189
 H1153 H 0.48617 0.01360 0.10498
 H1154 H 0.45413 0.02189 0.14020
 H1155 H 0.47096 -0.04581 0.10947
 H1156 H 0.45159 -0.03915 0.14774
 C1157 C 0.98574 0.47353 0.60772
 C1158 C 0.99267 0.48642 0.63033
 C1159 C 0.97420 0.49201 0.65285
 C1160 C 0.95061 0.47958 0.65667
 H1161 H 1.01293 0.49379 0.63278
 H1162 H 0.98138 0.50632 0.66750
 H1163 H 0.96562 0.46582 0.60529
 H1164 H 0.94451 0.46358 0.64333
 C1165 C 0.99036 0.53415 0.89155
 C1166 C 0.96437 0.54129 0.89084
 C1167 C 0.94633 0.53731 0.86764
 C1168 C 0.95122 0.52055 0.84713
 H1169 H 0.95541 0.55111 0.90796
 H1170 H 0.92750 0.54809 0.86846
 H1171 H 0.99931 0.52393 0.87466
 H1172 H 0.96888 0.50793 0.84739
 C1173 C 0.49125 0.03134 0.39020
 C1174 C 0.49765 0.01892 0.36718
 C1175 C 0.47861 0.01386 0.34496
 C1176 C 0.45508 0.02666 0.34176
 H1177 H 0.51780 0.01146 0.36419
 H1178 H 0.48526 -0.00040 0.33003
 H1179 H 0.47118 0.03904 0.39315
 H1180 H 0.44954 0.04263 0.35538
   
