data_POSCAR
  _audit_creation_date              2014-09-24
  _audit_creation_method            'ToBaCCo'
  _symmetry_space_group_name_H-M    'P1'
  _symmetry_Int_Tables_number       1
  _symmetry_cell_setting            triclinic
  loop_
  _symmetry_equiv_pos_as_xyz
 x,y,z
_cell_length_a 40.0641
_cell_length_b 40.0210
_cell_length_c 14.0124
_cell_angle_alpha 89.817200
_cell_angle_beta 90.010400
_cell_angle_gamma 119.964500
loop_
  _atom_site_label
  _atom_site_type_symbol
  _atom_site_fract_x
  _atom_site_fract_y
  _atom_site_fract_z
O1 O 0.26561 0.46731 0.59032
 O2 O 0.19912 0.46462 0.40608
 O3 O 0.26429 0.46498 0.40652
 O4 O 0.20008 0.46683 0.58976
 O5 O 0.23147 0.53048 0.58866
 O6 O 0.29632 0.52867 0.40426
 O7 O 0.23009 0.52826 0.40371
 O8 O 0.29714 0.53095 0.58916
 Cu9 Cu 0.22916 0.45963 0.49889
 Cu10 Cu 0.26693 0.53603 0.49571
 C11 C 0.29321 0.49923 0.61956
 C12 C 0.20277 0.49605 0.37442
 C13 C 0.29179 0.49657 0.37534
 C14 C 0.20396 0.49861 0.61879
 O15 O 0.53237 -0.26748 0.40718
 O16 O 0.53621 -0.20035 0.59156
 O17 O 0.53390 -0.26656 0.59101
 O18 O 0.53371 -0.20158 0.40707
 O19 O 0.47015 -0.23274 0.40690
 O20 O 0.47038 -0.29675 0.59705
 O21 O 0.47266 -0.22988 0.59248
 O22 O 0.46884 -0.29922 0.41356
 Cu23 Cu 0.54036 -0.23089 0.49856
 Cu24 Cu 0.46409 -0.26759 0.50279
 C25 C 0.50015 -0.29576 0.38183
 C26 C 0.50507 -0.20324 0.62237
 C27 C 0.50225 -0.29312 0.62480
 C28 C 0.50214 -0.20546 0.37658
 O29 O 1.26581 0.79767 0.40877
 O30 O 1.20094 0.73233 0.59323
 O31 O 1.26672 0.79698 0.59331
 O32 O 1.20194 0.73165 0.40950
 O33 O 1.23315 0.69917 0.41227
 O34 O 1.29963 0.76623 0.59147
 O35 O 1.23309 0.70085 0.59585
 O36 O 1.29777 0.76596 0.40697
 Cu37 Cu 1.23072 0.76784 0.50129
 Cu38 Cu 1.26922 0.72993 0.50182
 C39 C 1.29304 0.79334 0.37686
 C40 C 1.20527 0.70499 0.62498
 C41 C 1.29508 0.79362 0.62119
 C42 C 1.20559 0.70338 0.38229
 O43 O 0.79878 0.53360 0.40763
 O44 O 0.73537 0.53715 0.59268
 O45 O 0.80004 0.53640 0.59169
 O46 O 0.73446 0.53503 0.40802
 O47 O 0.70202 0.47140 0.41006
 O48 O 0.76781 0.47275 0.59705
 O49 O 0.70231 0.47355 0.59592
 O50 O 0.76674 0.46994 0.41292
 Cu51 Cu 0.77033 0.54186 0.49940
 Cu52 Cu 0.73133 0.46549 0.50471
 C53 C 0.79431 0.50133 0.38062
 C54 C 0.70757 0.50591 0.62509
 C55 C 0.79570 0.50489 0.62447
 C56 C 0.70676 0.50330 0.37852
 O57 O 0.46643 0.26514 0.40805
 O58 O 0.46764 0.20125 0.59445
 O59 O 0.46833 0.26684 0.59283
 O60 O 0.46800 0.20068 0.41128
 O61 O 0.53163 0.23309 0.40881
 O62 O 0.53193 0.29899 0.59129
 O63 O 0.53119 0.23254 0.59291
 O64 O 0.53002 0.29795 0.40687
 Cu65 Cu 0.46128 0.23038 0.50191
 Cu66 Cu 0.53760 0.26893 0.49998
 C67 C 0.49785 0.29284 0.37664
 C68 C 0.49934 0.20496 0.62355
 C69 C 0.50016 0.29485 0.62102
 C70 C 0.49981 0.20500 0.38106
 O71 O 0.73283 0.20109 0.41486
 O72 O 0.79850 0.26805 0.59553
 O73 O 0.73368 0.20245 0.59776
 O74 O 0.79877 0.26545 0.41093
 O75 O 0.76762 0.29796 0.40618
 O76 O 0.70224 0.23472 0.59496
 O77 O 0.76752 0.30068 0.59058
 O78 O 0.70108 0.23297 0.41030
 Cu79 Cu 0.76916 0.23115 0.50517
 Cu80 Cu 0.73145 0.26985 0.50010
 C81 C 0.70510 0.20486 0.38369
 C82 C 0.79492 0.29643 0.62227
 C83 C 0.70636 0.20721 0.62674
 C84 C 0.79484 0.29282 0.37774
 O85 O 1.05335 0.47140 -0.17897
 O86 O 1.09636 0.52043 -0.08301
 C87 C 1.08812 0.49621 -0.15237
 O88 O 0.94628 0.53385 -0.16862
 O89 O 0.90319 0.48109 -0.08134
 C90 C 0.91147 0.50762 -0.14525
 O91 O 1.05427 0.58481 -0.17517
 O92 O 1.09656 0.57572 -0.08350
 C93 C 1.08887 0.59287 -0.15145
 O94 O 0.94607 0.41449 -0.17223
 O95 O 0.90297 0.42379 -0.08475
 C96 C 0.91125 0.40627 -0.15055
 Zr97 Zr 0.99968 0.45812 -0.11982
 O98 O 0.99922 0.45250 -0.26989
 O99 O 1.00068 0.40614 -0.10321
 Zr100 Zr 1.00015 0.54302 -0.11863
 O101 O 0.99727 0.54444 -0.26928
 O102 O 1.00433 0.59781 -0.10986
 O103 O 1.03403 0.51754 -0.13790
 O104 O 0.96675 0.48419 -0.13770
 O105 O 0.94507 0.41223 0.16700
 O106 O 0.90259 0.42267 0.07955
 C107 C 0.91045 0.40410 0.14347
 O108 O 1.05242 0.58139 0.18150
 O109 O 1.09594 0.57519 0.08784
 C110 C 1.08730 0.59080 0.15762
 O111 O 0.94571 0.53165 0.17166
 O112 O 0.90272 0.47995 0.08272
 C113 C 0.91093 0.50548 0.14910
 O114 O 1.05278 0.46757 0.17418
 O115 O 1.09582 0.51942 0.08466
 C116 C 1.08759 0.49379 0.15095
 Zr117 Zr 0.99915 0.45684 0.11849
 O118 O 0.99558 0.45270 0.26921
 O119 O 1.00220 0.40559 0.11070
 Zr120 Zr 0.99941 0.54176 0.11969
 O121 O 0.99693 0.54582 0.26953
 O122 O 1.00371 0.59654 0.10667
 Zr123 Zr 1.05748 0.52870 0.00098
 Zr124 Zr 0.94178 0.47122 -0.00062
 O125 O 0.96612 0.48272 0.13695
 O126 O 1.03328 0.51611 0.13914
 O127 O 0.96440 0.43362 -0.00141
 O128 O 1.03403 0.56544 0.00132
 O129 O 1.03352 0.46840 -0.00067
 O130 O 0.96479 0.53153 0.00037
 H131 H 0.95021 0.47634 -0.19521
 H132 H 1.05215 0.59364 0.00213
 H133 H 0.94941 0.47401 0.19431
 H134 H 1.05111 0.45768 -0.00138
 H135 H 0.98004 0.59404 -0.08163
 H136 H 0.97805 0.59238 0.08834
 H137 H 0.99736 0.52322 0.29652
 H138 H 1.01531 0.47792 0.29501
 H139 H 0.97935 0.38635 0.07494
 H140 H 1.00232 0.39768 -0.16854
 H141 H 0.99387 0.47214 -0.29704
 H142 H 1.01512 0.53631 -0.29484
 O143 O 0.41527 0.46883 0.17373
 O144 O 0.42369 0.52054 0.08386
 C145 C 0.40649 0.49493 0.15019
 O146 O 0.58591 0.53187 0.16964
 O147 O 0.57704 0.48039 0.07887
 C148 C 0.59493 0.50623 0.14407
 O149 O 0.52959 0.58271 0.18099
 O150 O 0.47933 0.57619 0.08906
 C151 C 0.50382 0.59192 0.15838
 O152 O 0.46666 0.41253 0.16508
 O153 O 0.51950 0.42301 0.07754
 C154 C 0.49322 0.40444 0.14178
 Zr155 Zr 0.45712 0.45712 0.11573
 O156 O 0.45056 0.44987 0.26548
 O157 O 0.40458 0.40533 0.09423
 Zr158 Zr 0.54168 0.54167 0.12114
 O159 O 0.54425 0.54006 0.27184
 O160 O 0.59238 0.59648 0.11789
 O161 O 0.48225 0.51629 0.13863
 O162 O 0.51597 0.48259 0.13570
 O163 O 0.46825 0.41596 -0.17424
 O164 O 0.52051 0.42473 -0.08699
 C165 C 0.49458 0.40738 -0.15248
 O166 O 0.53107 0.58623 -0.17404
 O167 O 0.48000 0.57763 -0.08193
 C168 C 0.50491 0.59471 -0.14969
 O169 O 0.58796 0.53529 -0.16792
 O170 O 0.57758 0.48178 -0.08299
 C171 C 0.59620 0.50866 -0.14587
 O172 O 0.41748 0.47281 -0.17904
 O173 O 0.42430 0.52228 -0.08343
 C174 C 0.40790 0.49794 -0.15247
 Zr175 Zr 0.45868 0.45998 -0.12269
 O176 O 0.45890 0.45722 -0.27353
 O177 O 0.40405 0.40910 -0.11905
 Zr178 Zr 0.54325 0.54445 -0.11764
 O179 O 0.54961 0.54778 -0.26783
 O180 O 0.59366 0.59911 -0.10451
 Zr181 Zr 0.47132 0.52991 0.00078
 Zr182 Zr 0.52903 0.47185 -0.00231
 O183 O 0.51762 0.48576 -0.13909
 O184 O 0.48399 0.51953 -0.13848
 O185 O 0.46886 0.43451 -0.00473
 O186 O 0.53149 0.56622 0.00303
 O187 O 0.43488 0.46966 -0.00280
 O188 O 0.56638 0.53209 0.00124
 H189 H 0.52437 0.47377 0.19220
 H190 H 0.54184 0.59447 0.00461
 H191 H 0.52630 0.47807 -0.19692
 H192 H 0.40662 0.45908 -0.00357
 H193 H 0.61290 0.59329 0.08747
 H194 H 0.61441 0.59485 -0.08005
 H195 H 0.52362 0.53780 -0.29528
 H196 H 0.46655 0.48324 -0.29828
 H197 H 0.40723 0.38895 -0.08610
 H198 H 0.39402 0.39558 0.15873
 H199 H 0.47620 0.46643 0.29397
 H200 H 0.51799 0.53140 0.29625
 O201 O 0.58523 0.05501 -0.17137
 O202 O 0.57556 0.09718 -0.08108
 C203 C 0.59290 0.08954 -0.14832
 O204 O 0.41535 -0.05296 -0.17437
 O205 O 0.42419 -0.09647 -0.08663
 C206 C 0.40684 -0.08788 -0.15238
 O207 O 0.47185 0.05480 -0.17940
 O208 O 0.52068 0.09715 -0.08211
 C209 C 0.49699 0.08944 -0.15257
 O210 O 0.53500 -0.05270 -0.16631
 O211 O 0.48149 -0.09613 -0.08215
 C212 C 0.50848 -0.08765 -0.14464
 Zr213 Zr 0.54368 0.00089 -0.11552
 O214 O 0.55090 0.00115 -0.26508
 O215 O 0.59648 0.00216 -0.09361
 Zr216 Zr 0.45898 0.00067 -0.12214
 O217 O 0.45677 -0.00178 -0.27300
 O218 O 0.40820 0.00461 -0.11871
 O219 O 0.51841 0.03494 -0.13692
 O220 O 0.48506 -0.03235 -0.13808
 O221 O 0.53122 -0.05477 0.17053
 O222 O 0.47978 -0.09729 0.07967
 C223 C 0.50562 -0.08942 0.14485
 O224 O 0.46840 0.05191 0.17840
 O225 O 0.51919 0.09572 0.08746
 C226 C 0.49442 0.08691 0.15600
 O227 O 0.41185 -0.05548 0.16619
 O228 O 0.42245 -0.09739 0.07767
 C229 C 0.40400 -0.09000 0.14252
 O230 O 0.58173 0.05296 0.18225
 O231 O 0.57500 0.09630 0.08843
 C232 C 0.59115 0.08787 0.15734
 Zr233 Zr 0.54074 -0.00059 0.12280
 O234 O 0.53912 -0.00516 0.27349
 O235 O 0.59550 0.00343 0.12057
 Zr236 Zr 0.45583 -0.00112 0.11633
 O237 O 0.44685 -0.00421 0.26543
 O238 O 0.40535 0.00272 0.09786
 Zr239 Zr 0.52847 0.05786 0.00232
 Zr240 Zr 0.47115 -0.05784 -0.00159
 O241 O 0.48173 -0.03417 0.13662
 O242 O 0.51495 0.03306 0.14007
 O243 O 0.53136 -0.03475 0.00288
 O244 O 0.46829 0.03395 -0.00197
 O245 O 0.56519 0.03439 0.00487
 O246 O 0.43350 -0.03528 -0.00455
 H247 H 0.47738 -0.04882 -0.19566
 H248 H 0.45799 0.05190 -0.00235
 H249 H 0.47309 -0.05126 0.19341
 H250 H 0.59340 0.05231 0.00624
 H251 H 0.38746 -0.01966 -0.09069
 H252 H 0.38421 -0.02314 0.07963
 H253 H 0.46881 -0.00511 0.29475
 H254 H 0.53216 0.01365 0.29851
 H255 H 0.59285 -0.01907 0.08483
 H256 H 0.60731 0.00355 -0.15800
 H257 H 0.52610 -0.00486 -0.29429
 H258 H 0.48306 0.01616 -0.29678
 C259 C 1.17404 0.49524 0.31244
 C260 C 1.14896 0.45687 0.25952
 C261 C 1.12075 0.45669 0.20466
 C262 C 1.12005 0.49472 0.20729
 C263 C 1.11709 0.50205 0.31343
 C264 C 1.14509 0.50220 0.36809
 C265 C 1.18940 0.52600 0.23295
 C266 C 1.16118 0.52574 0.17785
 H267 H 1.15336 0.43224 0.26310
 H268 H 1.10115 0.43198 0.16205
 H269 H 1.09443 0.50619 0.34347
 H270 H 1.14577 0.50573 0.44470
 H271 H 1.21978 0.54591 0.22017
 H272 H 1.16771 0.54552 0.11841
 C273 C 0.49984 0.67513 0.32240
 C274 C 0.52632 0.66090 0.36218
 C275 C 0.52771 0.63365 0.30799
 C276 C 0.50228 0.62249 0.21798
 C277 C 0.46189 0.61060 0.25605
 C278 C 0.46045 0.63803 0.31042
 C279 C 0.51419 0.68841 0.21989
 C280 C 0.51537 0.66082 0.16523
 H281 H 0.54257 0.67122 0.42809
 H282 H 0.54504 0.62093 0.32884
 H283 H 0.43666 0.58286 0.24212
 H284 H 0.43376 0.63337 0.34236
 H285 H 0.52234 0.71688 0.19235
 H286 H 0.52459 0.66575 0.09117
 C287 C 0.32193 -0.17682 0.30951
 C288 C 0.30704 -0.15358 0.25402
 C289 C 0.33405 -0.12538 0.19713
 C290 C 0.37355 -0.12281 0.20054
 C291 C 0.38434 -0.11836 0.30682
 C292 C 0.35745 -0.14648 0.36352
 C293 C 0.33815 -0.19202 0.23211
 C294 C 0.36527 -0.16373 0.17501
 H295 H 0.27756 -0.15934 0.25730
 H296 H 0.32767 -0.10710 0.15234
 H297 H 0.41114 -0.09512 0.33510
 H298 H 0.36131 -0.14724 0.44006
 H299 H 0.32909 -0.22230 0.22288
 H300 H 0.37929 -0.17004 0.11723
 C301 C 0.82406 0.50102 0.31557
 C302 C 0.86428 0.52348 0.36003
 C303 C 0.89270 0.52488 0.30488
 C304 C 0.87866 0.50359 0.20892
 C305 C 0.84754 0.46245 0.23733
 C306 C 0.81891 0.46104 0.29293
 C307 C 0.82787 0.51998 0.21747
 C308 C 0.85642 0.52124 0.16156
 H309 H 0.86993 0.53677 0.43006
 H310 H 0.92239 0.53927 0.32904
 H311 H 0.84792 0.43665 0.21558
 H312 H 0.79499 0.43398 0.31823
 H313 H 0.80943 0.53103 0.19368
 H314 H 0.86241 0.53342 0.09008
 C315 C 0.49681 0.32174 0.30929
 C316 C 0.50530 0.35875 0.36172
 C317 C 0.50427 0.38573 0.30481
 C318 C 0.49496 0.37362 0.19986
 C319 C 0.52529 0.36270 0.16966
 C320 C 0.52616 0.33545 0.22696
 C321 C 0.45769 0.30803 0.25999
 C322 C 0.45681 0.33515 0.20273
 H323 H 0.51176 0.36343 0.43741
 H324 H 0.50969 0.41336 0.33213
 H325 H 0.54416 0.37493 0.10833
 H326 H 0.54575 0.32456 0.21450
 H327 H 0.43301 0.27924 0.26768
 H328 H 0.43145 0.32952 0.16215
 C329 C 0.67531 0.17430 0.31962
 C330 C 0.67008 0.18874 0.22206
 C331 C 0.64228 0.16044 0.16674
 C332 C 0.62233 0.12023 0.21431
 C333 C 0.65552 0.11317 0.24063
 C334 C 0.68307 0.14122 0.29583
 C335 C 0.63490 0.15439 0.36462
 C336 C 0.60733 0.12603 0.30995
 H337 H 0.68691 0.21849 0.19831
 H338 H 0.63552 0.16614 0.09564
 H339 H 0.65748 0.08840 0.21693
 H340 H 0.70835 0.14008 0.31885
 H341 H 0.62817 0.16291 0.43213
 H342 H 0.57727 0.11009 0.33140
 C343 C 0.49904 0.17622 -0.31491
 C344 C 0.45881 0.14627 -0.27683
 C345 C 0.45872 0.11827 -0.22168
 C346 C 0.49857 0.12221 -0.20922
 C347 C 0.51356 0.12404 -0.31096
 C348 C 0.51388 0.15221 -0.36602
 C349 C 0.52418 0.19155 -0.22486
 C350 C 0.52401 0.16326 -0.16945
 H351 H 0.43262 0.14727 -0.28988
 H352 H 0.43264 0.09567 -0.18851
 H353 H 0.52399 0.10534 -0.33681
 H354 H 0.52469 0.15752 -0.43880
 H355 H 0.54047 0.22186 -0.20597
 H356 H 0.54016 0.16959 -0.10335
 C357 C 0.68015 0.50699 -0.31146
 C358 C 0.64347 0.49901 -0.36479
 C359 C 0.61606 0.49926 -0.30857
 C360 C 0.62752 0.50772 -0.20320
 C361 C 0.63846 0.47729 -0.17359
 C362 C 0.66604 0.47696 -0.23018
 C363 C 0.69351 0.54575 -0.26037
 C364 C 0.66593 0.54603 -0.20384
 H365 H 0.63965 0.49443 -0.44094
 H366 H 0.58870 0.49423 -0.33693
 H367 H 0.62611 0.45803 -0.11289
 H368 H 0.67717 0.45757 -0.21724
 H369 H 0.72232 0.57054 -0.26608
 H370 H 0.67119 0.57101 -0.16219
 C371 C 0.82367 0.32480 -0.31683
 C372 C 0.82705 0.30943 -0.21854
 C373 C 0.85591 0.33637 -0.16291
 C374 C 0.87887 0.37620 -0.21050
 C375 C 0.89265 0.36853 -0.30635
 C376 C 0.86394 0.34187 -0.36147
 C377 C 0.81946 0.36024 -0.29417
 C378 C 0.84838 0.38706 -0.23887
 H379 H 0.80815 0.28005 -0.19437
 H380 H 0.86167 0.32999 -0.09145
 H381 H 0.92239 0.38329 -0.33037
 H382 H 0.86947 0.33406 -0.43149
 H383 H 0.79596 0.36413 -0.31915
 H384 H 0.84937 0.41355 -0.21722
 C385 C 0.50645 -0.17313 -0.31084
 C386 C 0.54529 -0.14791 -0.26033
 C387 C 0.54580 -0.12004 -0.20345
 C388 C 0.50756 -0.11979 -0.20225
 C389 C 0.49892 -0.11662 -0.30751
 C390 C 0.49841 -0.14433 -0.36394
 C391 C 0.47665 -0.18903 -0.22953
 C392 C 0.47715 -0.16116 -0.17267
 H393 H 0.57003 -0.15193 -0.26728
 H394 H 0.57092 -0.10034 -0.16221
 H395 H 0.49394 -0.09415 -0.33559
 H396 H 0.49355 -0.14514 -0.44007
 H397 H 0.45712 -0.21955 -0.21717
 H398 H 0.45798 -0.16809 -0.11192
 C399 C 0.32316 0.49930 -0.31491
 C400 C 0.36413 0.52309 -0.35561
 C401 C 0.39181 0.52266 -0.30052
 C402 C 0.37639 0.49893 -0.20861
 C403 C 0.35380 0.51582 -0.15860
 C404 C 0.32582 0.51597 -0.21455
 C405 C 0.31763 0.45885 -0.29698
 C406 C 0.34521 0.45869 -0.24134
 H407 H 0.37121 0.54108 -0.41884
 H408 H 0.42218 0.53935 -0.31837
 H409 H 0.35908 0.52641 -0.08579
 H410 H 0.30730 0.52673 -0.18962
 H411 H 0.29359 0.43227 -0.32367
 H412 H 0.34437 0.43209 -0.22083
 C413 C 1.17652 0.67675 -0.31342
 C414 C 1.14626 0.64198 -0.37022
 C415 C 1.11772 0.61438 -0.31569
 C416 C 1.12177 0.62366 -0.20867
 C417 C 1.16247 0.63134 -0.18282
 C418 C 1.19112 0.65921 -0.23755
 C419 C 1.15318 0.69104 -0.25623
 C420 C 1.12461 0.66325 -0.20176
 H421 H 1.14744 0.63899 -0.44696
 H422 H 1.09447 0.58810 -0.34605
 H423 H 1.16838 0.61634 -0.12650
 H424 H 1.22126 0.66793 -0.22742
 H425 H 1.15909 0.72064 -0.25655
 H426 H 1.10620 0.66913 -0.15633
 C427 C 0.82568 0.50564 -0.30958
 C428 C 0.85422 0.54574 -0.26907
 C429 C 0.88208 0.54614 -0.21277
 C430 C 0.87919 0.50659 -0.20219
 C431 C 0.83796 0.47977 -0.16492
 C432 C 0.80993 0.47935 -0.22129
 C433 C 0.85102 0.49251 -0.36066
 C434 C 0.87896 0.49308 -0.30474
 H435 H 0.85230 0.57150 -0.28167
 H436 H 0.90384 0.57213 -0.17782
 H437 H 0.83130 0.46295 -0.09962
 H438 H 0.77950 0.46219 -0.20424
 H439 H 0.84706 0.48315 -0.43451
 H440 H 0.89881 0.48413 -0.33082
 C441 C 0.49965 0.32484 -0.31571
 C442 C 0.47393 0.33955 -0.35754
 C443 C 0.47205 0.36653 -0.30335
 C444 C 0.49630 0.37686 -0.21141
 C445 C 0.48229 0.33816 -0.15974
 C446 C 0.48391 0.31083 -0.21454
 C447 C 0.53897 0.36154 -0.30070
 C448 C 0.53712 0.38873 -0.24644
 H449 H 0.45873 0.32985 -0.42496
 H450 H 0.45529 0.37970 -0.32551
 H451 H 0.47205 0.33275 -0.08649
 H452 H 0.47507 0.28204 -0.18818
 H453 H 0.56590 0.36609 -0.33084
 H454 H 0.56238 0.41630 -0.23068
 C455 C 0.67646 0.17730 -0.30877
 C456 C 0.64824 0.14168 -0.36609
 C457 C 0.62033 0.11318 -0.31255
 C458 C 0.62337 0.12237 -0.20550
 C459 C 0.66453 0.13280 -0.17763
 C460 C 0.69239 0.16171 -0.23142
 C461 C 0.65090 0.18947 -0.25433
 C462 C 0.62308 0.16069 -0.20007
 H463 H 0.65043 0.13880 -0.44241
 H464 H 0.59829 0.08634 -0.34370
 H465 H 0.67118 0.11892 -0.11991
 H466 H 0.72288 0.17257 -0.21963
 H467 H 0.65452 0.21820 -0.25734
 H468 H 0.60289 0.16493 -0.15749
 C469 C 1.17398 0.49829 -0.31593
 C470 C 1.18783 0.51416 -0.21499
 C471 C 1.15969 0.51368 -0.15870
 C472 C 1.12039 0.49734 -0.20911
 C473 C 1.12887 0.52180 -0.29977
 C474 C 1.15700 0.52252 -0.35526
 C475 C 1.13900 0.45776 -0.29985
 C476 C 1.11122 0.45730 -0.24387
 H477 H 1.21704 0.52465 -0.18996
 H478 H 1.16489 0.52373 -0.08541
 H479 H 1.11517 0.53860 -0.31666
 H480 H 1.16788 0.54079 -0.41804
 H481 H 1.13637 0.43137 -0.32839
 H482 H 1.08532 0.43063 -0.22479
 C483 C 0.50249 0.67880 -0.31287
 C484 C 0.47149 0.66323 -0.23413
 C485 C 0.47181 0.63528 -0.17865
 C486 C 0.50328 0.62566 -0.20682
 C487 C 0.49621 0.61525 -0.31304
 C488 C 0.49569 0.64288 -0.36828
 C489 C 0.54070 0.69230 -0.25902
 C490 C 0.54101 0.66447 -0.20372
 H491 H 0.45124 0.67337 -0.22255
 H492 H 0.45171 0.62162 -0.12012
 H493 H 0.49172 0.58823 -0.34235
 H494 H 0.49035 0.63920 -0.44455
 H495 H 0.56512 0.72144 -0.26210
 H496 H 0.56563 0.66982 -0.16027
 C497 C 0.32490 -0.17567 -0.31578
 C498 C 0.31162 -0.17558 -0.21290
 C499 C 0.33873 -0.14653 -0.15807
 C500 C 0.37648 -0.12012 -0.21140
 C501 C 0.38969 -0.14741 -0.25107
 C502 C 0.36273 -0.17655 -0.30539
 C503 C 0.33745 -0.13519 -0.35469
 C504 C 0.36417 -0.10622 -0.30038
 H505 H 0.28353 -0.19673 -0.18539
 H506 H 0.33381 -0.14275 -0.08369
 H507 H 0.41794 -0.14394 -0.23818
 H508 H 0.36818 -0.19784 -0.33854
 H509 H 0.32646 -0.12970 -0.42020
 H510 H 0.37573 -0.07621 -0.32041
 C511 C 0.50285 -0.17558 0.30978
 C512 C 0.48063 -0.15677 0.35052
 C513 C 0.48158 -0.12869 0.29417
 C514 C 0.50437 -0.12191 0.20132
 C515 C 0.54441 -0.11393 0.23256
 C516 C 0.54368 -0.14176 0.28936
 C517 C 0.48513 -0.19005 0.21051
 C518 C 0.48588 -0.16185 0.15336
 H519 H 0.46351 -0.16638 0.41525
 H520 H 0.46595 -0.11386 0.31204
 H521 H 0.57122 -0.08884 0.21039
 H522 H 0.57001 -0.14002 0.31540
 H523 H 0.47325 -0.21967 0.18716
 H524 H 0.47472 -0.16741 0.08105
 C525 C 0.32134 0.49597 0.31049
 C526 C 0.30849 0.45744 0.25917
 C527 C 0.33660 0.45738 0.20453
 C528 C 0.37495 0.49574 0.20613
 C529 C 0.36421 0.52623 0.17545
 C530 C 0.33614 0.52633 0.23029
 C531 C 0.35743 0.50375 0.36632
 C532 C 0.38543 0.50375 0.31201
 H533 H 0.27968 0.43260 0.26392
 H534 H 0.33181 0.43252 0.16300
 H535 H 0.37717 0.54582 0.11554
 H536 H 0.32522 0.54588 0.21711
 H537 H 0.36029 0.50771 0.44277
 H538 H 0.41241 0.50843 0.34209
 C539 C 1.17495 0.67327 0.31991
 C540 C 1.17570 0.63527 0.31166
 C541 C 1.14658 0.60807 0.25777
 C542 C 1.11946 0.62118 0.21658
 C543 C 1.10558 0.63404 0.30432
 C544 C 1.13452 0.66106 0.35807
 C545 C 1.17498 0.68607 0.21641
 C546 C 1.14594 0.65870 0.16213
 H547 H 1.19684 0.62988 0.34607
 H548 H 1.14289 0.57967 0.24658
 H549 H 1.07562 0.62278 0.32379
 H550 H 1.12903 0.67260 0.42244
 H551 H 1.19617 0.71403 0.18812
 H552 H 1.14222 0.66328 0.08738
 C553 C 0.49935 0.17454 0.31801
 C554 C 0.53913 0.18188 0.28495
 C555 C 0.53755 0.15289 0.23108
 C556 C 0.49641 0.11916 0.21499
 C557 C 0.47972 0.10655 0.31609
 C558 C 0.48115 0.13543 0.36950
 C559 C 0.47592 0.16689 0.22574
 C560 C 0.47438 0.13784 0.17176
 H561 H 0.56618 0.20770 0.30135
 H562 H 0.56322 0.15416 0.20176
 H563 H 0.46806 0.07750 0.34407
 H564 H 0.47036 0.13081 0.44223
 H565 H 0.46195 0.18302 0.20451
 H566 H 0.45906 0.12909 0.10435
 C567 C 0.67776 0.50376 0.31097
 C568 C 0.68494 0.54459 0.28891
 C569 C 0.65807 0.54518 0.23127
 C570 C 0.62600 0.50501 0.20104
 C571 C 0.64739 0.48618 0.15445
 C572 C 0.67465 0.48558 0.21236
 C573 C 0.63669 0.48179 0.35153
 C574 C 0.60977 0.48265 0.29452
 H575 H 0.70946 0.57103 0.31458
 H576 H 0.65995 0.57198 0.20799
 H577 H 0.64195 0.47476 0.08243
 H578 H 0.69243 0.47360 0.18990
 H579 H 0.62891 0.46470 0.41640
 H580 H 0.57933 0.46725 0.31236
 C581 C 0.82469 0.32145 0.31041
 C582 C 0.80882 0.33201 0.22245
 C583 C 0.83681 0.35924 0.16499
 C584 C 0.87807 0.37323 0.20099
 C585 C 0.87845 0.38694 0.30339
 C586 C 0.85060 0.35997 0.36037
 C587 C 0.85263 0.30922 0.26925
 C588 C 0.88044 0.33628 0.21185
 H589 H 0.77835 0.31904 0.20642
 H590 H 0.83012 0.36941 0.09981
 H591 H 0.89866 0.41575 0.32861
 H592 H 0.84708 0.36572 0.43429
 H593 H 0.85035 0.28140 0.28220
 H594 H 0.90180 0.33157 0.17626
   
