data_POSCAR
  _audit_creation_date              2014-09-24
  _audit_creation_method            'ToBaCCo'
  _symmetry_space_group_name_H-M    'P1'
  _symmetry_Int_Tables_number       1
  _symmetry_cell_setting            triclinic
  loop_
  _symmetry_equiv_pos_as_xyz
 x,y,z
_cell_length_a 45.0936
_cell_length_b 45.5166
_cell_length_c 44.2742
_cell_angle_alpha 91.416300
_cell_angle_beta 91.645700
_cell_angle_gamma 82.515100
loop_
  _atom_site_label
  _atom_site_type_symbol
  _atom_site_fract_x
  _atom_site_fract_y
  _atom_site_fract_z
N1 N 0.31793 0.22165 0.22122
 N2 N 0.30475 0.24568 0.20819
 C3 C 0.32300 0.25430 0.18758
 C4 C 0.34905 0.23459 0.18766
 C5 C 0.34509 0.21411 0.20934
 H6 H 0.31758 0.27328 0.17328
 H7 H 0.36044 0.19485 0.21560
 Cu8 Cu 0.26476 0.26305 0.21859
 Cu9 Cu 0.29812 0.20136 0.25148
 Cu10 Cu 0.23105 0.23754 0.27774
 N11 N 0.23082 0.28606 0.23737
 N12 N 0.21737 0.27621 0.26029
 C13 C 0.19410 0.29649 0.26791
 C14 C 0.19312 0.32029 0.24878
 C15 C 0.21683 0.31284 0.22973
 H16 H 0.17886 0.29404 0.28583
 H17 H 0.22323 0.32560 0.21130
 N18 N 0.24907 0.19816 0.29210
 N19 N 0.27459 0.18452 0.28190
 C20 C 0.28101 0.15825 0.29543
 C21 C 0.25852 0.15506 0.31521
 C22 C 0.23865 0.18083 0.31257
 H23 H 0.30076 0.14270 0.29130
 H24 H 0.21811 0.18643 0.32466
 H25 H 0.25380 0.21760 0.24133
 H26 H 0.27486 0.24074 0.26763
 N27 N 0.68313 -0.22295 0.21596
 N28 N 0.69766 -0.24741 0.20447
 C29 C 0.68079 -0.25760 0.18186
 C30 C 0.65426 -0.23851 0.17919
 C31 C 0.65661 -0.21681 0.20132
 H32 H 0.68730 -0.27732 0.16824
 H33 H 0.64055 -0.19770 0.20632
 Cu34 Cu 0.73715 -0.26322 0.22055
 Cu35 Cu 0.69953 -0.20008 0.24855
 Cu36 Cu 0.77006 -0.22665 0.27643
 N37 N 0.77726 -0.27750 0.23616
 N38 N 0.78973 -0.26290 0.25801
 C39 C 0.81675 -0.27742 0.26534
 C40 C 0.82168 -0.30269 0.24717
 C41 C 0.79612 -0.30197 0.22881
 H42 H 0.83138 -0.27017 0.28295
 H43 H 0.79149 -0.31831 0.21177
 N44 N 0.74671 -0.19032 0.29219
 N45 N 0.71987 -0.18002 0.28146
 C46 C 0.70979 -0.15497 0.29685
 C47 C 0.73134 -0.14936 0.31834
 C48 C 0.75436 -0.17222 0.31477
 H49 H 0.68823 -0.14204 0.29302
 H50 H 0.77513 -0.17536 0.32780
 H51 H 0.74381 -0.21351 0.23885
 H52 H 0.72673 -0.23514 0.26755
 N53 N 0.72309 0.25499 0.80061
 N54 N 0.73628 0.27536 0.81528
 C55 C 0.72240 0.28223 0.84152
 C56 C 0.69926 0.26517 0.84340
 C57 C 0.70041 0.24813 0.81705
 H58 H 0.72865 0.29853 0.85783
 H59 H 0.68565 0.23209 0.81027
 Cu60 Cu 0.77025 0.29110 0.79889
 Cu61 Cu 0.73624 0.23920 0.76126
 Cu62 Cu 0.79163 0.27237 0.72795
 N63 N 0.79737 0.31285 0.77791
 N64 N 0.80619 0.30514 0.75048
 C65 C 0.82576 0.32313 0.74201
 C66 C 0.82927 0.34334 0.76535
 C67 C 0.81077 0.33616 0.78778
 H68 H 0.83670 0.32162 0.72050
 H69 H 0.80758 0.34662 0.80982
 N70 N 0.77383 0.23892 0.70895
 N71 N 0.75263 0.22640 0.72163
 C72 C 0.74546 0.20404 0.70355
 C73 C 0.76296 0.20235 0.67831
 C74 C 0.78070 0.22484 0.68245
 H75 H 0.72902 0.18966 0.70853
 H76 H 0.79757 0.23035 0.66750
 H77 H 0.77983 0.24879 0.76401
 H78 H 0.75091 0.27850 0.74911
 N79 N 0.27469 -0.25485 0.77646
 N80 N 0.26229 -0.27646 0.78809
 C81 C 0.27737 -0.28524 0.81369
 C82 C 0.30050 -0.26825 0.81845
 C83 C 0.29810 -0.24920 0.79431
 H84 H 0.27191 -0.30273 0.82774
 H85 H 0.31236 -0.23246 0.79010
 Cu86 Cu 0.22740 -0.29096 0.76891
 Cu87 Cu 0.25937 -0.23572 0.73900
 Cu88 Cu 0.19688 -0.26108 0.70499
 N89 N 0.19248 -0.30517 0.74939
 N90 N 0.18031 -0.29280 0.72474
 C91 C 0.15631 -0.30597 0.71612
 C92 C 0.15325 -0.32806 0.73640
 C93 C 0.17668 -0.32691 0.75721
 H94 H 0.14248 -0.30003 0.69632
 H95 H 0.18170 -0.34080 0.77664
 N96 N 0.21666 -0.22927 0.68820
 N97 N 0.24037 -0.21939 0.70098
 C98 C 0.24822 -0.19758 0.68394
 C99 C 0.22858 -0.19371 0.65928
 C100 C 0.20891 -0.21419 0.66282
 H101 H 0.26683 -0.18535 0.68900
 H102 H 0.19011 -0.21773 0.64814
 H103 H 0.21582 -0.24355 0.74367
 H104 H 0.24062 -0.27130 0.72105
 N105 N 0.68297 -0.22524 0.78025
 N106 N 0.69719 -0.25028 0.79037
 C107 C 0.67988 -0.26138 0.81047
 C108 C 0.65344 -0.24229 0.81287
 C109 C 0.65626 -0.21962 0.79336
 H110 H 0.68604 -0.28166 0.82265
 H111 H 0.64035 -0.20016 0.78927
 Cu112 Cu 0.73682 -0.26558 0.77588
 Cu113 Cu 0.69997 -0.20107 0.75139
 Cu114 Cu 0.77062 -0.22715 0.72620
 N115 N 0.77699 -0.27961 0.76194
 N116 N 0.78973 -0.26435 0.74235
 C117 C 0.81667 -0.27882 0.73556
 C118 C 0.82128 -0.30476 0.75170
 C119 C 0.79561 -0.30448 0.76834
 H120 H 0.83151 -0.27101 0.71973
 H121 H 0.79074 -0.32138 0.78353
 N122 N 0.74781 -0.18995 0.71245
 N123 N 0.72094 -0.17980 0.72218
 C124 C 0.71116 -0.15420 0.70830
 C125 C 0.73293 -0.14810 0.68886
 C126 C 0.75577 -0.17120 0.69206
 H127 H 0.68955 -0.14137 0.71154
 H128 H 0.77653 -0.17420 0.68006
 H129 H 0.72707 -0.23548 0.73097
 H130 H 0.74409 -0.21534 0.76296
 N131 N 0.31943 0.22108 0.78056
 N132 N 0.30861 0.24742 0.79108
 C133 C 0.32669 0.25543 0.81365
 C134 C 0.35014 0.23297 0.81736
 C135 C 0.34488 0.21146 0.79596
 H136 H 0.32311 0.27597 0.82662
 H137 H 0.35812 0.19018 0.79227
 Cu138 Cu 0.27187 0.26848 0.77447
 Cu139 Cu 0.29916 0.20108 0.74834
 Cu140 Cu 0.23336 0.23860 0.71802
 N141 N 0.23538 0.28952 0.75736
 N142 N 0.22024 0.27789 0.73535
 C143 C 0.19567 0.29696 0.72844
 C144 C 0.19549 0.32178 0.74721
 C145 C 0.22107 0.31627 0.76519
 H146 H 0.17888 0.29285 0.71147
 H147 H 0.22853 0.33048 0.78296
 N148 N 0.25069 0.19862 0.70390
 N149 N 0.27560 0.18445 0.71568
 C150 C 0.28162 0.15790 0.70161
 C151 C 0.25950 0.15512 0.67989
 C152 C 0.24029 0.18137 0.68188
 H153 H 0.30091 0.14195 0.70661
 H154 H 0.22030 0.18740 0.66817
 H155 H 0.27814 0.23926 0.72771
 H156 H 0.25612 0.22202 0.75591
 N157 N 0.28658 -0.26133 0.20684
 N158 N 0.27862 -0.28662 0.19672
 C159 C 0.29288 -0.29475 0.17099
 C160 C 0.31100 -0.27352 0.16457
 C161 C 0.30651 -0.25264 0.18790
 H162 H 0.29044 -0.31486 0.15819
 H163 H 0.31693 -0.23262 0.19077
 Cu164 Cu 0.25097 -0.30728 0.21816
 Cu165 Cu 0.26991 -0.24172 0.24366
 Cu166 Cu 0.21227 -0.27308 0.27538
 N167 N 0.21557 -0.32185 0.23277
 N168 N 0.20024 -0.30827 0.25499
 C169 C 0.17685 -0.32283 0.26040
 C170 C 0.17762 -0.34687 0.24053
 C171 C 0.20253 -0.34552 0.22327
 H172 H 0.16051 -0.31651 0.27757
 H173 H 0.21054 -0.36044 0.20505
 N174 N 0.22775 -0.23763 0.29274
 N175 N 0.24972 -0.22560 0.28085
 C176 C 0.25512 -0.20192 0.29809
 C177 C 0.23569 -0.19901 0.32198
 C178 C 0.21869 -0.22205 0.31780
 H179 H 0.27198 -0.18782 0.29372
 H180 H 0.20102 -0.22720 0.33193
 H181 H 0.25718 -0.27802 0.26427
 H182 H 0.23000 -0.25848 0.23643
 N183 N 0.72886 0.25095 0.22165
 N184 N 0.74135 0.27214 0.20938
 C185 C 0.72698 0.27954 0.18302
 C186 C 0.70420 0.26208 0.17865
 C187 C 0.70612 0.24419 0.20359
 H188 H 0.73245 0.29659 0.16837
 H189 H 0.69173 0.22773 0.20838
 Cu190 Cu 0.77460 0.28855 0.22951
 Cu191 Cu 0.74242 0.23422 0.26043
 Cu192 Cu 0.80271 0.26181 0.29607
 N193 N 0.80883 0.30330 0.24953
 N194 N 0.81980 0.29260 0.27542
 C195 C 0.84308 0.30669 0.28437
 C196 C 0.84691 0.32739 0.26294
 C197 C 0.82479 0.32464 0.24117
 H198 H 0.85595 0.30238 0.30512
 H199 H 0.82060 0.33742 0.22087
 N200 N 0.78230 0.23070 0.31334
 N201 N 0.75936 0.22014 0.29976
 C202 C 0.75069 0.19897 0.31695
 C203 C 0.76900 0.19607 0.34255
 C204 C 0.78878 0.21656 0.33954
 H205 H 0.73255 0.18630 0.31123
 H206 H 0.80675 0.22072 0.35508
 H207 H 0.75998 0.27112 0.27786
 H208 H 0.78621 0.24279 0.25734
 C209 C 0.22626 -0.02689 0.39965
 C210 C 0.22341 0.00350 0.40021
 C211 C 0.23094 0.01205 0.42937
 N212 N 0.23840 -0.01206 0.44660
 C213 C 0.23553 -0.03593 0.42848
 C214 C 0.23265 0.04154 0.43918
 C215 C 0.23720 0.04957 0.46983
 C216 C 0.24681 0.07597 0.47977
 C217 C 0.24679 0.07607 0.51078
 C218 C 0.23713 0.04974 0.51896
 N219 N 0.23137 0.03366 0.49387
 C220 C 0.23240 0.04197 0.54898
 C221 C 0.23037 0.01263 0.55742
 C222 C 0.22233 0.00445 0.58567
 C223 C 0.22511 -0.02593 0.58520
 C224 C 0.23486 -0.03529 0.55670
 N225 N 0.23808 -0.01166 0.53976
 C226 C 0.24222 -0.06520 0.54734
 C227 C 0.24774 -0.07407 0.51692
 C228 C 0.26042 -0.10214 0.50769
 C229 C 0.26060 -0.10230 0.47662
 C230 C 0.24798 -0.07433 0.46763
 N231 N 0.24011 -0.05730 0.49235
 C232 C 0.24278 -0.06578 0.43718
 H233 H 0.22205 -0.04072 0.38017
 H234 H 0.21666 0.01768 0.38129
 H235 H 0.22738 -0.03657 0.49233
 H236 H 0.25322 0.09340 0.46612
 H237 H 0.25317 0.09358 0.52560
 H238 H 0.21526 0.01886 0.60464
 H239 H 0.22053 -0.03955 0.60377
 H240 H 0.26901 -0.12097 0.46230
 H241 H 0.22089 0.01459 0.49314
 H242 H 0.26866 -0.12063 0.52187
 C243 C 0.76125 0.00213 0.60055
 C244 C 0.76014 0.03239 0.60096
 C245 C 0.75089 0.04170 0.57221
 N246 N 0.74632 0.01816 0.55429
 C247 C 0.75277 -0.00604 0.57154
 C248 C 0.74531 0.07158 0.56337
 C249 C 0.74019 0.08008 0.53296
 C250 C 0.72894 0.10841 0.52391
 C251 C 0.72892 0.10803 0.49285
 C252 C 0.74010 0.07946 0.48374
 N253 N 0.74700 0.06258 0.50831
 C254 C 0.74517 0.07020 0.45340
 C255 C 0.75040 0.04014 0.44397
 C256 C 0.75937 0.03019 0.41539
 C257 C 0.76024 -0.00004 0.41499
 C258 C 0.75191 -0.00755 0.44337
 N259 N 0.74576 0.01703 0.46101
 C260 C 0.74874 -0.03653 0.45212
 C261 C 0.74395 -0.04391 0.48222
 C262 C 0.73423 -0.07010 0.49076
 C263 C 0.73449 -0.06973 0.52181
 C264 C 0.74436 -0.04333 0.53136
 N265 N 0.75008 -0.02772 0.50710
 C266 C 0.74967 -0.03525 0.56184
 H267 H 0.76756 -0.01219 0.61945
 H268 H 0.76553 0.04595 0.62025
 H269 H 0.76100 -0.00895 0.50756
 H270 H 0.72158 0.12746 0.53820
 H271 H 0.72156 0.12670 0.47861
 H272 H 0.76473 0.04330 0.39672
 H273 H 0.76636 -0.01479 0.39599
 H274 H 0.72833 -0.08706 0.53577
 H275 H 0.75881 0.04140 0.50833
 H276 H 0.72782 -0.08774 0.47615
 C277 C 0.53181 0.26332 0.10101
 C278 C 0.50122 0.26486 0.10054
 C279 C 0.49281 0.25642 0.07160
 N280 N 0.51718 0.24962 0.05445
 C281 C 0.54107 0.25389 0.07237
 C282 C 0.46326 0.25354 0.06187
 C283 C 0.45522 0.24815 0.03136
 C284 C 0.42873 0.23809 0.02167
 C285 C 0.42852 0.23768 -0.00938
 C286 C 0.45489 0.24750 -0.01777
 N287 N 0.47106 0.25380 0.00718
 C288 C 0.46243 0.25226 -0.04782
 C289 C 0.49165 0.25554 -0.05637
 C290 C 0.49923 0.26418 -0.08461
 C291 C 0.52977 0.26302 -0.08413
 C292 C 0.53980 0.25355 -0.05566
 N293 N 0.51645 0.24896 -0.03873
 C294 C 0.57013 0.24763 -0.04626
 C295 C 0.57931 0.24236 -0.01586
 C296 C 0.60787 0.23043 -0.00653
 C297 C 0.60815 0.23042 0.02454
 C298 C 0.57976 0.24237 0.03336
 N299 N 0.56233 0.24965 0.00860
 C300 C 0.57119 0.24771 0.06369
 H301 H 0.54563 0.26851 0.12030
 H302 H 0.48684 0.27139 0.11935
 H303 H 0.54121 0.26191 0.00849
 H304 H 0.41124 0.23186 0.03550
 H305 H 0.41084 0.23112 -0.02408
 H306 H 0.48432 0.27064 -0.10356
 H307 H 0.54304 0.26849 -0.10267
 H308 H 0.62716 0.22255 0.03898
 H309 H 0.48996 0.26468 0.00767
 H310 H 0.62660 0.22256 -0.02062
 C311 C 0.57824 0.74316 -0.02189
 C312 C 0.57865 0.74372 0.00908
 C313 C 0.55131 0.73628 0.01762
 N314 N 0.53425 0.73108 -0.00705
 C315 C 0.55066 0.73535 -0.03123
 C316 C 0.54301 0.73309 0.04773
 C317 C 0.51338 0.73061 0.05587
 C318 C 0.50533 0.72173 0.08387
 C319 C 0.47461 0.72416 0.08347
 C320 C 0.46469 0.73456 0.05525
 N321 N 0.48850 0.73842 0.03856
 C322 C 0.43425 0.74177 0.04635
 C323 C 0.42444 0.74582 0.01593
 C324 C 0.39535 0.75588 0.00668
 C325 C 0.39492 0.75552 -0.02435
 C326 C 0.42376 0.74516 -0.03307
 N327 N 0.44172 0.73912 -0.00840
 C328 C 0.43275 0.74025 -0.06335
 C329 C 0.46299 0.73254 -0.07143
 C330 C 0.47220 0.72108 -0.09947
 C331 C 0.50294 0.71847 -0.09898
 C332 C 0.51172 0.72829 -0.07064
 N333 N 0.48725 0.73684 -0.05399
 C334 C 0.54160 0.73096 -0.06162
 H335 H 0.59617 0.74809 -0.03588
 H336 H 0.59696 0.74916 0.02360
 H337 H 0.48699 0.74825 -0.03337
 H338 H 0.52005 0.71444 0.10271
 H339 H 0.46112 0.71903 0.10198
 H340 H 0.37639 0.76282 0.02080
 H341 H 0.37556 0.76217 -0.03879
 H342 H 0.51720 0.71042 -0.11746
 H343 H 0.48767 0.74908 0.01802
 H344 H 0.45823 0.71536 -0.11844
 C345 C 0.08815 0.51291 0.26958
 C346 C 0.09003 0.48265 0.27137
 C347 C 0.06315 0.47490 0.25984
 N348 N 0.04500 0.49936 0.25097
 C349 C 0.06019 0.52264 0.25701
 C350 C 0.05636 0.44557 0.25613
 C351 C 0.02757 0.43880 0.24734
 C352 C 0.02143 0.41131 0.23648
 C353 C -0.00910 0.41321 0.23257
 C354 C -0.02076 0.44182 0.24103
 N355 N 0.00171 0.45730 0.24998
 C356 C -0.05159 0.45227 0.24225
 C357 C -0.06276 0.48265 0.24430
 C358 C -0.09205 0.49384 0.25059
 C359 C -0.09395 0.52407 0.24890
 C360 C -0.06578 0.53029 0.24153
 N361 N -0.04675 0.50493 0.23869
 C362 C -0.05833 0.55882 0.23601
 C363 C -0.02848 0.56481 0.23397
 C364 C -0.02014 0.59057 0.22264
 C365 C 0.01040 0.58875 0.22659
 C366 C 0.01990 0.56193 0.24027
 N367 N -0.00394 0.54747 0.24467
 C368 C 0.04973 0.55235 0.24987
 H369 H 0.10544 0.52618 0.27669
 H370 H 0.10903 0.46806 0.28012
 H371 H -0.00391 0.52861 0.25745
 H372 H 0.03726 0.39181 0.23199
 H373 H -0.02132 0.39546 0.22458
 H374 H -0.11014 0.48155 0.25595
 H375 H -0.11380 0.53964 0.25277
 H376 H 0.02403 0.60538 0.22025
 H377 H -0.00074 0.47804 0.26064
 H378 H -0.03458 0.60886 0.21270
 C379 C -0.02065 0.59009 0.77597
 C380 C 0.00988 0.58820 0.77419
 C381 C 0.01960 0.56045 0.76188
 N382 N -0.00394 0.54542 0.75591
 C383 C -0.02858 0.56347 0.76458
 C384 C 0.04954 0.55013 0.75480
 C385 C 0.05931 0.52065 0.74532
 C386 C 0.08660 0.51132 0.73221
 C387 C 0.08827 0.48115 0.72779
 C388 C 0.06199 0.47285 0.73837
 N389 N 0.04450 0.49706 0.74909
 C390 C 0.05565 0.44330 0.73958
 C391 C 0.02682 0.43584 0.74475
 C392 C 0.02046 0.40762 0.75088
 C393 C -0.01003 0.40952 0.75262
 C394 C -0.02126 0.43885 0.74764
 N395 N 0.00126 0.45489 0.74273
 C396 C -0.05193 0.45002 0.74602
 C397 C -0.06256 0.48058 0.74560
 C398 C -0.09156 0.49225 0.73760
 C399 C -0.09331 0.52246 0.74157
 C400 C -0.06539 0.52842 0.75216
 N401 N -0.04676 0.50272 0.75455
 C402 C -0.05827 0.55690 0.76069
 H403 H -0.03530 0.60896 0.78461
 H404 H 0.02336 0.60533 0.78110
 H405 H -0.02562 0.50014 0.76487
 H406 H 0.10360 0.52483 0.72651
 H407 H 0.10684 0.46692 0.71806
 H408 H 0.03611 0.38770 0.75384
 H409 H -0.02248 0.39136 0.75707
 H410 H -0.11301 0.53821 0.73723
 H411 H 0.02522 0.49699 0.76138
 H412 H -0.10961 0.48025 0.72975
 C413 C 0.39469 0.25595 0.12549
 C414 C 0.42031 0.23491 0.12763
 N415 N 0.42257 0.21452 0.14971
 C416 C 0.40026 0.21404 0.16966
 C417 C 0.37438 0.23488 0.16738
 N418 N 0.37242 0.25543 0.14533
 N419 N 0.39226 0.27621 0.10329
 C420 C 0.41423 0.27624 0.08290
 C421 C 0.43973 0.25497 0.08473
 N422 N 0.44222 0.23486 0.10723
 H423 H 0.40273 0.19744 0.18690
 H424 H 0.41175 0.29248 0.06525
 C425 C 0.61082 0.73507 0.11571
 C426 C 0.58529 0.75629 0.11551
 N427 N 0.58278 0.77842 0.13667
 C428 C 0.60474 0.78055 0.15796
 C429 C 0.63069 0.75954 0.15816
 N430 N 0.63286 0.73716 0.13694
 N431 N 0.61340 0.71304 0.09432
 C432 C 0.59169 0.71149 0.07255
 C433 C 0.56631 0.73302 0.07206
 N434 N 0.56367 0.75481 0.09378
 H435 H 0.60175 0.79863 0.17431
 H436 H 0.59430 0.69388 0.05559
 C437 C 0.63573 0.24573 -0.11309
 C438 C 0.63579 0.26519 -0.08801
 N439 N 0.65672 0.28405 -0.08552
 C440 C 0.67758 0.28446 -0.10704
 C441 C 0.67747 0.26515 -0.13236
 N442 N 0.65646 0.24619 -0.13463
 N443 N 0.61481 0.22685 -0.11563
 C444 C 0.59376 0.22669 -0.09428
 C445 C 0.59344 0.24649 -0.06937
 N446 N 0.61469 0.26516 -0.06676
 H447 H 0.69385 0.29984 -0.10437
 H448 H 0.57726 0.21147 -0.09678
 C449 C 0.36644 0.74645 -0.13375
 C450 C 0.36565 0.72654 -0.11017
 N451 N 0.34362 0.70889 -0.11013
 C452 C 0.32234 0.71014 -0.13263
 C453 C 0.32305 0.72998 -0.15645
 N454 N 0.34520 0.74772 -0.15627
 N455 N 0.38851 0.76409 -0.13382
 C456 C 0.40992 0.76263 -0.11142
 C457 C 0.40934 0.74256 -0.08785
 N458 N 0.38704 0.72503 -0.08780
 H459 H 0.30514 0.69572 -0.13176
 H460 H 0.42728 0.77693 -0.11197
 C461 C 0.12490 0.37292 0.26476
 C462 C 0.12744 0.39569 0.24453
 N463 N 0.15160 0.39388 0.22673
 C464 C 0.17327 0.37019 0.22797
 C465 C 0.17068 0.34702 0.24786
 N466 N 0.14649 0.34915 0.26594
 N467 N 0.10060 0.37470 0.28245
 C468 C 0.07859 0.39810 0.28061
 C469 C 0.08083 0.42069 0.26000
 N470 N 0.10540 0.41896 0.24256
 H471 H 0.19216 0.36953 0.21338
 H472 H 0.05931 0.39894 0.29477
 C473 C 0.11299 0.61114 0.75715
 C474 C 0.08955 0.61331 0.73545
 N475 N 0.08756 0.63482 0.71457
 C476 C 0.10796 0.65432 0.71428
 C477 C 0.13158 0.65239 0.73604
 N478 N 0.13331 0.63072 0.75703
 N479 N 0.11523 0.58929 0.77775
 C480 C 0.09509 0.56945 0.77757
 C481 C 0.07156 0.57166 0.75589
 N482 N 0.06934 0.59366 0.73536
 H483 H 0.10546 0.67110 0.69723
 H484 H 0.09734 0.55214 0.79411
 C485 C -0.12957 0.62911 0.22915
 C486 C -0.10590 0.63055 0.25017
 N487 N -0.10626 0.65432 0.26926
 C488 C -0.12934 0.67669 0.26854
 C489 C -0.15354 0.67522 0.24784
 N490 N -0.15280 0.65134 0.22851
 N491 N -0.12913 0.60528 0.21001
 C492 C -0.10623 0.58268 0.21122
 C493 C -0.08283 0.58377 0.23278
 N494 N -0.08318 0.60792 0.25157
 H495 H -0.12868 0.69511 0.28428
 H496 H -0.10640 0.56385 0.19583
 C497 C -0.11406 0.38785 0.74240
 C498 C -0.11282 0.40748 0.76721
 N499 N -0.13110 0.40587 0.79073
 C500 C -0.15049 0.38536 0.79076
 C501 C -0.15174 0.36540 0.76600
 N502 N -0.13346 0.36742 0.74233
 N503 N -0.09546 0.38917 0.71903
 C504 C -0.07549 0.40915 0.71947
 C505 C -0.07407 0.42868 0.74440
 N506 N -0.09296 0.42748 0.76764
 H507 H -0.16461 0.38482 0.80999
 H508 H -0.06075 0.40974 0.70069
 C509 C 0.23305 0.10984 0.37589
 C510 C 0.25402 0.08421 0.37450
 N511 N 0.27552 0.08184 0.35347
 C512 C 0.27724 0.10404 0.33389
 C513 C 0.25655 0.13001 0.33539
 N514 N 0.23478 0.13211 0.35637
 N515 N 0.21171 0.11228 0.39716
 C516 C 0.21059 0.09035 0.41728
 C517 C 0.23187 0.06486 0.41621
 N518 N 0.25300 0.06239 0.39463
 H519 H 0.29471 0.10131 0.31748
 H520 H 0.19358 0.09290 0.43424
 C521 C 0.74330 0.13849 0.63178
 C522 C 0.76325 0.13767 0.60793
 N523 N 0.78244 0.15825 0.60713
 C524 C 0.78272 0.17956 0.62919
 C525 C 0.76297 0.18028 0.65332
 N526 N 0.74366 0.15965 0.65385
 N527 N 0.72406 0.11796 0.63262
 C528 C 0.72402 0.09645 0.61079
 C529 C 0.74431 0.09523 0.58713
 N530 N 0.76334 0.11610 0.58618
 H531 H 0.79837 0.19554 0.62790
 H532 H 0.70846 0.08031 0.61191
 C533 C 0.24707 -0.13053 0.61466
 C534 C 0.22669 -0.13067 0.59009
 N535 N 0.20774 -0.15148 0.58827
 C536 C 0.20805 -0.17212 0.60998
 C537 C 0.22824 -0.17200 0.63486
 N538 N 0.24741 -0.15114 0.63643
 N539 N 0.26593 -0.10956 0.61651
 C540 C 0.26516 -0.08859 0.59500
 C541 C 0.24448 -0.08845 0.57058
 N542 N 0.22585 -0.10972 0.56866
 H543 H 0.19258 -0.18832 0.60767
 H544 H 0.28033 -0.07202 0.59701
 C545 C 0.75147 -0.10455 0.38504
 C546 C 0.72891 -0.08021 0.38419
 N547 N 0.70758 -0.07875 0.36182
 C548 C 0.70770 -0.10059 0.34027
 C549 C 0.73029 -0.12502 0.34103
 N550 N 0.75168 -0.12625 0.36347
 N551 N 0.77268 -0.10621 0.40753
 C552 C 0.77230 -0.08461 0.42932
 C553 C 0.74976 -0.06022 0.42854
 N554 N 0.72859 -0.05857 0.40586
 H555 H 0.69043 -0.09871 0.32271
 H556 H 0.78941 -0.08638 0.44708
 C557 C 0.60873 0.73129 -0.12650
 C558 C 0.58282 0.75204 -0.12746
 N559 N 0.57997 0.77352 -0.14838
 C560 C 0.60201 0.77551 -0.16822
 C561 C 0.62835 0.75516 -0.16702
 N562 N 0.63088 0.73333 -0.14622
 N563 N 0.61165 0.70995 -0.10533
 C564 C 0.59000 0.70871 -0.08479
 C565 C 0.56437 0.72994 -0.08525
 N566 N 0.56132 0.75095 -0.10685
 H567 H 0.59893 0.79300 -0.18450
 H568 H 0.59296 0.69174 -0.06788
 C569 C 0.39437 0.25373 -0.11560
 C570 C 0.41939 0.23189 -0.11620
 N571 N 0.42152 0.21084 -0.13856
 C572 C 0.39965 0.21052 -0.16033
 C573 C 0.37452 0.23235 -0.15975
 N574 N 0.37265 0.25350 -0.13736
 N575 N 0.39205 0.27465 -0.09312
 C576 C 0.41365 0.27468 -0.07109
 C577 C 0.43872 0.25288 -0.07164
 N578 N 0.44104 0.23200 -0.09430
 H579 H 0.40203 0.19349 -0.17787
 H580 H 0.41137 0.29156 -0.05335
 C581 C 0.37101 0.74637 0.11592
 C582 C 0.37083 0.72523 0.09228
 N583 N 0.35087 0.70538 0.09232
 C584 C 0.33119 0.70549 0.11502
 C585 C 0.33142 0.72642 0.13898
 N586 N 0.35135 0.74651 0.13865
 N587 N 0.39121 0.76604 0.11602
 C588 C 0.41140 0.76538 0.09367
 C589 C 0.41148 0.74402 0.07015
 N590 N 0.39100 0.72452 0.06999
 H591 H 0.31562 0.68932 0.11424
 H592 H 0.42745 0.78114 0.09432
 C593 C 0.63894 0.24421 0.13219
 C594 C 0.63832 0.26416 0.10845
 N595 N 0.65942 0.28283 0.10773
 C596 C 0.68110 0.28256 0.12977
 C597 C 0.68168 0.26274 0.15375
 N598 N 0.66050 0.24399 0.15422
 N599 N 0.61786 0.22553 0.13297
 C600 C 0.59600 0.22604 0.11114
 C601 C 0.59506 0.24627 0.08754
 N602 N 0.61645 0.26475 0.08668
 H603 H 0.69748 0.29781 0.12856
 H604 H 0.57942 0.21092 0.11218
 C605 C -0.13009 0.62656 0.76750
 C606 C -0.10645 0.62843 0.74801
 N607 N -0.10684 0.65256 0.73062
 C608 C -0.12990 0.67493 0.73161
 C609 C -0.15405 0.67307 0.75077
 N610 N -0.15332 0.64878 0.76836
 N611 N -0.12956 0.60241 0.78501
 C612 C -0.10654 0.57993 0.78370
 C613 C -0.08310 0.58153 0.76375
 N614 N -0.08363 0.60593 0.74649
 H615 H -0.12926 0.69365 0.71723
 H616 H -0.10659 0.56086 0.79782
 C617 C -0.11293 0.38931 0.24076
 C618 C -0.09055 0.38907 0.26348
 N619 N -0.08876 0.36862 0.28545
 C620 C -0.10844 0.34841 0.28586
 C621 C -0.13099 0.34861 0.26320
 N622 N -0.13255 0.36913 0.24113
 N623 N -0.11480 0.40984 0.21883
 C624 C -0.09532 0.43027 0.21866
 C625 C -0.07302 0.43020 0.24152
 N626 N -0.07111 0.40942 0.26333
 H627 H -0.10636 0.33245 0.30372
 H628 H -0.09718 0.44642 0.20094
 C629 C 0.12612 0.37277 0.73033
 C630 C 0.12753 0.39499 0.75269
 N631 N 0.15134 0.39342 0.77223
 C632 C 0.17376 0.37044 0.77068
 C633 C 0.17223 0.34775 0.74870
 N634 N 0.14839 0.34965 0.72891
 N635 N 0.10226 0.37441 0.71076
 C636 C 0.07956 0.39713 0.71278
 C637 C 0.08062 0.41904 0.73561
 N638 N 0.10481 0.41752 0.75486
 H639 H 0.19225 0.36986 0.78679
 H640 H 0.06070 0.39800 0.69699
 C641 C 0.11146 0.61511 0.25485
 C642 C 0.11615 0.59019 0.23544
 N643 N 0.14068 0.58622 0.21804
 C644 C 0.16080 0.60606 0.21910
 C645 C 0.15627 0.63108 0.23856
 N646 N 0.13159 0.63488 0.25601
 N647 N 0.08684 0.61915 0.27217
 C648 C 0.06666 0.59937 0.27095
 C649 C 0.07130 0.57436 0.25157
 N650 N 0.09607 0.57038 0.23427
 H651 H 0.18013 0.60214 0.20497
 H652 H 0.04722 0.60301 0.28502
 C653 C 0.75325 -0.10273 0.62624
 C654 C 0.73061 -0.07846 0.62703
 N655 N 0.70926 -0.07712 0.64821
 C656 C 0.70942 -0.09904 0.66857
 C657 C 0.73202 -0.12345 0.66776
 N658 N 0.75346 -0.12453 0.64659
 N659 N 0.77442 -0.10434 0.60489
 C660 C 0.77391 -0.08277 0.58413
 C661 C 0.75121 -0.05852 0.58477
 N662 N 0.73010 -0.05688 0.60635
 H663 H 0.69213 -0.09731 0.68517
 H664 H 0.79091 -0.08454 0.56718
 C665 C 0.25006 -0.13276 0.36837
 C666 C 0.22970 -0.13308 0.39172
 N667 N 0.21189 -0.15488 0.39208
 C668 C 0.21338 -0.17638 0.37010
 C669 C 0.23364 -0.17615 0.34649
 N670 N 0.25157 -0.15422 0.34636
 N671 N 0.26790 -0.11094 0.36806
 C672 C 0.26618 -0.08931 0.38995
 C673 C 0.24555 -0.08936 0.41318
 N674 N 0.22790 -0.11146 0.41355
 H675 H 0.19883 -0.19338 0.37120
 H676 H 0.28066 -0.07217 0.38923
 C677 C 0.74576 0.13516 0.38674
 C678 C 0.76612 0.13376 0.41140
 N679 N 0.78673 0.15298 0.41349
 C680 C 0.78805 0.17349 0.39192
 C681 C 0.76787 0.17481 0.36698
 N682 N 0.74712 0.15556 0.36517
 N683 N 0.72518 0.11589 0.38459
 C684 C 0.72421 0.09506 0.40590
 C685 C 0.74489 0.09329 0.43036
 N686 N 0.76525 0.11291 0.43263
 H687 H 0.80484 0.18838 0.39426
 H688 H 0.70767 0.07985 0.40370
 C689 C 0.23363 0.11023 0.61554
 C690 C 0.25414 0.08429 0.61707
 N691 N 0.27550 0.08160 0.63936
 C692 C 0.27750 0.10379 0.66011
 C693 C 0.25728 0.13007 0.65847
 N694 N 0.23567 0.13248 0.63620
 N695 N 0.21241 0.11299 0.59305
 C696 C 0.21101 0.09108 0.57180
 C697 C 0.23189 0.06532 0.57297
 N698 N 0.25286 0.06250 0.59579
 H699 H 0.29484 0.10084 0.67752
 H700 H 0.19410 0.09386 0.55389
   
