data_POSCAR
  _audit_creation_date              2014-09-24
  _audit_creation_method            'ToBaCCo'
  _symmetry_space_group_name_H-M    'P1'
  _symmetry_Int_Tables_number       1
  _symmetry_cell_setting            triclinic
  loop_
  _symmetry_equiv_pos_as_xyz
 x,y,z
_cell_length_a 25.9758
_cell_length_b 26.0048
_cell_length_c 26.1090
_cell_angle_alpha 90.028900
_cell_angle_beta 89.931700
_cell_angle_gamma 90.731100
loop_
  _atom_site_label
  _atom_site_type_symbol
  _atom_site_fract_x
  _atom_site_fract_y
  _atom_site_fract_z
N1 N 0.20237 1.18132 0.18121
 N2 N 0.78950 0.78978 0.20962
 N3 N 0.81715 1.19936 -0.18624
 N4 N 0.17511 0.81938 -0.19668
 C5 C 0.57046 1.07626 -0.03891
 H6 H 0.55264 1.09758 -0.00821
 C7 C 0.60907 1.09952 -0.06888
 H8 H 0.61954 1.13914 -0.06121
 C9 C 0.57840 0.99847 -0.08533
 H10 H 0.56688 0.95871 -0.09081
 C11 C 0.61540 1.02056 -0.11725
 H12 H 0.63196 0.99733 -0.14741
 N13 N 0.55592 1.02663 -0.04786
 C14 C 0.47154 1.02050 0.08976
 H15 H 0.49354 0.98845 0.10367
 C16 C 0.43975 1.04696 0.12359
 H17 H 0.43824 1.03540 0.16342
 C18 C 0.44402 1.07229 0.02062
 H19 H 0.44521 1.08112 -0.01986
 C20 C 0.41154 1.09972 0.05313
 H21 H 0.38908 1.13058 0.03725
 Zn22 Zn 0.50673 0.99022 -0.00812
 N23 N 0.47250 1.03299 0.03918
 C24 C 0.58326 0.95785 0.05661
 N25 N 0.54398 0.93937 0.02733
 C26 C 0.53506 0.88794 0.02249
 C27 C 0.56596 0.85296 0.04864
 C28 C 0.61510 0.92442 0.08314
 C29 C 0.45343 0.97587 -0.10160
 C30 C 0.41489 0.95662 -0.13367
 C31 C 0.37980 0.90884 -0.06216
 C32 C 0.41913 0.92914 -0.03136
 N33 N 0.45544 0.96134 -0.05160
 H34 H 0.59018 0.99891 0.05878
 H35 H 0.50463 0.87388 -0.00217
 H36 H 0.55863 0.81210 0.04424
 H37 H 0.64677 0.94079 0.10468
 H38 H 0.48100 1.00333 -0.11667
 H39 H 0.41408 0.96874 -0.17335
 H40 H 0.35230 0.88254 -0.04500
 H41 H 0.42071 0.91925 0.00885
 C42 C 0.40798 1.08599 0.10518
 C43 C 0.63190 1.07149 -0.10905
 C44 C 0.37727 0.92279 -0.11423
 C45 C 0.60644 0.87100 0.07973
 C46 C -0.05856 0.58098 1.04234
 H47 H -0.06063 0.58701 1.00139
 C48 C -0.08499 0.61344 1.07540
 H49 H -0.10639 0.64464 1.05886
 C50 C -0.02480 0.53442 1.11234
 H51 H -0.00042 0.50429 1.12657
 C52 C -0.05085 0.56595 1.14694
 H53 H -0.04656 0.55945 1.18768
 N54 N -0.02950 0.54223 1.06107
 C55 C 0.10197 0.45616 1.02862
 H56 H 0.11686 0.48458 1.00220
 C57 C 0.13516 0.41942 1.04830
 H58 H 0.17542 0.42070 1.03741
 C59 C 0.03142 0.41831 1.07276
 H60 H -0.00930 0.41784 1.08152
 C61 C 0.06335 0.38072 1.09343
 H62 H 0.04646 0.35245 1.11890
 Zn63 Zn 0.00612 0.50359 1.01123
 N64 N 0.05118 0.45536 1.04140
 C65 C 0.07935 0.58008 0.99988
 N66 N 0.04487 0.55168 0.97240
 C67 C 0.03859 0.55922 0.92122
 C68 C 0.06860 0.59630 0.89559
 C69 C 0.11069 0.61650 0.97578
 C70 C -0.09254 0.46713 0.98114
 C71 C -0.12676 0.43413 0.95575
 C72 C -0.05516 0.39973 0.90823
 C73 C -0.02238 0.43374 0.93435
 N74 N -0.04133 0.46596 0.97051
 H75 H 0.08293 0.57373 1.04067
 H76 H 0.01038 0.53664 0.90032
 H77 H 0.06378 0.60154 0.85477
 H78 H 0.13852 0.63819 0.99820
 H79 H -0.10687 0.49223 1.01071
 H80 H -0.16722 0.43504 0.96587
 H81 H -0.03807 0.37442 0.88042
 H82 H 0.01863 0.43326 0.92704
 C83 C 0.11612 0.38078 1.08085
 C84 C -0.08168 0.60594 1.12867
 C85 C -0.10832 0.39868 0.91968
 C86 C 0.10536 0.62521 0.92318
 C87 C 1.07060 -0.01823 0.56136
 H88 H 1.07948 0.02253 0.56112
 C89 C 1.09636 -0.05079 0.59502
 H90 H 1.12608 -0.03463 0.61935
 C91 C 1.02030 -0.08809 0.53011
 H92 H 0.98951 -0.10231 0.50601
 C93 C 1.04512 -0.12198 0.56303
 H94 H 1.03356 -0.16215 0.56336
 N95 N 1.03286 -0.03714 0.53035
 C96 C 1.00333 0.08254 0.41765
 H97 H 0.96233 0.08561 0.42414
 C98 C 1.02744 0.11399 0.38157
 H99 H 1.00481 0.14138 0.36028
 C100 C 1.08251 0.04302 0.43787
 H101 H 1.10362 0.01526 0.46005
 C102 C 1.10817 0.07321 0.40115
 H103 H 1.14922 0.06896 0.39584
 Zn104 Zn 0.99217 0.00996 0.49357
 N105 N 1.03106 0.04866 0.44562
 C106 C 0.97465 0.10590 0.54151
 N107 N 0.96256 0.05489 0.54237
 C108 C 0.93256 0.03460 0.58015
 C109 C 0.91276 0.06608 0.61869
 C110 C 0.95565 0.13878 0.57903
 C111 C 0.95980 -0.05524 0.41641
 C112 C 0.92611 -0.08209 0.38431
 C113 C 0.85486 -0.04825 0.43276
 C114 C 0.89008 -0.02177 0.46392
 N115 N 0.94151 -0.02609 0.45541
 H116 H 1.00007 0.12126 0.51244
 H117 H 0.92449 -0.00632 0.58065
 H118 H 0.88912 0.04812 0.64778
 H119 H 0.96613 0.17923 0.57741
 H120 H 1.00088 -0.05707 0.40990
 H121 H 0.94230 -0.10352 0.35287
 H122 H 0.81399 -0.04428 0.43979
 H123 H 0.87625 0.00258 0.49438
 C124 C 1.08034 0.10943 0.37275
 C125 C 1.08254 -0.10328 0.59714
 C126 C 0.87266 -0.07915 0.39248
 C127 C 0.92444 0.11927 0.61866
 C128 C 0.16468 0.21792 1.16447
 C129 C 0.17808 0.26085 1.13945
 C130 C 0.13889 0.29789 1.12312
 C131 C 0.15275 0.34192 1.10016
 H132 H 0.21835 0.26892 1.13151
 H133 H 0.09879 0.28813 1.12930
 H134 H 0.12449 0.21116 1.17392
 H135 H 0.19344 0.34935 1.09372
 C136 C -0.19448 0.74891 1.17586
 C137 C -0.16408 0.71063 1.19114
 C138 C -0.14429 0.67339 1.15367
 C139 C -0.10703 0.64052 1.16609
 H140 H -0.15208 0.70792 1.23075
 H141 H -0.15961 0.67445 1.11522
 H142 H -0.20619 0.75009 1.13603
 H143 H -0.09374 0.63949 1.20544
 C144 C -0.15184 0.24152 0.82356
 C145 C -0.16633 0.28390 0.85327
 C146 C -0.13006 0.32160 0.86677
 C147 C -0.14338 0.36263 0.89864
 H148 H -0.20562 0.28790 0.86634
 H149 H -0.09088 0.31691 0.85390
 H150 H -0.11300 0.24260 0.80825
 H151 H -0.18344 0.36512 0.91020
 C152 C 0.14334 0.77462 0.81388
 C153 C 0.15994 0.73613 0.84330
 C154 C 0.12550 0.69389 0.85995
 C155 C 0.13962 0.66390 0.89892
 H156 H 0.19903 0.73709 0.85775
 H157 H 0.08750 0.68994 0.84323
 H158 H 0.10453 0.77278 0.79867
 H159 H 0.17655 0.67119 0.91709
 C160 C 1.19148 0.14940 0.22529
 C161 C 1.16114 0.16536 0.26342
 C162 C 1.14429 0.13067 0.30494
 C163 C 1.10463 0.14396 0.33459
 H164 H 1.14614 0.20404 0.26268
 H165 H 1.16152 0.09314 0.30866
 H166 H 1.20716 0.11099 0.22688
 H167 H 1.08603 0.18041 0.32753
 C168 C 1.16082 -0.14552 0.76323
 C169 C 1.14041 -0.16148 0.71893
 C170 C 1.12469 -0.12394 0.67987
 C171 C 1.10440 -0.13925 0.63523
 H172 H 1.13489 -0.20222 0.71173
 H173 H 1.12753 -0.08347 0.68921
 H174 H 1.16808 -0.10473 0.76889
 H175 H 1.10003 -0.18015 0.62800
 C176 C 0.82366 -0.19361 0.25022
 C177 C 0.80866 -0.16288 0.28849
 C178 C 0.84662 -0.14257 0.32542
 C179 C 0.83461 -0.10499 0.35830
 H180 H 0.76895 -0.15103 0.29143
 H181 H 0.88514 -0.15776 0.32412
 H182 H 0.86361 -0.20515 0.24883
 H183 H 0.79518 -0.09185 0.35964
 C184 C 0.83224 0.16462 0.77706
 C185 C 0.86289 0.17762 0.73465
 C186 C 0.87743 0.14032 0.69921
 C187 C 0.90715 0.15372 0.65643
 H188 H 0.87419 0.21728 0.72795
 H189 H 0.86540 0.10098 0.70582
 H190 H 0.81930 0.12493 0.77941
 H191 H 0.91818 0.19393 0.65239
 C192 C 0.24335 1.16800 0.14656
 C193 C 0.28737 1.14736 0.16260
 C194 C 0.32675 1.13124 0.12542
 C195 C 0.37041 1.10935 0.14088
 H196 H 0.29388 1.14139 0.20314
 H197 H 0.31814 1.13465 0.08503
 H198 H 0.23838 1.17559 0.10602
 H199 H 0.37678 1.10443 0.18162
 C200 C 0.77526 1.18839 -0.15543
 C201 C 0.73817 1.15040 -0.16691
 C202 C 0.69971 1.13607 -0.13218
 C203 C 0.67016 1.09174 -0.14161
 H204 H 0.73918 1.13050 -0.20328
 H205 H 0.69582 1.15712 -0.09666
 H206 H 0.77019 1.20886 -0.11969
 H207 H 0.68008 1.06920 -0.17516
 C208 C 0.21305 0.83600 -0.15972
 C209 C 0.25531 0.86236 -0.17354
 C210 C 0.29382 0.87869 -0.13526
 C211 C 0.33681 0.90355 -0.14980
 H212 H 0.26175 0.87143 -0.21357
 H213 H 0.28603 0.87091 -0.09532
 H214 H 0.20786 0.82551 -0.11983
 H215 H 0.34219 0.91147 -0.19026
 C216 C 0.74882 0.82348 0.19339
 C217 C 0.71028 0.80803 0.16275
 C218 C 0.67334 0.84557 0.14285
 C219 C 0.64042 0.83324 0.10520
 H220 H 0.70716 0.76827 0.15063
 H221 H 0.67474 0.88409 0.15839
 H222 H 0.75039 0.86348 0.20513
 H223 H 0.63894 0.79381 0.09167
   
