data_POSCAR
  _audit_creation_date              2014-09-24
  _audit_creation_method            'ToBaCCo'
  _symmetry_space_group_name_H-M    'P1'
  _symmetry_Int_Tables_number       1
  _symmetry_cell_setting            triclinic
  loop_
  _symmetry_equiv_pos_as_xyz
 x,y,z
_cell_length_a 37.1017
_cell_length_b 37.1107
_cell_length_c 37.0965
_cell_angle_alpha 89.110100
_cell_angle_beta 89.564600
_cell_angle_gamma 88.831000
loop_
  _atom_site_label
  _atom_site_type_symbol
  _atom_site_fract_x
  _atom_site_fract_y
  _atom_site_fract_z
C1 C 0.56369 0.40988 -0.02185
 C2 C 0.58960 0.43571 -0.02267
 C3 C 0.57425 0.46633 -0.00734
 N4 N 0.53961 0.46027 0.00207
 C5 C 0.53321 0.42576 -0.00670
 C6 C 0.59232 0.49882 -0.00067
 C7 C 0.57265 0.53104 0.00705
 C8 C 0.58617 0.55994 0.02560
 C9 C 0.55976 0.58636 0.02560
 C10 C 0.53070 0.57301 0.00704
 N11 N 0.53850 0.53894 -0.00361
 C12 C 0.49841 0.59273 -0.00066
 C13 C 0.46586 0.57469 -0.00727
 C14 C 0.43507 0.59014 -0.02256
 C15 C 0.40927 0.56420 -0.02170
 C16 C 0.42532 0.53362 -0.00657
 N17 N 0.45991 0.53998 0.00215
 C18 C 0.40755 0.50109 0.00093
 C19 C 0.42644 0.46858 0.00888
 C20 C 0.41115 0.43778 0.02346
 C21 C 0.43764 0.41129 0.02341
 C22 C 0.46830 0.42671 0.00880
 N23 N 0.46131 0.46166 0.00022
 C24 C 0.50074 0.40790 0.00076
 H25 H 0.56683 0.38263 -0.03156
 H26 H 0.61662 0.43229 -0.03345
 H27 H 0.47798 0.47848 -0.01484
 H28 H 0.61233 0.56174 0.03809
 H29 H 0.56166 0.61241 0.03808
 H30 H 0.43153 0.61723 -0.03333
 H31 H 0.38191 0.56739 -0.03136
 H32 H 0.43449 0.38366 0.03246
 H33 H 0.52285 0.52343 -0.02041
 H34 H 0.38361 0.43455 0.03256
 C35 C -0.02021 0.56507 0.40951
 C36 C -0.02054 0.59117 0.43524
 C37 C -0.00626 0.57537 0.46631
 N38 N 0.00212 0.54028 0.46053
 C39 C -0.00636 0.53403 0.42582
 C40 C -0.00012 0.59339 0.49908
 C41 C 0.00635 0.57386 0.53170
 C42 C 0.02264 0.58761 0.56200
 C43 C 0.02177 0.56116 0.58828
 C44 C 0.00554 0.53173 0.57322
 N45 N -0.00362 0.53953 0.53867
 C46 C -0.00231 0.49949 0.59214
 C47 C -0.00895 0.46689 0.57461
 C48 C -0.02097 0.43567 0.59136
 C49 C -0.02073 0.40960 0.56552
 C50 C -0.00861 0.42584 0.53392
 N51 N -0.00138 0.46082 0.53956
 C52 C -0.00200 0.40795 0.50119
 C53 C 0.00562 0.42650 0.46857
 C54 C 0.01974 0.41063 0.43779
 C55 C 0.02052 0.43709 0.41144
 C56 C 0.00685 0.46835 0.42688
 N57 N -0.00209 0.46171 0.46170
 C58 C 0.00010 0.50113 0.40812
 H59 H -0.02944 0.56845 0.38203
 H60 H -0.03046 0.61858 0.43150
 H61 H -0.01665 0.47908 0.47834
 H62 H 0.03401 0.61402 0.56495
 H63 H 0.03202 0.56331 0.61538
 H64 H -0.02872 0.43197 0.61934
 H65 H -0.02833 0.38183 0.56960
 H66 H 0.02962 0.43358 0.38391
 H67 H -0.01933 0.52381 0.52219
 H68 H 0.02821 0.38279 0.43453
 C69 C 0.40969 0.01887 0.56552
 C70 C 0.43577 0.01903 0.59151
 C71 C 0.46796 0.00867 0.57491
 N72 N 0.46209 0.00169 0.53980
 C73 C 0.42659 0.00801 0.53398
 C74 C 0.50099 0.00129 0.59277
 C75 C 0.53336 -0.00736 0.57377
 C76 C 0.56444 -0.02212 0.58918
 C77 C 0.59044 -0.02291 0.56270
 C78 C 0.57514 -0.00764 0.53191
 N79 N 0.54023 0.00140 0.53878
 C80 C 0.59398 -0.00077 0.49907
 C81 C 0.57545 0.00513 0.46610
 C82 C 0.59045 0.01935 0.43468
 C83 C 0.56423 0.01887 0.40890
 C84 C 0.53387 0.00504 0.42550
 N85 N 0.54069 -0.00335 0.46045
 C86 C 0.50108 -0.00136 0.40795
 C87 C 0.46870 -0.00778 0.42698
 C88 C 0.43778 -0.02139 0.41200
 C89 C 0.41161 -0.02046 0.43844
 C90 C 0.42730 -0.00631 0.46881
 N91 N 0.46212 0.00130 0.46160
 C92 C 0.40880 0.00127 0.50133
 H93 H 0.38137 0.02518 0.56963
 H94 H 0.43109 0.02499 0.61962
 H95 H 0.47913 0.01583 0.47784
 H96 H 0.56857 -0.03090 0.61677
 H97 H 0.61776 -0.03311 0.56603
 H98 H 0.61740 0.02935 0.43073
 H99 H 0.56704 0.02807 0.38121
 H100 H 0.38405 -0.02890 0.43549
 H101 H 0.52355 0.01677 0.52186
 H102 H 0.43430 -0.03061 0.38474
 O103 O 0.47060 0.00076 -0.05011
 O104 O 0.47044 -0.00017 0.04922
 O105 O 0.47061 0.04992 -0.00072
 O106 O 0.47047 -0.04933 -0.00015
 O107 O 0.52993 -0.05063 -0.00050
 O108 O 0.53006 0.04863 -0.00105
 O109 O 0.52990 -0.00147 0.04888
 O110 O 0.53005 -0.00052 -0.05045
 Cu111 Cu 0.46458 0.00042 -0.00041
 Cu112 Cu 0.53593 -0.00113 -0.00082
 C113 C 0.50035 0.00026 -0.06730
 C114 C 0.50014 -0.00096 0.06608
 C115 C 0.50036 0.06629 -0.00096
 C116 C 0.50018 -0.06700 -0.00024
 O117 O -0.05102 0.53044 0.99984
 O118 O 0.04825 0.53057 0.99943
 O119 O -0.00122 0.53049 0.95004
 O120 O -0.00154 0.53052 1.04924
 O121 O -0.00026 0.47107 1.05017
 O122 O 0.00006 0.47103 0.95098
 O123 O 0.04953 0.47112 1.00037
 O124 O -0.04973 0.47099 1.00078
 Cu125 Cu -0.00151 0.53646 0.99954
 Cu126 Cu 0.00003 0.46509 1.00067
 C127 C -0.06739 0.50069 1.00036
 C128 C 0.06590 0.50086 0.99984
 C129 C -0.00053 0.50075 0.93351
 C130 C -0.00093 0.50080 1.06671
 O131 O 0.00164 -0.04913 0.47063
 O132 O 0.00033 0.05007 0.47077
 O133 O 0.05062 0.00013 0.47080
 O134 O -0.04862 0.00081 0.47062
 O135 O -0.04916 -0.00017 0.53008
 O136 O 0.05007 -0.00089 0.53026
 O137 O -0.00019 0.04907 0.53023
 O138 O 0.00107 -0.05013 0.53010
 Cu139 Cu 0.00105 0.00057 0.46474
 Cu140 Cu 0.00040 -0.00063 0.53613
 C141 C 0.00153 -0.06663 0.50034
 C142 C -0.00014 0.06657 0.50052
 C143 C 0.06735 -0.00047 0.50056
 C144 C -0.06590 0.00041 0.50032
 C145 C -0.29327 0.49989 1.00012
 C146 C -0.31152 0.47142 1.01666
 C147 C -0.34918 0.47097 1.01646
 C148 C -0.36936 0.49906 0.99957
 C149 C -0.35047 0.52772 0.98322
 C150 C -0.31280 0.52805 0.98346
 C151 C -0.25448 0.50020 1.00026
 C152 C -0.22199 0.50037 1.00035
 C153 C -0.18320 0.50047 1.00044
 C154 C -0.16356 0.46788 1.00104
 C155 C -0.12587 0.46792 1.00105
 C156 C -0.10731 0.50063 1.00045
 C157 C -0.12732 0.53326 0.99987
 C158 C -0.16501 0.53315 0.99986
 H159 H -0.29665 0.44961 1.02989
 H160 H -0.36253 0.44907 1.03040
 H161 H -0.36484 0.54952 0.96944
 H162 H -0.29892 0.55020 0.97049
 H163 H -0.17737 0.44243 1.00149
 H164 H -0.11129 0.44234 1.00151
 H165 H -0.11389 0.55890 0.99940
 H166 H -0.17996 0.55854 0.99939
 C167 C 0.29179 0.50107 1.00021
 C168 C 0.31148 0.47909 0.97650
 C169 C 0.34916 0.47909 0.97671
 C170 C 0.36749 0.50109 1.00067
 C171 C 0.34760 0.52308 1.02439
 C172 C 0.30992 0.52307 1.02414
 C173 C 0.25300 0.50104 1.00001
 C174 C 0.22050 0.50101 0.99988
 C175 C 0.18171 0.50098 0.99977
 C176 C 0.16210 0.53359 0.99932
 C177 C 0.12441 0.53360 0.99930
 C178 C 0.10582 0.50090 0.99975
 C179 C 0.12581 0.46825 1.00018
 C180 C 0.16349 0.46833 1.00019
 H181 H 0.29772 0.46198 0.95787
 H182 H 0.36408 0.46205 0.95816
 H183 H 0.36130 0.54012 1.04312
 H184 H 0.29494 0.54016 1.04261
 H185 H 0.17594 0.55903 0.99900
 H186 H 0.10986 0.55919 0.99897
 H187 H 0.11234 0.44263 1.00053
 H188 H 0.17841 0.44292 1.00054
 C189 C 0.00126 -0.29233 0.49978
 C190 C -0.01710 -0.31123 0.52688
 C191 C -0.01755 -0.34887 0.52669
 C192 C 0.00035 -0.36833 0.49925
 C193 C 0.01886 -0.34882 0.47217
 C194 C 0.01926 -0.31118 0.47246
 C195 C 0.00159 -0.25358 0.49995
 C196 C 0.00180 -0.22111 0.50005
 C197 C 0.00196 -0.18236 0.50014
 C198 C 0.00158 -0.16403 0.53281
 C199 C 0.00152 -0.12636 0.53292
 C200 C 0.00184 -0.10653 0.50027
 C201 C 0.00230 -0.12524 0.46756
 C202 C 0.00236 -0.16291 0.46753
 H203 H -0.03124 -0.29686 0.54810
 H204 H -0.03266 -0.36275 0.54760
 H205 H 0.03381 -0.36271 0.45119
 H206 H 0.03376 -0.29679 0.45146
 H207 H 0.00126 -0.17884 0.55821
 H208 H 0.00116 -0.11279 0.55856
 H209 H 0.00255 -0.11080 0.44197
 H210 H 0.00265 -0.17685 0.44208
 C211 C -0.00175 0.29231 0.50092
 C212 C -0.02705 0.31204 0.48042
 C213 C -0.02716 0.34971 0.48054
 C214 C -0.00196 0.36795 0.50119
 C215 C 0.02341 0.34803 0.52162
 C216 C 0.02348 0.31037 0.52150
 C217 C -0.00164 0.25355 0.50080
 C218 C -0.00149 0.22108 0.50073
 C219 C -0.00127 0.18231 0.50067
 C220 C -0.00090 0.16396 0.46801
 C221 C -0.00057 0.12629 0.46792
 C222 C -0.00060 0.10647 0.50057
 C223 C -0.00101 0.12520 0.53328
 C224 C -0.00133 0.16287 0.53329
 H225 H -0.04667 0.29833 0.46439
 H226 H -0.04690 0.36469 0.46463
 H227 H 0.04314 0.36170 0.53754
 H228 H 0.04320 0.29535 0.53741
 H229 H -0.00084 0.17877 0.44260
 H230 H -0.00026 0.11271 0.44228
 H231 H -0.00104 0.11076 0.55888
 H232 H -0.00161 0.17683 0.55873
 C233 C 0.50081 0.00111 -0.29335
 C234 C 0.49585 0.03347 -0.31274
 C235 C 0.49598 0.03353 -0.35044
 C236 C 0.50125 0.00118 -0.36922
 C237 C 0.50593 -0.03127 -0.34951
 C238 C 0.50580 -0.03125 -0.31182
 C239 C 0.50069 0.00108 -0.25453
 C240 C 0.50062 0.00103 -0.22202
 C241 C 0.50054 0.00093 -0.18319
 C242 C 0.46788 0.00158 -0.16408
 C243 C 0.46777 0.00140 -0.12637
 C244 C 0.50042 0.00056 -0.10726
 C245 C 0.53312 -0.00006 -0.12674
 C246 C 0.53315 0.00012 -0.16444
 H247 H 0.49190 0.05866 -0.29872
 H248 H 0.49224 0.05885 -0.36501
 H249 H 0.50933 -0.05663 -0.36334
 H250 H 0.50947 -0.05648 -0.29708
 H251 H 0.44248 0.00220 -0.17832
 H252 H 0.44214 0.00189 -0.11222
 H253 H 0.55871 -0.00071 -0.11287
 H254 H 0.55860 -0.00039 -0.17897
 C255 C 0.50014 -0.00171 0.29212
 C256 C 0.47846 0.02309 0.31093
 C257 C 0.47871 0.02319 0.34862
 C258 C 0.50066 -0.00155 0.36787
 C259 C 0.52230 -0.02640 0.34886
 C260 C 0.52204 -0.02645 0.31117
 C261 C 0.50001 -0.00168 0.25330
 C262 C 0.49997 -0.00164 0.22079
 C263 C 0.50000 -0.00157 0.18197
 C264 C 0.46738 -0.00071 0.16324
 C265 C 0.46739 -0.00055 0.12553
 C266 C 0.50009 -0.00124 0.10603
 C267 C 0.53274 -0.00213 0.12513
 C268 C 0.53265 -0.00229 0.16284
 H269 H 0.46143 0.04237 0.29647
 H270 H 0.46194 0.04261 0.36284
 H271 H 0.53931 -0.04573 0.36327
 H272 H 0.53891 -0.04576 0.29690
 H273 H 0.44194 -0.00013 0.17777
 H274 H 0.44179 0.00015 0.11167
 H275 H 0.55837 -0.00268 0.11097
 H276 H 0.55806 -0.00296 0.17706
 C277 C 0.49945 -0.29287 0.00000
 C278 C 0.47111 -0.31125 0.01656
 C279 C 0.47068 -0.34890 0.01642
 C280 C 0.49864 -0.36895 -0.00044
 C281 C 0.52717 -0.34994 -0.01681
 C282 C 0.52749 -0.31229 -0.01662
 C283 C 0.49974 -0.25408 0.00006
 C284 C 0.49989 -0.22159 0.00008
 C285 C 0.49998 -0.18280 0.00008
 C286 C 0.46738 -0.16317 0.00032
 C287 C 0.46740 -0.12548 0.00025
 C288 C 0.50011 -0.10692 -0.00007
 C289 C 0.53276 -0.12692 -0.00029
 C290 C 0.53265 -0.16461 -0.00021
 H291 H 0.44940 -0.29648 0.02978
 H292 H 0.44889 -0.36234 0.03039
 H293 H 0.54887 -0.36421 -0.03057
 H294 H 0.54954 -0.29831 -0.02961
 H295 H 0.44193 -0.17698 0.00055
 H296 H 0.44182 -0.11092 0.00042
 H297 H 0.55839 -0.11348 -0.00054
 H298 H 0.55805 -0.17955 -0.00041
 C299 C 0.50067 0.29216 -0.00027
 C300 C 0.52294 0.31002 0.02365
 C301 C 0.52297 0.34769 0.02401
 C302 C 0.50073 0.36785 0.00039
 C303 C 0.47847 0.34979 -0.02357
 C304 C 0.47845 0.31212 -0.02387
 C305 C 0.50061 0.25337 -0.00057
 C306 C 0.50057 0.22088 -0.00077
 C307 C 0.50052 0.18209 -0.00096
 C308 C 0.46785 0.16389 -0.00090
 C309 C 0.46776 0.12621 -0.00095
 C310 C 0.50041 0.10621 -0.00106
 C311 C 0.53312 0.12479 -0.00116
 C312 C 0.53313 0.16247 -0.00111
 H313 H 0.54022 0.29484 0.04204
 H314 H 0.54022 0.36117 0.04273
 H315 H 0.46124 0.36491 -0.04203
 H316 H 0.46113 0.29857 -0.04250
 H317 H 0.44245 0.17882 -0.00078
 H318 H 0.44213 0.11276 -0.00087
 H319 H 0.55871 0.11023 -0.00125
 H320 H 0.55857 0.17629 -0.00115
 C321 C -0.29169 -0.00004 0.49966
 C322 C -0.30972 -0.01894 0.47318
 C323 C -0.34737 -0.01923 0.47292
 C324 C -0.36773 -0.00052 0.49921
 C325 C -0.34911 0.01833 0.52580
 C326 C -0.31144 0.01857 0.52597
 C327 C -0.25293 0.00022 0.49986
 C328 C -0.22045 0.00039 0.49998
 C329 C -0.18167 0.00055 0.50008
 C330 C -0.16246 0.00104 0.46747
 C331 C -0.12478 0.00105 0.46751
 C332 C -0.10581 0.00057 0.50024
 C333 C -0.12540 0.00012 0.53288
 C334 C -0.16308 0.00011 0.53276
 H335 H -0.29466 -0.03363 0.45281
 H336 H -0.36058 -0.03482 0.45260
 H337 H -0.36372 0.03360 0.54605
 H338 H -0.29774 0.03340 0.54653
 H339 H -0.17660 0.00137 0.44202
 H340 H -0.11053 0.00140 0.44193
 H341 H -0.11163 -0.00026 0.55852
 H342 H -0.17770 -0.00028 0.55815
 C343 C 0.29315 0.00012 0.50101
 C344 C 0.31150 0.02621 0.48077
 C345 C 0.34917 0.02660 0.48091
 C346 C 0.36879 0.00090 0.50134
 C347 C 0.35027 -0.02529 0.52149
 C348 C 0.31260 -0.02563 0.52136
 C349 C 0.25438 -0.00020 0.50092
 C350 C 0.22190 -0.00041 0.50086
 C351 C 0.18313 -0.00059 0.50078
 C352 C 0.16452 0.00001 0.46811
 C353 C 0.12684 -0.00001 0.46799
 C354 C 0.10727 -0.00063 0.50064
 C355 C 0.12625 -0.00128 0.53336
 C356 C 0.16393 -0.00126 0.53339
 H357 H 0.29671 0.04624 0.46493
 H358 H 0.36308 0.04693 0.46519
 H359 H 0.36504 -0.04541 0.53723
 H360 H 0.29866 -0.04595 0.53707
 H361 H 0.17914 0.00053 0.44271
 H362 H 0.11307 0.00050 0.44235
 H363 H 0.11201 -0.00176 0.55894
 H364 H 0.17808 -0.00172 0.55884
 C365 C -0.00032 0.50087 1.29244
 C366 C -0.02514 0.48025 1.31199
 C367 C -0.02500 0.48032 1.34966
 C368 C -0.00001 0.50100 1.36810
 C369 C 0.02485 0.52160 1.34835
 C370 C 0.02467 0.52154 1.31068
 C371 C -0.00051 0.50083 1.25368
 C372 C -0.00065 0.50082 1.22121
 C373 C -0.00081 0.50081 1.18245
 C374 C -0.00023 0.46817 1.16406
 C375 C -0.00031 0.46813 1.12638
 C376 C -0.00096 0.50080 1.10661
 C377 C -0.00156 0.53349 1.12537
 C378 C -0.00149 0.53345 1.16305
 H379 H -0.04459 0.46418 1.29812
 H380 H -0.04441 0.46436 1.36449
 H381 H 0.04437 0.53763 1.36217
 H382 H 0.04400 0.53756 1.29580
 H383 H 0.00029 0.44276 1.17884
 H384 H 0.00017 0.44252 1.11277
 H385 H -0.00207 0.55909 1.11096
 H386 H -0.00193 0.55887 1.17704
 C387 C -0.00113 0.50032 0.70778
 C388 C 0.02347 0.47838 0.68898
 C389 C 0.02314 0.47808 0.65131
 C390 C -0.00191 0.49966 0.63215
 C391 C -0.02642 0.52174 0.65114
 C392 C -0.02604 0.52203 0.68880
 C393 C -0.00086 0.50050 0.74653
 C394 C -0.00069 0.50060 0.77901
 C395 C -0.00054 0.50065 0.81777
 C396 C -0.00129 0.53331 0.83613
 C397 C -0.00126 0.53339 0.87381
 C398 C -0.00047 0.50072 0.89361
 C399 C 0.00032 0.46803 0.87487
 C400 C 0.00028 0.46804 0.83719
 H401 H 0.04289 0.46153 0.70342
 H402 H 0.04239 0.46110 0.63706
 H403 H -0.04585 0.53859 0.63674
 H404 H -0.04516 0.53912 0.70311
 H405 H -0.00194 0.55871 0.82133
 H406 H -0.00188 0.55900 0.88740
 H407 H 0.00094 0.44243 0.88930
 H408 H 0.00087 0.44260 0.82322
   
