data_POSCAR
  _audit_creation_date              2014-09-24
  _audit_creation_method            'ToBaCCo'
  _symmetry_space_group_name_H-M    'P1'
  _symmetry_Int_Tables_number       1
  _symmetry_cell_setting            triclinic
  loop_
  _symmetry_equiv_pos_as_xyz
 x,y,z
_cell_length_a 44.7198
_cell_length_b 44.5316
_cell_length_c 15.5000
_cell_angle_alpha 90.070800
_cell_angle_beta 90.148200
_cell_angle_gamma 119.774500
loop_
  _atom_site_label
  _atom_site_type_symbol
  _atom_site_fract_x
  _atom_site_fract_y
  _atom_site_fract_z
C1 C 0.19910 0.50486 0.60314
 C2 C 0.18057 0.50508 0.52989
 C3 C 0.18846 0.49924 0.44656
 C4 C 0.21878 0.49717 0.43372
 C5 C 0.23822 0.49694 0.50649
 C6 C 0.22796 0.50006 0.59139
 C7 C 0.24904 0.50207 0.66122
 C8 C 0.27898 0.50040 0.64882
 C9 C 0.28899 0.49567 0.56628
 C10 C 0.26915 0.49567 0.49394
 C11 C 0.23214 0.49899 0.35061
 C12 C 0.26257 0.49849 0.33837
 C13 C 0.28140 0.49688 0.40877
 C14 C 0.31352 0.49902 0.39632
 C15 C 0.33184 0.49742 0.46712
 C16 C 0.32004 0.49465 0.55197
 H17 H 0.24375 0.50681 0.72628
 H18 H 0.29520 0.50538 0.70467
 H19 H 0.22038 0.50287 0.29392
 H20 H 0.27176 0.50044 0.27293
 H21 H 0.15715 0.50636 0.53846
 H22 H 0.35595 0.49783 0.45474
 C23 C 0.46703 -0.18943 0.45259
 C24 C 0.45997 -0.18377 0.53655
 C25 C 0.46944 -0.19647 0.60742
 C26 C 0.48479 -0.21725 0.59443
 C27 C 0.48946 -0.22585 0.50928
 C28 C 0.48053 -0.21180 0.43793
 C29 C 0.48488 -0.22081 0.35419
 C30 C 0.49758 -0.24328 0.34047
 C31 C 0.50654 -0.25773 0.41002
 C32 C 0.50337 -0.24817 0.49548
 C33 C 0.49543 -0.22968 0.66401
 C34 C 0.51046 -0.25011 0.65074
 C35 C 0.51374 -0.26093 0.56716
 C36 C 0.52731 -0.28365 0.55318
 C37 C 0.53113 -0.29165 0.46704
 C38 C 0.51983 -0.28032 0.39575
 H39 H 0.47801 -0.21093 0.29833
 H40 H 0.50101 -0.24847 0.27416
 H41 H 0.49251 -0.22349 0.72987
 H42 H 0.51969 -0.25660 0.70803
 H43 H 0.44939 -0.16678 0.54730
 H44 H 0.53898 -0.31048 0.45437
 C45 C 1.14578 0.70275 0.42973
 C46 C 1.13417 0.68646 0.50984
 C47 C 1.15553 0.69674 0.58306
 C48 C 1.18888 0.72624 0.57734
 C49 C 1.20016 0.74480 0.49843
 C50 C 1.17853 0.73295 0.42438
 C51 C 1.19032 0.75146 0.34702
 C52 C 1.22220 0.78166 0.34274
 C53 C 1.24425 0.79426 0.41513
 C54 C 1.23314 0.77533 0.49380
 C55 C 1.21036 0.73904 0.65028
 C56 C 1.24229 0.76868 0.64600
 C57 C 1.25449 0.78718 0.56857
 C58 C 1.28639 0.81843 0.56577
 C59 C 1.29633 0.83709 0.48850
 C60 C 1.27631 0.82586 0.41245
 H61 H 1.17463 0.74323 0.28920
 H62 H 1.22873 0.79527 0.28202
 H63 H 1.20235 0.72720 0.71302
 H64 H 1.25657 0.77745 0.70576
 H65 H 1.10900 0.66341 0.51268
 H66 H 1.32222 0.85891 0.48583
 C67 C 0.82766 0.52834 0.57175
 C68 C 0.84165 0.52871 0.49004
 C69 C 0.82705 0.53218 0.41343
 C70 C 0.79783 0.53635 0.41683
 C71 C 0.78273 0.53571 0.49777
 C72 C 0.79740 0.53140 0.57527
 C73 C 0.77968 0.52741 0.65316
 C74 C 0.74945 0.52901 0.65585
 C75 C 0.73573 0.53564 0.58137
 C76 C 0.75191 0.53772 0.50073
 C77 C 0.78247 0.53961 0.34084
 C78 C 0.75224 0.54119 0.34358
 C79 C 0.73629 0.53981 0.42244
 C80 C 0.70419 0.53864 0.42490
 C81 C 0.68924 0.53745 0.50453
 C82 C 0.70444 0.53674 0.58288
 H83 H 0.78776 0.52120 0.71299
 H84 H 0.73620 0.52303 0.71683
 H85 H 0.79323 0.54012 0.27803
 H86 H 0.74108 0.54273 0.28287
 H87 H 0.86537 0.52791 0.48460
 H88 H 0.66532 0.53817 0.50515
 C89 C 0.48818 0.31515 0.41328
 C90 C 0.49959 0.33414 0.49022
 C91 C 0.49860 0.31852 0.56878
 C92 C 0.48690 0.28267 0.57141
 C93 C 0.47806 0.26342 0.49330
 C94 C 0.47901 0.27979 0.41368
 C95 C 0.47047 0.26026 0.33713
 C96 C 0.46258 0.22588 0.33804
 C97 C 0.46153 0.20929 0.41583
 C98 C 0.46834 0.22775 0.49471
 C99 C 0.48442 0.26574 0.64941
 C100 C 0.47332 0.23051 0.65131
 C101 C 0.46593 0.21085 0.57465
 C102 C 0.45573 0.17489 0.57513
 C103 C 0.44988 0.15775 0.49489
 C104 C 0.45361 0.17453 0.41658
 H105 H 0.47023 0.27133 0.27533
 H106 H 0.45668 0.21213 0.27713
 H107 H 0.49077 0.27954 0.71022
 H108 H 0.47074 0.21939 0.71443
 H109 H 0.50904 0.36178 0.48950
 H110 H 0.44548 0.13163 0.49095
 C111 C 0.71958 0.15050 0.57245
 C112 C 0.70329 0.13797 0.49213
 C113 C 0.72116 0.14920 0.41425
 C114 C 0.75607 0.17514 0.41486
 C115 C 0.77297 0.18932 0.49455
 C116 C 0.75505 0.17630 0.57352
 C117 C 0.77335 0.18920 0.65115
 C118 C 0.80751 0.21588 0.65163
 C119 C 0.82497 0.23151 0.57444
 C120 C 0.80769 0.21703 0.49494
 C121 C 0.77415 0.18808 0.33739
 C122 C 0.80776 0.21535 0.33771
 C123 C 0.82462 0.23075 0.41544
 C124 C 0.85804 0.25964 0.41527
 C125 C 0.87499 0.27339 0.49320
 C126 C 0.85916 0.26063 0.57403
 H127 H 0.76170 0.17859 0.71283
 H128 H 0.81988 0.22352 0.71394
 H129 H 0.76225 0.17772 0.27541
 H130 H 0.82044 0.22437 0.27612
 H131 H 0.67602 0.11946 0.48893
 H132 H 0.89969 0.29667 0.48831
 N133 N 0.94166 0.49488 0.08742
 N134 N 0.91576 0.50011 0.10686
 N135 N 1.01111 0.51965 0.17872
 N136 N 1.03274 0.53539 0.24256
 N137 N 1.01139 0.54223 0.12368
 N138 N 1.03352 0.57423 0.14933
 N139 N 0.94202 0.47189 0.13993
 N140 N 0.91611 0.46040 0.19435
 C141 C 0.89964 0.47770 0.17242
 C142 C 1.04635 0.56925 0.22424
 N143 N 1.03834 0.45168 0.11418
 N144 N 1.06664 0.45188 0.14000
 N145 N 0.95849 0.41738 0.13390
 N146 N 0.93336 0.39349 0.18047
 N147 N 0.96932 0.40317 0.07678
 N148 N 0.95203 0.36907 0.08402
 N149 N 1.02755 0.46507 0.17354
 N150 N 1.04802 0.47462 0.24147
 Mn151 Mn 0.98467 0.46844 0.15690
 C152 C 1.07229 0.46638 0.21962
 C153 C 0.92922 0.36348 0.14793
 N154 N 1.02471 0.55438 -0.06029
 N155 N 1.03841 0.58785 -0.07590
 N156 N 0.96632 0.49171 -0.15553
 N157 N 0.94800 0.48471 -0.22679
 N158 N 0.95593 0.50624 -0.09788
 N159 N 0.93034 0.50988 -0.12970
 N160 N 1.03541 0.54003 -0.11745
 N161 N 1.05719 0.56346 -0.17153
 Mn162 Mn 0.98329 0.52472 0.01339
 C163 C 1.05938 0.59325 -0.14391
 C164 C 0.92552 0.49579 -0.20996
 N165 N 0.98369 0.41543 -0.10527
 N166 N 0.96852 0.38379 -0.13800
 N167 N 1.05224 0.48597 -0.12137
 N168 N 1.08082 0.50173 -0.16641
 N169 N 1.05311 0.46359 -0.06795
 N170 N 1.08238 0.46317 -0.07657
 N171 N 0.98354 0.43743 -0.16137
 N172 N 0.96882 0.42153 -0.23408
 Mn173 Mn 1.01122 0.43315 0.00440
 Mn174 Mn 1.00939 0.48878 -0.13923
 Cl175 Cl 0.99704 0.47876 0.00878
 C176 C 0.95899 0.38809 -0.21805
 C177 C 1.09965 0.48770 -0.13724
 N178 N 0.47621 0.45611 0.10680
 N179 N 0.46830 0.42578 0.14038
 N180 N 0.46130 0.51740 0.11976
 N181 N 0.44383 0.52857 0.16485
 N182 N 0.44068 0.49193 0.06853
 N183 N 0.40847 0.48483 0.07819
 N184 N 0.49612 0.48132 0.15959
 N185 N 0.50184 0.46892 0.23097
 C186 C 0.48481 0.43440 0.21758
 C187 C 0.41098 0.50833 0.13747
 N188 N 0.54840 0.59734 0.04453
 N189 N 0.56123 0.63108 0.05438
 N190 N 0.56119 0.54422 0.14313
 N191 N 0.57602 0.53526 0.20364
 N192 N 0.58311 0.56094 0.08096
 N193 N 0.61352 0.56411 0.09794
 N194 N 0.52570 0.58043 0.10513
 N195 N 0.52180 0.60206 0.15564
 Mn196 Mn 0.51110 0.53093 0.13261
 C197 C 0.54352 0.63348 0.12236
 C198 C 0.60868 0.54803 0.17480
 N199 N 0.44285 0.47833 -0.11252
 N200 N 0.41250 0.47520 -0.13046
 N201 N 0.49985 0.45833 -0.13554
 N202 N 0.50520 0.43653 -0.18162
 N203 N 0.47753 0.44192 -0.07405
 N204 N 0.46677 0.40840 -0.07740
 N205 N 0.46494 0.49487 -0.17452
 N206 N 0.45044 0.50387 -0.23564
 Mn207 Mn 0.45896 0.46671 -0.00270
 C208 C 0.41773 0.49111 -0.20785
 C209 C 0.48482 0.40557 -0.14382
 N210 N 0.58519 0.54726 -0.09951
 N211 N 0.61692 0.55236 -0.10347
 N212 N 0.53004 0.55762 -0.19142
 N213 N 0.52570 0.56979 -0.26496
 N214 N 0.54959 0.58305 -0.13859
 N215 N 0.55864 0.61329 -0.17476
 N216 N 0.56447 0.52135 -0.14952
 N217 N 0.58125 0.50778 -0.18782
 Mn218 Mn 0.56688 0.57258 -0.02839
 Mn219 Mn 0.51484 0.50795 -0.16348
 Cl220 Cl 0.51292 0.51960 -0.01553
 C221 C 0.61382 0.52723 -0.15831
 C222 C 0.54312 0.60439 -0.25330
 N223 N 0.42206 -0.02900 0.10780
 N224 N 0.39043 -0.05042 0.13524
 N225 N 0.47884 0.04718 0.14053
 N226 N 0.48567 0.07406 0.18967
 N227 N 0.45633 0.04298 0.08046
 N228 N 0.44672 0.06655 0.08822
 N229 N 0.44480 -0.02464 0.16745
 N230 N 0.42937 -0.04246 0.23706
 C231 C 0.39565 -0.05895 0.21564
 C232 C 0.46574 0.08612 0.15572
 N233 N 0.56475 0.04750 0.09018
 N234 N 0.59701 0.07114 0.10807
 N235 N 0.51022 -0.02296 0.17116
 N236 N 0.50027 -0.04832 0.22784
 N237 N 0.53173 -0.02410 0.11552
 N238 N 0.53736 -0.04982 0.13322
 N239 N 0.54368 0.04956 0.14566
 N240 N 0.56070 0.07513 0.20045
 Mn241 Mn 0.49441 0.01221 0.15694
 C242 C 0.59376 0.08860 0.17596
 C243 C 0.51767 -0.06466 0.20329
 N244 N 0.45298 0.03136 -0.10451
 N245 N 0.44161 0.05144 -0.13615
 N246 N 0.43818 -0.04461 -0.13066
 N247 N 0.41938 -0.06820 -0.18903
 N248 N 0.41818 -0.04025 -0.07612
 N249 N 0.38547 -0.06038 -0.09708
 N250 N 0.47200 0.02680 -0.16183
 N251 N 0.47374 0.04323 -0.23385
 Mn252 Mn 0.43718 0.00139 0.00191
 C253 C 0.45539 0.05904 -0.21634
 C254 C 0.38656 -0.07840 -0.16592
 N255 N 0.52810 -0.03584 -0.06661
 N256 N 0.53632 -0.06053 -0.06884
 N257 N 0.53774 0.02956 -0.15678
 N258 N 0.55283 0.04403 -0.23013
 N259 N 0.56095 0.03574 -0.09664
 N260 N 0.59241 0.05460 -0.12842
 N261 N 0.50398 -0.04189 -0.12358
 N262 N 0.49483 -0.07094 -0.16548
 Mn263 Mn 0.54682 0.00611 0.01063
 Mn264 Mn 0.48796 -0.00767 -0.14354
 Cl265 Cl 0.49160 0.00313 0.00635
 C266 C 0.51502 -0.08240 -0.13017
 C267 C 0.58678 0.06022 -0.21133
 C268 C 1.16476 0.49572 0.38156
 C269 C 1.15479 0.47296 0.31580
 C270 C 1.12638 0.46679 0.25587
 C271 C 1.10064 0.47246 0.27790
 H272 H 1.16655 0.45703 0.30645
 H273 H 1.12597 0.45574 0.19329
 H274 H 1.15082 0.50947 0.39209
 H275 H 1.09942 0.48150 0.34180
 C276 C 0.51726 0.70430 0.31398
 C277 C 0.53887 0.69364 0.28647
 C278 C 0.52916 0.66867 0.21505
 C279 C 0.55280 0.66568 0.16919
 H280 H 0.56282 0.70124 0.32042
 H281 H 0.50208 0.64988 0.20640
 H282 H 0.49591 0.69959 0.27211
 H283 H 0.57975 0.68526 0.17382
 C284 C 0.29028 -0.15508 0.33509
 C285 C 0.31427 -0.12134 0.33569
 C286 C 0.33692 -0.10350 0.26201
 C287 C 0.36887 -0.07818 0.27980
 H288 H 0.31986 -0.10649 0.39485
 H289 H 0.32887 -0.11225 0.19638
 H290 H 0.28310 -0.16816 0.27336
 H291 H 0.37688 -0.07215 0.34670
 C292 C 0.84309 0.53099 0.33074
 C293 C 0.84670 0.50371 0.31150
 C294 C 0.86704 0.50335 0.23716
 C295 C 0.87231 0.47655 0.22704
 H296 H 0.83613 0.48186 0.35532
 H297 H 0.88051 0.52615 0.19712
 H298 H 0.85248 0.55276 0.28704
 H299 H 0.85968 0.45465 0.27029
 C300 C 0.48626 0.33331 0.33456
 C301 C 0.47586 0.35672 0.33999
 C302 C 0.47768 0.37866 0.26726
 C303 C 0.48186 0.40989 0.28432
 H304 H 0.46742 0.36137 0.40159
 H305 H 0.47725 0.37028 0.20137
 H306 H 0.49448 0.32857 0.27289
 H307 H 0.48503 0.41881 0.35064
 C308 C 0.70226 0.13365 0.33293
 C309 C 0.67413 0.13527 0.31240
 C310 C 0.65195 0.11586 0.23893
 C311 C 0.62187 0.11486 0.22863
 H312 H 0.66611 0.14948 0.35442
 H313 H 0.65821 0.09948 0.20008
 H314 H 0.71135 0.12045 0.29081
 H315 H 0.61536 0.13011 0.27114
 C316 C 0.45454 0.15698 -0.34776
 C317 C 0.43898 0.12237 -0.34177
 C318 C 0.44473 0.10516 -0.26793
 C319 C 0.44687 0.07681 -0.28294
 H320 H 0.42328 0.10573 -0.39367
 H321 H 0.44993 0.11680 -0.20426
 H322 H 0.46810 0.17129 -0.29086
 H323 H 0.44497 0.06761 -0.34866
 C324 C 0.68548 0.53544 -0.34338
 C325 C 0.69808 0.54990 -0.26595
 C326 C 0.67441 0.55004 -0.19943
 C327 C 0.64221 0.52346 -0.19267
 H328 H 0.72553 0.56609 -0.25581
 H329 H 0.68228 0.57374 -0.16371
 H330 H 0.65818 0.52574 -0.35391
 H331 H 0.63492 0.49960 -0.22715
 C332 C 0.87556 0.27924 -0.34905
 C333 C 0.90876 0.30427 -0.34387
 C334 C 0.92228 0.32823 -0.27006
 C335 C 0.94486 0.36144 -0.28536
 H336 H 0.92655 0.30946 -0.39616
 H337 H 0.91232 0.31958 -0.20571
 H338 H 0.86037 0.27523 -0.29172
 H339 H 0.95193 0.37008 -0.35137
 C340 C 0.46481 -0.18451 -0.30756
 C341 C 0.49201 -0.16240 -0.26066
 C342 C 0.48887 -0.13796 -0.20289
 C343 C 0.51616 -0.11279 -0.16230
 H344 H 0.51743 -0.15831 -0.27571
 H345 H 0.46466 -0.13784 -0.20212
 H346 H 0.44001 -0.18651 -0.29530
 H347 H 0.54030 -0.11294 -0.15954
 C348 C 0.34182 0.49265 -0.38474
 C349 C 0.33281 0.47743 -0.30697
 C350 C 0.35814 0.47525 -0.24861
 C351 C 0.39231 0.49613 -0.25580
 H352 H 0.30600 0.46282 -0.28867
 H353 H 0.34821 0.45511 -0.20016
 H354 H 0.36779 0.50086 -0.40573
 H355 H 0.40294 0.51713 -0.30160
 C356 C 1.14474 0.67550 -0.34292
 C357 C 1.11199 0.65807 -0.31640
 C358 C 1.10155 0.63195 -0.24814
 C359 C 1.07534 0.62502 -0.19555
 H360 H 1.09252 0.66258 -0.34563
 H361 H 1.11434 0.61670 -0.24445
 H362 H 1.16379 0.67312 -0.30478
 H363 H 1.06379 0.64142 -0.19523
 C364 C 0.84445 0.52612 -0.35236
 C365 C 0.86421 0.51123 -0.35057
 C366 C 0.88343 0.51105 -0.27291
 C367 C 0.90165 0.49473 -0.27687
 H368 H 0.86594 0.49789 -0.40714
 H369 H 0.88401 0.52522 -0.21545
 H370 H 0.84111 0.53632 -0.29208
 H371 H 0.90087 0.48118 -0.33577
 C372 C 0.51104 0.34179 -0.35545
 C373 C 0.48976 0.34059 -0.29354
 C374 C 0.49970 0.37138 -0.23937
 C375 C 0.47849 0.37238 -0.18041
 H376 H 0.46371 0.31890 -0.29027
 H377 H 0.52362 0.39484 -0.25370
 H378 H 0.53625 0.36470 -0.36089
 H379 H 0.45490 0.34903 -0.16363
 C380 C 0.69845 0.13827 -0.34681
 C381 C 0.67007 0.10707 -0.34080
 C382 C 0.64650 0.09659 -0.26630
 C383 C 0.61303 0.07442 -0.27948
 H384 H 0.66278 0.08879 -0.39357
 H385 H 0.65606 0.10727 -0.20275
 H386 H 0.70509 0.15588 -0.29273
 H387 H 0.60393 0.06614 -0.34487
 C388 C 1.18670 0.50713 -0.31438
 C389 C 1.17087 0.52571 -0.30175
 C390 C 1.14895 0.52272 -0.22789
 C391 C 1.13192 0.49435 -0.17911
 H392 H 1.17238 0.54361 -0.35115
 H393 H 1.14139 0.54237 -0.22519
 H394 H 1.18955 0.49337 -0.26041
 H395 H 1.13845 0.47399 -0.17989
 C396 C 0.53346 0.69928 -0.37663
 C397 C 0.54842 0.67956 -0.38227
 C398 C 0.54861 0.65884 -0.30821
 C399 C 0.54703 0.62854 -0.32250
 H400 H 0.55945 0.67675 -0.44145
 H401 H 0.54711 0.66676 -0.24295
 H402 H 0.52381 0.69997 -0.31348
 H403 H 0.54537 0.61950 -0.38829
 C404 C 0.30945 -0.16941 -0.36327
 C405 C 0.32901 -0.13564 -0.34545
 C406 C 0.35446 -0.12292 -0.27520
 C407 C 0.35693 -0.09794 -0.22314
 H408 H 0.32538 -0.11669 -0.38083
 H409 H 0.37225 -0.13269 -0.26917
 H410 H 0.31058 -0.18764 -0.31914
 H411 H 0.33755 -0.09010 -0.22606
 C412 C 0.46290 -0.16831 0.38504
 C413 C 0.49000 -0.14528 0.33985
 C414 C 0.48921 -0.11680 0.29356
 C415 C 0.51607 -0.09479 0.24624
 H416 H 0.51407 -0.14561 0.34338
 H417 H 0.46705 -0.11319 0.30009
 H418 H 0.43960 -0.16649 0.38551
 H419 H 0.53747 -0.09940 0.23672
 C420 C 0.32989 0.50383 0.31081
 C421 C 0.36132 0.53112 0.29839
 C422 C 0.38597 0.53363 0.23197
 C423 C 0.38123 0.50795 0.17863
 H424 H 0.37165 0.55142 0.34686
 H425 H 0.41127 0.55647 0.23600
 H426 H 0.31766 0.48333 0.26362
 H427 H 0.35635 0.48494 0.17138
 C428 C 1.12396 0.68533 0.35257
 C429 C 1.11204 0.65146 0.34077
 C430 C 1.08658 0.62991 0.27427
 C431 C 1.07330 0.59565 0.27966
 H432 H 1.12049 0.63844 0.38560
 H433 H 1.07798 0.64130 0.22533
 H434 H 1.11723 0.69970 0.30782
 H435 H 1.08205 0.58540 0.33126
 C436 C 0.45302 0.15538 0.33788
 C437 C 0.48274 0.16293 0.29956
 C438 C 0.48677 0.13787 0.24552
 C439 C 0.46200 0.11423 0.19469
 H440 H 0.50622 0.18558 0.32094
 H441 H 0.51124 0.13847 0.25032
 H442 H 0.43006 0.13081 0.32514
 H443 H 0.43834 0.11476 0.18374
 C444 C 0.68503 0.53894 0.34664
 C445 C 0.65096 0.51698 0.34089
 C446 C 0.62681 0.52031 0.28203
 C447 C 0.63550 0.54430 0.22066
 H448 H 0.63895 0.49671 0.38872
 H449 H 0.59974 0.50262 0.29408
 H450 H 0.69840 0.55895 0.29916
 H451 H 0.66212 0.56154 0.20395
 C452 C 0.87472 0.27982 0.33645
 C453 C 0.86021 0.29536 0.29319
 C454 C 0.87987 0.32517 0.23595
 C455 C 0.90644 0.32962 0.18726
 H456 H 0.83478 0.29026 0.31193
 H457 H 0.87266 0.34508 0.23703
 H458 H 0.90161 0.28786 0.32599
 H459 H 0.91262 0.30912 0.18008
   
