data_POSCAR
  _audit_creation_date              2014-09-24
  _audit_creation_method            'ToBaCCo'
  _symmetry_space_group_name_H-M    'P1'
  _symmetry_Int_Tables_number       1
  _symmetry_cell_setting            triclinic
  loop_
  _symmetry_equiv_pos_as_xyz
 x,y,z
_cell_length_a 70.2768
_cell_length_b 69.2890
_cell_length_c 70.3128
_cell_angle_alpha 89.943200
_cell_angle_beta 89.996200
_cell_angle_gamma 90.027500
loop_
  _atom_site_label
  _atom_site_type_symbol
  _atom_site_fract_x
  _atom_site_fract_y
  _atom_site_fract_z
N1 N 0.60300 0.65569 0.61700
 N2 N 0.59579 0.64800 0.63253
 C3 C 0.58032 0.65818 0.63778
 C4 C 0.57786 0.67293 0.62485
 C5 C 0.59241 0.67102 0.61186
 H6 H 0.57151 0.65515 0.65003
 H7 H 0.59506 0.68008 0.59961
 Cu8 Cu 0.60729 0.62543 0.64432
 Cu9 Cu 0.62554 0.64528 0.60462
 Cu10 Cu 0.64591 0.60460 0.62491
 N11 N 0.61864 0.60236 0.65530
 N12 N 0.63375 0.59428 0.64763
 C13 C 0.63868 0.57867 0.65793
 C14 C 0.62596 0.57698 0.67274
 C15 C 0.61342 0.59213 0.67076
 H16 H 0.65060 0.56929 0.65489
 H17 H 0.60145 0.59542 0.67988
 N18 N 0.65614 0.61715 0.60192
 N19 N 0.64838 0.63265 0.59419
 C20 C 0.65858 0.63777 0.57875
 C21 C 0.67335 0.62488 0.57680
 C22 C 0.67149 0.61200 0.59161
 H23 H 0.65555 0.64994 0.56962
 H24 H 0.68065 0.59984 0.59461
 H25 H 0.62165 0.61720 0.61382
 H26 H 0.63738 0.63289 0.62861
 N27 N 0.89748 0.34396 0.11687
 N28 N 0.90472 0.35161 0.13239
 C29 C 0.92015 0.34137 0.13766
 C30 C 0.92254 0.32664 0.12473
 C31 C 0.90802 0.32860 0.11172
 H32 H 0.92898 0.34436 0.14991
 H33 H 0.90532 0.31957 0.09947
 Cu34 Cu 0.89329 0.37420 0.14417
 Cu35 Cu 0.87498 0.35448 0.10449
 Cu36 Cu 0.85476 0.39521 0.12474
 N37 N 0.88203 0.39731 0.15512
 N38 N 0.86696 0.40545 0.14744
 C39 C 0.86210 0.42107 0.15773
 C40 C 0.87482 0.42272 0.17255
 C41 C 0.88728 0.40750 0.17057
 H42 H 0.85023 0.43052 0.15469
 H43 H 0.89922 0.40417 0.17970
 N44 N 0.84449 0.38273 0.10176
 N45 N 0.85219 0.36721 0.09404
 C46 C 0.84196 0.36214 0.07862
 C47 C 0.82724 0.37509 0.07665
 C48 C 0.82916 0.38794 0.09144
 H49 H 0.84494 0.34996 0.06949
 H50 H 0.82004 0.40013 0.09444
 H51 H 0.87898 0.38254 0.11367
 H52 H 0.86319 0.36688 0.12847
 N53 N 0.39730 0.15590 -0.11691
 N54 N 0.40475 0.14798 -0.13219
 C55 C 0.42022 0.15818 -0.13745
 C56 C 0.42244 0.17317 -0.12477
 C57 C 0.40775 0.17139 -0.11192
 H58 H 0.42921 0.15499 -0.14953
 H59 H 0.40490 0.18064 -0.09988
 Cu60 Cu 0.39347 0.12512 -0.14363
 Cu61 Cu 0.37465 0.14556 -0.10460
 Cu62 Cu 0.35433 0.10480 -0.12479
 N63 N 0.38196 0.10227 -0.15484
 N64 N 0.36664 0.09439 -0.14738
 C65 C 0.36162 0.07889 -0.15777
 C66 C 0.37448 0.07705 -0.17243
 C67 C 0.38721 0.09202 -0.17025
 H68 H 0.34953 0.06966 -0.15489
 H69 H 0.39932 0.09516 -0.17923
 N70 N 0.34398 0.11745 -0.10193
 N71 N 0.35172 0.13298 -0.09424
 C72 C 0.34145 0.13815 -0.07888
 C73 C 0.32666 0.12526 -0.07692
 C74 C 0.32859 0.11234 -0.09166
 H75 H 0.34445 0.15034 -0.06978
 H76 H 0.31945 0.10015 -0.09463
 H77 H 0.37842 0.11735 -0.11332
 H78 H 0.36317 0.13300 -0.12865
 N79 N 0.10260 0.84376 0.38304
 N80 N 0.09536 0.85143 0.36751
 C81 C 0.07992 0.84118 0.36226
 C82 C 0.07753 0.82643 0.37520
 C83 C 0.09206 0.82839 0.38820
 H84 H 0.07109 0.84419 0.35001
 H85 H 0.09476 0.81934 0.40045
 Cu86 Cu 0.10679 0.87404 0.35571
 Cu87 Cu 0.12512 0.85427 0.39540
 Cu88 Cu 0.14535 0.89504 0.37511
 N89 N 0.11806 0.89716 0.34474
 N90 N 0.13314 0.90530 0.35240
 C91 C 0.13801 0.92094 0.34210
 C92 C 0.12528 0.92260 0.32729
 C93 C 0.11281 0.90738 0.32929
 H94 H 0.14988 0.93038 0.34513
 H95 H 0.10086 0.90405 0.32017
 N96 N 0.15563 0.88253 0.39809
 N97 N 0.14792 0.86700 0.40582
 C98 C 0.15815 0.86191 0.42124
 C99 C 0.17288 0.87487 0.42319
 C100 C 0.17097 0.88774 0.40839
 H101 H 0.15517 0.84972 0.43038
 H102 H 0.18009 0.89993 0.40538
 H103 H 0.12113 0.88234 0.38620
 H104 H 0.13690 0.86671 0.37140
 N105 N 0.10209 0.15585 0.11640
 N106 N 0.09442 0.14771 0.13148
 C107 C 0.07897 0.15792 0.13674
 C108 C 0.07698 0.17314 0.12427
 C109 C 0.09180 0.17149 0.11155
 H110 H 0.06985 0.15458 0.14869
 H111 H 0.09484 0.18094 0.09967
 Cu112 Cu 0.10538 0.12459 0.14275
 Cu113 Cu 0.12479 0.14560 0.10419
 Cu114 Cu 0.14507 0.10485 0.12442
 N115 N 0.11718 0.10198 0.15418
 N116 N 0.13270 0.09434 0.14694
 C117 C 0.13785 0.07897 0.15748
 C118 C 0.12486 0.07698 0.17202
 C119 C 0.11193 0.09173 0.16961
 H120 H 0.15010 0.06993 0.15480
 H121 H 0.09968 0.09471 0.17844
 N122 N 0.15550 0.11758 0.10162
 N123 N 0.14777 0.13311 0.09391
 C124 C 0.15808 0.13831 0.07857
 C125 C 0.17287 0.12545 0.07665
 C126 C 0.17092 0.11250 0.09139
 H127 H 0.15507 0.15051 0.06945
 H128 H 0.18004 0.10031 0.09437
 H129 H 0.12107 0.11727 0.11265
 H130 H 0.13589 0.13291 0.12840
 N131 N 0.39666 0.84361 0.61724
 N132 N 0.40390 0.85126 0.63275
 C133 C 0.41934 0.84104 0.63800
 C134 C 0.42177 0.82631 0.62507
 C135 C 0.40722 0.82827 0.61209
 H136 H 0.42818 0.84404 0.65023
 H137 H 0.40455 0.81924 0.59983
 Cu138 Cu 0.39246 0.87385 0.64454
 Cu139 Cu 0.37415 0.85411 0.60485
 Cu140 Cu 0.35392 0.89483 0.62509
 N141 N 0.38119 0.89696 0.65547
 N142 N 0.36612 0.90509 0.64779
 C143 C 0.36127 0.92073 0.65806
 C144 C 0.37399 0.92239 0.67287
 C145 C 0.38645 0.90717 0.67090
 H146 H 0.34940 0.93017 0.65501
 H147 H 0.39841 0.90386 0.68002
 N148 N 0.34364 0.88234 0.60212
 N149 N 0.35135 0.86682 0.59441
 C150 C 0.34113 0.86175 0.57898
 C151 C 0.32641 0.87469 0.57701
 C152 C 0.32832 0.88755 0.59180
 H153 H 0.34412 0.84957 0.56986
 H154 H 0.31920 0.89974 0.59479
 H155 H 0.37815 0.88217 0.61403
 H156 H 0.36235 0.86651 0.62883
 N157 N 0.89787 0.65557 0.38345
 N158 N 0.90556 0.64746 0.36838
 C159 C 0.92101 0.65768 0.36314
 C160 C 0.92300 0.67288 0.37561
 C161 C 0.90817 0.67120 0.38832
 H162 H 0.93014 0.65437 0.35120
 H163 H 0.90512 0.68062 0.40019
 Cu164 Cu 0.89460 0.62435 0.35711
 Cu165 Cu 0.87515 0.64528 0.39563
 Cu166 Cu 0.85489 0.60455 0.37539
 N167 N 0.88282 0.60175 0.34567
 N168 N 0.86728 0.59408 0.35290
 C169 C 0.86214 0.57873 0.34235
 C170 C 0.87515 0.57678 0.32782
 C171 C 0.88808 0.59153 0.33024
 H172 H 0.84989 0.56967 0.34502
 H173 H 0.90033 0.59455 0.32143
 N174 N 0.84444 0.61723 0.39818
 N175 N 0.85216 0.63275 0.40589
 C176 C 0.84184 0.63793 0.42122
 C177 C 0.82703 0.62505 0.42312
 C178 C 0.82900 0.61213 0.40840
 H179 H 0.84484 0.65011 0.43034
 H180 H 0.81987 0.59994 0.40541
 H181 H 0.87888 0.61697 0.38719
 H182 H 0.86408 0.63262 0.37142
 N183 N 0.60273 0.34495 -0.11667
 N184 N 0.59507 0.35307 -0.13176
 C185 C 0.57962 0.34284 -0.13700
 C186 C 0.57763 0.32763 -0.12451
 C187 C 0.59244 0.32932 -0.11178
 H188 H 0.57051 0.34614 -0.14896
 H189 H 0.59547 0.31989 -0.09990
 Cu190 Cu 0.60604 0.37617 -0.14307
 Cu191 Cu 0.62544 0.35524 -0.10448
 Cu192 Cu 0.64574 0.39596 -0.12478
 N193 N 0.61785 0.39876 -0.15454
 N194 N 0.63338 0.40642 -0.14731
 C195 C 0.63855 0.42176 -0.15790
 C196 C 0.62556 0.42371 -0.17245
 C197 C 0.61262 0.40898 -0.17000
 H198 H 0.65081 0.43080 -0.15524
 H199 H 0.60038 0.40596 -0.17883
 N200 N 0.65616 0.38327 -0.10196
 N201 N 0.64843 0.36775 -0.09422
 C202 C 0.65873 0.36257 -0.07888
 C203 C 0.67354 0.37544 -0.07699
 C204 C 0.67159 0.38837 -0.09174
 H205 H 0.65573 0.35038 -0.06975
 H206 H 0.68073 0.40055 -0.09475
 H207 H 0.62173 0.38355 -0.11298
 H208 H 0.63654 0.36789 -0.12872
 C209 C -0.06361 0.31295 0.12479
 C210 C -0.05134 0.30080 0.12484
 C211 C -0.03671 0.28628 0.12487
 C212 C -0.04091 0.26745 0.11904
 C213 C -0.02671 0.25332 0.11905
 C214 C -0.00809 0.25786 0.12489
 C215 C -0.00401 0.27684 0.13073
 C216 C -0.01824 0.29094 0.13072
 C217 C 0.00702 0.24287 0.12487
 C218 C 0.02557 0.24736 0.11874
 C219 C 0.03975 0.23322 0.11867
 C220 C 0.03561 0.21444 0.12473
 C221 C 0.01722 0.20984 0.13088
 C222 C 0.00301 0.22395 0.13095
 C223 C 0.05021 0.19988 0.12459
 C224 C 0.06244 0.18768 0.12446
 H225 H -0.05515 0.26369 0.11444
 H226 H -0.03024 0.23892 0.11425
 H227 H 0.01012 0.28073 0.13553
 H228 H -0.01484 0.30546 0.13531
 H229 H 0.02903 0.26172 0.11374
 H230 H 0.05393 0.23692 0.11382
 H231 H 0.01388 0.19535 0.13565
 H232 H -0.01106 0.22011 0.13598
 C233 C 0.56318 0.68734 0.62492
 C234 C 0.55086 0.69943 0.62497
 C235 C 0.53616 0.71389 0.62502
 C236 C 0.53909 0.73154 0.61578
 C237 C 0.52483 0.74559 0.61582
 C238 C 0.50740 0.74216 0.62510
 C239 C 0.50460 0.72436 0.63434
 C240 C 0.51889 0.71033 0.63430
 C241 C 0.49223 0.75708 0.62513
 C242 C 0.47303 0.75182 0.62273
 C243 C 0.45876 0.76588 0.62273
 C244 C 0.46347 0.78534 0.62515
 C245 C 0.48251 0.79072 0.62756
 C246 C 0.49681 0.77670 0.62755
 C247 C 0.44877 0.79980 0.62513
 C248 C 0.43645 0.81190 0.62511
 H249 H 0.55239 0.73442 0.60851
 H250 H 0.52733 0.75904 0.60837
 H251 H 0.49145 0.72138 0.64182
 H252 H 0.51649 0.69673 0.64154
 H253 H 0.46908 0.73688 0.62059
 H254 H 0.44407 0.76156 0.62080
 H255 H 0.48631 0.80575 0.62949
 H256 H 0.51142 0.78117 0.62967
 C257 C 1.06368 0.81274 0.37515
 C258 C 1.05140 0.80059 0.37511
 C259 C 1.03676 0.78606 0.37508
 C260 C 1.01832 0.79070 0.36912
 C261 C 1.00408 0.77659 0.36912
 C262 C 1.00812 0.75763 0.37506
 C263 C 1.02672 0.75312 0.38101
 C264 C 1.04093 0.76725 0.38102
 C265 C 0.99301 0.74263 0.37508
 C266 C 0.99704 0.72369 0.36911
 C267 C 0.98282 0.70958 0.36917
 C268 C 0.96440 0.71419 0.37520
 C269 C 0.96024 0.73298 0.38116
 C270 C 0.97444 0.74712 0.38109
 C271 C 0.94979 0.69963 0.37532
 C272 C 0.93756 0.68743 0.37544
 H273 H 1.01496 0.80520 0.36444
 H274 H 0.98998 0.78045 0.36422
 H275 H 1.03022 0.73873 0.38591
 H276 H 1.05514 0.76352 0.38572
 H277 H 1.01113 0.71985 0.36416
 H278 H 0.98618 0.69508 0.36448
 H279 H 0.94604 0.73669 0.38591
 H280 H 0.97095 0.76150 0.38601
 C281 C 0.43708 0.18764 -0.12490
 C282 C 0.44936 0.19979 -0.12499
 C283 C 0.46401 0.21430 -0.12505
 C284 C 0.48221 0.20992 -0.11824
 C285 C 0.49644 0.22403 -0.11823
 C286 C 0.49265 0.24273 -0.12507
 C287 C 0.47430 0.24698 -0.13191
 C288 C 0.46009 0.23285 -0.13189
 C289 C 0.50774 0.25775 -0.12502
 C290 C 0.50971 0.27053 -0.14046
 C291 C 0.52391 0.28468 -0.14038
 C292 C 0.53630 0.28625 -0.12488
 C293 C 0.53446 0.27361 -0.10946
 C294 C 0.52029 0.25945 -0.10951
 C295 C 0.55088 0.30085 -0.12479
 C296 C 0.56308 0.31307 -0.12468
 H297 H 0.48542 0.19559 -0.11296
 H298 H 0.51048 0.22024 -0.11310
 H299 H 0.47086 0.26130 -0.13703
 H300 H 0.44603 0.23642 -0.13715
 H301 H 0.50044 0.26943 -0.15271
 H302 H 0.52524 0.29435 -0.15242
 H303 H 0.54394 0.27475 -0.09736
 H304 H 0.51897 0.25000 -0.09730
 C305 C 0.12510 -0.06286 0.31272
 C306 C 0.12498 -0.05066 0.30049
 C307 C 0.12485 -0.03611 0.28587
 C308 C 0.12555 -0.01656 0.29077
 C309 C 0.12548 -0.00241 0.27658
 C310 C 0.12474 -0.00766 0.25726
 C311 C 0.12403 -0.02737 0.25248
 C312 C 0.12408 -0.04148 0.26670
 C313 C 0.12473 0.00735 0.24216
 C314 C 0.13537 0.00476 0.22541
 C315 C 0.13538 0.01891 0.21121
 C316 C 0.12474 0.03581 0.21355
 C317 C 0.11410 0.03852 0.23016
 C318 C 0.11409 0.02441 0.24438
 C319 C 0.12476 0.05035 0.19893
 C320 C 0.12480 0.06251 0.18666
 H321 H 0.12620 -0.01224 0.30557
 H322 H 0.12628 0.01262 0.28070
 H323 H 0.12319 -0.03186 0.23776
 H324 H 0.12349 -0.05658 0.26275
 H325 H 0.14391 -0.00808 0.22339
 H326 H 0.14371 0.01668 0.19844
 H327 H 0.10577 0.05153 0.23209
 H328 H 0.10555 0.02671 0.25699
 C329 C 0.62584 0.56322 -0.31347
 C330 C 0.62577 0.55102 -0.30123
 C331 C 0.62571 0.53647 -0.28662
 C332 C 0.60900 0.53251 -0.27651
 C333 C 0.60894 0.51839 -0.26228
 C334 C 0.62563 0.50805 -0.25797
 C335 C 0.64235 0.51215 -0.26823
 C336 C 0.64237 0.52626 -0.28246
 C337 C 0.62560 0.49309 -0.24283
 C338 C 0.64107 0.49139 -0.23023
 C339 C 0.64103 0.47731 -0.21598
 C340 C 0.62555 0.46473 -0.21413
 C341 C 0.61010 0.46629 -0.22658
 C342 C 0.61011 0.48037 -0.24084
 C343 C 0.62553 0.45025 -0.19944
 C344 C 0.62554 0.43813 -0.18713
 H345 H 0.59604 0.54037 -0.27958
 H346 H 0.59591 0.51576 -0.25448
 H347 H 0.65535 0.50427 -0.26542
 H348 H 0.65537 0.52917 -0.29023
 H349 H 0.65309 0.50112 -0.23124
 H350 H 0.65304 0.47627 -0.20637
 H351 H 0.59807 0.45659 -0.22531
 H352 H 0.59810 0.48115 -0.25047
 C353 C 0.37460 1.06253 0.81301
 C354 C 0.37467 1.05033 0.80080
 C355 C 0.37472 1.03576 0.78623
 C356 C 0.36921 1.01685 0.79057
 C357 C 0.36922 1.00269 0.77642
 C358 C 0.37473 1.00727 0.75771
 C359 C 0.38026 1.02633 0.75349
 C360 C 0.38025 1.04047 0.76767
 C361 C 0.37469 0.99225 0.74265
 C362 C 0.36823 0.99660 0.72419
 C363 C 0.36813 0.98243 0.71005
 C364 C 0.37450 0.96376 0.71414
 C365 C 0.38098 0.95929 0.73244
 C366 C 0.38107 0.97342 0.74661
 C367 C 0.37435 0.94917 0.69958
 C368 C 0.37420 0.93695 0.68739
 H369 H 0.36485 1.01307 0.80487
 H370 H 0.36465 0.98822 0.78005
 H371 H 0.38481 1.03025 0.73929
 H372 H 0.38460 1.05505 0.76417
 H373 H 0.36299 1.01088 0.72076
 H374 H 0.36303 0.98603 0.69594
 H375 H 0.38599 0.94488 0.73575
 H376 H 0.38636 0.96969 0.76060
 C377 C 0.87499 0.43724 0.18710
 C378 C 0.87512 0.44943 0.19933
 C379 C 0.87524 0.46396 0.21393
 C380 C 0.86939 0.48279 0.20975
 C381 C 0.86945 0.49691 0.22394
 C382 C 0.87536 0.49236 0.24254
 C383 C 0.88123 0.47338 0.24659
 C384 C 0.88117 0.45929 0.23237
 C385 C 0.87536 0.50733 0.25765
 C386 C 0.86930 0.50281 0.27620
 C387 C 0.86928 0.51691 0.29041
 C388 C 0.87532 0.53570 0.28628
 C389 C 0.88140 0.54034 0.26788
 C390 C 0.88142 0.52627 0.25365
 C391 C 0.87528 0.55020 0.30091
 C392 C 0.87523 0.56234 0.31318
 H393 H 0.86472 0.48655 0.19554
 H394 H 0.86462 0.51132 0.22044
 H395 H 0.88609 0.46948 0.26069
 H396 H 0.88578 0.44476 0.23575
 H397 H 0.86432 0.48844 0.27967
 H398 H 0.86449 0.51318 0.30459
 H399 H 0.88616 0.55483 0.26454
 H400 H 0.88640 0.53013 0.23957
 C401 C 0.31220 0.12529 -0.06249
 C402 C 0.30006 0.12532 -0.05037
 C403 C 0.28557 0.12536 -0.03591
 C404 C 0.27159 0.11098 -0.03572
 C405 C 0.25750 0.11101 -0.02168
 C406 C 0.25723 0.12545 -0.00762
 C407 C 0.27136 0.13984 -0.00794
 C408 C 0.28542 0.13979 -0.02200
 C409 C 0.24228 0.12549 0.00732
 C410 C 0.24686 0.13002 0.02628
 C411 C 0.23278 0.13003 0.04033
 C412 C 0.21395 0.12552 0.03563
 C413 C 0.20924 0.12100 0.01681
 C414 C 0.22329 0.12097 0.00274
 C415 C 0.19947 0.12551 0.05010
 C416 C 0.18733 0.12549 0.06222
 H417 H 0.27160 0.09971 -0.04640
 H418 H 0.24698 0.09959 -0.02167
 H419 H 0.27139 0.15129 0.00254
 H420 H 0.29615 0.15103 -0.02205
 H421 H 0.26137 0.13331 0.03029
 H422 H 0.23659 0.13349 0.05486
 H423 H 0.19469 0.11754 0.01301
 H424 H 0.21927 0.11766 -0.01176
 C425 C 0.68778 0.62489 0.56233
 C426 C 0.69989 0.62491 0.55019
 C427 C 0.71436 0.62493 0.53571
 C428 C 0.70998 0.63099 0.51723
 C429 C 0.72402 0.63102 0.50315
 C430 C 0.74267 0.62499 0.50738
 C431 C 0.74693 0.61894 0.52601
 C432 C 0.73285 0.61891 0.54007
 C433 C 0.75761 0.62502 0.49244
 C434 C 0.77625 0.63111 0.49667
 C435 C 0.79030 0.63113 0.48259
 C436 C 0.78594 0.62506 0.46412
 C437 C 0.76746 0.61897 0.45977
 C438 C 0.75338 0.61895 0.47382
 C439 C 0.80042 0.62506 0.44966
 C440 C 0.81256 0.62506 0.43754
 H441 H 0.69571 0.63573 0.51371
 H442 H 0.72036 0.63599 0.48901
 H443 H 0.76108 0.61398 0.52966
 H444 H 0.73639 0.61414 0.55432
 H445 H 0.77989 0.63610 0.51079
 H446 H 0.80455 0.63592 0.48610
 H447 H 0.76394 0.61419 0.44553
 H448 H 0.73924 0.61395 0.47018
 C449 C 0.81282 0.37514 0.06218
 C450 C 0.80071 0.37518 0.05004
 C451 C 0.78625 0.37522 0.03555
 C452 C 0.78663 0.36142 0.02104
 C453 C 0.77257 0.36143 0.00697
 C454 C 0.75793 0.37528 0.00723
 C455 C 0.75769 0.38911 0.02188
 C456 C 0.77175 0.38906 0.03594
 C457 C 0.74299 0.37531 -0.00770
 C458 C 0.73640 0.39279 -0.01550
 C459 C 0.72234 0.39280 -0.02956
 C460 C 0.71465 0.37536 -0.03601
 C461 C 0.72109 0.35789 -0.02835
 C462 C 0.73517 0.35785 -0.01430
 C463 C 0.70016 0.37538 -0.05047
 C464 C 0.68802 0.37540 -0.06258
 H465 H 0.79781 0.35067 0.02058
 H466 H 0.77329 0.35076 -0.00425
 H467 H 0.74648 0.39980 0.02262
 H468 H 0.77130 0.39977 0.04714
 H469 H 0.74231 0.40645 -0.01090
 H470 H 0.71749 0.40640 -0.03543
 H471 H 0.71519 0.34431 -0.03320
 H472 H 0.73975 0.34418 -0.00841
 C473 C 0.18732 0.87490 0.43765
 C474 C 0.19944 0.87492 0.44978
 C475 C 0.21391 0.87493 0.46426
 C476 C 0.20912 0.87903 0.48315
 C477 C 0.22317 0.87904 0.49723
 C478 C 0.24222 0.87491 0.49259
 C479 C 0.24688 0.87080 0.47355
 C480 C 0.23281 0.87082 0.45950
 C481 C 0.25715 0.87488 0.50754
 C482 C 0.27147 0.86070 0.50761
 C483 C 0.28551 0.86067 0.52170
 C484 C 0.28544 0.87482 0.53589
 C485 C 0.27127 0.88900 0.53595
 C486 C 0.25721 0.88904 0.52188
 C487 C 0.29990 0.87478 0.55038
 C488 C 0.31200 0.87474 0.56253
 H489 H 0.19452 0.88218 0.48700
 H490 H 0.21908 0.88200 0.51178
 H491 H 0.26145 0.86782 0.46949
 H492 H 0.23668 0.86768 0.44491
 H493 H 0.27167 0.84946 0.49692
 H494 H 0.29639 0.84960 0.52155
 H495 H 0.27111 0.90005 0.54684
 H496 H 0.24653 0.90030 0.52208
   
