data_POSCAR
  _audit_creation_date              2014-09-24
  _audit_creation_method            'ToBaCCo'
  _symmetry_space_group_name_H-M    'P1'
  _symmetry_Int_Tables_number       1
  _symmetry_cell_setting            triclinic
  loop_
  _symmetry_equiv_pos_as_xyz
 x,y,z
_cell_length_a 44.3323
_cell_length_b 46.0815
_cell_length_c 45.2169
_cell_angle_alpha 86.843700
_cell_angle_beta 89.176600
_cell_angle_gamma 87.374400
loop_
  _atom_site_label
  _atom_site_type_symbol
  _atom_site_fract_x
  _atom_site_fract_y
  _atom_site_fract_z
C1 C 0.28640 0.28110 0.23028
 H2 H 0.28749 0.28167 0.25413
 C3 C 0.30615 0.29725 0.21229
 H4 H 0.32259 0.30996 0.22259
 C5 C 0.26430 0.26277 0.18810
 H6 H 0.24789 0.24941 0.17873
 C7 C 0.28380 0.27828 0.16934
 H8 H 0.28232 0.27663 0.14561
 N9 N 0.26596 0.26437 0.21797
 C10 C 0.18905 0.25414 0.27873
 H11 H 0.18756 0.23073 0.28011
 C12 C 0.16848 0.27132 0.29452
 H13 H 0.15119 0.26102 0.30802
 C14 C 0.21350 0.29595 0.25970
 H15 H 0.23094 0.30553 0.24595
 C16 C 0.19356 0.31395 0.27540
 H17 H 0.19576 0.33726 0.27318
 Zn18 Zn 0.24032 0.24188 0.24298
 N19 N 0.21134 0.26655 0.26209
 C20 C 0.25566 0.21930 0.30090
 N21 N 0.26457 0.22081 0.27197
 C22 C 0.29121 0.20792 0.26330
 C23 C 0.30977 0.19232 0.28391
 C24 C 0.27325 0.20371 0.32215
 C25 C 0.19014 0.21858 0.21553
 C26 C 0.17544 0.19930 0.19851
 C27 C 0.22355 0.17453 0.18932
 C28 C 0.23722 0.19400 0.20695
 N29 N 0.22044 0.21541 0.21983
 H30 H 0.23490 0.23011 0.30776
 H31 H 0.29828 0.20998 0.24032
 H32 H 0.33051 0.18217 0.27591
 H33 H 0.26538 0.20268 0.34498
 H34 H 0.17727 0.23640 0.22480
 H35 H 0.15145 0.20305 0.19533
 H36 H 0.23748 0.15774 0.17924
 H37 H 0.26134 0.19219 0.21004
 C38 C 0.17104 0.30153 0.29354
 C39 C 0.30490 0.29593 0.18135
 C40 C 0.19216 0.17666 0.18516
 C41 C 0.30077 0.18991 0.31396
 C42 C 0.77774 0.78884 0.22927
 H43 H 0.77957 0.79052 0.25294
 C44 C 0.79573 0.80544 0.20994
 H45 H 0.81145 0.81923 0.21971
 C46 C 0.75506 0.76772 0.18906
 H47 H 0.73886 0.75332 0.18100
 C48 C 0.77299 0.78348 0.16888
 H49 H 0.77036 0.78067 0.14542
 N50 N 0.75774 0.77066 0.21863
 C51 C 0.69012 0.76609 0.28953
 H52 H 0.69077 0.74306 0.29578
 C53 C 0.67155 0.78527 0.30522
 H54 H 0.65774 0.77665 0.32326
 C55 C 0.70664 0.80489 0.25770
 H56 H 0.72011 0.81249 0.23900
 C57 C 0.68821 0.82479 0.27263
 H58 H 0.68788 0.84762 0.26545
 Zn59 Zn 0.73416 0.74963 0.24684
 N60 N 0.70773 0.77618 0.26664
 C61 C 0.75931 0.73512 0.30380
 N62 N 0.76124 0.73001 0.27447
 C63 C 0.78340 0.71177 0.26402
 C64 C 0.80382 0.69689 0.28334
 C65 C 0.77912 0.72066 0.32393
 C66 C 0.68031 0.72391 0.23043
 C67 C 0.66283 0.70435 0.21655
 C68 C 0.70847 0.68220 0.19645
 C69 C 0.72509 0.70195 0.21112
 N70 N 0.71094 0.72235 0.22773
 H71 H 0.74267 0.75064 0.31183
 H72 H 0.78564 0.70903 0.24054
 H73 H 0.82076 0.68250 0.27386
 H74 H 0.77680 0.72499 0.34719
 H75 H 0.66917 0.74052 0.24309
 H76 H 0.63848 0.70615 0.21915
 H77 H 0.72081 0.66633 0.18375
 H78 H 0.74933 0.70130 0.20860
 C79 C 0.67090 0.81515 0.29709
 C80 C 0.79349 0.80308 0.17902
 C81 C 0.67671 0.68327 0.19896
 C82 C 0.80172 0.70103 0.31398
 C83 C 0.79397 0.29463 0.72339
 H84 H 0.79760 0.29470 0.74700
 C85 C 0.81168 0.31129 0.70382
 H86 H 0.82918 0.32381 0.71267
 C87 C 0.76742 0.27705 0.68342
 H88 H 0.75007 0.26377 0.67558
 C89 C 0.78483 0.29316 0.66305
 H90 H 0.78084 0.29203 0.63957
 N91 N 0.77238 0.27796 0.71296
 C92 C 0.70927 0.26861 0.78759
 H93 H 0.71072 0.24538 0.79272
 C94 C 0.69019 0.28644 0.80435
 H95 H 0.67709 0.27668 0.82234
 C96 C 0.72321 0.30915 0.75673
 H97 H 0.73572 0.31791 0.73787
 C98 C 0.70403 0.32768 0.77260
 H99 H 0.70217 0.35064 0.76601
 Zn100 Zn 0.75043 0.25521 0.74112
 N101 N 0.72561 0.28018 0.76447
 C102 C 0.77904 0.23383 0.79508
 N103 N 0.77922 0.23303 0.76504
 C104 C 0.80082 0.21695 0.75084
 C105 C 0.82223 0.19966 0.76685
 C106 C 0.80007 0.21689 0.81204
 C107 C 0.69489 0.23242 0.72520
 C108 C 0.67604 0.21414 0.71118
 C109 C 0.72004 0.19117 0.68880
 C110 C 0.73803 0.20979 0.70347
 N111 N 0.72537 0.22986 0.72141
 H112 H 0.76271 0.24764 0.80613
 H113 H 0.80180 0.21781 0.72695
 H114 H 0.83892 0.18683 0.75485
 H115 H 0.79865 0.21802 0.83579
 H116 H 0.68493 0.24882 0.73892
 H117 H 0.65185 0.21668 0.71471
 H118 H 0.73129 0.17555 0.67499
 H119 H 0.76215 0.20838 0.70003
 C120 C 0.68750 0.31642 0.79690
 C121 C 0.80714 0.31067 0.67317
 C122 C 0.68840 0.19314 0.69255
 C123 C 0.82198 0.19908 0.79794
 C124 C 0.28835 0.78792 0.73102
 H125 H 0.29234 0.78670 0.75461
 C126 C 0.30593 0.80541 0.71212
 H127 H 0.32375 0.81722 0.72141
 C128 C 0.26077 0.77307 0.69038
 H129 H 0.24290 0.76076 0.68203
 C130 C 0.27807 0.79000 0.67066
 H131 H 0.27359 0.79033 0.64715
 N132 N 0.26635 0.77217 0.71993
 C133 C 0.20323 0.76222 0.79437
 H134 H 0.20498 0.73911 0.80009
 C135 C 0.18421 0.78033 0.81095
 H136 H 0.17145 0.77092 0.82937
 C137 C 0.21641 0.80224 0.76239
 H138 H 0.22859 0.81071 0.74320
 C139 C 0.19728 0.82098 0.77802
 H140 H 0.19515 0.84380 0.77087
 Zn141 Zn 0.24422 0.74871 0.74735
 N142 N 0.21915 0.77342 0.77076
 C143 C 0.27318 0.72724 0.80114
 N144 N 0.27284 0.72614 0.77113
 C145 C 0.29381 0.70945 0.75680
 C146 C 0.31520 0.69201 0.77264
 C147 C 0.29423 0.71012 0.81795
 C148 C 0.18936 0.72375 0.73213
 C149 C 0.17107 0.70577 0.71702
 C150 C 0.21514 0.68817 0.69038
 C151 C 0.23261 0.70621 0.70632
 N152 N 0.21963 0.72364 0.72671
 H153 H 0.25734 0.74150 0.81226
 H154 H 0.29430 0.70990 0.73294
 H155 H 0.33142 0.67875 0.76054
 H156 H 0.29335 0.71158 0.84169
 H157 H 0.17915 0.73790 0.74804
 H158 H 0.14703 0.70633 0.72181
 H159 H 0.22665 0.67467 0.67462
 H160 H 0.25651 0.70674 0.70171
 C161 C 0.18116 0.81015 0.80276
 C162 C 0.30082 0.80657 0.68148
 C163 C 0.18372 0.68783 0.69550
 C164 C 0.31557 0.69182 0.80371
 C165 C 0.04149 0.03624 0.02216
 H166 H 0.04317 0.04050 -0.00156
 C167 C 0.05816 0.05211 0.04112
 H168 H 0.07242 0.06878 0.03173
 C169 C 0.01966 0.01015 0.06310
 H170 H 0.00483 -0.00636 0.07162
 C171 C 0.03556 0.02579 0.08283
 H172 H 0.03259 0.02139 0.10645
 N173 N 0.02252 0.01591 0.03339
 C174 C 0.01184 -0.04306 -0.03789
 H175 H -0.01198 -0.04009 -0.04266
 C176 C 0.02990 -0.06242 -0.05392
 H177 H 0.01973 -0.07421 -0.07097
 C178 C 0.05349 -0.03259 -0.00865
 H179 H 0.06255 -0.02126 0.00928
 C180 C 0.07224 -0.05208 -0.02380
 H181 H 0.09570 -0.05539 -0.01758
 Zn182 Zn -0.00134 -0.00289 0.00648
 N183 N 0.02387 -0.02835 -0.01592
 C184 C -0.01969 0.02643 -0.04852
 N185 N -0.02101 0.02668 -0.01845
 C186 C -0.03616 0.04868 -0.00490
 C187 C -0.05211 0.07055 -0.02148
 C188 C -0.03534 0.04791 -0.06606
 C189 C -0.03140 -0.05409 0.02561
 C190 C -0.05214 -0.07046 0.04211
 C191 C -0.07103 -0.02643 0.06384
 C192 C -0.05030 -0.01090 0.04657
 N193 N -0.03080 -0.02481 0.02801
 H194 H -0.00657 0.00961 -0.05915
 H195 H -0.03566 0.04949 0.01889
 H196 H -0.06431 0.08754 -0.00995
 H197 H -0.03395 0.04646 -0.08978
 H198 H -0.01538 -0.06504 0.01136
 H199 H -0.05128 -0.09371 0.03996
 H200 H -0.08587 -0.01480 0.07884
 H201 H -0.04917 0.01217 0.04888
 C202 C 0.06058 -0.06702 -0.04693
 C203 C 0.05504 0.04706 0.07191
 C204 C -0.07231 -0.05664 0.06183
 C205 C -0.05235 0.07028 -0.05252
 C206 C 0.05425 0.54911 0.50546
 H207 H 0.05243 0.55221 0.48165
 C208 C 0.07367 0.56584 0.52073
 H209 H 0.08676 0.58192 0.50857
 C210 C 0.03980 0.52397 0.55020
 H211 H 0.02718 0.50710 0.56150
 C212 C 0.05866 0.54050 0.56640
 H213 H 0.06032 0.53603 0.59008
 N214 N 0.03777 0.52870 0.52031
 C215 C 0.02331 0.46563 0.45423
 H216 H -0.00099 0.46742 0.45202
 C217 C 0.04055 0.44804 0.43564
 H218 H 0.02912 0.43670 0.41908
 C219 C 0.06741 0.47982 0.47754
 H220 H 0.07782 0.49229 0.49383
 C221 C 0.08553 0.46254 0.45934
 H222 H 0.10982 0.46191 0.46176
 Zn223 Zn 0.01251 0.50674 0.49761
 N224 N 0.03688 0.48128 0.47452
 C225 C -0.00329 0.53410 0.44212
 N226 N -0.01024 0.53302 0.47155
 C227 C -0.03267 0.55073 0.48237
 C228 C -0.04997 0.56947 0.46329
 C229 C -0.01996 0.55243 0.42226
 C230 C -0.01544 0.45558 0.52030
 C231 C -0.03513 0.43933 0.53822
 C232 C -0.05044 0.48307 0.56247
 C233 C -0.03073 0.49850 0.54382
 N234 N -0.01390 0.48474 0.52296
 H235 H 0.01539 0.52093 0.43386
 H236 H -0.03736 0.55037 0.50583
 H237 H -0.06776 0.58275 0.47298
 H238 H -0.01408 0.55252 0.39890
 H239 H -0.00132 0.44465 0.50437
 H240 H -0.03526 0.41624 0.53537
 H241 H -0.06350 0.49463 0.57891
 H242 H -0.02842 0.52142 0.54654
 C243 C 0.07216 0.44638 0.43806
 C244 C 0.07577 0.56187 0.55159
 C245 C -0.05329 0.45311 0.55963
 C246 C -0.04396 0.57027 0.43255
 C247 C 0.55908 0.03620 0.51853
 H248 H 0.56210 0.03293 0.49519
 C249 C 0.58036 0.05134 0.53324
 H250 H 0.59932 0.06014 0.52093
 C251 C 0.53169 0.02755 0.56323
 H252 H 0.51326 0.01765 0.57514
 C253 C 0.55231 0.04276 0.57878
 H254 H 0.54929 0.04419 0.60244
 N255 N 0.53496 0.02512 0.53347
 C256 C 0.52186 -0.02320 0.45897
 H257 H 0.50355 -0.00974 0.44935
 C258 C 0.53766 -0.04313 0.44171
 H259 H 0.53101 -0.04478 0.41897
 C260 C 0.55128 -0.03846 0.50084
 H261 H 0.55622 -0.03657 0.52399
 C262 C 0.56758 -0.05878 0.48441
 H263 H 0.58522 -0.07249 0.49503
 Zn264 Zn 0.50687 0.00524 0.51139
 N265 N 0.52894 -0.02119 0.48793
 C266 C 0.49931 0.04902 0.46551
 N267 N 0.48433 0.03223 0.48601
 C268 C 0.45364 0.03346 0.48745
 C269 C 0.43682 0.05215 0.46796
 C270 C 0.48343 0.06779 0.44538
 C271 C 0.47890 -0.04511 0.53428
 C272 C 0.45900 -0.06142 0.55181
 C273 C 0.44188 -0.01746 0.57481
 C274 C 0.46187 -0.00195 0.55651
 N275 N 0.48008 -0.01593 0.53687
 H276 H 0.52363 0.04731 0.46415
 H277 H 0.44197 0.01945 0.50325
 H278 H 0.41253 0.05181 0.46964
 H279 H 0.49598 0.08061 0.42904
 H280 H 0.49325 -0.05591 0.51839
 H281 H 0.45936 -0.08457 0.54919
 H282 H 0.42768 -0.00579 0.59031
 H283 H 0.46267 0.02138 0.55779
 C284 C 0.56102 -0.06114 0.45442
 C285 C 0.57679 0.05528 0.56361
 C286 C 0.43990 -0.04761 0.57248
 C287 C 0.45172 0.06968 0.44632
 C288 C 0.54983 0.53736 0.01561
 H289 H 0.54820 0.54034 -0.00822
 C290 C 0.56993 0.55339 0.03083
 H291 H 0.58376 0.56882 0.01862
 C292 C 0.53407 0.51324 0.06047
 H293 H 0.52062 0.49706 0.07185
 C294 C 0.55358 0.52913 0.07663
 H295 H 0.55490 0.52491 0.10036
 N296 N 0.53242 0.51777 0.03054
 C297 C 0.51761 0.45665 -0.03752
 H298 H 0.49356 0.45926 -0.04121
 C299 C 0.53525 0.43767 -0.05444
 H300 H 0.52456 0.42581 -0.07112
 C301 C 0.56042 0.46771 -0.01020
 H302 H 0.57016 0.47905 0.00736
 C303 C 0.57873 0.44856 -0.02618
 H304 H 0.60248 0.44558 -0.02099
 Zn305 Zn 0.50640 0.49686 0.00762
 N306 N 0.53045 0.47157 -0.01614
 C307 C 0.48381 0.52483 -0.04643
 N308 N 0.48307 0.52470 -0.01632
 C309 C 0.46620 0.54520 -0.00220
 C310 C 0.44809 0.56588 -0.01820
 C311 C 0.46603 0.54515 -0.06339
 C312 C 0.47982 0.44506 0.02998
 C313 C 0.46100 0.42803 0.04809
 C314 C 0.44428 0.47118 0.07265
 C315 C 0.46318 0.48738 0.05385
 N316 N 0.48043 0.47426 0.03287
 H317 H 0.49833 0.50937 -0.05754
 H318 H 0.46699 0.54583 0.02157
 H319 H 0.43466 0.58172 -0.00622
 H320 H 0.46723 0.54411 -0.08716
 H321 H 0.49408 0.43472 0.01375
 H322 H 0.46166 0.40494 0.04507
 H323 H 0.43094 0.48224 0.08925
 H324 H 0.46455 0.51036 0.05665
 C325 C 0.56626 0.43356 -0.04881
 C326 C 0.57170 0.54961 0.06172
 C327 C 0.44266 0.44108 0.06986
 C328 C 0.44743 0.56598 -0.04925
 C329 C 0.16047 -0.16982 -0.18137
 C330 C 0.15408 -0.17344 -0.15114
 C331 C 0.13387 -0.15275 -0.13586
 N332 N 0.13372 -0.15270 -0.10585
 N333 N 0.11564 -0.13395 -0.09177
 C334 C 0.09688 -0.11470 -0.10720
 N335 N 0.09680 -0.11497 -0.13718
 N336 N 0.11504 -0.13356 -0.15126
 C337 C 0.07665 -0.09397 -0.09202
 C338 C 0.08051 -0.08800 -0.06244
 H339 H 0.16526 -0.19101 -0.13802
 H340 H 0.05918 -0.08219 -0.10488
 H341 H 0.15142 -0.15054 -0.19359
 H342 H 0.09988 -0.09777 -0.05068
 C343 C 0.15007 0.31924 0.31169
 C344 C 0.15776 0.34555 0.32277
 C345 C 0.13774 0.36149 0.34311
 N346 N 0.14770 0.38509 0.35605
 N347 N 0.13004 0.39948 0.37490
 C348 C 0.10174 0.39081 0.38150
 N349 N 0.09172 0.36731 0.36844
 N350 N 0.10940 0.35287 0.34965
 C351 C 0.08185 0.40654 0.40213
 C352 C 0.09186 0.42929 0.41805
 H353 H 0.17973 0.35403 0.31783
 H354 H 0.05903 0.39948 0.40512
 H355 H 0.12888 0.31004 0.31862
 H356 H 0.11543 0.43449 0.41629
 C357 C 0.65238 -0.16333 0.31334
 C358 C 0.64465 -0.16755 0.34324
 C359 C 0.62782 -0.14515 0.35953
 N360 N 0.62362 -0.14907 0.38923
 N361 N 0.60869 -0.12886 0.40437
 C362 C 0.59738 -0.10399 0.39033
 N363 N 0.60145 -0.10013 0.36060
 N364 N 0.61644 -0.12031 0.34548
 C365 C 0.58073 -0.08150 0.40665
 C366 C 0.57808 -0.08319 0.43748
 H367 H 0.65227 -0.18724 0.35560
 H368 H 0.57106 -0.06288 0.39392
 H369 H 0.64647 -0.14260 0.30191
 H370 H 0.58988 -0.10091 0.44989
 C371 C 0.66679 0.33612 -0.18683
 C372 C 0.66015 0.33153 -0.15674
 C373 C 0.63961 0.35144 -0.14083
 N374 N 0.63936 0.35039 -0.11079
 N375 N 0.62094 0.36830 -0.09606
 C376 C 0.60188 0.38776 -0.11084
 N377 N 0.60189 0.38859 -0.14088
 N378 N 0.62049 0.37083 -0.15563
 C379 C 0.58142 0.40766 -0.09483
 C380 C 0.58585 0.41300 -0.06519
 H381 H 0.67132 0.31362 -0.14410
 H382 H 0.56352 0.41947 -0.10708
 H383 H 0.65785 0.35573 -0.19854
 H384 H 0.60564 0.40327 -0.05408
 C385 C -0.15660 0.18065 -0.18668
 C386 C -0.15380 0.17774 -0.15584
 C387 C -0.13202 0.15661 -0.14136
 N388 N -0.12994 0.15481 -0.11140
 N389 N -0.11090 0.13536 -0.09789
 C390 C -0.09320 0.11693 -0.11383
 N391 N -0.09522 0.11878 -0.14379
 N392 N -0.11425 0.13825 -0.15731
 C393 C -0.07266 0.09471 -0.09919
 C394 C -0.06978 0.09209 -0.06835
 H395 H -0.16784 0.19069 -0.14144
 H396 H -0.06030 0.08017 -0.11338
 H397 H -0.14123 0.16740 -0.19974
 H398 H -0.08242 0.10788 -0.05560
 C399 C -0.17901 0.68656 0.33507
 C400 C -0.15514 0.66689 0.32864
 C401 C -0.13675 0.65174 0.35211
 N402 N -0.11340 0.63338 0.34474
 N403 N -0.09684 0.61913 0.36568
 C404 C -0.10303 0.62268 0.39481
 N405 N -0.12637 0.64108 0.40218
 N406 N -0.14291 0.65536 0.38123
 C407 C -0.08540 0.60658 0.41824
 C408 C -0.06087 0.58772 0.41164
 H409 H -0.14934 0.66198 0.30615
 H410 H -0.09252 0.60975 0.44080
 H411 H -0.18304 0.69092 0.35815
 H412 H -0.05463 0.58617 0.38848
 C413 C 0.31765 0.17417 0.33611
 C414 C 0.34651 0.16125 0.33222
 C415 C 0.36186 0.14415 0.35653
 N416 N 0.39142 0.13563 0.35370
 N417 N 0.40544 0.11991 0.37545
 C418 C 0.39035 0.11202 0.40080
 N419 N 0.36077 0.12041 0.40354
 N420 N 0.34681 0.13623 0.38186
 C421 C 0.40516 0.09404 0.42477
 C422 C 0.43640 0.08819 0.42511
 H423 H 0.35876 0.16398 0.31152
 H424 H 0.39076 0.08602 0.44256
 H425 H 0.30765 0.17222 0.35812
 H426 H 0.44980 0.09894 0.40788
 C427 C 0.33713 0.67337 -0.18112
 C428 C 0.34041 0.67054 -0.15033
 C429 C 0.36281 0.64978 -0.13621
 N430 N 0.36527 0.64782 -0.10628
 N431 N 0.38508 0.62884 -0.09314
 C432 C 0.40318 0.61108 -0.10945
 N433 N 0.40074 0.61307 -0.13937
 N434 N 0.38095 0.63206 -0.15251
 C435 C 0.42483 0.58958 -0.09530
 C436 C 0.42822 0.58674 -0.06452
 H437 H 0.32639 0.68331 -0.13575
 H438 H 0.43777 0.57584 -0.10984
 H439 H 0.35226 0.66005 -0.19435
 H440 H 0.41470 0.60155 -0.05136
 C441 C -0.18986 -0.18155 0.15887
 C442 C -0.17116 -0.15909 0.16536
 C443 C -0.15297 -0.14395 0.14239
 N444 N -0.14137 -0.11808 0.14788
 N445 N -0.12445 -0.10423 0.12756
 C446 C -0.11831 -0.11584 0.10106
 N447 N -0.12968 -0.14185 0.09566
 N448 N -0.14682 -0.15561 0.11590
 C449 C -0.09887 -0.10112 0.07886
 C450 C -0.09271 -0.07174 0.08040
 H451 H -0.17059 -0.15088 0.18724
 H452 H -0.09020 -0.11369 0.06087
 H453 H -0.19163 -0.18623 0.13572
 H454 H -0.10488 -0.05963 0.09706
 C455 C -0.17395 0.32691 0.65134
 C456 C -0.15970 0.35219 0.65768
 C457 C -0.13983 0.36721 0.63609
 N458 N -0.12957 0.39360 0.64180
 N459 N -0.11113 0.40723 0.62270
 C460 C -0.10214 0.39490 0.59724
 N461 N -0.11230 0.36845 0.59160
 N462 N -0.13085 0.35487 0.61063
 C463 C -0.08131 0.40936 0.57614
 C464 C -0.07363 0.43826 0.57857
 H465 H -0.16356 0.36169 0.67884
 H466 H -0.07293 0.39686 0.55801
 H467 H -0.17198 0.31915 0.62917
 H468 H -0.08477 0.45028 0.59589
 C469 C 0.31956 -0.17629 0.66030
 C470 C 0.33384 -0.15137 0.66775
 C471 C 0.35359 -0.13556 0.64667
 N472 N 0.36360 -0.10929 0.65318
 N473 N 0.38198 -0.09502 0.63453
 C474 C 0.39116 -0.10661 0.60874
 N475 N 0.38126 -0.13294 0.60231
 N476 N 0.36277 -0.14712 0.62088
 C477 C 0.41207 -0.09163 0.58817
 C478 C 0.41928 -0.06264 0.59094
 H479 H 0.33010 -0.14282 0.68938
 H480 H 0.42085 -0.10385 0.57000
 H481 H 0.32132 -0.18301 0.63772
 H482 H 0.40750 -0.05075 0.60798
 C483 C 0.32577 0.31166 0.16105
 C484 C 0.33919 0.33721 0.16793
 C485 C 0.35950 0.35244 0.14691
 N486 N 0.36838 0.37942 0.15233
 N487 N 0.38667 0.39347 0.13340
 C488 C 0.39687 0.38099 0.10840
 N489 N 0.38817 0.35393 0.10311
 N490 N 0.36978 0.33994 0.12196
 C491 C 0.41720 0.39605 0.08726
 C492 C 0.42325 0.42544 0.08913
 H493 H 0.33385 0.34702 0.18868
 H494 H 0.42643 0.38356 0.06947
 H495 H 0.32948 0.30356 0.13919
 H496 H 0.41157 0.43718 0.10635
 C497 C 0.17897 0.15667 0.16736
 C498 C 0.14788 0.15346 0.16508
 C499 C 0.13532 0.13311 0.14508
 N500 N 0.10611 0.12585 0.14841
 N501 N 0.09415 0.10791 0.13016
 C502 C 0.11089 0.09673 0.10775
 N503 N 0.14005 0.10415 0.10427
 N504 N 0.15209 0.12194 0.12267
 C505 C 0.09759 0.07762 0.08693
 C506 C 0.07018 0.06473 0.09307
 H507 H 0.13198 0.16495 0.17907
 H508 H 0.10993 0.07322 0.06671
 H509 H 0.19389 0.14210 0.15529
 H510 H 0.05968 0.06701 0.11466
 C511 C 0.16452 0.67046 0.68017
 C512 C 0.17320 0.65449 0.65575
 C513 C 0.15193 0.63686 0.64062
 N514 N 0.15971 0.62617 0.61407
 N515 N 0.14076 0.61020 0.60001
 C516 C 0.11336 0.60419 0.61208
 N517 N 0.10567 0.61468 0.63875
 N518 N 0.12456 0.63078 0.65274
 C519 C 0.09226 0.58645 0.59689
 C520 C 0.09669 0.57952 0.56743
 H521 H 0.19560 0.65563 0.64621
 H522 H 0.07225 0.57969 0.60889
 H523 H 0.14103 0.67016 0.68715
 H524 H 0.11538 0.58866 0.55496
 C525 C 0.66862 0.17523 0.67862
 C526 C 0.67724 0.15477 0.65797
 C527 C 0.65509 0.13694 0.64427
 N528 N 0.66386 0.11992 0.62186
 N529 N 0.64407 0.10382 0.60908
 C530 C 0.61477 0.10406 0.61833
 N531 N 0.60605 0.12093 0.64087
 N532 N 0.62582 0.13711 0.65357
 C533 C 0.59254 0.08661 0.60435
 C534 C 0.59924 0.07184 0.57877
 H535 H 0.70041 0.15191 0.65064
 H536 H 0.56997 0.08656 0.61380
 H537 H 0.64475 0.17783 0.68391
 H538 H 0.62124 0.07400 0.56833
 C539 C 0.65829 0.66437 0.18470
 C540 C 0.66833 0.64513 0.16340
 C541 C 0.64747 0.62656 0.14895
 N542 N 0.65624 0.61347 0.12389
 N543 N 0.63745 0.59695 0.11030
 C544 C 0.60925 0.59276 0.12140
 N545 N 0.60061 0.60557 0.14665
 N546 N 0.61932 0.62224 0.16014
 C547 C 0.58817 0.57480 0.10651
 C548 C 0.59316 0.56665 0.07754
 H549 H 0.69145 0.64452 0.15552
 H550 H 0.56751 0.56925 0.11811
 H551 H 0.63429 0.66560 0.18974
 H552 H 0.61250 0.57471 0.06526
   
