data_POSCAR
  _audit_creation_date              2014-09-24
  _audit_creation_method            'ToBaCCo'
  _symmetry_space_group_name_H-M    'P1'
  _symmetry_Int_Tables_number       1
  _symmetry_cell_setting            triclinic
  loop_
  _symmetry_equiv_pos_as_xyz
 x,y,z
_cell_length_a 43.1643
_cell_length_b 43.4227
_cell_length_c 43.5142
_cell_angle_alpha 92.991800
_cell_angle_beta 93.210900
_cell_angle_gamma 93.681200
loop_
  _atom_site_label
  _atom_site_type_symbol
  _atom_site_fract_x
  _atom_site_fract_y
  _atom_site_fract_z
N1 N 0.15902 0.22543 0.24088
 N2 N 0.16898 0.20131 0.25453
 C3 C 0.15131 0.19538 0.27840
 C4 C 0.12915 0.21693 0.27955
 C5 C 0.13470 0.23561 0.25547
 H6 H 0.15412 0.17676 0.29366
 H7 H 0.12186 0.25510 0.24901
 Cu8 Cu 0.20373 0.17991 0.23935
 Cu9 Cu 0.17790 0.24179 0.20509
 Cu10 Cu 0.24080 0.20486 0.17839
 N11 N 0.23947 0.15996 0.22448
 N12 N 0.25398 0.16983 0.20072
 C13 C 0.27772 0.15196 0.19542
 C14 C 0.27797 0.12976 0.21701
 C15 C 0.25345 0.13548 0.23507
 H16 H 0.29354 0.15480 0.17720
 H17 H 0.24641 0.12268 0.25447
 N18 N 0.22395 0.24069 0.15898
 N19 N 0.20008 0.25489 0.16919
 C20 C 0.19421 0.27836 0.15109
 C21 C 0.21536 0.27881 0.12847
 C22 C 0.23384 0.25469 0.13410
 H23 H 0.17589 0.29392 0.15401
 H24 H 0.25307 0.24792 0.12096
 H25 H 0.19470 0.20083 0.18894
 H26 H 0.22163 0.22678 0.21537
 N27 N 0.65902 0.72619 0.74154
 N28 N 0.66910 0.70215 0.75523
 C29 C 0.65144 0.69618 0.77910
 C30 C 0.62918 0.71761 0.78020
 C31 C 0.63464 0.73628 0.75610
 H32 H 0.65432 0.67758 0.79438
 H33 H 0.62171 0.75569 0.74958
 Cu34 Cu 0.70393 0.68089 0.74006
 Cu35 Cu 0.67778 0.74254 0.70567
 Cu36 Cu 0.74074 0.70569 0.67891
 N37 N 0.73965 0.66094 0.72515
 N38 N 0.75406 0.67074 0.70131
 C39 C 0.77775 0.65283 0.69593
 C40 C 0.77806 0.63067 0.71756
 C41 C 0.75364 0.63645 0.73573
 H42 H 0.79345 0.65559 0.67761
 H43 H 0.74663 0.62366 0.75513
 N44 N 0.72373 0.74144 0.65945
 N45 N 0.69986 0.75561 0.66970
 C46 C 0.69386 0.77900 0.65155
 C47 C 0.71492 0.77942 0.62884
 C48 C 0.73349 0.75538 0.63449
 H49 H 0.67549 0.79451 0.65446
 H50 H 0.75268 0.74861 0.62130
 H51 H 0.69470 0.70163 0.68960
 H52 H 0.72161 0.72773 0.71587
 N53 N 0.32559 0.73251 0.75885
 N54 N 0.31981 0.75734 0.77566
 C55 C 0.33985 0.76026 0.80077
 C56 C 0.35919 0.73606 0.79938
 C57 C 0.34938 0.71891 0.77258
 H58 H 0.34174 0.77959 0.81762
 H59 H 0.36019 0.69918 0.76277
 Cu60 Cu 0.28936 0.78523 0.76065
 Cu61 Cu 0.30547 0.72176 0.71808
 Cu62 Cu 0.25151 0.77120 0.69152
 N63 N 0.25832 0.81256 0.74560
 N64 N 0.24354 0.80634 0.71851
 C65 C 0.22375 0.82827 0.71290
 C66 C 0.22620 0.84957 0.73768
 C67 C 0.24837 0.83899 0.75816
 H68 H 0.20884 0.82887 0.69214
 H69 H 0.25659 0.84975 0.78035
 N70 N 0.26249 0.73456 0.66733
 N71 N 0.28261 0.71520 0.67739
 C72 C 0.28634 0.69370 0.65456
 C73 C 0.26787 0.70026 0.62904
 C74 C 0.25311 0.72616 0.63797
 H75 H 0.30248 0.67571 0.65577
 H76 H 0.23755 0.73860 0.62359
 H77 H 0.29693 0.76630 0.70803
 H78 H 0.26553 0.74327 0.72615
 N79 N 0.82747 0.23106 0.25852
 N80 N 0.82073 0.25519 0.27586
 C81 C 0.84087 0.25846 0.30090
 C82 C 0.86145 0.23534 0.29875
 C83 C 0.85205 0.21828 0.27175
 H84 H 0.84181 0.27730 0.31827
 H85 H 0.86344 0.19911 0.26156
 Cu86 Cu 0.78883 0.28187 0.26154
 Cu87 Cu 0.80711 0.22004 0.21791
 Cu88 Cu 0.75076 0.26757 0.19256
 N89 N 0.75655 0.30817 0.24720
 N90 N 0.74177 0.30194 0.22012
 C91 C 0.72133 0.32338 0.21490
 C92 C 0.72336 0.34433 0.23991
 C93 C 0.74593 0.33411 0.26012
 H94 H 0.70637 0.32402 0.19419
 H95 H 0.75413 0.34493 0.28229
 N96 N 0.76287 0.23174 0.16783
 N97 N 0.78386 0.21306 0.17747
 C98 C 0.78804 0.19196 0.15442
 C99 C 0.76897 0.19807 0.12918
 C100 C 0.75338 0.22330 0.13850
 H101 H 0.80487 0.17457 0.15528
 H102 H 0.73714 0.23526 0.12441
 H103 H 0.79657 0.26426 0.20858
 H104 H 0.76626 0.23970 0.22660
 N105 N 0.81687 0.74880 0.26163
 N106 N 0.81419 0.71933 0.25261
 C107 C 0.83498 0.71364 0.23156
 C108 C 0.85188 0.74091 0.22726
 C109 C 0.83993 0.76287 0.24673
 H110 H 0.83771 0.69125 0.22031
 H111 H 0.84730 0.78718 0.24964
 Cu112 Cu 0.78438 0.69056 0.26901
 Cu113 Cu 0.78967 0.76604 0.29169
 Cu114 Cu 0.72700 0.71720 0.30935
 N115 N 0.74702 0.66518 0.27449
 N116 N 0.72393 0.67567 0.28948
 C117 C 0.70140 0.65274 0.29024
 C118 C 0.71125 0.62668 0.27498
 C119 C 0.74020 0.63543 0.26528
 H120 H 0.68006 0.65453 0.30192
 H121 H 0.75540 0.62104 0.25285
 N122 N 0.73479 0.75981 0.32740
 N123 N 0.75891 0.77832 0.32128
 C124 C 0.76022 0.80375 0.34065
 C125 C 0.73592 0.80087 0.35994
 C126 C 0.72026 0.77288 0.35079
 H127 H 0.77882 0.82178 0.34229
 H128 H 0.70122 0.76178 0.36209
 H129 H 0.77504 0.72601 0.31212
 H130 H 0.75372 0.73498 0.27534
 N131 N 0.30929 0.25376 -0.24826
 N132 N 0.29990 0.22864 -0.26530
 C133 C 0.32111 0.22251 -0.28580
 C134 C 0.34522 0.24504 -0.28151
 C135 C 0.33703 0.26464 -0.25753
 H136 H 0.31929 0.20289 -0.30233
 H137 H 0.35036 0.28495 -0.24738
 Cu138 Cu 0.26168 0.20530 -0.25851
 Cu139 Cu 0.28496 0.26934 -0.21473
 Cu140 Cu 0.22106 0.22175 -0.19725
 N141 N 0.23153 0.17543 -0.24427
 N142 N 0.21464 0.18223 -0.22097
 C143 C 0.19636 0.15706 -0.21532
 C144 C 0.20265 0.13329 -0.23598
 C145 C 0.22506 0.14571 -0.25398
 H146 H 0.18094 0.15565 -0.19663
 H147 H 0.23639 0.13382 -0.27224
 N148 N 0.23253 0.26231 -0.17572
 N149 N 0.25694 0.28041 -0.18189
 C150 C 0.25989 0.30483 -0.16115
 C151 C 0.23635 0.30166 -0.14100
 C152 C 0.21948 0.27459 -0.15099
 H153 H 0.27872 0.32262 -0.15968
 H154 H 0.20013 0.26380 -0.13989
 H155 H 0.26792 0.22560 -0.20540
 H156 H 0.24198 0.24873 -0.22949
 N157 N 0.66672 0.26324 -0.26058
 N158 N 0.67774 0.28110 -0.28144
 C159 C 0.65466 0.28530 -0.30278
 C160 C 0.62784 0.26937 -0.29433
 C161 C 0.63642 0.25573 -0.26751
 H162 H 0.65701 0.29940 -0.32240
 H163 H 0.62165 0.24137 -0.25401
 Cu164 Cu 0.72075 0.29815 -0.27717
 Cu165 Cu 0.69211 0.25041 -0.22611
 Cu166 Cu 0.76572 0.28622 -0.21293
 N167 N 0.75923 0.32301 -0.26577
 N168 N 0.77704 0.31794 -0.24126
 C169 C 0.80092 0.33968 -0.23812
 C170 C 0.79764 0.35956 -0.26173
 C171 C 0.77097 0.34830 -0.27882
 H172 H 0.81819 0.34206 -0.21901
 H173 H 0.76012 0.35861 -0.29844
 N174 N 0.74906 0.25358 -0.18713
 N175 N 0.72086 0.24008 -0.19245
 C176 C 0.71566 0.21933 -0.17117
 C177 C 0.74168 0.21984 -0.15133
 C178 C 0.76253 0.24179 -0.16200
 H179 H 0.69440 0.20498 -0.16993
 H180 H 0.78563 0.24868 -0.15210
 H181 H 0.71955 0.29205 -0.22216
 H182 H 0.73628 0.25855 -0.24276
 N183 N 0.16951 0.76218 0.23674
 N184 N 0.18035 0.78136 0.21692
 C185 C 0.15732 0.78618 0.19575
 C186 C 0.13075 0.76920 0.20315
 C187 C 0.13938 0.75434 0.22919
 H188 H 0.15943 0.80159 0.17713
 H189 H 0.12459 0.73926 0.24198
 Cu190 Cu 0.22294 0.79929 0.22251
 Cu191 Cu 0.19452 0.74932 0.27152
 Cu192 Cu 0.26727 0.78679 0.28683
 N193 N 0.26082 0.82465 0.23477
 N194 N 0.27861 0.81922 0.25919
 C195 C 0.30238 0.84107 0.26278
 C196 C 0.29888 0.86155 0.23967
 C197 C 0.27235 0.85034 0.22227
 H198 H 0.31976 0.84301 0.28180
 H199 H 0.26156 0.86076 0.20269
 N200 N 0.25067 0.75337 0.31181
 N201 N 0.22288 0.73917 0.30562
 C202 C 0.21750 0.71829 0.32674
 C203 C 0.24294 0.71945 0.34739
 C204 C 0.26367 0.74188 0.33735
 H205 H 0.19642 0.70358 0.32746
 H206 H 0.28628 0.74946 0.34806
 H207 H 0.22093 0.79140 0.27716
 H208 H 0.23888 0.75905 0.25604
 N209 N 0.49535 0.42549 0.50612
 N210 N 0.47250 0.43657 0.52108
 C211 C 0.46553 0.41788 0.54376
 C212 C 0.48506 0.39390 0.54296
 C213 C 0.50377 0.39942 0.51885
 H214 H 0.44700 0.42091 0.55915
 H215 H 0.52142 0.38501 0.51059
 Cu216 Cu 0.45230 0.47316 0.50886
 Cu217 Cu 0.51079 0.44453 0.47010
 Cu218 Cu 0.47273 0.50655 0.44386
 N219 N 0.42945 0.50607 0.49172
 N220 N 0.43775 0.51910 0.46658
 C221 C 0.41759 0.54029 0.45935
 C222 C 0.39539 0.54050 0.48100
 C223 C 0.40356 0.51853 0.50129
 H224 H 0.41849 0.55402 0.43934
 H225 H 0.39118 0.51167 0.52103
 N226 N 0.50864 0.49050 0.42390
 N227 N 0.52308 0.46679 0.43402
 C228 C 0.54536 0.46004 0.41484
 C229 C 0.54489 0.48039 0.39153
 C230 C 0.52143 0.49949 0.39794
 H231 H 0.56028 0.44110 0.41705
 H232 H 0.51364 0.51783 0.38414
 H233 H 0.49729 0.48861 0.48013
 H234 H 0.46845 0.46139 0.45702
 N235 N -0.00453 -0.07614 1.00256
 N236 N -0.02704 -0.06467 1.01776
 C237 C -0.03457 -0.08353 1.04012
 C238 C -0.01570 -0.10804 1.03891
 C239 C 0.00315 -0.10266 1.01486
 H240 H -0.05282 -0.08003 1.05573
 H241 H 0.02051 -0.11734 1.00645
 Cu242 Cu -0.04522 -0.02680 1.00650
 Cu243 Cu 0.01159 -0.05679 0.96687
 Cu244 Cu -0.02635 0.00561 0.94090
 N245 N -0.06945 0.00490 0.98908
 N246 N -0.06165 0.01768 0.96364
 C247 C -0.08223 0.03845 0.95635
 C248 C -0.10415 0.03865 0.97830
 C249 C -0.09541 0.01708 0.99881
 H250 H -0.08167 0.05204 0.93623
 H251 H -0.10727 0.01044 1.01894
 N252 N 0.00986 -0.01025 0.92114
 N253 N 0.02426 -0.03404 0.93116
 C254 C 0.04686 -0.04044 0.91222
 C255 C 0.04663 -0.01978 0.88918
 C256 C 0.02298 -0.00087 0.89550
 H257 H 0.06185 -0.05932 0.91442
 H258 H 0.01536 0.01767 0.88189
 H259 H -0.00089 -0.01225 0.97659
 H260 H -0.03054 -0.03930 0.95445
 N261 N 1.01190 0.59365 0.99494
 N262 N 1.04096 0.59767 1.00595
 C263 C 1.04387 0.62257 1.02604
 C264 C 1.01490 0.63436 1.02790
 C265 C 0.99518 0.61530 1.00805
 H266 H 1.06516 0.63095 1.03894
 H267 H 0.97052 0.61719 1.00326
 Cu268 Cu 1.07113 0.56817 0.99431
 Cu269 Cu 0.99813 0.56092 0.96396
 Cu270 Cu 1.05806 0.53027 0.92515
 N271 N 1.09694 0.53521 0.98117
 N272 N 1.09294 0.52188 0.95325
 C273 C 1.11372 0.50033 0.94987
 C274 C 1.13112 0.49953 0.97740
 C275 C 1.11986 0.52191 0.99685
 H276 H 1.11465 0.48495 0.92961
 H277 H 1.12729 0.52758 1.02074
 N278 N 1.01488 0.52820 0.90775
 N279 N 0.99195 0.53879 0.92317
 C280 C 0.96542 0.53468 0.90530
 C281 C 0.97192 0.52064 0.87739
 C282 C 1.00350 0.51673 0.87971
 H283 H 0.94327 0.54262 0.91160
 H284 H 1.01732 0.50725 0.86198
 H285 H 1.03465 0.53155 0.96399
 H286 H 1.03964 0.56949 0.94601
 N287 N 0.51206 0.09505 0.49547
 N288 N 0.54109 0.09911 0.50655
 C289 C 0.54391 0.12404 0.52661
 C290 C 0.51491 0.13581 0.52835
 C291 C 0.49527 0.11671 0.50847
 H292 H 0.56515 0.13246 0.53958
 H293 H 0.47062 0.11853 0.50361
 Cu294 Cu 0.57132 0.06965 0.49500
 Cu295 Cu 0.49835 0.06223 0.46457
 Cu296 Cu 0.55836 0.03174 0.42582
 N297 N 0.59715 0.03668 0.48189
 N298 N 0.59322 0.02343 0.45394
 C299 C 0.61396 0.00185 0.45056
 C300 C 0.63125 0.00092 0.47814
 C301 C 0.61998 0.02328 0.49760
 H302 H 0.61489 -0.01351 0.43029
 H303 H 0.62732 0.02885 0.52153
 N304 N 0.51520 0.02949 0.40843
 N305 N 0.49222 0.04004 0.42382
 C306 C 0.46570 0.03580 0.40594
 C307 C 0.47226 0.02171 0.37808
 C308 C 0.50385 0.01790 0.38042
 H309 H 0.44351 0.04367 0.41221
 H310 H 0.51772 0.00842 0.36273
 H311 H 0.53494 0.03295 0.46468
 H312 H 0.53984 0.07089 0.44670
 N313 N -0.02059 0.09957 0.53734
 N314 N -0.04769 0.09352 0.52213
 C315 C -0.05055 0.11314 0.49937
 C316 C -0.02365 0.13222 0.50005
 C317 C -0.00505 0.12302 0.52441
 H318 H -0.07001 0.11244 0.48251
 H319 H 0.01818 0.13231 0.53183
 Cu320 Cu -0.07531 0.05824 0.53057
 Cu321 Cu -0.00818 0.07628 0.57272
 Cu322 Cu -0.04356 0.00241 0.57000
 N323 N -0.09425 0.01637 0.52843
 N324 N -0.08082 -0.00556 0.54282
 C325 C -0.09897 -0.03191 0.53864
 C326 C -0.12521 -0.02624 0.52075
 C327 C -0.12151 0.00467 0.51454
 H328 H -0.09438 -0.05320 0.54936
 H329 H -0.13793 0.01791 0.50205
 N330 N -0.00617 0.01530 0.59670
 N331 N 0.00629 0.04396 0.59932
 C332 C 0.02917 0.04610 0.62194
 C333 C 0.03121 0.01726 0.63378
 C334 C 0.00866 -0.00164 0.61717
 H335 H 0.04328 0.06697 0.62920
 H336 H 0.00279 -0.02574 0.62066
 H337 H -0.02556 0.03874 0.54593
 H338 H -0.04823 0.04859 0.57997
 N339 N 0.47998 0.59986 0.03815
 N340 N 0.45287 0.59382 0.02298
 C341 C 0.44995 0.61346 0.00025
 C342 C 0.47684 0.63255 0.00089
 C343 C 0.49549 0.62333 0.02521
 H344 H 0.43047 0.61275 -0.01660
 H345 H 0.51873 0.63262 0.03260
 Cu346 Cu 0.42526 0.55851 0.03131
 Cu347 Cu 0.49242 0.57649 0.07352
 Cu348 Cu 0.45703 0.50263 0.07058
 N349 N 0.40641 0.51661 0.02894
 N350 N 0.41989 0.49465 0.04324
 C351 C 0.40180 0.46827 0.03895
 C352 C 0.37556 0.47394 0.02108
 C353 C 0.37918 0.50489 0.01500
 H354 H 0.40642 0.44696 0.04961
 H355 H 0.36272 0.51815 0.00258
 N356 N 0.49428 0.51548 0.09747
 N357 N 0.50678 0.54413 0.10021
 C358 C 0.52948 0.54618 0.12302
 C359 C 0.53136 0.51731 0.13484
 C360 C 0.50889 0.49849 0.11802
 H361 H 0.54357 0.56703 0.13043
 H362 H 0.50292 0.47439 0.12143
 H363 H 0.47506 0.53908 0.04662
 H364 H 0.45236 0.54884 0.08067
 N365 N 0.51942 -0.09018 0.01223
 N366 N 0.53596 -0.07720 -0.00865
 C367 C 0.53527 -0.09642 -0.03393
 C368 C 0.51722 -0.12283 -0.02870
 C369 C 0.50741 -0.11816 0.00081
 H370 H 0.54784 -0.09196 -0.05423
 H371 H 0.49335 -0.13420 0.01327
 Cu372 Cu 0.55897 -0.03757 -0.00057
 Cu373 Cu 0.51506 -0.06943 0.05240
 Cu374 Cu 0.56347 -0.00345 0.07076
 N375 N 0.59194 -0.00659 0.01273
 N376 N 0.59463 0.00605 0.04096
 C377 C 0.62015 0.02591 0.04380
 C378 C 0.63383 0.02569 0.01571
 C379 C 0.61524 0.00491 -0.00341
 H380 H 0.62774 0.03999 0.06442
 H381 H 0.61852 -0.00147 -0.02732
 N382 N 0.53071 -0.01823 0.09756
 N383 N 0.51380 -0.04451 0.09141
 C384 C 0.49283 -0.04783 0.11296
 C385 C 0.49621 -0.02218 0.13322
 C386 C 0.52035 -0.00377 0.12280
 H387 H 0.47462 -0.06618 0.11248
 H388 H 0.52878 0.01898 0.13213
 H389 H 0.52717 -0.02423 0.04185
 H390 H 0.55977 -0.04862 0.05335
 N391 N 1.01917 0.40989 0.51148
 N392 N 1.03588 0.42283 0.49070
 C393 C 1.03544 0.40354 0.46550
 C394 C 1.01737 0.37711 0.47067
 C395 C 1.00730 0.38186 0.50006
 H396 H 1.04814 0.40797 0.44528
 H397 H 0.99313 0.36585 0.51245
 Cu398 Cu 1.05864 0.46260 0.49879
 Cu399 Cu 1.01444 0.43072 0.55154
 Cu400 Cu 1.06256 0.49685 0.57005
 N401 N 1.09129 0.49390 0.51215
 N402 N 1.09375 0.50662 0.54035
 C403 C 1.11909 0.52670 0.54326
 C404 C 1.13291 0.52655 0.51524
 C405 C 1.11458 0.50558 0.49608
 H406 H 1.12649 0.54085 0.56388
 H407 H 1.11804 0.49917 0.47222
 N408 N 1.02968 0.48199 0.59670
 N409 N 1.01282 0.45570 0.59047
 C410 C 0.99180 0.45228 0.61196
 C411 C 0.99509 0.47790 0.63226
 C412 C 1.01922 0.49638 0.62193
 H413 H 0.97367 0.43386 0.61144
 H414 H 1.02762 0.51912 0.63134
 H415 H 1.02650 0.47591 0.54095
 H416 H 1.05910 0.45162 0.55272
 C417 C 0.35971 0.03338 0.23159
 C418 C 0.34231 0.00155 0.22712
 C419 C 0.36019 -0.02237 0.23292
 C420 C 0.39444 -0.01229 0.24208
 C421 C 0.37480 0.03454 0.26428
 C422 C 0.39322 0.01095 0.26983
 C423 C 0.38699 0.03174 0.21053
 C424 C 0.40500 0.00766 0.21581
 H425 H 0.31754 -0.00160 0.22123
 H426 H 0.40920 -0.03180 0.24657
 H427 H 0.37270 0.05366 0.28089
 H428 H 0.39080 0.04719 0.19216
 C429 C 0.15530 -0.04711 0.75068
 C430 C 0.17362 -0.01558 0.75368
 C431 C 0.15565 0.00864 0.75878
 C432 C 0.12089 -0.00082 0.76030
 C433 C 0.13753 -0.04877 0.77996
 C434 C 0.11952 -0.02471 0.78520
 C435 C 0.13012 -0.04396 0.72484
 C436 C 0.11242 -0.01949 0.72963
 H437 H 0.19848 -0.01275 0.75131
 H438 H 0.10617 0.01888 0.76433
 H439 H 0.13907 -0.06770 0.79513
 H440 H 0.12808 -0.05824 0.70358
 C441 C 0.65220 0.44953 0.25287
 C442 C 0.67164 0.48036 0.25660
 C443 C 0.65467 0.50536 0.26155
 C444 C 0.61953 0.49723 0.26221
 C445 C 0.63376 0.44832 0.28170
 C446 C 0.61667 0.47312 0.28685
 C447 C 0.62785 0.45384 0.22662
 C448 C 0.61103 0.47900 0.23125
 H449 H 0.69666 0.48211 0.25516
 H450 H 0.60554 0.51750 0.26617
 H451 H 0.63438 0.42925 0.29677
 H452 H 0.62557 0.43954 0.20537
 C453 C 0.85913 0.53361 0.73140
 C454 C 0.84142 0.50194 0.72693
 C455 C 0.85909 0.47778 0.73244
 C456 C 0.89348 0.48754 0.74140
 C457 C 0.87442 0.53450 0.76399
 C458 C 0.89265 0.51071 0.76929
 C459 C 0.88622 0.53180 0.71013
 C460 C 0.90404 0.50753 0.71516
 H461 H 0.81662 0.49909 0.72114
 H462 H 0.90811 0.46790 0.74570
 H463 H 0.87258 0.55358 0.78072
 H464 H 0.89010 0.54736 0.69187
 C465 C 0.22780 0.36094 0.03172
 C466 C 0.22342 0.34400 -0.00002
 C467 C 0.22912 0.36215 -0.02388
 C468 C 0.23809 0.39621 -0.01380
 C469 C 0.26064 0.37644 0.03297
 C470 C 0.26612 0.39510 0.00947
 C471 C 0.20633 0.38771 0.03003
 C472 C 0.21151 0.40603 0.00605
 H473 H 0.21764 0.31934 -0.00313
 H474 H 0.24254 0.41119 -0.03321
 H475 H 0.27747 0.37424 0.05204
 H476 H 0.18796 0.39113 0.04556
 C477 C 0.75589 0.14526 -0.04855
 C478 C 0.75903 0.16355 -0.01742
 C479 C 0.76406 0.14593 0.00714
 C480 C 0.76551 0.11132 -0.00169
 C481 C 0.78529 0.12776 -0.04985
 C482 C 0.79061 0.10997 -0.02554
 C483 C 0.72977 0.12020 -0.04513
 C484 C 0.73451 0.10270 -0.02041
 H485 H 0.75662 0.18824 -0.01511
 H486 H 0.76955 0.09682 0.01824
 H487 H 0.80045 0.12929 -0.06881
 H488 H 0.70834 0.11806 -0.05949
 C489 C 0.25530 0.64631 0.45150
 C490 C 0.25804 0.66479 0.48254
 C491 C 0.26283 0.64733 0.50728
 C492 C 0.26441 0.61269 0.49869
 C493 C 0.28476 0.62887 0.45070
 C494 C 0.28982 0.61124 0.47519
 C495 C 0.22915 0.62124 0.45477
 C496 C 0.23363 0.60390 0.47967
 H497 H 0.25570 0.68949 0.48464
 H498 H 0.26824 0.59831 0.51876
 H499 H 0.30021 0.63034 0.43196
 H500 H 0.20788 0.61899 0.44019
 C501 C 0.72679 0.86129 0.53183
 C502 C 0.72199 0.84440 0.50009
 C503 C 0.72765 0.86250 0.47619
 C504 C 0.73703 0.89650 0.48625
 C505 C 0.75975 0.87650 0.53281
 C506 C 0.76520 0.89514 0.50928
 C507 C 0.70558 0.88828 0.53036
 C508 C 0.71074 0.90658 0.50635
 H509 H 0.71606 0.81975 0.49701
 H510 H 0.74146 0.91145 0.46681
 H511 H 0.77667 0.87419 0.55177
 H512 H 0.68738 0.89187 0.54605
 C513 C 0.03237 0.22902 0.36174
 C514 C 0.00046 0.22420 0.34456
 C515 C -0.02376 0.22968 0.36226
 C516 C -0.01386 0.23897 0.39618
 C517 C 0.03345 0.26173 0.37663
 C518 C 0.00957 0.26706 0.39485
 C519 C 0.03057 0.20785 0.38882
 C520 C 0.00619 0.21285 0.40671
 H521 H -0.00253 0.21822 0.32004
 H522 H -0.03361 0.24321 0.41080
 H523 H 0.05265 0.27861 0.37428
 H524 H 0.04620 0.18973 0.39269
 C525 C -0.04816 0.75476 0.14830
 C526 C -0.01682 0.75811 0.16673
 C527 C 0.00811 0.76257 0.14925
 C528 C -0.00064 0.76326 0.11457
 C529 C -0.04901 0.78360 0.12984
 C530 C -0.02429 0.78832 0.11221
 C531 C -0.04498 0.72826 0.12416
 C532 C -0.01993 0.73246 0.10672
 H533 H -0.01466 0.75647 0.19152
 H534 H 0.01960 0.76686 0.10019
 H535 H -0.06784 0.79891 0.13070
 H536 H -0.06007 0.70726 0.12224
 C537 C 0.45099 0.25470 0.64935
 C538 C 0.48214 0.25678 0.66818
 C539 C 0.50734 0.26165 0.65111
 C540 C 0.49909 0.26371 0.61649
 C541 C 0.45101 0.28433 0.63206
 C542 C 0.47597 0.28926 0.61481
 C543 C 0.45401 0.22898 0.62434
 C544 C 0.47940 0.23340 0.60740
 H545 H 0.48396 0.25441 0.69286
 H546 H 0.51958 0.26753 0.60248
 H547 H 0.43243 0.29992 0.63324
 H548 H 0.43884 0.20804 0.62183
 C549 C 0.53222 0.72927 0.86223
 C550 C 0.50031 0.72442 0.84504
 C551 C 0.47606 0.72983 0.86273
 C552 C 0.48595 0.73906 0.89668
 C553 C 0.53322 0.76195 0.87716
 C554 C 0.50932 0.76720 0.89539
 C555 C 0.53045 0.70806 0.88928
 C556 C 0.50608 0.71298 0.90719
 H557 H 0.49738 0.71853 0.82049
 H558 H 0.46620 0.74324 0.91131
 H559 H 0.55238 0.77889 0.87484
 H560 H 0.54618 0.69002 0.89317
 N561 N 0.08374 0.24147 0.29765
 C562 C 0.10444 0.21957 0.30116
 N563 N 0.10173 0.20039 0.32470
 N564 N 0.07905 0.20312 0.34409
 C565 C 0.05831 0.22511 0.34052
 N566 N 0.06112 0.24416 0.31693
 N567 N 0.60175 0.70094 0.82530
 C568 C 0.60442 0.72014 0.80176
 N569 N 0.58360 0.74194 0.79821
 N570 N 0.56093 0.74451 0.81744
 C571 C 0.55818 0.72545 0.84102
 N572 N 0.57903 0.70356 0.84464
 N573 N 0.40847 0.71237 0.80813
 C574 C 0.38796 0.73241 0.81823
 N575 N 0.39570 0.75035 0.84443
 N576 N 0.42323 0.74859 0.85962
 C577 C 0.44403 0.72902 0.84898
 N578 N 0.43599 0.71082 0.82309
 N579 N -0.09156 0.21075 0.30836
 C580 C -0.11149 0.23205 0.31704
 N581 N -0.10341 0.25118 0.34238
 N582 N -0.07605 0.24949 0.35792
 C583 C -0.05578 0.22876 0.34853
 N584 N -0.06420 0.20929 0.32364
 N585 N -0.11644 0.72121 0.18662
 C586 C -0.12270 0.74485 0.20649
 N587 N -0.10477 0.77172 0.20713
 N588 N -0.08134 0.77474 0.18861
 C589 C -0.07511 0.75112 0.16863
 N590 N -0.09313 0.72428 0.16800
 N591 N 0.39401 0.27057 0.70810
 C592 C 0.37193 0.24704 0.70197
 N593 N 0.37614 0.22546 0.67910
 N594 N 0.40131 0.22745 0.66278
 C595 C 0.42331 0.25107 0.66875
 N596 N 0.41918 0.27257 0.69175
 N597 N 0.57425 0.25287 0.70519
 C598 C 0.59803 0.26748 0.69140
 N599 N 0.59197 0.28008 0.66393
 N600 N 0.56315 0.27802 0.65083
 C601 C 0.53936 0.26362 0.66490
 N602 N 0.54549 0.25112 0.69231
 N603 N 0.07511 0.75605 0.20389
 C604 C 0.09917 0.76798 0.18856
 N605 N 0.09335 0.77828 0.15999
 N606 N 0.06437 0.77650 0.14725
 C607 C 0.04028 0.76468 0.16278
 N608 N 0.04625 0.75455 0.19132
 N609 N 0.32328 0.10227 0.20161
 C610 C 0.29935 0.10506 0.22034
 N611 N 0.29535 0.08453 0.24243
 N612 N 0.31453 0.06200 0.24572
 C613 C 0.33850 0.05913 0.22710
 N614 N 0.34255 0.07970 0.20494
 N615 N 0.82310 0.60290 0.70186
 C616 C 0.79933 0.60585 0.72076
 N617 N 0.79533 0.58532 0.74285
 N618 N 0.81434 0.56263 0.74597
 C619 C 0.83815 0.55959 0.72717
 N620 N 0.84220 0.58017 0.70502
 N621 N 0.84261 0.39678 0.75162
 C622 C 0.81541 0.38914 0.73489
 N623 N 0.80366 0.41015 0.71625
 N624 N 0.81815 0.43799 0.71487
 C625 C 0.84513 0.44584 0.73181
 N626 N 0.85730 0.42460 0.75001
 N627 N 0.34180 -0.10197 0.25515
 C628 C 0.31613 -0.11065 0.23637
 N629 N 0.30642 -0.09091 0.21524
 N630 N 0.32115 -0.06323 0.21355
 C631 C 0.34648 -0.05434 0.23258
 N632 N 0.35679 -0.07434 0.25321
 N633 N 0.18799 -0.11811 0.71818
 C634 C 0.20946 -0.12417 0.74070
 N635 N 0.21386 -0.10445 0.76605
 N636 N 0.19713 -0.07979 0.76883
 C637 C 0.17539 -0.07394 0.74642
 N638 N 0.17124 -0.09355 0.72100
 N639 N 0.68378 0.37769 0.22083
 C640 C 0.70540 0.37178 0.24325
 N641 N 0.70994 0.39154 0.26852
 N642 N 0.69329 0.41624 0.27128
 C643 C 0.67154 0.42211 0.24890
 N644 N 0.66714 0.40235 0.22361
 N645 N 0.71197 0.57169 0.26060
 C646 C 0.69597 0.59544 0.27138
 N647 N 0.66614 0.58960 0.27892
 N648 N 0.65283 0.56093 0.27568
 C649 C 0.66898 0.53714 0.26502
 N650 N 0.69877 0.54310 0.25756
 N651 N 0.16369 0.09277 0.77641
 C652 C 0.19035 0.10097 0.76289
 N653 N 0.20569 0.07871 0.74831
 N654 N 0.19485 0.04926 0.74735
 C655 C 0.16810 0.04103 0.76069
 N656 N 0.15265 0.06333 0.77513
 N657 N 0.23982 0.29657 0.08269
 C658 C 0.21798 0.30015 0.10355
 N659 N 0.19891 0.32371 0.10094
 N660 N 0.20170 0.34305 0.07827
 C661 C 0.22363 0.33943 0.05740
 N662 N 0.24257 0.31581 0.06006
 N663 N 0.73891 0.79689 0.58271
 C664 C 0.71734 0.80066 0.60381
 N665 N 0.69837 0.82431 0.60136
 N666 N 0.70102 0.84359 0.57863
 C667 C 0.72270 0.83981 0.55752
 N668 N 0.74152 0.81607 0.56002
 N669 N 0.71158 0.80811 0.40887
 C670 C 0.73147 0.81933 0.38848
 N671 N 0.74876 0.84618 0.39623
 N672 N 0.74657 0.86090 0.42367
 C673 C 0.72720 0.84914 0.44434
 N674 N 0.70960 0.82263 0.43627
 N675 N 0.25000 0.34635 -0.10406
 C676 C 0.23269 0.31955 -0.11192
 N677 N 0.21304 0.30806 -0.09146
 N678 N 0.21125 0.32232 -0.06389
 C679 C 0.22879 0.34884 -0.05575
 N680 N 0.24800 0.36082 -0.07646
 N681 N 0.77129 0.20468 -0.10522
 C682 C 0.74543 0.20089 -0.12459
 N683 N 0.72274 0.17918 -0.11888
 N684 N 0.72582 0.16170 -0.09480
 C685 C 0.75169 0.16537 -0.07542
 N686 N 0.77433 0.18724 -0.08107
 N687 N 0.27148 0.70527 0.39455
 C688 C 0.24616 0.70092 0.37452
 N689 N 0.22351 0.67905 0.37993
 N690 N 0.22612 0.66196 0.40435
 C691 C 0.25146 0.66618 0.42438
 N692 N 0.27406 0.68820 0.41904
 N693 N 0.27805 0.65788 0.59169
 C694 C 0.26650 0.68580 0.59771
 N695 N 0.25383 0.70078 0.57402
 N696 N 0.25284 0.68851 0.54532
 C697 C 0.26428 0.66062 0.53919
 N698 N 0.27678 0.64542 0.56291
 N699 N 0.77981 0.15623 0.09150
 C700 C 0.76770 0.18382 0.09777
 N701 N 0.75449 0.19868 0.07426
 N702 N 0.75354 0.18659 0.04550
 C703 C 0.76554 0.15902 0.03912
 N704 N 0.77857 0.14395 0.06266
 N705 N 0.50410 0.34450 0.55908
 C706 C 0.48391 0.36709 0.56216
 N707 N 0.46172 0.36418 0.58281
 N708 N 0.45957 0.33953 0.59962
 C709 C 0.47952 0.31680 0.59654
 N710 N 0.50198 0.31978 0.57604
 N711 N 0.00331 0.84271 0.05547
 C712 C -0.01707 0.86518 0.05814
 N713 N -0.03938 0.86235 0.07868
 N714 N -0.04141 0.83794 0.09583
 C715 C -0.02120 0.81538 0.09323
 N716 N 0.00133 0.81825 0.07278
 N717 N -0.02423 0.66347 0.05323
 C718 C 0.00608 0.66059 0.04760
 N719 N 0.02783 0.68204 0.06070
 N720 N 0.01950 0.70544 0.07887
 C721 C -0.01082 0.70805 0.08481
 N722 N -0.03250 0.68660 0.07165
 N723 N 0.52762 0.18323 0.56163
 C724 C 0.50594 0.16201 0.54801
 N725 N 0.47554 0.16504 0.55313
 N726 N 0.46711 0.18807 0.57157
 C727 C 0.48871 0.20927 0.58528
 N728 N 0.51913 0.20652 0.57985
 N729 N 0.01444 0.16152 0.47115
 C730 C -0.01564 0.15489 0.47738
 N731 N -0.03840 0.16812 0.46093
 N732 N -0.03135 0.18727 0.43902
 C733 C -0.00132 0.19348 0.43241
 N734 N 0.02146 0.18031 0.44892
 N735 N 0.46187 0.66841 0.96181
 C736 C 0.48472 0.65522 0.97817
 N737 N 0.51475 0.66183 0.97175
 N738 N 0.52162 0.68055 0.94941
 C739 C 0.49874 0.69368 0.93299
 N740 N 0.46876 0.68749 0.93980
 N741 N 0.49468 0.82411 0.95807
 C742 C 0.51270 0.84918 0.95069
 N743 N 0.52808 0.84757 0.92441
 N744 N 0.52611 0.82173 0.90646
 C745 C 0.50853 0.79648 0.91392
 N746 N 0.49258 0.79820 0.93994
 N747 N -0.00525 0.32411 0.45735
 C748 C 0.01296 0.34909 0.45009
 N749 N 0.02856 0.34738 0.42396
 N750 N 0.02662 0.32152 0.40603
 C751 C 0.00884 0.29636 0.41337
 N752 N -0.00732 0.29818 0.43924
 N753 N 0.36379 0.57858 0.45770
 C754 C 0.36815 0.55911 0.48063
 N755 N 0.34675 0.55688 0.50233
 N756 N 0.32180 0.57355 0.50096
 C757 C 0.31742 0.59294 0.47780
 N758 N 0.33896 0.59512 0.45633
 N759 N 0.84768 0.05524 0.00048
 C760 C 0.86862 0.05728 -0.02167
 N761 N 0.86390 0.07672 -0.04455
 N762 N 0.83918 0.09343 -0.04543
 C763 C 0.81810 0.09145 -0.02349
 N764 N 0.82283 0.07207 -0.00040
 N765 N 0.66528 0.04830 -0.02352
 C766 C 0.66105 0.04459 0.00676
 N767 N 0.68192 0.05901 0.02820
 N768 N 0.70602 0.07667 0.01958
 C769 C 0.70993 0.08074 -0.01076
 N770 N 0.68909 0.06622 -0.03210
 N771 N 0.18079 0.56011 0.52797
 C772 C 0.16009 0.54560 0.50642
 N773 N 0.16449 0.54933 0.47618
 N774 N 0.18830 0.56733 0.46773
 C775 C 0.20897 0.58193 0.48918
 N776 N 0.20489 0.57786 0.51948
 N777 N 0.16821 0.46166 -0.03741
 C778 C 0.15372 0.47682 -0.01483
 N779 N 0.15899 0.46924 0.01479
 N780 N 0.17771 0.44698 0.02151
 C781 C 0.19214 0.43174 -0.00109
 N782 N 0.18726 0.43969 -0.03063
 N783 N 0.65882 0.97026 0.51542
 C784 C 0.65367 0.97804 0.48585
 N785 N 0.66804 0.96284 0.46321
 N786 N 0.68685 0.94065 0.46988
 C787 C 0.69160 0.93250 0.49937
 N788 N 0.67731 0.94778 0.52203
 N789 N 0.84604 0.92469 0.52768
 C790 C 0.84714 0.95235 0.51459
 N791 N 0.82165 0.96043 0.49790
 N792 N 0.79580 0.94165 0.49497
 C793 C 0.79456 0.91427 0.50876
 N794 N 0.82025 0.90609 0.52492
 N795 N 0.34686 0.42487 0.02804
 C796 C 0.34793 0.45250 0.01491
 N797 N 0.32245 0.46052 -0.00183
 N798 N 0.29663 0.44169 -0.00479
 C799 C 0.29542 0.41433 0.00904
 N800 N 0.32111 0.40622 0.02526
 N801 N 0.58364 0.45686 0.36089
 C802 C 0.56386 0.47958 0.36455
 N803 N 0.56153 0.50064 0.34262
 N804 N 0.57843 0.49890 0.31788
 C805 C 0.59810 0.47596 0.31419
 N806 N 0.60038 0.45509 0.33623
 N807 N 0.08635 -0.04224 0.85891
 C808 C 0.06599 -0.02002 0.86248
 N809 N 0.06339 0.00111 0.84067
 N810 N 0.08056 -0.00008 0.81611
 C811 C 0.10080 -0.02251 0.81248
 N812 N 0.10338 -0.04346 0.83442
 N813 N 0.05707 -0.02226 0.66183
 C814 C 0.05210 0.00804 0.65904
 N815 N 0.06636 0.02928 0.68010
 N816 N 0.08498 0.02045 0.70305
 C817 C 0.09020 -0.00986 0.70562
 N818 N 0.07597 -0.03102 0.68451
 N819 N 0.55645 0.47741 0.16296
 C820 C 0.55196 0.50781 0.16023
 N821 N 0.56631 0.52881 0.18149
 N822 N 0.58456 0.51962 0.20458
 C823 C 0.58928 0.48918 0.20708
 N824 N 0.57494 0.46829 0.18576
 N825 N 0.45810 -0.03678 0.17050
 C826 C 0.47471 -0.01418 0.15692
 N827 N 0.46913 0.01575 0.16367
 N828 N 0.44732 0.02278 0.18288
 C829 C 0.43060 0.00016 0.19635
 N830 N 0.43663 -0.02973 0.19007
 N831 N 0.95686 0.46315 0.66942
 C832 C 0.97358 0.48580 0.65601
 N833 N 0.96815 0.51572 0.66301
 N834 N 0.94638 0.52270 0.68229
 C835 C 0.92956 0.50003 0.69559
 N836 N 0.93544 0.47014 0.68906
 N837 N 0.92238 0.52769 0.84957
 C838 C 0.95042 0.51528 0.84998
 N839 N 0.95873 0.49965 0.82416
 N840 N 0.93979 0.49698 0.79871
 C841 C 0.91201 0.51004 0.79816
 N842 N 0.90363 0.52526 0.82412
 N843 N 0.42277 0.02858 0.35008
 C844 C 0.45081 0.01618 0.35065
 N845 N 0.45919 0.00038 0.32498
 N846 N 0.44031 -0.00247 0.29949
 C847 C 0.41252 0.01057 0.29877
 N848 N 0.40407 0.02597 0.32459
   
