data_POSCAR
  _audit_creation_date              2014-09-24
  _audit_creation_method            'ToBaCCo'
  _symmetry_space_group_name_H-M    'P1'
  _symmetry_Int_Tables_number       1
  _symmetry_cell_setting            triclinic
  loop_
  _symmetry_equiv_pos_as_xyz
 x,y,z
_cell_length_a 29.7575
_cell_length_b 31.4236
_cell_length_c 20.0104
_cell_angle_alpha 89.409800
_cell_angle_beta 89.517400
_cell_angle_gamma 90.302700
loop_
  _atom_site_label
  _atom_site_type_symbol
  _atom_site_fract_x
  _atom_site_fract_y
  _atom_site_fract_z
O1 O 0.27464 0.29736 0.31541
 O2 O 0.18735 0.22060 0.26682
 O3 O 0.26916 0.21553 0.31171
 O4 O 0.19326 0.30379 0.27026
 O5 O 0.21811 0.30349 0.16598
 O6 O 0.29680 0.21741 0.20899
 O7 O 0.21494 0.22002 0.16406
 O8 O 0.30004 0.29973 0.21140
 Cu9 Cu 0.22817 0.25921 0.30126
 Cu10 Cu 0.25986 0.26030 0.17703
 C11 C 0.30241 0.31141 0.27184
 C12 C 0.18673 0.20664 0.20755
 C13 C 0.29666 0.20203 0.26792
 C14 C 0.19276 0.31873 0.21112
 O15 O 0.81682 0.28041 0.27678
 O16 O 0.73486 0.20178 0.34171
 O17 O 0.81455 0.19900 0.28724
 O18 O 0.73656 0.28504 0.33240
 O19 O 0.70507 0.28081 0.23313
 O20 O 0.78439 0.19653 0.18684
 O21 O 0.70444 0.19779 0.24176
 O22 O 0.78417 0.27879 0.17801
 Cu23 Cu 0.77849 0.24207 0.31983
 Cu24 Cu 0.74120 0.23804 0.20010
 C25 C 0.81472 0.29257 0.21621
 C26 C 0.70595 0.18594 0.30255
 C27 C 0.81338 0.18382 0.22875
 C28 C 0.70750 0.29752 0.29041
 O29 O 0.77464 0.79736 0.81541
 O30 O 0.68735 0.72060 0.76682
 O31 O 0.76916 0.71553 0.81171
 O32 O 0.69326 0.80379 0.77026
 O33 O 0.71811 0.80349 0.66598
 O34 O 0.79680 0.71741 0.70899
 O35 O 0.71494 0.72002 0.66406
 O36 O 0.80004 0.79973 0.71140
 Cu37 Cu 0.72817 0.75921 0.80126
 Cu38 Cu 0.75986 0.76030 0.67703
 C39 C 0.80241 0.81141 0.77184
 C40 C 0.68673 0.70664 0.70755
 C41 C 0.79666 0.70203 0.76792
 C42 C 0.69276 0.81873 0.71112
 O43 O 0.28439 0.69653 0.68684
 O44 O 0.20507 0.78081 0.73313
 O45 O 0.28417 0.77879 0.67801
 O46 O 0.20444 0.69779 0.74176
 O47 O 0.23486 0.70178 0.84171
 O48 O 0.31682 0.78041 0.77678
 O49 O 0.23656 0.78504 0.83240
 O50 O 0.31455 0.69900 0.78724
 Cu51 Cu 0.24120 0.73804 0.70010
 Cu52 Cu 0.27849 0.74207 0.81983
 C53 C 0.31338 0.68382 0.72875
 C54 C 0.20750 0.79752 0.79041
 C55 C 0.31472 0.79257 0.71621
 C56 C 0.20595 0.68594 0.80255
 C57 C 1.03380 -0.12814 -0.08609
 C58 C 0.98779 -0.12904 -0.08763
 C59 C 0.97316 -0.09241 -0.05646
 N60 N 1.00884 -0.06937 -0.03564
 C61 C 1.04609 -0.09077 -0.05450
 C62 C 0.92760 -0.08278 -0.04279
 C63 C 0.91350 -0.04621 -0.00796
 C64 C 0.87073 -0.04061 0.01864
 C65 C 0.86958 -0.00039 0.04473
 C66 C 0.91154 0.01769 0.03302
 N67 N 0.93804 -0.01036 0.00062
 C68 C 0.92322 0.06001 0.04871
 C69 C 0.96768 0.07595 0.04585
 C70 C 0.97929 0.11865 0.04843
 C71 C 1.02532 0.12055 0.04671
 C72 C 1.04036 0.07891 0.04371
 N73 N 1.00503 0.05170 0.04320
 C74 C 1.08600 0.06650 0.04473
 C75 C 1.10042 0.02467 0.03056
 C76 C 1.14324 0.00946 0.04276
 C77 C 1.14457 -0.03148 0.01929
 C78 C 1.10244 -0.04039 -0.00657
 N79 N 1.07586 -0.00580 0.00009
 C80 C 1.09083 -0.07874 -0.03910
 H81 H 1.05536 -0.15307 -0.10454
 H82 H 0.96760 -0.15463 -0.10741
 H83 H 1.04466 -0.00144 -0.02160
 H84 H 0.84295 -0.06297 0.01887
 H85 H 0.84085 0.01406 0.06887
 H86 H 0.95694 0.14566 0.05073
 H87 H 1.04531 0.14940 0.04732
 H88 H 1.17357 -0.05208 0.02063
 H89 H 0.96903 -0.00359 -0.02126
 H90 H 1.17086 0.02617 0.06586
 C91 C 0.53380 0.37186 0.41391
 C92 C 0.48779 0.37096 0.41237
 C93 C 0.47316 0.40759 0.44354
 N94 N 0.50884 0.43063 0.46436
 C95 C 0.54609 0.40923 0.44550
 C96 C 0.42760 0.41722 0.45721
 C97 C 0.41350 0.45379 0.49204
 C98 C 0.37073 0.45939 0.51864
 C99 C 0.36958 0.49961 0.54473
 C100 C 0.41154 0.51769 0.53302
 N101 N 0.43804 0.48964 0.50062
 C102 C 0.42322 0.56001 0.54871
 C103 C 0.46768 0.57595 0.54585
 C104 C 0.47929 0.61865 0.54843
 C105 C 0.52532 0.62055 0.54671
 C106 C 0.54036 0.57891 0.54371
 N107 N 0.50503 0.55170 0.54321
 C108 C 0.58600 0.56650 0.54473
 C109 C 0.60042 0.52467 0.53056
 C110 C 0.64324 0.50946 0.54276
 C111 C 0.64457 0.46852 0.51929
 C112 C 0.60244 0.45961 0.49343
 N113 N 0.57586 0.49420 0.50009
 C114 C 0.59083 0.42126 0.46090
 H115 H 0.55536 0.34693 0.39546
 H116 H 0.46760 0.34537 0.39259
 H117 H 0.54466 0.49856 0.47840
 H118 H 0.34295 0.43703 0.51887
 H119 H 0.34085 0.51406 0.56887
 H120 H 0.45694 0.64566 0.55073
 H121 H 0.54531 0.64940 0.54732
 H122 H 0.67357 0.44792 0.52063
 H123 H 0.46903 0.49641 0.47874
 H124 H 0.67086 0.52617 0.56586
 C125 C 0.01630 0.41053 0.13012
 C126 C -0.02931 0.41319 0.13921
 C127 C -0.04541 0.43858 0.08780
 N128 N -0.01085 0.45277 0.04918
 C129 C 0.02701 0.43589 0.07505
 C130 C -0.09134 0.44560 0.07332
 C131 C -0.10536 0.47822 0.02907
 C132 C -0.14827 0.48180 0.00298
 C133 C -0.14920 0.51917 -0.03321
 C134 C -0.10678 0.53728 -0.02870
 N135 N -0.08024 0.51220 0.00937
 C136 C -0.09453 0.57730 -0.05601
 C137 C -0.04938 0.59067 -0.06377
 C138 C -0.03558 0.63180 -0.07942
 C139 C 0.01028 0.63067 -0.08628
 C140 C 0.02298 0.58891 -0.07433
 N141 N -0.01355 0.56449 -0.06073
 C142 C 0.06730 0.57348 -0.07980
 C143 C 0.07938 0.53200 -0.05869
 C144 C 0.11811 0.51095 -0.07807
 C145 C 0.11875 0.47305 -0.04302
 C146 C 0.08025 0.47186 -0.00338
 N147 N 0.05651 0.50798 -0.01323
 C148 C 0.07007 0.44005 0.04502
 H149 H 0.03842 0.39168 0.16084
 H150 H -0.04829 0.39761 0.17887
 H151 H 0.02919 0.51797 0.01523
 H152 H -0.17624 0.45996 0.00955
 H153 H -0.17792 0.53166 -0.05967
 H154 H -0.05630 0.65977 -0.08521
 H155 H 0.03177 0.65758 -0.09856
 H156 H 0.14510 0.44952 -0.04562
 H157 H -0.04863 0.52028 0.02718
 H158 H 0.14352 0.52189 -0.11332
 C159 C 0.51630 0.91053 0.63012
 C160 C 0.47069 0.91319 0.63920
 C161 C 0.45459 0.93858 0.58780
 N162 N 0.48915 0.95277 0.54918
 C163 C 0.52701 0.93589 0.57505
 C164 C 0.40866 0.94560 0.57332
 C165 C 0.39464 0.97822 0.52907
 C166 C 0.35173 0.98180 0.50298
 C167 C 0.35080 1.01917 0.46679
 C168 C 0.39322 1.03728 0.47130
 N169 N 0.41976 1.01220 0.50937
 C170 C 0.40547 1.07730 0.44399
 C171 C 0.45062 1.09067 0.43623
 C172 C 0.46442 1.13180 0.42058
 C173 C 0.51028 1.13067 0.41372
 C174 C 0.52298 1.08891 0.42567
 N175 N 0.48645 1.06449 0.43927
 C176 C 0.56730 1.07348 0.42020
 C177 C 0.57938 1.03200 0.44131
 C178 C 0.61811 1.01095 0.42193
 C179 C 0.61875 0.97305 0.45698
 C180 C 0.58025 0.97186 0.49662
 N181 N 0.55651 1.00798 0.48677
 C182 C 0.57007 0.94005 0.54502
 H183 H 0.53842 0.89168 0.66084
 H184 H 0.45171 0.89761 0.67887
 H185 H 0.52919 1.01797 0.51523
 H186 H 0.32376 0.95996 0.50955
 H187 H 0.32208 1.03166 0.44033
 H188 H 0.44370 1.15977 0.41479
 H189 H 0.53177 1.15758 0.40144
 H190 H 0.64510 0.94952 0.45438
 H191 H 0.45137 1.02028 0.52718
 H192 H 0.64352 1.02189 0.38668
 C193 C 1.15266 0.17457 0.19008
 C194 C 1.15365 0.15355 0.13233
 C195 C 1.11889 0.12164 0.11703
 C196 C 1.12098 0.09861 0.06126
 H197 H 1.18030 0.15976 0.09619
 H198 H 1.09105 0.11689 0.15167
 H199 H 1.12644 0.16745 0.22652
 H200 H 1.15002 0.10165 0.02844
 C201 C 0.65266 0.67457 0.69008
 C202 C 0.65365 0.65355 0.63233
 C203 C 0.61889 0.62164 0.61703
 C204 C 0.62098 0.59861 0.56126
 H205 H 0.68030 0.65976 0.59619
 H206 H 0.59105 0.61689 0.65167
 H207 H 0.62644 0.66745 0.72652
 H208 H 0.65002 0.60165 0.52844
 C209 C -0.15056 0.32146 0.18949
 C210 C -0.15937 0.35047 0.14237
 C211 C -0.12284 0.37618 0.11302
 C212 C -0.12709 0.41817 0.10431
 H213 H -0.19358 0.35582 0.12622
 H214 H -0.09207 0.36017 0.09916
 H215 H -0.11689 0.31899 0.20943
 H216 H -0.15877 0.43282 0.11775
 C217 C 0.34944 0.82146 0.68949
 C218 C 0.34063 0.85047 0.64237
 C219 C 0.37716 0.87618 0.61302
 C220 C 0.37291 0.91817 0.60431
 H221 H 0.30642 0.85582 0.62622
 H222 H 0.40793 0.86017 0.59916
 H223 H 0.38311 0.81899 0.70943
 H224 H 0.34123 0.93282 0.61775
 C225 C -0.17213 0.67070 -0.21568
 C226 C -0.16951 0.65353 -0.15433
 C227 C -0.13354 0.62352 -0.13715
 C228 C -0.13127 0.60640 -0.07590
 H229 H -0.19315 0.66263 -0.11552
 H230 H -0.10808 0.61600 -0.17421
 H231 H -0.14837 0.66095 -0.25390
 H232 H -0.15794 0.61224 -0.03994
 C233 C 0.32787 1.17070 0.28432
 C234 C 0.33049 1.15353 0.34567
 C235 C 0.36646 1.12352 0.36285
 C236 C 0.36873 1.10640 0.42410
 H237 H 0.30685 1.16263 0.38448
 H238 H 0.39192 1.11600 0.32579
 H239 H 0.35163 1.16095 0.24610
 H240 H 0.34206 1.11224 0.46006
 C241 C 1.17567 -0.16846 -0.19277
 C242 C 1.17189 -0.15233 -0.13146
 C243 C 1.13739 -0.12024 -0.11689
 C244 C 1.12769 -0.10898 -0.05424
 H245 H 1.19298 -0.16399 -0.09141
 H246 H 1.11812 -0.10684 -0.15773
 H247 H 1.15352 -0.15729 -0.23190
 H248 H 1.14733 -0.12153 -0.01322
 C249 C 0.67567 0.33154 0.30723
 C250 C 0.67189 0.34767 0.36854
 C251 C 0.63739 0.37976 0.38311
 C252 C 0.62769 0.39102 0.44576
 H253 H 0.69298 0.33601 0.40859
 H254 H 0.61812 0.39316 0.34227
 H255 H 0.65352 0.34271 0.26810
 H256 H 0.64733 0.37847 0.48678
 C257 C 0.83820 -0.15876 -0.20883
 C258 C 0.84643 -0.14989 -0.14488
 C259 C 0.88310 -0.12085 -0.12636
 C260 C 0.89241 -0.11373 -0.06226
 H261 H 0.82624 -0.16458 -0.10551
 H262 H 0.90262 -0.10489 -0.16527
 H263 H 0.85904 -0.14470 -0.24797
 H264 H 0.87218 -0.12870 -0.02323
 C265 C 0.33820 0.34124 0.29117
 C266 C 0.34643 0.35011 0.35512
 C267 C 0.38310 0.37915 0.37364
 C268 C 0.39241 0.38627 0.43774
 H269 H 0.32624 0.33542 0.39449
 H270 H 0.40262 0.39511 0.33473
 H271 H 0.35904 0.35530 0.25203
 H272 H 0.37218 0.37130 0.47677
 C273 C 0.17506 0.65545 -0.17434
 C274 C 0.17452 0.64076 -0.11101
 C275 C 0.14132 0.60959 -0.08428
 C276 C 0.10142 0.60170 -0.11234
 H277 H 0.19997 0.65133 -0.07641
 H278 H 0.14910 0.59452 -0.03686
 H279 H 0.15109 0.64345 -0.20996
 H280 H 0.09129 0.61918 -0.15648
 C281 C 0.67506 1.15545 0.32566
 C282 C 0.67452 1.14076 0.38899
 C283 C 0.64132 1.10959 0.41572
 C284 C 0.60142 1.10170 0.38766
 H285 H 0.69997 1.15133 0.42359
 H286 H 0.64910 1.09452 0.46314
 H287 H 0.65109 1.14345 0.29004
 H288 H 0.59129 1.11918 0.34352
 C289 C 0.16233 0.35425 0.19582
 C290 C 0.15425 0.36736 0.13335
 C291 C 0.12203 0.40179 0.12023
 C292 C 0.10482 0.40755 0.05942
 H293 H 0.16998 0.35143 0.09149
 H294 H 0.11098 0.42164 0.16114
 H295 H 0.14503 0.36923 0.23719
 H296 H 0.11677 0.38834 0.01831
 C297 C 0.66233 0.85425 0.69582
 C298 C 0.65425 0.86736 0.63335
 C299 C 0.62203 0.90179 0.62023
 C300 C 0.60482 0.90755 0.55942
 H301 H 0.66998 0.85143 0.59149
 H302 H 0.61098 0.92164 0.66114
 H303 H 0.64503 0.86923 0.73719
 H304 H 0.61677 0.88834 0.51831
 C305 C 0.84716 0.15213 0.20946
 C306 C 0.84910 0.13583 0.14811
 C307 C 0.88583 0.10727 0.12864
 C308 C 0.88646 0.08898 0.06873
 H309 H 0.82407 0.14440 0.11135
 H310 H 0.91291 0.10121 0.16336
 H311 H 0.87223 0.14324 0.24599
 H312 H 0.85838 0.09311 0.03514
 C313 C 0.34716 0.65213 0.70946
 C314 C 0.34910 0.63583 0.64811
 C315 C 0.38583 0.60727 0.62864
 C316 C 0.38646 0.58898 0.56873
 H317 H 0.32407 0.64440 0.61135
 H318 H 0.41291 0.60121 0.66336
 H319 H 0.37223 0.64324 0.74599
 H320 H 0.35838 0.59311 0.53514
   
