data_POSCAR
  _audit_creation_date              2014-09-24
  _audit_creation_method            'ToBaCCo'
  _symmetry_space_group_name_H-M    'P1'
  _symmetry_Int_Tables_number       1
  _symmetry_cell_setting            triclinic
  loop_
  _symmetry_equiv_pos_as_xyz
 x,y,z
_cell_length_a 51.8480
_cell_length_b 51.2380
_cell_length_c 51.6745
_cell_angle_alpha 89.611500
_cell_angle_beta 89.663400
_cell_angle_gamma 89.974800
loop_
  _atom_site_label
  _atom_site_type_symbol
  _atom_site_fract_x
  _atom_site_fract_y
  _atom_site_fract_z
N1 N 0.14340 0.15409 0.20370
 N2 N 0.16532 0.14463 0.21221
 C3 C 0.16113 0.13188 0.23468
 C4 C 0.13492 0.13305 0.24055
 C5 C 0.12432 0.14722 0.22014
 H6 H 0.17612 0.12224 0.24558
 H7 H 0.10441 0.15288 0.21759
 Cu8 Cu 0.19700 0.14926 0.19251
 Cu9 Cu 0.14193 0.17597 0.17269
 Cu10 Cu 0.20112 0.20314 0.15588
 N11 N 0.22624 0.15527 0.16963
 N12 N 0.22868 0.17713 0.15642
 C13 C 0.25087 0.17647 0.14277
 C14 C 0.26268 0.15246 0.14706
 C15 C 0.24636 0.13962 0.16437
 H16 H 0.25700 0.19174 0.12957
 H17 H 0.24883 0.12042 0.17275
 N18 N 0.16790 0.21897 0.14633
 N19 N 0.14551 0.20768 0.15128
 C20 C 0.12652 0.22239 0.14124
 C21 C 0.13747 0.24407 0.12945
 C22 C 0.16376 0.24127 0.13309
 H23 H 0.10619 0.21804 0.14315
 H24 H 0.17883 0.25419 0.12619
 H25 H 0.17821 0.17142 0.15514
 H26 H 0.17560 0.19099 0.18536
 N27 N -0.13848 0.83406 0.21506
 N28 N -0.15684 0.85152 0.21795
 C29 C -0.15105 0.86688 0.23816
 C30 C -0.12766 0.85881 0.24817
 C31 C -0.12021 0.83799 0.23301
 H32 H -0.16253 0.88322 0.24467
 H33 H -0.10284 0.82648 0.23501
 Cu34 Cu -0.18572 0.85378 0.19409
 Cu35 Cu -0.13968 0.80753 0.18839
 Cu36 Cu -0.18921 0.81199 0.14401
 N37 N -0.21241 0.85673 0.16787
 N38 N -0.21412 0.83997 0.14885
 C39 C -0.23460 0.84609 0.13414
 C40 C -0.24634 0.86824 0.14420
 C41 C -0.23150 0.87444 0.16562
 H42 H -0.24002 0.83549 0.11701
 H43 H -0.23453 0.89034 0.17891
 N44 N -0.16222 0.78495 0.14240
 N45 N -0.14407 0.78250 0.16004
 C46 C -0.12922 0.76174 0.15419
 C47 C -0.13819 0.75100 0.13153
 C48 C -0.15903 0.76621 0.12450
 H49 H -0.11258 0.75537 0.16506
 H50 H -0.17102 0.76361 0.10767
 H51 H -0.15928 0.83105 0.16221
 H52 H -0.17915 0.80814 0.18239
 N53 N -0.13978 0.15521 -0.21434
 N54 N -0.15138 0.13338 -0.20756
 C55 C -0.14500 0.11458 -0.22451
 C56 C -0.12871 0.12528 -0.24307
 C57 C -0.12584 0.15113 -0.23600
 H58 H -0.15227 0.09481 -0.22381
 H59 H -0.11432 0.16581 -0.24577
 Cu60 Cu -0.17502 0.13168 -0.17826
 Cu61 Cu -0.14335 0.18700 -0.19423
 Cu62 Cu -0.19417 0.18821 -0.15096
 N63 N -0.20618 0.13397 -0.15734
 N64 N -0.21442 0.15630 -0.14809
 C65 C -0.23679 0.15236 -0.13535
 C66 C -0.24291 0.12596 -0.13636
 C67 C -0.22284 0.11496 -0.15053
 H68 H -0.24722 0.16753 -0.12531
 H69 H -0.22062 0.09477 -0.15602
 N70 N -0.17081 0.21814 -0.15630
 N71 N -0.15072 0.21721 -0.17206
 C72 C -0.13647 0.23890 -0.16898
 C73 C -0.14826 0.25435 -0.15051
 C74 C -0.17007 0.24066 -0.14300
 H75 H -0.11843 0.24284 -0.17885
 H76 H -0.18338 0.24593 -0.12772
 H77 H -0.15870 0.17187 -0.15982
 H78 H -0.18163 0.17753 -0.18738
 N79 N 0.14459 0.84357 -0.20831
 N80 N 0.16251 0.86169 -0.20930
 C81 C 0.15781 0.87767 -0.22958
 C82 C 0.13551 0.86928 -0.24148
 C83 C 0.12762 0.84766 -0.22748
 H84 H 0.16920 0.89459 -0.23485
 H85 H 0.11083 0.83574 -0.23107
 Cu86 Cu 0.18903 0.86330 -0.18286
 Cu87 Cu 0.14435 0.81605 -0.18230
 Cu88 Cu 0.19192 0.81810 -0.13544
 N89 N 0.21579 0.86422 -0.15666
 N90 N 0.21742 0.84598 -0.13875
 C91 C 0.23806 0.85075 -0.12380
 C92 C 0.24985 0.87357 -0.13250
 C93 C 0.23500 0.88153 -0.15340
 H94 H 0.24350 0.83885 -0.10737
 H95 H 0.23820 0.89831 -0.16576
 N96 N 0.16436 0.79147 -0.13569
 N97 N 0.14719 0.79000 -0.15440
 C98 C 0.13176 0.76933 -0.14998
 C99 C 0.13919 0.75756 -0.12718
 C100 C 0.15979 0.77210 -0.11845
 H101 H 0.11570 0.76366 -0.16195
 H102 H 0.17069 0.76864 -0.10098
 H103 H 0.16211 0.83744 -0.15360
 H104 H 0.18344 0.81685 -0.17432
 N105 N 0.16291 1.13801 0.78701
 N106 N 0.14222 1.15179 0.79240
 C107 C 0.12418 1.14735 0.77436
 C108 C 0.13417 1.12993 0.75657
 C109 C 0.15884 1.12442 0.76521
 H110 H 0.10537 1.15649 0.77397
 H111 H 0.17259 1.11118 0.75653
 Cu112 Cu 0.14088 1.17492 0.82190
 Cu113 Cu 0.19290 1.13829 0.80946
 Cu114 Cu 0.19608 1.18913 0.85311
 N115 N 0.14427 1.20582 0.84293
 N116 N 0.16616 1.21232 0.85387
 C117 C 0.16280 1.23485 0.86680
 C118 C 0.13736 1.24259 0.86394
 C119 C 0.12622 1.22372 0.84866
 H120 H 0.17735 1.24424 0.87841
 H121 H 0.10643 1.22308 0.84220
 N122 N 0.22344 1.16239 0.84972
 N123 N 0.22151 1.14235 0.83392
 C124 C 0.24047 1.12520 0.83915
 C125 C 0.25521 1.13499 0.85904
 C126 C 0.24400 1.15867 0.86517
 H127 H 0.24281 1.10649 0.82989
 H128 H 0.24927 1.17119 0.88103
 H129 H 0.17760 1.15534 0.84332
 H130 H 0.18712 1.17810 0.81625
 N131 N 0.82172 0.84036 0.76574
 N132 N 0.84283 0.82672 0.76972
 C133 C 0.85943 0.83107 0.75000
 C134 C 0.84790 0.84803 0.73263
 C135 C 0.82395 0.85342 0.74315
 H136 H 0.87863 0.82296 0.74854
 H137 H 0.80993 0.86715 0.73572
 Cu138 Cu 0.84682 0.80517 0.80060
 Cu139 Cu 0.79485 0.84371 0.79197
 Cu140 Cu 0.80307 0.80831 0.84876
 N141 N 0.84906 0.78266 0.83101
 N142 N 0.83262 0.78496 0.85031
 C143 C 0.83857 0.76748 0.86890
 C144 C 0.85966 0.75318 0.86067
 C145 C 0.86581 0.76329 0.83650
 H146 H 0.82770 0.76460 0.88661
 H147 H 0.88127 0.75694 0.82389
 N148 N 0.77416 0.83258 0.84323
 N149 N 0.77020 0.84491 0.82110
 C150 C 0.74852 0.85927 0.82314
 C151 C 0.73849 0.85598 0.84781
 C152 C 0.75524 0.83894 0.85999
 H153 H 0.74105 0.87195 0.80815
 H154 H 0.75361 0.83160 0.87959
 H155 H 0.81837 0.83561 0.82299
 H156 H 0.80055 0.80747 0.80881
 N157 N 0.16512 0.84673 1.21513
 N158 N 0.14425 0.83261 1.21167
 C159 C 0.12654 0.83886 1.22967
 C160 C 0.13701 0.85758 1.24558
 C161 C 0.16162 0.86201 1.23598
 H162 H 0.10748 0.83038 1.23113
 H163 H 0.17547 0.87607 1.24293
 Cu164 Cu 0.14241 0.80681 1.18448
 Cu165 Cu 0.19400 0.84536 1.19060
 Cu166 Cu 0.17434 0.82284 1.13054
 N167 N 0.13938 0.78598 1.15352
 N168 N 0.15150 0.79269 1.13209
 C169 C 0.14528 0.77583 1.11328
 C170 C 0.12864 0.75730 1.12364
 C171 C 0.12532 0.76441 1.14926
 H172 H 0.15270 0.77680 1.09370
 H173 H 0.11323 0.75489 1.16360
 N174 N 0.20504 0.84482 1.13540
 N175 N 0.21349 0.85202 1.15832
 C176 C 0.23583 0.86512 1.15519
 C177 C 0.24158 0.86631 1.12898
 C178 C 0.22161 0.85326 1.11707
 H179 H 0.24678 0.87360 1.17077
 H180 H 0.21965 0.84950 1.09661
 H181 H 0.16566 0.84310 1.16442
 H182 H 0.18584 0.81307 1.16686
 N183 N 0.83002 1.15135 1.22621
 N184 N 0.84898 1.16823 1.22360
 C185 C 0.86565 1.16494 1.24325
 C186 C 0.85629 1.14526 1.25917
 C187 C 0.83368 1.13706 1.24781
 H188 H 0.88298 1.17630 1.24604
 H189 H 0.82109 1.12154 1.25447
 Cu190 Cu 0.84951 1.19340 1.19514
 Cu191 Cu 0.80300 1.14850 1.20042
 Cu192 Cu 0.79089 1.20789 1.17089
 N193 N 0.84429 1.22293 1.17190
 N194 N 0.82123 1.22910 1.16336
 C195 C 0.82284 1.25114 1.14913
 C196 C 0.84837 1.25902 1.14840
 C197 C 0.86146 1.24061 1.16305
 H198 H 0.80669 1.26042 1.13963
 H199 H 0.88183 1.24044 1.16744
 N200 N 0.76592 1.17872 1.17119
 N201 N 0.77124 1.15566 1.18137
 C202 C 0.75209 1.13895 1.17589
 C203 C 0.73369 1.15211 1.16160
 C204 C 0.74300 1.17734 1.15910
 H205 H 0.75180 1.11859 1.18155
 H206 H 0.73450 1.19306 1.14797
 H207 H 0.81349 1.17547 1.17090
 H208 H 0.80342 1.18762 1.20347
 O209 O 0.53985 0.95664 0.95812
 O210 O 0.56736 0.97929 0.98433
 C211 C 0.56280 0.96292 0.96594
 O212 O 0.46695 1.05030 0.96209
 O213 O 0.43829 1.02396 0.98393
 C214 C 0.44367 1.04300 0.96815
 O215 O 0.53953 1.04777 0.96028
 O216 O 0.56738 1.02269 0.98430
 C217 C 0.56255 1.04040 0.96695
 O218 O 0.46715 0.95289 0.96068
 O219 O 0.43848 0.97874 0.98283
 C220 C 0.44392 0.96020 0.96679
 Zr221 Zr 0.50312 0.96871 0.97217
 O222 O 0.50049 0.97143 0.93136
 O223 O 0.50629 0.92767 0.96950
 Zr224 Zr 0.50300 1.03463 0.97362
 O225 O 0.50078 1.03471 0.93272
 O226 O 0.50583 1.07583 0.97349
 O227 O 0.52621 1.00182 0.96817
 O228 O 0.48065 1.00178 0.96786
 O229 O 0.46541 0.95226 1.04970
 O230 O 0.43766 0.97743 1.02576
 C231 C 0.44240 0.95924 1.04263
 O232 O 0.53790 1.04494 1.05431
 O233 O 0.56642 1.02156 1.02952
 C234 C 0.56115 1.03797 1.04777
 O235 O 0.46523 1.04731 1.05099
 O236 O 0.43761 1.02209 1.02723
 C237 C 0.44229 1.03986 1.04426
 O238 O 0.53789 0.95319 1.05174
 O239 O 0.56653 0.97860 1.02869
 C240 C 0.56108 0.96055 1.04553
 Zr241 Zr 0.50190 0.96684 1.03776
 O242 O 0.49877 0.96630 1.07863
 O243 O 0.50431 0.92559 1.03710
 Zr244 Zr 0.50185 1.03290 1.03908
 O245 O 0.49827 1.03160 1.07990
 O246 O 0.50468 1.07411 1.03989
 Zr247 Zr 0.54070 1.00074 1.00621
 Zr248 Zr 0.46421 1.00071 1.00517
 O249 O 0.47946 0.99973 1.04283
 O250 O 0.52475 0.99970 1.04381
 O251 O 0.47962 0.96262 1.00462
 O252 O 0.52481 1.03852 1.00674
 O253 O 0.52476 0.96298 1.00515
 O254 O 0.47944 1.03884 1.00619
 H255 H 0.46897 1.00215 0.95275
 H256 H 0.53651 1.05380 1.00725
 H257 H 0.46758 0.99933 1.05791
 H258 H 0.53628 0.94755 1.00492
 H259 H 0.49273 1.08246 0.98577
 H260 H 0.49019 1.08125 1.02969
 H261 H 0.51245 1.02055 1.08652
 H262 H 0.51391 0.97563 1.08556
 H263 H 0.48955 0.91909 1.02695
 H264 H 0.49529 0.92016 0.98335
 H265 H 0.51627 0.98027 0.92496
 H266 H 0.51624 1.02558 0.92605
 O267 O -0.04811 0.45851 0.03847
 O268 O -0.02149 0.43145 0.01534
 C269 C -0.03984 0.43549 0.03199
 O270 O -0.04665 0.53275 -0.05478
 O271 O -0.02600 0.56212 -0.02874
 C272 C -0.04142 0.55640 -0.04753
 O273 O -0.04673 0.45917 -0.05151
 O274 O -0.02062 0.43178 -0.02803
 C275 C -0.03851 0.43609 -0.04496
 O276 O -0.04820 0.53207 0.04161
 O277 O -0.02664 0.56189 0.01619
 C278 C -0.04261 0.55588 0.03470
 Zr279 Zr -0.03540 0.49601 0.02607
 O280 O -0.07615 0.49747 0.02383
 O281 O -0.03793 0.49256 0.06682
 Zr282 Zr -0.03399 0.49648 -0.03923
 O283 O -0.07480 0.49789 -0.03917
 O284 O -0.03357 0.49345 -0.08006
 O285 O -0.03853 0.47266 -0.00662
 O286 O -0.04043 0.51882 -0.00663
 O287 O 0.03952 0.53606 0.04240
 O288 O 0.01607 0.56380 0.01663
 C289 C 0.03215 0.55920 0.03524
 O290 O 0.04841 0.46378 -0.04963
 O291 O 0.02358 0.43397 -0.02752
 C292 C 0.04220 0.43999 -0.04331
 O293 O 0.04156 0.53689 -0.05295
 O294 O 0.01674 0.56423 -0.02818
 C295 C 0.03373 0.55996 -0.04619
 O296 O 0.04620 0.46308 0.03922
 O297 O 0.02309 0.43354 0.01564
 C298 C 0.04063 0.43939 0.03239
 Zr299 Zr 0.02989 0.49909 0.02715
 O300 O 0.07039 0.50440 0.02763
 O301 O 0.02936 0.49548 0.06800
 Zr302 Zr 0.03121 0.49959 -0.03833
 O303 O 0.07167 0.50499 -0.03834
 O304 O 0.03169 0.49650 -0.07917
 Zr305 Zr -0.00012 0.45910 -0.00601
 Zr306 Zr -0.00381 0.53649 -0.00604
 O307 O 0.03423 0.52221 -0.00551
 O308 O 0.03676 0.47642 -0.00549
 O309 O -0.00392 0.52062 0.03172
 O310 O -0.00019 0.47545 -0.04348
 O311 O -0.00175 0.47496 0.03143
 O312 O -0.00236 0.52125 -0.04384
 H313 H -0.05588 0.53022 -0.00680
 H314 H 0.00075 0.46372 -0.05862
 H315 H 0.04870 0.53483 -0.00529
 H316 H -0.00139 0.46305 0.04661
 H317 H -0.02235 0.50754 -0.08685
 H318 H 0.02146 0.51117 -0.08623
 H319 H 0.07905 0.49178 -0.02648
 H320 H 0.07821 0.49009 0.01750
 H321 H 0.01813 0.50947 0.07485
 H322 H -0.02528 0.50488 0.07413
 H323 H -0.08200 0.48117 0.01556
 H324 H -0.08107 0.48267 -0.02907
 O325 O 0.96043 0.04589 0.53405
 O326 O 0.98398 0.02152 0.56288
 C327 C 0.96666 0.03891 0.55745
 O328 O 0.96020 -0.04787 0.46356
 O329 O 0.98509 -0.02471 0.43456
 C330 C 0.96732 -0.04170 0.44016
 O331 O 0.95803 -0.04475 0.53626
 O332 O 0.98376 -0.02172 0.56388
 C333 C 0.96530 -0.03809 0.55934
 O334 O 0.96290 0.04649 0.46091
 O335 O 0.98641 0.02056 0.43349
 C336 C 0.96987 0.03900 0.43788
 Zr337 Zr 0.97481 0.03250 0.49785
 O338 O 0.93411 0.03368 0.49504
 O339 O 0.97621 0.07374 0.49948
 Zr340 Zr 0.97339 -0.03369 0.49957
 O341 O 0.93266 -0.03395 0.49706
 O342 O 0.97383 -0.07487 0.50321
 O343 O 0.96878 -0.00005 0.52167
 O344 O 0.96955 -0.00089 0.47634
 O345 O 1.05396 0.04357 0.46147
 O346 O 1.02961 0.01923 0.43366
 C347 C 1.04715 0.03654 0.43844
 O348 O 1.05358 -0.04573 0.53641
 O349 O 1.02802 -0.02207 0.56407
 C350 C 1.04638 -0.03859 0.55943
 O351 O 1.05166 -0.04997 0.46376
 O352 O 1.02826 -0.02567 0.43478
 C353 C 1.04521 -0.04343 0.44034
 O354 O 1.05523 0.04268 0.53421
 O355 O 1.02879 0.02103 0.56287
 C356 C 1.04762 0.03681 0.55753
 Zr357 Zr 1.04000 0.03089 0.49807
 O358 O 1.08074 0.03160 0.49542
 O359 O 1.03916 0.07218 0.49977
 Zr360 Zr 1.03842 -0.03524 0.49971
 O361 O 1.07902 -0.03857 0.49717
 O362 O 1.03537 -0.07629 0.50370
 Zr363 Zr 1.00630 -0.00064 0.53711
 Zr364 Zr 1.00697 -0.00208 0.46034
 O365 O 1.04415 -0.00271 0.47661
 O366 O 1.04409 -0.00185 0.52181
 O367 O 1.00775 0.03636 0.47468
 O368 O 1.00567 -0.03877 0.52230
 O369 O 1.00734 0.03687 0.52035
 O370 O 1.00597 -0.03996 0.47653
 H371 H 0.95444 -0.00064 0.46470
 H372 H 1.00541 -0.05370 0.53461
 H373 H 1.05960 -0.00332 0.46526
 H374 H 1.00764 0.05226 0.53186
 H375 H 0.98266 -0.08194 0.48772
 H376 H 1.02785 -0.08309 0.48755
 H377 H 1.08638 -0.02471 0.50810
 H378 H 1.08739 0.01904 0.50836
 H379 H 1.03169 0.07867 0.48337
 H380 H 0.98692 0.07983 0.48474
 H381 H 0.92701 0.02338 0.50968
 H382 H 0.92607 -0.02109 0.50966
 C383 C 1.08219 0.11220 0.28567
 C384 C 1.09597 0.10058 0.30629
 C385 C 1.12325 0.10092 0.30482
 C386 C 1.13593 0.11129 0.28297
 C387 C 1.12203 0.12244 0.26238
 C388 C 1.09498 0.12298 0.26429
 C389 C 1.13786 0.09099 0.32521
 C390 C 1.12603 0.08114 0.34737
 C391 C 1.09892 0.08014 0.34974
 C392 C 1.08365 0.08901 0.32842
 C393 C 1.05667 0.08541 0.32965
 C394 C 1.04491 0.07407 0.35114
 C395 C 1.05941 0.06655 0.37255
 C396 C 1.08655 0.06995 0.37248
 C397 C 1.10007 0.06339 0.39540
 C398 C 1.08716 0.05307 0.41696
 C399 C 1.06057 0.04862 0.41624
 C400 C 1.04682 0.05561 0.39411
 H401 H 1.06147 0.11384 0.28570
 H402 H 1.15679 0.11108 0.28252
 H403 H 1.08332 0.13154 0.24918
 H404 H 1.15874 0.09103 0.32413
 H405 H 1.13876 0.07360 0.36203
 H406 H 1.04405 0.09044 0.31389
 H407 H 1.02416 0.07139 0.35107
 H408 H 1.12050 0.06645 0.39749
 H409 H 1.09809 0.04804 0.43409
 H410 H 1.02615 0.05297 0.39392
 C411 C 0.92715 -0.11722 0.28966
 C412 C 0.91408 -0.10663 0.31133
 C413 C 0.88681 -0.10875 0.31212
 C414 C 0.87333 -0.11954 0.29126
 C415 C 0.88660 -0.12958 0.26988
 C416 C 0.91356 -0.12869 0.26944
 C417 C 0.87310 -0.10028 0.33377
 C418 C 0.88586 -0.09015 0.35500
 C419 C 0.91294 -0.08723 0.35504
 C420 C 0.92713 -0.09440 0.33236
 C421 C 0.95371 -0.08845 0.33116
 C422 C 0.96610 -0.07633 0.35159
 C423 C 0.95282 -0.07058 0.37440
 C424 C 0.92622 -0.07666 0.37677
 C425 C 0.91413 -0.07225 0.40098
 C426 C 0.92770 -0.06140 0.42151
 C427 C 0.95360 -0.05422 0.41858
 C428 C 0.96605 -0.05888 0.39494
 H429 H 0.94788 -0.11756 0.28806
 H430 H 0.85244 -0.12070 0.29193
 H431 H 0.92421 -0.13656 0.25317
 H432 H 0.85225 -0.10178 0.33447
 H433 H 0.87380 -0.08387 0.37082
 H434 H 0.96533 -0.09208 0.31421
 H435 H 0.98641 -0.07172 0.34963
 H436 H 0.89436 -0.07753 0.40490
 H437 H 0.91770 -0.05819 0.43970
 H438 H 0.98621 -0.05378 0.39270
 C439 C 0.89895 0.07269 0.71382
 C440 C 0.90515 0.08661 0.69082
 C441 C 0.89894 0.11355 0.68984
 C442 C 0.88833 0.12610 0.71154
 C443 C 0.88274 0.11206 0.73424
 C444 C 0.88783 0.08526 0.73504
 C445 C 0.90321 0.12786 0.66718
 C446 C 0.91320 0.11599 0.64521
 C447 C 0.92008 0.08932 0.64524
 C448 C 0.91695 0.07466 0.66875
 C449 C 0.92633 0.04879 0.66961
 C450 C 0.93794 0.03744 0.64818
 C451 C 0.94008 0.05107 0.62482
 C452 C 0.93065 0.07698 0.62276
 C453 C 0.93201 0.08931 0.59815
 C454 C 0.94316 0.07675 0.57692
 C455 C 0.95354 0.05166 0.57948
 C456 C 0.95173 0.03887 0.60349
 H457 H 0.90191 0.05198 0.71588
 H458 H 0.88388 0.14675 0.71054
 H459 H 0.88349 0.07394 0.75229
 H460 H 0.89855 0.14847 0.66632
 H461 H 0.91608 0.12854 0.62864
 H462 H 0.92575 0.03699 0.68693
 H463 H 0.94518 0.01765 0.64989
 H464 H 0.92427 0.10849 0.59453
 H465 H 0.94409 0.08695 0.55851
 H466 H 0.95923 0.01920 0.60556
 C467 C 1.08254 -0.10711 0.71448
 C468 C 1.09642 -0.09669 0.69311
 C469 C 1.12373 -0.09845 0.69354
 C470 C 1.13642 -0.10876 0.71528
 C471 C 1.12229 -0.11881 0.73622
 C472 C 1.09535 -0.11818 0.73552
 C473 C 1.13818 -0.09026 0.67214
 C474 C 1.12613 -0.08105 0.64994
 C475 C 1.09903 -0.07870 0.64866
 C476 C 1.08409 -0.08526 0.67113
 C477 C 1.05743 -0.07963 0.67111
 C478 C 1.04558 -0.06881 0.64956
 C479 C 1.05958 -0.06397 0.62693
 C480 C 1.08638 -0.06939 0.62588
 C481 C 1.09928 -0.06568 0.60187
 C482 C 1.08616 -0.05619 0.58022
 C483 C 1.05999 -0.04977 0.58187
 C484 C 1.04682 -0.05375 0.60527
 H485 H 1.06178 -0.10778 0.71517
 H486 H 1.15731 -0.10979 0.71554
 H487 H 1.08410 -0.12609 0.75146
 H488 H 1.15905 -0.09145 0.67237
 H489 H 1.13868 -0.07509 0.63430
 H490 H 1.04531 -0.08254 0.68789
 H491 H 1.02511 -0.06449 0.65053
 H492 H 1.11933 -0.07049 0.59904
 H493 H 1.09666 -0.05344 0.56222
 H494 H 1.02643 -0.04929 0.60648
 C495 C 0.32447 1.14922 1.10975
 C496 C 0.33047 1.12230 1.11096
 C497 C 0.31292 1.10566 1.12418
 C498 C 0.29117 1.11590 1.13678
 C499 C 0.28532 1.14265 1.13541
 C500 C 0.30219 1.15909 1.12151
 C501 C 0.31690 1.07876 1.12454
 C502 C 0.33754 1.06780 1.11134
 C503 C 0.35560 1.08350 1.09792
 C504 C 0.35287 1.11123 1.09901
 C505 C 0.37289 1.12691 1.08869
 C506 C 0.39459 1.11584 1.07721
 C507 C 0.39665 1.08885 1.07450
 C508 C 0.37674 1.07234 1.08405
 C509 C 0.37851 1.04534 1.07879
 C510 C 0.39968 1.03515 1.06556
 C511 C 0.41993 1.05135 1.05756
 C512 C 0.41840 1.07820 1.06205
 H513 H 0.33619 1.16303 1.09915
 H514 H 0.27825 1.10254 1.14670
 H515 H 0.29854 1.17983 1.11992
 H516 H 0.30364 1.06594 1.13479
 H517 H 0.33938 1.04689 1.11281
 H518 H 0.37278 1.14788 1.09006
 H519 H 0.40970 1.12860 1.06997
 H520 H 0.36348 1.03169 1.08393
 H521 H 0.40040 1.01436 1.06187
 H522 H 0.43381 1.09085 1.05524
 C523 C 0.29955 0.92433 0.88045
 C524 C 0.31576 0.91173 0.89855
 C525 C 0.31008 0.88548 0.90518
 C526 C 0.28799 0.87317 0.89538
 C527 C 0.27181 0.88603 0.87765
 C528 C 0.27822 0.91162 0.87007
 C529 C 0.32661 0.87152 0.92140
 C530 C 0.34901 0.88286 0.93075
 C531 C 0.35527 0.90910 0.92506
 C532 C 0.33765 0.92413 0.90983
 C533 C 0.34211 0.95119 0.90696
 C534 C 0.36335 0.96307 0.91808
 C535 C 0.38148 0.94839 0.93167
 C536 C 0.37817 0.92106 0.93473
 C537 C 0.39816 0.90684 0.94704
 C538 C 0.41990 0.91951 0.95674
 C539 C 0.42212 0.94663 0.95489
 C540 C 0.40296 0.96097 0.94227
 H541 H 0.30319 0.94382 0.87338
 H542 H 0.28406 0.85317 0.90104
 H543 H 0.26648 0.92239 0.85645
 H544 H 0.32238 0.85145 0.92663
 H545 H 0.36066 0.87080 0.94322
 H546 H 0.32892 0.96397 0.89699
 H547 H 0.36578 0.98396 0.91571
 H548 H 0.39781 0.88589 0.94901
 H549 H 0.43476 0.90816 0.96628
 H550 H 0.40504 0.98195 0.94038
 C551 C 0.70322 0.91940 1.13451
 C552 C 0.68777 0.90848 1.11489
 C553 C 0.69428 0.88318 1.10608
 C554 C 0.71625 0.87027 1.11547
 C555 C 0.73172 0.88146 1.13470
 C556 C 0.72459 0.90605 1.14431
 C557 C 0.67876 0.87075 1.08799
 C558 C 0.65653 0.88259 1.07880
 C559 C 0.64932 0.90788 1.08673
 C560 C 0.66588 0.92155 1.10406
 C561 C 0.66042 0.94799 1.10939
 C562 C 0.63925 0.96052 1.09856
 C563 C 0.62214 0.94701 1.08281
 C564 C 0.62649 0.92028 1.07726
 C565 C 0.60758 0.90698 1.06271
 C566 C 0.58600 0.92006 1.05314
 C567 C 0.58274 0.94671 1.05750
 C568 C 0.60067 0.96010 1.07250
 H569 H 0.69895 0.93800 1.14316
 H570 H 0.72069 0.85104 1.10813
 H571 H 0.73571 0.91549 1.15921
 H572 H 0.68371 0.85145 1.08105
 H573 H 0.64581 0.87174 1.06468
 H574 H 0.67276 0.95988 1.12117
 H575 H 0.63609 0.98099 1.10279
 H576 H 0.60864 0.88637 1.05880
 H577 H 0.57203 0.90944 1.04179
 H578 H 0.59766 0.98063 1.07642
 C579 C 0.71351 1.07319 0.88808
 C580 C 0.69281 1.08749 0.89894
 C581 C 0.69351 1.11503 0.89649
 C582 C 0.71488 1.12758 0.88515
 C583 C 0.73562 1.11321 0.87491
 C584 C 0.73434 1.08582 0.87616
 C585 C 0.67283 1.13001 0.90528
 C586 C 0.65116 1.11827 0.91608
 C587 C 0.64965 1.09094 0.91932
 C588 C 0.67132 1.07541 0.91176
 C589 C 0.67110 1.04851 0.91791
 C590 C 0.65022 1.03707 0.93059
 C591 C 0.62839 1.05169 0.93678
 C592 C 0.62745 1.07869 0.93058
 C593 C 0.60413 1.09221 0.93554
 C594 C 0.58309 1.07960 0.94699
 C595 C 0.58466 1.05330 0.95421
 C596 C 0.60735 1.03941 0.94905
 H597 H 0.71393 1.05217 0.88795
 H598 H 0.71481 1.14867 0.88382
 H599 H 0.74967 1.07382 0.86842
 H600 H 0.67327 1.15111 0.90356
 H601 H 0.63621 1.13131 0.92260
 H602 H 0.68725 1.03588 0.91400
 H603 H 0.65108 1.01643 0.93530
 H604 H 0.60129 1.11237 0.93022
 H605 H 0.56560 1.09061 0.95058
 H606 H 0.60843 1.01885 0.95410
 C607 C 0.08632 0.28201 0.09333
 C608 C 0.09736 0.30721 0.09109
 C609 C 0.12196 0.31118 0.10228
 C610 C 0.13510 0.29047 0.11429
 C611 C 0.12388 0.26568 0.11619
 C612 C 0.09937 0.26172 0.10575
 C613 C 0.13326 0.33584 0.10165
 C614 C 0.12053 0.35694 0.09060
 C615 C 0.09607 0.35408 0.07909
 C616 C 0.08472 0.32862 0.07852
 C617 C 0.06132 0.32531 0.06510
 C618 C 0.04905 0.34619 0.05319
 C619 C 0.05925 0.37129 0.05456
 C620 C 0.08272 0.37575 0.06777
 C621 C 0.09162 0.40184 0.06934
 C622 C 0.07794 0.42235 0.05796
 C623 C 0.05507 0.41765 0.04450
 C624 C 0.04593 0.39200 0.04282
 H625 H 0.06741 0.27737 0.08619
 H626 H 0.15388 0.29386 0.12275
 H627 H 0.09023 0.24276 0.10697
 H628 H 0.15211 0.33897 0.11006
 H629 H 0.13073 0.37523 0.09093
 H630 H 0.05215 0.30662 0.06291
 H631 H 0.03119 0.34265 0.04299
 H632 H 0.10881 0.40720 0.07960
 H633 H 0.08545 0.44199 0.05960
 H634 H 0.02814 0.38811 0.03262
 C635 C -0.14506 0.32012 -0.11765
 C636 C -0.11815 0.32408 -0.11507
 C637 C -0.10145 0.30419 -0.12422
 C638 C -0.11140 0.28204 -0.13647
 C639 C -0.13804 0.27849 -0.13887
 C640 C -0.15475 0.29755 -0.12915
 C641 C -0.07490 0.30628 -0.12080
 C642 C -0.06445 0.32733 -0.10777
 C643 C -0.08017 0.34766 -0.09826
 C644 C -0.10728 0.34671 -0.10320
 C645 C -0.12245 0.36860 -0.09660
 C646 C -0.11165 0.39040 -0.08499
 C647 C -0.08555 0.39090 -0.07858
 C648 C -0.06958 0.36923 -0.08450
 C649 C -0.04373 0.36982 -0.07589
 C650 C -0.03407 0.39136 -0.06279
 C651 C -0.04955 0.41320 -0.05812
 C652 C -0.07533 0.41289 -0.06608
 H653 H -0.15913 0.33368 -0.11026
 H654 H -0.09834 0.26705 -0.14336
 H655 H -0.17544 0.29505 -0.13054
 H656 H -0.06203 0.29123 -0.12793
 H657 H -0.04374 0.32751 -0.10617
 H658 H -0.14272 0.36983 -0.10096
 H659 H -0.12398 0.40690 -0.08060
 H660 H -0.03064 0.35367 -0.07835
 H661 H -0.01418 0.39106 -0.05661
 H662 H -0.08759 0.42955 -0.06202
 C663 C 0.10613 0.71495 -0.07729
 C664 C 0.09913 0.69284 -0.09199
 C665 C 0.10768 0.69169 -0.11807
 C666 C 0.12065 0.71295 -0.12939
 C667 C 0.12674 0.73492 -0.11472
 C668 C 0.12000 0.73552 -0.08852
 C669 C 0.10325 0.66937 -0.13268
 C670 C 0.09114 0.64774 -0.12175
 C671 C 0.08184 0.64813 -0.09602
 C672 C 0.08444 0.67165 -0.08155
 C673 C 0.07153 0.67355 -0.05753
 C674 C 0.05756 0.65270 -0.04742
 C675 C 0.05707 0.62878 -0.06010
 C676 C 0.06951 0.62598 -0.08443
 C677 C 0.06966 0.60093 -0.09581
 C678 C 0.05790 0.57970 -0.08347
 C679 C 0.04526 0.58273 -0.05964
 C680 C 0.04453 0.60749 -0.04832
 H681 H 0.10169 0.71658 -0.05695
 H682 H 0.12637 0.71230 -0.14960
 H683 H 0.12486 0.75229 -0.07686
 H684 H 0.10964 0.66843 -0.15267
 H685 H 0.08842 0.63127 -0.13430
 H686 H 0.07105 0.69137 -0.04656
 H687 H 0.04743 0.65519 -0.02923
 H688 H 0.07957 0.59689 -0.11373
 H689 H 0.05880 0.56077 -0.09263
 H690 H 0.03490 0.61006 -0.02985
 C691 C -0.11317 0.70952 0.07676
 C692 C -0.10443 0.68680 0.08979
 C693 C -0.10858 0.68513 0.11690
 C694 C -0.11911 0.70633 0.13047
 C695 C -0.12710 0.72881 0.11726
 C696 C -0.12456 0.73002 0.09033
 C697 C -0.10234 0.66228 0.13029
 C698 C -0.09250 0.64077 0.11730
 C699 C -0.08743 0.64168 0.09044
 C700 C -0.09217 0.66556 0.07678
 C701 C -0.08369 0.66776 0.05086
 C702 C -0.07162 0.64709 0.03846
 C703 C -0.06857 0.62309 0.05093
 C704 C -0.07700 0.61978 0.07689
 C705 C -0.07497 0.59454 0.08805
 C706 C -0.06427 0.57381 0.07419
 C707 C -0.05492 0.57756 0.04896
 C708 C -0.05711 0.60233 0.03750
 H709 H -0.11212 0.71170 0.05601
 H710 H -0.12168 0.70512 0.15129
 H711 H -0.13098 0.74714 0.07977
 H712 H -0.10546 0.66087 0.15102
 H713 H -0.08807 0.62393 0.12907
 H714 H -0.08516 0.68569 0.03993
 H715 H -0.06487 0.64987 0.01876
 H716 H -0.08206 0.59004 0.10722
 H717 H -0.06298 0.55482 0.08345
 H718 H -0.05019 0.60540 0.01790
 C719 C 1.08165 0.10725 0.71155
 C720 C 1.09572 0.09844 0.68972
 C721 C 1.12290 0.10152 0.68992
 C722 C 1.13536 0.11138 0.71187
 C723 C 1.12110 0.11937 0.73354
 C724 C 1.09419 0.11756 0.73297
 C725 C 1.13750 0.09483 0.66821
 C726 C 1.12575 0.08522 0.64614
 C727 C 1.09884 0.08112 0.64519
 C728 C 1.08373 0.08696 0.66770
 C729 C 1.05729 0.08040 0.66777
 C730 C 1.04583 0.06898 0.64649
 C731 C 1.06000 0.06428 0.62402
 C732 C 1.08658 0.07075 0.62274
 C733 C 1.09963 0.06677 0.59889
 C734 C 1.08690 0.05615 0.57764
 C735 C 1.06095 0.04890 0.57953
 C736 C 1.04762 0.05310 0.60276
 H737 H 1.06089 0.10698 0.71250
 H738 H 1.15618 0.11329 0.71188
 H739 H 1.08269 0.12384 0.74934
 H740 H 1.15827 0.09726 0.66818
 H741 H 1.13849 0.08034 0.63036
 H742 H 1.04498 0.08306 0.68440
 H743 H 1.02554 0.06392 0.64760
 H744 H 1.11953 0.07204 0.59586
 H745 H 1.09754 0.05321 0.55978
 H746 H 1.02735 0.04799 0.60417
 C747 C 0.85568 -0.12283 0.66565
 C748 C 0.88179 -0.11465 0.66550
 C749 C 0.89631 -0.11876 0.68837
 C750 C 0.88541 -0.13182 0.70975
 C751 C 0.85962 -0.13977 0.70946
 C752 C 0.84478 -0.13490 0.68744
 C753 C 0.92151 -0.10949 0.68995
 C754 C 0.93251 -0.09553 0.66960
 C755 C 0.91897 -0.09109 0.64635
 C756 C 0.89377 -0.10204 0.64375
 C757 C 0.88170 -0.10060 0.61935
 C758 C 0.89366 -0.08845 0.59833
 C759 C 0.91757 -0.07631 0.60102
 C760 C 0.93017 -0.07673 0.62530
 C761 C 0.95331 -0.06236 0.62764
 C762 C 0.96405 -0.04933 0.60641
 C763 C 0.95248 -0.05046 0.58200
 C764 C 0.92900 -0.06376 0.57953
 H765 H 0.84296 -0.11940 0.64956
 H766 H 0.89677 -0.13495 0.72706
 H767 H 0.82467 -0.14061 0.68703
 H768 H 0.93275 -0.11269 0.70731
 H769 H 0.95213 -0.08924 0.67232
 H770 H 0.86333 -0.10961 0.61562
 H771 H 0.88390 -0.08829 0.57983
 H772 H 0.96326 -0.06027 0.64576
 H773 H 0.98177 -0.03858 0.60916
 H774 H 0.91947 -0.06421 0.56091
 C775 C 1.08549 -0.10915 0.28525
 C776 C 1.09828 -0.10405 0.30880
 C777 C 1.12415 -0.11272 0.31132
 C778 C 1.13700 -0.12441 0.29035
 C779 C 1.12398 -0.12913 0.26722
 C780 C 1.09812 -0.12178 0.26498
 C781 C 1.13690 -0.11000 0.33484
 C782 C 1.12433 -0.09954 0.35622
 C783 C 1.09872 -0.09030 0.35457
 C784 C 1.08607 -0.09123 0.33008
 C785 C 1.06195 -0.07872 0.32747
 C786 C 1.05023 -0.06638 0.34826
 C787 C 1.06146 -0.06696 0.37269
 C788 C 1.08556 -0.07948 0.37641
 C789 C 1.09526 -0.08095 0.40193
 C790 C 1.08191 -0.06972 0.42261
 C791 C 1.05864 -0.05641 0.41858
 C792 C 1.04863 -0.05505 0.39348
 H793 H 1.06548 -0.10443 0.28219
 H794 H 1.15689 -0.13065 0.29230
 H795 H 1.08766 -0.12557 0.24731
 H796 H 1.15670 -0.11648 0.33690
 H797 H 1.13554 -0.09808 0.37365
 H798 H 1.05206 -0.07726 0.30923
 H799 H 1.03197 -0.05655 0.34523
 H800 H 1.11279 -0.09120 0.40664
 H801 H 1.09009 -0.07117 0.44180
 H802 H 1.03066 -0.04485 0.39009
 C803 C 0.86377 0.12114 0.32788
 C804 C 0.88999 0.11345 0.32857
 C805 C 0.90472 0.11605 0.30545
 C806 C 0.89391 0.12749 0.28324
 C807 C 0.86796 0.13487 0.28300
 C808 C 0.85291 0.13130 0.30527
 C809 C 0.93000 0.10678 0.30448
 C810 C 0.94070 0.09401 0.32564
 C811 C 0.92684 0.09103 0.34906
 C812 C 0.90180 0.10250 0.35110
 C813 C 0.88972 0.10312 0.37565
 C814 C 0.90144 0.09221 0.39734
 C815 C 0.92493 0.07907 0.39517
 C816 C 0.93749 0.07754 0.37077
 C817 C 0.95971 0.06171 0.36884
 C818 C 0.96956 0.04886 0.39048
 C819 C 0.95834 0.05208 0.41501
 C820 C 0.93582 0.06713 0.41716
 H821 H 0.85093 0.11857 0.34419
 H822 H 0.90541 0.12969 0.26575
 H823 H 0.83268 0.13659 0.30523
 H824 H 0.94143 0.10886 0.28696
 H825 H 0.96037 0.08749 0.32343
 H826 H 0.87155 0.11286 0.37887
 H827 H 0.89168 0.09354 0.41590
 H828 H 0.96926 0.05799 0.35064
 H829 H 0.98608 0.03624 0.38786
 H830 H 0.92636 0.06901 0.43583
 C831 C 0.08540 0.28324 -0.10461
 C832 C 0.09797 0.30733 -0.10036
 C833 C 0.12372 0.31007 -0.10937
 C834 C 0.13678 0.28873 -0.12036
 C835 C 0.12410 0.26491 -0.12391
 C836 C 0.09826 0.26253 -0.11631
 C837 C 0.13613 0.33414 -0.10764
 C838 C 0.12345 0.35572 -0.09745
 C839 C 0.09806 0.35378 -0.08756
 C840 C 0.08563 0.32886 -0.08796
 C841 C 0.06158 0.32604 -0.07532
 C842 C 0.04955 0.34703 -0.06355
 C843 C 0.06059 0.37180 -0.06451
 C844 C 0.08481 0.37574 -0.07680
 C845 C 0.09446 0.40161 -0.07807
 C846 C 0.08065 0.42243 -0.06740
 C847 C 0.05700 0.41818 -0.05483
 C848 C 0.04732 0.39270 -0.05325
 H849 H 0.06539 0.28000 -0.09981
 H850 H 0.15662 0.29085 -0.12679
 H851 H 0.08796 0.24440 -0.11915
 H852 H 0.15575 0.33645 -0.11464
 H853 H 0.13441 0.37356 -0.09684
 H854 H 0.05188 0.30753 -0.07342
 H855 H 0.03120 0.34387 -0.05386
 H856 H 0.11232 0.40650 -0.08771
 H857 H 0.08863 0.44192 -0.06888
 H858 H 0.02911 0.38905 -0.04352
 C859 C -0.14571 0.32627 0.11813
 C860 C -0.11984 0.32664 0.10915
 C861 C -0.10491 0.30372 0.11279
 C862 C -0.11521 0.28201 0.12599
 C863 C -0.14075 0.28213 0.13494
 C864 C -0.15594 0.30431 0.13064
 C865 C -0.07981 0.30245 0.10309
 C866 C -0.06921 0.32326 0.08939
 C867 C -0.08314 0.34661 0.08537
 C868 C -0.10846 0.34873 0.09636
 C869 C -0.12128 0.37301 0.09469
 C870 C -0.11003 0.39433 0.08231
 C871 C -0.08590 0.39221 0.07045
 C872 C -0.07234 0.36817 0.07127
 C873 C -0.04864 0.36666 0.05761
 C874 C -0.03852 0.38835 0.04463
 C875 C -0.05145 0.41237 0.04488
 C876 C -0.07525 0.41409 0.05776
 H877 H -0.15876 0.34239 0.11530
 H878 H -0.10347 0.26470 0.12874
 H879 H -0.17579 0.30483 0.13723
 H880 H -0.06827 0.28501 0.10589
 H881 H -0.04964 0.32067 0.08280
 H882 H -0.13984 0.37644 0.10351
 H883 H -0.12047 0.41267 0.08183
 H884 H -0.03765 0.34889 0.05613
 H885 H -0.02026 0.38630 0.03458
 H886 H -0.08567 0.43245 0.05771
 C887 C -0.11622 0.70941 -0.08549
 C888 C -0.10531 0.68815 -0.09910
 C889 C -0.10677 0.68859 -0.12650
 C890 C -0.11750 0.71016 -0.13952
 C891 C -0.12802 0.73106 -0.12567
 C892 C -0.12750 0.73035 -0.09862
 C893 C -0.09779 0.66741 -0.14076
 C894 C -0.08786 0.64543 -0.12846
 C895 C -0.08572 0.64411 -0.10126
 C896 C -0.09349 0.66632 -0.08645
 C897 C -0.08862 0.66624 -0.05960
 C898 C -0.07708 0.64503 -0.04751
 C899 C -0.07064 0.62273 -0.06142
 C900 C -0.07543 0.62160 -0.08837
 C901 C -0.07000 0.59780 -0.10115
 C902 C -0.05950 0.57651 -0.08779
 C903 C -0.05371 0.57834 -0.06146
 C904 C -0.05941 0.60150 -0.04841
 H905 H -0.11701 0.71016 -0.06467
 H906 H -0.11837 0.71030 -0.16048
 H907 H -0.13572 0.74620 -0.08751
 H908 H -0.09875 0.66766 -0.16172
 H909 H -0.08123 0.63001 -0.14092
 H910 H -0.09274 0.68272 -0.04743
 H911 H -0.07339 0.64601 -0.02693
 H912 H -0.07411 0.59483 -0.12134
 H913 H -0.05545 0.55869 -0.09823
 H914 H -0.05543 0.60287 -0.02791
 C915 C 0.10254 0.71422 0.07068
 C916 C 0.09361 0.69206 0.08460
 C917 C 0.09730 0.69161 0.11177
 C918 C 0.10846 0.71299 0.12434
 C919 C 0.11684 0.73488 0.11026
 C920 C 0.11403 0.73514 0.08335
 C921 C 0.08996 0.66980 0.12630
 C922 C 0.07952 0.64803 0.11444
 C923 C 0.07534 0.64747 0.08749
 C924 C 0.08151 0.67026 0.07250
 C925 C 0.07495 0.67068 0.04602
 C926 C 0.06330 0.64944 0.03444
 C927 C 0.05830 0.62668 0.04846
 C928 C 0.06470 0.62508 0.07506
 C929 C 0.06056 0.60092 0.08794
 C930 C 0.05010 0.57962 0.07496
 C931 C 0.04307 0.58175 0.04894
 C932 C 0.04711 0.60537 0.03585
 H933 H 0.10141 0.71585 0.04993
 H934 H 0.11106 0.71231 0.14513
 H935 H 0.12047 0.75174 0.07196
 H936 H 0.09254 0.66944 0.14710
 H937 H 0.07425 0.63212 0.12714
 H938 H 0.07795 0.68749 0.03374
 H939 H 0.05845 0.65074 0.01415
 H940 H 0.06576 0.59760 0.10784
 H941 H 0.04729 0.56143 0.08541
 H942 H 0.04216 0.60696 0.01556
 C943 C 0.29466 1.08149 0.89032
 C944 C 0.31586 1.09532 0.90060
 C945 C 0.31697 1.12265 0.89610
 C946 C 0.29689 1.13554 0.88305
 C947 C 0.27613 1.12148 0.87304
 C948 C 0.27534 1.09439 0.87655
 C949 C 0.33822 1.13693 0.90442
 C950 C 0.35895 1.12457 0.91622
 C951 C 0.35880 1.09742 0.92109
 C952 C 0.33624 1.08287 0.91457
 C953 C 0.33463 1.05653 0.92265
 C954 C 0.35474 1.04455 0.93583
 C955 C 0.37763 1.05794 0.94055
 C956 C 0.38024 1.08440 0.93275
 C957 C 0.40449 1.09651 0.93634
 C958 C 0.42497 1.08301 0.94767
 C959 C 0.42191 1.05720 0.95619
 C960 C 0.39807 1.04487 0.95277
 H961 H 0.29280 1.06060 0.89195
 H962 H 0.29777 1.15649 0.88003
 H963 H 0.25946 1.08311 0.86894
 H964 H 0.33907 1.15786 0.90132
 H965 H 0.37458 1.13700 0.92210
 H966 H 0.31764 1.04482 0.91978
 H967 H 0.35252 1.02439 0.94194
 H968 H 0.40852 1.11613 0.92982
 H969 H 0.44328 1.09290 0.94991
 H970 H 0.39561 1.02478 0.95901
 C971 C 0.28384 0.89873 1.07827
 C972 C 0.30765 0.90164 1.09123
 C973 C 0.30927 0.89213 1.11702
 C974 C 0.28758 0.88115 1.12940
 C975 C 0.26420 0.87857 1.11624
 C976 C 0.26264 0.88726 1.09057
 C977 C 0.33255 0.89340 1.13029
 C978 C 0.35454 0.90342 1.11842
 C979 C 0.35398 0.91327 1.09284
 C980 C 0.32992 0.91326 1.07938
 C981 C 0.32880 0.92525 1.05473
 C982 C 0.35046 0.93645 1.04336
 C983 C 0.37424 0.93571 1.05575
 C984 C 0.37654 0.92369 1.08044
 C985 C 0.40145 0.92244 1.09152
 C986 C 0.42279 0.93345 1.07897
 C987 C 0.42009 0.94620 1.05509
 C988 C 0.39574 0.94708 1.04352
 H989 H 0.28103 0.90460 1.05844
 H990 H 0.28913 0.87398 1.14911
 H991 H 0.24483 0.88540 1.07989
 H992 H 0.33387 0.88632 1.15006
 H993 H 0.37164 0.90374 1.13014
 H994 H 0.31123 0.92695 1.04386
 H995 H 0.34858 0.94569 1.02452
 H996 H 0.40522 0.91285 1.10972
 H997 H 0.44143 0.93237 1.08828
 H998 H 0.39351 0.95655 1.02483
 C999 C 0.66679 1.14538 1.13331
 C1000 C 0.66641 1.11895 1.12538
 C1001 C 0.68908 1.10396 1.12923
 C1002 C 0.71056 1.11474 1.14160
 C1003 C 0.71052 1.14084 1.14942
 C1004 C 0.68861 1.15612 1.14493
 C1005 C 0.69038 1.07832 1.12050
 C1006 C 0.66994 1.06733 1.10724
 C1007 C 0.64694 1.08139 1.10284
 C1008 C 0.64463 1.10709 1.11327
 C1009 C 0.62051 1.11980 1.11168
 C1010 C 0.59958 1.10812 1.09969
 C1011 C 0.60205 1.08379 1.08799
 C1012 C 0.62596 1.07036 1.08882
 C1013 C 0.62808 1.04671 1.07498
 C1014 C 0.60714 1.03661 1.06157
 C1015 C 0.58319 1.04928 1.06187
 C1016 C 0.58078 1.07291 1.07517
 H1017 H 0.65081 1.15846 1.13016
 H1018 H 0.72769 1.10294 1.14442
 H1019 H 0.68825 1.17642 1.15063
 H1020 H 0.70758 1.06670 1.12359
 H1021 H 0.67247 1.04736 1.10135
 H1022 H 0.61697 1.13858 1.12026
 H1023 H 0.58135 1.11848 1.09920
 H1024 H 0.64588 1.03597 1.07341
 H1025 H 0.60976 1.01865 1.05094
 H1026 H 0.56251 1.08321 1.07500
 C1027 C 0.67327 0.88872 0.85418
 C1028 C 0.67132 0.89311 0.88117
 C1029 C 0.69251 0.88555 0.89676
 C1030 C 0.71404 0.87315 0.88580
 C1031 C 0.71549 0.86872 0.85914
 C1032 C 0.69507 0.87685 0.84343
 C1033 C 0.69223 0.89047 0.92324
 C1034 C 0.67161 0.90331 0.93467
 C1035 C 0.65000 0.91126 0.92009
 C1036 C 0.64934 0.90503 0.89315
 C1037 C 0.62655 0.91043 0.87925
 C1038 C 0.60532 0.92194 0.89110
 C1039 C 0.60617 0.92931 0.91700
 C1040 C 0.62875 0.92466 0.93173
 C1041 C 0.62923 0.93403 0.95742
 C1042 C 0.60792 0.94660 0.96817
 C1043 C 0.58531 0.95011 0.95388
 C1044 C 0.58455 0.94143 0.92827
 H1045 H 0.65855 0.89472 0.84077
 H1046 H 0.73002 0.86747 0.89805
 H1047 H 0.69580 0.87378 0.82272
 H1048 H 0.70828 0.88453 0.93527
 H1049 H 0.67287 0.90603 0.95528
 H1050 H 0.62420 0.90526 0.85923
 H1051 H 0.58813 0.92539 0.87974
 H1052 H 0.64597 0.93249 0.96960
 H1053 H 0.60905 0.95332 0.98797
 H1054 H 0.56726 0.94456 0.91694
   
