data_POSCAR
  _audit_creation_date              2014-09-24
  _audit_creation_method            'ToBaCCo'
  _symmetry_space_group_name_H-M    'P1'
  _symmetry_Int_Tables_number       1
  _symmetry_cell_setting            triclinic
  loop_
  _symmetry_equiv_pos_as_xyz
 x,y,z
_cell_length_a 56.1861
_cell_length_b 32.4971
_cell_length_c 19.1800
_cell_angle_alpha 89.712300
_cell_angle_beta 89.857700
_cell_angle_gamma 90.178500
loop_
  _atom_site_label
  _atom_site_type_symbol
  _atom_site_fract_x
  _atom_site_fract_y
  _atom_site_fract_z
C1 C 0.74522 0.23553 0.46440
 C2 C 0.74556 0.23621 0.53548
 C3 C 0.72619 0.25537 0.57696
 C4 C 0.76598 0.21909 0.57487
 C5 C 0.76388 0.21369 0.42402
 C6 C 0.72689 0.25785 0.42368
 C7 C 0.73176 0.28463 0.62757
 C8 C 0.71383 0.30385 0.66579
 C9 C 0.68942 0.29440 0.65492
 C10 C 0.68424 0.26391 0.60430
 C11 C 0.70232 0.24464 0.56652
 C12 C 0.78907 0.23418 0.56322
 C13 C 0.80842 0.21646 0.59729
 C14 C 0.80505 0.18348 0.64408
 C15 C 0.78178 0.16943 0.65754
 C16 C 0.76238 0.18723 0.62335
 C17 C 0.76833 0.17170 0.43542
 C18 C 0.78693 0.15212 0.40038
 C19 C 0.80133 0.17412 0.35298
 C20 C 0.79637 0.21587 0.34030
 C21 C 0.77775 0.23540 0.37526
 C22 C 0.71319 0.23672 0.37435
 C23 C 0.69569 0.25733 0.33628
 C24 C 0.69177 0.29960 0.34632
 C25 C 0.70586 0.32087 0.39485
 C26 C 0.72331 0.30020 0.43302
 H27 H 0.75011 0.29355 0.63625
 H28 H 0.71957 0.32786 0.70067
 H29 H 0.66638 0.25291 0.59512
 H30 H 0.69766 0.22110 0.52913
 H31 H 0.79209 0.25937 0.52705
 H32 H 0.82606 0.22861 0.58705
 H33 H 0.74464 0.17541 0.63319
 H34 H 0.75763 0.15431 0.47230
 H35 H 0.79038 0.12000 0.41157
 H36 H 0.80689 0.23343 0.30323
 H37 H 0.77451 0.26776 0.36551
 H38 H 0.71588 0.20412 0.36596
 H39 H 0.68537 0.24030 0.29849
 H40 H 0.70314 0.35336 0.40407
 H41 H 0.73399 0.31719 0.47004
 H42 H 0.77862 0.14395 0.69299
 C43 C 0.24984 0.74726 0.46569
 C44 C 0.24917 0.74562 0.53685
 C45 C 0.23085 0.76824 0.57729
 C46 C 0.26700 0.72189 0.57773
 C47 C 0.27000 0.72951 0.42550
 C48 C 0.23037 0.76659 0.42463
 C49 C 0.22773 0.81077 0.56805
 C50 C 0.21012 0.83160 0.60529
 C51 C 0.19541 0.81032 0.65278
 C52 C 0.19894 0.76790 0.66296
 C53 C 0.21659 0.74712 0.62582
 C54 C 0.27934 0.74100 0.63233
 C55 C 0.29726 0.71999 0.66802
 C56 C 0.30322 0.67955 0.64952
 C57 C 0.29025 0.65987 0.59672
 C58 C 0.27207 0.68066 0.56182
 C59 C 0.26547 0.70089 0.37266
 C60 C 0.28427 0.68211 0.33738
 C61 C 0.30802 0.69166 0.35406
 C62 C 0.31249 0.72146 0.40537
 C63 C 0.29366 0.74043 0.44035
 C64 C 0.20650 0.75524 0.43551
 C65 C 0.18832 0.77452 0.39814
 C66 C 0.19365 0.80507 0.34824
 C67 C 0.21764 0.81540 0.33598
 C68 C 0.23579 0.79632 0.37373
 H69 H 0.23883 0.82774 0.53164
 H70 H 0.20773 0.86421 0.59598
 H71 H 0.18815 0.75082 0.70000
 H72 H 0.21889 0.71438 0.63413
 H73 H 0.27561 0.77265 0.64587
 H74 H 0.30707 0.73587 0.70836
 H75 H 0.26230 0.66489 0.52128
 H76 H 0.24736 0.69239 0.35984
 H77 H 0.28019 0.66000 0.29706
 H78 H 0.33054 0.72939 0.41978
 H79 H 0.29754 0.76304 0.48007
 H80 H 0.20193 0.73170 0.47344
 H81 H 0.17006 0.76600 0.40932
 H82 H 0.22243 0.83816 0.29693
 H83 H 0.25410 0.80518 0.36389
 H84 H 0.29429 0.62848 0.58228
 C85 C 0.24669 0.26386 -0.46540
 C86 C 0.24713 0.26061 -0.53633
 C87 C 0.26823 0.27374 -0.57775
 C88 C 0.22649 0.24400 -0.57560
 C89 C 0.22704 0.24573 -0.42331
 C90 C 0.26606 0.28480 -0.42638
 C91 C 0.26575 0.30297 -0.63105
 C92 C 0.28573 0.31812 -0.66643
 C93 C 0.30888 0.30431 -0.64950
 C94 C 0.31091 0.27334 -0.59774
 C95 C 0.29088 0.25819 -0.56278
 C96 C 0.20370 0.26051 -0.56665
 C97 C 0.18420 0.24365 -0.60142
 C98 C 0.18694 0.20990 -0.64706
 C99 C 0.21023 0.19458 -0.65742
 C100 C 0.22966 0.21147 -0.62222
 C101 C 0.22161 0.20373 -0.42758
 C102 C 0.20295 0.18694 -0.38835
 C103 C 0.18911 0.21178 -0.34354
 C104 C 0.19513 0.25400 -0.33905
 C105 C 0.21392 0.27056 -0.37801
 C106 C 0.27716 0.26452 -0.37050
 C107 C 0.29625 0.28288 -0.33589
 C108 C 0.30464 0.32180 -0.35675
 C109 C 0.29306 0.34266 -0.41120
 C110 C 0.27373 0.32456 -0.44507
 H111 H 0.24836 0.31530 -0.64343
 H112 H 0.28281 0.34242 -0.70408
 H113 H 0.32787 0.25972 -0.58478
 H114 H 0.29307 0.23467 -0.52310
 H115 H 0.20099 0.28655 -0.53254
 H116 H 0.16716 0.25832 -0.59375
 H117 H 0.24716 0.19832 -0.62991
 H118 H 0.23173 0.18396 -0.46187
 H119 H 0.19891 0.15474 -0.39607
 H120 H 0.18600 0.27441 -0.30366
 H121 H 0.21812 0.30298 -0.37326
 H122 H 0.27143 0.23397 -0.35488
 H123 H 0.30494 0.26613 -0.29422
 H124 H 0.29896 0.37299 -0.42743
 H125 H 0.26500 0.34129 -0.48669
 H126 H 0.21361 0.16814 -0.68988
 C127 C -0.25086 0.75823 -0.46609
 C128 C -0.25059 0.75465 -0.53697
 C129 C -0.22978 0.76829 -0.57913
 C130 C -0.27077 0.73597 -0.57580
 C131 C -0.27023 0.73967 -0.42350
 C132 C -0.23137 0.77936 -0.42772
 C133 C -0.23285 0.79688 -0.63309
 C134 C -0.21328 0.81156 -0.67083
 C135 C -0.18996 0.79779 -0.65595
 C136 C -0.18732 0.76771 -0.60291
 C137 C -0.20696 0.75309 -0.56544
 C138 C -0.29412 0.75020 -0.56742
 C139 C -0.31295 0.73166 -0.60322
 C140 C -0.30892 0.69844 -0.64919
 C141 C -0.28512 0.68536 -0.65845
 C142 C -0.26643 0.70386 -0.62238
 C143 C -0.27508 0.69743 -0.42673
 C144 C -0.29387 0.68039 -0.38837
 C145 C -0.30842 0.70522 -0.34552
 C146 C -0.30283 0.74763 -0.34149
 C147 C -0.28391 0.76446 -0.37959
 C148 C -0.21991 0.75905 -0.37249
 C149 C -0.20047 0.77722 -0.33925
 C150 C -0.19205 0.81601 -0.36080
 C151 C -0.20400 0.83694 -0.41450
 C152 C -0.22368 0.81903 -0.44701
 H153 H -0.25044 0.80837 -0.64531
 H154 H -0.21682 0.83291 -0.71289
 H155 H -0.17003 0.75657 -0.58719
 H156 H -0.20428 0.73049 -0.52451
 H157 H -0.29784 0.77549 -0.53251
 H158 H -0.33066 0.74270 -0.59204
 H159 H -0.24847 0.69284 -0.63059
 H160 H -0.26450 0.67772 -0.45992
 H161 H -0.29749 0.64801 -0.39558
 H162 H -0.31248 0.76806 -0.30735
 H163 H -0.28013 0.79707 -0.37560
 H164 H -0.22559 0.72855 -0.35647
 H165 H -0.19153 0.76040 -0.29810
 H166 H -0.19812 0.86720 -0.43121
 H167 H -0.23264 0.83577 -0.48820
 H168 H -0.28045 0.66167 -0.69533
 O169 O -0.03053 0.92338 0.12143
 O170 O -0.05759 0.95886 0.05539
 C171 C -0.05217 0.93196 0.10289
 O172 O 0.03045 1.07740 0.12671
 O173 O 0.05854 1.04240 0.06355
 C174 C 0.05237 1.06945 0.10971
 O175 O -0.03638 1.06555 0.12957
 O176 O -0.06047 1.02694 0.05890
 C177 C -0.05719 1.05263 0.10945
 O178 O 0.03623 0.92744 0.11765
 O179 O 0.06113 0.97151 0.05864
 C180 C 0.05728 0.94128 0.10157
 Zr181 Zr 0.00216 0.94752 0.08422
 O182 O 0.00420 0.94449 0.19431
 O183 O 0.00185 0.88247 0.07850
 Zr184 Zr -0.00189 1.05123 0.09095
 O185 O 0.00008 1.04868 0.20111
 O186 O -0.00705 1.11568 0.09488
 O187 O -0.02111 0.99654 0.10010
 O188 O 0.02066 1.00147 0.10163
 O189 O 0.03744 0.93319 -0.12435
 O190 O 0.06162 0.97410 -0.05790
 C191 C 0.05828 0.94597 -0.10461
 O192 O -0.03396 1.07189 -0.12633
 O193 O -0.05937 1.03099 -0.06283
 C194 C -0.05510 1.05869 -0.11024
 O195 O 0.03219 1.08342 -0.11472
 O196 O 0.05927 1.04547 -0.05279
 C197 C 0.05382 1.07448 -0.09652
 O198 O -0.02946 0.93075 -0.13508
 O199 O -0.05716 0.96261 -0.06605
 C200 C -0.05130 0.93847 -0.11676
 Zr201 Zr 0.00313 0.95200 -0.09168
 O202 O 0.00671 0.95478 -0.20151
 O203 O 0.00256 0.88688 -0.09488
 Zr204 Zr -0.00049 1.05575 -0.08474
 O205 O 0.00303 1.05989 -0.19446
 O206 O -0.00571 1.12015 -0.07876
 Zr207 Zr -0.03466 0.99760 -0.00232
 Zr208 Zr 0.03609 1.00572 0.00175
 O209 O 0.02202 1.00651 -0.09983
 O210 O -0.01974 1.00190 -0.10312
 O211 O 0.02417 0.94419 -0.00309
 O212 O -0.02218 1.05863 0.00224
 O213 O -0.01778 0.93991 -0.00530
 O214 O 0.01973 1.06399 0.00492
 H215 H 0.03114 1.00164 0.14311
 H216 H -0.03390 1.08135 0.00305
 H217 H 0.03301 1.00878 -0.14016
 H218 H -0.02774 0.91474 -0.00751
 H219 H 0.00594 1.12872 0.06770
 H220 H 0.00762 1.13182 -0.05158
 H221 H -0.00856 1.04050 -0.21500
 H222 H -0.00686 0.97083 -0.21977
 H223 H 0.01623 0.87689 -0.06724
 H224 H 0.01614 0.87401 0.05205
 H225 H -0.00929 0.96048 0.21314
 H226 H -0.01284 1.03030 0.21765
 O227 O 0.46911 0.42686 0.12599
 O228 O 0.44212 0.46298 0.06061
 C229 C 0.44747 0.43648 0.10887
 O230 O 0.53384 0.57624 0.11904
 O231 O 0.55998 0.53815 0.05415
 C232 C 0.55528 0.56606 0.10014
 O233 O 0.46677 0.56949 0.12738
 O234 O 0.44114 0.53096 0.06133
 C235 C 0.44550 0.55749 0.10992
 O236 O 0.53601 0.42641 0.11628
 O237 O 0.56111 0.46760 0.05218
 C238 C 0.55713 0.43854 0.09729
 Zr239 Zr 0.50203 0.44794 0.08508
 O240 O 0.50521 0.44684 0.19502
 O241 O 0.50028 0.38286 0.08338
 Zr242 Zr 0.50044 0.55217 0.08638
 O243 O 0.50342 0.55215 0.19638
 O244 O 0.49687 0.61701 0.08547
 O245 O 0.48015 0.49886 0.10045
 O246 O 0.52187 0.50097 0.09752
 O247 O 0.53495 0.42766 -0.12526
 O248 O 0.56061 0.46828 -0.06309
 C249 C 0.55624 0.43944 -0.10775
 O250 O 0.46577 0.56977 -0.12910
 O251 O 0.44051 0.53190 -0.05972
 C252 C 0.44463 0.55805 -0.10963
 O253 O 0.53259 0.57853 -0.12350
 O254 O 0.55953 0.53975 -0.06248
 C255 C 0.55422 0.56862 -0.10664
 O256 O 0.46788 0.42962 -0.13071
 O257 O 0.44157 0.46404 -0.06058
 C258 C 0.44642 0.43903 -0.11106
 Zr259 Zr 0.50126 0.44905 -0.09102
 O260 O 0.50377 0.44888 -0.20115
 O261 O 0.49921 0.38398 -0.09007
 Zr262 Zr 0.49967 0.55322 -0.08981
 O263 O 0.50216 0.55512 -0.19992
 O264 O 0.49563 0.61796 -0.08755
 Zr265 Zr 0.46556 0.49874 -0.00070
 Zr266 Zr 0.53614 0.50241 -0.00405
 O267 O 0.52104 0.50229 -0.10427
 O268 O 0.47930 0.50015 -0.10312
 O269 O 0.52298 0.44158 -0.00400
 O270 O 0.47922 0.55910 -0.00079
 O271 O 0.48104 0.43991 -0.00217
 O272 O 0.52118 0.56182 -0.00257
 H273 H 0.53276 0.50109 0.13807
 H274 H 0.46793 0.58245 -0.00032
 H275 H 0.53169 0.50311 -0.14549
 H276 H 0.47047 0.41544 -0.00217
 H277 H 0.51056 0.62849 0.05923
 H278 H 0.50910 0.62933 -0.06061
 H279 H 0.48984 0.53635 -0.21842
 H280 H 0.49091 0.46665 -0.21924
 H281 H 0.51316 0.37363 -0.06409
 H282 H 0.51394 0.37300 0.05549
 H283 H 0.49212 0.46368 0.21418
 H284 H 0.49079 0.53387 0.21499
 C285 C 0.36973 0.35704 0.25345
 C286 C 0.37177 0.33877 0.31952
 C287 C 0.35182 0.32105 0.35109
 C288 C 0.32943 0.32152 0.31780
 C289 C 0.32832 0.34067 0.25156
 N290 N 0.34810 0.35751 0.22189
 C291 C 0.39025 0.37674 0.21760
 N292 N 0.38602 0.40538 0.16708
 C293 C 0.40386 0.42481 0.13181
 C294 C 0.42775 0.41564 0.14657
 C295 C 0.43250 0.38585 0.19791
 C296 C 0.41389 0.36629 0.23322
 H297 H 0.35401 0.30894 0.40327
 H298 H 0.31207 0.34121 0.22164
 H299 H 0.39931 0.44739 0.09240
 H300 H 0.45061 0.37740 0.21063
 H301 H 0.38836 0.33908 0.34796
 H302 H 0.41815 0.34280 0.27125
 C303 C -0.12988 0.84837 0.24005
 C304 C -0.12850 0.80885 0.26930
 C305 C -0.14830 0.79200 0.30305
 C306 C -0.16984 0.81409 0.30787
 C307 C -0.17042 0.85338 0.27594
 N308 N -0.15080 0.86910 0.24382
 C309 C -0.10937 0.86830 0.20478
 N310 N -0.11357 0.89901 0.15788
 C311 C -0.09572 0.91944 0.12442
 C312 C -0.07185 0.90957 0.13804
 C313 C -0.06711 0.87822 0.18664
 C314 C -0.08575 0.85761 0.22010
 H315 H -0.14669 0.76092 0.32278
 H316 H -0.18593 0.87282 0.27894
 H317 H -0.10024 0.94354 0.08768
 H318 H -0.04899 0.86974 0.19925
 H319 H -0.11252 0.79055 0.26514
 H320 H -0.08153 0.83434 0.25858
 C321 C 0.63456 0.64070 0.24194
 C322 C 0.65569 0.61916 0.25432
 C323 C 0.67418 0.63805 0.29039
 C324 C 0.67200 0.67875 0.31504
 C325 C 0.65005 0.69873 0.30269
 N326 N 0.63232 0.67954 0.26708
 C327 C 0.61455 0.62189 0.20323
 N328 N 0.59185 0.63417 0.21685
 C329 C 0.57268 0.61742 0.18411
 C330 C 0.57581 0.58640 0.13417
 C331 C 0.59914 0.57412 0.11821
 C332 C 0.61846 0.59176 0.15233
 H333 H 0.68974 0.61961 0.30106
 H334 H 0.64708 0.73017 0.31832
 H335 H 0.55505 0.62809 0.19767
 H336 H 0.60254 0.55061 0.07965
 H337 H 0.65783 0.58758 0.23791
 H338 H 0.63623 0.58207 0.13826
 C339 C 0.12764 1.15492 0.25306
 C340 C 0.12438 1.17642 0.31555
 C341 C 0.14384 1.19480 0.34805
 C342 C 0.16693 1.19178 0.31940
 C343 C 0.16927 1.16941 0.25676
 N344 N 0.14996 1.15202 0.22601
 C345 C 0.10772 1.13421 0.21658
 N346 N 0.11278 1.10361 0.17061
 C347 C 0.09555 1.08282 0.13557
 C348 C 0.07145 1.09243 0.14601
 C349 C 0.06585 1.12431 0.19228
 C350 C 0.08385 1.14534 0.22727
 H351 H 0.14065 1.20955 0.39758
 H352 H 0.18618 1.16675 0.23027
 H353 H 0.10074 1.05861 0.10015
 H354 H 0.04755 1.13320 0.20135
 H355 H 0.10718 1.17819 0.34072
 H356 H 0.07895 1.17032 0.26136
 C357 C 0.63533 0.35660 -0.23708
 C358 C 0.65844 0.35595 -0.21005
 C359 C 0.67638 0.33514 -0.24559
 C360 C 0.67173 0.31414 -0.30874
 C361 C 0.64783 0.31494 -0.33244
 N362 N 0.63079 0.33583 -0.29689
 C363 C 0.61556 0.37863 -0.20225
 N364 N 0.59274 0.36790 -0.21786
 C365 C 0.57361 0.38677 -0.18868
 C366 C 0.57685 0.41877 -0.14065
 C367 C 0.60022 0.43066 -0.12436
 C368 C 0.61955 0.41088 -0.15510
 H369 H 0.69353 0.33419 -0.22040
 H370 H 0.64252 0.30121 -0.38108
 H371 H 0.55594 0.37664 -0.20307
 H372 H 0.60364 0.45541 -0.08807
 H373 H 0.66273 0.37039 -0.16099
 H374 H 0.63729 0.42146 -0.14272
 C375 C 0.13956 0.87251 -0.23824
 C376 C 0.16179 0.89193 -0.24655
 C377 C 0.18004 0.87165 -0.28185
 C378 C 0.17627 0.83215 -0.30901
 C379 C 0.15378 0.81396 -0.29993
 N380 N 0.13627 0.83435 -0.26564
 C381 C 0.11929 0.89253 -0.20258
 N382 N 0.09684 0.87920 -0.21695
 C383 C 0.07723 0.89569 -0.18654
 C384 C 0.07953 0.92759 -0.13790
 C385 C 0.10253 0.94152 -0.12156
 C386 C 0.12241 0.92409 -0.15359
 H387 H 0.19715 0.88676 -0.28752
 H388 H 0.14997 0.78384 -0.32108
 H389 H 0.05989 0.88374 -0.20047
 H390 H 0.10522 0.96582 -0.08392
 H391 H 0.16506 0.92266 -0.22742
 H392 H 0.13991 0.93486 -0.13893
 C393 C 0.36353 0.62379 -0.25377
 C394 C 0.36087 0.62160 -0.32642
 C395 C 0.34090 0.63898 -0.35779
 C396 C 0.32366 0.65876 -0.31706
 C397 C 0.32675 0.65966 -0.24450
 N398 N 0.34628 0.64221 -0.21501
 C399 C 0.38466 0.60674 -0.21842
 N400 N 0.38234 0.59063 -0.15307
 C401 C 0.40114 0.57480 -0.11749
 C402 C 0.42401 0.57536 -0.14724
 C403 C 0.42683 0.59242 -0.21409
 C404 C 0.40722 0.60794 -0.24992
 H405 H 0.33917 0.63781 -0.41398
 H406 H 0.31368 0.67424 -0.21136
 H407 H 0.39824 0.56221 -0.06579
 H408 H 0.44415 0.59347 -0.23897
 H409 H 0.37399 0.60643 -0.35867
 H410 H 0.40982 0.62143 -0.30109
 C411 C -0.13459 1.12789 -0.25822
 C412 C -0.13345 1.13913 -0.32894
 C413 C -0.15318 1.15695 -0.36071
 C414 C -0.17415 1.16350 -0.32256
 C415 C -0.17481 1.15073 -0.25249
 N416 N -0.15528 1.13355 -0.22249
 C417 C -0.11384 1.11018 -0.22164
 N418 N -0.11742 1.08482 -0.16581
 C419 C -0.09908 1.06786 -0.12958
 C420 C -0.07543 1.07658 -0.14869
 C421 C -0.07141 1.10308 -0.20555
 C422 C -0.09047 1.11991 -0.24194
 H423 H -0.15210 1.16519 -0.41541
 H424 H -0.19063 1.15520 -0.22116
 H425 H -0.10301 1.04782 -0.08578
 H426 H -0.05351 1.11095 -0.22203
 H427 H -0.11764 1.13381 -0.35988
 H428 H -0.08682 1.14096 -0.28454
 C429 C 0.63226 0.65327 -0.24002
 C430 C 0.63241 0.69536 -0.25620
 C431 C 0.65205 0.71264 -0.29014
 C432 C 0.67182 0.68825 -0.30871
 C433 C 0.67093 0.64617 -0.28990
 N434 N 0.65161 0.63024 -0.25646
 C435 C 0.61178 0.63312 -0.20508
 N436 N 0.61560 0.59849 -0.16651
 C437 C 0.59764 0.57775 -0.13410
 C438 C 0.57403 0.59137 -0.14041
 C439 C 0.56967 0.62683 -0.18043
 C440 C 0.58843 0.64775 -0.21272
 H441 H 0.65101 0.74483 -0.30422
 H442 H 0.68577 0.62589 -0.29937
 H443 H 0.60183 0.55040 -0.10419
 H444 H 0.55175 0.63836 -0.18704
 H445 H 0.61761 0.71500 -0.24262
 H446 H 0.58452 0.67444 -0.24456
 C447 C 0.13093 1.16041 -0.23189
 C448 C 0.13114 1.20259 -0.24745
 C449 C 0.15039 1.21966 -0.28354
 C450 C 0.16970 1.19498 -0.30492
 C451 C 0.16878 1.15282 -0.28671
 N452 N 0.14986 1.13709 -0.25113
 C453 C 0.11078 1.14041 -0.19511
 N454 N 0.11485 1.10543 -0.15770
 C455 C 0.09712 1.08450 -0.12455
 C456 C 0.07348 1.09820 -0.12906
 C457 C 0.06888 1.13417 -0.16746
 C458 C 0.08742 1.15536 -0.20038
 H459 H 0.14938 1.25195 -0.29696
 H460 H 0.18333 1.13229 -0.29834
 H461 H 0.10148 1.05673 -0.09597
 H462 H 0.05092 1.14577 -0.17265
 H463 H 0.11667 1.22242 -0.23177
 H464 H 0.08331 1.18236 -0.23121
 C465 C 0.36638 0.37187 -0.25855
 C466 C 0.36454 0.37300 -0.33154
 C467 C 0.34423 0.35717 -0.36354
 C468 C 0.32586 0.34001 -0.32311
 C469 C 0.32828 0.33980 -0.25032
 N470 N 0.34813 0.35577 -0.22025
 C471 C 0.38742 0.38845 -0.22206
 N472 N 0.38462 0.40483 -0.15739
 C473 C 0.40315 0.42087 -0.12093
 C474 C 0.42624 0.42051 -0.14915
 C475 C 0.42960 0.40299 -0.21514
 C476 C 0.41026 0.38707 -0.25181
 H477 H 0.34304 0.35774 -0.41989
 H478 H 0.31434 0.32725 -0.21739
 H479 H 0.39979 0.43376 -0.06992
 H480 H 0.44710 0.40201 -0.23883
 H481 H 0.37842 0.38646 -0.36361
 H482 H 0.41327 0.37335 -0.30235
 C483 C -0.12989 0.86667 -0.26521
 C484 C -0.13205 0.86771 -0.33814
 C485 C -0.15246 0.85157 -0.36935
 C486 C -0.17059 0.83414 -0.32821
 C487 C -0.16776 0.83382 -0.25557
 N488 N -0.14787 0.85015 -0.22632
 C489 C -0.10905 0.88437 -0.22904
 N490 N -0.11207 0.89971 -0.16376
 C491 C -0.09392 0.91678 -0.12715
 C492 C -0.07091 0.91874 -0.15580
 C493 C -0.06723 0.90233 -0.22248
 C494 C -0.08625 0.88528 -0.25938
 H495 H -0.15396 0.85224 -0.42563
 H496 H -0.18147 0.82106 -0.22204
 H497 H -0.09753 0.92867 -0.07558
 H498 H -0.04976 0.90313 -0.24641
 H499 H -0.11842 0.88149 -0.37073
 H500 H -0.08303 0.87248 -0.31050
 C501 C 0.36553 0.62969 0.25194
 C502 C 0.34484 0.60771 0.27001
 C503 C 0.32617 0.62791 0.30331
 C504 C 0.32796 0.66996 0.31896
 C505 C 0.34914 0.69064 0.30113
 N506 N 0.36711 0.67028 0.26863
 C507 C 0.38574 0.60985 0.21573
 N508 N 0.40807 0.62551 0.22392
 C509 C 0.42741 0.60917 0.19153
 C510 C 0.42482 0.57528 0.14700
 C511 C 0.40190 0.55892 0.13738
 C512 C 0.38240 0.57603 0.17150
 H513 H 0.31049 0.61040 0.31783
 H514 H 0.35130 0.72308 0.31189
 H515 H 0.44470 0.62298 0.20008
 H516 H 0.39898 0.53293 0.10328
 H517 H 0.34316 0.57512 0.25985
 H518 H 0.36489 0.56339 0.16187
 C519 C -0.13995 1.11658 0.24959
 C520 C -0.16142 1.09481 0.25821
 C521 C -0.18056 1.11350 0.29194
 C522 C -0.17843 1.15374 0.31735
 C523 C -0.15655 1.17419 0.30864
 N524 N -0.13815 1.15535 0.27569
 C525 C -0.11908 1.09862 0.21361
 N526 N -0.09698 1.11375 0.22778
 C527 C -0.07702 1.09943 0.19594
 C528 C -0.07863 1.06824 0.14577
 C529 C -0.10128 1.05240 0.13003
 C530 C -0.12146 1.06747 0.16361
 H531 H -0.19711 1.09662 0.29746
 H532 H -0.15398 1.20496 0.32865
 H533 H -0.05998 1.11273 0.20950
 H534 H -0.10347 1.02849 0.09142
 H535 H -0.16346 1.06354 0.24012
 H536 H -0.13869 1.05538 0.14907
 C537 C 0.63698 0.36176 0.23273
 C538 C 0.65905 0.38130 0.24272
 C539 C 0.67695 0.36101 0.27951
 C540 C 0.67298 0.32138 0.30654
 C541 C 0.65066 0.30302 0.29572
 N542 N 0.63346 0.32345 0.25999
 C543 C 0.61706 0.38199 0.19572
 N544 N 0.59443 0.36912 0.20934
 C545 C 0.57514 0.38632 0.17827
 C546 C 0.57800 0.41857 0.12996
 C547 C 0.60122 0.43181 0.11410
 C548 C 0.62074 0.41362 0.14663
 H549 H 0.69395 0.37623 0.28647
 H550 H 0.64671 0.27277 0.31665
 H551 H 0.55761 0.37486 0.19177
 H552 H 0.60435 0.45633 0.07669
 H553 H 0.66244 0.41217 0.22381
 H554 H 0.63842 0.42399 0.13254
 C555 C 0.13753 0.86637 0.23821
 C556 C 0.15776 0.88868 0.25872
 C557 C 0.17603 0.86870 0.29434
 C558 C 0.17431 0.82651 0.30979
 C559 C 0.15368 0.80541 0.28878
 N560 N 0.13607 0.82559 0.25431
 C561 C 0.11743 0.88619 0.20143
 N562 N 0.09521 0.86977 0.20828
 C563 C 0.07584 0.88654 0.17678
 C564 C 0.07823 0.92195 0.13500
 C565 C 0.10108 0.93890 0.12616
 C566 C 0.12065 0.92118 0.15913
 H567 H 0.19128 0.88651 0.31106
 H568 H 0.15163 0.77281 0.29898
 H569 H 0.05863 0.87219 0.18460
 H570 H 0.10386 0.96600 0.09403
 H571 H 0.15930 0.92141 0.24909
 H572 H 0.13809 0.93450 0.15061
   
