data_POSCAR
  _audit_creation_date              2014-09-24
  _audit_creation_method            'ToBaCCo'
  _symmetry_space_group_name_H-M    'P1'
  _symmetry_Int_Tables_number       1
  _symmetry_cell_setting            triclinic
  loop_
  _symmetry_equiv_pos_as_xyz
 x,y,z
_cell_length_a 57.2445
_cell_length_b 57.2000
_cell_length_c 57.5508
_cell_angle_alpha 89.968600
_cell_angle_beta 89.969400
_cell_angle_gamma 89.971500
loop_
  _atom_site_label
  _atom_site_type_symbol
  _atom_site_fract_x
  _atom_site_fract_y
  _atom_site_fract_z
N1 N 0.30120 0.36038 1.35082
 N2 N 0.30280 0.34360 1.36631
 C3 C 0.28516 0.34577 1.38165
 C4 C 0.27165 0.36502 1.37549
 C5 C 0.28254 0.37379 1.35573
 H6 H 0.28245 0.33414 1.39620
 H7 H 0.27744 0.38880 1.34554
 Cu8 Cu 0.32788 0.32062 1.36482
 Cu9 Cu 0.32341 0.36373 1.32540
 Cu10 Cu 0.36819 0.32299 1.32237
 N11 N 0.35311 0.29787 1.36294
 N12 N 0.36879 0.29890 1.34630
 C13 C 0.38412 0.28125 1.34897
 C14 C 0.37779 0.26829 1.36842
 C15 C 0.35793 0.27951 1.37678
 H16 H 0.39873 0.27822 1.33748
 H17 H 0.34764 0.27476 1.39178
 N18 N 0.36457 0.34870 1.29981
 N19 N 0.34756 0.36421 1.30100
 C20 C 0.34985 0.37947 1.28332
 C21 C 0.36925 0.37332 1.27030
 C22 C 0.37812 0.35369 1.28132
 H23 H 0.33812 0.39391 1.28008
 H24 H 0.39346 0.34385 1.27639
 H25 H 0.33260 0.32881 1.32350
 H26 H 0.35126 0.34794 1.34209
 N27 N 1.19888 0.64042 0.84963
 N28 N 1.19756 0.65751 0.86481
 C29 C 1.21522 0.65537 0.88013
 C30 C 1.22838 0.63590 0.87421
 C31 C 1.21740 0.62688 0.85472
 H32 H 1.21834 0.66720 0.89442
 H33 H 1.22232 0.61148 0.84502
 Cu34 Cu 1.17284 0.68083 0.86308
 Cu35 Cu 1.17648 0.63685 0.82447
 Cu36 Cu 1.13158 0.67741 0.82157
 N37 N 1.14716 0.70310 0.86152
 N38 N 1.13112 0.70169 0.84529
 C39 C 1.11557 0.71910 0.84818
 C40 C 1.12215 0.73232 0.86736
 C41 C 1.14236 0.72148 0.87533
 H42 H 1.10065 0.72182 0.83702
 H43 H 1.15291 0.72649 0.89005
 N44 N 1.13507 0.65157 0.79918
 N45 N 1.15217 0.63615 0.80030
 C46 C 1.14983 0.62081 0.78271
 C47 C 1.13029 0.62681 0.76982
 C48 C 1.12140 0.64644 0.78084
 H49 H 1.16162 0.60644 0.77945
 H50 H 1.10602 0.65622 0.77597
 H51 H 1.16720 0.67172 0.82205
 H52 H 1.14903 0.65297 0.84154
 N53 N 0.70000 -0.13285 0.14787
 N54 N 0.69860 -0.14982 0.13257
 C55 C 0.71613 -0.14755 0.11710
 C56 C 0.72924 -0.12806 0.12299
 C57 C 0.71842 -0.11921 0.14266
 H58 H 0.71900 -0.15911 0.10254
 H59 H 0.72360 -0.10408 0.15264
 Cu60 Cu 0.67396 -0.17317 0.13438
 Cu61 Cu 0.67791 -0.12965 0.17344
 Cu62 Cu 0.63383 -0.17108 0.17693
 N63 N 0.64914 -0.19631 0.13655
 N64 N 0.63352 -0.19537 0.15323
 C65 C 0.61841 -0.21320 0.15074
 C66 C 0.62482 -0.22620 0.13135
 C67 C 0.64451 -0.21480 0.12284
 H68 H 0.60386 -0.21631 0.16229
 H69 H 0.65476 -0.21950 0.10780
 N70 N 0.63708 -0.14518 0.19926
 N71 N 0.65387 -0.12944 0.19800
 C72 C 0.65138 -0.11418 0.21565
 C73 C 0.63205 -0.12057 0.22869
 C74 C 0.62347 -0.14034 0.21773
 H75 H 0.66269 -0.09938 0.21867
 H76 H 0.60852 -0.15060 0.22292
 H77 H 0.66937 -0.16464 0.17563
 H78 H 0.65033 -0.14593 0.15697
 N79 N -0.20089 1.13311 -0.35163
 N80 N -0.19981 1.15039 -0.36662
 C81 C -0.21737 1.14815 -0.38203
 C82 C -0.23023 1.12841 -0.37638
 C83 C -0.21916 1.11933 -0.35693
 H84 H -0.22065 1.16012 -0.39618
 H85 H -0.22389 1.10377 -0.34738
 Cu86 Cu -0.17560 1.17417 -0.36459
 Cu87 Cu -0.17856 1.12968 -0.32634
 Cu88 Cu -0.13445 1.17100 -0.32301
 N89 N -0.15032 1.19684 -0.36276
 N90 N -0.13431 1.19550 -0.34648
 C91 C -0.11898 1.21311 -0.34922
 C92 C -0.12564 1.22637 -0.36835
 C93 C -0.14570 1.21536 -0.37645
 H94 H -0.10411 1.21588 -0.33802
 H95 H -0.15621 1.22031 -0.39123
 N96 N -0.13750 1.14494 -0.30083
 N97 N -0.15432 1.12923 -0.30203
 C98 C -0.15173 1.11388 -0.28445
 C99 C -0.13231 1.12018 -0.27154
 C100 C -0.12377 1.13998 -0.28250
 H101 H -0.16308 1.09912 -0.28138
 H102 H -0.10879 1.15022 -0.27735
 H103 H -0.17001 1.16463 -0.32363
 H104 H -0.15145 1.14640 -0.34324
 N105 N 0.70093 0.63295 0.64903
 N106 N 0.69992 0.65022 0.63401
 C107 C 0.71751 0.64792 0.61862
 C108 C 0.73031 0.62814 0.62430
 C109 C 0.71918 0.61911 0.64375
 H110 H 0.72083 0.65986 0.60446
 H111 H 0.72386 0.60355 0.65332
 Cu112 Cu 0.67573 0.67406 0.63599
 Cu113 Cu 0.67855 0.62963 0.67430
 Cu114 Cu 0.63452 0.67109 0.67759
 N115 N 0.65048 0.69679 0.63777
 N116 N 0.63447 0.69555 0.65408
 C117 C 0.61919 0.71322 0.65132
 C118 C 0.62591 0.72631 0.63218
 C119 C 0.64588 0.71529 0.62403
 H120 H 0.60418 0.71613 0.66234
 H121 H 0.65639 0.72042 0.60929
 N122 N 0.63748 0.64504 0.69978
 N123 N 0.65427 0.62927 0.69860
 C124 C 0.65163 0.61395 0.71620
 C125 C 0.63220 0.62033 0.72910
 C126 C 0.62372 0.64014 0.71812
 H127 H 0.66294 0.59915 0.71929
 H128 H 0.60876 0.65044 0.72325
 H129 H 0.65149 0.64642 0.65738
 H130 H 0.67007 0.66462 0.67696
 N131 N 0.80021 0.36808 0.14794
 N132 N 0.80181 0.35137 0.13236
 C133 C 0.78431 0.35375 0.11691
 C134 C 0.77100 0.37304 0.12309
 C135 C 0.78170 0.38166 0.14292
 H136 H 0.78156 0.34238 0.10219
 H137 H 0.77633 0.39657 0.15314
 Cu138 Cu 0.82659 0.32812 0.13379
 Cu139 Cu 0.82214 0.37094 0.17365
 Cu140 Cu 0.86587 0.32915 0.17720
 N141 N 0.85093 0.30450 0.13638
 N142 N 0.86624 0.30503 0.15337
 C143 C 0.88107 0.28692 0.15103
 C144 C 0.87475 0.27425 0.13150
 C145 C 0.85549 0.28598 0.12267
 H146 H 0.89529 0.28323 0.16281
 H147 H 0.84565 0.28152 0.10729
 N148 N 0.86262 0.35492 0.19967
 N149 N 0.84598 0.37083 0.19836
 C150 C 0.84849 0.38600 0.21609
 C151 C 0.86768 0.37937 0.22922
 C152 C 0.87615 0.35956 0.21823
 H153 H 0.83729 0.40090 0.21908
 H154 H 0.89099 0.34914 0.22344
 H155 H 0.84992 0.35477 0.15737
 H156 H 0.83037 0.33582 0.17527
 N157 N 0.30188 0.13939 0.85057
 N158 N 0.30376 0.15582 0.86639
 C159 C 0.28611 0.15361 0.88173
 C160 C 0.27243 0.13471 0.87521
 C161 C 0.28305 0.12616 0.85531
 H162 H 0.28355 0.16479 0.89664
 H163 H 0.27747 0.11149 0.84488
 Cu164 Cu 0.32917 0.17841 0.86539
 Cu165 Cu 0.32395 0.13625 0.82503
 Cu166 Cu 0.36873 0.17690 0.82211
 N167 N 0.35412 0.20141 0.86319
 N168 N 0.36949 0.20075 0.84624
 C169 C 0.38464 0.21855 0.84880
 C170 C 0.37850 0.23113 0.86847
 C171 C 0.35899 0.21967 0.87712
 H172 H 0.39913 0.22195 0.83724
 H173 H 0.34893 0.22440 0.89229
 N174 N 0.36498 0.15143 0.79936
 N175 N 0.34795 0.13594 0.80051
 C176 C 0.35018 0.12081 0.78274
 C177 C 0.36955 0.12701 0.76969
 C178 C 0.37847 0.14655 0.78081
 H179 H 0.33844 0.10640 0.77946
 H180 H 0.39382 0.15637 0.77591
 H181 H 0.35211 0.15158 0.84160
 H182 H 0.33313 0.17124 0.82383
 N183 N 0.19880 0.85993 0.34973
 N184 N 0.19749 0.84288 0.36497
 C185 C 0.21508 0.84512 0.38035
 C186 C 0.22815 0.86466 0.37445
 C187 C 0.21722 0.87358 0.35487
 H188 H 0.21800 0.83352 0.39488
 H189 H 0.22230 0.88878 0.34494
 Cu190 Cu 0.17283 0.81953 0.36328
 Cu191 Cu 0.17658 0.86328 0.32438
 Cu192 Cu 0.13186 0.82257 0.32143
 N193 N 0.14720 0.79723 0.36174
 N194 N 0.13129 0.79848 0.34534
 C195 C 0.11576 0.78107 0.34828
 C196 C 0.12221 0.76814 0.36762
 C197 C 0.14229 0.77898 0.37570
 H198 H 0.10079 0.77819 0.33721
 H199 H 0.15269 0.77386 0.39050
 N200 N 0.13543 0.84826 0.29886
 N201 N 0.15244 0.86376 0.30001
 C202 C 0.15012 0.87901 0.28233
 C203 C 0.13071 0.87286 0.26934
 C204 C 0.12186 0.85324 0.28039
 H205 H 0.16184 0.89344 0.27906
 H206 H 0.10653 0.84340 0.27550
 H207 H 0.14905 0.84718 0.34136
 H208 H 0.16745 0.82837 0.32215
 Zn209 Zn -0.01090 1.00525 0.02992
 Zn210 Zn 0.03087 0.99087 0.00266
 Zn211 Zn -0.01694 0.98456 -0.01745
 Zn212 Zn 0.00325 1.03251 -0.01184
 O213 O 0.00154 1.00327 0.00079
 O214 O 0.00820 0.99427 0.05199
 O215 O 0.03371 0.96447 -0.01364
 O216 O -0.04197 0.97341 -0.00213
 O217 O 0.03920 0.98351 0.03175
 O218 O -0.03727 0.98889 0.03275
 O219 O -0.00157 0.95949 -0.02847
 O220 O -0.01313 1.03499 -0.03813
 O221 O 0.05299 1.01012 -0.00823
 O222 O -0.02819 0.99967 -0.04245
 O223 O 0.03248 1.04099 -0.01906
 O224 O -0.00788 1.05476 0.00704
 O225 O -0.01823 1.03454 0.03810
 C226 C 0.02852 0.98545 0.05099
 C227 C 0.01945 0.95281 -0.02589
 C228 C -0.04879 0.97630 0.01869
 C229 C -0.02555 1.02057 -0.04944
 C230 C 0.05189 1.03047 -0.01697
 C231 C -0.01648 1.05384 0.02736
 Zn232 Zn 0.49645 -0.03260 0.48829
 Zn233 Zn 0.51062 -0.00537 0.52999
 Zn234 Zn 0.51663 0.01536 0.48260
 Zn235 Zn 0.46882 0.00902 0.50279
 O236 O 0.49816 -0.00337 0.50088
 O237 O 0.50757 -0.05487 0.50717
 O238 O 0.53698 0.01099 0.53277
 O239 O 0.52787 0.00025 0.45760
 O240 O 0.51795 -0.03466 0.53820
 O241 O 0.51283 -0.03508 0.46199
 O242 O 0.54166 0.02651 0.49788
 O243 O 0.46597 0.03542 0.48650
 O244 O 0.49153 0.00562 0.55208
 O245 O 0.50123 0.04044 0.47160
 O246 O 0.46050 0.01636 0.53190
 O247 O 0.44670 -0.01022 0.49194
 O248 O 0.46722 -0.04108 0.48109
 C249 C 0.51619 -0.05396 0.52747
 C250 C 0.54849 0.02359 0.51869
 C251 C 0.52524 -0.02066 0.45064
 C252 C 0.48022 0.04711 0.47423
 C253 C 0.47120 0.01443 0.55112
 C254 C 0.44780 -0.03056 0.48319
 Zn255 Zn 1.03122 0.50823 0.50330
 Zn256 Zn 0.98340 0.51457 0.48317
 Zn257 Zn 1.00366 0.46662 0.48874
 Zn258 Zn 0.98944 0.49377 0.53051
 O259 O 1.00190 0.49583 0.50140
 O260 O 1.03403 0.53467 0.48703
 O261 O 0.97216 0.49950 0.45817
 O262 O 1.03290 0.45817 0.48151
 O263 O 0.99876 0.53966 0.47217
 O264 O 1.05337 0.48902 0.49241
 O265 O 0.98728 0.46418 0.46246
 O266 O 0.98214 0.46447 0.53867
 O267 O 0.95836 0.52571 0.49850
 O268 O 0.99256 0.44431 0.50760
 O269 O 0.96306 0.51012 0.53335
 O270 O 1.00850 0.50473 0.55260
 O271 O 1.03951 0.51554 0.53241
 C272 C 1.01976 0.54635 0.47478
 C273 C 0.97482 0.47861 0.45117
 C274 C 1.05231 0.46869 0.48363
 C275 C 0.98394 0.44519 0.52790
 C276 C 0.95154 0.52276 0.51931
 C277 C 1.02881 0.51356 0.55164
 Zn278 Zn 0.51052 0.50594 1.03073
 Zn279 Zn 0.51661 0.48517 0.98339
 Zn280 Zn 0.46877 0.49150 1.00351
 Zn281 Zn 0.49637 0.53312 0.98894
 O282 O 0.49809 0.50390 1.00161
 O283 O 0.53692 0.48961 1.03357
 O284 O 0.50127 0.46007 0.97243
 O285 O 0.46044 0.48419 1.03263
 O286 O 0.54166 0.47407 0.99871
 O287 O 0.49143 0.49496 1.05283
 O288 O 0.46597 0.46508 0.98726
 O289 O 0.46714 0.54158 0.98171
 O290 O 0.52784 0.50024 0.95836
 O291 O 0.44664 0.51073 0.99259
 O292 O 0.51276 0.53557 0.96264
 O293 O 0.50744 0.55541 1.00778
 O294 O 0.51779 0.53525 1.03888
 C295 C 0.54847 0.47701 1.01951
 C296 C 0.48027 0.45339 0.97503
 C297 C 0.47111 0.48614 1.05186
 C298 C 0.44773 0.53106 0.98381
 C299 C 0.52519 0.52113 0.95134
 C300 C 0.51602 0.55453 1.02810
 C301 C 1.22251 0.37153 0.41785
 C302 C 1.21115 0.39126 0.40905
 C303 C 1.21981 0.40229 0.38917
 C304 C 1.23975 0.39366 0.37809
 C305 C 1.25149 0.37374 0.38670
 C306 C 1.24248 0.36282 0.40682
 C307 C 1.19057 0.40028 0.42031
 C308 C 1.17331 0.40811 0.42944
 C309 C 1.15305 0.41760 0.43978
 C310 C 1.13571 0.42595 0.44830
 C311 C 1.11495 0.43621 0.45806
 C312 C 1.11598 0.45827 0.46851
 C313 C 1.09566 0.46872 0.47713
 C314 C 1.07400 0.45722 0.47539
 C315 C 1.07321 0.43490 0.46512
 C316 C 1.09356 0.42450 0.45651
 H317 H 1.21593 0.36284 0.43326
 H318 H 1.21113 0.41759 0.38219
 H319 H 1.24576 0.40280 0.36277
 H320 H 1.25068 0.34752 0.41425
 H321 H 1.13244 0.46752 0.46976
 H322 H 1.09689 0.48590 0.48493
 H323 H 1.05684 0.42557 0.46350
 H324 H 1.09256 0.40743 0.44841
 C325 C 0.27611 0.62641 0.91915
 C326 C 0.28951 0.60896 0.90854
 C327 C 0.28300 0.60037 0.88674
 C328 C 0.26318 0.60913 0.87557
 C329 C 0.24951 0.62667 0.88607
 C330 C 0.25625 0.63523 0.90801
 C331 C 0.30992 0.59977 0.91993
 C332 C 0.32707 0.59183 0.92917
 C333 C 0.34722 0.58226 0.93963
 C334 C 0.36449 0.57386 0.94823
 C335 C 0.38520 0.56358 0.95808
 C336 C 0.38412 0.54150 0.96851
 C337 C 0.40440 0.53104 0.97720
 C338 C 0.42607 0.54255 0.97553
 C339 C 0.42690 0.56488 0.96528
 C340 C 0.40660 0.57530 0.95660
 H341 H 0.28098 0.63317 0.93605
 H342 H 0.29328 0.58688 0.87834
 H343 H 0.25875 0.60222 0.85866
 H344 H 0.24615 0.64858 0.91673
 H345 H 0.36765 0.53226 0.96970
 H346 H 0.40313 0.51385 0.98498
 H347 H 0.44328 0.57422 0.96371
 H348 H 0.40763 0.59238 0.94852
 C349 C -0.21838 0.87670 0.08263
 C350 C -0.20963 0.89874 0.08854
 C351 C -0.22090 0.91207 0.10555
 C352 C -0.24080 0.90341 0.11669
 C353 C -0.24974 0.88122 0.11098
 C354 C -0.23830 0.86799 0.09375
 C355 C -0.18889 0.90762 0.07748
 C356 C -0.17143 0.91535 0.06865
 C357 C -0.15086 0.92479 0.05891
 C358 C -0.13319 0.93322 0.05119
 C359 C -0.11197 0.94376 0.04281
 C360 C -0.10468 0.94049 0.01981
 C361 C -0.08407 0.95100 0.01186
 C362 C -0.07055 0.96493 0.02688
 C363 C -0.07806 0.96802 0.04996
 C364 C -0.09860 0.95752 0.05783
 H365 H -0.20975 0.86620 0.06953
 H366 H -0.21428 0.92916 0.11025
 H367 H -0.24916 0.91422 0.12967
 H368 H -0.24450 0.85080 0.08896
 H369 H -0.11491 0.92987 0.00802
 H370 H -0.07878 0.94828 -0.00600
 H371 H -0.06809 0.97861 0.06199
 H372 H -0.10408 0.96017 0.07566
 C373 C 0.71561 0.09243 0.61058
 C374 C 0.70875 0.10155 0.58909
 C375 C 0.72184 0.11942 0.57880
 C376 C 0.74170 0.12816 0.58997
 C377 C 0.74875 0.11911 0.61164
 C378 C 0.73544 0.10111 0.62178
 C379 C 0.68820 0.09259 0.57780
 C380 C 0.67086 0.08479 0.56882
 C381 C 0.65040 0.07528 0.55895
 C382 C 0.63279 0.06679 0.55117
 C383 C 0.61162 0.05619 0.54277
 C384 C 0.60433 0.05950 0.51978
 C385 C 0.58374 0.04896 0.51184
 C386 C 0.57024 0.03497 0.52685
 C387 C 0.57777 0.03183 0.54993
 C388 C 0.59828 0.04236 0.55779
 H389 H 0.70557 0.07862 0.61874
 H390 H 0.71669 0.12662 0.56215
 H391 H 0.75152 0.14188 0.58151
 H392 H 0.74012 0.09379 0.63847
 H393 H 0.61454 0.07017 0.50800
 H394 H 0.57844 0.05172 0.49400
 H395 H 0.56782 0.02120 0.56196
 H396 H 0.60376 0.03969 0.57561
 C397 C 0.39104 0.21705 0.40652
 C398 C 0.41089 0.20790 0.39569
 C399 C 0.41988 0.21881 0.37588
 C400 C 0.40904 0.23878 0.36688
 C401 C 0.38890 0.24822 0.37756
 C402 C 0.38014 0.23698 0.39760
 C403 C 0.42180 0.18717 0.40486
 C404 C 0.43050 0.16972 0.41281
 C405 C 0.44012 0.14917 0.42246
 C406 C 0.44777 0.13151 0.43102
 C407 C 0.45613 0.11031 0.44164
 C408 C 0.47933 0.10311 0.43869
 C409 C 0.48726 0.08252 0.44923
 C410 C 0.47204 0.06889 0.46288
 C411 C 0.44876 0.07631 0.46568
 C412 C 0.44090 0.09685 0.45514
 H413 H 0.38391 0.20872 0.42188
 H414 H 0.43525 0.21185 0.36734
 H415 H 0.41658 0.24660 0.35152
 H416 H 0.36483 0.24336 0.40658
 H417 H 0.49127 0.11341 0.42827
 H418 H 0.50527 0.07730 0.44673
 H419 H 0.43657 0.06627 0.47605
 H420 H 0.42291 0.10226 0.45755
 C421 C 0.91685 0.27536 0.62375
 C422 C 0.90762 0.28656 0.60423
 C423 C 0.88740 0.27784 0.59378
 C424 C 0.87640 0.25799 0.60278
 C425 C 0.88546 0.24643 0.62251
 C426 C 0.90592 0.25549 0.63283
 C427 C 0.91883 0.30704 0.59491
 C428 C 0.92803 0.32424 0.58699
 C429 C 0.93856 0.34443 0.57756
 C430 C 0.94730 0.36173 0.56936
 C431 C 0.95739 0.38248 0.55938
 C432 C 0.96771 0.38160 0.53735
 C433 C 0.97670 0.40193 0.52724
 C434 C 0.97543 0.42344 0.53904
 C435 C 0.96529 0.42406 0.56133
 C436 C 0.95632 0.40371 0.57140
 H437 H 0.93252 0.28198 0.63200
 H438 H 0.88009 0.28641 0.57863
 H439 H 0.86081 0.25192 0.59411
 H440 H 0.91369 0.24743 0.64795
 H441 H 0.96859 0.36526 0.52789
 H442 H 0.98437 0.40084 0.51007
 H443 H 0.96402 0.44032 0.57088
 H444 H 0.94833 0.40458 0.58845
 C445 C 0.10904 0.78367 -0.09468
 C446 C 0.08881 0.79243 -0.10509
 C447 C 0.07951 0.78123 -0.12457
 C448 C 0.09042 0.76135 -0.13367
 C449 C 0.11095 0.75229 -0.12341
 C450 C 0.12002 0.76382 -0.10369
 C451 C 0.07783 0.81307 -0.09582
 C452 C 0.06909 0.83046 -0.08779
 C453 C 0.05947 0.85095 -0.07803
 C454 C 0.05182 0.86856 -0.06938
 C455 C 0.04348 0.88970 -0.05865
 C456 C 0.02029 0.89693 -0.06156
 C457 C 0.01238 0.91749 -0.05094
 C458 C 0.02761 0.93105 -0.03728
 C459 C 0.05088 0.92360 -0.03453
 C460 C 0.05872 0.90309 -0.04513
 H461 H 0.11641 0.79223 -0.07957
 H462 H 0.06383 0.78789 -0.13279
 H463 H 0.08264 0.75329 -0.14877
 H464 H 0.13563 0.75775 -0.09505
 H465 H 0.00833 0.88668 -0.07199
 H466 H -0.00563 0.92273 -0.05341
 H467 H 0.06308 0.93360 -0.02415
 H468 H 0.07670 0.89767 -0.04276
 C469 C 0.58292 0.72422 1.12412
 C470 C 0.59183 0.71336 1.10426
 C471 C 0.61165 0.72249 1.09338
 C472 C 0.62256 0.74242 1.10228
 C473 C 0.61382 0.75365 1.12233
 C474 C 0.59376 0.74416 1.13310
 C475 C 0.58070 0.69281 1.09503
 C476 C 0.57156 0.67557 1.08716
 C477 C 0.56110 0.65534 1.07776
 C478 C 0.55242 0.63802 1.06957
 C479 C 0.54240 0.61726 1.05959
 C480 C 0.53213 0.61813 1.03755
 C481 C 0.52322 0.59780 1.02742
 C482 C 0.52449 0.57628 1.03924
 C483 C 0.53458 0.57565 1.06153
 C484 C 0.54348 0.59602 1.07161
 H485 H 0.56756 0.71727 1.13270
 H486 H 0.61870 0.71419 1.07797
 H487 H 0.63783 0.74883 1.09326
 H488 H 0.58624 0.75195 1.14848
 H489 H 0.53124 0.63448 1.02807
 H490 H 0.51558 0.59889 1.01025
 H491 H 0.53585 0.55939 1.07109
 H492 H 0.55143 0.59515 1.08867
 C493 C 0.37889 0.41850 1.22283
 C494 C 0.39603 0.40763 1.20929
 C495 C 0.40443 0.38557 1.21564
 C496 C 0.39575 0.37440 1.23546
 C497 C 0.37849 0.38516 1.24923
 C498 C 0.37017 0.40737 1.24265
 C499 C 0.40505 0.41909 1.18890
 C500 C 0.41272 0.42856 1.17181
 C501 C 0.42187 0.43943 1.15176
 C502 C 0.42988 0.44849 1.13460
 C503 C 0.43970 0.45895 1.11405
 C504 C 0.42770 0.45774 1.09291
 C505 C 0.43770 0.46698 1.07273
 C506 C 0.45991 0.47753 1.07344
 C507 C 0.47166 0.47898 1.09487
 C508 C 0.46161 0.46973 1.11502
 H509 H 0.37229 0.43561 1.21809
 H510 H 0.41768 0.37697 1.20526
 H511 H 0.40248 0.35728 1.23979
 H512 H 0.35706 0.41633 1.25285
 H513 H 0.41073 0.44940 1.09196
 H514 H 0.42820 0.46556 1.05653
 H515 H 0.48876 0.48697 1.09603
 H516 H 0.47106 0.47073 1.13129
 C517 C 0.59153 -0.10415 0.27833
 C518 C 0.60476 -0.08732 0.29003
 C519 C 0.62685 -0.08116 0.28162
 C520 C 0.63572 -0.09186 0.26161
 C521 C 0.62260 -0.10893 0.24977
 C522 C 0.60035 -0.11488 0.25836
 C523 C 0.59567 -0.07672 0.31085
 C524 C 0.58770 -0.06832 0.32835
 C525 C 0.57795 -0.05908 0.34892
 C526 C 0.56925 -0.05176 0.36655
 C527 C 0.55843 -0.04376 0.38769
 C528 C 0.56134 -0.02067 0.39522
 C529 C 0.55058 -0.01307 0.41573
 C530 C 0.53678 -0.02851 0.42894
 C531 C 0.53403 -0.05168 0.42120
 C532 C 0.54478 -0.05922 0.40074
 H533 H 0.57439 -0.10904 0.28468
 H534 H 0.63727 -0.06819 0.29059
 H535 H 0.65295 -0.08692 0.25567
 H536 H 0.58961 -0.12772 0.24967
 H537 H 0.57187 -0.00855 0.38523
 H538 H 0.55305 0.00487 0.42120
 H539 H 0.52354 -0.06404 0.43092
 H540 H 0.54240 -0.07712 0.39507
 C541 C -0.12701 1.08076 -0.21859
 C542 C -0.10489 1.08689 -0.21027
 C543 C -0.09166 1.10368 -0.22206
 C544 C -0.10051 1.11440 -0.24202
 C545 C -0.12280 1.10850 -0.25051
 C546 C -0.13591 1.09145 -0.23859
 C547 C -0.09579 1.07634 -0.18943
 C548 C -0.08783 1.06798 -0.17191
 C549 C -0.07809 1.05880 -0.15131
 C550 C -0.06942 1.05153 -0.13364
 C551 C -0.05864 1.04358 -0.11246
 C552 C -0.04501 1.05906 -0.09945
 C553 C -0.03430 1.05156 -0.07896
 C554 C -0.03707 1.02840 -0.07115
 C555 C -0.05085 1.01294 -0.08433
 C556 C -0.06157 1.02050 -0.10487
 H557 H -0.13743 1.06782 -0.20956
 H558 H -0.07450 1.10855 -0.21578
 H559 H -0.08977 1.12722 -0.25077
 H560 H -0.15317 1.08654 -0.24446
 H561 H -0.04262 1.07695 -0.10517
 H562 H -0.02383 1.06393 -0.06926
 H563 H -0.05333 0.99501 -0.07881
 H564 H -0.07208 1.00837 -0.11483
 C565 C 1.09422 0.61382 0.71594
 C566 C 1.10342 0.59227 0.70902
 C567 C 1.12137 0.58196 0.72193
 C568 C 1.13010 0.59315 0.74169
 C569 C 1.12100 0.61487 0.74884
 C570 C 1.10292 0.62506 0.73568
 C571 C 1.09444 0.58077 0.68866
 C572 C 1.08681 0.57128 0.67158
 C573 C 1.07773 0.56037 0.65154
 C574 C 1.06979 0.55129 0.63439
 C575 C 1.06005 0.54079 0.61384
 C576 C 1.03816 0.52996 0.61479
 C577 C 1.02817 0.52069 0.59464
 C578 C 1.03997 0.52218 0.57322
 C579 C 1.06215 0.53277 0.57252
 C580 C 1.07209 0.54203 0.59271
 H581 H 1.08033 0.62198 0.70604
 H582 H 1.12860 0.56525 0.71674
 H583 H 1.14388 0.58462 0.75135
 H584 H 1.09552 0.64178 0.74045
 H585 H 1.02867 0.52894 0.63106
 H586 H 1.01108 0.51267 0.59580
 H587 H 1.07169 0.53421 0.55633
 H588 H 1.08904 0.55041 0.59177
 C589 C 0.77837 0.61904 0.57958
 C590 C 0.79133 0.60105 0.58984
 C591 C 0.78435 0.59188 0.61127
 C592 C 0.76452 0.60064 0.62245
 C593 C 0.75133 0.61876 0.61234
 C594 C 0.75851 0.62784 0.59073
 C595 C 0.81188 0.59201 0.57856
 C596 C 0.82922 0.58415 0.56959
 C597 C 0.84967 0.57458 0.55973
 C598 C 0.86727 0.56605 0.55194
 C599 C 0.88843 0.55541 0.54351
 C600 C 0.90174 0.54152 0.55849
 C601 C 0.92225 0.53097 0.55059
 C602 C 0.92979 0.53414 0.52751
 C603 C 0.91631 0.54819 0.51255
 C604 C 0.89574 0.55876 0.52052
 H605 H 0.78362 0.62626 0.56297
 H606 H 0.79429 0.57798 0.61941
 H607 H 0.75974 0.59327 0.63909
 H608 H 0.74880 0.64166 0.58229
 H609 H 0.89625 0.53882 0.57631
 H610 H 0.93218 0.52029 0.56258
 H611 H 0.92162 0.55099 0.49470
 H612 H 0.88555 0.56949 0.50877
 C613 C 0.72085 0.41305 1.10615
 C614 C 0.70969 0.39985 1.08899
 C615 C 0.71861 0.37794 1.08282
 C616 C 0.73859 0.36923 1.09382
 C617 C 0.74992 0.38233 1.11120
 C618 C 0.74081 0.40438 1.11718
 C619 C 0.68890 0.40872 1.07803
 C620 C 0.67139 0.41643 1.06928
 C621 C 0.65076 0.42582 1.05960
 C622 C 0.63305 0.43420 1.05193
 C623 C 0.61178 0.44466 1.04358
 C624 C 0.60448 0.44135 1.02059
 C625 C 0.58383 0.45179 1.01267
 C626 C 0.57026 0.46569 1.02769
 C627 C 0.57777 0.46883 1.05077
 C628 C 0.59836 0.45839 1.05861
 H629 H 0.71410 0.43004 1.11107
 H630 H 0.71006 0.36754 1.06959
 H631 H 0.74492 0.35214 1.08882
 H632 H 0.74908 0.41509 1.13029
 H633 H 0.61476 0.43075 1.00880
 H634 H 0.57854 0.44903 0.99482
 H635 H 0.56777 0.47940 1.06280
 H636 H 0.60384 0.46108 1.07643
 C637 C 0.22177 1.09512 -0.10848
 C638 C 0.21088 1.10809 -0.09096
 C639 C 0.22009 1.12975 -0.08441
 C640 C 0.24011 1.13844 -0.09536
 C641 C 0.25120 1.12555 -0.11306
 C642 C 0.24177 1.10376 -0.11945
 C643 C 0.19022 1.09910 -0.07984
 C644 C 0.17291 1.09127 -0.07081
 C645 C 0.15261 1.08176 -0.06057
 C646 C 0.13525 1.07338 -0.05213
 C647 C 0.11449 1.06306 -0.04244
 C648 C 0.11555 1.04096 -0.03204
 C649 C 0.09525 1.03048 -0.02346
 C650 C 0.07356 1.04197 -0.02520
 C651 C 0.07274 1.06431 -0.03544
 C652 C 0.09308 1.07476 -0.04401
 H653 H 0.21481 1.07831 -0.11367
 H654 H 0.21176 1.13997 -0.07088
 H655 H 0.24670 1.15532 -0.09004
 H656 H 0.24984 1.09320 -0.13281
 H657 H 0.13203 1.03173 -0.03078
 H658 H 0.09650 1.01327 -0.01569
 H659 H 0.05635 1.07363 -0.03706
 H660 H 0.09206 1.09185 -0.05207
 C661 C 0.28049 -0.13029 0.41477
 C662 C 0.28917 -0.10824 0.40877
 C663 C 0.27790 -0.09502 0.39168
 C664 C 0.25805 -0.10379 0.38057
 C665 C 0.24916 -0.12598 0.38640
 C666 C 0.26062 -0.13912 0.40368
 C667 C 0.30973 -0.09916 0.41997
 C668 C 0.32697 -0.09128 0.42907
 C669 C 0.34720 -0.08176 0.43938
 C670 C 0.36452 -0.07338 0.44788
 C671 C 0.38525 -0.06309 0.45763
 C672 C 0.38417 -0.04101 0.46804
 C673 C 0.40446 -0.03055 0.47666
 C674 C 0.42614 -0.04205 0.47495
 C675 C 0.42698 -0.06438 0.46473
 C676 C 0.40666 -0.07480 0.45612
 H677 H 0.28912 -0.14070 0.42795
 H678 H 0.28445 -0.07791 0.38692
 H679 H 0.24969 -0.09304 0.36755
 H680 H 0.25445 -0.15630 0.40856
 H681 H 0.36769 -0.03177 0.46927
 H682 H 0.40320 -0.01335 0.48443
 H683 H 0.44337 -0.07371 0.46313
 H684 H 0.40770 -0.09189 0.44805
 C685 C 0.60987 -0.22383 0.59157
 C686 C 0.59226 -0.21257 0.60417
 C687 C 0.58560 -0.22126 0.62591
 C688 C 0.59650 -0.24113 0.63503
 C689 C 0.61427 -0.25260 0.62251
 C690 C 0.62081 -0.24369 0.60064
 C691 C 0.58113 -0.19207 0.59480
 C692 C 0.57198 -0.17486 0.58684
 C693 C 0.56150 -0.15466 0.57735
 C694 C 0.55279 -0.13736 0.56911
 C695 C 0.54273 -0.11662 0.55907
 C696 C 0.54378 -0.09536 0.57104
 C697 C 0.53483 -0.07502 0.56092
 C698 C 0.52471 -0.07568 0.53864
 C699 C 0.52346 -0.09722 0.52688
 C700 C 0.53243 -0.11753 0.53704
 H701 H 0.61515 -0.21726 0.57470
 H702 H 0.57201 -0.21265 0.63584
 H703 H 0.59108 -0.24730 0.65195
 H704 H 0.63424 -0.25206 0.59038
 H705 H 0.55175 -0.09446 0.58809
 H706 H 0.53608 -0.05875 0.57044
 H707 H 0.51581 -0.09834 0.50972
 H708 H 0.53156 -0.13390 0.52761
 C709 C 1.10585 0.71865 0.40852
 C710 C 1.08848 0.70717 0.39582
 C711 C 1.08194 0.71570 0.37398
 C712 C 1.09280 0.73559 0.36484
 C713 C 1.11041 0.74721 0.37742
 C714 C 1.11673 0.73851 0.39942
 C715 C 1.07770 0.68644 0.40512
 C716 C 1.06910 0.66898 0.41316
 C717 C 1.05959 0.64843 0.42289
 C718 C 1.05201 0.63077 0.43150
 C719 C 1.04370 0.60958 0.44217
 C720 C 1.02052 0.60235 0.43924
 C721 C 1.01264 0.58175 0.44980
 C722 C 1.02789 0.56815 0.46344
 C723 C 1.05115 0.57561 0.46622
 C724 C 1.05896 0.59615 0.45566
 H725 H 1.11104 0.71220 0.42546
 H726 H 1.06856 0.70690 0.36396
 H727 H 1.08754 0.74161 0.34781
 H728 H 1.13001 0.74703 0.40974
 H729 H 1.00856 0.61262 0.42882
 H730 H 0.99464 0.57650 0.44731
 H731 H 1.06336 0.56559 0.47659
 H732 H 1.07693 0.60159 0.45806
 C733 C -0.08128 1.22547 0.12157
 C734 C -0.09219 1.21261 0.10399
 C735 C -0.11390 1.21981 0.09544
 C736 C -0.12467 1.23981 0.10438
 C737 C -0.11386 1.25294 0.12205
 C738 C -0.09202 1.24548 0.13055
 C739 C -0.08114 1.19204 0.09468
 C740 C -0.07204 1.17480 0.08674
 C741 C -0.06162 1.15457 0.07727
 C742 C -0.05296 1.13725 0.06903
 C743 C -0.04294 1.11651 0.05898
 C744 C -0.03267 1.11742 0.03693
 C745 C -0.02373 1.09710 0.02676
 C746 C -0.02499 1.07556 0.03853
 C747 C -0.03508 1.07490 0.06084
 C748 C -0.04401 1.09524 0.07096
 H749 H -0.06445 1.22006 0.12830
 H750 H -0.12252 1.20995 0.08186
 H751 H -0.14152 1.24481 0.09750
 H752 H -0.08305 1.25515 0.14400
 H753 H -0.03179 1.13379 0.02749
 H754 H -0.01609 1.09823 0.00958
 H755 H -0.03634 1.05862 0.07037
 H756 H -0.05195 1.09434 0.08803
 C757 C 0.41794 0.28426 0.87420
 C758 C 0.41180 0.29249 0.89625
 C759 C 0.39493 0.28062 0.90928
 C760 C 0.38416 0.26065 0.90030
 C761 C 0.39011 0.25223 0.87809
 C762 C 0.40720 0.26427 0.86516
 C763 C 0.42250 0.31327 0.90548
 C764 C 0.43105 0.33076 0.91348
 C765 C 0.44053 0.35133 0.92318
 C766 C 0.44808 0.36899 0.93178
 C767 C 0.45637 0.39018 0.94244
 C768 C 0.44108 0.40361 0.95591
 C769 C 0.44888 0.42415 0.96646
 C770 C 0.47215 0.43160 0.96370
 C771 C 0.48742 0.41800 0.95008
 C772 C 0.47955 0.39741 0.93952
 H773 H 0.43095 0.29336 0.86392
 H774 H 0.39004 0.28683 0.92639
 H775 H 0.37128 0.25183 0.91089
 H776 H 0.41217 0.25848 0.84797
 H777 H 0.42311 0.39818 0.95829
 H778 H 0.43665 0.43417 0.97681
 H779 H 0.50542 0.42325 0.94761
 H780 H 0.49154 0.38714 0.92913
 C781 C 0.62674 0.58096 0.78207
 C782 C 0.60463 0.58718 0.79040
 C783 C 0.59146 0.60401 0.77860
 C784 C 0.60036 0.61469 0.75863
 C785 C 0.62264 0.60870 0.75014
 C786 C 0.63570 0.59161 0.76207
 C787 C 0.59550 0.57668 0.81124
 C788 C 0.58751 0.56836 0.82878
 C789 C 0.57776 0.55922 0.84940
 C790 C 0.56908 0.55198 0.86708
 C791 C 0.55829 0.54405 0.88827
 C792 C 0.54464 0.55955 0.90127
 C793 C 0.53393 0.55209 0.92177
 C794 C 0.53671 0.52893 0.92961
 C795 C 0.55052 0.51345 0.91644
 C796 C 0.56124 0.52099 0.89589
 H797 H 0.63712 0.56799 0.79111
 H798 H 0.57431 0.60895 0.78488
 H799 H 0.58966 0.62754 0.74987
 H800 H 0.65294 0.58663 0.75620
 H801 H 0.54224 0.57744 0.89553
 H802 H 0.52344 0.56447 0.93146
 H803 H 0.55301 0.49553 0.92199
 H804 H 0.57177 0.50884 0.88594
 C805 C 0.40469 0.11494 0.71498
 C806 C 0.39626 0.09293 0.70856
 C807 C 0.37910 0.08204 0.72206
 C808 C 0.37038 0.09310 0.74191
 C809 C 0.37875 0.11526 0.74857
 C810 C 0.39602 0.12605 0.73483
 C811 C 0.40528 0.08152 0.68816
 C812 C 0.41293 0.07208 0.67105
 C813 C 0.42207 0.06121 0.65100
 C814 C 0.43005 0.05216 0.63384
 C815 C 0.43985 0.04169 0.61329
 C816 C 0.46178 0.03091 0.61425
 C817 C 0.47181 0.02164 0.59411
 C818 C 0.46002 0.02307 0.57269
 C819 C 0.43781 0.03361 0.57199
 C820 C 0.42782 0.04287 0.59217
 H821 H 0.41795 0.12356 0.70462
 H822 H 0.37248 0.06497 0.71726
 H823 H 0.35727 0.08413 0.75207
 H824 H 0.40277 0.14313 0.73922
 H825 H 0.47125 0.02992 0.63051
 H826 H 0.48892 0.01365 0.59526
 H827 H 0.42827 0.03502 0.55580
 H828 H 0.41085 0.05121 0.59123
 C829 C 0.12111 0.91793 0.22176
 C830 C 0.10384 0.90713 0.20836
 C831 C 0.09535 0.88514 0.21483
 C832 C 0.10406 0.87399 0.23464
 C833 C 0.12144 0.88469 0.24828
 C834 C 0.12986 0.90682 0.24157
 C835 C 0.09480 0.91857 0.18798
 C836 C 0.08710 0.92802 0.17089
 C837 C 0.07791 0.93886 0.15085
 C838 C 0.06987 0.94789 0.13370
 C839 C 0.06001 0.95832 0.11315
 C840 C 0.03807 0.96906 0.11414
 C841 C 0.02799 0.97829 0.09401
 C842 C 0.03974 0.97684 0.07256
 C843 C 0.06197 0.96632 0.07182
 C844 C 0.07201 0.95711 0.09199
 H845 H 0.12779 0.93498 0.21692
 H846 H 0.08200 0.87660 0.20456
 H847 H 0.09725 0.85693 0.23907
 H848 H 0.14307 0.91573 0.25165
 H849 H 0.02862 0.97006 0.13043
 H850 H 0.01087 0.98626 0.09519
 H851 H 0.07148 0.96491 0.05561
 H852 H 0.08899 0.94880 0.09103
 C853 C 0.90795 0.39507 0.27923
 C854 C 0.89498 0.41228 0.29070
 C855 C 0.87313 0.41890 0.28204
 C856 C 0.86425 0.40829 0.26200
 C857 C 0.87712 0.39087 0.25036
 C858 C 0.89913 0.38445 0.25922
 C859 C 0.90410 0.42282 0.31152
 C860 C 0.91210 0.43117 0.32901
 C861 C 0.92191 0.44036 0.34956
 C862 C 0.93065 0.44764 0.36718
 C863 C 0.94152 0.45561 0.38829
 C864 C 0.93859 0.47868 0.39588
 C865 C 0.94938 0.48625 0.41636
 C866 C 0.96326 0.47079 0.42949
 C867 C 0.96604 0.44764 0.42168
 C868 C 0.95525 0.44014 0.40125
 H869 H 0.92491 0.38982 0.28578
 H870 H 0.86290 0.43217 0.29082
 H871 H 0.84721 0.41362 0.25585
 H872 H 0.90969 0.37131 0.25072
 H873 H 0.92800 0.49080 0.38596
 H874 H 0.94689 0.50417 0.42188
 H875 H 0.97659 0.43528 0.43134
 H876 H 0.95765 0.42225 0.39553
   
