data_POSCAR
  _audit_creation_date              2014-09-24
  _audit_creation_method            'ToBaCCo'
  _symmetry_space_group_name_H-M    'P1'
  _symmetry_Int_Tables_number       1
  _symmetry_cell_setting            triclinic
  loop_
  _symmetry_equiv_pos_as_xyz
 x,y,z
_cell_length_a 15.5569
_cell_length_b 15.5307
_cell_length_c 15.5378
_cell_angle_alpha 89.836900
_cell_angle_beta 89.932100
_cell_angle_gamma 89.900100
loop_
  _atom_site_label
  _atom_site_type_symbol
  _atom_site_fract_x
  _atom_site_fract_y
  _atom_site_fract_z
O1 O 0.31626 1.09453 0.42824
 O2 O 0.30823 0.89120 0.56063
 O3 O 0.29927 0.94245 0.39178
 O4 O 0.32456 1.07986 0.58368
 O5 O 0.19123 1.10137 0.56852
 O6 O 0.17817 0.89950 0.43758
 O7 O 0.19542 0.94192 0.61621
 O8 O 0.17943 1.07015 0.40797
 Cu9 Cu 0.32034 0.99323 0.49656
 Cu10 Cu 0.17504 0.99921 0.51186
 C11 C 0.24751 1.11307 0.38686
 C12 C 0.25279 0.88606 0.61841
 C13 C 0.23998 0.88900 0.38426
 C14 C 0.25784 1.12046 0.60879
 O15 O 0.82516 -0.06624 0.39491
 O16 O 0.80708 0.07449 0.58991
 O17 O 0.79843 -0.11619 0.55263
 O18 O 0.81692 0.07912 0.41394
 O19 O 0.67793 0.08676 0.42225
 O20 O 0.70004 -0.05311 0.61701
 O21 O 0.67296 0.10283 0.57085
 O22 O 0.69224 -0.09117 0.42641
 Cu23 Cu 0.81928 -0.00746 0.50087
 Cu24 Cu 0.67646 -0.00129 0.50887
 C25 C 0.75681 -0.10851 0.37944
 C26 C 0.74270 0.11994 0.60986
 C27 C 0.74960 -0.11676 0.61660
 C28 C 0.74738 0.11387 0.38722
 O29 O 0.19478 0.40720 0.92428
 O30 O 0.17201 0.60435 1.06483
 O31 O 0.18048 0.58429 0.91920
 O32 O 0.20045 0.44784 1.11474
 O33 O 0.29859 0.38388 1.05123
 O34 O 0.31960 0.57866 0.91336
 O35 O 0.30563 0.57585 1.08833
 O36 O 0.32656 0.43466 0.89260
 Cu37 Cu 0.17864 0.49756 1.00570
 Cu38 Cu 0.32081 0.49244 0.99986
 C39 C 0.25922 0.39070 0.87723
 C40 C 0.24060 0.62162 1.10638
 C41 C 0.25003 0.61227 0.88560
 C42 C 0.24963 0.38425 1.11520
 O43 O 0.43185 0.31904 1.09091
 O44 O 0.56277 0.30431 0.88573
 O45 O 0.40621 0.31093 0.92768
 O46 O 0.60418 0.32063 1.06377
 O47 O 0.55813 0.20161 1.11166
 O48 O 0.42023 0.17505 0.92035
 O49 O 0.60761 0.18727 0.93792
 O50 O 0.40444 0.18274 1.06917
 Cu51 Cu 0.50544 0.32418 0.98876
 Cu52 Cu 0.50838 0.17895 1.00634
 C53 C 0.38716 0.25155 1.11083
 C54 C 0.61596 0.24490 0.88246
 C55 C 0.38332 0.24284 0.89199
 C56 C 0.61316 0.25953 1.11837
 O57 O 0.39687 0.82781 -0.07036
 O58 O 0.59132 0.80755 0.07303
 O59 O 0.55243 0.79891 -0.11768
 O60 O 0.41335 0.82021 0.07788
 O61 O 0.42107 0.68104 0.08624
 O62 O 0.61548 0.70030 -0.05330
 O63 O 0.56716 0.67428 0.10461
 O64 O 0.42463 0.69341 -0.08948
 Cu65 Cu 0.50123 0.82264 -0.00919
 Cu66 Cu 0.50710 0.67979 -0.00104
 C67 C 0.37941 0.75807 -0.10934
 C68 C 0.60912 0.74295 0.12004
 C69 C 0.61601 0.74927 -0.11734
 C70 C 0.38621 0.75055 0.11293
 O71 O 1.09260 0.43239 0.31861
 O72 O 0.88550 0.55989 0.30435
 O73 O 0.93560 0.39923 0.30545
 O74 O 1.06520 0.60166 0.32003
 O75 O 1.10647 0.56200 0.19625
 O76 O 0.90387 0.43390 0.17680
 O77 O 0.94218 0.61668 0.19448
 O78 O 1.06833 0.40869 0.18200
 Cu79 Cu 0.98972 0.50279 0.32340
 Cu80 Cu 1.00034 0.51229 0.17731
 C81 C 1.11146 0.38951 0.25010
 C82 C 0.88385 0.61833 0.24943
 C83 C 0.88870 0.38533 0.24186
 C84 C 1.11723 0.61326 0.25711
 O85 O -0.06583 0.39444 0.82992
 O86 O 0.07590 0.58974 0.80466
 O87 O -0.11494 0.55214 0.80001
 O88 O 0.08012 0.41270 0.81926
 O89 O 0.08698 0.41981 0.68026
 O90 O -0.05292 0.61445 0.69972
 O91 O 0.10481 0.56668 0.67114
 O92 O -0.08913 0.42315 0.69631
 Cu93 Cu -0.00605 0.50053 0.82130
 Cu94 Cu -0.00077 0.50576 0.67879
 C95 C -0.10724 0.37734 0.76127
 C96 C 0.12170 0.60810 0.73983
 C97 C -0.11600 0.61530 0.74980
 C98 C 0.11434 0.38513 0.74972
 O99 O 0.40931 0.92304 0.19569
 O100 O 0.60299 1.06673 0.17140
 O101 O 0.58456 0.92035 0.18004
 O102 O 0.44491 1.11410 0.19771
 O103 O 0.38417 1.05379 0.29967
 O104 O 0.57865 0.91465 0.31951
 O105 O 0.57449 1.09030 0.30498
 O106 O 0.43177 0.89553 0.32978
 Cu107 Cu 0.49676 1.00553 0.17697
 Cu108 Cu 0.49246 1.00194 0.32236
 C109 C 0.39110 0.87766 0.26070
 C110 C 0.62027 1.10808 0.24017
 C111 C 0.61249 0.88692 0.24985
 C112 C 0.38261 1.11617 0.24860
 O113 O 1.09000 0.30488 0.57579
 O114 O 0.89338 0.32845 0.43426
 O115 O 0.91371 0.32000 0.58014
 O116 O 1.04885 0.29913 0.38423
 O117 O 1.11427 0.20274 0.44956
 O118 O 0.92074 0.18069 0.58687
 O119 O 0.92200 0.19457 0.41162
 O120 O 1.06354 0.17239 0.60710
 Cu121 Cu 0.99998 0.32165 0.49353
 Cu122 Cu 1.00574 0.17945 0.49984
 C123 C 1.10713 0.24008 0.62263
 C124 C 0.87626 0.25957 0.39306
 C125 C 0.88695 0.25020 0.61447
 C126 C 1.11310 0.25090 0.38504
 O127 O -0.06835 0.81837 0.59229
 O128 O 0.05881 0.80421 0.38514
 O129 O -0.10317 0.80516 0.43748
 O130 O 0.09927 0.82395 0.56504
 O131 O 0.06191 0.69849 0.60463
 O132 O -0.06550 0.67827 0.40243
 O133 O 0.11489 0.69391 0.44224
 O134 O -0.09261 0.68168 0.56813
 Cu135 Cu 0.00129 0.82411 0.48887
 Cu136 Cu 0.01094 0.67722 0.50026
 C137 C -0.11145 0.74989 0.61126
 C138 C 0.11681 0.74893 0.38386
 C139 C -0.11565 0.74236 0.38913
 C140 C 0.11185 0.76023 0.61567
 O141 O 0.69537 0.44297 1.11604
 O142 O 0.68139 0.56756 0.90722
 O143 O 0.67842 0.39995 0.93681
 O144 O 0.69701 0.60455 1.06178
 O145 O 0.82325 0.56646 1.09782
 O146 O 0.80343 0.43729 0.89680
 O147 O 0.81778 0.59243 0.93154
 O148 O 0.80511 0.38594 1.05930
 Cu149 Cu 0.67637 0.49970 1.01163
 Cu150 Cu 0.82304 0.48958 1.00092
 C151 C 0.75033 0.38467 1.11769
 C152 C 0.74965 0.61071 0.88808
 C153 C 0.74186 0.38702 0.88606
 C154 C 0.75944 0.61687 1.11046
 O155 O 0.38019 1.04442 0.71446
 O156 O 0.56747 0.90389 0.68270
 O157 O 0.42554 0.89940 0.66823
 O158 O 0.58145 1.08113 0.69412
 O159 O 0.60277 1.07164 0.83135
 O160 O 0.41969 0.91846 0.80605
 O161 O 0.59593 0.93181 0.81667
 O162 O 0.45643 1.12162 0.78692
 Cu163 Cu 0.48929 0.99953 0.67906
 Cu164 Cu 0.50119 1.01093 0.82045
 C165 C 0.38618 1.11543 0.74986
 C166 C 0.61238 0.88696 0.74964
 C167 C 0.39344 0.87712 0.74029
 C168 C 0.62404 1.10538 0.75979
 C169 C 0.24829 0.18312 0.31476
 C170 C 0.18280 0.25089 0.31485
 C171 C 0.18292 0.31861 0.24914
 C172 C 0.24973 0.31838 0.18212
 C173 C 0.31667 0.25153 0.18216
 C174 C 0.31608 0.18335 0.24848
 C175 C 0.75257 0.81825 0.31378
 C176 C 0.68354 0.81653 0.24988
 C177 C 0.68245 0.74770 0.18578
 C178 C 0.75327 0.68578 0.18201
 C179 C 0.81606 0.68580 0.24948
 C180 C 0.81543 0.74822 0.31730
 C181 C 0.74901 0.18508 0.68289
 C182 C 0.68934 0.17862 0.75368
 C183 C 0.68696 0.24524 0.81747
 C184 C 0.74869 0.31425 0.81804
 C185 C 0.81946 0.31150 0.75605
 C186 C 0.81735 0.24927 0.68539
 C187 C 0.25260 0.81522 0.68410
 C188 C 0.18414 0.75314 0.68372
 C189 C 0.18743 0.68162 0.74517
 C190 C 0.25028 0.68303 0.81530
 C191 C 0.31405 0.75190 0.81785
 C192 C 0.31987 0.81221 0.74720
 C193 C 0.18227 0.24347 0.68717
 C194 C 0.25424 0.18180 0.68081
 C195 C 0.32015 0.18137 0.74840
 C196 C 0.31816 0.24628 0.81628
 C197 C 0.25546 0.31667 0.81176
 C198 C 0.18517 0.31378 0.74959
 C199 C 0.81740 0.74937 0.68258
 C200 C 0.75019 0.81626 0.68280
 C201 C 0.68319 0.81588 0.74956
 C202 C 0.68288 0.74878 0.81637
 C203 C 0.74987 0.68168 0.81660
 C204 C 0.81724 0.68194 0.74965
 C205 C 0.18395 0.74827 0.31604
 C206 C 0.18256 0.68148 0.25184
 C207 C 0.24484 0.68662 0.18080
 C208 C 0.31505 0.74990 0.18386
 C209 C 0.31761 0.81206 0.25485
 C210 C 0.24682 0.81585 0.31648
 C211 C 0.81123 0.25468 0.31885
 C212 C 0.74780 0.18480 0.31613
 C213 C 0.68550 0.18218 0.24524
 C214 C 0.68167 0.25324 0.18303
 C215 C 0.74934 0.31641 0.18439
 C216 C 0.81630 0.31646 0.24782
   
