data_POSCAR
  _audit_creation_date              2014-09-24
  _audit_creation_method            'ToBaCCo'
  _symmetry_space_group_name_H-M    'P1'
  _symmetry_Int_Tables_number       1
  _symmetry_cell_setting            triclinic
  loop_
  _symmetry_equiv_pos_as_xyz
 x,y,z
_cell_length_a 29.4636
_cell_length_b 29.2708
_cell_length_c 58.6651
_cell_angle_alpha 87.491200
_cell_angle_beta 91.449200
_cell_angle_gamma 120.389600
loop_
  _atom_site_label
  _atom_site_type_symbol
  _atom_site_fract_x
  _atom_site_fract_y
  _atom_site_fract_z
C1 C 0.01930 0.08898 0.53109
 H2 H 0.05612 0.08923 0.53070
 C3 C 0.01473 0.12476 0.54438
 H4 H 0.04806 0.15260 0.55436
 C5 C -0.06863 0.05349 0.51796
 H6 H -0.10058 0.02635 0.50727
 C7 C -0.07486 0.08880 0.53104
 H8 H -0.11176 0.08854 0.53055
 N9 N -0.02204 0.05423 0.51828
 C10 C 0.01349 -0.07028 0.50650
 H11 H 0.01454 -0.06873 0.48805
 C12 C 0.01864 -0.10937 0.51880
 H13 H 0.02402 -0.13787 0.50983
 C14 C 0.00244 -0.03684 0.54075
 H15 H -0.00546 -0.00957 0.54921
 C16 C 0.00740 -0.07530 0.55369
 H17 H 0.00389 -0.07713 0.57209
 Zn18 Zn -0.00895 0.01128 0.49955
 N19 N 0.00539 -0.03515 0.51758
 C20 C 0.09500 0.05729 0.48153
 N21 N 0.04915 0.05802 0.48107
 C22 C 0.04407 0.09517 0.46834
 C23 C 0.08604 0.13348 0.45526
 C24 C 0.13808 0.09504 0.46868
 C25 C -0.11245 -0.06947 0.49212
 C26 C -0.15510 -0.10702 0.47962
 C27 C -0.10586 -0.06614 0.44496
 C28 C -0.06416 -0.02939 0.45812
 N29 N -0.06803 -0.03192 0.48127
 H30 H 0.09860 0.02820 0.49217
 H31 H 0.00744 0.09532 0.46860
 H32 H 0.08173 0.16316 0.44532
 H33 H 0.17468 0.09468 0.46927
 H34 H -0.11399 -0.07124 0.51056
 H35 H -0.18971 -0.13755 0.48853
 H36 H -0.10172 -0.06456 0.42658
 H37 H -0.02806 -0.00023 0.44986
 C38 C 0.01505 -0.11218 0.54259
 C39 C -0.03264 0.12487 0.54428
 C40 C -0.15152 -0.10577 0.45582
 C41 C 0.13352 0.13357 0.45551
 C42 C 1.10198 0.04223 0.13388
 H43 H 1.10072 0.07849 0.13424
 C44 C 1.13954 0.04022 0.12064
 H45 H 1.16721 0.07495 0.11067
 C46 C 1.06851 -0.04688 0.14703
 H47 H 1.04146 -0.08029 0.15771
 C48 C 1.10559 -0.05056 0.13401
 H49 H 1.10676 -0.08700 0.13452
 N50 N 1.06741 -0.00092 0.14668
 C51 C 0.93874 0.02778 0.15848
 H52 H 0.93921 0.02804 0.17692
 C53 C 0.89910 0.03089 0.14620
 H54 H 0.86916 0.03403 0.15517
 C55 C 0.97532 0.02020 0.12427
 H56 H 1.00398 0.01425 0.11583
 C57 C 0.93637 0.02319 0.11134
 H58 H 0.93560 0.02023 0.09298
 Zn59 Zn 1.02189 0.00864 0.16543
 N60 N 0.97560 0.02220 0.14742
 C61 C 1.06337 0.11146 0.18377
 N62 N 1.06551 0.06605 0.18401
 C63 C 1.10217 0.06094 0.19663
 C64 C 1.13855 0.10240 0.20979
 C65 C 1.09924 0.15409 0.19673
 C66 C 0.94357 -0.09717 0.17271
 C67 C 0.90601 -0.14164 0.18514
 C68 C 0.94251 -0.09450 0.21985
 C69 C 0.97939 -0.05089 0.20678
 N70 N 0.97900 -0.05286 0.18363
 H71 H 1.03467 0.11509 0.17323
 H72 H 1.10345 0.02469 0.19618
 H73 H 1.16789 0.09808 0.21961
 H74 H 1.09784 0.19039 0.19630
 H75 H 0.94340 -0.09722 0.15426
 H76 H 0.87701 -0.17622 0.17627
 H77 H 0.94208 -0.09211 0.23822
 H78 H 1.00681 -0.01488 0.21511
 C79 C 0.89757 0.02791 0.12244
 C80 C 1.14154 -0.00648 0.12079
 C81 C 0.90508 -0.13999 0.20890
 C82 C 1.13727 0.14947 0.20976
 C83 C 0.04045 0.94896 0.86669
 H84 H 0.00290 0.91248 0.86626
 C85 C 0.08160 0.95120 0.87982
 H86 H 0.07574 0.91643 0.88965
 C87 C 0.09454 1.03835 0.85374
 H88 H 0.09965 1.07176 0.84315
 C89 C 0.13687 1.04227 0.86666
 H90 H 0.17444 1.07888 0.86615
 N91 N 0.04752 0.99212 0.85402
 C92 C -0.11192 0.96110 0.84195
 H93 H -0.11336 0.96098 0.82351
 C94 C -0.15383 0.95739 0.85415
 H95 H -0.18787 0.95391 0.84506
 C96 C -0.06442 0.96904 0.87625
 H97 H -0.02883 0.97543 0.88474
 C98 C -0.10543 0.96547 0.88911
 H99 H -0.10143 0.96840 0.90749
 Zn100 Zn -0.00954 0.98208 0.83519
 N101 N -0.06822 0.96721 0.85309
 C102 C -0.07142 0.87945 0.81634
 N103 N -0.02417 0.92544 0.81637
 C104 C 0.01702 0.93179 0.80387
 C105 C 0.01166 0.89102 0.79057
 C106 C -0.07845 0.83747 0.80325
 C107 C 0.01644 1.08764 0.82830
 C108 C 0.02195 1.13212 0.81601
 C109 C 0.00864 1.08582 0.78113
 C110 C 0.00335 1.04219 0.79406
 N111 N 0.00695 1.04374 0.81723
 H112 H -0.10324 0.87486 0.82679
 H113 H 0.05435 0.96846 0.80453
 H114 H 0.04489 0.89632 0.78087
 H115 H -0.11585 0.80067 0.80348
 H116 H 0.01793 1.08734 0.84675
 H117 H 0.02807 1.16638 0.82499
 H118 H 0.00426 1.08376 0.76275
 H119 H -0.00570 1.00648 0.78561
 C120 C -0.15023 0.96032 0.87793
 C121 C 0.13031 0.99814 0.87970
 C122 C 0.01733 1.13090 0.79223
 C123 C -0.03635 0.84336 0.79034
 C124 C 0.50829 -0.00412 0.01116
 C125 C 0.50538 -0.00774 -0.01197
 C126 C 0.46110 -0.00933 -0.02527
 C127 C 0.54636 -0.01002 -0.02525
 C128 C 0.55273 -0.00201 0.02452
 C129 C 0.46704 -0.00217 0.02437
 C130 C 0.40878 -0.04888 -0.02093
 C131 C 0.36755 -0.04808 -0.03291
 C132 C 0.37799 -0.00807 -0.04965
 C133 C 0.43055 0.03060 -0.05435
 C134 C 0.47168 0.02983 -0.04232
 C135 C 0.53193 -0.05340 -0.03896
 C136 C 0.56997 -0.05720 -0.05109
 C137 C 0.62323 -0.01742 -0.04989
 C138 C 0.63745 0.02666 -0.03652
 C139 C 0.59931 0.03043 -0.02438
 C140 C 0.58329 0.04135 0.03823
 C141 C 0.62626 0.04503 0.05042
 C142 C 0.63929 0.00516 0.04926
 C143 C 0.60783 -0.03892 0.03590
 C144 C 0.56478 -0.04258 0.02371
 C145 C 0.45461 0.03780 0.02003
 C146 C 0.41396 0.03745 0.03197
 C147 C 0.38538 -0.00261 0.04862
 C148 C 0.39900 -0.04168 0.05332
 C149 C 0.43955 -0.04132 0.04137
 H150 H 0.39991 -0.08003 -0.00812
 H151 H 0.32752 -0.07893 -0.02920
 H152 H 0.43986 0.06220 -0.06696
 H153 H 0.51183 0.06060 -0.04594
 H154 H 0.49119 -0.08475 -0.04000
 H155 H 0.55765 -0.09111 -0.06157
 H156 H 0.61109 0.06464 -0.01417
 H157 H 0.57428 0.07279 0.03923
 H158 H 0.64911 0.07895 0.06089
 H159 H 0.61703 -0.07014 0.03457
 H160 H 0.54113 -0.07678 0.01349
 H161 H 0.47593 0.06881 0.00719
 H162 H 0.40424 0.06793 0.02788
 H163 H 0.37841 -0.07245 0.06634
 H164 H 0.44893 -0.07220 0.04509
 H165 H 0.67818 0.05781 -0.03516
 C166 C -0.01945 0.49047 0.67927
 C167 C -0.01902 0.49281 0.65601
 C168 C -0.02326 0.44870 0.64270
 C169 C -0.01317 0.54002 0.64281
 C170 C -0.02452 0.52979 0.69255
 C171 C -0.01378 0.44913 0.69251
 C172 C 0.01373 0.45915 0.62571
 C173 C 0.01057 0.41788 0.61338
 C174 C -0.02992 0.36533 0.61769
 C175 C -0.06761 0.35509 0.63439
 C176 C -0.06441 0.39642 0.64673
 C177 C 0.02854 0.59101 0.64739
 C178 C 0.03403 0.63519 0.63484
 C179 C -0.00173 0.62919 0.61728
 C180 C -0.04300 0.57799 0.61251
 C181 C -0.04854 0.53384 0.62512
 C182 C -0.06566 0.54005 0.68808
 C183 C -0.06953 0.57780 0.70035
 C184 C -0.03252 0.60575 0.71743
 C185 C 0.00790 0.59448 0.72221
 C186 C 0.01172 0.55674 0.70994
 C187 C -0.05001 0.41844 0.70968
 C188 C -0.04485 0.37958 0.72220
 C189 C -0.00305 0.37098 0.71791
 C190 C 0.03370 0.40241 0.70094
 C191 C 0.02851 0.44125 0.68843
 H192 H 0.04551 0.49925 0.62219
 H193 H 0.03966 0.42714 0.60035
 H194 H -0.09906 0.31502 0.63820
 H195 H -0.09392 0.38761 0.65950
 H196 H 0.05705 0.59654 0.66060
 H197 H 0.06675 0.67398 0.63864
 H198 H -0.08082 0.49482 0.62124
 H199 H -0.09461 0.51900 0.67499
 H200 H -0.10091 0.58581 0.69619
 H201 H 0.03645 0.61468 0.73553
 H202 H 0.04347 0.54908 0.71380
 H203 H -0.08257 0.42430 0.71325
 H204 H -0.07329 0.35660 0.73541
 H205 H 0.06610 0.39651 0.69712
 H206 H 0.05750 0.46522 0.67555
 H207 H -0.07149 0.57213 0.59925
 C208 C 0.50746 0.51353 0.34437
 C209 C 0.51007 0.51267 0.32123
 C210 C 0.55770 0.55194 0.30830
 C211 C 0.46553 0.47187 0.30782
 C212 C 0.46488 0.46840 0.35767
 C213 C 0.54704 0.55943 0.35742
 C214 C 0.55282 0.57943 0.28909
 C215 C 0.59727 0.61591 0.27667
 C216 C 0.64752 0.62536 0.28314
 C217 C 0.65225 0.59735 0.30225
 C218 C 0.60774 0.56077 0.31462
 C219 C 0.41448 0.46348 0.31006
 C220 C 0.37265 0.42441 0.29772
 C221 C 0.38114 0.39324 0.28277
 C222 C 0.43251 0.40257 0.28020
 C223 C 0.47431 0.44164 0.29254
 C224 C 0.45487 0.41655 0.35534
 C225 C 0.41437 0.37421 0.36766
 C226 C 0.38335 0.38295 0.38270
 C227 C 0.39417 0.43507 0.38533
 C228 C 0.43469 0.47739 0.37300
 C229 C 0.57209 0.55117 0.37647
 C230 C 0.60937 0.59405 0.38883
 C231 C 0.62204 0.64606 0.38248
 C232 C 0.59623 0.65415 0.36361
 C233 C 0.55894 0.61123 0.35126
 H234 H 0.51457 0.57305 0.28386
 H235 H 0.59242 0.63730 0.26219
 H236 H 0.69029 0.60312 0.30742
 H237 H 0.61227 0.53903 0.32906
 H238 H 0.40703 0.48704 0.32148
 H239 H 0.33351 0.41797 0.30018
 H240 H 0.51346 0.44783 0.29041
 H241 H 0.47834 0.40888 0.34390
 H242 H 0.40679 0.33452 0.36515
 H243 H 0.37154 0.44316 0.39707
 H244 H 0.44213 0.51716 0.37521
 H245 H 0.56312 0.51150 0.38165
 H246 H 0.62793 0.58645 0.40350
 H247 H 0.60537 0.69374 0.35820
 H248 H 0.53935 0.61841 0.33686
 H249 H 0.44044 0.37983 0.26852
 C250 C -0.03632 0.23873 0.58057
 C251 C 0.01195 0.27973 0.58832
 C252 C 0.01397 0.32076 0.60042
 C253 C -0.03659 0.16349 0.55712
 C254 C -0.08080 0.27984 0.59720
 C255 C -0.08272 0.23879 0.58506
 C256 C -0.03760 0.19717 0.56784
 C257 C -0.03236 0.32140 0.60495
 H258 H 0.04809 0.28000 0.58499
 H259 H 0.05174 0.35172 0.60645
 H260 H -0.11706 0.27953 0.60022
 H261 H -0.12028 0.20731 0.57908
 C262 C 0.78326 0.74081 0.24520
 C263 C 0.73704 0.70582 0.23374
 C264 C 0.69309 0.66788 0.24605
 C265 C 0.86334 0.81696 0.22182
 C266 C 0.74166 0.69938 0.28138
 C267 C 0.78557 0.73735 0.26903
 C268 C 0.82731 0.78180 0.23254
 C269 C 0.69476 0.66449 0.27002
 H270 H 0.73479 0.70822 0.21530
 H271 H 0.65782 0.64112 0.23681
 H272 H 0.74397 0.69815 0.29983
 H273 H 0.82103 0.76450 0.27808
 C274 C 0.25217 -0.00137 -0.08539
 C275 C 0.24784 -0.01442 -0.06200
 C276 C 0.28864 -0.01684 -0.05037
 C277 C 0.17376 -0.00013 -0.10780
 C278 C 0.33826 0.00685 -0.08554
 C279 C 0.29742 0.00921 -0.09713
 C280 C 0.20968 -0.00014 -0.09749
 C281 C 0.33433 -0.00622 -0.06202
 H282 H 0.21294 -0.02276 -0.05276
 H283 H 0.28476 -0.02630 -0.03221
 H284 H 0.37262 0.01457 -0.09504
 H285 H 0.30100 0.01898 -0.11527
 C286 C 0.01275 0.76447 0.57891
 C287 C 0.02178 0.76706 0.60248
 C288 C 0.01747 0.72323 0.61495
 C289 C 0.01589 0.84526 0.55547
 C290 C -0.00467 0.67409 0.58025
 C291 C -0.00029 0.71798 0.56782
 C292 C 0.01513 0.80880 0.56619
 C293 C 0.00393 0.67614 0.60399
 H294 H 0.03157 0.80275 0.61125
 H295 H 0.02369 0.72580 0.63323
 H296 H -0.01445 0.63868 0.57129
 H297 H -0.00739 0.71554 0.54958
 C298 C 0.25263 0.27004 0.24585
 C299 C 0.29170 0.26159 0.25563
 C300 C 0.33337 0.30160 0.26766
 C301 C 0.17638 0.19316 0.22249
 C302 C 0.29694 0.35882 0.26030
 C303 C 0.25525 0.31869 0.24823
 C304 C 0.21052 0.22876 0.23315
 C305 C 0.33658 0.35075 0.27008
 H306 H 0.29000 0.22404 0.25393
 H307 H 0.36280 0.29388 0.27528
 H308 H 0.29863 0.39642 0.26168
 H309 H 0.22531 0.32571 0.24066
 C310 C 0.73961 -0.03120 -0.08691
 C311 C 0.74247 0.01790 -0.08601
 C312 C 0.70479 0.02250 -0.07391
 C313 C 0.81157 -0.03830 -0.11003
 C314 C 0.66123 -0.07122 -0.06350
 C315 C 0.69899 -0.07572 -0.07560
 C316 C 0.77847 -0.03567 -0.09945
 C317 C 0.66365 -0.02205 -0.06255
 H318 H 0.77372 0.05260 -0.09474
 H319 H 0.70736 0.06072 -0.07373
 H320 H 0.63047 -0.10607 -0.05468
 H321 H 0.69653 -0.11386 -0.07612
 C322 C 0.25834 -0.00670 0.08491
 C323 C 0.25357 -0.05368 0.07744
 C324 C 0.29479 -0.05233 0.06556
 C325 C 0.18172 -0.00807 0.10801
 C326 C 0.34566 0.04314 0.06847
 C327 C 0.30440 0.04169 0.08037
 C328 C 0.21629 -0.00799 0.09742
 C329 C 0.34138 -0.00390 0.06100
 H330 H 0.21803 -0.09133 0.08081
 H331 H 0.29001 -0.08912 0.05974
 H332 H 0.38122 0.08093 0.06546
 H333 H 0.30854 0.07828 0.08613
 C334 C 0.73843 0.77752 0.42026
 C335 C 0.69250 0.77656 0.41276
 C336 C 0.65462 0.73391 0.40040
 C337 C 0.81112 0.85657 0.44398
 C338 C 0.70864 0.69312 0.40302
 C339 C 0.74642 0.73577 0.41533
 C340 C 0.77750 0.82099 0.43312
 C341 C 0.66224 0.69163 0.39544
 H342 H 0.68587 0.80862 0.41653
 H343 H 0.61905 0.73360 0.39502
 H344 H 0.71602 0.66160 0.39920
 H345 H 0.78192 0.73619 0.42100
 C346 C 0.01125 0.24979 0.75586
 C347 C -0.03818 0.24031 0.74842
 C348 C -0.04282 0.27969 0.73609
 C349 C 0.01735 0.17394 0.77941
 C350 C 0.05160 0.33834 0.73852
 C351 C 0.05614 0.29886 0.75089
 C352 C 0.01545 0.20901 0.76866
 C353 C 0.00201 0.32920 0.73102
 H354 H -0.07318 0.20241 0.75213
 H355 H -0.08142 0.27118 0.73028
 H356 H 0.08675 0.37625 0.73511
 H357 H 0.09458 0.30667 0.75662
 C358 C 0.77308 0.01884 0.08639
 C359 C 0.72646 -0.03023 0.08550
 C360 C 0.68299 -0.03482 0.07335
 C361 C 0.85445 0.02619 0.10965
 C362 C 0.73273 0.05886 0.06289
 C363 C 0.77616 0.06334 0.07503
 C364 C 0.81762 0.02336 0.09900
 C365 C 0.68559 0.00973 0.06195
 H366 H 0.72364 -0.06492 0.09428
 H367 H 0.64710 -0.07301 0.07318
 H368 H 0.73619 0.09371 0.05402
 H369 H 0.81211 0.10147 0.07554
 C370 C 0.25648 0.25262 0.41967
 C371 C 0.25014 0.29370 0.41011
 C372 C 0.29137 0.33604 0.39810
 C373 C 0.17767 0.17436 0.44284
 C374 C 0.34556 0.29628 0.40508
 C375 C 0.30424 0.25395 0.41713
 C376 C 0.21396 0.20957 0.43226
 C377 C 0.33960 0.33787 0.39547
 H378 H 0.21329 0.29300 0.41194
 H379 H 0.28530 0.36703 0.39062
 H380 H 0.38241 0.29688 0.40357
 H381 H 0.30962 0.22245 0.42453
 C382 C -0.04040 0.72537 0.75424
 C383 C 0.00813 0.73362 0.74697
 C384 C 0.01061 0.69479 0.73497
 C385 C -0.04094 0.80035 0.77757
 C386 C -0.08424 0.63914 0.73731
 C387 C -0.08662 0.67810 0.74936
 C388 C -0.04204 0.76552 0.76690
 C389 C -0.03552 0.64701 0.73006
 H390 H 0.04414 0.77013 0.75060
 H391 H 0.04859 0.70239 0.72931
 H392 H -0.12036 0.60256 0.73398
 H393 H -0.12439 0.67125 0.75497
   
