data_POSCAR
  _audit_creation_date              2014-09-24
  _audit_creation_method            'ToBaCCo'
  _symmetry_space_group_name_H-M    'P1'
  _symmetry_Int_Tables_number       1
  _symmetry_cell_setting            triclinic
  loop_
  _symmetry_equiv_pos_as_xyz
 x,y,z
_cell_length_a 31.8614
_cell_length_b 31.9213
_cell_length_c 30.9170
_cell_angle_alpha 89.924400
_cell_angle_beta 89.828600
_cell_angle_gamma 119.729800
loop_
  _atom_site_label
  _atom_site_type_symbol
  _atom_site_fract_x
  _atom_site_fract_y
  _atom_site_fract_z
O1 O 0.01020 0.53943 -0.05855
 O2 O 0.06146 0.48319 0.01145
 O3 O 0.00456 0.45656 -0.05635
 O4 O 0.06126 0.56409 0.01344
 O5 O -0.00468 0.53310 0.05387
 O6 O -0.06076 0.42605 -0.01515
 O7 O -0.00419 0.45229 0.05227
 O8 O -0.05551 0.50904 -0.01785
 Cu9 Cu 0.04104 0.51403 -0.02647
 Cu10 Cu -0.03772 0.47721 0.02245
 C11 C -0.03211 0.53219 -0.05130
 C12 C 0.03775 0.45867 0.04409
 C13 C -0.03848 0.42348 -0.04822
 C14 C 0.03825 0.56622 0.04629
 O15 O 0.50975 0.57514 0.01320
 O16 O 0.45688 0.46570 -0.05453
 O17 O 0.42850 0.49384 0.01365
 O18 O 0.53384 0.54831 -0.05904
 O19 O 0.57089 0.52011 -0.01804
 O20 O 0.46342 0.46172 0.05257
 O21 O 0.49497 0.43706 -0.01543
 O22 O 0.54390 0.54376 0.05411
 Cu23 Cu 0.47864 0.52394 -0.02547
 Cu24 Cu 0.52188 0.48789 0.02259
 C25 C 0.53495 0.57748 0.04592
 C26 C 0.46905 0.43385 -0.04768
 C27 C 0.42782 0.46830 0.04538
 C28 C 0.56951 0.54189 -0.05206
 O29 O 0.52971 0.99282 -0.05815
 O30 O 0.42477 0.94226 0.01531
 O31 O 0.45027 0.99514 -0.05530
 O32 O 0.50466 0.93968 0.01228
 O33 O 0.53964 1.00537 0.05246
 O34 O 0.48541 1.06066 -0.01504
 O35 O 0.46047 1.00759 0.05581
 O36 O 0.56541 1.05822 -0.01775
 Cu37 Cu 0.47373 0.96083 -0.02540
 Cu38 Cu 0.51623 1.03966 0.02274
 C39 C 0.56489 1.03483 -0.05118
 C40 C 0.42550 0.96541 0.04898
 C41 C 0.45972 1.03800 -0.04744
 C42 C 0.53046 0.96266 0.04450
 O43 O 1.05920 0.56828 0.48620
 O44 O 1.01009 0.45836 0.55393
 O45 O 1.06508 0.48954 0.48486
 O46 O 1.01003 0.53877 0.55895
 O47 O 0.94373 0.50655 0.51947
 O48 O 0.99818 0.45543 0.44631
 O49 O 0.94352 0.42566 0.51475
 O50 O 0.99296 0.53436 0.44668
 Cu51 Cu 1.04289 0.51722 0.52471
 Cu52 Cu 0.96310 0.47743 0.47776
 C53 C 1.03464 0.56967 0.45438
 C54 C 0.96788 0.42360 0.54624
 C55 C 1.04100 0.46370 0.45311
 C56 C 0.96707 0.52992 0.55266
 O57 O 0.54358 0.54416 0.44572
 O58 O 0.49419 0.43682 0.51497
 O59 O 0.46295 0.46221 0.44736
 O60 O 0.57003 0.51985 0.51773
 O61 O 0.53288 0.54798 0.55892
 O62 O 0.42782 0.49396 0.48662
 O63 O 0.45606 0.46524 0.55447
 O64 O 0.50917 0.57524 0.48680
 Cu65 Cu 0.52129 0.48803 0.47713
 Cu66 Cu 0.47783 0.52374 0.52552
 C67 C 0.53461 0.57782 0.45402
 C68 C 0.46822 0.43342 0.54741
 C69 C 0.42728 0.46869 0.45479
 C70 C 0.56851 0.54155 0.55167
 O71 O 0.45602 0.00038 0.44580
 O72 O 0.56579 0.06103 0.51222
 O73 O 0.53876 0.00428 0.44416
 O74 O 0.48318 0.05715 0.51347
 O75 O 0.45373 -0.00669 0.55627
 O76 O 0.50977 -0.05948 0.48700
 O77 O 0.53646 -0.00300 0.55480
 O78 O 0.42684 -0.06378 0.48820
 Cu79 Cu 0.51382 0.03706 0.47460
 Cu80 Cu 0.47877 -0.03961 0.52588
 C81 C 0.42337 -0.04241 0.45488
 C82 C 0.56921 0.03971 0.54560
 C83 C 0.53268 -0.03726 0.45307
 C84 C 0.46024 0.03500 0.54736
 C85 C 0.34483 0.43291 0.22816
 C86 C 0.34479 0.43309 0.27235
 C87 C 0.29728 0.41554 0.28547
 N88 N 0.26828 0.40409 0.25042
 C89 C 0.29734 0.41524 0.21524
 C90 C 0.28031 0.40788 0.32890
 C91 C 0.23095 0.39114 0.33667
 C92 C 0.20221 0.35802 0.36784
 C93 C 0.15867 0.35756 0.36774
 C94 C 0.16249 0.39040 0.33650
 N95 N 0.20575 0.40906 0.31642
 C96 C 0.12912 0.40625 0.32859
 C97 C 0.11942 0.41311 0.28511
 C98 C 0.08809 0.42898 0.27189
 C99 C 0.08779 0.42825 0.22769
 C100 C 0.11910 0.41214 0.21487
 N101 N 0.13787 0.40229 0.25013
 C102 C 0.12866 0.40438 0.17158
 C103 C 0.16234 0.38876 0.16410
 C104 C 0.15892 0.35566 0.13343
 C105 C 0.20263 0.35647 0.13352
 C106 C 0.23106 0.39002 0.16426
 N107 N 0.20555 0.40791 0.18407
 C108 C 0.28047 0.40719 0.17191
 H109 H 0.37665 0.44395 0.20842
 H110 H 0.37657 0.44429 0.29196
 H111 H 0.21914 0.43626 0.20627
 H112 H 0.21171 0.33667 0.38857
 H113 H 0.12791 0.33584 0.38842
 H114 H 0.06658 0.43930 0.29147
 H115 H 0.06595 0.43784 0.20787
 H116 H 0.21247 0.33512 0.11315
 H117 H 0.21956 0.43713 0.29376
 H118 H 0.12831 0.33355 0.11297
 C119 C 0.60328 0.67451 0.22777
 C120 C 0.60342 0.67473 0.27205
 C121 C 0.59880 0.71387 0.28479
 N122 N 0.59796 0.73870 0.24964
 C123 C 0.59859 0.71353 0.21472
 C124 C 0.59409 0.72559 0.32810
 C125 C 0.60465 0.77280 0.33864
 C126 C 0.62720 0.79682 0.37625
 C127 C 0.62649 0.83953 0.37601
 C128 C 0.60317 0.84007 0.33842
 N129 N 0.59131 0.79995 0.31507
 C130 C 0.59032 0.87530 0.32780
 C131 C 0.59281 0.89048 0.28422
 C132 C 0.59367 0.93242 0.27103
 C133 C 0.59322 0.93202 0.22679
 C134 C 0.59226 0.88993 0.21407
 N135 N 0.59396 0.86557 0.24927
 C136 C 0.58934 0.87421 0.17068
 C137 C 0.60239 0.83914 0.16024
 C138 C 0.62582 0.83861 0.12258
 C139 C 0.62677 0.79604 0.12263
 C140 C 0.60423 0.77209 0.16048
 N141 N 0.59070 0.79917 0.18391
 C142 C 0.59380 0.72497 0.17135
 H143 H 0.60680 0.64872 0.20767
 H144 H 0.60703 0.64909 0.29236
 H145 H 0.56857 0.78783 0.21127
 H146 H 0.64216 0.78454 0.40138
 H147 H 0.64087 0.86682 0.40095
 H148 H 0.59528 0.96099 0.29095
 H149 H 0.59438 0.96023 0.20656
 H150 H 0.64185 0.78377 0.09753
 H151 H 0.56919 0.78853 0.28789
 H152 H 0.64014 0.86584 0.09741
 C153 C 0.06195 0.66474 0.22753
 C154 C 0.05957 0.66592 0.27171
 C155 C 0.10231 0.70535 0.28506
 N156 N 0.13010 0.72904 0.25044
 C157 C 0.10651 0.70301 0.21525
 C158 C 0.11640 0.71823 0.32854
 C159 C 0.15399 0.76485 0.33786
 C160 C 0.15331 0.79405 0.37047
 C161 C 0.19849 0.83468 0.37059
 C162 C 0.22573 0.82778 0.33927
 N163 N 0.19752 0.78605 0.31817
 C164 C 0.27601 0.85587 0.33191
 C165 C 0.29311 0.85981 0.28868
 C166 C 0.34029 0.87497 0.27588
 C167 C 0.34061 0.87491 0.23168
 C168 C 0.29444 0.86267 0.21839
 N169 N 0.26518 0.85244 0.25333
 C170 C 0.27995 0.86302 0.17496
 C171 C 0.23243 0.82731 0.16175
 C172 C 0.21274 0.82183 0.12055
 C173 C 0.16895 0.78018 0.12070
 C174 C 0.16327 0.75955 0.16108
 N175 N 0.20135 0.78880 0.18623
 C176 C 0.12557 0.71287 0.17253
 H177 H 0.03362 0.63872 0.20699
 H178 H 0.02959 0.64072 0.29158
 H179 H 0.20864 0.77938 0.21636
 H180 H 0.12327 0.78684 0.39156
 H181 H 0.20940 0.86588 0.39096
 H182 H 0.37185 0.88500 0.29538
 H183 H 0.37166 0.88270 0.21183
 H184 H 0.14482 0.76581 0.09336
 H185 H 0.20912 0.77001 0.29518
 H186 H 0.22778 0.84274 0.09165
 C187 C 0.93116 0.63443 0.77221
 C188 C 0.93090 0.63373 0.72770
 C189 C 0.88450 0.59976 0.71561
 N190 N 0.85614 0.58044 0.75084
 C191 C 0.88493 0.60082 0.78541
 C192 C 0.86847 0.58398 0.67321
 C193 C 0.82291 0.57751 0.65992
 C194 C 0.80137 0.56060 0.61998
 C195 C 0.75908 0.56215 0.61995
 C196 C 0.75546 0.58002 0.65987
 N197 N 0.79507 0.59014 0.68354
 C198 C 0.71813 0.58950 0.67312
 C199 C 0.71832 0.60534 0.71568
 C200 C 0.70792 0.64085 0.72810
 C201 C 0.70809 0.64120 0.77263
 C202 C 0.71861 0.60590 0.78553
 N203 N 0.72594 0.58475 0.75075
 C204 C 0.71852 0.59058 0.82831
 C205 C 0.75610 0.58167 0.84174
 C206 C 0.75978 0.56423 0.88188
 C207 C 0.80229 0.56307 0.88191
 C208 C 0.82384 0.57973 0.84176
 N209 N 0.79583 0.59189 0.81796
 C210 C 0.86943 0.58618 0.82827
 H211 H 0.96170 0.65699 0.79257
 H212 H 0.96119 0.65564 0.70660
 H213 H 0.80486 0.60919 0.78803
 H214 H 0.81475 0.54946 0.59275
 H215 H 0.73490 0.55229 0.59270
 H216 H 0.70117 0.66411 0.70724
 H217 H 0.70141 0.66471 0.79320
 H218 H 0.81572 0.55218 0.90923
 H219 H 0.80421 0.60778 0.71320
 H220 H 0.73544 0.55431 0.90919
 C221 C 0.39108 0.06637 0.72885
 C222 C 0.39105 0.06659 0.77319
 C223 C 0.39652 0.11065 0.78589
 N224 N 0.39774 0.13636 0.75055
 C225 C 0.39659 0.11032 0.71556
 C226 C 0.40233 0.12752 0.82926
 C227 C 0.39545 0.16681 0.83989
 C228 C 0.37757 0.17292 0.87882
 C229 C 0.38515 0.21933 0.87902
 C230 C 0.40616 0.23989 0.83951
 N231 N 0.41144 0.20712 0.81576
 C232 C 0.42645 0.28908 0.82733
 C233 C 0.44324 0.30165 0.78461
 C234 C 0.48764 0.33950 0.77180
 C235 C 0.48765 0.33925 0.72741
 C236 C 0.44326 0.30124 0.71515
 N237 N 0.41668 0.27731 0.75005
 C238 C 0.42639 0.28843 0.67262
 C239 C 0.40640 0.23926 0.66075
 C240 C 0.38559 0.21858 0.62141
 C241 C 0.37811 0.17220 0.62194
 C242 C 0.39586 0.16621 0.66091
 N243 N 0.41171 0.20660 0.68472
 C244 C 0.40245 0.12678 0.67197
 H245 H 0.38728 0.03692 0.70887
 H246 H 0.38726 0.03734 0.79357
 H247 H 0.43184 0.21404 0.71298
 H248 H 0.36273 0.14732 0.90525
 H249 H 0.37801 0.23592 0.90631
 H250 H 0.51707 0.36407 0.79230
 H251 H 0.51703 0.36365 0.70653
 H252 H 0.36330 0.14650 0.59575
 H253 H 0.43174 0.21443 0.78747
 H254 H 0.37848 0.23506 0.59402
 C255 C 0.65362 0.12549 0.76810
 C256 C 0.65381 0.12567 0.72390
 C257 C 0.70049 0.13876 0.71097
 N258 N 0.72810 0.14460 0.74618
 C259 C 0.69917 0.13537 0.78118
 C260 C 0.71726 0.14171 0.66780
 C261 C 0.76766 0.16813 0.66054
 C262 C 0.79424 0.15917 0.63005
 C263 C 0.84042 0.19836 0.63054
 C264 C 0.84071 0.22902 0.66222
 N265 N 0.79695 0.20976 0.68132
 C266 C 0.87923 0.27530 0.67120
 C267 C 0.89245 0.28913 0.71473
 C268 C 0.93365 0.33038 0.72806
 C269 C 0.93127 0.33133 0.77216
 C270 C 0.88825 0.29107 0.78456
 N271 N 0.86553 0.26429 0.74941
 C272 C 0.87012 0.27973 0.82752
 C273 C 0.83230 0.23287 0.83800
 C274 C 0.82767 0.20975 0.87689
 C275 C 0.78300 0.16907 0.87703
 C276 C 0.76180 0.16672 0.83709
 N277 N 0.79288 0.20601 0.81342
 C278 C 0.71336 0.13326 0.82432
 H279 H 0.62301 0.11888 0.78808
 H280 H 0.62251 0.11710 0.70456
 H281 H 0.78507 0.21761 0.78460
 H282 H 0.78224 0.12751 0.61007
 H283 H 0.87037 0.20382 0.61010
 H284 H 0.96277 0.35711 0.70842
 H285 H 0.95879 0.35862 0.79245
 H286 H 0.76888 0.14645 0.90508
 H287 H 0.78617 0.22700 0.70382
 H288 H 0.85316 0.22185 0.90334
 C289 C 0.06174 0.44165 0.07590
 C290 C 0.02699 0.39954 0.10496
 C291 C 0.04956 0.38638 0.13481
 C292 C 0.10509 0.41686 0.13396
 C293 C 0.11896 0.41302 0.08655
 C294 C 0.09568 0.42534 0.05633
 C295 C 0.09398 0.48241 0.10681
 C296 C 0.11686 0.46979 0.13659
 H297 H -0.01203 0.38052 0.10147
 H298 H 0.02967 0.35622 0.15673
 H299 H 0.14792 0.40662 0.07680
 H300 H 0.10353 0.42678 0.02200
 H301 H 0.10121 0.51923 0.10349
 H302 H 0.14315 0.49596 0.15874
 C303 C 0.55145 0.61841 0.07756
 C304 C 0.60556 0.64384 0.08826
 C305 C 0.61931 0.67907 0.11870
 C306 C 0.57791 0.68619 0.13588
 C307 C 0.55488 0.69428 0.09494
 C308 C 0.54159 0.65921 0.06443
 C309 C 0.52567 0.60053 0.12122
 C310 C 0.53838 0.63576 0.15113
 H311 H 0.63097 0.63513 0.07295
 H312 H 0.65648 0.70041 0.12936
 H313 H 0.54640 0.72305 0.09122
 H314 H 0.52355 0.65947 0.03480
 H315 H 0.49893 0.56330 0.12792
 H316 H 0.52057 0.62841 0.18243
 C317 C 0.38639 0.94076 0.08262
 C318 C 0.33879 0.93992 0.07278
 C319 C 0.30409 0.91714 0.10390
 C320 C 0.31890 0.89457 0.14096
 C321 C 0.33767 0.86403 0.11879
 C322 C 0.37269 0.88787 0.08892
 C323 C 0.40004 0.96299 0.12805
 C324 C 0.36452 0.93974 0.15812
 H325 H 0.33476 0.96038 0.04665
 H326 H 0.27203 0.92085 0.10489
 H327 H 0.32475 0.82640 0.12663
 H328 H 0.38957 0.87050 0.07156
 H329 H 0.43271 0.99659 0.13523
 H330 H 0.36690 0.95538 0.18978
 C331 C 0.94258 0.54532 0.58563
 C332 C 0.93653 0.58792 0.57116
 C333 C 0.91369 0.60124 0.60076
 C334 C 0.89790 0.57040 0.64231
 C335 C 0.86848 0.51767 0.62686
 C336 C 0.89145 0.50484 0.59708
 C337 C 0.96830 0.56057 0.62958
 C338 C 0.94483 0.57305 0.65933
 H339 H 0.94989 0.60662 0.54053
 H340 H 0.90765 0.63144 0.59531
 H341 H 0.83302 0.49200 0.63951
 H342 H 0.87539 0.46850 0.58423
 H343 H 0.99974 0.55756 0.63803
 H344 H 0.95616 0.57812 0.69277
 C345 C 0.45549 0.39390 0.58008
 C346 C 0.48440 0.36733 0.57524
 C347 C 0.47422 0.33315 0.60591
 C348 C 0.43588 0.32781 0.63906
 C349 C 0.45440 0.37924 0.65710
 C350 C 0.46560 0.41355 0.62637
 C351 C 0.40222 0.35400 0.58083
 C352 C 0.39182 0.31971 0.61198
 H353 H 0.51104 0.37486 0.55004
 H354 H 0.49214 0.31177 0.60669
 H355 H 0.45348 0.38775 0.69089
 H356 H 0.47652 0.45063 0.63463
 H357 H 0.37473 0.35388 0.56009
 H358 H 0.35517 0.29102 0.61828
 C359 C 0.61050 0.06686 0.57633
 C360 C 0.66099 0.09129 0.55557
 C361 C 0.69750 0.11765 0.58399
 C362 C 0.68030 0.11580 0.63134
 C363 C 0.64416 0.13429 0.62626
 C364 C 0.60740 0.10829 0.59840
 C365 C 0.61317 0.03629 0.61336
 C366 C 0.64948 0.06160 0.64160
 H367 H 0.66704 0.09257 0.52090
 H368 H 0.73281 0.14334 0.57153
 H369 H 0.64864 0.16685 0.64157
 H370 H 0.58025 0.11825 0.59072
 H371 H 0.58941 -0.00235 0.61666
 H372 H 0.65635 0.04429 0.66879
 C373 C 0.44450 0.06179 0.92259
 C374 C 0.47032 0.06964 0.87883
 C375 C 0.45742 0.09236 0.84898
 C376 C 0.41836 0.10418 0.86457
 C377 C 0.37676 0.05630 0.88191
 C378 C 0.39029 0.03422 0.91210
 C379 C 0.45504 0.11256 0.93581
 C380 C 0.44222 0.13492 0.90538
 H381 H 0.49870 0.06090 0.87267
 H382 H 0.47568 0.10353 0.81791
 H383 H 0.33955 0.04128 0.87149
 H384 H 0.36459 0.00043 0.92744
 H385 H 0.47429 0.13107 0.96489
 H386 H 0.45306 0.17276 0.90862
 C387 C 0.60695 0.55608 0.91630
 C388 C 0.59763 0.57321 0.87256
 C389 C 0.63324 0.58453 0.84267
 C390 C 0.67605 0.57895 0.85928
 C391 C 0.69212 0.60909 0.90107
 C392 C 0.65632 0.59689 0.93087
 C393 C 0.61530 0.51412 0.90406
 C394 C 0.65076 0.52587 0.87422
 H395 H 0.56417 0.57246 0.86427
 H396 H 0.62753 0.59089 0.80940
 H397 H 0.72877 0.63810 0.90650
 H398 H 0.66245 0.61544 0.96160
 H399 H 0.59362 0.47755 0.91630
 H400 H 0.65890 0.49916 0.86108
 C401 C 0.93707 0.38534 0.92155
 C402 C 0.96472 0.35921 0.90895
 C403 C 0.94200 0.32433 0.87863
 C404 C 0.89342 0.31823 0.86321
 C405 C 0.86356 0.31051 0.90504
 C406 C 0.88662 0.34495 0.93569
 C407 C 0.92781 0.40398 0.87886
 C408 C 0.90424 0.36901 0.84890
 H409 H 0.99903 0.36704 0.92304
 H410 H 0.95700 0.30247 0.86684
 H411 H 0.82578 0.28357 0.90890
 H412 H 0.86876 0.34514 0.96559
 H413 H 0.93623 0.44102 0.87359
 H414 H 0.89196 0.37646 0.81865
 C415 C 0.54829 0.93963 0.42264
 C416 C 0.60147 0.96961 0.40875
 C417 C 0.61503 0.94798 0.37808
 C418 C 0.57446 0.89808 0.36376
 C419 C 0.55518 0.86876 0.40621
 C420 C 0.54221 0.89068 0.43703
 C421 C 0.51934 0.92827 0.38050
 C422 C 0.53209 0.90574 0.35036
 H423 H 0.62652 1.00467 0.42217
 H424 H 0.65162 0.96465 0.36537
 H425 H 0.54815 0.83214 0.41071
 H426 H 0.52631 0.87313 0.46761
 H427 H 0.48992 0.93562 0.37532
 H428 H 0.51223 0.89269 0.32035
 C429 C 0.38594 0.45006 0.42339
 C430 C 0.39183 0.48996 0.39225
 C431 C 0.35586 0.47561 0.36287
 C432 C 0.31681 0.42201 0.36619
 C433 C 0.34421 0.39360 0.36528
 C434 C 0.38047 0.40851 0.39461
 C435 C 0.33563 0.43165 0.44357
 C436 C 0.29947 0.41763 0.41380
 H437 H 0.41966 0.52741 0.39537
 H438 H 0.35380 0.50095 0.34071
 H439 H 0.33507 0.36348 0.34373
 H440 H 0.40204 0.39098 0.39800
 H441 H 0.32944 0.43292 0.47797
 H442 H 0.26374 0.40957 0.42398
 C443 C 0.05651 0.61128 0.42288
 C444 C 0.02377 0.63186 0.40982
 C445 C 0.04370 0.66761 0.37936
 C446 C 0.09475 0.67992 0.36460
 C447 C 0.12406 0.69114 0.40702
 C448 C 0.10399 0.65543 0.43736
 C449 C 0.06915 0.59573 0.38027
 C450 C 0.09002 0.63142 0.35047
 H451 H -0.01179 0.61973 0.42366
 H452 H 0.02513 0.68596 0.36725
 H453 H 0.15871 0.72321 0.41245
 H454 H 0.12106 0.65810 0.46834
 H455 H 0.06186 0.55939 0.37378
 H456 H 0.10242 0.62549 0.31954
 C457 C 0.94365 0.54805 0.91594
 C458 C 0.96949 0.56336 0.87184
 C459 C 0.94603 0.57571 0.84209
 C460 C 0.89897 0.57292 0.85924
 C461 C 0.86963 0.52022 0.87502
 C462 C 0.89260 0.50749 0.90477
 C463 C 0.93742 0.59055 0.93026
 C464 C 0.91458 0.60378 0.90063
 H465 H 1.00103 0.56047 0.86329
 H466 H 0.95748 0.58070 0.80862
 H467 H 0.83424 0.49446 0.86259
 H468 H 0.87661 0.47111 0.91773
 H469 H 0.95067 0.60926 0.96076
 H470 H 0.90842 0.63392 0.90595
 C471 C 0.45621 0.39446 0.91968
 C472 C 0.48458 0.36736 0.92447
 C473 C 0.47425 0.33327 0.89382
 C474 C 0.43627 0.32852 0.86076
 C475 C 0.39222 0.32079 0.88794
 C476 C 0.40278 0.35498 0.91906
 C477 C 0.46679 0.41435 0.87335
 C478 C 0.45544 0.38012 0.84264
 H479 H 0.51100 0.37449 0.94960
 H480 H 0.49182 0.31156 0.89300
 H481 H 0.35548 0.29241 0.88175
 H482 H 0.37533 0.35508 0.93986
 H483 H 0.47814 0.45156 0.86506
 H484 H 0.45481 0.38887 0.80886
 C485 C 0.60480 0.05871 0.91578
 C486 C 0.65091 0.05673 0.92604
 C487 C 0.68635 0.07849 0.89533
 C488 C 0.67375 0.10287 0.85825
 C489 C 0.62715 0.05922 0.84054
 C490 C 0.59093 0.03714 0.87015
 C491 C 0.62122 0.11231 0.90990
 C492 C 0.65701 0.13509 0.88043
 H493 H 0.65297 0.03455 0.95167
 H494 H 0.71628 0.07138 0.89397
 H495 H 0.62436 0.04364 0.80878
 H496 H 0.55734 0.00465 0.86249
 H497 H 0.60568 0.13095 0.92727
 H498 H 0.67193 0.17313 0.87297
 C499 C 0.06351 0.44692 0.42312
 C500 C 0.09665 0.42989 0.44322
 C501 C 0.11952 0.41650 0.41339
 C502 C 0.10601 0.41992 0.36584
 C503 C 0.05049 0.39022 0.36535
 C504 C 0.02834 0.40447 0.39470
 C505 C 0.09649 0.48692 0.39157
 C506 C 0.11876 0.47308 0.36210
 H507 H 0.10429 0.43153 0.47757
 H508 H 0.14787 0.40939 0.42345
 H509 H 0.03026 0.35963 0.34415
 H510 H -0.01070 0.38578 0.39837
 H511 H 0.10534 0.52422 0.39461
 H512 H 0.14568 0.49864 0.33976
 C513 C 0.55130 0.61893 0.42236
 C514 C 0.52549 0.60125 0.37892
 C515 C 0.53832 0.63656 0.34893
 C516 C 0.57806 0.68687 0.36383
 C517 C 0.55519 0.69506 0.40495
 C518 C 0.54173 0.65988 0.43557
 C519 C 0.60540 0.64414 0.41124
 C520 C 0.61931 0.67946 0.38069
 H521 H 0.49873 0.56406 0.37238
 H522 H 0.52051 0.62934 0.31776
 H523 H 0.54697 0.72401 0.40874
 H524 H 0.52378 0.66018 0.46537
 H525 H 0.63071 0.63525 0.42638
 H526 H 0.65650 0.70069 0.36976
 C527 C 0.38218 0.93043 0.42403
 C528 C 0.37915 0.96127 0.38743
 C529 C 0.34298 0.93607 0.35904
 C530 C 0.31271 0.88167 0.36864
 C531 C 0.34934 0.86375 0.37325
 C532 C 0.38581 0.88954 0.40144
 C533 C 0.33167 0.90522 0.44470
 C534 C 0.29535 0.87889 0.41611
 H535 H 0.40250 1.00002 0.38460
 H536 H 0.33584 0.95357 0.33218
 H537 H 0.34526 0.83154 0.35753
 H538 H 0.41272 0.87936 0.40935
 H539 H 0.32557 0.90314 0.47940
 H540 H 0.26040 0.85237 0.42858
 C541 C 0.54686 0.93806 0.07615
 C542 C 0.59987 0.96836 0.08992
 C543 C 0.61358 0.94680 0.12042
 C544 C 0.57326 0.89665 0.13473
 C545 C 0.53046 0.90364 0.14832
 C546 C 0.51746 0.92599 0.11821
 C547 C 0.54135 0.88960 0.06150
 C548 C 0.55447 0.86763 0.09219
 H549 H 0.62472 1.00357 0.07642
 H550 H 0.65013 0.96365 0.13297
 H551 H 0.51027 0.88986 0.17826
 H552 H 0.48694 0.93182 0.12293
 H553 H 0.52569 0.87250 0.03087
 H554 H 0.54785 0.83118 0.08758
 C555 C 0.38641 0.44954 0.07697
 C556 C 0.39202 0.48945 0.10782
 C557 C 0.35594 0.47503 0.13735
 C558 C 0.31709 0.42135 0.13447
 C559 C 0.29985 0.41674 0.08693
 C560 C 0.33612 0.43085 0.05700
 C561 C 0.38108 0.40815 0.10606
 C562 C 0.34471 0.39317 0.13555
 H563 H 0.41984 0.52692 0.10446
 H564 H 0.35371 0.50035 0.15937
 H565 H 0.26406 0.40838 0.07688
 H566 H 0.33000 0.43194 0.02260
 H567 H 0.40281 0.39078 0.10276
 H568 H 0.33565 0.36314 0.15734
 C569 C 0.06261 0.60636 0.07856
 C570 C 0.06490 0.58702 0.12345
 C571 C 0.08709 0.62186 0.15379
 C572 C 0.10325 0.67342 0.13746
 C573 C 0.13682 0.67827 0.09912
 C574 C 0.11538 0.64383 0.06815
 C575 C 0.03708 0.63576 0.08583
 C576 C 0.05818 0.67059 0.11652
 H577 H 0.05187 0.54922 0.13046
 H578 H 0.09468 0.61345 0.18584
 H579 H 0.17527 0.70388 0.09795
 H580 H 0.13535 0.64171 0.04054
 H581 H 0.00522 0.62986 0.06816
 H582 H 0.04425 0.69439 0.12505
 C583 C 0.44401 0.05982 0.57919
 C584 C 0.46982 0.06782 0.62273
 C585 C 0.45716 0.09093 0.65244
 C586 C 0.41822 0.10288 0.63688
 C587 C 0.44211 0.13324 0.59569
 C588 C 0.45472 0.11050 0.56548
 C589 C 0.38990 0.03244 0.59017
 C590 C 0.37648 0.05488 0.62017
 H591 H 0.49773 0.05850 0.62893
 H592 H 0.47534 0.10207 0.68340
 H593 H 0.45325 0.17113 0.59206
 H594 H 0.47414 0.12873 0.53621
 H595 H 0.36424 -0.00153 0.57536
 H596 H 0.33932 0.03998 0.63096
 C597 C 0.60773 0.55624 0.58493
 C598 C 0.65740 0.59668 0.57029
 C599 C 0.69283 0.60848 0.60014
 C600 C 0.67604 0.57829 0.64208
 C601 C 0.63335 0.58438 0.65844
 C602 C 0.59816 0.57347 0.62841
 C603 C 0.61537 0.51394 0.59737
 C604 C 0.65038 0.52522 0.62735
 H605 H 0.66396 0.61521 0.53943
 H606 H 0.72968 0.63721 0.59466
 H607 H 0.62737 0.59077 0.69164
 H608 H 0.56478 0.57310 0.63636
 H609 H 0.59352 0.47752 0.58512
 H610 H 0.65799 0.49820 0.64068
 C611 C 0.94450 0.38205 0.57747
 C612 C 0.92489 0.39596 0.61683
 C613 C 0.90248 0.36003 0.64624
 C614 C 0.90261 0.31302 0.63488
 C615 C 0.87850 0.30031 0.58978
 C616 C 0.90063 0.33623 0.55985
 C617 C 0.97779 0.36449 0.59600
 C618 C 0.95587 0.32837 0.62580
 H619 H 0.92679 0.43069 0.62052
 H620 H 0.88477 0.36427 0.67462
 H621 H 0.84544 0.26744 0.58209
 H622 H 0.88706 0.33279 0.52713
 H623 H 1.01506 0.37851 0.58589
 H624 H 0.97449 0.31158 0.64107
   
