data_POSCAR
  _audit_creation_date              2014-09-24
  _audit_creation_method            'ToBaCCo'
  _symmetry_space_group_name_H-M    'P1'
  _symmetry_Int_Tables_number       1
  _symmetry_cell_setting            triclinic
  loop_
  _symmetry_equiv_pos_as_xyz
 x,y,z
_cell_length_a 33.1178
_cell_length_b 34.5528
_cell_length_c 31.8657
_cell_angle_alpha 91.878600
_cell_angle_beta 89.439800
_cell_angle_gamma 90.398300
loop_
  _atom_site_label
  _atom_site_type_symbol
  _atom_site_fract_x
  _atom_site_fract_y
  _atom_site_fract_z
C1 C 0.19867 0.20618 0.26284
 N2 N 0.23181 0.18966 0.24491
 C3 C 0.25095 0.20663 0.21254
 N4 N 0.23650 0.23999 0.19744
 C5 C 0.20337 0.25678 0.21543
 N6 N 0.18405 0.23959 0.24782
 C7 C -0.18520 0.80465 0.21579
 N8 N -0.17420 0.76883 0.20119
 C9 C -0.19455 0.75156 0.16867
 N10 N -0.22533 0.77036 0.15045
 C11 C -0.23614 0.80612 0.16510
 N12 N -0.21599 0.82322 0.19757
 C13 C -0.21658 0.20117 -0.26046
 N14 N -0.25249 0.18740 -0.24650
 C15 C -0.27021 0.20328 -0.21160
 N16 N -0.25153 0.23269 -0.18994
 C17 C -0.21550 0.24668 -0.20383
 N18 N -0.19782 0.23060 -0.23889
 C19 C 0.17513 0.79223 -0.22894
 N20 N 0.16549 0.75640 -0.21552
 C21 C 0.18759 0.74047 -0.18479
 N22 N 0.21878 0.76070 -0.16708
 C23 C 0.22827 0.79650 -0.18069
 N24 N 0.20632 0.81215 -0.21137
 C25 C 0.22235 1.21082 0.74582
 N26 N 0.25450 1.19679 0.76641
 C27 C 0.27066 1.21738 0.79931
 N28 N 0.25392 1.25167 0.81221
 C29 C 0.22176 1.26568 0.79140
 N30 N 0.20591 1.24501 0.75861
 C31 C 0.80869 0.80473 0.76196
 N32 N 0.77549 0.82113 0.78032
 C33 C 0.75773 0.80455 0.81401
 N34 N 0.77360 0.77191 0.82965
 C35 C 0.80676 0.75558 0.81120
 N36 N 0.82435 0.77216 0.77763
 C37 C 0.19294 0.80153 1.23649
 N38 N 0.17682 0.76873 1.21908
 C39 C 0.19378 0.75196 1.18425
 N40 N 0.22680 0.76828 1.16631
 C41 C 0.24316 0.80114 1.18366
 N42 N 0.22602 0.81799 1.21863
 C43 C 0.80900 1.19920 1.26800
 N44 N 0.77351 1.18436 1.25335
 C45 C 0.75681 1.19873 1.21837
 N46 N 0.77600 1.22727 1.19766
 C47 C 0.81144 1.24198 1.21212
 N48 N 0.82810 1.22776 1.24711
 O49 O 0.52137 0.95116 0.94116
 O50 O 0.46034 0.96841 1.07738
 O51 O 0.58325 0.99223 1.03305
 O52 O 0.39517 0.99364 0.96880
 O53 O 0.53769 0.96411 1.07368
 O54 O 0.44730 0.96163 0.94182
 O55 O 0.43717 0.95608 1.01537
 O56 O 0.57444 0.98584 0.95754
 C57 C 0.55885 0.95436 0.94432
 C58 C 0.43935 0.94788 1.05293
 C59 C 0.57289 0.96636 1.05864
 C60 C 0.40945 0.96851 0.94063
 O61 O 0.46110 1.03629 0.92216
 O62 O 0.54247 1.03731 1.08596
 O63 O 0.54552 1.06184 0.95944
 O64 O 0.41661 1.02372 1.04616
 O65 O 0.46764 1.04485 1.08281
 O66 O 0.53322 1.02076 0.91150
 O67 O 0.43612 1.05598 0.98094
 O68 O 0.55944 1.06758 1.03096
 Co69 Co 0.49142 0.99425 0.93619
 Co70 Co 0.50137 1.00398 1.07261
 Co71 Co 0.56058 1.02546 0.99524
 Co72 Co 0.44035 1.00626 0.99726
 O73 O 0.50064 1.00891 1.00368
 C74 C 0.44235 1.06157 0.94333
 C75 C 0.55959 1.06515 1.06949
 C76 C 0.54542 1.05360 0.92187
 C77 C 0.43102 1.04597 1.07408
 O78 O 0.03409 0.45225 0.08260
 O79 O 0.03183 0.51937 -0.08263
 O80 O 0.05739 0.43792 -0.04463
 O81 O 0.01224 0.56828 0.03954
 O82 O 0.01601 0.44917 -0.09185
 O83 O 0.03996 0.52294 0.07343
 O84 O 0.04888 0.54683 -0.02431
 O85 O 0.06250 0.42815 0.02696
 C86 C 0.06142 0.43283 0.06549
 C87 C 0.05624 0.53999 -0.06192
 C88 C 0.04983 0.43775 -0.08200
 C89 C 0.03799 0.55773 0.06498
 O90 O -0.04106 0.52636 0.07302
 O91 O -0.05713 0.46078 -0.06132
 O92 O -0.01578 0.40658 0.03378
 O93 O -0.01634 0.58307 -0.03667
 O94 O -0.04715 0.53152 -0.06346
 O95 O -0.04252 0.45278 0.07529
 O96 O -0.05610 0.54140 0.01020
 O97 O -0.02228 0.41081 -0.04322
 Co98 Co -0.00220 0.48882 0.06879
 Co99 Co -0.01220 0.48988 -0.06756
 Co100 Co 0.01874 0.42598 -0.00697
 Co101 Co -0.00315 0.54120 -0.00775
 O102 O 0.00180 0.48427 -0.00005
 C103 C -0.06438 0.54212 0.04825
 C104 C -0.05415 0.42505 -0.05760
 C105 C -0.04037 0.41790 0.06254
 C106 C -0.04044 0.56785 -0.06518
 O107 O 1.08076 0.03537 0.47657
 O108 O 0.91685 0.01077 0.54312
 O109 O 0.98262 0.04645 0.44385
 O110 O 1.03086 0.05644 0.57269
 O111 O 0.92663 0.02637 0.46882
 O112 O 1.08429 0.02600 0.55386
 O113 O 0.96220 0.05129 0.55846
 O114 O 1.04633 0.01482 0.42249
 C115 C 1.07209 0.03734 0.43863
 C116 C 0.92618 0.04343 0.55722
 C117 C 0.94621 0.05176 0.45026
 C118 C 1.06800 0.05434 0.57164
 O119 O 1.07429 -0.04696 0.54517
 O120 O 0.94762 -0.04797 0.45164
 O121 O 1.01864 -0.05343 0.44082
 O122 O 0.96177 -0.02495 0.58483
 O123 O 0.94694 -0.05902 0.52830
 O124 O 1.07785 -0.04078 0.46518
 O125 O 1.03456 -0.01962 0.59399
 O126 O 0.97274 -0.01538 0.39878
 Co127 Co 1.07220 -0.00627 0.50953
 Co128 Co 0.94122 -0.01574 0.49879
 Co129 Co 0.99978 -0.00330 0.44623
 Co130 Co 0.99744 0.01439 0.57214
 O131 O 1.00573 -0.00131 0.50902
 C132 C 1.05970 -0.04551 0.58185
 C133 C 0.94606 -0.04040 0.41265
 C134 C 1.05512 -0.06124 0.44257
 C135 C 0.94899 -0.05592 0.56737
 C136 C 1.17806 0.18662 0.29249
 C137 C 1.16072 0.16679 0.31739
 C138 C 1.14146 0.14122 0.34486
 C139 C 1.12558 0.11803 0.36719
 C140 C 1.10729 0.08994 0.39238
 C141 C 1.09151 0.06574 0.41351
 C142 C 0.83563 -0.17671 0.24701
 C143 C 0.85313 -0.15810 0.27393
 C144 C 0.87272 -0.13439 0.30451
 C145 C 0.88907 -0.11312 0.32993
 C146 C 0.90821 -0.08757 0.35908
 C147 C 0.92501 -0.06577 0.38363
 C148 C 0.80226 0.18230 0.70688
 C149 C 0.81848 0.16343 0.67912
 C150 C 0.83760 0.13929 0.64844
 C151 C 0.85481 0.11753 0.62403
 C152 C 0.87677 0.09134 0.59780
 C153 C 0.89779 0.06904 0.57775
 C154 C 1.15148 -0.18928 0.74011
 C155 C 1.13345 -0.17084 0.71498
 C156 C 1.11442 -0.14665 0.68642
 C157 C 1.09983 -0.12446 0.66252
 C158 C 1.08447 -0.09728 0.63477
 C159 C 1.07261 -0.07363 0.61090
 C160 C 0.28133 1.18751 1.19231
 C161 C 0.30687 1.16851 1.17438
 C162 C 0.33504 1.14426 1.15345
 C163 C 0.35795 1.12234 1.13554
 C164 C 0.38374 1.09581 1.11447
 C165 C 0.40535 1.07292 1.09622
 C166 C 0.25781 0.81819 0.83786
 C167 C 0.28285 0.83950 0.85342
 C168 C 0.31081 0.86628 0.87091
 C169 C 0.33387 0.88999 0.88575
 C170 C 0.36025 0.91807 0.90355
 C171 C 0.38263 0.94166 0.91970
 C172 C 0.73437 0.82593 1.14616
 C173 C 0.70887 0.84504 1.13015
 C174 C 0.67976 0.86901 1.11259
 C175 C 0.65526 0.89055 1.09865
 C176 C 0.62679 0.91663 1.08357
 C177 C 0.60236 0.93931 1.07168
 C178 C 0.69607 1.18629 0.80412
 C179 C 0.66755 1.16893 0.81808
 C180 C 0.63625 1.14629 0.83520
 C181 C 0.61156 1.12557 0.85126
 C182 C 0.58532 1.10034 0.87247
 C183 C 0.56549 1.07866 0.89331
 C184 C 0.18602 0.28986 0.19666
 C185 C 0.17066 0.31628 0.17910
 C186 C 0.15143 0.34542 0.15682
 C187 C 0.13360 0.36859 0.13666
 C188 C 0.11078 0.39351 0.11213
 C189 C 0.08938 0.41271 0.09080
 C190 C -0.19454 0.27626 -0.17955
 C191 C -0.17621 0.30040 -0.15895
 C192 C -0.15365 0.32802 -0.13497
 C193 C -0.13327 0.35107 -0.11509
 C194 C -0.10776 0.37753 -0.09295
 C195 C -0.08434 0.39958 -0.07563
 C196 C 0.17578 0.70369 -0.16858
 C197 C 0.16432 0.67368 -0.15405
 C198 C 0.14855 0.63985 -0.13602
 C199 C 0.13249 0.61261 -0.11981
 C200 C 0.11011 0.58327 -0.10001
 C201 C 0.08753 0.56127 -0.08266
 C202 C -0.18170 0.71476 0.15133
 C203 C -0.17003 0.68461 0.13561
 C204 C -0.15455 0.65039 0.11633
 C205 C -0.13899 0.62240 0.09962
 C206 C -0.11731 0.59151 0.08034
 C207 C -0.09525 0.56732 0.06480
 C208 C 1.20343 0.18891 0.71574
 C209 C 1.18458 0.16978 0.69032
 C210 C 1.16065 0.14739 0.66218
 C211 C 1.13928 0.12783 0.63950
 C212 C 1.11383 0.10393 0.61445
 C213 C 1.09240 0.08220 0.59425
 C214 C 0.82820 -0.17783 0.72987
 C215 C 0.84688 -0.16250 0.70221
 C216 C 0.86976 -0.14404 0.67089
 C217 C 0.88946 -0.12715 0.64515
 C218 C 0.91201 -0.10533 0.61629
 C219 C 0.93003 -0.08433 0.59300
 C220 C 1.17390 -0.18101 0.26991
 C221 C 1.15534 -0.16600 0.29877
 C222 C 1.13239 -0.14820 0.33155
 C223 C 1.11265 -0.13190 0.35867
 C224 C 1.09025 -0.11063 0.38938
 C225 C 1.07275 -0.08983 0.41451
 C226 C 0.82744 0.18305 0.30105
 C227 C 0.84491 0.16787 0.32914
 C228 C 0.86638 0.14851 0.36023
 C229 C 0.88516 0.13015 0.38492
 C230 C 0.90723 0.10605 0.41123
 C231 C 0.92561 0.08284 0.43093
 C232 C 0.20186 0.29765 -0.19389
 C233 C 0.18141 0.32438 -0.18122
 C234 C 0.15485 0.35345 -0.16587
 C235 C 0.13076 0.37628 -0.15126
 C236 C 0.10176 0.40055 -0.13136
 C237 C 0.07730 0.41899 -0.11101
 C238 C -0.16833 0.26874 0.18969
 C239 C -0.15015 0.29184 0.16909
 C240 C -0.12844 0.31832 0.14466
 C241 C -0.10936 0.34078 0.12407
 C242 C -0.08626 0.36716 0.10087
 C243 C -0.06576 0.39005 0.08236
 C244 C -0.17443 0.72272 -0.17101
 C245 C -0.15666 0.69610 -0.15636
 C246 C -0.13399 0.66618 -0.13915
 C247 C -0.11343 0.64175 -0.12396
 C248 C -0.08837 0.61453 -0.10517
 C249 C -0.06652 0.59251 -0.08783
 C250 C 0.17555 0.72065 0.16583
 C251 C 0.15747 0.69365 0.15008
 C252 C 0.13432 0.66312 0.13220
 C253 C 0.11325 0.63790 0.11715
 C254 C 0.08748 0.60929 0.09950
 C255 C 0.06495 0.58547 0.08408
 C256 C 0.30272 1.20067 0.82281
 C257 C 0.32847 1.18464 0.84232
 C258 C 0.35714 1.16355 0.86487
 C259 C 0.38006 1.14355 0.88376
 C260 C 0.40475 1.11765 0.90537
 C261 C 0.42351 1.09333 0.92319
 C262 C 0.27684 0.81940 1.16326
 C263 C 0.30439 0.83517 1.14538
 C264 C 0.33574 0.85467 1.12405
 C265 C 0.36159 0.87270 1.10604
 C266 C 0.39058 0.89599 1.08573
 C267 C 0.41390 0.91819 1.06969
 C268 C 0.72116 1.18134 1.20047
 C269 C 0.69244 1.16651 1.18325
 C270 C 0.66037 1.14846 1.16105
 C271 C 0.63449 1.13200 1.14083
 C272 C 0.60609 1.11106 1.11617
 C273 C 0.58369 1.09131 1.09477
 C274 C 0.72382 0.82297 0.83478
 C275 C 0.69604 0.83923 0.85256
 C276 C 0.66433 0.85953 0.87347
 C277 C 0.63815 0.87825 0.89105
 C278 C 0.60869 0.90220 0.91098
 C279 C 0.58494 0.92470 0.92699
   
