data_POSCAR
  _audit_creation_date              2014-09-24
  _audit_creation_method            'ToBaCCo'
  _symmetry_space_group_name_H-M    'P1'
  _symmetry_Int_Tables_number       1
  _symmetry_cell_setting            triclinic
  loop_
  _symmetry_equiv_pos_as_xyz
 x,y,z
_cell_length_a 49.8237
_cell_length_b 49.8502
_cell_length_c 44.5005
_cell_angle_alpha 89.998800
_cell_angle_beta 89.983900
_cell_angle_gamma 90.258300
loop_
  _atom_site_label
  _atom_site_type_symbol
  _atom_site_fract_x
  _atom_site_fract_y
  _atom_site_fract_z
C1 C 0.08154 0.26941 0.01539
 C2 C 0.08152 0.26907 -0.01542
 C3 C 0.05627 0.27754 -0.02454
 N4 N 0.04115 0.28347 -0.00023
 C5 C 0.05647 0.27838 0.02416
 C6 C 0.04847 0.28268 -0.05462
 C7 C 0.02184 0.28993 -0.06247
 C8 C 0.01403 0.30074 -0.08986
 C9 C -0.01349 0.30191 -0.08967
 C10 C -0.02200 0.29107 -0.06257
 N11 N -0.00033 0.28415 -0.04597
 C12 C -0.04922 0.28629 -0.05455
 C13 C -0.05697 0.28206 -0.02421
 C14 C -0.08130 0.27118 -0.01488
 C15 C -0.08112 0.27142 0.01589
 C16 C -0.05654 0.28196 0.02443
 N17 N -0.04176 0.28848 -0.00005
 C18 C -0.04852 0.28639 0.05444
 C19 C -0.02156 0.29116 0.06257
 C20 C -0.01313 0.30070 0.09028
 C21 C 0.01446 0.29972 0.09023
 C22 C 0.02206 0.28958 0.06249
 N23 N -0.00001 0.28451 0.04574
 C24 C 0.04869 0.28341 0.05416
 H25 H 0.09829 0.26411 0.02964
 H26 H 0.09851 0.26388 -0.02934
 H27 H -0.00057 0.27389 0.02564
 H28 H 0.02659 0.30672 -0.10851
 H29 H -0.02584 0.30940 -0.10780
 H30 H -0.09742 0.26347 -0.02875
 H31 H -0.09709 0.26421 0.03032
 H32 H 0.02742 0.30539 0.10870
 H33 H -0.00083 0.27285 -0.02632
 H34 H -0.02558 0.30721 0.10881
 C35 C 0.41805 0.77349 0.48490
 C36 C 0.41806 0.77345 0.51572
 C37 C 0.44334 0.78202 0.52462
 N38 N 0.45871 0.78741 0.50030
 C39 C 0.44332 0.78208 0.47599
 C40 C 0.45145 0.78593 0.55473
 C41 C 0.47839 0.79080 0.56315
 C42 C 0.48650 0.79998 0.59114
 C43 C 0.51411 0.79993 0.59113
 C44 C 0.52210 0.79072 0.56313
 N45 N 0.50021 0.78521 0.54621
 C46 C 0.54897 0.78579 0.55467
 C47 C 0.55701 0.78188 0.52454
 C48 C 0.58219 0.77329 0.51559
 C49 C 0.58218 0.77339 0.48477
 C50 C 0.55699 0.78204 0.47592
 N51 N 0.54168 0.78734 0.50027
 C52 C 0.54894 0.78614 0.44584
 C53 C 0.52204 0.79106 0.43744
 C54 C 0.51403 0.80037 0.40950
 C55 C 0.48642 0.80036 0.40951
 C56 C 0.47834 0.79103 0.43746
 N57 N 0.50017 0.78542 0.45434
 C58 C 0.45141 0.78608 0.44588
 H59 H 0.40134 0.76778 0.47070
 H60 H 0.40136 0.76770 0.52993
 H61 H 0.50013 0.77517 0.47467
 H62 H 0.47384 0.80579 0.60978
 H63 H 0.52685 0.80569 0.60976
 H64 H 0.59884 0.76749 0.52975
 H65 H 0.59882 0.76769 0.47053
 H66 H 0.47374 0.80622 0.39091
 H67 H 0.50014 0.77505 0.52583
 H68 H 0.52675 0.80625 0.39089
 C69 C 1.08010 0.73203 -0.01532
 C70 C 1.08014 0.73214 0.01543
 C71 C 1.05687 0.71909 0.02448
 N72 N 1.04240 0.71129 0.00021
 C73 C 1.05681 0.71892 -0.02418
 C74 C 1.04943 0.71418 0.05477
 C75 C 1.02231 0.70899 0.06260
 C76 C 1.01367 0.69715 0.08917
 C77 C 0.98611 0.69822 0.08917
 C78 C 0.97864 0.71024 0.06240
 N79 N 1.00077 0.71653 0.04619
 C80 C 0.95206 0.71685 0.05449
 C81 C 0.94437 0.72206 0.02458
 C82 C 0.91976 0.73222 0.01572
 C83 C 0.91973 0.73211 -0.01512
 C84 C 0.94432 0.72189 -0.02397
 N85 N 0.95933 0.71575 0.00031
 C86 C 0.95194 0.71648 -0.05386
 C87 C 0.97851 0.70980 -0.06179
 C88 C 0.98592 0.69759 -0.08847
 C89 C 1.01349 0.69651 -0.08854
 C90 C 1.02217 0.70855 -0.06210
 N91 N 1.00067 0.71620 -0.04569
 C92 C 1.04931 0.71379 -0.05439
 H93 H 1.09525 0.74113 -0.02952
 H94 H 1.09531 0.74134 0.02950
 H95 H 1.00123 0.72799 -0.02638
 H96 H 1.02596 0.68887 0.10691
 H97 H 0.97304 0.69108 0.10691
 H98 H 0.90347 0.73882 0.02996
 H99 H 0.90340 0.73862 -0.02937
 H100 H 1.02575 0.68811 -0.10624
 H101 H 1.00129 0.72817 0.02676
 H102 H 0.97282 0.69033 -0.10611
 C103 C 0.58192 0.22662 0.48527
 C104 C 0.58189 0.22670 0.51609
 C105 C 0.55660 0.21815 0.52500
 N106 N 0.54124 0.21273 0.50069
 C107 C 0.55664 0.21801 0.47637
 C108 C 0.54846 0.21429 0.55512
 C109 C 0.52151 0.20945 0.56354
 C110 C 0.51338 0.20033 0.59156
 C111 C 0.48577 0.20039 0.59154
 C112 C 0.47781 0.20953 0.56351
 N113 N 0.49971 0.21501 0.54659
 C114 C 0.45093 0.21444 0.55504
 C115 C 0.44292 0.21827 0.52490
 C116 C 0.41773 0.22684 0.51592
 C117 C 0.41776 0.22668 0.48510
 C118 C 0.44297 0.21802 0.47628
 N119 N 0.45827 0.21278 0.50064
 C120 C 0.45105 0.21388 0.44621
 C121 C 0.47795 0.20895 0.43783
 C122 C 0.48598 0.19959 0.40991
 C123 C 0.51359 0.19962 0.40993
 C124 C 0.52165 0.20899 0.43786
 N125 N 0.49981 0.21462 0.45473
 C126 C 0.54857 0.21398 0.44627
 H127 H 0.59863 0.23230 0.47106
 H128 H 0.59857 0.23246 0.53029
 H129 H 0.49983 0.22490 0.47503
 H130 H 0.52603 0.19457 0.61023
 H131 H 0.47302 0.19467 0.61019
 H132 H 0.40107 0.23265 0.53006
 H133 H 0.40113 0.23234 0.47084
 H134 H 0.52628 0.19374 0.39134
 H135 H 0.49979 0.22511 0.52618
 H136 H 0.47328 0.19368 0.39131
 C137 C 0.69900 -0.07989 -0.01532
 C138 C 0.69887 -0.07968 0.01543
 C139 C 0.71124 -0.05598 0.02420
 N140 N 0.71863 -0.04149 -0.00019
 C141 C 0.71149 -0.05632 -0.02439
 C142 C 0.71675 -0.04855 0.05430
 C143 C 0.72114 -0.02128 0.06203
 C144 C 0.73384 -0.01227 0.08793
 C145 C 0.73270 0.01526 0.08749
 C146 C 0.71977 0.02236 0.06111
 N147 N 0.71287 0.00001 0.04564
 C148 C 0.71373 0.04893 0.05260
 C149 C 0.70783 0.05623 0.02271
 C150 C 0.69950 0.08143 0.01367
 C151 C 0.69979 0.08136 -0.01714
 C152 C 0.70800 0.05595 -0.02598
 N153 N 0.71294 0.04071 -0.00148
 C154 C 0.71480 0.04829 -0.05568
 C155 C 0.72166 0.02148 -0.06315
 C156 C 0.73390 0.01342 -0.08969
 C157 C 0.73484 -0.01409 -0.08921
 C158 C 0.72239 -0.02231 -0.06287
 N159 N 0.71467 -0.00051 -0.04699
 C160 C 0.71729 -0.04935 -0.05458
 H161 H 0.69072 -0.09555 -0.02943
 H162 H 0.69047 -0.09514 0.02975
 H163 H 0.70257 -0.00085 -0.02790
 H164 H 0.74316 -0.02422 0.10530
 H165 H 0.74074 0.02855 0.10452
 H166 H 0.69468 0.09842 0.02779
 H167 H 0.69552 0.09851 -0.03119
 H168 H 0.74346 -0.02657 -0.10657
 H169 H 0.70091 -0.00077 0.02644
 H170 H 0.74111 0.02582 -0.10793
 C171 C 0.22756 0.41781 0.48434
 C172 C 0.22742 0.41786 0.51517
 C173 C 0.21886 0.44309 0.52397
 N174 N 0.21364 0.45838 0.49959
 C175 C 0.21907 0.44300 0.47534
 C176 C 0.21475 0.45120 0.55403
 C177 C 0.20993 0.47810 0.56241
 C178 C 0.20062 0.48617 0.59033
 C179 C 0.20077 0.51377 0.59031
 C180 C 0.21018 0.52178 0.56237
 N181 N 0.21570 0.49992 0.54550
 C182 C 0.21525 0.54866 0.55393
 C183 C 0.21929 0.55669 0.52381
 C184 C 0.22797 0.58191 0.51487
 C185 C 0.22797 0.58186 0.48404
 C186 C 0.21931 0.55660 0.47519
 N187 N 0.21389 0.54129 0.49953
 C188 C 0.21530 0.54849 0.44510
 C189 C 0.21041 0.52157 0.43668
 C190 C 0.20120 0.51346 0.40869
 C191 C 0.20120 0.48587 0.40871
 C192 C 0.21039 0.47788 0.43671
 N193 N 0.21596 0.49976 0.45361
 C194 C 0.21522 0.45101 0.44520
 H195 H 0.23331 0.40113 0.47021
 H196 H 0.23304 0.40123 0.52943
 H197 H 0.22611 0.49982 0.47400
 H198 H 0.19465 0.47350 0.60894
 H199 H 0.19495 0.52648 0.60890
 H200 H 0.23374 0.59860 0.52903
 H201 H 0.23376 0.59851 0.46981
 H202 H 0.19539 0.47314 0.39009
 H203 H 0.22598 0.49989 0.52519
 H204 H 0.19541 0.52612 0.39005
 C205 C 0.30023 0.91853 0.01357
 C206 C 0.29990 0.91859 -0.01725
 C207 C 0.29174 0.94402 -0.02608
 N208 N 0.28686 0.95928 -0.00158
 C209 C 0.29197 0.94375 0.02261
 C210 C 0.28493 0.95168 -0.05577
 C211 C 0.27809 0.97849 -0.06324
 C212 C 0.26582 0.98657 -0.08975
 C213 C 0.26492 1.01408 -0.08928
 C214 C 0.27743 1.02229 -0.06298
 N215 N 0.28514 1.00049 -0.04710
 C216 C 0.28259 1.04933 -0.05472
 C217 C 0.28848 1.05629 -0.02456
 C218 C 0.30104 1.07984 -0.01554
 C219 C 0.30124 1.07965 0.01521
 C220 C 0.28883 1.05598 0.02403
 N221 N 0.28136 1.04149 -0.00032
 C222 C 0.28337 1.04858 0.05415
 C223 C 0.27893 1.02132 0.06192
 C224 C 0.26627 1.01235 0.08787
 C225 C 0.26734 0.98482 0.08745
 C226 C 0.28019 0.97768 0.06103
 N227 N 0.28712 1.00000 0.04552
 C228 C 0.28614 0.95108 0.05251
 H229 H 0.30503 0.90154 0.02768
 H230 H 0.30412 0.90143 -0.03130
 H231 H 0.29903 1.00074 0.02628
 H232 H 0.25855 0.97417 -0.10796
 H233 H 0.25628 1.02656 -0.10662
 H234 H 0.30932 1.09548 -0.02969
 H235 H 0.30970 1.09509 0.02949
 H236 H 0.25931 0.97156 0.10452
 H237 H 0.29728 1.00081 -0.02805
 H238 H 0.25703 1.02433 0.10527
 C239 C 0.77195 0.41805 0.51493
 C240 C 0.77195 0.41811 0.48411
 C241 C 0.78062 0.44337 0.47526
 N242 N 0.78602 0.45867 0.49960
 C243 C 0.78062 0.44328 0.52388
 C244 C 0.78464 0.45148 0.44516
 C245 C 0.78957 0.47840 0.43675
 C246 C 0.79881 0.48650 0.40877
 C247 C 0.79885 0.51410 0.40880
 C248 C 0.78965 0.52209 0.43680
 N249 N 0.78403 0.50022 0.45369
 C250 C 0.78484 0.54897 0.44528
 C251 C 0.78093 0.55697 0.47542
 C252 C 0.77243 0.58217 0.48440
 C253 C 0.77250 0.58211 0.51522
 C254 C 0.78103 0.55688 0.52404
 N255 N 0.78629 0.54158 0.49968
 C256 C 0.78506 0.54877 0.55412
 C257 C 0.78988 0.52186 0.56249
 C258 C 0.79915 0.51379 0.59043
 C259 C 0.79902 0.48620 0.59041
 C260 C 0.78967 0.47819 0.56245
 N261 N 0.78415 0.50004 0.54558
 C262 C 0.78463 0.45130 0.55400
 H263 H 0.76617 0.40135 0.52910
 H264 H 0.76618 0.40146 0.46987
 H265 H 0.77391 0.50007 0.52525
 H266 H 0.80460 0.47384 0.39013
 H267 H 0.80469 0.52682 0.39018
 H268 H 0.76673 0.59885 0.47026
 H269 H 0.76685 0.59874 0.52948
 H270 H 0.80483 0.47349 0.60900
 H271 H 0.77387 0.50016 0.47407
 H272 H 0.80508 0.52647 0.60905
 O273 O 0.23373 0.26931 0.21237
 O274 O 0.29133 0.25324 0.26089
 O275 O 0.27021 0.23225 0.21258
 O276 O 0.25476 0.29027 0.26074
 O277 O 0.22860 0.26459 0.28889
 O278 O 0.24405 0.20656 0.24072
 O279 O 0.26518 0.22756 0.28904
 O280 O 0.20756 0.24363 0.24051
 Cu281 Cu 0.26516 0.26386 0.23381
 Cu282 Cu 0.23371 0.23300 0.26764
 C283 C 0.21097 0.25904 0.21813
 C284 C 0.28795 0.23782 0.28325
 C285 C 0.25959 0.20966 0.21839
 C286 C 0.23919 0.28719 0.28304
 O287 O 0.70919 0.74681 0.26093
 O288 O 0.76701 0.73087 0.21265
 O289 O 0.74582 0.70985 0.26091
 O290 O 0.73044 0.76785 0.21271
 O291 O 0.75645 0.79358 0.24096
 O292 O 0.77183 0.73556 0.28917
 O293 O 0.79303 0.75659 0.24090
 O294 O 0.73519 0.77253 0.28920
 Cu295 Cu 0.73549 0.73625 0.23396
 Cu296 Cu 0.76675 0.76716 0.26792
 C297 C 0.71246 0.76224 0.28331
 C298 C 0.78974 0.74117 0.21851
 C299 C 0.76131 0.71294 0.28327
 C300 C 0.74100 0.79046 0.21857
 O301 O 0.79157 0.24493 0.23957
 O302 O 0.73385 0.22840 0.28799
 O303 O 0.75476 0.20784 0.23938
 O304 O 0.77064 0.26553 0.28807
 O305 O 0.74466 0.29135 0.26016
 O306 O 0.72878 0.23369 0.21150
 O307 O 0.70786 0.25424 0.26011
 O308 O 0.76559 0.27076 0.21167
 Cu309 Cu 0.76532 0.23406 0.26657
 Cu310 Cu 0.73409 0.26510 0.23305
 C311 C 0.78829 0.26051 0.21735
 C312 C 0.71116 0.23868 0.28235
 C313 C 0.73925 0.21108 0.21708
 C314 C 0.76022 0.28814 0.28241
 O315 O 0.27093 0.76643 0.21152
 O316 O 0.25506 0.70877 0.26020
 O317 O 0.23409 0.72938 0.21177
 O318 O 0.29187 0.74587 0.26009
 O319 O 0.26592 0.77172 0.28803
 O320 O 0.20814 0.75522 0.23970
 O321 O 0.22911 0.73459 0.28815
 O322 O 0.24497 0.79228 0.23944
 Cu323 Cu 0.26562 0.73501 0.23308
 Cu324 Cu 0.23443 0.76607 0.26666
 C325 C 0.26047 0.78903 0.21712
 C326 C 0.23952 0.71197 0.28248
 C327 C 0.21140 0.73963 0.21748
 C328 C 0.28860 0.76143 0.28234
 O329 O 0.70820 0.25472 0.74060
 O330 O 0.76612 0.27138 0.78864
 O331 O 0.74499 0.29184 0.74017
 O332 O 0.72931 0.23427 0.78914
 O333 O 0.75519 0.20839 0.76117
 O334 O 0.77087 0.26595 0.71221
 O335 O 0.79200 0.24549 0.76068
 O336 O 0.73409 0.22883 0.71264
 Cu337 Cu 0.73454 0.26566 0.76746
 Cu338 Cu 0.76564 0.23455 0.73386
 C339 C 0.71141 0.23912 0.71838
 C340 C 0.78880 0.26112 0.78287
 C341 C 0.76045 0.28858 0.71782
 C342 C 0.73975 0.21165 0.78354
 O343 O 0.29172 0.74541 0.74028
 O344 O 0.23385 0.72870 0.78840
 O345 O 0.25497 0.70824 0.73991
 O346 O 0.27062 0.76583 0.78886
 O347 O 0.24469 0.79169 0.76093
 O348 O 0.22905 0.73410 0.71198
 O349 O 0.20792 0.75456 0.76047
 O350 O 0.26579 0.77127 0.71235
 Cu351 Cu 0.26541 0.73444 0.76718
 Cu352 Cu 0.23425 0.76552 0.73362
 C353 C 0.28848 0.76101 0.71807
 C354 C 0.21115 0.73893 0.78266
 C355 C 0.23949 0.71149 0.71759
 C356 C 0.26014 0.78844 0.78327
 O357 O 0.25341 0.29150 0.73948
 O358 O 0.26936 0.23379 0.78783
 O359 O 0.29037 0.25486 0.73953
 O360 O 0.23244 0.27039 0.78783
 O361 O 0.20664 0.24437 0.75968
 O362 O 0.26458 0.22884 0.71137
 O363 O 0.24356 0.20776 0.75968
 O364 O 0.22761 0.26549 0.71132
 Cu365 Cu 0.26400 0.26528 0.76650
 Cu366 Cu 0.23299 0.23400 0.73265
 C367 C 0.23795 0.28820 0.71713
 C368 C 0.25900 0.21108 0.78204
 C369 C 0.28723 0.23933 0.71722
 C370 C 0.20981 0.25983 0.78205
 O371 O 0.74593 0.70854 0.73939
 O372 O 0.73013 0.76624 0.78782
 O373 O 0.70912 0.74532 0.73943
 O374 O 0.76689 0.72946 0.78781
 O375 O 0.79286 0.75542 0.75975
 O376 O 0.73508 0.77129 0.71137
 O377 O 0.75609 0.79221 0.75977
 O378 O 0.77190 0.73449 0.71133
 Cu379 Cu 0.73539 0.73477 0.76643
 Cu380 Cu 0.76660 0.76597 0.73271
 C381 C 0.76146 0.71181 0.71708
 C382 C 0.74059 0.78891 0.78210
 C383 C 0.71238 0.76087 0.71715
 C384 C 0.78958 0.73991 0.78207
 C385 C 0.26601 0.11310 0.09229
 C386 C 0.27729 0.10930 0.12071
 C387 C 0.29071 0.08541 0.12720
 C388 C 0.29281 0.06535 0.10533
 C389 C 0.28149 0.06887 0.07651
 C390 C 0.26807 0.09316 0.07041
 C391 C 0.27478 0.12999 0.14310
 C392 C 0.27214 0.14773 0.16125
 C393 C 0.26842 0.16894 0.18183
 C394 C 0.26469 0.18737 0.19884
 H395 H 0.25542 0.13146 0.08708
 H396 H 0.29963 0.08230 0.14912
 H397 H 0.30386 0.04732 0.11076
 H398 H 0.25846 0.09647 0.04890
 C399 C 0.80107 0.61067 0.60037
 C400 C 0.78051 0.60986 0.62183
 C401 C 0.76200 0.58864 0.62171
 C402 C 0.76377 0.56851 0.59995
 C403 C 0.78407 0.56946 0.57809
 C404 C 0.80288 0.59053 0.57861
 C405 C 0.77770 0.63133 0.64320
 C406 C 0.77481 0.64952 0.66073
 C407 C 0.77079 0.67102 0.68082
 C408 C 0.76683 0.68956 0.69759
 H409 H 0.81545 0.62703 0.60023
 H410 H 0.74596 0.58788 0.63815
 H411 H 0.74908 0.55243 0.59980
 H412 H 0.81869 0.59150 0.56193
 C413 C 0.70967 0.91465 0.12741
 C414 C 0.72311 0.89078 0.12088
 C415 C 0.73432 0.88697 0.09242
 C416 C 0.73217 0.90691 0.07053
 C417 C 0.71873 0.93117 0.07667
 C418 C 0.70748 0.93469 0.10553
 C419 C 0.72570 0.87010 0.14327
 C420 C 0.72839 0.85237 0.16143
 C421 C 0.73216 0.83117 0.18201
 C422 C 0.73590 0.81275 0.19902
 H423 H 0.70080 0.91776 0.14936
 H424 H 0.74493 0.86863 0.08719
 H425 H 0.74174 0.90359 0.04899
 H426 H 0.69641 0.95270 0.11098
 C427 C 0.19860 0.38930 0.60026
 C428 C 0.21909 0.39011 0.62178
 C429 C 0.23762 0.41131 0.62170
 C430 C 0.23592 0.43143 0.59992
 C431 C 0.21568 0.43050 0.57800
 C432 C 0.19686 0.40944 0.57848
 C433 C 0.22183 0.36865 0.64317
 C434 C 0.22467 0.35047 0.66073
 C435 C 0.22864 0.32897 0.68084
 C436 C 0.23258 0.31044 0.69763
 H437 H 0.18420 0.37295 0.60008
 H438 H 0.25361 0.41208 0.63818
 H439 H 0.25062 0.44751 0.59981
 H440 H 0.18109 0.40847 0.56176
 C441 C 0.91225 0.26366 0.12289
 C442 C 0.89029 0.28109 0.12216
 C443 C 0.88878 0.30086 0.09987
 C444 C 0.90895 0.30295 0.07814
 C445 C 0.93080 0.28524 0.07848
 C446 C 0.93242 0.26572 0.10117
 C447 C 0.86881 0.27792 0.14351
 C448 C 0.85061 0.27473 0.16103
 C449 C 0.82909 0.27039 0.18110
 C450 C 0.81055 0.26617 0.19787
 H451 H 0.91356 0.24823 0.13996
 H452 H 0.87184 0.31439 0.09905
 H453 H 0.90740 0.31812 0.06081
 H454 H 0.94905 0.25181 0.10167
 C455 C 0.41151 0.76248 0.62230
 C456 C 0.39036 0.78089 0.62255
 C457 C 0.38959 0.80147 0.60115
 C458 C 0.40971 0.80343 0.57933
 C459 C 0.43072 0.78475 0.57870
 C460 C 0.43161 0.76441 0.60049
 C461 C 0.36892 0.77795 0.64400
 C462 C 0.35076 0.77493 0.66161
 C463 C 0.32928 0.77075 0.68177
 C464 C 0.31075 0.76663 0.69859
 H465 H 0.41224 0.74643 0.63869
 H466 H 0.37328 0.81577 0.60109
 H467 H 0.40878 0.81927 0.56271
 H468 H 0.44765 0.74981 0.60027
 C469 C 0.11482 0.70506 0.09484
 C470 C 0.10995 0.71874 0.12171
 C471 C 0.08478 0.73014 0.12688
 C472 C 0.06465 0.72824 0.10510
 C473 C 0.06939 0.71497 0.07758
 C474 C 0.09476 0.70314 0.07300
 C475 C 0.13118 0.72206 0.14334
 C476 C 0.14922 0.72534 0.16102
 C477 C 0.17063 0.72973 0.18121
 C478 C 0.18914 0.73398 0.19801
 H479 H 0.13423 0.69608 0.09063
 H480 H 0.08087 0.74096 0.14753
 H481 H 0.04572 0.73817 0.10931
 H482 H 0.09904 0.69216 0.05256
 C483 C 0.61028 0.19873 0.60156
 C484 C 0.60952 0.21933 0.62294
 C485 C 0.58839 0.23776 0.62267
 C486 C 0.56830 0.23584 0.60086
 C487 C 0.56918 0.21548 0.57908
 C488 C 0.59017 0.19677 0.57974
 C489 C 0.63095 0.22226 0.64439
 C490 C 0.64910 0.22526 0.66198
 C491 C 0.67059 0.22942 0.68214
 C492 C 0.68913 0.23353 0.69893
 H493 H 0.62657 0.18441 0.60152
 H494 H 0.58766 0.25382 0.63904
 H495 H 0.55228 0.25045 0.60061
 H496 H 0.59110 0.18091 0.56314
 C497 C 0.69625 0.10238 0.89054
 C498 C 0.72153 0.10978 0.87946
 C499 C 0.74449 0.09653 0.88967
 C500 C 0.74224 0.07602 0.91093
 C501 C 0.71694 0.06841 0.92218
 C502 C 0.69395 0.08185 0.91183
 C503 C 0.72412 0.13135 0.85813
 C504 C 0.72685 0.14955 0.84053
 C505 C 0.73068 0.17101 0.82026
 C506 C 0.73451 0.18949 0.80328
 H507 H 0.67836 0.11258 0.88287
 H508 H 0.76416 0.10222 0.88140
 H509 H 0.76030 0.06636 0.91900
 H510 H 0.67425 0.07638 0.92022
 C511 C 0.19954 0.61040 0.39899
 C512 C 0.22012 0.60977 0.37756
 C513 C 0.23857 0.58866 0.37764
 C514 C 0.23670 0.56846 0.39933
 C515 C 0.21637 0.56923 0.42117
 C516 C 0.19763 0.59019 0.42068
 C517 C 0.22303 0.63132 0.35627
 C518 C 0.22599 0.64957 0.33881
 C519 C 0.23007 0.67114 0.31877
 C520 C 0.23409 0.68972 0.30200
 H521 H 0.18521 0.62668 0.39917
 H522 H 0.25462 0.58802 0.36123
 H523 H 0.25134 0.55246 0.39945
 H524 H 0.18181 0.59103 0.43734
 C525 C 0.25526 0.90346 0.88957
 C526 C 0.27823 0.89023 0.87932
 C527 C 0.30350 0.89763 0.89040
 C528 C 0.30579 0.91815 0.91171
 C529 C 0.28279 0.93157 0.92209
 C530 C 0.25749 0.92395 0.91085
 C531 C 0.27565 0.86869 0.85796
 C532 C 0.27294 0.85051 0.84033
 C533 C 0.26915 0.82906 0.82003
 C534 C 0.26535 0.81060 0.80303
 H535 H 0.23559 0.89776 0.88131
 H536 H 0.32139 0.88745 0.88270
 H537 H 0.32548 0.92361 0.92009
 H538 H 0.23942 0.93359 0.91893
 C539 C 0.80031 0.38959 0.39898
 C540 C 0.77971 0.39026 0.37758
 C541 C 0.76129 0.41139 0.37771
 C542 C 0.76319 0.43157 0.39941
 C543 C 0.78353 0.43076 0.42122
 C544 C 0.80225 0.40978 0.42069
 C545 C 0.77678 0.36874 0.35626
 C546 C 0.77380 0.35051 0.33878
 C547 C 0.76970 0.32896 0.31872
 C548 C 0.76567 0.31039 0.30194
 H549 H 0.81462 0.37330 0.39912
 H550 H 0.74523 0.41205 0.36131
 H551 H 0.74857 0.44758 0.39957
 H552 H 0.81808 0.40891 0.43733
 C553 C 0.09759 0.30174 0.88582
 C554 C 0.10842 0.27666 0.87870
 C555 C 0.09901 0.25364 0.89337
 C556 C 0.07897 0.25565 0.91521
 C557 C 0.06800 0.28075 0.92258
 C558 C 0.07751 0.30381 0.90768
 C559 C 0.12965 0.27445 0.85691
 C560 C 0.14768 0.27202 0.83907
 C561 C 0.16907 0.26849 0.81866
 C562 C 0.18755 0.26488 0.80168
 H563 H 0.10487 0.31971 0.87474
 H564 H 0.10730 0.23414 0.88810
 H565 H 0.07199 0.23761 0.92641
 H566 H 0.06975 0.32343 0.91338
 C567 C 0.61105 0.80198 0.39976
 C568 C 0.61021 0.78147 0.37825
 C569 C 0.58890 0.76306 0.37828
 C570 C 0.56871 0.76488 0.39998
 C571 C 0.56968 0.78512 0.42190
 C572 C 0.59084 0.80383 0.42147
 C573 C 0.63175 0.77861 0.35695
 C574 C 0.64999 0.77568 0.33948
 C575 C 0.67157 0.77164 0.31946
 C576 C 0.69016 0.76765 0.30274
 H577 H 0.62748 0.81628 0.39999
 H578 H 0.58810 0.74708 0.36181
 H579 H 0.55255 0.75027 0.40005
 H580 H 0.59185 0.81959 0.43819
 C581 C 0.88867 0.70216 0.90144
 C582 C 0.89103 0.72089 0.87811
 C583 C 0.91368 0.73756 0.87654
 C584 C 0.93370 0.73581 0.89844
 C585 C 0.93121 0.71741 0.92217
 C586 C 0.90869 0.70038 0.92334
 C587 C 0.86974 0.72376 0.85651
 C588 C 0.85168 0.72667 0.83880
 C589 C 0.83029 0.73067 0.81853
 C590 C 0.81181 0.73459 0.80163
 H591 H 0.87121 0.68920 0.90290
 H592 H 0.91567 0.75217 0.85864
 H593 H 0.95093 0.74910 0.89721
 H594 H 0.90653 0.68597 0.94141
 C595 C 0.41121 0.23692 0.37857
 C596 C 0.38988 0.21853 0.37854
 C597 C 0.38899 0.19805 0.40007
 C598 C 0.40916 0.19620 0.42181
 C599 C 0.43033 0.21489 0.42225
 C600 C 0.43136 0.23511 0.40031
 C601 C 0.36840 0.22138 0.35718
 C602 C 0.35020 0.22431 0.33966
 C603 C 0.32869 0.22837 0.31957
 C604 C 0.31017 0.23238 0.30277
 H605 H 0.41205 0.25289 0.36207
 H606 H 0.37255 0.18376 0.40030
 H607 H 0.40811 0.18046 0.43855
 H608 H 0.44753 0.24971 0.40038
 C609 C 0.73409 0.88563 0.90810
 C610 C 0.72261 0.88917 0.87973
 C611 C 0.70912 0.91299 0.87308
 C612 C 0.70721 0.93326 0.89470
 C613 C 0.71882 0.93004 0.92341
 C614 C 0.73223 0.90580 0.92974
 C615 C 0.72510 0.86838 0.85750
 C616 C 0.72776 0.85061 0.83939
 C617 C 0.73155 0.82945 0.81880
 C618 C 0.73536 0.81108 0.80174
 H619 H 0.74473 0.86732 0.91343
 H620 H 0.70005 0.91588 0.85120
 H621 H 0.69616 0.95126 0.88916
 H622 H 0.74199 0.90273 0.95120
 C623 C 0.23861 0.41091 0.37787
 C624 C 0.22016 0.38963 0.37778
 C625 C 0.19954 0.38886 0.39916
 C626 C 0.19760 0.40909 0.42081
 C627 C 0.21634 0.43022 0.42131
 C628 C 0.23670 0.43113 0.39952
 C629 C 0.22308 0.36807 0.35652
 C630 C 0.22601 0.34981 0.33908
 C631 C 0.23002 0.32819 0.31911
 C632 C 0.23392 0.30956 0.30242
 H633 H 0.25469 0.41166 0.36149
 H634 H 0.18520 0.37246 0.39934
 H635 H 0.18174 0.40813 0.43743
 H636 H 0.25134 0.44726 0.39963
 C637 C 0.26582 0.11438 0.90801
 C638 C 0.27720 0.11080 0.87959
 C639 C 0.29063 0.08696 0.87289
 C640 C 0.29257 0.06669 0.89451
 C641 C 0.28104 0.06993 0.92327
 C642 C 0.26770 0.09420 0.92965
 C643 C 0.27468 0.13160 0.85736
 C644 C 0.27198 0.14936 0.83927
 C645 C 0.26814 0.17053 0.81869
 C646 C 0.26429 0.18891 0.80166
 H647 H 0.25523 0.13270 0.91338
 H648 H 0.29963 0.08404 0.85097
 H649 H 0.30357 0.04867 0.88893
 H650 H 0.25801 0.09730 0.95115
 C651 C 0.80072 0.61112 0.39933
 C652 C 0.78012 0.61041 0.37792
 C653 C 0.76163 0.58916 0.37796
 C654 C 0.76347 0.56892 0.39959
 C655 C 0.78381 0.56977 0.42141
 C656 C 0.80259 0.59086 0.42095
 C657 C 0.77727 0.63200 0.35669
 C658 C 0.77438 0.65029 0.33928
 C659 C 0.77042 0.67193 0.31933
 C660 C 0.76654 0.69057 0.30265
 H661 H 0.81509 0.62749 0.39954
 H662 H 0.74558 0.58846 0.36157
 H663 H 0.74880 0.55282 0.39967
 H664 H 0.81843 0.59177 0.43760
 C665 C 0.08450 0.72934 0.87326
 C666 C 0.10970 0.71802 0.87846
 C667 C 0.11463 0.70449 0.90541
 C668 C 0.09461 0.70267 0.92731
 C669 C 0.06923 0.71445 0.92272
 C670 C 0.06441 0.72754 0.89511
 C671 C 0.13090 0.72130 0.85678
 C672 C 0.14894 0.72456 0.83907
 C673 C 0.17035 0.72896 0.81888
 C674 C 0.18887 0.73323 0.80208
 H675 H 0.08054 0.74004 0.85255
 H676 H 0.13406 0.69558 0.90964
 H677 H 0.09894 0.69182 0.94783
 H678 H 0.04547 0.73742 0.89088
 C679 C 0.58838 0.23733 0.37855
 C680 C 0.60959 0.21900 0.37836
 C681 C 0.61046 0.19851 0.39986
 C682 C 0.59038 0.19656 0.42172
 C683 C 0.56930 0.21517 0.42230
 C684 C 0.56831 0.23542 0.40040
 C685 C 0.63097 0.22192 0.35682
 C686 C 0.64907 0.22491 0.33913
 C687 C 0.67048 0.22905 0.31886
 C688 C 0.68895 0.23313 0.30194
 H689 H 0.58756 0.25332 0.36208
 H690 H 0.62682 0.18426 0.39996
 H691 H 0.59139 0.18078 0.43841
 H692 H 0.55221 0.24996 0.40058
 C693 C 0.91501 0.26904 0.87405
 C694 C 0.89045 0.28197 0.87835
 C695 C 0.88620 0.29713 0.90434
 C696 C 0.90622 0.29899 0.92623
 C697 C 0.93089 0.28557 0.92258
 C698 C 0.93509 0.27087 0.89589
 C699 C 0.86918 0.27872 0.85676
 C700 C 0.85110 0.27547 0.83912
 C701 C 0.82965 0.27108 0.81899
 C702 C 0.81111 0.26682 0.80224
 H703 H 0.91845 0.25711 0.85408
 H704 H 0.86728 0.30730 0.90785
 H705 H 0.90247 0.31109 0.94600
 H706 H 0.95354 0.25987 0.89243
 C707 C 0.38952 0.80162 0.39955
 C708 C 0.39033 0.78110 0.37806
 C709 C 0.41153 0.76274 0.37824
 C710 C 0.43162 0.76465 0.40005
 C711 C 0.43068 0.78492 0.42192
 C712 C 0.40963 0.80356 0.42136
 C713 C 0.36892 0.77818 0.35659
 C714 C 0.35079 0.77519 0.33896
 C715 C 0.32934 0.77106 0.31875
 C716 C 0.31083 0.76698 0.30189
 H717 H 0.37318 0.81588 0.39966
 H718 H 0.41231 0.74674 0.36179
 H719 H 0.44770 0.75008 0.40021
 H720 H 0.40865 0.81935 0.43804
 C721 C 0.26169 0.88944 0.09430
 C722 C 0.27887 0.88921 0.11918
 C723 C 0.29850 0.90923 0.12231
 C724 C 0.30095 0.92938 0.10058
 C725 C 0.28382 0.92960 0.07552
 C726 C 0.26410 0.90955 0.07260
 C727 C 0.27620 0.86837 0.14136
 C728 C 0.27342 0.85061 0.15950
 C729 C 0.26956 0.82949 0.18018
 C730 C 0.26571 0.81117 0.19735
 H731 H 0.24639 0.87410 0.09169
 H732 H 0.31187 0.90926 0.14150
 H733 H 0.31618 0.94477 0.10321
 H734 H 0.25057 0.90957 0.05355
 C735 C 0.76122 0.41137 0.62160
 C736 C 0.77955 0.39016 0.62174
 C737 C 0.80006 0.38933 0.60022
 C738 C 0.80202 0.40946 0.57843
 C739 C 0.78342 0.43054 0.57792
 C740 C 0.76315 0.43149 0.59982
 C741 C 0.77665 0.36876 0.64323
 C742 C 0.77372 0.35065 0.66089
 C743 C 0.76970 0.32922 0.68117
 C744 C 0.76576 0.31076 0.69812
 H745 H 0.74523 0.41217 0.63808
 H746 H 0.81431 0.37298 0.60008
 H747 H 0.81781 0.40848 0.56174
 H748 H 0.74862 0.44758 0.59970
 C749 C 0.73809 0.11065 0.09428
 C750 C 0.72094 0.11085 0.11920
 C751 C 0.70137 0.09079 0.12240
 C752 C 0.69894 0.07062 0.10069
 C753 C 0.71603 0.07043 0.07558
 C754 C 0.73570 0.09052 0.07260
 C755 C 0.72360 0.13172 0.14137
 C756 C 0.72635 0.14949 0.15949
 C757 C 0.73019 0.17062 0.18016
 C758 C 0.73402 0.18895 0.19731
 H759 H 0.75334 0.12604 0.09162
 H760 H 0.68803 0.09074 0.14163
 H761 H 0.68375 0.05519 0.10337
 H762 H 0.74920 0.09053 0.05352
 C763 C 0.19984 0.61066 0.60013
 C764 C 0.22034 0.60982 0.62164
 C765 C 0.23865 0.58859 0.62152
 C766 C 0.23670 0.56846 0.59976
 C767 C 0.21645 0.56942 0.57786
 C768 C 0.19786 0.59052 0.57835
 C769 C 0.22326 0.63124 0.64310
 C770 C 0.22621 0.64937 0.66074
 C771 C 0.23024 0.67081 0.68099
 C772 C 0.23418 0.68929 0.69791
 H773 H 0.18561 0.62702 0.59997
 H774 H 0.25463 0.58779 0.63800
 H775 H 0.25122 0.55235 0.59964
 H776 H 0.18208 0.59151 0.56166
 C777 C 0.91387 0.73837 0.12399
 C778 C 0.89123 0.72166 0.12261
 C779 C 0.88887 0.70277 0.09946
 C780 C 0.90887 0.70085 0.07753
 C781 C 0.93137 0.71792 0.07850
 C782 C 0.93387 0.73649 0.10207
 C783 C 0.86996 0.72468 0.14421
 C784 C 0.85190 0.72770 0.16191
 C785 C 0.83050 0.73180 0.18215
 C786 C 0.81200 0.73580 0.19900
 H787 H 0.91587 0.75311 0.14176
 H788 H 0.87141 0.68978 0.09814
 H789 H 0.90669 0.68632 0.05959
 H790 H 0.95109 0.74980 0.10314
 C791 C 0.41095 0.23813 0.62231
 C792 C 0.38960 0.21976 0.62249
 C793 C 0.38875 0.19908 0.60119
 C794 C 0.40897 0.19702 0.57953
 C795 C 0.43016 0.21568 0.57894
 C796 C 0.43116 0.23609 0.60065
 C797 C 0.36806 0.22281 0.64375
 C798 C 0.34980 0.22585 0.66119
 C799 C 0.32820 0.22998 0.68116
 C800 C 0.30958 0.23398 0.69783
 H801 H 0.41176 0.25424 0.63863
 H802 H 0.37229 0.18481 0.60109
 H803 H 0.40795 0.18112 0.56297
 H804 H 0.44734 0.25068 0.60046
 C805 C 0.11101 0.29854 0.10014
 C806 C 0.10965 0.27838 0.12202
 C807 C 0.08799 0.26038 0.12218
 C808 C 0.06795 0.26229 0.10033
 C809 C 0.06943 0.28220 0.07808
 C810 C 0.09095 0.30049 0.07828
 C811 C 0.13097 0.27547 0.14358
 C812 C 0.14901 0.27251 0.16129
 C813 C 0.17037 0.26844 0.18159
 C814 C 0.18880 0.26444 0.19852
 H815 H 0.12771 0.31253 0.09976
 H816 H 0.08679 0.24466 0.13895
 H817 H 0.05149 0.24803 0.10045
 H818 H 0.09233 0.31601 0.06130
 C819 C 0.58887 0.76219 0.62203
 C820 C 0.61024 0.78055 0.62219
 C821 C 0.61113 0.80118 0.60084
 C822 C 0.59093 0.80322 0.57915
 C823 C 0.56972 0.78457 0.57859
 C824 C 0.56869 0.76420 0.60035
 C825 C 0.63175 0.77752 0.64349
 C826 C 0.64997 0.77448 0.66095
 C827 C 0.67152 0.77033 0.68098
 C828 C 0.69009 0.76629 0.69770
 H829 H 0.58803 0.74611 0.63839
 H830 H 0.62759 0.81545 0.60071
 H831 H 0.59198 0.81908 0.56256
 H832 H 0.55250 0.74963 0.60018
   
