data_POSCAR
  _audit_creation_date              2014-09-24
  _audit_creation_method            'ToBaCCo'
  _symmetry_space_group_name_H-M    'P1'
  _symmetry_Int_Tables_number       1
  _symmetry_cell_setting            triclinic
  loop_
  _symmetry_equiv_pos_as_xyz
 x,y,z
_cell_length_a 10.0667
_cell_length_b 33.1207
_cell_length_c 10.2683
_cell_angle_alpha 90.019100
_cell_angle_beta 89.634600
_cell_angle_gamma 89.944900
loop_
  _atom_site_label
  _atom_site_type_symbol
  _atom_site_fract_x
  _atom_site_fract_y
  _atom_site_fract_z
N1 N 0.18873 0.04256 0.19634
 N2 N 0.25013 0.07757 0.20781
 N3 N 0.07520 -0.04223 0.26286
 N4 N 0.05716 -0.07718 0.32197
 N5 N 0.18904 -0.04230 0.19948
 N6 N 0.25090 -0.07711 0.21519
 N7 N 0.07456 0.04330 0.25896
 N8 N 0.05592 0.07911 0.31289
 C9 C 0.16749 0.09983 0.28265
 C10 C 0.16826 -0.09849 0.29294
 N11 N -0.26524 -0.04338 0.07967
 N12 N -0.32413 -0.07856 0.06379
 N13 N -0.20182 0.04270 0.18641
 N14 N -0.20548 0.07932 0.23742
 N15 N -0.26824 0.04170 0.07656
 N16 N -0.32000 0.07995 0.05162
 N17 N -0.20150 -0.04265 0.19101
 N18 N -0.21651 -0.07733 0.25310
 Mn19 Mn -0.06399 0.00027 0.22638
 C20 C -0.29465 -0.09930 0.17339
 C21 C -0.27682 0.10202 0.15361
 N22 N 0.26507 -0.04328 -0.07175
 N23 N 0.32401 -0.08071 -0.05037
 N24 N 0.19847 0.04129 -0.18574
 N25 N 0.20568 0.07700 -0.24249
 N26 N 0.26295 0.04179 -0.07475
 N27 N 0.31468 0.07782 -0.05449
 N28 N 0.20067 -0.04411 -0.18262
 N29 N 0.21409 -0.07976 -0.23948
 Mn30 Mn 0.22753 -0.00037 0.06267
 C31 C 0.28938 -0.10205 -0.15726
 C32 C 0.27921 0.09942 -0.16015
 N33 N -0.19211 0.04082 -0.19517
 N34 N -0.25243 0.07602 -0.20790
 N35 N -0.07670 -0.04493 -0.25403
 N36 N -0.05797 -0.08052 -0.30937
 N37 N -0.19198 -0.04393 -0.19350
 N38 N -0.25738 -0.08067 -0.21064
 N39 N -0.07787 0.04098 -0.25796
 N40 N -0.05827 0.07658 -0.31294
 Mn41 Mn -0.23036 -0.00126 -0.05829
 Mn42 Mn 0.06161 -0.00175 -0.22178
 Cl43 Cl -0.00131 -0.00081 0.00218
 C44 C -0.16920 0.09779 -0.28353
 C45 C -0.16920 -0.10223 -0.28261
 N46 N 0.76655 0.54210 0.57468
 N47 N 0.82614 0.57716 0.55655
 N48 N 0.69962 0.45707 0.68622
 N49 N 0.71439 0.42235 0.74776
 N50 N 0.76445 0.45655 0.57472
 N51 N 0.82352 0.42129 0.55783
 N52 N 0.70092 0.54226 0.68576
 N53 N 0.71526 0.57734 0.74538
 C54 C 0.79500 0.59870 0.66451
 C55 C 0.79319 0.40043 0.66738
 N56 N 0.30932 0.45794 0.69474
 N57 N 0.24574 0.42345 0.71138
 N58 N 0.42354 0.54279 0.75806
 N59 N 0.44060 0.57743 0.81916
 N60 N 0.31093 0.54311 0.69404
 N61 N 0.24916 0.57800 0.71058
 N62 N 0.42234 0.45758 0.75808
 N63 N 0.43816 0.42274 0.81840
 Mn64 Mn 0.56208 0.49993 0.72347
 C65 C 0.32649 0.40192 0.78996
 C66 C 0.33042 0.59897 0.79025
 N67 N 0.69269 0.45693 0.30328
 N68 N 0.75499 0.42219 0.28660
 N69 N 0.58179 0.54213 0.23931
 N70 N 0.56494 0.57701 0.17977
 N71 N 0.69458 0.54203 0.30306
 N72 N 0.75674 0.57685 0.28758
 N73 N 0.57962 0.45700 0.24003
 N74 N 0.56239 0.42221 0.17982
 Mn75 Mn 0.73117 0.49940 0.43851
 C76 C 0.67332 0.40097 0.20818
 C77 C 0.67545 0.59823 0.20908
 N78 N 0.23889 0.54303 0.42248
 N79 N 0.17847 0.57803 0.43923
 N80 N 0.30243 0.45787 0.31167
 N81 N 0.28553 0.42336 0.24966
 N82 N 0.23775 0.45765 0.42325
 N83 N 0.17667 0.42274 0.43982
 N84 N 0.30445 0.54283 0.31139
 N85 N 0.28924 0.57760 0.25019
 Mn86 Mn 0.27264 0.50044 0.55911
 Mn87 Mn 0.44170 0.49996 0.27418
 Cl88 Cl 0.50188 0.49995 0.49882
 C89 C 0.20906 0.59914 0.33031
 C90 C 0.20563 0.40186 0.32987
 C91 C 0.18186 0.22877 0.28809
 C92 C 0.26258 0.20630 0.37275
 C93 C 0.25968 0.16407 0.37059
 C94 C 0.17399 0.14399 0.28569
 C95 C 0.09678 0.16627 0.19809
 C96 C 0.10151 0.20839 0.19838
 C97 C 0.17925 0.27330 0.29589
 C98 C 0.19904 0.29703 0.18423
 C99 C 0.20238 0.33915 0.19384
 C100 C 0.18349 0.35811 0.31499
 C101 C 0.15693 0.33436 0.42512
 C102 C 0.15597 0.29235 0.41588
 H103 H 0.32276 0.14715 0.43597
 H104 H 0.03301 0.15098 0.12926
 H105 H 0.22259 0.35684 0.10728
 H106 H 0.14156 0.34824 0.51931
 H107 H 0.04032 0.22502 0.13058
 H108 H 0.21558 0.28292 0.09060
 H109 H 0.32805 0.22151 0.44014
 H110 H 0.13699 0.27472 0.50255
 C111 C 0.69023 0.77165 0.19179
 C112 C 0.70977 0.79387 0.30657
 C113 C 0.70889 0.83622 0.30323
 C114 C 0.68813 0.85660 0.18504
 C115 C 0.66354 0.83406 0.07244
 C116 C 0.66484 0.79209 0.07562
 C117 C 0.69049 0.72718 0.19198
 C118 C 0.57364 0.70647 0.16207
 C119 C 0.57144 0.66445 0.16083
 C120 C 0.68598 0.64226 0.19028
 C121 C 0.80499 0.66294 0.21474
 C122 C 0.80723 0.70524 0.21533
 H123 H 0.72681 0.85296 0.39201
 H124 H 0.64673 0.84903 -0.01910
 H125 H 0.47891 0.64927 0.14077
 H126 H 0.89527 0.64645 0.23573
 H127 H 0.64736 0.77549 -0.01304
 H128 H 0.48356 0.72289 0.14130
 H129 H 0.72588 0.77852 0.39808
 H130 H 0.89961 0.72074 0.23390
 C131 C 0.81775 0.22694 0.70762
 C132 C 0.73876 0.20431 0.62186
 C133 C 0.74166 0.16206 0.62477
 C134 C 0.82552 0.14203 0.71170
 C135 C 0.90200 0.16449 0.79951
 C136 C 0.89731 0.20666 0.79834
 C137 C 0.81916 0.27156 0.70017
 C138 C 0.79751 0.29523 0.81180
 C139 C 0.79373 0.33740 0.80259
 C140 C 0.81389 0.35651 0.68190
 C141 C 0.84165 0.33280 0.57179
 C142 C 0.84315 0.29076 0.58061
 H143 H 0.67973 0.14506 0.55861
 H144 H 0.96500 0.14931 0.86934
 H145 H 0.77260 0.35501 0.88916
 H146 H 0.85798 0.34675 0.47789
 H147 H 0.95788 0.22341 0.86637
 H148 H 0.78012 0.28104 0.90514
 H149 H 0.67432 0.21941 0.55323
 H150 H 0.86341 0.27322 0.49397
 C151 C 0.31519 0.77257 0.82200
 C152 C 0.35872 0.79327 0.93261
 C153 C 0.35753 0.83533 0.93636
 C154 C 0.30900 0.85785 0.83054
 C155 C 0.27246 0.83700 0.71660
 C156 C 0.27560 0.79476 0.71252
 C157 C 0.31437 0.72792 0.82096
 C158 C 0.20041 0.70633 0.78465
 C159 C 0.20234 0.66404 0.78164
 C160 C 0.31870 0.64286 0.81350
 C161 C 0.43003 0.66455 0.85544
 C162 C 0.42793 0.70660 0.85892
 H163 H 0.38844 0.85001 1.02521
 H164 H 0.24162 0.85326 0.63048
 H165 H 0.11404 0.64796 0.75181
 H166 H 0.52044 0.64902 0.88157
 H167 H 0.24778 0.77942 0.62381
 H168 H 0.11033 0.72218 0.75856
 H169 H 0.39060 0.77682 1.01765
 H170 H 0.51626 0.72258 0.88829
 C171 C 0.28594 0.22891 0.83104
 C172 C 0.23339 0.20710 0.72623
 C173 C 0.23457 0.16491 0.72717
 C174 C 0.28720 0.14384 0.83367
 C175 C 0.33589 0.16572 0.94023
 C176 C 0.33546 0.20783 0.93872
 C177 C 0.29280 0.27347 0.82698
 C178 C 0.41283 0.29306 0.85437
 C179 C 0.42165 0.33502 0.84853
 C180 C 0.31095 0.35825 0.81351
 C181 C 0.18990 0.33878 0.78830
 C182 C 0.18111 0.29667 0.79442
 H183 H 0.19186 0.14879 0.64587
 H184 H 0.37196 0.15033 1.02604
 H185 H 0.51650 0.34919 0.86683
 H186 H 0.10305 0.35606 0.76109
 H187 H 0.37190 0.22395 1.02272
 H188 H 0.50101 0.27580 0.87644
 H189 H 0.19193 0.22266 0.64355
 H190 H 0.08766 0.28218 0.77309
 C191 C 0.81208 0.77263 0.68029
 C192 C 0.69928 0.79426 0.72067
 C193 C 0.70197 0.83654 0.72593
 C194 C 0.81848 0.85791 0.69249
 C195 C 0.92666 0.83599 0.64164
 C196 C 0.92402 0.79392 0.63748
 C197 C 0.81350 0.72796 0.67989
 C198 C 0.84790 0.70712 0.56589
 C199 C 0.84821 0.66503 0.56335
 C200 C 0.81377 0.64282 0.67470
 C201 C 0.78466 0.66358 0.79079
 C202 C 0.78447 0.70588 0.79331
 H203 H 0.61355 0.85232 0.75858
 H204 H 1.01608 0.85119 0.61030
 H205 H 0.87166 0.64980 0.47306
 H206 H 0.76011 0.64714 0.87882
 H207 H 1.01101 0.77786 0.60408
 H208 H 0.87217 0.72348 0.47803
 H209 H 0.60956 0.77845 0.74872
 H210 H 0.76219 0.72130 0.88367
 C211 C 0.18607 0.77253 0.30978
 C212 C 0.06798 0.79306 0.33822
 C213 C 0.06448 0.83507 0.33880
 C214 C 0.17902 0.85746 0.31054
 C215 C 0.29884 0.83697 0.28558
 C216 C 0.30231 0.79468 0.28520
 C217 C 0.18726 0.72805 0.31101
 C218 C 0.21395 0.70584 0.19741
 C219 C 0.21480 0.66354 0.20111
 C220 C 0.18919 0.64312 0.31861
 C221 C 0.15737 0.66558 0.43016
 C222 C 0.15674 0.70759 0.42648
 H223 H -0.02884 0.85011 0.35799
 H224 H 0.38894 0.85361 0.26443
 H225 H 0.23796 0.64685 0.11314
 H226 H 0.13681 0.65061 0.52144
 H227 H 0.39529 0.77932 0.26621
 H228 H 0.23436 0.72120 0.10646
 H229 H -0.02200 0.77651 0.35871
 H230 H 0.13450 0.72416 0.51446
 C231 C 0.71013 0.22787 0.16607
 C232 C 0.65618 0.20683 0.06050
 C233 C 0.65738 0.16473 0.05776
 C234 C 0.71397 0.14254 0.16049
 C235 C 0.76933 0.16387 0.26581
 C236 C 0.76793 0.20603 0.26796
 C237 C 0.70371 0.27246 0.17060
 C238 C 0.81617 0.29543 0.20201
 C239 C 0.80830 0.33753 0.20837
 C240 C 0.68742 0.35727 0.18451
 C241 C 0.57579 0.33433 0.15075
 C242 C 0.58369 0.29234 0.14470
 H243 H 0.61749 0.14975 -0.02723
 H244 H 0.81632 0.14815 0.34575
 H245 H 0.89580 0.35458 0.23472
 H246 H 0.48102 0.34874 0.13361
 H247 H 0.81208 0.22155 0.34938
 H248 H 0.90964 0.28079 0.22234
 H249 H 0.61547 0.22301 -0.02143
 H250 H 0.49489 0.27530 0.12358
   
