data_POSCAR
  _audit_creation_date              2014-09-24
  _audit_creation_method            'ToBaCCo'
  _symmetry_space_group_name_H-M    'P1'
  _symmetry_Int_Tables_number       1
  _symmetry_cell_setting            triclinic
  loop_
  _symmetry_equiv_pos_as_xyz
 x,y,z
_cell_length_a 28.7602
_cell_length_b 33.3987
_cell_length_c 29.7503
_cell_angle_alpha 85.173500
_cell_angle_beta 90.442600
_cell_angle_gamma 89.257200
loop_
  _atom_site_label
  _atom_site_type_symbol
  _atom_site_fract_x
  _atom_site_fract_y
  _atom_site_fract_z
C1 C 0.60449 0.63740 0.64858
 C2 C 0.60348 0.59731 0.66645
 C3 C 0.63142 0.56767 0.64835
 C4 C 0.66186 0.57955 0.61280
 C5 C 0.66529 0.62023 0.59684
 C6 C 0.63532 0.64863 0.61383
 H7 H 0.57917 0.58924 0.69318
 H8 H 0.68558 0.55796 0.59990
 H9 H 0.63698 0.67992 0.60101
 C10 C 0.88791 0.35606 0.12254
 C11 C 0.84427 0.36634 0.10276
 C12 C 0.81782 0.39879 0.11628
 C13 C 0.83534 0.42142 0.15005
 C14 C 0.87884 0.41192 0.17019
 C15 C 0.90429 0.37865 0.15717
 H16 H 0.83062 0.34931 0.07645
 H17 H 0.81576 0.44719 0.15967
 H18 H 0.93799 0.37189 0.17255
 C19 C 0.38946 0.14194 -0.12622
 C20 C 0.40557 0.11913 -0.16052
 C21 C 0.37952 0.08693 -0.17424
 C22 C 0.33607 0.07872 -0.15442
 C23 C 0.31928 0.10160 -0.12034
 C24 C 0.34621 0.13324 -0.10661
 H25 H 0.43933 0.12543 -0.17513
 H26 H 0.31608 0.05364 -0.16434
 H27 H 0.33428 0.15039 -0.07954
 C28 C 0.09299 0.86058 0.35312
 C29 C 0.12275 0.84857 0.38971
 C30 C 0.15439 0.87541 0.40653
 C31 C 0.15374 0.91574 0.38893
 C32 C 0.12418 0.92843 0.35261
 C33 C 0.09478 0.90061 0.33430
 H34 H 0.12315 0.81768 0.40393
 H35 H 0.17806 0.93668 0.40160
 H36 H 0.07176 0.91098 0.30670
 N37 N 0.06967 0.21201 0.09044
 N38 N 0.05879 0.20438 0.13314
 C39 C 0.02376 0.22920 0.14326
 C40 C 0.01178 0.25301 0.10450
 C41 C 0.04151 0.24133 0.07169
 H42 H 0.00631 0.22811 0.17541
 H43 H 0.04169 0.25242 0.03645
 Cu44 Cu 0.08742 0.15920 0.16950
 Cu45 Cu 0.11768 0.18132 0.06205
 Cu46 Cu 0.11906 0.08315 0.10827
 N47 N 0.10390 0.10633 0.19804
 N48 N 0.11401 0.07633 0.17369
 C49 C 0.12070 0.04267 0.20117
 C50 C 0.11535 0.05223 0.24512
 C51 C 0.10477 0.09291 0.24205
 H52 H 0.12963 0.01358 0.18998
 H53 H 0.09727 0.11110 0.26957
 N54 N 0.14355 0.09960 0.04768
 N55 N 0.14565 0.13752 0.03140
 C56 C 0.17037 0.13993 -0.00689
 C57 C 0.18428 0.10154 -0.01527
 C58 C 0.16653 0.07666 0.01979
 H59 H 0.17883 0.16766 -0.02635
 H60 H 0.17285 0.04470 0.02630
 H61 H 0.08190 0.13613 0.09379
 H62 H 0.14327 0.13918 0.11419
 N63 N 0.44976 0.80041 0.63193
 N64 N 0.45800 0.81099 0.67276
 C65 C 0.48716 0.78390 0.69446
 C66 C 0.49830 0.75528 0.66519
 C67 C 0.47428 0.76679 0.62571
 H68 H 0.49998 0.78529 0.72856
 H69 H 0.47373 0.75136 0.59516
 Cu70 Cu 0.43196 0.86051 0.69209
 Cu71 Cu 0.40662 0.83054 0.59086
 Cu72 Cu 0.33907 0.90323 0.63772
 N73 N 0.41266 0.91520 0.70056
 N74 N 0.37466 0.93129 0.68144
 C75 C 0.36733 0.96780 0.69649
 C76 C 0.40343 0.97507 0.72561
 C77 C 0.43157 0.94121 0.72730
 H78 H 0.33839 0.98769 0.68652
 H79 H 0.46268 0.93539 0.74759
 N80 N 0.32205 0.88007 0.58106
 N81 N 0.34821 0.85270 0.56345
 C82 C 0.32634 0.84032 0.52715
 C83 C 0.28479 0.86121 0.52116
 C84 C 0.28315 0.88648 0.55567
 H85 H 0.33906 0.81681 0.50740
 H86 H 0.25487 0.90651 0.56298
 H87 H 0.40202 0.88616 0.61807
 H88 H 0.36670 0.84410 0.64435
 N89 N 0.95199 0.69383 0.36932
 N90 N 0.95669 0.68569 0.32712
 C91 C 0.98189 0.71466 0.30499
 C92 C 0.99440 0.74178 0.33542
 C93 C 0.97527 0.72752 0.37600
 H94 H 0.99083 0.71573 0.26967
 H95 H 0.97647 0.74149 0.40750
 Cu96 Cu 0.93111 0.63686 0.30652
 Cu97 Cu 0.91315 0.66153 0.41111
 Cu98 Cu 0.84276 0.59251 0.36311
 N99 N 0.91275 0.58254 0.29661
 N100 N 0.87635 0.56591 0.31673
 C101 C 0.86934 0.52976 0.30102
 C102 C 0.90401 0.52323 0.27038
 C103 C 0.93097 0.55720 0.26847
 H104 H 0.84177 0.50949 0.31174
 H105 H 0.96089 0.56345 0.24734
 N106 N 0.82929 0.61327 0.42185
 N107 N 0.85683 0.63890 0.44011
 C108 C 0.83714 0.65028 0.47788
 C109 C 0.79549 0.63066 0.48403
 C110 C 0.79160 0.60708 0.44814
 H111 H 0.85113 0.67268 0.49827
 H112 H 0.76244 0.58863 0.44042
 H113 H 0.90677 0.60783 0.38059
 H114 H 0.86943 0.65138 0.35874
 N115 N 0.56610 0.28838 -0.09063
 N116 N 0.55399 0.29611 -0.13324
 C117 C 0.52000 0.27088 -0.14339
 C118 C 0.51007 0.24654 -0.10479
 C119 C 0.54001 0.25837 -0.07205
 H120 H 0.50243 0.27145 -0.17572
 H121 H 0.54206 0.24664 -0.03706
 Cu122 Cu 0.58127 0.34081 -0.16987
 Cu123 Cu 0.61328 0.31940 -0.06219
 Cu124 Cu 0.61059 0.41737 -0.10921
 N125 N 0.59735 0.39311 -0.19889
 N126 N 0.60576 0.42353 -0.17478
 C127 C 0.61298 0.45663 -0.20262
 C128 C 0.61017 0.44616 -0.24646
 C129 C 0.60031 0.40560 -0.24304
 H130 H 0.62168 0.48573 -0.19171
 H131 H 0.59532 0.38676 -0.27048
 N132 N 0.63624 0.40145 -0.04837
 N133 N 0.63982 0.36362 -0.03178
 C134 C 0.66557 0.36147 0.00627
 C135 C 0.67873 0.39991 0.01413
 C136 C 0.65935 0.42458 -0.02094
 H137 H 0.67558 0.33382 0.02568
 H138 H 0.66490 0.45645 -0.02799
 H139 H 0.57565 0.36421 -0.09431
 H140 H 0.63688 0.36131 -0.11441
 N141 N -0.05435 0.28358 0.05950
 N142 N -0.09001 0.31127 0.06518
 C143 C -0.08450 0.32522 0.10625
 C144 C -0.04598 0.30593 0.12770
 C145 C -0.02843 0.28035 0.09741
 H146 H -0.03215 0.30976 0.16096
 H147 H -0.04959 0.26803 0.03083
 H148 H -0.11387 0.32095 0.03984
 N149 N 0.53814 0.70171 0.71547
 N150 N 0.56530 0.67007 0.71102
 C151 C 0.57406 0.66787 0.66686
 C152 C 0.55109 0.69914 0.64207
 C153 C 0.52867 0.71978 0.67417
 H154 H 0.55074 0.70588 0.60584
 H155 H 0.52598 0.71035 0.74625
 H156 H 0.57813 0.65083 0.73789
 N157 N 1.01772 0.80285 0.28767
 N158 N 1.04387 0.83699 0.29337
 C159 C 1.06285 0.83283 0.33526
 C160 C 1.04840 0.79661 0.35705
 C161 C 1.02032 0.77912 0.32642
 H162 H 1.05609 0.78465 0.39127
 H163 H 0.99841 0.79789 0.25884
 H164 H 1.04903 0.86006 0.26807
 N165 N 0.45463 0.20508 -0.05784
 N166 N 0.42217 0.17836 -0.06361
 C167 C 0.41950 0.17228 -0.10778
 C168 C 0.45151 0.19655 -0.13126
 C169 C 0.47298 0.21684 -0.09823
 H170 H 0.45867 0.19867 -0.16704
 H171 H 0.46388 0.21499 -0.02666
 H172 H 0.40328 0.16378 -0.03739
 N173 N 0.12703 0.03563 0.32800
 N174 N 0.13031 0.00291 0.35623
 C175 C 0.12467 -0.02953 0.33275
 C176 C 0.11805 -0.01691 0.28761
 C177 C 0.11982 0.02452 0.28605
 H178 H 0.11265 -0.03529 0.25980
 H179 H 0.13005 0.06492 0.33742
 H180 H 0.13546 0.00299 0.39101
 N181 N 0.63757 0.46082 -0.32537
 N182 N 0.64526 0.49526 -0.35420
 C183 C 0.62976 0.52733 -0.33348
 C184 C 0.61274 0.51396 -0.29125
 C185 C 0.61858 0.47266 -0.28743
 H186 H 0.59961 0.53188 -0.26535
 H187 H 0.64737 0.43163 -0.33173
 H188 H 0.65923 0.49499 -0.38645
 N189 N 0.45208 1.02139 0.76632
 N190 N 0.44586 1.05126 0.79211
 C191 C 0.39993 1.05950 0.79438
 C192 C 0.37596 1.03401 0.76808
 C193 C 0.41038 1.01025 0.75121
 H194 H 0.33873 1.03133 0.76403
 H195 H 0.48432 1.00818 0.76035
 H196 H 0.47263 1.06403 0.80976
 N197 N 0.95221 0.47707 0.22815
 N198 N 0.94568 0.44719 0.20253
 C199 C 0.89988 0.43909 0.20127
 C200 C 0.87635 0.46465 0.22806
 C201 C 0.91085 0.48831 0.24418
 H202 H 0.83923 0.46739 0.23294
 H203 H 0.98436 0.49015 0.23349
 H204 H 0.97201 0.43428 0.18430
 N205 N 0.22454 0.05256 -0.06113
 N206 N 0.25982 0.05270 -0.08937
 C207 C 0.27573 0.09054 -0.09636
 C208 C 0.24866 0.11560 -0.07203
 C209 C 0.21698 0.09031 -0.04995
 H210 H 0.25313 0.14731 -0.06855
 H211 H 0.20709 0.02678 -0.04871
 H212 H 0.27416 0.02684 -0.10145
 N213 N 0.75941 0.67192 0.54019
 N214 N 0.72469 0.66960 0.56892
 C215 C 0.70320 0.63421 0.56632
 C216 C 0.72524 0.61309 0.53402
 C217 C 0.76070 0.63823 0.51837
 H218 H 0.71732 0.58350 0.52406
 H219 H 0.78181 0.69627 0.53586
 H220 H 0.71707 0.69149 0.59095
 N221 N 0.72089 0.44902 0.05783
 N222 N 0.75737 0.44862 0.08521
 C223 C 0.77347 0.41050 0.09278
 C224 C 0.74533 0.38555 0.06976
 C225 C 0.71277 0.41116 0.04781
 H226 H 0.74952 0.35360 0.06709
 H227 H 0.70299 0.47500 0.04516
 H228 H 0.77225 0.47442 0.09634
 N229 N 0.24495 0.81940 0.46806
 N230 N 0.21018 0.82280 0.43878
 C231 C 0.19104 0.85987 0.43886
 C232 C 0.21465 0.88095 0.47012
 C233 C 0.24859 0.85406 0.48774
 H234 H 0.20900 0.91171 0.47786
 H235 H 0.26600 0.79376 0.47400
 H236 H 0.20119 0.80046 0.41789
   
