data_POSCAR
  _audit_creation_date              2014-09-24
  _audit_creation_method            'ToBaCCo'
  _symmetry_space_group_name_H-M    'P1'
  _symmetry_Int_Tables_number       1
  _symmetry_cell_setting            triclinic
  loop_
  _symmetry_equiv_pos_as_xyz
 x,y,z
_cell_length_a 29.4541
_cell_length_b 32.0123
_cell_length_c 7.4202
_cell_angle_alpha 89.743300
_cell_angle_beta 89.514900
_cell_angle_gamma 90.041000
loop_
  _atom_site_label
  _atom_site_type_symbol
  _atom_site_fract_x
  _atom_site_fract_y
  _atom_site_fract_z
O1 O 0.22054 0.28351 0.05116
 O2 O 0.30483 0.20609 0.19497
 O3 O 0.22095 0.20282 0.08654
 O4 O 0.30548 0.28618 0.16278
 O5 O 0.28133 0.29258 0.44297
 O6 O 0.20148 0.20622 0.37311
 O7 O 0.28366 0.21198 0.47892
 O8 O 0.19646 0.28740 0.33283
 Cu9 Cu 0.26535 0.24433 0.09630
 Cu10 Cu 0.23806 0.25069 0.43332
 C11 C 0.19290 0.29763 0.16813
 C12 C 0.30878 0.19545 0.35879
 C13 C 0.19764 0.18929 0.21976
 C14 C 0.30891 0.30252 0.31769
 O15 O 0.80610 0.29054 0.35376
 O16 O 0.72252 0.21217 0.50351
 O17 O 0.80694 0.20995 0.39482
 O18 O 0.72211 0.29321 0.45929
 O19 O 0.70113 0.28435 0.17745
 O20 O 0.78797 0.20355 0.10947
 O21 O 0.70453 0.20377 0.21935
 O22 O 0.78487 0.28490 0.07112
 Cu23 Cu 0.76686 0.25223 0.45529
 Cu24 Cu 0.74222 0.24325 0.11724
 C25 C 0.80914 0.30209 0.19064
 C26 C 0.69954 0.19361 0.38346
 C27 C 0.81189 0.19237 0.24297
 C28 C 0.69736 0.30327 0.32653
 O29 O 0.71787 0.79490 0.59456
 O30 O 0.80514 0.71367 0.64905
 O31 O 0.72090 0.71359 0.55090
 O32 O 0.80202 0.79433 0.69065
 O33 O 0.78526 0.78550 0.97706
 O34 O 0.70099 0.70722 0.83615
 O35 O 0.78532 0.70433 0.93352
 O36 O 0.70019 0.78747 0.88208
 Cu37 Cu 0.76380 0.75509 0.59413
 Cu38 Cu 0.74064 0.74521 0.93457
 C39 C 0.69459 0.80564 0.73169
 C40 C 0.80957 0.69450 0.79784
 C41 C 0.69707 0.69609 0.67340
 C42 C 0.80765 0.80440 0.85374
 O43 O 0.30267 0.79133 0.79825
 O44 O 0.22053 0.70747 0.88856
 O45 O 0.30520 0.71080 0.77973
 O46 O 0.21923 0.78821 0.91633
 O47 O 0.19882 0.79400 0.63343
 O48 O 0.28259 0.71424 0.49777
 O49 O 0.19687 0.71285 0.60872
 O50 O 0.28133 0.79563 0.51547
 Cu51 Cu 0.26419 0.74883 0.87120
 Cu52 Cu 0.23727 0.75426 0.53633
 C53 C 0.30671 0.80761 0.64256
 C54 C 0.19337 0.69690 0.76518
 C55 C 0.30950 0.69995 0.61642
 C56 C 0.19472 0.80521 0.79643
 C57 C 0.96047 -0.09294 0.01206
 C58 C 1.00136 -0.11440 -0.01269
 C59 C 1.04307 -0.09370 -0.00376
 C60 C 1.04440 -0.05059 0.03648
 C61 C 1.00322 -0.02847 0.06227
 C62 C 0.96108 -0.04973 0.05122
 C63 C 0.92062 -0.02702 0.07356
 C64 C 0.92150 0.01591 0.10248
 C65 C 0.96291 0.03762 0.11303
 C66 C 1.00415 0.01526 0.09278
 C67 C 1.08583 -0.02890 0.04694
 C68 C 1.08676 0.01388 0.07928
 C69 C 1.04630 0.03659 0.10150
 C70 C 1.04686 0.08013 0.13247
 C71 C 1.00598 0.10181 0.15159
 C72 C 0.96421 0.08119 0.14324
 H73 H 0.88783 -0.04223 0.06705
 H74 H 0.88935 0.03195 0.11642
 H75 H 1.11795 -0.04484 0.02939
 H76 H 1.11954 0.02911 0.08495
 H77 H 1.00062 -0.14718 -0.04904
 H78 H 1.00671 0.13513 0.17758
 C79 C 0.54492 0.58887 0.51242
 C80 C 0.50370 0.61036 0.51907
 C81 C 0.46224 0.58972 0.49590
 C82 C 0.46169 0.54607 0.46777
 C83 C 0.50332 0.52394 0.45802
 C84 C 0.54511 0.54547 0.47784
 C85 C 0.58598 0.52300 0.46569
 C86 C 0.58582 0.48000 0.44005
 C87 C 0.54482 0.45797 0.42226
 C88 C 0.50317 0.48007 0.43124
 C89 C 0.42070 0.52402 0.44888
 C90 C 0.42054 0.48088 0.42569
 C91 C 0.46137 0.45831 0.41654
 C92 C 0.46163 0.41444 0.39569
 C93 C 0.50301 0.39322 0.38318
 C94 C 0.54437 0.41432 0.39539
 H95 H 0.61852 0.53847 0.47652
 H96 H 0.61825 0.46416 0.43436
 H97 H 0.38828 0.53987 0.45282
 H98 H 0.38802 0.46541 0.41452
 H99 H 0.50378 0.64364 0.54629
 H100 H 0.50301 0.35963 0.36440
 C101 C -0.03935 0.40891 0.01506
 C102 C 0.00171 0.38759 0.03016
 C103 C 0.04338 0.40774 0.00209
 C104 C 0.04412 0.45102 -0.03830
 C105 C 0.00249 0.47304 -0.05423
 C106 C -0.03939 0.45178 -0.02999
 C107 C -0.08024 0.47401 -0.04791
 C108 C -0.08006 0.51667 -0.08301
 C109 C -0.03901 0.53854 -0.10501
 C110 C 0.00267 0.51655 -0.09128
 C111 C 0.08516 0.47288 -0.06282
 C112 C 0.08533 0.51575 -0.09695
 C113 C 0.04448 0.53816 -0.11102
 C114 C 0.04413 0.58176 -0.14201
 C115 C 0.00281 0.60284 -0.15769
 C116 C -0.03853 0.58194 -0.13977
 H117 H -0.11281 0.45860 -0.03388
 H118 H -0.11247 0.53238 -0.09290
 H119 H 0.11755 0.45709 -0.05485
 H120 H 0.11784 0.53119 -0.11292
 H121 H 0.00128 0.35474 0.06706
 H122 H 0.00287 0.63629 -0.18209
 C123 C 0.45987 0.91927 0.63838
 C124 C 0.50054 0.89739 0.65903
 C125 C 0.54222 0.91818 0.66507
 C126 C 0.54355 0.96221 0.64721
 C127 C 0.50235 0.98482 0.63138
 C128 C 0.46029 0.96331 0.62918
 C129 C 0.41985 0.98627 0.61334
 C130 C 0.42077 1.02949 0.59539
 C131 C 0.46219 1.05128 0.58883
 C132 C 0.50327 1.02890 0.61103
 C133 C 0.58493 0.98411 0.64217
 C134 C 0.58581 1.02734 0.62159
 C135 C 0.54537 1.05020 0.60268
 C136 C 0.54608 1.09359 0.56671
 C137 C 0.50535 1.11538 0.54580
 C138 C 0.46360 1.09469 0.55333
 H139 H 0.38706 0.97103 0.61271
 H140 H 0.38866 1.04559 0.58243
 H141 H 0.61709 0.96798 0.65204
 H142 H 0.61858 1.04265 0.61773
 H143 H 0.49974 0.86356 0.66788
 H144 H 0.50631 1.14838 0.51220
 C145 C 1.10570 0.12819 0.01099
 C146 C 1.14382 0.15357 0.03003
 C147 C 1.16587 0.15683 0.19682
 C148 C 1.15217 0.12960 0.34034
 C149 C 1.11338 0.10379 0.31993
 C150 C 1.08958 0.10398 0.15526
 C151 C 1.09964 0.07828 0.46555
 N152 N 1.12484 0.07682 0.61727
 N153 N 1.16257 0.09931 0.63356
 C154 C 1.17717 0.12544 0.50089
 H155 H 1.08775 0.12837 -0.11580
 H156 H 1.15381 0.17316 -0.08292
 H157 H 1.06955 0.05899 0.45927
 H158 H 1.20908 0.14132 0.52037
 C159 C 0.60269 0.64194 0.42669
 C160 C 0.64005 0.66715 0.46376
 C161 C 0.66303 0.66358 0.62800
 C162 C 0.64958 0.63175 0.75240
 C163 C 0.61038 0.60738 0.71755
 C164 C 0.58693 0.61262 0.55308
 C165 C 0.59557 0.57870 0.85003
 N166 N 0.61999 0.57312 1.00217
 N167 N 0.65821 0.59420 1.03055
 C168 C 0.67401 0.62297 0.91085
 H169 H 0.58513 0.64610 0.30010
 H170 H 0.64981 0.69084 0.36620
 H171 H 0.56496 0.56050 0.83386
 H172 H 0.70602 0.63781 0.93988
 C173 C -0.09703 0.35612 -0.06553
 C174 C -0.13432 0.33095 -0.02475
 C175 C -0.15730 0.33473 0.14073
 C176 C -0.14418 0.36681 0.26216
 C177 C -0.10523 0.39136 0.22300
 C178 C -0.08154 0.38562 0.05826
 C179 C -0.09089 0.42067 0.35157
 N180 N -0.11537 0.42636 0.50493
 N181 N -0.15322 0.40483 0.53802
 C182 C -0.16864 0.37557 0.42189
 H183 H -0.07918 0.35169 -0.19230
 H184 H -0.14386 0.30695 -0.11956
 H185 H -0.06059 0.43927 0.33131
 H186 H -0.20034 0.36027 0.45481
 C187 C 0.38832 0.89220 0.76816
 C188 C 0.35103 0.86571 0.76614
 C189 C 0.34164 0.84069 0.61580
 C190 C 0.36930 0.84511 0.45805
 C191 C 0.40777 0.87193 0.46193
 C192 C 0.41764 0.89466 0.62004
 C193 C 0.43580 0.87475 0.30784
 N194 N 0.42619 0.85180 0.16021
 N195 N 0.39013 0.82681 0.15556
 C196 C 0.36131 0.82294 0.29809
 H197 H 0.39531 0.90991 0.88897
 H198 H 0.33018 0.86360 0.88705
 H199 H 0.46527 0.89492 0.30346
 H200 H 0.33244 0.80299 0.28206
 C201 C -0.09282 0.63318 -0.01370
 C202 C -0.12984 0.65996 -0.02814
 C203 C -0.15563 0.66140 -0.18606
 C204 C -0.14532 0.63325 -0.32848
 C205 C -0.10703 0.60661 -0.31479
 C206 C -0.08056 0.60700 -0.15660
 C207 C -0.09624 0.58050 -0.46113
 N208 N -0.12322 0.58002 -0.60818
 N209 N -0.16014 0.60383 -0.61861
 C210 C -0.17224 0.63022 -0.48399
 H211 H -0.07283 0.63360 0.10834
 H212 H -0.13727 0.68095 0.08238
 H213 H -0.06684 0.56029 -0.45953
 H214 H -0.20327 0.64777 -0.49914
 C215 C 0.40408 1.14703 0.62173
 C216 C 0.36585 1.17028 0.57670
 C217 C 0.34463 1.16516 0.40952
 C218 C 0.36143 1.13426 0.28857
 C219 C 0.40162 1.11212 0.33127
 C220 C 0.42256 1.11831 0.50025
 C221 C 0.41977 1.08441 0.20249
 N222 N 0.39749 1.07755 0.04634
 N223 N 0.35829 1.09636 0.01071
 C224 C 0.33932 1.12410 0.12660
 H225 H 0.41987 1.15193 0.75130
 H226 H 0.35376 1.19350 0.67122
 H227 H 0.45139 1.06807 0.22443
 H228 H 0.30665 1.13692 0.09209
 C229 C 1.10468 -0.14356 0.06678
 C230 C 1.14294 -0.16679 0.02020
 C231 C 1.16146 -0.16503 -0.15531
 C232 C 1.14316 -0.13545 -0.28011
 C233 C 1.10366 -0.11247 -0.23269
 C234 C 1.08431 -0.11702 -0.05853
 C235 C 1.08492 -0.08502 -0.36094
 N236 N 1.10622 -0.07884 -0.52129
 N237 N 1.14486 -0.09826 -0.56187
 C238 C 1.16415 -0.12603 -0.44725
 H239 H 1.09030 -0.14689 0.20097
 H240 H 1.15629 -0.18821 0.11990
 H241 H 1.05395 -0.06791 -0.33430
 H242 H 1.19657 -0.13894 -0.48603
 C243 C 0.59916 0.36352 0.51999
 C244 C 0.63677 0.33739 0.50489
 C245 C 0.66267 0.33637 0.34558
 C246 C 0.65206 0.36444 0.20284
 C247 C 0.61320 0.39035 0.21717
 C248 C 0.58653 0.38947 0.37667
 C249 C 0.60207 0.41621 0.07011
 N250 N 0.62931 0.41724 -0.07798
 N251 N 0.66681 0.39418 -0.08890
 C252 C 0.67923 0.36801 0.04620
 H253 H 0.57906 0.36281 0.64297
 H254 H 0.64450 0.31651 0.61579
 H255 H 0.57216 0.43579 0.07180
 H256 H 0.71067 0.35103 0.03065
 C257 C 0.89883 -0.14173 0.10357
 C258 C 0.86036 -0.16559 0.06732
 C259 C 0.84021 -0.16472 -0.10413
 C260 C 0.85662 -0.13493 -0.23393
 C261 C 0.89647 -0.11159 -0.19748
 C262 C 0.91782 -0.11558 -0.02832
 C263 C 0.91370 -0.08453 -0.33185
 N264 N 0.89070 -0.07900 -0.48732
 N265 N 0.85168 -0.09861 -0.51729
 C266 C 0.83369 -0.12596 -0.39624
 H267 H 0.91474 -0.14457 0.23416
 H268 H 0.84830 -0.18686 0.17114
 H269 H 0.94490 -0.06725 -0.31411
 H270 H 0.80079 -0.13887 -0.42613
 C271 C 0.39403 0.38856 0.23323
 C272 C 0.35771 0.36105 0.21424
 C273 C 0.34613 0.33266 0.35187
 C274 C 0.37197 0.33238 0.51328
 C275 C 0.40788 0.36149 0.53443
 C276 C 0.41954 0.38895 0.39137
 C277 C 0.43192 0.36156 0.69763
 N278 N 0.42200 0.33299 0.82730
 N279 N 0.38989 0.30430 0.80433
 C280 C 0.36492 0.30276 0.65182
 H281 H 0.40306 0.40903 0.12184
 H282 H 0.33899 0.36144 0.08906
 H283 H 0.45856 0.38400 0.72325
 H284 H 0.34081 0.27772 0.63982
 C285 C 0.11149 0.60831 -0.30873
 C286 C 0.14673 0.63694 -0.33167
 C287 C 0.15694 0.66607 -0.19704
 C288 C 0.13101 0.66588 -0.03422
 C289 C 0.09636 0.63560 -0.00884
 C290 C 0.08591 0.60751 -0.14919
 C291 C 0.07215 0.63506 0.15555
 N292 N 0.08079 0.66419 0.28262
 N293 N 0.11172 0.69393 0.25572
 C294 C 0.13673 0.69603 0.10164
 H295 H 0.10326 0.58740 -0.41819
 H296 H 0.16572 0.63681 -0.45745
 H297 H 0.04637 0.61180 0.18398
 H298 H 0.15980 0.72189 0.08626
 C299 C 0.60858 1.14163 0.64757
 C300 C 0.64736 1.16466 0.60496
 C301 C 0.66685 1.16319 0.43115
 C302 C 0.64940 1.13367 0.30498
 C303 C 0.60924 1.11115 0.34780
 C304 C 0.58866 1.11574 0.51950
 C305 C 0.59085 1.08437 0.21701
 N306 N 0.61306 1.07832 0.05883
 N307 N 0.65235 1.09722 0.02267
 C308 C 0.67140 1.12430 0.13993
 H309 H 0.59320 1.14491 0.77988
 H310 H 0.66013 1.18598 0.70531
 H311 H 0.55932 1.06776 0.23962
 H312 H 0.70436 1.13675 0.10463
 C313 C 0.11245 0.38911 0.17440
 C314 C 0.14760 0.36175 0.21719
 C315 C 0.15577 0.32599 0.11330
 C316 C 0.12753 0.31765 -0.03645
 C317 C 0.09338 0.34667 -0.08528
 C318 C 0.08503 0.38206 0.02413
 C319 C 0.06760 0.33867 -0.24022
 N320 N 0.07378 0.30266 -0.33259
 N321 N 0.10379 0.27413 -0.27995
 C322 C 0.13048 0.28020 -0.13434
 H323 H 0.10585 0.41549 0.26168
 H324 H 0.16822 0.36823 0.33408
 H325 H 0.04244 0.36059 -0.28792
 H326 H 0.15299 0.25528 -0.09489
 C327 C 0.59655 0.86644 0.54242
 C328 C 0.63375 0.83987 0.55732
 C329 C 0.65944 0.83854 0.71554
 C330 C 0.64852 0.86640 0.85848
 C331 C 0.60969 0.89243 0.84521
 C332 C 0.58374 0.89240 0.68543
 C333 C 0.59795 0.91763 0.99334
 N334 N 0.62485 0.91839 1.14053
 N335 N 0.66252 0.89557 1.14976
 C336 C 0.67538 0.86980 1.01405
 H337 H 0.57695 0.86614 0.41944
 H338 H 0.64150 0.81906 0.44657
 H339 H 0.56786 0.93697 0.99310
 H340 H 0.70698 0.85311 1.02834
 C341 C 0.90889 0.13321 0.03347
 C342 C 0.87171 0.15948 0.05684
 C343 C 0.84714 0.15979 0.21964
 C344 C 0.85902 0.13106 0.35841
 C345 C 0.89759 0.10500 0.33558
 C346 C 0.92261 0.10638 0.17188
 C347 C 0.91006 0.07838 0.47824
 N348 N 0.88432 0.07672 0.63036
 N349 N 0.84707 0.09985 0.64927
 C350 C 0.83341 0.12675 0.51879
 H351 H 0.92772 0.13440 -0.09260
 H352 H 0.86309 0.18083 -0.05129
 H353 H 0.93979 0.05866 0.46966
 H354 H 0.80220 0.14367 0.54124
 C355 C 0.39239 0.61091 0.66036
 C356 C 0.35594 0.63784 0.68911
 C357 C 0.34664 0.67050 0.56800
 C358 C 0.37496 0.67553 0.41312
 C359 C 0.41076 0.64687 0.38009
 C360 C 0.42023 0.61519 0.50767
 C361 C 0.43689 0.65152 0.22153
 N362 N 0.42917 0.68416 0.10910
 N363 N 0.39740 0.71251 0.14550
 C364 C 0.37053 0.70947 0.29430
 H365 H 0.39962 0.58708 0.76015
 H366 H 0.33539 0.63368 0.80972
 H367 H 0.46336 0.62956 0.18602
 H368 H 0.34694 0.73415 0.32097
   
