data_POSCAR
  _audit_creation_date              2014-09-24
  _audit_creation_method            'ToBaCCo'
  _symmetry_space_group_name_H-M    'P1'
  _symmetry_Int_Tables_number       1
  _symmetry_cell_setting            triclinic
  loop_
  _symmetry_equiv_pos_as_xyz
 x,y,z
_cell_length_a 54.2328
_cell_length_b 54.3612
_cell_length_c 54.4923
_cell_angle_alpha 89.985300
_cell_angle_beta 89.990600
_cell_angle_gamma 90.000300
loop_
  _atom_site_label
  _atom_site_type_symbol
  _atom_site_fract_x
  _atom_site_fract_y
  _atom_site_fract_z
N1 N 0.28927 0.23987 0.22067
 N2 N 0.27902 0.25944 0.21087
 C3 C 0.29206 0.26618 0.19093
 C4 C 0.31158 0.24993 0.18802
 C5 C 0.30911 0.23347 0.20732
 H6 H 0.28767 0.28181 0.17949
 H7 H 0.32084 0.21795 0.21151
 Cu8 Cu 0.24993 0.27451 0.22547
 Cu9 Cu 0.27625 0.22407 0.25004
 Cu10 Cu 0.22249 0.24849 0.27408
 N11 N 0.22082 0.28911 0.24057
 N12 N 0.21042 0.27906 0.25990
 C13 C 0.19067 0.29250 0.26646
 C14 C 0.18843 0.31214 0.25034
 C15 C 0.20801 0.30934 0.23416
 H16 H 0.17871 0.28799 0.28167
 H17 H 0.21254 0.32099 0.21873
 N18 N 0.23960 0.22018 0.28889
 N19 N 0.26000 0.21080 0.27962
 C20 C 0.26692 0.19140 0.29335
 C21 C 0.25010 0.18835 0.31228
 C22 C 0.23307 0.20706 0.30883
 H23 H 0.28298 0.18024 0.28969
 H24 H 0.21697 0.21079 0.31988
 H25 H 0.24069 0.23443 0.24343
 H26 H 0.25885 0.25466 0.26446
 N27 N 0.71017 -0.24037 0.22047
 N28 N 0.72001 -0.26033 0.21107
 C29 C 0.70688 -0.26716 0.19122
 C30 C 0.68764 -0.25055 0.18791
 C31 C 0.69047 -0.23381 0.20698
 H32 H 0.71116 -0.28299 0.18005
 H33 H 0.67917 -0.21793 0.21091
 Cu34 Cu 0.74933 -0.27495 0.22565
 Cu35 Cu 0.72359 -0.22420 0.24948
 Cu36 Cu 0.77587 -0.25026 0.27547
 N37 N 0.77866 -0.28956 0.24022
 N38 N 0.78899 -0.27966 0.25964
 C39 C 0.80898 -0.29288 0.26590
 C40 C 0.81151 -0.31230 0.24949
 C41 C 0.79177 -0.30948 0.23343
 H42 H 0.82073 -0.28849 0.28128
 H43 H 0.78724 -0.32093 0.21789
 N44 N 0.75980 -0.22054 0.28874
 N45 N 0.73993 -0.21064 0.27887
 C46 C 0.73336 -0.19079 0.29214
 C47 C 0.74986 -0.18798 0.31137
 C48 C 0.76637 -0.20725 0.30854
 H49 H 0.71764 -0.17930 0.28809
 H50 H 0.78202 -0.21140 0.32007
 H51 H 0.75959 -0.23558 0.24447
 H52 H 0.73975 -0.25506 0.26457
 N53 N 0.71101 0.24012 0.77914
 N54 N 0.72111 0.25984 0.78880
 C55 C 0.70800 0.26660 0.80869
 C56 C 0.68857 0.25024 0.81169
 C57 C 0.69118 0.23368 0.79251
 H58 H 0.71229 0.28229 0.82006
 H59 H 0.67956 0.21807 0.78843
 Cu60 Cu 0.75029 0.27473 0.77418
 Cu61 Cu 0.72424 0.22421 0.74993
 Cu62 Cu 0.77649 0.25026 0.72395
 N63 N 0.77978 0.28909 0.75964
 N64 N 0.78987 0.27944 0.73996
 C65 C 0.80974 0.29280 0.73357
 C66 C 0.81243 0.31206 0.75015
 C67 C 0.79293 0.30897 0.76647
 H68 H 0.82125 0.28867 0.71793
 H69 H 0.78850 0.32028 0.78214
 N70 N 0.76024 0.22071 0.71049
 N71 N 0.74037 0.21082 0.72038
 C72 C 0.73377 0.19099 0.70712
 C73 C 0.75025 0.18815 0.68787
 C74 C 0.76678 0.20741 0.69068
 H75 H 0.71809 0.17946 0.71124
 H76 H 0.78247 0.21150 0.67917
 H77 H 0.76025 0.23549 0.75494
 H78 H 0.74040 0.25524 0.73508
 N79 N 0.28953 -0.24045 0.77942
 N80 N 0.27970 -0.26043 0.78882
 C81 C 0.29285 -0.26724 0.80866
 C82 C 0.31202 -0.25063 0.81192
 C83 C 0.30923 -0.23389 0.79291
 H84 H 0.28870 -0.28306 0.81992
 H85 H 0.32058 -0.21802 0.78910
 Cu86 Cu 0.25038 -0.27507 0.77423
 Cu87 Cu 0.27611 -0.22427 0.75041
 Cu88 Cu 0.22385 -0.25035 0.72442
 N89 N 0.22105 -0.28970 0.75965
 N90 N 0.21072 -0.27978 0.74023
 C91 C 0.19073 -0.29301 0.73396
 C92 C 0.18820 -0.31245 0.75035
 C93 C 0.20794 -0.30963 0.76643
 H94 H 0.17899 -0.28860 0.71857
 H95 H 0.21246 -0.32109 0.78197
 N96 N 0.23992 -0.22061 0.71114
 N97 N 0.25978 -0.21071 0.72102
 C98 C 0.26635 -0.19085 0.70776
 C99 C 0.24986 -0.18804 0.68852
 C100 C 0.23335 -0.20731 0.69134
 H101 H 0.28207 -0.17936 0.71182
 H102 H 0.21772 -0.21145 0.67980
 H103 H 0.24014 -0.23568 0.75543
 H104 H 0.25999 -0.25513 0.73532
 N105 N 0.71093 -0.24017 0.77931
 N106 N 0.72104 -0.25987 0.78897
 C107 C 0.70792 -0.26667 0.80885
 C108 C 0.68850 -0.25032 0.81186
 C109 C 0.69109 -0.23376 0.79267
 H110 H 0.71227 -0.28233 0.82026
 H111 H 0.67949 -0.21811 0.78863
 Cu112 Cu 0.75050 -0.27445 0.77466
 Cu113 Cu 0.72419 -0.22418 0.75015
 Cu114 Cu 0.77640 -0.25025 0.72413
 N115 N 0.77963 -0.28913 0.75976
 N116 N 0.78968 -0.27948 0.74006
 C117 C 0.80950 -0.29287 0.73363
 C118 C 0.81221 -0.31212 0.75021
 C119 C 0.79275 -0.30903 0.76656
 H120 H 0.82101 -0.28871 0.71799
 H121 H 0.78838 -0.32031 0.78229
 N122 N 0.76022 -0.22066 0.71076
 N123 N 0.74037 -0.21075 0.72065
 C124 C 0.73375 -0.19094 0.70736
 C125 C 0.75022 -0.18815 0.68809
 C126 C 0.76674 -0.20740 0.69092
 H127 H 0.71805 -0.17943 0.71145
 H128 H 0.78239 -0.21153 0.67938
 H129 H 0.74041 -0.25527 0.73550
 H130 H 0.76030 -0.23529 0.75511
 N131 N 0.28958 0.24017 0.77907
 N132 N 0.27973 0.26015 0.78845
 C133 C 0.29287 0.26699 0.80828
 C134 C 0.31203 0.25040 0.81156
 C135 C 0.30927 0.23363 0.79258
 H136 H 0.28869 0.28282 0.81950
 H137 H 0.32063 0.21776 0.78880
 Cu138 Cu 0.25046 0.27475 0.77387
 Cu139 Cu 0.27616 0.22397 0.75009
 Cu140 Cu 0.22389 0.25004 0.72410
 N141 N 0.22117 0.28936 0.75932
 N142 N 0.21082 0.27945 0.73990
 C143 C 0.19083 0.29269 0.73366
 C144 C 0.18840 0.31206 0.75005
 C145 C 0.20808 0.30929 0.76609
 H146 H 0.17898 0.28840 0.71832
 H147 H 0.21253 0.32082 0.78160
 N148 N 0.23995 0.22034 0.71086
 N149 N 0.25981 0.21043 0.72073
 C150 C 0.26637 0.19058 0.70747
 C151 C 0.24986 0.18778 0.68825
 C152 C 0.23336 0.20705 0.69107
 H153 H 0.28208 0.17908 0.71152
 H154 H 0.21771 0.21120 0.67954
 H155 H 0.26003 0.25484 0.73499
 H156 H 0.24018 0.23538 0.75511
 N157 N 0.28974 -0.24009 0.22108
 N158 N 0.27990 -0.26006 0.21168
 C159 C 0.29304 -0.26691 0.19186
 C160 C 0.31223 -0.25034 0.18860
 C161 C 0.30946 -0.23357 0.20759
 H162 H 0.28886 -0.28273 0.18062
 H163 H 0.32084 -0.21772 0.21139
 Cu164 Cu 0.25058 -0.27464 0.22621
 Cu165 Cu 0.27630 -0.22391 0.25006
 Cu166 Cu 0.22398 -0.24993 0.27598
 N167 N 0.22127 -0.28922 0.24075
 N168 N 0.21091 -0.27929 0.26015
 C169 C 0.19091 -0.29252 0.26638
 C170 C 0.18848 -0.31187 0.24999
 C171 C 0.20816 -0.30912 0.23396
 H172 H 0.17905 -0.28822 0.28171
 H173 H 0.21261 -0.32066 0.21844
 N174 N 0.24003 -0.22025 0.28925
 N175 N 0.25992 -0.21035 0.27941
 C176 C 0.26646 -0.19052 0.29269
 C177 C 0.24993 -0.18772 0.31189
 C178 C 0.23342 -0.20697 0.30903
 H179 H 0.28220 -0.17903 0.28867
 H180 H 0.21775 -0.21113 0.32054
 H181 H 0.26009 -0.25477 0.26512
 H182 H 0.24030 -0.23529 0.24500
 N183 N 0.71045 0.23992 0.22075
 N184 N 0.72055 0.25964 0.21110
 C185 C 0.70743 0.26648 0.19127
 C186 C 0.68801 0.25015 0.18825
 C187 C 0.69060 0.23353 0.20740
 H188 H 0.71177 0.28216 0.17989
 H189 H 0.67900 0.21789 0.21142
 Cu190 Cu 0.75001 0.27418 0.22537
 Cu191 Cu 0.72376 0.22389 0.24985
 Cu192 Cu 0.77597 0.24993 0.27583
 N193 N 0.77910 0.28883 0.24024
 N194 N 0.78918 0.27917 0.25993
 C195 C 0.80900 0.29258 0.26634
 C196 C 0.81159 0.31178 0.24979
 C197 C 0.79219 0.30875 0.23347
 H198 H 0.82061 0.28851 0.28193
 H199 H 0.78789 0.32014 0.21780
 N200 N 0.75983 0.22034 0.28918
 N201 N 0.73998 0.21043 0.27931
 C202 C 0.73341 0.19059 0.29259
 C203 C 0.74991 0.18780 0.31182
 C204 C 0.76640 0.20707 0.30899
 H205 H 0.71772 0.17907 0.28852
 H206 H 0.78207 0.21121 0.32050
 H207 H 0.73997 0.25497 0.26452
 H208 H 0.75985 0.23503 0.24487
 C209 C 0.24996 -0.01270 0.42286
 C210 C 0.24990 0.01255 0.42283
 C211 C 0.24988 0.01995 0.44720
 N212 N 0.24994 -0.00005 0.46195
 C213 C 0.24998 -0.02006 0.44724
 C214 C 0.24984 0.04479 0.45516
 C215 C 0.24987 0.05267 0.48002
 C216 C 0.24993 0.07709 0.48748
 C217 C 0.24996 0.07708 0.51274
 C218 C 0.24993 0.05266 0.52020
 N219 N 0.24985 0.03806 0.50011
 C220 C 0.24996 0.04476 0.54506
 C221 C 0.24999 0.01992 0.55306
 C222 C 0.25002 0.01256 0.57745
 C223 C 0.25008 -0.01269 0.57748
 C224 C 0.25007 -0.02009 0.55311
 N225 N 0.25002 -0.00009 0.53836
 C226 C 0.25011 -0.04493 0.54515
 C227 C 0.25008 -0.05281 0.52029
 C228 C 0.25000 -0.07723 0.51282
 C229 C 0.24998 -0.07722 0.48757
 C230 C 0.25004 -0.05280 0.48011
 N231 N 0.25012 -0.03820 0.50020
 C232 C 0.25003 -0.04490 0.45525
 H233 H 0.24998 -0.02429 0.40671
 H234 H 0.24987 0.02412 0.40666
 H235 H 0.25029 -0.01936 0.50018
 H236 H 0.24995 0.09331 0.47596
 H237 H 0.25001 0.09330 0.52425
 H238 H 0.25002 0.02415 0.59360
 H239 H 0.25010 -0.02426 0.59365
 H240 H 0.24993 -0.09344 0.47605
 H241 H 0.24970 0.01922 0.50013
 H242 H 0.24997 -0.09345 0.52434
 C243 C 0.74989 -0.01285 0.57718
 C244 C 0.74992 0.01241 0.57720
 C245 C 0.74992 0.01981 0.55283
 N246 N 0.74988 -0.00018 0.53809
 C247 C 0.74986 -0.02021 0.55280
 C248 C 0.74995 0.04467 0.54487
 C249 C 0.74994 0.05255 0.52000
 C250 C 0.74991 0.07697 0.51253
 C251 C 0.74991 0.07696 0.48727
 C252 C 0.74993 0.05253 0.47981
 N253 N 0.74996 0.03794 0.49991
 C254 C 0.74991 0.04464 0.45496
 C255 C 0.74986 0.01981 0.44696
 C256 C 0.74982 0.01245 0.42257
 C257 C 0.74975 -0.01280 0.42255
 C258 C 0.74976 -0.02020 0.44692
 N259 N 0.74982 -0.00021 0.46167
 C260 C 0.74971 -0.04506 0.45489
 C261 C 0.74975 -0.05294 0.47975
 C262 C 0.74980 -0.07736 0.48722
 C263 C 0.74984 -0.07736 0.51248
 C264 C 0.74980 -0.05294 0.51994
 N265 N 0.74973 -0.03834 0.49985
 C266 C 0.74983 -0.04505 0.54480
 H267 H 0.74989 -0.02444 0.59333
 H268 H 0.74995 0.02397 0.59337
 H269 H 0.74961 -0.01949 0.49986
 H270 H 0.74990 0.09319 0.52404
 H271 H 0.74989 0.09318 0.47575
 H272 H 0.74983 0.02404 0.40642
 H273 H 0.74971 -0.02437 0.40639
 H274 H 0.74988 -0.09358 0.52400
 H275 H 0.75006 0.01909 0.49990
 H276 H 0.74981 -0.09358 0.47571
 C277 C 0.42237 0.25068 -0.01267
 C278 C 0.42237 0.25068 0.01252
 C279 C 0.44686 0.25068 0.01988
 N280 N 0.46167 0.25067 -0.00007
 C281 C 0.44688 0.25067 -0.02003
 C282 C 0.45488 0.25071 0.04465
 C283 C 0.47985 0.25069 0.05251
 C284 C 0.48736 0.25070 0.07687
 C285 C 0.51273 0.25069 0.07685
 C286 C 0.52022 0.25067 0.05248
 N287 N 0.50003 0.25065 0.03793
 C288 C 0.54519 0.25068 0.04459
 C289 C 0.55322 0.25066 0.01981
 C290 C 0.57772 0.25066 0.01246
 C291 C 0.57773 0.25065 -0.01273
 C292 C 0.55324 0.25066 -0.02009
 N293 N 0.53844 0.25065 -0.00014
 C294 C 0.54523 0.25067 -0.04488
 C295 C 0.52025 0.25064 -0.05273
 C296 C 0.51274 0.25060 -0.07708
 C297 C 0.48736 0.25061 -0.07706
 C298 C 0.47987 0.25065 -0.05269
 N299 N 0.50007 0.25066 -0.03814
 C300 C 0.45491 0.25068 -0.04480
 H301 H 0.40615 0.25067 -0.02422
 H302 H 0.40613 0.25069 0.02407
 H303 H 0.50007 0.25072 -0.01935
 H304 H 0.47579 0.25072 0.09306
 H305 H 0.52431 0.25071 0.09303
 H306 H 0.59395 0.25066 0.02402
 H307 H 0.59398 0.25065 -0.02428
 H308 H 0.47578 0.25059 -0.09324
 H309 H 0.50003 0.25062 0.01913
 H310 H 0.52430 0.25058 -0.09327
 C311 C 0.57804 0.74944 -0.01232
 C312 C 0.57806 0.74946 0.01288
 C313 C 0.55356 0.74947 0.02025
 N314 N 0.53876 0.74947 0.00030
 C315 C 0.55355 0.74944 -0.01967
 C316 C 0.54555 0.74946 0.04503
 C317 C 0.52057 0.74948 0.05290
 C318 C 0.51306 0.74942 0.07726
 C319 C 0.48768 0.74941 0.07725
 C320 C 0.48019 0.74947 0.05288
 N321 N 0.50039 0.74953 0.03832
 C322 C 0.45522 0.74945 0.04500
 C323 C 0.44719 0.74946 0.02022
 C324 C 0.42270 0.74945 0.01287
 C325 C 0.42268 0.74944 -0.01232
 C326 C 0.44717 0.74944 -0.01969
 N327 N 0.46198 0.74946 0.00026
 C328 C 0.45518 0.74942 -0.04448
 C329 C 0.48016 0.74944 -0.05234
 C330 C 0.48768 0.74951 -0.07670
 C331 C 0.51305 0.74951 -0.07669
 C332 C 0.52054 0.74944 -0.05232
 N333 N 0.50035 0.74940 -0.03777
 C334 C 0.54552 0.74942 -0.04445
 H335 H 0.59428 0.74943 -0.02388
 H336 H 0.59429 0.74947 0.02442
 H337 H 0.50036 0.74926 -0.01897
 H338 H 0.52462 0.74938 0.09344
 H339 H 0.47610 0.74937 0.09342
 H340 H 0.40646 0.74945 0.02443
 H341 H 0.40644 0.74943 -0.02386
 H342 H 0.52463 0.74954 -0.09287
 H343 H 0.50038 0.74965 0.01952
 H344 H 0.47611 0.74954 -0.09289
 C345 C -0.01304 0.42290 0.24925
 C346 C 0.01227 0.42288 0.24924
 C347 C 0.01968 0.44730 0.24922
 N348 N -0.00036 0.46209 0.24922
 C349 C -0.02041 0.44735 0.24923
 C350 C 0.04457 0.45529 0.24921
 C351 C 0.05246 0.48021 0.24922
 C352 C 0.07693 0.48771 0.24928
 C353 C 0.07690 0.51302 0.24927
 C354 C 0.05241 0.52048 0.24920
 N355 N 0.03780 0.50034 0.24917
 C356 C 0.04448 0.54539 0.24914
 C357 C 0.01959 0.55342 0.24915
 C358 C 0.01222 0.57786 0.24914
 C359 C -0.01310 0.57789 0.24912
 C360 C -0.02051 0.55346 0.24913
 N361 N -0.00047 0.53868 0.24916
 C362 C -0.04540 0.54547 0.24906
 C363 C -0.05328 0.52055 0.24913
 C364 C -0.07776 0.51304 0.24905
 C365 C -0.07772 0.48773 0.24908
 C366 C -0.05323 0.48028 0.24918
 N367 N -0.03862 0.50042 0.24924
 C368 C -0.04530 0.45538 0.24920
 H369 H -0.02466 0.40671 0.24926
 H370 H 0.02386 0.40667 0.24925
 H371 H -0.01974 0.50041 0.24939
 H372 H 0.09320 0.47618 0.24932
 H373 H 0.09315 0.52458 0.24930
 H374 H 0.02384 0.59404 0.24915
 H375 H -0.02469 0.59409 0.24910
 H376 H -0.09397 0.47617 0.24905
 H377 H 0.01891 0.50035 0.24906
 H378 H -0.09403 0.52457 0.24897
 C379 C -0.01281 0.57780 0.75079
 C380 C 0.01250 0.57783 0.75081
 C381 C 0.01992 0.55340 0.75081
 N382 N -0.00013 0.53862 0.75078
 C383 C -0.02020 0.55336 0.75078
 C384 C 0.04483 0.54541 0.75084
 C385 C 0.05270 0.52048 0.75078
 C386 C 0.07717 0.51296 0.75078
 C387 C 0.07713 0.48765 0.75075
 C388 C 0.05264 0.48019 0.75074
 N389 N 0.03803 0.50035 0.75075
 C390 C 0.04471 0.45528 0.75076
 C391 C 0.01981 0.44726 0.75072
 C392 C 0.01243 0.42281 0.75069
 C393 C -0.01288 0.42279 0.75068
 C394 C -0.02030 0.44722 0.75069
 N395 N -0.00025 0.46200 0.75071
 C396 C -0.04521 0.45520 0.75071
 C397 C -0.05308 0.48013 0.75071
 C398 C -0.07755 0.48764 0.75072
 C399 C -0.07752 0.51296 0.75074
 C400 C -0.05303 0.52042 0.75074
 N401 N -0.03842 0.50027 0.75071
 C402 C -0.04510 0.54534 0.75078
 H403 H -0.02443 0.59399 0.75080
 H404 H 0.02410 0.59403 0.75083
 H405 H -0.01953 0.50028 0.75070
 H406 H 0.09344 0.52449 0.75080
 H407 H 0.09338 0.47609 0.75075
 H408 H 0.02405 0.40663 0.75069
 H409 H -0.02447 0.40658 0.75066
 H410 H -0.09377 0.52452 0.75076
 H411 H 0.01914 0.50034 0.75076
 H412 H -0.09382 0.47611 0.75072
 C413 C 0.36777 0.23242 0.15012
 C414 C 0.36760 0.25062 0.13200
 C415 C 0.34918 0.26862 0.13213
 C416 C 0.33097 0.26843 0.15030
 C417 C 0.33092 0.25018 0.16866
 C418 C 0.34960 0.23217 0.16832
 C419 C 0.38629 0.25077 0.11325
 C420 C 0.40197 0.25082 0.09757
 C421 C 0.42032 0.25081 0.07921
 C422 C 0.43601 0.25077 0.06353
 H423 H 0.38195 0.21838 0.15020
 H424 H 0.34888 0.28281 0.11817
 H425 H 0.31703 0.28263 0.14984
 H426 H 0.35031 0.21781 0.18203
 C427 C 0.63301 0.76771 0.15024
 C428 C 0.63289 0.74931 0.13236
 C429 C 0.65094 0.73096 0.13282
 C430 C 0.66903 0.73096 0.15110
 C431 C 0.66942 0.74940 0.16936
 C432 C 0.65105 0.76781 0.16856
 C433 C 0.61422 0.74925 0.11357
 C434 C 0.59854 0.74926 0.09789
 C435 C 0.58014 0.74931 0.07957
 C436 C 0.56443 0.74938 0.06391
 H437 H 0.61912 0.78204 0.15005
 H438 H 0.65102 0.71660 0.11903
 H439 H 0.68259 0.71640 0.15072
 H440 H 0.65037 0.78242 0.18198
 C441 C 0.63248 0.23249 -0.15033
 C442 C 0.63257 0.25069 -0.13222
 C443 C 0.65091 0.26878 -0.13238
 C444 C 0.66910 0.26868 -0.15058
 C445 C 0.66923 0.25042 -0.16893
 C446 C 0.65063 0.23233 -0.16854
 C447 C 0.61386 0.25078 -0.11347
 C448 C 0.59817 0.25080 -0.09778
 C449 C 0.57980 0.25077 -0.07944
 C450 C 0.56410 0.25072 -0.06376
 H451 H 0.61835 0.21839 -0.15039
 H452 H 0.65115 0.28298 -0.11844
 H453 H 0.68298 0.28293 -0.15013
 H454 H 0.64997 0.21796 -0.18224
 C455 C 0.36757 0.76771 -0.14960
 C456 C 0.36771 0.74930 -0.13168
 C457 C 0.34965 0.73093 -0.13209
 C458 C 0.33154 0.73093 -0.15037
 C459 C 0.33122 0.74935 -0.16856
 C460 C 0.34949 0.76776 -0.16790
 C461 C 0.38642 0.74925 -0.11293
 C462 C 0.40214 0.74927 -0.09728
 C463 C 0.42056 0.74931 -0.07899
 C464 C 0.43629 0.74936 -0.06335
 H465 H 0.38145 0.78204 -0.14946
 H466 H 0.34958 0.71658 -0.11829
 H467 H 0.31789 0.71645 -0.15013
 H468 H 0.34998 0.78227 -0.18144
 C469 C 0.15071 0.36808 0.23169
 C470 C 0.13219 0.36807 0.24955
 C471 C 0.13200 0.34984 0.26765
 C472 C 0.15026 0.33170 0.26796
 C473 C 0.16905 0.33150 0.25010
 C474 C 0.16901 0.34996 0.23194
 C475 C 0.11341 0.38678 0.24934
 C476 C 0.09769 0.40246 0.24924
 C477 C 0.07928 0.42081 0.24920
 C478 C 0.06354 0.43647 0.24919
 H479 H 0.15101 0.38210 0.21757
 H480 H 0.11772 0.34965 0.28156
 H481 H 0.14954 0.31791 0.28223
 H482 H 0.18302 0.35052 0.21784
 C483 C 0.13252 0.65084 0.73310
 C484 C 0.13276 0.63248 0.75105
 C485 C 0.15136 0.63237 0.76881
 C486 C 0.16966 0.65050 0.76864
 C487 C 0.16972 0.66919 0.75062
 C488 C 0.15076 0.66901 0.73284
 C489 C 0.11394 0.61376 0.75118
 C490 C 0.09816 0.59813 0.75118
 C491 C 0.07964 0.57985 0.75109
 C492 C 0.06383 0.56423 0.75098
 H493 H 0.11819 0.65112 0.71925
 H494 H 0.15173 0.61823 0.78282
 H495 H 0.18366 0.64966 0.78273
 H496 H 0.14977 0.68279 0.71860
 C497 C -0.13285 0.65096 0.26671
 C498 C -0.13312 0.63262 0.24876
 C499 C -0.15172 0.63253 0.23100
 C500 C -0.17000 0.65068 0.23118
 C501 C -0.17003 0.66934 0.24921
 C502 C -0.15107 0.66914 0.26698
 C503 C -0.11437 0.61388 0.24865
 C504 C -0.09862 0.59823 0.24866
 C505 C -0.08016 0.57992 0.24876
 C506 C -0.06439 0.56428 0.24893
 H507 H -0.11851 0.65121 0.28057
 H508 H -0.15210 0.61839 0.21699
 H509 H -0.18399 0.64985 0.21709
 H510 H -0.15006 0.68292 0.28123
 C511 C -0.15095 0.36735 0.76865
 C512 C -0.13264 0.36762 0.75059
 C513 C -0.13252 0.34950 0.73242
 C514 C -0.15060 0.33116 0.73224
 C515 C -0.16926 0.33058 0.75033
 C516 C -0.16908 0.34905 0.76856
 C517 C -0.11397 0.38649 0.75071
 C518 C -0.09830 0.40225 0.75075
 C519 C -0.07992 0.42066 0.75075
 C520 C -0.06419 0.43635 0.75073
 H521 H -0.15122 0.38131 0.78284
 H522 H -0.11842 0.34953 0.71833
 H523 H -0.14974 0.31756 0.71781
 H524 H -0.18285 0.34960 0.78289
 C525 C 0.23152 0.15032 0.36790
 C526 C 0.24988 0.13227 0.36817
 C527 C 0.26834 0.13251 0.35025
 C528 C 0.26846 0.15073 0.33213
 C529 C 0.25008 0.16904 0.33164
 C530 C 0.23159 0.16857 0.34981
 C531 C 0.24981 0.11351 0.38682
 C532 C 0.24979 0.09781 0.40245
 C533 C 0.24979 0.07942 0.42074
 C534 C 0.24981 0.06371 0.43637
 H535 H 0.21711 0.15030 0.38169
 H536 H 0.28265 0.11860 0.35026
 H537 H 0.28299 0.15031 0.31856
 H538 H 0.21712 0.18222 0.35017
 C539 C 0.73192 0.13216 0.65015
 C540 C 0.75010 0.13209 0.63195
 C541 C 0.76833 0.15029 0.63197
 C542 C 0.76841 0.16848 0.65011
 C543 C 0.75020 0.16878 0.66856
 C544 C 0.73195 0.15034 0.66831
 C545 C 0.75003 0.11336 0.61325
 C546 C 0.75001 0.09768 0.59761
 C547 C 0.74998 0.07930 0.57930
 C548 C 0.74996 0.06359 0.56366
 H549 H 0.71770 0.11816 0.65032
 H550 H 0.78251 0.15041 0.61796
 H551 H 0.78278 0.18225 0.64954
 H552 H 0.71761 0.14981 0.68208
 C553 C 0.23188 -0.15040 0.63244
 C554 C 0.25011 -0.13222 0.63236
 C555 C 0.26827 -0.13222 0.65058
 C556 C 0.26822 -0.15032 0.66882
 C557 C 0.24995 -0.16875 0.66913
 C558 C 0.23177 -0.16853 0.65066
 C559 C 0.25016 -0.11354 0.61362
 C560 C 0.25017 -0.09789 0.59794
 C561 C 0.25016 -0.07954 0.57959
 C562 C 0.25014 -0.06385 0.56395
 H563 H 0.21772 -0.15058 0.61842
 H564 H 0.28249 -0.11822 0.65070
 H565 H 0.28254 -0.14974 0.68260
 H566 H 0.21740 -0.18229 0.65013
 C567 C 0.76787 -0.15041 0.36747
 C568 C 0.74963 -0.13222 0.36758
 C569 C 0.73146 -0.13221 0.34937
 C570 C 0.73151 -0.15029 0.33111
 C571 C 0.74978 -0.16871 0.33078
 C572 C 0.76797 -0.16851 0.34924
 C573 C 0.74959 -0.11358 0.38635
 C574 C 0.74959 -0.09795 0.40205
 C575 C 0.74961 -0.07964 0.42042
 C576 C 0.74965 -0.06397 0.43609
 H577 H 0.78204 -0.15060 0.38148
 H578 H 0.71724 -0.11821 0.34926
 H579 H 0.71719 -0.14969 0.31734
 H580 H 0.78235 -0.18226 0.34974
 C581 C 0.65111 0.73131 -0.13198
 C582 C 0.63278 0.74940 -0.13181
 C583 C 0.63263 0.76758 -0.14995
 C584 C 0.65070 0.76768 -0.16824
 C585 C 0.66927 0.74956 -0.16867
 C586 C 0.66923 0.73136 -0.15026
 C587 C 0.61412 0.74933 -0.11302
 C588 C 0.59845 0.74931 -0.09733
 C589 C 0.58009 0.74934 -0.07899
 C590 C 0.56440 0.74938 -0.06331
 H591 H 0.65141 0.71714 -0.11801
 H592 H 0.61851 0.78169 -0.14999
 H593 H 0.64999 0.78202 -0.18198
 H594 H 0.68310 0.71710 -0.14983
 C595 C 0.36751 0.23219 -0.14988
 C596 C 0.36759 0.25063 -0.13200
 C597 C 0.34952 0.26897 -0.13247
 C598 C 0.33145 0.26892 -0.15076
 C599 C 0.33118 0.25047 -0.16891
 C600 C 0.34947 0.23208 -0.16819
 C601 C 0.38625 0.25073 -0.11325
 C602 C 0.40193 0.25077 -0.09759
 C603 C 0.42032 0.25075 -0.07929
 C604 C 0.43603 0.25072 -0.06365
 H605 H 0.38142 0.21788 -0.14968
 H606 H 0.34940 0.28334 -0.11869
 H607 H 0.31777 0.28338 -0.15056
 H608 H 0.35001 0.21755 -0.18171
 C609 C 0.34976 0.73107 0.13265
 C610 C 0.36786 0.74939 0.13221
 C611 C 0.36779 0.76782 0.15011
 C612 C 0.34973 0.76793 0.16841
 C613 C 0.33141 0.74957 0.16910
 C614 C 0.33167 0.73113 0.15093
 C615 C 0.38654 0.74929 0.11346
 C616 C 0.40223 0.74927 0.09780
 C617 C 0.42063 0.74931 0.07950
 C618 C 0.43634 0.74937 0.06385
 H619 H 0.34964 0.71671 0.11886
 H620 H 0.38172 0.78211 0.14993
 H621 H 0.35026 0.78245 0.18193
 H622 H 0.31798 0.71669 0.15071
 C623 C 0.65064 0.26871 0.13219
 C624 C 0.63232 0.25061 0.13196
 C625 C 0.63215 0.23238 0.15005
 C626 C 0.65021 0.23221 0.16834
 C627 C 0.66878 0.25033 0.16880
 C628 C 0.66874 0.26859 0.15045
 C629 C 0.61369 0.25074 0.11317
 C630 C 0.59805 0.25077 0.09747
 C631 C 0.57972 0.25076 0.07912
 C632 C 0.56405 0.25073 0.06345
 H633 H 0.65094 0.28292 0.11825
 H634 H 0.61804 0.21827 0.15004
 H635 H 0.64950 0.21783 0.18202
 H636 H 0.68262 0.28286 0.15007
 C637 C -0.13260 0.65069 0.73256
 C638 C -0.13266 0.63260 0.75076
 C639 C -0.15096 0.63280 0.76882
 C640 C -0.16918 0.65101 0.76869
 C641 C -0.16942 0.66945 0.75041
 C642 C -0.15076 0.66893 0.73233
 C643 C -0.11394 0.61383 0.75090
 C644 C -0.09823 0.59815 0.75092
 C645 C -0.07981 0.57982 0.75090
 C646 C -0.06406 0.56417 0.75085
 H647 H -0.11849 0.65070 0.71847
 H648 H -0.15117 0.61886 0.78302
 H649 H -0.18294 0.65042 0.78302
 H650 H -0.14994 0.68252 0.71788
 C651 C -0.13241 0.34988 0.26743
 C652 C -0.13254 0.36799 0.24922
 C653 C -0.15085 0.36778 0.23116
 C654 C -0.16900 0.34954 0.23130
 C655 C -0.16911 0.33119 0.24956
 C656 C -0.15054 0.33161 0.26763
 C657 C -0.11390 0.38679 0.24910
 C658 C -0.09826 0.40252 0.24907
 C659 C -0.07993 0.42089 0.24909
 C660 C -0.06423 0.43656 0.24914
 H661 H -0.11830 0.34987 0.28150
 H662 H -0.15109 0.38174 0.21696
 H663 H -0.18287 0.34994 0.21706
 H664 H -0.14986 0.31791 0.28199
 C665 C 0.15082 0.36811 0.76860
 C666 C 0.13224 0.36804 0.75082
 C667 C 0.13192 0.34970 0.73284
 C668 C 0.15013 0.33151 0.73258
 C669 C 0.16899 0.33138 0.75036
 C670 C 0.16907 0.34994 0.76840
 C671 C 0.11352 0.38680 0.75095
 C672 C 0.09781 0.40248 0.75097
 C673 C 0.07941 0.42081 0.75092
 C674 C 0.06367 0.43646 0.75084
 H675 H 0.15123 0.38224 0.78262
 H676 H 0.11760 0.34947 0.71898
 H677 H 0.14930 0.31764 0.71840
 H678 H 0.18316 0.35057 0.78241
 C679 C 0.13190 0.65063 0.26714
 C680 C 0.13220 0.63232 0.24915
 C681 C 0.15080 0.63219 0.23139
 C682 C 0.16910 0.65030 0.23161
 C683 C 0.16904 0.66885 0.24966
 C684 C 0.15016 0.66877 0.26742
 C685 C 0.11342 0.61364 0.24898
 C686 C 0.09767 0.59803 0.24895
 C687 C 0.07921 0.57978 0.24900
 C688 C 0.06343 0.56418 0.24907
 H689 H 0.11756 0.65090 0.28099
 H690 H 0.15119 0.61807 0.21736
 H691 H 0.18320 0.64965 0.21762
 H692 H 0.14934 0.68263 0.28161
 C693 C 0.76821 -0.15050 0.63204
 C694 C 0.74999 -0.13231 0.63199
 C695 C 0.73184 -0.13230 0.65021
 C696 C 0.73189 -0.15041 0.66844
 C697 C 0.75014 -0.16885 0.66872
 C698 C 0.76832 -0.16863 0.65024
 C699 C 0.74993 -0.11364 0.61325
 C700 C 0.74989 -0.09799 0.59757
 C701 C 0.74986 -0.07966 0.57923
 C702 C 0.74984 -0.06397 0.56359
 H703 H 0.78237 -0.15067 0.61801
 H704 H 0.71763 -0.11829 0.65035
 H705 H 0.71758 -0.14983 0.68223
 H706 H 0.78268 -0.18239 0.64970
 C707 C 0.23179 -0.15022 0.36795
 C708 C 0.25003 -0.13204 0.36808
 C709 C 0.26824 -0.13201 0.34991
 C710 C 0.26823 -0.15006 0.33166
 C711 C 0.24996 -0.16848 0.33129
 C712 C 0.23172 -0.16830 0.34971
 C713 C 0.25004 -0.11341 0.38683
 C714 C 0.25004 -0.09779 0.40251
 C715 C 0.25003 -0.07949 0.42085
 C716 C 0.25003 -0.06381 0.43648
 H717 H 0.21759 -0.15041 0.38194
 H718 H 0.28246 -0.11800 0.34985
 H719 H 0.28259 -0.14946 0.31791
 H720 H 0.21735 -0.18205 0.35019
 C721 C 0.73169 0.13191 0.34968
 C722 C 0.74989 0.13192 0.36785
 C723 C 0.76809 0.15013 0.36776
 C724 C 0.76813 0.16828 0.34959
 C725 C 0.74990 0.16850 0.33117
 C726 C 0.73167 0.15004 0.33147
 C727 C 0.74989 0.11324 0.38656
 C728 C 0.74990 0.09759 0.40223
 C729 C 0.74990 0.07926 0.42055
 C730 C 0.74991 0.06356 0.43618
 H731 H 0.71750 0.11788 0.34956
 H732 H 0.78229 0.15031 0.38176
 H733 H 0.78248 0.18206 0.35010
 H734 H 0.71732 0.14945 0.31772
 C735 C 0.23179 0.15022 0.63221
 C736 C 0.25001 0.13202 0.63213
 C737 C 0.26818 0.13199 0.65032
 C738 C 0.26816 0.15007 0.66856
 C739 C 0.24991 0.16852 0.66887
 C740 C 0.23172 0.16833 0.65041
 C741 C 0.25002 0.11336 0.61341
 C742 C 0.25002 0.09771 0.59775
 C743 C 0.25000 0.07937 0.57944
 C744 C 0.24998 0.06368 0.56382
 H745 H 0.21762 0.15041 0.61820
 H746 H 0.28239 0.11797 0.65043
 H747 H 0.28249 0.14947 0.68232
 H748 H 0.21736 0.18210 0.64989
   
