data_POSCAR
  _audit_creation_date              2014-09-24
  _audit_creation_method            'ToBaCCo'
  _symmetry_space_group_name_H-M    'P1'
  _symmetry_Int_Tables_number       1
  _symmetry_cell_setting            triclinic
  loop_
  _symmetry_equiv_pos_as_xyz
 x,y,z
_cell_length_a 37.9937
_cell_length_b 41.0390
_cell_length_c 20.9744
_cell_angle_alpha 90.118200
_cell_angle_beta 90.021400
_cell_angle_gamma 90.087400
loop_
  _atom_site_label
  _atom_site_type_symbol
  _atom_site_fract_x
  _atom_site_fract_y
  _atom_site_fract_z
O1 O 0.24263 0.28563 0.17571
 O2 O 0.29366 0.21903 0.24781
 O3 O 0.24177 0.22227 0.16650
 O4 O 0.29435 0.28209 0.25676
 O5 O 0.25631 0.27978 0.33602
 O6 O 0.20366 0.22010 0.24553
 O7 O 0.25536 0.21644 0.32667
 O8 O 0.20443 0.28314 0.25475
 Cu9 Cu 0.27188 0.25249 0.20371
 Cu10 Cu 0.22615 0.24961 0.29872
 C11 C 0.21476 0.29573 0.20273
 C12 C 0.28329 0.20641 0.29977
 C13 C 0.21354 0.21097 0.19041
 C14 C 0.28445 0.29109 0.31189
 O15 O 0.70529 0.28383 0.24837
 O16 O 0.75630 0.21719 0.17594
 O17 O 0.70460 0.22078 0.25697
 O18 O 0.75714 0.28055 0.16706
 O19 O 0.79529 0.28276 0.24610
 O20 O 0.74266 0.22316 0.33627
 O21 O 0.79452 0.21972 0.25500
 O22 O 0.74361 0.28649 0.32726
 Cu23 Cu 0.72705 0.25034 0.20410
 Cu24 Cu 0.77281 0.25329 0.29913
 C25 C 0.71567 0.29649 0.30040
 C26 C 0.78417 0.20710 0.20291
 C27 C 0.71451 0.21182 0.31207
 C28 C 0.78538 0.29186 0.19104
 O29 O 0.79466 0.72088 0.75861
 O30 O 0.74300 0.78127 0.66891
 O31 O 0.79476 0.78387 0.75105
 O32 O 0.74323 0.71788 0.67697
 O33 O 0.70489 0.72027 0.75580
 O34 O 0.75601 0.78679 0.82898
 O35 O 0.70450 0.78332 0.74749
 O36 O 0.75652 0.72339 0.83772
 Cu37 Cu 0.77271 0.75077 0.70592
 Cu38 Cu 0.72668 0.75369 0.80044
 C39 C 0.78457 0.71191 0.81360
 C40 C 0.71474 0.79249 0.69272
 C41 C 0.78432 0.79661 0.80298
 C42 C 0.71524 0.70779 0.70362
 O43 O 0.29348 0.78379 0.75407
 O44 O 0.24238 0.71746 0.82727
 O45 O 0.29397 0.72073 0.74595
 O46 O 0.24158 0.78087 0.83532
 O47 O 0.20341 0.78270 0.75630
 O48 O 0.25584 0.72267 0.66673
 O49 O 0.20408 0.71960 0.74831
 O50 O 0.25515 0.78604 0.67518
 Cu51 Cu 0.27163 0.75051 0.79864
 Cu52 Cu 0.22582 0.75296 0.70366
 C53 C 0.28313 0.79618 0.70190
 C54 C 0.21446 0.70723 0.80049
 C55 C 0.28399 0.71150 0.69097
 C56 C 0.21336 0.79205 0.81126
 C57 C 0.99953 0.08290 0.06160
 C58 C 1.03163 0.06917 0.04253
 C59 C 1.03200 0.03745 0.01698
 C60 C 1.00100 0.01842 0.01445
 C61 C 0.96955 0.03242 0.03760
 C62 C 0.96826 0.06490 0.05828
 C63 C 1.00099 -0.01567 -0.01232
 C64 C 0.96941 -0.02996 -0.03441
 C65 C 0.96825 -0.06234 -0.05568
 C66 C 0.99961 -0.08000 -0.06041
 C67 C 1.03176 -0.06608 -0.04180
 C68 C 1.03211 -0.03440 -0.01597
 H69 H 0.99883 0.10804 0.07736
 H70 H 1.05669 0.02789 -0.00025
 H71 H 0.94561 0.01828 0.04030
 H72 H 0.94524 -0.01618 -0.03580
 H73 H 0.99889 -0.10507 -0.07665
 H74 H 1.05687 -0.02465 0.00073
 C75 C 0.49952 0.58352 0.56062
 C76 C 0.53085 0.56569 0.55741
 C77 C 0.52964 0.53312 0.53722
 C78 C 0.49818 0.51881 0.51468
 C79 C 0.46710 0.53764 0.51718
 C80 C 0.46741 0.56950 0.54208
 C81 C 0.49825 0.48458 0.48873
 C82 C 0.46727 0.46553 0.48633
 C83 C 0.46771 0.43368 0.46142
 C84 C 0.49987 0.41989 0.44279
 C85 C 0.53112 0.43795 0.44590
 C86 C 0.52976 0.47051 0.46608
 H87 H 0.50018 0.60873 0.57595
 H88 H 0.55365 0.51913 0.53989
 H89 H 0.44241 0.52778 0.50043
 H90 H 0.44255 0.47521 0.50316
 H91 H 0.50064 0.39468 0.42746
 H92 H 0.55368 0.48468 0.46333
 C93 C -0.00074 0.41989 0.06261
 C94 C -0.03288 0.43367 0.04391
 C95 C -0.03328 0.46542 0.01878
 C96 C -0.00226 0.48441 0.01626
 C97 C 0.02924 0.47035 0.03892
 C98 C 0.03054 0.43786 0.05928
 C99 C -0.00228 0.51855 -0.00987
 C100 C 0.02919 0.53271 -0.03261
 C101 C 0.03045 0.56521 -0.05296
 C102 C -0.00084 0.58309 -0.05609
 C103 C -0.03296 0.56921 -0.03739
 C104 C -0.03333 0.53743 -0.01235
 H105 H -0.00004 0.39474 0.07811
 H106 H -0.05800 0.47505 0.00185
 H107 H 0.05320 0.48449 0.04152
 H108 H 0.05315 0.51865 -0.03530
 H109 H -0.00014 0.60826 -0.07151
 H110 H -0.05802 0.52768 0.00453
 C111 C 0.49932 0.91972 0.55965
 C112 C 0.46799 0.93753 0.55616
 C113 C 0.46922 0.97005 0.53597
 C114 C 0.50072 0.98433 0.51368
 C115 C 0.53181 0.96553 0.51645
 C116 C 0.53147 0.93373 0.54138
 C117 C 0.50068 1.01852 0.48775
 C118 C 0.53167 1.03756 0.48550
 C119 C 0.53124 1.06938 0.46066
 C120 C 0.49909 1.08314 0.44197
 C121 C 0.46784 1.06509 0.44492
 C122 C 0.46919 1.03256 0.46499
 H123 H 0.49864 0.89455 0.57502
 H124 H 0.44521 0.98404 0.53848
 H125 H 0.55653 0.97536 0.49992
 H126 H 0.55638 1.02792 0.50239
 H127 H 0.49833 1.10834 0.42671
 H128 H 0.44527 1.01838 0.46209
 C129 C 1.14073 0.15508 0.14560
 C130 C 1.15163 0.14506 0.08622
 C131 C 1.18293 0.15575 0.05895
 C132 C 1.20372 0.17772 0.09420
 C133 C 1.19301 0.18855 0.15579
 C134 C 1.16093 0.17670 0.18154
 O135 O 1.10997 0.14257 0.16269
 C136 C 1.10119 0.12425 0.11304
 C137 C 1.12574 0.12479 0.06490
 C138 C 1.12140 0.10738 0.00836
 C139 C 1.09047 0.08882 0.00123
 C140 C 1.06466 0.08815 0.05019
 C141 C 1.07041 0.10610 0.10696
 H142 H 1.19097 0.14764 0.01203
 H143 H 1.22805 0.18630 0.07319
 H144 H 1.15157 0.18428 0.22802
 H145 H 1.14099 0.10823 -0.02906
 H146 H 1.08635 0.07550 -0.04275
 H147 H 1.05147 0.10586 0.14553
 C148 C 0.64039 0.65067 0.66340
 C149 C 0.65457 0.63387 0.61281
 C150 C 0.68841 0.63964 0.59023
 C151 C 0.70839 0.66384 0.62089
 C152 C 0.69436 0.68159 0.67322
 C153 C 0.65986 0.67462 0.69490
 O154 O 0.60733 0.64234 0.67585
 C155 C 0.60047 0.61979 0.63211
 C156 C 0.62854 0.61363 0.59250
 C157 C 0.62678 0.59155 0.54228
 C158 C 0.59471 0.57536 0.53214
 C159 C 0.56514 0.58149 0.57191
 C160 C 0.56835 0.60394 0.62299
 H161 H 0.69890 0.62628 0.54997
 H162 H 0.73470 0.66883 0.60362
 H163 H 0.64817 0.68792 0.73415
 H164 H 0.64912 0.58734 0.51134
 H165 H 0.59263 0.55876 0.49212
 H166 H 0.54642 0.60918 0.65430
 C167 C -0.14185 0.34775 0.14653
 C168 C -0.15282 0.35779 0.08728
 C169 C -0.18416 0.34710 0.05998
 C170 C -0.20490 0.32512 0.09509
 C171 C -0.19412 0.31428 0.15656
 C172 C -0.16201 0.32612 0.18233
 O173 O -0.11107 0.36025 0.16365
 C174 C -0.10235 0.37858 0.11414
 C175 C -0.12696 0.37807 0.06607
 C176 C -0.12271 0.39550 0.00969
 C177 C -0.09179 0.41407 0.00264
 C178 C -0.06590 0.41470 0.05152
 C179 C -0.07157 0.39674 0.10813
 H180 H -0.19226 0.35522 0.01317
 H181 H -0.22926 0.31654 0.07406
 H182 H -0.15259 0.31853 0.22872
 H183 H -0.14235 0.39467 -0.02767
 H184 H -0.08772 0.42741 -0.04122
 H185 H -0.05257 0.39695 0.14663
 C186 C 0.35813 0.85306 0.66185
 C187 C 0.34404 0.86974 0.61112
 C188 C 0.31020 0.86398 0.58844
 C189 C 0.29011 0.83992 0.61912
 C190 C 0.30406 0.82230 0.67156
 C191 C 0.33855 0.82927 0.69337
 O192 O 0.39120 0.86134 0.67441
 C193 C 0.39817 0.88373 0.63060
 C194 C 0.37016 0.88983 0.59083
 C195 C 0.37203 0.91174 0.54053
 C196 C 0.40416 0.92783 0.53049
 C197 C 0.43366 0.92177 0.57044
 C198 C 0.43035 0.89948 0.62158
 H199 H 0.29978 0.87723 0.54808
 H200 H 0.26381 0.83493 0.60174
 H201 H 0.35018 0.81605 0.73271
 H202 H 0.34974 0.91591 0.50946
 H203 H 0.40632 0.94431 0.49043
 H204 H 0.45223 0.89430 0.65303
 C205 C -0.14174 0.65512 -0.13990
 C206 C -0.15305 0.64458 -0.08116
 C207 C -0.18467 0.65483 -0.05435
 C208 C -0.20529 0.67687 -0.08944
 C209 C -0.19406 0.68814 -0.15017
 C210 C -0.16178 0.67686 -0.17555
 O211 O -0.11080 0.64296 -0.15668
 C212 C -0.10230 0.62434 -0.10748
 C213 C -0.12720 0.62436 -0.05992
 C214 C -0.12317 0.60659 -0.00389
 C215 C -0.09218 0.58821 0.00332
 C216 C -0.06603 0.58805 -0.04507
 C217 C -0.07149 0.60634 -0.10134
 H218 H -0.19305 0.64632 -0.00796
 H219 H -0.22988 0.68523 -0.06915
 H220 H -0.15223 0.68499 -0.22149
 H221 H -0.14302 0.60704 0.03309
 H222 H -0.08829 0.57464 0.04695
 H223 H -0.05232 0.60648 -0.13954
 C224 C 0.35812 1.14942 0.33917
 C225 C 0.34391 1.13245 0.38945
 C226 C 0.31003 1.13803 0.41198
 C227 C 0.29004 1.16222 0.38164
 C228 C 0.30412 1.18015 0.32967
 C229 C 0.33864 1.17334 0.30798
 O230 O 0.39123 1.14129 0.32679
 C231 C 0.39808 1.11872 0.37026
 C232 C 0.36998 1.11234 0.40963
 C233 C 0.37174 1.09024 0.45962
 C234 C 0.40387 1.07427 0.46980
 C235 C 0.43348 1.08063 0.43029
 C236 C 0.43027 1.10308 0.37941
 H237 H 0.29952 1.12456 0.45201
 H238 H 0.26371 1.16708 0.39891
 H239 H 0.35037 1.18680 0.26902
 H240 H 0.34937 1.08587 0.49040
 H241 H 0.40595 1.05767 0.50968
 H242 H 0.45223 1.10849 0.34830
 C243 C 1.14073 -0.15192 -0.14463
 C244 C 1.15172 -0.14167 -0.08543
 C245 C 1.18302 -0.15223 -0.05807
 C246 C 1.20372 -0.17431 -0.09305
 C247 C 1.19292 -0.18539 -0.15445
 C248 C 1.16084 -0.17365 -0.18031
 O249 O 1.10995 -0.13952 -0.16178
 C250 C 1.10126 -0.12104 -0.11233
 C251 C 1.12589 -0.12138 -0.06428
 C252 C 1.12165 -0.10384 -0.00790
 C253 C 1.09073 -0.08536 -0.00082
 C254 C 1.06483 -0.08489 -0.04967
 C255 C 1.07048 -0.10295 -0.10630
 H256 H 1.19113 -0.14395 -0.01128
 H257 H 1.22805 -0.18280 -0.07196
 H258 H 1.15140 -0.18143 -0.22665
 H259 H 1.14129 -0.10455 0.02945
 H260 H 1.08668 -0.07198 0.04309
 H261 H 1.05145 -0.10289 -0.14475
 C262 C 0.64085 0.35352 0.33999
 C263 C 0.65505 0.37052 0.39039
 C264 C 0.68893 0.36495 0.41296
 C265 C 0.70891 0.34073 0.38252
 C266 C 0.69485 0.32277 0.33042
 C267 C 0.66033 0.32957 0.30870
 O268 O 0.60775 0.36165 0.32758
 C269 C 0.60088 0.38425 0.37115
 C270 C 0.62898 0.39065 0.41061
 C271 C 0.62721 0.41280 0.46072
 C272 C 0.59508 0.42878 0.47090
 C273 C 0.56548 0.42239 0.43129
 C274 C 0.56870 0.39990 0.38030
 H275 H 0.69943 0.37844 0.45308
 H276 H 0.73524 0.33588 0.39982
 H277 H 0.64861 0.31609 0.26965
 H278 H 0.64957 0.41719 0.49157
 H279 H 0.59299 0.44542 0.51086
 H280 H 0.54675 0.39447 0.34911
 C281 C 0.85761 -0.14637 -0.16052
 C282 C 0.84468 -0.13140 -0.10677
 C283 C 0.81192 -0.13881 -0.08112
 C284 C 0.79171 -0.16278 -0.11193
 C285 C 0.80431 -0.17869 -0.16782
 C286 C 0.83778 -0.16988 -0.19256
 O287 O 0.89003 -0.13693 -0.17532
 C288 C 0.89773 -0.11552 -0.12988
 C289 C 0.87078 -0.11111 -0.08697
 C290 C 0.87351 -0.09040 -0.03470
 C291 C 0.90545 -0.07377 -0.02598
 C292 C 0.93394 -0.07827 -0.06897
 C293 C 0.92978 -0.09934 -0.12199
 H294 H 0.80249 -0.12693 -0.03831
 H295 H 0.76630 -0.16895 -0.09184
 H296 H 0.84867 -0.18157 -0.23447
 H297 H 0.85204 -0.08753 -0.00126
 H298 H 0.90836 -0.05817 0.01539
 H299 H 0.95098 -0.10333 -0.15559
 C300 C 0.35870 0.34749 0.35882
 C301 C 0.34745 0.35812 0.41760
 C302 C 0.31574 0.34804 0.44432
 C303 C 0.29494 0.32607 0.40908
 C304 C 0.30609 0.31471 0.34830
 C305 C 0.33849 0.32581 0.32303
 O306 O 0.38973 0.35956 0.34211
 C307 C 0.39833 0.37822 0.39138
 C308 C 0.37341 0.37831 0.43893
 C309 C 0.37749 0.39618 0.49496
 C310 C 0.40853 0.41458 0.50220
 C311 C 0.43468 0.41467 0.45381
 C312 C 0.42920 0.39623 0.39756
 H313 H 0.30740 0.35664 0.49072
 H314 H 0.27026 0.31787 0.42929
 H315 H 0.34796 0.31762 0.27703
 H316 H 0.35762 0.39582 0.53192
 H317 H 0.41243 0.42827 0.54581
 H318 H 0.44837 0.39603 0.35936
 C319 C 0.13980 0.64996 -0.15943
 C320 C 0.15409 0.63322 -0.10895
 C321 C 0.18794 0.63909 -0.08644
 C322 C 0.20783 0.66331 -0.11704
 C323 C 0.19368 0.68099 -0.16924
 C324 C 0.15918 0.67391 -0.19088
 O325 O 0.10673 0.64157 -0.17178
 C326 C 0.09998 0.61907 -0.12809
 C327 C 0.12811 0.61298 -0.08861
 C328 C 0.12645 0.59099 -0.03840
 C329 C 0.09439 0.57483 -0.02811
 C330 C 0.06475 0.58090 -0.06772
 C331 C 0.06787 0.60323 -0.11883
 H332 H 0.19851 0.62579 -0.04626
 H333 H 0.23414 0.66837 -0.09980
 H334 H 0.14741 0.68717 -0.23002
 H335 H 0.14884 0.58685 -0.00756
 H336 H 0.09238 0.55832 0.01192
 H337 H 0.04588 0.60843 -0.15002
 C338 C 0.64027 1.15545 0.35861
 C339 C 0.65151 1.14489 0.41739
 C340 C 0.68320 1.15501 0.44422
 C341 C 0.70401 1.17695 0.40911
 C342 C 0.69287 1.18823 0.34834
 C343 C 0.66049 1.17709 0.32295
 O344 O 0.60926 1.14336 0.34178
 C345 C 0.60065 1.12475 0.39098
 C346 C 0.62554 1.12473 0.43858
 C347 C 0.62144 1.10693 0.49455
 C348 C 0.59041 1.08853 0.50165
 C349 C 0.56427 1.08838 0.45319
 C350 C 0.56977 1.10675 0.39701
 H351 H 0.69153 1.14648 0.49062
 H352 H 0.72868 1.18519 0.42941
 H353 H 0.65103 1.18523 0.27696
 H354 H 0.64130 1.10734 0.53156
 H355 H 0.58649 1.07490 0.54522
 H356 H 0.55062 1.10689 0.35877
 C357 C 0.14014 0.35309 0.16403
 C358 C 0.15429 0.36997 0.11359
 C359 C 0.18805 0.36418 0.09066
 C360 C 0.20798 0.33989 0.12080
 C361 C 0.19397 0.32205 0.17295
 C362 C 0.15957 0.32905 0.19501
 O363 O 0.10713 0.36140 0.17679
 C364 C 0.10027 0.38401 0.13340
 C365 C 0.12829 0.39023 0.09370
 C366 C 0.12649 0.41233 0.04371
 C367 C 0.09441 0.42845 0.03385
 C368 C 0.06489 0.42225 0.07368
 C369 C 0.06815 0.39981 0.12458
 H370 H 0.19851 0.37759 0.05051
 H371 H 0.23422 0.33488 0.10324
 H372 H 0.14789 0.31568 0.23413
 H373 H 0.14878 0.41657 0.01267
 H374 H 0.09229 0.44503 -0.00605
 H375 H 0.04626 0.39451 0.15593
 C376 C 0.64060 0.84859 0.64528
 C377 C 0.65207 0.85927 0.58674
 C378 C 0.68394 0.84939 0.56042
 C379 C 0.70468 0.82755 0.59580
 C380 C 0.69329 0.81612 0.65631
 C381 C 0.66075 0.82705 0.68121
 O382 O 0.60943 0.86042 0.66158
 C383 C 0.60094 0.87897 0.61227
 C384 C 0.62607 0.87923 0.56511
 C385 C 0.62211 0.89698 0.50906
 C386 C 0.59097 0.91509 0.50142
 C387 C 0.56460 0.91501 0.54942
 C388 C 0.56997 0.89670 0.60570
 H389 H 0.69245 0.85802 0.51418
 H390 H 0.72946 0.81947 0.57587
 H391 H 0.65108 0.81878 0.72697
 H392 H 0.64215 0.89675 0.47240
 H393 H 0.58717 0.92868 0.45777
 H394 H 0.55063 0.89637 0.64360
 C395 C 0.85875 0.14970 0.16385
 C396 C 0.84455 0.13276 0.11337
 C397 C 0.81076 0.13852 0.09054
 C398 C 0.79087 0.16285 0.12081
 C399 C 0.80493 0.18074 0.17300
 C400 C 0.83936 0.17377 0.19497
 O401 O 0.89178 0.14140 0.17649
 C402 C 0.89859 0.11875 0.13297
 C403 C 0.87053 0.11249 0.09333
 C404 C 0.87227 0.09035 0.04321
 C405 C 0.90434 0.07424 0.03317
 C406 C 0.93391 0.08049 0.07294
 C407 C 0.93071 0.10295 0.12398
 H408 H 0.80026 0.12507 0.05035
 H409 H 0.76461 0.16784 0.10332
 H410 H 0.85108 0.18719 0.23410
 H411 H 0.84994 0.08608 0.01222
 H412 H 0.90642 0.05764 -0.00684
 H413 H 0.95264 0.10830 0.15528
 C414 C 0.35821 0.65518 0.64451
 C415 C 0.34691 0.64438 0.58583
 C416 C 0.31517 0.65428 0.55908
 C417 C 0.29438 0.67625 0.59416
 C418 C 0.30558 0.68780 0.65482
 C419 C 0.33800 0.67687 0.68015
 O420 O 0.38928 0.64330 0.66123
 C421 C 0.39787 0.62459 0.61207
 C422 C 0.37290 0.62429 0.56458
 C423 C 0.37698 0.60637 0.50863
 C424 C 0.40808 0.58815 0.50141
 C425 C 0.43429 0.58828 0.54973
 C426 C 0.42880 0.60675 0.60591
 H427 H 0.30680 0.64556 0.51275
 H428 H 0.26968 0.68433 0.57390
 H429 H 0.34751 0.68521 0.72604
 H430 H 0.35707 0.60657 0.47171
 H431 H 0.41198 0.57444 0.45783
 H432 H 0.44802 0.60712 0.64405
   
