data_POSCAR
  _audit_creation_date              2014-09-24
  _audit_creation_method            'ToBaCCo'
  _symmetry_space_group_name_H-M    'P1'
  _symmetry_Int_Tables_number       1
  _symmetry_cell_setting            triclinic
  loop_
  _symmetry_equiv_pos_as_xyz
 x,y,z
_cell_length_a 23.3936
_cell_length_b 23.3936
_cell_length_c 44.2086
_cell_angle_alpha 90.000000
_cell_angle_beta 90.000000
_cell_angle_gamma 120.001900
loop_
  _atom_site_label
  _atom_site_type_symbol
  _atom_site_fract_x
  _atom_site_fract_y
  _atom_site_fract_z
Zn1 Zn 0.95583 0.04127 1.01353
 Zn2 Zn 1.08536 0.04418 1.01354
 Zn3 Zn 0.95873 -0.08535 1.01354
 Zn4 Zn 0.99997 0.00003 0.95847
 O5 O 0.99997 0.00003 0.99981
 O6 O 1.00661 0.11194 1.03652
 O7 O 1.10525 -0.00660 1.03652
 O8 O 0.88805 -0.10525 1.03652
 O9 O 1.10243 0.11408 1.03650
 O10 O 0.88593 -0.01155 1.03650
 O11 O 1.01155 -0.10243 1.03650
 O12 O 0.96066 -0.08130 0.94277
 O13 O 1.14502 0.07501 0.98352
 O14 O 0.92990 -0.14502 0.98352
 O15 O 1.08131 0.04205 0.94277
 O16 O 0.95795 0.03934 0.94277
 O17 O 0.92500 0.07010 0.98352
 C18 C 1.06639 0.13757 1.04467
 C19 C 1.07108 -0.06639 1.04467
 C20 C 0.86243 -0.07108 1.04467
 C21 C 0.93336 -0.13781 0.95504
 C22 C 1.13782 0.07126 0.95504
 C23 C 0.92875 0.06664 0.95503
 Zn24 Zn 0.04121 0.95589 0.51353
 Zn25 Zn -0.08541 0.95879 0.51354
 Zn26 Zn 0.04412 1.08542 0.51354
 Zn27 Zn -0.00003 1.00004 0.45847
 O28 O -0.00003 1.00003 0.49981
 O29 O -0.01161 0.88599 0.53650
 O30 O -0.10249 1.01161 0.53650
 O31 O 0.11402 1.10250 0.53650
 O32 O -0.10531 0.88811 0.53652
 O33 O 0.11188 1.00667 0.53652
 O34 O -0.00666 1.10531 0.53652
 O35 O 0.04199 1.08137 0.44277
 O36 O -0.14508 0.92996 0.48352
 O37 O 0.07495 1.14508 0.48352
 O38 O -0.08137 0.96072 0.44277
 O39 O 0.03928 0.95802 0.44277
 O40 O 0.07004 0.92506 0.48352
 C41 C -0.07114 0.86249 0.54467
 C42 C -0.06645 1.07114 0.54467
 C43 C 0.13751 1.06645 0.54467
 C44 C 0.07120 1.13788 0.45504
 C45 C -0.13788 0.93342 0.45504
 C46 C 0.06658 0.92881 0.45503
 O47 O 0.23419 0.55190 0.27504
 O48 O 0.23708 0.66337 0.28481
 C49 C 0.26752 0.72481 0.29020
 O50 O 0.31761 0.76582 0.27504
 O51 O 0.42618 0.76292 0.28480
 C52 C 0.45719 0.73249 0.29021
 O53 O 0.44810 0.68240 0.27504
 O54 O 0.33663 0.57383 0.28481
 C55 C 0.27519 0.54282 0.29021
 O56 O 0.23705 0.57372 0.21498
 O57 O 0.23415 0.68234 0.22475
 C58 C 0.27510 0.73255 0.20962
 O59 O 0.33657 0.76295 0.21498
 O60 O 0.44809 0.76586 0.22475
 C61 C 0.45734 0.72490 0.20962
 O62 O 0.42628 0.66344 0.21498
 O63 O 0.31766 0.55191 0.22475
 C64 C 0.26745 0.54266 0.20962
 Cr65 Cr 0.23921 0.61964 0.24989
 Cr66 Cr 0.38032 0.76079 0.24989
 Cr67 Cr 0.38036 0.61969 0.24989
 O68 O 0.33330 0.66670 0.24988
 O69 O 0.76286 0.42624 0.78480
 O70 O 0.76576 0.31767 0.77504
 C71 C 0.72475 0.26758 0.79021
 O72 O 0.66331 0.23714 0.78481
 O73 O 0.55184 0.23425 0.77504
 C74 C 0.54276 0.27525 0.79021
 O75 O 0.57376 0.33669 0.78481
 O76 O 0.68234 0.44816 0.77504
 C77 C 0.73243 0.45725 0.79020
 O78 O 0.76580 0.44815 0.72475
 O79 O 0.76289 0.33663 0.71498
 C80 C 0.73248 0.27516 0.70962
 O81 O 0.68228 0.23421 0.72475
 O82 O 0.57366 0.23711 0.71498
 C83 C 0.54260 0.26751 0.70962
 O84 O 0.55185 0.31772 0.72475
 O85 O 0.66338 0.42634 0.71498
 C86 C 0.72484 0.45740 0.70962
 Cr87 Cr 0.76073 0.38038 0.74989
 Cr88 Cr 0.61958 0.23927 0.74989
 Cr89 Cr 0.61963 0.38043 0.74989
 O90 O 0.66664 0.33336 0.74988
 C91 C 0.16069 0.42854 0.14676
 C92 C 0.19280 0.39286 0.14076
 C93 C 0.25017 0.40729 0.15667
 C94 C 0.27497 0.45662 0.17877
 C95 C 0.09380 0.19418 0.06417
 C96 C 0.18541 0.47798 0.16885
 C97 C 0.16589 0.34000 0.11900
 C98 C 0.14327 0.29483 0.10125
 C99 C 0.11666 0.24097 0.08101
 C100 C 0.24259 0.49224 0.18531
 H101 H 0.11616 0.41768 0.13460
 H102 H 0.27536 0.37989 0.15224
 H103 H 0.31911 0.46633 0.19093
 H104 H 0.15928 0.50442 0.17328
 C105 C 0.59272 0.84299 0.15667
 C106 C 0.60714 0.80005 0.14075
 C107 C 0.57145 0.73225 0.14676
 C108 C 0.52201 0.70754 0.16885
 C109 C 0.80583 0.89972 0.06416
 C110 C 0.54339 0.81845 0.17876
 C111 C 0.66000 0.82600 0.11900
 C112 C 0.70517 0.84854 0.10125
 C113 C 0.75903 0.87579 0.08100
 C114 C 0.50776 0.75046 0.18530
 H115 H 0.62012 0.89557 0.15224
 H116 H 0.58230 0.69858 0.13460
 H117 H 0.49557 0.65496 0.17328
 H118 H 0.53368 0.85290 0.19093
 C119 C 0.26775 0.83930 0.14676
 C120 C 0.19995 0.80720 0.14076
 C121 C 0.15702 0.74983 0.15667
 C122 C 0.18155 0.72503 0.17876
 C123 C 0.10028 0.90621 0.06417
 C124 C 0.29247 0.81459 0.16885
 C125 C 0.17400 0.83411 0.11900
 C126 C 0.15146 0.85673 0.10126
 C127 C 0.12421 0.88335 0.08101
 C128 C 0.24955 0.75741 0.18530
 H129 H 0.30142 0.88383 0.13460
 H130 H 0.10443 0.72464 0.15224
 H131 H 0.14711 0.68089 0.19093
 H132 H 0.34504 0.84072 0.17328
 C133 C 0.84293 0.59278 0.65667
 C134 C 0.79999 0.60720 0.64075
 C135 C 0.73219 0.57151 0.64676
 C136 C 0.70748 0.52208 0.66885
 C137 C 0.89966 0.80589 0.56416
 C138 C 0.81840 0.54345 0.67876
 C139 C 0.82594 0.66006 0.61900
 C140 C 0.84848 0.70523 0.60125
 C141 C 0.87573 0.75910 0.58100
 C142 C 0.75040 0.50782 0.68530
 H143 H 0.89551 0.62018 0.65224
 H144 H 0.69852 0.58236 0.63460
 H145 H 0.65490 0.49563 0.67327
 H146 H 0.85284 0.53374 0.69093
 C147 C 0.40723 0.25023 0.65667
 C148 C 0.39280 0.19286 0.64076
 C149 C 0.42848 0.16075 0.64676
 C150 C 0.47791 0.18547 0.66885
 C151 C 0.19412 0.09386 0.56417
 C152 C 0.45656 0.27503 0.67876
 C153 C 0.33994 0.16595 0.61900
 C154 C 0.29477 0.14333 0.60125
 C155 C 0.24091 0.11672 0.58100
 C156 C 0.49218 0.24265 0.68531
 H157 H 0.37984 0.27542 0.65224
 H158 H 0.41762 0.11622 0.63460
 H159 H 0.50436 0.15934 0.67328
 H160 H 0.46627 0.31917 0.69093
 C161 C 0.83924 0.26781 0.64676
 C162 C 0.80714 0.20001 0.64076
 C163 C 0.74977 0.15707 0.65667
 C164 C 0.72497 0.18161 0.67877
 C165 C 0.90615 0.10034 0.56417
 C166 C 0.81453 0.29252 0.66885
 C167 C 0.83405 0.17406 0.61901
 C168 C 0.85667 0.15152 0.60126
 C169 C 0.88329 0.12427 0.58101
 C170 C 0.75735 0.24961 0.68531
 H171 H 0.88377 0.30148 0.63460
 H172 H 0.72458 0.10449 0.65224
 H173 H 0.68083 0.14717 0.69093
 H174 H 0.84066 0.34510 0.67328
 C175 C 0.42956 0.26819 0.85344
 C176 C 0.39400 0.20043 0.85953
 C177 C 0.40818 0.15742 0.84354
 C178 C 0.45716 0.18184 0.82128
 C179 C 0.19508 0.10070 0.93595
 C180 C 0.47864 0.29280 0.83119
 C181 C 0.34134 0.17456 0.88138
 C182 C 0.29621 0.15204 0.89915
 C183 C 0.24220 0.12474 0.91931
 C184 C 0.49265 0.24980 0.81465
 H185 H 0.41886 0.30192 0.86565
 H186 H 0.38085 0.10485 0.84803
 H187 H 0.46669 0.14734 0.80906
 H188 H 0.50500 0.34535 0.82670
 C189 C 0.74916 0.59182 0.84354
 C190 C 0.80637 0.60601 0.85953
 C191 C 0.83857 0.57046 0.85344
 C192 C 0.81410 0.52138 0.83118
 C193 C 0.90553 0.80492 0.93595
 C194 C 0.72461 0.54284 0.82128
 C195 C 0.83316 0.65867 0.88138
 C196 C 0.85576 0.70380 0.89915
 C197 C 0.88246 0.75781 0.91931
 C198 C 0.75709 0.50736 0.81465
 H199 H 0.72392 0.61914 0.84803
 H200 H 0.88300 0.58117 0.86564
 H201 H 0.84029 0.49503 0.82669
 H202 H 0.68058 0.53330 0.80906
 C203 C 0.73181 0.16144 0.85344
 C204 C 0.79957 0.19364 0.85953
 C205 C 0.84259 0.25085 0.84353
 C206 C 0.81817 0.27540 0.82127
 C207 C 0.89931 0.09447 0.93595
 C208 C 0.70721 0.18591 0.83118
 C209 C 0.82545 0.16685 0.88138
 C210 C 0.84797 0.14425 0.89914
 C211 C 0.87527 0.11754 0.91930
 C212 C 0.75021 0.24292 0.81465
 H213 H 0.69809 0.11701 0.86565
 H214 H 0.89515 0.27608 0.84802
 H215 H 0.85266 0.31943 0.80906
 H216 H 0.65466 0.15972 0.82670
 C217 C 0.57040 0.83863 0.35344
 C218 C 0.60595 0.80643 0.35953
 C219 C 0.59175 0.74922 0.34354
 C220 C 0.54278 0.72467 0.32128
 C221 C 0.80486 0.90560 0.43595
 C222 C 0.52132 0.81417 0.33118
 C223 C 0.65861 0.83322 0.38138
 C224 C 0.70374 0.85582 0.39915
 C225 C 0.75775 0.88253 0.41931
 C226 C 0.50730 0.75715 0.31465
 H227 H 0.58111 0.88307 0.36564
 H228 H 0.61908 0.72398 0.34803
 H229 H 0.53324 0.68064 0.30906
 H230 H 0.49496 0.84035 0.32669
 C231 C 0.15736 0.40824 0.34354
 C232 C 0.20037 0.39406 0.35953
 C233 C 0.26813 0.42962 0.35344
 C234 C 0.29274 0.47870 0.33119
 C235 C 0.10064 0.19514 0.43595
 C236 C 0.18178 0.45722 0.32128
 C237 C 0.17450 0.34140 0.38138
 C238 C 0.15198 0.29627 0.39915
 C239 C 0.12468 0.24226 0.41931
 C240 C 0.24974 0.49271 0.31465
 H241 H 0.10479 0.38091 0.34803
 H242 H 0.30186 0.41892 0.36565
 H243 H 0.34529 0.50506 0.32670
 H244 H 0.14728 0.46675 0.30906
 C245 C 0.25078 0.84265 0.34353
 C246 C 0.19358 0.79964 0.35953
 C247 C 0.16138 0.73188 0.35344
 C248 C 0.18585 0.70727 0.33118
 C249 C 0.09441 0.89937 0.43595
 C250 C 0.27534 0.81823 0.32127
 C251 C 0.16679 0.82551 0.38138
 C252 C 0.14419 0.84803 0.39914
 C253 C 0.11748 0.87533 0.41930
 C254 C 0.24286 0.75027 0.31465
 H255 H 0.27602 0.89522 0.34802
 H256 H 0.11695 0.69815 0.36565
 H257 H 0.15966 0.65472 0.32670
 H258 H 0.31937 0.85272 0.30906
   
