data_POSCAR
  _audit_creation_date              2014-09-24
  _audit_creation_method            'ToBaCCo'
  _symmetry_space_group_name_H-M    'P1'
  _symmetry_Int_Tables_number       1
  _symmetry_cell_setting            triclinic
  loop_
  _symmetry_equiv_pos_as_xyz
 x,y,z
_cell_length_a 40.6941
_cell_length_b 40.6090
_cell_length_c 14.0803
_cell_angle_alpha 89.869400
_cell_angle_beta 89.555300
_cell_angle_gamma 120.040200
loop_
  _atom_site_label
  _atom_site_type_symbol
  _atom_site_fract_x
  _atom_site_fract_y
  _atom_site_fract_z
O1 O 0.27949 0.47982 0.57641
 O2 O 0.20726 0.47715 0.41529
 O3 O 0.27172 0.47892 0.39394
 O4 O 0.21434 0.47669 0.59917
 O5 O 0.24315 0.53927 0.59732
 O6 O 0.30275 0.54150 0.39722
 O7 O 0.23730 0.53976 0.41605
 O8 O 0.30842 0.54266 0.57949
 Cu9 Cu 0.24021 0.47183 0.49610
 Cu10 Cu 0.27591 0.54712 0.49676
 C11 C 0.30616 0.51163 0.60492
 C12 C 0.20923 0.50826 0.39095
 C13 C 0.29773 0.51063 0.36162
 C14 C 0.21861 0.50756 0.63312
 O15 O 0.54349 -0.25959 0.40095
 O16 O 0.54611 -0.19259 0.58204
 O17 O 0.54915 -0.25527 0.58423
 O18 O 0.54370 -0.19463 0.39899
 O19 O 0.48101 -0.22846 0.40394
 O20 O 0.48697 -0.28649 0.59788
 O21 O 0.48338 -0.22383 0.58689
 O22 O 0.48132 -0.29292 0.41707
 Cu23 Cu 0.55187 -0.22227 0.49010
 Cu24 Cu 0.47689 -0.26112 0.50219
 C25 C 0.51191 -0.28921 0.38295
 C26 C 0.51499 -0.19643 0.61332
 C27 C 0.51917 -0.28140 0.62330
 C28 C 0.51159 -0.20079 0.37105
 O29 O 1.20281 0.74121 0.58903
 O30 O 1.26697 0.80108 0.39755
 O31 O 1.20000 0.74212 0.40675
 O32 O 1.26902 0.80349 0.58175
 O33 O 1.29683 0.76886 0.57982
 O34 O 1.22533 0.70520 0.40585
 O35 O 1.29409 0.76601 0.39287
 O36 O 1.23115 0.70714 0.58873
 Cu37 Cu 1.23234 0.77573 0.49426
 Cu38 Cu 1.26485 0.73345 0.49074
 C39 C 1.20587 0.71372 0.62185
 C40 C 1.29104 0.79362 0.36064
 C41 C 1.19962 0.71228 0.37927
 C42 C 1.29424 0.79669 0.61234
 O43 O 0.79396 0.52121 0.39636
 O44 O 0.73700 0.52591 0.59403
 O45 O 0.79985 0.52425 0.57831
 O46 O 0.73072 0.52325 0.41134
 O47 O 0.69933 0.46049 0.41656
 O48 O 0.76698 0.46177 0.59034
 O49 O 0.70370 0.46352 0.60026
 O50 O 0.76279 0.45863 0.40460
 Cu51 Cu 0.76864 0.52986 0.49382
 Cu52 Cu 0.73005 0.45477 0.50334
 C53 C 0.78851 0.48938 0.36674
 C54 C 0.71042 0.49572 0.63153
 C55 C 0.79504 0.49349 0.61443
 C56 C 0.70256 0.49162 0.38762
 O57 O 0.44957 0.19352 0.59160
 O58 O 0.45101 0.25993 0.41351
 O59 O 0.44932 0.19562 0.40833
 O60 O 0.45606 0.26116 0.59644
 O61 O 0.51843 0.29265 0.58239
 O62 O 0.51134 0.22140 0.41093
 O63 O 0.51337 0.29006 0.40636
 O64 O 0.51182 0.22772 0.60189
 Cu65 Cu 0.44530 0.22460 0.50294
 Cu66 Cu 0.51993 0.25960 0.49646
 C67 C 0.48023 0.19983 0.63023
 C68 C 0.48196 0.28732 0.38241
 C69 C 0.47920 0.19596 0.38106
 C70 C 0.48834 0.28860 0.62044
 O71 O 0.72984 0.19532 0.41674
 O72 O 0.80488 0.25901 0.58149
 O73 O 0.73523 0.20188 0.60080
 O74 O 0.79879 0.25321 0.39890
 O75 O 0.77872 0.29431 0.40023
 O76 O 0.71322 0.24129 0.59470
 O77 O 0.78243 0.29813 0.58123
 O78 O 0.70909 0.23608 0.41005
 Cu79 Cu 0.76928 0.22331 0.49981
 Cu80 Cu 0.74340 0.27121 0.49608
 C81 C 0.70629 0.20459 0.38611
 C82 C 0.80744 0.29009 0.60782
 C83 C 0.71245 0.21242 0.63112
 C84 C 0.80115 0.28370 0.36824
 O85 O 0.95235 0.41276 0.16498
 O86 O 0.90968 0.41754 0.06876
 C87 C 0.91818 0.40058 0.13423
 O88 O 1.04679 0.58664 0.16181
 O89 O 1.09348 0.58239 0.08109
 C90 C 1.08225 0.59936 0.14005
 O91 O 0.94104 0.52329 0.15999
 O92 O 0.90423 0.47078 0.06891
 C93 C 0.90849 0.49554 0.13308
 O94 O 1.05801 0.47225 0.17433
 O95 O 1.09861 0.52749 0.09469
 C96 C 1.09145 0.50116 0.15727
 Zr97 Zr 1.00445 0.46022 0.12185
 O98 O 0.99675 0.46276 0.27022
 O99 O 1.01044 0.41194 0.14155
 Zr100 Zr 0.99641 0.53859 0.11300
 O101 O 0.99659 0.54022 0.26329
 O102 O 0.98711 0.58537 0.10736
 O103 O 0.96602 0.47967 0.13152
 O104 O 1.03301 0.51845 0.13881
 O105 O 1.06617 0.47479 -0.15861
 O106 O 1.10232 0.52641 -0.06667
 C107 C 1.09888 0.50202 -0.13024
 O108 O 0.94938 0.52540 -0.18497
 O109 O 0.90826 0.47196 -0.09938
 C110 C 0.91565 0.49793 -0.16331
 O111 O 1.05470 0.58729 -0.16790
 O112 O 1.09726 0.58086 -0.07471
 C113 C 1.08889 0.59791 -0.13991
 O114 O 0.95983 0.41567 -0.17748
 O115 O 0.91315 0.41879 -0.09277
 C116 C 0.92431 0.40328 -0.15623
 Zr117 Zr 1.01037 0.46061 -0.11800
 O118 O 1.01758 0.46187 -0.26723
 O119 O 1.01274 0.40977 -0.10972
 Zr120 Zr 1.00236 0.53924 -0.12627
 O121 O 1.00967 0.54019 -0.27558
 O122 O 0.99452 0.58690 -0.13476
 Zr123 Zr 0.94686 0.46688 -0.00949
 Zr124 Zr 1.05984 0.53222 0.00469
 O125 O 1.03962 0.51891 -0.13526
 O126 O 0.97292 0.48044 -0.14505
 O127 O 1.04175 0.47365 0.00672
 O128 O 0.96595 0.52556 -0.01101
 O129 O 0.97537 0.43563 -0.00183
 O130 O 1.03243 0.56457 -0.00321
 H131 H 1.04839 0.52835 0.19664
 H132 H 0.94719 0.53422 -0.01379
 H133 H 1.05772 0.52871 -0.18955
 H134 H 0.96074 0.40747 -0.00345
 H135 H 1.00736 0.60509 0.06679
 H136 H 1.01315 0.60668 -0.09229
 H137 H 0.98809 0.51674 -0.30133
 H138 H 0.99768 0.46581 -0.29576
 H139 H 1.03536 0.41515 -0.07225
 H140 H 1.00886 0.40107 0.07796
 H141 H 1.02192 0.47728 0.30020
 H142 H 0.97821 0.51432 0.28640
 O143 O 0.42137 0.48149 0.15969
 O144 O 0.43568 0.53304 0.06674
 C145 C 0.41588 0.50901 0.13289
 O146 O 0.58633 0.52855 0.17449
 O147 O 0.57351 0.47578 0.08745
 C148 C 0.59157 0.50041 0.15316
 O149 O 0.53830 0.58645 0.17606
 O150 O 0.49281 0.58436 0.07670
 C151 C 0.51532 0.59790 0.14880
 O152 O 0.46270 0.41717 0.15931
 O153 O 0.51417 0.42248 0.07908
 C154 C 0.48578 0.40495 0.13796
 Zr155 Zr 0.46051 0.46522 0.11054
 O156 O 0.45848 0.46129 0.26074
 O157 O 0.40434 0.41884 0.10499
 Zr158 Zr 0.54773 0.54407 0.11751
 O159 O 0.55122 0.54613 0.26722
 O160 O 0.60031 0.59568 0.10924
 O161 O 0.48949 0.52370 0.13044
 O162 O 0.51734 0.48572 0.13419
 O163 O 0.46951 0.41800 -0.16887
 O164 O 0.51886 0.42474 -0.07953
 C165 C 0.49283 0.40680 -0.14150
 O166 O 0.54643 0.59126 -0.17680
 O167 O 0.49533 0.58548 -0.09216
 C168 C 0.52196 0.60192 -0.15540
 O169 O 0.59548 0.53317 -0.15930
 O170 O 0.57794 0.47802 -0.07580
 C171 C 0.60001 0.50479 -0.13474
 O172 O 0.42779 0.48191 -0.18808
 O173 O 0.43865 0.53334 -0.09772
 C174 C 0.42110 0.50891 -0.16457
 Zr175 Zr 0.46562 0.46632 -0.12839
 O176 O 0.47106 0.46492 -0.27779
 O177 O 0.40944 0.41973 -0.13422
 Zr178 Zr 0.55222 0.54552 -0.12113
 O179 O 0.55605 0.54300 -0.27076
 O180 O 0.60469 0.59710 -0.12108
 Zr181 Zr 0.48234 0.53756 -0.00939
 Zr182 Zr 0.53048 0.47276 -0.00041
 O183 O 0.52334 0.48718 -0.13951
 O184 O 0.49484 0.52532 -0.14606
 O185 O 0.47071 0.44019 -0.00651
 O186 O 0.54200 0.56956 -0.00340
 O187 O 0.44272 0.47893 -0.01209
 O188 O 0.57124 0.53134 0.00153
 H189 H 0.52247 0.47563 0.19249
 H190 H 0.55428 0.59767 -0.00228
 H191 H 0.53169 0.47761 -0.19388
 H192 H 0.41528 0.47040 -0.01476
 H193 H 0.62042 0.58924 0.09707
 H194 H 0.61951 0.59558 -0.06778
 H195 H 0.53445 0.54437 -0.29815
 H196 H 0.47636 0.48985 -0.30325
 H197 H 0.40862 0.39833 -0.09849
 H198 H 0.40458 0.40022 0.06040
 H199 H 0.46290 0.48589 0.28587
 H200 H 0.52511 0.52984 0.29170
 O201 O 0.53279 -0.05052 0.16225
 O202 O 0.48361 -0.09312 0.07066
 C203 C 0.50861 -0.08511 0.13619
 O204 O 0.45841 0.04741 0.16039
 O205 O 0.51021 0.09316 0.07946
 C206 C 0.48178 0.08262 0.13784
 O207 O 0.41402 -0.05811 0.15974
 O208 O 0.42741 -0.09667 0.06816
 C209 C 0.40740 -0.09128 0.13187
 O210 O 0.58329 0.05667 0.16651
 O211 O 0.57007 0.09786 0.08534
 C212 C 0.58911 0.09053 0.14742
 Zr213 Zr 0.54151 0.00299 0.11408
 O214 O 0.54303 0.00374 0.26430
 O215 O 0.59457 0.00553 0.10420
 Zr216 Zr 0.45582 -0.00318 0.11365
 O217 O 0.45859 -0.00139 0.26392
 O218 O 0.40082 -0.01023 0.12076
 O219 O 0.48328 -0.03438 0.13003
 O220 O 0.51299 0.03264 0.13383
 O221 O 0.58766 0.06175 -0.16620
 O222 O 0.57220 0.10013 -0.07975
 C223 C 0.59289 0.09482 -0.14174
 O224 O 0.41725 -0.05273 -0.17987
 O225 O 0.42960 -0.09379 -0.09613
 C226 C 0.41080 -0.08655 -0.15853
 O227 O 0.46012 0.05269 -0.15697
 O228 O 0.51280 0.09590 -0.07748
 C229 C 0.48456 0.08744 -0.13350
 O230 O 0.53770 -0.04418 -0.18289
 O231 O 0.48707 -0.08968 -0.09633
 C232 C 0.51334 -0.07923 -0.16099
 Zr233 Zr 0.54418 0.00680 -0.12470
 O234 O 0.54747 0.01307 -0.27437
 O235 O 0.59633 0.00710 -0.12225
 Zr236 Zr 0.45870 0.00086 -0.12686
 O237 O 0.46793 0.00816 -0.27567
 O238 O 0.40502 -0.00431 -0.14902
 Zr239 Zr 0.47453 -0.05491 -0.01024
 Zr240 Zr 0.52508 0.05868 -0.00106
 O241 O 0.51629 0.03736 -0.14034
 O242 O 0.48638 -0.03003 -0.14712
 O243 O 0.56460 0.03956 -0.00227
 O244 O 0.43631 -0.03426 -0.00931
 O245 O 0.53414 -0.02793 -0.00778
 O246 O 0.46527 0.03181 -0.00372
 H247 H 0.51940 0.04846 0.19141
 H248 H 0.40869 -0.05229 -0.01039
 H249 H 0.52422 0.05556 -0.19416
 H250 H 0.54644 -0.04368 -0.00874
 H251 H 0.39850 0.00339 0.06532
 H252 H 0.39161 -0.01114 -0.08715
 H253 H 0.46230 -0.01659 -0.30263
 H254 H 0.52395 -0.00822 -0.30061
 H255 H 0.61232 0.02562 -0.07352
 H256 H 0.60211 0.00442 0.17035
 H257 H 0.51803 -0.01670 0.28732
 H258 H 0.45759 -0.02499 0.28628
 C259 C 1.16821 0.53527 0.34796
 C260 C 1.17998 0.50771 0.33692
 C261 C 1.16086 0.47812 0.27144
 C262 C 1.13306 0.47709 0.21235
 C263 C 1.12287 0.50518 0.21739
 C264 C 1.13976 0.53406 0.28696
 C265 C 1.18111 0.56169 0.42383
 C266 C 1.16786 0.58706 0.43621
 C267 C 1.14092 0.58631 0.37534
 C268 C 1.12707 0.56027 0.30147
 H269 H 1.19993 0.56213 0.47785
 H270 H 1.17796 0.60685 0.49472
 H271 H 1.13011 0.60554 0.38652
 H272 H 1.10570 0.56038 0.25755
 H273 H 1.16835 0.45615 0.26333
 H274 H 1.11938 0.45412 0.16186
 C275 C 0.48514 0.64211 0.34529
 C276 C 0.51104 0.68165 0.32713
 C277 C 0.53803 0.69188 0.25339
 C278 C 0.53828 0.66455 0.19428
 C279 C 0.51258 0.62598 0.20910
 C280 C 0.48650 0.61433 0.28615
 C281 C 0.46029 0.62903 0.42544
 C282 C 0.43640 0.59034 0.44319
 C283 C 0.43759 0.56356 0.38454
 C284 C 0.46281 0.57533 0.30793
 H285 H 0.45960 0.64782 0.47816
 H286 H 0.41757 0.58113 0.50440
 H287 H 0.41947 0.53353 0.39959
 H288 H 0.46403 0.55356 0.26695
 H289 H 0.55846 0.72153 0.23912
 H290 H 0.55901 0.67355 0.13703
 C291 C 0.30796 -0.15770 0.23263
 C292 C 0.31554 -0.18281 0.28725
 C293 C 0.35045 -0.18157 0.27267
 C294 C 0.37926 -0.15296 0.21750
 C295 C 0.37414 -0.12475 0.17482
 C296 C 0.33783 -0.12788 0.17844
 C297 C 0.27108 -0.16241 0.22669
 C298 C 0.26469 -0.13652 0.17680
 C299 C 0.29434 -0.10628 0.12861
 C300 C 0.33027 -0.10251 0.12705
 H301 H 0.24639 -0.18674 0.25695
 H302 H 0.23641 -0.14033 0.17425
 H303 H 0.28921 -0.08626 0.08993
 H304 H 0.35163 -0.08011 0.08324
 H305 H 0.35683 -0.20104 0.30997
 H306 H 0.40659 -0.15144 0.21320
 C307 C 0.83324 0.51852 0.22399
 C308 C 0.81408 0.48854 0.29147
 C309 C 0.82317 0.45945 0.29503
 C310 C 0.85254 0.46122 0.23930
 C311 C 0.87424 0.49239 0.17939
 C312 C 0.86448 0.52123 0.17055
 C313 C 0.82200 0.54582 0.20769
 C314 C 0.84291 0.57670 0.14712
 C315 C 0.87479 0.58060 0.09992
 C316 C 0.88510 0.55281 0.10953
 H317 H 0.79665 0.54334 0.23971
 H318 H 0.83431 0.59772 0.13671
 H319 H 0.89128 0.60509 0.05474
 H320 H 0.90922 0.55630 0.06869
 H321 H 0.80888 0.43615 0.34528
 H322 H 0.85996 0.43923 0.24758
 C323 C 0.44957 0.32270 0.31693
 C324 C 0.48102 0.31634 0.31889
 C325 C 0.51155 0.33716 0.25606
 C326 C 0.51185 0.36423 0.19419
 C327 C 0.48079 0.37030 0.18924
 C328 C 0.44784 0.34644 0.24476
 C329 C 0.41996 0.30694 0.38584
 C330 C 0.38712 0.30913 0.37468
 C331 C 0.38303 0.32700 0.29525
 C332 C 0.41299 0.34545 0.23078
 H333 H 0.42188 0.29377 0.45047
 H334 H 0.36449 0.29630 0.42713
 H335 H 0.35681 0.32718 0.28440
 H336 H 0.40805 0.35784 0.16871
 H337 H 0.53595 0.33315 0.25628
 H338 H 0.53724 0.38140 0.15208
 C339 C 0.63647 0.16740 0.33794
 C340 C 0.67515 0.17788 0.32300
 C341 C 0.68426 0.16026 0.24988
 C342 C 0.65623 0.13300 0.19180
 C343 C 0.61804 0.12230 0.20472
 C344 C 0.60785 0.13937 0.27846
 C345 C 0.62512 0.18262 0.41328
 C346 C 0.58695 0.17108 0.42850
 C347 C 0.55925 0.14345 0.37167
 C348 C 0.56947 0.12781 0.29727
 H349 H 0.64513 0.20303 0.46230
 H350 H 0.57862 0.18334 0.48510
 H351 H 0.52962 0.13405 0.38540
 H352 H 0.54695 0.10651 0.25519
 H353 H 0.71346 0.16746 0.23807
 H354 H 0.66438 0.11967 0.13705
 C355 C 0.50285 0.18632 -0.21756
 C356 C 0.47881 0.17471 -0.29826
 C357 C 0.45262 0.13591 -0.30902
 C358 C 0.45399 0.10868 -0.25196
 C359 C 0.48027 0.11882 -0.17792
 C360 C 0.50275 0.15829 -0.15511
 C361 C 0.52532 0.22514 -0.19435
 C362 C 0.54759 0.23651 -0.11332
 C363 C 0.54700 0.20951 -0.05181
 C364 C 0.52449 0.17094 -0.07135
 H365 H 0.52471 0.24696 -0.23630
 H366 H 0.56448 0.26638 -0.09650
 H367 H 0.56335 0.21846 0.01285
 H368 H 0.52329 0.15182 -0.01711
 H369 H 0.43294 0.12606 -0.36774
 H370 H 0.43513 0.07913 -0.26959
 C371 C 0.69738 0.53127 -0.24098
 C372 C 0.68705 0.49782 -0.29589
 C373 C 0.65058 0.46600 -0.28120
 C374 C 0.62342 0.46829 -0.22506
 C375 C 0.63165 0.50222 -0.18020
 C376 C 0.66925 0.53338 -0.18387
 C377 C 0.73525 0.56190 -0.23656
 C378 C 0.74464 0.59402 -0.18224
 C379 C 0.71698 0.59621 -0.12888
 C380 C 0.67976 0.56608 -0.12853
 H381 H 0.75854 0.56115 -0.27092
 H382 H 0.77379 0.61704 -0.17999
 H383 H 0.72458 0.62096 -0.08561
 H384 H 0.65966 0.56817 -0.08197
 H385 H 0.64178 0.43965 -0.31873
 H386 H 0.59501 0.44385 -0.22097
 C387 C 0.87245 0.31582 -0.31943
 C388 C 0.83754 0.31591 -0.33323
 C389 C 0.83239 0.34320 -0.28421
 C390 C 0.85986 0.36945 -0.22414
 C391 C 0.89428 0.37036 -0.21008
 C392 C 0.89964 0.34169 -0.25293
 C393 C 0.88238 0.29231 -0.37230
 C394 C 0.91497 0.29066 -0.35186
 C395 C 0.93866 0.31240 -0.27916
 C396 C 0.93121 0.33769 -0.23016
 H397 H 0.86638 0.27572 -0.43198
 H398 H 0.92171 0.27213 -0.39233
 H399 H 0.96329 0.31010 -0.26157
 H400 H 0.94995 0.35324 -0.17283
 H401 H 0.80646 0.34431 -0.29129
 H402 H 0.85412 0.38976 -0.18915
 C403 C 0.53430 -0.15745 -0.23545
 C404 C 0.51524 -0.16746 -0.32355
 C405 C 0.49632 -0.14867 -0.35490
 C406 C 0.49656 -0.11981 -0.30148
 C407 C 0.51525 -0.10926 -0.21455
 C408 C 0.53453 -0.12784 -0.18070
 C409 C 0.55234 -0.17677 -0.19945
 C410 C 0.57081 -0.16663 -0.11234
 C411 C 0.57180 -0.13711 -0.05991
 C412 C 0.55400 -0.11771 -0.09370
 H413 H 0.55194 -0.20006 -0.23755
 H414 H 0.58442 -0.18176 -0.08536
 H415 H 0.58619 -0.12937 0.00762
 H416 H 0.55517 -0.09517 -0.05058
 H417 H 0.48178 -0.15597 -0.42237
 H418 H 0.48205 -0.10552 -0.32830
 C419 C 0.33226 0.51350 -0.23230
 C420 C 0.33516 0.51255 -0.33224
 C421 C 0.36577 0.51130 -0.37391
 C422 C 0.39359 0.51094 -0.31794
 C423 C 0.39146 0.51149 -0.21859
 C424 C 0.36031 0.51235 -0.17463
 C425 C 0.30147 0.51453 -0.18852
 C426 C 0.29792 0.51371 -0.08993
 C427 C 0.32452 0.51125 -0.03349
 C428 C 0.35532 0.51040 -0.07509
 H429 H 0.27975 0.51557 -0.23003
 H430 H 0.27408 0.51435 -0.05723
 H431 H 0.32100 0.50957 0.04289
 H432 H 0.37450 0.50732 -0.02869
 H433 H 0.36802 0.51039 -0.45051
 H434 H 0.41696 0.50997 -0.35262
 C435 C 1.15726 0.69690 -0.24124
 C436 C 1.17842 0.68724 -0.30549
 C437 C 1.17168 0.64974 -0.30512
 C438 C 1.14335 0.62171 -0.24860
 C439 C 1.12056 0.62995 -0.19034
 C440 C 1.12773 0.66772 -0.18438
 C441 C 1.16513 0.73471 -0.22959
 C442 C 1.14390 0.74329 -0.16657
 C443 C 1.11466 0.71462 -0.11303
 C444 C 1.10666 0.67716 -0.12125
 H445 H 1.18819 0.75831 -0.26631
 H446 H 1.15044 0.77246 -0.15855
 H447 H 1.09845 0.72153 -0.06389
 H448 H 1.08433 0.65582 -0.07664
 H449 H 1.18752 0.64148 -0.35187
 H450 H 1.13819 0.59285 -0.25319
 C451 C 0.84515 0.52601 -0.25775
 C452 C 0.82335 0.49454 -0.31815
 C453 C 0.83086 0.46439 -0.32045
 C454 C 0.86038 0.46571 -0.26834
 C455 C 0.88355 0.49726 -0.21276
 C456 C 0.87620 0.52786 -0.20702
 C457 C 0.83658 0.55544 -0.24499
 C458 C 0.85975 0.58728 -0.19076
 C459 C 0.89125 0.59002 -0.14580
 C460 C 0.89884 0.56023 -0.15128
 H461 H 0.81170 0.55413 -0.27494
 H462 H 0.85312 0.60986 -0.18330
 H463 H 0.90955 0.61508 -0.10507
 H464 H 0.92251 0.56298 -0.11126
 H465 H 0.81472 0.44017 -0.36609
 H466 H 0.86634 0.44271 -0.27515
 C467 C 0.51902 0.33419 -0.23991
 C468 C 0.49034 0.31686 -0.30999
 C469 C 0.46181 0.32641 -0.31459
 C470 C 0.46236 0.35418 -0.25658
 C471 C 0.49049 0.37253 -0.18776
 C472 C 0.51732 0.35994 -0.17350
 C473 C 0.54891 0.32603 -0.23222
 C474 C 0.57490 0.34071 -0.15873
 C475 C 0.57091 0.36243 -0.08890
 C476 C 0.54223 0.37146 -0.09496
 H477 H 0.55303 0.30831 -0.28165
 H478 H 0.59756 0.33415 -0.15430
 H479 H 0.58997 0.37209 -0.02904
 H480 H 0.53934 0.38580 -0.03431
 H481 H 0.43965 0.31351 -0.36717
 H482 H 0.44077 0.36189 -0.26780
 C483 C 0.64715 0.18653 -0.28853
 C484 C 0.68336 0.18900 -0.29522
 C485 C 0.68939 0.16303 -0.24270
 C486 C 0.66021 0.13376 -0.19022
 C487 C 0.62353 0.12840 -0.19135
 C488 C 0.61647 0.15407 -0.24346
 C489 C 0.63964 0.21415 -0.32838
 C490 C 0.60264 0.20711 -0.33679
 C491 C 0.57248 0.17257 -0.30664
 C492 C 0.57915 0.14687 -0.25720
 H493 H 0.66152 0.24170 -0.35223
 H494 H 0.59728 0.22797 -0.37030
 H495 H 0.54383 0.16572 -0.32160
 H496 H 0.55482 0.12078 -0.23330
 H497 H 0.71673 0.16454 -0.24480
 H498 H 0.66597 0.11415 -0.15140
 C499 C 1.20112 0.53720 -0.22876
 C500 C 1.19263 0.50620 -0.28997
 C501 C 1.15650 0.47400 -0.28539
 C502 C 1.12803 0.47326 -0.22930
 C503 C 1.13372 0.50502 -0.17648
 C504 C 1.17134 0.53761 -0.17428
 C505 C 1.23877 0.56765 -0.21972
 C506 C 1.24690 0.59923 -0.16507
 C507 C 1.21795 0.60112 -0.11757
 C508 C 1.18079 0.57086 -0.12133
 H509 H 1.26257 0.56711 -0.25246
 H510 H 1.27587 0.62241 -0.15963
 H511 H 1.22439 0.62605 -0.07618
 H512 H 1.16067 0.57511 -0.08182
 H513 H 1.14939 0.44952 -0.32940
 H514 H 1.10054 0.44755 -0.23092
 C515 C 0.55508 0.70106 -0.26183
 C516 C 0.52113 0.69346 -0.31011
 C517 C 0.48842 0.65759 -0.29674
 C518 C 0.48966 0.62875 -0.24670
 C519 C 0.52345 0.63438 -0.20700
 C520 C 0.55628 0.67094 -0.21177
 C521 C 0.58708 0.73815 -0.25640
 C522 C 0.61979 0.74482 -0.20910
 C523 C 0.62124 0.71517 -0.16377
 C524 C 0.58973 0.67869 -0.16378
 H525 H 0.58700 0.76287 -0.28417
 H526 H 0.64393 0.77338 -0.20601
 H527 H 0.64659 0.72067 -0.12621
 H528 H 0.59163 0.65701 -0.12374
 H529 H 0.46179 0.65072 -0.32979
 H530 H 0.46400 0.60122 -0.24118
 C531 C 0.31193 -0.15726 -0.24950
 C532 C 0.32154 -0.17752 -0.31598
 C533 C 0.35900 -0.17042 -0.31981
 C534 C 0.38724 -0.14190 -0.26499
 C535 C 0.37914 -0.11892 -0.20685
 C536 C 0.34118 -0.12682 -0.19732
 C537 C 0.27386 -0.16694 -0.23209
 C538 C 0.26508 -0.14551 -0.17080
 C539 C 0.29386 -0.11451 -0.12411
 C540 C 0.33147 -0.10556 -0.13564
 H541 H 0.25039 -0.19159 -0.26338
 H542 H 0.23577 -0.15311 -0.15921
 H543 H 0.28691 -0.09767 -0.07761
 H544 H 0.35262 -0.08213 -0.09520
 H545 H 0.36689 -0.18594 -0.36861
 H546 H 0.41604 -0.13654 -0.27138
 C547 C 0.49565 -0.18294 0.21199
 C548 C 0.51011 -0.17348 0.30500
 C549 C 0.52433 -0.13647 0.33770
 C550 C 0.52363 -0.10888 0.28111
 C551 C 0.50920 -0.11689 0.18846
 C552 C 0.49559 -0.15443 0.15208
 C553 C 0.48240 -0.21991 0.17645
 C554 C 0.46969 -0.22884 0.08349
 C555 C 0.47026 -0.20118 0.02417
 C556 C 0.48309 -0.16445 0.05754
 H557 H 0.48225 -0.24205 0.21971
 H558 H 0.45984 -0.25724 0.05693
 H559 H 0.46109 -0.20806 -0.04868
 H560 H 0.48403 -0.14435 0.00650
 H561 H 0.53552 -0.12897 0.40895
 H562 H 0.53408 -0.08093 0.31146
 C563 C 0.34860 0.54348 0.23150
 C564 C 0.32432 0.51106 0.28782
 C565 C 0.32841 0.47893 0.28265
 C566 C 0.35732 0.47920 0.22976
 C567 C 0.38449 0.51194 0.18114
 C568 C 0.38015 0.54493 0.18153
 C569 C 0.34191 0.57431 0.22262
 C570 C 0.36733 0.60729 0.17386
 C571 C 0.39969 0.61021 0.13243
 C572 C 0.40607 0.57959 0.13563
 H573 H 0.31653 0.57304 0.25063
 H574 H 0.36195 0.63078 0.16860
 H575 H 0.41985 0.63628 0.09639
 H576 H 0.43193 0.58462 0.10263
 H577 H 0.30995 0.45346 0.32325
 H578 H 0.35884 0.45332 0.22964
 C579 C 1.13108 0.67929 0.32231
 C580 C 1.16875 0.68558 0.31608
 C581 C 1.17759 0.66696 0.24558
 C582 C 1.14980 0.64120 0.18494
 C583 C 1.11213 0.63374 0.19041
 C584 C 1.10369 0.65592 0.25370
 C585 C 1.11942 0.69486 0.39634
 C586 C 1.08382 0.69189 0.39544
 C587 C 1.05917 0.67354 0.32117
 C588 C 1.06891 0.65581 0.25085
 H589 H 1.13704 0.70883 0.45672
 H590 H 1.07561 0.70450 0.45177
 H591 H 1.03217 0.67269 0.31849
 H592 H 1.04945 0.64344 0.19291
 H593 H 1.20614 0.67156 0.23898
 H594 H 1.15775 0.62576 0.13607
 C595 C 0.44382 0.12971 0.30647
 C596 C 0.47667 0.16650 0.31419
 C597 C 0.50808 0.17588 0.25495
 C598 C 0.50847 0.14925 0.19362
 C599 C 0.47684 0.11263 0.18602
 C600 C 0.44290 0.10435 0.23535
 C601 C 0.41202 0.11671 0.36838
 C602 C 0.37863 0.08262 0.35151
 C603 C 0.37613 0.06079 0.27323
 C604 C 0.40787 0.07150 0.21556
 H605 H 0.41237 0.13172 0.43165
 H606 H 0.35438 0.07345 0.39855
 H607 H 0.34967 0.03516 0.25789
 H608 H 0.40437 0.05455 0.15371
 H609 H 0.53331 0.20372 0.25867
 H610 H 0.53457 0.15698 0.15539
 C611 C 0.63345 0.46808 0.34985
 C612 C 0.67272 0.49128 0.32790
 C613 C 0.68400 0.51613 0.24963
 C614 C 0.65725 0.51814 0.19255
 C615 C 0.61846 0.49507 0.21143
 C616 C 0.60615 0.46939 0.28967
 C617 C 0.62054 0.44478 0.43233
 C618 C 0.58189 0.42192 0.45195
 C619 C 0.55531 0.42214 0.39108
 C620 C 0.56723 0.44573 0.31118
 H621 H 0.63978 0.44432 0.48382
 H622 H 0.57253 0.40410 0.51500
 H623 H 0.52530 0.40419 0.40625
 H624 H 0.54565 0.44505 0.26655
 H625 H 0.71386 0.53433 0.23282
 H626 H 0.66690 0.53806 0.13345
 C627 C 0.86565 0.30896 0.28106
 C628 C 0.83056 0.30834 0.29686
 C629 C 0.82382 0.33434 0.24665
 C630 C 0.85161 0.36252 0.18942
 C631 C 0.88701 0.36531 0.17778
 C632 C 0.89280 0.33625 0.21601
 C633 C 0.87540 0.28425 0.32861
 C634 C 0.90857 0.28382 0.30553
 C635 C 0.93275 0.30769 0.23480
 C636 C 0.92498 0.33358 0.19017
 H637 H 0.85853 0.26507 0.38449
 H638 H 0.91522 0.26439 0.34188
 H639 H 0.95780 0.30635 0.21491
 H640 H 0.94383 0.35073 0.13343
 H641 H 0.79723 0.33412 0.25509
 H642 H 0.84585 0.38336 0.15740
   
