data_POSCAR
  _audit_creation_date              2014-09-24
  _audit_creation_method            'ToBaCCo'
  _symmetry_space_group_name_H-M    'P1'
  _symmetry_Int_Tables_number       1
  _symmetry_cell_setting            triclinic
  loop_
  _symmetry_equiv_pos_as_xyz
 x,y,z
_cell_length_a 48.0170
_cell_length_b 48.0707
_cell_length_c 47.6935
_cell_angle_alpha 89.943800
_cell_angle_beta 89.990900
_cell_angle_gamma 88.141700
loop_
  _atom_site_label
  _atom_site_type_symbol
  _atom_site_fract_x
  _atom_site_fract_y
  _atom_site_fract_z
O1 O -0.02876 0.28989 0.02447
 O2 O 0.02643 0.28771 -0.02931
 O3 O -0.02807 0.28878 -0.03007
 O4 O 0.02578 0.28873 0.02495
 O5 O 0.02632 0.24274 0.02574
 O6 O -0.02792 0.24283 -0.02864
 O7 O 0.02614 0.24178 -0.02911
 O8 O -0.02750 0.24392 0.02604
 Cu9 Cu -0.00124 0.29341 -0.00260
 Cu10 Cu -0.00067 0.23820 -0.00144
 C11 C -0.03731 0.26725 0.03458
 C12 C 0.03560 0.26436 -0.03848
 C13 C -0.03719 0.26579 -0.03864
 C14 C 0.03519 0.26569 0.03468
 O15 O 0.52709 0.79095 0.46845
 O16 O 0.47214 0.78999 0.52229
 O17 O 0.52662 0.79235 0.52311
 O18 O 0.47312 0.78816 0.46789
 O19 O 0.47752 0.74228 0.46878
 O20 O 0.52912 0.74643 0.52559
 O21 O 0.47563 0.74405 0.52358
 O22 O 0.53194 0.74516 0.47121
 Cu23 Cu 0.49939 0.79498 0.49531
 Cu24 Cu 0.50387 0.73986 0.49729
 C25 C 0.53905 0.76824 0.46090
 C26 C 0.46453 0.76685 0.53206
 C27 C 0.53675 0.77007 0.53392
 C28 C 0.46632 0.76448 0.45887
 O29 O 1.03148 0.71117 0.02232
 O30 O 0.97614 0.71328 -0.03137
 O31 O 1.03045 0.71268 -0.03211
 O32 O 0.97697 0.71180 0.02331
 O33 O 0.97579 0.75777 0.02419
 O34 O 1.02972 0.75861 -0.03057
 O35 O 0.97558 0.75924 -0.03047
 O36 O 1.02970 0.75709 0.02426
 Cu37 Cu 1.00383 0.70762 -0.00457
 Cu38 Cu 1.00262 0.76278 -0.00306
 C39 C 1.03987 0.73379 0.03260
 C40 C 0.96661 0.73664 -0.04020
 C41 C 1.03922 0.73581 -0.04078
 C42 C 0.96732 0.73467 0.03319
 O43 O 0.52792 0.21293 0.52505
 O44 O 0.47321 0.21223 0.47098
 O45 O 0.52741 0.21384 0.47062
 O46 O 0.47360 0.21157 0.52567
 O47 O 0.47063 0.25753 0.52596
 O48 O 0.52491 0.25981 0.47162
 O49 O 0.47088 0.25821 0.47127
 O50 O 0.52444 0.25886 0.52636
 Cu51 Cu 0.50077 0.20801 0.49802
 Cu52 Cu 0.49744 0.26322 0.49883
 C53 C 0.53532 0.23602 0.53504
 C54 C 0.46292 0.23512 0.46177
 C55 C 0.53534 0.23724 0.46181
 C56 C 0.46304 0.23421 0.53523
 O57 O 0.71267 0.03061 -0.02172
 O58 O 0.71508 -0.02467 0.03191
 O59 O 0.71418 0.02971 0.03276
 O60 O 0.71357 -0.02385 -0.02239
 O61 O 0.75960 -0.02460 -0.02353
 O62 O 0.76017 0.02942 0.03102
 O63 O 0.76106 -0.02458 0.03139
 O64 O 0.75867 0.02919 -0.02364
 Cu65 Cu 0.70924 0.00303 0.00527
 Cu66 Cu 0.76450 0.00225 0.00372
 C67 C 0.73529 0.03912 -0.03195
 C68 C 0.73849 -0.03391 0.04094
 C69 C 0.73729 0.03872 0.04120
 C70 C 0.73651 -0.03329 -0.03235
 O71 O 0.21259 0.46833 0.52917
 O72 O 0.21205 0.52317 0.47513
 O73 O 0.21199 0.46870 0.47484
 O74 O 0.21292 0.52272 0.52969
 O75 O 0.25894 0.52142 0.52862
 O76 O 0.25803 0.46715 0.47426
 O77 O 0.25807 0.52092 0.47391
 O78 O 0.25863 0.46738 0.52916
 Cu79 Cu 0.20776 0.49592 0.50228
 Cu80 Cu 0.26304 0.49403 0.50147
 C81 C 0.23571 0.45863 0.53843
 C82 C 0.23498 0.53119 0.46517
 C83 C 0.23489 0.45878 0.46522
 C84 C 0.23611 0.53129 0.53843
 O85 O 0.28628 1.02187 0.02920
 O86 O 0.28703 0.96710 -0.02491
 O87 O 0.28701 1.02147 -0.02547
 O88 O 0.28623 0.96760 0.02955
 O89 O 0.24021 0.96891 0.02859
 O90 O 0.24100 1.02319 -0.02583
 O91 O 0.24101 0.96936 -0.02621
 O92 O 0.24028 1.02301 0.02888
 Cu93 Cu 0.29126 0.99439 0.00216
 Cu94 Cu 0.23601 0.99626 0.00134
 C95 C 0.26314 1.03166 0.03840
 C96 C 0.26413 0.95908 -0.03490
 C97 C 0.26411 1.03146 -0.03509
 C98 C 0.26306 0.95905 0.03837
 O99 O 0.78360 0.47358 0.47792
 O100 O 0.78346 0.52967 0.53043
 O101 O 0.78241 0.47550 0.53226
 O102 O 0.78419 0.52772 0.47575
 O103 O 0.73817 0.53030 0.47529
 O104 O 0.73639 0.47736 0.53105
 O105 O 0.73742 0.53146 0.53001
 O106 O 0.73760 0.47652 0.47628
 Cu107 Cu 0.78805 0.50145 0.50420
 Cu108 Cu 0.73277 0.50414 0.50314
 C109 C 0.76063 0.46571 0.46798
 C110 C 0.76042 0.53995 0.53931
 C111 C 0.75908 0.46745 0.54116
 C112 C 0.76148 0.53779 0.46582
 C113 C 0.23769 0.25784 0.24915
 C114 C 0.25799 0.23742 0.24875
 C115 C 0.25861 0.21519 0.22707
 C116 C 0.28059 0.23652 0.26999
 C117 C 0.23588 0.27876 0.27185
 C118 C 0.21650 0.26040 0.22679
 C119 C 0.23549 0.19859 0.22268
 C120 C 0.23612 0.17813 0.20187
 C121 C 0.26011 0.17345 0.18540
 C122 C 0.28352 0.18959 0.19039
 C123 C 0.28275 0.21025 0.21102
 C124 C 0.28504 0.21268 0.28656
 C125 C 0.30573 0.21198 0.30719
 C126 C 0.32235 0.23514 0.31157
 C127 C 0.31827 0.25873 0.29441
 C128 C 0.29778 0.25929 0.27365
 C129 C 0.24246 0.30641 0.26628
 C130 C 0.24210 0.32605 0.28785
 C131 C 0.23428 0.31852 0.31514
 C132 C 0.22688 0.29096 0.32048
 C133 C 0.22798 0.27113 0.29903
 C134 C 0.22399 0.26841 0.19961
 C135 C 0.20389 0.27018 0.17842
 C136 C 0.17621 0.26335 0.18406
 C137 C 0.16881 0.25548 0.21136
 C138 C 0.18873 0.25444 0.23267
 H139 H 0.21696 0.20140 0.23542
 H140 H 0.21786 0.16584 0.19886
 H141 H 0.30235 0.18650 0.17815
 H142 H 0.30091 0.22264 0.21425
 H143 H 0.27214 0.19480 0.28384
 H144 H 0.30839 0.19346 0.31997
 H145 H 0.29525 0.27755 0.26049
 H146 H 0.24854 0.31258 0.24536
 H147 H 0.24770 0.34719 0.28317
 H148 H 0.22087 0.28464 0.34137
 H149 H 0.22275 0.24984 0.30357
 H150 H 0.24537 0.27319 0.19486
 H151 H 0.21010 0.27622 0.15751
 H152 H 0.14756 0.25032 0.21625
 H153 H 0.18270 0.24830 0.25361
 H154 H 0.33095 0.27677 0.29695
 C155 C 0.76599 0.73951 0.25005
 C156 C 0.74744 0.76156 0.25180
 C157 C 0.74624 0.78305 0.22950
 C158 C 0.72690 0.76496 0.27508
 C159 C 0.76578 0.71587 0.27014
 C160 C 0.78776 0.73826 0.22788
 C161 C 0.75551 0.80986 0.23494
 C162 C 0.75505 0.82996 0.21374
 C163 C 0.74440 0.82378 0.18712
 C164 C 0.73449 0.79709 0.18194
 C165 C 0.73573 0.77675 0.20290
 C166 C 0.73486 0.76142 0.30329
 C167 C 0.71492 0.76304 0.32465
 C168 C 0.68688 0.76945 0.31831
 C169 C 0.67918 0.77448 0.29034
 C170 C 0.69894 0.77205 0.26894
 C171 C 0.74136 0.70140 0.27532
 C172 C 0.74109 0.68050 0.29572
 C173 C 0.76538 0.67333 0.31096
 C174 C 0.79007 0.68705 0.30479
 C175 C 0.79026 0.70807 0.28456
 C176 C 0.78984 0.71531 0.20977
 C177 C 0.80998 0.71424 0.18858
 C178 C 0.82841 0.73615 0.18513
 C179 C 0.82663 0.75882 0.20373
 C180 C 0.80671 0.75970 0.22506
 H181 H 0.76356 0.81500 0.25544
 H182 H 0.76262 0.85046 0.21825
 H183 H 0.72626 0.79185 0.16154
 H184 H 0.72838 0.75615 0.19849
 H185 H 0.75643 0.75702 0.30877
 H186 H 0.72143 0.75951 0.34613
 H187 H 0.69223 0.77516 0.24746
 H188 H 0.72238 0.70669 0.26397
 H189 H 0.72179 0.67014 0.29970
 H190 H 0.80918 0.68199 0.31600
 H191 H 0.80937 0.71881 0.28071
 H192 H 0.77559 0.69841 0.21181
 H193 H 0.81085 0.69645 0.17467
 H194 H 0.84074 0.77585 0.20194
 H195 H 0.80605 0.77717 0.23939
 H196 H 0.65769 0.77946 0.28492
 C197 C 0.74176 0.24703 0.25037
 C198 C 0.76133 0.26686 0.25044
 C199 C 0.78224 0.26876 0.22782
 C200 C 0.76290 0.28742 0.27333
 C201 C 0.71982 0.24619 0.27230
 C202 C 0.74147 0.22506 0.22853
 C203 C 0.81026 0.26182 0.23341
 C204 C 0.82997 0.26217 0.21190
 C205 C 0.82210 0.27029 0.18466
 C206 C 0.79414 0.27809 0.17931
 C207 C 0.77427 0.27703 0.20071
 C208 C 0.77137 0.27914 0.30029
 C209 C 0.77194 0.29860 0.32203
 C210 C 0.76348 0.32645 0.31718
 C211 C 0.75520 0.33466 0.29008
 C212 C 0.75532 0.31536 0.26822
 C213 C 0.70177 0.26923 0.27716
 C214 C 0.68141 0.26826 0.29803
 C215 C 0.67835 0.24401 0.31413
 C216 C 0.69606 0.22074 0.30875
 C217 C 0.71657 0.22184 0.28802
 C218 C 0.71723 0.22118 0.21282
 C219 C 0.71660 0.20045 0.19234
 C220 C 0.74025 0.18317 0.18721
 C221 C 0.76441 0.18689 0.20326
 C222 C 0.76491 0.20746 0.22390
 H223 H 0.81669 0.25545 0.25428
 H224 H 0.85142 0.25625 0.21660
 H225 H 0.78756 0.28435 0.15846
 H226 H 0.75269 0.28256 0.19616
 H227 H 0.77737 0.25761 0.30445
 H228 H 0.77833 0.29176 0.34276
 H229 H 0.74879 0.32201 0.24746
 H230 H 0.70337 0.28794 0.26469
 H231 H 0.66793 0.28644 0.30139
 H232 H 0.69426 0.20173 0.32069
 H233 H 0.73013 0.20375 0.28442
 H234 H 0.69884 0.23438 0.21629
 H235 H 0.69765 0.19812 0.18040
 H236 H 0.78287 0.17374 0.20010
 H237 H 0.78354 0.20951 0.23641
 H238 H 0.74880 0.35605 0.28577
 C239 C 0.25843 0.75156 0.24893
 C240 C 0.23882 0.73176 0.24875
 C241 C 0.21804 0.73024 0.22597
 C242 C 0.23700 0.71094 0.27141
 C243 C 0.28027 0.75231 0.27099
 C244 C 0.25888 0.77356 0.22708
 C245 C 0.19045 0.73940 0.23078
 C246 C 0.17102 0.73951 0.20899
 C247 C 0.17866 0.72953 0.18232
 C248 C 0.20610 0.71947 0.17780
 C249 C 0.22577 0.72015 0.19942
 C250 C 0.22801 0.71888 0.29829
 C251 C 0.22680 0.69909 0.31975
 C252 C 0.23514 0.67125 0.31470
 C253 C 0.24405 0.66342 0.28770
 C254 C 0.24456 0.68304 0.26611
 C255 C 0.29821 0.72921 0.27606
 C256 C 0.31875 0.73030 0.29678
 C257 C 0.32208 0.75471 0.31252
 C258 C 0.30438 0.77796 0.30701
 C259 C 0.28373 0.77676 0.28644
 C260 C 0.28282 0.77669 0.21070
 C261 C 0.28348 0.79732 0.19005
 C262 C 0.26018 0.81523 0.18544
 C263 C 0.23637 0.81229 0.20224
 C264 C 0.23585 0.79183 0.22303
 H265 H 0.18421 0.74717 0.25123
 H266 H 0.14994 0.74718 0.21302
 H267 H 0.21248 0.71176 0.15738
 H268 H 0.24701 0.71293 0.19548
 H269 H 0.22199 0.74036 0.30260
 H270 H 0.21994 0.70566 0.34041
 H271 H 0.25148 0.67664 0.24541
 H272 H 0.29650 0.71040 0.26380
 H273 H 0.33220 0.71210 0.30024
 H274 H 0.30635 0.79711 0.31868
 H275 H 0.27027 0.79490 0.28269
 H276 H 0.30091 0.76297 0.21374
 H277 H 0.30217 0.79905 0.17755
 H278 H 0.21820 0.82595 0.19951
 H279 H 0.21751 0.79036 0.23608
 H280 H 0.25040 0.64205 0.28323
 C281 C 0.75296 0.26161 0.75337
 C282 C 0.73344 0.24174 0.75335
 C283 C 0.71291 0.23974 0.73045
 C284 C 0.73198 0.22074 0.77593
 C285 C 0.77515 0.26203 0.77502
 C286 C 0.75335 0.28361 0.73148
 C287 C 0.68480 0.24669 0.73551
 C288 C 0.66546 0.24610 0.71369
 C289 C 0.67383 0.23773 0.68668
 C290 C 0.70189 0.22997 0.68186
 C291 C 0.72137 0.23125 0.70356
 C292 C 0.72385 0.22851 0.80314
 C293 C 0.72313 0.20855 0.82446
 C294 C 0.73111 0.18070 0.81896
 C295 C 0.73912 0.17303 0.79163
 C296 C 0.73913 0.19283 0.77020
 C297 C 0.79309 0.23879 0.77932
 C298 C 0.81385 0.23936 0.79979
 C299 C 0.81744 0.26340 0.81599
 C300 C 0.79985 0.28689 0.81116
 C301 C 0.77892 0.28619 0.79084
 C302 C 0.77764 0.28741 0.71580
 C303 C 0.77832 0.30798 0.69512
 C304 C 0.75469 0.32522 0.68974
 C305 C 0.73049 0.32162 0.70579
 C306 C 0.72993 0.30119 0.72663
 H307 H 0.67802 0.25321 0.75622
 H308 H 0.64391 0.25198 0.71796
 H309 H 0.70885 0.22352 0.66120
 H310 H 0.74303 0.22572 0.69944
 H311 H 0.71816 0.25000 0.80779
 H312 H 0.71696 0.21498 0.84538
 H313 H 0.74540 0.18656 0.74926
 H314 H 0.79114 0.22025 0.76670
 H315 H 0.82724 0.22104 0.80271
 H316 H 0.80207 0.30575 0.82323
 H317 H 0.76547 0.30443 0.78761
 H318 H 0.79601 0.27422 0.71939
 H319 H 0.79732 0.31020 0.68320
 H320 H 0.71203 0.33473 0.70243
 H321 H 0.71124 0.29918 0.73906
 H322 H 0.74517 0.15167 0.78681
 C323 C 0.24273 0.74071 0.74686
 C324 C 0.26249 0.76037 0.74701
 C325 C 0.28326 0.76226 0.72428
 C326 C 0.26426 0.78096 0.76992
 C327 C 0.22070 0.74016 0.76872
 C328 C 0.24225 0.71872 0.72497
 C329 C 0.31132 0.75537 0.72970
 C330 C 0.33094 0.75595 0.70811
 C331 C 0.32293 0.76428 0.68096
 C332 C 0.29491 0.77195 0.67578
 C333 C 0.27514 0.77067 0.69724
 C334 C 0.27253 0.77263 0.79694
 C335 C 0.27347 0.79216 0.81862
 C336 C 0.26557 0.82015 0.81367
 C337 C 0.25744 0.82839 0.78653
 C338 C 0.25720 0.80901 0.76474
 C339 C 0.20310 0.76353 0.77365
 C340 C 0.18284 0.76296 0.79465
 C341 C 0.17940 0.73880 0.81076
 C342 C 0.19655 0.71516 0.80522
 C343 C 0.21699 0.71586 0.78439
 C344 C 0.21788 0.71484 0.70944
 C345 C 0.21705 0.69407 0.68900
 C346 C 0.24061 0.67671 0.68370
 C347 C 0.26490 0.68044 0.69955
 C348 C 0.26562 0.70106 0.72015
 H349 H 0.31787 0.74891 0.75051
 H350 H 0.35244 0.75013 0.71269
 H351 H 0.28821 0.77837 0.65501
 H352 H 0.25353 0.77617 0.69283
 H353 H 0.27814 0.75103 0.80119
 H354 H 0.27974 0.78529 0.83938
 H355 H 0.25084 0.81572 0.74395
 H356 H 0.20500 0.78221 0.76119
 H357 H 0.16975 0.78140 0.79810
 H358 H 0.19442 0.69620 0.81718
 H359 H 0.23020 0.69753 0.78073
 H360 H 0.19954 0.72807 0.71303
 H361 H 0.19798 0.69175 0.67723
 H362 H 0.28331 0.66725 0.69627
 H363 H 0.28436 0.70309 0.73249
 H364 H 0.25145 0.84986 0.78213
 C365 C 0.26072 0.23352 0.75100
 C366 C 0.24027 0.25378 0.75097
 C367 C 0.23834 0.27515 0.72871
 C368 C 0.21898 0.25569 0.77330
 C369 C 0.26168 0.21126 0.77261
 C370 C 0.28311 0.23285 0.72951
 C371 C 0.24530 0.30260 0.73467
 C372 C 0.24493 0.32263 0.71344
 C373 C 0.23672 0.31569 0.68613
 C374 C 0.22894 0.28834 0.68041
 C375 C 0.23004 0.26811 0.70151
 C376 C 0.22568 0.26593 0.79989
 C377 C 0.20542 0.26752 0.82095
 C378 C 0.17844 0.25824 0.81584
 C379 C 0.17187 0.24796 0.78918
 C380 C 0.19187 0.24717 0.76791
 C381 C 0.23914 0.19376 0.77632
 C382 C 0.23982 0.17354 0.79737
 C383 C 0.26333 0.17000 0.81475
 C384 C 0.28628 0.18692 0.81032
 C385 C 0.28544 0.20736 0.78943
 C386 C 0.28741 0.20916 0.71272
 C387 C 0.30784 0.20867 0.69181
 C388 C 0.32437 0.23189 0.68734
 C389 C 0.32047 0.25532 0.70472
 C390 C 0.30024 0.25567 0.72577
 H391 H 0.25171 0.30830 0.75561
 H392 H 0.25082 0.34362 0.71842
 H393 H 0.22262 0.28248 0.65949
 H394 H 0.22453 0.24698 0.69668
 H395 H 0.24654 0.27269 0.80424
 H396 H 0.21096 0.27546 0.84138
 H397 H 0.18642 0.23935 0.74741
 H398 H 0.22100 0.19577 0.76292
 H399 H 0.22196 0.16059 0.79993
 H400 H 0.30474 0.18468 0.82327
 H401 H 0.30316 0.22048 0.78668
 H402 H 0.27457 0.19124 0.71549
 H403 H 0.31035 0.19026 0.67887
 H404 H 0.33308 0.27340 0.70213
 H405 H 0.29787 0.27381 0.73909
 H406 H 0.15115 0.24089 0.78471
 C407 C 0.73871 0.76879 0.74917
 C408 C 0.75883 0.74819 0.74893
 C409 C 0.75912 0.72594 0.72734
 C410 C 0.78127 0.74679 0.77041
 C411 C 0.73683 0.78949 0.77202
 C412 C 0.71737 0.77135 0.72687
 C413 C 0.73593 0.70934 0.72343
 C414 C 0.73619 0.68884 0.70270
 C415 C 0.75989 0.68415 0.68581
 C416 C 0.78338 0.70030 0.69032
 C417 C 0.78299 0.72099 0.71090
 C418 C 0.78564 0.72248 0.78632
 C419 C 0.80641 0.72105 0.80687
 C420 C 0.82325 0.74393 0.81189
 C421 C 0.81915 0.76807 0.79551
 C422 C 0.79855 0.76937 0.77482
 C423 C 0.74352 0.81716 0.76675
 C424 C 0.74319 0.83655 0.78854
 C425 C 0.73531 0.82872 0.81572
 C426 C 0.72776 0.80116 0.82074
 C427 C 0.72881 0.78158 0.79907
 C428 C 0.72470 0.77900 0.69953
 C429 C 0.70445 0.78063 0.67844
 C430 C 0.67675 0.77404 0.68433
 C431 C 0.66950 0.76659 0.71180
 C432 C 0.68958 0.76568 0.73299
 H433 H 0.71762 0.71223 0.73648
 H434 H 0.71788 0.67655 0.70006
 H435 H 0.80200 0.69719 0.67774
 H436 H 0.80119 0.73340 0.71380
 H437 H 0.77270 0.70473 0.78308
 H438 H 0.80904 0.70211 0.81903
 H439 H 0.79613 0.78802 0.76219
 H440 H 0.74968 0.82353 0.74592
 H441 H 0.74890 0.85772 0.78411
 H442 H 0.72170 0.79461 0.84153
 H443 H 0.72349 0.76027 0.80335
 H444 H 0.74609 0.78356 0.69456
 H445 H 0.71057 0.78633 0.65740
 H446 H 0.64826 0.76158 0.71691
 H447 H 0.68362 0.75981 0.75404
 H448 H 0.83196 0.78594 0.79855
 C449 C 0.26205 0.09139 0.10000
 N450 N 0.23791 0.08129 0.09002
 N451 N 0.23827 0.06201 0.06996
 C452 C 0.26280 0.05200 0.05919
 N453 N 0.28695 0.06210 0.06921
 N454 N 0.28658 0.08147 0.08920
 C455 C 0.26160 0.11263 0.12216
 N456 N 0.28546 0.12460 0.13042
 N457 N 0.28499 0.14390 0.15047
 C458 C 0.26068 0.15191 0.16314
 N459 N 0.23684 0.13984 0.15485
 N460 N 0.23728 0.12062 0.13473
 C461 C 0.76027 0.60169 0.60096
 N462 N 0.73602 0.59090 0.59211
 N463 N 0.73606 0.57135 0.57233
 C464 C 0.76036 0.56181 0.56076
 N465 N 0.78462 0.57259 0.56961
 N466 N 0.78457 0.59222 0.58931
 C467 C 0.76020 0.62311 0.62289
 N468 N 0.78414 0.63544 0.63030
 N469 N 0.78404 0.65483 0.65024
 C470 C 0.76004 0.66257 0.66364
 N471 N 0.73613 0.65015 0.65618
 N472 N 0.73619 0.63083 0.63618
 C473 C 0.74115 0.90581 0.10202
 N474 N 0.71661 0.91370 0.08981
 N475 N 0.71573 0.93336 0.07008
 C476 C 0.73941 0.94558 0.06156
 N477 N 0.76398 0.93749 0.07365
 N478 N 0.76481 0.91810 0.09365
 C479 C 0.74205 0.88444 0.12400
 N480 N 0.76348 0.88294 0.14256
 N481 N 0.76414 0.86375 0.16274
 C482 C 0.74359 0.84510 0.16486
 N483 N 0.72227 0.84648 0.14615
 N484 N 0.72142 0.86592 0.12621
 C485 C 0.23630 0.39732 0.60060
 N486 N 0.21332 0.40213 0.58451
 N487 N 0.21309 0.42176 0.56477
 C488 C 0.23595 0.43704 0.56018
 N489 N 0.25899 0.43209 0.57613
 N490 N 0.25910 0.41269 0.59611
 C491 C 0.23644 0.37602 0.62267
 N492 N 0.25529 0.37662 0.64383
 N493 N 0.25527 0.35751 0.66406
 C494 C 0.23660 0.33688 0.66372
 N495 N 0.21787 0.33617 0.64241
 N496 N 0.21767 0.35549 0.62235
 C497 C 0.90231 0.26897 0.09771
 N498 N 0.91882 0.24591 0.09348
 N499 N 0.93789 0.24533 0.07318
 C500 C 0.94137 0.26791 0.05660
 N501 N 0.92495 0.29105 0.06091
 N502 N 0.90564 0.29151 0.08101
 C503 C 0.88143 0.26947 0.12020
 N504 N 0.85977 0.28834 0.11995
 N505 N 0.84078 0.28854 0.14035
 C506 C 0.84296 0.27011 0.16192
 N507 N 0.86473 0.25136 0.16218
 N508 N 0.88351 0.25094 0.14163
 C509 C 0.40328 0.76560 0.59425
 N510 N 0.42064 0.74316 0.58998
 N511 N 0.43994 0.74348 0.56994
 C512 C 0.44281 0.76638 0.55366
 N513 N 0.42552 0.78889 0.55798
 N514 N 0.40598 0.78844 0.57782
 C515 C 0.38225 0.76524 0.61657
 N516 N 0.36021 0.78365 0.61646
 N517 N 0.34119 0.78324 0.63682
 C518 C 0.34373 0.76463 0.65819
 N519 N 0.36587 0.74632 0.65831
 N520 N 0.38468 0.74651 0.63780
 C521 C 0.09939 0.73185 0.09451
 N522 N 0.08628 0.75619 0.08706
 N523 N 0.06723 0.75684 0.06675
 C524 C 0.06026 0.73311 0.05338
 N525 N 0.07332 0.70874 0.06093
 N526 N 0.09266 0.70815 0.08099
 C527 C 0.12013 0.73121 0.11713
 N528 N 0.13949 0.71007 0.11906
 N529 N 0.15828 0.70961 0.13964
 C530 C 0.15814 0.73007 0.15929
 N531 N 0.13866 0.75111 0.15740
 N532 N 0.12013 0.75177 0.13661
 C533 C 0.59510 0.23686 0.59858
 N534 N 0.57791 0.25937 0.59400
 N535 N 0.55906 0.25919 0.57352
 C536 C 0.55652 0.23636 0.55711
 N537 N 0.57363 0.21380 0.56176
 N538 N 0.59271 0.21410 0.58203
 C539 C 0.61565 0.23707 0.62130
 N540 N 0.63761 0.21857 0.62159
 N541 N 0.65624 0.21887 0.64228
 C542 C 0.65339 0.23744 0.66362
 N543 N 0.63132 0.25584 0.66335
 N544 N 0.61289 0.25576 0.64251
 C545 C 0.73320 0.09995 0.90537
 N546 N 0.71075 0.09650 0.92218
 N547 N 0.71133 0.07704 0.94212
 C548 C 0.73450 0.06058 0.94617
 N549 N 0.75700 0.06418 0.92948
 N550 N 0.75630 0.08339 0.90934
 C551 C 0.73255 0.12100 0.88305
 N552 N 0.75098 0.11914 0.86151
 N553 N 0.75038 0.13805 0.84109
 C554 C 0.73154 0.15974 0.84159
 N555 N 0.71322 0.16170 0.86326
 N556 N 0.71360 0.14258 0.88353
 C557 C 0.23481 0.59136 0.40187
 N558 N 0.21199 0.58833 0.41828
 N559 N 0.21197 0.56910 0.43843
 C560 C 0.23489 0.55245 0.44309
 N561 N 0.25775 0.55562 0.42682
 N562 N 0.25766 0.57461 0.40647
 C563 C 0.23479 0.61216 0.37934
 N564 N 0.25374 0.61002 0.35828
 N565 N 0.25371 0.62873 0.33767
 C566 C 0.23495 0.65048 0.33751
 N567 N 0.21610 0.65272 0.35870
 N568 N 0.21592 0.63381 0.37916
 C569 C 0.26472 0.89916 0.90161
 N570 N 0.28738 0.90204 0.91827
 N571 N 0.28724 0.92116 0.93850
 C572 C 0.26431 0.93785 0.94301
 N573 N 0.24160 0.93481 0.92649
 N574 N 0.24186 0.91593 0.90606
 C575 C 0.26498 0.87853 0.87892
 N576 N 0.24643 0.88099 0.85753
 N577 N 0.24676 0.86250 0.83674
 C578 C 0.26542 0.84066 0.83671
 N579 N 0.28386 0.83810 0.85824
 N580 N 0.28375 0.85679 0.87888
 C581 C 0.76129 0.40511 0.40528
 N582 N 0.78385 0.40806 0.42203
 N583 N 0.78363 0.42734 0.44210
 C584 C 0.76072 0.44410 0.44633
 N585 N 0.73807 0.44097 0.42975
 N586 N 0.73841 0.42193 0.40948
 C587 C 0.76176 0.38449 0.38264
 N588 N 0.74329 0.38681 0.36117
 N589 N 0.74395 0.36841 0.34031
 C590 C 0.76291 0.34683 0.34029
 N591 N 0.78126 0.34440 0.36189
 N592 N 0.78081 0.36300 0.38260
 C593 C 0.09633 0.26173 0.90087
 N594 N 0.08849 0.28621 0.91315
 N595 N 0.06867 0.28710 0.93272
 C596 C 0.05622 0.26348 0.94100
 N597 N 0.06425 0.23896 0.92884
 N598 N 0.08380 0.23814 0.90900
 C599 C 0.11780 0.26078 0.87898
 N600 N 0.11910 0.23949 0.86031
 N601 N 0.13833 0.23877 0.84017
 C602 C 0.15722 0.25910 0.83819
 N603 N 0.15607 0.28027 0.85704
 N604 N 0.13658 0.28120 0.87695
 C605 C 0.60302 0.76985 0.40158
 N606 N 0.58450 0.79164 0.40405
 N607 N 0.56420 0.79118 0.42308
 C608 C 0.56146 0.76874 0.44004
 N609 N 0.57990 0.74688 0.43747
 N610 N 0.60040 0.74748 0.41868
 C611 C 0.62520 0.77027 0.38043
 N612 N 0.64795 0.75289 0.38257
 N613 N 0.66785 0.75301 0.36309
 C614 C 0.66556 0.77029 0.34060
 N615 N 0.64276 0.78763 0.33848
 N616 N 0.62304 0.78776 0.35813
 C617 C 0.90557 0.73949 0.89720
 N618 N 0.91422 0.71480 0.90860
 N619 N 0.93364 0.71386 0.92858
 C620 C 0.94504 0.73761 0.93795
 N621 N 0.93634 0.76230 0.92660
 N622 N 0.91699 0.76322 0.90657
 C623 C 0.88427 0.74057 0.87506
 N624 N 0.87732 0.76499 0.86214
 N625 N 0.85805 0.76601 0.84204
 C626 C 0.84488 0.74269 0.83410
 N627 N 0.85186 0.71827 0.84711
 N628 N 0.87121 0.71722 0.86715
 C629 C 0.40300 0.23476 0.39825
 N630 N 0.41221 0.21055 0.41027
 N631 N 0.43127 0.21065 0.43057
 C632 C 0.44169 0.23496 0.43967
 N633 N 0.43240 0.25916 0.42772
 N634 N 0.41344 0.25906 0.40735
 C635 C 0.38218 0.23474 0.37573
 N636 N 0.37491 0.25868 0.36212
 N637 N 0.35603 0.25874 0.34167
 C638 C 0.34362 0.23489 0.33407
 N639 N 0.35093 0.21095 0.34776
 N640 N 0.36989 0.21085 0.36816
 C641 C 0.73601 0.90727 0.90385
 N642 N 0.75886 0.92255 0.90838
 N643 N 0.75910 0.94128 0.92893
 C644 C 0.73637 0.94565 0.94546
 N645 N 0.71346 0.93046 0.94087
 N646 N 0.71335 0.91148 0.92053
 C647 C 0.73578 0.88681 0.88108
 N648 N 0.71707 0.86623 0.88100
 N649 N 0.71700 0.84763 0.86030
 C650 C 0.73539 0.84916 0.83875
 N651 N 0.75398 0.86985 0.83880
 N652 N 0.75428 0.88823 0.85966
 C653 C 0.23446 0.39850 0.40212
 N654 N 0.25737 0.41369 0.40665
 N655 N 0.25756 0.43271 0.42693
 C656 C 0.23471 0.43749 0.44320
 N657 N 0.21172 0.42241 0.43860
 N658 N 0.21166 0.40313 0.41853
 C659 C 0.23433 0.37765 0.37965
 N660 N 0.21566 0.35704 0.37980
 N661 N 0.21573 0.33810 0.35940
 C662 C 0.23424 0.33929 0.33792
 N663 N 0.25280 0.36001 0.33774
 N664 N 0.25296 0.37874 0.35831
 C665 C 0.26429 0.09007 0.90220
 N666 N 0.28862 0.08026 0.91354
 N667 N 0.28861 0.06129 0.93394
 C668 C 0.26425 0.05153 0.94385
 N669 N 0.23993 0.06147 0.93256
 N670 N 0.23996 0.08032 0.91209
 C671 C 0.26418 0.11074 0.87950
 N672 N 0.24007 0.11815 0.86623
 N673 N 0.23986 0.13684 0.84560
 C674 C 0.26373 0.14896 0.83748
 N675 N 0.28786 0.14154 0.85084
 N676 N 0.28810 0.12273 0.87140
 C677 C 0.76321 0.59488 0.39969
 N678 N 0.78725 0.58534 0.41184
 N679 N 0.78672 0.56725 0.43300
 C680 C 0.76211 0.55811 0.44285
 N681 N 0.73806 0.56769 0.43075
 N682 N 0.73860 0.58574 0.40955
 C683 C 0.76380 0.61482 0.37636
 N684 N 0.73988 0.62336 0.36334
 N685 N 0.74041 0.64169 0.34239
 C686 C 0.76486 0.65222 0.33364
 N687 N 0.78877 0.64356 0.34668
 N688 N 0.78826 0.62519 0.36759
 C689 C 0.09830 0.73699 0.89701
 N690 N 0.08735 0.76111 0.90770
 N691 N 0.06827 0.76073 0.92797
 C692 C 0.05934 0.73620 0.93824
 N693 N 0.07030 0.71207 0.92750
 N694 N 0.08946 0.71246 0.90731
 C695 C 0.11929 0.73743 0.87464
 N696 N 0.13212 0.71348 0.86571
 N697 N 0.15120 0.71391 0.84545
 C698 C 0.15811 0.73829 0.83322
 N699 N 0.14517 0.76222 0.84217
 N700 N 0.12617 0.76181 0.86251
 C701 C 0.59618 0.24009 0.39926
 N702 N 0.58334 0.26384 0.40871
 N703 N 0.56401 0.26294 0.42871
 C704 C 0.55677 0.23823 0.43993
 N705 N 0.56959 0.21446 0.43046
 N706 N 0.58898 0.21538 0.41052
 C707 C 0.61746 0.24110 0.37720
 N708 N 0.63173 0.21762 0.36914
 N709 N 0.65106 0.21855 0.34915
 C710 C 0.65682 0.24297 0.33635
 N711 N 0.64246 0.26644 0.34444
 N712 N 0.62319 0.26553 0.36449
 C713 C 0.90127 0.26517 0.89946
 N714 N 0.91332 0.24101 0.90889
 N715 N 0.93291 0.24124 0.92864
 C716 C 0.94124 0.26565 0.93960
 N717 N 0.92925 0.28984 0.93013
 N718 N 0.90957 0.28960 0.91044
 C719 C 0.87961 0.26481 0.87778
 N720 N 0.86582 0.28864 0.86992
 N721 N 0.84607 0.28821 0.85033
 C722 C 0.83941 0.26395 0.83776
 N723 N 0.85330 0.24014 0.84565
 N724 N 0.87297 0.24055 0.86530
 C725 C 0.40555 0.76000 0.39633
 N726 N 0.41910 0.73655 0.40570
 N727 N 0.43850 0.73795 0.42560
 C728 C 0.44511 0.76285 0.43678
 N729 N 0.43161 0.78629 0.42736
 N730 N 0.41217 0.78488 0.40754
 C731 C 0.38398 0.75854 0.37455
 N732 N 0.36921 0.78179 0.36666
 N733 N 0.34958 0.78054 0.34702
 C734 C 0.34396 0.75602 0.33441
 N735 N 0.35882 0.73277 0.34232
 N736 N 0.37841 0.73399 0.36204
 C737 C 0.26195 0.89790 0.10070
 N738 N 0.23785 0.91037 0.09153
 N739 N 0.23821 0.92980 0.07161
 C740 C 0.26268 0.93754 0.06021
 N741 N 0.28678 0.92511 0.06940
 N742 N 0.28641 0.90561 0.08926
 C743 C 0.26152 0.87648 0.12266
 N744 N 0.28528 0.86238 0.13025
 N745 N 0.28485 0.84292 0.15014
 C746 C 0.26068 0.83688 0.16331
 N747 N 0.23695 0.85108 0.15569
 N748 N 0.23734 0.87046 0.13573
 C749 C 0.75712 0.40737 0.60451
 N750 N 0.73314 0.41973 0.59489
 N751 N 0.73375 0.43886 0.57468
 C752 C 0.75837 0.44639 0.56343
 N753 N 0.78234 0.43408 0.57309
 N754 N 0.78172 0.41489 0.59323
 C755 C 0.75647 0.38617 0.62667
 N756 N 0.78022 0.37237 0.63478
 N757 N 0.77964 0.35304 0.65479
 C758 C 0.75532 0.34681 0.66755
 N759 N 0.73158 0.36072 0.65942
 N760 N 0.73213 0.37999 0.63935
 C761 C 0.73835 0.09992 0.10331
 N762 N 0.71383 0.09165 0.09245
 N763 N 0.71346 0.07209 0.07269
 C764 C 0.73762 0.06018 0.06302
 N765 N 0.76213 0.06848 0.07385
 N766 N 0.76249 0.08796 0.09367
 C767 C 0.73879 0.12145 0.12508
 N768 N 0.76313 0.12813 0.13744
 N769 N 0.76357 0.14767 0.15720
 C770 C 0.73971 0.16137 0.16531
 N771 N 0.71539 0.15466 0.15285
 N772 N 0.71492 0.13505 0.13315
 C773 C 0.23776 0.59293 0.60019
 N774 N 0.26177 0.58045 0.59083
 N775 N 0.26121 0.56084 0.57113
 C776 C 0.23663 0.55291 0.56014
 N777 N 0.21261 0.56534 0.56954
 N778 N 0.21317 0.58503 0.58918
 C779 C 0.23845 0.61462 0.62186
 N780 N 0.21474 0.62861 0.62979
 N781 N 0.21543 0.64833 0.64937
 C782 C 0.23982 0.65478 0.66187
 N783 N 0.26351 0.64069 0.65390
 N784 N 0.26285 0.62104 0.63426
 C785 C 0.90789 0.73465 0.09725
 N786 N 0.91599 0.71051 0.08443
 N787 N 0.93490 0.71045 0.06396
 C788 C 0.94627 0.73457 0.05550
 N789 N 0.93808 0.75869 0.06826
 N790 N 0.91929 0.75873 0.08879
 C791 C 0.88729 0.73486 0.12002
 N792 N 0.88158 0.75856 0.13464
 N793 N 0.86298 0.75889 0.15535
 C794 C 0.84926 0.73557 0.16222
 N795 N 0.85496 0.71186 0.14750
 N796 N 0.87367 0.71149 0.12684
 C797 C 0.40380 0.23262 0.59943
 N798 N 0.41308 0.20860 0.58711
 N799 N 0.43190 0.20905 0.56657
 C800 C 0.44199 0.23355 0.55752
 N801 N 0.43262 0.25755 0.56977
 N802 N 0.41391 0.25709 0.59037
 C803 C 0.38329 0.23226 0.62227
 N804 N 0.37611 0.25605 0.63615
 N805 N 0.35754 0.25586 0.65688
 C806 C 0.34533 0.23190 0.66452
 N807 N 0.35253 0.20810 0.65055
 N808 N 0.37120 0.20826 0.62987
 C809 C 0.09555 0.26503 0.09771
 N810 N 0.09136 0.28785 0.08126
 N811 N 0.07203 0.28814 0.06121
 C812 C 0.05647 0.26549 0.05669
 N813 N 0.06081 0.24262 0.07300
 N814 N 0.07989 0.24245 0.09326
 C815 C 0.11650 0.26474 0.12007
 N816 N 0.11519 0.24610 0.14137
 N817 N 0.13409 0.24583 0.16180
 C818 C 0.15519 0.26396 0.16152
 N819 N 0.15659 0.28250 0.14009
 N820 N 0.13748 0.28300 0.11982
 C821 C 0.59597 0.77315 0.59798
 N822 N 0.59151 0.79534 0.58070
 N823 N 0.57246 0.79453 0.56039
 C824 C 0.55746 0.77139 0.55645
 N825 N 0.56205 0.74919 0.57363
 N826 N 0.58082 0.75012 0.59412
 C827 C 0.61678 0.77384 0.62049
 N828 N 0.61555 0.75579 0.64231
 N829 N 0.63448 0.75609 0.66270
 C830 C 0.65558 0.77421 0.66188
 N831 N 0.65690 0.79219 0.63994
 N832 N 0.63774 0.79212 0.61970
   
