data_POSCAR
  _audit_creation_date              2014-09-24
  _audit_creation_method            'ToBaCCo'
  _symmetry_space_group_name_H-M    'P1'
  _symmetry_Int_Tables_number       1
  _symmetry_cell_setting            triclinic
  loop_
  _symmetry_equiv_pos_as_xyz
 x,y,z
_cell_length_a 48.6261
_cell_length_b 48.6222
_cell_length_c 41.4319
_cell_angle_alpha 89.947800
_cell_angle_beta 89.952200
_cell_angle_gamma 88.634600
loop_
  _atom_site_label
  _atom_site_type_symbol
  _atom_site_fract_x
  _atom_site_fract_y
  _atom_site_fract_z
O1 O 0.00858 0.33792 -0.02884
 O2 O -0.04341 0.33360 0.03596
 O3 O 0.01030 0.33764 0.03393
 O4 O -0.04523 0.33368 -0.02666
 O5 O -0.04045 0.28833 -0.02675
 O6 O 0.01458 0.29226 0.03344
 O7 O -0.03868 0.28825 0.03547
 O8 O 0.01289 0.29254 -0.02890
 Cu9 Cu -0.01788 0.34033 0.00359
 Cu10 Cu -0.01243 0.28581 0.00326
 C11 C 0.01974 0.31587 -0.03947
 C12 C -0.05004 0.31009 0.04632
 C13 C 0.02196 0.31551 0.04364
 C14 C -0.05246 0.31021 -0.03650
 O15 O 0.54050 0.79876 0.45661
 O16 O 0.48662 0.80512 0.51935
 O17 O 0.54050 0.80357 0.51923
 O18 O 0.48681 0.80125 0.45647
 O19 O 0.48622 0.75593 0.46091
 O20 O 0.53979 0.75825 0.52343
 O21 O 0.48620 0.75979 0.52349
 O22 O 0.53963 0.75346 0.46112
 Cu23 Cu 0.51364 0.80677 0.48751
 Cu24 Cu 0.51286 0.75232 0.49272
 C25 C 0.54918 0.77494 0.44839
 C26 C 0.47727 0.78341 0.53190
 C27 C 0.54935 0.78124 0.53172
 C28 C 0.47748 0.77817 0.44810
 O29 O 0.99109 0.67162 -0.04515
 O30 O 1.04483 0.66773 0.01790
 O31 O 0.99084 0.66611 0.01764
 O32 O 1.04486 0.67242 -0.04443
 O33 O 1.04257 0.71769 -0.03925
 O34 O 0.98878 0.71141 0.02242
 O35 O 1.04232 0.71302 0.02271
 O36 O 0.98918 0.71688 -0.03992
 Cu37 Cu 1.01802 0.66485 -0.01396
 Cu38 Cu 1.01540 0.71928 -0.00796
 C39 C 0.98112 0.69501 -0.05316
 C40 C 1.05294 0.68991 0.03049
 C41 C 0.98061 0.68777 0.03037
 C42 C 1.05304 0.69617 -0.05199
 O43 O 0.51408 0.20074 0.53515
 O44 O 0.46232 0.20452 0.47007
 O45 O 0.51603 0.20085 0.47218
 O46 O 0.46054 0.20464 0.53306
 O47 O 0.46277 0.25002 0.53298
 O48 O 0.51799 0.24624 0.47237
 O49 O 0.46452 0.24989 0.47024
 O50 O 0.51608 0.24613 0.53508
 Cu51 Cu 0.48803 0.19809 0.50256
 Cu52 Cu 0.49055 0.25262 0.50263
 C53 C 0.52378 0.22285 0.54610
 C54 C 0.45464 0.22789 0.45926
 C55 C 0.52642 0.22298 0.46210
 C56 C 0.45235 0.22803 0.54331
 O57 O 0.69493 0.01229 -0.01770
 O58 O 0.70122 -0.04148 0.04522
 O59 O 0.69905 0.01223 0.04514
 O60 O 0.69604 -0.04158 -0.01737
 O61 O 0.74136 -0.04120 -0.02186
 O62 O 0.74434 0.01250 0.04042
 O63 O 0.74650 -0.04093 0.04041
 O64 O 0.74025 0.01238 -0.02212
 Cu65 Cu 0.69321 -0.01464 0.01426
 Cu66 Cu 0.74765 -0.01425 0.00871
 C67 C 0.71664 0.02145 -0.03042
 C68 C 0.72501 -0.05032 0.05331
 C69 C 0.72222 0.02144 0.05332
 C70 C 0.71826 -0.05061 -0.02998
 O71 O 0.16632 0.54337 0.46419
 O72 O 0.16218 0.49138 0.52898
 O73 O 0.16615 0.54523 0.52683
 O74 O 0.16273 0.48963 0.46622
 O75 O 0.20813 0.48564 0.46689
 O76 O 0.21152 0.54073 0.52709
 O77 O 0.20757 0.48735 0.52923
 O78 O 0.21170 0.53895 0.46486
 Cu79 Cu 0.15972 0.51781 0.49655
 Cu80 Cu 0.21427 0.51272 0.49710
 C81 C 0.18981 0.55014 0.45392
 C82 C 0.18426 0.48035 0.53970
 C83 C 0.18954 0.55261 0.53676
 C84 C 0.18496 0.47811 0.45658
 O85 O 0.29795 0.98647 -0.03698
 O86 O 0.29479 1.03846 0.02791
 O87 O 0.29841 0.98474 0.02600
 O88 O 0.29421 1.04003 -0.03509
 O89 O 0.24884 1.03788 -0.03449
 O90 O 0.25302 0.98285 0.02633
 O91 O 0.24942 1.03634 0.02825
 O92 O 0.25257 0.98455 -0.03640
 Cu93 Cu 0.30094 1.01264 -0.00454
 Cu94 Cu 0.24641 1.01020 -0.00399
 C95 C 0.27573 0.97677 -0.04765
 C96 C 0.27152 1.04622 0.03895
 C97 C 0.27636 0.97442 0.03637
 C98 C 0.27076 1.04824 -0.04511
 O99 O 0.83415 0.45468 0.48146
 O100 O 0.83010 0.50809 0.54487
 O101 O 0.82955 0.45431 0.54380
 O102 O 0.83541 0.50870 0.48205
 O103 O 0.79010 0.51052 0.47742
 O104 O 0.78426 0.45638 0.53876
 O105 O 0.78482 0.50977 0.53978
 O106 O 0.78884 0.45697 0.47680
 Cu107 Cu 0.83692 0.48136 0.51348
 Cu108 Cu 0.78247 0.48370 0.50765
 C109 C 0.81199 0.44651 0.46889
 C110 C 0.80667 0.51788 0.55300
 C111 C 0.80586 0.44597 0.55137
 C112 C 0.81366 0.51887 0.46945
 C113 C 0.20915 0.23760 0.17615
 C114 C 0.22925 0.22242 0.19290
 C115 C 0.23978 0.23246 0.22198
 C116 C 0.23107 0.25851 0.23397
 C117 C 0.21128 0.27383 0.21598
 C118 C 0.19994 0.26309 0.18780
 C119 C 0.24224 0.26961 0.26500
 C120 C 0.22697 0.28937 0.28311
 C121 C 0.23780 0.30066 0.31128
 C122 C 0.26333 0.29143 0.32278
 C123 C 0.27845 0.27136 0.30590
 C124 C 0.26831 0.26089 0.27684
 H125 H 0.20053 0.22948 0.15407
 H126 H 0.25443 0.21968 0.23512
 H127 H 0.20448 0.29415 0.22352
 H128 H 0.20662 0.29618 0.27568
 H129 H 0.27152 0.29999 0.34485
 H130 H 0.28105 0.24626 0.26361
 C131 C 0.79988 0.75641 0.17813
 C132 C 0.77976 0.77104 0.19545
 C133 C 0.76940 0.76023 0.22419
 C134 C 0.77811 0.73390 0.23525
 C135 C 0.79818 0.71921 0.21696
 C136 C 0.80935 0.73072 0.18900
 C137 C 0.76627 0.72193 0.26550
 C138 C 0.78107 0.70186 0.28368
 C139 C 0.76964 0.69055 0.31163
 C140 C 0.74393 0.69989 0.32257
 C141 C 0.72920 0.72000 0.30535
 C142 C 0.73992 0.73049 0.27664
 H143 H 0.80822 0.76507 0.15615
 H144 H 0.75471 0.77265 0.23773
 H145 H 0.80515 0.69879 0.22401
 H146 H 0.80150 0.69500 0.27657
 H147 H 0.73534 0.69145 0.34453
 H148 H 0.72742 0.74517 0.26317
 C149 C 0.77683 0.21603 0.18482
 C150 C 0.78496 0.24146 0.19655
 C151 C 0.77425 0.25149 0.22568
 C152 C 0.75613 0.23562 0.24428
 C153 C 0.74833 0.20979 0.23220
 C154 C 0.75836 0.20031 0.20238
 C155 C 0.74581 0.24597 0.27618
 C156 C 0.71985 0.23846 0.28823
 C157 C 0.71033 0.24868 0.31796
 C158 C 0.72619 0.26705 0.33545
 C159 C 0.75175 0.27489 0.32373
 C160 C 0.76179 0.26397 0.29472
 H161 H 0.78503 0.20838 0.16209
 H162 H 0.78020 0.27170 0.23360
 H163 H 0.73485 0.19679 0.24594
 H164 H 0.70674 0.22514 0.27449
 H165 H 0.71849 0.27550 0.35803
 H166 H 0.78206 0.26975 0.28678
 C167 C 0.23309 0.77499 0.16364
 C168 C 0.22521 0.74944 0.17537
 C169 C 0.23618 0.73938 0.20435
 C170 C 0.25423 0.75533 0.22286
 C171 C 0.26177 0.78128 0.21078
 C172 C 0.25152 0.79080 0.18107
 C173 C 0.26456 0.74505 0.25480
 C174 C 0.29035 0.75292 0.26698
 C175 C 0.29974 0.74297 0.29688
 C176 C 0.28399 0.72449 0.31440
 C177 C 0.25862 0.71630 0.30258
 C178 C 0.24867 0.72694 0.27338
 H179 H 0.22461 0.78272 0.14108
 H180 H 0.23037 0.71912 0.21230
 H181 H 0.27512 0.79438 0.22449
 H182 H 0.30336 0.76640 0.25327
 H183 H 0.29157 0.71635 0.33719
 H184 H 0.22848 0.72095 0.26542
 C185 C 0.71373 0.26768 0.68666
 C186 C 0.69798 0.24909 0.70398
 C187 C 0.70728 0.23906 0.73389
 C188 C 0.73304 0.24690 0.74625
 C189 C 0.74896 0.26510 0.72776
 C190 C 0.73902 0.27589 0.69863
 C191 C 0.74326 0.23658 0.77827
 C192 C 0.76179 0.25220 0.79654
 C193 C 0.77264 0.24210 0.82558
 C194 C 0.76409 0.21693 0.83771
 C195 C 0.74512 0.20149 0.82060
 C196 C 0.73508 0.21097 0.79076
 H197 H 0.70617 0.27595 0.66391
 H198 H 0.69417 0.22557 0.74745
 H199 H 0.76912 0.27109 0.73573
 H200 H 0.76807 0.27225 0.78843
 H201 H 0.77241 0.20922 0.86036
 H202 H 0.72134 0.19807 0.77733
 C203 C 0.28128 0.73655 0.66292
 C204 C 0.29661 0.75568 0.67995
 C205 C 0.28695 0.76596 0.70958
 C206 C 0.26126 0.75789 0.72196
 C207 C 0.24575 0.73920 0.70376
 C208 C 0.25604 0.72810 0.67493
 C209 C 0.25078 0.76837 0.75381
 C210 C 0.23246 0.75261 0.77230
 C211 C 0.22158 0.76272 0.80130
 C212 C 0.22983 0.78804 0.81316
 C213 C 0.24854 0.80365 0.79585
 C214 C 0.25865 0.79418 0.76604
 H215 H 0.28914 0.72805 0.64044
 H216 H 0.29977 0.77981 0.72296
 H217 H 0.22565 0.73298 0.71176
 H218 H 0.22644 0.73241 0.76445
 H219 H 0.22152 0.79571 0.83583
 H220 H 0.27226 0.80716 0.75249
 C221 C 0.25928 0.29484 0.67663
 C222 C 0.23391 0.30438 0.68832
 C223 C 0.22294 0.29305 0.71643
 C224 C 0.23793 0.27296 0.73435
 C225 C 0.26390 0.26398 0.72235
 C226 C 0.27412 0.27445 0.69330
 C227 C 0.22659 0.26169 0.76528
 C228 C 0.23539 0.23565 0.77724
 C229 C 0.22486 0.22547 0.80626
 C230 C 0.20457 0.24043 0.82297
 C231 C 0.19520 0.26587 0.81132
 C232 C 0.20660 0.27680 0.78322
 H233 H 0.26755 0.30340 0.65456
 H234 H 0.20268 0.30010 0.72392
 H235 H 0.27650 0.24913 0.73541
 H236 H 0.25015 0.22296 0.76415
 H237 H 0.19597 0.23218 0.84502
 H238 H 0.19968 0.29711 0.77576
 C239 C 0.73056 0.71067 0.67960
 C240 C 0.75104 0.69639 0.69670
 C241 C 0.76169 0.70755 0.72503
 C242 C 0.75299 0.73394 0.73583
 C243 C 0.73251 0.74829 0.71779
 C244 C 0.72101 0.73639 0.69028
 C245 C 0.76532 0.74629 0.76554
 C246 C 0.75086 0.76660 0.78369
 C247 C 0.76271 0.77811 0.81122
 C248 C 0.78851 0.76874 0.82180
 C249 C 0.80293 0.74842 0.80460
 C250 C 0.79181 0.73777 0.77625
 H251 H 0.72202 0.70175 0.65792
 H252 H 0.77664 0.69533 0.73842
 H253 H 0.72550 0.76873 0.72465
 H254 H 0.73035 0.77348 0.77691
 H255 H 0.79739 0.77729 0.84350
 H256 H 0.80411 0.72294 0.76277
 C257 C 0.26995 0.06689 0.06364
 C258 C 0.26782 0.08463 0.08389
 C259 C 0.26431 0.10634 0.10727
 C260 C 0.28121 0.12926 0.10623
 C261 C 0.27596 0.15165 0.12672
 C262 C 0.25381 0.15120 0.14836
 C263 C 0.23738 0.12795 0.15003
 C264 C 0.24263 0.10556 0.12955
 C265 C 0.24620 0.17561 0.16622
 C266 C 0.23894 0.19665 0.17947
 H267 H 0.29790 0.13019 0.08895
 H268 H 0.28861 0.16964 0.12495
 H269 H 0.22001 0.12749 0.16639
 H270 H 0.22931 0.08804 0.13041
 C271 C 0.80448 0.53894 0.57711
 C272 C 0.80118 0.55709 0.59660
 C273 C 0.79568 0.57931 0.61875
 C274 C 0.81063 0.60351 0.61664
 C275 C 0.80297 0.62638 0.63532
 C276 C 0.78032 0.62513 0.65616
 C277 C 0.76588 0.60066 0.65900
 C278 C 0.77355 0.57779 0.64033
 C279 C 0.77043 0.64964 0.67223
 C280 C 0.76171 0.67068 0.68421
 H281 H 0.82759 0.60500 0.59980
 H282 H 0.81412 0.64528 0.63273
 H283 H 0.74819 0.59955 0.67482
 H284 H 0.76168 0.55926 0.64192
 C285 C 0.72779 0.92944 0.07573
 C286 C 0.73134 0.91108 0.09497
 C287 C 0.73688 0.88866 0.11691
 C288 C 0.75943 0.88965 0.13788
 C289 C 0.76677 0.86668 0.15661
 C290 C 0.75158 0.84263 0.15446
 C291 C 0.72856 0.84191 0.13417
 C292 C 0.72123 0.86488 0.11543
 C293 C 0.76098 0.81799 0.17071
 C294 C 0.76935 0.79686 0.18285
 H295 H 0.77182 0.90785 0.13902
 H296 H 0.78475 0.86739 0.17199
 H297 H 0.71681 0.82334 0.13209
 H298 H 0.70390 0.86380 0.09909
 C299 C 0.18317 0.45870 0.56314
 C300 C 0.18378 0.43968 0.58180
 C301 C 0.18638 0.41627 0.60293
 C302 C 0.18158 0.38987 0.59096
 C303 C 0.18804 0.36670 0.60974
 C304 C 0.19932 0.36985 0.64057
 C305 C 0.20318 0.39627 0.65300
 C306 C 0.19674 0.41945 0.63421
 C307 C 0.20971 0.34619 0.65796
 C308 C 0.21995 0.32680 0.67201
 H309 H 0.17388 0.38717 0.56666
 H310 H 0.18524 0.34637 0.59976
 H311 H 0.21217 0.39894 0.67668
 H312 H 0.20084 0.43974 0.64356
 C313 C 0.92961 0.30789 0.06851
 C314 C 0.91104 0.30455 0.08727
 C315 C 0.88849 0.29877 0.10853
 C316 C 0.89363 0.28836 0.13953
 C317 C 0.87188 0.27928 0.15856
 C318 C 0.84491 0.28054 0.14664
 C319 C 0.83968 0.29174 0.11603
 C320 C 0.86143 0.30084 0.09701
 C321 C 0.82311 0.26813 0.16458
 C322 C 0.80537 0.25656 0.17925
 H323 H 0.91450 0.28639 0.14853
 H324 H 0.87618 0.27044 0.18208
 H325 H 0.81894 0.29260 0.10647
 H326 H 0.85726 0.30858 0.07293
 C327 C 0.45578 0.78529 0.55561
 C328 C 0.43729 0.78557 0.57503
 C329 C 0.41467 0.78444 0.59741
 C330 C 0.41599 0.76621 0.62362
 C331 C 0.39286 0.76254 0.64311
 C332 C 0.36830 0.77711 0.63650
 C333 C 0.36723 0.79598 0.61092
 C334 C 0.39037 0.79964 0.59141
 C335 C 0.34353 0.77066 0.65370
 C336 C 0.32236 0.76431 0.66659
 H337 H 0.43459 0.75416 0.62831
 H338 H 0.39384 0.74768 0.66260
 H339 H 0.34827 0.80715 0.60537
 H340 H 0.38902 0.81361 0.57105
 C341 C 0.07538 0.68940 0.05291
 C342 C 0.09485 0.69088 0.07074
 C343 C 0.11847 0.69489 0.09092
 C344 C 0.14486 0.69401 0.07728
 C345 C 0.16751 0.70213 0.09540
 C346 C 0.16385 0.71114 0.12725
 C347 C 0.13762 0.71105 0.14127
 C348 C 0.11496 0.70296 0.12313
 C349 C 0.18632 0.72311 0.14440
 C350 C 0.20448 0.73446 0.15853
 H351 H 0.14776 0.68815 0.05226
 H352 H 0.18766 0.70237 0.08423
 H353 H 0.13452 0.71824 0.16578
 H354 H 0.09461 0.70405 0.13380
 C355 C 0.54407 0.22172 0.57122
 C356 C 0.56147 0.22164 0.59195
 C357 C 0.58276 0.22263 0.61600
 C358 C 0.60598 0.20513 0.61363
 C359 C 0.62809 0.20823 0.63479
 C360 C 0.62707 0.22882 0.65843
 C361 C 0.60349 0.24575 0.66146
 C362 C 0.58137 0.24264 0.64031
 C363 C 0.65133 0.23470 0.67682
 C364 C 0.67228 0.24068 0.69037
 H365 H 0.60737 0.18972 0.59478
 H366 H 0.64636 0.19526 0.63196
 H367 H 0.60261 0.26197 0.67937
 H368 H 0.56361 0.25643 0.64221
 C369 C 0.71482 0.04289 0.94579
 C370 C 0.71460 0.06133 0.92630
 C371 C 0.71583 0.08387 0.90380
 C372 C 0.73400 0.08234 0.87755
 C373 C 0.73777 0.10539 0.85793
 C374 C 0.72337 0.13006 0.86445
 C375 C 0.70457 0.13133 0.89010
 C376 C 0.70081 0.10829 0.90973
 C377 C 0.72993 0.15473 0.84711
 C378 C 0.73637 0.17583 0.83409
 H379 H 0.74592 0.06365 0.87291
 H380 H 0.75257 0.10424 0.83839
 H381 H 0.69354 0.15039 0.89559
 H382 H 0.68690 0.10981 0.93013
 C383 C 0.19207 0.57162 0.43043
 C384 C 0.19545 0.59021 0.41171
 C385 C 0.20125 0.61277 0.39049
 C386 C 0.21161 0.60765 0.35947
 C387 C 0.22070 0.62941 0.34046
 C388 C 0.21949 0.65636 0.35243
 C389 C 0.20834 0.66158 0.38306
 C390 C 0.19924 0.63982 0.40205
 C391 C 0.23191 0.67816 0.33451
 C392 C 0.24350 0.69590 0.31986
 H393 H 0.21354 0.58679 0.35043
 H394 H 0.22950 0.62513 0.31691
 H395 H 0.20752 0.68231 0.39265
 H396 H 0.19153 0.64397 0.42615
 C397 C 0.27659 0.95749 0.92865
 C398 C 0.27656 0.94007 0.90794
 C399 C 0.27543 0.91876 0.88389
 C400 C 0.25537 0.92022 0.85964
 C401 C 0.25217 0.89813 0.83847
 C402 C 0.26905 0.87450 0.84141
 C403 C 0.28968 0.87341 0.86501
 C404 C 0.29288 0.89550 0.88619
 C405 C 0.26310 0.85027 0.82299
 C406 C 0.25704 0.82934 0.80942
 H407 H 0.24162 0.93802 0.85779
 H408 H 0.23591 0.89907 0.82061
 H409 H 0.30262 0.85511 0.86779
 H410 H 0.30832 0.89405 0.90499
 C411 C 0.81256 0.42417 0.44635
 C412 C 0.81108 0.40477 0.42844
 C413 C 0.80702 0.38120 0.40819
 C414 C 0.79882 0.38481 0.37604
 C415 C 0.79057 0.36222 0.35790
 C416 C 0.79044 0.33596 0.37186
 C417 C 0.79960 0.33220 0.40363
 C418 C 0.80788 0.35478 0.42177
 C419 C 0.77830 0.31359 0.35474
 C420 C 0.76682 0.29551 0.34061
 H421 H 0.79773 0.40519 0.36544
 H422 H 0.78328 0.36540 0.33344
 H423 H 0.79934 0.31203 0.41476
 H424 H 0.81383 0.35181 0.44674
 C425 C 0.04136 0.31701 0.93705
 C426 C 0.06034 0.31640 0.91833
 C427 C 0.08370 0.31377 0.89713
 C428 C 0.08042 0.30356 0.86580
 C429 C 0.10352 0.29707 0.84691
 C430 C 0.12999 0.30075 0.85929
 C431 C 0.13326 0.31189 0.89017
 C432 C 0.11016 0.31840 0.90905
 C433 C 0.15356 0.29027 0.84180
 C434 C 0.17288 0.27996 0.82768
 H435 H 0.06008 0.29959 0.85648
 H436 H 0.10076 0.28819 0.82319
 H437 H 0.15363 0.31454 0.90012
 H438 H 0.11295 0.32598 0.93338
 C439 C 0.57060 0.77196 0.42475
 C440 C 0.58900 0.76829 0.40560
 C441 C 0.61145 0.76267 0.38376
 C442 C 0.61061 0.73989 0.36310
 C443 C 0.63361 0.73253 0.34445
 C444 C 0.65754 0.74793 0.34636
 C445 C 0.65812 0.77114 0.36635
 C446 C 0.63513 0.77850 0.38502
 C447 C 0.68221 0.73858 0.33015
 C448 C 0.70336 0.73028 0.31801
 H449 H 0.59250 0.72737 0.36215
 H450 H 0.63302 0.71440 0.32930
 H451 H 0.67660 0.78305 0.36823
 H452 H 0.63609 0.79600 0.40111
 C453 C 0.96107 0.69697 0.92416
 C454 C 0.94284 0.70003 0.90470
 C455 C 0.92053 0.70521 0.88256
 C456 C 0.89647 0.69004 0.88485
 C457 C 0.87352 0.69737 0.86613
 C458 C 0.87452 0.71990 0.84509
 C459 C 0.89884 0.73456 0.84209
 C460 C 0.92180 0.72722 0.86079
 C461 C 0.84989 0.72947 0.82899
 C462 C 0.82876 0.73796 0.81701
 H463 H 0.89516 0.67316 0.90183
 H464 H 0.85473 0.68605 0.86886
 H465 H 0.89976 0.75217 0.82612
 H466 H 0.94021 0.73927 0.85907
 C467 C 0.43404 0.22968 0.43451
 C468 C 0.41634 0.23198 0.41425
 C469 C 0.39466 0.23569 0.39088
 C470 C 0.37186 0.21860 0.39151
 C471 C 0.34946 0.22402 0.37111
 C472 C 0.34977 0.24653 0.34998
 C473 C 0.37290 0.26314 0.34869
 C474 C 0.39530 0.25772 0.36909
 C475 C 0.32532 0.25428 0.33228
 C476 C 0.30425 0.26162 0.31918
 H477 H 0.37105 0.20163 0.40843
 H478 H 0.33156 0.21123 0.37258
 H479 H 0.37324 0.28079 0.33272
 H480 H 0.41273 0.27119 0.36855
 C481 C 0.71751 0.92773 0.94659
 C482 C 0.71792 0.90912 0.92737
 C483 C 0.71983 0.88653 0.90499
 C484 C 0.72814 0.89111 0.87309
 C485 C 0.73332 0.86882 0.85246
 C486 C 0.73019 0.84186 0.86366
 C487 C 0.72100 0.83733 0.89523
 C488 C 0.71582 0.85962 0.91585
 C489 C 0.73951 0.81900 0.84416
 C490 C 0.74909 0.80012 0.82865
 H491 H 0.73154 0.91181 0.86452
 H492 H 0.74075 0.87255 0.82823
 H493 H 0.71884 0.81658 0.90427
 H494 H 0.70963 0.85583 0.94055
 C495 C 0.18425 0.45552 0.43440
 C496 C 0.18526 0.43593 0.41659
 C497 C 0.18840 0.41207 0.39627
 C498 C 0.19661 0.41501 0.36405
 C499 C 0.20350 0.39175 0.34564
 C500 C 0.20222 0.36545 0.35937
 C501 C 0.19310 0.36246 0.39123
 C502 C 0.18620 0.38572 0.40964
 C503 C 0.21301 0.34197 0.34196
 C504 C 0.22353 0.32279 0.32780
 H505 H 0.19869 0.43528 0.35357
 H506 H 0.21080 0.39432 0.32113
 H507 H 0.19231 0.34226 0.40220
 H508 H 0.18018 0.38321 0.43463
 C509 C 0.26889 0.06865 0.93256
 C510 C 0.26639 0.08695 0.91305
 C511 C 0.26235 0.10914 0.89039
 C512 C 0.24151 0.10777 0.86714
 C513 C 0.23569 0.13039 0.84719
 C514 C 0.25071 0.15446 0.85037
 C515 C 0.27205 0.15556 0.87302
 C516 C 0.27786 0.13294 0.89298
 C517 C 0.24252 0.17885 0.83280
 C518 C 0.23487 0.19981 0.81970
 H519 H 0.22925 0.08953 0.86507
 H520 H 0.21896 0.12940 0.83000
 H521 H 0.28361 0.17417 0.87593
 H522 H 0.29389 0.13430 0.91102
 C523 C 0.81539 0.54067 0.44623
 C524 C 0.81545 0.55941 0.42714
 C525 C 0.81378 0.58217 0.40491
 C526 C 0.80623 0.57773 0.37274
 C527 C 0.80088 0.60011 0.35227
 C528 C 0.80306 0.62704 0.36387
 C529 C 0.81155 0.63146 0.39572
 C530 C 0.81691 0.60908 0.41619
 C531 C 0.79341 0.64987 0.34448
 C532 C 0.78356 0.66868 0.32903
 H533 H 0.80348 0.55703 0.36384
 H534 H 0.79400 0.59644 0.32781
 H535 H 0.81297 0.65218 0.40508
 H536 H 0.82245 0.61277 0.44111
 C537 C 0.07395 0.69881 0.92664
 C538 C 0.09295 0.70223 0.90850
 C539 C 0.11597 0.70778 0.88789
 C540 C 0.11156 0.71746 0.85642
 C541 C 0.13377 0.72598 0.83775
 C542 C 0.16046 0.72485 0.85049
 C543 C 0.16497 0.71442 0.88161
 C544 C 0.14276 0.70589 0.90027
 C545 C 0.18271 0.73670 0.83279
 C546 C 0.20081 0.74790 0.81832
 H547 H 0.09090 0.71925 0.84673
 H548 H 0.13003 0.73424 0.81382
 H549 H 0.18549 0.71370 0.89179
 H550 H 0.14637 0.69868 0.92469
 C551 C 0.54844 0.22188 0.43902
 C552 C 0.56733 0.22191 0.42013
 C553 C 0.59037 0.22306 0.39836
 C554 C 0.61384 0.20643 0.40378
 C555 C 0.63733 0.20964 0.38474
 C556 C 0.63744 0.22948 0.36019
 C557 C 0.61371 0.24558 0.35418
 C558 C 0.59022 0.24236 0.37321
 C559 C 0.66264 0.23516 0.34344
 C560 C 0.68417 0.24083 0.33091
 H561 H 0.61427 0.19159 0.42331
 H562 H 0.65565 0.19728 0.38983
 H563 H 0.61365 0.26118 0.33549
 H564 H 0.57227 0.25548 0.36896
 C565 C 0.92459 0.30793 0.94205
 C566 C 0.90480 0.30445 0.92516
 C567 C 0.88090 0.29851 0.90619
 C568 C 0.88388 0.28949 0.87425
 C569 C 0.86102 0.28040 0.85719
 C570 C 0.83510 0.28024 0.87200
 C571 C 0.83198 0.29000 0.90362
 C572 C 0.85483 0.29911 0.92068
 C573 C 0.81232 0.26804 0.85567
 C574 C 0.79383 0.25675 0.84205
 H575 H 0.90397 0.28866 0.86292
 H576 H 0.86370 0.27270 0.83282
 H577 H 0.81208 0.28977 0.91540
 H578 H 0.85234 0.30576 0.94549
 C579 C 0.45640 0.77707 0.42396
 C580 C 0.43837 0.77550 0.40413
 C581 C 0.41637 0.77279 0.38122
 C582 C 0.39341 0.79072 0.38250
 C583 C 0.37083 0.78643 0.36237
 C584 C 0.37113 0.76421 0.34085
 C585 C 0.39439 0.74673 0.33894
 C586 C 0.41697 0.75102 0.35907
 C587 C 0.34660 0.75773 0.32328
 C588 C 0.32552 0.75145 0.31021
 H589 H 0.39264 0.80751 0.39968
 H590 H 0.35283 0.79990 0.36431
 H591 H 0.39473 0.72930 0.32265
 H592 H 0.43454 0.73691 0.35801
 C593 C 0.27762 0.95248 0.05955
 C594 C 0.27774 0.93366 0.07853
 C595 C 0.27676 0.91068 0.10041
 C596 C 0.25758 0.91085 0.12568
 C597 C 0.25450 0.88740 0.14481
 C598 C 0.27061 0.86368 0.13876
 C599 C 0.29034 0.86378 0.11409
 C600 C 0.29342 0.88723 0.09496
 C601 C 0.26500 0.83849 0.15556
 C602 C 0.25936 0.81697 0.16812
 H603 H 0.24445 0.92879 0.12996
 H604 H 0.23898 0.88746 0.16359
 H605 H 0.30270 0.84546 0.10897
 H606 H 0.30816 0.88679 0.07533
 C607 C 0.80321 0.42377 0.57385
 C608 C 0.79979 0.40465 0.59183
 C609 C 0.79422 0.38153 0.61230
 C610 C 0.78499 0.38580 0.64398
 C611 C 0.77646 0.36354 0.66256
 C612 C 0.77711 0.33694 0.64953
 C613 C 0.78708 0.33257 0.61818
 C614 C 0.79563 0.35483 0.59960
 C615 C 0.76520 0.31469 0.66719
 C616 C 0.75395 0.29662 0.68164
 H617 H 0.78358 0.40638 0.65392
 H618 H 0.76855 0.36718 0.68667
 H619 H 0.78743 0.31214 0.60776
 H620 H 0.80249 0.35134 0.57503
 C621 C 0.72356 0.04264 0.07727
 C622 C 0.72532 0.06081 0.09688
 C623 C 0.72822 0.08299 0.11950
 C624 C 0.71012 0.10583 0.11834
 C625 C 0.71457 0.12859 0.13812
 C626 C 0.73711 0.12860 0.15916
 C627 C 0.75478 0.10546 0.16096
 C628 C 0.75033 0.08270 0.14118
 C629 C 0.74366 0.15327 0.17639
 C630 C 0.74994 0.17446 0.18922
 H631 H 0.69307 0.10636 0.10152
 H632 H 0.70095 0.14648 0.13629
 H633 H 0.77244 0.10536 0.17688
 H634 H 0.76456 0.06523 0.14212
 C635 C 0.19162 0.57558 0.55824
 C636 C 0.19493 0.59538 0.57517
 C637 C 0.20064 0.61932 0.59421
 C638 C 0.19969 0.64543 0.57983
 C639 C 0.20856 0.66836 0.59696
 C640 C 0.21842 0.66526 0.62854
 C641 C 0.21862 0.63929 0.64325
 C642 C 0.20977 0.61636 0.62612
 C643 C 0.23039 0.68816 0.64492
 C644 C 0.24152 0.70676 0.65854
 H645 H 0.19295 0.64792 0.55506
 H646 H 0.20851 0.68830 0.58526
 H647 H 0.22640 0.63662 0.66758
 H648 H 0.21087 0.59624 0.63736
 C649 C 0.95893 0.68586 0.05371
 C650 C 0.94027 0.68565 0.07289
 C651 C 0.91760 0.68714 0.09524
 C652 C 0.92211 0.69470 0.12739
 C653 C 0.89977 0.69992 0.14797
 C654 C 0.87282 0.69760 0.13648
 C655 C 0.86834 0.68909 0.10466
 C656 C 0.89068 0.68386 0.08408
 C657 C 0.85002 0.70714 0.15597
 C658 C 0.83122 0.71691 0.17149
 H659 H 0.94282 0.69758 0.13619
 H660 H 0.90348 0.70682 0.17241
 H661 H 0.84760 0.68756 0.09539
 H662 H 0.88693 0.67830 0.05918
 C663 C 0.43074 0.22989 0.56687
 C664 C 0.41241 0.23239 0.58634
 C665 C 0.39021 0.23647 0.60898
 C666 C 0.39180 0.25699 0.63259
 C667 C 0.36921 0.26287 0.65255
 C668 C 0.34493 0.24822 0.64903
 C669 C 0.34360 0.22719 0.62601
 C670 C 0.36619 0.22132 0.60603
 C671 C 0.32060 0.25652 0.66666
 C672 C 0.29970 0.26428 0.67982
 H673 H 0.41020 0.26896 0.63494
 H674 H 0.37038 0.27937 0.67003
 H675 H 0.32483 0.21593 0.62283
 H676 H 0.36465 0.20554 0.58772
 C677 C 0.04457 0.31644 0.06577
 C678 C 0.06421 0.31558 0.08350
 C679 C 0.08815 0.31258 0.10370
 C680 C 0.08538 0.30430 0.13591
 C681 C 0.10874 0.29744 0.15415
 C682 C 0.13496 0.29881 0.14026
 C683 C 0.13778 0.30803 0.10841
 C684 C 0.11442 0.31490 0.09017
 C685 C 0.15852 0.28798 0.15745
 C686 C 0.17776 0.27741 0.17144
 H687 H 0.06516 0.30212 0.14650
 H688 H 0.10630 0.29007 0.17865
 H689 H 0.15793 0.30889 0.09732
 H690 H 0.11679 0.32098 0.06517
 C691 C 0.57101 0.78173 0.55520
 C692 C 0.58961 0.78113 0.57443
 C693 C 0.61221 0.77904 0.59679
 C694 C 0.63909 0.78346 0.58607
 C695 C 0.66141 0.77823 0.60664
 C696 C 0.65694 0.76858 0.63804
 C697 C 0.63002 0.76501 0.64910
 C698 C 0.60770 0.77024 0.62853
 C699 C 0.67988 0.75935 0.65748
 C700 C 0.69886 0.74987 0.67293
 H701 H 0.64284 0.79004 0.56149
 H702 H 0.68214 0.78075 0.59769
 H703 H 0.62633 0.75724 0.67320
 H704 H 0.58703 0.76652 0.63699
   
