data_POSCAR
  _audit_creation_date              2014-09-24
  _audit_creation_method            'ToBaCCo'
  _symmetry_space_group_name_H-M    'P1'
  _symmetry_Int_Tables_number       1
  _symmetry_cell_setting            triclinic
  loop_
  _symmetry_equiv_pos_as_xyz
 x,y,z
_cell_length_a 50.4707
_cell_length_b 50.5263
_cell_length_c 34.0819
_cell_angle_alpha 90.038300
_cell_angle_beta 89.965900
_cell_angle_gamma 88.504600
loop_
  _atom_site_label
  _atom_site_type_symbol
  _atom_site_fract_x
  _atom_site_fract_y
  _atom_site_fract_z
O1 O -0.02495 0.27746 0.03998
 O2 O 0.02709 0.27889 -0.03670
 O3 O -0.02518 0.27830 -0.03643
 O4 O 0.02699 0.27888 0.03949
 O5 O 0.02903 0.23521 0.03831
 O6 O -0.02319 0.23462 -0.03650
 O7 O 0.02802 0.23527 -0.03789
 O8 O -0.02220 0.23381 0.03958
 Cu9 Cu 0.00076 0.28280 0.00157
 Cu10 Cu 0.00311 0.23041 0.00080
 C11 C -0.03238 0.25523 0.05287
 C12 C 0.03656 0.25716 -0.05030
 C13 C -0.03325 0.25627 -0.04915
 C14 C 0.03705 0.25707 0.05165
 O15 O 0.46990 0.77731 0.52860
 O16 O 0.52193 0.77704 0.45193
 O17 O 0.46995 0.77420 0.45230
 O18 O 0.52173 0.78044 0.52808
 O19 O 0.52436 0.73691 0.53326
 O20 O 0.47455 0.73072 0.45550
 O21 O 0.52624 0.73365 0.45818
 O22 O 0.47346 0.73375 0.53169
 Cu23 Cu 0.49544 0.78165 0.48971
 Cu24 Cu 0.49988 0.72940 0.49483
 C25 C 0.46278 0.75543 0.54310
 C26 C 0.53356 0.75522 0.44312
 C27 C 0.46333 0.75132 0.44110
 C28 C 0.53194 0.75966 0.54352
 O29 O 0.97452 0.72390 -0.04970
 O30 O 1.02731 0.72396 0.02554
 O31 O 0.97545 0.72131 0.02614
 O32 O 1.02667 0.72649 -0.05085
 O33 O 1.02304 0.76998 -0.04744
 O34 O 0.97233 0.76491 0.02898
 O35 O 1.02355 0.76751 0.02873
 O36 O 0.97186 0.76747 -0.04685
 Cu37 Cu 1.00140 0.71952 -0.01262
 Cu38 Cu 0.99743 0.77178 -0.00884
 C39 C 0.96387 0.74575 -0.06077
 C40 C 1.03439 0.74587 0.04001
 C41 C 0.96493 0.74235 0.04035
 C42 C 1.03377 0.74923 -0.06216
 O43 O 0.53050 0.22198 0.54207
 O44 O 0.47890 0.21699 0.46568
 O45 O 0.53096 0.22081 0.46574
 O46 O 0.47882 0.21808 0.54181
 O47 O 0.47470 0.26165 0.54019
 O48 O 0.52628 0.26434 0.46449
 O49 O 0.47498 0.26057 0.46422
 O50 O 0.52571 0.26550 0.54062
 Cu51 Cu 0.50527 0.21506 0.50385
 Cu52 Cu 0.50002 0.26734 0.50214
 C53 C 0.53688 0.24470 0.55436
 C54 C 0.46786 0.23802 0.45235
 C55 C 0.53770 0.24316 0.45246
 C56 C 0.46776 0.23949 0.55380
 O57 O 0.72091 -0.02278 0.03890
 O58 O 0.72186 0.03143 -0.03408
 O59 O 0.72011 -0.02062 -0.03742
 O60 O 0.72263 0.02909 0.04191
 O61 O 0.76630 0.02553 0.04151
 O62 O 0.76384 -0.02203 -0.03980
 O63 O 0.76551 0.02869 -0.03477
 O64 O 0.76456 -0.02611 0.03531
 Cu65 Cu 0.71696 0.00455 0.00249
 Cu66 Cu 0.76942 0.00137 0.00071
 C67 C 0.74270 -0.03418 0.04852
 C68 C 0.74398 0.03947 -0.04670
 C69 C 0.74163 -0.02983 -0.05207
 C70 C 0.74499 0.03591 0.05504
 O71 O 0.22187 0.47299 0.54140
 O72 O 0.21913 0.52343 0.46276
 O73 O 0.22068 0.47138 0.46501
 O74 O 0.22066 0.52505 0.53911
 O75 O 0.26434 0.52514 0.53581
 O76 O 0.26438 0.47191 0.46292
 O77 O 0.26286 0.52258 0.46022
 O78 O 0.26557 0.47285 0.53841
 Cu79 Cu 0.21617 0.49822 0.50242
 Cu80 Cu 0.26866 0.49815 0.49961
 C81 C 0.24432 0.46379 0.55242
 C82 C 0.24062 0.53155 0.44808
 C83 C 0.24266 0.46250 0.45140
 C84 C 0.24264 0.53473 0.54912
 O85 O 0.27698 1.02343 0.04630
 O86 O 0.28037 0.97268 -0.03199
 O87 O 0.28002 1.02493 -0.02956
 O88 O 0.27774 0.97143 0.04420
 O89 O 0.23408 0.97250 0.04048
 O90 O 0.23642 1.02528 -0.03320
 O91 O 0.23672 0.97384 -0.03546
 O92 O 0.23338 1.02358 0.04275
 Cu93 Cu 0.28320 0.99801 0.00749
 Cu94 Cu 0.23083 0.99887 0.00317
 C95 C 0.25446 1.03229 0.05780
 C96 C 0.25899 0.96439 -0.04675
 C97 C 0.25850 1.03458 -0.04358
 C98 C 0.25541 0.96283 0.05486
 O99 O 0.77906 0.52820 0.54395
 O100 O 0.78270 0.47459 0.47009
 O101 O 0.78271 0.52666 0.46798
 O102 O 0.77927 0.47624 0.54620
 O103 O 0.73564 0.47758 0.54170
 O104 O 0.73908 0.52732 0.46371
 O105 O 0.73907 0.47588 0.46579
 O106 O 0.73543 0.52871 0.53950
 Cu107 Cu 0.78536 0.50130 0.50744
 Cu108 Cu 0.73298 0.50245 0.50214
 C109 C 0.75651 0.53766 0.55418
 C110 C 0.76139 0.46592 0.45562
 C111 C 0.76137 0.53583 0.45285
 C112 C 0.75677 0.46828 0.55720
 C113 C 0.23182 0.19403 0.21588
 C114 C 0.20703 0.20425 0.20434
 C115 C 0.19849 0.22996 0.21410
 C116 C 0.21497 0.24593 0.23728
 C117 C 0.24024 0.23589 0.24929
 C118 C 0.24879 0.20991 0.23837
 C119 C 0.27388 0.20045 0.25056
 C120 C 0.29054 0.21633 0.27234
 C121 C 0.28246 0.24203 0.28380
 C122 C 0.25704 0.25191 0.27219
 C123 C 0.20672 0.27148 0.24920
 C124 C 0.22323 0.28722 0.27144
 C125 C 0.24844 0.27785 0.28320
 C126 C 0.26548 0.29386 0.30526
 C127 C 0.29057 0.28401 0.31593
 C128 C 0.29924 0.25835 0.30597
 H129 H 0.28095 0.18065 0.24330
 H130 H 0.30990 0.20823 0.27996
 H131 H 0.18734 0.27955 0.24162
 H132 H 0.21602 0.30689 0.27921
 H133 H 0.19448 0.19221 0.18610
 H134 H 0.30338 0.29639 0.33324
 C135 C 0.76352 0.79553 0.19187
 C136 C 0.78864 0.78596 0.18054
 C137 C 0.79881 0.76150 0.19330
 C138 C 0.78355 0.74588 0.21868
 C139 C 0.75821 0.75543 0.23124
 C140 C 0.74816 0.78040 0.21794
 C141 C 0.72296 0.78927 0.23064
 C142 C 0.70826 0.77443 0.25682
 C143 C 0.71760 0.74953 0.26994
 C144 C 0.74283 0.73990 0.25698
 C145 C 0.79307 0.72114 0.23215
 C146 C 0.77786 0.70577 0.25685
 C147 C 0.75285 0.71487 0.27000
 C148 C 0.73745 0.69950 0.29555
 C149 C 0.71270 0.70926 0.30795
 C150 C 0.70268 0.73409 0.29618
 H151 H 0.71431 0.80786 0.22067
 H152 H 0.68941 0.78274 0.26646
 H153 H 0.81241 0.71336 0.22374
 H154 H 0.78598 0.68664 0.26554
 H155 H 0.80041 0.79766 0.16069
 H156 H 0.70119 0.69748 0.32802
 C157 C 0.80521 0.23212 0.21183
 C158 C 0.79622 0.20720 0.20125
 C159 C 0.77112 0.19869 0.21217
 C160 C 0.75451 0.21545 0.23538
 C161 C 0.76346 0.24077 0.24672
 C162 C 0.78885 0.24920 0.23474
 C163 C 0.79730 0.27429 0.24634
 C164 C 0.78111 0.29093 0.26904
 C165 C 0.75602 0.28296 0.28163
 C166 C 0.74699 0.25771 0.27011
 C167 C 0.72944 0.20747 0.24804
 C168 C 0.71312 0.22425 0.27037
 C169 C 0.72151 0.24940 0.28184
 C170 C 0.70502 0.26664 0.30434
 C171 C 0.71418 0.29145 0.31527
 C172 C 0.73947 0.29971 0.30489
 H173 H 0.81657 0.28131 0.23802
 H174 H 0.78845 0.31024 0.27637
 H175 H 0.72216 0.18810 0.24096
 H176 H 0.69381 0.21726 0.27858
 H177 H 0.80875 0.19447 0.18301
 H178 H 0.70161 0.30430 0.33327
 C179 C 0.29811 0.72532 0.28841
 C180 C 0.28864 0.70049 0.29858
 C181 C 0.26320 0.69270 0.28815
 C182 C 0.24675 0.71001 0.26573
 C183 C 0.25605 0.73530 0.25502
 C184 C 0.28177 0.74306 0.26653
 C185 C 0.29054 0.76814 0.25542
 C186 C 0.27420 0.78558 0.23431
 C187 C 0.24869 0.77835 0.22262
 C188 C 0.23956 0.75290 0.23283
 C189 C 0.22145 0.70258 0.25326
 C190 C 0.20528 0.71985 0.23160
 C191 C 0.21392 0.74508 0.22106
 C192 C 0.19749 0.76291 0.19955
 C193 C 0.20656 0.78809 0.19060
 C194 C 0.23185 0.79600 0.20147
 H195 H 0.31016 0.77459 0.26296
 H196 H 0.28178 0.80484 0.22729
 H197 H 0.21392 0.68325 0.25997
 H198 H 0.18582 0.71326 0.22337
 H199 H 0.30104 0.68729 0.31623
 H200 H 0.19390 0.80161 0.17388
 C201 C 0.79973 0.23758 0.80219
 C202 C 0.79091 0.21258 0.81264
 C203 C 0.76561 0.20416 0.80260
 C204 C 0.74863 0.22112 0.78041
 C205 C 0.75727 0.24665 0.76960
 C206 C 0.78285 0.25500 0.78075
 C207 C 0.79097 0.28032 0.76971
 C208 C 0.77422 0.29731 0.74851
 C209 C 0.74894 0.28941 0.73679
 C210 C 0.74035 0.26383 0.74741
 C211 C 0.72349 0.21310 0.76815
 C212 C 0.70685 0.23000 0.74667
 C213 C 0.71490 0.25538 0.73583
 C214 C 0.69810 0.27271 0.71406
 C215 C 0.70665 0.29800 0.70459
 C216 C 0.73179 0.30649 0.71515
 H217 H 0.81039 0.28727 0.77737
 H218 H 0.78132 0.31676 0.74146
 H219 H 0.71645 0.19358 0.77480
 H220 H 0.68751 0.22295 0.73874
 H221 H 0.80383 0.19964 0.82991
 H222 H 0.69379 0.31104 0.68738
 C223 C 0.29790 0.73669 0.69619
 C224 C 0.28792 0.71293 0.68245
 C225 C 0.26191 0.70554 0.69030
 C226 C 0.24541 0.72228 0.71375
 C227 C 0.25560 0.74619 0.72894
 C228 C 0.28185 0.75353 0.71980
 C229 C 0.29139 0.77743 0.73453
 C230 C 0.27547 0.79397 0.75773
 C231 C 0.24953 0.78704 0.76767
 C232 C 0.23937 0.76305 0.75280
 C233 C 0.21887 0.71628 0.72149
 C234 C 0.20300 0.73274 0.74502
 C235 C 0.21296 0.75599 0.76143
 C236 C 0.19700 0.77282 0.78539
 C237 C 0.20729 0.79639 0.79962
 C238 C 0.23322 0.80371 0.79139
 H239 H 0.31133 0.78359 0.72825
 H240 H 0.28371 0.81237 0.76755
 H241 H 0.20996 0.69893 0.70914
 H242 H 0.18269 0.72722 0.74978
 H243 H 0.30056 0.70015 0.66445
 H244 H 0.19506 0.80898 0.81849
 C245 C 0.23700 0.20039 0.80504
 C246 C 0.21131 0.20968 0.81357
 C247 C 0.20131 0.23380 0.79900
 C248 C 0.21747 0.24930 0.77462
 C249 C 0.24377 0.24040 0.76601
 C250 C 0.25358 0.21584 0.78119
 C251 C 0.27941 0.20713 0.77137
 C252 C 0.29555 0.22240 0.74786
 C253 C 0.28626 0.24664 0.73227
 C254 C 0.26016 0.25586 0.74155
 C255 C 0.20778 0.27294 0.75757
 C256 C 0.22379 0.28802 0.73349
 C257 C 0.25021 0.28020 0.72576
 C258 C 0.26679 0.29551 0.70161
 C259 C 0.29259 0.28624 0.69350
 C260 C 0.30239 0.26199 0.70770
 H261 H 0.28744 0.18833 0.78155
 H262 H 0.31544 0.21494 0.74201
 H263 H 0.18754 0.27983 0.76219
 H264 H 0.21503 0.30573 0.72064
 H265 H 0.19891 0.19800 0.83255
 H266 H 0.30514 0.29788 0.67470
 C267 C 0.73078 0.70624 0.70012
 C268 C 0.70572 0.71601 0.68916
 C269 C 0.69688 0.74161 0.69905
 C270 C 0.71337 0.75790 0.72174
 C271 C 0.73883 0.74820 0.73346
 C272 C 0.74771 0.72240 0.72219
 C273 C 0.77309 0.71335 0.73367
 C274 C 0.78954 0.72931 0.75565
 C275 C 0.78095 0.75463 0.76814
 C276 C 0.75540 0.76428 0.75667
 C277 C 0.70495 0.78342 0.73351
 C278 C 0.72125 0.79925 0.75596
 C279 C 0.74639 0.78998 0.76829
 C280 C 0.76297 0.80584 0.79147
 C281 C 0.78810 0.79608 0.80226
 C282 C 0.79732 0.77079 0.79128
 H283 H 0.78054 0.69380 0.72573
 H284 H 0.80912 0.72152 0.76266
 H285 H 0.68556 0.79138 0.72570
 H286 H 0.71389 0.81890 0.76345
 H287 H 0.69309 0.70363 0.67157
 H288 H 0.80047 0.80817 0.82068
 C289 C 0.24855 0.09429 0.13989
 C290 C 0.22566 0.08141 0.12790
 C291 C 0.22771 0.06059 0.10123
 C292 C 0.25259 0.05218 0.08658
 C293 C 0.27516 0.06512 0.10035
 N294 N 0.27255 0.08586 0.12571
 C295 C 0.24659 0.11833 0.16450
 N296 N 0.26276 0.13887 0.15680
 C297 C 0.25967 0.16276 0.17493
 C298 C 0.23914 0.16698 0.20217
 C299 C 0.22305 0.14577 0.21179
 C300 C 0.22678 0.12139 0.19322
 H301 H 0.20966 0.05138 0.09171
 H302 H 0.29477 0.05945 0.08996
 H303 H 0.27230 0.17881 0.16662
 H304 H 0.20696 0.14844 0.23260
 H305 H 0.20618 0.08804 0.13765
 H306 H 0.21384 0.10536 0.20046
 C307 C 0.74937 0.60413 0.63125
 C308 C 0.72758 0.58788 0.62532
 C309 C 0.73019 0.56582 0.60098
 C310 C 0.75446 0.55969 0.58264
 C311 C 0.77600 0.57598 0.59013
 N312 N 0.77285 0.59772 0.61344
 C313 C 0.74657 0.62928 0.65330
 N314 N 0.76133 0.65023 0.64231
 C315 C 0.75778 0.67469 0.65851
 C316 C 0.73824 0.67908 0.68720
 C317 C 0.72352 0.65764 0.70001
 C318 C 0.72775 0.63267 0.68341
 H319 H 0.71303 0.55383 0.59591
 H320 H 0.79502 0.57202 0.57634
 H321 H 0.76937 0.69092 0.64785
 H322 H 0.70826 0.66044 0.72210
 H323 H 0.70835 0.59270 0.63783
 H324 H 0.71606 0.61639 0.69359
 C325 C 0.74373 0.89520 0.11685
 C326 C 0.72439 0.91491 0.12503
 C327 C 0.72378 0.93824 0.10278
 C328 C 0.74290 0.94204 0.07353
 C329 C 0.76213 0.92201 0.06699
 N330 N 0.76183 0.89930 0.08810
 C331 C 0.74479 0.86963 0.13744
 N332 N 0.75017 0.84741 0.11606
 C333 C 0.75430 0.82339 0.13300
 C334 C 0.75417 0.82087 0.17396
 C335 C 0.74842 0.84348 0.19672
 C336 C 0.74327 0.86790 0.17847
 H337 H 0.70857 0.95327 0.10846
 H338 H 0.77698 0.92407 0.04433
 H339 H 0.75885 0.80643 0.11454
 H340 H 0.74886 0.84240 0.22845
 H341 H 0.70959 0.91199 0.14752
 H342 H 0.73964 0.88542 0.19618
 C343 C 0.24824 0.39513 0.62498
 C344 C 0.22683 0.41313 0.62971
 C345 C 0.22554 0.43602 0.60656
 C346 C 0.24595 0.44121 0.57982
 C347 C 0.26740 0.42310 0.57718
 N348 N 0.26776 0.40064 0.59897
 C349 C 0.24963 0.36952 0.64549
 N350 N 0.25777 0.34775 0.62486
 C351 C 0.26160 0.32375 0.64198
 C352 C 0.25815 0.32076 0.68256
 C353 C 0.24959 0.34293 0.70452
 C354 C 0.24486 0.36731 0.68592
 H355 H 0.20859 0.44949 0.60921
 H356 H 0.28337 0.42619 0.55660
 H357 H 0.26832 0.30716 0.62411
 H358 H 0.24739 0.34154 0.73605
 H359 H 0.21086 0.40901 0.64986
 H360 H 0.23887 0.38447 0.70312
 C361 C 0.90415 0.24972 0.13529
 C362 C 0.92155 0.22795 0.12926
 C363 C 0.94261 0.23008 0.10315
 C364 C 0.94660 0.25384 0.08300
 C365 C 0.92921 0.27540 0.09053
 N366 N 0.90848 0.27271 0.11570
 C367 C 0.87991 0.24730 0.15941
 N368 N 0.85787 0.26206 0.14983
 C369 C 0.83414 0.25878 0.16793
 C370 C 0.83163 0.23946 0.19711
 C371 C 0.85422 0.22479 0.20855
 C372 C 0.87844 0.22881 0.19010
 H373 H 0.95548 0.21292 0.09816
 H374 H 0.93152 0.29403 0.07542
 H375 H 0.81699 0.27035 0.15833
 H376 H 0.85289 0.20971 0.23100
 H377 H 0.91838 0.20904 0.14311
 H378 H 0.89562 0.21717 0.19931
 C379 C 0.39878 0.75187 0.62484
 C380 C 0.41589 0.72978 0.61961
 C381 C 0.43714 0.73130 0.59375
 C382 C 0.44157 0.75472 0.57298
 C383 C 0.42451 0.77663 0.57978
 N384 N 0.40361 0.77456 0.60477
 C385 C 0.37416 0.75009 0.64822
 N386 N 0.35285 0.76579 0.63830
 C387 C 0.32868 0.76312 0.65528
 C388 C 0.32491 0.74339 0.68345
 C389 C 0.34672 0.72777 0.69540
 C390 C 0.37146 0.73125 0.67823
 H391 H 0.44977 0.71388 0.58937
 H392 H 0.42720 0.79505 0.56427
 H393 H 0.31213 0.77544 0.64540
 H394 H 0.34437 0.71237 0.71714
 H395 H 0.41236 0.71106 0.63379
 H396 H 0.38802 0.71887 0.68781
 C397 C 0.09833 0.74889 0.12203
 C398 C 0.08131 0.77107 0.11702
 C399 C 0.06016 0.76981 0.09090
 C400 C 0.05574 0.74653 0.06972
 C401 C 0.07283 0.72458 0.07613
 N402 N 0.09362 0.72640 0.10136
 C403 C 0.12256 0.75029 0.14638
 N404 N 0.14430 0.73524 0.13627
 C405 C 0.16805 0.73759 0.15467
 C406 C 0.17090 0.75624 0.18474
 C407 C 0.14857 0.77114 0.19676
 C408 C 0.12432 0.76807 0.17796
 H409 H 0.04754 0.78725 0.08679
 H410 H 0.07020 0.70629 0.06024
 H411 H 0.18498 0.72588 0.14457
 H412 H 0.15016 0.78573 0.21989
 H413 H 0.08480 0.78961 0.13176
 H414 H 0.10737 0.77991 0.18761
 C415 C 0.59994 0.25320 0.63659
 C416 C 0.58221 0.27455 0.62957
 C417 C 0.56130 0.27152 0.60343
 C418 C 0.55783 0.24727 0.58431
 C419 C 0.57557 0.22619 0.59281
 N420 N 0.59611 0.22974 0.61796
 C421 C 0.62399 0.25641 0.66074
 N422 N 0.64624 0.24177 0.65182
 C423 C 0.66978 0.24551 0.67012
 C424 C 0.67186 0.26514 0.69894
 C425 C 0.64906 0.27979 0.70965
 C426 C 0.62504 0.27535 0.69090
 H427 H 0.54814 0.28833 0.59765
 H428 H 0.57366 0.20719 0.57854
 H429 H 0.68710 0.23400 0.66100
 H430 H 0.65006 0.29512 0.73179
 H431 H 0.58499 0.29378 0.64268
 H432 H 0.60768 0.28694 0.69953
 C433 C 0.74762 0.10486 0.87753
 C434 C 0.77056 0.08953 0.88512
 C435 C 0.76925 0.06773 0.90990
 C436 C 0.74497 0.06062 0.92664
 C437 C 0.72218 0.07591 0.91690
 N438 N 0.72414 0.09760 0.89348
 C439 C 0.74935 0.12953 0.85447
 N440 N 0.76985 0.13238 0.82895
 C441 C 0.77421 0.15550 0.81006
 C442 C 0.75784 0.17781 0.81728
 C443 C 0.73623 0.17524 0.84279
 C444 C 0.73169 0.15100 0.86101
 H445 H 0.78740 0.05659 0.91609
 H446 H 0.70301 0.07125 0.92894
 H447 H 0.79114 0.15680 0.79068
 H448 H 0.72355 0.19222 0.84974
 H449 H 0.78957 0.09486 0.87316
 H450 H 0.71543 0.14948 0.88158
 C451 C 0.24224 0.59483 0.36544
 C452 C 0.26316 0.57599 0.36647
 C453 C 0.26219 0.55489 0.39264
 C454 C 0.24021 0.55213 0.41734
 C455 C 0.21903 0.57054 0.41402
 N456 N 0.22073 0.59140 0.38896
 C457 C 0.24456 0.61923 0.34168
 N458 N 0.26461 0.62099 0.31510
 C459 C 0.26969 0.64377 0.29569
 C460 C 0.25450 0.66680 0.30328
 C461 C 0.23327 0.66538 0.32969
 C462 C 0.22805 0.64156 0.34865
 H463 H 0.27888 0.54101 0.39411
 H464 H 0.20174 0.56908 0.43261
 H465 H 0.28630 0.64420 0.27561
 H466 H 0.22146 0.68295 0.33681
 H467 H 0.28065 0.57808 0.34842
 H468 H 0.21213 0.64101 0.36992
 C469 C 0.25773 0.89892 0.87402
 C470 C 0.28146 0.90464 0.89347
 C471 C 0.28233 0.92668 0.91826
 C472 C 0.25963 0.94292 0.92373
 C473 C 0.23672 0.93712 0.90242
 N474 N 0.23634 0.91559 0.87862
 C475 C 0.25453 0.87479 0.85001
 N476 N 0.23465 0.87459 0.82303
 C477 C 0.22853 0.85250 0.80255
 C478 C 0.24244 0.82859 0.80936
 C479 C 0.26313 0.82825 0.83679
 C480 C 0.26939 0.85133 0.85699
 H481 H 0.30045 0.93053 0.93402
 H482 H 0.21886 0.94931 0.90535
 H483 H 0.21226 0.85339 0.78187
 H484 H 0.27380 0.80993 0.84347
 H485 H 0.29909 0.89223 0.88993
 H486 H 0.28472 0.85035 0.87914
 C487 C 0.76127 0.39816 0.38055
 C488 C 0.78507 0.40537 0.39857
 C489 C 0.78546 0.42804 0.42210
 C490 C 0.76224 0.44349 0.42769
 C491 C 0.73921 0.43618 0.40781
 N492 N 0.73930 0.41403 0.38525
 C493 C 0.75869 0.37332 0.35798
 N494 N 0.73813 0.37146 0.33233
 C495 C 0.73263 0.34858 0.31341
 C496 C 0.74794 0.32555 0.32054
 C497 C 0.76937 0.32695 0.34652
 C498 C 0.77494 0.35081 0.36512
 H499 H 0.80370 0.43307 0.43670
 H500 H 0.72093 0.44769 0.41086
 H501 H 0.71577 0.34813 0.29383
 H502 H 0.78115 0.30934 0.35346
 H503 H 0.80315 0.39367 0.39485
 H504 H 0.79089 0.35111 0.38628
 C505 C 0.10036 0.25441 0.87022
 C506 C 0.09208 0.27890 0.88607
 C507 C 0.07018 0.28018 0.91132
 C508 C 0.05697 0.25697 0.92160
 C509 C 0.06565 0.23302 0.90416
 N510 N 0.08672 0.23240 0.87945
 C511 C 0.12474 0.25146 0.84632
 N512 N 0.14493 0.26858 0.85111
 C513 C 0.16905 0.26445 0.83393
 C514 C 0.17396 0.24179 0.81093
 C515 C 0.15312 0.22454 0.80436
 C516 C 0.12854 0.22930 0.82194
 H517 H 0.06427 0.29914 0.92383
 H518 H 0.05601 0.21461 0.91051
 H519 H 0.18479 0.27802 0.83993
 H520 H 0.15628 0.20679 0.78695
 H521 H 0.10259 0.29675 0.87938
 H522 H 0.11295 0.21526 0.81763
 C523 C 0.60315 0.75355 0.37224
 C524 C 0.58319 0.77262 0.36411
 C525 C 0.56014 0.77339 0.38708
 C526 C 0.55686 0.75468 0.41701
 C527 C 0.57709 0.73564 0.42338
 N528 N 0.59953 0.73581 0.40156
 C529 C 0.62859 0.75252 0.35120
 N530 N 0.65102 0.74771 0.37236
 C531 C 0.67500 0.74364 0.35516
 C532 C 0.67726 0.74323 0.31417
 C533 C 0.65443 0.74837 0.29161
 C534 C 0.63004 0.75347 0.31011
 H535 H 0.54495 0.78845 0.38151
 H536 H 0.57546 0.72110 0.44651
 H537 H 0.69215 0.73958 0.37347
 H538 H 0.65535 0.74752 0.25989
 H539 H 0.58575 0.78715 0.34116
 H540 H 0.61235 0.75664 0.29260
 C541 C 0.89743 0.74833 0.86487
 C542 C 0.90789 0.72367 0.87702
 C543 C 0.93061 0.72260 0.90052
 C544 C 0.94266 0.74609 0.91250
 C545 C 0.93194 0.77027 0.89842
 N546 N 0.91001 0.77071 0.87538
 C547 C 0.87252 0.75109 0.84233
 N548 N 0.86916 0.77232 0.81811
 C549 C 0.84584 0.77790 0.79965
 C550 C 0.82383 0.76209 0.80607
 C551 C 0.82682 0.73999 0.83073
 C552 C 0.85123 0.73423 0.84856
 H553 H 0.93817 0.70345 0.91027
 H554 H 0.94063 0.78892 0.90616
 H555 H 0.84418 0.79526 0.78114
 H556 H 0.81004 0.72782 0.83728
 H557 H 0.89862 0.70544 0.86861
 H558 H 0.85291 0.71769 0.86864
 C559 C 0.40013 0.23664 0.37752
 C560 C 0.40892 0.21309 0.39583
 C561 C 0.43178 0.21313 0.41900
 C562 C 0.44578 0.23654 0.42401
 C563 C 0.43699 0.25926 0.40373
 N564 N 0.41471 0.25876 0.38149
 C565 C 0.37482 0.23887 0.35574
 N566 N 0.37163 0.25880 0.32915
 C567 C 0.34812 0.26421 0.31115
 C568 C 0.32576 0.24955 0.32036
 C569 C 0.32853 0.22870 0.34728
 C570 C 0.35307 0.22314 0.36483
 H571 H 0.43797 0.19512 0.43401
 H572 H 0.44738 0.27765 0.40635
 H573 H 0.34660 0.28061 0.29078
 H574 H 0.31149 0.21745 0.35582
 H575 H 0.39821 0.19494 0.39271
 H576 H 0.35447 0.20773 0.38679
 C577 C 0.74325 0.90591 0.86674
 C578 C 0.76439 0.92341 0.86771
 C579 C 0.76341 0.94495 0.89326
 C580 C 0.74122 0.94946 0.91736
 C581 C 0.71985 0.93238 0.91402
 N582 N 0.72155 0.91107 0.88960
 C583 C 0.74548 0.88102 0.84377
 N584 N 0.76568 0.87759 0.81757
 C585 C 0.77050 0.85426 0.79875
 C586 C 0.75484 0.83238 0.80651
 C587 C 0.73353 0.83552 0.83267
 C588 C 0.72860 0.85989 0.85104
 H589 H 0.78027 0.95774 0.89482
 H590 H 0.70240 0.93519 0.93217
 H591 H 0.78720 0.85248 0.77888
 H592 H 0.72137 0.81886 0.83991
 H593 H 0.78203 0.91993 0.85016
 H594 H 0.71255 0.86177 0.87203
 C595 C 0.24728 0.39619 0.37369
 C596 C 0.26869 0.41326 0.37664
 C597 C 0.26673 0.43531 0.40107
 C598 C 0.24351 0.44060 0.42259
 C599 C 0.22220 0.42356 0.41800
 N600 N 0.22473 0.40184 0.39445
 C601 C 0.24976 0.37093 0.35174
 N602 N 0.23583 0.34976 0.36417
 C603 C 0.23934 0.32524 0.34817
 C604 C 0.25807 0.32099 0.31830
 C605 C 0.27188 0.34260 0.30398
 C606 C 0.26760 0.36765 0.32028
 H607 H 0.28369 0.44789 0.40379
 H608 H 0.20399 0.42688 0.43426
 H609 H 0.22840 0.30887 0.35987
 H610 H 0.28644 0.33989 0.28086
 H611 H 0.28729 0.40912 0.36181
 H612 H 0.27854 0.38406 0.30880
 C613 C 0.25774 0.10158 0.88326
 C614 C 0.28196 0.09199 0.89852
 C615 C 0.28249 0.06917 0.92176
 C616 C 0.25888 0.05608 0.93029
 C617 C 0.23524 0.06599 0.91325
 N618 N 0.23532 0.08806 0.89059
 C619 C 0.25541 0.12636 0.86036
 N620 N 0.23525 0.12907 0.83405
 C621 C 0.23010 0.15206 0.81456
 C622 C 0.24528 0.17437 0.82187
 C623 C 0.26625 0.17210 0.84874
 C624 C 0.27157 0.14804 0.86777
 H625 H 0.30127 0.06227 0.93387
 H626 H 0.21656 0.05651 0.91833
 H627 H 0.21359 0.15319 0.79432
 H628 H 0.27789 0.18916 0.85588
 H629 H 0.30027 0.10195 0.89265
 H630 H 0.28723 0.14689 0.88943
 C631 C 0.76091 0.60143 0.37387
 C632 C 0.78478 0.59356 0.39223
 C633 C 0.78529 0.57149 0.41697
 C634 C 0.76215 0.55729 0.42340
 C635 C 0.73909 0.56511 0.40307
 N636 N 0.73904 0.58668 0.37937
 C637 C 0.75809 0.62593 0.35028
 N638 N 0.73731 0.62826 0.32494
 C639 C 0.73143 0.65106 0.30538
 C640 C 0.74655 0.67355 0.31151
 C641 C 0.76827 0.67165 0.33704
 C642 C 0.77423 0.64784 0.35632
 H643 H 0.80356 0.56602 0.43188
 H644 H 0.72087 0.55454 0.40675
 H645 H 0.71435 0.65196 0.28617
 H646 H 0.77992 0.68887 0.34317
 H647 H 0.80278 0.60434 0.38792
 H648 H 0.79036 0.64720 0.37719
 C649 C 0.09649 0.75690 0.85771
 C650 C 0.08203 0.77947 0.87012
 C651 C 0.06094 0.77683 0.89602
 C652 C 0.05391 0.75170 0.90969
 C653 C 0.06844 0.72950 0.89559
 N654 N 0.08932 0.73267 0.87086
 C655 C 0.12083 0.75927 0.83392
 N656 N 0.14141 0.74175 0.83988
 C657 C 0.16544 0.74461 0.82251
 C658 C 0.16983 0.76635 0.79800
 C659 C 0.14863 0.78396 0.79008
 C660 C 0.12406 0.78039 0.80770
 H661 H 0.05049 0.79462 0.90586
 H662 H 0.06386 0.70971 0.90517
 H663 H 0.18147 0.73074 0.82939
 H664 H 0.15140 0.80095 0.77129
 H665 H 0.08759 0.79915 0.86139
 H666 H 0.10801 0.79439 0.80154
 C667 C 0.60377 0.24961 0.37477
 C668 C 0.58591 0.27117 0.37953
 C669 C 0.56397 0.26875 0.40396
 C670 C 0.55956 0.24490 0.42367
 C671 C 0.57744 0.22356 0.41737
 N672 N 0.59898 0.22652 0.39386
 C673 C 0.62880 0.25221 0.35252
 N674 N 0.65045 0.23726 0.36333
 C675 C 0.67471 0.24041 0.34677
 C676 C 0.67818 0.25973 0.31786
 C677 C 0.65606 0.27469 0.30527
 C678 C 0.63130 0.27084 0.32222
 H679 H 0.55076 0.28577 0.40809
 H680 H 0.57486 0.20486 0.43218
 H681 H 0.69147 0.22864 0.35727
 H682 H 0.65813 0.28979 0.28301
 H683 H 0.58935 0.29015 0.36604
 H684 H 0.61450 0.28265 0.31203
 C685 C 0.90115 0.25275 0.87209
 C686 C 0.91822 0.23057 0.87665
 C687 C 0.94001 0.23202 0.90154
 C688 C 0.94504 0.25551 0.92182
 C689 C 0.92797 0.27750 0.91566
 N690 N 0.90652 0.27548 0.89175
 C691 C 0.87618 0.25107 0.84960
 N692 N 0.85468 0.26597 0.86120
 C693 C 0.83035 0.26330 0.84471
 C694 C 0.82667 0.24447 0.81513
 C695 C 0.84867 0.22969 0.80161
 C696 C 0.87350 0.23308 0.81847
 H697 H 0.95262 0.21455 0.90553
 H698 H 0.93107 0.29595 0.93093
 H699 H 0.81369 0.27492 0.85591
 H700 H 0.84641 0.21497 0.77881
 H701 H 0.91424 0.21186 0.86267
 H702 H 0.89021 0.22133 0.80775
 C703 C 0.39830 0.74237 0.36227
 C704 C 0.41558 0.72071 0.36977
 C705 C 0.43720 0.72382 0.39467
 C706 C 0.44182 0.74846 0.41203
 C707 C 0.42449 0.76979 0.40302
 N708 N 0.40328 0.76617 0.37916
 C709 C 0.37364 0.73936 0.33936
 N710 N 0.35210 0.75510 0.34817
 C711 C 0.32814 0.75197 0.33075
 C712 C 0.32485 0.73193 0.30284
 C713 C 0.34690 0.71605 0.29238
 C714 C 0.37136 0.71981 0.31031
 H715 H 0.44998 0.70680 0.40095
 H716 H 0.42723 0.78909 0.41596
 H717 H 0.31144 0.76440 0.33978
 H718 H 0.34498 0.70035 0.27099
 H719 H 0.41193 0.70126 0.35799
 H720 H 0.38811 0.70729 0.30180
 C721 C 0.24994 0.89712 0.13294
 C722 C 0.22789 0.91424 0.12735
 C723 C 0.22995 0.93602 0.10262
 C724 C 0.25393 0.94101 0.08357
 C725 C 0.27575 0.92389 0.09072
 N726 N 0.27313 0.90242 0.11441
 C727 C 0.24763 0.87220 0.15529
 N728 N 0.26228 0.85048 0.14394
 C729 C 0.25892 0.82621 0.16019
 C730 C 0.23962 0.82280 0.18921
 C731 C 0.22511 0.84504 0.20253
 C732 C 0.22920 0.86980 0.18593
 H733 H 0.21261 0.94868 0.09785
 H734 H 0.29456 0.92697 0.07638
 H735 H 0.27034 0.80937 0.14913
 H736 H 0.21003 0.84301 0.22487
 H737 H 0.20886 0.91030 0.14043
 H738 H 0.21761 0.88668 0.19639
 C739 C 0.75014 0.40552 0.64019
 C740 C 0.72818 0.42237 0.63262
 C741 C 0.73060 0.44325 0.60631
 C742 C 0.75486 0.44759 0.58762
 C743 C 0.77658 0.43080 0.59679
 N744 N 0.77361 0.41021 0.62202
 C745 C 0.74754 0.38133 0.66418
 N746 N 0.76264 0.35945 0.65503
 C747 C 0.75921 0.33569 0.67283
 C748 C 0.73938 0.33300 0.70126
 C749 C 0.72434 0.35547 0.71232
 C750 C 0.72850 0.37971 0.69413
 H751 H 0.71332 0.45568 0.60001
 H752 H 0.79560 0.43340 0.58283
 H753 H 0.77103 0.31865 0.66345
 H754 H 0.70884 0.35400 0.73415
 H755 H 0.70896 0.41886 0.64538
 H756 H 0.71652 0.39678 0.70287
 C757 C 0.75052 0.10022 0.13567
 C758 C 0.77191 0.08207 0.13178
 C759 C 0.76986 0.06061 0.10629
 C760 C 0.74641 0.05687 0.08520
 C761 C 0.72502 0.07473 0.09131
 N762 N 0.72770 0.09586 0.11559
 C763 C 0.75330 0.12481 0.15886
 N764 N 0.77408 0.12707 0.18401
 C765 C 0.77906 0.14998 0.20321
 C766 C 0.76296 0.17261 0.19691
 C767 C 0.74114 0.17067 0.17172
 C768 C 0.73605 0.14673 0.15303
 H769 H 0.78680 0.04724 0.10253
 H770 H 0.70659 0.07257 0.07557
 H771 H 0.79618 0.15082 0.22225
 H772 H 0.72867 0.18792 0.16545
 H773 H 0.79041 0.08496 0.14706
 H774 H 0.71953 0.14576 0.13286
 C775 C 0.24393 0.60567 0.61691
 C776 C 0.22326 0.58808 0.62301
 C777 C 0.22275 0.56455 0.60126
 C778 C 0.24320 0.55836 0.57457
 C779 C 0.26382 0.57621 0.57035
 N780 N 0.26345 0.59923 0.59084
 C781 C 0.24479 0.63163 0.63645
 N782 N 0.25298 0.65265 0.61518
 C783 C 0.25669 0.67675 0.63152
 C784 C 0.25308 0.68056 0.67196
 C785 C 0.24437 0.65922 0.69454
 C786 C 0.23979 0.63477 0.67673
 H787 H 0.20642 0.55131 0.60512
 H788 H 0.27978 0.57235 0.54972
 H789 H 0.26353 0.69268 0.61320
 H790 H 0.24204 0.66124 0.72600
 H791 H 0.20731 0.59290 0.64326
 H792 H 0.23380 0.61820 0.69449
 C793 C 0.89853 0.74069 0.11788
 C794 C 0.90739 0.71707 0.09975
 C795 C 0.92975 0.71726 0.07551
 C796 C 0.94321 0.74086 0.06933
 C797 C 0.93440 0.76368 0.08943
 N798 N 0.91259 0.76303 0.11266
 C799 C 0.87369 0.74275 0.14086
 N800 N 0.87045 0.76342 0.16622
 C801 C 0.84722 0.76869 0.18511
 C802 C 0.82522 0.75302 0.17818
 C803 C 0.82805 0.73137 0.15267
 C804 C 0.85230 0.72604 0.13411
 H805 H 0.93600 0.69917 0.06074
 H806 H 0.94439 0.78223 0.08594
 H807 H 0.84560 0.78571 0.20435
 H808 H 0.81121 0.71930 0.14596
 H809 H 0.89716 0.69874 0.10385
 H810 H 0.85368 0.70996 0.11319
 C811 C 0.40197 0.23976 0.63279
 C812 C 0.41118 0.21561 0.61665
 C813 C 0.43326 0.21526 0.59181
 C814 C 0.44608 0.23885 0.58300
 C815 C 0.43688 0.26231 0.60104
 N816 N 0.41537 0.26217 0.62496
 C817 C 0.37738 0.24219 0.65636
 N818 N 0.37404 0.26365 0.68022
 C819 C 0.35088 0.26920 0.69919
 C820 C 0.32902 0.25306 0.69379
 C821 C 0.33205 0.23055 0.66997
 C822 C 0.35624 0.22491 0.65142
 H823 H 0.43983 0.19669 0.57870
 H824 H 0.44638 0.28090 0.59552
 H825 H 0.34914 0.28689 0.71706
 H826 H 0.31534 0.21808 0.66431
 H827 H 0.40145 0.19725 0.62281
 H828 H 0.35770 0.20817 0.63169
 C829 C 0.10216 0.25459 0.13170
 C830 C 0.09445 0.27884 0.11447
 C831 C 0.07267 0.27993 0.08914
 C832 C 0.05869 0.25692 0.08087
 C833 C 0.06651 0.23333 0.09977
 N834 N 0.08772 0.23278 0.12425
 C835 C 0.12612 0.25147 0.15637
 N836 N 0.12756 0.23096 0.18225
 C837 C 0.14990 0.22492 0.20291
 C838 C 0.17285 0.23949 0.19731
 C839 C 0.17181 0.26092 0.17120
 C840 C 0.14844 0.26713 0.15090
 H841 H 0.06718 0.29857 0.07535
 H842 H 0.05608 0.21521 0.09464
 H843 H 0.15009 0.20807 0.22253
 H844 H 0.18940 0.27211 0.16533
 H845 H 0.10508 0.29674 0.12030
 H846 H 0.14843 0.28302 0.12964
 C847 C 0.59787 0.76248 0.62182
 C848 C 0.58962 0.78564 0.60197
 C849 C 0.56742 0.78512 0.57745
 C850 C 0.55352 0.76164 0.57265
 C851 C 0.56174 0.73932 0.59437
 N852 N 0.58339 0.74028 0.61788
 C853 C 0.62252 0.76067 0.64528
 N854 N 0.62511 0.74089 0.67225
 C855 C 0.64813 0.73572 0.69170
 C856 C 0.67063 0.75047 0.68367
 C857 C 0.66844 0.77126 0.65656
 C858 C 0.64438 0.77656 0.63748
 H859 H 0.56164 0.80283 0.56138
 H860 H 0.55140 0.72089 0.59199
 H861 H 0.64922 0.71937 0.71220
 H862 H 0.68563 0.78258 0.64893
 H863 H 0.60021 0.80386 0.60496
 H864 H 0.64351 0.79188 0.61533
   
