data_POSCAR
  _audit_creation_date              2014-09-24
  _audit_creation_method            'ToBaCCo'
  _symmetry_space_group_name_H-M    'P1'
  _symmetry_Int_Tables_number       1
  _symmetry_cell_setting            triclinic
  loop_
  _symmetry_equiv_pos_as_xyz
 x,y,z
_cell_length_a 27.9390
_cell_length_b 27.9918
_cell_length_c 27.8901
_cell_angle_alpha 89.937400
_cell_angle_beta 89.982600
_cell_angle_gamma 90.027900
loop_
  _atom_site_label
  _atom_site_type_symbol
  _atom_site_fract_x
  _atom_site_fract_y
  _atom_site_fract_z
N1 N 0.55123 0.09671 0.02262
 N2 N 0.58609 0.12400 0.03901
 N3 N 0.45063 0.09642 -0.02424
 N4 N 0.41569 0.12339 -0.04104
 N5 N 0.45056 0.09662 0.02283
 N6 N 0.41564 0.12373 0.03932
 N7 N 0.55132 0.09625 -0.02444
 N8 N 0.58619 0.12327 -0.04135
 C9 C 0.60777 0.14020 -0.00131
 C10 C 0.39401 0.14006 -0.00094
 N11 N 0.45017 -0.02385 -0.09584
 N12 N 0.41506 -0.04058 -0.12268
 N13 N 0.55110 0.02271 -0.09683
 N14 N 0.58566 0.03873 -0.12495
 N15 N 0.55082 -0.02412 -0.09591
 N16 N 0.58729 -0.04168 -0.12494
 N17 N 0.45041 0.02303 -0.09643
 N18 N 0.41546 0.03949 -0.12362
 Mn19 Mn 0.50090 0.06001 -0.06089
 C20 C 0.39354 -0.00060 -0.13964
 C21 C 0.60775 -0.00109 -0.14194
 N22 N 0.45066 0.02448 0.09665
 N23 N 0.41561 0.04116 0.12361
 N24 N 0.55152 -0.02212 0.09707
 N25 N 0.58595 -0.03822 0.12524
 N26 N 0.55136 0.02472 0.09618
 N27 N 0.58781 0.04218 0.12532
 N28 N 0.45086 -0.02241 0.09719
 N29 N 0.41596 -0.03891 0.12445
 Mn30 Mn 0.50092 0.06102 0.05997
 C31 C 0.39411 0.00115 0.14058
 C32 C 0.60812 0.00153 0.14232
 N33 N 0.55098 -0.09605 -0.02242
 N34 N 0.58589 -0.12308 -0.03907
 N35 N 0.45061 -0.09579 0.02499
 N36 N 0.41579 -0.12289 0.04193
 N37 N 0.45035 -0.09594 -0.02207
 N38 N 0.41540 -0.12310 -0.03843
 N39 N 0.55133 -0.09562 0.02464
 N40 N 0.58646 -0.12242 0.04130
 Mn41 Mn 0.50054 -0.06037 -0.05945
 Mn42 Mn 0.50112 -0.05939 0.06138
 Cl43 Cl 0.50085 0.00032 0.00026
 C44 C 0.60788 -0.13918 0.00110
 C45 C 0.39396 -0.13953 0.00190
 N46 N 0.09677 0.44939 0.02316
 N47 N 0.12374 0.41436 0.03971
 N48 N 0.09765 0.55015 -0.02326
 N49 N 0.12482 0.58514 -0.03960
 N50 N 0.09741 0.54987 0.02380
 N51 N 0.12446 0.58463 0.04077
 N52 N 0.09692 0.44967 -0.02390
 N53 N 0.12401 0.41486 -0.04066
 C54 C 0.14035 0.39295 -0.00054
 C55 C 0.14120 0.60649 0.00077
 N56 N -0.02175 0.55160 -0.09701
 N57 N -0.03785 0.58615 -0.12499
 N58 N 0.02434 0.45070 -0.09723
 N59 N 0.04079 0.41566 -0.12422
 N60 N -0.02264 0.45111 -0.09750
 N61 N -0.03943 0.41637 -0.12465
 N62 N 0.02517 0.55121 -0.09640
 N63 N 0.04271 0.58762 -0.12557
 Mn64 Mn 0.06141 0.50041 -0.06061
 C65 C 0.00199 0.60816 -0.14226
 C66 C 0.00056 0.39440 -0.14098
 N67 N 0.02415 0.54983 0.09646
 N68 N 0.04078 0.58457 0.12376
 N69 N -0.02342 0.44957 0.09559
 N70 N -0.04034 0.41464 0.12255
 N71 N 0.02356 0.44935 0.09580
 N72 N 0.03989 0.41428 0.12286
 N73 N -0.02282 0.55004 0.09621
 N74 N -0.03944 0.58491 0.12329
 Mn75 Mn 0.06087 0.49961 0.06020
 C76 C 0.00065 0.60631 0.14013
 C77 C -0.00039 0.39275 0.13918
 N78 N -0.09586 0.45105 -0.02484
 N79 N -0.12299 0.41632 -0.04176
 N80 N -0.09528 0.55109 0.02290
 N81 N -0.12228 0.58592 0.03973
 N82 N -0.09504 0.55156 -0.02416
 N83 N -0.12189 0.58670 -0.04064
 N84 N -0.09593 0.45064 0.02223
 N85 N -0.12308 0.41567 0.03860
 Mn86 Mn -0.05923 0.50136 -0.06128
 Mn87 Mn -0.05976 0.50032 0.05962
 Cl88 Cl 0.00082 0.50041 -0.00051
 C89 C -0.13961 0.39440 -0.00174
 C90 C -0.13850 0.60801 -0.00034
 N91 N 0.02244 0.09573 0.44976
 N92 N 0.03907 0.12279 0.41473
 N93 N -0.02455 0.09581 0.55059
 N94 N -0.04114 0.12306 0.58542
 N95 N 0.02243 0.09577 0.55060
 N96 N 0.03908 0.12297 0.58542
 N97 N -0.02453 0.09568 0.44973
 N98 N -0.04115 0.12271 0.41470
 C99 C -0.00103 0.13924 0.39299
 C100 C -0.00099 0.13962 0.60702
 N101 N -0.09742 -0.02387 0.55085
 N102 N -0.12462 -0.04037 0.58584
 N103 N -0.09739 0.02286 0.44987
 N104 N -0.12458 0.03940 0.41493
 N105 N -0.09743 -0.02403 0.44999
 N106 N -0.12468 -0.04067 0.41513
 N107 N -0.09742 0.02303 0.55070
 N108 N -0.12462 0.03970 0.58555
 Mn109 Mn -0.06136 0.05973 0.50022
 C110 C -0.14121 -0.00028 0.60736
 C111 C -0.14123 -0.00065 0.39338
 N112 N 0.09532 0.02309 0.55075
 N113 N 0.12250 0.03968 0.58567
 N114 N 0.09538 -0.02378 0.44992
 N115 N 0.12266 -0.04029 0.41504
 N116 N 0.09533 0.02311 0.44991
 N117 N 0.12255 0.03978 0.41502
 N118 N 0.09532 -0.02380 0.55079
 N119 N 0.12249 -0.04039 0.58573
 Mn120 Mn 0.05927 0.05981 0.50026
 C121 C 0.13906 -0.00037 0.60736
 C122 C 0.13923 -0.00019 0.39339
 N123 N -0.02447 -0.09672 0.45010
 N124 N -0.04101 -0.12387 0.41516
 N125 N 0.02247 -0.09658 0.55092
 N126 N 0.03914 -0.12382 0.58576
 N127 N -0.02451 -0.09665 0.55097
 N128 N -0.04107 -0.12398 0.58584
 N129 N 0.02251 -0.09659 0.45009
 N130 N 0.03921 -0.12365 0.41518
 Mn131 Mn -0.06136 -0.06072 0.50048
 Mn132 Mn 0.05931 -0.06058 0.50043
 Cl133 Cl -0.00104 -0.00044 0.50035
 C134 C -0.00084 -0.14029 0.39352
 C135 C -0.00092 -0.14053 0.60743
 C136 C -0.27882 0.24294 -0.00176
 C137 C -0.29687 0.22601 -0.04556
 C138 C -0.33332 0.19153 -0.04525
 C139 C -0.35186 0.17431 -0.00155
 C140 C -0.33272 0.19105 0.04202
 C141 C -0.29626 0.22549 0.04212
 C142 C -0.24166 0.28038 -0.00184
 C143 C -0.22431 0.29796 0.04198
 C144 C -0.19012 0.33463 0.04174
 C145 C -0.17355 0.35389 -0.00189
 C146 C -0.19069 0.33526 -0.04553
 C147 C -0.22490 0.29855 -0.04570
 C148 C -0.27746 0.24342 0.08522
 C149 C -0.24207 0.27905 0.08515
 C150 C -0.27865 0.24451 -0.08873
 C151 C -0.24328 0.28017 -0.08880
 H152 H -0.29053 0.23015 0.11931
 H153 H -0.22887 0.29223 0.11918
 H154 H -0.29219 0.23166 -0.12276
 H155 H -0.23055 0.29379 -0.12288
 H156 H -0.34779 0.17876 -0.07894
 H157 H -0.34669 0.17790 0.07581
 H158 H -0.17702 0.34867 0.07549
 H159 H -0.17803 0.34981 -0.07927
 C160 C 0.28042 0.75788 0.00175
 C161 C 0.29790 0.77558 -0.04201
 C162 C 0.33438 0.80997 -0.04167
 C163 C 0.35354 0.82642 0.00201
 C164 C 0.33498 0.80896 0.04560
 C165 C 0.29847 0.77452 0.04567
 C166 C 0.24324 0.72048 0.00156
 C167 C 0.22643 0.70207 0.04530
 C168 C 0.19220 0.66540 0.04487
 C169 C 0.17511 0.64700 0.00111
 C170 C 0.19173 0.66647 -0.04240
 C171 C 0.22592 0.70315 -0.04238
 C172 C 0.28020 0.75579 0.08871
 C173 C 0.24478 0.72017 0.08853
 C174 C 0.27912 0.75792 -0.08524
 C175 C 0.24374 0.72231 -0.08542
 H176 H 0.29372 0.76842 0.12283
 H177 H 0.23201 0.70636 0.12251
 H178 H 0.29224 0.77140 -0.11923
 H179 H 0.23056 0.70934 -0.11955
 H180 H 0.34836 0.82332 -0.07538
 H181 H 0.34946 0.82151 0.07937
 H182 H 0.17951 0.65068 0.07852
 H183 H 0.17867 0.65261 -0.07623
 C184 C 0.28008 0.24213 -0.00092
 C185 C 0.29808 0.22531 -0.04479
 C186 C 0.33472 0.19107 -0.04464
 C187 C 0.35348 0.17396 -0.00102
 C188 C 0.33439 0.19058 0.04263
 C189 C 0.29776 0.22480 0.04289
 C190 C 0.24273 0.27934 -0.00085
 C191 C 0.22544 0.29685 0.04304
 C192 C 0.19109 0.33337 0.04292
 C193 C 0.17432 0.35251 -0.00067
 C194 C 0.19139 0.33392 -0.04435
 C195 C 0.22574 0.29740 -0.04465
 C196 C 0.27901 0.24263 0.08606
 C197 C 0.24346 0.27805 0.08613
 C198 C 0.27962 0.24369 -0.08790
 C199 C 0.24406 0.27912 -0.08782
 H200 H 0.29227 0.22944 0.12009
 H201 H 0.23031 0.29117 0.12022
 H202 H 0.29311 0.23091 -0.12198
 H203 H 0.23115 0.29266 -0.12185
 H204 H 0.34913 0.17838 -0.07839
 H205 H 0.34854 0.17750 0.07637
 H206 H 0.17806 0.34739 0.07670
 H207 H 0.17858 0.34837 -0.07806
 C208 C -0.27805 0.75895 0.00059
 C209 C -0.29592 0.77627 -0.04315
 C210 C -0.33259 0.81044 -0.04274
 C211 C -0.35152 0.82703 0.00099
 C212 C -0.33255 0.80995 0.04453
 C213 C -0.29588 0.77575 0.04454
 C214 C -0.24070 0.72174 0.00036
 C215 C -0.22356 0.70367 0.04409
 C216 C -0.18925 0.66713 0.04366
 C217 C -0.17237 0.64852 -0.00010
 C218 C -0.18927 0.66770 -0.04362
 C219 C -0.22359 0.70424 -0.04360
 C220 C -0.27725 0.75738 0.08756
 C221 C -0.24170 0.72194 0.08734
 C222 C -0.27734 0.75846 -0.08640
 C223 C -0.24177 0.72304 -0.08662
 H224 H -0.29061 0.77014 0.12170
 H225 H -0.22866 0.70839 0.12132
 H226 H -0.29074 0.77164 -0.12038
 H227 H -0.22876 0.70993 -0.12076
 H228 H -0.34690 0.82350 -0.07642
 H229 H -0.34685 0.82262 0.07834
 H230 H -0.17633 0.65265 0.07731
 H231 H -0.17638 0.65366 -0.07745
 C232 C 0.00008 -0.27999 0.24248
 C233 C -0.04357 -0.29783 0.22512
 C234 C -0.04314 -0.33440 0.19080
 C235 C 0.00052 -0.35327 0.17415
 C236 C 0.04398 -0.33437 0.19131
 C237 C 0.04396 -0.29778 0.22562
 C238 C -0.00017 -0.24268 0.27977
 C239 C 0.04348 -0.22550 0.29781
 C240 C 0.04304 -0.19116 0.33437
 C241 C -0.00064 -0.17430 0.35304
 C242 C -0.04408 -0.19127 0.33393
 C243 C -0.04405 -0.22560 0.29734
 C244 C 0.08690 -0.27915 0.24400
 C245 C 0.08667 -0.24361 0.27949
 C246 C -0.08675 -0.27929 0.24301
 C247 C -0.08699 -0.24379 0.27852
 H248 H 0.12098 -0.29248 0.23119
 H249 H 0.12058 -0.23055 0.29303
 H250 H -0.12067 -0.29268 0.22979
 H251 H -0.12107 -0.23081 0.29168
 H252 H -0.07675 -0.34866 0.17769
 H253 H 0.07774 -0.34862 0.17858
 H254 H 0.07664 -0.17820 0.34881
 H255 H -0.07785 -0.17838 0.34802
 C256 C -0.00018 0.28015 0.75728
 C257 C -0.04383 0.29841 0.77421
 C258 C -0.04337 0.33519 0.80831
 C259 C 0.00031 0.35382 0.82519
 C260 C 0.04375 0.33450 0.80847
 C261 C 0.04370 0.29772 0.77436
 C262 C -0.00043 0.24262 0.72022
 C263 C 0.04323 0.22505 0.70259
 C264 C 0.04280 0.19051 0.66621
 C265 C -0.00086 0.17382 0.64733
 C266 C -0.04432 0.19117 0.66605
 C267 C -0.04430 0.22573 0.70243
 C268 C 0.08664 0.27869 0.75641
 C269 C 0.08641 0.24296 0.72112
 C270 C -0.08701 0.28006 0.75611
 C271 C -0.08725 0.24433 0.72082
 H272 H 0.12073 0.29185 0.76940
 H273 H 0.12032 0.22960 0.70790
 H274 H -0.12092 0.29377 0.76899
 H275 H -0.12133 0.23150 0.70749
 H276 H -0.07696 0.34977 0.82109
 H277 H 0.07752 0.34856 0.82137
 H278 H 0.07641 0.17725 0.65209
 H279 H -0.07807 0.17843 0.65179
 C280 C -0.00082 0.27882 0.24153
 C281 C 0.04299 0.29644 0.22426
 C282 C 0.04288 0.33306 0.18992
 C283 C -0.00062 0.35219 0.17312
 C284 C -0.04424 0.33348 0.19015
 C285 C -0.04454 0.29685 0.22451
 C286 C -0.00090 0.24150 0.27890
 C287 C -0.04470 0.22457 0.29688
 C288 C -0.04455 0.19025 0.33356
 C289 C -0.00101 0.17318 0.35239
 C290 C 0.04257 0.18990 0.33331
 C291 C 0.04283 0.22420 0.29663
 C292 C -0.08765 0.27845 0.24282
 C293 C -0.08772 0.24291 0.27839
 C294 C 0.08601 0.27767 0.24230
 C295 C 0.08593 0.24215 0.27788
 H296 H -0.12161 0.29196 0.22988
 H297 H -0.12175 0.23004 0.29188
 H298 H 0.12004 0.29088 0.22917
 H299 H 0.11990 0.22899 0.29117
 H300 H 0.07662 0.34717 0.17691
 H301 H -0.07787 0.34794 0.17732
 H302 H -0.07826 0.17749 0.34797
 H303 H 0.07623 0.17685 0.34751
 C304 C 0.00038 -0.28111 0.75806
 C305 C -0.04312 -0.29963 0.77507
 C306 C -0.04252 -0.33635 0.80937
 C307 C 0.00132 -0.35499 0.82648
 C308 C 0.04464 -0.33501 0.80946
 C309 C 0.04432 -0.29831 0.77523
 C310 C -0.00004 -0.24360 0.72086
 C311 C 0.04353 -0.22573 0.70323
 C312 C 0.04297 -0.19120 0.66678
 C313 C -0.00074 -0.17478 0.64779
 C314 C -0.04413 -0.19243 0.66650
 C315 C -0.04398 -0.22699 0.70298
 C316 C 0.08717 -0.27898 0.75727
 C317 C 0.08678 -0.24331 0.72187
 C318 C -0.08640 -0.28155 0.75686
 C319 C -0.08682 -0.24587 0.72143
 H320 H 0.12133 -0.29187 0.77034
 H321 H 0.12063 -0.22971 0.70866
 H322 H -0.12025 -0.29543 0.76977
 H323 H -0.12097 -0.23327 0.70804
 H324 H -0.07629 -0.35078 0.82201
 H325 H 0.07881 -0.34834 0.82216
 H326 H 0.07653 -0.17773 0.65269
 H327 H -0.07794 -0.17990 0.65217
 C328 C 0.27929 -0.00057 0.75829
 C329 C 0.29727 0.04309 0.77529
 C330 C 0.33401 0.04284 0.80953
 C331 C 0.35291 -0.00066 0.82648
 C332 C 0.33384 -0.04412 0.80970
 C333 C 0.29709 -0.04428 0.77544
 C334 C 0.24182 -0.00052 0.72105
 C335 C 0.22453 -0.04418 0.70332
 C336 C 0.19007 -0.04392 0.66677
 C337 C 0.17318 -0.00041 0.64783
 C338 C 0.19025 0.04304 0.66666
 C339 C 0.22472 0.04319 0.70320
 C340 C 0.27834 -0.08723 0.75739
 C341 C 0.24267 -0.08718 0.72193
 C342 C 0.27870 0.08610 0.75713
 C343 C 0.24303 0.08615 0.72169
 H344 H 0.29168 -0.12119 0.77043
 H345 H 0.22952 -0.12110 0.70864
 H346 H 0.29219 0.12001 0.77007
 H347 H 0.23003 0.12010 0.70830
 H348 H 0.34839 0.07645 0.82235
 H349 H 0.34811 -0.07775 0.82264
 H350 H 0.17703 -0.07752 0.65257
 H351 H 0.17735 0.07668 0.65236
 C352 C -0.28139 0.00015 0.24233
 C353 C -0.29840 0.04395 0.22478
 C354 C -0.33500 0.04417 0.19043
 C355 C -0.35509 0.00090 0.17369
 C356 C -0.33665 -0.04282 0.19117
 C357 C -0.30001 -0.04333 0.22559
 C358 C -0.24398 -0.00016 0.27965
 C359 C -0.22756 -0.04396 0.29790
 C360 C -0.19309 -0.04399 0.33449
 C361 C -0.17538 -0.00061 0.35293
 C362 C -0.19162 0.04295 0.33358
 C363 C -0.22603 0.04338 0.29701
 C364 C -0.28211 -0.08646 0.24418
 C365 C -0.24651 -0.08677 0.27972
 C366 C -0.27899 0.08677 0.24247
 C367 C -0.24342 0.08649 0.27799
 H368 H -0.29606 -0.12028 0.23148
 H369 H -0.23405 -0.12081 0.29340
 H370 H -0.29173 0.12082 0.22909
 H371 H -0.22976 0.12032 0.29099
 H372 H -0.34818 0.07825 0.17743
 H373 H -0.35117 -0.07655 0.17874
 H374 H -0.18070 -0.07768 0.34911
 H375 H -0.17808 0.07649 0.34746
 C376 C 0.27978 0.00068 0.24267
 C377 C 0.29782 -0.04290 0.22556
 C378 C 0.33460 -0.04248 0.19134
 C379 C 0.35348 0.00109 0.17451
 C380 C 0.33438 0.04447 0.19141
 C381 C 0.29758 0.04447 0.22565
 C382 C 0.24225 0.00045 0.27987
 C383 C 0.22489 0.04402 0.29769
 C384 C 0.19034 0.04359 0.33418
 C385 C 0.17344 0.00000 0.35298
 C386 C 0.19060 -0.04336 0.33407
 C387 C 0.22515 -0.04334 0.29758
 C388 C 0.27875 0.08734 0.24381
 C389 C 0.24302 0.08712 0.27922
 C390 C 0.27927 -0.08599 0.24359
 C391 C 0.24354 -0.08621 0.27899
 H392 H 0.29208 0.12135 0.23088
 H393 H 0.22981 0.12097 0.29258
 H394 H 0.29281 -0.11984 0.23056
 H395 H 0.23055 -0.12023 0.29227
 H396 H 0.34900 -0.07604 0.17843
 H397 H 0.34863 0.07816 0.17856
 H398 H 0.17723 0.07714 0.34845
 H399 H 0.17771 -0.07706 0.34826
 C400 C -0.28151 -0.00029 0.75831
 C401 C -0.29873 -0.04399 0.77594
 C402 C -0.33541 -0.04400 0.81021
 C403 C -0.35537 -0.00062 0.82679
 C404 C -0.33672 0.04300 0.80924
 C405 C -0.29998 0.04329 0.77490
 C406 C -0.24403 -0.00021 0.72104
 C407 C -0.22739 0.04349 0.70270
 C408 C -0.19289 0.04331 0.66615
 C409 C -0.17535 -0.00018 0.64781
 C410 C -0.19179 -0.04363 0.66725
 C411 C -0.22624 -0.04386 0.70380
 C412 C -0.28186 0.08632 0.75623
 C413 C -0.24619 0.08642 0.72074
 C414 C -0.27947 -0.08692 0.75839
 C415 C -0.24385 -0.08686 0.72291
 H416 H -0.29570 0.12022 0.76881
 H417 H -0.23356 0.12037 0.70698
 H418 H -0.29239 -0.12090 0.77184
 H419 H -0.23031 -0.12076 0.71002
 H420 H -0.34875 -0.07800 0.82327
 H421 H -0.35114 0.07680 0.82156
 H422 H -0.18034 0.07692 0.65146
 H423 H -0.17838 -0.07725 0.65344
   
