data_POSCAR
  _audit_creation_date              2014-09-24
  _audit_creation_method            'ToBaCCo'
  _symmetry_space_group_name_H-M    'P1'
  _symmetry_Int_Tables_number       1
  _symmetry_cell_setting            triclinic
  loop_
  _symmetry_equiv_pos_as_xyz
 x,y,z
_cell_length_a 24.2617
_cell_length_b 24.1248
_cell_length_c 24.0754
_cell_angle_alpha 90.120300
_cell_angle_beta 90.008700
_cell_angle_gamma 89.893800
loop_
  _atom_site_label
  _atom_site_type_symbol
  _atom_site_fract_x
  _atom_site_fract_y
  _atom_site_fract_z
C1 C 0.18282 1.25255 0.18291
 N2 N 0.15868 1.23030 0.22854
 C3 C 0.18081 1.18469 0.25285
 N4 N 0.22660 1.16078 0.23093
 C5 C 0.25078 1.18299 0.18530
 N6 N 0.22860 1.22860 0.16103
 C7 C 0.82001 0.74637 0.18343
 N8 N 0.77404 0.76873 0.16039
 C9 C 0.75042 0.81432 0.18347
 N10 N 0.77335 0.83812 0.22906
 C11 C 0.81933 0.81579 0.25213
 N12 N 0.84289 0.77019 0.22902
 C13 C 0.81686 1.25206 -0.18199
 N14 N 0.83940 1.22868 -0.22803
 C15 C 0.81594 1.18310 -0.25116
 N16 N 0.77046 1.16036 -0.22765
 C17 C 0.74790 1.18371 -0.18162
 N18 N 0.77139 1.22927 -0.15855
 C19 C 0.18255 0.74928 -0.18653
 N20 N 0.15946 0.77315 -0.23194
 C21 C 0.18250 0.81910 -0.25453
 N22 N 0.22812 0.84170 -0.23110
 C23 C 0.25125 0.81788 -0.18570
 N24 N 0.22817 0.77194 -0.16313
 C25 C 0.58401 1.07552 -0.01329
 H26 H 0.58428 1.07522 0.03165
 C27 C 0.62280 1.10686 -0.04219
 H28 H 0.65300 1.13099 -0.01951
 C29 C 0.54587 1.04252 -0.09785
 H30 H 0.51677 1.01629 -0.11933
 C31 C 0.58407 1.07326 -0.12840
 H32 H 0.58397 1.07100 -0.17335
 N33 N 0.54659 1.04419 -0.04132
 C34 C 0.41632 1.01389 0.07940
 H35 H 0.41619 0.96904 0.07924
 C36 C 0.37732 1.04292 0.11066
 H37 H 0.34713 1.02042 0.13487
 C38 C 0.45415 1.09808 0.04597
 H39 H 0.48316 1.11935 0.01955
 C40 C 0.41575 1.12874 0.07661
 H41 H 0.41562 1.17357 0.07409
 Zn42 Zn 0.50007 0.99850 0.00178
 N43 N 0.45363 1.04168 0.04784
 C44 C 0.54648 0.95439 0.10117
 N45 N 0.54674 0.95256 0.04464
 C46 C 0.58396 0.92107 0.01639
 C47 C 0.62312 0.88982 0.04506
 C48 C 0.58506 0.92375 0.13149
 C49 C 0.41600 0.98395 -0.07542
 C50 C 0.37704 0.95539 -0.10702
 C51 C 0.41541 0.86907 -0.07379
 C52 C 0.45379 0.89928 -0.04278
 N53 N 0.45332 0.95571 -0.04416
 H54 H 0.51751 0.98075 0.12280
 H55 H 0.58387 0.92126 -0.02854
 H56 H 0.65322 0.86563 0.02219
 H57 H 0.58540 0.92621 0.17643
 H58 H 0.41593 1.02879 -0.07489
 H59 H 0.34694 0.97826 -0.13112
 H60 H 0.41531 0.82422 -0.07179
 H61 H 0.48285 0.87765 -0.01660
 C62 C 0.37675 1.10083 0.10889
 C63 C 0.62308 1.10541 -0.10025
 C64 C 0.37650 0.89747 -0.10588
 C65 C 0.62396 0.89153 0.10310
 C66 C -0.01376 0.58403 1.07577
 H67 H 0.03083 0.58430 1.07546
 C68 C -0.04257 0.62313 1.10723
 H69 H -0.02016 0.65356 1.13144
 C70 C -0.09755 0.54557 1.04271
 H71 H -0.11876 0.51620 1.01643
 C72 C -0.12799 0.58407 1.07357
 H73 H -0.17258 0.58395 1.07135
 N74 N -0.04145 0.54629 1.04436
 C75 C 0.07852 0.41495 1.01427
 H76 H 0.07848 0.41454 0.96933
 C77 C 0.10956 0.37592 1.04347
 H78 H 0.13372 0.34544 1.02101
 C79 C 0.04507 0.45353 1.09853
 H80 H 0.01876 0.48286 1.11976
 C81 C 0.07550 0.41513 1.12936
 H82 H 0.07291 0.41530 1.17428
 Zn83 Zn 0.00150 0.49926 0.99864
 N84 N 0.04707 0.45267 1.04201
 C85 C 0.10027 0.54548 0.95448
 N86 N 0.04418 0.54592 0.95267
 C87 C 0.01626 0.58332 0.92109
 C88 C 0.04482 0.62243 0.88971
 C89 C 0.13047 0.58400 0.92370
 C90 C -0.07506 0.41476 0.98383
 C91 C -0.10638 0.37564 0.95509
 C92 C -0.07310 0.41398 0.86872
 C93 C -0.04238 0.45253 0.89911
 N94 N -0.04392 0.45217 0.95565
 H95 H 0.12165 0.51638 0.98089
 H96 H -0.02833 0.58339 0.92130
 H97 H 0.02221 0.65264 0.86544
 H98 H 0.17506 0.58416 0.92612
 H99 H -0.07468 0.41478 1.02877
 H100 H -0.13041 0.34549 0.97791
 H101 H -0.07100 0.41382 0.82377
 H102 H -0.01632 0.48164 0.87753
 C103 C 0.10769 0.37575 1.10151
 C104 C -0.10017 0.62339 1.10582
 C105 C -0.10510 0.37501 0.89704
 C106 C 0.10241 0.62305 0.89137
 C107 C 1.07504 -0.01330 0.58427
 H108 H 1.07467 0.03154 0.58479
 C109 C 1.10637 -0.04236 0.62318
 H110 H 1.13041 -0.01988 0.65371
 C111 C 1.04230 -0.09749 0.54538
 H112 H 1.01621 -0.11876 0.51593
 C113 C 1.07304 -0.12818 0.58367
 H114 H 1.07090 -0.17303 0.58330
 N115 N 1.04386 -0.04107 0.54641
 C116 C 1.01365 0.07968 0.41544
 H117 H 0.96906 0.07963 0.41514
 C118 C 1.04254 0.11094 0.37641
 H119 H 1.02018 0.13526 0.34603
 C120 C 1.09736 0.04605 0.45374
 H121 H 1.11851 0.01957 0.48296
 C122 C 1.12786 0.07669 0.41534
 H123 H 1.17244 0.07411 0.41540
 Zn124 Zn 0.99836 0.00218 0.49962
 N125 N 1.04127 0.04804 0.45302
 C126 C 0.95445 0.10152 0.54650
 N127 N 0.95273 0.04511 0.54672
 C128 C 0.92148 0.01705 0.58418
 C129 C 0.89036 0.04579 0.62360
 C130 C 0.92393 0.13191 0.58533
 C131 C 0.98375 -0.07474 0.41465
 C132 C 0.95527 -0.10632 0.37546
 C133 C 0.86951 -0.07302 0.41437
 C134 C 0.89964 -0.04203 0.45297
 N135 N 0.95574 -0.04348 0.45237
 H136 H 0.98061 0.12300 0.51735
 H137 H 0.92174 -0.02780 0.58407
 H138 H 0.86634 0.02308 0.65386
 H139 H 0.92628 0.17675 0.58567
 H140 H 1.02834 -0.07428 0.41449
 H141 H 0.97794 -0.13047 0.34508
 H142 H 0.82490 -0.07102 0.41442
 H143 H 0.87818 -0.01587 0.48234
 C144 C 1.10013 0.10909 0.37610
 C145 C 1.10506 -0.10029 0.62311
 C146 C 0.89766 -0.10517 0.37510
 C147 C 0.89193 0.10371 0.62444
 C148 C 0.15854 0.29583 1.15645
 C149 C 0.13595 0.33302 1.13195
 C150 C -0.15421 0.70315 1.15816
 C151 C -0.13021 0.66602 1.13482
 C152 C -0.15758 0.29527 0.84336
 C153 C -0.13410 0.33239 0.86712
 C154 C 0.15583 0.70321 0.83965
 C155 C 0.13213 0.66588 0.86268
 C156 C 1.15454 0.16029 0.29614
 C157 C 1.13027 0.13756 0.33335
 C158 C 1.15727 -0.15485 0.70246
 C159 C 1.13398 -0.13060 0.66552
 C160 C 0.84444 -0.15830 0.29535
 C161 C 0.86799 -0.13452 0.33248
 C162 C 0.84063 0.15750 0.70513
 C163 C 0.86347 0.13363 0.66757
 C164 C 0.29672 1.15538 0.15981
 C165 C 0.33398 1.13108 0.13723
 C166 C 0.70235 1.15735 -0.15445
 C167 C 0.66545 1.13420 -0.13038
 C168 C 0.29697 0.84422 -0.15867
 C169 C 0.33401 0.86776 -0.13507
 C170 C 0.70428 0.84024 0.15670
 C171 C 0.66688 0.86306 0.13293
   
