data_POSCAR
  _audit_creation_date              2014-09-24
  _audit_creation_method            'ToBaCCo'
  _symmetry_space_group_name_H-M    'P1'
  _symmetry_Int_Tables_number       1
  _symmetry_cell_setting            triclinic
  loop_
  _symmetry_equiv_pos_as_xyz
 x,y,z
_cell_length_a 49.4837
_cell_length_b 48.6653
_cell_length_c 48.8700
_cell_angle_alpha 90.345800
_cell_angle_beta 90.012900
_cell_angle_gamma 89.925500
loop_
  _atom_site_label
  _atom_site_type_symbol
  _atom_site_fract_x
  _atom_site_fract_y
  _atom_site_fract_z
N1 N 0.19488 1.24961 0.17655
 N2 N 0.17403 1.24763 0.19313
 C3 C 0.15562 1.26691 0.18645
 C4 C 0.16571 1.28162 0.16471
 C5 C 0.19057 1.27025 0.15884
 H6 H 0.13622 1.26975 0.19628
 H7 H 0.20426 1.27615 0.14265
 Cu8 Cu 0.17266 1.21939 0.22111
 Cu9 Cu 0.22577 1.22493 0.17873
 Cu10 Cu 0.21969 1.16955 0.22271
 N11 N 0.17192 1.19089 0.24883
 N12 N 0.19015 1.17117 0.24903
 C13 C 0.18434 1.15343 0.26923
 C14 C 0.16132 1.16264 0.28224
 C15 C 0.15381 1.18633 0.26891
 H16 H 0.19570 1.13501 0.27378
 H17 H 0.13620 1.19886 0.27312
 N18 N 0.24829 1.17214 0.19480
 N19 N 0.25090 1.19349 0.17844
 C20 C 0.27189 1.18903 0.16142
 C21 C 0.28293 1.16382 0.16755
 C22 C 0.26762 1.15357 0.18868
 H23 H 0.27822 1.20273 0.14530
 H24 H 0.27012 1.13386 0.19846
 H25 H 0.20215 1.19260 0.19158
 H26 H 0.22134 1.21115 0.21895
 N27 N 0.80754 0.74962 0.17315
 N28 N 0.82619 0.75013 0.19235
 C29 C 0.84413 0.72982 0.18753
 C30 C 0.83612 0.71597 0.16423
 C31 C 0.81294 0.72897 0.15551
 H32 H 0.86206 0.72584 0.19954
 H33 H 0.80135 0.72425 0.13732
 Cu34 Cu 0.82599 0.77833 0.22075
 Cu35 Cu 0.77863 0.77674 0.17149
 Cu36 Cu 0.77798 0.82720 0.22197
 N37 N 0.82544 0.80669 0.24898
 N38 N 0.80655 0.82576 0.24933
 C39 C 0.81137 0.84336 0.27014
 C40 C 0.83442 0.83472 0.28337
 C41 C 0.84298 0.81153 0.26955
 H42 H 0.79942 0.86141 0.27483
 H43 H 0.86094 0.79959 0.27375
 N44 N 0.75080 0.82517 0.19254
 N45 N 0.75105 0.80594 0.17332
 C46 C 0.73065 0.81069 0.15570
 C47 C 0.71706 0.83386 0.16435
 C48 C 0.73024 0.84264 0.18763
 H49 H 0.72638 0.79866 0.13754
 H50 H 0.72557 0.86076 0.19963
 H51 H 0.79950 0.80806 0.19099
 H52 H 0.77789 0.78573 0.21287
 N53 N 0.80181 1.25298 -0.17834
 N54 N 0.82039 1.25224 -0.19757
 C55 C 0.83964 1.27092 -0.19174
 C56 C 0.83251 1.28401 -0.16769
 C57 C 0.80846 1.27228 -0.15968
 H58 H 0.85753 1.27452 -0.20392
 H59 H 0.79684 1.27714 -0.14153
 Cu60 Cu 0.81770 1.22680 -0.22823
 Cu61 Cu 0.77057 1.22875 -0.17905
 Cu62 Cu 0.77732 1.17173 -0.22157
 N63 N 0.82132 1.19498 -0.25205
 N64 N 0.80577 1.17329 -0.24908
 C65 C 0.81310 1.15393 -0.26744
 C66 C 0.83430 1.16419 -0.28253
 C67 C 0.83915 1.19020 -0.27235
 H68 H 0.80391 1.13386 -0.26945
 H69 H 0.85472 1.20433 -0.27882
 N70 N 0.74964 1.17451 -0.19264
 N71 N 0.74678 1.19647 -0.17686
 C72 C 0.72643 1.19215 -0.15910
 C73 C 0.71605 1.16636 -0.16413
 C74 C 0.73109 1.15566 -0.18539
 H75 H 0.72001 1.20644 -0.14335
 H76 H 0.72883 1.13554 -0.19462
 H77 H 0.79546 1.19869 -0.19413
 H78 H 0.77072 1.21307 -0.21899
 N79 N 0.19214 0.75436 -0.17228
 N80 N 0.17191 0.75625 -0.18964
 C81 C 0.15416 0.73592 -0.18466
 C82 C 0.16388 0.72067 -0.16312
 C83 C 0.18792 0.73283 -0.15563
 H84 H 0.13536 0.73271 -0.19550
 H85 H 0.20100 0.72683 -0.13896
 Cu86 Cu 0.16986 0.78544 -0.21659
 Cu87 Cu 0.22158 0.78075 -0.17167
 Cu88 Cu 0.22149 0.83042 -0.22196
 N89 N 0.17176 0.81211 -0.24603
 N90 N 0.19199 0.82947 -0.24821
 C91 C 0.18772 0.84589 -0.26989
 C92 C 0.16363 0.83822 -0.28181
 C93 C 0.15391 0.81685 -0.26630
 H94 H 0.20081 0.86250 -0.27613
 H95 H 0.13510 0.80594 -0.26928
 N96 N 0.24962 0.82819 -0.19359
 N97 N 0.24963 0.80924 -0.17435
 C98 C 0.27045 0.81399 -0.15719
 C99 C 0.28404 0.83690 -0.16618
 C100 C 0.27042 0.84550 -0.18917
 H101 H 0.27489 0.80228 -0.13899
 H102 H 0.27483 0.86355 -0.20116
 H103 H 0.20110 0.81316 -0.18930
 H104 H 0.21885 0.78886 -0.21309
 C105 C 0.54226 1.03858 -0.00588
 H106 H 0.54263 1.03803 0.01625
 C107 C 0.56091 1.05468 -0.01996
 H108 H 0.57534 1.06682 -0.00846
 C109 C 0.52301 1.02316 -0.04762
 H110 H 0.50862 1.01036 -0.05834
 C111 C 0.54130 1.03898 -0.06254
 H112 H 0.54075 1.03816 -0.08467
 N113 N 0.52376 1.02332 -0.01980
 C114 C 0.45930 1.00796 0.03884
 H115 H 0.45886 0.98574 0.03816
 C116 C 0.44055 1.02230 0.05477
 H117 H 0.42598 1.01090 0.06670
 C118 C 0.47876 1.04968 0.02377
 H119 H 0.49324 1.06028 0.01112
 C120 C 0.46036 1.06486 0.03944
 H121 H 0.46094 1.08708 0.03868
 Zn122 Zn 0.50082 1.00049 0.00104
 N123 N 0.47794 1.02175 0.02382
 C124 C 0.52244 0.97770 0.04995
 N125 N 0.52345 0.97752 0.02213
 C126 C 0.54204 0.96217 0.00839
 C127 C 0.56054 0.94603 0.02265
 C128 C 0.54059 0.96183 0.06505
 C129 C 0.45958 0.99327 -0.03715
 C130 C 0.44093 0.97903 -0.05327
 C131 C 0.46061 0.93636 -0.03788
 C132 C 0.47889 0.95144 -0.02202
 N133 N 0.47808 0.97938 -0.02200
 H134 H 0.50800 0.99059 0.06053
 H135 H 0.54263 0.96273 -0.01373
 H136 H 0.57508 0.93384 0.01130
 H137 H 0.53987 0.96268 0.08718
 H138 H 0.45917 1.01549 -0.03645
 H139 H 0.42646 0.99050 -0.06529
 H140 H 0.46118 0.91414 -0.03720
 H141 H 0.49328 0.94076 -0.00931
 C142 C 0.44078 1.05116 0.05506
 C143 C 0.56068 1.05491 -0.04869
 C144 C 0.44116 0.95017 -0.05364
 C145 C 0.56010 0.94586 0.05139
 C146 C -0.00536 0.54041 1.03647
 H147 H 0.01650 0.54107 1.03638
 C148 C -0.01995 0.55933 1.05217
 H149 H -0.00914 0.57424 1.06450
 C150 C -0.04589 0.52022 1.02020
 H151 H -0.05594 0.50540 1.00721
 C152 C -0.06130 0.53874 1.03563
 H153 H -0.08312 0.53790 1.03434
 N154 N -0.01843 0.52130 1.02099
 C155 C 0.04102 0.45643 1.00718
 H156 H 0.04101 0.45564 0.98505
 C157 C 0.05680 0.43795 1.02200
 H158 H 0.06881 0.42285 1.01108
 C159 C 0.02431 0.47635 1.04819
 H160 H 0.01127 0.49102 1.05832
 C161 C 0.03974 0.45823 1.06382
 H162 H 0.03880 0.45956 1.08592
 Zn163 Zn 0.00309 0.49809 0.99871
 N164 N 0.02529 0.47521 1.02039
 C165 C 0.05171 0.52071 0.97712
 N166 N 0.02423 0.52132 0.97645
 C167 C 0.01073 0.54006 0.96109
 C168 C 0.02488 0.55912 0.94544
 C169 C 0.06669 0.53943 0.96176
 C170 C -0.03429 0.45598 0.99026
 C171 C -0.05024 0.43749 0.97549
 C172 C -0.03386 0.45771 0.93363
 C173 C -0.01823 0.47584 0.94922
 N174 N -0.01886 0.47479 0.97701
 H175 H 0.06207 0.50614 0.99001
 H176 H -0.01114 0.54033 0.96125
 H177 H 0.01371 0.57374 0.93323
 H178 H 0.08853 0.53902 0.96299
 H179 H -0.03400 0.45526 1.01238
 H180 H -0.06209 0.42244 0.98643
 H181 H -0.03330 0.45905 0.91153
 H182 H -0.00541 0.49053 0.93904
 C183 C 0.05619 0.43861 1.05073
 C184 C -0.04833 0.55873 1.05178
 C185 C -0.05013 0.43817 0.94676
 C186 C 0.05326 0.55910 0.94579
 C187 C 1.03785 -0.00975 0.54100
 H188 H 1.03771 0.01247 0.54194
 C189 C 1.05394 -0.02465 0.55910
 H190 H 1.06604 -0.01370 0.57404
 C191 C 1.02111 -0.05089 0.52118
 H192 H 1.00793 -0.06105 0.50671
 C193 C 1.03687 -0.06662 0.53892
 H194 H 1.03602 -0.08881 0.53752
 N195 N 1.02196 -0.02298 0.52246
 C196 C 1.00639 0.03717 0.45860
 H197 H 0.98453 0.03719 0.45868
 C198 C 1.02039 0.05302 0.43960
 H199 H 1.00912 0.06557 0.42536
 C200 C 1.04753 0.02052 0.47703
 H201 H 1.05802 0.00733 0.49121
 C202 C 1.06235 0.03608 0.45838
 H203 H 1.08419 0.03468 0.45846
 Zn204 Zn 0.99932 -0.00104 0.50030
 N205 N 1.02005 0.02143 0.47687
 C206 C 0.97848 0.04851 0.52349
 N207 N 0.97795 0.02058 0.52425
 C208 C 0.96321 0.00705 0.54337
 C209 C 0.94796 0.02164 0.56259
 C210 C 0.96349 0.06394 0.54234
 C211 C 0.98985 -0.03877 0.45821
 C212 C 0.97480 -0.05461 0.43985
 C213 C 0.93398 -0.03808 0.46156
 C214 C 0.94984 -0.02256 0.47954
 N215 N 0.97726 -0.02328 0.47763
 H216 H 0.99087 0.05891 0.50860
 H217 H 0.96346 -0.01518 0.54374
 H218 H 0.93615 0.01044 0.57746
 H219 H 0.96451 0.08615 0.54171
 H220 H 1.01167 -0.03852 0.45682
 H221 H 0.98522 -0.06642 0.42424
 H222 H 0.91220 -0.03740 0.46349
 H223 H 0.94017 -0.00968 0.49472
 C224 C 1.04877 0.05250 0.43922
 C225 C 1.05349 -0.05350 0.55830
 C226 C 0.94645 -0.05433 0.44132
 C227 C 0.94804 0.05049 0.56231
 C228 C 0.11283 0.39128 1.07369
 C229 C 0.10132 0.37909 1.09678
 C230 C 0.07528 0.38666 1.10508
 C231 C 0.06071 0.40621 1.09027
 C232 C 0.15302 0.30209 1.15091
 C233 C 0.09829 0.41083 1.05883
 C234 C 0.11594 0.35842 1.11166
 C235 C 0.12789 0.34087 1.12409
 C236 C 0.14158 0.32007 1.13859
 C237 C 0.07201 0.41844 1.06690
 H238 H 0.13300 0.38560 1.06711
 H239 H 0.06613 0.37726 1.12284
 H240 H 0.04040 0.41130 1.09678
 H241 H 0.10766 0.42010 1.04113
 C242 C -0.10306 0.59096 1.09609
 C243 C -0.09460 0.61838 1.09716
 C244 C -0.07104 0.62628 1.08349
 C245 C -0.05597 0.60688 1.06881
 C246 C -0.14959 0.69424 1.15042
 C247 C -0.08801 0.57151 1.08138
 C248 C -0.11007 0.63854 1.11211
 C249 C -0.12277 0.65577 1.12443
 C250 C -0.13736 0.67634 1.13858
 C251 C -0.06427 0.57925 1.06759
 H252 H -0.12125 0.58462 1.10662
 H253 H -0.06438 0.64748 1.08408
 H254 H -0.03804 0.61359 1.05806
 H255 H -0.09478 0.55036 1.08105
 C256 C -0.07103 0.38685 0.89191
 C257 C -0.09699 0.37967 0.90065
 C258 C -0.10780 0.39185 0.92424
 C259 C -0.09267 0.41102 0.93915
 C260 C -0.15251 0.30489 0.84661
 C261 C -0.05586 0.40602 0.90677
 C262 C -0.11234 0.35950 0.88565
 C263 C -0.12509 0.34243 0.87320
 C264 C -0.13991 0.32226 0.85878
 C265 C -0.06647 0.41826 0.93063
 H266 H -0.06242 0.37745 0.87374
 H267 H -0.12790 0.38647 0.93116
 H268 H -0.10153 0.42033 0.95722
 H269 H -0.03563 0.41086 0.89989
 C270 C 0.07415 0.62725 0.91508
 C271 C 0.09797 0.62003 0.90140
 C272 C 0.10718 0.59283 0.90205
 C273 C 0.09264 0.57293 0.91641
 C274 C 0.15056 0.69821 0.85017
 C275 C 0.05960 0.60743 0.92942
 C276 C 0.11295 0.64070 0.88694
 C277 C 0.12515 0.65845 0.87510
 C278 C 0.13904 0.67969 0.86153
 C279 C 0.06867 0.58003 0.93027
 H280 H 0.06690 0.64827 0.91480
 H281 H 0.12558 0.58701 0.89148
 H282 H 0.09999 0.55197 0.91645
 H283 H 0.04147 0.61365 0.94023
 C284 C 1.06940 0.08443 0.37172
 C285 C 1.09340 0.09779 0.37898
 C286 C 1.10274 0.09659 0.40598
 C287 C 1.08819 0.08198 0.42564
 C288 C 1.14770 0.14986 0.30268
 C289 C 1.05482 0.06984 0.39134
 C290 C 1.10851 0.11245 0.35858
 C291 C 1.12101 0.12448 0.34121
 C292 C 1.13549 0.13830 0.32057
 C293 C 1.06407 0.06840 0.41853
 H294 H 1.06205 0.08513 0.35085
 H295 H 1.12128 0.10689 0.41182
 H296 H 1.09567 0.08151 0.44646
 H297 H 1.03657 0.05928 0.38510
 C298 C 1.07335 -0.10781 0.61003
 C299 C 1.09926 -0.09909 0.61753
 C300 C 1.11054 -0.07595 0.60513
 C301 C 1.09585 -0.06134 0.58556
 C302 C 1.15100 -0.14944 0.69683
 C303 C 1.05862 -0.09325 0.59045
 C304 C 1.11387 -0.11333 0.63862
 C305 C 1.12584 -0.12497 0.65665
 C306 C 1.13955 -0.13829 0.67815
 C307 C 1.06962 -0.06971 0.57814
 H308 H 1.06437 -0.12563 0.61960
 H309 H 1.13060 -0.06903 0.61077
 H310 H 1.10501 -0.04352 0.57621
 H311 H 1.03835 -0.10001 0.58548
 C312 C 0.92322 -0.11149 0.39365
 C313 C 0.89994 -0.09990 0.38222
 C314 C 0.89153 -0.07368 0.39052
 C315 C 0.90645 -0.05899 0.41000
 C316 C 0.84735 -0.15229 0.30430
 C317 C 0.93818 -0.09682 0.41311
 C318 C 0.88514 -0.11457 0.36142
 C319 C 0.87299 -0.12666 0.34370
 C320 C 0.85903 -0.14059 0.32260
 C321 C 0.93005 -0.07033 0.42140
 H322 H 0.92990 -0.13177 0.38738
 H323 H 0.87362 -0.06445 0.38170
 H324 H 0.89986 -0.03850 0.41565
 H325 H 0.95606 -0.10625 0.42174
 C326 C 0.90380 0.10532 0.59520
 C327 C 0.90309 0.09650 0.62239
 C328 C 0.91706 0.07272 0.62996
 C329 C 0.93166 0.05777 0.61043
 C330 C 0.84834 0.15082 0.69752
 C331 C 0.91842 0.09040 0.57562
 C332 C 0.88802 0.11177 0.64259
 C333 C 0.87547 0.12432 0.65971
 C334 C 0.86082 0.13875 0.68000
 C335 C 0.93249 0.06642 0.58302
 H336 H 0.89300 0.12368 0.58911
 H337 H 0.91672 0.06576 0.65098
 H338 H 0.94261 0.03964 0.61687
 H339 H 0.91843 0.09742 0.55464
 C340 C 0.40778 1.10570 0.09994
 C341 C 0.38095 1.09663 0.10041
 C342 C 0.37372 1.07270 0.08621
 C343 C 0.39319 1.05789 0.07156
 C344 C 0.30467 1.15012 0.15354
 C345 C 0.42731 1.09091 0.08527
 C346 C 0.36070 1.11182 0.11528
 C347 C 0.34335 1.12421 0.12752
 C348 C 0.32264 1.13835 0.14164
 C349 C 0.42022 1.06682 0.07091
 H350 H 0.41360 1.12418 0.11091
 H351 H 0.35299 1.06556 0.08635
 H352 H 0.38698 1.03969 0.06038
 H353 H 0.44799 1.09815 0.08540
 C354 C 0.62731 1.08686 -0.06999
 C355 C 0.61988 1.10073 -0.09383
 C356 C 0.59303 1.09994 -0.10280
 C357 C 0.57370 1.08520 -0.08806
 C358 C 0.69489 1.15282 -0.14932
 C359 C 0.60804 1.07212 -0.05523
 C360 C 0.63995 1.11542 -0.10921
 C361 C 0.65704 1.12745 -0.12198
 C362 C 0.67733 1.14125 -0.13679
 C363 C 0.58100 1.07106 -0.06413
 H364 H 0.64806 1.08725 -0.06291
 H365 H 0.58705 1.11066 -0.12121
 H366 H 0.55300 1.08503 -0.09527
 H367 H 0.61441 1.06113 -0.03714
 C368 C 0.37440 0.92876 -0.08543
 C369 C 0.38179 0.90486 -0.09963
 C370 C 0.40864 0.89579 -0.09898
 C371 C 0.42802 0.91054 -0.08412
 C372 C 0.30590 0.85079 -0.15260
 C373 C 0.39373 0.94354 -0.07060
 C374 C 0.36168 0.88960 -0.11460
 C375 C 0.34446 0.87709 -0.12686
 C376 C 0.32386 0.86275 -0.14090
 C377 C 0.42077 0.93459 -0.06975
 H378 H 0.35366 0.93590 -0.08570
 H379 H 0.41457 0.87733 -0.10993
 H380 H 0.44871 0.90329 -0.08409
 H381 H 0.38740 0.96170 -0.05941
 C382 C 0.59236 0.90085 0.10564
 C383 C 0.61925 0.90011 0.09677
 C384 C 0.62674 0.91411 0.07304
 C385 C 0.60748 0.92886 0.05824
 C386 C 0.69523 0.84747 0.15057
 C387 C 0.57304 0.91563 0.09085
 C388 C 0.63934 0.88525 0.11204
 C389 C 0.65659 0.87308 0.12449
 C390 C 0.67724 0.85913 0.13872
 C391 C 0.58040 0.92981 0.06698
 H392 H 0.58633 0.89005 0.12396
 H393 H 0.64752 0.91377 0.06606
 H394 H 0.61389 0.93991 0.04021
 H395 H 0.55231 0.91575 0.09793
   
