data_POSCAR
  _audit_creation_date              2014-09-24
  _audit_creation_method            'ToBaCCo'
  _symmetry_space_group_name_H-M    'P1'
  _symmetry_Int_Tables_number       1
  _symmetry_cell_setting            triclinic
  loop_
  _symmetry_equiv_pos_as_xyz
 x,y,z
_cell_length_a 26.2679
_cell_length_b 22.6973
_cell_length_c 11.4887
_cell_angle_alpha 91.720800
_cell_angle_beta 88.719200
_cell_angle_gamma 87.178500
loop_
  _atom_site_label
  _atom_site_type_symbol
  _atom_site_fract_x
  _atom_site_fract_y
  _atom_site_fract_z
C1 C 0.70942 0.42059 0.46205
 C2 C 0.71812 0.39399 0.56841
 C3 C 0.74453 0.33850 0.57019
 C4 C 0.76230 0.30955 0.46497
 C5 C 0.75333 0.33793 0.35962
 C6 C 0.72569 0.39178 0.35729
 C7 C 0.78761 0.24889 0.46249
 C8 C 0.78290 0.20998 0.36493
 C9 C 0.80869 0.15454 0.35929
 C10 C 0.83654 0.13546 0.45399
 C11 C 0.84105 0.17265 0.55225
 C12 C 0.81786 0.22966 0.55524
 H13 H 0.68655 0.46163 0.46035
 H14 H 0.75008 0.31778 0.65291
 H15 H 0.76536 0.31722 0.27691
 H16 H 0.75974 0.22238 0.29209
 H17 H 0.85667 0.09255 0.44934
 H18 H 0.82375 0.25864 0.62973
 C19 C 0.17077 0.85405 0.54844
 C20 C 0.19743 0.83302 0.64424
 C21 C 0.21984 0.77594 0.64067
 C22 C 0.21386 0.73792 0.54359
 C23 C 0.18425 0.75850 0.45045
 C24 C 0.16408 0.81682 0.45096
 C25 C 0.24028 0.67818 0.53702
 C26 C 0.25905 0.65501 0.42876
 C27 C 0.28666 0.60097 0.42024
 C28 C 0.29695 0.56963 0.52058
 C29 C 0.28110 0.59313 0.62950
 C30 C 0.25147 0.64632 0.63805
 H31 H 0.15299 0.89820 0.55210
 H32 H 0.24183 0.76162 0.71417
 H33 H 0.17717 0.72963 0.37647
 H34 H 0.25530 0.68056 0.35105
 H35 H 0.32114 0.52948 0.51482
 H36 H 0.23814 0.66292 0.72323
 C37 C 0.34782 0.34299 -0.50568
 C38 C 0.32764 0.32095 -0.60926
 C39 C 0.28328 0.28812 -0.60243
 C40 C 0.25944 0.27926 -0.49205
 C41 C 0.27805 0.30827 -0.39259
 C42 C 0.32356 0.33622 -0.39803
 C43 C 0.21861 0.23643 -0.47392
 C44 C 0.21642 0.20662 -0.36756
 C45 C 0.17786 0.16860 -0.34340
 C46 C 0.14244 0.15648 -0.42812
 C47 C 0.14484 0.18325 -0.53616
 C48 C 0.18240 0.22387 -0.55896
 H49 H 0.38210 0.36762 -0.50855
 H50 H 0.26900 0.26811 -0.68105
 H51 H 0.25914 0.30620 -0.30825
 H52 H 0.24515 0.21200 -0.30249
 H53 H 0.11374 0.12495 -0.41175
 H54 H 0.18348 0.24467 -0.64245
 C55 C -0.16192 0.86426 -0.56225
 C56 C -0.18569 0.83935 -0.65812
 C57 C -0.22629 0.80280 -0.64158
 C58 C -0.24676 0.79409 -0.52935
 C59 C -0.22374 0.82215 -0.43339
 C60 C -0.18043 0.85507 -0.44895
 C61 C -0.29285 0.75816 -0.51273
 C62 C -0.30372 0.73432 -0.40263
 C63 C -0.34958 0.70737 -0.38242
 C64 C -0.38375 0.70170 -0.47317
 C65 C -0.37163 0.71766 -0.58477
 C66 C -0.32665 0.74693 -0.60564
 H67 H -0.13022 0.89227 -0.57587
 H68 H -0.24206 0.78257 -0.71811
 H69 H -0.23877 0.81877 -0.34567
 H70 H -0.27711 0.73618 -0.33241
 H71 H -0.41822 0.67805 -0.46039
 H72 H -0.31956 0.76130 -0.69289
 O73 O -0.07937 0.88800 0.15999
 O74 O -0.12494 0.93669 0.02103
 C75 C -0.12110 0.90002 0.10482
 O76 O 0.04271 1.10360 0.24247
 O77 O 0.11265 1.05031 0.16558
 C78 C 0.09141 1.08973 0.23694
 O79 O -0.09639 1.08804 0.18194
 O80 O -0.13425 1.03528 0.03700
 C81 C -0.13623 1.07085 0.12781
 O82 O 0.05965 0.88832 0.22384
 O83 O 0.12025 0.95002 0.15966
 C84 C 0.10521 0.90811 0.22490
 Zr85 Zr -0.00493 0.91790 0.13079
 O86 O -0.02001 0.90783 0.31055
 O87 O 0.00272 0.82556 0.10100
 Zr88 Zr -0.01792 1.06743 0.14777
 O89 O -0.03190 1.06749 0.33000
 O90 O -0.03199 1.16014 0.14920
 O91 O -0.05747 0.98989 0.13764
 O92 O 0.02849 0.99461 0.18385
 O93 O 0.10498 0.89770 -0.17700
 O94 O 0.14293 0.95343 -0.03685
 C95 C 0.14477 0.91550 -0.12353
 O96 O -0.04968 1.09787 -0.23685
 O97 O -0.11116 1.03903 -0.16667
 C98 C -0.09545 1.07883 -0.23551
 O99 O 0.08688 1.10597 -0.15993
 O100 O 0.13391 1.05402 -0.02778
 C101 C 0.12928 1.09247 -0.10868
 O102 O -0.03048 0.89683 -0.26480
 O103 O -0.10260 0.94171 -0.17932
 C104 C -0.07922 0.90845 -0.26003
 Zr105 Zr 0.02698 0.92336 -0.15215
 O106 O 0.05233 0.92073 -0.32846
 O107 O 0.02893 0.82992 -0.15373
 Zr108 Zr 0.01344 1.07306 -0.13536
 O109 O 0.03132 1.08610 -0.31265
 O110 O 0.00001 1.16538 -0.10884
 Zr111 Zr -0.06922 0.99120 -0.04356
 Zr112 Zr 0.07787 0.99935 0.03782
 O113 O 0.06471 1.00076 -0.14225
 O114 O -0.02041 0.99629 -0.19071
 O115 O 0.05656 0.91167 0.01269
 O116 O -0.04672 1.07821 -0.01647
 O117 O -0.03148 0.90752 -0.03614
 O118 O 0.04127 1.08407 0.03147
 H119 H 0.04233 0.99496 0.26335
 H120 H -0.07258 1.11102 -0.02471
 H121 H 0.09350 1.00248 -0.19898
 H122 H -0.05115 0.87226 -0.05335
 H123 H 0.00010 1.17792 0.12521
 H124 H 0.03022 1.18112 -0.07103
 H125 H 0.04869 1.04922 -0.34387
 H126 H 0.03343 0.95306 -0.36735
 H127 H 0.05597 0.81659 -0.10046
 H128 H -0.00564 0.80791 0.17646
 H129 H -0.04502 0.93988 0.33569
 H130 H -0.05769 1.03816 0.34490
 O131 O 0.47619 0.37724 0.21303
 O132 O 0.40454 0.39811 0.10884
 C133 C 0.42810 0.37227 0.19299
 O134 O 0.53593 0.62634 0.20346
 O135 O 0.60447 0.59899 0.08374
 C136 C 0.58303 0.63076 0.16809
 O137 O 0.40793 0.56204 0.22701
 O138 O 0.37260 0.48701 0.12304
 C139 C 0.37133 0.52751 0.20534
 O140 O 0.60848 0.42734 0.17686
 O141 O 0.63862 0.50648 0.08188
 C142 C 0.64369 0.46334 0.15323
 Zr143 Zr 0.53221 0.42628 0.12920
 O144 O 0.54403 0.41582 0.30887
 O145 O 0.55791 0.33694 0.10057
 Zr146 Zr 0.48037 0.56663 0.14968
 O147 O 0.48642 0.57093 0.33322
 O148 O 0.44564 0.65259 0.14928
 O149 O 0.46615 0.47772 0.16858
 O150 O 0.54642 0.51480 0.15742
 O151 O 0.60524 0.42932 -0.22641
 O152 O 0.63698 0.50448 -0.11651
 C153 C 0.64211 0.46233 -0.19488
 O154 O 0.39395 0.56350 -0.18938
 O155 O 0.36607 0.48891 -0.07782
 C156 C 0.35858 0.52962 -0.15243
 O157 O 0.52141 0.63290 -0.18687
 O158 O 0.59824 0.60015 -0.11475
 C159 C 0.57006 0.63569 -0.17598
 O160 O 0.47232 0.37732 -0.23109
 O161 O 0.40269 0.40175 -0.11153
 C162 C 0.42464 0.37502 -0.20268
 Zr163 Zr 0.52825 0.42916 -0.15987
 O164 O 0.53241 0.42858 -0.34396
 O165 O 0.55534 0.33969 -0.16075
 Zr166 Zr 0.47237 0.56707 -0.14091
 O167 O 0.47575 0.56665 -0.32533
 O168 O 0.43352 0.65089 -0.14030
 Zr169 Zr 0.43380 0.46465 0.00416
 Zr170 Zr 0.57254 0.53053 -0.01282
 O171 O 0.54008 0.51782 -0.17711
 O172 O 0.45895 0.47890 -0.16817
 O173 O 0.57630 0.43729 -0.02035
 O174 O 0.43199 0.55755 0.01210
 O175 O 0.49232 0.39820 -0.01238
 O176 O 0.51375 0.59728 0.00035
 H177 H 0.56741 0.52432 0.22539
 H178 H 0.39887 0.58033 0.02021
 H179 H 0.55995 0.52803 -0.24738
 H180 H 0.48151 0.35696 -0.01414
 H181 H 0.44240 0.66624 0.23197
 H182 H 0.44205 0.67148 -0.06672
 H183 H 0.45033 0.53925 -0.35402
 H184 H 0.50357 0.45429 -0.36943
 H185 H 0.59026 0.33848 -0.13008
 H186 H 0.59410 0.33639 0.07448
 H187 H 0.52954 0.45218 0.34894
 H188 H 0.47498 0.53319 0.36298
 N189 N 0.35180 0.33535 0.28160
 N190 N 0.39953 0.34380 0.28101
 N191 N -0.17405 0.85506 0.23652
 N192 N -0.16603 0.87117 0.13675
 N193 N 0.59702 0.69445 0.32635
 N194 N 0.61511 0.66731 0.23517
 N195 N 0.11173 1.16425 0.37503
 N196 N 0.12403 1.11660 0.31823
 N197 N 0.70333 0.42239 -0.33459
 N198 N 0.69248 0.45190 -0.24474
 N199 N 0.19689 0.86449 -0.25868
 N200 N 0.19373 0.89387 -0.16675
 N201 N 0.29516 0.56567 -0.27722
 N202 N 0.30728 0.53781 -0.19097
 N203 N -0.12786 1.15363 -0.35440
 N204 N -0.13030 1.10146 -0.31807
 N205 N 0.63935 0.67870 -0.27613
 N206 N 0.59234 0.67643 -0.24992
 N207 N 0.17592 1.14334 -0.24255
 N208 N 0.17435 1.11925 -0.14788
 N209 N 0.34686 0.35627 -0.29409
 N210 N 0.39479 0.34765 -0.28788
 N211 N -0.15549 0.87888 -0.34930
 N212 N -0.10748 0.88398 -0.35306
 N213 N 0.31648 0.58736 0.31774
 N214 N 0.32827 0.53491 0.28176
 N215 N -0.18941 1.12254 0.26241
 N216 N -0.18541 1.09212 0.17162
 N217 N 0.69957 0.40519 0.25362
 N218 N 0.68766 0.45721 0.22254
 N219 N 0.13312 0.83637 0.35703
 N220 N 0.13984 0.88534 0.30898
   
