data_POSCAR
  _audit_creation_date              2014-09-24
  _audit_creation_method            'ToBaCCo'
  _symmetry_space_group_name_H-M    'P1'
  _symmetry_Int_Tables_number       1
  _symmetry_cell_setting            triclinic
  loop_
  _symmetry_equiv_pos_as_xyz
 x,y,z
_cell_length_a 40.3764
_cell_length_b 40.3215
_cell_length_c 13.4741
_cell_angle_alpha 90.032700
_cell_angle_beta 89.940900
_cell_angle_gamma 119.972200
loop_
  _atom_site_label
  _atom_site_type_symbol
  _atom_site_fract_x
  _atom_site_fract_y
  _atom_site_fract_z
C1 C 0.15612 0.48870 0.49667
 C2 C 0.17339 0.48838 0.40614
 C3 C 0.20908 0.49001 0.40846
 C4 C 0.22937 0.49552 0.49819
 C5 C 0.21287 0.49996 0.58579
 C6 C 0.17582 0.49492 0.58700
 C7 C 0.26727 0.49640 0.50115
 C8 C 0.28252 0.49182 0.59151
 C9 C 0.31782 0.49298 0.59457
 C10 C 0.33706 0.49583 0.50593
 C11 C 0.32274 0.50013 0.41545
 C12 C 0.28878 0.50168 0.41381
 H13 H 0.12838 0.48655 0.49643
 H14 H 0.22037 0.48641 0.33930
 H15 H 0.22854 0.50712 0.65460
 H16 H 0.26739 0.48700 0.66081
 H17 H 0.36439 0.49696 0.50782
 H18 H 0.27973 0.50720 0.34351
 C19 C 0.51461 -0.33141 0.49322
 C20 C 0.51531 -0.31347 0.40336
 C21 C 0.51391 -0.27930 0.40623
 C22 C 0.50828 -0.26465 0.49622
 C23 C 0.50377 -0.28578 0.58359
 C24 C 0.50827 -0.31819 0.58366
 C25 C 0.50717 -0.22770 0.49914
 C26 C 0.51141 -0.20782 0.58923
 C27 C 0.51028 -0.17356 0.59178
 C28 C 0.50787 -0.15712 0.50243
 C29 C 0.50378 -0.17600 0.41209
 C30 C 0.50202 -0.21162 0.41155
 H31 H 0.51636 -0.35723 0.49224
 H32 H 0.51780 -0.26428 0.33720
 H33 H 0.49678 -0.27727 0.65279
 H34 H 0.51590 -0.21825 0.65870
 H35 H 0.50708 -0.13069 0.50355
 H36 H 0.49650 -0.22639 0.34152
 C37 C 1.33149 0.84434 0.49685
 C38 C 1.31680 0.82479 0.40679
 C39 C 1.28409 0.78798 0.40946
 C40 C 1.26379 0.77191 0.49874
 C41 C 1.27940 0.79268 0.58709
 C42 C 1.31387 0.82758 0.58729
 C43 C 1.22655 0.73415 0.49986
 C44 C 1.21083 0.71365 0.58910
 C45 C 1.17442 0.68042 0.59178
 C46 C 1.15496 0.66550 0.50177
 C47 C 1.17144 0.68336 0.41135
 C48 C 1.20591 0.71826 0.41154
 H49 H 1.35785 0.87151 0.49755
 H50 H 1.27467 0.77229 0.34074
 H51 H 1.26519 0.78231 0.65742
 H52 H 1.22645 0.72331 0.65778
 H53 H 1.12812 0.63879 0.50105
 H54 H 1.21601 0.73255 0.34119
 C55 C 0.84322 0.50733 0.50223
 C56 C 0.82421 0.50278 0.41227
 C57 C 0.78854 0.50083 0.41189
 C58 C 0.77251 0.50607 0.49972
 C59 C 0.79258 0.51074 0.58954
 C60 C 0.82695 0.50994 0.59149
 C61 C 0.73529 0.50652 0.49739
 C62 C 0.71395 0.50155 0.58483
 C63 C 0.68076 0.50477 0.58470
 C64 C 0.66696 0.50998 0.49362
 C65 C 0.68580 0.51180 0.40454
 C66 C 0.72050 0.51181 0.40754
 H67 H 0.86959 0.50651 0.50324
 H68 H 0.77364 0.49495 0.34204
 H69 H 0.78216 0.51519 0.65916
 H70 H 0.72294 0.49528 0.65421
 H71 H 0.64034 0.51026 0.49093
 H72 H 0.73555 0.51616 0.33830
 C73 C 0.48818 0.33403 0.50708
 C74 C 0.49335 0.31977 0.41704
 C75 C 0.49649 0.28666 0.41726
 C76 C 0.49196 0.26577 0.50517
 C77 C 0.48707 0.28107 0.59490
 C78 C 0.48672 0.31582 0.59735
 C79 C 0.49204 0.22829 0.50305
 C80 C 0.49727 0.21219 0.59071
 C81 C 0.49404 0.17576 0.59091
 C82 C 0.48866 0.15650 0.50040
 C83 C 0.48672 0.17318 0.41124
 C84 C 0.48675 0.20795 0.41339
 H85 H 0.48760 0.36053 0.50668
 H86 H 0.50263 0.27767 0.34760
 H87 H 0.48283 0.26599 0.66400
 H88 H 0.50377 0.22762 0.65992
 H89 H 0.48848 0.12962 0.49814
 H90 H 0.48244 0.21848 0.34386
 C91 C 0.66501 0.15627 0.50672
 C92 C 0.67971 0.17466 0.41614
 C93 C 0.71373 0.21012 0.41473
 C94 C 0.73494 0.22658 0.50234
 C95 C 0.71926 0.20707 0.59278
 C96 C 0.68391 0.17294 0.59556
 C97 C 0.77280 0.26368 0.49931
 C98 C 0.78956 0.28496 0.58667
 C99 C 0.82602 0.31804 0.58580
 C100 C 0.84478 0.33173 0.49472
 C101 C 0.82754 0.31310 0.40599
 C102 C 0.79268 0.27855 0.40903
 H103 H 0.63764 0.13010 0.50845
 H104 H 0.72296 0.22451 0.34424
 H105 H 0.73398 0.21767 0.66236
 H106 H 0.77459 0.27618 0.65648
 H107 H 0.87167 0.35832 0.49178
 H108 H 0.78172 0.26382 0.33958
 O109 O 0.94688 0.41312 0.17743
 O110 O 0.90493 0.42124 0.07989
 C111 C 0.91255 0.40389 0.14956
 O112 O 1.05268 0.58337 0.17927
 O113 O 1.09534 0.57493 0.08538
 C114 C 1.08716 0.59269 0.15291
 O115 O 0.94551 0.52543 0.18474
 O116 O 0.90439 0.47615 0.08401
 C117 C 0.91136 0.49985 0.15628
 O118 O 1.05393 0.46460 0.17300
 O119 O 1.09636 0.51711 0.08257
 C120 C 1.08839 0.49058 0.14835
 Zr121 Zr 1.00053 0.45523 0.12039
 O122 O 1.00301 0.45149 0.27652
 O123 O 0.99964 0.40280 0.10139
 Zr124 Zr 0.99979 0.53887 0.12631
 O125 O 1.00329 0.54134 0.28313
 O126 O 0.99559 0.58916 0.12379
 O127 O 0.96622 0.47974 0.14252
 O128 O 1.03316 0.51363 0.14239
 O129 O 1.05526 0.46854 -0.18283
 O130 O 1.09682 0.51874 -0.08454
 C131 C 1.08949 0.49401 -0.15474
 O132 O 0.94726 0.52995 -0.18096
 O133 O 0.90518 0.47883 -0.08637
 C134 C 0.91288 0.50431 -0.15464
 O135 O 1.05447 0.58565 -0.17519
 O136 O 1.09631 0.57573 -0.08212
 C137 C 1.08881 0.59408 -0.14931
 O138 O 0.94756 0.41755 -0.19285
 O139 O 0.90539 0.42349 -0.09064
 C140 C 0.91311 0.40773 -0.16386
 Zr141 Zr 1.00113 0.45725 -0.12903
 O142 O 1.00351 0.45398 -0.28515
 O143 O 0.99789 0.40327 -0.11969
 Zr144 Zr 1.00086 0.54125 -0.12374
 O145 O 1.00389 0.54663 -0.28024
 O146 O 0.99975 0.59277 -0.10651
 Zr147 Zr 0.94380 0.46954 -0.00262
 Zr148 Zr 1.05761 0.52693 -0.00031
 O149 O 1.03396 0.51599 -0.14405
 O150 O 0.96723 0.48243 -0.14686
 O151 O 1.03533 0.46720 -0.00405
 O152 O 0.96688 0.52925 0.00099
 O153 O 0.96729 0.43329 -0.00535
 O154 O 1.03467 0.56375 0.00230
 H155 H 1.04981 0.52175 0.20183
 H156 H 0.94928 0.53970 0.00244
 H157 H 1.05074 0.52495 -0.20327
 H158 H 0.94971 0.40522 -0.00739
 H159 H 1.01707 0.60832 0.08311
 H160 H 0.99942 0.60187 -0.17458
 H161 H 0.98539 0.52133 -0.30811
 H162 H 1.00380 0.47692 -0.31181
 H163 H 1.02226 0.40748 -0.09096
 H164 H 0.99897 0.39291 0.16909
 H165 H 0.98771 0.46214 0.30488
 H166 H 0.98405 0.51591 0.30867
 O167 O 0.42221 0.47729 0.19132
 O168 O 0.43004 0.52615 0.08909
 C169 C 0.41372 0.50295 0.16247
 O170 O 0.59091 0.53615 0.16598
 O171 O 0.57882 0.48248 0.07810
 C172 C 0.59841 0.50942 0.14197
 O173 O 0.53623 0.58831 0.17427
 O174 O 0.48575 0.58071 0.07954
 C175 C 0.51131 0.59799 0.14790
 O176 O 0.47147 0.41847 0.18433
 O177 O 0.52102 0.42561 0.08562
 C178 C 0.49639 0.40885 0.15632
 Zr179 Zr 0.46198 0.46261 0.13070
 O180 O 0.46334 0.46064 0.28753
 O181 O 0.40845 0.41164 0.12575
 Zr182 Zr 0.54670 0.54561 0.11615
 O183 O 0.55454 0.54964 0.27180
 O184 O 0.59751 0.59899 0.09836
 O185 O 0.48838 0.52203 0.14337
 O186 O 0.52062 0.48739 0.14150
 O187 O 0.46496 0.41302 -0.17056
 O188 O 0.51717 0.42220 -0.08095
 C189 C 0.49028 0.40373 -0.14563
 O190 O 0.52967 0.58246 -0.19348
 O191 O 0.48192 0.57697 -0.09057
 C192 C 0.50519 0.59246 -0.16427
 O193 O 0.58449 0.52939 -0.18806
 O194 O 0.57574 0.47920 -0.08939
 C195 C 0.59303 0.50369 -0.16017
 O196 O 0.41653 0.47135 -0.17730
 O197 O 0.42606 0.52234 -0.08124
 C198 C 0.40805 0.49711 -0.14992
 Zr199 Zr 0.45714 0.45812 -0.11838
 O200 O 0.44931 0.44908 -0.27311
 O201 O 0.40309 0.40855 -0.09588
 Zr202 Zr 0.54199 0.54102 -0.13346
 O203 O 0.54306 0.53921 -0.29041
 O204 O 0.59420 0.59344 -0.12946
 Zr205 Zr 0.47463 0.53135 -0.00101
 Zr206 Zr 0.52958 0.47240 -0.00171
 O207 O 0.51516 0.48216 -0.14456
 O208 O 0.48288 0.51674 -0.14558
 O209 O 0.46982 0.43625 0.00696
 O210 O 0.53434 0.56665 -0.00953
 O211 O 0.43731 0.47185 0.00735
 O212 O 0.56745 0.53186 -0.00993
 H213 H 0.52973 0.47976 0.20076
 H214 H 0.54529 0.59478 -0.01249
 H215 H 0.52232 0.47254 -0.20373
 H216 H 0.40941 0.46207 0.01045
 H217 H 0.61569 0.59434 0.05984
 H218 H 0.60137 0.60092 -0.19964
 H219 H 0.51723 0.53238 -0.31412
 H220 H 0.47249 0.46974 -0.30497
 H221 H 0.40752 0.38883 -0.06502
 H222 H 0.40068 0.40452 0.19580
 H223 H 0.47211 0.48686 0.31198
 H224 H 0.52918 0.54069 0.30216
 O225 O 0.46636 0.05289 0.18156
 O226 O 0.51700 0.09515 0.08590
 C227 C 0.49178 0.08735 0.15499
 O228 O 0.52815 -0.05489 0.18076
 O229 O 0.47752 -0.09618 0.08389
 C230 C 0.50246 -0.08908 0.15298
 O231 O 0.57935 0.05301 0.18956
 O232 O 0.57215 0.09505 0.08999
 C233 C 0.58847 0.08747 0.16190
 O234 O 0.41046 -0.05446 0.17390
 O235 O 0.42033 -0.09622 0.07991
 C236 C 0.40206 -0.08881 0.14754
 Zr237 Zr 0.45463 -0.00065 0.12242
 O238 O 0.44782 -0.00395 0.27843
 O239 O 0.40337 0.00063 0.10322
 Zr240 Zr 0.53855 -0.00087 0.12844
 O241 O 0.53795 -0.00507 0.28501
 O242 O 0.59278 0.00292 0.12396
 O243 O 0.51339 0.03309 0.14595
 O244 O 0.47991 -0.03374 0.14280
 O245 O 0.41307 -0.05304 -0.17999
 O246 O 0.42169 -0.09575 -0.08644
 C247 C 0.40392 -0.08760 -0.15388
 O248 O 0.58315 0.05365 -0.17757
 O249 O 0.57465 0.09554 -0.08045
 C250 C 0.59223 0.08799 -0.14970
 O251 O 0.53162 -0.05374 -0.17371
 O252 O 0.47920 -0.09604 -0.08317
 C253 C 0.50573 -0.08822 -0.14867
 O254 O 0.47088 0.05461 -0.18682
 O255 O 0.51948 0.09593 -0.08475
 C256 C 0.49601 0.08882 -0.15756
 Zr257 Zr 0.45720 0.00044 -0.12739
 O258 O 0.45410 -0.00303 -0.28408
 O259 O 0.40699 0.00464 -0.12409
 Zr260 Zr 0.54081 -0.00014 -0.12180
 O261 O 0.54263 -0.00334 -0.27834
 O262 O 0.59484 0.00344 -0.11108
 Zr263 Zr 0.52634 0.05655 0.00177
 Zr264 Zr 0.46917 -0.05729 -0.00113
 O265 O 0.48253 -0.03284 -0.14386
 O266 O 0.51630 0.03417 -0.14353
 O267 O 0.43223 -0.03450 -0.00368
 O268 O 0.56245 0.03288 0.00454
 O269 O 0.46671 0.03343 -0.00202
 O270 O 0.52882 -0.03495 0.00295
 H271 H 0.47106 -0.05053 0.20203
 H272 H 0.59049 0.05039 0.00654
 H273 H 0.47450 -0.04958 -0.20320
 H274 H 0.45636 0.05114 -0.00328
 H275 H 0.58919 -0.02120 0.09489
 H276 H 0.59086 -0.02047 -0.07968
 H277 H 0.53654 0.01571 -0.30590
 H278 H 0.48013 0.01421 -0.30972
 H279 H 0.38745 -0.01762 -0.08630
 H280 H 0.39392 0.00088 0.17094
 H281 H 0.47362 0.01132 0.30743
 H282 H 0.52983 0.01264 0.31141
 N283 N 1.15202 0.49773 0.15825
 N284 N 1.17509 0.49636 0.22608
 C285 C 1.15658 0.48840 0.31425
 C286 C 1.12090 0.48443 0.29719
 N287 N 1.11939 0.49055 0.19963
 H288 H 1.09845 0.47868 0.35000
 N289 N 0.50483 0.65492 0.15645
 N290 N 0.50676 0.67985 0.22368
 C291 C 0.51509 0.66959 0.31167
 C292 C 0.51874 0.63763 0.29522
 N293 N 0.51198 0.62949 0.19824
 H294 H 0.52464 0.62104 0.34799
 N295 N 0.34945 -0.15457 0.16011
 N296 N 0.32619 -0.17848 0.22858
 C297 C 0.33471 -0.15907 0.31537
 C298 C 0.36380 -0.12197 0.29677
 N299 N 0.37193 -0.12048 0.19949
 H300 H 0.37821 -0.09841 0.34834
 N301 N 0.84400 0.47995 0.17133
 N302 N 0.81988 0.48024 0.23748
 C303 C 0.84060 0.49811 0.31887
 C304 C 0.87838 0.50916 0.30004
 N305 N 0.87917 0.49726 0.20747
 H306 H 0.90275 0.52364 0.34905
 N307 N 0.51449 0.36000 0.17288
 N308 N 0.51436 0.33613 0.24051
 C309 C 0.49739 0.34015 0.32239
 C310 C 0.48666 0.36712 0.30207
 N311 N 0.49784 0.37867 0.20823
 H312 H 0.47310 0.37807 0.35107
 N313 N 0.63724 0.15440 0.17535
 N314 N 0.66200 0.17851 0.24080
 C315 C 0.65852 0.15800 0.32313
 C316 C 0.63098 0.12029 0.30560
 N317 N 0.61851 0.11941 0.21278
 H318 H 0.62042 0.09610 0.35560
 N319 N 0.50937 0.15458 -0.16678
 N320 N 0.50888 0.17866 -0.23280
 C321 C 0.49728 0.15957 -0.31982
 C322 C 0.49014 0.12259 -0.30414
 N323 N 0.49804 0.12085 -0.20824
 H324 H 0.48036 0.09916 -0.35637
 N325 N 0.64532 0.49024 -0.17144
 N326 N 0.66941 0.49041 -0.23850
 C327 C 0.66156 0.50175 -0.32545
 C328 C 0.63192 0.50907 -0.30856
 N329 N 0.62284 0.50160 -0.21196
 H330 H 0.61804 0.51864 -0.36057
 N331 N 0.84792 0.35480 -0.17235
 N332 N 0.82381 0.33006 -0.23782
 C333 C 0.84258 0.33760 -0.32532
 C334 C 0.87947 0.36770 -0.31050
 N335 N 0.88140 0.37741 -0.21452
 H336 H 0.90262 0.38155 -0.36338
 N337 N 0.49216 -0.15421 -0.16104
 N338 N 0.49372 -0.17749 -0.22803
 C339 C 0.50863 -0.15680 -0.31164
 C340 C 0.51644 -0.11985 -0.29317
 N341 N 0.50576 -0.11951 -0.19876
 H342 H 0.52721 -0.09597 -0.34428
 N343 N 0.35678 0.51227 -0.16064
 N344 N 0.33154 0.51058 -0.22629
 C345 C 0.33615 0.49453 -0.30930
 C346 C 0.36495 0.48622 -0.29202
 N347 N 0.37704 0.49782 -0.19894
 H348 H 0.37713 0.47448 -0.34314
 N349 N 1.15435 0.64710 -0.16198
 N350 N 1.17803 0.67072 -0.23030
 C351 C 1.15856 0.66220 -0.31691
 C352 C 1.12166 0.63272 -0.29833
 N353 N 1.12035 0.62436 -0.20127
 H354 H 1.09811 0.61826 -0.34974
 N355 N 0.84693 0.49042 -0.16437
 N356 N 0.82347 0.49253 -0.22948
 C357 C 0.84395 0.50826 -0.31285
 C358 C 0.88092 0.51596 -0.29632
 N359 N 0.88145 0.50430 -0.20331
 H360 H 0.90467 0.52728 -0.34787
 N361 N 0.49585 0.34625 -0.15466
 N362 N 0.49421 0.32165 -0.22254
 C363 C 0.48689 0.33268 -0.31079
 C364 C 0.48356 0.36477 -0.29388
 N365 N 0.48938 0.37216 -0.19624
 H366 H 0.47843 0.38188 -0.34681
 N367 N 0.64391 0.15426 -0.16072
 N368 N 0.66953 0.17750 -0.22620
 C369 C 0.66511 0.15654 -0.30848
 C370 C 0.63605 0.11958 -0.29095
 N371 N 0.62359 0.11947 -0.19849
 H372 H 0.62395 0.09551 -0.34155
 N373 N 1.15539 0.50835 -0.16774
 N374 N 1.17929 0.50892 -0.23595
 C375 C 1.15968 0.49710 -0.32223
 C376 C 1.12252 0.48867 -0.30372
 N377 N 1.12120 0.49599 -0.20692
 H378 H 1.09879 0.47874 -0.35489
 N379 N 0.49227 0.64502 -0.17435
 N380 N 0.49303 0.66966 -0.24043
 C381 C 0.50509 0.66240 -0.32705
 C382 C 0.51224 0.63257 -0.31103
 N383 N 0.50384 0.62274 -0.21532
 H384 H 0.52211 0.61890 -0.36293
 N385 N 0.35165 -0.15331 -0.16650
 N386 N 0.32678 -0.17642 -0.23335
 C387 C 0.33261 -0.15564 -0.31681
 C388 C 0.36184 -0.11881 -0.29855
 N389 N 0.37281 -0.11867 -0.20431
 H390 H 0.37496 -0.09487 -0.34945
 N391 N 0.48299 -0.15642 0.16851
 N392 N 0.48255 -0.18049 0.23601
 C393 C 0.49975 -0.15964 0.31784
 C394 C 0.51125 -0.12180 0.29779
 N395 N 0.50029 -0.12112 0.20405
 H396 H 0.52523 -0.09737 0.34692
 N397 N 0.36653 0.52323 0.17623
 N398 N 0.34176 0.52287 0.24130
 C399 C 0.34423 0.50489 0.32295
 C400 C 0.37112 0.49388 0.30547
 N401 N 0.38428 0.50593 0.21336
 H402 H 0.38068 0.47922 0.35492
 N403 N 1.15270 0.64530 0.16529
 N404 N 1.17566 0.67035 0.23206
 C405 C 1.15484 0.66447 0.31548
 C406 C 1.11815 0.63505 0.29730
 N407 N 1.11812 0.62398 0.20315
 H408 H 1.09424 0.62187 0.34823
 N409 N 0.50572 0.15337 0.16609
 N410 N 0.50377 0.17678 0.23187
 C411 C 0.48824 0.15618 0.31521
 C412 C 0.48050 0.11917 0.29795
 N413 N 0.49193 0.11876 0.20455
 H414 H 0.46930 0.09531 0.34915
 N415 N 0.64922 0.49369 0.15671
 N416 N 0.67332 0.49458 0.22481
 C417 C 0.66804 0.51045 0.30732
 C418 C 0.64000 0.51957 0.28706
 N419 N 0.62913 0.50870 0.19269
 H420 H 0.62743 0.53128 0.33703
 N421 N 0.84636 0.35233 0.16143
 N422 N 0.82312 0.32697 0.22738
 C423 C 0.84406 0.33152 0.30966
 C424 C 0.88104 0.36042 0.29158
 N425 N 0.88115 0.37263 0.19885
 H426 H 0.90514 0.37266 0.34194
   
