data_POSCAR
  _audit_creation_date              2014-09-24
  _audit_creation_method            'ToBaCCo'
  _symmetry_space_group_name_H-M    'P1'
  _symmetry_Int_Tables_number       1
  _symmetry_cell_setting            triclinic
  loop_
  _symmetry_equiv_pos_as_xyz
 x,y,z
_cell_length_a 36.3875
_cell_length_b 36.1896
_cell_length_c 35.9911
_cell_angle_alpha 89.948700
_cell_angle_beta 89.909400
_cell_angle_gamma 90.101400
loop_
  _atom_site_label
  _atom_site_type_symbol
  _atom_site_fract_x
  _atom_site_fract_y
  _atom_site_fract_z
O1 O 0.18511 1.04240 0.02602
 O2 O 0.18102 0.96362 -0.03851
 O3 O 0.18218 0.97123 0.03493
 O4 O 0.18413 1.03547 -0.04435
 O5 O 0.24469 1.03167 -0.04622
 O6 O 0.24279 0.96857 0.03428
 O7 O 0.24146 0.95903 -0.03755
 O8 O 0.24578 1.03918 0.02585
 Cu9 Cu 0.17695 1.00286 -0.00551
 Cu10 Cu 0.24976 0.99912 -0.00631
 C11 C 0.21615 1.05436 0.03666
 C12 C 0.21037 0.94786 -0.04912
 C13 C 0.21216 0.95981 0.04880
 C14 C 0.21473 1.04528 -0.05812
 O15 O 0.79018 0.53526 0.54413
 O16 O 0.80897 0.46624 0.47165
 O17 O 0.80757 0.53877 0.47428
 O18 O 0.79039 0.46377 0.54162
 O19 O 0.73193 0.46291 0.52513
 O20 O 0.74887 0.53806 0.45868
 O21 O 0.75043 0.46712 0.45549
 O22 O 0.73153 0.53549 0.52832
 Cu23 Cu 0.80525 0.50096 0.50940
 Cu24 Cu 0.73471 0.50078 0.49056
 C25 C 0.75770 0.54731 0.54835
 C26 C 0.78290 0.45510 0.45110
 C27 C 0.78103 0.55124 0.45513
 C28 C 0.75817 0.45050 0.54465
 O29 O 0.69364 0.96880 1.03083
 O30 O 0.71782 1.03197 0.95431
 O31 O 0.71508 0.96039 0.96275
 O32 O 0.69818 1.04082 1.02328
 O33 O 0.75612 1.03910 1.04127
 O34 O 0.77294 0.95914 0.98113
 O35 O 0.77574 1.03157 0.97259
 O36 O 0.75150 0.96906 1.04919
 Cu37 Cu 0.70035 1.00062 0.99092
 Cu38 Cu 0.77004 0.99955 1.01250
 C39 C 0.71848 0.95819 1.05312
 C40 C 0.75080 1.04295 0.95080
 C41 C 0.74680 0.94575 0.96214
 C42 C 0.72437 1.05353 1.04283
 O43 O 0.26189 0.46833 0.52271
 O44 O 0.24391 0.54209 0.45564
 O45 O 0.24804 0.53895 0.52870
 O46 O 0.24877 0.46975 0.45264
 O47 O 0.18985 0.45871 0.46305
 O48 O 0.18879 0.52813 0.53653
 O49 O 0.18431 0.53224 0.46049
 O50 O 0.20226 0.45951 0.53056
 Cu51 Cu 0.25650 0.50617 0.48905
 Cu52 Cu 0.18527 0.49558 0.49752
 C53 C 0.23547 0.45071 0.53736
 C54 C 0.21130 0.54910 0.44566
 C55 C 0.21807 0.54445 0.54620
 C56 C 0.21949 0.45145 0.44613
 O57 O 1.03791 0.25966 0.03891
 O58 O 0.97462 0.27213 -0.03975
 O59 O 0.96615 0.26168 0.03201
 O60 O 1.04556 0.27041 -0.03108
 O61 O 1.04321 0.21036 -0.04173
 O62 O 0.96754 0.20094 0.02588
 O63 O 0.97036 0.21160 -0.04580
 O64 O 1.03763 0.19926 0.02970
 Cu65 Cu 1.00582 0.27204 0.00087
 Cu66 Cu 1.00453 0.19948 -0.00940
 C67 C 1.04891 0.22742 0.04733
 C68 C 0.96115 0.24400 -0.05580
 C69 C 0.95412 0.22977 0.04055
 C70 C 1.05807 0.24180 -0.04695
 O71 O 0.52306 0.69781 0.54519
 O72 O 0.46338 0.73028 0.46946
 O73 O 0.52845 0.70204 0.47221
 O74 O 0.45794 0.72573 0.54140
 O75 O 0.47926 0.78288 0.54390
 O76 O 0.55292 0.75758 0.47866
 O77 O 0.48867 0.78579 0.47203
 O78 O 0.54543 0.75436 0.55036
 Cu79 Cu 0.49094 0.70824 0.50664
 Cu80 Cu 0.51896 0.77581 0.51209
 C81 C 0.54422 0.72086 0.56090
 C82 C 0.46636 0.76318 0.45735
 C83 C 0.55243 0.72599 0.46333
 C84 C 0.45633 0.75841 0.55408
 O85 O 0.04211 0.79690 -0.01796
 O86 O -0.03568 0.78383 0.04728
 O87 O 0.03636 0.78257 0.05222
 O88 O -0.02906 0.80359 -0.02279
 O89 O -0.03640 0.74392 -0.03294
 O90 O 0.03556 0.72358 0.03655
 O91 O -0.03472 0.72382 0.03591
 O92 O 0.03582 0.73884 -0.03547
 Cu93 Cu 0.00353 0.79768 0.01612
 Cu94 Cu 0.00009 0.72671 -0.00088
 C95 C 0.05176 0.76998 -0.03837
 C96 C -0.04758 0.75125 0.05338
 C97 C 0.04750 0.74967 0.05691
 C98 C -0.04466 0.77738 -0.04003
 O99 O 0.55159 0.27976 0.46192
 O100 O 0.48116 0.30587 0.53103
 O101 O 0.54879 0.28447 0.53377
 O102 O 0.48322 0.30061 0.45751
 O103 O 0.46429 0.24274 0.46180
 O104 O 0.53056 0.22630 0.53707
 O105 O 0.46298 0.24769 0.53386
 O106 O 0.53243 0.22185 0.46419
 Cu107 Cu 0.51782 0.29861 0.49559
 Cu108 Cu 0.49580 0.22882 0.49952
 C109 C 0.55381 0.24641 0.45114
 C110 C 0.46057 0.28098 0.54477
 C111 C 0.55055 0.25266 0.54861
 C112 C 0.46278 0.27432 0.44648
 O113 O 1.02823 0.03709 0.20349
 O114 O 0.95374 -0.02753 0.22880
 O115 O 0.95817 0.04549 0.22224
 O116 O 1.01910 -0.03372 0.20515
 O117 O 1.03711 -0.03091 0.26371
 O118 O 0.97359 0.04614 0.28156
 O119 O 0.97021 -0.02438 0.28775
 O120 O 1.04303 0.04136 0.26281
 Cu121 Cu 0.98771 0.00584 0.20905
 Cu122 Cu 1.00801 0.00851 0.27973
 C123 C 1.04849 0.05004 0.22909
 C124 C 0.94992 -0.03768 0.26249
 C125 C 0.95477 0.05869 0.25476
 C126 C 1.03826 -0.04601 0.23175
 O127 O 0.54109 0.52275 0.77252
 O128 O 0.47186 0.44996 0.78999
 O129 O 0.54112 0.45128 0.77077
 O130 O 0.47284 0.52283 0.79356
 O131 O 0.45538 0.52480 0.73485
 O132 O 0.52320 0.45243 0.71219
 O133 O 0.45383 0.45334 0.73153
 O134 O 0.52357 0.52524 0.71384
 Cu135 Cu 0.50824 0.48637 0.78766
 Cu136 Cu 0.48743 0.48905 0.71717
 C137 C 0.54388 0.53655 0.74015
 C138 C 0.45099 0.43936 0.76376
 C139 C 0.54386 0.43970 0.73760
 C140 C 0.45284 0.53633 0.76810
 O141 O 0.95457 1.02333 0.73117
 O142 O 1.02114 0.94960 0.71143
 O143 O 0.95469 0.95180 0.73808
 O144 O 1.02071 1.02190 0.70551
 O145 O 1.04299 1.02613 0.76244
 O146 O 0.97712 0.95590 0.79491
 O147 O 1.04351 0.95519 0.76818
 O148 O 0.97649 1.02871 0.78806
 Cu149 Cu 0.98557 0.98602 0.71584
 Cu150 Cu 1.01200 0.99192 0.78426
 C151 C 0.95459 1.03914 0.76268
 C152 C 1.04377 0.93995 0.73641
 C153 C 0.95487 0.94165 0.77188
 C154 C 1.04295 1.03610 0.72860
 O155 O 0.46188 0.52752 0.29961
 O156 O 0.53535 0.46304 0.27207
 O157 O 0.53503 0.52961 0.29840
 O158 O 0.46471 0.46116 0.27214
 O159 O 0.46358 0.48399 0.21519
 O160 O 0.53291 0.55322 0.24184
 O161 O 0.53542 0.48660 0.21542
 O162 O 0.46106 0.54994 0.24257
 Cu163 Cu 0.49928 0.49340 0.29148
 Cu164 Cu 0.49815 0.52085 0.22312
 C165 C 0.44831 0.54913 0.27545
 C166 C 0.54789 0.46386 0.23912
 C167 C 0.54648 0.55260 0.27433
 C168 C 0.45234 0.46081 0.23914
 O169 O 0.25017 0.14887 0.20530
 O170 O 0.28138 0.14174 0.26542
 O171 O 0.15564 0.21470 0.24319
 O172 O 0.14470 0.27084 0.26425
 O173 O 0.21978 0.24718 0.14221
 O174 O 0.27931 0.27482 0.13486
 O175 O 0.25488 0.31367 0.33234
 O176 O 0.20256 0.27309 0.34146
 O177 O 0.34412 0.24450 0.30897
 O178 O 0.35048 0.19267 0.26972
 O179 O 0.32289 0.33536 0.24107
 O180 O 0.27830 0.34826 0.19046
 O181 O 0.26983 0.35028 0.28315
 O182 O 0.23572 0.36035 0.22452
 O183 O 0.35793 0.28585 0.25690
 O184 O 0.36367 0.23059 0.21660
 O185 O 0.29471 0.25568 0.34628
 O186 O 0.23813 0.22667 0.35662
 O187 O 0.25980 0.18658 0.15557
 O188 O 0.31040 0.22788 0.14568
 O189 O 0.17025 0.25491 0.18009
 O190 O 0.16388 0.30807 0.22328
 O191 O 0.19126 0.16308 0.24672
 O192 O 0.23003 0.15291 0.29802
 Zr193 Zr 0.24471 0.18500 0.25097
 O194 O 0.27893 0.21597 0.28632
 Zr195 Zr 0.19282 0.25842 0.23372
 O196 O 0.22495 0.29242 0.26842
 Zr197 Zr 0.26406 0.23953 0.17914
 O198 O 0.29953 0.27239 0.21152
 Zr199 Zr 0.24984 0.26023 0.30977
 O200 O 0.21420 0.22683 0.27774
 Zr201 Zr 0.32108 0.24107 0.25548
 O202 O 0.28915 0.20666 0.22030
 Zr203 Zr 0.26911 0.31426 0.23748
 O204 O 0.23424 0.28386 0.20169
 O205 O 0.22091 0.21538 0.20831
 O206 O 0.29297 0.28445 0.28063
 C207 C 0.25542 0.15458 0.17046
 C208 C 0.15997 0.17956 0.24614
 C209 C 0.18525 0.25202 0.14788
 C210 C 0.26316 0.34507 0.31774
 C211 C 0.32913 0.24993 0.34091
 C212 C 0.35361 0.32035 0.25002
 H213 H 0.28928 0.19939 0.30547
 H214 H 0.31946 0.28231 0.19564
 H215 H 0.20481 0.19997 0.19246
 H216 H 0.20944 0.31193 0.27951
 H217 H 0.18294 0.25580 0.33353
 H218 H 0.15254 0.28372 0.28713
 H219 H 0.38746 0.23256 0.22987
 H220 H 0.32562 0.21013 0.15982
 H221 H 0.24881 0.20201 0.35196
 H222 H 0.21181 0.16734 0.31238
 H223 H 0.29976 0.33830 0.17689
 H224 H 0.26538 0.29804 0.13829
 H225 H 0.26986 0.11765 0.25915
 H226 H 0.34328 0.17358 0.25143
 H227 H 0.17620 0.32038 0.20206
 H228 H 0.21493 0.36065 0.24224
 O229 O 0.75613 0.86166 0.22256
 O230 O 0.72652 0.86534 0.28427
 O231 O 0.84933 0.79561 0.23967
 O232 O 0.86147 0.74029 0.26777
 O233 O 0.77826 0.77302 0.15119
 O234 O 0.72052 0.73961 0.14670
 O235 O 0.75923 0.68968 0.33945
 O236 O 0.81113 0.72898 0.34637
 O237 O 0.66762 0.75693 0.32728
 O238 O 0.65828 0.81259 0.29489
 O239 O 0.68274 0.67285 0.25343
 O240 O 0.72254 0.66272 0.19872
 O241 O 0.73981 0.65596 0.28990
 O242 O 0.76849 0.64949 0.22720
 O243 O 0.64810 0.72258 0.26964
 O244 O 0.64103 0.78198 0.23891
 O245 O 0.72015 0.74563 0.35979
 O246 O 0.77829 0.77565 0.36605
 O247 O 0.73540 0.82799 0.17342
 O248 O 0.68728 0.78389 0.16295
 O249 O 0.82925 0.75540 0.18309
 O250 O 0.84116 0.70265 0.22285
 O251 O 0.81501 0.84462 0.25914
 O252 O 0.77926 0.85105 0.31401
 Zr253 Zr 0.76193 0.82265 0.26561
 O254 O 0.73058 0.78939 0.30150
 Zr255 Zr 0.81211 0.75084 0.23861
 O256 O 0.78300 0.71457 0.27395
 Zr257 Zr 0.73645 0.77296 0.19213
 O258 O 0.70407 0.73778 0.22531
 Zr259 Zr 0.76182 0.74409 0.31930
 O260 O 0.79489 0.77951 0.28642
 Zr261 Zr 0.68611 0.76622 0.27272
 O262 O 0.71501 0.80309 0.23738
 Zr263 Zr 0.73626 0.69436 0.24615
 O264 O 0.76795 0.72725 0.20915
 O265 O 0.78158 0.79509 0.21912
 O266 O 0.71611 0.72145 0.29283
 C267 C 0.74484 0.85855 0.18892
 C268 C 0.84531 0.82990 0.24823
 C269 C 0.81267 0.76508 0.15313
 C270 C 0.74959 0.65919 0.32399
 C271 C 0.68525 0.75024 0.35751
 C272 C 0.65199 0.68826 0.26181
 H273 H 0.72176 0.80459 0.32250
 H274 H 0.68305 0.72896 0.21033
 H275 H 0.79586 0.81165 0.20265
 H276 H 0.79936 0.69447 0.28236
 H277 H 0.83051 0.74600 0.33727
 H278 H 0.85627 0.72076 0.28630
 H279 H 0.61813 0.77917 0.25366
 H280 H 0.67246 0.80033 0.17901
 H281 H 0.76405 0.79888 0.36611
 H282 H 0.79911 0.83622 0.32543
 H283 H 0.70200 0.67532 0.18601
 H284 H 0.73646 0.71748 0.14725
 H285 H 0.73836 0.88957 0.27921
 H286 H 0.66446 0.83375 0.27859
 H287 H 0.82586 0.68970 0.20422
 H288 H 0.79021 0.64750 0.24357
 O289 O 0.73906 0.14288 0.77841
 O290 O 0.70129 0.15066 0.72211
 O291 O 0.84419 0.18212 0.74455
 O292 O 0.86669 0.23329 0.71617
 O293 O 0.79708 0.22068 0.84524
 O294 O 0.75047 0.26606 0.85928
 O295 O 0.76988 0.31338 0.66306
 O296 O 0.80885 0.26268 0.64701
 O297 O 0.66727 0.26644 0.68937
 O298 O 0.64916 0.21821 0.72745
 O299 O 0.71745 0.34517 0.76145
 O300 O 0.76695 0.34129 0.80845
 O301 O 0.77235 0.34825 0.71553
 O302 O 0.80896 0.34405 0.77265
 O303 O 0.66921 0.30869 0.74490
 O304 O 0.65088 0.25454 0.78269
 O305 O 0.71605 0.27265 0.65005
 O306 O 0.76195 0.22629 0.63341
 O307 O 0.74096 0.17790 0.83090
 O308 O 0.70516 0.23133 0.84797
 O309 O 0.84544 0.22527 0.80530
 O310 O 0.86481 0.27293 0.76278
 O311 O 0.79516 0.14525 0.73066
 O312 O 0.75075 0.15049 0.68460
 Zr313 Zr 0.74980 0.18069 0.73501
 O314 O 0.72349 0.22272 0.70492
 Zr315 Zr 0.82139 0.23510 0.75307
 O316 O 0.79795 0.27947 0.72329
 Zr317 Zr 0.75094 0.23181 0.81172
 O318 O 0.72436 0.27587 0.78460
 Zr319 Zr 0.76237 0.25915 0.68221
 O320 O 0.78934 0.21468 0.70892
 Zr321 Zr 0.69206 0.25545 0.74089
 O322 O 0.71519 0.21072 0.77086
 Zr323 Zr 0.76360 0.31004 0.75887
 O324 O 0.79056 0.26818 0.78972
 O325 O 0.78366 0.19956 0.77748
 O326 O 0.72950 0.29167 0.71629
 C327 C 0.73697 0.14699 0.81381
 C328 C 0.82967 0.15089 0.73545
 C329 C 0.83163 0.22039 0.83783
 C330 C 0.77325 0.34436 0.68008
 C331 C 0.68148 0.27289 0.65726
 C332 C 0.68324 0.33991 0.75432
 H333 H 0.70778 0.21121 0.68575
 H334 H 0.70903 0.28945 0.80273
 H335 H 0.79575 0.17920 0.79115
 H336 H 0.81758 0.29487 0.71219
 H337 H 0.82401 0.24052 0.65201
 H338 H 0.86348 0.25347 0.69791
 H339 H 0.62780 0.26411 0.77167
 H340 H 0.68488 0.21917 0.83434
 H341 H 0.73998 0.21019 0.63411
 H342 H 0.76961 0.16211 0.66852
 H343 H 0.74528 0.33503 0.82386
 H344 H 0.77115 0.28364 0.85634
 H345 H 0.70611 0.12386 0.72538
 H346 H 0.65199 0.19663 0.74411
 H347 H 0.85699 0.28900 0.78358
 H348 H 0.82833 0.33989 0.75381
 O349 O 0.25504 0.82843 0.82208
 O350 O 0.30800 0.83602 0.78046
 O351 O 0.16636 0.80855 0.74944
 O352 O 0.15033 0.76954 0.70508
 O353 O 0.18571 0.73781 0.84359
 O354 O 0.22596 0.68724 0.85401
 O355 O 0.26336 0.70625 0.65374
 O356 O 0.22932 0.76143 0.64517
 O357 O 0.35199 0.72829 0.72043
 O358 O 0.35972 0.76484 0.77370
 O359 O 0.28571 0.64039 0.74329
 O360 O 0.22768 0.63073 0.77529
 O361 O 0.24539 0.65698 0.68860
 O362 O 0.19316 0.64668 0.73420
 O363 O 0.33533 0.67491 0.75994
 O364 O 0.34254 0.71567 0.81460
 O365 O 0.31751 0.74613 0.67077
 O366 O 0.27571 0.79819 0.65921
 O367 O 0.24516 0.77829 0.85903
 O368 O 0.27344 0.71757 0.86547
 O369 O 0.14963 0.74859 0.79310
 O370 O 0.14422 0.71733 0.73207
 O371 O 0.21548 0.84429 0.76548
 O372 O 0.27158 0.85013 0.73102
 Zr373 Zr 0.25911 0.80640 0.76820
 O374 O 0.29395 0.77420 0.73463
 Zr375 Zr 0.18666 0.75410 0.74814
 O376 O 0.21817 0.72081 0.71208
 Zr377 Zr 0.23895 0.73395 0.82120
 O378 O 0.27172 0.69843 0.78874
 Zr379 Zr 0.26346 0.75056 0.69139
 O380 O 0.22880 0.78547 0.72300
 Zr381 Zr 0.31451 0.72905 0.76475
 O382 O 0.28375 0.76425 0.80014
 Zr383 Zr 0.24162 0.67782 0.74330
 O384 O 0.20725 0.70924 0.77886
 O385 O 0.21565 0.77733 0.79188
 O386 O 0.28581 0.70623 0.72026
 C387 C 0.25045 0.81311 0.85394
 C388 C 0.18144 0.83984 0.75714
 C389 C 0.15433 0.74253 0.82797
 C390 C 0.25507 0.67199 0.65765
 C391 C 0.34796 0.73621 0.68590
 C392 C 0.32001 0.64424 0.75060
 H393 H 0.31437 0.78978 0.72539
 H394 H 0.28157 0.67846 0.80462
 H395 H 0.19992 0.79309 0.80774
 H396 H 0.20260 0.71156 0.69158
 H397 H 0.21185 0.78090 0.65297
 H398 H 0.16137 0.76092 0.68153
 H399 H 0.36774 0.70759 0.80796
 H400 H 0.29595 0.73288 0.86371
 H401 H 0.29655 0.81126 0.67095
 H402 H 0.25498 0.84757 0.70940
 H403 H 0.24205 0.63183 0.79855
 H404 H 0.20905 0.67187 0.83899
 H405 H 0.30130 0.86110 0.78929
 H406 H 0.35218 0.78203 0.79368
 H407 H 0.14436 0.69656 0.75000
 H408 H 0.18177 0.65569 0.71095
 O409 O 0.21945 0.33765 0.69455
 O410 O 0.18387 0.33506 0.75077
 O411 O 0.32792 0.30918 0.73921
 O412 O 0.35410 0.26203 0.76703
 O413 O 0.28854 0.25459 0.63703
 O414 O 0.24387 0.21199 0.62342
 O415 O 0.25321 0.18120 0.82594
 O416 O 0.28913 0.23390 0.84086
 O417 O 0.15340 0.21338 0.78760
 O418 O 0.13396 0.26009 0.74749
 O419 O 0.21383 0.13695 0.73252
 O420 O 0.26384 0.13997 0.68459
 O421 O 0.26599 0.14298 0.77750
 O422 O 0.30544 0.14564 0.72139
 O423 O 0.16161 0.17139 0.73453
 O424 O 0.14249 0.22340 0.69341
 O425 O 0.19729 0.22262 0.83175
 O426 O 0.24220 0.27197 0.84561
 O427 O 0.22985 0.30000 0.64501
 O428 O 0.19642 0.24186 0.63249
 O429 O 0.33454 0.26268 0.67902
 O430 O 0.35352 0.21782 0.72835
 O431 O 0.27642 0.34488 0.74024
 O432 O 0.23198 0.33903 0.78942
 Zr433 Zr 0.23344 0.30564 0.74104
 O434 O 0.20689 0.26457 0.77271
 Zr435 Zr 0.30862 0.25486 0.73130
 O436 O 0.28605 0.21240 0.76475
 Zr437 Zr 0.24121 0.24816 0.66938
 O438 O 0.21681 0.20423 0.69879
 Zr439 Zr 0.24613 0.23344 0.80143
 O440 O 0.27305 0.27661 0.77209
 Zr441 Zr 0.18044 0.22629 0.73797
 O442 O 0.20245 0.27040 0.70638
 Zr443 Zr 0.25658 0.17605 0.73030
 O444 O 0.28186 0.21672 0.69652
 O445 O 0.27042 0.28554 0.70170
 O446 O 0.21830 0.19570 0.76841
 C447 C 0.22037 0.33102 0.65960
 C448 C 0.31152 0.34062 0.74094
 C449 C 0.32233 0.25959 0.64557
 C450 C 0.26134 0.14945 0.81223
 C451 C 0.16433 0.21452 0.82141
 C452 C 0.17876 0.14039 0.73370
 H453 H 0.18899 0.27643 0.78959
 H454 H 0.20380 0.18777 0.68124
 H455 H 0.28204 0.30514 0.68646
 H456 H 0.30582 0.19974 0.77862
 H457 H 0.30552 0.25469 0.83401
 H458 H 0.34816 0.24886 0.79035
 H459 H 0.11960 0.21177 0.70284
 H460 H 0.17638 0.25782 0.64185
 H461 H 0.21992 0.28705 0.84164
 H462 H 0.25393 0.33297 0.80445
 H463 H 0.24093 0.14011 0.66982
 H464 H 0.25937 0.19098 0.63135
 H465 H 0.18823 0.36181 0.74634
 H466 H 0.13785 0.28276 0.73259
 H467 H 0.34966 0.20221 0.70611
 H468 H 0.32281 0.15203 0.74152
 O469 O 0.77206 0.63960 0.72255
 O470 O 0.80714 0.64315 0.78050
 O471 O 0.66440 0.67216 0.75559
 O472 O 0.63842 0.71948 0.78496
 O473 O 0.71511 0.72598 0.65999
 O474 O 0.76372 0.76786 0.65159
 O475 O 0.73344 0.79880 0.85089
 O476 O 0.69400 0.74696 0.86140
 O477 O 0.83650 0.75866 0.82477
 O478 O 0.85830 0.71512 0.78449
 O479 O 0.78493 0.84055 0.75746
 O480 O 0.73724 0.83794 0.70814
 O481 O 0.72821 0.83693 0.80091
 O482 O 0.69478 0.83668 0.74286
 O483 O 0.83459 0.80520 0.77170
 O484 O 0.85633 0.75369 0.73130
 O485 O 0.78700 0.75286 0.86318
 O486 O 0.73900 0.70851 0.87269
 O487 O 0.77004 0.67879 0.67311
 O488 O 0.80764 0.73382 0.66398
 O489 O 0.66497 0.72009 0.69741
 O490 O 0.64223 0.76382 0.74365
 O491 O 0.71402 0.63569 0.76748
 O492 O 0.75664 0.63891 0.81637
 Zr493 Zr 0.75840 0.67303 0.76848
 O494 O 0.78227 0.71327 0.80294
 Zr495 Zr 0.68600 0.72615 0.75175
 O496 O 0.70653 0.76821 0.78672
 Zr497 Zr 0.75945 0.73073 0.69678
 O498 O 0.78263 0.77346 0.72859
 Zr499 Zr 0.74149 0.74606 0.82748
 O500 O 0.71683 0.70332 0.79569
 Zr501 Zr 0.81393 0.75066 0.77173
 O502 O 0.79380 0.70742 0.73743
 Zr503 Zr 0.74079 0.80319 0.75536
 O504 O 0.71730 0.76335 0.71968
 O505 O 0.72593 0.69436 0.72605
 O506 O 0.77420 0.78299 0.79785
 C507 C 0.77462 0.64671 0.68769
 C508 C 0.67942 0.64069 0.76250
 C509 C 0.68043 0.72264 0.66531
 C510 C 0.72781 0.83058 0.83592
 C511 C 0.82164 0.75687 0.85716
 C512 C 0.81925 0.83633 0.76425
 H513 H 0.79759 0.70028 0.82146
 H514 H 0.79794 0.78924 0.71227
 H515 H 0.71473 0.67521 0.71001
 H516 H 0.68593 0.78176 0.79834
 H517 H 0.67823 0.72623 0.85311
 H518 H 0.64050 0.73692 0.80599
 H519 H 0.87842 0.76442 0.74330
 H520 H 0.82647 0.71861 0.67657
 H521 H 0.75968 0.69099 0.87013
 H522 H 0.73492 0.64645 0.83110
 H523 H 0.76076 0.83620 0.69444
 H524 H 0.74495 0.78718 0.65573
 H525 H 0.80293 0.61656 0.77521
 H526 H 0.85587 0.69349 0.76786
 H527 H 0.64985 0.78089 0.72355
 H528 H 0.67453 0.82939 0.75972
 O529 O 0.25031 0.67262 0.31081
 O530 O 0.21334 0.66275 0.25487
 O531 O 0.35089 0.71625 0.25934
 O532 O 0.37189 0.76671 0.23467
 O533 O 0.29672 0.76756 0.35834
 O534 O 0.24641 0.81030 0.36228
 O535 O 0.27018 0.81481 0.15954
 O536 O 0.30816 0.76365 0.15404
 O537 O 0.16690 0.76932 0.19628
 O538 O 0.15252 0.72708 0.24167
 O539 O 0.20949 0.86375 0.25230
 O540 O 0.25762 0.87736 0.29179
 O541 O 0.25893 0.86040 0.20150
 O542 O 0.30236 0.87078 0.25846
 O543 O 0.16427 0.82078 0.24522
 O544 O 0.15087 0.77058 0.29066
 O545 O 0.21570 0.77163 0.15662
 O546 O 0.26515 0.72239 0.15180
 O547 O 0.24718 0.71849 0.35393
 O548 O 0.20402 0.77019 0.35704
 O549 O 0.34581 0.76551 0.31916
 O550 O 0.35861 0.81189 0.26668
 O551 O 0.30740 0.67088 0.26268
 O552 O 0.26189 0.66138 0.21642
 Zr553 Zr 0.25751 0.70086 0.25964
 O554 O 0.22708 0.73249 0.22117
 Zr555 Zr 0.32232 0.76609 0.26533
 O556 O 0.29554 0.79907 0.22556
 Zr557 Zr 0.25125 0.76729 0.32283
 O558 O 0.22186 0.80180 0.28670
 Zr559 Zr 0.26268 0.76648 0.19056
 O560 O 0.29367 0.73294 0.22684
 Zr561 Zr 0.19203 0.76945 0.24888
 O562 O 0.21886 0.73425 0.28759
 Zr563 Zr 0.25802 0.83310 0.25352
 O564 O 0.28749 0.80249 0.29392
 O565 O 0.28825 0.73215 0.29661
 O566 O 0.22635 0.80259 0.21648
 C567 C 0.24723 0.68438 0.34444
 C568 C 0.34090 0.68224 0.25971
 C569 C 0.33130 0.76623 0.35184
 C570 C 0.26543 0.84873 0.16837
 C571 C 0.18102 0.77145 0.16356
 C572 C 0.17577 0.85429 0.24880
 H573 H 0.21263 0.71584 0.20504
 H574 H 0.20544 0.81741 0.30198
 H575 H 0.30236 0.71595 0.31353
 H576 H 0.31399 0.81327 0.21124
 H577 H 0.32645 0.74728 0.16599
 H578 H 0.36503 0.77136 0.20850
 H579 H 0.12718 0.77698 0.27869
 H580 H 0.18697 0.75068 0.34839
 H581 H 0.24124 0.70935 0.15181
 H582 H 0.28024 0.67099 0.19853
 H583 H 0.24301 0.86906 0.31346
 H584 H 0.26614 0.82834 0.35666
 H585 H 0.22175 0.63807 0.26340
 H586 H 0.15872 0.70758 0.25989
 H587 H 0.35205 0.82675 0.28880
 H588 H 0.31640 0.87047 0.23490
 O589 O 0.74243 0.36220 0.27811
 O590 O 0.77224 0.36878 0.21688
 O591 O 0.65040 0.29388 0.25671
 O592 O 0.63924 0.23900 0.22978
 O593 O 0.72260 0.27017 0.34613
 O594 O 0.78099 0.23869 0.34967
 O595 O 0.74387 0.19482 0.15478
 O596 O 0.69138 0.23285 0.14840
 O597 O 0.83367 0.26612 0.17015
 O598 O 0.84223 0.31876 0.20728
 O599 O 0.81927 0.17642 0.24207
 O600 O 0.77946 0.16281 0.29458
 O601 O 0.76377 0.15998 0.20339
 O602 O 0.73331 0.15081 0.26582
 O603 O 0.85190 0.22585 0.22103
 O604 O 0.86001 0.28230 0.25976
 O605 O 0.78226 0.25241 0.13676
 O606 O 0.72249 0.28190 0.13177
 O607 O 0.76376 0.32720 0.32600
 O608 O 0.81314 0.28433 0.33455
 O609 O 0.67168 0.25257 0.31396
 O610 O 0.66155 0.20050 0.27125
 O611 O 0.68356 0.34475 0.23986
 O612 O 0.71988 0.35453 0.18626
 Zr613 Zr 0.73747 0.32463 0.23365
 O614 O 0.76993 0.29367 0.19671
 Zr615 Zr 0.68890 0.25054 0.25802
 O616 O 0.71879 0.21673 0.22106
 Zr617 Zr 0.76408 0.27296 0.30529
 O618 O 0.79720 0.23962 0.27111
 Zr619 Zr 0.73982 0.24840 0.17683
 O620 O 0.70574 0.28131 0.21119
 Zr621 Zr 0.81465 0.27022 0.22486
 O622 O 0.78480 0.30515 0.26121
 Zr623 Zr 0.76553 0.19656 0.24869
 O624 O 0.73342 0.22717 0.28688
 O625 O 0.71828 0.29494 0.27914
 O626 O 0.78544 0.22576 0.20305
 C627 C 0.75393 0.35813 0.31159
 C628 C 0.65338 0.32847 0.24898
 C629 C 0.68844 0.26128 0.34418
 C630 C 0.75435 0.16416 0.16931
 C631 C 0.81691 0.25907 0.13957
 C632 C 0.84883 0.19157 0.22975
 H633 H 0.77860 0.31002 0.17647
 H634 H 0.81844 0.23046 0.28555
 H635 H 0.70337 0.31051 0.29595
 H636 H 0.70292 0.19659 0.21175
 H637 H 0.67128 0.24831 0.15848
 H638 H 0.64527 0.22257 0.20870
 H639 H 0.88271 0.28009 0.24464
 H640 H 0.82743 0.30174 0.31897
 H641 H 0.73781 0.30449 0.13144
 H642 H 0.70113 0.33923 0.17360
 H643 H 0.79863 0.17594 0.30888
 H644 H 0.76551 0.21619 0.34861
 H645 H 0.75990 0.39254 0.22261
 H646 H 0.83586 0.33824 0.22546
 H647 H 0.67627 0.18808 0.29069
 H648 H 0.71304 0.14773 0.24780
 C649 C 0.21733 0.08671 0.06120
 C650 C 0.24301 0.09076 0.08731
 C651 C 0.24309 0.12359 0.11135
 C652 C 0.25596 0.12206 0.14604
 H653 H 0.26321 0.06923 0.09185
 H654 H 0.23101 0.14898 0.10101
 H655 H 0.19543 0.10686 0.05890
 H656 H 0.26517 0.09592 0.15739
 C657 C 0.75023 0.57612 0.57595
 C658 C 0.77334 0.58322 0.60382
 C659 C 0.76642 0.61417 0.62914
 C660 C 0.78197 0.61567 0.66266
 H661 H 0.79749 0.56621 0.60798
 H662 H 0.74762 0.63577 0.62050
 H663 H 0.72513 0.59199 0.57320
 H664 H 0.79851 0.59282 0.67258
 C665 C 0.70946 0.93357 0.08151
 C666 C 0.73332 0.92488 0.10835
 C667 C 0.72588 0.89483 0.13468
 C668 C 0.74535 0.89204 0.16594
 H669 H 0.75953 0.93909 0.11026
 H670 H 0.70597 0.87372 0.12738
 H671 H 0.68241 0.92092 0.08146
 H672 H 0.76378 0.91422 0.17394
 C673 C 0.24404 0.41895 0.56123
 C674 C 0.21873 0.40209 0.58205
 C675 C 0.22844 0.36951 0.60435
 C676 C 0.20975 0.36154 0.63515
 H677 H 0.19098 0.41288 0.58348
 H678 H 0.25223 0.35315 0.59670
 H679 H 0.27213 0.40899 0.56150
 H680 H 0.18807 0.37989 0.64444
 C681 C 0.76028 0.07058 0.92244
 C682 C 0.73808 0.07850 0.89401
 C683 C 0.74606 0.11020 0.86977
 C684 C 0.73035 0.11388 0.83647
 H685 H 0.71337 0.06239 0.88932
 H686 H 0.76507 0.13117 0.87954
 H687 H 0.78577 0.08578 0.92581
 H688 H 0.71341 0.09189 0.82531
 C689 C 0.20495 0.57640 0.41589
 C690 C 0.23120 0.60049 0.40625
 C691 C 0.22729 0.62646 0.37498
 C692 C 0.24697 0.65760 0.37504
 H693 H 0.25651 0.60148 0.42212
 H694 H 0.20872 0.62027 0.35229
 H695 H 0.17874 0.57654 0.40163
 H696 H 0.26310 0.66456 0.39937
 C697 C 0.20785 0.91875 0.92548
 C698 C 0.23608 0.89654 0.91700
 C699 C 0.23291 0.86962 0.88645
 C700 C 0.25098 0.83746 0.88668
 H701 H 0.26181 0.89844 0.93203
 H702 H 0.21550 0.87652 0.86301
 H703 H 0.18153 0.91394 0.91220
 H704 H 0.26597 0.82883 0.91117
 C705 C 0.79030 0.42726 0.42244
 C706 C 0.76786 0.42286 0.39345
 C707 C 0.77270 0.39209 0.36739
 C708 C 0.75400 0.39099 0.33550
 H709 H 0.74487 0.44149 0.38953
 H710 H 0.79063 0.36943 0.37507
 H711 H 0.81432 0.40984 0.42541
 H712 H 0.73739 0.41444 0.32724
 C713 C 0.07469 0.22241 0.07820
 C714 C 0.10217 0.24614 0.08409
 C715 C 0.12678 0.24168 0.11609
 C716 C 0.16126 0.25437 0.11520
 H717 H 0.10685 0.26881 0.06491
 H718 H 0.11662 0.22748 0.14060
 H719 H 0.07186 0.19807 0.09554
 H720 H 0.17234 0.26594 0.08974
 C721 C 0.56720 0.70873 0.59213
 C722 C 0.59947 0.72487 0.59886
 C723 C 0.62169 0.71560 0.63164
 C724 C 0.65740 0.72400 0.63187
 H725 H 0.60973 0.74579 0.57986
 H726 H 0.60862 0.70359 0.65591
 H727 H 0.55778 0.68607 0.60943
 H728 H 0.67010 0.73441 0.60664
 C729 C 0.08054 0.77489 0.93636
 C730 C 0.08875 0.74992 0.91020
 C731 C 0.12094 0.75472 0.88586
 C732 C 0.12137 0.74067 0.85154
 H733 H 0.07155 0.72573 0.90629
 H734 H 0.14451 0.76996 0.89613
 H735 H 0.09640 0.80026 0.93778
 H736 H 0.09676 0.72811 0.84021
 C737 C 0.58037 0.23607 0.42208
 C738 C 0.61006 0.25655 0.41456
 C739 C 0.63347 0.24845 0.38216
 C740 C 0.66676 0.26376 0.37869
 H741 H 0.61657 0.28026 0.43176
 H742 H 0.62272 0.23094 0.36028
 H743 H 0.57498 0.21132 0.40603
 H744 H 0.67796 0.27986 0.40141
 C745 C 0.92474 0.74417 0.08215
 C746 C 0.89497 0.76511 0.08699
 C747 C 0.86979 0.75686 0.11797
 C748 C 0.83532 0.76963 0.11936
 H749 H 0.88945 0.78811 0.06851
 H750 H 0.88023 0.74022 0.14070
 H751 H 0.92838 0.71967 0.09911
 H752 H 0.82417 0.78490 0.09606
 C753 C 0.43441 0.29052 0.57458
 C754 C 0.40636 0.26814 0.58292
 C755 C 0.38151 0.27477 0.61457
 C756 C 0.34814 0.25945 0.61415
 H757 H 0.40141 0.24392 0.56588
 H758 H 0.39059 0.29107 0.63808
 H759 H 0.43844 0.31588 0.59005
 H760 H 0.33911 0.24526 0.58922
 C761 C 0.93618 0.24942 0.91532
 C762 C 0.91525 0.22231 0.90142
 C763 C 0.88974 0.22983 0.87068
 C764 C 0.85708 0.21302 0.86864
 H765 H 0.91574 0.19486 0.91353
 H766 H 0.89723 0.25052 0.85019
 H767 H 0.93261 0.27729 0.90481
 H768 H 0.84820 0.19483 0.89086
 C769 C 0.44426 0.77512 0.42542
 C770 C 0.41256 0.75852 0.41737
 C771 C 0.39085 0.76862 0.38454
 C772 C 0.35483 0.76201 0.38458
 H773 H 0.40197 0.73717 0.43569
 H774 H 0.40423 0.78064 0.36045
 H775 H 0.45383 0.79813 0.40869
 H776 H 0.34185 0.75201 0.40983
 C777 C 0.07916 0.07480 0.21949
 C778 C 0.09080 0.10066 0.24319
 C779 C 0.12332 0.12355 0.23526
 C780 C 0.12659 0.15709 0.25030
 H781 H 0.07605 0.10517 0.26900
 H782 H 0.14474 0.11284 0.21728
 H783 H 0.09210 0.07201 0.19250
 H784 H 0.10384 0.16872 0.26584
 C785 C 0.57010 0.56679 0.73297
 C786 C 0.59848 0.57370 0.75546
 C787 C 0.62254 0.60597 0.74947
 C788 C 0.65561 0.60787 0.76547
 H789 H 0.60395 0.55552 0.77878
 H790 H 0.61300 0.62841 0.73200
 H791 H 0.56586 0.58388 0.70860
 H792 H 0.66578 0.58439 0.78110
 C793 C 0.93110 0.06887 0.76943
 C794 C 0.90675 0.08057 0.74419
 C795 C 0.88384 0.11340 0.75061
 C796 C 0.85376 0.11887 0.73017
 H797 H 0.90339 0.06577 0.71820
 H798 H 0.89113 0.13270 0.77243
 H799 H 0.93316 0.08315 0.79584
 H800 H 0.84530 0.09806 0.71027
 C801 C 0.41690 0.57291 0.28551
 C802 C 0.40476 0.59901 0.26230
 C803 C 0.37320 0.62299 0.27105
 C804 C 0.37058 0.65550 0.25380
 H805 H 0.41912 0.60372 0.23628
 H806 H 0.35310 0.61476 0.29172
 H807 H 0.40367 0.56898 0.31222
 H808 H 0.39266 0.66418 0.23544
 C809 C 0.06997 0.91011 0.72856
 C810 C 0.10034 0.90560 0.74881
 C811 C 0.12461 0.87370 0.74309
 C812 C 0.15800 0.87284 0.75842
 H813 H 0.10710 0.92534 0.77042
 H814 H 0.11471 0.85040 0.72701
 H815 H 0.06412 0.89143 0.70578
 H816 H 0.16824 0.89692 0.77306
 C817 C 0.57788 0.43885 0.22837
 C818 C 0.58501 0.40806 0.24751
 C819 C 0.61710 0.38497 0.23882
 C820 C 0.61999 0.35097 0.25299
 H821 H 0.56727 0.40003 0.27039
 H822 H 0.63887 0.39622 0.22157
 H823 H 0.59446 0.44594 0.20434
 H824 H 0.59732 0.33944 0.26882
 C825 C 0.92348 0.93622 0.27232
 C826 C 0.90748 0.91419 0.24736
 C827 C 0.87932 0.88743 0.25874
 C828 C 0.87684 0.85454 0.24218
 H829 H 0.91589 0.91487 0.21843
 H830 H 0.86008 0.89508 0.28044
 H831 H 0.91729 0.93232 0.30157
 H832 H 0.89768 0.84618 0.22234
 C833 C 0.42407 0.40966 0.77065
 C834 C 0.39340 0.40622 0.75045
 C835 C 0.36913 0.37379 0.75452
 C836 C 0.33453 0.37420 0.74191
 H837 H 0.38655 0.42708 0.72996
 H838 H 0.38012 0.34890 0.76705
 H839 H 0.42974 0.39002 0.79265
 H840 H 0.32295 0.39972 0.73138
 C841 C 0.09050 0.24578 0.92883
 C842 C 0.10194 0.21901 0.90611
 C843 C 0.13353 0.22503 0.88116
 C844 C 0.13652 0.20582 0.84970
 H845 H 0.08677 0.19325 0.90442
 H846 H 0.15278 0.24718 0.88699
 H847 H 0.10482 0.27209 0.92897
 H848 H 0.11535 0.18593 0.84255
 C849 C 0.57856 0.71776 0.43335
 C850 C 0.60854 0.73837 0.42796
 C851 C 0.63046 0.73502 0.39388
 C852 C 0.66441 0.74881 0.39233
 H853 H 0.61611 0.75931 0.44810
 H854 H 0.61833 0.72227 0.36952
 H855 H 0.57196 0.69569 0.41412
 H856 H 0.67737 0.75926 0.41732
 C857 C 0.92921 0.78587 0.93290
 C858 C 0.90596 0.76066 0.91928
 C859 C 0.88008 0.76974 0.88929
 C860 C 0.84596 0.75606 0.88976
 H861 H 0.90525 0.73293 0.93074
 H862 H 0.88952 0.78639 0.86611
 H863 H 0.92688 0.81431 0.92365
 H864 H 0.83623 0.74162 0.91430
 C865 C 0.43799 0.28028 0.41473
 C866 C 0.40948 0.25789 0.40819
 C867 C 0.38665 0.26181 0.37468
 C868 C 0.35245 0.24841 0.37415
 H869 H 0.40276 0.23616 0.42785
 H870 H 0.39776 0.27580 0.35047
 H871 H 0.44344 0.30331 0.39624
 H872 H 0.34061 0.23703 0.39935
 C873 C 0.07393 0.74141 0.08677
 C874 C 0.09853 0.76641 0.09823
 C875 C 0.12346 0.75898 0.12962
 C876 C 0.15618 0.77571 0.13160
 H877 H 0.10067 0.79275 0.08399
 H878 H 0.11507 0.73969 0.15110
 H879 H 0.07360 0.71408 0.09910
 H880 H 0.16549 0.79267 0.10858
 C881 C 0.57519 0.24619 0.58027
 C882 C 0.60112 0.27045 0.59003
 C883 C 0.62443 0.26382 0.62265
 C884 C 0.65680 0.28083 0.62610
 H885 H 0.60569 0.29511 0.57350
 H886 H 0.61578 0.24370 0.64325
 H887 H 0.57190 0.22080 0.59594
 H888 H 0.66667 0.29874 0.60406
 C889 C 0.92574 0.22559 0.06927
 C890 C 0.89821 0.24955 0.07348
 C891 C 0.87375 0.24664 0.10592
 C892 C 0.83919 0.25903 0.10543
 H893 H 0.89426 0.27171 0.05361
 H894 H 0.88453 0.23412 0.13105
 H895 H 0.92773 0.20197 0.08770
 H896 H 0.82713 0.26891 0.07977
 C897 C 0.42739 0.76800 0.58081
 C898 C 0.41501 0.74307 0.60515
 C899 C 0.38444 0.75129 0.63047
 C900 C 0.38034 0.73213 0.66192
 H901 H 0.42767 0.71598 0.60650
 H902 H 0.36492 0.77267 0.62308
 H903 H 0.41678 0.79597 0.58112
 H904 H 0.40130 0.71255 0.67025
 C905 C 0.21468 0.07418 0.91312
 C906 C 0.24403 0.08286 0.89253
 C907 C 0.24243 0.11478 0.86718
 C908 C 0.26485 0.11804 0.83795
 H909 H 0.26904 0.06676 0.89448
 H910 H 0.22141 0.13552 0.87182
 H911 H 0.18941 0.08959 0.90938
 H912 H 0.28392 0.09605 0.83129
 C913 C 0.78747 0.58193 0.42911
 C914 C 0.76365 0.58955 0.40196
 C915 C 0.76804 0.62227 0.37816
 C916 C 0.74863 0.62557 0.34687
 H917 H 0.74008 0.57170 0.39752
 H918 H 0.78676 0.64403 0.38662
 H919 H 0.81197 0.59866 0.43248
 H920 H 0.73145 0.60285 0.33766
 C921 C 0.71811 0.08372 0.06609
 C922 C 0.74347 0.09534 0.09036
 C923 C 0.73740 0.12756 0.11435
 C924 C 0.75709 0.13151 0.14537
 H925 H 0.76920 0.08050 0.09331
 H926 H 0.71694 0.14793 0.10671
 H927 H 0.69169 0.09750 0.06493
 H928 H 0.77575 0.10974 0.15383
 C929 C 0.21665 0.56881 0.57898
 C930 C 0.24233 0.59406 0.58679
 C931 C 0.23942 0.61669 0.62080
 C932 C 0.25754 0.64867 0.62411
 H933 H 0.26513 0.59848 0.56786
 H934 H 0.22142 0.60749 0.64301
 H935 H 0.19303 0.56612 0.59721
 H936 H 0.27379 0.65877 0.60095
 C937 C 0.75350 0.91240 0.93983
 C938 C 0.72949 0.90055 0.91450
 C939 C 0.73656 0.86703 0.89261
 C940 C 0.72001 0.86229 0.85994
 H941 H 0.70479 0.91633 0.90894
 H942 H 0.75656 0.84706 0.90232
 H943 H 0.77898 0.89749 0.94406
 H944 H 0.70231 0.88383 0.84911
 C945 C 0.21947 0.42023 0.42011
 C946 C 0.24694 0.41329 0.39660
 C947 C 0.24567 0.38005 0.37316
 C948 C 0.26536 0.37765 0.34199
 H949 H 0.27005 0.43213 0.39439
 H950 H 0.22723 0.35771 0.38084
 H951 H 0.19581 0.40195 0.42065
 H952 H 0.28186 0.40097 0.33298
 C953 C 0.21114 0.93667 0.08249
 C954 C 0.24158 0.92180 0.09685
 C955 C 0.24029 0.89866 0.13048
 C956 C 0.26781 0.87556 0.13801
 H957 H 0.26780 0.92574 0.08302
 H958 H 0.21594 0.89884 0.14791
 H959 H 0.18481 0.93174 0.09574
 H960 H 0.29062 0.87313 0.11874
 C961 C 0.75098 0.41967 0.57021
 C962 C 0.77230 0.41279 0.59958
 C963 C 0.76560 0.38009 0.62289
 C964 C 0.77876 0.37776 0.65745
 H965 H 0.79478 0.43126 0.60642
 H966 H 0.74930 0.35762 0.61163
 H967 H 0.72724 0.40233 0.56489
 H968 H 0.79291 0.40115 0.66968
 C969 C 0.06808 0.06543 0.71627
 C970 C 0.09954 0.07202 0.73407
 C971 C 0.12200 0.10466 0.72549
 C972 C 0.15707 0.10625 0.73612
 H973 H 0.10833 0.05371 0.75622
 H974 H 0.10937 0.12806 0.71171
 H975 H 0.06026 0.08231 0.69269
 H976 H 0.17007 0.08200 0.74793
 C977 C 0.57712 0.57753 0.28373
 C978 C 0.58386 0.60825 0.26426
 C979 C 0.61741 0.63026 0.27017
 C980 C 0.61828 0.66588 0.26060
 H981 H 0.56468 0.61704 0.24298
 H982 H 0.64161 0.61716 0.28174
 H983 H 0.59511 0.56990 0.30645
 H984 H 0.59321 0.67934 0.25162
 C985 C 0.06175 0.92165 0.22521
 C986 C 0.09019 0.91424 0.24718
 C987 C 0.11457 0.88266 0.24024
 C988 C 0.14929 0.88462 0.25164
 H989 H 0.09678 0.93283 0.26986
 H990 H 0.10448 0.85849 0.22566
 H991 H 0.05649 0.90454 0.20108
 H992 H 0.15911 0.91012 0.26405
 C993 C 0.57077 0.41066 0.72849
 C994 C 0.60010 0.40422 0.74991
 C995 C 0.62537 0.37333 0.74229
 C996 C 0.65850 0.37189 0.75833
 H997 H 0.60545 0.42179 0.77370
 H998 H 0.61654 0.35135 0.72388
 H999 H 0.56648 0.39440 0.70359
 H1000 H 0.66782 0.39491 0.77513
 C1001 C 0.92768 0.08777 0.26231
 C1002 C 0.91626 0.11136 0.23627
 C1003 C 0.88601 0.13709 0.24419
 C1004 C 0.88119 0.16786 0.22430
 H1005 H 0.92877 0.11130 0.20891
 H1006 H 0.86711 0.13046 0.26657
 H1007 H 0.91663 0.08966 0.29024
 H1008 H 0.90135 0.17579 0.20355
 C1009 C 0.42728 0.56649 0.77727
 C1010 C 0.39928 0.57547 0.75506
 C1011 C 0.37588 0.60772 0.76285
 C1012 C 0.34314 0.61117 0.74649
 H1013 H 0.39365 0.55901 0.73055
 H1014 H 0.38567 0.62890 0.78172
 H1015 H 0.43172 0.58178 0.80276
 H1016 H 0.33281 0.58887 0.72930
 C1017 C 0.92978 0.91218 0.78432
 C1018 C 0.89937 0.90402 0.76531
 C1019 C 0.87626 0.87196 0.77475
 C1020 C 0.84223 0.86962 0.76117
 H1021 H 0.89165 0.92091 0.74166
 H1022 H 0.88748 0.84981 0.79155
 H1023 H 0.93663 0.89670 0.80914
 H1024 H 0.83095 0.89286 0.74595
 C1025 C 0.42391 0.43394 0.22863
 C1026 C 0.41837 0.40302 0.24811
 C1027 C 0.38747 0.37825 0.23965
 C1028 C 0.38602 0.34427 0.25408
 H1029 H 0.43637 0.39621 0.27110
 H1030 H 0.36530 0.38826 0.22226
 H1031 H 0.40707 0.43981 0.20453
 H1032 H 0.40907 0.33388 0.27002
   
