data_POSCAR
  _audit_creation_date              2014-09-24
  _audit_creation_method            'ToBaCCo'
  _symmetry_space_group_name_H-M    'P1'
  _symmetry_Int_Tables_number       1
  _symmetry_cell_setting            triclinic
  loop_
  _symmetry_equiv_pos_as_xyz
 x,y,z
_cell_length_a 21.1185
_cell_length_b 20.8765
_cell_length_c 20.8133
_cell_angle_alpha 90.313700
_cell_angle_beta 89.631800
_cell_angle_gamma 88.756100
loop_
  _atom_site_label
  _atom_site_type_symbol
  _atom_site_fract_x
  _atom_site_fract_y
  _atom_site_fract_z
C1 C 0.55943 0.98826 -0.36216
 C2 C 0.50288 1.00149 -0.32841
 C3 C 0.44648 1.01764 -0.35884
 C4 C 0.44498 1.02001 -0.42650
 C5 C 0.50122 1.00761 -0.46290
 C6 C 0.55906 0.99260 -0.43071
 C7 C 0.61276 0.97690 -0.46828
 C8 C 0.61041 0.97681 -0.53532
 C9 C 0.55428 0.99277 -0.56861
 C10 C 0.49867 1.00758 -0.53162
 C11 C 0.38824 1.03324 -0.45856
 C12 C 0.38501 1.02962 -0.52466
 C13 C 0.43947 1.01857 -0.56276
 C14 C 0.43538 1.01258 -0.63056
 C15 C 0.49018 0.99616 -0.66561
 C16 C 0.55037 0.98847 -0.63719
 H17 H 0.65680 0.96164 -0.44642
 H18 H 0.65270 0.96036 -0.56026
 H19 H 0.34472 1.04466 -0.43306
 H20 H 0.33815 1.03357 -0.54456
 H21 H 0.50255 1.00053 -0.27631
 H22 H 0.48601 0.99523 -0.71747
 C23 C -0.43041 1.62806 -0.00212
 C24 C -0.48396 1.66825 -0.00478
 C25 C -0.54586 1.64468 -0.00846
 C26 C -0.55345 1.57665 -0.00718
 C27 C -0.49897 1.53531 -0.00303
 C28 C -0.43749 1.56117 -0.00351
 C29 C -0.38463 1.51959 -0.00882
 C30 C -0.39145 1.45368 -0.00948
 C31 C -0.45128 1.42623 -0.00229
 C32 C -0.50576 1.46757 -0.00103
 C33 C -0.61280 1.54789 -0.01504
 C34 C -0.61963 1.48215 -0.00982
 C35 C -0.56704 1.44130 -0.00053
 C36 C -0.57383 1.37440 0.00494
 C37 C -0.51985 1.33450 0.00559
 C38 C -0.45871 1.35880 0.00035
 H39 H -0.33728 1.53755 -0.01452
 H40 H -0.34882 1.42525 -0.01690
 H41 H -0.65502 1.57458 -0.02761
 H42 H -0.66665 1.46352 -0.01572
 H43 H -0.47656 1.71930 -0.00078
 H44 H -0.52578 1.28323 0.01000
 C45 C 0.04897 0.36608 0.44601
 C46 C 0.06016 0.33801 0.50601
 C47 C 0.04756 0.36939 0.56465
 C48 C 0.02429 0.43399 0.56322
 C49 C 0.01552 0.46521 0.50309
 C50 C 0.02781 0.43124 0.44448
 C51 C 0.02181 0.46453 0.38614
 C52 C 0.00022 0.52771 0.38453
 C53 C -0.01325 0.56189 0.44131
 C54 C -0.00492 0.53096 0.50145
 C55 C 0.01233 0.46942 0.61987
 C56 C -0.00975 0.53265 0.61813
 C57 C -0.01691 0.56560 0.55975
 C58 C -0.03814 0.63115 0.55742
 C59 C -0.04755 0.65896 0.49680
 C60 C -0.03502 0.62624 0.43945
 H61 H 0.03517 0.44296 0.34066
 H62 H -0.00543 0.54952 0.33786
 H63 H 0.02056 0.44936 0.66682
 H64 H -0.02176 0.55462 0.66374
 H65 H 0.07093 0.28712 0.50732
 H66 H -0.05954 0.70953 0.49328
 O67 O -0.08645 1.00298 -0.16418
 O68 O -0.08579 1.00453 0.16847
 O69 O -0.16285 0.91683 -0.00393
 O70 O -0.16545 1.08790 0.00591
 O71 O -0.08978 1.16592 0.00993
 O72 O -0.08612 0.83640 -0.00300
 O73 O -0.16327 1.00173 0.09065
 O74 O -0.16351 1.00012 -0.08523
 Zr75 Zr -0.11228 1.00180 0.00265
 O76 O -0.05884 1.05894 0.06159
 O77 O -0.05824 0.94331 -0.05659
 C78 C -0.14471 1.00121 -0.14497
 C79 C -0.14450 1.00388 0.15002
 C80 C -0.14429 0.85744 -0.00717
 C81 C -0.14795 1.14682 0.00995
 H82 H -0.08435 0.91565 0.08674
 O83 O -0.05739 0.94309 0.05990
 H84 H -0.08699 1.08757 -0.08158
 O85 O -0.05936 1.05965 -0.05507
 O86 O 0.08796 0.99539 0.16480
 O87 O 0.08221 0.99982 -0.16620
 O88 O 0.00337 0.83499 0.08702
 O89 O -0.00414 1.16549 0.09053
 O90 O -0.00423 1.16711 -0.08216
 O91 O -0.00000 0.83504 -0.08593
 O92 O 0.16191 0.91275 -0.00099
 O93 O 0.15953 1.08411 -0.00635
 O94 O 0.08637 0.83477 0.00389
 O95 O 0.08311 1.16477 -0.00172
 O96 O 0.00160 0.91297 0.16634
 O97 O -0.00630 0.91348 -0.16371
 O98 O 0.00163 1.08935 -0.16162
 O99 O 0.00076 1.08687 0.16810
 O100 O 0.16248 0.99427 0.08308
 O101 O 0.15957 1.00183 -0.08864
 Zr102 Zr 0.00005 1.00017 0.11512
 Zr103 Zr -0.00216 1.00110 -0.11175
 Zr104 Zr -0.00034 0.88740 0.00076
 Zr105 Zr -0.00273 1.11371 0.00330
 Zr106 Zr 0.10888 0.99907 -0.00111
 O107 O 0.05433 1.05856 -0.05714
 O108 O 0.05686 0.94157 0.05823
 C109 C 0.14585 0.99207 0.14291
 C110 C 0.14060 1.00146 -0.14774
 C111 C 0.00372 0.85390 0.14644
 C112 C -0.00182 1.14616 0.14955
 C113 C -0.00037 1.14850 -0.14156
 C114 C -0.00392 0.85413 -0.14495
 C115 C 0.14451 0.85379 0.00288
 C116 C 0.14123 1.14364 -0.00755
 H117 H 0.08290 0.91407 -0.08612
 O118 O 0.05554 0.94166 -0.05833
 H119 H 0.08401 1.08424 0.08574
 O120 O 0.05602 1.05761 0.05922
 C121 C 0.30947 0.97621 0.25631
 C122 C 0.26588 1.02699 0.26691
 N123 N 0.28018 1.07381 0.30964
 C124 C 0.33529 1.07135 0.34331
 C125 C 0.37809 1.01900 0.33481
 N126 N 0.36429 0.97378 0.28984
 N127 N 0.29657 0.93026 0.21234
 C128 C 0.24223 0.93303 0.17790
 C129 C 0.19851 0.98386 0.18793
 N130 N 0.21136 1.02997 0.23232
 H131 H 0.34601 1.11038 0.37565
 H132 H 0.23376 0.89661 0.14188
 C133 C -0.29024 1.00452 0.29148
 C134 C -0.29835 0.97547 0.23131
 N135 N -0.35367 0.94697 0.21783
 C136 C -0.40218 0.94763 0.26094
 C137 C -0.39625 0.97951 0.32086
 N138 N -0.33933 1.00649 0.33444
 N139 N -0.23388 1.03160 0.30523
 C140 C -0.18561 1.03123 0.26132
 C141 C -0.19443 1.00371 0.20019
 N142 N -0.25084 0.97627 0.18707
 H143 H -0.44474 0.92265 0.24840
 H144 H -0.14137 1.05340 0.27348
 C145 C -0.28329 1.00045 -0.29090
 C146 C -0.29230 0.96722 -0.23310
 N147 N -0.34628 0.93485 -0.22364
 C148 C -0.39296 0.93636 -0.26800
 C149 C -0.38666 0.97349 -0.32436
 N150 N -0.33073 1.00338 -0.33492
 N151 N -0.22856 1.03208 -0.30038
 C152 C -0.18291 1.03243 -0.25451
 C153 C -0.19296 1.00103 -0.19568
 N154 N -0.24748 0.96879 -0.18673
 H155 H -0.43566 0.91015 -0.25843
 H156 H -0.13977 1.05817 -0.26329
 C157 C 0.28688 0.99735 -0.28606
 C158 C 0.29103 1.03543 -0.23053
 N159 N 0.34348 1.07026 -0.22029
 C160 C 0.39262 1.06794 -0.26266
 C161 C 0.38986 1.02791 -0.31717
 N162 N 0.33676 0.99346 -0.32739
 N163 N 0.23364 0.96373 -0.29693
 C164 C 0.18458 0.96594 -0.25425
 C165 C 0.18986 1.00200 -0.19741
 N166 N 0.24301 1.03604 -0.18711
 H167 H 0.43419 1.09583 -0.25314
 H168 H 0.14287 0.93819 -0.26352
 C169 C 0.29838 1.26143 -0.03150
 C170 C 0.25309 1.27619 0.01646
 N171 N 0.26413 1.32455 0.05863
 C172 C 0.31850 1.35839 0.05523
 C173 C 0.36394 1.34318 0.00747
 N174 N 0.35249 1.29487 -0.03460
 N175 N 0.28889 1.21213 -0.07258
 C176 C 0.23668 1.17590 -0.06725
 C177 C 0.19186 1.18929 -0.01856
 N178 N 0.20067 1.23970 0.02206
 H179 H 0.32687 1.39580 0.09017
 H180 H 0.23082 1.13593 -0.09983
 C181 C 0.29552 0.71864 0.01306
 C182 C 0.30330 0.77825 -0.01603
 N183 N 0.35999 0.79284 -0.04218
 C184 C 0.40963 0.75047 -0.04065
 C185 C 0.40279 0.68996 -0.01117
 N186 N 0.34539 0.67666 0.01558
 N187 N 0.23794 0.70326 0.03729
 C188 C 0.18774 0.74512 0.03369
 C189 C 0.19587 0.80541 0.00540
 N190 N 0.25374 0.82035 -0.01860
 H191 H 0.45299 0.76344 -0.06472
 H192 H 0.14244 0.73195 0.05369
 C193 C -0.30018 0.73931 -0.03570
 C194 C -0.25788 0.72631 0.01472
 N195 N -0.27155 0.67963 0.05755
 C196 C -0.32570 0.64575 0.05244
 C197 C -0.36810 0.65901 0.00208
 N198 N -0.35407 0.70573 -0.04060
 N199 N -0.28821 0.78722 -0.07735
 C200 C -0.23634 0.82365 -0.07033
 C201 C -0.19447 0.81180 -0.01937
 N202 N -0.20581 0.76291 0.02194
 H203 H -0.33632 0.60987 0.08803
 H204 H -0.22844 0.86253 -0.10343
 C205 C -0.29993 1.28053 0.02531
 C206 C -0.30471 1.22501 -0.01239
 N207 N -0.35884 1.21399 -0.04489
 C208 C -0.40859 1.25622 -0.04165
 C209 C -0.40459 1.31185 -0.00337
 N210 N -0.35026 1.32190 0.02995
 N211 N -0.24458 1.29283 0.05543
 C212 C -0.19386 1.25174 0.04983
 C213 C -0.19931 1.19512 0.01370
 N214 N -0.25484 1.18326 -0.01649
 H215 H -0.45061 1.24676 -0.06934
 H216 H -0.15039 1.26237 0.07448
 C217 C 0.00757 1.28819 0.29386
 C218 C 0.04877 1.23459 0.29391
 N219 N 0.09299 1.22868 0.34037
 C220 C 0.09676 1.27290 0.38814
 C221 C 0.05315 1.32540 0.39098
 N222 N 0.01010 1.33160 0.34260
 N223 N -0.03529 1.29508 0.24588
 C224 C -0.03897 1.25041 0.19822
 C225 C 0.00081 1.19562 0.19961
 N226 N 0.04400 1.18926 0.24742
 H227 H 0.13365 1.26682 0.42358
 H228 H -0.07335 1.25691 0.16041
 C229 C 0.00691 1.29225 -0.28294
 C230 C 0.05188 1.24175 -0.28188
 N231 N 0.09836 1.23894 -0.32686
 C232 C 0.10076 1.28296 -0.37443
 C233 C 0.05331 1.33173 -0.37887
 N234 N 0.00809 1.33538 -0.33169
 N235 N -0.03858 1.29582 -0.23654
 C236 C -0.04139 1.25074 -0.18961
 C237 C 0.00211 1.19880 -0.19024
 N238 N 0.04801 1.19586 -0.23626
 H239 H 0.13899 1.27914 -0.40924
 H240 H -0.07808 1.25447 -0.15312
 C241 C -0.00538 0.71071 -0.28872
 C242 C -0.04723 0.76376 -0.29119
 N243 N -0.08899 0.76872 -0.34002
 C244 C -0.08965 0.72414 -0.38770
 C245 C -0.04530 0.67216 -0.38798
 N246 N -0.00478 0.66691 -0.33733
 N247 N 0.03505 0.70475 -0.23854
 C248 C 0.03573 0.74977 -0.19102
 C249 C -0.00470 0.80405 -0.19467
 N250 N -0.04546 0.80956 -0.24474
 H251 H -0.12480 0.72947 -0.42500
 H252 H 0.06847 0.74405 -0.15154
 C253 C 0.00814 0.71259 0.29006
 C254 C -0.04598 0.75180 0.28118
 N255 N -0.09710 0.74492 0.32005
 C256 C -0.09617 0.70155 0.36845
 C257 C -0.04115 0.66402 0.37946
 N258 N 0.00974 0.67040 0.33954
 N259 N 0.05895 0.71904 0.25044
 C260 C 0.05827 0.76338 0.20273
 C261 C 0.00504 0.80407 0.19545
 N262 N -0.04603 0.79708 0.23468
 H263 H -0.13713 0.69796 0.39966
 H264 H 0.09933 0.76794 0.17181
   
