data_POSCAR
  _audit_creation_date              2014-09-24
  _audit_creation_method            'ToBaCCo'
  _symmetry_space_group_name_H-M    'P1'
  _symmetry_Int_Tables_number       1
  _symmetry_cell_setting            triclinic
  loop_
  _symmetry_equiv_pos_as_xyz
 x,y,z
_cell_length_a 20.0941
_cell_length_b 20.2418
_cell_length_c 32.4711
_cell_angle_alpha 90.025500
_cell_angle_beta 89.769700
_cell_angle_gamma 90.001700
loop_
  _atom_site_label
  _atom_site_type_symbol
  _atom_site_fract_x
  _atom_site_fract_y
  _atom_site_fract_z
O1 O 0.12669 0.07886 0.02797
 O2 O -0.12598 -0.07615 0.02810
 O3 O -0.07719 0.12651 0.03010
 O4 O 0.07792 -0.12376 0.02747
 O5 O -0.11377 0.03449 0.05204
 O6 O 0.11480 -0.03267 0.05044
 O7 O -0.03388 -0.11228 0.05039
 O8 O 0.03491 0.11436 0.05162
 C9 C 0.09489 0.10541 0.05649
 C10 C -0.09384 -0.10373 0.05591
 C11 C -0.10479 0.09392 0.05791
 C12 C 0.10575 -0.09227 0.05555
 O13 O 0.12723 -0.07365 -0.02934
 O14 O -0.12725 0.07836 -0.02690
 O15 O 0.07604 0.12845 -0.02839
 O16 O -0.07610 -0.12362 -0.02938
 O17 O -0.11399 -0.03214 -0.05102
 O18 O 0.11381 0.03769 -0.05162
 O19 O 0.03551 -0.11008 -0.05208
 O20 O -0.03597 0.11572 -0.05014
 Co21 Co 0.10910 0.00248 -0.00057
 Co22 Co -0.10871 0.00120 0.00049
 Co23 Co -0.00049 0.10987 0.00071
 Co24 Co 0.00080 -0.10606 -0.00081
 O25 O 0.00018 0.00188 -0.00005
 C26 C 0.09534 -0.10057 -0.05753
 C27 C -0.09587 0.10626 -0.05507
 C28 C 0.10407 0.09719 -0.05665
 C29 C -0.10428 -0.09143 -0.05699
 O30 O 0.42152 0.37145 0.47377
 O31 O 0.57905 0.62294 0.47162
 O32 O 0.37475 0.57368 0.46967
 O33 O 0.62578 0.42067 0.47107
 O34 O 0.46752 0.61022 0.44757
 O35 O 0.53341 0.38306 0.44953
 O36 O 0.61446 0.53149 0.44875
 O37 O 0.38629 0.46187 0.44942
 C38 C 0.39461 0.40211 0.44513
 C39 C 0.60621 0.59104 0.44346
 C40 C 0.40770 0.60089 0.44177
 C41 C 0.59325 0.39245 0.44353
 O42 O 0.57695 0.37169 0.52844
 O43 O 0.42293 0.62528 0.52614
 O44 O 0.37336 0.42376 0.53024
 O45 O 0.62649 0.57336 0.52892
 O46 O 0.53430 0.61208 0.55046
 O47 O 0.46522 0.38589 0.55243
 O48 O 0.61336 0.46279 0.55115
 O49 O 0.38613 0.53544 0.55056
 Co50 Co 0.49936 0.38957 0.50094
 Co51 Co 0.50087 0.60607 0.49905
 Co52 Co 0.39148 0.49862 0.49998
 Co53 Co 0.60868 0.49715 0.49996
 O54 O 0.50010 0.49785 0.49998
 C55 C 0.60426 0.40337 0.55652
 C56 C 0.39529 0.59508 0.55482
 C57 C 0.40552 0.39636 0.55825
 C58 C 0.59398 0.60212 0.55640
 C59 C 0.12757 0.13044 0.09236
 C60 C 0.15348 0.15195 0.12294
 C61 C 0.18266 0.17839 0.15976
 C62 C 0.15765 0.23694 0.17668
 C63 C 0.18474 0.26237 0.21291
 C64 C 0.23728 0.22946 0.23275
 C65 C 0.26236 0.17075 0.21540
 C66 C 0.23509 0.14535 0.17913
 C67 C 0.26560 0.25644 0.27138
 C68 C 0.33478 0.25642 0.27791
 C69 C 0.36135 0.28370 0.31384
 C70 C 0.31912 0.31107 0.34367
 C71 C 0.25023 0.31060 0.33768
 C72 C 0.22359 0.28344 0.30180
 C73 C 0.34635 0.34162 0.37984
 C74 C 0.36860 0.36852 0.40987
 H75 H 0.11709 0.26291 0.16189
 H76 H 0.16505 0.30815 0.22517
 H77 H 0.30228 0.14397 0.23022
 H78 H 0.25458 0.09980 0.16636
 H79 H 0.36840 0.23667 0.25485
 H80 H 0.41480 0.28415 0.31812
 H81 H 0.21712 0.33166 0.36060
 H82 H 0.17009 0.28332 0.29791
 C83 C 0.87379 0.86954 0.09155
 C84 C 0.84787 0.84658 0.12182
 C85 C 0.81840 0.81846 0.15819
 C86 C 0.77198 0.85450 0.18127
 C87 C 0.74461 0.82742 0.21715
 C88 C 0.76356 0.76398 0.23038
 C89 C 0.80999 0.72807 0.20679
 C90 C 0.83721 0.75520 0.17096
 C91 C 0.73543 0.73538 0.26873
 C92 C 0.77632 0.69970 0.29587
 C93 C 0.74978 0.67186 0.33169
 C94 C 0.68215 0.67935 0.34090
 C95 C 0.64108 0.71508 0.31426
 C96 C 0.66754 0.74302 0.27839
 C97 C 0.65488 0.64927 0.37731
 C98 C 0.63251 0.62316 0.40766
 H99 H 0.75733 0.90366 0.17172
 H100 H 0.70956 0.85653 0.23492
 H101 H 0.82482 0.67877 0.21585
 H102 H 0.87308 0.72689 0.15326
 H103 H 0.82894 0.69378 0.28958
 H104 H 0.78199 0.64435 0.35216
 H105 H 0.58856 0.72089 0.32105
 H106 H 0.63470 0.76957 0.25786
 C107 C 0.87091 0.13215 0.90951
 C108 C 0.84416 0.15428 0.87940
 C109 C 0.81362 0.18134 0.84319
 C110 C 0.78509 0.13950 0.81383
 C111 C 0.75752 0.16587 0.77796
 C112 C 0.75837 0.23448 0.77100
 C113 C 0.78660 0.27611 0.80093
 C114 C 0.81406 0.24966 0.83675
 C115 C 0.73086 0.26258 0.73247
 C116 C 0.76428 0.31416 0.71201
 C117 C 0.73834 0.34104 0.67588
 C118 C 0.67876 0.31677 0.65968
 C119 C 0.64519 0.26530 0.67967
 C120 C 0.67111 0.23825 0.71584
 C121 C 0.65181 0.34565 0.62293
 C122 C 0.62985 0.37122 0.59239
 H123 H 0.78481 0.08649 0.81846
 H124 H 0.73682 0.13254 0.75527
 H125 H 0.78713 0.32917 0.79672
 H126 H 0.83599 0.28246 0.85932
 H127 H 0.81085 0.33326 0.72372
 H128 H 0.76472 0.38084 0.66061
 H129 H 0.59884 0.24639 0.66746
 H130 H 0.64391 0.19909 0.73115
 C131 C 0.12780 0.87453 0.90633
 C132 C 0.15348 0.85304 0.87555
 C133 C 0.18233 0.82657 0.83850
 C134 C 0.14675 0.78034 0.81533
 C135 C 0.17419 0.75440 0.77921
 C136 C 0.23769 0.77444 0.76575
 C137 C 0.27312 0.82100 0.78926
 C138 C 0.24551 0.84694 0.82541
 C139 C 0.26686 0.74631 0.72754
 C140 C 0.33446 0.72833 0.72590
 C141 C 0.36122 0.69969 0.69033
 C142 C 0.32084 0.68883 0.65598
 C143 C 0.25379 0.70731 0.65711
 C144 C 0.22693 0.73592 0.69263
 C145 C 0.34758 0.65692 0.62000
 C146 C 0.36951 0.62920 0.59007
 H147 H 0.09784 0.76419 0.82525
 H148 H 0.14613 0.71794 0.76214
 H149 H 0.32177 0.83790 0.77943
 H150 H 0.27333 0.88291 0.84308
 H151 H 0.36624 0.73499 0.75244
 H152 H 0.41314 0.68526 0.68980
 H153 H 0.22214 0.69916 0.63065
 H154 H 0.17496 0.75008 0.69275
 C155 C 0.12785 0.12730 0.91102
 C156 C 0.15033 0.15424 0.88089
 C157 C 0.17795 0.18526 0.84474
 C158 C 0.24651 0.18226 0.83727
 C159 C 0.27349 0.21096 0.80178
 C160 C 0.23219 0.24309 0.77317
 C161 C 0.16329 0.24606 0.78104
 C162 C 0.13641 0.21733 0.81660
 C163 C 0.26090 0.27260 0.73512
 C164 C 0.22791 0.26643 0.69714
 C165 C 0.25592 0.29268 0.66118
 C166 C 0.31715 0.32555 0.66267
 C167 C 0.35004 0.33248 0.70033
 C168 C 0.32217 0.30625 0.73631
 C169 C 0.34704 0.35100 0.62553
 C170 C 0.37312 0.37190 0.59465
 H171 H 0.27909 0.15726 0.85872
 H172 H 0.32653 0.20693 0.79636
 H173 H 0.13028 0.27108 0.75989
 H174 H 0.08325 0.21997 0.82207
 H175 H 0.18114 0.24009 0.69508
 H176 H 0.23014 0.28678 0.63217
 H177 H 0.39742 0.35791 0.70187
 H178 H 0.34839 0.31263 0.76510
 C179 C 0.86947 0.87671 0.90708
 C180 C 0.84696 0.85086 0.87670
 C181 C 0.81936 0.82101 0.84030
 C182 C 0.85838 0.77952 0.81556
 C183 C 0.83161 0.75140 0.77990
 C184 C 0.76543 0.76460 0.76846
 C185 C 0.72661 0.80620 0.79366
 C186 C 0.75343 0.83417 0.82929
 C187 C 0.73696 0.73551 0.73036
 C188 C 0.69533 0.77337 0.70482
 C189 C 0.66780 0.74590 0.66925
 C190 C 0.68144 0.68026 0.65864
 C191 C 0.72304 0.64221 0.68370
 C192 C 0.75072 0.66963 0.71930
 C193 C 0.65181 0.65194 0.62238
 C194 C 0.62600 0.62888 0.59214
 H195 H 0.90958 0.76920 0.82369
 H196 H 0.86299 0.72023 0.76091
 H197 H 0.67525 0.81658 0.78605
 H198 H 0.72273 0.86612 0.84824
 H199 H 0.68454 0.82446 0.71214
 H200 H 0.63576 0.77584 0.65006
 H201 H 0.73371 0.59125 0.67588
 H202 H 0.78191 0.63898 0.73856
 C203 C 0.13233 0.87486 0.09101
 C204 C 0.15503 0.84814 0.12103
 C205 C 0.18275 0.81721 0.15704
 C206 C 0.25183 0.81227 0.16135
 C207 C 0.27903 0.78389 0.19673
 C208 C 0.23745 0.76005 0.22839
 C209 C 0.16801 0.76473 0.22361
 C210 C 0.14090 0.79319 0.18818
 C211 C 0.26651 0.73124 0.26641
 C212 C 0.23795 0.67509 0.28498
 C213 C 0.26556 0.64814 0.32073
 C214 C 0.32194 0.67699 0.33843
 C215 C 0.35061 0.73287 0.32024
 C216 C 0.32315 0.75984 0.28452
 C217 C 0.35083 0.64931 0.37510
 C218 C 0.37612 0.62684 0.40567
 H219 H 0.28470 0.83060 0.13742
 H220 H 0.33262 0.78016 0.19918
 H221 H 0.13468 0.74758 0.24761
 H222 H 0.08734 0.79699 0.18525
 H223 H 0.19485 0.65146 0.27153
 H224 H 0.24309 0.60473 0.33447
 H225 H 0.39418 0.75569 0.33372
 H226 H 0.34574 0.80362 0.27137
 C227 C 0.87109 0.12258 0.09067
 C228 C 0.84833 0.14818 0.12118
 C229 C 0.82039 0.17759 0.15777
 C230 C 0.75426 0.16455 0.16870
 C231 C 0.72713 0.19194 0.20455
 C232 C 0.76585 0.23282 0.23007
 C233 C 0.83224 0.24593 0.21871
 C234 C 0.85930 0.21841 0.18281
 C235 C 0.73707 0.26127 0.26843
 C236 C 0.75131 0.32673 0.28012
 C237 C 0.72342 0.35355 0.31598
 C238 C 0.68108 0.31532 0.34066
 C239 C 0.66692 0.25009 0.32942
 C240 C 0.69469 0.22321 0.29360
 C241 C 0.65126 0.34309 0.37718
 C242 C 0.62535 0.36584 0.40761
 H243 H 0.72364 0.13310 0.14952
 H244 H 0.67562 0.18166 0.21208
 H245 H 0.86357 0.27653 0.23793
 H246 H 0.91066 0.22862 0.17475
 H247 H 0.78308 0.35755 0.26118
 H248 H 0.73451 0.40420 0.32429
 H249 H 0.63430 0.22001 0.34831
 H250 H 0.68350 0.17240 0.28581
   
