data_POSCAR
  _audit_creation_date              2014-09-24
  _audit_creation_method            'ToBaCCo'
  _symmetry_space_group_name_H-M    'P1'
  _symmetry_Int_Tables_number       1
  _symmetry_cell_setting            triclinic
  loop_
  _symmetry_equiv_pos_as_xyz
 x,y,z
_cell_length_a 50.3613
_cell_length_b 48.7599
_cell_length_c 8.9220
_cell_angle_alpha 90.000000
_cell_angle_beta 90.020700
_cell_angle_gamma 90.027200
loop_
  _atom_site_label
  _atom_site_type_symbol
  _atom_site_fract_x
  _atom_site_fract_y
  _atom_site_fract_z
O1 O 0.22800 0.27515 0.11250
 O2 O 0.27885 0.22206 0.17412
 O3 O 0.22794 0.22188 0.12002
 O4 O 0.27888 0.27532 0.16563
 O5 O 0.27121 0.27652 0.40931
 O6 O 0.22003 0.22306 0.36336
 O7 O 0.27102 0.22320 0.41764
 O8 O 0.22027 0.27638 0.35611
 Cu9 Cu 0.25424 0.24846 0.11889
 Cu10 Cu 0.24481 0.24990 0.41090
 C11 C 0.21541 0.28472 0.22413
 C12 C 0.28371 0.21373 0.30614
 C13 C 0.21513 0.21349 0.23378
 C14 C 0.28383 0.28492 0.29490
 O15 O 0.77851 0.27577 0.32754
 O16 O 0.72754 0.22256 0.38090
 O17 O 0.77846 0.22248 0.32699
 O18 O 0.72763 0.27588 0.38131
 O19 O 0.71988 0.27597 0.13759
 O20 O 0.77057 0.22250 0.08344
 O21 O 0.71961 0.22264 0.13750
 O22 O 0.77078 0.27582 0.08379
 Cu23 Cu 0.75386 0.24915 0.37845
 Cu24 Cu 0.74438 0.24922 0.08635
 C25 C 0.78344 0.28474 0.19688
 C26 C 0.71472 0.21365 0.26829
 C27 C 0.78329 0.21354 0.19615
 C28 C 0.71503 0.28493 0.26835
 O29 O 0.72080 0.72280 0.86251
 O30 O 0.77181 0.77613 0.91670
 O31 O 0.72097 0.77613 0.86011
 O32 O 0.77163 0.72283 0.92013
 O33 O 0.78000 0.72239 0.67721
 O34 O 0.72925 0.77564 0.61700
 O35 O 0.78004 0.77567 0.67353
 O36 O 0.72922 0.72233 0.61953
 Cu37 Cu 0.74543 0.74951 0.91413
 Cu38 Cu 0.75549 0.74895 0.62258
 C39 C 0.71623 0.71361 0.73181
 C40 C 0.78470 0.78487 0.80405
 C41 C 0.71638 0.78485 0.72856
 C42 C 0.78461 0.71365 0.80883
 O43 O 0.22785 0.72358 0.89051
 O44 O 0.27896 0.77670 0.83722
 O45 O 0.22811 0.77689 0.89226
 O46 O 0.27875 0.72342 0.83650
 O47 O 0.27076 0.72360 0.59304
 O48 O 0.22016 0.77716 0.64885
 O49 O 0.27106 0.77692 0.59365
 O50 O 0.21983 0.72383 0.64709
 Cu51 Cu 0.25425 0.75012 0.88837
 Cu52 Cu 0.24461 0.75040 0.59640
 C53 C 0.21503 0.71478 0.77775
 C54 C 0.28383 0.78572 0.70659
 C55 C 0.21538 0.78605 0.77994
 C56 C 0.28349 0.71452 0.70550
 C57 C 1.02454 0.05791 0.04372
 C58 C 1.00027 0.07182 0.04233
 C59 C 0.97613 0.05791 0.02719
 C60 C 0.97618 0.02911 0.00596
 C61 C 1.00064 0.01463 0.00592
 C62 C 1.02492 0.02905 0.02517
 C63 C 1.04888 0.01429 0.02118
 C64 C 1.04906 -0.01400 0.00141
 C65 C 1.02535 -0.02870 -0.01991
 C66 C 1.00085 -0.01430 -0.01569
 C67 C 0.95257 0.01455 -0.02128
 C68 C 0.95275 -0.01373 -0.04078
 C69 C 0.97656 -0.02871 -0.03475
 C70 C 0.97690 -0.05758 -0.05284
 C71 C 1.00123 -0.07136 -0.05754
 C72 C 1.02538 -0.05744 -0.04358
 H73 H 1.06789 0.02437 0.03163
 H74 H 1.06813 -0.02413 0.00373
 H75 H 0.93367 0.02487 -0.03112
 H76 H 0.93396 -0.02355 -0.06398
 H77 H 1.00013 0.09386 0.05901
 H78 H 1.00137 -0.09341 -0.07383
 C79 C 0.52407 0.55833 0.52605
 C80 C 0.49982 0.57219 0.53559
 C81 C 0.47557 0.55841 0.52315
 C82 C 0.47538 0.52976 0.49653
 C83 C 0.49981 0.51534 0.48533
 C84 C 0.52424 0.52971 0.49856
 C85 C 0.54810 0.51529 0.47690
 C86 C 0.54809 0.48726 0.44852
 C87 C 0.52424 0.47235 0.44071
 C88 C 0.49981 0.48661 0.45674
 C89 C 0.45154 0.51534 0.47383
 C90 C 0.45154 0.48728 0.44645
 C91 C 0.47538 0.47235 0.44013
 C92 C 0.47555 0.44380 0.41069
 C93 C 0.49980 0.43018 0.39409
 C94 C 0.52405 0.44383 0.41018
 H95 H 0.56710 0.52557 0.47759
 H96 H 0.56710 0.47762 0.42917
 H97 H 0.43256 0.52565 0.47295
 H98 H 0.43255 0.47763 0.42619
 H99 H 0.49982 0.59407 0.55768
 H100 H 0.49979 0.40829 0.37230
 C101 C -0.02418 0.44218 0.05712
 C102 C 0.00013 0.42834 0.06034
 C103 C 0.02430 0.44227 0.04742
 C104 C 0.02430 0.47108 0.02635
 C105 C -0.00018 0.48552 0.02352
 C106 C -0.02448 0.47110 0.04143
 C107 C -0.04827 0.48610 0.04879
 C108 C -0.04841 0.51444 0.03157
 C109 C -0.02478 0.52904 0.00569
 C110 C -0.00034 0.51452 0.00458
 C111 C 0.04803 0.48580 0.00643
 C112 C 0.04789 0.51415 -0.01042
 C113 C 0.02396 0.52896 -0.01308
 C114 C 0.02363 0.55789 -0.02874
 C115 C -0.00062 0.57182 -0.02637
 C116 C -0.02479 0.55790 -0.01299
 H117 H -0.06707 0.47624 0.07136
 H118 H -0.06729 0.52477 0.04239
 H119 H 0.06709 0.47565 0.00299
 H120 H 0.06692 0.52424 -0.01980
 H121 H 0.00025 0.40625 0.07462
 H122 H -0.00073 0.59391 -0.04110
 C123 C 0.47678 0.94228 0.56025
 C124 C 0.50108 0.92844 0.56368
 C125 C 0.52525 0.94233 0.54962
 C126 C 0.52525 0.97110 0.52697
 C127 C 0.50078 0.98556 0.52387
 C128 C 0.47648 0.97118 0.54313
 C129 C 0.45271 0.98620 0.55023
 C130 C 0.45256 1.01450 0.53148
 C131 C 0.47617 1.02905 0.50424
 C132 C 0.50061 1.01452 0.50331
 C133 C 0.54898 0.98579 0.50568
 C134 C 0.54883 1.01410 0.48710
 C135 C 0.52490 1.02892 0.48422
 C136 C 0.52457 1.05781 0.46699
 C137 C 0.50032 1.07177 0.46932
 C138 C 0.47616 1.05788 0.48411
 H139 H 0.43392 0.97639 0.57364
 H140 H 0.43369 1.02485 0.54211
 H141 H 0.56802 0.97561 0.50252
 H142 H 0.56785 1.02416 0.47656
 H143 H 0.50120 0.90637 0.57906
 H144 H 0.50020 1.09383 0.45351
 N145 N 1.16965 0.16595 0.05937
 C146 C 1.15525 0.15731 0.17873
 N147 N 1.16117 0.16711 0.31696
 N148 N 1.18084 0.18510 0.33521
 C149 C 1.19523 0.19394 0.21574
 N150 N 1.18932 0.18393 0.07754
 C151 C 1.13332 0.13892 0.15783
 C152 C 1.11457 0.12394 0.13851
 C153 C 1.09192 0.10669 0.11335
 N154 N 1.07402 0.11325 0.00577
 N155 N 1.05279 0.09751 -0.01716
 C156 C 1.04881 0.07454 0.06595
 N157 N 1.06662 0.06822 0.17509
 N158 N 1.08788 0.08397 0.19801
 N159 N 0.66103 0.66602 0.80638
 C160 C 0.65542 0.65657 0.66698
 N161 N 0.67009 0.66552 0.54933
 N162 N 0.68973 0.68342 0.57033
 C163 C 0.69534 0.69301 0.70972
 N164 N 0.68067 0.68393 0.82743
 C165 C 0.63348 0.63829 0.64318
 C166 C 0.61470 0.62344 0.62205
 C167 C 0.59196 0.60638 0.59550
 N168 N 0.58908 0.58217 0.66847
 N169 N 0.56768 0.56664 0.64510
 C170 C 0.54855 0.57472 0.54714
 N171 N 0.55140 0.59913 0.47563
 N172 N 0.57279 0.61465 0.49900
 N173 N -0.16213 0.33280 0.27860
 C174 C -0.15570 0.34200 0.13991
 N175 N -0.16955 0.33271 0.01981
 N176 N -0.18921 0.31469 0.03794
 C177 C -0.19563 0.30536 0.17676
 N178 N -0.18176 0.31479 0.29674
 C179 C -0.13380 0.36051 0.12061
 C180 C -0.11499 0.37561 0.10733
 C181 C -0.09213 0.39303 0.09505
 N182 N -0.09051 0.41225 -0.01446
 N183 N -0.06905 0.42814 -0.02598
 C184 C -0.04858 0.42545 0.07227
 N185 N -0.05019 0.40596 0.18062
 N186 N -0.07163 0.39009 0.19211
 N187 N 0.33100 0.83341 0.52873
 C188 C 0.34498 0.84263 0.64853
 N189 N 0.33857 0.83348 0.78733
 N190 N 0.31884 0.81559 0.80586
 C191 C 0.30486 0.80624 0.68616
 N192 N 0.31125 0.81552 0.54724
 C193 C 0.36696 0.86101 0.62872
 C194 C 0.38584 0.87600 0.61472
 C195 C 0.40876 0.89332 0.60128
 N196 N 0.42929 0.89049 0.69822
 N197 N 0.45076 0.90628 0.68572
 C198 C 0.45237 0.92561 0.57646
 N199 N 0.43187 0.92818 0.47835
 N200 N 0.41038 0.91236 0.49087
 N201 N -0.17035 0.66694 -0.00667
 C202 C -0.15594 0.65748 -0.12414
 N203 N -0.16170 0.66649 -0.26415
 N204 N -0.18121 0.68449 -0.28606
 C205 C -0.19563 0.69413 -0.16864
 N206 N -0.18988 0.68494 -0.02853
 C207 C -0.13419 0.63900 -0.10024
 C208 C -0.11554 0.62391 -0.08109
 C209 C -0.09293 0.60645 -0.05939
 N210 N -0.07302 0.61424 0.03358
 N211 N -0.05160 0.59852 0.05030
 C212 C -0.04942 0.57437 -0.02461
 N213 N -0.06930 0.56678 -0.11891
 N214 N -0.09074 0.58251 -0.13563
 N215 N 0.33844 1.16554 0.23415
 C216 C 0.34463 1.15700 0.37447
 N217 N 0.33051 1.16677 0.49231
 N218 N 0.31083 1.18459 0.47047
 C219 C 0.30464 1.19326 0.33005
 N220 N 0.31877 1.18336 0.21228
 C221 C 0.36652 1.13868 0.39817
 C222 C 0.38525 1.12368 0.41708
 C223 C 0.40792 1.10631 0.43843
 N224 N 0.41006 1.08228 0.36299
 N225 N 0.43153 1.06660 0.37942
 C226 C 0.45153 1.07433 0.47264
 N227 N 0.44941 1.09857 0.54677
 N228 N 0.42794 1.11424 0.53032
 N229 N 1.17042 -0.16669 -0.03939
 C230 C 1.15627 -0.15722 -0.15786
 N231 N 1.16215 -0.16641 -0.29731
 N232 N 1.18156 -0.18460 -0.31769
 C233 C 1.19571 -0.19427 -0.19922
 N234 N 1.18983 -0.18488 -0.05970
 C235 C 1.13459 -0.13859 -0.13533
 C236 C 1.11599 -0.12342 -0.11651
 C237 C 1.09341 -0.10596 -0.09419
 N238 N 1.09092 -0.08220 -0.17189
 N239 N 1.06951 -0.06647 -0.15403
 C240 C 1.04998 -0.07386 -0.05708
 N241 N 1.05245 -0.09783 0.01929
 N242 N 1.07384 -0.11355 0.00143
 N243 N 0.66116 0.33362 0.18704
 C244 C 0.65481 0.34285 0.32575
 N245 N 0.66851 0.33333 0.44583
 N246 N 0.68795 0.31507 0.42764
 C247 C 0.69428 0.30573 0.28876
 N248 N 0.68057 0.31538 0.16883
 C249 C 0.63316 0.36163 0.34504
 C250 C 0.61453 0.37695 0.35839
 C251 C 0.59186 0.39462 0.37078
 N252 N 0.58926 0.41201 0.48847
 N253 N 0.56789 0.42800 0.50034
 C254 C 0.54851 0.42725 0.39436
 N255 N 0.55110 0.40959 0.27761
 N256 N 0.57244 0.39362 0.26578
 N257 N 0.83142 -0.16691 -0.01823
 C258 C 0.84548 -0.15781 -0.13794
 N259 N 0.83929 -0.16722 -0.27655
 N260 N 0.81968 -0.18525 -0.29500
 C261 C 0.80560 -0.19449 -0.17542
 N262 N 0.81179 -0.18495 -0.03666
 C263 C 0.86735 -0.13928 -0.11831
 C264 C 0.88615 -0.12417 -0.10477
 C265 C 0.90900 -0.10674 -0.09212
 N266 N 0.92941 -0.10945 -0.18991
 N267 N 0.95083 -0.09357 -0.17805
 C268 C 0.95251 -0.07430 -0.06859
 N269 N 0.93213 -0.07184 0.03032
 N270 N 0.91069 -0.08773 0.01844
 N271 N 0.33796 0.33284 0.20529
 C272 C 0.34445 0.34273 0.34245
 N273 N 0.33076 0.33393 0.46417
 N274 N 0.31118 0.31572 0.44908
 C275 C 0.30470 0.30570 0.31177
 N276 N 0.31841 0.31464 0.19019
 C277 C 0.36622 0.36149 0.35853
 C278 C 0.38492 0.37681 0.36936
 C279 C 0.40764 0.39449 0.37893
 N280 N 0.41041 0.41229 0.49463
 N281 N 0.43182 0.42829 0.50404
 C282 C 0.45107 0.42716 0.39746
 N283 N 0.44832 0.40905 0.28282
 N284 N 0.42694 0.39307 0.27346
 N285 N 0.16004 0.66708 -0.29985
 C286 C 0.15412 0.65772 -0.16072
 N287 N 0.16849 0.66679 -0.04209
 N288 N 0.18814 0.68474 -0.06190
 C289 C 0.19406 0.69422 -0.20105
 N290 N 0.17969 0.68503 -0.31971
 C291 C 0.13227 0.63927 -0.13849
 C292 C 0.11360 0.62421 -0.11891
 C293 C 0.09103 0.60682 -0.09434
 N294 N 0.08696 0.58434 -0.18083
 N295 N 0.06571 0.56852 -0.15906
 C296 C 0.04793 0.57454 -0.04935
 N297 N 0.05194 0.59728 0.03568
 N298 N 0.07316 0.61308 0.01391
 N299 N 0.66089 1.16682 0.19032
 C300 C 0.65498 1.15754 0.32959
 N301 N 0.66931 1.16671 0.44808
 N302 N 0.68892 1.18470 0.42801
 C303 C 0.69485 1.19416 0.28869
 N304 N 0.68051 1.18480 0.17017
 C305 C 0.63313 1.13909 0.35216
 C306 C 0.61448 1.12404 0.37230
 C307 C 0.59191 1.10667 0.39790
 N308 N 0.58781 1.08406 0.31250
 N309 N 0.56658 1.06826 0.33535
 C310 C 0.54886 1.07444 0.44512
 N311 N 0.55290 1.09730 0.52905
 N312 N 0.57411 1.11309 0.50620
 N313 N 0.16132 0.33363 0.29709
 C314 C 0.15514 0.34223 0.15689
 N315 N 0.16903 0.33223 0.03875
 N316 N 0.18848 0.31412 0.06019
 C317 C 0.19466 0.30540 0.20051
 N318 N 0.18076 0.31553 0.31857
 C319 C 0.13348 0.36085 0.13364
 C320 C 0.11489 0.37605 0.11510
 C321 C 0.09233 0.39359 0.09393
 N322 N 0.07274 0.38626 -0.00231
 N323 N 0.05136 0.40204 -0.01884
 C324 C 0.04888 0.42578 0.05958
 N325 N 0.06843 0.43289 0.15719
 N326 N 0.08983 0.41711 0.17370
 N327 N 0.67027 0.83273 0.54391
 C328 C 0.65607 0.84234 0.66183
 N329 N 0.66195 0.83336 0.80174
 N330 N 0.68141 0.81527 0.82311
 C331 C 0.69562 0.80554 0.70525
 N332 N 0.68974 0.81464 0.56526
 C333 C 0.63439 0.86094 0.63847
 C334 C 0.61580 0.87613 0.61954
 C335 C 0.59325 0.89365 0.59770
 N336 N 0.57360 0.88616 0.50229
 N337 N 0.55222 0.90194 0.48520
 C338 C 0.54983 0.92584 0.56221
 N339 N 0.56945 0.93313 0.65895
 N340 N 0.59084 0.91735 0.67604
 N341 N 0.83001 0.16583 0.01552
 C342 C 0.84425 0.15662 0.13429
 N343 N 0.83815 0.16576 0.27360
 N344 N 0.81845 0.18362 0.29352
 C345 C 0.80421 0.19297 0.17477
 N346 N 0.81031 0.18370 0.03541
 C347 C 0.86621 0.13832 0.11231
 C348 C 0.88501 0.12339 0.09428
 C349 C 0.90778 0.10614 0.07341
 N350 N 0.92777 0.11416 -0.01839
 N351 N 0.94928 0.09856 -0.03488
 C352 C 0.95148 0.07432 0.03908
 N353 N 0.93152 0.06651 0.13227
 N354 N 0.90999 0.08211 0.14874
 N355 N 0.32995 0.66658 0.52448
 C356 C 0.34412 0.65725 0.64325
 N357 N 0.33808 0.66640 0.78257
 N358 N 0.31849 0.68439 0.80253
 C359 C 0.30431 0.69385 0.68381
 N360 N 0.31035 0.68457 0.54442
 C361 C 0.36602 0.63888 0.62118
 C362 C 0.38479 0.62393 0.60255
 C363 C 0.40754 0.60673 0.57994
 N364 N 0.42708 0.61466 0.48496
 N365 N 0.44852 0.59907 0.46578
 C366 C 0.45109 0.57491 0.54015
 N367 N 0.43160 0.56719 0.63672
 N368 N 0.41015 0.58279 0.65590
   
