data_POSCAR
  _audit_creation_date              2014-09-24
  _audit_creation_method            'ToBaCCo'
  _symmetry_space_group_name_H-M    'P1'
  _symmetry_Int_Tables_number       1
  _symmetry_cell_setting            triclinic
  loop_
  _symmetry_equiv_pos_as_xyz
 x,y,z
_cell_length_a 40.7350
_cell_length_b 40.1941
_cell_length_c 33.5494
_cell_angle_alpha 90.204100
_cell_angle_beta 91.086400
_cell_angle_gamma 90.400100
loop_
  _atom_site_label
  _atom_site_type_symbol
  _atom_site_fract_x
  _atom_site_fract_y
  _atom_site_fract_z
C1 C 1.21618 0.28227 0.32291
 H2 H 1.23292 0.26823 0.34162
 C3 C 1.19151 0.30143 0.34014
 H4 H 1.18972 0.30265 0.37228
 C5 C 1.19740 0.29736 0.25817
 H6 H 1.19943 0.29500 0.22618
 C7 C 1.17279 0.31689 0.27400
 H8 H 1.15603 0.32963 0.25391
 N9 N 1.21876 0.28096 0.28255
 C10 C 1.22164 0.22533 0.18293
 H11 H 1.23928 0.24046 0.16741
 C12 C 1.19926 0.20546 0.16122
 H13 H 1.20021 0.20467 0.12899
 C14 C 1.19815 0.20817 0.24373
 H15 H 1.19744 0.21000 0.27588
 C16 C 1.17589 0.18763 0.22340
 H17 H 1.15831 0.17317 0.24003
 Zn18 Zn 1.24829 0.25350 0.25531
 N19 N 1.22099 0.22577 0.22349
 C20 C 1.27060 0.19389 0.29330
 N21 N 1.27461 0.22745 0.29099
 C22 C 1.29873 0.24312 0.31243
 C23 C 1.32060 0.22497 0.33642
 C24 C 1.29124 0.17481 0.31776
 C25 C 1.27362 0.31363 0.22254
 C26 C 1.29448 0.33288 0.19919
 C27 C 1.32095 0.28247 0.17786
 C28 C 1.29933 0.26415 0.20125
 N29 N 1.27625 0.27986 0.22304
 H30 H 1.25179 0.18150 0.27561
 H31 H 1.30142 0.26986 0.31027
 H32 H 1.33890 0.23913 0.35294
 H33 H 1.28718 0.14815 0.31816
 H34 H 1.25567 0.32585 0.24063
 H35 H 1.29226 0.35971 0.19953
 H36 H 1.33906 0.26942 0.16067
 H37 H 1.30103 0.23731 0.20225
 C38 C 1.17653 0.18592 0.18173
 C39 C 1.16975 0.31934 0.31546
 C40 C 1.31883 0.31738 0.17687
 C41 C 1.31770 0.18984 0.33913
 C42 C 0.73257 -0.20846 0.31654
 H43 H 0.75341 -0.21761 0.33348
 C44 C 0.71054 -0.18673 0.33455
 H45 H 0.71456 -0.17949 0.36539
 C46 C 0.70162 -0.20704 0.25607
 H47 H 0.69846 -0.21495 0.22537
 C48 C 0.67899 -0.18551 0.27290
 H49 H 0.65870 -0.17673 0.25461
 N50 N 0.72780 -0.21803 0.27789
 C51 C 0.73461 -0.28770 0.18570
 H52 H 0.75339 -0.27537 0.16872
 C53 C 0.71344 -0.31081 0.16695
 H54 H 0.71599 -0.31602 0.13547
 C55 C 0.70758 -0.29512 0.24698
 H56 H 0.70533 -0.28868 0.27814
 C57 C 0.68595 -0.31815 0.22950
 H58 H 0.66746 -0.32966 0.24776
 Zn59 Zn 0.75697 -0.24724 0.25179
 N60 N 0.73117 -0.28023 0.22501
 C61 C 0.78369 -0.30022 0.29652
 N62 N 0.78608 -0.26711 0.28911
 C63 C 0.81048 -0.24821 0.30609
 C64 C 0.83389 -0.26267 0.33157
 C65 C 0.80621 -0.31554 0.32208
 C66 C 0.77679 -0.18987 0.21122
 C67 C 0.79898 -0.16959 0.19155
 C68 C 0.83314 -0.21750 0.18045
 C69 C 0.81006 -0.23705 0.20029
 N70 N 0.78299 -0.22278 0.21608
 H71 H 0.76463 -0.31500 0.28220
 H72 H 0.81204 -0.22196 0.29929
 H73 H 0.85310 -0.24727 0.34483
 H74 H 0.80399 -0.34205 0.32718
 H75 H 0.75534 -0.17885 0.22407
 H76 H 0.79369 -0.14335 0.18862
 H77 H 0.85534 -0.22881 0.16963
 H78 H 0.81460 -0.26323 0.20504
 C79 C 0.68826 -0.32582 0.18875
 C80 C 0.68312 -0.17526 0.31279
 C81 C 0.82824 -0.18309 0.17732
 C82 C 0.83195 -0.29686 0.33966
 C83 C 0.72041 0.28539 -0.18149
 H84 H 0.73247 0.26663 -0.16357
 C85 C 0.70035 0.30895 -0.16328
 H86 H 0.69681 0.30801 -0.13139
 C87 C 0.71007 0.30956 -0.24479
 H88 H 0.71427 0.30979 -0.27654
 C89 C 0.68931 0.33303 -0.22799
 H90 H 0.67751 0.35128 -0.24700
 N91 N 0.72453 0.28588 -0.22167
 C92 C 0.73922 0.20201 -0.30454
 H93 H 0.76546 0.19813 -0.30296
 C94 C 0.71902 0.17893 -0.32504
 H95 H 0.72999 0.15773 -0.33952
 C96 C 0.69279 0.23262 -0.28493
 H97 H 0.68221 0.25276 -0.26835
 C98 C 0.67192 0.21061 -0.30540
 H99 H 0.64581 0.21532 -0.30532
 Zn100 Zn 0.75179 0.25452 -0.24768
 N101 N 0.72579 0.22772 -0.28397
 C102 C 0.76367 0.19369 -0.20844
 N103 N 0.77241 0.22636 -0.20948
 C104 C 0.79703 0.23848 -0.18546
 C105 C 0.81487 0.21717 -0.16049
 C106 C 0.78096 0.17151 -0.18423
 C107 C 0.79829 0.27159 -0.30904
 C108 C 0.82366 0.29125 -0.32441
 C109 C 0.82084 0.32638 -0.26613
 C110 C 0.79585 0.30611 -0.25211
 N111 N 0.78502 0.27934 -0.27335
 H112 H 0.74369 0.18449 -0.22708
 H113 H 0.80348 0.26455 -0.18633
 H114 H 0.83482 0.22726 -0.14229
 H115 H 0.77430 0.14547 -0.18601
 H116 H 0.78941 0.25014 -0.32559
 H117 H 0.83350 0.28425 -0.35298
 H118 H 0.82804 0.34669 -0.24683
 H119 H 0.78505 0.31180 -0.22372
 C120 C 0.68474 0.18244 -0.32438
 C121 C 0.68404 0.33271 -0.18679
 C122 C 0.83551 0.31961 -0.30320
 C123 C 0.80728 0.18302 -0.16002
 C124 C 1.20425 -0.23121 -0.19006
 H125 H 1.20222 -0.25777 -0.18654
 C126 C 1.18451 -0.21044 -0.16732
 H127 H 1.16725 -0.22139 -0.14691
 C128 C 1.22982 -0.18463 -0.21954
 H129 H 1.24782 -0.17436 -0.23919
 C130 C 1.21048 -0.16303 -0.19774
 H131 H 1.21333 -0.13662 -0.20270
 N132 N 1.22579 -0.21811 -0.21640
 C133 C 1.21746 -0.26886 -0.32172
 H134 H 1.23238 -0.25071 -0.33674
 C135 C 1.19584 -0.28908 -0.34407
 H136 H 1.19435 -0.28650 -0.37617
 C137 C 1.20182 -0.29560 -0.26208
 H138 H 1.20484 -0.29886 -0.23034
 C139 C 1.18046 -0.31653 -0.28320
 H140 H 1.16671 -0.33529 -0.26734
 Zn141 Zn 1.25005 -0.24689 -0.24986
 N142 N 1.22017 -0.27259 -0.28143
 C143 C 1.27658 -0.30889 -0.22326
 N144 N 1.27555 -0.27545 -0.21669
 C145 C 1.29305 -0.26112 -0.18620
 C146 C 1.31299 -0.28047 -0.16130
 C147 C 1.29580 -0.32926 -0.19861
 C148 C 1.26636 -0.19707 -0.30722
 C149 C 1.28769 -0.17594 -0.32761
 C150 C 1.33329 -0.20733 -0.30097
 C151 C 1.31119 -0.22744 -0.28066
 N152 N 1.27843 -0.22145 -0.28304
 H153 H 1.26309 -0.31980 -0.24812
 H154 H 1.29181 -0.23451 -0.18160
 H155 H 1.32703 -0.26855 -0.13746
 H156 H 1.29686 -0.35572 -0.20466
 H157 H 1.24015 -0.19303 -0.30926
 H158 H 1.27761 -0.15577 -0.34519
 H159 H 1.35914 -0.21304 -0.29849
 H160 H 1.32039 -0.24755 -0.26243
 C161 C 1.17766 -0.31366 -0.32469
 C162 C 1.18727 -0.17581 -0.17123
 C163 C 1.32179 -0.18021 -0.32360
 C164 C 1.31472 -0.31498 -0.16761
 C165 C 0.27531 0.18498 0.71660
 H166 H 0.25581 0.17254 0.73200
 C167 C 0.29683 0.16592 0.69415
 H168 H 0.29327 0.13922 0.69232
 C169 C 0.30493 0.23411 0.70188
 H170 H 0.30856 0.26057 0.70576
 C171 C 0.32722 0.21596 0.67946
 H172 H 0.34718 0.22902 0.66534
 N173 N 0.27913 0.21864 0.71933
 C174 C 0.19961 0.19777 0.75056
 H175 H 0.20340 0.19766 0.71872
 C176 C 0.17500 0.17804 0.76639
 H177 H 0.16027 0.16341 0.74566
 C178 C 0.21280 0.22025 0.81419
 H179 H 0.22737 0.23720 0.83246
 C180 C 0.18787 0.20126 0.83138
 H181 H 0.18412 0.20345 0.86316
 Zn182 Zn 0.24895 0.24543 0.74828
 N183 N 0.21827 0.21796 0.77444
 C184 C 0.19146 0.27380 0.71577
 N185 N 0.22475 0.27326 0.71282
 C186 C 0.24036 0.29285 0.68603
 C187 C 0.22239 0.31377 0.66079
 C188 C 0.17257 0.29394 0.69081
 C189 C 0.29616 0.25744 0.80869
 C190 C 0.31683 0.27665 0.83338
 C191 C 0.28810 0.32586 0.81141
 C192 C 0.26809 0.30570 0.78688
 N193 N 0.27287 0.27223 0.78542
 H194 H 0.17930 0.25928 0.73814
 H195 H 0.26676 0.29273 0.68451
 H196 H 0.23523 0.32920 0.63969
 H197 H 0.14617 0.29430 0.69406
 H198 H 0.29932 0.23077 0.80708
 H199 H 0.33558 0.26440 0.85114
 H200 H 0.28468 0.35255 0.81122
 H201 H 0.24927 0.31693 0.76832
 C202 C 0.16883 0.17911 0.80760
 C203 C 0.32323 0.18135 0.67527
 C204 C 0.31349 0.31147 0.83416
 C205 C 0.18804 0.31450 0.66323
 C206 C 0.77000 0.68634 0.71215
 H207 H 0.74920 0.67577 0.72714
 C208 C 0.79160 0.66524 0.69304
 H209 H 0.78641 0.63880 0.69278
 C210 C 0.80175 0.73339 0.69426
 H211 H 0.80599 0.75996 0.69587
 C212 C 0.82434 0.71301 0.67509
 H213 H 0.84576 0.72410 0.66169
 N214 N 0.77590 0.71964 0.71360
 C215 C 0.69267 0.70723 0.75390
 H216 H 0.68816 0.71675 0.72420
 C217 C 0.67039 0.68506 0.77055
 H218 H 0.64947 0.67788 0.75223
 C219 C 0.72733 0.70411 0.81112
 H220 H 0.74981 0.71146 0.82650
 C221 C 0.70585 0.68147 0.82888
 H222 H 0.71212 0.67214 0.85827
 Zn223 Zn 0.74979 0.74537 0.74816
 N224 N 0.72030 0.71653 0.77435
 C225 C 0.73109 0.78722 0.68167
 N226 N 0.72469 0.77769 0.71970
 C227 C 0.69882 0.79046 0.73950
 C228 C 0.67817 0.81353 0.72132
 C229 C 0.71084 0.81040 0.66217
 C230 C 0.76363 0.79062 0.81022
 C231 C 0.78343 0.81115 0.83418
 C232 C 0.83095 0.78125 0.81195
 C233 C 0.81017 0.76129 0.78823
 N234 N 0.77730 0.76727 0.78643
 H235 H 0.75159 0.77664 0.66622
 H236 H 0.69362 0.78206 0.76928
 H237 H 0.65793 0.82334 0.73808
 H238 H 0.71581 0.81730 0.63169
 H239 H 0.73745 0.79429 0.80957
 H240 H 0.77211 0.83038 0.85182
 H241 H 0.85722 0.77736 0.81144
 H242 H 0.82056 0.74176 0.77040
 C243 C 0.67642 0.67181 0.80897
 C244 C 0.82004 0.67833 0.67580
 C245 C 0.81766 0.80748 0.83386
 C246 C 0.68359 0.82338 0.68185
 C247 C 0.76100 0.20122 0.17918
 H248 H 0.73448 0.19943 0.17873
 C249 C 0.77931 0.18106 0.15409
 H250 H 0.76667 0.16398 0.13394
 C251 C 0.80975 0.22509 0.20686
 H252 H 0.82164 0.24156 0.22819
 C253 C 0.82894 0.20573 0.18203
 H254 H 0.85544 0.20756 0.18455
 N255 N 0.77644 0.22230 0.20528
 C256 C 0.69066 0.21839 0.26551
 H257 H 0.68042 0.23894 0.24898
 C258 C 0.66951 0.19548 0.28274
 H259 H 0.64336 0.19971 0.28024
 C260 C 0.73695 0.18833 0.28876
 H261 H 0.76334 0.18555 0.29043
 C262 C 0.71655 0.16461 0.30650
 H263 H 0.72741 0.14369 0.32198
 Zn264 Zn 0.75106 0.24558 0.24233
 N265 N 0.72372 0.21463 0.26884
 C266 C 0.72403 0.28253 0.17658
 N267 N 0.72512 0.27838 0.21682
 C268 C 0.70854 0.29894 0.24147
 C269 C 0.68860 0.32388 0.22588
 C270 C 0.70452 0.30751 0.15964
 C271 C 0.79380 0.29569 0.26146
 C272 C 0.81371 0.31654 0.28455
 C273 C 0.80420 0.28112 0.34138
 C274 C 0.78391 0.26098 0.31710
 N275 N 0.77914 0.26875 0.27796
 H276 H 0.73807 0.26641 0.15761
 H277 H 0.71057 0.29558 0.27341
 H278 H 0.67532 0.33971 0.24606
 H279 H 0.70320 0.31014 0.12754
 H280 H 0.78953 0.30119 0.23026
 H281 H 0.82486 0.33817 0.27099
 H282 H 0.80755 0.27529 0.37268
 H283 H 0.77172 0.23959 0.32963
 C284 C 0.68229 0.16780 0.30308
 C285 C 0.81377 0.18277 0.15599
 C286 C 0.81870 0.30960 0.32508
 C287 C 0.68598 0.32804 0.18444
 C288 C 0.27267 0.68598 0.22081
 H289 H 0.25493 0.67352 0.23904
 C290 C 0.29365 0.66674 0.19778
 H291 H 0.29139 0.63988 0.19829
 C292 C 0.29882 0.73546 0.19986
 H293 H 0.30141 0.76215 0.20140
 C294 C 0.32053 0.71717 0.17677
 H295 H 0.33897 0.73029 0.16000
 N296 N 0.27513 0.71983 0.22105
 C297 C 0.19775 0.69749 0.25674
 H298 H 0.20054 0.69733 0.22473
 C299 C 0.17449 0.67687 0.27393
 H300 H 0.15957 0.66079 0.25487
 C301 C 0.21301 0.71983 0.31996
 H302 H 0.22799 0.73688 0.33758
 C303 C 0.18967 0.69966 0.33849
 H304 H 0.18711 0.70085 0.37053
 Zn305 Zn 0.24634 0.74636 0.25265
 N306 N 0.21665 0.71825 0.27975
 C307 C 0.18793 0.77319 0.21895
 N308 N 0.22131 0.77563 0.21959
 C309 C 0.23686 0.79930 0.19786
 C310 C 0.21881 0.82125 0.17401
 C311 C 0.16901 0.79426 0.19514
 C312 C 0.29885 0.75691 0.30612
 C313 C 0.32080 0.77501 0.33037
 C314 C 0.28629 0.82316 0.32219
 C315 C 0.26521 0.80408 0.29764
 N316 N 0.27214 0.77175 0.28956
 H317 H 0.17558 0.75541 0.23745
 H318 H 0.26321 0.80179 0.19968
 H319 H 0.23166 0.83987 0.15693
 H320 H 0.14249 0.79206 0.19539
 H321 H 0.30353 0.73099 0.29974
 H322 H 0.34121 0.76133 0.34274
 H323 H 0.28012 0.84900 0.32711
 H324 H 0.24355 0.81532 0.28447
 C325 C 0.17042 0.67755 0.31533
 C326 C 0.31816 0.68228 0.17562
 C327 C 0.31556 0.80929 0.33814
 C328 C 0.18439 0.81885 0.17259
 O329 O 0.94109 -0.04781 -0.07276
 O330 O 0.97280 -0.08445 -0.03676
 C331 C 0.94972 -0.07764 -0.06265
 O332 O 1.05656 0.04745 -0.07471
 O333 O 1.02765 0.08443 -0.03692
 C334 C 1.04910 0.07731 -0.06377
 O335 O 1.05669 -0.04425 -0.07679
 O336 O 1.02926 -0.08277 -0.03919
 C337 C 1.05040 -0.07451 -0.06603
 O338 O 0.93537 0.04450 -0.06697
 O339 O 0.96841 0.08298 -0.03468
 C340 C 0.94348 0.07482 -0.05750
 Zr341 Zr 0.95743 -0.00107 -0.05143
 O342 O 0.95516 0.00226 -0.11440
 O343 O 0.90575 -0.00441 -0.04750
 Zr344 Zr 1.03915 0.00115 -0.05510
 O345 O 1.03102 0.00164 -0.11748
 O346 O 1.09069 0.00026 -0.06172
 O347 O 0.99862 -0.03016 -0.06117
 O348 O 0.99740 0.02959 -0.06048
 O349 O 0.94051 0.04446 0.06537
 O350 O 0.97082 0.08293 0.03107
 C351 C 0.94762 0.07474 0.05528
 O352 O 1.06252 -0.04398 0.06641
 O353 O 1.03234 -0.08249 0.03032
 C354 C 1.05509 -0.07428 0.05631
 O355 O 1.06260 0.04778 0.06376
 O356 O 1.03020 0.08470 0.02922
 C357 C 1.05404 0.07766 0.05403
 O358 O 0.94795 -0.04736 0.07189
 O359 O 0.97578 -0.08425 0.03271
 C360 C 0.95549 -0.07728 0.06094
 Zr361 Zr 0.96202 -0.00092 0.04885
 O362 O 0.96897 0.00180 0.11135
 O363 O 0.91053 -0.00522 0.05427
 Zr364 Zr 1.04369 0.00140 0.04558
 O365 O 1.04403 0.00443 0.10863
 O366 O 1.09562 -0.00028 0.04564
 Zr367 Zr 1.00171 -0.05013 -0.00319
 Zr368 Zr 0.99988 0.05038 -0.00289
 O369 O 1.00248 0.02986 0.05463
 O370 O 1.00379 -0.02993 0.05488
 O371 O 0.95283 0.02836 -0.00099
 O372 O 1.04832 -0.02728 -0.00506
 O373 O 0.95417 -0.03021 -0.00110
 O374 O 1.04772 0.03099 -0.00497
 H375 H 0.99583 0.04478 -0.08364
 H376 H 1.06845 -0.04094 -0.00578
 H377 H 1.00282 0.04527 0.07777
 H378 H 0.93487 -0.04531 -0.00013
 H379 H 1.10037 0.01437 -0.04030
 H380 H 1.10329 0.01667 0.02660
 H381 H 1.03126 -0.01474 0.11863
 H382 H 0.94670 0.00177 0.12270
 H383 H 0.90076 0.00280 0.02888
 H384 H 0.89694 -0.00450 -0.07526
 H385 H 0.96954 -0.01528 -0.12504
 H386 H 1.05305 0.00245 -0.12950
 O387 O 0.93272 0.44972 0.43940
 O388 O 0.96640 0.41286 0.47229
 C389 C 0.94182 0.41983 0.44858
 O390 O 1.05035 0.54305 0.42481
 O391 O 1.02346 0.58084 0.46363
 C392 C 1.04404 0.57318 0.43597
 O393 O 1.04662 0.45119 0.42137
 O394 O 1.02228 0.41369 0.46318
 C395 C 1.04092 0.42115 0.43346
 O396 O 0.92810 0.54165 0.44520
 O397 O 0.96380 0.58029 0.47250
 C398 C 0.93692 0.57198 0.45337
 Zr399 Zr 0.95122 0.49622 0.45807
 O400 O 0.94798 0.49781 0.39518
 O401 O 0.89958 0.49235 0.46244
 Zr402 Zr 1.03173 0.49732 0.44456
 O403 O 1.01917 0.50013 0.38309
 O404 O 1.08184 0.49559 0.42960
 O405 O 0.99077 0.46637 0.44403
 O406 O 0.99031 0.52653 0.44381
 O407 O 0.94500 0.54312 0.57705
 O408 O 0.97137 0.58077 0.53726
 C409 C 0.95094 0.57319 0.56510
 O410 O 1.06474 0.45297 0.56330
 O411 O 1.03090 0.41461 0.53210
 C412 C 1.05587 0.42270 0.55486
 O413 O 1.06516 0.54505 0.55960
 O414 O 1.03018 0.58193 0.52891
 C415 C 1.05586 0.57494 0.55079
 O416 O 0.95017 0.45101 0.58226
 O417 O 0.97431 0.41354 0.54030
 C418 C 0.95616 0.42093 0.57047
 Zr419 Zr 0.96389 0.49723 0.55792
 O420 O 0.97786 0.49944 0.61885
 O421 O 0.91378 0.49589 0.57334
 Zr422 Zr 1.04465 0.49849 0.54454
 O423 O 1.05053 0.50213 0.60727
 O424 O 1.09621 0.49646 0.53803
 Zr425 Zr 0.99836 0.44707 0.50185
 Zr426 Zr 0.99753 0.54758 0.50077
 O427 O 1.00478 0.52760 0.55813
 O428 O 1.00550 0.46769 0.55927
 O429 O 0.95077 0.52594 0.50880
 O430 O 1.04473 0.46925 0.49382
 O431 O 0.95157 0.46780 0.50920
 O432 O 1.04468 0.52739 0.49324
 H433 H 0.98733 0.54195 0.42105
 H434 H 1.06440 0.45517 0.49082
 H435 H 1.00720 0.54321 0.58095
 H436 H 0.93225 0.45300 0.51220
 H437 H 1.09452 0.49805 0.45482
 H438 H 1.10243 0.51386 0.51875
 H439 H 1.03950 0.48259 0.61910
 H440 H 0.95714 0.50021 0.63381
 H441 H 0.90125 0.48799 0.54963
 H442 H 0.89333 0.50533 0.48620
 H443 H 0.92423 0.49779 0.38829
 H444 H 1.00834 0.47890 0.37529
 O445 O 0.54876 0.05895 0.56712
 O446 O 0.58483 0.02855 0.53015
 C447 C 0.57821 0.05093 0.55692
 O448 O 0.45625 -0.05971 0.56601
 O449 O 0.41879 -0.02948 0.52947
 C450 C 0.42645 -0.05228 0.55542
 O451 O 0.54709 -0.05786 0.56862
 O452 O 0.58401 -0.02905 0.53076
 C453 C 0.57675 -0.05064 0.55810
 O454 O 0.45804 0.06339 0.56224
 O455 O 0.41963 0.03101 0.52901
 C456 C 0.42797 0.05521 0.55315
 Zr457 Zr 0.50272 0.04192 0.54564
 O458 O 0.50236 0.03659 0.60826
 O459 O 0.50380 0.09438 0.55147
 Zr460 Zr 0.50152 -0.04091 0.54660
 O461 O 0.49962 -0.03841 0.60959
 O462 O 0.50381 -0.09350 0.54849
 O463 O 0.53209 0.00040 0.55378
 O464 O 0.47299 0.00089 0.55345
 O465 O 0.45543 0.06266 0.42895
 O466 O 0.41838 0.03049 0.46270
 C467 C 0.42577 0.05476 0.43882
 O468 O 0.54460 -0.05976 0.42437
 O469 O 0.58270 -0.02967 0.46101
 C470 C 0.57461 -0.05193 0.43431
 O471 O 0.45388 -0.06426 0.43174
 O472 O 0.41751 -0.03024 0.46345
 C473 C 0.42434 -0.05546 0.44067
 O474 O 0.54615 0.05605 0.42153
 O475 O 0.58350 0.02755 0.46033
 C476 C 0.57595 0.04837 0.43210
 Zr477 Zr 0.50079 0.04089 0.44496
 O478 O 0.49689 0.03578 0.38234
 O479 O 0.50493 0.09328 0.44107
 Zr480 Zr 0.49958 -0.04196 0.44581
 O481 O 0.49435 -0.03795 0.38306
 O482 O 0.50143 -0.09422 0.43933
 Zr483 Zr 0.55082 -0.00039 0.49561
 Zr484 Zr 0.45150 0.00028 0.49593
 O485 O 0.47066 -0.00040 0.43818
 O486 O 0.52986 -0.00086 0.43761
 O487 O 0.47281 0.04827 0.49539
 O488 O 0.52896 -0.04802 0.49616
 O489 O 0.53047 0.04753 0.49503
 O490 O 0.47144 -0.04803 0.49650
 H491 H 0.45830 0.00141 0.57666
 H492 H 0.54304 -0.06802 0.49639
 H493 H 0.45472 -0.00057 0.41548
 H494 H 0.54539 0.06706 0.49438
 H495 H 0.48602 -0.10234 0.53087
 H496 H 0.50136 -0.10356 0.46651
 H497 H 0.51479 -0.02782 0.37297
 H498 H 0.49676 0.05870 0.37157
 H499 H 0.49288 0.10264 0.46380
 H500 H 0.51397 0.10351 0.52732
 H501 H 0.50191 0.05946 0.61933
 H502 H 0.51860 -0.02488 0.61913
 O503 O 0.54610 0.56016 0.07299
 O504 O 0.58250 0.53070 0.03543
 C505 C 0.57565 0.55263 0.06260
 O506 O 0.45584 0.43839 0.06960
 O507 O 0.41776 0.46962 0.03530
 C508 C 0.42585 0.44598 0.05995
 O509 O 0.54689 0.44394 0.07397
 O510 O 0.58287 0.47337 0.03549
 C511 C 0.57629 0.45187 0.06310
 O512 O 0.45523 0.56332 0.06789
 O513 O 0.41744 0.53001 0.03501
 C514 C 0.42532 0.55453 0.05889
 Zr515 Zr 0.50025 0.54235 0.05162
 O516 O 0.49980 0.53650 0.11417
 O517 O 0.50137 0.59468 0.05839
 Zr518 Zr 0.50075 0.45948 0.05195
 O519 O 0.49817 0.46218 0.11488
 O520 O 0.50511 0.40711 0.05496
 O521 O 0.53046 0.50141 0.05924
 O522 O 0.47134 0.50063 0.05926
 O523 O 0.45236 0.56184 -0.06583
 O524 O 0.41598 0.52944 -0.03136
 C525 C 0.42289 0.55350 -0.05575
 O526 O 0.54394 0.44309 -0.07191
 O527 O 0.58137 0.47303 -0.03406
 C528 C 0.57378 0.45120 -0.06147
 O529 O 0.45309 0.43753 -0.06556
 O530 O 0.41640 0.46916 -0.03103
 C531 C 0.42352 0.44513 -0.05542
 O532 O 0.54324 0.55836 -0.07201
 O533 O 0.58133 0.53059 -0.03346
 C534 C 0.57323 0.55151 -0.06143
 Zr535 Zr 0.49819 0.54187 -0.04910
 O536 O 0.49474 0.53719 -0.11180
 O537 O 0.50111 0.59438 -0.05252
 Zr538 Zr 0.49870 0.45888 -0.04891
 O539 O 0.49347 0.46090 -0.11179
 O540 O 0.50303 0.40648 -0.05156
 Zr541 Zr 0.54898 0.50135 0.00093
 Zr542 Zr 0.44986 0.49997 0.00174
 O543 O 0.46906 0.49997 -0.05603
 O544 O 0.52801 0.50078 -0.05698
 O545 O 0.47014 0.54843 0.00144
 O546 O 0.52824 0.45322 0.00131
 O547 O 0.52769 0.54886 0.00098
 O548 O 0.47067 0.45202 0.00176
 H549 H 0.45651 0.50064 0.08234
 H550 H 0.54281 0.43359 0.00121
 H551 H 0.45335 0.49965 -0.07896
 H552 H 0.54203 0.56886 0.00064
 H553 H 0.48943 0.39748 0.03518
 H554 H 0.48827 0.39708 -0.03138
 H555 H 0.51152 0.47500 -0.12181
 H556 H 0.49437 0.56017 -0.12235
 H557 H 0.48680 0.60344 -0.03165
 H558 H 0.50578 0.60414 0.03190
 H559 H 0.49904 0.55927 0.12548
 H560 H 0.51734 0.47531 0.12469
 C561 C 1.11436 0.15024 0.11070
 C562 C 1.11372 0.11702 0.12326
 N563 N 1.13334 0.10704 0.15390
 C564 C 1.15372 0.12890 0.17290
 C565 C 1.15480 0.16220 0.16046
 N566 N 1.13512 0.17220 0.12941
 N567 N 1.09404 0.15985 0.08021
 C568 C 1.07337 0.13758 0.06157
 C569 C 1.07342 0.10415 0.07375
 N570 N 1.09362 0.09502 0.10443
 H571 H 1.16918 0.12031 0.19731
 H572 H 1.05760 0.14574 0.03726
 C573 C 1.11571 0.64906 0.60522
 C574 C 1.11951 0.61517 0.61379
 N575 N 1.14233 0.60526 0.64100
 C576 C 1.16151 0.62782 0.66060
 C577 C 1.15778 0.66188 0.65260
 N578 N 1.13509 0.67182 0.62471
 N579 N 1.09221 0.65854 0.57826
 C580 C 1.07229 0.63557 0.55968
 C581 C 1.07622 0.60163 0.56850
 N582 N 1.09990 0.59256 0.59527
 H583 H 1.17955 0.61926 0.68227
 H584 H 1.05372 0.64368 0.53844
 C585 C 0.65015 0.11398 0.61077
 C586 C 0.61894 0.10982 0.62696
 N587 N 0.61034 0.12795 0.65913
 C588 C 0.63126 0.15073 0.67557
 C589 C 0.66227 0.15630 0.65873
 N590 N 0.67118 0.13717 0.62693
 N591 N 0.65841 0.09540 0.57847
 C592 C 0.63660 0.07337 0.56133
 C593 C 0.60488 0.07016 0.57687
 N594 N 0.59720 0.08842 0.60957
 H595 H 0.62361 0.16416 0.70175
 H596 H 0.64351 0.05954 0.53510
 C597 C 0.64968 0.61101 0.12006
 C598 C 0.61695 0.61175 0.13215
 N599 N 0.60812 0.63239 0.16203
 C600 C 0.63058 0.65238 0.18070
 C601 C 0.66359 0.65194 0.16895
 N602 N 0.67229 0.63124 0.13854
 N603 N 0.65815 0.59023 0.08987
 C604 C 0.63527 0.57037 0.07113
 C605 C 0.60233 0.57151 0.08297
 N606 N 0.59425 0.59226 0.11333
 H607 H 0.62247 0.66898 0.20391
 H608 H 0.64261 0.55437 0.04691
 C609 C 0.89583 -0.14969 0.11510
 C610 C 0.89961 -0.11759 0.13109
 N611 N 0.88152 -0.10810 0.16252
 C612 C 0.85910 -0.12903 0.17834
 C613 C 0.85406 -0.16088 0.16162
 N614 N 0.87312 -0.17072 0.13070
 N615 N 0.91400 -0.15869 0.08322
 C616 C 0.93519 -0.13671 0.06616
 C617 C 0.93791 -0.10413 0.08140
 N618 N 0.92021 -0.09575 0.11382
 H619 H 0.84532 -0.12073 0.20373
 H620 H 0.94861 -0.14414 0.04009
 C621 C 0.89656 0.35079 0.62854
 C622 C 0.90578 0.38081 0.64683
 N623 N 0.89277 0.38934 0.68211
 C624 C 0.87040 0.36958 0.70004
 C625 C 0.85957 0.33950 0.68139
 N626 N 0.87367 0.33109 0.64597
 N627 N 0.90970 0.34254 0.59287
 C628 C 0.93105 0.36347 0.57437
 C629 C 0.93904 0.39436 0.59204
 N630 N 0.92632 0.40191 0.62811
 H631 H 0.86109 0.37862 0.72778
 H632 H 0.94028 0.35685 0.54538
 C633 C 0.35618 -0.11481 0.60939
 C634 C 0.38828 -0.11160 0.62464
 N635 N 0.39796 -0.12983 0.65654
 C636 C 0.37714 -0.15169 0.67379
 C637 C 0.34501 -0.15607 0.65813
 N638 N 0.33525 -0.13699 0.62639
 N639 N 0.34675 -0.09603 0.57751
 C640 C 0.36818 -0.07452 0.56000
 C641 C 0.40065 -0.07200 0.57482
 N642 N 0.40958 -0.09062 0.60697
 H643 H 0.38571 -0.16499 0.69986
 H644 H 0.36026 -0.06035 0.53423
 C645 C 0.35456 0.38613 0.11647
 C646 C 0.38758 0.37677 0.11520
 N647 N 0.39744 0.34820 0.13298
 C648 C 0.37575 0.32842 0.15219
 C649 C 0.34257 0.33772 0.15417
 N650 N 0.33283 0.36659 0.13621
 N651 N 0.34492 0.41474 0.09822
 C652 C 0.36692 0.43449 0.07900
 C653 C 0.40020 0.42541 0.07849
 N654 N 0.40947 0.39661 0.09663
 H655 H 0.38459 0.30613 0.16671
 H656 H 0.35864 0.45721 0.06495
 C657 C 0.88018 0.14701 -0.10725
 C658 C 0.86921 0.11465 -0.09933
 N659 N 0.83784 0.10576 -0.10855
 C660 C 0.81697 0.12752 -0.12642
 C661 C 0.82815 0.15963 -0.13654
 N662 N 0.85955 0.16864 -0.12593
 N663 N 0.91152 0.15593 -0.09709
 C664 C 0.93250 0.13368 -0.07983
 C665 C 0.92179 0.10086 -0.07333
 N666 N 0.89025 0.09238 -0.08306
 H667 H 0.79203 0.11949 -0.13259
 H668 H 0.95743 0.14124 -0.07236
 C669 C 0.86827 0.63949 0.40619
 C670 C 0.90184 0.64770 0.40627
 N671 N 0.91182 0.67556 0.38696
 C672 C 0.88985 0.69511 0.36693
 C673 C 0.85636 0.68604 0.36552
 N674 N 0.84660 0.65858 0.38577
 N675 N 0.85797 0.61144 0.42442
 C676 C 0.87981 0.59054 0.44183
 C677 C 0.91362 0.59770 0.44057
 N678 N 0.92395 0.62654 0.42336
 H679 H 0.89872 0.71650 0.35077
 H680 H 0.87091 0.56792 0.45549
 C681 C 0.35404 0.11703 0.38578
 C682 C 0.38436 0.12964 0.39912
 N683 N 0.39153 0.16225 0.39390
 C684 C 0.36993 0.18307 0.37556
 C685 C 0.33947 0.17062 0.36033
 N686 N 0.33270 0.13754 0.36634
 N687 N 0.34667 0.08438 0.39197
 C688 C 0.36860 0.06373 0.41045
 C689 C 0.39963 0.07613 0.42231
 N690 N 0.40654 0.10894 0.41640
 H691 H 0.37784 0.20845 0.37152
 H692 H 0.36235 0.03776 0.41457
 C693 C 0.35066 0.61358 -0.11141
 C694 C 0.38269 0.62526 -0.10393
 N695 N 0.39153 0.65616 -0.11588
 C696 C 0.36982 0.67606 -0.13534
 C697 C 0.33782 0.66439 -0.14390
 N698 N 0.32899 0.63322 -0.13168
 N699 N 0.34204 0.58261 -0.09876
 C700 C 0.36419 0.56272 -0.07939
 C701 C 0.39659 0.57412 -0.07318
 N702 N 0.40477 0.60525 -0.08554
 H703 H 0.37782 0.70038 -0.14513
 H704 H 0.35687 0.53805 -0.07007
 C705 C 1.11420 -0.14377 -0.11818
 C706 C 1.12313 -0.11042 -0.11217
 N707 N 1.15311 -0.09942 -0.12304
 C708 C 1.17457 -0.12011 -0.14071
 C709 C 1.16542 -0.15336 -0.14880
 N710 N 1.13543 -0.16449 -0.13663
 N711 N 1.08427 -0.15462 -0.10599
 C712 C 1.06283 -0.13338 -0.08838
 C713 C 1.07159 -0.09971 -0.08367
 N714 N 1.10167 -0.08937 -0.09553
 H715 H 1.19849 -0.11044 -0.14814
 H716 H 1.03914 -0.14247 -0.07896
 C717 C 1.10389 0.35161 0.38060
 C718 C 1.09786 0.38271 0.36322
 N719 N 1.11489 0.39235 0.33093
 C720 C 1.13788 0.37230 0.31503
 C721 C 1.14446 0.34118 0.33241
 N722 N 1.12723 0.33156 0.36500
 N723 N 1.08683 0.34243 0.41331
 C724 C 1.06450 0.36328 0.42984
 C725 C 1.05938 0.39493 0.41316
 N726 N 1.07613 0.40353 0.38002
 H727 H 1.15138 0.38095 0.28956
 H728 H 1.05207 0.35581 0.45663
 C729 C 0.64652 -0.11055 0.37827
 C730 C 0.61322 -0.11292 0.36730
 N731 N 0.60330 -0.13522 0.33910
 C732 C 0.62521 -0.15533 0.32109
 C733 C 0.65878 -0.15321 0.33176
 N734 N 0.66854 -0.13082 0.36043
 N735 N 0.65616 -0.08820 0.40679
 C736 C 0.63391 -0.06827 0.42496
 C737 C 0.60042 -0.07096 0.41426
 N738 N 0.59113 -0.09330 0.38553
 H739 H 0.61628 -0.17326 0.29927
 H740 H 0.64222 -0.05097 0.44786
 C741 C 0.64634 0.39308 -0.11676
 C742 C 0.61523 0.39739 -0.13458
 N743 N 0.60755 0.38144 -0.16923
 C744 C 0.62952 0.36115 -0.18691
 C745 C 0.66049 0.35602 -0.16881
 N746 N 0.66816 0.37220 -0.13397
 N747 N 0.65398 0.40954 -0.08229
 C748 C 0.63174 0.42973 -0.06457
 C749 C 0.60015 0.43313 -0.08170
 N750 N 0.59288 0.41686 -0.11647
 H751 H 0.62255 0.34845 -0.21432
 H752 H 0.63828 0.44205 -0.03678
 C753 C 1.11003 0.14674 -0.12044
 C754 C 1.09867 0.11797 -0.13999
 N755 N 1.10978 0.11027 -0.17656
 C756 C 1.13198 0.12997 -0.19480
 C757 C 1.14444 0.15878 -0.17522
 N758 N 1.13289 0.16622 -0.13820
 N759 N 1.09866 0.15414 -0.08357
 C760 C 1.07697 0.13351 -0.06515
 C761 C 1.06693 0.10384 -0.08417
 N762 N 1.07793 0.09714 -0.12129
 H763 H 1.14080 0.12174 -0.22328
 H764 H 1.06903 0.13934 -0.03536
 C765 C 1.10604 0.64380 0.38195
 C766 C 1.10276 0.61121 0.36734
 N767 N 1.12133 0.60091 0.33669
 C768 C 1.14315 0.62181 0.31963
 C769 C 1.14676 0.65459 0.33396
 N770 N 1.12811 0.66481 0.36508
 N771 N 1.08735 0.65363 0.41302
 C772 C 1.06585 0.63214 0.43038
 C773 C 1.06320 0.59925 0.41614
 N774 N 1.08174 0.58991 0.38481
 H775 H 1.15793 0.61265 0.29554
 H776 H 1.05181 0.64032 0.45562
 C777 C 0.64776 0.10490 0.37269
 C778 C 0.61611 0.10025 0.35642
 N779 N 0.60735 0.11577 0.32213
 C780 C 0.62855 0.13654 0.30370
 C781 C 0.65990 0.14276 0.32073
 N782 N 0.66893 0.12615 0.35463
 N783 N 0.65630 0.08900 0.40706
 C784 C 0.63434 0.06918 0.42620
 C785 C 0.60220 0.06563 0.41060
 N786 N 0.59416 0.08112 0.37582
 H787 H 0.62077 0.14813 0.27610
 H788 H 0.64153 0.05738 0.45394
 C789 C 0.64293 0.61098 -0.12070
 C790 C 0.61082 0.60698 -0.13545
 N791 N 0.60086 0.62390 -0.16823
 C792 C 0.62154 0.64481 -0.18729
 C793 C 0.65412 0.64954 -0.17273
 N794 N 0.66368 0.63226 -0.13939
 N795 N 0.65261 0.59390 -0.08757
 C796 C 0.63135 0.57332 -0.06836
 C797 C 0.59880 0.57007 -0.08269
 N798 N 0.58961 0.58700 -0.11608
 H799 H 0.61163 0.65830 -0.21243
 H800 H 0.63946 0.56052 -0.04165
 C801 C 0.88919 -0.15318 -0.11298
 C802 C 0.88066 -0.11950 -0.11494
 N803 N 0.85193 -0.11039 -0.13249
 C804 C 0.83108 -0.13351 -0.14832
 C805 C 0.83937 -0.16741 -0.14679
 N806 N 0.86851 -0.17645 -0.12929
 N807 N 0.91796 -0.16194 -0.09469
 C808 C 0.93848 -0.13844 -0.07825
 C809 C 0.92993 -0.10465 -0.08066
 N810 N 0.90116 -0.09628 -0.09904
 H811 H 0.80866 -0.12531 -0.16289
 H812 H 0.96111 -0.14601 -0.06359
 C813 C 0.88218 0.34573 0.39382
 C814 C 0.87541 0.37974 0.38990
 N815 N 0.84966 0.38988 0.36707
 C816 C 0.83050 0.36751 0.34715
 C817 C 0.83748 0.33341 0.34998
 N818 N 0.86302 0.32315 0.37372
 N819 N 0.90842 0.33609 0.41661
 C820 C 0.92828 0.35903 0.43533
 C821 C 0.92163 0.39310 0.43069
 N822 N 0.89516 0.40230 0.40824
 H823 H 0.81022 0.37627 0.32879
 H824 H 0.94908 0.35079 0.45316
 C825 C 0.35160 -0.11846 0.38834
 C826 C 0.38314 -0.12986 0.39757
 N827 N 0.39136 -0.16146 0.38839
 C828 C 0.36965 -0.18246 0.36997
 C829 C 0.33772 -0.17126 0.35907
 N830 N 0.32989 -0.13915 0.36904
 N831 N 0.34346 -0.08670 0.39824
 C832 C 0.36575 -0.06581 0.41649
 C833 C 0.39784 -0.07702 0.42437
 N834 N 0.40546 -0.10894 0.41478
 H835 H 0.37852 -0.20687 0.36276
 H836 H 0.35882 -0.04056 0.42360
 C837 C 0.35049 0.38265 -0.10826
 C838 C 0.38371 0.37383 -0.10729
 N839 N 0.39325 0.34486 -0.12411
 C840 C 0.37106 0.32414 -0.14212
 C841 C 0.33764 0.33282 -0.14382
 N842 N 0.32820 0.36214 -0.12683
 N843 N 0.34126 0.41174 -0.09097
 C844 C 0.36383 0.43244 -0.07299
 C845 C 0.39725 0.42384 -0.07283
 N846 N 0.40610 0.39459 -0.08998
 H847 H 0.37971 0.30160 -0.15605
 H848 H 0.35587 0.45550 -0.05963
 C849 C 1.11555 -0.14585 0.11227
 C850 C 1.12453 -0.11218 0.11101
 N851 N 1.15311 -0.10178 0.12842
 C852 C 1.17325 -0.12358 0.14740
 C853 C 1.16423 -0.15736 0.14948
 N854 N 1.13542 -0.16765 0.13179
 N855 N 1.08693 -0.15603 0.09438
 C856 C 1.06679 -0.13390 0.07547
 C857 C 1.07554 -0.10002 0.07503
 N858 N 1.10433 -0.09022 0.09278
 H859 H 1.19552 -0.11436 0.16179
 H860 H 1.04410 -0.14256 0.06155
 C861 C 1.11738 0.35033 0.60702
 C862 C 1.12837 0.38299 0.60089
 N863 N 1.15903 0.39221 0.61307
 C864 C 1.17927 0.37027 0.63168
 C865 C 1.16813 0.33771 0.63905
 N866 N 1.13734 0.32854 0.62635
 N867 N 1.08664 0.34126 0.59450
 C868 C 1.06624 0.36361 0.57650
 C869 C 1.07693 0.39663 0.57161
 N870 N 1.10788 0.40529 0.58377
 H871 H 1.20326 0.37864 0.64202
 H872 H 1.04177 0.35592 0.56710
 C873 C 0.64846 -0.11080 0.61522
 C874 C 0.61509 -0.11301 0.62433
 N875 N 0.60469 -0.13577 0.65099
 C876 C 0.62620 -0.15642 0.66950
 C877 C 0.65991 -0.15429 0.66117
 N878 N 0.67022 -0.13155 0.63376
 N879 N 0.65836 -0.08801 0.58791
 C880 C 0.63631 -0.06752 0.56925
 C881 C 0.60279 -0.06999 0.57837
 N882 N 0.59333 -0.09278 0.60580
 H883 H 0.61684 -0.17469 0.69005
 H884 H 0.64476 -0.04990 0.54732
 C885 C 0.64918 0.39228 0.11766
 C886 C 0.61806 0.39587 0.13424
 N887 N 0.61003 0.37820 0.16698
 C888 C 0.63170 0.35684 0.18402
 C889 C 0.66281 0.35253 0.16728
 N890 N 0.67080 0.37045 0.13430
 N891 N 0.65690 0.41017 0.08474
 C892 C 0.63465 0.43105 0.06732
 C893 C 0.60306 0.43370 0.08321
 N894 N 0.59583 0.41609 0.11649
 H895 H 0.62429 0.34264 0.20971
 H896 H 0.64116 0.44446 0.04067
 C897 C 0.88479 0.14699 0.10320
 C898 C 0.87520 0.11355 0.09967
 N899 N 0.84529 0.10369 0.11232
 C900 C 0.82446 0.12576 0.12890
 C901 C 0.83419 0.15921 0.13363
 N902 N 0.86426 0.16900 0.12051
 N903 N 0.91475 0.15669 0.09006
 C904 C 0.93565 0.13428 0.07382
 C905 C 0.92635 0.10059 0.07141
 N906 N 0.89621 0.09125 0.08427
 H907 H 0.80116 0.11689 0.13976
 H908 H 0.95940 0.14254 0.06365
 C909 C 0.88792 0.64438 0.61492
 C910 C 0.89187 0.61277 0.63181
 N911 N 0.87349 0.60361 0.66315
 C912 C 0.85072 0.62440 0.67811
 C913 C 0.84562 0.65579 0.66056
 N914 N 0.86488 0.66524 0.62963
 N915 N 0.90652 0.65321 0.58336
 C916 C 0.92846 0.63157 0.56757
 C917 C 0.93159 0.59950 0.58385
 N918 N 0.91328 0.59120 0.61582
 H919 H 0.83697 0.61641 0.70366
 H920 H 0.94235 0.63889 0.54181
 C921 C 0.35772 0.11427 0.61156
 C922 C 0.39113 0.12275 0.61208
 N923 N 0.40176 0.15008 0.63243
 C924 C 0.38046 0.16951 0.65246
 C925 C 0.34684 0.16118 0.65245
 N926 N 0.33634 0.13351 0.63195
 N927 N 0.34736 0.08679 0.59093
 C928 C 0.36901 0.06733 0.57102
 C929 C 0.40262 0.07558 0.57215
 N930 N 0.41260 0.10325 0.59268
 H931 H 0.38992 0.19075 0.66902
 H932 H 0.36016 0.04549 0.55508
 C933 C 0.35391 0.61357 0.11537
 C934 C 0.38690 0.62346 0.11398
 N935 N 0.39676 0.65226 0.13175
 C936 C 0.37510 0.67181 0.15105
 C937 C 0.34192 0.66204 0.15308
 N938 N 0.33218 0.63290 0.13515
 N939 N 0.34430 0.58466 0.09720
 C940 C 0.36631 0.56513 0.07795
 C941 C 0.39955 0.57479 0.07728
 N942 N 0.40877 0.60387 0.09534
 H943 H 0.38398 0.69429 0.16557
 H944 H 0.35808 0.54215 0.06399
   
