data_POSCAR
  _audit_creation_date              2014-09-24
  _audit_creation_method            'ToBaCCo'
  _symmetry_space_group_name_H-M    'P1'
  _symmetry_Int_Tables_number       1
  _symmetry_cell_setting            triclinic
  loop_
  _symmetry_equiv_pos_as_xyz
 x,y,z
_cell_length_a 20.1973
_cell_length_b 20.3510
_cell_length_c 44.1296
_cell_angle_alpha 87.064600
_cell_angle_beta 94.563000
_cell_angle_gamma 120.039400
loop_
  _atom_site_label
  _atom_site_type_symbol
  _atom_site_fract_x
  _atom_site_fract_y
  _atom_site_fract_z
C1 C 0.03411 0.17919 0.51560
 H2 H 0.07505 0.19949 0.49833
 C3 C 0.02405 0.23147 0.53088
 H4 H 0.05765 0.29117 0.52510
 C5 C -0.05729 0.07793 0.54476
 H6 H -0.08846 0.01799 0.55028
 C7 C -0.06782 0.12878 0.56117
 H8 H -0.10773 0.10757 0.57899
 N9 N -0.00650 0.10379 0.52253
 C10 C 0.04551 -0.07903 0.51410
 H11 H 0.04388 -0.08072 0.48959
 C12 C 0.05626 -0.13217 0.53176
 H13 H 0.06212 -0.17494 0.52059
 C14 C 0.03760 -0.02234 0.55823
 H15 H 0.03129 0.02103 0.56852
 C16 C 0.04689 -0.07531 0.57677
 H17 H 0.04710 -0.07243 0.60121
 Zn18 Zn 0.01254 0.03672 0.50073
 N19 N 0.03520 -0.02631 0.52744
 C20 C 0.16691 0.10452 0.48530
 N21 N 0.09678 0.09528 0.47640
 C22 C 0.08601 0.12958 0.45073
 C23 C 0.14746 0.17613 0.43305
 C24 C 0.23004 0.15082 0.46833
 C25 C -0.14641 -0.05641 0.48364
 C26 C -0.20888 -0.11053 0.46593
 C27 C -0.12094 -0.10464 0.43052
 C28 C -0.06042 -0.05110 0.44897
 N29 N -0.07383 -0.02825 0.47506
 H30 H 0.17425 0.07706 0.50588
 H31 H 0.02972 0.12174 0.44430
 H32 H 0.13768 0.20403 0.41310
 H33 H 0.28524 0.15731 0.47589
 H34 H -0.15616 -0.03821 0.50453
 H35 H -0.26535 -0.13154 0.47384
 H36 H -0.10683 -0.12152 0.41030
 H37 H -0.00225 -0.02935 0.44281
 C38 C 0.05547 -0.13161 0.56347
 C39 C -0.02707 0.20656 0.55406
 C40 C -0.19698 -0.13683 0.43905
 C41 C 0.22090 0.18794 0.44197
 C42 C 1.10010 -0.00841 0.11866
 H43 H 1.08541 0.03504 0.11244
 C44 C 1.14631 -0.02033 0.10044
 H45 H 1.16628 0.01449 0.08022
 C46 C 1.09413 -0.10330 0.15359
 H47 H 1.07468 -0.13437 0.17468
 C48 C 1.14024 -0.11726 0.13596
 H49 H 1.15434 -0.16036 0.14356
 N50 N 1.07575 -0.04909 0.14481
 C51 C 0.94794 0.06075 0.14779
 H52 H 0.98493 0.10260 0.16444
 C53 C 0.89522 0.07267 0.12936
 H54 H 0.89279 0.12390 0.13217
 C55 C 0.90784 -0.05521 0.12329
 H56 H 0.91393 -0.10432 0.12058
 C57 C 0.85474 -0.04536 0.10430
 H58 H 0.81922 -0.08833 0.08769
 Zn59 Zn 1.02219 -0.02198 0.17009
 N60 N 0.95247 -0.00309 0.14483
 C61 C 1.07384 0.09843 0.21282
 N62 N 1.09518 0.06718 0.19170
 C63 C 1.17005 0.09827 0.18549
 C64 C 1.22651 0.16295 0.20052
 C65 C 1.12898 0.16242 0.22897
 C66 C 0.91499 -0.17255 0.18522
 C67 C 0.86757 -0.23308 0.20382
 C68 C 0.92685 -0.15204 0.24735
 C69 C 0.97405 -0.09337 0.22796
 N70 N 0.96589 -0.10377 0.19736
 H71 H 1.01404 0.07316 0.21739
 H72 H 1.18667 0.07286 0.16896
 H73 H 1.28572 0.18602 0.19538
 H74 H 1.11137 0.18623 0.24591
 H75 H 0.91054 -0.18045 0.16100
 H76 H 0.82602 -0.28657 0.19352
 H77 H 0.93301 -0.14219 0.27155
 H78 H 1.01623 -0.03943 0.23748
 C79 C 0.84730 0.01890 0.10740
 C80 C 1.16800 -0.07469 0.10915
 C81 C 0.87208 -0.22263 0.23523
 C82 C 1.20632 0.19548 0.22268
 C83 C 0.04628 0.94264 0.87670
 H84 H -0.00746 0.88976 0.87754
 C85 C 0.10989 0.95205 0.89498
 H86 H 0.10450 0.90582 0.90981
 C87 C 0.11851 1.06593 0.85543
 H88 H 0.12183 1.10965 0.83963
 C89 C 0.18393 1.07750 0.87313
 H90 H 0.23671 1.13093 0.87119
 N91 N 0.05135 0.99944 0.85770
 C92 C -0.18901 0.93616 0.84294
 H93 H -0.19633 0.93096 0.81846
 C94 C -0.25030 0.92406 0.85952
 H95 H -0.30385 0.90961 0.84699
 C96 C -0.10793 0.96514 0.88785
 H97 H -0.05187 0.98284 0.89877
 C98 C -0.16733 0.95445 0.90533
 H99 H -0.15531 0.96258 0.92957
 Zn100 Zn -0.03750 0.97861 0.83295
 N101 N -0.11968 0.95588 0.85724
 C102 C -0.12527 0.82785 0.80936
 N103 N -0.05918 0.89583 0.80846
 C104 C -0.00236 0.90678 0.79076
 C105 C -0.01140 0.84883 0.77239
 C106 C -0.13662 0.76796 0.79138
 C107 C -0.00348 1.12845 0.82301
 C108 C 0.00762 1.19310 0.80646
 C109 C -0.01866 1.12366 0.76012
 C110 C -0.02910 1.06031 0.77759
 N111 N -0.02069 1.06404 0.80845
 H112 H -0.16895 0.81963 0.82418
 H113 H 0.05028 0.96090 0.79101
 H114 H 0.03501 0.85910 0.75866
 H115 H -0.18992 0.71463 0.79213
 H116 H 0.00129 1.12934 0.84760
 H117 H 0.02040 1.24323 0.81869
 H118 H -0.02502 1.11956 0.73560
 H119 H -0.04475 1.00806 0.76641
 C120 C -0.24014 0.93410 0.89129
 C121 C 0.17994 1.02012 0.89328
 C122 C 0.00019 1.19134 0.77454
 C123 C -0.07928 0.77826 0.77248
 C124 C 0.31272 -0.02916 0.00136
 C125 C 0.35469 -0.00409 -0.02471
 C126 C 0.42488 -0.00252 -0.02450
 C127 C 0.45250 -0.02748 0.00120
 C128 C 0.40970 -0.05213 0.02722
 C129 C 0.34006 -0.05233 0.02761
 C130 C 0.52588 -0.02791 0.00062
 C131 C 0.57845 -0.00486 0.02599
 C132 C 0.64809 -0.00417 0.02531
 C133 C 0.66574 -0.02548 -0.00138
 C134 C 0.61445 -0.04798 -0.02744
 C135 C 0.54387 -0.05032 -0.02568
 H136 H 0.25871 -0.03006 0.00120
 H137 H 0.45776 0.01743 -0.04450
 H138 H 0.43097 -0.07078 0.04713
 H139 H 0.56490 0.01243 0.04632
 H140 H 0.71995 -0.02391 -0.00157
 H141 H 0.50230 -0.06838 -0.04480
 C142 C -0.01947 0.68231 0.66723
 C143 C -0.05092 0.63040 0.69134
 C144 C -0.05555 0.55934 0.69040
 C145 C -0.02728 0.54070 0.66606
 C146 C 0.00460 0.59396 0.64230
 C147 C 0.00799 0.66455 0.64248
 C148 C -0.02870 0.46679 0.66567
 C149 C -0.04191 0.42915 0.63814
 C150 C -0.03628 0.36325 0.63688
 C151 C -0.02205 0.33217 0.66414
 C152 C -0.01057 0.36790 0.69206
 C153 C -0.01326 0.43547 0.69253
 H154 H -0.01645 0.73680 0.66777
 H155 H -0.08018 0.51890 0.70881
 H156 H 0.02684 0.58012 0.62366
 H157 H -0.05642 0.45180 0.61764
 H158 H -0.01682 0.28190 0.66363
 H159 H -0.00267 0.46424 0.71381
 C160 C 0.70246 0.68205 0.33899
 C161 C 0.68300 0.63266 0.31459
 C162 C 0.61259 0.56472 0.31375
 C163 C 0.56082 0.54662 0.33639
 C164 C 0.58051 0.59759 0.36027
 C165 C 0.65195 0.66534 0.36225
 C166 C 0.48687 0.47347 0.33532
 C167 C 0.45870 0.43072 0.36199
 C168 C 0.39045 0.36044 0.36097
 C169 C 0.35083 0.33213 0.33277
 C170 C 0.37887 0.37324 0.30572
 C171 C 0.44576 0.44471 0.30740
 H172 H 0.75701 0.73401 0.33940
 H173 H 0.59754 0.52569 0.29534
 H174 H 0.53999 0.58286 0.37746
 H175 H 0.49027 0.45210 0.38356
 H176 H 0.29993 0.27665 0.33190
 H177 H 0.46625 0.47848 0.28696
 N178 N -0.02975 0.36905 0.58019
 N179 N -0.02716 0.32809 0.55858
 C180 C -0.03591 0.26247 0.57081
 C181 C -0.04508 0.26136 0.60169
 C182 C -0.04004 0.33068 0.60691
 H183 H -0.05010 0.21806 0.61812
 H184 H -0.02077 0.42390 0.57652
 H185 H -0.01773 0.34603 0.53594
 N186 N 0.73306 0.60340 0.26978
 N187 N 0.78265 0.64146 0.24893
 C188 C 0.81784 0.71612 0.25498
 C189 C 0.78958 0.72586 0.28096
 C190 C 0.73524 0.65301 0.28955
 H191 H 0.80318 0.77897 0.29095
 H192 H 0.69839 0.54443 0.27010
 H193 H 0.79150 0.61624 0.23082
 N194 N 0.36744 0.07022 -0.07325
 N195 N 0.32151 0.07718 -0.09462
 C196 C 0.24823 0.03050 -0.08775
 C197 C 0.24777 -0.00730 -0.06069
 C198 C 0.32438 0.01940 -0.05220
 H199 H 0.19853 -0.04899 -0.04894
 H200 H 0.42717 0.10051 -0.07313
 H201 H 0.34055 0.11238 -0.11378
 N202 N 0.08172 0.71635 0.59539
 N203 N 0.09420 0.76995 0.57470
 C204 C 0.05995 0.80846 0.58237
 C205 C 0.02429 0.77810 0.60919
 C206 C 0.03875 0.71916 0.61667
 H207 H -0.01105 0.79398 0.62055
 H208 H 0.10251 0.67878 0.59459
 H209 H 0.12548 0.77939 0.55564
 N210 N 0.37751 0.36195 0.24933
 N211 N 0.33237 0.31520 0.22761
 C212 C 0.26660 0.26242 0.23938
 C213 C 0.26982 0.27652 0.27001
 C214 C 0.34174 0.33994 0.27562
 H215 H 0.22748 0.24250 0.28613
 H216 H 0.43327 0.40567 0.24616
 H217 H 0.34757 0.31870 0.20526
 N218 N 0.58627 -0.09295 -0.08004
 N219 N 0.62728 -0.09783 -0.10292
 C220 C 0.69984 -0.07348 -0.09168
 C221 C 0.70569 -0.05381 -0.06134
 C222 C 0.63398 -0.06557 -0.05488
 H223 H 0.75700 -0.02961 -0.04641
 H224 H 0.52844 -0.10900 -0.08303
 H225 H 0.60320 -0.11772 -0.12464
 N226 N 0.30330 -0.11678 0.07871
 N227 N 0.25779 -0.12303 0.09999
 C228 C 0.22085 -0.08487 0.09081
 C229 C 0.24403 -0.05345 0.06230
 C230 C 0.29640 -0.07466 0.05541
 H231 H 0.22685 -0.01823 0.04868
 H232 H 0.33819 -0.14125 0.08039
 H233 H 0.25400 -0.15177 0.12062
 N234 N 0.62547 0.70962 0.40812
 N235 N 0.66791 0.76607 0.42955
 C236 C 0.74137 0.80480 0.42172
 C237 C 0.74624 0.77439 0.39492
 C238 C 0.67309 0.71466 0.38716
 H239 H 0.79736 0.79146 0.38318
 H240 H 0.56674 0.67215 0.40884
 H241 H 0.64471 0.77314 0.44857
 N242 N 0.04461 0.37677 0.74565
 N243 N 0.04748 0.33063 0.76721
 C244 C 0.01086 0.25921 0.75655
 C245 C -0.01600 0.26041 0.72668
 C246 C 0.00616 0.33599 0.72068
 H247 H -0.04931 0.21277 0.71172
 H248 H 0.06975 0.43535 0.74815
 H249 H 0.07507 0.34869 0.78867
 N250 N 0.70775 0.06643 0.07396
 N251 N 0.76029 0.07289 0.09534
 C252 C 0.78946 0.02925 0.08812
 C253 C 0.75394 -0.00609 0.06073
 C254 C 0.70238 0.01882 0.05253
 H255 H 0.76317 -0.04551 0.04868
 H256 H 0.67662 0.09469 0.07421
 H257 H 0.77417 0.10545 0.11480
 N258 N 0.40561 0.32043 0.41457
 N259 N 0.36126 0.27472 0.43568
 C260 C 0.28774 0.24025 0.42441
 C261 C 0.28562 0.26506 0.39465
 C262 C 0.36150 0.31602 0.38930
 H263 H 0.23588 0.24947 0.37918
 H264 H 0.46513 0.35361 0.41763
 H265 H 0.38154 0.26915 0.45761
 N266 N -0.12986 0.60268 0.73655
 N267 N -0.13769 0.64158 0.75773
 C268 C -0.08945 0.71626 0.75299
 C269 C -0.04973 0.72493 0.72753
 C270 C -0.07684 0.65174 0.71774
 H271 H -0.00636 0.77724 0.71767
 H272 H -0.16095 0.54359 0.73508
 H273 H -0.17455 0.61676 0.77535
   
