data_POSCAR
  _audit_creation_date              2014-09-24
  _audit_creation_method            'ToBaCCo'
  _symmetry_space_group_name_H-M    'P1'
  _symmetry_Int_Tables_number       1
  _symmetry_cell_setting            triclinic
  loop_
  _symmetry_equiv_pos_as_xyz
 x,y,z
_cell_length_a 67.5276
_cell_length_b 67.5550
_cell_length_c 19.9024
_cell_angle_alpha 89.938700
_cell_angle_beta 90.109600
_cell_angle_gamma 120.028800
loop_
  _atom_site_label
  _atom_site_type_symbol
  _atom_site_fract_x
  _atom_site_fract_y
  _atom_site_fract_z
C1 C 0.24709 0.49478 0.52881
 C2 C 0.24697 0.49477 0.46026
 C3 C 0.22767 0.49367 0.42115
 C4 C 0.26619 0.49592 0.42094
 C5 C 0.26526 0.49360 0.56790
 C6 C 0.22909 0.49605 0.56812
 C7 C 0.20508 0.47599 0.43175
 C8 C 0.18703 0.47549 0.39571
 C9 C 0.19141 0.49253 0.34815
 C10 C 0.21397 0.50991 0.33636
 C11 C 0.23199 0.51042 0.37247
 C12 C 0.26182 0.47907 0.37264
 C13 C 0.27983 0.47956 0.33676
 C14 C 0.30234 0.49700 0.34841
 C15 C 0.30676 0.51415 0.39537
 C16 C 0.28876 0.51370 0.43123
 C17 C 0.27779 0.51036 0.61648
 C18 C 0.29530 0.50979 0.65243
 C19 C 0.30034 0.49236 0.64061
 C20 C 0.28760 0.47532 0.59326
 C21 C 0.27006 0.47585 0.55732
 C22 C 0.22442 0.51389 0.55773
 C23 C 0.20694 0.51447 0.59363
 C24 C 0.19416 0.49737 0.64073
 C25 C 0.19911 0.47987 0.65245
 C26 C 0.21656 0.47925 0.61654
 H27 H 0.20143 0.46267 0.46815
 H28 H 0.16970 0.46186 0.40530
 H29 H 0.21769 0.52321 0.29970
 H30 H 0.24930 0.52410 0.36329
 H31 H 0.24452 0.46531 0.36372
 H32 H 0.27622 0.46623 0.30045
 H33 H 0.29243 0.52709 0.46735
 H34 H 0.27427 0.52410 0.62566
 H35 H 0.30502 0.52304 0.68902
 H36 H 0.29130 0.46170 0.58390
 H37 H 0.26031 0.46252 0.52101
 H38 H 0.23419 0.52724 0.52152
 H39 H 0.20331 0.52814 0.58439
 H40 H 0.18935 0.46658 0.68888
 H41 H 0.22001 0.46545 0.62554
 H42 H 0.32412 0.52778 0.40455
 C43 C 0.50513 -0.24791 0.53575
 C44 C 0.50501 -0.24794 0.46720
 C45 C 0.50609 -0.26606 0.42783
 C46 C 0.50375 -0.22985 0.42816
 C47 C 0.50626 -0.22868 0.57511
 C48 C 0.50408 -0.26714 0.57483
 C49 C 0.52387 -0.27087 0.43796
 C50 C 0.52433 -0.28836 0.40170
 C51 C 0.50718 -0.30104 0.35449
 C52 C 0.48972 -0.29598 0.34315
 C53 C 0.48923 -0.27853 0.37941
 C54 C 0.52055 -0.21724 0.37987
 C55 C 0.51999 -0.19968 0.34433
 C56 C 0.50253 -0.19469 0.35631
 C57 C 0.48542 -0.20755 0.40326
 C58 C 0.48594 -0.22515 0.43879
 C59 C 0.48953 -0.23308 0.62387
 C60 C 0.49006 -0.21512 0.66011
 C61 C 0.50741 -0.19258 0.64841
 C62 C 0.52442 -0.18810 0.60088
 C63 C 0.52393 -0.20607 0.56464
 C64 C 0.48628 -0.28970 0.56463
 C65 C 0.48589 -0.30772 0.60035
 C66 C 0.50316 -0.30333 0.64711
 C67 C 0.52063 -0.28081 0.65862
 C68 C 0.52104 -0.26280 0.62286
 H69 H 0.53728 -0.26117 0.47414
 H70 H 0.53797 -0.29207 0.41069
 H71 H 0.47639 -0.30565 0.30668
 H72 H 0.47546 -0.27499 0.37059
 H73 H 0.53433 -0.22071 0.37070
 H74 H 0.53328 -0.18985 0.30802
 H75 H 0.47259 -0.23497 0.47492
 H76 H 0.47586 -0.25040 0.63296
 H77 H 0.47683 -0.21878 0.69683
 H78 H 0.53797 -0.17074 0.59161
 H79 H 0.53723 -0.20235 0.52819
 H80 H 0.47281 -0.29334 0.52871
 H81 H 0.47221 -0.32505 0.59114
 H82 H 0.53408 -0.27715 0.69473
 H83 H 0.53481 -0.24551 0.63169
 H84 H 0.47178 -0.20389 0.41270
 C85 C 1.24765 0.75278 0.53619
 C86 C 1.24789 0.75290 0.46765
 C87 C 1.26614 0.77223 0.42887
 C88 C 1.22991 0.73367 0.42797
 C89 C 1.22824 0.73459 0.57489
 C90 C 1.26683 0.77082 0.57589
 C91 C 1.27096 0.79479 0.43932
 C92 C 1.28849 0.81285 0.40340
 C93 C 1.30122 0.80851 0.35615
 C94 C 1.29616 0.78600 0.34456
 C95 C 1.27866 0.76796 0.38052
 C96 C 1.21752 0.73800 0.37913
 C97 C 1.20013 0.71998 0.34277
 C98 C 1.19509 0.69750 0.35448
 C99 C 1.20772 0.69311 0.40202
 C100 C 1.22515 0.71112 0.43837
 C101 C 1.23243 0.72211 0.62378
 C102 C 1.21430 0.70458 0.65940
 C103 C 1.19180 0.69945 0.64693
 C104 C 1.18755 0.71216 0.59922
 C105 C 1.20568 0.72972 0.56364
 C106 C 1.28940 0.77556 0.56613
 C107 C 1.30738 0.79308 0.60229
 C108 C 1.30295 0.80585 0.64909
 C109 C 1.28042 0.80082 0.66020
 C110 C 1.26244 0.78332 0.62398
 H111 H 1.26120 0.79840 0.47544
 H112 H 1.29214 0.83016 0.41272
 H113 H 1.30582 0.78237 0.30809
 H114 H 1.27511 0.75068 0.37144
 H115 H 1.22105 0.75528 0.37012
 H116 H 1.19048 0.72356 0.30602
 H117 H 1.23481 0.70749 0.47491
 H118 H 1.24970 0.72570 0.63346
 H119 H 1.21786 0.69494 0.69622
 H120 H 1.17024 0.70846 0.58923
 H121 H 1.20214 0.73943 0.52708
 H122 H 1.29307 0.76580 0.53017
 H123 H 1.32472 0.79673 0.59338
 H124 H 1.27673 0.81054 0.69633
 H125 H 1.24514 0.77981 0.63248
 H126 H 1.20401 0.67578 0.41127
 C127 C 0.74907 0.49788 0.53643
 C128 C 0.74919 0.49783 0.46788
 C129 C 0.76872 0.49934 0.42938
 C130 C 0.72994 0.49660 0.42826
 C131 C 0.73105 0.49939 0.57491
 C132 C 0.76715 0.49677 0.57607
 C133 C 0.79113 0.51737 0.44053
 C134 C 0.80948 0.51813 0.40591
 C135 C 0.80561 0.50105 0.35931
 C136 C 0.78327 0.48337 0.34671
 C137 C 0.76490 0.48258 0.38136
 C138 C 0.73422 0.51348 0.38010
 C139 C 0.71612 0.51319 0.34505
 C140 C 0.69360 0.49591 0.35738
 C141 C 0.68926 0.47866 0.40395
 C142 C 0.70735 0.47892 0.43898
 C143 C 0.71815 0.48268 0.62311
 C144 C 0.70057 0.48347 0.65778
 C145 C 0.69586 0.50110 0.64501
 C146 C 0.70906 0.51815 0.59818
 C147 C 0.72665 0.51738 0.56358
 C148 C 0.77207 0.47910 0.56562
 C149 C 0.78996 0.47894 0.60063
 C150 C 0.80293 0.49629 0.64696
 C151 C 0.79764 0.51356 0.65901
 C152 C 0.77978 0.51374 0.62396
 H153 H 0.79438 0.53070 0.47644
 H154 H 0.82669 0.53194 0.41579
 H155 H 0.78008 0.47010 0.31061
 H156 H 0.74774 0.46863 0.37179
 H157 H 0.75152 0.52719 0.37091
 H158 H 0.71967 0.52659 0.30903
 H159 H 0.70373 0.46552 0.47506
 H160 H 0.72139 0.46877 0.63282
 H161 H 0.69054 0.47020 0.69401
 H162 H 0.70569 0.53196 0.58802
 H163 H 0.73671 0.53067 0.52751
 H164 H 0.76225 0.46563 0.52974
 H165 H 0.79379 0.46542 0.59099
 H166 H 0.80750 0.52707 0.69481
 H167 H 0.77617 0.52743 0.63292
 H168 H 0.67190 0.46517 0.41366
 C169 C 0.50200 0.25077 0.53738
 C170 C 0.50209 0.25095 0.46884
 C171 C 0.50072 0.26903 0.43009
 C172 C 0.50320 0.23288 0.42939
 C173 C 0.50038 0.23119 0.57603
 C174 C 0.50321 0.27000 0.57680
 C175 C 0.48274 0.27348 0.44079
 C176 C 0.48206 0.29106 0.40569
 C177 C 0.49918 0.30418 0.35906
 C178 C 0.51682 0.29946 0.34698
 C179 C 0.51754 0.28190 0.38212
 C180 C 0.48631 0.22038 0.38109
 C181 C 0.48654 0.20259 0.34599
 C182 C 0.50375 0.19725 0.35840
 C183 C 0.52100 0.21005 0.40517
 C184 C 0.52081 0.22787 0.44026
 C185 C 0.51710 0.23492 0.62425
 C186 C 0.51626 0.21650 0.65884
 C187 C 0.49858 0.19417 0.64597
 C188 C 0.48151 0.19040 0.59918
 C189 C 0.48233 0.20883 0.56465
 C190 C 0.52097 0.29257 0.56634
 C191 C 0.52118 0.31067 0.60093
 C192 C 0.50377 0.30636 0.64687
 C193 C 0.48642 0.28384 0.65899
 C194 C 0.48619 0.26574 0.62435
 H195 H 0.46937 0.26345 0.47665
 H196 H 0.46826 0.29449 0.41516
 H197 H 0.53011 0.30947 0.31086
 H198 H 0.53144 0.27862 0.37288
 H199 H 0.47267 0.22405 0.37179
 H200 H 0.47313 0.19281 0.30981
 H201 H 0.53421 0.23758 0.47646
 H202 H 0.53106 0.25205 0.63398
 H203 H 0.52955 0.21967 0.69505
 H204 H 0.46766 0.17324 0.58894
 H205 H 0.46904 0.20565 0.52856
 H206 H 0.53447 0.29616 0.53071
 H207 H 0.53477 0.32800 0.59125
 H208 H 0.47287 0.28025 0.69448
 H209 H 0.47242 0.24846 0.63331
 H210 H 0.53444 0.20612 0.41496
 C211 C 0.74901 0.25161 0.53623
 C212 C 0.74900 0.25162 0.46768
 C213 C 0.72966 0.23354 0.42850
 C214 C 0.76852 0.26952 0.42875
 C215 C 0.76711 0.27094 0.57538
 C216 C 0.73111 0.23209 0.57515
 C217 C 0.73382 0.22091 0.38028
 C218 C 0.71565 0.20313 0.34544
 C219 C 0.69316 0.19792 0.35804
 C220 C 0.68893 0.21085 0.40473
 C221 C 0.70709 0.22866 0.43955
 C222 C 0.79090 0.27384 0.43986
 C223 C 0.80924 0.29129 0.40475
 C224 C 0.80538 0.30441 0.35770
 C225 C 0.78305 0.29980 0.34516
 C226 C 0.76469 0.28237 0.38030
 C227 C 0.77198 0.29349 0.56421
 C228 C 0.78986 0.31166 0.59880
 C229 C 0.80288 0.30745 0.64546
 C230 C 0.79766 0.28495 0.65821
 C231 C 0.77981 0.26678 0.62356
 C232 C 0.71824 0.23588 0.62343
 C233 C 0.70075 0.21750 0.65838
 C234 C 0.69611 0.19519 0.64581
 C235 C 0.70928 0.19135 0.59899
 C236 C 0.72678 0.20972 0.56408
 H237 H 0.75110 0.22448 0.37082
 H238 H 0.71912 0.19325 0.30933
 H239 H 0.67160 0.20702 0.41466
 H240 H 0.70356 0.23848 0.47567
 H241 H 0.79414 0.26382 0.47610
 H242 H 0.82644 0.29464 0.41459
 H243 H 0.74754 0.27918 0.37076
 H244 H 0.76211 0.29701 0.52810
 H245 H 0.79364 0.32897 0.58862
 H246 H 0.80756 0.28143 0.69425
 H247 H 0.77624 0.24952 0.63309
 H248 H 0.72143 0.25302 0.63294
 H249 H 0.69070 0.22065 0.69464
 H250 H 0.70590 0.17417 0.58912
 H251 H 0.73681 0.20649 0.52796
 H252 H 0.77988 0.30982 0.30872
 O253 O 0.96799 0.51898 -0.12283
 O254 O 0.94297 0.48852 -0.05805
 C255 C 0.94756 0.50352 -0.10481
 O256 O 1.03204 0.48066 -0.12081
 O257 O 1.05748 0.51203 -0.05955
 C258 C 1.05260 0.49613 -0.10354
 O259 O 0.96784 0.45031 -0.12571
 O260 O 0.94290 0.45531 -0.05937
 C261 C 0.94743 0.44520 -0.10712
 O262 O 1.03214 0.55294 -0.11657
 O263 O 1.05757 0.54622 -0.05795
 C264 C 1.05271 0.55779 -0.10019
 Zr265 Zr 1.00009 0.52565 -0.08441
 O266 O 1.00209 0.52832 -0.19044
 O267 O 0.99899 0.55625 -0.07525
 Zr268 Zr 0.99999 0.47556 -0.08722
 O269 O 1.00222 0.47703 -0.19339
 O270 O 0.99736 0.44298 -0.08750
 O271 O 0.97960 0.49046 -0.09851
 O272 O 1.01983 0.51055 -0.09879
 O273 O 1.03266 0.55238 0.11646
 O274 O 1.05761 0.54595 0.05481
 C275 C 1.05307 0.55728 0.09858
 O276 O 0.96870 0.44952 0.12127
 O277 O 0.94329 0.45494 0.05822
 C278 C 0.94816 0.44450 0.10426
 O279 O 1.03258 0.47960 0.11352
 O280 O 1.05761 0.51133 0.05314
 C281 C 1.05302 0.49513 0.09590
 O282 O 0.96878 0.51862 0.12417
 O283 O 0.94331 0.48826 0.05974
 C284 C 0.94822 0.50325 0.10675
 Zr285 Zr 1.00062 0.52508 0.08479
 O286 O 1.00353 0.52578 0.19083
 O287 O 0.99855 0.55532 0.08568
 Zr288 Zr 1.00056 0.47504 0.08232
 O289 O 1.00351 0.47608 0.18836
 O290 O 0.99791 0.44247 0.07977
 Zr291 Zr 0.96606 0.48322 -0.00031
 Zr292 Zr 1.03445 0.51734 -0.00213
 O293 O 1.02054 0.50997 0.09533
 O294 O 0.98019 0.48982 0.09729
 O295 O 1.02084 0.53939 -0.00021
 O296 O 0.98031 0.46174 -0.00214
 O297 O 0.98032 0.51895 0.00074
 O298 O 1.02072 0.48160 -0.00319
 H299 H 1.02995 0.51583 -0.13867
 H300 H 0.96996 0.44494 -0.00251
 H301 H 1.03098 0.51502 0.13458
 H302 H 0.96999 0.52541 0.00138
 H303 H 1.01070 0.44435 -0.06267
 H304 H 1.01071 0.44383 0.05223
 H305 H 0.99093 0.47793 0.20669
 H306 H 0.99053 0.51146 0.20831
 H307 H 1.00928 0.56566 0.05115
 H308 H 0.99899 0.56153 -0.12171
 H309 H 0.99094 0.51315 -0.20872
 H310 H 0.98953 0.47897 -0.21046
 O311 O 0.55026 0.51805 0.12222
 O312 O 0.54525 0.48780 0.05729
 C313 C 0.55537 0.50267 0.10456
 O314 O 0.44786 0.47971 0.11382
 O315 O 0.45427 0.51128 0.05283
 C316 C 0.44292 0.49524 0.09620
 O317 O 0.48154 0.44930 0.12077
 O318 O 0.51203 0.45453 0.05663
 C319 C 0.49696 0.44422 0.10327
 O320 O 0.52012 0.55198 0.11397
 O321 O 0.48840 0.54548 0.05330
 C322 C 0.50453 0.55689 0.09656
 Zr323 Zr 0.52509 0.52481 0.08223
 O324 O 0.52497 0.52709 0.18827
 O325 O 0.55687 0.55546 0.07507
 Zr326 Zr 0.47503 0.47472 0.08191
 O327 O 0.47351 0.47581 0.18801
 O328 O 0.44502 0.44215 0.08032
 O329 O 0.51025 0.48957 0.09551
 O330 O 0.49013 0.50966 0.09438
 O331 O 0.52077 0.55225 -0.11905
 O332 O 0.48892 0.54558 -0.05944
 C333 C 0.50512 0.55708 -0.10218
 O334 O 0.48185 0.44941 -0.12616
 O335 O 0.51218 0.45462 -0.06096
 C336 C 0.49725 0.44436 -0.10807
 O337 O 0.44793 0.47939 -0.12048
 O338 O 0.45424 0.51093 -0.05985
 C339 C 0.44290 0.49485 -0.10318
 O340 O 0.55087 0.51848 -0.12477
 O341 O 0.54549 0.48792 -0.06051
 C342 C 0.55591 0.50305 -0.10699
 Zr343 Zr 0.52524 0.52483 -0.08699
 O344 O 0.52383 0.52593 -0.19315
 O345 O 0.55760 0.55507 -0.08582
 Zr346 Zr 0.47521 0.47478 -0.08766
 O347 O 0.47412 0.47626 -0.19379
 O348 O 0.44524 0.44219 -0.08717
 Zr349 Zr 0.51727 0.48268 -0.00221
 Zr350 Zr 0.48303 0.51678 -0.00278
 O351 O 0.49027 0.50975 -0.09977
 O352 O 0.51047 0.48962 -0.10031
 O353 O 0.51872 0.53885 -0.00245
 O354 O 0.48149 0.46119 -0.00271
 O355 O 0.53878 0.51841 -0.00202
 O356 O 0.46098 0.48105 -0.00308
 H357 H 0.48501 0.51481 0.13393
 H358 H 0.47503 0.44440 -0.00275
 H359 H 0.48516 0.51494 -0.13935
 H360 H 0.55558 0.52488 -0.00162
 H361 H 0.43324 0.44363 0.05481
 H362 H 0.43364 0.44339 -0.06003
 H363 H 0.48865 0.47810 -0.21119
 H364 H 0.52257 0.51165 -0.21069
 H365 H 0.55695 0.56530 -0.05143
 H366 H 0.56181 0.56057 0.12185
 H367 H 0.52084 0.51186 0.20631
 H368 H 0.48801 0.47765 0.20597
 O369 O 0.48094 0.03183 0.12335
 O370 O 0.51136 0.05694 0.05865
 C371 C 0.49639 0.05229 0.10548
 O372 O 0.51965 -0.03180 0.12067
 O373 O 0.48821 -0.05714 0.05953
 C374 C 0.50418 -0.05232 0.10337
 O375 O 0.54965 0.03240 0.12494
 O376 O 0.54449 0.05741 0.05895
 C377 C 0.55469 0.05284 0.10651
 O378 O 0.44696 -0.03224 0.11649
 O379 O 0.45365 -0.05753 0.05735
 C380 C 0.44212 -0.05276 0.09982
 Zr381 Zr 0.47421 -0.00018 0.08447
 O382 O 0.47154 -0.00234 0.19047
 O383 O 0.44359 0.00093 0.07527
 Zr384 Zr 0.52439 0.00007 0.08709
 O385 O 0.52276 -0.00228 0.19326
 O386 O 0.55700 0.00275 0.08815
 O387 O 0.50943 0.02033 0.09866
 O388 O 0.48937 -0.01988 0.09848
 O389 O 0.44741 -0.03235 -0.11662
 O390 O 0.45390 -0.05740 -0.05535
 C391 C 0.44252 -0.05279 -0.09895
 O392 O 0.55030 0.03151 -0.12134
 O393 O 0.54490 0.05681 -0.05795
 C394 C 0.55534 0.05202 -0.10408
 O395 O 0.51997 -0.03253 -0.11358
 O396 O 0.48826 -0.05765 -0.05314
 C397 C 0.50444 -0.05299 -0.09597
 O398 O 0.48111 0.03150 -0.12388
 O399 O 0.51149 0.05677 -0.05922
 C400 C 0.49649 0.05200 -0.10620
 Zr401 Zr 0.47475 -0.00034 -0.08480
 O402 O 0.47403 -0.00306 -0.19087
 O403 O 0.44449 0.00173 -0.08550
 Zr404 Zr 0.52479 -0.00038 -0.08255
 O405 O 0.52380 -0.00317 -0.18859
 O406 O 0.55737 0.00224 -0.08008
 Zr407 Zr 0.51664 0.03397 0.00052
 Zr408 Zr 0.48254 -0.03433 0.00167
 O409 O 0.48985 -0.02026 -0.09567
 O410 O 0.51002 0.02004 -0.09722
 O411 O 0.46046 -0.02074 0.00001
 O412 O 0.53816 0.01976 0.00207
 O413 O 0.48090 0.01976 -0.00046
 O414 O 0.51830 -0.02057 0.00286
 H415 H 0.48412 -0.03006 0.13829
 H416 H 0.55496 0.03013 0.00247
 H417 H 0.48478 -0.03066 -0.13497
 H418 H 0.47445 0.03010 -0.00091
 H419 H 0.55588 -0.01008 0.06131
 H420 H 0.55593 -0.01079 -0.05347
 H421 H 0.52176 0.00931 -0.20683
 H422 H 0.48835 0.00996 -0.20824
 H423 H 0.43415 -0.00910 -0.05117
 H424 H 0.43833 0.00089 0.12174
 H425 H 0.48683 0.00850 0.20880
 H426 H 0.52150 0.01078 0.21039
 C427 C 1.14007 0.49295 0.25075
 C428 C 1.13991 0.48934 0.17454
 C429 C 1.12231 0.48975 0.14206
 C430 C 1.10662 0.49372 0.18900
 C431 C 1.12258 0.51600 0.22641
 C432 C 1.14015 0.51559 0.25886
 C433 C 1.11634 0.47446 0.27488
 C434 C 1.09876 0.47487 0.24243
 C435 C 1.15897 0.49257 0.28605
 C436 C 1.17452 0.49245 0.31564
 C437 C 1.08762 0.49418 0.15451
 C438 C 1.07189 0.49459 0.12717
 H439 H 1.15250 0.48671 0.14841
 H440 H 1.11984 0.48747 0.08810
 H441 H 1.12029 0.53080 0.22728
 H442 H 1.15291 0.53004 0.28753
 H443 H 1.11359 0.46213 0.31399
 H444 H 1.08095 0.46288 0.25376
 C445 C 0.50668 0.64567 0.25324
 C446 C 0.48538 0.62253 0.26869
 C447 C 0.48495 0.60461 0.23600
 C448 C 0.50587 0.61156 0.19104
 C449 C 0.52660 0.62447 0.23767
 C450 C 0.52703 0.64239 0.27036
 C451 C 0.50705 0.64782 0.17637
 C452 C 0.50663 0.62988 0.14365
 C453 C 0.50709 0.66490 0.28876
 C454 C 0.50725 0.68053 0.31849
 C455 C 0.50540 0.59219 0.15623
 C456 C 0.50501 0.57614 0.12850
 H457 H 0.47182 0.62042 0.30232
 H458 H 0.47102 0.58715 0.24163
 H459 H 0.53981 0.61994 0.24439
 H460 H 0.54059 0.65321 0.30507
 H461 H 0.50760 0.66216 0.14997
 H462 H 0.50681 0.62885 0.08924
 C463 C 0.35343 -0.13949 0.25689
 C464 C 0.34967 -0.13937 0.18080
 C465 C 0.36756 -0.12182 0.14799
 C466 C 0.38745 -0.10612 0.19451
 C467 C 0.39388 -0.12207 0.23145
 C468 C 0.37600 -0.13961 0.26423
 C469 C 0.35881 -0.11575 0.28122
 C470 C 0.37669 -0.09821 0.24843
 C471 C 0.33425 -0.15836 0.29249
 C472 C 0.31865 -0.17389 0.32221
 C473 C 0.40678 -0.08718 0.15960
 C474 C 0.42283 -0.07151 0.13180
 H475 H 0.33432 -0.15196 0.15498
 H476 H 0.36754 -0.11938 0.09407
 H477 H 0.41098 -0.11980 0.23178
 H478 H 0.37779 -0.15236 0.29264
 H479 H 0.34941 -0.11296 0.32070
 H480 H 0.38259 -0.08040 0.25983
 C481 C 0.85990 0.50199 0.26323
 C482 C 0.85995 0.47935 0.26908
 C483 C 0.87800 0.47961 0.23767
 C484 C 0.89422 0.50249 0.20352
 C485 C 0.90131 0.52049 0.25923
 C486 C 0.88327 0.52023 0.29062
 C487 C 0.86090 0.50674 0.18752
 C488 C 0.87895 0.50700 0.15612
 C489 C 0.84050 0.50172 0.29709
 C490 C 0.82458 0.50146 0.32522
 C491 C 0.91363 0.50278 0.16959
 C492 C 0.92949 0.50302 0.14123
 H493 H 0.84695 0.46443 0.29553
 H494 H 0.88046 0.46491 0.23721
 H495 H 0.91894 0.53239 0.27284
 H496 H 0.88544 0.53191 0.33112
 H497 H 0.84853 0.50963 0.16090
 H498 H 0.88202 0.51011 0.10259
 C499 C 0.49830 0.35733 0.26116
 C500 C 0.52088 0.38010 0.26726
 C501 C 0.52061 0.39782 0.23531
 C502 C 0.49779 0.39103 0.20041
 C503 C 0.47965 0.38006 0.25570
 C504 C 0.47991 0.36234 0.28764
 C505 C 0.49375 0.35353 0.18537
 C506 C 0.49349 0.37125 0.15342
 C507 C 0.49857 0.33828 0.29565
 C508 C 0.49881 0.32267 0.32433
 C509 C 0.49748 0.41007 0.16600
 C510 C 0.49722 0.42569 0.13752
 H511 H 0.53576 0.38212 0.29426
 H512 H 0.53527 0.41502 0.23493
 H513 H 0.46765 0.38571 0.26864
 H514 H 0.46814 0.35281 0.32795
 H515 H 0.49099 0.33828 0.15910
 H516 H 0.49051 0.37118 0.09976
 C517 C 0.64009 0.14304 0.26255
 C518 C 0.63584 0.12004 0.29044
 C519 C 0.61844 0.10157 0.25914
 C520 C 0.60700 0.10791 0.20302
 C521 C 0.62655 0.12358 0.15564
 C522 C 0.64395 0.14204 0.18694
 C523 C 0.61693 0.14204 0.26792
 C524 C 0.59953 0.12357 0.23660
 C525 C 0.65888 0.16285 0.29627
 C526 C 0.67444 0.17896 0.32423
 C527 C 0.58831 0.08804 0.16918
 C528 C 0.57297 0.07185 0.14090
 H529 H 0.64562 0.11840 0.33122
 H530 H 0.61333 0.08411 0.27310
 H531 H 0.62671 0.12045 0.10219
 H532 H 0.65901 0.15474 0.16031
 H533 H 0.61443 0.15473 0.29398
 H534 H 0.58211 0.12043 0.23584
 C535 C 0.49766 0.14068 -0.26070
 C536 C 0.49366 0.13989 -0.18462
 C537 C 0.49342 0.12177 -0.15362
 C538 C 0.49720 0.10622 -0.20176
 C539 C 0.51982 0.12215 -0.23758
 C540 C 0.52006 0.14026 -0.26857
 C541 C 0.47894 0.11739 -0.28699
 C542 C 0.47869 0.09927 -0.25600
 C543 C 0.49792 0.16017 -0.29415
 C544 C 0.49818 0.17615 -0.32202
 C545 C 0.49692 0.08674 -0.16828
 C546 C 0.49670 0.07080 -0.14029
 H547 H 0.49124 0.15245 -0.15747
 H548 H 0.49080 0.11882 -0.09991
 H549 H 0.53437 0.11943 -0.23849
 H550 H 0.53482 0.15307 -0.29605
 H551 H 0.46692 0.11531 -0.32648
 H552 H 0.46648 0.08167 -0.26894
 C553 C 0.64342 0.50197 -0.26112
 C554 C 0.63987 0.52172 -0.28367
 C555 C 0.62203 0.52195 -0.25255
 C556 C 0.60949 0.50241 -0.20193
 C557 C 0.62812 0.50450 -0.15330
 C558 C 0.64596 0.50427 -0.18443
 C559 C 0.62029 0.48023 -0.27314
 C560 C 0.60245 0.48046 -0.24202
 C561 C 0.66260 0.50173 -0.29474
 C562 C 0.67828 0.50148 -0.32278
 C563 C 0.59030 0.50267 -0.16839
 C564 C 0.57457 0.50287 -0.14056
 H565 H 0.65044 0.53440 -0.32082
 H566 H 0.61731 0.53482 -0.26304
 H567 H 0.62736 0.50601 -0.09918
 H568 H 0.66049 0.50559 -0.15699
 H569 H 0.61812 0.46592 -0.30341
 H570 H 0.58499 0.46634 -0.24562
 C571 C 0.85697 0.35962 -0.26180
 C572 C 0.87992 0.36430 -0.29119
 C573 C 0.89845 0.38174 -0.26024
 C574 C 0.89222 0.39280 -0.20293
 C575 C 0.87701 0.37301 -0.15559
 C576 C 0.85848 0.35556 -0.18654
 C577 C 0.85757 0.38261 -0.26580
 C578 C 0.87611 0.40006 -0.23484
 C579 C 0.83708 0.34078 -0.29515
 C580 C 0.82091 0.32518 -0.32283
 C581 C 0.91214 0.41153 -0.16945
 C582 C 0.92838 0.42690 -0.14137
 H583 H 0.88148 0.35475 -0.33270
 H584 H 0.91588 0.38713 -0.27523
 H585 H 0.88049 0.37272 -0.10241
 H586 H 0.84608 0.34034 -0.15988
 H587 H 0.84459 0.38498 -0.29073
 H588 H 0.87901 0.41738 -0.23324
 C589 C 0.50685 -0.13975 -0.25080
 C590 C 0.52529 -0.11599 -0.27485
 C591 C 0.52483 -0.09848 -0.24242
 C592 C 0.50596 -0.10642 -0.18909
 C593 C 0.51000 -0.12211 -0.14211
 C594 C 0.51046 -0.13964 -0.17457
 C595 C 0.48416 -0.13991 -0.25903
 C596 C 0.48370 -0.12240 -0.22661
 C597 C 0.50730 -0.15859 -0.28609
 C598 C 0.50748 -0.17406 -0.31568
 C599 C 0.50545 -0.08750 -0.15462
 C600 C 0.50500 -0.07181 -0.12728
 H601 H 0.53765 -0.11317 -0.31388
 H602 H 0.53678 -0.08066 -0.25370
 H603 H 0.51227 -0.11968 -0.08814
 H604 H 0.51314 -0.15222 -0.14840
 H605 H 0.46972 -0.15267 -0.28776
 H606 H 0.46885 -0.12016 -0.22756
 C607 C 0.35383 0.49271 -0.25911
 C608 C 0.35944 0.47463 -0.28456
 C609 C 0.37743 0.47503 -0.25216
 C610 C 0.38806 0.49346 -0.19744
 C611 C 0.36813 0.48885 -0.15073
 C612 C 0.35013 0.48846 -0.18316
 C613 C 0.37628 0.51557 -0.26567
 C614 C 0.39427 0.51596 -0.23327
 C615 C 0.33453 0.49234 -0.29431
 C616 C 0.31885 0.49222 -0.32375
 C617 C 0.40750 0.49391 -0.16289
 C618 C 0.42360 0.49432 -0.13522
 H619 H 0.35010 0.46258 -0.32452
 H620 H 0.38349 0.46331 -0.26436
 H621 H 0.36816 0.48615 -0.09695
 H622 H 0.33473 0.48541 -0.15716
 H623 H 0.37790 0.53017 -0.29331
 H624 H 0.41129 0.53090 -0.23316
 C625 C 1.13956 0.64695 -0.25539
 C626 C 1.13958 0.62437 -0.26368
 C627 C 1.12198 0.60638 -0.23143
 C628 C 1.10607 0.61271 -0.19403
 C629 C 1.09824 0.62378 -0.24740
 C630 C 1.11584 0.64177 -0.27964
 C631 C 1.13942 0.65035 -0.17915
 C632 C 1.12181 0.63235 -0.14688
 C633 C 1.15851 0.66624 -0.29040
 C634 C 1.17411 0.68193 -0.31964
 C635 C 1.08708 0.59327 -0.15964
 C636 C 1.07141 0.57714 -0.13210
 H637 H 1.15231 0.62266 -0.29233
 H638 H 1.11965 0.58927 -0.23246
 H639 H 1.08044 0.61799 -0.25883
 H640 H 1.11312 0.65139 -0.31869
 H641 H 1.15204 0.66555 -0.15285
 H642 H 1.11935 0.63213 -0.09294
 C643 C 0.85708 0.49859 -0.25956
 C644 C 0.85789 0.47632 -0.26382
 C645 C 0.87645 0.47750 -0.23270
 C646 C 0.89237 0.50085 -0.20041
 C647 C 0.87699 0.50516 -0.15312
 C648 C 0.85843 0.50397 -0.18423
 C649 C 0.88002 0.51707 -0.28857
 C650 C 0.89857 0.51826 -0.25747
 C651 C 0.83717 0.49742 -0.29311
 C652 C 0.82098 0.49674 -0.32102
 C653 C 0.91232 0.50210 -0.16682
 C654 C 0.92855 0.50294 -0.13880
 H655 H 0.84503 0.46098 -0.28901
 H656 H 0.87949 0.46317 -0.23125
 H657 H 0.88037 0.50881 -0.09988
 H658 H 0.84591 0.50660 -0.15764
 H659 H 0.88155 0.52825 -0.32993
 H660 H 0.91600 0.53044 -0.27218
 C661 C 0.50170 0.35847 -0.26116
 C662 C 0.52074 0.38225 -0.28301
 C663 C 0.51968 0.39973 -0.25241
 C664 C 0.49967 0.39171 -0.20300
 C665 C 0.50254 0.37582 -0.15374
 C666 C 0.50361 0.35834 -0.18432
 C667 C 0.47931 0.35847 -0.27478
 C668 C 0.47824 0.37595 -0.24420
 C669 C 0.50275 0.33962 -0.29413
 C670 C 0.50338 0.32404 -0.32158
 C671 C 0.49854 0.41051 -0.16991
 C672 C 0.49779 0.42595 -0.14210
 H673 H 0.53390 0.38510 -0.31927
 H674 H 0.53194 0.41757 -0.26245
 H675 H 0.50365 0.37810 -0.09960
 H676 H 0.50563 0.34565 -0.15640
 H677 H 0.46550 0.34584 -0.30572
 H678 H 0.46353 0.37830 -0.24893
 C679 C 0.64278 0.14073 -0.25838
 C680 C 0.64591 0.14023 -0.18210
 C681 C 0.62808 0.12210 -0.15102
 C682 C 0.60889 0.10626 -0.19928
 C683 C 0.62067 0.09932 -0.25259
 C684 C 0.63849 0.11745 -0.28366
 C685 C 0.61984 0.14000 -0.26732
 C686 C 0.60201 0.12187 -0.23624
 C687 C 0.66194 0.16022 -0.29196
 C688 C 0.67759 0.17619 -0.32001
 C689 C 0.58972 0.08676 -0.16577
 C690 C 0.57400 0.07082 -0.13788
 H691 H 0.66080 0.15300 -0.15490
 H692 H 0.62770 0.11934 -0.09718
 H693 H 0.61547 0.08172 -0.26486
 H694 H 0.64857 0.11538 -0.32256
 H695 H 0.61777 0.15261 -0.29555
 H696 H 0.58468 0.11895 -0.23784
 C697 C 1.14074 0.49706 -0.25985
 C698 C 1.14031 0.51949 -0.26626
 C699 C 1.12234 0.51912 -0.23407
 C700 C 1.10656 0.49636 -0.19864
 C701 C 1.12232 0.49237 -0.15177
 C702 C 1.14030 0.49274 -0.18397
 C703 C 1.11731 0.47846 -0.28577
 C704 C 1.09934 0.47809 -0.25358
 C705 C 1.16001 0.49740 -0.29473
 C706 C 1.17569 0.49751 -0.32389
 C707 C 1.08721 0.49600 -0.16425
 C708 C 1.07134 0.49590 -0.13635
 H709 H 1.15301 0.53435 -0.29363
 H710 H 1.11964 0.53367 -0.23385
 H711 H 1.11960 0.48953 -0.09805
 H712 H 1.15299 0.49021 -0.15784
 H713 H 1.11504 0.46662 -0.32588
 H714 H 1.08168 0.46592 -0.26609
 C715 C 0.50393 0.64462 -0.25603
 C716 C 0.52267 0.64005 -0.28203
 C717 C 0.52315 0.62244 -0.25018
 C718 C 0.50486 0.61112 -0.19546
 C719 C 0.48208 0.60407 -0.23102
 C720 C 0.48159 0.62168 -0.26287
 C721 C 0.50820 0.64830 -0.18008
 C722 C 0.50868 0.63068 -0.14820
 C723 C 0.50345 0.66354 -0.29060
 C724 C 0.50321 0.67909 -0.31959
 C725 C 0.50532 0.59209 -0.16149
 C726 C 0.50543 0.57624 -0.13413
 H727 H 0.53451 0.64980 -0.32195
 H728 H 0.53542 0.61710 -0.26280
 H729 H 0.46759 0.58676 -0.23112
 H730 H 0.46670 0.61947 -0.29027
 H731 H 0.51061 0.66341 -0.15367
 H732 H 0.51150 0.63068 -0.09448
 C733 C 0.35500 -0.14149 -0.25332
 C734 C 0.37797 -0.14078 -0.26052
 C735 C 0.39560 -0.12272 -0.22852
 C736 C 0.38853 -0.10714 -0.19247
 C737 C 0.36903 -0.12304 -0.14527
 C738 C 0.35139 -0.14111 -0.17729
 C739 C 0.35949 -0.11815 -0.27883
 C740 C 0.37711 -0.10009 -0.24684
 C741 C 0.33606 -0.16084 -0.28807
 C742 C 0.32051 -0.17658 -0.31729
 C743 C 0.40757 -0.08769 -0.15837
 C744 C 0.42341 -0.07170 -0.13094
 H745 H 0.38019 -0.15336 -0.28826
 H746 H 0.41293 -0.11984 -0.22884
 H747 H 0.36907 -0.12035 -0.09149
 H748 H 0.33631 -0.15391 -0.15094
 H749 H 0.34967 -0.11599 -0.31853
 H750 H 0.38240 -0.08247 -0.25912
 C751 C 0.50306 -0.14090 0.25812
 C752 C 0.48072 -0.14032 0.26498
 C753 C 0.48116 -0.12224 0.23316
 C754 C 0.50390 -0.10650 0.19763
 C755 C 0.50769 -0.12224 0.15035
 C756 C 0.50724 -0.14033 0.18217
 C757 C 0.52181 -0.11757 0.28418
 C758 C 0.52225 -0.09949 0.25237
 C759 C 0.50263 -0.16030 0.29258
 C760 C 0.50246 -0.17608 0.32139
 C761 C 0.50432 -0.08704 0.16360
 C762 C 0.50444 -0.07111 0.13596
 H763 H 0.46586 -0.15301 0.29237
 H764 H 0.46667 -0.11943 0.23329
 H765 H 0.51046 -0.11943 0.09663
 H766 H 0.50964 -0.15303 0.15572
 H767 H 0.53369 -0.11545 0.32410
 H768 H 0.53451 -0.08188 0.26502
 C769 C 0.35539 0.49636 0.24971
 C770 C 0.35935 0.47701 0.27372
 C771 C 0.37697 0.47657 0.24194
 C772 C 0.38890 0.49551 0.18926
 C773 C 0.39614 0.51789 0.22725
 C774 C 0.37851 0.51833 0.25904
 C775 C 0.35214 0.49314 0.17334
 C776 C 0.36977 0.49270 0.14153
 C777 C 0.33645 0.49680 0.28421
 C778 C 0.32090 0.49700 0.31317
 C779 C 0.40794 0.49509 0.15537
 C780 C 0.42379 0.49498 0.12807
 H781 H 0.34920 0.46473 0.31229
 H782 H 0.38191 0.46390 0.25326
 H783 H 0.41356 0.53214 0.22899
 H784 H 0.38084 0.53295 0.28803
 H785 H 0.33731 0.49137 0.14661
 H786 H 0.37006 0.49055 0.08755
 C787 C 1.14168 0.64451 0.25412
 C788 C 1.11829 0.63975 0.27990
 C789 C 1.10028 0.62218 0.24757
 C790 C 1.10743 0.61110 0.19262
 C791 C 1.12317 0.60405 0.22809
 C792 C 1.14118 0.62162 0.26044
 C793 C 1.14123 0.64841 0.17825
 C794 C 1.12321 0.63083 0.14589
 C795 C 1.16098 0.66340 0.28924
 C796 C 1.17665 0.67893 0.31870
 C797 C 1.08802 0.59213 0.15818
 C798 C 1.07203 0.57634 0.13059
 H799 H 1.11606 0.64933 0.32004
 H800 H 1.08263 0.61672 0.25997
 H801 H 1.12042 0.58678 0.22778
 H802 H 1.15385 0.61941 0.28785
 H803 H 1.15395 0.66363 0.15224
 H804 H 1.12048 0.63098 0.09215
 C805 C 0.50147 0.14236 0.26215
 C806 C 0.48267 0.11936 0.28988
 C807 C 0.48147 0.10090 0.25836
 C808 C 0.49918 0.10724 0.20219
 C809 C 0.52239 0.12281 0.23581
 C810 C 0.52360 0.14128 0.26735
 C811 C 0.49653 0.14147 0.18656
 C812 C 0.49533 0.12300 0.15503
 C813 C 0.50265 0.16218 0.29613
 C814 C 0.50333 0.17829 0.32431
 C815 C 0.49790 0.08740 0.16816
 C816 C 0.49703 0.07123 0.13980
 H817 H 0.47131 0.11772 0.33070
 H818 H 0.46908 0.08344 0.27219
 H819 H 0.53663 0.11961 0.23492
 H820 H 0.53886 0.15390 0.29346
 H821 H 0.49421 0.15423 0.16012
 H822 H 0.49196 0.11994 0.10158
 C823 C 0.64068 0.49797 0.26162
 C824 C 0.64460 0.50290 0.18604
 C825 C 0.62723 0.50401 0.15465
 C826 C 0.60765 0.50009 0.20192
 C827 C 0.61907 0.51782 0.25810
 C828 C 0.63643 0.51671 0.28949
 C829 C 0.61752 0.47580 0.26687
 C830 C 0.60014 0.47691 0.23547
 C831 C 0.65943 0.49689 0.29543
 C832 C 0.67495 0.49627 0.32345
 C833 C 0.58899 0.50127 0.16794
 C834 C 0.57366 0.50208 0.13940
 H835 H 0.65967 0.50529 0.15950
 H836 H 0.62743 0.50734 0.10120
 H837 H 0.61396 0.53015 0.27202
 H838 H 0.64620 0.52809 0.33033
 H839 H 0.61498 0.46058 0.29294
 H840 H 0.58272 0.46264 0.23462
 C841 C 0.85971 0.35745 0.26064
 C842 C 0.86007 0.38027 0.26706
 C843 C 0.87814 0.39799 0.23549
 C844 C 0.89409 0.39115 0.20061
 C845 C 0.87854 0.37151 0.15323
 C846 C 0.86046 0.35378 0.18480
 C847 C 0.88305 0.36227 0.28736
 C848 C 0.90113 0.37999 0.25579
 C849 C 0.84028 0.33840 0.29474
 C850 C 0.82434 0.32283 0.32316
 C851 C 0.91352 0.41022 0.16659
 C852 C 0.92941 0.42588 0.13836
 H853 H 0.84724 0.38233 0.29400
 H854 H 0.88080 0.41523 0.23538
 H855 H 0.88146 0.37152 0.09960
 H856 H 0.84790 0.33861 0.15824
 H857 H 0.88520 0.35262 0.32754
 H858 H 0.91876 0.38553 0.26893
   
