data_POSCAR
  _audit_creation_date              2014-09-24
  _audit_creation_method            'ToBaCCo'
  _symmetry_space_group_name_H-M    'P1'
  _symmetry_Int_Tables_number       1
  _symmetry_cell_setting            triclinic
  loop_
  _symmetry_equiv_pos_as_xyz
 x,y,z
_cell_length_a 54.8901
_cell_length_b 55.1507
_cell_length_c 55.1752
_cell_angle_alpha 89.973700
_cell_angle_beta 89.877800
_cell_angle_gamma 90.020500
loop_
  _atom_site_label
  _atom_site_type_symbol
  _atom_site_fract_x
  _atom_site_fract_y
  _atom_site_fract_z
N1 N 0.28911 0.23932 0.22299
 N2 N 0.27923 0.25848 0.21276
 C3 C 0.29242 0.26440 0.19292
 C4 C 0.31145 0.24796 0.19064
 C5 C 0.30874 0.23244 0.21016
 H6 H 0.28820 0.27917 0.18074
 H7 H 0.32023 0.21721 0.21478
 Cu8 Cu 0.24943 0.27307 0.22593
 Cu9 Cu 0.27575 0.22387 0.25179
 Cu10 Cu 0.22434 0.24999 0.27644
 N11 N 0.22086 0.28811 0.24128
 N12 N 0.21132 0.27854 0.26092
 C13 C 0.19217 0.29179 0.26814
 C14 C 0.18929 0.31094 0.25231
 C15 C 0.20780 0.30801 0.23527
 H16 H 0.18107 0.28766 0.28381
 H17 H 0.21166 0.31966 0.21996
 N18 N 0.23961 0.22104 0.29010
 N19 N 0.25933 0.21097 0.28089
 C20 C 0.26504 0.19128 0.29424
 C21 C 0.24799 0.18891 0.31265
 C22 C 0.23226 0.20815 0.30945
 H23 H 0.28017 0.17929 0.29057
 H24 H 0.21665 0.21253 0.32055
 H25 H 0.24081 0.23455 0.24580
 H26 H 0.26033 0.25499 0.26459
 N27 N 0.71172 -0.24310 0.21984
 N28 N 0.72205 -0.26313 0.21207
 C29 C 0.70966 -0.27144 0.19273
 C30 C 0.69051 -0.25568 0.18788
 C31 C 0.69256 -0.23784 0.20558
 H32 H 0.71447 -0.28761 0.18279
 H33 H 0.68088 -0.22232 0.20828
 Cu34 Cu 0.75099 -0.27594 0.22797
 Cu35 Cu 0.72335 -0.22570 0.24842
 Cu36 Cu 0.77424 -0.24924 0.27748
 N37 N 0.77997 -0.28874 0.24382
 N38 N 0.78854 -0.27853 0.26355
 C39 C 0.80796 -0.29118 0.27136
 C40 C 0.81210 -0.31037 0.25555
 C41 C 0.79390 -0.30806 0.23820
 H42 H 0.81852 -0.28635 0.28713
 H43 H 0.79063 -0.31984 0.22292
 N44 N 0.75715 -0.21975 0.28868
 N45 N 0.73782 -0.21080 0.27764
 C46 C 0.73007 -0.19111 0.28989
 C47 C 0.74520 -0.18741 0.30960
 C48 C 0.76221 -0.20591 0.30816
 H49 H 0.71453 -0.18022 0.28484
 H50 H 0.77693 -0.20931 0.32069
 H51 H 0.75944 -0.23620 0.24558
 H52 H 0.73928 -0.25511 0.26523
 N53 N 0.71128 0.24377 0.77979
 N54 N 0.72236 0.26304 0.78841
 C55 C 0.70986 0.27126 0.80779
 C56 C 0.68994 0.25625 0.81157
 C57 C 0.69149 0.23899 0.79342
 H58 H 0.71498 0.28685 0.81850
 H59 H 0.67894 0.22426 0.79007
 Cu60 Cu 0.75202 0.27564 0.77348
 Cu61 Cu 0.72301 0.22657 0.75127
 Cu62 Cu 0.77432 0.24973 0.72279
 N63 N 0.78062 0.28862 0.75690
 N64 N 0.78881 0.27882 0.73678
 C65 C 0.80802 0.29170 0.72872
 C66 C 0.81242 0.31064 0.74475
 C67 C 0.79456 0.30795 0.76248
 H68 H 0.81817 0.28725 0.71252
 H69 H 0.79155 0.31946 0.77804
 N70 N 0.75711 0.22044 0.71132
 N71 N 0.73752 0.21171 0.72214
 C72 C 0.72969 0.19213 0.70981
 C73 C 0.74506 0.18827 0.69028
 C74 C 0.76230 0.20655 0.69189
 H75 H 0.71399 0.18135 0.71472
 H76 H 0.77725 0.20973 0.67953
 H77 H 0.75926 0.23621 0.75453
 H78 H 0.73955 0.25630 0.73566
 N79 N 0.28901 -0.24322 0.78093
 N80 N 0.27782 -0.26243 0.78960
 C81 C 0.29011 -0.27058 0.80910
 C82 C 0.31007 -0.25567 0.81292
 C83 C 0.30868 -0.23844 0.79467
 H84 H 0.28486 -0.28614 0.81982
 H85 H 0.32116 -0.22362 0.79142
 Cu86 Cu 0.24831 -0.27511 0.77452
 Cu87 Cu 0.27762 -0.22621 0.75214
 Cu88 Cu 0.22664 -0.24958 0.72341
 N89 N 0.21983 -0.28811 0.75784
 N90 N 0.21198 -0.27851 0.73752
 C91 C 0.19295 -0.29150 0.72932
 C92 C 0.18829 -0.31028 0.74547
 C93 C 0.20578 -0.30739 0.76345
 H94 H 0.18290 -0.28709 0.71310
 H95 H 0.20860 -0.31882 0.77911
 N96 N 0.24391 -0.22039 0.71189
 N97 N 0.26337 -0.21154 0.72276
 C98 C 0.27116 -0.19193 0.71040
 C99 C 0.25592 -0.18825 0.69077
 C100 C 0.23879 -0.20659 0.69240
 H101 H 0.28672 -0.18101 0.71536
 H102 H 0.22391 -0.20985 0.68003
 H103 H 0.24129 -0.23577 0.75509
 H104 H 0.26119 -0.25607 0.73664
 N105 N 0.71157 -0.23667 0.77848
 N106 N 0.72093 -0.25568 0.78942
 C107 C 0.70732 -0.26100 0.80905
 C108 C 0.68850 -0.24435 0.81059
 C109 C 0.69180 -0.22921 0.79082
 H110 H 0.71102 -0.27564 0.82151
 H111 H 0.68057 -0.21393 0.78572
 Cu112 Cu 0.74995 -0.27143 0.77669
 Cu113 Cu 0.72594 -0.22264 0.74931
 Cu114 Cu 0.77725 -0.25137 0.72603
 N115 N 0.77898 -0.28719 0.76395
 N116 N 0.78891 -0.27988 0.74352
 C117 C 0.80793 -0.29432 0.73816
 C118 C 0.81038 -0.31156 0.75637
 C119 C 0.79158 -0.30632 0.77245
 H120 H 0.81946 -0.29192 0.72243
 H121 H 0.78703 -0.31596 0.78887
 N122 N 0.76269 -0.22215 0.71117
 N123 N 0.74319 -0.21126 0.72002
 C124 C 0.73817 -0.19165 0.70635
 C125 C 0.75538 -0.18998 0.68806
 C126 C 0.77061 -0.20966 0.69169
 H127 H 0.72341 -0.17915 0.70976
 H128 H 0.78634 -0.21450 0.68092
 H129 H 0.74129 -0.25445 0.73671
 H130 H 0.76120 -0.23432 0.75529
 N131 N 0.28731 0.23792 0.77715
 N132 N 0.27769 0.25720 0.78746
 C133 C 0.29095 0.26289 0.80725
 C134 C 0.30979 0.24621 0.80942
 C135 C 0.30686 0.23076 0.78991
 H136 H 0.28706 0.27782 0.81936
 H137 H 0.31824 0.21549 0.78519
 Cu138 Cu 0.24861 0.27233 0.77350
 Cu139 Cu 0.27391 0.22276 0.74816
 Cu140 Cu 0.22247 0.24955 0.72386
 N141 N 0.21951 0.28751 0.75952
 N142 N 0.20972 0.27804 0.73998
 C143 C 0.19056 0.29143 0.73308
 C144 C 0.18797 0.31056 0.74899
 C145 C 0.20661 0.30745 0.76577
 H146 H 0.17934 0.28747 0.71753
 H147 H 0.21079 0.31916 0.78091
 N148 N 0.23770 0.22066 0.70985
 N149 N 0.25731 0.21030 0.71894
 C150 C 0.26279 0.19064 0.70546
 C151 C 0.24573 0.18860 0.68708
 C152 C 0.23024 0.20801 0.69043
 H153 H 0.27780 0.17848 0.70900
 H154 H 0.21468 0.21264 0.67943
 H155 H 0.25863 0.25383 0.73467
 H156 H 0.23902 0.23399 0.75401
 N157 N 0.28711 -0.24160 0.22018
 N158 N 0.27652 -0.26092 0.21097
 C159 C 0.28931 -0.26851 0.19158
 C160 C 0.30897 -0.25319 0.18826
 C161 C 0.30692 -0.23622 0.20672
 H162 H 0.28464 -0.28402 0.18056
 H163 H 0.31922 -0.22139 0.21038
 Cu164 Cu 0.24755 -0.27514 0.22540
 Cu165 Cu 0.27457 -0.22511 0.24915
 Cu166 Cu 0.22287 -0.25049 0.27494
 N167 N 0.21850 -0.28889 0.24034
 N168 N 0.20914 -0.27897 0.25988
 C169 C 0.18976 -0.29192 0.26711
 C170 C 0.18676 -0.31120 0.25147
 C171 C 0.20531 -0.30869 0.23455
 H172 H 0.17863 -0.28761 0.28267
 H173 H 0.20918 -0.32071 0.21954
 N174 N 0.23877 -0.22172 0.28808
 N175 N 0.25840 -0.21171 0.27852
 C176 C 0.26425 -0.19195 0.29176
 C177 C 0.24728 -0.18949 0.31033
 C178 C 0.23162 -0.20878 0.30741
 H179 H 0.27943 -0.18002 0.28798
 H180 H 0.21615 -0.21318 0.31871
 H181 H 0.25924 -0.25547 0.26325
 H182 H 0.23974 -0.23576 0.24384
 N183 N 0.70955 0.23748 0.22048
 N184 N 0.71917 0.25664 0.21002
 C185 C 0.70581 0.26234 0.19034
 C186 C 0.68694 0.24567 0.18840
 C187 C 0.68992 0.23031 0.20794
 H188 H 0.70975 0.27718 0.17813
 H189 H 0.67852 0.21510 0.21284
 Cu190 Cu 0.74824 0.27156 0.22369
 Cu191 Cu 0.72332 0.22271 0.24918
 Cu192 Cu 0.77509 0.24901 0.27394
 N193 N 0.77723 0.28648 0.23733
 N194 N 0.78764 0.27781 0.25698
 C195 C 0.80720 0.29161 0.26233
 C196 C 0.80916 0.30985 0.24507
 C197 C 0.78973 0.30600 0.22961
 H198 H 0.81923 0.28845 0.27749
 H199 H 0.78495 0.31677 0.21396
 N200 N 0.75906 0.21971 0.28788
 N201 N 0.73942 0.20999 0.27811
 C202 C 0.73246 0.19072 0.29129
 C203 C 0.74823 0.18799 0.31049
 C204 C 0.76506 0.20663 0.30774
 H205 H 0.71702 0.17933 0.28712
 H206 H 0.78024 0.21058 0.31955
 H207 H 0.73986 0.25397 0.26347
 H208 H 0.75938 0.23412 0.24421
 O209 O 0.23619 0.02349 0.47550
 O210 O 0.23057 -0.02429 0.52172
 O211 O 0.23512 0.02304 0.52287
 O212 O 0.23525 -0.02385 0.47457
 O213 O 0.27531 -0.02558 0.47720
 O214 O 0.27516 0.02036 0.52465
 O215 O 0.27061 -0.02643 0.52413
 O216 O 0.27625 0.02121 0.47747
 Cu217 Cu 0.23023 -0.00017 0.49848
 Cu218 Cu 0.27825 -0.00282 0.50114
 C219 C 0.25709 0.03041 0.46840
 C220 C 0.24961 -0.03357 0.53086
 C221 C 0.25537 0.02962 0.53201
 C222 C 0.25559 -0.03254 0.46756
 O223 O 0.77421 0.02279 0.52458
 O224 O 0.77420 -0.02494 0.47859
 O225 O 0.77534 0.02236 0.47777
 O226 O 0.76955 -0.02420 0.52544
 O227 O 0.72952 -0.02183 0.52319
 O228 O 0.73529 0.02444 0.47542
 O229 O 0.73418 -0.02304 0.47582
 O230 O 0.73416 0.02536 0.52281
 Cu231 Cu 0.77723 -0.00128 0.50180
 Cu232 Cu 0.72926 0.00142 0.49906
 C233 C 0.75443 0.03241 0.53155
 C234 C 0.75443 -0.03229 0.46928
 C235 C 0.75622 0.03150 0.46856
 C236 C 0.74854 -0.03093 0.53254
 O237 O 0.47422 0.23655 0.02393
 O238 O 0.52059 0.23085 -0.02384
 O239 O 0.52181 0.23560 0.02336
 O240 O 0.47328 0.23559 -0.02341
 O241 O 0.47589 0.27547 -0.02524
 O242 O 0.52364 0.27546 0.02060
 O243 O 0.52303 0.27071 -0.02610
 O244 O 0.47620 0.27643 0.02158
 Cu245 Cu 0.49726 0.23062 0.00028
 Cu246 Cu 0.49997 0.27843 -0.00251
 C247 C 0.46710 0.25733 0.03083
 C248 C 0.52977 0.24979 -0.03317
 C249 C 0.53105 0.25577 0.02985
 C250 C 0.46625 0.25578 -0.03216
 O251 O 0.52472 0.77329 0.02398
 O252 O 0.47886 0.77341 -0.02394
 O253 O 0.47775 0.77424 0.02334
 O254 O 0.52588 0.76873 -0.02298
 O255 O 0.52349 0.72886 -0.02084
 O256 O 0.47543 0.73436 0.02530
 O257 O 0.47599 0.73356 -0.02213
 O258 O 0.52300 0.73337 0.02623
 Cu259 Cu 0.50201 0.77633 -0.00018
 Cu260 Cu 0.49921 0.72852 0.00233
 C261 C 0.53167 0.75354 0.03347
 C262 C 0.46951 0.75374 -0.03135
 C263 C 0.46850 0.75514 0.03241
 C264 C 0.53294 0.74784 -0.02980
 O265 O 0.02125 0.47486 0.22432
 O266 O -0.02660 0.52080 0.22461
 O267 O 0.02091 0.52161 0.22339
 O268 O -0.02581 0.47394 0.22943
 O269 O -0.02320 0.47623 0.26925
 O270 O 0.02311 0.52393 0.26323
 O271 O -0.02449 0.52357 0.26442
 O272 O 0.02409 0.47668 0.26416
 Cu273 Cu -0.00288 0.49760 0.22154
 Cu274 Cu 0.00007 0.50036 0.26929
 C275 C 0.03104 0.46794 0.24392
 C276 C -0.03384 0.53012 0.24434
 C277 C 0.03015 0.53078 0.24240
 C278 C -0.03239 0.46684 0.25039
 O279 O 0.02244 0.52509 0.77551
 O280 O -0.02557 0.47909 0.77541
 O281 O 0.02194 0.47823 0.77637
 O282 O -0.02474 0.52597 0.77069
 O283 O -0.02223 0.52368 0.73086
 O284 O 0.02413 0.47590 0.73652
 O285 O -0.02351 0.47632 0.73559
 O286 O 0.02512 0.52328 0.73565
 Cu287 Cu -0.00178 0.50230 0.77839
 Cu288 Cu 0.00108 0.49955 0.73065
 C289 C 0.03216 0.53204 0.75583
 C290 C -0.03286 0.46976 0.75572
 C291 C 0.03115 0.46901 0.75732
 C292 C -0.03141 0.53306 0.74978
 C293 C 0.36092 0.22289 0.14983
 C294 C 0.36699 0.24290 0.13492
 C295 C 0.35412 0.26489 0.13881
 C296 C 0.33588 0.26644 0.15671
 C297 C 0.33025 0.24641 0.17132
 C298 C 0.34297 0.22471 0.16762
 C299 C 0.35959 0.28529 0.12492
 C300 C 0.37774 0.28457 0.10739
 C301 C 0.39122 0.26322 0.10286
 C302 C 0.38544 0.24189 0.11654
 C303 C 0.39822 0.22026 0.11132
 C304 C 0.41617 0.21948 0.09362
 C305 C 0.42239 0.24019 0.08053
 C306 C 0.41021 0.26242 0.08501
 C307 C 0.41775 0.28297 0.07150
 C308 C 0.43630 0.28134 0.05422
 C309 C 0.44791 0.25921 0.04963
 C310 C 0.44084 0.23872 0.06293
 H311 H 0.36978 0.20554 0.14847
 H312 H 0.32637 0.28342 0.15952
 H313 H 0.33896 0.20878 0.17838
 H314 H 0.34979 0.30213 0.12771
 H315 H 0.38055 0.30116 0.09751
 H316 H 0.39469 0.20336 0.12045
 H317 H 0.42541 0.20242 0.09023
 H318 H 0.40988 0.30068 0.07387
 H319 H 0.44139 0.29750 0.04427
 H320 H 0.44986 0.22153 0.05968
 C321 C 0.65406 0.72021 0.13604
 C322 C 0.63690 0.73893 0.13206
 C323 C 0.63858 0.75985 0.14685
 C324 C 0.65611 0.76139 0.16528
 C325 C 0.67290 0.74258 0.16928
 C326 C 0.67169 0.72209 0.15418
 C327 C 0.62280 0.77929 0.14323
 C328 C 0.60541 0.77863 0.12506
 C329 C 0.60279 0.75818 0.10986
 C330 C 0.61836 0.73773 0.11384
 C331 C 0.61463 0.71669 0.09972
 C332 C 0.59663 0.71572 0.08208
 C333 C 0.58189 0.73575 0.07741
 C334 C 0.58494 0.75739 0.09099
 C335 C 0.57015 0.77748 0.08485
 C336 C 0.55306 0.77598 0.06628
 C337 C 0.54980 0.75444 0.05325
 C338 C 0.56421 0.73431 0.05901
 H339 H 0.65467 0.70395 0.12525
 H340 H 0.65673 0.77767 0.17617
 H341 H 0.68416 0.70708 0.15633
 H342 H 0.62399 0.79534 0.15452
 H343 H 0.59395 0.79442 0.12379
 H344 H 0.62506 0.70034 0.10212
 H345 H 0.59441 0.69911 0.07181
 H346 H 0.57156 0.79483 0.09366
 H347 H 0.54221 0.79186 0.06219
 H348 H 0.56205 0.71766 0.04880
 C349 C 0.65017 0.28205 -0.13849
 C350 C 0.63477 0.26229 -0.13253
 C351 C 0.63820 0.24031 -0.14542
 C352 C 0.65600 0.23855 -0.16364
 C353 C 0.67100 0.25833 -0.16933
 C354 C 0.66790 0.28002 -0.15653
 C355 C 0.62391 0.22011 -0.14007
 C356 C 0.60636 0.22101 -0.12196
 C357 C 0.60219 0.24240 -0.10848
 C358 C 0.61633 0.26351 -0.11417
 C359 C 0.61147 0.28519 -0.10143
 C360 C 0.59362 0.28627 -0.08368
 C361 C 0.58001 0.26584 -0.07762
 C362 C 0.58418 0.24350 -0.08968
 C363 C 0.57018 0.22322 -0.08220
 C364 C 0.55272 0.22527 -0.06386
 C365 C 0.54844 0.24754 -0.05242
 C366 C 0.56224 0.26772 -0.05942
 H367 H 0.64921 0.29934 -0.12951
 H368 H 0.65836 0.22153 -0.17313
 H369 H 0.67905 0.29570 -0.16054
 H370 H 0.62640 0.20330 -0.14998
 H371 H 0.59613 0.20457 -0.11923
 H372 H 0.62093 0.30193 -0.10490
 H373 H 0.59050 0.30338 -0.07450
 H374 H 0.57238 0.20543 -0.08992
 H375 H 0.54242 0.20930 -0.05873
 H376 H 0.55932 0.28497 -0.05046
 C377 C 0.34901 0.71902 -0.13613
 C378 C 0.36472 0.73865 -0.13064
 C379 C 0.36177 0.76031 -0.14418
 C380 C 0.34408 0.76195 -0.16246
 C381 C 0.32874 0.74235 -0.16769
 C382 C 0.33139 0.72092 -0.15429
 C383 C 0.37642 0.78037 -0.13946
 C384 C 0.39394 0.77962 -0.12143
 C385 C 0.39767 0.75858 -0.10729
 C386 C 0.38307 0.73761 -0.11220
 C387 C 0.38746 0.71631 -0.09863
 C388 C 0.40528 0.71549 -0.08081
 C389 C 0.41935 0.73585 -0.07551
 C390 C 0.41565 0.75775 -0.08850
 C391 C 0.43000 0.77802 -0.08193
 C392 C 0.44728 0.77647 -0.06354
 C393 C 0.45108 0.75474 -0.05095
 C394 C 0.43704 0.73443 -0.05710
 H395 H 0.34963 0.70197 -0.12666
 H396 H 0.34211 0.77877 -0.17239
 H397 H 0.31995 0.70536 -0.15788
 H398 H 0.37432 0.79693 -0.14986
 H399 H 0.40448 0.79595 -0.11931
 H400 H 0.37753 0.69971 -0.10145
 H401 H 0.40795 0.69870 -0.07093
 H402 H 0.42824 0.79552 -0.09038
 H403 H 0.45777 0.79253 -0.05923
 H404 H 0.43964 0.71757 -0.04735
 C405 C 0.14017 0.35156 0.27823
 C406 C 0.13308 0.36576 0.25811
 C407 C 0.14527 0.36159 0.23576
 C408 C 0.16385 0.34409 0.23396
 C409 C 0.17046 0.33016 0.25410
 C410 C 0.15848 0.33421 0.27619
 C411 C 0.13879 0.37476 0.21524
 C412 C 0.12043 0.39200 0.21626
 C413 C 0.10768 0.39690 0.23801
 C414 C 0.11432 0.38379 0.25938
 C415 C 0.10211 0.38927 0.28131
 C416 C 0.08406 0.40688 0.28237
 C417 C 0.07713 0.41957 0.26167
 C418 C 0.08863 0.41460 0.23913
 C419 C 0.08038 0.42748 0.21855
 C420 C 0.06183 0.44459 0.22038
 C421 C 0.05079 0.44971 0.24270
 C422 C 0.05860 0.43714 0.26335
 H423 H 0.13183 0.35311 0.29584
 H424 H 0.17280 0.34097 0.21672
 H425 H 0.16325 0.32399 0.29224
 H426 H 0.14799 0.37168 0.19811
 H427 H 0.11692 0.40138 0.19953
 H428 H 0.10619 0.38044 0.29822
 H429 H 0.07531 0.41049 0.29964
 H430 H 0.08757 0.42468 0.20062
 H431 H 0.05620 0.45397 0.20407
 H432 H 0.04999 0.44079 0.28067
 C433 C 0.13822 0.65119 0.72079
 C434 C 0.13284 0.63558 0.74042
 C435 C 0.14617 0.63891 0.76214
 C436 C 0.16470 0.65646 0.76358
 C437 C 0.16992 0.67182 0.74389
 C438 C 0.15622 0.66898 0.72260
 C439 C 0.14083 0.62488 0.78249
 C440 C 0.12242 0.60765 0.78191
 C441 C 0.10878 0.60333 0.76063
 C442 C 0.11452 0.61709 0.73936
 C443 C 0.10203 0.61164 0.71766
 C444 C 0.08422 0.59376 0.71681
 C445 C 0.07781 0.58077 0.73755
 C446 C 0.08980 0.58551 0.75982
 C447 C 0.08205 0.57235 0.78046
 C448 C 0.06347 0.55520 0.77892
 C449 C 0.05194 0.55031 0.75682
 C450 C 0.05930 0.56313 0.73614
 H451 H 0.12855 0.65057 0.70385
 H452 H 0.17452 0.65845 0.78046
 H453 H 0.15952 0.68018 0.70686
 H454 H 0.15088 0.62738 0.79920
 H455 H 0.11971 0.59765 0.79846
 H456 H 0.10590 0.62058 0.70072
 H457 H 0.07523 0.59021 0.69969
 H458 H 0.08962 0.57506 0.79823
 H459 H 0.05819 0.54562 0.79524
 H460 H 0.05034 0.55970 0.71900
 C461 C -0.13674 0.65198 0.27932
 C462 C -0.13238 0.63556 0.26011
 C463 C -0.14677 0.63807 0.23895
 C464 C -0.16523 0.65568 0.23766
 C465 C -0.16946 0.67181 0.25694
 C466 C -0.15475 0.66976 0.27765
 C467 C -0.14261 0.62311 0.21903
 C468 C -0.12439 0.60571 0.21948
 C469 C -0.10970 0.60221 0.24020
 C470 C -0.11413 0.61700 0.26107
 C471 C -0.10041 0.61253 0.28226
 C472 C -0.08268 0.59458 0.28297
 C473 C -0.07763 0.58050 0.26260
 C474 C -0.09089 0.58423 0.24085
 C475 C -0.08457 0.56987 0.22054
 C476 C -0.06620 0.55253 0.22192
 C477 C -0.05340 0.54863 0.24352
 C478 C -0.05927 0.56271 0.26385
 H479 H -0.12634 0.65191 0.29584
 H480 H -0.17583 0.65703 0.22120
 H481 H -0.15722 0.68160 0.29305
 H482 H -0.15348 0.62496 0.20274
 H483 H -0.12262 0.59501 0.20326
 H484 H -0.10317 0.62235 0.29890
 H485 H -0.07272 0.59178 0.29969
 H486 H -0.09319 0.57172 0.20314
 H487 H -0.06206 0.54205 0.20583
 H488 H -0.04933 0.56006 0.28059
 C489 C -0.13662 0.34858 0.72065
 C490 C -0.13197 0.36472 0.74001
 C491 C -0.14621 0.36204 0.76131
 C492 C -0.16476 0.34450 0.76262
 C493 C -0.16923 0.32858 0.74323
 C494 C -0.15474 0.33088 0.72232
 C495 C -0.14178 0.37672 0.78137
 C496 C -0.12343 0.39400 0.78092
 C497 C -0.10888 0.39768 0.76007
 C498 C -0.11358 0.38318 0.73908
 C499 C -0.09995 0.38779 0.71780
 C500 C -0.08214 0.40568 0.71709
 C501 C -0.07689 0.41954 0.73755
 C502 C -0.08997 0.41560 0.75942
 C503 C -0.08344 0.42973 0.77979
 C504 C -0.06506 0.44711 0.77835
 C505 C -0.05245 0.45123 0.75662
 C506 C -0.05852 0.43734 0.73624
 H507 H -0.12639 0.34883 0.70398
 H508 H -0.17525 0.34302 0.77919
 H509 H -0.15744 0.31926 0.70679
 H510 H -0.15252 0.37469 0.79777
 H511 H -0.12144 0.40446 0.79726
 H512 H -0.10287 0.37816 0.70109
 H513 H -0.07229 0.40863 0.70029
 H514 H -0.09190 0.42769 0.79729
 H515 H -0.06074 0.45740 0.79450
 H516 H -0.04872 0.44013 0.71939
 C517 C 0.22266 0.14862 0.36212
 C518 C 0.24282 0.13388 0.36830
 C519 C 0.26495 0.13777 0.35554
 C520 C 0.26651 0.15549 0.33729
 C521 C 0.24634 0.16988 0.33151
 C522 C 0.22448 0.16622 0.34411
 C523 C 0.28550 0.12405 0.36109
 C524 C 0.28479 0.10665 0.37925
 C525 C 0.26329 0.10211 0.39264
 C526 C 0.24182 0.11565 0.38676
 C527 C 0.22005 0.11042 0.39943
 C528 C 0.21924 0.09284 0.41738
 C529 C 0.24005 0.07987 0.42368
 C530 C 0.26245 0.08436 0.41161
 C531 C 0.28308 0.07095 0.41924
 C532 C 0.28135 0.05376 0.43776
 C533 C 0.25906 0.04915 0.44926
 C534 C 0.23850 0.06236 0.44211
 H535 H 0.20519 0.14728 0.37090
 H536 H 0.28362 0.15831 0.32788
 H537 H 0.20847 0.17686 0.33999
 H538 H 0.30243 0.12688 0.35132
 H539 H 0.30150 0.09688 0.38214
 H540 H 0.20305 0.11943 0.39582
 H541 H 0.20207 0.08945 0.42653
 H542 H 0.30091 0.07336 0.41144
 H543 H 0.29757 0.04386 0.44291
 H544 H 0.22118 0.05913 0.45102
 C545 C 0.71916 0.13879 0.65014
 C546 C 0.73922 0.13256 0.63520
 C547 C 0.76143 0.14513 0.63908
 C548 C 0.76316 0.16324 0.65689
 C549 C 0.74311 0.16914 0.67147
 C550 C 0.72117 0.15669 0.66792
 C551 C 0.78191 0.13961 0.62521
 C552 C 0.78108 0.12164 0.60767
 C553 C 0.75951 0.10841 0.60309
 C554 C 0.73809 0.11427 0.61676
 C555 C 0.71628 0.10174 0.61144
 C556 C 0.71539 0.08400 0.59359
 C557 C 0.73618 0.07770 0.58048
 C558 C 0.75860 0.08962 0.58519
 C559 C 0.77929 0.08197 0.57189
 C560 C 0.77767 0.06356 0.55470
 C561 C 0.75544 0.05208 0.54985
 C562 C 0.73469 0.05934 0.56278
 H563 H 0.70163 0.13016 0.64874
 H564 H 0.78035 0.17249 0.65958
 H565 H 0.70527 0.16090 0.67874
 H566 H 0.79890 0.14925 0.62801
 H567 H 0.79778 0.11880 0.59782
 H568 H 0.69934 0.10534 0.62063
 H569 H 0.69819 0.07496 0.59016
 H570 H 0.79716 0.08955 0.57449
 H571 H 0.79406 0.05836 0.54505
 H572 H 0.71744 0.05042 0.55937
 C573 C 0.28187 -0.13874 0.65072
 C574 C 0.26201 -0.13275 0.63550
 C575 C 0.23988 -0.14556 0.63905
 C576 C 0.23804 -0.16363 0.65692
 C577 C 0.25790 -0.16923 0.67185
 C578 C 0.27975 -0.15658 0.66851
 C579 C 0.21960 -0.14023 0.62485
 C580 C 0.22058 -0.12222 0.60730
 C581 C 0.24211 -0.10881 0.60305
 C582 C 0.26330 -0.11448 0.61708
 C583 C 0.28511 -0.10178 0.61217
 C584 C 0.28624 -0.08406 0.59437
 C585 C 0.26572 -0.07800 0.58088
 C586 C 0.24327 -0.09003 0.58510
 C587 C 0.22290 -0.08254 0.57123
 C588 C 0.22497 -0.06423 0.55384
 C589 C 0.24736 -0.05280 0.54949
 C590 C 0.26763 -0.05981 0.56316
 H591 H 0.29934 -0.12994 0.64959
 H592 H 0.22091 -0.17309 0.65938
 H593 H 0.29553 -0.16061 0.67952
 H594 H 0.20267 -0.15005 0.62742
 H595 H 0.20406 -0.11945 0.59719
 H596 H 0.30190 -0.10520 0.62160
 H597 H 0.30344 -0.07489 0.59124
 H598 H 0.20501 -0.09025 0.57348
 H599 H 0.20893 -0.05912 0.54365
 H600 H 0.28499 -0.05091 0.56017
 C601 C 0.71974 -0.13693 0.34896
 C602 C 0.73945 -0.13143 0.36456
 C603 C 0.76126 -0.14489 0.36146
 C604 C 0.76296 -0.16304 0.34368
 C605 C 0.74328 -0.16820 0.32840
 C606 C 0.72171 -0.15492 0.33125
 C607 C 0.78137 -0.14019 0.37607
 C608 C 0.78056 -0.12224 0.39363
 C609 C 0.75940 -0.10813 0.39744
 C610 C 0.73836 -0.11305 0.38293
 C611 C 0.71695 -0.09950 0.38734
 C612 C 0.71610 -0.08169 0.40513
 C613 C 0.73652 -0.07638 0.41913
 C614 C 0.75853 -0.08936 0.41539
 C615 C 0.77887 -0.08279 0.42967
 C616 C 0.77727 -0.06442 0.44694
 C617 C 0.75542 -0.05186 0.45082
 C618 C 0.73505 -0.05800 0.43683
 H619 H 0.70252 -0.12764 0.34979
 H620 H 0.77988 -0.17293 0.34159
 H621 H 0.70607 -0.15854 0.31993
 H622 H 0.79805 -0.15051 0.37386
 H623 H 0.79695 -0.12009 0.40408
 H624 H 0.70031 -0.10228 0.37743
 H625 H 0.69921 -0.07184 0.40783
 H626 H 0.79645 -0.09123 0.42789
 H627 H 0.79340 -0.06010 0.45736
 H628 H 0.71810 -0.04828 0.43947
 C629 C 0.63846 0.78084 -0.14948
 C630 C 0.63256 0.76096 -0.13430
 C631 C 0.64557 0.73903 -0.13788
 C632 C 0.66382 0.73743 -0.15570
 C633 C 0.66936 0.75733 -0.17052
 C634 C 0.65647 0.77896 -0.16720
 C635 C 0.64027 0.71875 -0.12374
 C636 C 0.62214 0.71955 -0.10618
 C637 C 0.60857 0.74090 -0.10190
 C638 C 0.61419 0.76208 -0.11590
 C639 C 0.60139 0.78373 -0.11091
 C640 C 0.58360 0.78472 -0.09311
 C641 C 0.57757 0.76420 -0.07967
 C642 C 0.58971 0.74190 -0.08394
 C643 C 0.58222 0.72153 -0.07015
 C644 C 0.56379 0.72346 -0.05276
 C645 C 0.55230 0.74570 -0.04837
 C646 C 0.55930 0.76596 -0.06196
 H647 H 0.62944 0.79812 -0.14840
 H648 H 0.67341 0.72045 -0.15825
 H649 H 0.66038 0.79473 -0.17820
 H650 H 0.65024 0.70196 -0.12629
 H651 H 0.61946 0.70308 -0.09604
 H652 H 0.60480 0.80053 -0.12026
 H653 H 0.57434 0.80179 -0.08992
 H654 H 0.58998 0.70375 -0.07246
 H655 H 0.55866 0.70742 -0.04261
 H656 H 0.55029 0.78319 -0.05895
 C657 C 0.35940 0.22082 -0.15023
 C658 C 0.36572 0.24083 -0.13549
 C659 C 0.35305 0.26293 -0.13940
 C660 C 0.33470 0.26456 -0.15710
 C661 C 0.32876 0.24452 -0.17151
 C662 C 0.34132 0.22272 -0.16783
 C663 C 0.35878 0.28336 -0.12573
 C664 C 0.37691 0.28252 -0.10827
 C665 C 0.39012 0.26102 -0.10362
 C666 C 0.38417 0.23970 -0.11717
 C667 C 0.39674 0.21797 -0.11184
 C668 C 0.41456 0.21705 -0.09404
 C669 C 0.42091 0.23773 -0.08100
 C670 C 0.40899 0.26008 -0.08575
 C671 C 0.41670 0.28065 -0.07252
 C672 C 0.43514 0.27899 -0.05532
 C673 C 0.44658 0.25683 -0.05043
 C674 C 0.43930 0.23620 -0.06331
 H675 H 0.36813 0.20341 -0.14885
 H676 H 0.32536 0.28163 -0.15992
 H677 H 0.33712 0.20681 -0.17849
 H678 H 0.34915 0.30029 -0.12857
 H679 H 0.37987 0.29916 -0.09852
 H680 H 0.39312 0.20109 -0.12094
 H681 H 0.42361 0.19992 -0.09057
 H682 H 0.40915 0.29846 -0.07514
 H683 H 0.44041 0.29529 -0.04571
 H684 H 0.44823 0.21902 -0.05987
 C685 C 0.34914 0.72138 0.13847
 C686 C 0.36428 0.74127 0.13243
 C687 C 0.36066 0.76325 0.14529
 C688 C 0.34283 0.76490 0.16354
 C689 C 0.32804 0.74500 0.16924
 C690 C 0.33141 0.72330 0.15648
 C691 C 0.37474 0.78356 0.13986
 C692 C 0.39224 0.78277 0.12171
 C693 C 0.39655 0.76140 0.10823
 C694 C 0.38266 0.74017 0.11400
 C695 C 0.38770 0.71851 0.10126
 C696 C 0.40541 0.71762 0.08333
 C697 C 0.41867 0.73825 0.07710
 C698 C 0.41439 0.76050 0.08927
 C699 C 0.42809 0.78095 0.08174
 C700 C 0.44533 0.77921 0.06320
 C701 C 0.44971 0.75707 0.05158
 C702 C 0.43626 0.73667 0.05865
 H703 H 0.35024 0.70407 0.12956
 H704 H 0.34028 0.78190 0.17305
 H705 H 0.32047 0.70749 0.16049
 H706 H 0.37210 0.80039 0.14967
 H707 H 0.40227 0.79932 0.11890
 H708 H 0.37845 0.70166 0.10483
 H709 H 0.40865 0.70054 0.07413
 H710 H 0.42587 0.79866 0.08961
 H711 H 0.45545 0.79530 0.05813
 H712 H 0.43936 0.71946 0.04967
 C713 C 0.63637 0.22076 0.14913
 C714 C 0.63074 0.24055 0.13381
 C715 C 0.64424 0.26227 0.13698
 C716 C 0.66260 0.26381 0.15459
 C717 C 0.66784 0.24403 0.16957
 C718 C 0.65454 0.22255 0.16662
 C719 C 0.63936 0.28244 0.12262
 C720 C 0.62124 0.28172 0.10519
 C721 C 0.60716 0.26061 0.10130
 C722 C 0.61222 0.23956 0.11561
 C723 C 0.59868 0.21821 0.11115
 C724 C 0.58077 0.21742 0.09346
 C725 C 0.57537 0.23784 0.07962
 C726 C 0.58830 0.25980 0.08344
 C727 C 0.58160 0.28013 0.06932
 C728 C 0.56316 0.27857 0.05211
 C729 C 0.55067 0.25677 0.04818
 C730 C 0.55692 0.23642 0.06201
 H731 H 0.62706 0.20361 0.14830
 H732 H 0.67253 0.28064 0.15686
 H733 H 0.65820 0.20682 0.17774
 H734 H 0.64970 0.29904 0.12489
 H735 H 0.61898 0.29814 0.09488
 H736 H 0.60153 0.20155 0.12091
 H737 H 0.57093 0.20060 0.09069
 H738 H 0.58998 0.29767 0.07119
 H739 H 0.55873 0.29468 0.04178
 H740 H 0.54722 0.21951 0.05930
 C741 C -0.15193 0.63810 0.78153
 C742 C -0.13596 0.63273 0.76209
 C743 C -0.13883 0.64610 0.74036
 C744 C -0.15630 0.66462 0.73871
 C745 C -0.17196 0.66992 0.75821
 C746 C -0.16959 0.65618 0.77953
 C747 C -0.12436 0.64087 0.72024
 C748 C -0.10713 0.62247 0.72104
 C749 C -0.10328 0.60878 0.74235
 C750 C -0.11752 0.61444 0.76340
 C751 C -0.11260 0.60189 0.78516
 C752 C -0.09480 0.58412 0.78630
 C753 C -0.08132 0.57785 0.76583
 C754 C -0.08545 0.58985 0.74347
 C755 C -0.07164 0.58216 0.72315
 C756 C -0.05430 0.56373 0.72521
 C757 C -0.05001 0.55238 0.74751
 C758 C -0.06367 0.55956 0.76772
 H759 H -0.15162 0.62844 0.79848
 H760 H -0.15795 0.67445 0.72182
 H761 H -0.18107 0.65946 0.79513
 H762 H -0.12651 0.65101 0.70353
 H763 H -0.09677 0.61978 0.70466
 H764 H -0.12187 0.60567 0.80195
 H765 H -0.09163 0.57508 0.80347
 H766 H -0.07392 0.58976 0.70533
 H767 H -0.04410 0.55850 0.70922
 H768 H -0.06073 0.55070 0.78501
 C769 C -0.15128 0.35989 0.21912
 C770 C -0.13619 0.36627 0.23888
 C771 C -0.13968 0.35362 0.26101
 C772 C -0.15732 0.33521 0.26290
 C773 C -0.17204 0.32913 0.24309
 C774 C -0.16879 0.34171 0.22125
 C775 C -0.12561 0.35941 0.28119
 C776 C -0.10819 0.37764 0.28008
 C777 C -0.10398 0.39085 0.25851
 C778 C -0.11794 0.38478 0.23745
 C779 C -0.11307 0.39729 0.21562
 C780 C -0.09543 0.41522 0.21435
 C781 C -0.08202 0.42168 0.23473
 C782 C -0.08615 0.40981 0.25719
 C783 C -0.07234 0.41765 0.27739
 C784 C -0.05510 0.43616 0.27518
 C785 C -0.05089 0.44745 0.25281
 C786 C -0.06448 0.44008 0.23269
 H787 H -0.15026 0.36864 0.20171
 H788 H -0.15978 0.32586 0.28000
 H789 H -0.17966 0.33745 0.20549
 H790 H -0.12813 0.34975 0.29814
 H791 H -0.09811 0.38070 0.29652
 H792 H -0.12240 0.39357 0.19890
 H793 H -0.09235 0.42425 0.19714
 H794 H -0.07449 0.41006 0.29525
 H795 H -0.04490 0.44151 0.29109
 H796 H -0.06157 0.44887 0.21533
 C797 C 0.13910 0.35164 0.72352
 C798 C 0.13234 0.36602 0.74365
 C799 C 0.14475 0.36190 0.76583
 C800 C 0.16316 0.34420 0.76748
 C801 C 0.16938 0.33003 0.74735
 C802 C 0.15721 0.33409 0.72542
 C803 C 0.13861 0.37533 0.78633
 C804 C 0.12027 0.39264 0.78550
 C805 C 0.10725 0.39739 0.76393
 C806 C 0.11364 0.38410 0.74255
 C807 C 0.10120 0.38939 0.72077
 C808 C 0.08310 0.40690 0.71985
 C809 C 0.07641 0.41973 0.74055
 C810 C 0.08817 0.41510 0.76296
 C811 C 0.08016 0.42837 0.78346
 C812 C 0.06158 0.44556 0.78162
 C813 C 0.05038 0.45029 0.75935
 C814 C 0.05790 0.43722 0.73889
 H815 H 0.13067 0.35320 0.70600
 H816 H 0.17228 0.34114 0.78461
 H817 H 0.16170 0.32376 0.70937
 H818 H 0.14802 0.37233 0.80333
 H819 H 0.11692 0.40216 0.80220
 H820 H 0.10509 0.38048 0.70384
 H821 H 0.07417 0.41037 0.70268
 H822 H 0.08770 0.42588 0.80127
 H823 H 0.05614 0.45535 0.79776
 H824 H 0.04924 0.44059 0.72157
 C825 C 0.13751 0.64811 0.27678
 C826 C 0.13116 0.63355 0.25664
 C827 C 0.14381 0.63762 0.23455
 C828 C 0.16207 0.65540 0.23300
 C829 C 0.16797 0.66965 0.25313
 C830 C 0.15553 0.66577 0.27496
 C831 C 0.13812 0.62407 0.21405
 C832 C 0.11987 0.60668 0.21474
 C833 C 0.10655 0.60201 0.23619
 C834 C 0.11262 0.61535 0.25762
 C835 C 0.10001 0.61001 0.27933
 C836 C 0.08191 0.59253 0.28010
 C837 C 0.07540 0.57978 0.25932
 C838 C 0.08744 0.58435 0.23701
 C839 C 0.07961 0.57111 0.21644
 C840 C 0.06091 0.55402 0.21815
 C841 C 0.04944 0.54939 0.24036
 C842 C 0.05680 0.56242 0.26085
 H843 H 0.12884 0.64660 0.29422
 H844 H 0.17138 0.65840 0.21592
 H845 H 0.15977 0.67629 0.29095
 H846 H 0.14780 0.62702 0.19715
 H847 H 0.11683 0.59704 0.19806
 H848 H 0.10378 0.61885 0.29630
 H849 H 0.07279 0.58905 0.29721
 H850 H 0.08738 0.57357 0.19868
 H851 H 0.05561 0.54424 0.20199
 H852 H 0.04793 0.55913 0.27812
 C853 C 0.78131 -0.14987 0.63856
 C854 C 0.76135 -0.13479 0.63246
 C855 C 0.73921 -0.13838 0.64525
 C856 C 0.73744 -0.15618 0.66341
 C857 C 0.75738 -0.17100 0.66908
 C858 C 0.77926 -0.16760 0.65647
 C859 C 0.71885 -0.12431 0.63984
 C860 C 0.71974 -0.10686 0.62171
 C861 C 0.74127 -0.10261 0.60827
 C862 C 0.76255 -0.11649 0.61406
 C863 C 0.78436 -0.11154 0.60135
 C864 C 0.78540 -0.09389 0.58349
 C865 C 0.76479 -0.08057 0.57730
 C866 C 0.74233 -0.08480 0.58935
 C867 C 0.72188 -0.07111 0.58172
 C868 C 0.72389 -0.05384 0.56327
 C869 C 0.74628 -0.04948 0.55184
 C870 C 0.76662 -0.06300 0.55897
 H871 H 0.79879 -0.14869 0.62976
 H872 H 0.72029 -0.15871 0.67282
 H873 H 0.79509 -0.17854 0.66054
 H874 H 0.70191 -0.12688 0.64967
 H875 H 0.70317 -0.09681 0.61890
 H876 H 0.80122 -0.12082 0.60489
 H877 H 0.80259 -0.09073 0.57431
 H878 H 0.70399 -0.07340 0.58942
 H879 H 0.70780 -0.04375 0.55808
 H880 H 0.78398 -0.06001 0.55006
 C881 C 0.22122 -0.14934 0.35957
 C882 C 0.24135 -0.13485 0.36632
 C883 C 0.26372 -0.13878 0.35396
 C884 C 0.26554 -0.15629 0.33554
 C885 C 0.24541 -0.17046 0.32920
 C886 C 0.22330 -0.16673 0.34140
 C887 C 0.28425 -0.12533 0.36008
 C888 C 0.28326 -0.10807 0.37832
 C889 C 0.26149 -0.10343 0.39125
 C890 C 0.24007 -0.11677 0.38491
 C891 C 0.21810 -0.11150 0.39725
 C892 C 0.21704 -0.09389 0.41519
 C893 C 0.23780 -0.08100 0.42186
 C894 C 0.26039 -0.08574 0.41020
 C895 C 0.28102 -0.07266 0.41820
 C896 C 0.27918 -0.05559 0.43668
 C897 C 0.25680 -0.05071 0.44788
 C898 C 0.23611 -0.06347 0.44032
 H899 H 0.20358 -0.14794 0.36801
 H900 H 0.28282 -0.15916 0.32645
 H901 H 0.20727 -0.17718 0.33685
 H902 H 0.30137 -0.12821 0.35068
 H903 H 0.30002 -0.09850 0.38158
 H904 H 0.20115 -0.12049 0.39337
 H905 H 0.19973 -0.09045 0.42406
 H906 H 0.29899 -0.07529 0.41085
 H907 H 0.29553 -0.04606 0.44213
 H908 H 0.21874 -0.06002 0.44905
 C909 C 0.72264 0.13865 0.35090
 C910 C 0.74278 0.13213 0.36546
 C911 C 0.76502 0.14470 0.36154
 C912 C 0.76669 0.16311 0.34394
 C913 C 0.74654 0.16921 0.32969
 C914 C 0.72456 0.15681 0.33347
 C915 C 0.78555 0.13877 0.37510
 C916 C 0.78468 0.12052 0.39241
 C917 C 0.76304 0.10738 0.39702
 C918 C 0.74163 0.11355 0.38357
 C919 C 0.71975 0.10103 0.38876
 C920 C 0.71879 0.08304 0.40629
 C921 C 0.73953 0.07652 0.41923
 C922 C 0.76202 0.08839 0.41473
 C923 C 0.78257 0.08056 0.42812
 C924 C 0.78068 0.06203 0.44528
 C925 C 0.75830 0.05070 0.44988
 C926 C 0.73781 0.05807 0.43671
 H927 H 0.70510 0.13002 0.35225
 H928 H 0.78387 0.17235 0.34104
 H929 H 0.70850 0.16113 0.32300
 H930 H 0.80258 0.14833 0.37224
 H931 H 0.80140 0.11736 0.40207
 H932 H 0.70279 0.10480 0.37977
 H933 H 0.70154 0.07403 0.40966
 H934 H 0.80045 0.08821 0.42574
 H935 H 0.79685 0.05672 0.45516
 H936 H 0.72042 0.04931 0.43995
 C937 C 0.22036 0.14920 0.63694
 C938 C 0.24020 0.13385 0.63122
 C939 C 0.26207 0.13702 0.64454
 C940 C 0.26371 0.15468 0.66276
 C941 C 0.24390 0.16972 0.66809
 C942 C 0.22226 0.16674 0.65501
 C943 C 0.28229 0.12263 0.63962
 C944 C 0.28152 0.10517 0.62160
 C945 C 0.26028 0.10128 0.60767
 C946 C 0.23915 0.11562 0.61278
 C947 C 0.21770 0.11119 0.59935
 C948 C 0.21687 0.09347 0.58151
 C949 C 0.23737 0.07960 0.57606
 C950 C 0.25943 0.08342 0.58888
 C951 C 0.27984 0.06926 0.58218
 C952 C 0.27825 0.05201 0.56386
 C953 C 0.25635 0.04805 0.55148
 C954 C 0.23592 0.06194 0.55771
 H955 H 0.20309 0.14834 0.62778
 H956 H 0.28065 0.15691 0.67255
 H957 H 0.20647 0.17785 0.65878
 H958 H 0.29901 0.12493 0.64981
 H959 H 0.29800 0.09486 0.61929
 H960 H 0.20099 0.12098 0.60225
 H961 H 0.19997 0.09071 0.57176
 H962 H 0.29745 0.07112 0.59048
 H963 H 0.29442 0.04165 0.55943
 H964 H 0.21894 0.05923 0.54809
   
