data_POSCAR
  _audit_creation_date              2014-09-24
  _audit_creation_method            'ToBaCCo'
  _symmetry_space_group_name_H-M    'P1'
  _symmetry_Int_Tables_number       1
  _symmetry_cell_setting            triclinic
  loop_
  _symmetry_equiv_pos_as_xyz
 x,y,z
_cell_length_a 32.1503
_cell_length_b 31.8533
_cell_length_c 31.7185
_cell_angle_alpha 89.858500
_cell_angle_beta 90.008300
_cell_angle_gamma 89.921100
loop_
  _atom_site_label
  _atom_site_type_symbol
  _atom_site_fract_x
  _atom_site_fract_y
  _atom_site_fract_z
N1 N 0.17454 1.26164 0.14532
 N2 N 0.14554 1.26094 0.17460
 C3 C 0.11828 1.29231 0.16726
 C4 C 0.13121 1.31355 0.13171
 C5 C 0.16681 1.29346 0.11838
 H6 H 0.09064 1.29861 0.18564
 H7 H 0.18504 1.30072 0.09065
 Cu8 Cu 0.14513 1.21767 0.21800
 Cu9 Cu 0.21880 1.21990 0.14287
 Cu10 Cu 0.21857 1.14251 0.22001
 N11 N 0.14529 1.17413 0.26113
 N12 N 0.17419 1.14484 0.26174
 C13 C 0.16631 1.11784 0.29349
 C14 C 0.13072 1.13115 0.31362
 C15 C 0.11794 1.16675 0.29249
 H16 H 0.18446 1.09011 0.30068
 H17 H 0.09036 1.18515 0.29885
 N18 N 0.26084 1.14549 0.17511
 N19 N 0.26092 1.17498 0.14573
 C20 C 0.29250 1.16758 0.11879
 C21 C 0.31302 1.13196 0.13204
 C22 C 0.29235 1.11859 0.16762
 H23 H 0.29948 1.18603 0.09103
 H24 H 0.29919 1.09077 0.18597
 H25 H 0.18606 1.17219 0.17217
 H26 H 0.21920 1.20594 0.20648
 N27 N 0.82524 0.73900 0.14620
 N28 N 0.85429 0.73971 0.17542
 C29 C 0.88154 0.70837 0.16814
 C30 C 0.86862 0.68712 0.13269
 C31 C 0.83297 0.70721 0.11940
 H32 H 0.90921 0.70205 0.18650
 H33 H 0.81468 0.69990 0.09176
 Cu34 Cu 0.85469 0.78290 0.21869
 Cu35 Cu 0.78090 0.78065 0.14366
 Cu36 Cu 0.78109 0.85791 0.22054
 N37 N 0.85450 0.82637 0.26168
 N38 N 0.82552 0.85559 0.26224
 C39 C 0.83336 0.88252 0.29392
 C40 C 0.86900 0.86926 0.31407
 C41 C 0.88185 0.83375 0.29301
 H42 H 0.81513 0.91018 0.30106
 H43 H 0.90947 0.81538 0.29942
 N44 N 0.73877 0.85492 0.17569
 N45 N 0.73870 0.82549 0.14641
 C46 C 0.70709 0.83288 0.11947
 C47 C 0.68652 0.86845 0.13262
 C48 C 0.70721 0.88180 0.16814
 H49 H 0.70012 0.81447 0.09177
 H50 H 0.70035 0.90958 0.18639
 H51 H 0.81359 0.82837 0.17277
 H52 H 0.78058 0.79449 0.20723
 N53 N 0.82534 1.26066 -0.14555
 N54 N 0.85435 1.25998 -0.17480
 C55 C 0.88162 1.29121 -0.16742
 C56 C 0.86876 1.31235 -0.13187
 C57 C 0.83311 1.29231 -0.11863
 H58 H 0.90925 1.29755 -0.18580
 H59 H 0.81485 1.29957 -0.09095
 Cu60 Cu 0.85467 1.21700 -0.21828
 Cu61 Cu 0.78098 1.21915 -0.14317
 Cu62 Cu 0.78101 1.14227 -0.22043
 N63 N 0.85439 1.17374 -0.26148
 N64 N 0.82539 1.14462 -0.26215
 C65 C 0.83318 1.11780 -0.29396
 C66 C 0.86881 1.13103 -0.31407
 C67 C 0.88171 1.16641 -0.29286
 H68 H 0.81494 1.09023 -0.30120
 H69 H 0.90934 1.18469 -0.29919
 N70 N 0.73874 1.14519 -0.17553
 N71 N 0.73873 1.17448 -0.14610
 C72 C 0.70714 1.16709 -0.11917
 C73 C 0.68652 1.13166 -0.13248
 C74 C 0.70716 1.11840 -0.16808
 H75 H 0.70021 1.18540 -0.09138
 H76 H 0.70025 1.09074 -0.18646
 H77 H 0.81359 1.17145 -0.17254
 H78 H 0.78056 1.20562 -0.20681
 N79 N 0.17540 0.73893 -0.14573
 N80 N 0.14731 0.73869 -0.17589
 C81 C 0.12012 0.70734 -0.16854
 C82 C 0.13210 0.68708 -0.13206
 C83 C 0.16712 0.70775 -0.11824
 H84 H 0.09314 0.70036 -0.18762
 H85 H 0.18463 0.70122 -0.08985
 Cu86 Cu 0.14746 0.78045 -0.22077
 Cu87 Cu 0.21925 0.78080 -0.14318
 Cu88 Cu 0.21894 0.85789 -0.22027
 N89 N 0.14696 0.82532 -0.26253
 N90 N 0.17493 0.85543 -0.26223
 C91 C 0.16644 0.88292 -0.29340
 C92 C 0.13140 0.86910 -0.31411
 C93 C 0.11960 0.83267 -0.29391
 H94 H 0.18382 0.91128 -0.29986
 H95 H 0.09265 0.81362 -0.30090
 N96 N 0.26100 0.85518 -0.17524
 N97 N 0.26112 0.82576 -0.14582
 C98 C 0.29260 0.83321 -0.11881
 C99 C 0.31304 0.86883 -0.13205
 C100 C 0.29241 0.88213 -0.16772
 H101 H 0.29961 0.81476 -0.09103
 H102 H 0.29924 0.90988 -0.18614
 H103 H 0.18547 0.82718 -0.17374
 H104 H 0.22087 0.79439 -0.20690
 C105 C 0.49974 1.00022 -0.00006
 C106 C 0.00025 0.49957 1.00048
 C107 C 0.99971 0.00022 0.49991
 C108 C 0.07096 0.40615 1.07174
 C109 C 0.08630 0.42150 1.03349
 C110 C 0.06422 0.45215 1.01120
 C111 C 0.11104 0.34545 1.11180
 C112 C 0.01112 0.45200 1.06525
 C113 C 0.03326 0.42134 1.08748
 C114 C 0.09290 0.37336 1.09376
 C115 C 0.02687 0.46919 1.02735
 H116 H 0.11494 0.40916 1.02043
 H117 H 0.07612 0.46198 0.98084
 H118 H -0.01880 0.46170 1.07745
 H119 H 0.02053 0.40886 1.11654
 C120 C -0.07029 0.59268 1.07184
 C121 C -0.03260 0.57735 1.08755
 C122 C -0.01053 0.54676 1.06531
 C123 C -0.11016 0.65336 1.11181
 C124 C -0.06370 0.54695 1.01130
 C125 C -0.08570 0.57753 1.03361
 C126 C -0.09212 0.62545 1.09383
 C127 C -0.02633 0.52979 1.02741
 H128 H -0.01981 0.58967 1.11660
 H129 H 0.01939 0.53696 1.07748
 H130 H -0.07565 0.53729 0.98096
 H131 H -0.11434 0.58998 1.02057
 C132 C -0.07017 0.40655 0.92913
 C133 C -0.03253 0.42185 0.91340
 C134 C -0.01048 0.45240 0.93566
 C135 C -0.11003 0.34602 0.88908
 C136 C -0.06360 0.45222 0.98970
 C137 C -0.08557 0.42169 0.96738
 C138 C -0.09199 0.37385 0.90710
 C139 C -0.02629 0.46937 0.97358
 H140 H -0.01975 0.40955 0.88433
 H141 H 0.01941 0.46218 0.92347
 H142 H -0.07553 0.46187 1.02007
 H143 H -0.11417 0.40926 0.98043
 C144 C 0.07067 0.59296 0.92916
 C145 C 0.03299 0.57779 0.91345
 C146 C 0.01094 0.54715 0.93571
 C147 C 0.11071 0.65348 0.88899
 C148 C 0.06409 0.54699 0.98972
 C149 C 0.08608 0.57762 0.96740
 C150 C 0.09257 0.62568 0.90707
 C151 C 0.02677 0.52995 0.97360
 H152 H 0.02021 0.59025 0.88439
 H153 H -0.01897 0.53745 0.92353
 H154 H 0.07605 0.53716 1.02007
 H155 H 0.11471 0.58994 0.98043
 C156 C 1.07031 0.07123 0.40623
 C157 C 1.08585 0.03328 0.42185
 C158 C 1.06380 0.01105 0.45257
 C159 C 1.11046 0.11124 0.34551
 C160 C 1.01030 0.06456 0.45192
 C161 C 1.03242 0.08673 0.42120
 C162 C 1.09228 0.09323 0.37342
 C163 C 1.02626 0.02697 0.46942
 H164 H 1.11464 0.02041 0.40967
 H165 H 1.07587 -0.01908 0.46258
 H166 H 0.98026 0.07656 0.46147
 H167 H 1.01954 0.11556 0.40851
 C168 C 1.07050 -0.07082 0.59360
 C169 C 1.08558 -0.03253 0.57848
 C170 C 1.06346 -0.01029 0.54778
 C171 C 1.11091 -0.11095 0.65414
 C172 C 1.01078 -0.06447 0.54743
 C173 C 1.03298 -0.08665 0.57815
 C174 C 1.09258 -0.09288 0.62633
 C175 C 1.02632 -0.02653 0.53043
 H176 H 1.11409 -0.01942 0.59102
 H177 H 1.07516 0.02007 0.53811
 H178 H 0.98100 -0.07677 0.53752
 H179 H 1.02043 -0.11577 0.59044
 C180 C 0.92922 -0.07088 0.40655
 C181 C 0.91365 -0.03293 0.42194
 C182 C 0.93566 -0.01067 0.45258
 C183 C 0.88920 -0.11088 0.34592
 C184 C 0.98916 -0.06417 0.45231
 C185 C 0.96709 -0.08636 0.42167
 C186 C 0.90733 -0.09287 0.37380
 C187 C 0.97318 -0.02657 0.46957
 H188 H 0.88488 -0.02006 0.40965
 H189 H 0.92356 0.01946 0.46241
 H190 H 1.01920 -0.07616 0.46197
 H191 H 0.97999 -0.11520 0.40917
 C192 C 0.92905 0.07128 0.59329
 C193 C 0.96653 0.08712 0.57770
 C194 C 0.98867 0.06496 0.54704
 C195 C 0.88901 0.11121 0.65401
 C196 C 0.93597 0.01080 0.54769
 C197 C 0.91390 0.03302 0.57834
 C198 C 0.90713 0.09324 0.62609
 C199 C 0.97310 0.02702 0.53024
 H200 H 0.97912 0.11621 0.58986
 H201 H 1.01844 0.07724 0.53705
 H202 H 0.92423 -0.01955 0.53817
 H203 H 0.88543 0.01990 0.59099
 C204 C 0.40716 1.07122 0.07108
 C205 C 0.42256 1.03334 0.08700
 C206 C 0.45298 1.01114 0.06484
 C207 C 0.34670 1.11102 0.11102
 C208 C 0.45252 1.06459 0.01049
 C209 C 0.42210 1.08672 0.03273
 C210 C 0.37451 1.09308 0.09301
 C211 C 0.46971 1.02703 0.02679
 H212 H 0.41041 1.02046 0.11615
 H213 H 0.46283 0.98103 0.07718
 H214 H 0.46205 1.07658 -0.01995
 H215 H 0.40961 1.11550 0.01954
 C216 C 0.59229 1.07107 -0.07147
 C217 C 0.57687 1.08691 -0.03352
 C218 C 0.54645 1.06484 -0.01119
 C219 C 0.65280 1.11077 -0.11146
 C220 C 0.54694 1.01079 -0.06466
 C221 C 0.57736 1.03292 -0.08692
 C222 C 0.62496 1.09287 -0.09344
 C223 C 0.52974 1.02699 -0.02703
 H224 H 0.58901 1.11591 -0.02068
 H225 H 0.53659 1.07711 0.01898
 H226 H 0.53743 0.98050 -0.07660
 H227 H 0.58987 1.01980 -0.11575
 C228 C 0.40717 0.92941 -0.07117
 C229 C 0.42255 0.96725 -0.08711
 C230 C 0.45299 0.98938 -0.06496
 C231 C 0.34670 0.88973 -0.11106
 C232 C 0.45258 0.93594 -0.01061
 C233 C 0.42216 0.91387 -0.03283
 C234 C 0.37452 0.90762 -0.09307
 C235 C 0.46974 0.97346 -0.02691
 H236 H 0.41038 0.98015 -0.11625
 H237 H 0.46281 1.01946 -0.07731
 H238 H 0.46213 0.92393 0.01983
 H239 H 0.40968 0.88512 -0.01963
 C240 C 0.59233 0.92919 0.07143
 C241 C 0.57695 0.91339 0.03346
 C242 C 0.54652 0.93552 0.01110
 C243 C 0.65282 0.88938 0.11152
 C244 C 0.54693 0.98957 0.06457
 C245 C 0.57736 0.96738 0.08686
 C246 C 0.62499 0.90733 0.09344
 C247 C 0.52977 0.97340 0.02693
 H248 H 0.58912 0.88437 0.02063
 H249 H 0.53669 0.92328 -0.01908
 H250 H 0.53739 1.01988 0.07651
 H251 H 0.58984 0.98047 0.11570
   
