data_POSCAR
  _audit_creation_date              2014-09-24
  _audit_creation_method            'ToBaCCo'
  _symmetry_space_group_name_H-M    'P1'
  _symmetry_Int_Tables_number       1
  _symmetry_cell_setting            triclinic
  loop_
  _symmetry_equiv_pos_as_xyz
 x,y,z
_cell_length_a 51.8461
_cell_length_b 51.9459
_cell_length_c 52.0901
_cell_angle_alpha 89.995800
_cell_angle_beta 89.995300
_cell_angle_gamma 90.004100
loop_
  _atom_site_label
  _atom_site_type_symbol
  _atom_site_fract_x
  _atom_site_fract_y
  _atom_site_fract_z
N1 N 0.27995 0.22836 0.20828
 N2 N 0.26922 0.24891 0.19810
 C3 C 0.28278 0.25599 0.17717
 C4 C 0.30291 0.23890 0.17428
 C5 C 0.30066 0.22163 0.19422
 H6 H 0.27839 0.27223 0.16492
 H7 H 0.31311 0.20541 0.19816
 Cu8 Cu 0.23858 0.26416 0.21331
 Cu9 Cu 0.26612 0.21170 0.23882
 Cu10 Cu 0.21119 0.23877 0.26586
 N11 N 0.20792 0.27936 0.22852
 N12 N 0.19730 0.26926 0.24912
 C13 C 0.17651 0.28327 0.25576
 C14 C 0.17410 0.30309 0.23836
 C15 C 0.19422 0.30020 0.22132
 H16 H 0.16411 0.27938 0.27199
 H17 H 0.19846 0.31234 0.20498
 N18 N 0.22823 0.20792 0.27992
 N19 N 0.24918 0.19767 0.26969
 C20 C 0.25609 0.17691 0.28360
 C21 C 0.23867 0.17414 0.30335
 C22 C 0.22128 0.19396 0.30059
 H23 H 0.27250 0.16468 0.27971
 H24 H 0.20485 0.19785 0.31277
 H25 H 0.22829 0.22311 0.23366
 H26 H 0.24882 0.24399 0.25434
 N27 N 0.71995 -0.22826 0.20737
 N28 N 0.73045 -0.24905 0.19740
 C29 C 0.71669 -0.25629 0.17664
 C30 C 0.69669 -0.23905 0.17368
 C31 C 0.69919 -0.22153 0.19337
 H32 H 0.72084 -0.27276 0.16461
 H33 H 0.68687 -0.20519 0.19724
 Cu34 Cu 0.76110 -0.26437 0.21269
 Cu35 Cu 0.73384 -0.21150 0.23783
 Cu36 Cu 0.78832 -0.23911 0.26530
 N37 N 0.79175 -0.27973 0.22795
 N38 N 0.80230 -0.26970 0.24865
 C39 C 0.82310 -0.28372 0.25531
 C40 C 0.82558 -0.30351 0.23785
 C41 C 0.80550 -0.30057 0.22074
 H42 H 0.83545 -0.27982 0.27158
 H43 H 0.80129 -0.31265 0.20434
 N44 N 0.77141 -0.20807 0.27927
 N45 N 0.75076 -0.19751 0.26874
 C46 C 0.74388 -0.17670 0.28260
 C47 C 0.76102 -0.17416 0.30262
 C48 C 0.77821 -0.19420 0.30008
 H49 H 0.72763 -0.16431 0.27852
 H50 H 0.79439 -0.19832 0.31250
 H51 H 0.77148 -0.22329 0.23299
 H52 H 0.75048 -0.24385 0.25352
 N53 N 0.72024 0.22849 0.79173
 N54 N 0.73097 0.24904 0.80195
 C55 C 0.71742 0.25599 0.82294
 C56 C 0.69732 0.23885 0.82582
 C57 C 0.69959 0.22165 0.80583
 H58 H 0.72175 0.27224 0.83518
 H59 H 0.68718 0.20539 0.80187
 Cu60 Cu 0.76156 0.26441 0.78658
 Cu61 Cu 0.73392 0.21197 0.76105
 Cu62 Cu 0.78874 0.23923 0.73385
 N63 N 0.79223 0.27978 0.77133
 N64 N 0.80274 0.26978 0.75060
 C65 C 0.82355 0.28380 0.74393
 C66 C 0.82611 0.30351 0.76145
 C67 C 0.80605 0.30054 0.77860
 H68 H 0.83586 0.27994 0.72760
 H69 H 0.80190 0.31256 0.79505
 N70 N 0.77166 0.20831 0.71977
 N71 N 0.75079 0.19799 0.73010
 C72 C 0.74403 0.17704 0.71640
 C73 C 0.76139 0.17424 0.69660
 C74 C 0.77864 0.19423 0.69917
 H75 H 0.72780 0.16464 0.72053
 H76 H 0.79504 0.19812 0.68695
 H77 H 0.77171 0.22337 0.76612
 H78 H 0.75116 0.24433 0.74552
 N79 N 0.28011 -0.22852 0.79216
 N80 N 0.26942 -0.24911 0.80234
 C81 C 0.28304 -0.25614 0.82328
 C82 C 0.30316 -0.23901 0.82615
 C83 C 0.30083 -0.22176 0.80619
 H84 H 0.27873 -0.27242 0.83554
 H85 H 0.31329 -0.20557 0.80215
 Cu86 Cu 0.23880 -0.26456 0.78706
 Cu87 Cu 0.26633 -0.21192 0.76157
 Cu88 Cu 0.21167 -0.23928 0.73436
 N89 N 0.20801 -0.27976 0.77182
 N90 N 0.19754 -0.26976 0.75108
 C91 C 0.17671 -0.28374 0.74441
 C92 C 0.17411 -0.30347 0.76193
 C93 C 0.19417 -0.30053 0.77909
 H94 H 0.16448 -0.27988 0.72804
 H95 H 0.19828 -0.31259 0.79555
 N96 N 0.22868 -0.20839 0.72024
 N97 N 0.24948 -0.19798 0.73061
 C98 C 0.25629 -0.17711 0.71679
 C99 C 0.23897 -0.17441 0.69695
 C100 C 0.22173 -0.19440 0.69957
 H101 H 0.27256 -0.16473 0.72084
 H102 H 0.20535 -0.19834 0.68734
 H103 H 0.22867 -0.22349 0.76671
 H104 H 0.24949 -0.24431 0.74616
 N105 N 0.72040 -0.22847 0.79201
 N106 N 0.73109 -0.24906 0.80217
 C107 C 0.71755 -0.25604 0.82316
 C108 C 0.69748 -0.23887 0.82608
 C109 C 0.69974 -0.22165 0.80611
 H110 H 0.72195 -0.27225 0.83544
 H111 H 0.68724 -0.20546 0.80209
 Cu112 Cu 0.76176 -0.26438 0.78693
 Cu113 Cu 0.73414 -0.21192 0.76138
 Cu114 Cu 0.78882 -0.23920 0.73409
 N115 N 0.79236 -0.27974 0.77155
 N116 N 0.80286 -0.26972 0.75082
 C117 C 0.82368 -0.28371 0.74416
 C118 C 0.82627 -0.30341 0.76170
 C119 C 0.80621 -0.30048 0.77884
 H120 H 0.83592 -0.27990 0.72778
 H121 H 0.80210 -0.31248 0.79533
 N122 N 0.77174 -0.20831 0.72001
 N123 N 0.75092 -0.19794 0.73039
 C124 C 0.74406 -0.17709 0.71659
 C125 C 0.76135 -0.17437 0.69672
 C126 C 0.77862 -0.19433 0.69931
 H127 H 0.72777 -0.16474 0.72064
 H128 H 0.79499 -0.19825 0.68706
 H129 H 0.75118 -0.24425 0.74584
 H130 H 0.77191 -0.22338 0.76633
 N131 N 0.28000 0.22825 0.79185
 N132 N 0.26925 0.24878 0.80205
 C133 C 0.28289 0.25594 0.82289
 C134 C 0.30305 0.23890 0.82574
 C135 C 0.30077 0.22159 0.80584
 H136 H 0.27858 0.27225 0.83506
 H137 H 0.31326 0.20540 0.80188
 Cu138 Cu 0.23865 0.26405 0.78680
 Cu139 Cu 0.26624 0.21161 0.76128
 Cu140 Cu 0.21154 0.23891 0.73402
 N141 N 0.20806 0.27931 0.77154
 N142 N 0.19762 0.26936 0.75077
 C143 C 0.17691 0.28345 0.74404
 C144 C 0.17439 0.30315 0.76153
 C145 C 0.19436 0.30015 0.77871
 H146 H 0.16461 0.27964 0.72771
 H147 H 0.19852 0.31224 0.79510
 N148 N 0.22853 0.20803 0.72001
 N149 N 0.24934 0.19763 0.73037
 C150 C 0.25615 0.17679 0.71655
 C151 C 0.23882 0.17411 0.69673
 C152 C 0.22158 0.19408 0.69934
 H153 H 0.27245 0.16443 0.72057
 H154 H 0.20523 0.19806 0.68709
 H155 H 0.24920 0.24401 0.74579
 H156 H 0.22844 0.22310 0.76622
 N157 N 0.27979 -0.22804 0.20804
 N158 N 0.26926 -0.24878 0.19804
 C159 C 0.28307 -0.25608 0.17734
 C160 C 0.30308 -0.23887 0.17436
 C161 C 0.30057 -0.22136 0.19405
 H162 H 0.27892 -0.27254 0.16533
 H163 H 0.31293 -0.20504 0.19791
 Cu164 Cu 0.23871 -0.26414 0.21330
 Cu165 Cu 0.26587 -0.21131 0.23848
 Cu166 Cu 0.21132 -0.23877 0.26589
 N167 N 0.20806 -0.27934 0.22853
 N168 N 0.19750 -0.26930 0.24920
 C169 C 0.17673 -0.28333 0.25586
 C170 C 0.17430 -0.30310 0.23843
 C171 C 0.19439 -0.30019 0.22137
 H172 H 0.16434 -0.27945 0.27211
 H173 H 0.19860 -0.31230 0.20501
 N174 N 0.22823 -0.20780 0.27982
 N175 N 0.24892 -0.19729 0.26934
 C176 C 0.25582 -0.17653 0.28324
 C177 C 0.23865 -0.17402 0.30324
 C178 C 0.22143 -0.19400 0.30064
 H179 H 0.27212 -0.16418 0.27924
 H180 H 0.20523 -0.19813 0.31305
 H181 H 0.24901 -0.24373 0.25421
 H182 H 0.22809 -0.22313 0.23360
 N183 N 0.72029 0.22787 0.20773
 N184 N 0.73073 0.24872 0.19783
 C185 C 0.71691 0.25605 0.17717
 C186 C 0.69699 0.23876 0.17409
 C187 C 0.69955 0.22117 0.19370
 H188 H 0.72101 0.27258 0.16521
 H189 H 0.68723 0.20480 0.19752
 Cu190 Cu 0.76127 0.26401 0.21316
 Cu191 Cu 0.73416 0.21110 0.23818
 Cu192 Cu 0.78826 0.23901 0.26603
 N193 N 0.79173 0.27942 0.22851
 N194 N 0.80211 0.26953 0.24934
 C195 C 0.82287 0.28355 0.25603
 C196 C 0.82548 0.30317 0.23845
 C197 C 0.80550 0.30019 0.22127
 H198 H 0.83516 0.27975 0.27238
 H199 H 0.80148 0.31213 0.20474
 N200 N 0.77145 0.20795 0.27988
 N201 N 0.75103 0.19717 0.26914
 C202 C 0.74426 0.17628 0.28292
 C203 C 0.76124 0.17395 0.30309
 C204 C 0.77822 0.19417 0.30072
 H205 H 0.72817 0.16372 0.27871
 H206 H 0.79427 0.19845 0.31328
 H207 H 0.75058 0.24361 0.25395
 H208 H 0.77192 0.22313 0.23362
 C209 C 0.23879 -0.02348 0.55447
 C210 C 0.23877 -0.00010 0.56754
 C211 C 0.23874 0.02327 0.55447
 C212 C 0.23873 0.02361 0.52734
 C213 C 0.23875 -0.00008 0.51373
 C214 C 0.23877 -0.02380 0.52734
 C215 C 0.23878 -0.04701 0.51349
 C216 C 0.23876 -0.04699 0.48669
 C217 C 0.23874 -0.02376 0.47286
 C218 C 0.23873 -0.00007 0.48648
 C219 C 0.23871 0.04685 0.51351
 C220 C 0.23870 0.04687 0.48672
 C221 C 0.23871 0.02365 0.47287
 C222 C 0.23870 0.02333 0.44575
 C223 C 0.23871 -0.00004 0.43267
 C224 C 0.23872 -0.02342 0.44574
 H225 H 0.23879 -0.06537 0.52332
 H226 H 0.23877 -0.06534 0.47684
 H227 H 0.23871 0.06520 0.52336
 H228 H 0.23869 0.06522 0.47689
 H229 H 0.23878 -0.00010 0.58840
 H230 H 0.23870 -0.00003 0.41181
 C231 C 0.76121 0.02324 0.55419
 C232 C 0.76121 -0.00013 0.56727
 C233 C 0.76119 -0.02352 0.55420
 C234 C 0.76116 -0.02386 0.52707
 C235 C 0.76116 -0.00017 0.51345
 C236 C 0.76119 0.02355 0.52705
 C237 C 0.76120 0.04677 0.51320
 C238 C 0.76118 0.04675 0.48641
 C239 C 0.76115 0.02352 0.47257
 C240 C 0.76114 -0.00018 0.48620
 C241 C 0.76113 -0.04710 0.51323
 C242 C 0.76110 -0.04711 0.48644
 C243 C 0.76110 -0.02389 0.47258
 C244 C 0.76107 -0.02358 0.44544
 C245 C 0.76109 -0.00020 0.43237
 C246 C 0.76113 0.02318 0.44545
 H247 H 0.76122 0.06513 0.52303
 H248 H 0.76118 0.06510 0.47656
 H249 H 0.76112 -0.06545 0.52308
 H250 H 0.76107 -0.06546 0.47660
 H251 H 0.76123 -0.00013 0.58812
 H252 H 0.76107 -0.00019 0.41151
 C253 C 0.44537 0.23902 0.02333
 C254 C 0.43222 0.23901 0.00003
 C255 C 0.44535 0.23900 -0.02329
 C256 C 0.47259 0.23901 -0.02363
 C257 C 0.48627 0.23901 -0.00001
 C258 C 0.47261 0.23901 0.02364
 C259 C 0.48652 0.23902 0.04679
 C260 C 0.51343 0.23901 0.04677
 C261 C 0.52731 0.23901 0.02359
 C262 C 0.51363 0.23901 -0.00003
 C263 C 0.48648 0.23900 -0.04681
 C264 C 0.51338 0.23900 -0.04683
 C265 C 0.52730 0.23900 -0.02368
 C266 C 0.55454 0.23900 -0.02338
 C267 C 0.56769 0.23900 -0.00007
 C268 C 0.55455 0.23900 0.02325
 H269 H 0.47665 0.23902 0.06511
 H270 H 0.52332 0.23902 0.06507
 H271 H 0.47658 0.23900 -0.06511
 H272 H 0.52325 0.23900 -0.06515
 H273 H 0.41126 0.23902 0.00004
 H274 H 0.58865 0.23900 -0.00008
 C275 C 0.55505 0.76100 0.02386
 C276 C 0.56821 0.76101 0.00055
 C277 C 0.55509 0.76100 -0.02278
 C278 C 0.52784 0.76099 -0.02313
 C279 C 0.51414 0.76098 0.00049
 C280 C 0.52780 0.76098 0.02415
 C281 C 0.51387 0.76097 0.04729
 C282 C 0.48696 0.76096 0.04726
 C283 C 0.47308 0.76097 0.02408
 C284 C 0.48678 0.76098 0.00046
 C285 C 0.51396 0.76100 -0.04631
 C286 C 0.48705 0.76099 -0.04634
 C287 C 0.47312 0.76098 -0.02320
 C288 C 0.44587 0.76098 -0.02291
 C289 C 0.43271 0.76097 0.00040
 C290 C 0.44584 0.76097 0.02372
 H291 H 0.52373 0.76096 0.06561
 H292 H 0.47705 0.76095 0.06556
 H293 H 0.52386 0.76101 -0.06461
 H294 H 0.47719 0.76100 -0.06466
 H295 H 0.58917 0.76101 0.00056
 H296 H 0.41176 0.76096 0.00038
 C297 C 0.02316 0.44583 0.23817
 C298 C -0.00022 0.43269 0.23816
 C299 C -0.02364 0.44577 0.23814
 C300 C -0.02405 0.47295 0.23811
 C301 C -0.00034 0.48664 0.23811
 C302 C 0.02344 0.47303 0.23814
 C303 C 0.04668 0.48693 0.23815
 C304 C 0.04661 0.51378 0.23813
 C305 C 0.02330 0.52761 0.23811
 C306 C -0.00041 0.51394 0.23809
 C307 C -0.04736 0.48677 0.23807
 C308 C -0.04743 0.51364 0.23805
 C309 C -0.02420 0.52756 0.23806
 C310 C -0.02393 0.55478 0.23804
 C311 C -0.00051 0.56789 0.23805
 C312 C 0.02291 0.55478 0.23810
 H313 H 0.06509 0.47709 0.23816
 H314 H 0.06499 0.52368 0.23814
 H315 H -0.06573 0.47686 0.23807
 H316 H -0.06584 0.52347 0.23802
 H317 H -0.00020 0.41177 0.23818
 H318 H -0.00050 0.58881 0.23803
 C319 C 0.02322 0.44565 0.76173
 C320 C -0.00021 0.43255 0.76171
 C321 C -0.02364 0.44566 0.76170
 C322 C -0.02389 0.47289 0.76173
 C323 C -0.00011 0.48653 0.76175
 C324 C 0.02361 0.47284 0.76175
 C325 C 0.04692 0.48668 0.76177
 C326 C 0.04699 0.51354 0.76179
 C327 C 0.02376 0.52749 0.76179
 C328 C -0.00003 0.51386 0.76177
 C329 C -0.04712 0.48682 0.76173
 C330 C -0.04705 0.51370 0.76174
 C331 C -0.02375 0.52756 0.76176
 C332 C -0.02338 0.55477 0.76178
 C333 C 0.00009 0.56784 0.76180
 C334 C 0.02352 0.55471 0.76180
 H335 H 0.06529 0.47677 0.76177
 H336 H 0.06541 0.52337 0.76180
 H337 H -0.06553 0.47698 0.76171
 H338 H -0.06542 0.52360 0.76174
 H339 H -0.00021 0.41163 0.76170
 H340 H 0.00013 0.58876 0.76181
 C341 C 0.35895 0.23912 0.11857
 C342 C 0.35628 0.21711 0.09909
 C343 C 0.37504 0.21708 0.08078
 C344 C 0.39465 0.23906 0.08375
 C345 C 0.40512 0.23640 0.11115
 C346 C 0.38634 0.23643 0.12946
 C347 C 0.35955 0.26376 0.10233
 C348 C 0.37832 0.26373 0.08401
 C349 C 0.33881 0.23913 0.13832
 C350 C 0.32235 0.23908 0.15466
 C351 C 0.41455 0.23903 0.06377
 C352 C 0.42963 0.23902 0.04617
 H353 H 0.34087 0.20295 0.09952
 H354 H 0.37571 0.20288 0.06550
 H355 H 0.42546 0.23460 0.11574
 H356 H 0.39058 0.23465 0.14979
 H357 H 0.34623 0.27970 0.10480
 H358 H 0.38108 0.27965 0.07079
 C359 C 0.64152 0.76084 0.11911
 C360 C 0.65179 0.76558 0.09190
 C361 C 0.63301 0.76564 0.07360
 C362 C 0.60578 0.76096 0.08431
 C363 C 0.60208 0.78169 0.10494
 C364 C 0.62087 0.78164 0.12325
 C365 C 0.62653 0.73541 0.11738
 C366 C 0.60775 0.73547 0.09907
 C367 C 0.66170 0.76078 0.13886
 C368 C 0.67820 0.76078 0.15517
 C369 C 0.58586 0.76100 0.06432
 C370 C 0.57079 0.76101 0.04671
 H371 H 0.67201 0.76862 0.08740
 H372 H 0.63718 0.76871 0.05339
 H373 H 0.58625 0.79537 0.10503
 H374 H 0.62114 0.79527 0.13904
 H375 H 0.63051 0.71874 0.12931
 H376 H 0.59563 0.71885 0.09530
 C377 C 0.64099 0.23904 -0.11866
 C378 C 0.63374 0.21201 -0.10919
 C379 C 0.61496 0.21198 -0.09088
 C380 C 0.60526 0.23900 -0.08384
 C381 C 0.59670 0.25108 -0.10931
 C382 C 0.61549 0.25110 -0.12763
 C383 C 0.64837 0.25398 -0.09433
 C384 C 0.62960 0.25396 -0.07603
 C385 C 0.66121 0.23905 -0.13838
 C386 C 0.67776 0.23901 -0.15464
 C387 C 0.58535 0.23899 -0.06385
 C388 C 0.57029 0.23899 -0.04623
 H389 H 0.64276 0.19445 -0.11607
 H390 H 0.60790 0.19441 -0.08204
 H391 H 0.57761 0.25901 -0.11262
 H392 H 0.61250 0.25905 -0.14667
 H393 H 0.66678 0.26358 -0.09166
 H394 H 0.63195 0.26354 -0.05764
 C395 C 0.35939 0.76088 -0.11821
 C396 C 0.34923 0.76648 -0.09110
 C397 C 0.36800 0.76651 -0.07280
 C398 C 0.39511 0.76095 -0.08338
 C399 C 0.39930 0.78112 -0.10449
 C400 C 0.38052 0.78107 -0.12280
 C401 C 0.37376 0.73515 -0.11587
 C402 C 0.39254 0.73519 -0.09755
 C403 C 0.33922 0.76084 -0.13798
 C404 C 0.32271 0.76085 -0.15429
 C405 C 0.41504 0.76098 -0.06339
 C406 C 0.43012 0.76099 -0.04577
 H407 H 0.32908 0.77007 -0.08668
 H408 H 0.36391 0.77014 -0.05267
 H409 H 0.41547 0.79440 -0.10488
 H410 H 0.38058 0.79433 -0.13891
 H411 H 0.36939 0.71830 -0.12741
 H412 H 0.40426 0.71838 -0.09339
 C413 C 0.11862 0.35942 0.23814
 C414 C 0.10829 0.36581 0.26501
 C415 C 0.08989 0.38455 0.26504
 C416 C 0.08368 0.39506 0.23819
 C417 C 0.07627 0.37123 0.22232
 C418 C 0.09466 0.35250 0.22229
 C419 C 0.12800 0.38521 0.22717
 C420 C 0.10961 0.40395 0.22719
 C421 C 0.13842 0.33931 0.23813
 C422 C 0.15471 0.32278 0.23817
 C423 C 0.06368 0.41498 0.23821
 C424 C 0.04608 0.43010 0.23819
 H425 H 0.11460 0.35620 0.28242
 H426 H 0.08042 0.39098 0.28248
 H427 H 0.05809 0.36916 0.21218
 H428 H 0.09227 0.33440 0.21214
 H429 H 0.14736 0.38841 0.21989
 H430 H 0.11316 0.42322 0.21993
 C431 C 0.11943 0.64114 0.76201
 C432 C 0.11190 0.63181 0.78896
 C433 C 0.09346 0.61310 0.78890
 C434 C 0.08434 0.60551 0.76191
 C435 C 0.10892 0.59799 0.74736
 C436 C 0.12737 0.61670 0.74741
 C437 C 0.09397 0.64960 0.74958
 C438 C 0.07553 0.63090 0.74953
 C439 C 0.13932 0.66130 0.76206
 C440 C 0.15567 0.67786 0.76205
 C441 C 0.06421 0.58559 0.76186
 C442 C 0.04652 0.57048 0.76183
 H443 H 0.12010 0.63948 0.80656
 H444 H 0.08584 0.60475 0.80644
 H445 H 0.11150 0.57966 0.73768
 H446 H 0.14579 0.61440 0.73776
 H447 H 0.09068 0.66865 0.74162
 H448 H 0.05643 0.63395 0.74152
 C449 C -0.11968 0.64120 0.23770
 C450 C -0.11484 0.62944 0.26432
 C451 C -0.09640 0.61074 0.26441
 C452 C -0.08460 0.60560 0.23787
 C453 C -0.07471 0.63196 0.22876
 C454 C -0.09315 0.65066 0.22867
 C455 C -0.12601 0.61822 0.22024
 C456 C -0.10756 0.59952 0.22034
 C457 C -0.13960 0.66133 0.23762
 C458 C -0.15597 0.67785 0.23766
 C459 C -0.06452 0.58568 0.23796
 C460 C -0.04688 0.57055 0.23800
 H461 H -0.12477 0.63553 0.28164
 H462 H -0.09050 0.60082 0.28179
 H463 H -0.05491 0.63565 0.22302
 H464 H -0.08916 0.67034 0.22285
 H465 H -0.14336 0.61686 0.20866
 H466 H -0.10906 0.58215 0.20884
 C467 C -0.11918 0.35886 0.76173
 C468 C -0.11857 0.37485 0.73694
 C469 C -0.10017 0.39361 0.73691
 C470 C -0.08418 0.39458 0.76168
 C471 C -0.07324 0.36723 0.76473
 C472 C -0.09164 0.34847 0.76475
 C473 C -0.12234 0.37860 0.78344
 C474 C -0.10394 0.39735 0.78342
 C475 C -0.13907 0.33869 0.76173
 C476 C -0.15543 0.32215 0.76166
 C477 C -0.06416 0.41460 0.76167
 C478 C -0.04658 0.42983 0.76168
 H479 H -0.13124 0.37150 0.72068
 H480 H -0.09706 0.40630 0.72064
 H481 H -0.05282 0.36297 0.76663
 H482 H -0.08699 0.32818 0.76667
 H483 H -0.13753 0.37774 0.79776
 H484 H -0.10334 0.41255 0.79772
 C485 C 0.23863 0.11854 0.35937
 C486 C 0.22667 0.12763 0.38477
 C487 C 0.22668 0.10931 0.40350
 C488 C 0.23866 0.08371 0.39499
 C489 C 0.26573 0.09064 0.38521
 C490 C 0.26570 0.10896 0.36649
 C491 C 0.22354 0.09420 0.35211
 C492 C 0.22356 0.07588 0.37083
 C493 C 0.23863 0.13831 0.33929
 C494 C 0.23865 0.15463 0.32285
 C495 C 0.23868 0.06377 0.41491
 C496 C 0.23869 0.04620 0.43002
 H497 H 0.21876 0.14676 0.38772
 H498 H 0.21880 0.11269 0.42251
 H499 H 0.28332 0.08168 0.39213
 H500 H 0.28327 0.11573 0.35737
 H501 H 0.21389 0.09152 0.33380
 H502 H 0.21391 0.05746 0.36853
 C503 C 0.76130 0.11850 0.64062
 C504 C 0.76849 0.12888 0.61395
 C505 C 0.76846 0.11057 0.59521
 C506 C 0.76124 0.08367 0.60496
 C507 C 0.73500 0.08703 0.61825
 C508 C 0.73504 0.10534 0.63699
 C509 C 0.78031 0.09642 0.64561
 C510 C 0.78028 0.07811 0.62688
 C511 C 0.76135 0.13829 0.66073
 C512 C 0.76139 0.15464 0.67715
 C513 C 0.76122 0.06371 0.58503
 C514 C 0.76121 0.04613 0.56992
 H515 H 0.77324 0.14888 0.61016
 H516 H 0.77320 0.11483 0.57536
 H517 H 0.71799 0.07577 0.61358
 H518 H 0.71806 0.10980 0.64835
 H519 H 0.79252 0.09516 0.66251
 H520 H 0.79248 0.06114 0.62775
 C521 C 0.23887 -0.11866 0.64097
 C522 C 0.22000 -0.09650 0.64608
 C523 C 0.21999 -0.07819 0.62734
 C524 C 0.23887 -0.08385 0.60530
 C525 C 0.23145 -0.11071 0.59561
 C526 C 0.23146 -0.12902 0.61435
 C527 C 0.26517 -0.10563 0.63716
 C528 C 0.26517 -0.08732 0.61841
 C529 C 0.23888 -0.13844 0.66108
 C530 C 0.23891 -0.15481 0.67750
 C531 C 0.23885 -0.06391 0.58535
 C532 C 0.23883 -0.04635 0.57022
 H533 H 0.20791 -0.09517 0.66306
 H534 H 0.20789 -0.06115 0.62829
 H535 H 0.22657 -0.11495 0.57579
 H536 H 0.22657 -0.14898 0.61060
 H537 H 0.28219 -0.11014 0.64843
 H538 H 0.28220 -0.07612 0.61364
 C539 C 0.76085 -0.11868 0.35885
 C540 C 0.77858 -0.12511 0.38158
 C541 C 0.77861 -0.10683 0.40035
 C542 C 0.76091 -0.08391 0.39456
 C543 C 0.73423 -0.09569 0.38957
 C544 C 0.73420 -0.11397 0.37081
 C545 C 0.76981 -0.09213 0.34950
 C546 C 0.76984 -0.07385 0.36826
 C547 C 0.76086 -0.13842 0.33871
 C548 C 0.76092 -0.15470 0.32221
 C549 C 0.76096 -0.06399 0.41453
 C550 C 0.76101 -0.04645 0.42968
 H551 H 0.79023 -0.14244 0.38273
 H552 H 0.79029 -0.10845 0.41757
 H553 H 0.71683 -0.08991 0.39965
 H554 H 0.71678 -0.12390 0.36481
 H555 H 0.77549 -0.08803 0.32985
 H556 H 0.77556 -0.05406 0.36465
 C557 C 0.64136 0.76099 -0.11821
 C558 C 0.63411 0.73398 -0.10871
 C559 C 0.61539 0.73399 -0.09035
 C560 C 0.60574 0.76101 -0.08330
 C561 C 0.59712 0.77311 -0.10874
 C562 C 0.61585 0.77310 -0.12711
 C563 C 0.64884 0.77594 -0.09392
 C564 C 0.63012 0.77595 -0.07556
 C565 C 0.66149 0.76096 -0.13801
 C566 C 0.67797 0.76098 -0.15434
 C567 C 0.58589 0.76101 -0.06325
 C568 C 0.57085 0.76101 -0.04562
 H569 H 0.64309 0.71641 -0.11561
 H570 H 0.60834 0.71642 -0.08149
 H571 H 0.57804 0.78108 -0.11198
 H572 H 0.61282 0.78109 -0.14613
 H573 H 0.66725 0.78555 -0.09131
 H574 H 0.63252 0.78556 -0.05719
 C575 C 0.35901 0.23908 -0.11852
 C576 C 0.34882 0.24464 -0.09144
 C577 C 0.36757 0.24461 -0.07312
 C578 C 0.39467 0.23901 -0.08369
 C579 C 0.39895 0.25920 -0.10475
 C580 C 0.38019 0.25923 -0.12308
 C581 C 0.37332 0.21330 -0.11623
 C582 C 0.39208 0.21327 -0.09790
 C583 C 0.33890 0.23910 -0.13829
 C584 C 0.32247 0.23907 -0.15465
 C585 C 0.41455 0.23899 -0.06371
 C586 C 0.42961 0.23899 -0.04611
 H587 H 0.32866 0.24820 -0.08703
 H588 H 0.36345 0.24815 -0.05298
 H589 H 0.41516 0.27242 -0.10513
 H590 H 0.38032 0.27249 -0.13919
 H591 H 0.36889 0.19648 -0.12778
 H592 H 0.40374 0.19642 -0.09374
 C593 C 0.35929 0.76082 0.11884
 C594 C 0.35670 0.73885 0.09932
 C595 C 0.37550 0.73890 0.08104
 C596 C 0.39505 0.76091 0.08408
 C597 C 0.40548 0.75824 0.11149
 C598 C 0.38667 0.75819 0.12977
 C599 C 0.35987 0.78550 0.10264
 C600 C 0.37867 0.78555 0.08436
 C601 C 0.33912 0.76079 0.13856
 C602 C 0.32262 0.76087 0.15485
 C603 C 0.41498 0.76095 0.06413
 C604 C 0.43007 0.76096 0.04654
 H605 H 0.34131 0.72468 0.09967
 H606 H 0.37621 0.72474 0.06571
 H607 H 0.42582 0.75654 0.11612
 H608 H 0.39089 0.75646 0.15011
 H609 H 0.34652 0.80141 0.10514
 H610 H 0.38143 0.80151 0.07118
 C611 C 0.64089 0.23910 0.11849
 C612 C 0.65119 0.24379 0.09128
 C613 C 0.63244 0.24375 0.07296
 C614 C 0.60522 0.23902 0.08367
 C615 C 0.60143 0.25979 0.10425
 C616 C 0.62019 0.25983 0.12257
 C617 C 0.62599 0.21361 0.11680
 C618 C 0.60723 0.21357 0.09848
 C619 C 0.66101 0.23911 0.13826
 C620 C 0.67748 0.23902 0.15457
 C621 C 0.58534 0.23900 0.06368
 C622 C 0.57029 0.23899 0.04607
 H623 H 0.67143 0.24678 0.08678
 H624 H 0.63662 0.24673 0.05274
 H625 H 0.58553 0.27339 0.10431
 H626 H 0.62039 0.27346 0.13836
 H627 H 0.63003 0.19696 0.12874
 H628 H 0.59518 0.19690 0.09471
 C629 C -0.11909 0.64125 0.76185
 C630 C -0.11417 0.62941 0.78841
 C631 C -0.09574 0.61069 0.78839
 C632 C -0.08403 0.60562 0.76180
 C633 C -0.07415 0.63199 0.75273
 C634 C -0.09257 0.65071 0.75275
 C635 C -0.12549 0.61833 0.74435
 C636 C -0.10705 0.59961 0.74432
 C637 C -0.13899 0.66137 0.76186
 C638 C -0.15533 0.67792 0.76183
 C639 C -0.06395 0.58570 0.76178
 C640 C -0.04630 0.57058 0.76178
 H641 H -0.12405 0.63544 0.80578
 H642 H -0.08983 0.60069 0.80572
 H643 H -0.05438 0.63566 0.74687
 H644 H -0.08859 0.67039 0.74691
 H645 H -0.14285 0.61705 0.73278
 H646 H -0.10861 0.58230 0.73276
 C647 C -0.11892 0.35931 0.23810
 C648 C -0.11832 0.37530 0.21333
 C649 C -0.09995 0.39405 0.21335
 C650 C -0.08402 0.39495 0.23814
 C651 C -0.07303 0.36764 0.24119
 C652 C -0.09140 0.34889 0.24117
 C653 C -0.12214 0.37899 0.25985
 C654 C -0.10377 0.39775 0.25987
 C655 C -0.13873 0.33923 0.23811
 C656 C -0.15505 0.32275 0.23820
 C657 C -0.06407 0.41487 0.23815
 C658 C -0.04649 0.43000 0.23815
 H659 H -0.13099 0.37195 0.19707
 H660 H -0.09684 0.40679 0.19711
 H661 H -0.05261 0.36339 0.24318
 H662 H -0.08676 0.32860 0.24315
 H663 H -0.13733 0.37807 0.27417
 H664 H -0.10318 0.41291 0.27420
 C665 C 0.11877 0.35933 0.76179
 C666 C 0.10839 0.36572 0.78863
 C667 C 0.08998 0.38444 0.78862
 C668 C 0.08378 0.39491 0.76175
 C669 C 0.07644 0.37107 0.74588
 C670 C 0.09485 0.35236 0.74590
 C671 C 0.12813 0.38512 0.75080
 C672 C 0.10972 0.40384 0.75078
 C673 C 0.13860 0.33925 0.76181
 C674 C 0.15494 0.32278 0.76175
 C675 C 0.06375 0.41479 0.76174
 C676 C 0.04612 0.42989 0.76173
 H677 H 0.11469 0.35614 0.80606
 H678 H 0.08048 0.39089 0.80605
 H679 H 0.05829 0.36899 0.73566
 H680 H 0.09252 0.33427 0.73572
 H681 H 0.14748 0.38832 0.74350
 H682 H 0.11324 0.42309 0.74347
 C683 C 0.11866 0.64077 0.23810
 C684 C 0.11121 0.63154 0.26509
 C685 C 0.09275 0.61287 0.26511
 C686 C 0.08360 0.60528 0.23814
 C687 C 0.10811 0.59764 0.22355
 C688 C 0.12657 0.61632 0.22353
 C689 C 0.09321 0.64929 0.22570
 C690 C 0.07476 0.63063 0.22572
 C691 C 0.13853 0.66080 0.23810
 C692 C 0.15487 0.67727 0.23819
 C693 C 0.06350 0.58549 0.23815
 C694 C 0.04582 0.57049 0.23813
 H695 H 0.11944 0.63926 0.28264
 H696 H 0.08516 0.60457 0.28269
 H697 H 0.11067 0.57927 0.21395
 H698 H 0.14499 0.61397 0.21389
 H699 H 0.08992 0.66835 0.21777
 H700 H 0.05562 0.63370 0.21780
 C701 C 0.76129 -0.11866 0.64072
 C702 C 0.74239 -0.09651 0.64583
 C703 C 0.74237 -0.07821 0.62708
 C704 C 0.76125 -0.08387 0.60504
 C705 C 0.75385 -0.11074 0.59536
 C706 C 0.75388 -0.12904 0.61412
 C707 C 0.78757 -0.10561 0.63690
 C708 C 0.78755 -0.08731 0.61815
 C709 C 0.76132 -0.13844 0.66083
 C710 C 0.76134 -0.15479 0.67725
 C711 C 0.76122 -0.06394 0.58509
 C712 C 0.76121 -0.04639 0.56996
 H713 H 0.73030 -0.09518 0.66280
 H714 H 0.73024 -0.06119 0.62801
 H715 H 0.74896 -0.11500 0.57555
 H716 H 0.74899 -0.14901 0.61039
 H717 H 0.80460 -0.11010 0.64818
 H718 H 0.80458 -0.07611 0.61337
 C719 C 0.23874 -0.11860 0.35940
 C720 C 0.25644 -0.12499 0.38215
 C721 C 0.25644 -0.10667 0.40088
 C722 C 0.23872 -0.08378 0.39501
 C723 C 0.21205 -0.09559 0.39003
 C724 C 0.21206 -0.11391 0.37130
 C725 C 0.24769 -0.09208 0.34999
 C726 C 0.24768 -0.07376 0.36871
 C727 C 0.23874 -0.13834 0.33930
 C728 C 0.23872 -0.15460 0.32282
 C729 C 0.23872 -0.06383 0.41491
 C730 C 0.23872 -0.04627 0.43001
 H731 H 0.26811 -0.14231 0.38334
 H732 H 0.26810 -0.10824 0.41812
 H733 H 0.19464 -0.08981 0.40007
 H734 H 0.19467 -0.12387 0.36531
 H735 H 0.25339 -0.08803 0.33034
 H736 H 0.25338 -0.05397 0.36506
 C737 C 0.76121 0.11846 0.35918
 C738 C 0.74927 0.12755 0.38458
 C739 C 0.74925 0.10921 0.40330
 C740 C 0.76119 0.08360 0.39476
 C741 C 0.78827 0.09049 0.38499
 C742 C 0.78827 0.10883 0.36628
 C743 C 0.74609 0.09415 0.35189
 C744 C 0.74608 0.07581 0.37060
 C745 C 0.76122 0.13822 0.33910
 C746 C 0.76122 0.15450 0.32263
 C747 C 0.76117 0.06363 0.41464
 C748 C 0.76116 0.04605 0.42973
 H749 H 0.74140 0.14668 0.38756
 H750 H 0.74137 0.11259 0.42231
 H751 H 0.80585 0.08150 0.39190
 H752 H 0.80586 0.11559 0.35718
 H753 H 0.73643 0.09150 0.33358
 H754 H 0.73640 0.05741 0.36828
 C755 C 0.23870 0.11851 0.64075
 C756 C 0.24589 0.12888 0.61409
 C757 C 0.24589 0.11055 0.59537
 C758 C 0.23870 0.08366 0.60516
 C759 C 0.21246 0.08699 0.61843
 C760 C 0.21246 0.10532 0.63714
 C761 C 0.25774 0.09647 0.64580
 C762 C 0.25775 0.07814 0.62709
 C763 C 0.23872 0.13828 0.66082
 C764 C 0.23877 0.15460 0.67725
 C765 C 0.23871 0.06371 0.58527
 C766 C 0.23872 0.04613 0.57019
 H767 H 0.25063 0.14888 0.61029
 H768 H 0.25064 0.11480 0.57552
 H769 H 0.19546 0.07569 0.61378
 H770 H 0.19548 0.10976 0.64851
 H771 H 0.26994 0.09525 0.66270
 H772 H 0.26997 0.06118 0.62798
   
