data_POSCAR
  _audit_creation_date              2014-09-24
  _audit_creation_method            'ToBaCCo'
  _symmetry_space_group_name_H-M    'P1'
  _symmetry_Int_Tables_number       1
  _symmetry_cell_setting            triclinic
  loop_
  _symmetry_equiv_pos_as_xyz
 x,y,z
_cell_length_a 24.1103
_cell_length_b 23.8096
_cell_length_c 23.0291
_cell_angle_alpha 88.746500
_cell_angle_beta 89.883000
_cell_angle_gamma 91.766800
loop_
  _atom_site_label
  _atom_site_type_symbol
  _atom_site_fract_x
  _atom_site_fract_y
  _atom_site_fract_z
C1 C 1.24891 0.24643 0.26154
 C2 C 0.74732 -0.26446 0.26215
 C3 C 0.73819 0.23555 -0.24574
 C4 C 1.24412 -0.25441 -0.23577
 C5 C 0.25234 0.24794 0.73914
 C6 C 0.75722 0.75566 0.73557
 C7 C 0.74625 0.24579 0.24157
 C8 C 0.25038 0.74020 0.24362
 O9 O 1.08121 0.09939 0.09672
 O10 O 1.14064 0.04454 0.04640
 C11 C 1.13058 0.08352 0.08348
 O12 O 0.92013 -0.09911 0.11160
 O13 O 0.85970 -0.04844 0.05574
 C14 C 0.87040 -0.08504 0.09660
 O15 O 1.07627 -0.09603 0.11239
 O16 O 1.13782 -0.04911 0.05112
 C17 C 1.12645 -0.08326 0.09422
 O18 O 0.92599 0.10528 0.09218
 O19 O 0.86309 0.04729 0.04643
 C20 C 0.87558 0.08845 0.07976
 Zr21 Zr 1.00275 0.07124 0.06665
 O22 O 0.99977 0.07558 0.15832
 O23 O 1.00342 0.16020 0.05932
 Zr24 Zr 0.99829 -0.07098 0.07841
 O25 O 1.00090 -0.07238 0.17033
 O26 O 0.99584 -0.15971 0.07672
 O27 O 1.04997 0.00043 0.08319
 O28 O 0.95247 0.00120 0.08388
 O29 O 0.92677 0.09449 -0.10901
 O30 O 0.86260 0.04489 -0.05296
 C31 C 0.87611 0.08149 -0.09383
 O32 O 1.06930 -0.10561 -0.10279
 O33 O 1.13521 -0.05550 -0.05185
 C34 C 1.12035 -0.09188 -0.09081
 O35 O 0.91492 -0.10947 -0.09041
 O36 O 0.85662 -0.05175 -0.04264
 C37 C 0.86579 -0.09258 -0.07700
 O38 O 1.08062 0.08531 -0.11502
 O39 O 1.14049 0.03742 -0.05622
 C40 C 1.13010 0.07099 -0.09945
 Zr41 Zr 1.00200 0.06272 -0.07879
 O42 O 0.99500 0.05860 -0.17027
 O43 O 1.01144 0.15135 -0.08457
 Zr44 Zr 0.99499 -0.07925 -0.06625
 O45 O 0.98715 -0.09166 -0.15650
 O46 O 0.99751 -0.16747 -0.05306
 Zr47 Zr 1.08261 -0.00494 -0.00152
 Zr48 Zr 0.91644 -0.00286 0.00081
 O49 O 0.95043 -0.00811 -0.08304
 O50 O 1.04735 -0.00965 -0.08504
 O51 O 0.95309 0.07846 -0.00658
 O52 O 1.04532 -0.08580 0.00580
 O53 O 1.05163 0.07660 -0.00748
 O54 O 0.94606 -0.08521 0.00791
 H55 H 0.92793 0.00378 0.11818
 H56 H 1.06958 -0.11866 0.00742
 H57 H 0.92548 -0.00965 -0.11714
 H58 H 1.07875 0.10856 -0.01098
 H59 H 0.99751 -0.17278 0.11780
 H60 H 0.96368 -0.17965 -0.03121
 H61 H 1.00427 -0.05812 -0.17612
 H62 H 1.02486 0.03471 -0.18429
 H63 H 0.98544 0.16692 -0.05623
 H64 H 1.03761 0.17341 0.03882
 H65 H 1.02659 0.04860 0.17413
 H66 H 0.98056 -0.03975 0.18394
 O67 O 1.07818 0.59085 0.60334
 O68 O 1.13883 0.53575 0.55502
 C69 C 1.12780 0.57436 0.59217
 O70 O 0.91049 0.39449 0.60106
 O71 O 0.85462 0.44814 0.54311
 C72 C 0.86211 0.40970 0.58316
 O73 O 1.06395 0.39586 0.61550
 O74 O 1.13197 0.43973 0.55965
 C75 C 1.11552 0.40692 0.60235
 O76 O 0.92358 0.59837 0.59213
 O77 O 0.86106 0.54532 0.54011
 C78 C 0.87331 0.58386 0.57679
 Zr79 Zr 1.00063 0.56408 0.56949
 O80 O 0.99197 0.56300 0.66112
 O81 O 1.00398 0.65313 0.56896
 Zr82 Zr 0.99077 0.42237 0.57499
 O83 O 0.97997 0.42047 0.66621
 O84 O 0.99170 0.33343 0.57518
 O85 O 1.04467 0.49147 0.58622
 O86 O 0.94715 0.49538 0.58071
 O87 O 0.93612 0.59626 0.38998
 O88 O 0.86711 0.54738 0.44020
 C89 C 0.88448 0.58500 0.40187
 O90 O 1.07199 0.39167 0.39757
 O91 O 1.13625 0.43759 0.45450
 C92 C 1.12261 0.40326 0.41313
 O93 O 0.91710 0.39260 0.39954
 O94 O 0.85798 0.45053 0.44609
 C95 C 0.86789 0.41048 0.41104
 O96 O 1.08924 0.58196 0.39298
 O97 O 1.14451 0.53196 0.45496
 C98 C 1.13750 0.56699 0.41187
 Zr99 Zr 1.00815 0.56081 0.42362
 O100 O 1.00617 0.55970 0.33169
 O101 O 1.02055 0.64924 0.42116
 Zr102 Zr 0.99642 0.41940 0.42995
 O103 O 0.99333 0.41143 0.33875
 O104 O 0.99651 0.33069 0.43950
 Zr105 Zr 1.08228 0.48802 0.50355
 Zr106 Zr 0.91606 0.49570 0.49535
 O107 O 0.95474 0.49232 0.41349
 O108 O 1.05203 0.48757 0.41761
 O109 O 0.95570 0.57591 0.49347
 O110 O 1.04186 0.40841 0.50512
 O111 O 1.05349 0.57055 0.49848
 O112 O 0.94296 0.41222 0.50056
 H113 H 0.92104 0.49652 0.61391
 H114 H 1.06520 0.37489 0.50752
 H115 H 0.93188 0.49291 0.37779
 H116 H 1.08109 0.60221 0.49747
 H117 H 0.95829 0.31977 0.55429
 H118 H 0.95927 0.31776 0.45329
 H119 H 1.01569 0.44320 0.32183
 H120 H 1.03651 0.53592 0.31860
 H121 H 0.99280 0.66494 0.44754
 H122 H 1.03399 0.66651 0.54233
 H123 H 1.02427 0.54398 0.67805
 H124 H 1.00507 0.44993 0.68201
 O125 O 0.56645 0.08909 0.61359
 O126 O 0.63169 0.04262 0.56178
 C127 C 0.61707 0.07647 0.60247
 O128 O 0.40800 -0.10845 0.59251
 O129 O 0.35157 -0.05450 0.53552
 C130 C 0.35953 -0.09419 0.57417
 O131 O 0.56204 -0.10556 0.60856
 O132 O 0.62946 -0.05231 0.56068
 C133 C 0.61347 -0.09085 0.59787
 O134 O 0.41441 0.09777 0.59009
 O135 O 0.35469 0.04500 0.53446
 C136 C 0.36511 0.08383 0.57160
 Zr137 Zr 0.49266 0.06527 0.57094
 O138 O 0.47868 0.06725 0.66160
 O139 O 0.50023 0.15390 0.56509
 Zr140 Zr 0.48768 -0.07579 0.57183
 O141 O 0.47490 -0.07394 0.66281
 O142 O 0.48966 -0.16460 0.57612
 O143 O 0.53884 -0.00603 0.58708
 O144 O 0.44082 -0.00499 0.57799
 O145 O 0.43338 0.10528 0.39504
 O146 O 0.36388 0.05139 0.43896
 C147 C 0.38164 0.09280 0.40507
 O148 O 0.57643 -0.10259 0.39992
 O149 O 0.63607 -0.05386 0.45959
 C150 C 0.62583 -0.08976 0.41886
 O151 O 0.42041 -0.10665 0.39557
 O152 O 0.35856 -0.04884 0.43818
 C153 C 0.37029 -0.08982 0.40483
 O154 O 0.58638 0.09309 0.39984
 O155 O 0.64137 0.04227 0.46137
 C156 C 0.63436 0.07854 0.41966
 Zr157 Zr 0.50521 0.06721 0.42522
 O158 O 0.50492 0.06509 0.33330
 O159 O 0.51560 0.15573 0.42136
 Zr160 Zr 0.49816 -0.07354 0.42541
 O161 O 0.49810 -0.06751 0.33350
 O162 O 0.50106 -0.16208 0.42138
 Zr163 Zr 0.57898 -0.00508 0.50558
 Zr164 Zr 0.41288 -0.00314 0.49149
 O165 O 0.45366 -0.00199 0.41059
 O166 O 0.55247 -0.00379 0.41823
 O167 O 0.45031 0.07794 0.49387
 O168 O 0.54046 -0.08567 0.50255
 O169 O 0.54762 0.07631 0.50239
 O170 O 0.44327 -0.08534 0.49481
 H171 H 0.41310 -0.00526 0.60984
 H172 H 0.56334 -0.11951 0.50462
 H173 H 0.43055 -0.00055 0.37508
 H174 H 0.57375 0.10914 0.50468
 H175 H 0.46362 -0.17916 0.54653
 H176 H 0.47355 -0.17790 0.44961
 H177 H 0.53436 -0.05070 0.32106
 H178 H 0.53919 0.04689 0.32089
 H179 H 0.49582 0.17022 0.45532
 H180 H 0.49608 0.16745 0.60520
 H181 H 0.49959 0.03629 0.67944
 H182 H 0.50953 -0.05922 0.68069
 O183 O 0.57265 0.60942 0.09674
 O184 O 0.63725 0.55679 0.05085
 C185 C 0.62331 0.59570 0.08662
 O186 O 0.41796 0.40529 0.10104
 O187 O 0.35904 0.45320 0.04092
 C188 C 0.36876 0.41643 0.08206
 O189 O 0.57331 0.41558 0.11269
 O190 O 0.63732 0.46414 0.05549
 C191 C 0.62408 0.43014 0.09802
 O192 O 0.41875 0.61133 0.08236
 O193 O 0.35944 0.55260 0.03283
 C194 C 0.36924 0.59401 0.06715
 Zr195 Zr 0.49759 0.57913 0.06164
 O196 O 0.48812 0.58387 0.15276
 O197 O 0.50504 0.66782 0.05372
 Zr198 Zr 0.49656 0.43748 0.07391
 O199 O 0.49430 0.43780 0.16589
 O200 O 0.49740 0.34875 0.07387
 O201 O 0.54591 0.51006 0.08140
 O202 O 0.44810 0.50796 0.07635
 O203 O 0.43124 0.59763 -0.12051
 O204 O 0.36515 0.54896 -0.06581
 C205 C 0.38025 0.58441 -0.10717
 O206 O 0.57909 0.40021 -0.09916
 O207 O 0.64008 0.45398 -0.04585
 C208 C 0.62893 0.41514 -0.08360
 O209 O 0.42427 0.39604 -0.10055
 O210 O 0.36243 0.45345 -0.05716
 C211 C 0.37434 0.41306 -0.09100
 O212 O 0.58580 0.59484 -0.11505
 O213 O 0.64362 0.54923 -0.05216
 C214 C 0.63480 0.58227 -0.09621
 Zr215 Zr 0.50578 0.57042 -0.08365
 O216 O 0.50488 0.56737 -0.17545
 O217 O 0.51342 0.65928 -0.08824
 Zr218 Zr 0.50199 0.42871 -0.07104
 O219 O 0.50025 0.42056 -0.16236
 O220 O 0.50459 0.34035 -0.05943
 Zr221 Zr 0.58372 0.50550 -0.00099
 Zr222 Zr 0.41735 0.50308 -0.00871
 O223 O 0.45648 0.49846 -0.09035
 O224 O 0.55387 0.49943 -0.08667
 O225 O 0.45213 0.58528 -0.01470
 O226 O 0.54794 0.42382 0.00452
 O227 O 0.55047 0.58593 -0.00934
 O228 O 0.44909 0.42177 0.00013
 H229 H 0.42091 0.50954 0.10849
 H230 H 0.57241 0.39130 0.00865
 H231 H 0.43405 0.49613 -0.12626
 H232 H 0.57628 0.61914 -0.01095
 H233 H 0.49798 0.33635 0.11521
 H234 H 0.47204 0.32813 -0.03555
 H235 H 0.52925 0.44655 -0.17884
 H236 H 0.53377 0.54127 -0.18718
 H237 H 0.47887 0.67439 -0.07244
 H238 H 0.47554 0.68042 0.02712
 H239 H 0.51263 0.55572 0.17056
 H240 H 0.46620 0.46461 0.17789
 C241 C 1.20489 0.21913 0.22288
 C242 C 1.21604 0.18105 0.18257
 C243 C 1.17024 0.15345 0.15029
 C244 C 1.17806 0.11198 0.11274
 H245 H 1.25845 0.16924 0.17497
 H246 H 1.12850 0.16692 0.15877
 H247 H 1.16191 0.22937 0.23008
 H248 H 1.21964 0.09827 0.10405
 C249 C 1.20010 0.71387 0.72907
 C250 C 1.21161 0.67357 0.69129
 C251 C 1.16610 0.64413 0.66013
 C252 C 1.17459 0.60247 0.62297
 H253 H 1.25422 0.66228 0.68394
 H254 H 1.12415 0.65725 0.66812
 H255 H 1.15699 0.72386 0.73583
 H256 H 1.21641 0.58920 0.61471
 C257 C 0.70665 0.19774 0.71144
 C258 C 0.72681 0.18061 0.66021
 C259 C 0.69510 0.14268 0.62094
 C260 C 0.65894 0.10274 0.64040
 H261 H 0.76656 0.19699 0.64455
 H262 H 0.70082 0.14908 0.57457
 H263 H 0.66620 0.18157 0.72541
 H264 H 0.65299 0.09611 0.68666
 C265 C 0.72183 0.69607 0.21706
 C266 C 0.69078 0.71561 0.17322
 C267 C 0.65626 0.68024 0.13490
 C268 C 0.66669 0.62776 0.11839
 H269 H 0.68355 0.76016 0.17009
 H270 H 0.61894 0.69982 0.11934
 H271 H 0.72719 0.65118 0.22152
 H272 H 0.70564 0.60855 0.12886
 C273 C 0.79217 -0.22796 0.23154
 C274 C 0.78326 -0.18133 0.19958
 C275 C 0.83008 -0.15289 0.16827
 C276 C 0.82292 -0.11189 0.12847
 H277 H 0.74204 -0.16486 0.19580
 H278 H 0.87158 -0.16705 0.17724
 H279 H 0.83390 -0.24391 0.23151
 H280 H 0.78143 -0.09839 0.11845
 C281 C 0.78215 0.27387 0.72452
 C282 C 0.77181 0.31124 0.68165
 C283 C 0.81862 0.34377 0.65455
 C284 C 0.81286 0.38095 0.61042
 H285 H 0.72988 0.31631 0.66598
 H286 H 0.85982 0.33588 0.67103
 H287 H 0.82470 0.27059 0.73922
 H288 H 0.77194 0.38970 0.59381
 C289 C 0.28533 -0.22124 0.72522
 C290 C 0.27336 -0.19381 0.67534
 C291 C 0.31849 -0.16188 0.64474
 C292 C 0.31105 -0.12531 0.60035
 H293 H 0.23174 -0.19474 0.65779
 H294 H 0.36016 -0.16808 0.66077
 H295 H 0.32725 -0.21570 0.74170
 H296 H 0.26970 -0.11742 0.58445
 C297 C 0.29247 0.28102 0.22669
 C298 C 0.28255 0.31286 0.17913
 C299 C 0.32848 0.34680 0.15207
 C300 C 0.32108 0.38452 0.10877
 H301 H 0.24135 0.31410 0.16062
 H302 H 0.36995 0.34060 0.16865
 H303 H 0.33402 0.28350 0.24476
 H304 H 0.27972 0.39154 0.09235
 C305 C 0.76664 0.19714 -0.20154
 C306 C 0.80482 0.16110 -0.21894
 C307 C 0.84297 0.13052 -0.18057
 C308 C 0.83189 0.10998 -0.12683
 H309 H 0.81421 0.15927 -0.26483
 H310 H 0.88288 0.12265 -0.20002
 H311 H 0.75950 0.20222 -0.15550
 H312 H 0.79088 0.11290 -0.10809
 C313 C 0.77598 0.70211 0.31004
 C314 C 0.75578 0.65421 0.33545
 C315 C 0.79038 0.61905 0.37445
 C316 C 0.84545 0.61785 0.36698
 H317 H 0.71394 0.63932 0.32612
 H318 H 0.77012 0.59184 0.40683
 H319 H 0.81525 0.71935 0.32554
 H320 H 0.86448 0.64270 0.33192
 C321 C 0.27892 0.19991 0.29414
 C322 C 0.25610 0.16615 0.33617
 C323 C 0.28884 0.12385 0.36891
 C324 C 0.34359 0.13157 0.37618
 H325 H 0.21260 0.16949 0.34688
 H326 H 0.26748 0.08748 0.38843
 H327 H 0.32055 0.19151 0.27961
 H328 H 0.36360 0.16984 0.35924
 C329 C 0.27689 0.70383 -0.19932
 C330 C 0.25411 0.66473 -0.16255
 C331 C 0.28865 0.62671 -0.12652
 C332 C 0.33892 0.61164 -0.14418
 H333 H 0.20957 0.66268 -0.15630
 H334 H 0.27306 0.61262 -0.08437
 H335 H 0.32168 0.70834 -0.20064
 H336 H 0.35345 0.62438 -0.18713
 C337 C 1.21695 -0.21347 -0.19511
 C338 C 1.18533 -0.17205 -0.21531
 C339 C 1.15026 -0.13787 -0.17840
 C340 C 1.16300 -0.12004 -0.12492
 H341 H 1.17844 -0.16793 -0.26156
 H342 H 1.11117 -0.12623 -0.19770
 H343 H 1.22063 -0.21990 -0.14853
 H344 H 1.20362 -0.12659 -0.10647
 C345 C 1.22205 0.28540 0.30478
 C346 C 1.19148 0.32855 0.28675
 C347 C 1.15573 0.36111 0.32466
 C348 C 1.16623 0.37540 0.37987
 H349 H 1.18560 0.33547 0.24064
 H350 H 1.11793 0.37506 0.30427
 H351 H 1.22532 0.27650 0.35098
 H352 H 1.20568 0.36666 0.39997
 C353 C 0.70233 -0.23000 0.28984
 C354 C 0.71247 -0.18893 0.32783
 C355 C 0.66589 -0.15871 0.35340
 C356 C 0.67330 -0.11868 0.39308
 H357 H 0.75478 -0.17798 0.33994
 H358 H 0.62420 -0.17012 0.33946
 H359 H 0.65942 -0.24081 0.27974
 H360 H 0.71486 -0.10747 0.40750
 C361 C 0.69635 0.27165 -0.21482
 C362 C 0.70983 0.31122 -0.17586
 C363 C 0.66561 0.34379 -0.14862
 C364 C 0.67536 0.38480 -0.11018
 H365 H 0.75286 0.31938 -0.16448
 H366 H 0.62317 0.33332 -0.16070
 H367 H 0.65273 0.26494 -0.22491
 H368 H 0.71758 0.39573 -0.09778
 C369 C 1.20830 0.20506 -0.23976
 C370 C 1.21826 0.16266 -0.20271
 C371 C 1.17136 0.12976 -0.17749
 C372 C 1.17796 0.09581 -0.13140
 H373 H 1.25998 0.15538 -0.18755
 H374 H 1.13004 0.13706 -0.19400
 H375 H 1.16595 0.20992 -0.25458
 H376 H 1.21922 0.08866 -0.11471
 C377 C 1.21899 0.68998 0.26253
 C378 C 1.22503 0.65944 0.31482
 C379 C 1.18142 0.62422 0.33465
 C380 C 1.18480 0.59163 0.38558
 H381 H 1.26154 0.66513 0.34162
 H382 H 1.14265 0.62404 0.31079
 H383 H 1.18386 0.67745 0.23559
 H384 H 1.22484 0.58608 0.40593
 C385 C 0.71515 0.19400 0.26626
 C386 C 0.72318 0.16981 0.31838
 C387 C 0.68102 0.12940 0.34077
 C388 C 0.68365 0.10684 0.39406
 H389 H 0.75698 0.18300 0.34631
 H390 H 0.64416 0.12172 0.31477
 H391 H 0.68085 0.17805 0.24017
 H392 H 0.72079 0.11204 0.42006
 C393 C 0.71405 0.71569 -0.23630
 C394 C 0.72509 0.67449 -0.19821
 C395 C 0.67808 0.64238 -0.17180
 C396 C 0.68374 0.60817 -0.12577
 H397 H 0.76734 0.66667 -0.18512
 H398 H 0.63692 0.64945 -0.18889
 H399 H 0.67076 0.72208 -0.24674
 H400 H 0.72461 0.60095 -0.10810
 C401 C 0.79513 -0.22031 -0.21833
 C402 C 0.78032 -0.18487 -0.17747
 C403 C 0.82390 -0.16374 -0.13847
 C404 C 0.81745 -0.11959 -0.10498
 H405 H 0.73848 -0.16967 -0.17533
 H406 H 0.86435 -0.18232 -0.14094
 H407 H 0.83753 -0.23467 -0.21731
 H408 H 0.77731 -0.10061 -0.10163
 C409 C 0.78635 0.27010 0.28567
 C410 C 0.77886 0.31638 0.31591
 C411 C 0.82475 0.33852 0.35106
 C412 C 0.82004 0.38508 0.38126
 H413 H 0.74065 0.33900 0.31292
 H414 H 0.86400 0.31744 0.35031
 H415 H 0.82479 0.24806 0.29178
 H416 H 0.78059 0.40564 0.38319
 C417 C 0.28721 -0.23956 0.28899
 C418 C 0.28415 -0.18803 0.31685
 C419 C 0.32949 -0.16625 0.34748
 C420 C 0.32545 -0.11642 0.37754
 H421 H 0.24719 -0.16346 0.31318
 H422 H 0.36833 -0.18806 0.34743
 H423 H 0.32342 -0.26431 0.29849
 H424 H 0.28508 -0.09788 0.38137
 C425 C 0.28535 0.26962 -0.20919
 C426 C 0.28898 0.32281 -0.19236
 C427 C 0.33164 0.34002 -0.15062
 C428 C 0.32805 0.38852 -0.12371
 H429 H 0.26358 0.35489 -0.21141
 H430 H 0.36756 0.31428 -0.14421
 H431 H 0.31182 0.23975 -0.18737
 H432 H 0.29081 0.41265 -0.12823
 C433 C 1.20914 -0.21885 0.22787
 C434 C 1.21357 -0.17884 0.18255
 C435 C 1.16765 -0.14801 0.16571
 C436 C 1.17188 -0.10871 0.12010
 H437 H 1.25222 -0.17299 0.15878
 H438 H 1.12784 -0.15647 0.18666
 H439 H 1.17132 -0.21866 0.25377
 H440 H 1.21259 -0.09907 0.10157
 C441 C 1.22428 0.29386 0.70388
 C442 C 1.18109 0.32117 0.72515
 C443 C 1.14447 0.35630 0.68981
 C444 C 1.15783 0.37956 0.63794
 H445 H 1.16800 0.31239 0.76956
 H446 H 1.10344 0.36187 0.70767
 H447 H 1.23622 0.30041 0.65882
 H448 H 1.19962 0.37818 0.62095
 C449 C 0.72659 -0.19910 0.70247
 C450 C 0.69162 -0.21408 0.65979
 C451 C 0.64984 -0.17764 0.63465
 C452 C 0.65664 -0.12220 0.62746
 H453 H 0.68823 -0.25781 0.64779
 H454 H 0.61269 -0.19855 0.61820
 H455 H 0.72803 -0.15626 0.71742
 H456 H 0.69570 -0.10110 0.63780
 C457 C 0.70167 0.28625 0.22307
 C458 C 0.71100 0.33254 0.19046
 C459 C 0.66355 0.36420 0.16885
 C460 C 0.67073 0.40521 0.12918
 H461 H 0.75278 0.34458 0.17671
 H462 H 0.62191 0.35073 0.18198
 H463 H 0.65918 0.27662 0.23670
 H464 H 0.71244 0.41780 0.11549
 C465 C 0.78220 0.23176 0.18971
 C466 C 0.78296 0.18122 0.16590
 C467 C 0.83027 0.16442 0.13085
 C468 C 0.82817 0.11415 0.10699
 H469 H 0.75124 0.14949 0.17652
 H470 H 0.86768 0.19081 0.12808
 H471 H 0.81379 0.26284 0.17613
 H472 H 0.78962 0.08937 0.10857
 C473 C 0.79535 0.72882 0.69263
 C474 C 0.78866 0.67769 0.67111
 C475 C 0.83393 0.65550 0.63683
 C476 C 0.82651 0.61019 0.60491
 H477 H 0.75167 0.65198 0.68010
 H478 H 0.87467 0.67603 0.63901
 H479 H 0.83182 0.75387 0.67921
 H480 H 0.78544 0.59081 0.60089
 C481 C 0.29414 0.22105 0.70049
 C482 C 0.28117 0.18298 0.66067
 C483 C 0.32632 0.15731 0.62923
 C484 C 0.31785 0.11320 0.59546
 H485 H 0.23852 0.16899 0.65395
 H486 H 0.36831 0.17317 0.63672
 H487 H 0.33735 0.23489 0.70443
 H488 H 0.27607 0.09729 0.58713
 C489 C 0.28613 0.72857 0.19467
 C490 C 0.28154 0.68187 0.15884
 C491 C 0.32689 0.66590 0.12601
 C492 C 0.32303 0.61931 0.09050
 H493 H 0.24399 0.65571 0.15899
 H494 H 0.36644 0.68832 0.13058
 H495 H 0.32196 0.75674 0.18700
 H496 H 0.28239 0.60036 0.08219
   
