data_POSCAR
  _audit_creation_date              2014-09-24
  _audit_creation_method            'ToBaCCo'
  _symmetry_space_group_name_H-M    'P1'
  _symmetry_Int_Tables_number       1
  _symmetry_cell_setting            triclinic
  loop_
  _symmetry_equiv_pos_as_xyz
 x,y,z
_cell_length_a 62.2201
_cell_length_b 47.6224
_cell_length_c 43.1219
_cell_angle_alpha 90.125600
_cell_angle_beta 90.025500
_cell_angle_gamma 90.087300
loop_
  _atom_site_label
  _atom_site_type_symbol
  _atom_site_fract_x
  _atom_site_fract_y
  _atom_site_fract_z
C1 C 0.24989 0.26603 0.24879
 C2 C 0.24981 0.23740 0.24891
 C3 C 0.23238 0.22096 0.23380
 C4 C 0.26717 0.22103 0.26414
 C5 C 0.26575 0.28243 0.26721
 C6 C 0.23414 0.28232 0.23022
 C7 C 0.21071 0.22560 0.24147
 C8 C 0.19445 0.21010 0.22696
 C9 C 0.19970 0.18959 0.20485
 C10 C 0.22131 0.18459 0.19751
 C11 C 0.23754 0.20011 0.21199
 C12 C 0.26190 0.20044 0.28614
 C13 C 0.27807 0.18499 0.30071
 C14 C 0.29966 0.18980 0.29327
 C15 C 0.30502 0.21001 0.27103
 C16 C 0.28885 0.22546 0.25640
 C17 C 0.27849 0.30286 0.25261
 C18 C 0.29382 0.31793 0.26956
 C19 C 0.29643 0.31291 0.30132
 C20 C 0.28348 0.29298 0.31616
 C21 C 0.26813 0.27791 0.29924
 C22 C 0.23173 0.27745 0.19824
 C23 C 0.21648 0.29243 0.18117
 C24 C 0.20366 0.31263 0.19582
 C25 C 0.20631 0.31801 0.22753
 C26 C 0.22153 0.30302 0.24462
 H27 H 0.20642 0.24121 0.25869
 H28 H 0.17784 0.21415 0.23305
 H29 H 0.22567 0.16875 0.18053
 H30 H 0.25415 0.19611 0.20592
 H31 H 0.24527 0.19659 0.29227
 H32 H 0.27374 0.16935 0.31782
 H33 H 0.29323 0.24085 0.23906
 H34 H 0.27681 0.30677 0.22800
 H35 H 0.30373 0.33335 0.25787
 H36 H 0.28530 0.28902 0.34075
 H37 H 0.25818 0.26263 0.31105
 H38 H 0.24158 0.26196 0.18657
 H39 H 0.21463 0.28820 0.15662
 H40 H 0.19651 0.33364 0.23907
 H41 H 0.22324 0.30720 0.26920
 H42 H 0.32167 0.21379 0.26499
 C43 C 0.75012 0.23851 0.25015
 C44 C 0.75012 0.26715 0.25009
 C45 C 0.76589 0.28345 0.23149
 C46 C 0.73436 0.28354 0.26861
 C47 C 0.73272 0.22214 0.26534
 C48 C 0.76750 0.22209 0.23502
 C49 C 0.77860 0.30410 0.24587
 C50 C 0.79385 0.31905 0.22874
 C51 C 0.79642 0.31369 0.19703
 C52 C 0.78348 0.29354 0.18240
 C53 C 0.76821 0.27859 0.19949
 C54 C 0.73202 0.27891 0.30062
 C55 C 0.71674 0.29394 0.31764
 C56 C 0.70383 0.31394 0.30291
 C57 C 0.70643 0.31909 0.27118
 C58 C 0.72167 0.30405 0.25413
 C59 C 0.71104 0.22665 0.25763
 C60 C 0.69483 0.21118 0.27219
 C61 C 0.70014 0.19089 0.29435
 C62 C 0.72171 0.18600 0.30176
 C63 C 0.73793 0.20146 0.28725
 C64 C 0.76228 0.20126 0.21317
 C65 C 0.77848 0.18577 0.19868
 C66 C 0.80006 0.19078 0.20605
 C67 C 0.80539 0.21122 0.22815
 C68 C 0.78919 0.22672 0.24270
 H69 H 0.77696 0.30826 0.27046
 H70 H 0.80374 0.33464 0.24028
 H71 H 0.78526 0.28932 0.15784
 H72 H 0.75827 0.26314 0.18784
 H73 H 0.74193 0.26357 0.31235
 H74 H 0.71494 0.28989 0.34221
 H75 H 0.72333 0.30805 0.22953
 H76 H 0.70671 0.24210 0.24034
 H77 H 0.67819 0.21502 0.26617
 H78 H 0.72600 0.17029 0.31881
 H79 H 0.75454 0.19756 0.29336
 H80 H 0.74566 0.19726 0.20709
 H81 H 0.77418 0.16994 0.18168
 H82 H 0.82203 0.21516 0.23414
 H83 H 0.79353 0.24230 0.25993
 H84 H 0.69655 0.33457 0.25957
 C85 C 0.75018 0.76815 0.75076
 C86 C 0.75012 0.73951 0.75065
 C87 C 0.73268 0.72315 0.73546
 C88 C 0.76748 0.72307 0.76576
 C89 C 0.76602 0.78444 0.76932
 C90 C 0.73440 0.78454 0.73233
 C91 C 0.71101 0.72772 0.74321
 C92 C 0.69477 0.71224 0.72864
 C93 C 0.70002 0.69188 0.70644
 C94 C 0.72158 0.68694 0.69898
 C95 C 0.73783 0.70242 0.71349
 C96 C 0.76222 0.70234 0.78760
 C97 C 0.77839 0.68681 0.80206
 C98 C 0.79998 0.69169 0.79468
 C99 C 0.80534 0.71205 0.77259
 C100 C 0.78917 0.72758 0.75808
 C101 C 0.77876 0.80498 0.75490
 C102 C 0.79410 0.81992 0.77197
 C103 C 0.79673 0.81466 0.80370
 C104 C 0.78375 0.79463 0.81836
 C105 C 0.76839 0.77970 0.80130
 C106 C 0.73198 0.77985 0.70031
 C107 C 0.71668 0.79488 0.68339
 C108 C 0.70384 0.81495 0.69821
 C109 C 0.70651 0.82015 0.72995
 C110 C 0.72178 0.80511 0.74690
 H111 H 0.70672 0.74322 0.76053
 H112 H 0.67814 0.71612 0.73470
 H113 H 0.72583 0.67119 0.68190
 H114 H 0.75444 0.69847 0.70735
 H115 H 0.74560 0.69843 0.79369
 H116 H 0.77407 0.67105 0.81905
 H117 H 0.79354 0.74308 0.74085
 H118 H 0.77708 0.80905 0.73032
 H119 H 0.80399 0.83541 0.76033
 H120 H 0.78552 0.79043 0.84292
 H121 H 0.75843 0.76434 0.81297
 H122 H 0.74184 0.76446 0.68852
 H123 H 0.71481 0.79078 0.65881
 H124 H 0.69669 0.83568 0.74163
 H125 H 0.72350 0.80915 0.77151
 H126 H 0.82199 0.71589 0.76659
 C127 C 0.24940 0.73851 0.75043
 C128 C 0.24942 0.76715 0.75050
 C129 C 0.26518 0.78351 0.73197
 C130 C 0.23366 0.78347 0.76910
 C131 C 0.23203 0.72209 0.76560
 C132 C 0.26677 0.72213 0.73519
 C133 C 0.27791 0.80409 0.74645
 C134 C 0.29317 0.81910 0.72941
 C135 C 0.29574 0.81384 0.69767
 C136 C 0.28279 0.79378 0.68294
 C137 C 0.26750 0.77878 0.69995
 C138 C 0.23135 0.77874 0.80110
 C139 C 0.21608 0.79370 0.81820
 C140 C 0.20313 0.81375 0.80358
 C141 C 0.20571 0.81899 0.77183
 C142 C 0.22096 0.80401 0.75472
 C143 C 0.21034 0.72661 0.75796
 C144 C 0.19415 0.71109 0.77250
 C145 C 0.19948 0.69072 0.79460
 C146 C 0.22109 0.68584 0.80194
 C147 C 0.23727 0.70137 0.78743
 C148 C 0.26151 0.70137 0.71327
 C149 C 0.27769 0.68590 0.69870
 C150 C 0.29928 0.69086 0.70605
 C151 C 0.30464 0.71123 0.72821
 C152 C 0.28846 0.72671 0.74284
 H153 H 0.27627 0.80817 0.77106
 H154 H 0.30308 0.83462 0.74101
 H155 H 0.28458 0.78964 0.65836
 H156 H 0.25756 0.76338 0.68823
 H157 H 0.24129 0.76338 0.81274
 H158 H 0.21434 0.78951 0.84277
 H159 H 0.22259 0.80808 0.73013
 H160 H 0.20599 0.74211 0.74073
 H161 H 0.17750 0.71499 0.76647
 H162 H 0.22546 0.67010 0.81892
 H163 H 0.25390 0.69746 0.79348
 H164 H 0.24488 0.69740 0.70721
 H165 H 0.27337 0.67012 0.68165
 H166 H 0.32129 0.71513 0.73419
 H167 H 0.29283 0.74223 0.76013
 H168 H 0.19584 0.83449 0.76022
 O169 O 1.02138 -0.03898 0.00437
 O170 O 0.97957 0.00036 0.04644
 O171 O 0.97943 -0.03892 0.00432
 O172 O 1.02137 0.00032 0.04648
 O173 O 1.02143 0.03262 0.00971
 O174 O 0.97951 -0.00660 -0.03243
 O175 O 0.97964 0.03266 0.00967
 O176 O 1.02144 -0.00667 -0.03239
 Cu177 Cu 1.00043 -0.02260 0.02908
 Cu178 Cu 1.00051 0.01623 -0.01510
 C179 C 1.02851 -0.02942 -0.02107
 C180 C 0.97259 0.02318 0.03518
 C181 C 0.97234 -0.02933 -0.02112
 C182 C 1.02844 0.02313 0.03524
 O183 O 0.52077 0.46165 0.50398
 O184 O 0.47878 0.50073 0.54596
 O185 O 0.47884 0.46148 0.50379
 O186 O 0.52058 0.50088 0.54616
 O187 O 0.52061 0.53323 0.50943
 O188 O 0.47888 0.49383 0.46708
 O189 O 0.47882 0.53307 0.50924
 O190 O 0.52080 0.49401 0.46727
 Cu191 Cu 0.49974 0.47789 0.52865
 Cu192 Cu 0.49978 0.51677 0.48452
 C193 C 0.52792 0.47128 0.47859
 C194 C 0.47175 0.52353 0.53472
 C195 C 0.47177 0.47105 0.47832
 C196 C 0.52760 0.52374 0.53498
 O197 O -0.02064 0.53290 -0.00973
 O198 O 0.02123 0.49350 0.03195
 O199 O 0.02115 0.53283 -0.00990
 O200 O -0.02070 0.49357 0.03211
 O201 O -0.02086 0.46130 -0.00484
 O202 O 0.02100 0.50057 -0.04688
 O203 O 0.02109 0.46123 -0.00501
 O204 O -0.02079 0.50063 -0.04671
 Cu205 Cu 0.00028 0.51642 0.01487
 Cu206 Cu 0.00010 0.47765 -0.02956
 C207 C -0.02775 0.52345 -0.03529
 C208 C 0.02827 0.47076 0.02046
 C209 C 0.02810 0.52337 -0.03552
 C210 C -0.02789 0.47086 0.02069
 O211 O 0.47886 1.03292 0.49094
 O212 O 0.52068 0.99408 0.53335
 O213 O 0.52064 1.03307 0.49111
 O214 O 0.47875 0.99394 0.53318
 O215 O 0.47884 0.96138 0.49654
 O216 O 0.52074 1.00052 0.45445
 O217 O 0.52078 0.96152 0.49670
 O218 O 0.47894 1.00037 0.45428
 Cu219 Cu 0.49973 1.01675 0.51588
 Cu220 Cu 0.49983 0.97763 0.47183
 C221 C 0.47188 1.02324 0.46542
 C222 C 0.52784 0.97129 0.52214
 C223 C 0.52772 1.02344 0.46564
 C224 C 0.47167 0.97110 0.52191
 C225 C 1.18455 0.17519 0.19107
 C226 C 1.17069 0.16182 0.17817
 C227 C 1.15431 0.14579 0.16255
 C228 C 1.15792 0.11755 0.15522
 C229 C 1.14217 0.10203 0.13964
 C230 C 1.12257 0.11458 0.13116
 C231 C 1.11907 0.14297 0.13875
 C232 C 1.13486 0.15846 0.15432
 C233 C 1.10591 0.09818 0.11433
 C234 C 1.08401 0.10128 0.12176
 C235 C 1.06835 0.08591 0.10579
 C236 C 1.07434 0.06728 0.08219
 C237 C 1.09606 0.06403 0.07464
 C238 C 1.11175 0.07936 0.09059
 C239 C 1.05819 0.05161 0.06565
 C240 C 1.04463 0.03855 0.05177
 H241 H 1.17292 0.10754 0.16154
 H242 H 1.14523 0.08013 0.13449
 H243 H 1.10427 0.15332 0.13219
 H244 H 1.13194 0.18034 0.15978
 H245 H 1.07903 0.11532 0.14016
 H246 H 1.05158 0.08854 0.11186
 H247 H 1.10086 0.04974 0.05634
 H248 H 1.12844 0.07679 0.08404
 C249 C 0.68335 0.67604 0.69124
 C250 C 0.66952 0.66268 0.67830
 C251 C 0.65317 0.64663 0.66263
 C252 C 0.65669 0.61830 0.65566
 C253 C 0.64097 0.60276 0.64004
 C254 C 0.62148 0.61538 0.63117
 C255 C 0.61806 0.64386 0.63840
 C256 C 0.63383 0.65937 0.65401
 C257 C 0.60485 0.59896 0.61429
 C258 C 0.58293 0.60228 0.62140
 C259 C 0.56730 0.58689 0.60539
 C260 C 0.57335 0.56801 0.58208
 C261 C 0.59511 0.56453 0.57485
 C262 C 0.61077 0.57989 0.59084
 C263 C 0.55724 0.55230 0.56549
 C264 C 0.54373 0.53921 0.55157
 H265 H 0.67160 0.60822 0.66228
 H266 H 0.64396 0.58080 0.63518
 H267 H 0.60336 0.65427 0.63154
 H268 H 0.63097 0.68132 0.65919
 H269 H 0.57789 0.61653 0.63959
 H270 H 0.55050 0.58969 0.61122
 H271 H 0.59997 0.55004 0.55676
 H272 H 0.62748 0.57714 0.58454
 C273 C -0.18748 0.32859 0.17963
 C274 C -0.17385 0.34097 0.16523
 C275 C -0.15743 0.35565 0.14822
 C276 C -0.15737 0.38502 0.14729
 C277 C -0.14127 0.39930 0.13110
 C278 C -0.12496 0.38435 0.11563
 C279 C -0.12520 0.35482 0.11664
 C280 C -0.14134 0.34059 0.13283
 C281 C -0.10774 0.39950 0.09864
 C282 C -0.08629 0.39026 0.10018
 C283 C -0.07006 0.40462 0.08431
 C284 C -0.07505 0.42837 0.06669
 C285 C -0.09633 0.43771 0.06496
 C286 C -0.11257 0.42340 0.08082
 C287 C -0.05833 0.44323 0.05047
 C288 C -0.04439 0.45578 0.03688
 H289 H -0.16971 0.39689 0.15923
 H290 H -0.14137 0.42203 0.13109
 H291 H -0.11305 0.34271 0.10465
 H292 H -0.14125 0.31784 0.13335
 H293 H -0.08200 0.37216 0.11402
 H294 H -0.05363 0.39726 0.08589
 H295 H -0.10037 0.45604 0.05131
 H296 H -0.12895 0.43083 0.07885
 C297 C 0.31186 0.82878 0.68035
 C298 C 0.32552 0.84118 0.66600
 C299 C 0.34195 0.85589 0.64905
 C300 C 0.34220 0.88526 0.64856
 C301 C 0.35832 0.89956 0.63242
 C302 C 0.37446 0.88462 0.61658
 C303 C 0.37403 0.85508 0.61715
 C304 C 0.35787 0.84083 0.63328
 C305 C 0.39171 0.89978 0.59966
 C306 C 0.41311 0.89027 0.60087
 C307 C 0.42936 0.90465 0.58508
 C308 C 0.42446 0.92868 0.56786
 C309 C 0.40324 0.93828 0.56646
 C310 C 0.38696 0.92396 0.58226
 C311 C 0.44120 0.94352 0.55168
 C312 C 0.45516 0.95605 0.53811
 H313 H 0.33000 0.89713 0.66079
 H314 H 0.35837 0.92229 0.63275
 H315 H 0.38604 0.84298 0.60485
 H316 H 0.35781 0.81808 0.63347
 H317 H 0.41732 0.87196 0.61439
 H318 H 0.44574 0.89707 0.58638
 H319 H 0.39926 0.95682 0.55313
 H320 H 0.37062 0.93159 0.58054
 C321 C -0.18342 0.67581 -0.19017
 C322 C -0.16966 0.66242 -0.17726
 C323 C -0.15338 0.64635 -0.16162
 C324 C -0.13295 0.65784 -0.15669
 C325 C -0.11721 0.64233 -0.14119
 C326 C -0.12174 0.61509 -0.13037
 C327 C -0.14232 0.60371 -0.13553
 C328 C -0.15802 0.61925 -0.15105
 C329 C -0.10511 0.59868 -0.11364
 C330 C -0.11064 0.58250 -0.08755
 C331 C -0.09497 0.56715 -0.07173
 C332 C -0.07359 0.56773 -0.08177
 C333 C -0.06793 0.58372 -0.10770
 C334 C -0.08357 0.59911 -0.12355
 C335 C -0.05746 0.55202 -0.06538
 C336 C -0.04391 0.53893 -0.05164
 H337 H -0.12921 0.67884 -0.16468
 H338 H -0.10162 0.65181 -0.13722
 H339 H -0.14621 0.58267 -0.12785
 H340 H -0.17378 0.61014 -0.15480
 H341 H -0.12702 0.58204 -0.07910
 H342 H -0.09952 0.55491 -0.05161
 H343 H -0.05143 0.58426 -0.11571
 H344 H -0.07886 0.61106 -0.14377
 C345 C 0.31625 1.17402 0.30856
 C346 C 0.33002 1.16073 0.32159
 C347 C 0.34631 1.14480 0.33737
 C348 C 0.36654 1.15664 0.34296
 C349 C 0.38228 1.14127 0.35865
 C350 C 0.37795 1.11383 0.36899
 C351 C 0.35757 1.10210 0.36317
 C352 C 0.34187 1.11749 0.34746
 C353 C 0.39457 1.09758 0.38593
 C354 C 0.38892 1.08102 0.41167
 C355 C 0.40458 1.06583 0.42769
 C356 C 0.42607 1.06696 0.41822
 C357 C 0.43185 1.08333 0.39263
 C358 C 0.41622 1.09856 0.37658
 C359 C 0.44220 1.05144 0.43484
 C360 C 0.45573 1.03851 0.44880
 H361 H 0.37012 1.17781 0.33535
 H362 H 0.39770 1.15102 0.36312
 H363 H 0.35384 1.08090 0.37047
 H364 H 0.32627 1.10811 0.34320
 H365 H 0.37245 1.08013 0.41969
 H366 H 0.39994 1.05329 0.44754
 H367 H 0.44844 1.08430 0.38506
 H368 H 0.42103 1.11082 0.35663
 C369 C 1.18788 -0.17215 -0.17996
 C370 C 1.17425 -0.15975 -0.16555
 C371 C 1.15784 -0.14505 -0.14855
 C372 C 1.14072 -0.15993 -0.13541
 C373 C 1.12460 -0.14566 -0.11924
 C374 C 1.12540 -0.11626 -0.11600
 C375 C 1.14273 -0.10151 -0.12921
 C376 C 1.15883 -0.11583 -0.14539
 C377 C 1.10820 -0.10105 -0.09903
 C378 C 1.11330 -0.07853 -0.07914
 C379 C 1.09708 -0.06416 -0.06329
 C380 C 1.07556 -0.07206 -0.06710
 C381 C 1.07032 -0.09442 -0.08680
 C382 C 1.08651 -0.10885 -0.10266
 C383 C 1.05889 -0.05714 -0.05087
 C384 C 1.04497 -0.04454 -0.03728
 H385 H 1.13982 -0.18257 -0.13767
 H386 H 1.11162 -0.15764 -0.10900
 H387 H 1.14367 -0.07885 -0.12746
 H388 H 1.17197 -0.10409 -0.15558
 H389 H 1.12985 -0.07226 -0.07554
 H390 H 1.10132 -0.04692 -0.04802
 H391 H 1.05371 -0.10066 -0.09000
 H392 H 1.08204 -0.12583 -0.11812
 C393 C 0.68773 0.32892 0.32022
 C394 C 0.67409 0.34136 0.33456
 C395 C 0.65767 0.35610 0.35150
 C396 C 0.64267 0.34113 0.36913
 C397 C 0.62652 0.35539 0.38526
 C398 C 0.62518 0.38487 0.38397
 C399 C 0.64039 0.39973 0.36626
 C400 C 0.65651 0.38542 0.35013
 C401 C 0.60793 0.40003 0.40089
 C402 C 0.61238 0.42541 0.41642
 C403 C 0.59610 0.43973 0.43221
 C404 C 0.57518 0.42892 0.43268
 C405 C 0.57058 0.40369 0.41734
 C406 C 0.58684 0.38932 0.40155
 C407 C 0.55843 0.44375 0.44886
 C408 C 0.54446 0.45626 0.46242
 H409 H 0.64344 0.31844 0.37040
 H410 H 0.61523 0.34339 0.39901
 H411 H 0.63962 0.42238 0.36448
 H412 H 0.66800 0.39720 0.33645
 H413 H 0.62849 0.43401 0.41667
 H414 H 0.59984 0.45920 0.44408
 H415 H 0.55443 0.39517 0.41749
 H416 H 0.58284 0.37004 0.38949
 C417 C 0.81206 -0.17126 -0.17988
 C418 C 0.82576 -0.15891 -0.16550
 C419 C 0.84225 -0.14426 -0.14852
 C420 C 0.85836 -0.15936 -0.13325
 C421 C 0.87457 -0.14517 -0.11709
 C422 C 0.87488 -0.11563 -0.11599
 C423 C 0.85856 -0.10065 -0.13133
 C424 C 0.84238 -0.11489 -0.14750
 C425 C 0.89218 -0.10052 -0.09904
 C426 C 0.88745 -0.07658 -0.08112
 C427 C 0.90377 -0.06230 -0.06529
 C428 C 0.92502 -0.07172 -0.06715
 C429 C 0.92991 -0.09552 -0.08487
 C430 C 0.91361 -0.10985 -0.10070
 C431 C 0.94181 -0.05691 -0.05094
 C432 C 0.95580 -0.04439 -0.03735
 H433 H 0.85839 -0.18211 -0.13384
 H434 H 0.88673 -0.15730 -0.10519
 H435 H 0.85851 -0.07791 -0.13126
 H436 H 0.83003 -0.10299 -0.15934
 H437 H 0.87109 -0.06909 -0.07905
 H438 H 0.89980 -0.04394 -0.05157
 H439 H 0.94632 -0.10295 -0.08654
 H440 H 0.91781 -0.12798 -0.11462
 C441 C 0.31261 0.32794 0.31852
 C442 C 0.32631 0.34045 0.33274
 C443 C 0.34281 0.35530 0.34948
 C444 C 0.34102 0.35925 0.38154
 C445 C 0.35712 0.37356 0.39780
 C446 C 0.37527 0.38410 0.38217
 C447 C 0.37690 0.38003 0.34992
 C448 C 0.36077 0.36573 0.33372
 C449 C 0.39241 0.39928 0.39939
 C450 C 0.41421 0.39477 0.39226
 C451 C 0.43033 0.40918 0.40838
 C452 C 0.42490 0.42826 0.43180
 C453 C 0.40328 0.43286 0.43911
 C454 C 0.38713 0.41847 0.42304
 C455 C 0.44150 0.44324 0.44823
 C456 C 0.45536 0.45588 0.46197
 H457 H 0.32721 0.35118 0.39399
 H458 H 0.35553 0.37605 0.42266
 H459 H 0.39051 0.38821 0.33716
 H460 H 0.36230 0.36285 0.30888
 H461 H 0.41880 0.37987 0.37447
 H462 H 0.44702 0.40540 0.40258
 H463 H 0.39889 0.44766 0.45714
 H464 H 0.37050 0.42266 0.42880
 C465 C 0.18375 0.67569 -0.19103
 C466 C 0.16995 0.66231 -0.17813
 C467 C 0.15363 0.64625 -0.16251
 C468 C 0.15732 0.61806 -0.15520
 C469 C 0.14161 0.60250 -0.13965
 C470 C 0.12197 0.61498 -0.13120
 C471 C 0.11839 0.64332 -0.13877
 C472 C 0.13413 0.65884 -0.15430
 C473 C 0.10536 0.59854 -0.11441
 C474 C 0.08346 0.60150 -0.12189
 C475 C 0.06784 0.58610 -0.10596
 C476 C 0.07387 0.56759 -0.08237
 C477 C 0.09560 0.56447 -0.07478
 C478 C 0.11126 0.57982 -0.09068
 C479 C 0.05776 0.55189 -0.06586
 C480 C 0.04424 0.53882 -0.05201
 H481 H 0.17235 0.60809 -0.16150
 H482 H 0.14474 0.58064 -0.13452
 H483 H 0.10356 0.65362 -0.13223
 H484 H 0.13115 0.68069 -0.15975
 H485 H 0.07844 0.61546 -0.14029
 H486 H 0.05106 0.58862 -0.11207
 H487 H 0.10044 0.55026 -0.05648
 H488 H 0.12794 0.57737 -0.08411
 C489 C 0.68349 1.17508 0.30957
 C490 C 0.66968 1.16177 0.32253
 C491 C 0.65333 1.14582 0.33822
 C492 C 0.65630 1.11712 0.34357
 C493 C 0.64058 1.10165 0.35920
 C494 C 0.62165 1.11472 0.36968
 C495 C 0.61879 1.14358 0.36408
 C496 C 0.63454 1.15901 0.34846
 C497 C 0.60502 1.09836 0.38653
 C498 C 0.58304 1.10287 0.38070
 C499 C 0.56741 1.08754 0.39668
 C500 C 0.57352 1.06752 0.41869
 C501 C 0.59533 1.06286 0.42464
 C502 C 0.61099 1.07815 0.40868
 C503 C 0.55741 1.05187 0.43524
 C504 C 0.54388 1.03884 0.44913
 H505 H 0.67077 1.10669 0.33568
 H506 H 0.64312 1.07941 0.36279
 H507 H 0.60453 1.15432 0.37221
 H508 H 0.63212 1.18125 0.34454
 H509 H 0.57794 1.11801 0.36352
 H510 H 0.55057 1.09126 0.39184
 H511 H 0.60023 1.04748 0.44171
 H512 H 0.62776 1.07447 0.41399
 C513 C 0.18761 0.32760 0.17846
 C514 C 0.17402 0.34007 0.16410
 C515 C 0.15766 0.35488 0.14715
 C516 C 0.15651 0.38419 0.14879
 C517 C 0.14043 0.39857 0.13268
 C518 C 0.12527 0.38378 0.11473
 C519 C 0.12661 0.35431 0.11317
 C520 C 0.14270 0.33998 0.12928
 C521 C 0.10806 0.39902 0.09783
 C522 C 0.08697 0.38833 0.09692
 C523 C 0.07076 0.40278 0.08118
 C524 C 0.07541 0.42807 0.06612
 C525 C 0.09633 0.43886 0.06683
 C526 C 0.11256 0.42446 0.08258
 C527 C 0.05870 0.44300 0.05002
 C528 C 0.04477 0.45561 0.03654
 H529 H 0.16795 0.39591 0.16267
 H530 H 0.13966 0.42121 0.13468
 H531 H 0.11535 0.34237 0.09923
 H532 H 0.14347 0.31729 0.12780
 H533 H 0.08293 0.36900 0.10877
 H534 H 0.05460 0.39428 0.08085
 H535 H 0.10012 0.45838 0.05518
 H536 H 0.12869 0.43304 0.08252
 C537 C 0.68771 0.82993 0.68100
 C538 C 0.67406 0.84239 0.66676
 C539 C 0.65762 0.85717 0.64995
 C540 C 0.64884 0.84549 0.62296
 C541 C 0.63265 0.85967 0.60686
 C542 C 0.62501 0.88574 0.61760
 C543 C 0.63400 0.89733 0.64473
 C544 C 0.65019 0.88312 0.66077
 C545 C 0.60770 0.90072 0.60067
 C546 C 0.59119 0.91448 0.61699
 C547 C 0.57491 0.92861 0.60104
 C548 C 0.57491 0.92919 0.56860
 C549 C 0.59124 0.91556 0.55214
 C550 C 0.60753 0.90140 0.56804
 C551 C 0.55823 0.94392 0.55222
 C552 C 0.54431 0.95635 0.53849
 H553 H 0.65441 0.82536 0.61445
 H554 H 0.62588 0.85003 0.58630
 H555 H 0.62867 0.91752 0.65335
 H556 H 0.65690 0.89237 0.68162
 H557 H 0.59071 0.91402 0.64208
 H558 H 0.56232 0.93904 0.61401
 H559 H 0.59143 0.91596 0.52702
 H560 H 0.62015 0.89132 0.55482
 C561 C 0.81669 0.17494 0.19085
 C562 C 0.83049 0.16160 0.17791
 C563 C 0.84681 0.14559 0.16224
 C564 C 0.86693 0.15759 0.15626
 C565 C 0.88269 0.14213 0.14069
 C566 C 0.87852 0.11446 0.13086
 C567 C 0.85825 0.10257 0.13708
 C568 C 0.84252 0.11805 0.15267
 C569 C 0.89517 0.09811 0.11405
 C570 C 0.88951 0.08102 0.08865
 C571 C 0.90521 0.06574 0.07274
 C572 C 0.92673 0.06730 0.08198
 C573 C 0.93252 0.08421 0.10724
 C574 C 0.91686 0.09952 0.12317
 C575 C 0.94288 0.05166 0.06550
 C576 C 0.95643 0.03862 0.05166
 H577 H 0.87039 0.17893 0.16348
 H578 H 0.89803 0.15199 0.13590
 H579 H 0.85464 0.08120 0.13018
 H580 H 0.82701 0.10855 0.15723
 H581 H 0.87301 0.07978 0.08080
 H582 H 0.90056 0.05279 0.05315
 H583 H 0.94914 0.08552 0.11463
 H584 H 0.92168 0.11221 0.14286
 C585 C 0.31588 0.67504 0.69077
 C586 C 0.32966 0.66172 0.67775
 C587 C 0.34596 0.64574 0.66199
 C588 C 0.36611 0.65770 0.65612
 C589 C 0.38186 0.64227 0.64049
 C590 C 0.37763 0.61465 0.63048
 C591 C 0.35734 0.60282 0.63657
 C592 C 0.34162 0.61827 0.65222
 C593 C 0.39428 0.59832 0.61363
 C594 C 0.38863 0.58136 0.58813
 C595 C 0.40432 0.56608 0.57220
 C596 C 0.42583 0.56752 0.58154
 C597 C 0.43161 0.58430 0.60690
 C598 C 0.41596 0.59961 0.62285
 C599 C 0.44199 0.55190 0.56503
 C600 C 0.45555 0.53890 0.55119
 H601 H 0.36961 0.67899 0.66348
 H602 H 0.39722 0.65209 0.63580
 H603 H 0.35369 0.58150 0.62952
 H604 H 0.32609 0.60880 0.65670
 H605 H 0.37214 0.58022 0.58021
 H606 H 0.39968 0.55323 0.55253
 H607 H 0.44822 0.58551 0.61437
 H608 H 0.42077 0.61219 0.64263
   
