data_POSCAR
  _audit_creation_date              2014-09-24
  _audit_creation_method            'ToBaCCo'
  _symmetry_space_group_name_H-M    'P1'
  _symmetry_Int_Tables_number       1
  _symmetry_cell_setting            triclinic
  loop_
  _symmetry_equiv_pos_as_xyz
 x,y,z
_cell_length_a 17.4207
_cell_length_b 17.4867
_cell_length_c 41.0032
_cell_angle_alpha 97.739200
_cell_angle_beta 86.235800
_cell_angle_gamma 120.079600
loop_
  _atom_site_label
  _atom_site_type_symbol
  _atom_site_fract_x
  _atom_site_fract_y
  _atom_site_fract_z
Si1 Si 0.03505 -0.03774 0.49749
 Si2 Si 0.92291 -0.03793 0.16619
 Si3 Si 0.03448 1.07252 0.83637
 O4 O 0.38225 -0.02885 -0.03790
 O5 O 0.50617 -0.06102 0.02389
 O6 O 0.35018 -0.07330 0.02182
 O7 O 0.52451 -0.04349 -0.03836
 O8 O 0.59740 0.10121 -0.02222
 O9 O 0.41935 0.07134 0.03804
 O10 O 0.57496 0.08371 0.04001
 O11 O 0.45459 0.11578 -0.02169
 Cu12 Cu 0.43357 -0.06595 -0.00918
 Cu13 Cu 0.51837 0.10730 0.01007
 C14 C 0.39784 0.04963 -0.04005
 C15 C 0.56256 0.00684 0.04211
 C16 C 0.35438 -0.00680 0.03994
 C17 C 0.59102 0.03296 -0.04019
 O18 O -0.01185 0.55789 0.63591
 O19 O -0.01166 0.42738 0.69964
 O20 O -0.02572 0.56942 0.69961
 O21 O -0.02539 0.40213 0.63594
 O22 O 0.12129 0.47352 0.63596
 O23 O 0.12096 0.64500 0.69983
 O24 O 0.13502 0.50237 0.69988
 O25 O 0.13484 0.62988 0.63597
 Cu26 Cu -0.03304 0.48201 0.66777
 Cu27 Cu 0.14253 0.56995 0.66794
 C28 C 0.06206 0.61660 0.62539
 C29 C 0.06231 0.44268 0.71029
 C30 C 0.04666 0.63593 0.71022
 C31 C 0.04710 0.40827 0.62541
 O32 O 0.59941 0.49840 0.35453
 O33 O 0.42086 0.35016 0.29418
 O34 O 0.57647 0.49328 0.29228
 O35 O 0.45655 0.34131 0.35395
 O36 O 0.38437 0.41380 0.37011
 O37 O 0.50781 0.56938 0.30834
 O38 O 0.35184 0.42581 0.31034
 O39 O 0.52669 0.57044 0.37059
 Cu40 Cu 0.52011 0.41328 0.32220
 Cu41 Cu 0.43548 0.50195 0.34137
 C42 C 0.59317 0.56036 0.37249
 C43 C 0.35586 0.36337 0.29225
 C44 C 0.56406 0.55775 0.29015
 C45 C 0.39997 0.35090 0.37228
 C46 C 0.02814 0.19649 0.56364
 C47 C 0.00977 0.18289 0.52992
 C48 C 0.00524 0.10858 0.51037
 C49 C 0.01881 0.04742 0.52444
 C50 C 0.03457 0.06020 0.55841
 C51 C 0.03886 0.13411 0.57788
 C52 C 0.03727 0.27448 0.58393
 C53 C 0.04382 0.33756 0.60221
 H54 H 0.00112 0.23065 0.51865
 H55 H -0.00522 0.10076 0.48410
 H56 H 0.04746 0.01559 0.56987
 H57 H 0.05292 0.14385 0.60394
 C58 C 0.72588 0.73944 0.22884
 C59 C 0.78717 0.72576 0.20862
 C60 C 0.84742 0.79197 0.18963
 C61 C 0.84674 0.87212 0.19104
 C62 C 0.78487 0.88504 0.21112
 C63 C 0.72492 0.81917 0.22997
 C64 C 0.66609 0.67371 0.24950
 C65 C 0.61766 0.62034 0.26766
 H66 H 0.78862 0.66429 0.20767
 H67 H 0.89419 0.78068 0.17403
 H68 H 0.78319 0.94645 0.21231
 H69 H 0.67819 0.83068 0.24558
 C70 C 0.24829 0.09282 -0.09956
 C71 C 0.26437 0.10221 -0.13311
 C72 C 0.20267 0.10559 -0.15229
 C73 C 0.12418 0.09892 -0.13806
 C74 C 0.11133 0.09467 -0.10400
 C75 C 0.17312 0.09189 -0.08494
 C76 C 0.30461 0.07797 -0.08019
 C77 C 0.34822 0.06425 -0.06262
 H78 H 0.32247 0.10310 -0.14470
 H79 H 0.21369 0.10764 -0.17855
 H80 H 0.05140 0.08791 -0.09209
 H81 H 0.16006 0.08476 -0.05899
 C82 C 0.06020 0.77732 0.56253
 C83 C -0.01773 0.78136 0.56188
 C84 C -0.02289 0.83815 0.54251
 C85 C 0.04990 0.89196 0.52360
 C86 C 0.12824 0.88808 0.52406
 C87 C 0.13347 0.83085 0.54364
 C88 C 0.06390 0.71947 0.58345
 C89 C 0.06352 0.67144 0.60204
 H90 H -0.07462 0.74065 0.57643
 H91 H -0.08410 0.84000 0.54226
 H92 H 0.18467 0.92869 0.50937
 H93 H 0.19427 0.82835 0.54407
 C94 C 0.14317 0.19382 0.23313
 C95 C 0.07414 0.12130 0.24706
 C96 C 0.00308 0.05540 0.22762
 C97 C 0.00004 0.06158 0.19400
 C98 C 0.06696 0.13676 0.18048
 C99 C 0.13843 0.20268 0.19997
 C100 C 0.22045 0.25569 0.25268
 C101 C 0.28370 0.30526 0.27009
 H102 H 0.07708 0.11376 0.27268
 H103 H -0.04637 -0.00246 0.23863
 H104 H 0.06661 0.14188 0.15446
 H105 H 0.19149 0.25855 0.18891
 C106 C 0.79323 0.04964 -0.10032
 C107 C 0.78595 -0.02666 -0.11940
 C108 C 0.85790 -0.02163 -0.13839
 C109 C 0.93742 0.05964 -0.13812
 C110 C 0.94394 0.13573 -0.11915
 C111 C 0.87238 0.13072 -0.10029
 C112 C 0.72092 0.04494 -0.07995
 C113 C 0.66148 0.04096 -0.06215
 H114 H 0.72488 -0.08985 -0.11953
 H115 H 0.85129 -0.08069 -0.15322
 H116 H 1.00471 0.19923 -0.11891
 H117 H 0.87889 0.19003 -0.08560
 C118 C 0.14240 -0.04970 0.09914
 C119 C 0.13822 -0.06305 0.13229
 C120 C 0.06696 -0.06855 0.15182
 C121 C -0.00027 -0.06046 0.13833
 C122 C 0.00221 -0.05150 0.10472
 C123 C 0.07305 -0.04640 0.08524
 C124 C 0.21943 -0.03434 0.07955
 C125 C 0.28247 -0.02074 0.06211
 H126 H 0.19152 -0.06572 0.14332
 H127 H 0.06704 -0.07381 0.17784
 H128 H -0.04750 -0.04322 0.09374
 H129 H 0.07555 -0.03611 0.05963
 C130 C 0.79521 0.74543 0.43308
 C131 C 0.87461 0.74385 0.43309
 C132 C 0.94585 0.81007 0.45227
 C133 C 0.93872 0.87890 0.47153
 C134 C 0.85905 0.88042 0.47171
 C135 C 0.78742 0.81384 0.45240
 C136 C 0.72309 0.67801 0.41248
 C137 C 0.66370 0.62270 0.39454
 H138 H 0.88151 0.69152 0.41821
 H139 H 1.00678 0.80758 0.45210
 H140 H 0.85208 0.93240 0.48674
 H141 H 0.72618 0.81569 0.45250
 C142 C 0.06038 0.27901 0.77265
 C143 C -0.01680 0.19627 0.77234
 C144 C -0.02239 0.13394 0.79159
 C145 C 0.04937 0.15319 0.81139
 C146 C 0.12709 0.23634 0.81179
 C147 C 0.13262 0.29912 0.79232
 C148 C 0.06427 0.34111 0.75196
 C149 C 0.06390 0.38910 0.73353
 H150 H -0.07290 0.17985 0.75718
 H151 H -0.08338 0.07046 0.79103
 H152 H 0.18287 0.25310 0.82715
 H153 H 0.19283 0.36308 0.79265
 C154 C 0.72491 -0.01284 0.10353
 C155 C 0.78641 0.06223 0.12373
 C156 C 0.84692 0.05640 0.14273
 C157 C 0.84627 -0.02440 0.14136
 C158 C 0.78416 -0.09930 0.12132
 C159 C 0.72395 -0.09352 0.10246
 C160 C 0.66490 -0.00702 0.08283
 C161 C 0.61632 -0.00213 0.06464
 H162 H 0.78786 0.12514 0.12463
 H163 H 0.89389 0.11456 0.15831
 H164 H 0.78250 -0.16237 0.12017
 H165 H 0.67705 -0.15184 0.08686
 C166 C 0.25166 0.15911 0.43201
 C167 C 0.17666 0.08421 0.41744
 C168 C 0.11557 0.01985 0.43663
 C169 C 0.12908 0.02937 0.47064
 C170 C 0.20706 0.10180 0.48488
 C171 C 0.26813 0.16671 0.46562
 C172 C 0.30739 0.22991 0.41252
 C173 C 0.35065 0.28696 0.39489
 H174 H 0.16322 0.07759 0.39147
 H175 H 0.05552 -0.03410 0.42498
 H176 H 0.21786 0.11110 0.51117
 H177 H 0.32599 0.22444 0.47717
 C178 C 0.02734 0.82971 0.77118
 C179 C 0.03996 0.90312 0.75668
 C180 C 0.03572 0.97323 0.77577
 C181 C 0.01803 0.97047 0.80963
 C182 C 0.00267 0.89547 0.82393
 C183 C 0.00716 0.82518 0.80476
 C184 C 0.03647 0.76035 0.75128
 C185 C 0.04313 0.70352 0.73325
 H186 H 0.05551 0.90731 0.73073
 H187 H 0.05031 1.03095 0.76413
 H188 H -0.00914 0.89296 0.85013
 H189 H -0.00292 0.76855 0.81623
   
