data_POSCAR
  _audit_creation_date              2014-09-24
  _audit_creation_method            'ToBaCCo'
  _symmetry_space_group_name_H-M    'P1'
  _symmetry_Int_Tables_number       1
  _symmetry_cell_setting            triclinic
  loop_
  _symmetry_equiv_pos_as_xyz
 x,y,z
_cell_length_a 42.7395
_cell_length_b 42.1930
_cell_length_c 43.1445
_cell_angle_alpha 91.082300
_cell_angle_beta 89.690200
_cell_angle_gamma 90.820100
loop_
  _atom_site_label
  _atom_site_type_symbol
  _atom_site_fract_x
  _atom_site_fract_y
  _atom_site_fract_z
N1 N 0.28210 0.21191 0.19678
 N2 N 0.26771 0.23182 0.17887
 C3 C 0.28667 0.23955 0.15509
 C4 C 0.31460 0.22366 0.15829
 C5 C 0.31077 0.20633 0.18506
 H6 H 0.28072 0.25590 0.13712
 H7 H 0.32736 0.19038 0.19502
 Cu8 Cu 0.22602 0.24644 0.18894
 Cu9 Cu 0.26211 0.19368 0.23317
 Cu10 Cu 0.18669 0.21846 0.25030
 N11 N 0.19102 0.26911 0.20711
 N12 N 0.17518 0.25782 0.23073
 C13 C 0.15186 0.27777 0.23813
 C14 C 0.15351 0.30321 0.21830
 C15 C 0.17868 0.29685 0.19892
 H16 H 0.13548 0.27436 0.25700
 H17 H 0.18728 0.31118 0.18009
 N18 N 0.20862 0.18666 0.27467
 N19 N 0.23755 0.17784 0.26863
 C20 C 0.24623 0.15683 0.28992
 C21 C 0.22166 0.15221 0.31052
 C22 C 0.19818 0.17158 0.30002
 H23 H 0.26879 0.14563 0.29029
 H24 H 0.17540 0.17508 0.31042
 H25 H 0.21715 0.19750 0.21811
 H26 H 0.23232 0.23120 0.24247
 N27 N 0.71461 -0.22975 0.19433
 N28 N 0.72981 -0.24719 0.17391
 C29 C 0.71156 -0.25249 0.14896
 C30 C 0.68301 -0.23776 0.15410
 C31 C 0.68598 -0.22369 0.18338
 H32 H 0.71850 -0.26654 0.12895
 H33 H 0.66899 -0.20955 0.19582
 Cu34 Cu 0.77133 -0.26253 0.18285
 Cu35 Cu 0.73313 -0.21626 0.23365
 Cu36 Cu 0.81330 -0.22669 0.23902
 N37 N 0.80867 -0.28174 0.19928
 N38 N 0.82590 -0.26713 0.22039
 C39 C 0.85069 -0.28516 0.22682
 C40 C 0.84862 -0.31307 0.20918
 C41 C 0.82150 -0.30981 0.19192
 H42 H 0.86816 -0.27872 0.24393
 H43 H 0.81170 -0.32634 0.17504
 N44 N 0.79016 -0.19693 0.26600
 N45 N 0.75953 -0.19391 0.26464
 C46 C 0.75041 -0.17293 0.28661
 C47 C 0.77654 -0.16220 0.30284
 C48 C 0.80136 -0.17806 0.28900
 H49 H 0.72641 -0.16610 0.29038
 H50 H 0.82577 -0.17645 0.29534
 H51 H 0.77523 -0.21221 0.21182
 H52 H 0.77060 -0.24699 0.23758
 N53 N 0.72471 0.20683 0.80710
 N54 N 0.73983 0.22720 0.82513
 C55 C 0.72140 0.23522 0.84938
 C56 C 0.69307 0.21911 0.84626
 C57 C 0.69610 0.20128 0.81914
 H58 H 0.72788 0.25209 0.86748
 H59 H 0.67886 0.18530 0.80897
 Cu60 Cu 0.78162 0.24235 0.81459
 Cu61 Cu 0.74322 0.18893 0.76945
 Cu62 Cu 0.81262 0.22326 0.74478
 N63 N 0.81656 0.26612 0.79720
 N64 N 0.82833 0.25889 0.76984
 C65 C 0.85084 0.28020 0.76278
 C66 C 0.85347 0.30222 0.78707
 C67 C 0.83126 0.29221 0.80860
 H68 H 0.86386 0.27978 0.74126
 H69 H 0.82525 0.30352 0.83046
 N70 N 0.79256 0.18698 0.72288
 N71 N 0.76584 0.17416 0.73211
 C72 C 0.75760 0.15071 0.71207
 C73 C 0.78023 0.14856 0.68905
 C74 C 0.80208 0.17194 0.69676
 H75 H 0.73666 0.13623 0.71413
 H76 H 0.82300 0.17806 0.68389
 H77 H 0.79011 0.19771 0.77902
 H78 H 0.76782 0.23060 0.76113
 N79 N 0.27360 -0.20360 0.81038
 N80 N 0.25835 -0.22361 0.82811
 C81 C 0.27697 -0.23192 0.85160
 C82 C 0.30555 -0.21635 0.84832
 C83 C 0.30246 -0.19856 0.82188
 H84 H 0.27041 -0.24859 0.86931
 H85 H 0.31984 -0.18296 0.81179
 Cu86 Cu 0.21607 -0.23780 0.81820
 Cu87 Cu 0.25502 -0.18560 0.77371
 Cu88 Cu 0.18446 -0.21834 0.74979
 N89 N 0.18012 -0.26061 0.80114
 N90 N 0.16805 -0.25319 0.77435
 C91 C 0.14468 -0.27375 0.76739
 C92 C 0.14182 -0.29549 0.79112
 C93 C 0.16480 -0.28611 0.81222
 H94 H 0.13128 -0.27306 0.74627
 H95 H 0.17085 -0.29744 0.83358
 N96 N 0.20522 -0.18287 0.72834
 N97 N 0.23232 -0.17062 0.73733
 C98 C 0.24095 -0.14762 0.71770
 C99 C 0.21817 -0.14519 0.69520
 C100 C 0.19582 -0.16791 0.70277
 H101 H 0.26226 -0.13366 0.71968
 H102 H 0.17464 -0.17366 0.69018
 H103 H 0.20809 -0.19315 0.78421
 H104 H 0.22929 -0.22671 0.76474
 N105 N 0.72188 -0.20486 0.80809
 N106 N 0.73654 -0.22480 0.82579
 C107 C 0.71842 -0.23146 0.85053
 C108 C 0.69078 -0.21505 0.84796
 C109 C 0.69379 -0.19844 0.82074
 H110 H 0.72440 -0.24789 0.86842
 H111 H 0.67677 -0.18289 0.81084
 Cu112 Cu 0.77690 -0.24178 0.81382
 Cu113 Cu 0.74023 -0.18882 0.76997
 Cu114 Cu 0.80774 -0.22520 0.74391
 N115 N 0.81046 -0.26671 0.79577
 N116 N 0.82321 -0.25945 0.76903
 C117 C 0.84586 -0.28030 0.76214
 C118 C 0.84717 -0.30230 0.78566
 C119 C 0.82418 -0.29274 0.80663
 H120 H 0.85938 -0.28006 0.74092
 H121 H 0.81778 -0.30368 0.82824
 N122 N 0.78811 -0.19014 0.72195
 N123 N 0.76256 -0.17601 0.73205
 C124 C 0.75481 -0.15338 0.71198
 C125 C 0.77632 -0.15352 0.68791
 C126 C 0.79709 -0.17713 0.69502
 H127 H 0.73454 -0.13846 0.71422
 H128 H 0.81726 -0.18427 0.68152
 H129 H 0.76268 -0.23107 0.76069
 H130 H 0.78673 -0.19818 0.77856
 N131 N 0.27646 0.21603 0.81646
 N132 N 0.26834 0.24380 0.82793
 C133 C 0.28679 0.25130 0.85224
 C134 C 0.30772 0.22694 0.85624
 C135 C 0.30034 0.20491 0.83309
 H136 H 0.28536 0.27311 0.86568
 H137 H 0.31228 0.18303 0.82787
 Cu138 Cu 0.23574 0.26869 0.80929
 Cu139 Cu 0.25737 0.19778 0.77924
 Cu140 Cu 0.19379 0.23702 0.75017
 N141 N 0.19695 0.28733 0.79563
 N142 N 0.18035 0.27460 0.77297
 C143 C 0.15511 0.29252 0.76814
 C144 C 0.15600 0.31802 0.78879
 C145 C 0.18292 0.31392 0.80591
 H146 H 0.13791 0.28788 0.75028
 H147 H 0.19167 0.32914 0.82444
 N148 N 0.21100 0.19867 0.73037
 N149 N 0.23493 0.18332 0.74167
 C150 C 0.24180 0.15888 0.72238
 C151 C 0.22139 0.15910 0.69760
 C152 C 0.20216 0.18462 0.70350
 H153 H 0.26107 0.14292 0.72540
 H154 H 0.18340 0.19263 0.68904
 H155 H 0.24120 0.23911 0.76048
 H156 H 0.21494 0.21866 0.78898
 N157 N 0.26977 -0.19641 0.18334
 N158 N 0.25600 -0.21976 0.16783
 C159 C 0.27382 -0.22779 0.14318
 C160 C 0.30018 -0.20830 0.14311
 C161 C 0.29672 -0.18861 0.16893
 H162 H 0.26825 -0.24680 0.12689
 H163 H 0.31331 -0.17099 0.17748
 Cu164 Cu 0.21701 -0.23869 0.18207
 Cu165 Cu 0.25358 -0.18023 0.22279
 Cu166 Cu 0.19135 -0.22246 0.25415
 N167 N 0.18508 -0.26480 0.20158
 N168 N 0.17525 -0.25842 0.22987
 C169 C 0.15372 -0.28031 0.23803
 C170 C 0.14978 -0.30173 0.21354
 C171 C 0.17016 -0.29103 0.19075
 H172 H 0.14194 -0.28055 0.26024
 H173 H 0.17438 -0.30179 0.16821
 N174 N 0.21068 -0.18524 0.27500
 N175 N 0.23380 -0.16853 0.26273
 C176 C 0.24178 -0.14474 0.28255
 C177 C 0.22296 -0.14678 0.30867
 C178 C 0.20351 -0.17269 0.30299
 H179 H 0.26054 -0.12778 0.27873
 H180 H 0.18539 -0.18169 0.31816
 H181 H 0.23536 -0.22408 0.23362
 H182 H 0.20744 -0.19460 0.21818
 N183 N 0.73347 0.19174 0.17961
 N184 N 0.74709 0.21513 0.16476
 C185 C 0.72906 0.22319 0.14077
 C186 C 0.70272 0.20369 0.14044
 C187 C 0.70641 0.18392 0.16539
 H188 H 0.73443 0.24229 0.12516
 H189 H 0.68985 0.16634 0.17360
 Cu190 Cu 0.78614 0.23415 0.17904
 Cu191 Cu 0.74976 0.17584 0.21837
 Cu192 Cu 0.81234 0.21801 0.25011
 N193 N 0.81853 0.26002 0.19878
 N194 N 0.82860 0.25365 0.22665
 C195 C 0.85045 0.27535 0.23507
 C196 C 0.85432 0.29662 0.21120
 C197 C 0.83361 0.28604 0.18849
 H198 H 0.86253 0.27556 0.25701
 H199 H 0.82926 0.29678 0.16641
 N200 N 0.79280 0.18111 0.27018
 N201 N 0.76958 0.16442 0.25771
 C202 C 0.76138 0.14096 0.27706
 C203 C 0.78016 0.14323 0.30306
 C204 C 0.79983 0.16890 0.29783
 H205 H 0.74246 0.12414 0.27303
 H206 H 0.81794 0.17801 0.31308
 H207 H 0.76821 0.21971 0.23045
 H208 H 0.79593 0.19014 0.21346
 C209 C 0.22160 0.02112 0.50398
 C210 C 0.22204 -0.01109 0.50391
 C211 C 0.22285 -0.03004 0.47466
 C212 C 0.22133 -0.02919 0.53306
 C213 C 0.22158 0.04001 0.53326
 C214 C 0.22110 0.03928 0.47487
 C215 C 0.19834 -0.05144 0.46804
 C216 C 0.19872 -0.06979 0.44082
 C217 C 0.22396 -0.06754 0.41986
 C218 C 0.24859 -0.04603 0.42662
 C219 C 0.24802 -0.02742 0.45381
 C220 C 0.19646 -0.02619 0.55425
 C221 C 0.19582 -0.04403 0.58124
 C222 C 0.21999 -0.06525 0.58744
 C223 C 0.24477 -0.06822 0.56607
 C224 C 0.24534 -0.05047 0.53909
 C225 C 0.24672 0.03893 0.55396
 C226 C 0.24667 0.05765 0.58105
 C227 C 0.22142 0.07772 0.58792
 C228 C 0.19615 0.07835 0.56717
 C229 C 0.19639 0.05990 0.54000
 C230 C 0.24446 0.06220 0.46946
 C231 C 0.24426 0.07984 0.44242
 C232 C 0.22050 0.07509 0.42035
 C233 C 0.19684 0.05239 0.42600
 C234 C 0.19710 0.03467 0.45307
 H235 H 0.17870 -0.05366 0.48387
 H236 H 0.17907 -0.08557 0.43610
 H237 H 0.26858 -0.04403 0.41124
 H238 H 0.26734 -0.01126 0.45879
 H239 H 0.17746 -0.01023 0.54975
 H240 H 0.17652 -0.04111 0.59736
 H241 H 0.26458 -0.05329 0.52287
 H242 H 0.26654 0.02395 0.54886
 H243 H 0.26671 0.05694 0.59624
 H244 H 0.17605 0.09300 0.57197
 H245 H 0.17677 0.06093 0.52427
 H246 H 0.26298 0.06633 0.48616
 H247 H 0.26248 0.09754 0.43898
 H248 H 0.17831 0.04813 0.40935
 H249 H 0.17854 0.01748 0.45711
 H250 H 0.26346 -0.08472 0.56995
 C251 C 0.77818 0.01056 0.49537
 C252 C 0.77806 -0.02165 0.49498
 C253 C 0.77819 -0.04054 0.46562
 C254 C 0.77771 -0.03983 0.52402
 C255 C 0.77868 0.02931 0.52481
 C256 C 0.77794 0.02891 0.46643
 C257 C 0.75418 -0.06288 0.46002
 C258 C 0.75413 -0.08141 0.43288
 C259 C 0.77829 -0.07818 0.41087
 C260 C 0.80249 -0.05593 0.41662
 C261 C 0.80245 -0.03728 0.44379
 C262 C 0.75213 -0.03850 0.54447
 C263 C 0.75180 -0.05657 0.57133
 C264 C 0.77715 -0.07615 0.57828
 C265 C 0.80284 -0.07703 0.55773
 C266 C 0.80294 -0.05930 0.53075
 C267 C 0.80352 0.02699 0.54576
 C268 C 0.80399 0.04553 0.57299
 C269 C 0.77963 0.06670 0.57968
 C270 C 0.75486 0.06896 0.55857
 C271 C 0.75450 0.05057 0.53133
 C272 C 0.80272 0.04996 0.46025
 C273 C 0.80273 0.06797 0.43347
 C274 C 0.77765 0.06570 0.41252
 C275 C 0.75276 0.04453 0.41884
 C276 C 0.75291 0.02628 0.44558
 H277 H 0.73539 -0.06590 0.47671
 H278 H 0.73545 -0.09869 0.42937
 H279 H 0.82132 -0.05282 0.40002
 H280 H 0.82145 -0.02050 0.44793
 H281 H 0.73228 -0.02385 0.53936
 H282 H 0.73140 -0.05568 0.58627
 H283 H 0.82289 -0.06052 0.51519
 H284 H 0.82263 0.01104 0.54088
 H285 H 0.82328 0.04319 0.58891
 H286 H 0.73603 0.08539 0.56287
 H287 H 0.73529 0.05286 0.51529
 H288 H 0.82224 0.05223 0.47609
 H289 H 0.82257 0.08352 0.42907
 H290 H 0.73286 0.04254 0.40347
 H291 H 0.73337 0.01043 0.45026
 H292 H 0.82305 -0.09125 0.56257
 C293 C 0.50272 0.22330 -0.01383
 C294 C 0.50437 0.22215 0.01760
 C295 C 0.47603 0.22312 0.03762
 C296 C 0.53472 0.21920 0.03369
 C297 C 0.53127 0.22322 -0.03357
 C298 C 0.47236 0.22401 -0.03028
 C299 C 0.45513 0.24844 0.03654
 C300 C 0.42880 0.24908 0.05595
 C301 C 0.42302 0.22449 0.07691
 C302 C 0.44408 0.19923 0.07787
 C303 C 0.47037 0.19866 0.05856
 C304 C 0.54428 0.24281 0.05502
 C305 C 0.57248 0.24010 0.07085
 C306 C 0.59136 0.21345 0.06598
 C307 C 0.58160 0.18967 0.04478
 C308 C 0.55351 0.19257 0.02867
 C309 C 0.53505 0.19919 -0.05609
 C310 C 0.56151 0.19886 -0.07518
 C311 C 0.58459 0.22286 -0.07248
 C312 C 0.58065 0.24702 -0.04990
 C313 C 0.55421 0.24720 -0.03063
 C314 C 0.44988 0.19974 -0.02669
 C315 C 0.42189 0.20020 -0.04330
 C316 C 0.41598 0.22487 -0.06385
 C317 C 0.43857 0.24911 -0.06731
 C318 C 0.46654 0.24858 -0.05080
 H319 H 0.45940 0.26783 0.02091
 H320 H 0.41330 0.26910 0.05496
 H321 H 0.44009 0.17966 0.09335
 H322 H 0.48621 0.17891 0.05972
 H323 H 0.52991 0.26339 0.05930
 H324 H 0.57926 0.25853 0.08739
 H325 H 0.54626 0.17395 0.01253
 H326 H 0.51759 0.18048 -0.05866
 H327 H 0.56400 0.17959 -0.09189
 H328 H 0.59770 0.26612 -0.04750
 H329 H 0.55144 0.26623 -0.01368
 H330 H 0.45419 0.18030 -0.01133
 H331 H 0.40484 0.18131 -0.04007
 H332 H 0.43492 0.26812 -0.08336
 H333 H 0.48374 0.26733 -0.05408
 H334 H 0.59579 0.16895 0.04056
 C335 C 0.49797 0.77603 -0.01721
 C336 C 0.49670 0.77554 0.01430
 C337 C 0.52507 0.77307 0.03365
 C338 C 0.46658 0.77808 0.03130
 C339 C 0.46893 0.77693 -0.03593
 C340 C 0.52804 0.77614 -0.03481
 C341 C 0.54462 0.74671 0.03115
 C342 C 0.57062 0.74434 0.05053
 C343 C 0.57756 0.76838 0.07265
 C344 C 0.55800 0.79489 0.07466
 C345 C 0.53189 0.79702 0.05561
 C346 C 0.45682 0.75358 0.05075
 C347 C 0.42880 0.75590 0.06736
 C348 C 0.41030 0.78302 0.06515
 C349 C 0.42023 0.80766 0.04577
 C350 C 0.44815 0.80518 0.02893
 C351 C 0.46451 0.80190 -0.05634
 C352 C 0.43773 0.80276 -0.07465
 C353 C 0.41493 0.77844 -0.07318
 C354 C 0.41944 0.75340 -0.05266
 C355 C 0.44625 0.75262 -0.03425
 C356 C 0.55243 0.79769 -0.02745
 C357 C 0.57977 0.79846 -0.04540
 C358 C 0.58271 0.77845 -0.07157
 C359 C 0.55834 0.75712 -0.07908
 C360 C 0.53135 0.75585 -0.06078
 H361 H 0.53944 0.72780 0.01457
 H362 H 0.58486 0.72338 0.04862
 H363 H 0.56294 0.81420 0.09086
 H364 H 0.51708 0.81758 0.05779
 H365 H 0.47091 0.73261 0.05298
 H366 H 0.42191 0.73677 0.08245
 H367 H 0.45556 0.82448 0.01428
 H368 H 0.48179 0.82084 -0.05795
 H369 H 0.43476 0.82264 -0.08981
 H370 H 0.40259 0.73407 -0.05131
 H371 H 0.44954 0.73286 -0.01900
 H372 H 0.55007 0.81441 -0.00828
 H373 H 0.59818 0.81539 -0.03952
 H374 H 0.56021 0.74146 -0.09917
 H375 H 0.51283 0.73921 -0.06709
 H376 H 0.40632 0.82874 0.04356
 C377 C -0.01319 0.49649 0.21040
 C378 C 0.01858 0.49734 0.21108
 C379 C 0.03706 0.46797 0.21241
 C380 C 0.03660 0.52765 0.21090
 C381 C -0.03174 0.52582 0.21004
 C382 C -0.03120 0.46621 0.21025
 C383 C 0.03503 0.44810 0.23807
 C384 C 0.05350 0.42105 0.23937
 C385 C 0.07425 0.41340 0.21498
 C386 C 0.07582 0.43330 0.18919
 C387 C 0.05762 0.46044 0.18807
 C388 C 0.05784 0.53451 0.23483
 C389 C 0.07541 0.56264 0.23490
 C390 C 0.07226 0.58440 0.21088
 C391 C 0.05124 0.57730 0.18667
 C392 C 0.03361 0.54911 0.18665
 C393 C -0.04950 0.53254 0.18387
 C394 C -0.06790 0.55958 0.18342
 C395 C -0.06959 0.58006 0.20952
 C396 C -0.05157 0.57318 0.23575
 C397 C -0.03268 0.54637 0.23592
 C398 C -0.02743 0.44354 0.18633
 C399 C -0.04512 0.41540 0.18628
 C400 C -0.06690 0.40952 0.21012
 C401 C -0.07063 0.43236 0.23394
 C402 C -0.05306 0.46049 0.23390
 H403 H 0.01953 0.45385 0.25724
 H404 H 0.05205 0.40655 0.25978
 H405 H 0.09101 0.42784 0.16972
 H406 H 0.05937 0.47552 0.16808
 H407 H 0.06072 0.51808 0.25357
 H408 H 0.09181 0.56717 0.25356
 H409 H 0.01779 0.54394 0.16764
 H410 H -0.04891 0.51690 0.16368
 H411 H -0.08077 0.56440 0.16254
 H412 H -0.05263 0.58802 0.25645
 H413 H -0.01930 0.54125 0.25644
 H414 H -0.01097 0.44777 0.16765
 H415 H -0.04163 0.39813 0.16775
 H416 H -0.08755 0.42870 0.25235
 H417 H -0.05643 0.47781 0.25243
 H418 H 0.04825 0.59367 0.16793
 C419 C 0.01187 0.50532 0.79521
 C420 C -0.01981 0.50385 0.79390
 C421 C -0.03728 0.47328 0.79343
 C422 C -0.03845 0.53300 0.79276
 C423 C 0.02894 0.53605 0.79506
 C424 C 0.03119 0.47649 0.79520
 C425 C -0.05588 0.46491 0.76780
 C426 C -0.07246 0.43616 0.76703
 C427 C -0.07110 0.41546 0.79210
 C428 C -0.05265 0.42400 0.81789
 C429 C -0.03576 0.45265 0.81850
 C430 C -0.04404 0.54753 0.76446
 C431 C -0.06233 0.57468 0.76347
 C432 C -0.07488 0.58815 0.79089
 C433 C -0.06858 0.57362 0.81929
 C434 C -0.05084 0.54611 0.82013
 C435 C 0.02918 0.55609 0.82136
 C436 C 0.04632 0.58458 0.82120
 C437 C 0.06333 0.59345 0.79466
 C438 C 0.06280 0.57332 0.76833
 C439 C 0.04589 0.54477 0.76862
 C440 C 0.05147 0.47137 0.81996
 C441 C 0.07078 0.44497 0.81974
 C442 C 0.07055 0.42339 0.79447
 C443 C 0.05006 0.42860 0.76969
 C444 C 0.03056 0.45492 0.77006
 H445 H -0.05735 0.48051 0.74824
 H446 H -0.08679 0.43031 0.74704
 H447 H -0.05110 0.40837 0.83744
 H448 H -0.02165 0.45885 0.83855
 H449 H -0.03455 0.53759 0.74313
 H450 H -0.06705 0.58473 0.74111
 H451 H -0.04649 0.53517 0.84217
 H452 H 0.01641 0.54947 0.84205
 H453 H 0.04622 0.59972 0.84174
 H454 H 0.07604 0.57935 0.74774
 H455 H 0.04607 0.52939 0.74823
 H456 H 0.05225 0.48783 0.83952
 H457 H 0.08585 0.44142 0.83942
 H458 H 0.04965 0.41280 0.74964
 H459 H 0.01542 0.45884 0.75050
 H460 H -0.07714 0.58358 0.84096
 C461 C 0.34008 0.23552 0.10710
 C462 C 0.34240 0.22463 0.13759
 C463 C 0.37154 0.21435 0.14809
 C464 C 0.39767 0.21468 0.12853
 C465 C 0.39531 0.22512 0.09789
 C466 C 0.36623 0.23571 0.08745
 H467 H 0.31795 0.24335 0.09815
 H468 H 0.37434 0.20629 0.17156
 H469 H 0.41985 0.20699 0.13753
 H470 H 0.36351 0.24352 0.06387
 C471 C 0.65856 0.75059 0.10360
 C472 C 0.65695 0.76297 0.13416
 C473 C 0.62855 0.77635 0.14426
 C474 C 0.60286 0.77754 0.12452
 C475 C 0.60477 0.76587 0.09386
 C476 C 0.63290 0.75221 0.08370
 H477 H 0.67978 0.74021 0.09454
 H478 H 0.62569 0.78570 0.16758
 H479 H 0.58133 0.78745 0.13347
 H480 H 0.63537 0.74333 0.06013
 C481 C 0.66828 0.23125 -0.10203
 C482 C 0.66536 0.22076 -0.13300
 C483 C 0.63565 0.21162 -0.14403
 C484 C 0.60951 0.21271 -0.12452
 C485 C 0.61242 0.22267 -0.09337
 C486 C 0.64213 0.23208 -0.08239
 H487 H 0.69088 0.23823 -0.09275
 H488 H 0.63244 0.20395 -0.16789
 H489 H 0.58691 0.20601 -0.13398
 H490 H 0.64531 0.23950 -0.05844
 C491 C 0.36309 0.79093 -0.14286
 C492 C 0.33350 0.78163 -0.13165
 C493 C 0.33092 0.77067 -0.10117
 C494 C 0.35730 0.76949 -0.08219
 C495 C 0.38686 0.77910 -0.09334
 C496 C 0.38944 0.78959 -0.12399
 H497 H 0.36607 0.79896 -0.16638
 H498 H 0.30844 0.76356 -0.09174
 H499 H 0.35445 0.76165 -0.05858
 H500 H 0.41194 0.79648 -0.13354
 C501 C 0.14428 0.35975 0.20518
 C502 C 0.13326 0.33137 0.21804
 C503 C 0.10280 0.33018 0.23044
 C504 C 0.08360 0.35674 0.22952
 C505 C 0.09458 0.38514 0.21647
 C506 C 0.12527 0.38634 0.20457
 H507 H 0.16781 0.36163 0.19595
 H508 H 0.09356 0.30855 0.24028
 H509 H 0.05997 0.35484 0.23852
 H510 H 0.13479 0.40801 0.19504
 C511 C 0.12088 0.65838 0.81881
 C512 C 0.12132 0.67801 0.79268
 C513 C 0.10115 0.67002 0.76786
 C514 C 0.08207 0.64290 0.76875
 C515 C 0.08228 0.62316 0.79454
 C516 C 0.10155 0.63140 0.81973
 H517 H 0.13555 0.66346 0.83866
 H518 H 0.10027 0.68421 0.74731
 H519 H 0.06711 0.63729 0.74916
 H520 H 0.10231 0.61648 0.83985
 C521 C -0.13894 0.63247 0.19315
 C522 C -0.13107 0.66083 0.20923
 C523 C -0.10254 0.66223 0.22550
 C524 C -0.08251 0.63627 0.22539
 C525 C -0.09061 0.60797 0.20948
 C526 C -0.11920 0.60643 0.19355
 H527 H -0.16070 0.62978 0.18068
 H528 H -0.09516 0.68348 0.23797
 H529 H -0.06046 0.63860 0.23750
 H530 H -0.12673 0.58482 0.18170
 C531 C -0.12621 0.34894 0.81574
 C532 C -0.12688 0.32940 0.78883
 C533 C -0.10781 0.33813 0.76351
 C534 C -0.08952 0.36583 0.76473
 C535 C -0.08939 0.38536 0.79140
 C536 C -0.10759 0.37645 0.81702
 H537 H -0.14007 0.34333 0.83598
 H538 H -0.10722 0.32408 0.74231
 H539 H -0.07541 0.37203 0.74476
 H540 H -0.10804 0.39123 0.83781
 C541 C 0.24884 0.11852 0.34916
 C542 C 0.22109 0.13177 0.33819
 C543 C 0.19294 0.12555 0.35415
 C544 C 0.19263 0.10682 0.38057
 C545 C 0.22047 0.09399 0.39169
 C546 C 0.24852 0.09989 0.37557
 H547 H 0.27100 0.12276 0.33768
 H548 H 0.17106 0.13512 0.34636
 H549 H 0.17069 0.10290 0.39268
 H550 H 0.27029 0.08999 0.38337
 C551 C 0.80794 0.12209 0.64428
 C552 C 0.78038 0.12684 0.66159
 C553 C 0.75279 0.11098 0.65213
 C554 C 0.75266 0.09125 0.62576
 C555 C 0.78013 0.08676 0.60831
 C556 C 0.80784 0.10219 0.61799
 H557 H 0.82967 0.13369 0.65101
 H558 H 0.73108 0.11415 0.66473
 H559 H 0.73103 0.07940 0.61904
 H560 H 0.82931 0.09940 0.60483
 C561 C 0.24623 -0.10882 0.65864
 C562 C 0.21835 -0.12386 0.66824
 C563 C 0.19080 -0.11872 0.65151
 C564 C 0.19121 -0.09929 0.62560
 C565 C 0.21920 -0.08471 0.61575
 C566 C 0.24665 -0.08953 0.63268
 H567 H 0.26794 -0.11232 0.67079
 H568 H 0.16885 -0.12966 0.65837
 H569 H 0.16973 -0.09624 0.61287
 H570 H 0.26851 -0.07832 0.62585
 C571 C 0.80553 -0.13279 0.34546
 C572 C 0.77739 -0.13959 0.32972
 C573 C 0.74985 -0.12495 0.34033
 C574 C 0.75030 -0.10467 0.36629
 C575 C 0.77828 -0.09842 0.38233
 C576 C 0.80597 -0.11241 0.37143
 H577 H 0.82724 -0.14350 0.33813
 H578 H 0.72775 -0.12915 0.32882
 H579 H 0.72868 -0.09383 0.37383
 H580 H 0.82785 -0.10827 0.38347
 C581 C 0.66687 0.77827 -0.09937
 C582 C 0.66328 0.78374 -0.13118
 C583 C 0.63311 0.78777 -0.14306
 C584 C 0.60696 0.78587 -0.12363
 C585 C 0.61055 0.78059 -0.09185
 C586 C 0.64070 0.77709 -0.07977
 H587 H 0.68991 0.77527 -0.08962
 H588 H 0.62965 0.79177 -0.16751
 H589 H 0.58388 0.78876 -0.13334
 H590 H 0.64390 0.77293 -0.05530
 C591 C 0.34474 0.25379 -0.10635
 C592 C 0.33409 0.22596 -0.12159
 C593 C 0.34966 0.19744 -0.11634
 C594 C 0.37575 0.19692 -0.09696
 C595 C 0.38692 0.22493 -0.08250
 C596 C 0.37089 0.25328 -0.08709
 H597 H 0.33345 0.27621 -0.10984
 H598 H 0.34192 0.17550 -0.12740
 H599 H 0.38775 0.17476 -0.09403
 H600 H 0.37875 0.27517 -0.07594
 C601 C 0.34818 0.81604 0.11925
 C602 C 0.32744 0.79007 0.12184
 C603 C 0.33353 0.76218 0.10464
 C604 C 0.36021 0.76005 0.08591
 C605 C 0.38119 0.78585 0.08373
 C606 C 0.37471 0.81400 0.10027
 H607 H 0.34401 0.83795 0.13195
 H608 H 0.31815 0.74168 0.10622
 H609 H 0.36453 0.73817 0.07317
 H610 H 0.39061 0.83417 0.09916
 C611 C 0.66855 0.23385 0.10472
 C612 C 0.67516 0.20558 0.11995
 C613 C 0.65461 0.17949 0.11625
 C614 C 0.62778 0.18178 0.09808
 C615 C 0.62078 0.21033 0.08358
 C616 C 0.64155 0.23624 0.08687
 H617 H 0.68377 0.25444 0.10722
 H618 H 0.65920 0.15732 0.12746
 H619 H 0.61205 0.16151 0.09605
 H620 H 0.63680 0.25843 0.07570
 C621 C -0.13827 0.64798 0.81003
 C622 C -0.13329 0.67111 0.78732
 C623 C -0.10845 0.66676 0.76611
 C624 C -0.08931 0.64026 0.76758
 C625 C -0.09473 0.61691 0.78987
 C626 C -0.11952 0.62116 0.81104
 H627 H -0.15718 0.64986 0.82667
 H628 H -0.10318 0.68401 0.74854
 H629 H -0.07001 0.63831 0.75134
 H630 H -0.12497 0.60344 0.82813
 C631 C -0.11907 0.34111 0.18287
 C632 C -0.12474 0.32499 0.21063
 C633 C -0.11048 0.33648 0.23799
 C634 C -0.09144 0.36365 0.23770
 C635 C -0.08610 0.37994 0.21005
 C636 C -0.09989 0.36824 0.18258
 H637 H -0.12943 0.33289 0.16131
 H638 H -0.11431 0.32487 0.25984
 H639 H -0.08082 0.37190 0.25916
 H640 H -0.09639 0.38047 0.16097
 C641 C 0.14328 0.37394 0.80406
 C642 C 0.13386 0.34465 0.79095
 C643 C 0.10330 0.34122 0.77940
 C644 C 0.08263 0.36660 0.78085
 C645 C 0.09216 0.39606 0.79363
 C646 C 0.12274 0.39938 0.80525
 H647 H 0.16679 0.37750 0.81277
 H648 H 0.09520 0.31884 0.76950
 H649 H 0.05909 0.36304 0.77219
 H650 H 0.13109 0.42188 0.81469
 C651 C 0.12425 0.65258 0.18458
 C652 C 0.12912 0.66966 0.21250
 C653 C 0.11433 0.65887 0.23960
 C654 C 0.09561 0.63149 0.23892
 C655 C 0.09113 0.61420 0.21114
 C656 C 0.10541 0.62519 0.18390
 H657 H 0.13501 0.66022 0.16319
 H658 H 0.11745 0.67123 0.26157
 H659 H 0.08454 0.62386 0.26020
 H660 H 0.10257 0.61222 0.16218
 C661 C 0.79038 -0.14464 0.63240
 C662 C 0.77645 -0.13365 0.66003
 C663 C 0.76252 -0.10371 0.66067
 C664 C 0.76284 -0.08495 0.63427
 C665 C 0.77674 -0.09594 0.60651
 C666 C 0.79031 -0.12614 0.60591
 H667 H 0.80084 -0.16784 0.63103
 H668 H 0.75185 -0.09451 0.68174
 H669 H 0.75262 -0.06165 0.63578
 H670 H 0.80053 -0.13577 0.58482
 C671 C 0.23628 -0.09551 0.33637
 C672 C 0.22394 -0.12654 0.33706
 C673 C 0.21235 -0.13818 0.36521
 C674 C 0.21282 -0.11920 0.39203
 C675 C 0.22456 -0.08791 0.39134
 C676 C 0.23645 -0.07633 0.36320
 H677 H 0.24520 -0.08581 0.31496
 H678 H 0.20323 -0.16217 0.36670
 H679 H 0.20422 -0.12920 0.41342
 H680 H 0.24532 -0.05224 0.36174
 C681 C 0.79032 0.13544 0.35940
 C682 C 0.77886 0.12344 0.33102
 C683 C 0.76628 0.09251 0.32968
 C684 C 0.76574 0.07375 0.35609
 C685 C 0.77749 0.08566 0.38446
 C686 C 0.78948 0.11686 0.38581
 H687 H 0.79960 0.15938 0.36138
 H688 H 0.75745 0.08254 0.30808
 H689 H 0.75669 0.04970 0.35412
 H690 H 0.79799 0.12712 0.40741
 C691 C 0.23418 0.10764 0.67068
 C692 C 0.22141 0.13810 0.66974
 C693 C 0.20888 0.14857 0.64178
 C694 C 0.20912 0.12907 0.61531
 C695 C 0.22156 0.09843 0.61620
 C696 C 0.23411 0.08794 0.64423
 H697 H 0.24378 0.09883 0.69197
 H698 H 0.19939 0.17212 0.64012
 H699 H 0.19996 0.13825 0.59398
 H700 H 0.24347 0.06433 0.64586
   
