data_POSCAR
  _audit_creation_date              2014-09-24
  _audit_creation_method            'ToBaCCo'
  _symmetry_space_group_name_H-M    'P1'
  _symmetry_Int_Tables_number       1
  _symmetry_cell_setting            triclinic
  loop_
  _symmetry_equiv_pos_as_xyz
 x,y,z
_cell_length_a 50.5237
_cell_length_b 50.5429
_cell_length_c 50.5646
_cell_angle_alpha 90.009800
_cell_angle_beta 90.023600
_cell_angle_gamma 89.983600
loop_
  _atom_site_label
  _atom_site_type_symbol
  _atom_site_fract_x
  _atom_site_fract_y
  _atom_site_fract_z
C1 C 0.28907 0.32342 0.01287
 C2 C 0.28908 0.32346 -0.01503
 C3 C 0.30601 0.30632 -0.02879
 C4 C 0.32308 0.28930 -0.01504
 C5 C 0.32303 0.28927 0.01286
 C6 C 0.30596 0.30624 0.02659
 H7 H 0.30609 0.30636 0.04805
 H8 H 0.30618 0.30650 -0.05027
 C9 C 0.71037 0.67715 0.01323
 C10 C 0.71038 0.67725 -0.01463
 C11 C 0.69342 0.69435 -0.02835
 C12 C 0.67626 0.71124 -0.01456
 C13 C 0.67627 0.71114 0.01335
 C14 C 0.69340 0.69417 0.02703
 H15 H 0.69326 0.69394 0.04848
 H16 H 0.69333 0.69422 -0.04981
 C17 C 0.71078 0.32373 0.98602
 C18 C 0.71081 0.32373 1.01393
 C19 C 0.69385 0.30662 1.02767
 C20 C 0.67674 0.28970 1.01391
 C21 C 0.67671 0.28972 0.98605
 C22 C 0.69380 0.30664 0.97230
 H23 H 0.69362 0.30679 0.95084
 H24 H 0.69367 0.30670 1.04914
 C25 C 0.28874 0.67731 0.98754
 C26 C 0.28871 0.67728 1.01544
 C27 C 0.30563 0.69440 1.02924
 C28 C 0.32273 0.71138 1.01552
 C29 C 0.32273 0.71140 0.98762
 C30 C 0.30566 0.69445 0.97385
 H31 H 0.30583 0.69431 0.95240
 H32 H 0.30576 0.69423 1.05072
 C33 C 0.01428 0.28862 0.32250
 C34 C -0.01360 0.28850 0.32237
 C35 C -0.02738 0.30536 0.30522
 C36 C -0.01363 0.32250 0.28835
 C37 C 0.01425 0.32261 0.28847
 C38 C 0.02803 0.30559 0.30546
 H39 H 0.04950 0.30585 0.30571
 H40 H -0.04885 0.30543 0.30529
 C41 C 0.01354 0.71081 0.67675
 C42 C -0.01439 0.71076 0.67665
 C43 C -0.02817 0.69379 0.69371
 C44 C -0.01442 0.67671 0.71070
 C45 C 0.01350 0.67679 0.71080
 C46 C 0.02726 0.69391 0.69390
 H47 H 0.04873 0.69380 0.69383
 H48 H -0.04967 0.69360 0.69349
 C49 C 0.98663 0.71027 0.32290
 C50 C 1.01451 0.71030 0.32290
 C51 C 1.02830 0.69340 0.30579
 C52 C 1.01456 0.67631 0.28881
 C53 C 0.98663 0.67631 0.28880
 C54 C 0.97288 0.69337 0.30578
 H55 H 0.95141 0.69322 0.30594
 H56 H 1.04978 0.69333 0.30600
 C57 C 0.98665 0.28887 0.67628
 C58 C 1.01458 0.28888 0.67633
 C59 C 1.02829 0.30585 0.69346
 C60 C 1.01448 0.32294 0.71035
 C61 C 0.98660 0.32294 0.71028
 C62 C 0.97287 0.30583 0.69333
 H63 H 0.95140 0.30599 0.69314
 H64 H 1.04978 0.30606 0.69342
 C65 C 0.32335 0.01299 0.28971
 C66 C 0.32339 -0.01492 0.28974
 C67 C 0.30633 -0.02867 0.30675
 C68 C 0.28941 -0.01490 0.32387
 C69 C 0.28940 0.01302 0.32382
 C70 C 0.30628 0.02674 0.30667
 H71 H 0.30641 0.04820 0.30679
 H72 H 0.30650 -0.05016 0.30691
 C73 C 0.67693 0.01391 0.71115
 C74 C 0.67699 -0.01396 0.71127
 C75 C 0.69411 -0.02777 0.69440
 C76 C 0.71102 -0.01406 0.67726
 C77 C 0.71096 0.01381 0.67715
 C78 C 0.69399 0.02762 0.69417
 H79 H 0.69380 0.04908 0.69392
 H80 H 0.69399 -0.04924 0.69434
 C81 C 0.32303 0.98727 0.71129
 C82 C 0.32305 1.01518 0.71124
 C83 C 0.30596 1.02892 0.69423
 C84 C 0.28904 1.01513 0.67711
 C85 C 0.28905 0.98722 0.67717
 C86 C 0.30596 0.97351 0.69434
 H87 H 0.30611 0.95205 0.69423
 H88 H 0.30611 1.05041 0.69405
 C89 C 0.67713 0.98610 0.28933
 C90 C 0.67716 1.01397 0.28929
 C91 C 0.69429 1.02774 0.30619
 C92 C 0.71125 1.01399 0.32331
 C93 C 0.71122 0.98607 0.32332
 C94 C 0.69423 0.97234 0.30625
 H95 H 0.69405 0.95088 0.30641
 H96 H 0.69410 1.04922 0.30626
 O97 O 0.88709 0.84950 0.47462
 O98 O 0.85059 0.88603 0.52609
 O99 O 0.88705 0.84949 0.52612
 O100 O 0.85063 0.88603 0.47460
 O101 O 0.81966 0.85512 0.47458
 O102 O 0.85605 0.81861 0.52604
 O103 O 0.81963 0.85512 0.52602
 O104 O 0.85609 0.81862 0.47460
 Cu105 Cu 0.87197 0.87088 0.50036
 Cu106 Cu 0.83473 0.83375 0.50031
 C107 C 0.87777 0.82786 0.46597
 C108 C 0.82891 0.87676 0.53469
 C109 C 0.87771 0.82785 0.53473
 C110 C 0.82896 0.87676 0.46594
 O111 O 0.15021 0.11355 0.52645
 O112 O 0.11368 0.14988 0.47483
 O113 O 0.15018 0.11338 0.47496
 O114 O 0.11368 0.15002 0.52633
 O115 O 0.14464 0.18095 0.52623
 O116 O 0.18111 0.14434 0.47490
 O117 O 0.14464 0.18080 0.47478
 O118 O 0.18113 0.14451 0.52634
 Cu119 Cu 0.12881 0.12858 0.50066
 Cu120 Cu 0.16600 0.16577 0.50056
 C121 C 0.17188 0.12288 0.53506
 C122 C 0.12299 0.17150 0.46613
 C123 C 0.17184 0.12266 0.46631
 C124 C 0.12298 0.17171 0.53490
 O125 O 0.11380 0.85017 0.52564
 O126 O 0.15045 0.88656 0.47419
 O127 O 0.11396 0.85006 0.47415
 O128 O 0.15026 0.88670 0.52568
 O129 O 0.18122 0.85576 0.52584
 O130 O 0.14495 0.81916 0.47435
 O131 O 0.18141 0.85562 0.47440
 O132 O 0.14480 0.81927 0.52580
 Cu133 Cu 0.12899 0.87150 0.49990
 Cu134 Cu 0.16622 0.83433 0.50012
 C135 C 0.12310 0.82853 0.53435
 C136 C 0.17215 0.87725 0.46566
 C137 C 0.12331 0.82839 0.46560
 C138 C 0.17190 0.87743 0.53441
 O139 O 0.85014 0.11266 0.47372
 O140 O 0.88673 0.14920 0.52514
 O141 O 0.85020 0.11275 0.52522
 O142 O 0.88669 0.14907 0.47365
 O143 O 0.85576 0.18004 0.47363
 O144 O 0.81930 0.14376 0.52515
 O145 O 0.85579 0.18016 0.52507
 O146 O 0.81924 0.14366 0.47371
 Cu147 Cu 0.87156 0.12779 0.49944
 Cu148 Cu 0.83441 0.16503 0.49939
 C149 C 0.82848 0.12198 0.46508
 C150 C 0.87746 0.17088 0.53373
 C151 C 0.82856 0.12211 0.53385
 C152 C 0.87741 0.17073 0.46499
 O153 O 0.47407 0.88702 0.85099
 O154 O 0.52557 0.85032 0.88735
 O155 O 0.52560 0.88684 0.85092
 O156 O 0.47404 0.85054 0.88747
 O157 O 0.47388 0.81962 0.85651
 O158 O 0.52540 0.85589 0.81999
 O159 O 0.52537 0.81941 0.85639
 O160 O 0.47392 0.85607 0.82007
 Cu161 Cu 0.49983 0.87180 0.87231
 Cu162 Cu 0.49962 0.83463 0.83512
 C163 C 0.46536 0.87776 0.82935
 C164 C 0.53412 0.82864 0.87802
 C165 C 0.53415 0.87751 0.82926
 C166 C 0.46531 0.82891 0.87818
 O167 O 0.47403 0.11324 0.14981
 O168 O 0.52547 0.14985 0.11333
 O169 O 0.52556 0.11337 0.14981
 O170 O 0.47394 0.14970 0.11329
 O171 O 0.47387 0.18064 0.14422
 O172 O 0.52545 0.14435 0.18070
 O173 O 0.52535 0.18079 0.14427
 O174 O 0.47396 0.14422 0.18070
 Cu175 Cu 0.49976 0.12841 0.12844
 Cu176 Cu 0.49965 0.16562 0.16559
 C177 C 0.46537 0.12253 0.17145
 C178 C 0.53405 0.17153 0.12263
 C179 C 0.53417 0.12271 0.17145
 C180 C 0.46525 0.17135 0.12256
 O181 O 0.47355 0.15041 0.88641
 O182 O 0.52508 0.11380 0.85004
 O183 O 0.52509 0.15032 0.88649
 O184 O 0.47355 0.11389 0.84996
 O185 O 0.47365 0.14482 0.81903
 O186 O 0.52514 0.18122 0.85552
 O187 O 0.52514 0.14473 0.81911
 O188 O 0.47366 0.18130 0.85544
 Cu189 Cu 0.49931 0.12898 0.87135
 Cu190 Cu 0.49940 0.16613 0.83416
 C191 C 0.46496 0.17207 0.87708
 C192 C 0.53376 0.12307 0.82840
 C193 C 0.53377 0.17196 0.87718
 C194 C 0.46494 0.12319 0.82830
 O195 O 0.47339 0.85004 0.11409
 O196 O 0.52503 0.88656 0.15041
 O197 O 0.52492 0.85012 0.11389
 O198 O 0.47349 0.88649 0.15061
 O199 O 0.47370 0.85549 0.18147
 O200 O 0.52508 0.81916 0.14479
 O201 O 0.52519 0.85556 0.18127
 O202 O 0.47360 0.81909 0.14499
 Cu203 Cu 0.49919 0.87143 0.12913
 Cu204 Cu 0.49941 0.83420 0.16625
 C205 C 0.46482 0.82836 0.12339
 C206 C 0.53378 0.87724 0.17201
 C207 C 0.53363 0.82846 0.12312
 C208 C 0.46496 0.87715 0.17227
 O209 O 0.88680 0.52618 0.84923
 O210 O 0.85032 0.47472 0.88578
 O211 O 0.88683 0.47466 0.84932
 O212 O 0.85031 0.52623 0.88570
 O213 O 0.81937 0.52614 0.85474
 O214 O 0.85585 0.47462 0.81840
 O215 O 0.81939 0.47468 0.85483
 O216 O 0.85583 0.52609 0.81831
 Cu217 Cu 0.87169 0.50045 0.87063
 Cu218 Cu 0.83449 0.50037 0.83345
 C219 C 0.87749 0.53477 0.82756
 C220 C 0.82866 0.46607 0.87650
 C221 C 0.87752 0.46598 0.82769
 C222 C 0.82863 0.53483 0.87638
 O223 O 0.11352 0.52624 0.14986
 O224 O 0.15003 0.47489 0.11316
 O225 O 0.11355 0.47473 0.14962
 O226 O 0.15002 0.52641 0.11341
 O227 O 0.18096 0.52624 0.14436
 O228 O 0.14453 0.47462 0.18054
 O229 O 0.18097 0.47478 0.14411
 O230 O 0.14450 0.52608 0.18078
 Cu231 Cu 0.12865 0.50058 0.12839
 Cu232 Cu 0.16586 0.50042 0.16557
 C233 C 0.12283 0.53478 0.17155
 C234 C 0.17170 0.46621 0.12243
 C235 C 0.12287 0.46600 0.17123
 C236 C 0.17168 0.53500 0.12276
 O237 O 0.88647 0.47391 0.14896
 O238 O 0.84994 0.52548 0.11257
 O239 O 0.88649 0.52543 0.14902
 O240 O 0.84990 0.47396 0.11255
 O241 O 0.81902 0.47400 0.14353
 O242 O 0.85557 0.52541 0.17996
 O243 O 0.81906 0.52547 0.14355
 O244 O 0.85555 0.47395 0.17991
 Cu245 Cu 0.87132 0.49970 0.12765
 Cu246 Cu 0.83418 0.49971 0.16486
 C247 C 0.87720 0.46528 0.17062
 C248 C 0.82830 0.53413 0.12190
 C249 C 0.87723 0.53405 0.17068
 C250 C 0.82825 0.46534 0.12187
 O251 O 0.15008 0.52571 0.88694
 O252 O 0.11377 0.47423 0.85023
 O253 O 0.15024 0.47419 0.88673
 O254 O 0.11363 0.52573 0.85040
 O255 O 0.14464 0.52590 0.81954
 O256 O 0.18121 0.47440 0.85583
 O257 O 0.14477 0.47444 0.81936
 O258 O 0.18105 0.52587 0.85605
 Cu259 Cu 0.12880 0.49995 0.87170
 Cu260 Cu 0.16604 0.50017 0.83458
 C261 C 0.17173 0.53443 0.87771
 C262 C 0.12312 0.46570 0.82856
 C263 C 0.17194 0.46564 0.87743
 C264 C 0.12294 0.53446 0.82879
 C265 C 0.24283 0.37507 0.05441
 N266 N 0.22771 0.39300 0.04136
 N267 N 0.21328 0.41057 0.05472
 C268 C 0.21355 0.41074 0.08154
 N269 N 0.22865 0.39280 0.09460
 N270 N 0.24307 0.37523 0.08123
 C271 C 0.25885 0.35659 0.04001
 C272 C 0.27250 0.34133 0.02778
 C273 C 0.19851 0.43006 0.09592
 C274 C 0.18613 0.44647 0.10802
 C275 C 0.75688 0.62543 0.05436
 N276 N 0.75686 0.62529 0.08118
 N277 N 0.77135 0.60770 0.09444
 C278 C 0.78632 0.58972 0.08129
 N279 N 0.78637 0.58987 0.05447
 N280 N 0.77187 0.60746 0.04120
 C281 C 0.74078 0.64392 0.04006
 C282 C 0.72704 0.65920 0.02795
 C283 C 0.80141 0.57037 0.09557
 C284 C 0.81383 0.55392 0.10759
 C285 C 0.75723 0.37518 0.94448
 N286 N 0.75696 0.37535 0.91766
 N287 N 0.77146 0.39285 0.90429
 C288 C 0.78667 0.41070 0.91735
 N289 N 0.78696 0.41051 0.94417
 N290 N 0.77246 0.39301 0.95753
 C291 C 0.74113 0.35678 0.95888
 C292 C 0.72741 0.34159 0.97111
 C293 C 0.80177 0.42996 0.90297
 C294 C 0.81419 0.44634 0.89088
 C295 C 0.24258 0.62566 0.94589
 N296 N 0.22744 0.60774 0.95890
 N297 N 0.21306 0.59016 0.94550
 C298 C 0.21339 0.58998 0.91868
 N299 N 0.22851 0.60792 0.90567
 N300 N 0.24288 0.62550 0.91907
 C301 C 0.25856 0.64414 0.96034
 C302 C 0.27219 0.65940 0.97260
 C303 C 0.19842 0.57064 0.90426
 C304 C 0.18609 0.55421 0.89213
 C305 C 0.05547 0.24243 0.37446
 N306 N 0.08231 0.24255 0.37472
 N307 N 0.09557 0.22816 0.39240
 C308 C 0.08238 0.21320 0.41035
 N309 N 0.05553 0.21306 0.41007
 N310 N 0.04228 0.22746 0.39239
 C311 C 0.04119 0.25843 0.35587
 C312 C 0.02905 0.27207 0.34051
 C313 C 0.09665 0.19821 0.42978
 C314 C 0.10866 0.18587 0.44629
 C315 C 0.05510 0.75724 0.62531
 N316 N 0.08195 0.75702 0.62516
 N317 N 0.09530 0.77150 0.60765
 C318 C 0.08222 0.78664 0.58976
 N319 N 0.05538 0.78689 0.58993
 N320 N 0.04202 0.77241 0.60745
 C321 C 0.04070 0.74115 0.64372
 C322 C 0.02846 0.72744 0.65891
 C323 C 0.09660 0.80171 0.57048
 C324 C 0.10870 0.81411 0.55409
 C325 C 0.94539 0.75661 0.37466
 N326 N 0.95855 0.77162 0.39259
 N327 N 0.94527 0.78607 0.41020
 C328 C 0.91842 0.78595 0.41039
 N329 N 0.90526 0.77096 0.39244
 N330 N 0.91854 0.75651 0.37484
 C331 C 0.95970 0.74055 0.35614
 C332 C 0.97185 0.72687 0.34085
 C333 C 0.90413 0.80101 0.42975
 C334 C 0.89210 0.81341 0.44619
 C335 C 0.94525 0.24237 0.62475
 N336 N 0.91841 0.24252 0.62457
 N337 N 0.90509 0.22800 0.60704
 C338 C 0.91822 0.21290 0.58916
 N339 N 0.94506 0.21274 0.58935
 N340 N 0.95838 0.22726 0.60688
 C341 C 0.95960 0.25849 0.64318
 C342 C 0.97179 0.27222 0.65840
 C343 C 0.90389 0.19779 0.56986
 C344 C 0.89183 0.18535 0.55347
 C345 C 0.37465 0.05452 0.24307
 N346 N 0.37474 0.08135 0.24322
 N347 N 0.39219 0.09472 0.22866
 C348 C 0.41008 0.08165 0.21352
 N349 N 0.40998 0.05481 0.21336
 N350 N 0.39253 0.04145 0.22791
 C351 C 0.35630 0.04012 0.25924
 C352 C 0.34116 0.02789 0.27301
 C353 C 0.42931 0.09603 0.19838
 C354 C 0.44566 0.10813 0.18593
 C355 C 0.62514 0.05525 0.75738
 N356 N 0.60719 0.04214 0.77240
 N357 N 0.58958 0.05545 0.78682
 C358 C 0.58938 0.08229 0.78664
 N359 N 0.60734 0.09540 0.77164
 N360 N 0.62496 0.08208 0.75722
 C361 C 0.64366 0.04090 0.74136
 C362 C 0.65896 0.02872 0.72771
 C363 C 0.57001 0.09663 0.80165
 C364 C 0.55356 0.10869 0.81401
 C365 C 0.37444 0.94578 0.75790
 N366 N 0.39242 0.95886 0.77293
 N367 N 0.40991 0.94550 0.78746
 C368 C 0.40995 0.91867 0.78740
 N369 N 0.39195 0.90559 0.77238
 N370 N 0.37446 0.91895 0.75785
 C371 C 0.35605 0.96017 0.74175
 C372 C 0.34087 0.97239 0.72798
 C373 C 0.42923 0.90429 0.80251
 C374 C 0.44562 0.89218 0.81492
 C375 C 0.62530 0.94488 0.24303
 N376 N 0.62515 0.91805 0.24310
 N377 N 0.60751 0.90477 0.22867
 C378 C 0.58949 0.91792 0.21375
 N379 N 0.58966 0.94475 0.21366
 N380 N 0.60729 0.95804 0.22808
 C381 C 0.64384 0.95919 0.25906
 C382 C 0.65916 0.97134 0.27274
 C383 C 0.57009 0.90362 0.19873
 C384 C 0.55361 0.89158 0.18638
 C385 C 0.37373 0.24363 0.94455
 N386 N 0.39152 0.22843 0.95771
 N387 N 0.40909 0.21391 0.94446
 C388 C 0.40940 0.21414 0.91764
 N389 N 0.39159 0.22931 0.90447
 N390 N 0.37402 0.24384 0.91773
 C391 C 0.35527 0.25977 0.95884
 C392 C 0.34003 0.27353 0.97099
 C393 C 0.42874 0.19902 0.90337
 C394 C 0.44517 0.18657 0.89137
 C395 C 0.62548 0.75695 0.94521
 N396 N 0.62521 0.75692 0.91839
 N397 N 0.60761 0.77147 0.90520
 C398 C 0.58974 0.78650 0.91843
 N399 N 0.59002 0.78655 0.94526
 N400 N 0.60763 0.77200 0.95844
 C401 C 0.64399 0.74079 0.95942
 C402 C 0.65927 0.72702 0.97151
 C403 C 0.57037 0.80165 0.90423
 C404 C 0.55391 0.81412 0.89228
 C405 C 0.37343 0.75698 0.05597
 N406 N 0.37382 0.75668 0.08279
 N407 N 0.39142 0.77117 0.09604
 C408 C 0.40916 0.78641 0.08288
 N409 N 0.40874 0.78673 0.05606
 N410 N 0.39114 0.77223 0.04280
 C411 C 0.35494 0.74087 0.04168
 C412 C 0.33969 0.72713 0.02952
 C413 C 0.42853 0.80149 0.09713
 C414 C 0.44500 0.81391 0.10912
 C415 C 0.62512 0.24315 0.05508
 N416 N 0.62504 0.24312 0.08190
 N417 N 0.60749 0.22858 0.09516
 C418 C 0.58950 0.21363 0.08200
 N419 N 0.58960 0.21365 0.05518
 N420 N 0.60715 0.22819 0.04192
 C421 C 0.64358 0.25930 0.04080
 C422 C 0.65883 0.27305 0.02867
 C423 C 0.57020 0.19849 0.09628
 C424 C 0.55379 0.18603 0.10830
 C425 C 0.24341 0.05547 0.62635
 N426 N 0.22834 0.04228 0.60848
 N427 N 0.21382 0.05552 0.59090
 C428 C 0.21392 0.08235 0.59066
 N429 N 0.22896 0.09555 0.60854
 N430 N 0.24349 0.08231 0.62612
 C431 C 0.25954 0.04120 0.64484
 C432 C 0.27329 0.02908 0.66011
 C433 C 0.19879 0.09661 0.57131
 C434 C 0.18635 0.10860 0.55486
 C435 C 0.75694 0.05441 0.37393
 N436 N 0.77199 0.04124 0.39183
 N437 N 0.78652 0.05450 0.40939
 C438 C 0.78644 0.08134 0.40958
 N439 N 0.77141 0.09451 0.39166
 N440 N 0.75688 0.08125 0.37410
 C441 C 0.74080 0.04012 0.35547
 C442 C 0.72703 0.02797 0.34024
 C443 C 0.80156 0.09562 0.42891
 C444 C 0.81400 0.10764 0.44533
 C445 C 0.75752 0.94458 0.62575
 N446 N 0.75745 0.91774 0.62565
 N447 N 0.77195 0.90442 0.60811
 C448 C 0.78695 0.91753 0.59015
 N449 N 0.78704 0.94436 0.59027
 N450 N 0.77255 0.95769 0.60780
 C451 C 0.74141 0.95893 0.64418
 C452 C 0.72768 0.97112 0.65940
 C453 C 0.80204 0.90318 0.57085
 C454 C 0.81445 0.89112 0.55444
 C455 C 0.24380 0.94472 0.37458
 N456 N 0.24391 0.91789 0.37480
 N457 N 0.22937 0.90464 0.39235
 C458 C 0.21429 0.91782 0.41020
 N459 N 0.21416 0.94465 0.40996
 N460 N 0.22870 0.95790 0.39242
 C461 C 0.25994 0.95900 0.35611
 C462 C 0.27368 0.97114 0.34086
 C463 C 0.19914 0.90355 0.42951
 C464 C 0.18667 0.89155 0.44591
 C465 C 0.05562 0.37459 0.75690
 N466 N 0.04244 0.39251 0.77192
 N467 N 0.05571 0.41006 0.78645
 C468 C 0.08255 0.41023 0.78641
 N469 N 0.09573 0.39229 0.77142
 N470 N 0.08246 0.37474 0.75688
 C471 C 0.04133 0.35612 0.74077
 C472 C 0.02921 0.34087 0.72702
 C473 C 0.09683 0.42953 0.80155
 C474 C 0.10883 0.44594 0.81402
 C475 C 0.05509 0.62575 0.24315
 N476 N 0.04196 0.60792 0.22800
 N477 N 0.05527 0.59039 0.21347
 C478 C 0.08211 0.59017 0.21366
 N479 N 0.09524 0.60802 0.22880
 N480 N 0.08193 0.62555 0.24332
 C481 C 0.04075 0.64418 0.25928
 C482 C 0.02856 0.65939 0.27304
 C483 C 0.09644 0.57089 0.19853
 C484 C 0.10848 0.55450 0.18607
 C485 C 0.94504 0.37407 0.24185
 N486 N 0.95816 0.39209 0.22692
 N487 N 0.94483 0.40966 0.21245
 C488 C 0.91798 0.40972 0.21247
 N489 N 0.90487 0.39168 0.22738
 N490 N 0.91820 0.37412 0.24185
 C491 C 0.95940 0.35561 0.25794
 C492 C 0.97157 0.34038 0.27168
 C493 C 0.90363 0.42906 0.19742
 C494 C 0.89157 0.44549 0.18504
 C495 C 0.94510 0.62598 0.75620
 N496 N 0.91826 0.62574 0.75601
 N497 N 0.90498 0.60816 0.77049
 C498 C 0.91814 0.59030 0.78559
 N499 N 0.94498 0.59056 0.78579
 N500 N 0.95827 0.60813 0.77132
 C501 C 0.95942 0.64446 0.74012
 C502 C 0.97159 0.65973 0.72641
 C503 C 0.90384 0.57096 0.80067
 C504 C 0.89181 0.55454 0.81309
 C505 C 0.75703 0.62583 0.94406
 N506 N 0.77216 0.60796 0.95718
 N507 N 0.78671 0.59045 0.94387
 C508 C 0.78657 0.59028 0.91705
 N509 N 0.77146 0.60817 0.90393
 N510 N 0.75691 0.62568 0.91724
 C511 C 0.74086 0.64423 0.95840
 C512 C 0.72708 0.65942 0.97057
 C513 C 0.80170 0.57100 0.90273
 C514 C 0.81415 0.55459 0.89070
 C515 C 0.24349 0.37426 0.94466
 N516 N 0.24362 0.37457 0.91784
 N517 N 0.22909 0.39218 0.90464
 C518 C 0.21399 0.41000 0.91786
 N519 N 0.21385 0.40967 0.94468
 N520 N 0.22838 0.39207 0.95788
 C521 C 0.25962 0.35574 0.95890
 C522 C 0.27336 0.34046 0.97101
 C523 C 0.19887 0.42937 0.90365
 C524 C 0.18642 0.44584 0.89169
 C525 C 0.24308 0.62651 0.05567
 N526 N 0.24322 0.62617 0.08249
 N527 N 0.22871 0.60855 0.09567
 C528 C 0.21363 0.59073 0.08242
 N529 N 0.21347 0.59109 0.05560
 N530 N 0.22798 0.60871 0.04242
 C531 C 0.25921 0.64502 0.04146
 C532 C 0.27296 0.66029 0.02937
 C533 C 0.19854 0.57133 0.09661
 C534 C 0.18612 0.55484 0.10854
 C535 C 0.75658 0.37429 0.05434
 N536 N 0.75652 0.37447 0.08116
 N537 N 0.77108 0.39200 0.09442
 C538 C 0.78614 0.40988 0.08126
 N539 N 0.78623 0.40968 0.05443
 N540 N 0.77166 0.39215 0.04117
 C541 C 0.74040 0.35586 0.04005
 C542 C 0.72661 0.34065 0.02790
 C543 C 0.80130 0.42918 0.09553
 C544 C 0.81375 0.44559 0.10755
 C545 C 0.94521 0.75636 0.62594
 N546 N 0.95840 0.77145 0.60810
 N547 N 0.94514 0.78597 0.59053
 C548 C 0.91830 0.78584 0.59027
 N549 N 0.90511 0.77077 0.60813
 N550 N 0.91837 0.75625 0.62570
 C551 C 0.95950 0.74024 0.64441
 C552 C 0.97164 0.72650 0.65967
 C553 C 0.90403 0.80095 0.57094
 C554 C 0.89202 0.81338 0.55450
 C555 C 0.94514 0.24195 0.37386
 N556 N 0.91830 0.24188 0.37384
 N557 N 0.90500 0.22739 0.39138
 C558 C 0.91813 0.21254 0.40947
 N559 N 0.94498 0.21260 0.40947
 N560 N 0.95828 0.22708 0.39192
 C561 C 0.95947 0.25807 0.35543
 C562 C 0.97162 0.27182 0.34022
 C563 C 0.90381 0.19749 0.42878
 C564 C 0.89176 0.18512 0.44521
 C565 C 0.05518 0.24324 0.62584
 N566 N 0.08202 0.24345 0.62563
 N567 N 0.09535 0.22893 0.60812
 C568 C 0.08224 0.21377 0.59028
 N569 N 0.05540 0.21354 0.59050
 N570 N 0.04207 0.22805 0.60802
 C571 C 0.04082 0.25937 0.64424
 C572 C 0.02862 0.27312 0.65943
 C573 C 0.09658 0.19865 0.57101
 C574 C 0.10863 0.18621 0.55462
 C575 C 0.05573 0.75681 0.37451
 N576 N 0.08258 0.75670 0.37470
 N577 N 0.09586 0.77122 0.39225
 C578 C 0.08271 0.78630 0.41013
 N579 N 0.05586 0.78642 0.40992
 N580 N 0.04257 0.77190 0.39238
 C581 C 0.04142 0.74069 0.35606
 C582 C 0.02927 0.72695 0.34081
 C583 C 0.09701 0.80142 0.42943
 C584 C 0.10902 0.81388 0.44584
 C585 C 0.62540 0.94493 0.75783
 N586 N 0.62524 0.91809 0.75780
 N587 N 0.60767 0.90484 0.77231
 C588 C 0.58973 0.91803 0.78728
 N589 N 0.58990 0.94486 0.78733
 N590 N 0.60747 0.95811 0.77283
 C591 C 0.64386 0.95920 0.74171
 C592 C 0.65910 0.97131 0.72795
 C593 C 0.57039 0.90377 0.80237
 C594 C 0.55394 0.89178 0.81479
 C595 C 0.37394 0.94464 0.24401
 N596 N 0.37424 0.91781 0.24422
 N597 N 0.39177 0.90455 0.22966
 C598 C 0.40952 0.91771 0.21445
 N599 N 0.40920 0.94455 0.21421
 N600 N 0.39167 0.95781 0.22878
 C601 C 0.35551 0.95894 0.26017
 C602 C 0.34031 0.97109 0.27396
 C603 C 0.42882 0.90344 0.19929
 C604 C 0.44522 0.89144 0.18681
 C605 C 0.62549 0.05518 0.24283
 N606 N 0.62525 0.08201 0.24299
 N607 N 0.60767 0.09529 0.22849
 C608 C 0.58979 0.08213 0.21341
 N609 N 0.59004 0.05530 0.21323
 N610 N 0.60763 0.04202 0.22772
 C611 C 0.64397 0.04088 0.25893
 C612 C 0.65924 0.02874 0.27265
 C613 C 0.57043 0.09642 0.19832
 C614 C 0.55398 0.10842 0.18591
 C615 C 0.37368 0.05565 0.75688
 N616 N 0.39150 0.04249 0.77203
 N617 N 0.40908 0.05576 0.78654
 C618 C 0.40936 0.08259 0.78633
 N619 N 0.39152 0.09575 0.77119
 N620 N 0.37395 0.08248 0.75668
 C621 C 0.35522 0.04135 0.74075
 C622 C 0.33999 0.02918 0.72700
 C623 C 0.42871 0.09687 0.80142
 C624 C 0.44515 0.10888 0.81384
 C625 C 0.62470 0.75737 0.05499
 N626 N 0.62455 0.75709 0.08181
 N627 N 0.60701 0.77152 0.09520
 C628 C 0.58908 0.78667 0.08217
 N629 N 0.58924 0.78697 0.05535
 N630 N 0.60679 0.77254 0.04196
 C631 C 0.64314 0.74135 0.04056
 C632 C 0.65837 0.72770 0.02830
 C633 C 0.56978 0.80169 0.09658
 C634 C 0.55338 0.81406 0.10870
 C635 C 0.37434 0.24269 0.05445
 N636 N 0.37447 0.24295 0.08127
 N637 N 0.39195 0.22844 0.09467
 C638 C 0.40983 0.21323 0.08165
 N639 N 0.40968 0.21295 0.05483
 N640 N 0.39220 0.22746 0.04143
 C641 C 0.35599 0.25882 0.04002
 C642 C 0.34084 0.27257 0.02776
 C643 C 0.42909 0.19816 0.09607
 C644 C 0.44549 0.18576 0.10818
 C645 C 0.62503 0.24327 0.94484
 N646 N 0.60702 0.22834 0.95798
 N647 N 0.58944 0.21385 0.94470
 C648 C 0.58934 0.21386 0.91787
 N649 N 0.60736 0.22877 0.90474
 N650 N 0.62494 0.24326 0.91802
 C651 C 0.64351 0.25936 0.95915
 C652 C 0.65878 0.27309 0.97129
 C653 C 0.56999 0.19878 0.90357
 C654 C 0.55355 0.18639 0.89153
 C655 C 0.37421 0.75781 0.94613
 N656 N 0.39210 0.77296 0.95919
 N657 N 0.40964 0.78741 0.94583
 C658 C 0.40980 0.78715 0.91901
 N659 N 0.39189 0.77202 0.90595
 N660 N 0.37435 0.75757 0.91931
 C661 C 0.35579 0.74175 0.96053
 C662 C 0.34059 0.72804 0.97275
 C663 C 0.42911 0.80217 0.90463
 C664 C 0.44553 0.81453 0.89255
 C665 C 0.75766 0.94459 0.37482
 N666 N 0.75740 0.91775 0.37506
 N667 N 0.77189 0.90442 0.39260
 C668 C 0.78707 0.91752 0.41044
 N669 N 0.78735 0.94436 0.41018
 N670 N 0.77287 0.95769 0.39264
 C671 C 0.74157 0.95896 0.35639
 C672 C 0.72785 0.97117 0.34118
 C673 C 0.80214 0.90318 0.42975
 C674 C 0.81454 0.89112 0.44618
 C675 C 0.24283 0.94556 0.62560
 N676 N 0.24319 0.91873 0.62540
 N677 N 0.22879 0.90533 0.60783
 C678 C 0.21360 0.91836 0.58995
 N679 N 0.21322 0.94519 0.59017
 N680 N 0.22762 0.95859 0.60773
 C681 C 0.25884 0.96001 0.64405
 C682 C 0.27249 0.97228 0.65928
 C683 C 0.19861 0.90394 0.57062
 C684 C 0.18628 0.89183 0.55419
 C685 C 0.24308 0.05461 0.37534
 N686 N 0.22790 0.04156 0.39320
 N687 N 0.21345 0.05493 0.41072
 C688 C 0.21374 0.08177 0.41092
 N689 N 0.22889 0.09482 0.39304
 N690 N 0.24335 0.08144 0.37552
 C691 C 0.25913 0.04019 0.35691
 C692 C 0.27281 0.02794 0.34170
 C693 C 0.19868 0.09616 0.43020
 C694 C 0.18629 0.10826 0.44659
 C695 C 0.75733 0.05485 0.62534
 N696 N 0.77235 0.04163 0.60746
 N697 N 0.78682 0.05484 0.58983
 C698 C 0.78669 0.08167 0.58954
 N699 N 0.77169 0.09489 0.60743
 N700 N 0.75722 0.08168 0.62506
 C701 C 0.74127 0.04061 0.64387
 C702 C 0.72757 0.02852 0.65918
 C703 C 0.80174 0.09589 0.57014
 C704 C 0.81413 0.10786 0.55366
 C705 C 0.94513 0.62493 0.24223
 N706 N 0.91829 0.62476 0.24241
 N707 N 0.90495 0.60727 0.22787
 C708 C 0.91805 0.58942 0.21270
 N709 N 0.94489 0.58961 0.21250
 N710 N 0.95823 0.60710 0.22704
 C711 C 0.95951 0.64331 0.25838
 C712 C 0.97173 0.65848 0.27213
 C713 C 0.90369 0.57016 0.19758
 C714 C 0.89161 0.55378 0.18514
 C715 C 0.94527 0.37464 0.75659
 N716 N 0.91842 0.37483 0.75642
 N717 N 0.90511 0.39243 0.77086
 C718 C 0.91825 0.41036 0.78590
 N719 N 0.94509 0.41015 0.78608
 N720 N 0.95840 0.39255 0.77164
 C721 C 0.95961 0.35614 0.74054
 C722 C 0.97178 0.34087 0.72686
 C723 C 0.90392 0.42972 0.80092
 C724 C 0.89187 0.44618 0.81329
 C725 C 0.05500 0.62543 0.75739
 N726 N 0.04191 0.60754 0.77249
 N727 N 0.05525 0.59004 0.78702
 C728 C 0.08210 0.58990 0.78688
 N729 N 0.09519 0.60781 0.77180
 N730 N 0.08185 0.62532 0.75727
 C731 C 0.04062 0.64381 0.74124
 C732 C 0.02840 0.65898 0.72748
 C733 C 0.09646 0.57062 0.80198
 C734 C 0.10854 0.55422 0.81438
 C735 C 0.05539 0.37443 0.24218
 N736 N 0.08224 0.37460 0.24222
 N737 N 0.09548 0.39224 0.22780
 C738 C 0.08228 0.41024 0.21290
 N739 N 0.05544 0.41005 0.21283
 N740 N 0.04219 0.39241 0.22726
 C741 C 0.04112 0.35589 0.25822
 C742 C 0.02900 0.34058 0.27189
 C743 C 0.09654 0.42965 0.19790
 C744 C 0.10855 0.44615 0.18557
   
