data_POSCAR
  _audit_creation_date              2014-09-24
  _audit_creation_method            'ToBaCCo'
  _symmetry_space_group_name_H-M    'P1'
  _symmetry_Int_Tables_number       1
  _symmetry_cell_setting            triclinic
  loop_
  _symmetry_equiv_pos_as_xyz
 x,y,z
_cell_length_a 46.9109
_cell_length_b 46.7634
_cell_length_c 57.4612
_cell_angle_alpha 91.259200
_cell_angle_beta 91.275100
_cell_angle_gamma 89.133000
loop_
  _atom_site_label
  _atom_site_type_symbol
  _atom_site_fract_x
  _atom_site_fract_y
  _atom_site_fract_z
C1 C 1.22224 0.27455 0.28019
 H2 H 1.22324 0.25145 0.28075
 C3 C 1.20353 0.28976 0.29450
 H4 H 1.19033 0.27818 0.30619
 C5 C 1.23830 0.31754 0.26411
 H6 H 1.25141 0.32823 0.25189
 C7 C 1.22025 0.33369 0.27853
 H8 H 1.21989 0.35678 0.27746
 N9 N 1.23913 0.28851 0.26539
 C10 C 1.25007 0.21663 0.21758
 H11 H 1.27231 0.21097 0.22036
 C12 C 1.23282 0.19934 0.20322
 H13 H 1.24197 0.18033 0.19508
 C14 C 1.21141 0.24871 0.22434
 H15 H 1.20322 0.26818 0.23236
 C16 C 1.19352 0.23226 0.20988
 H17 H 1.17157 0.23913 0.20717
 Zn18 Zn 1.26289 0.26445 0.24712
 N19 N 1.23910 0.24066 0.22800
 C20 C 1.27719 0.21439 0.27175
 N21 N 1.28507 0.24174 0.26803
 C22 C 1.30729 0.25355 0.28020
 C23 C 1.32289 0.23760 0.29650
 C24 C 1.29223 0.19758 0.28772
 C25 C 1.28737 0.27835 0.20465
 C26 C 1.30471 0.29276 0.18958
 C27 C 1.32019 0.32312 0.22180
 C28 C 1.30285 0.30773 0.23640
 N29 N 1.28682 0.28577 0.22767
 H30 H 1.25871 0.20568 0.26278
 H31 H 1.31283 0.27551 0.27752
 H32 H 1.34041 0.24780 0.30586
 H33 H 1.28515 0.17593 0.29014
 H34 H 1.27440 0.26116 0.19780
 H35 H 1.30474 0.28636 0.17135
 H36 H 1.33268 0.34059 0.22902
 H37 H 1.30187 0.31372 0.25464
 C38 C 1.20415 0.20717 0.19915
 C39 C 1.20252 0.31972 0.29390
 C40 C 1.32138 0.31550 0.19807
 C41 C 1.31552 0.20904 0.30058
 C42 C 0.71437 -0.21531 0.27035
 H43 H 0.70390 -0.22863 0.25728
 C44 C 0.69809 -0.20072 0.28699
 H45 H 0.67512 -0.20274 0.28624
 C46 C 0.75698 -0.19765 0.28786
 H47 H 0.78004 -0.19704 0.28827
 C48 C 0.74155 -0.18274 0.30484
 H49 H 0.75296 -0.17049 0.31815
 N50 N 0.74328 -0.21354 0.27109
 C51 C 0.74676 -0.28723 0.22948
 H52 H 0.76198 -0.29753 0.24102
 C53 C 0.73040 -0.30395 0.21403
 H54 H 0.73309 -0.32698 0.21416
 C55 C 0.72555 -0.24483 0.21479
 H56 H 0.72399 -0.22172 0.21513
 C57 C 0.70872 -0.26075 0.19903
 H58 H 0.69419 -0.24963 0.18732
 Zn59 Zn 0.76635 -0.23569 0.25077
 N60 N 0.74381 -0.25824 0.22984
 C61 C 0.77425 -0.27669 0.28432
 N62 N 0.78887 -0.25976 0.26998
 C63 C 0.81787 -0.25978 0.27026
 C64 C 0.83329 -0.27805 0.28497
 C65 C 0.78875 -0.29527 0.29923
 C66 C 0.78612 -0.18297 0.23416
 C67 C 0.80254 -0.16566 0.22036
 C68 C 0.82524 -0.20820 0.20435
 C69 C 0.80809 -0.22471 0.21818
 N70 N 0.78931 -0.21193 0.23295
 H71 H 0.75118 -0.27585 0.28401
 H72 H 0.82913 -0.24559 0.25922
 H73 H 0.85636 -0.27787 0.28489
 H74 H 0.77657 -0.30868 0.31034
 H75 H 0.77058 -0.17325 0.24557
 H76 H 0.79966 -0.14266 0.22153
 H77 H 0.84009 -0.21882 0.19274
 H78 H 0.80974 -0.24780 0.21720
 C79 C 0.71096 -0.29077 0.19857
 C80 C 0.71168 -0.18437 0.30469
 C81 C 0.82250 -0.17825 0.20528
 C82 C 0.81869 -0.29622 0.29964
 C83 C 0.71122 0.26175 -0.22418
 H84 H 0.71091 0.23861 -0.22461
 C85 C 0.69394 0.27714 -0.20871
 H86 H 0.68026 0.26560 -0.19738
 C87 C 0.73021 0.30469 -0.23800
 H88 H 0.74487 0.31537 -0.24899
 C89 C 0.71331 0.32092 -0.22283
 H90 H 0.71500 0.34399 -0.22262
 N91 N 0.72881 0.27565 -0.23848
 C92 C 0.74782 0.21467 -0.29485
 H93 H 0.77087 0.21463 -0.29375
 C94 C 0.73393 0.19874 -0.31240
 H95 H 0.74653 0.18633 -0.32464
 C96 C 0.70360 0.23169 -0.28048
 H97 H 0.69190 0.24503 -0.26832
 C98 C 0.68883 0.21615 -0.29779
 H99 H 0.66577 0.21747 -0.29850
 Zn100 Zn 0.75340 0.25335 -0.25753
 N101 N 0.73257 0.23060 -0.27930
 C102 C 0.77622 0.20130 -0.23950
 N103 N 0.77609 0.23035 -0.23762
 C104 C 0.79154 0.24414 -0.22065
 C105 C 0.80849 0.22869 -0.20499
 C106 C 0.79285 0.18497 -0.22414
 C107 C 0.76306 0.29433 -0.29064
 C108 C 0.77867 0.31189 -0.30476
 C109 C 0.82201 0.29338 -0.28673
 C110 C 0.80546 0.27628 -0.27288
 N111 N 0.77655 0.27722 -0.27496
 H112 H 0.76327 0.19072 -0.25276
 H113 H 0.79067 0.26725 -0.21935
 H114 H 0.82065 0.24019 -0.19167
 H115 H 0.79268 0.16187 -0.22593
 H116 H 0.74003 0.29424 -0.29218
 H117 H 0.76708 0.32525 -0.31701
 H118 H 0.84499 0.29200 -0.28466
 H119 H 0.81581 0.26198 -0.26074
 C120 C 0.70402 0.19947 -0.31412
 C121 C 0.69498 0.30717 -0.20779
 C122 C 0.80874 0.31160 -0.30311
 C123 C 0.80933 0.19867 -0.20660
 C124 C 1.20861 -0.23029 -0.21404
 H125 H 1.20704 -0.25333 -0.21366
 C126 C 1.19097 -0.21315 -0.20012
 H127 H 1.17587 -0.22322 -0.18904
 C128 C 1.23053 -0.18934 -0.22880
 H129 H 1.24619 -0.18016 -0.23981
 C130 C 1.21363 -0.17139 -0.21484
 H131 H 1.21625 -0.14845 -0.21549
 N132 N 1.22744 -0.21822 -0.22841
 C133 C 1.23982 -0.28597 -0.28071
 H134 H 1.26287 -0.28717 -0.28049
 C135 C 1.22415 -0.30386 -0.29575
 H136 H 1.23542 -0.31883 -0.30700
 C137 C 1.19739 -0.26444 -0.26656
 H138 H 1.18703 -0.24861 -0.25557
 C139 C 1.18085 -0.28189 -0.28138
 H140 H 1.15786 -0.27948 -0.28132
 Zn141 Zn 1.24985 -0.24330 -0.24715
 N142 N 1.22632 -0.26703 -0.26628
 C143 C 1.27031 -0.29459 -0.22644
 N144 N 1.27296 -0.26569 -0.22693
 C145 C 1.29162 -0.25178 -0.21240
 C146 C 1.30905 -0.26707 -0.19691
 C147 C 1.28733 -0.31073 -0.21123
 C148 C 1.25890 -0.20496 -0.28260
 C149 C 1.27403 -0.19061 -0.29927
 C150 C 1.31728 -0.21379 -0.28527
 C151 C 1.30133 -0.22743 -0.26861
 N152 N 1.27268 -0.22275 -0.26756
 H153 H 1.25483 -0.30522 -0.23764
 H154 H 1.29299 -0.22873 -0.21293
 H155 H 1.32384 -0.25553 -0.18558
 H156 H 1.28487 -0.33371 -0.21117
 H157 H 1.23601 -0.20217 -0.28175
 H158 H 1.26255 -0.17663 -0.31110
 H159 H 1.34002 -0.21793 -0.28598
 H160 H 1.31177 -0.24230 -0.25696
 C161 C 1.19422 -0.30199 -0.29621
 C162 C 1.19329 -0.18327 -0.20046
 C163 C 1.30360 -0.19511 -0.30090
 C164 C 1.30709 -0.29700 -0.19621
 C165 C 0.25551 0.20791 0.71871
 H166 H 0.23276 0.21046 0.71642
 C167 C 0.27043 0.18986 0.70347
 H168 H 0.25882 0.17898 0.68949
 C169 C 0.29809 0.21864 0.73981
 H170 H 0.30878 0.22949 0.75422
 C171 C 0.31388 0.20087 0.72490
 H172 H 0.33665 0.19857 0.72792
 N173 N 0.26945 0.22210 0.73637
 C174 C 0.20801 0.23862 0.79114
 H175 H 0.20742 0.26177 0.79181
 C176 C 0.19256 0.22328 0.80703
 H177 H 0.18002 0.23499 0.81977
 C178 C 0.22576 0.19565 0.77394
 H179 H 0.23922 0.18495 0.76136
 C180 C 0.20970 0.17941 0.78884
 H181 H 0.21108 0.15631 0.78735
 Zn182 Zn 0.24843 0.24678 0.75665
 N183 N 0.22501 0.22470 0.77560
 C184 C 0.20085 0.25971 0.72828
 N185 N 0.22429 0.27143 0.73881
 C186 C 0.23006 0.29966 0.73652
 C187 C 0.21279 0.31682 0.72222
 C188 C 0.18307 0.27603 0.71379
 C189 C 0.27316 0.26685 0.79934
 C190 C 0.29083 0.28357 0.81369
 C191 C 0.31261 0.30183 0.77948
 C192 C 0.29406 0.28510 0.76571
 N193 N 0.27440 0.26844 0.77577
 H194 H 0.19592 0.23757 0.73109
 H195 H 0.24821 0.30898 0.74549
 H196 H 0.21818 0.33905 0.72026
 H197 H 0.16486 0.26600 0.70527
 H198 H 0.25843 0.25271 0.80722
 H199 H 0.28907 0.28231 0.83240
 H200 H 0.32776 0.31535 0.77120
 H201 H 0.29519 0.28553 0.74694
 C202 C 0.19345 0.19316 0.80622
 C203 C 0.30006 0.18628 0.70636
 C204 C 0.31065 0.30157 0.80379
 C205 C 0.18921 0.30490 0.71028
 C206 C 0.75476 0.70889 0.71313
 H207 H 0.73198 0.70589 0.71385
 C208 C 0.77099 0.69221 0.69776
 H209 H 0.76047 0.67639 0.68667
 C210 C 0.79594 0.73350 0.72656
 H211 H 0.80551 0.74986 0.73763
 C212 C 0.81292 0.71762 0.71115
 H213 H 0.83556 0.72169 0.71075
 N214 N 0.76745 0.72872 0.72740
 C215 C 0.70123 0.73914 0.77890
 H216 H 0.69774 0.76201 0.77798
 C217 C 0.68484 0.72310 0.79362
 H218 H 0.66867 0.73405 0.80377
 C219 C 0.72730 0.69776 0.76710
 H220 H 0.74430 0.68811 0.75711
 C221 C 0.71183 0.68093 0.78202
 H222 H 0.71697 0.65831 0.78292
 Zn223 Zn 0.74388 0.75050 0.74767
 N224 N 0.72165 0.72629 0.76574
 C225 C 0.69176 0.76821 0.72613
 N226 N 0.71991 0.77430 0.72898
 C227 C 0.73164 0.79626 0.71756
 C228 C 0.71466 0.81379 0.70331
 C229 C 0.67410 0.78493 0.71185
 C230 C 0.78454 0.75649 0.78311
 C231 C 0.80044 0.76987 0.80092
 C232 C 0.77829 0.81491 0.79051
 C233 C 0.76282 0.80063 0.77283
 N234 N 0.76627 0.77192 0.76943
 H235 H 0.68299 0.75000 0.73456
 H236 H 0.75424 0.80018 0.71955
 H237 H 0.72440 0.83123 0.69447
 H238 H 0.65177 0.77963 0.70988
 H239 H 0.78644 0.73359 0.78033
 H240 H 0.81470 0.75703 0.81162
 H241 H 0.77503 0.83772 0.79306
 H242 H 0.74753 0.81240 0.76232
 C243 C 0.69015 0.69353 0.79558
 C244 C 0.80048 0.69649 0.69661
 C245 C 0.79731 0.79946 0.80495
 C246 C 0.68545 0.80818 0.70029
 C247 C 0.74616 0.19688 0.21956
 H248 H 0.72310 0.19727 0.21860
 C249 C 0.76154 0.18046 0.20344
 H250 H 0.75005 0.16816 0.19020
 C251 C 0.78893 0.21333 0.23761
 H252 H 0.79954 0.22668 0.25059
 C253 C 0.80517 0.19729 0.22178
 H254 H 0.82819 0.19827 0.22304
 N255 N 0.75996 0.21281 0.23625
 C256 C 0.69434 0.22761 0.28825
 H257 H 0.69387 0.25074 0.28931
 C258 C 0.67615 0.21195 0.30190
 H259 H 0.66170 0.22331 0.31340
 C260 C 0.71422 0.18489 0.27222
 H261 H 0.72939 0.17438 0.26091
 C262 C 0.69654 0.16840 0.28566
 H263 H 0.69817 0.14531 0.28427
 Zn264 Zn 0.73709 0.23648 0.25575
 N265 N 0.71265 0.21396 0.27356
 C266 C 0.68694 0.26194 0.23492
 N267 N 0.71594 0.26080 0.23560
 C268 C 0.73148 0.27648 0.22095
 C269 C 0.71797 0.29472 0.20517
 C270 C 0.67250 0.27991 0.21932
 C271 C 0.77743 0.24524 0.29229
 C272 C 0.79481 0.26099 0.30779
 C273 C 0.77545 0.30443 0.29138
 C274 C 0.75851 0.28787 0.27620
 N275 N 0.76007 0.25881 0.27666
 H276 H 0.67493 0.24880 0.24629
 H277 H 0.75451 0.27480 0.22161
 H278 H 0.73088 0.30704 0.19378
 H279 H 0.64942 0.28055 0.21907
 H280 H 0.77794 0.22211 0.29257
 H281 H 0.80866 0.24972 0.31992
 H282 H 0.77392 0.32751 0.29054
 H283 H 0.74404 0.29837 0.26416
 C284 C 0.67709 0.18189 0.30072
 C285 C 0.79148 0.18070 0.20428
 C286 C 0.79408 0.29105 0.30737
 C287 C 0.68806 0.29667 0.20420
 C288 C 0.25511 0.69000 0.21400
 H289 H 0.23248 0.68877 0.21054
 C290 C 0.27367 0.67268 0.20110
 H291 H 0.26493 0.65865 0.18759
 C292 C 0.29379 0.70933 0.23597
 H293 H 0.30164 0.72310 0.24991
 C294 C 0.31318 0.69257 0.22332
 H295 H 0.33574 0.69408 0.22748
 N296 N 0.26536 0.70837 0.23073
 C297 C 0.18969 0.72280 0.27210
 H298 H 0.18478 0.74498 0.26856
 C299 C 0.17200 0.70737 0.28633
 H300 H 0.15338 0.71787 0.29359
 C301 C 0.22050 0.68255 0.26743
 H302 H 0.23977 0.67316 0.26043
 C303 C 0.20332 0.66628 0.28142
 H304 H 0.20956 0.64438 0.28488
 Zn305 Zn 0.23883 0.73286 0.24643
 N306 N 0.21365 0.71036 0.26332
 C307 C 0.19794 0.74047 0.21007
 N308 N 0.21730 0.75424 0.22412
 C309 C 0.22145 0.78282 0.22227
 C310 C 0.20688 0.79835 0.20516
 C311 C 0.18294 0.75517 0.19264
 C312 C 0.25163 0.75895 0.29031
 C313 C 0.26605 0.77685 0.30618
 C314 C 0.29549 0.79221 0.27497
 C315 C 0.28001 0.77446 0.25963
 N316 N 0.25870 0.75804 0.26749
 H317 H 0.19394 0.71806 0.21244
 H318 H 0.23624 0.79373 0.23388
 H319 H 0.21095 0.82098 0.20385
 H320 H 0.16792 0.74367 0.18149
 H321 H 0.23483 0.74567 0.29638
 H322 H 0.25971 0.77688 0.32419
 H323 H 0.31252 0.80468 0.26808
 H324 H 0.28528 0.77344 0.24139
 C325 C 0.17896 0.67881 0.29142
 C326 C 0.30319 0.67421 0.20539
 C327 C 0.28868 0.79371 0.29877
 C328 C 0.18761 0.78446 0.18981
 O329 O 1.04499 0.02270 0.03420
 O330 O 0.94835 -0.01796 0.02121
 O331 O 0.97860 0.05792 0.02720
 O332 O 1.02925 -0.05887 0.00532
 O333 O 0.94300 0.03286 0.01292
 O334 O 1.04036 -0.02544 0.02798
 O335 O 0.98811 -0.03933 0.02850
 O336 O 1.03073 0.06201 0.01953
 C337 C 1.04309 0.04899 0.03553
 C338 C 0.96360 -0.03286 0.03450
 C339 C 0.95332 0.05003 0.02814
 C340 C 1.04360 -0.05094 0.02250
 O341 O 1.05080 -0.02014 -0.01933
 O342 O 0.95553 0.02011 -0.03264
 O343 O 1.02068 0.05778 -0.02480
 O344 O 0.97659 -0.06708 -0.00920
 O345 O 0.95837 -0.02915 -0.02503
 O346 O 1.05659 0.03157 -0.01155
 O347 O 1.00970 -0.03652 -0.03161
 O348 O 0.96786 0.06022 -0.01734
 Co349 Co 1.04455 0.00231 0.00717
 Co350 Co 0.95546 0.00186 -0.00516
 Co351 Co 0.99949 0.05450 0.00116
 Co352 Co 0.99795 -0.03613 -0.00158
 O353 O 1.00064 0.00738 0.00112
 C354 C 1.03552 -0.03203 -0.03515
 C355 C 0.95714 0.04638 -0.03400
 C356 C 1.04611 0.04932 -0.02591
 C357 C 0.95627 -0.05572 -0.02172
 O358 O 1.05537 0.52883 0.51832
 O359 O 0.94789 0.46391 0.51586
 O360 O 0.96797 0.55124 0.51539
 O361 O 1.03534 0.44154 0.51732
 O362 O 0.95212 0.51244 0.52796
 O363 O 1.05018 0.48122 0.53082
 O364 O 0.98727 0.44775 0.52957
 O365 O 1.01576 0.54548 0.53013
 C366 C 1.04158 0.54188 0.53364
 C367 C 0.96145 0.45195 0.53194
 C368 C 0.95502 0.53844 0.53063
 C369 C 1.04714 0.45539 0.53350
 O370 O 1.05604 0.46225 0.48570
 O371 O 0.94763 0.52838 0.48253
 O372 O 1.03472 0.54968 0.48577
 O373 O 0.96920 0.44059 0.48455
 O374 O 0.95337 0.47944 0.47052
 O375 O 1.05052 0.50989 0.47297
 O376 O 1.01702 0.44579 0.47215
 O377 O 0.98720 0.54416 0.47134
 Co378 Co 1.04815 0.49557 0.50184
 Co379 Co 0.95522 0.49603 0.49933
 Co380 Co 1.00146 0.54255 0.50069
 Co381 Co 1.00220 0.44900 0.50088
 O382 O 1.00174 0.49580 0.50069
 C383 C 1.04262 0.45002 0.46948
 C384 C 0.96151 0.54077 0.46756
 C385 C 1.04678 0.53569 0.47004
 C386 C 0.95628 0.45324 0.46852
 O387 O 0.56141 0.01860 0.50590
 O388 O 0.43606 -0.02512 0.52296
 O389 O 0.47541 0.03775 0.53199
 O390 O 0.51568 -0.05623 0.51767
 O391 O 0.43524 0.02786 0.51610
 O392 O 0.53217 -0.01482 0.52904
 O393 O 0.46333 -0.06162 0.51175
 O394 O 0.52442 0.03600 0.52349
 C395 C 0.55064 0.03850 0.51923
 C396 C 0.44427 -0.05071 0.52483
 C397 C 0.44919 0.03681 0.53335
 C398 C 0.52834 -0.04073 0.53289
 O399 O 0.55283 -0.03411 0.49147
 O400 O 0.43773 0.01724 0.47133
 O401 O 0.51213 0.04710 0.47785
 O402 O 0.47050 -0.05204 0.46529
 O403 O 0.43188 -0.03483 0.47914
 O404 O 0.53221 0.00715 0.46875
 O405 O 0.51868 -0.04670 0.47007
 O406 O 0.46201 0.05246 0.48681
 Co407 Co 0.53038 -0.00289 0.49897
 Co408 Co 0.44021 -0.00370 0.49735
 Co409 Co 0.49295 0.03920 0.50430
 Co410 Co 0.49193 -0.05035 0.49187
 O411 O 0.48708 -0.00588 0.49739
 C412 C 0.54445 -0.04885 0.47465
 C413 C 0.44576 0.04251 0.47086
 C414 C 0.52605 0.03217 0.46365
 C415 C 0.44437 -0.04910 0.46393
 O416 O 0.56101 0.52131 0.02906
 O417 O 0.46388 0.49011 0.02810
 O418 O 0.49749 0.55459 0.03046
 O419 O 0.52582 0.45611 0.02794
 O420 O 0.45818 0.53824 0.01729
 O421 O 0.56548 0.47263 0.01713
 O422 O 0.47804 0.45087 0.01332
 O423 O 0.54494 0.56029 0.01580
 C424 C 0.55795 0.54739 0.03155
 C425 C 0.46652 0.46402 0.02973
 C426 C 0.47204 0.54983 0.03358
 C427 C 0.55156 0.45951 0.03176
 O428 O 0.55984 0.48892 -0.02876
 O429 O 0.46237 0.52197 -0.02866
 O430 O 0.52437 0.55516 -0.02797
 O431 O 0.49685 0.45714 -0.03073
 O432 O 0.45757 0.47384 -0.01811
 O433 O 0.56445 0.53721 -0.01680
 O434 O 0.54486 0.45025 -0.01573
 O435 O 0.47697 0.56106 -0.01392
 Co436 Co 0.55785 0.50505 0.00014
 Co437 Co 0.46528 0.50597 -0.00030
 Co438 Co 0.51092 0.55260 0.00105
 Co439 Co 0.51135 0.45877 -0.00125
 O440 O 0.51138 0.50561 -0.00011
 C441 C 0.55672 0.46299 -0.03150
 C442 C 0.46452 0.54807 -0.03023
 C443 C 0.54991 0.55055 -0.03166
 C444 C 0.47098 0.46110 -0.03384
 C445 C 1.15199 0.15797 0.15414
 N446 N 1.14430 0.18514 0.16027
 N447 N 1.16075 0.20064 0.17474
 C448 C 1.18563 0.18967 0.18349
 N449 N 1.19328 0.16245 0.17732
 N450 N 1.17674 0.14687 0.16297
 C451 C 1.13421 0.14116 0.13775
 N452 N 1.14003 0.11301 0.13360
 N453 N 1.12434 0.09797 0.11824
 C454 C 1.10235 0.11058 0.10639
 N455 N 1.09649 0.13872 0.11058
 N456 N 1.11208 0.15371 0.12604
 C457 C 1.08590 0.09435 0.08871
 N458 N 1.06741 0.10798 0.07404
 N459 N 1.05345 0.09345 0.05728
 C460 C 1.05733 0.06475 0.05469
 N461 N 1.07559 0.05107 0.06951
 N462 N 1.08968 0.06562 0.08618
 C463 C 1.14639 0.64623 0.65736
 N464 N 1.17521 0.64361 0.65870
 N465 N 1.19032 0.65991 0.67354
 C466 C 1.17724 0.67951 0.68764
 N467 N 1.14834 0.68199 0.68635
 N468 N 1.13320 0.66569 0.67148
 C469 C 1.12998 0.62886 0.64039
 N470 N 1.10120 0.63193 0.63830
 N471 N 1.08657 0.61682 0.62226
 C472 C 1.10021 0.59810 0.60776
 N473 N 1.12894 0.59492 0.60997
 N474 N 1.14355 0.61000 0.62599
 C475 C 1.08450 0.58241 0.58930
 N476 N 1.09872 0.56500 0.57417
 N477 N 1.08488 0.55175 0.55668
 C478 C 1.05630 0.55538 0.55368
 N479 N 1.04197 0.57257 0.56892
 N480 N 1.05585 0.58587 0.58643
 C481 C 0.66077 0.15455 0.63211
 N482 N 0.68956 0.15232 0.63451
 N483 N 0.70330 0.16653 0.65159
 C484 C 0.68880 0.18345 0.66697
 N485 N 0.65999 0.18561 0.66450
 N486 N 0.64626 0.17144 0.64743
 C487 C 0.64533 0.13874 0.61355
 N488 N 0.61658 0.14145 0.61144
 N489 N 0.60224 0.12669 0.59508
 C490 C 0.61609 0.10867 0.58018
 N491 N 0.64491 0.10603 0.58217
 N492 N 0.65929 0.12085 0.59857
 C493 C 0.59968 0.09151 0.56304
 N494 N 0.61267 0.07250 0.54834
 N495 N 0.59722 0.05596 0.53380
 C496 C 0.56829 0.05791 0.53354
 N497 N 0.55544 0.07710 0.54806
 N498 N 0.57082 0.09360 0.56250
 C499 C 0.66162 0.65966 0.15152
 N500 N 0.65908 0.68862 0.15197
 N501 N 0.67466 0.70436 0.16693
 C502 C 0.69342 0.69176 0.18202
 N503 N 0.69585 0.66275 0.18155
 N504 N 0.68028 0.64701 0.16660
 C505 C 0.64482 0.64237 0.13471
 N506 N 0.64769 0.61342 0.13390
 N507 N 0.63290 0.59785 0.11827
 C508 C 0.61471 0.61068 0.10289
 N509 N 0.61177 0.63961 0.10378
 N510 N 0.62653 0.65517 0.11940
 C511 C 0.59911 0.59381 0.08505
 N512 N 0.58190 0.60713 0.06925
 N513 N 0.56852 0.59217 0.05246
 C514 C 0.57179 0.56332 0.05083
 N515 N 0.58882 0.54990 0.06673
 N516 N 0.60226 0.56490 0.08355
 C517 C 0.87085 -0.12820 0.16154
 N518 N 0.84716 -0.11715 0.17172
 N519 N 0.83204 -0.13290 0.18587
 C520 C 0.83987 -0.16040 0.19024
 N521 N 0.86364 -0.17137 0.18007
 N522 N 0.87887 -0.15557 0.16604
 C523 C 0.88679 -0.11136 0.14508
 N524 N 0.91201 -0.12129 0.13675
 N525 N 0.92573 -0.10680 0.12085
 C526 C 0.91466 -0.08192 0.11260
 N527 N 0.88953 -0.07188 0.12105
 N528 N 0.87590 -0.08628 0.13706
 C529 C 0.92858 -0.06727 0.09368
 N530 N 0.91470 -0.04606 0.08206
 N531 N 0.92626 -0.03446 0.06359
 C532 C 0.95223 -0.04348 0.05618
 N533 N 0.96634 -0.06433 0.06804
 N534 N 0.95470 -0.07606 0.08642
 C535 C 0.85540 0.35962 0.65379
 N536 N 0.86856 0.34255 0.66963
 N537 N 0.85332 0.32707 0.68390
 C538 C 0.82429 0.32791 0.68287
 N539 N 0.81130 0.34528 0.66704
 N540 N 0.82651 0.36079 0.65281
 C541 C 0.87196 0.37572 0.63730
 N542 N 0.85844 0.39251 0.62143
 N543 N 0.87320 0.40612 0.60567
 C544 C 0.90203 0.40345 0.60520
 N545 N 0.91561 0.38684 0.62119
 N546 N 0.90082 0.37322 0.63698
 C547 C 0.91792 0.41723 0.58695
 N548 N 0.94660 0.41359 0.58547
 N549 N 0.96066 0.42501 0.56813
 C550 C 0.94648 0.44041 0.55166
 N551 N 0.91787 0.44424 0.55327
 N552 N 0.90384 0.43285 0.57059
 C553 C 0.34855 -0.15467 0.64700
 N554 N 0.32201 -0.14553 0.65282
 N555 N 0.30787 -0.15834 0.66939
 C556 C 0.31975 -0.18073 0.68094
 N557 N 0.34641 -0.18980 0.67518
 N558 N 0.36054 -0.17706 0.65849
 C559 C 0.36376 -0.14023 0.62862
 N560 N 0.38877 -0.15083 0.62028
 N561 N 0.40215 -0.13743 0.60349
 C562 C 0.39100 -0.11292 0.59455
 N563 N 0.36607 -0.10240 0.60295
 N564 N 0.35266 -0.11583 0.61959
 C565 C 0.40542 -0.09740 0.57634
 N566 N 0.39549 -0.07114 0.57036
 N567 N 0.40805 -0.05655 0.55396
 C568 C 0.43095 -0.06766 0.54274
 N569 N 0.44096 -0.09403 0.54860
 N570 N 0.42843 -0.10863 0.56518
 C571 C 0.37144 0.35989 0.15170
 N572 N 0.36419 0.37216 0.17242
 N573 N 0.34863 0.35796 0.18737
 C574 C 0.33956 0.33107 0.18205
 N575 N 0.34695 0.31888 0.16134
 N576 N 0.36264 0.33297 0.14650
 C577 C 0.38775 0.37556 0.13473
 N578 N 0.39753 0.36185 0.11538
 N579 N 0.41138 0.37604 0.09940
 C580 C 0.41580 0.40454 0.10210
 N581 N 0.40611 0.41830 0.12150
 N582 N 0.39238 0.40404 0.13757
 C583 C 0.42998 0.42018 0.08386
 N584 N 0.43069 0.44921 0.08444
 N585 N 0.44253 0.46326 0.06727
 C586 C 0.45416 0.44876 0.04899
 N587 N 0.45367 0.41975 0.04853
 N588 N 0.44172 0.40573 0.06562
 C589 C 0.85849 0.15144 -0.15864
 N590 N 0.85869 0.18045 -0.15799
 N591 N 0.84321 0.19538 -0.17331
 C592 C 0.82691 0.18191 -0.18989
 N593 N 0.82685 0.15284 -0.19058
 N594 N 0.84233 0.13788 -0.17524
 C595 C 0.87495 0.13519 -0.14126
 N596 N 0.87421 0.10617 -0.14119
 N597 N 0.88849 0.09162 -0.12487
 C598 C 0.90401 0.10559 -0.10807
 N599 N 0.90485 0.13458 -0.10824
 N600 N 0.89059 0.14911 -0.12453
 C601 C 0.91882 0.08987 -0.08946
 N602 N 0.93318 0.10428 -0.07225
 N603 N 0.94571 0.09031 -0.05477
 C604 C 0.94435 0.06140 -0.05386
 N605 N 0.93018 0.04690 -0.07116
 N606 N 0.91761 0.06090 -0.08865
 C607 C 0.86281 0.64871 0.34502
 N608 N 0.87729 0.66648 0.33131
 N609 N 0.86333 0.68386 0.31678
 C610 C 0.83437 0.68418 0.31544
 N611 N 0.81998 0.66627 0.32913
 N612 N 0.83391 0.64889 0.34364
 C613 C 0.87797 0.63026 0.36164
 N614 N 0.86321 0.61312 0.37568
 N615 N 0.87679 0.59721 0.39147
 C616 C 0.90563 0.59783 0.39378
 N617 N 0.92042 0.61481 0.37962
 N618 N 0.90683 0.63073 0.36381
 C619 C 0.92038 0.58156 0.41207
 N620 N 0.94909 0.58316 0.41511
 N621 N 0.96228 0.56966 0.43255
 C622 C 0.94723 0.55410 0.44756
 N623 N 0.91856 0.55226 0.44439
 N624 N 0.90537 0.56576 0.42695
 C625 C 0.35807 0.16139 0.34914
 N626 N 0.36556 0.18884 0.34562
 N627 N 0.35181 0.20439 0.32964
 C628 C 0.32992 0.19320 0.31657
 N629 N 0.32265 0.16563 0.32021
 N630 N 0.33642 0.15007 0.33610
 C631 C 0.37264 0.14410 0.36694
 N632 N 0.36551 0.11633 0.36933
 N633 N 0.37809 0.10051 0.38566
 C634 C 0.39825 0.11183 0.40028
 N635 N 0.40549 0.13962 0.39790
 N636 N 0.39291 0.15548 0.38149
 C637 C 0.41138 0.09412 0.41849
 N638 N 0.43041 0.10509 0.43436
 N639 N 0.44160 0.08874 0.45109
 C640 C 0.43411 0.06088 0.45249
 N641 N 0.41522 0.04999 0.43656
 N642 N 0.40406 0.06628 0.41991
 C643 C 0.35806 0.65573 -0.14942
 N644 N 0.35967 0.68467 -0.14977
 N645 N 0.34359 0.69965 -0.16468
 C646 C 0.32523 0.68630 -0.17981
 N647 N 0.32373 0.65731 -0.17945
 N648 N 0.33981 0.64232 -0.16456
 C649 C 0.37536 0.63930 -0.13264
 N650 N 0.37372 0.61035 -0.13218
 N651 N 0.38892 0.59555 -0.11657
 C652 C 0.40631 0.60916 -0.10086
 N653 N 0.40804 0.63809 -0.10140
 N654 N 0.39286 0.65289 -0.11701
 C655 C 0.42233 0.59303 -0.08310
 N656 N 0.43855 0.60695 -0.06674
 N657 N 0.45228 0.59253 -0.05009
 C658 C 0.45033 0.56365 -0.04919
 N659 N 0.43428 0.54967 -0.06564
 N660 N 0.42051 0.56411 -0.08229
 C661 C 1.14105 -0.13128 -0.15823
 N662 N 1.13361 -0.15854 -0.16386
 N663 N 1.15016 -0.17497 -0.17732
 C664 C 1.17474 -0.16477 -0.18580
 N665 N 1.18203 -0.13738 -0.18032
 N666 N 1.16558 -0.12100 -0.16670
 C667 C 1.12342 -0.11369 -0.14248
 N668 N 1.13355 -0.08894 -0.13291
 N669 N 1.11823 -0.07387 -0.11756
 C670 C 1.09212 -0.08285 -0.11138
 N671 N 1.08184 -0.10739 -0.12119
 N672 N 1.09724 -0.12256 -0.13641
 C673 C 1.07625 -0.06752 -0.09307
 N674 N 1.04908 -0.07477 -0.08835
 N675 N 1.03559 -0.06256 -0.07044
 C676 C 1.04885 -0.04277 -0.05654
 N677 N 1.07588 -0.03529 -0.06144
 N678 N 1.08928 -0.04733 -0.07944
 C679 C 1.14944 0.36478 0.34004
 N680 N 1.14333 0.33762 0.33306
 N681 N 1.16003 0.32349 0.31817
 C682 C 1.18336 0.33603 0.30953
 N683 N 1.18924 0.36338 0.31627
 N684 N 1.17266 0.37745 0.33134
 C685 C 1.13201 0.37952 0.35761
 N686 N 1.14158 0.40346 0.36884
 N687 N 1.12655 0.41576 0.38583
 C688 C 1.10132 0.40469 0.39207
 N689 N 1.09157 0.38097 0.38063
 N690 N 1.10671 0.36854 0.36377
 C691 C 1.08553 0.41732 0.41161
 N692 N 1.05853 0.40905 0.41583
 N693 N 1.04465 0.41972 0.43412
 C694 C 1.05741 0.43880 0.44897
 N695 N 1.08436 0.44712 0.44472
 N696 N 1.09814 0.43663 0.42633
 C697 C 0.66405 -0.14473 0.35771
 N698 N 0.69287 -0.14260 0.35779
 N699 N 0.70799 -0.15499 0.34088
 C700 C 0.69489 -0.16994 0.32322
 N701 N 0.66604 -0.17193 0.32319
 N702 N 0.65093 -0.15957 0.34008
 C703 C 0.64712 -0.13131 0.37629
 N704 N 0.61834 -0.13367 0.37575
 N705 N 0.60270 -0.12142 0.39235
 C706 C 0.61521 -0.10637 0.41016
 N707 N 0.64405 -0.10404 0.41079
 N708 N 0.65974 -0.11632 0.39414
 C709 C 0.59741 -0.09230 0.42786
 N710 N 0.60901 -0.07680 0.44590
 N711 N 0.59231 -0.06330 0.46127
 C712 C 0.56348 -0.06488 0.45907
 N713 N 0.55201 -0.08051 0.44115
 N714 N 0.56863 -0.09400 0.42588
 C715 C 0.64804 0.35472 -0.15859
 N716 N 0.64637 0.32577 -0.15978
 N717 N 0.66098 0.31071 -0.17557
 C718 C 0.67787 0.32397 -0.19079
 N719 N 0.67935 0.35298 -0.18964
 N720 N 0.66474 0.36806 -0.17386
 C721 C 0.63279 0.37125 -0.14062
 N722 N 0.63507 0.40014 -0.13904
 N723 N 0.62200 0.41503 -0.12224
 C724 C 0.60618 0.40155 -0.10642
 N725 N 0.60379 0.37268 -0.10809
 N726 N 0.61685 0.35780 -0.12488
 C727 C 0.59259 0.41776 -0.08739
 N728 N 0.57764 0.40402 -0.07118
 N729 N 0.56602 0.41852 -0.05349
 C730 C 0.56893 0.44730 -0.05136
 N731 N 0.58374 0.46110 -0.06764
 N732 N 0.59538 0.44658 -0.08534
 C733 C 1.15293 0.14643 -0.14459
 N734 N 1.15592 0.17509 -0.14170
 N735 N 1.16854 0.19023 -0.15780
 C736 C 1.17913 0.17727 -0.17726
 N737 N 1.17618 0.14848 -0.18000
 N738 N 1.16307 0.13341 -0.16410
 C739 C 1.13881 0.12990 -0.12694
 N740 N 1.12218 0.10742 -0.13326
 N741 N 1.10849 0.09307 -0.11724
 C742 C 1.11146 0.10032 -0.09432
 N743 N 1.12841 0.12255 -0.08798
 N744 N 1.14167 0.13724 -0.10403
 C745 C 1.09530 0.08551 -0.07684
 N746 N 1.10635 0.08157 -0.05507
 N747 N 1.09100 0.06920 -0.03894
 C748 C 1.06391 0.06090 -0.04392
 N749 N 1.05286 0.06494 -0.06564
 N750 N 1.06838 0.07677 -0.08189
 C751 C 1.13267 0.63371 0.34003
 N752 N 1.12695 0.66181 0.33635
 N753 N 1.14123 0.67597 0.32058
 C754 C 1.16183 0.66263 0.30791
 N755 N 1.16733 0.63444 0.31151
 N756 N 1.15301 0.62024 0.32723
 C757 C 1.11803 0.61847 0.35827
 N758 N 1.12341 0.59024 0.36168
 N759 N 1.11107 0.57670 0.37887
 C760 C 1.09298 0.59092 0.39333
 N761 N 1.08749 0.61911 0.38985
 N762 N 1.09976 0.63263 0.37262
 C763 C 1.08030 0.57632 0.41289
 N764 N 1.06427 0.59119 0.42852
 N765 N 1.05349 0.57818 0.44668
 C766 C 1.05832 0.54983 0.44984
 N767 N 1.07420 0.53490 0.43414
 N768 N 1.08505 0.54793 0.41601
 C769 C 0.62446 0.13363 0.34270
 N770 N 0.62129 0.16249 0.34184
 N771 N 0.63786 0.17776 0.32843
 C772 C 0.65827 0.16479 0.31531
 N773 N 0.66129 0.13586 0.31611
 N774 N 0.64476 0.12059 0.32957
 C775 C 0.60686 0.11702 0.35825
 N776 N 0.61145 0.08847 0.36071
 N777 N 0.59638 0.07380 0.37569
 C778 C 0.57611 0.08713 0.38870
 N779 N 0.57135 0.11560 0.38606
 N780 N 0.58643 0.13026 0.37112
 C781 C 0.56093 0.07165 0.40657
 N782 N 0.54180 0.08573 0.42018
 N783 N 0.52983 0.07267 0.43777
 C784 C 0.53644 0.04498 0.44239
 N785 N 0.55521 0.03068 0.42854
 N786 N 0.56721 0.04378 0.41092
 C787 C 0.64544 0.64658 -0.15782
 N788 N 0.63807 0.67417 -0.16199
 N789 N 0.65243 0.68922 -0.17712
 C790 C 0.67462 0.67728 -0.18887
 N791 N 0.68172 0.64947 -0.18482
 N792 N 0.66752 0.63447 -0.16951
 C793 C 0.63023 0.63054 -0.14040
 N794 N 0.64137 0.60583 -0.13186
 N795 N 0.62810 0.59205 -0.11527
 C796 C 0.60309 0.60237 -0.10678
 N797 N 0.59183 0.62691 -0.11550
 N798 N 0.60522 0.64080 -0.13193
 C799 C 0.58890 0.58793 -0.08790
 N800 N 0.56190 0.59553 -0.08209
 N801 N 0.54932 0.58326 -0.06440
 C802 C 0.56340 0.56313 -0.05172
 N803 N 0.59038 0.55545 -0.05755
 N804 N 0.60288 0.56756 -0.07538
 C805 C 0.84177 -0.15986 -0.13963
 N806 N 0.82350 -0.14480 -0.15352
 N807 N 0.80950 -0.15767 -0.17114
 C808 C 0.81321 -0.18612 -0.17562
 N809 N 0.83153 -0.20113 -0.16167
 N810 N 0.84556 -0.18827 -0.14404
 C811 C 0.85736 -0.14544 -0.12035
 N812 N 0.87617 -0.16009 -0.10659
 N813 N 0.89071 -0.14668 -0.08949
 C814 C 0.88690 -0.11815 -0.08552
 N815 N 0.86799 -0.10360 -0.09921
 N816 N 0.85348 -0.11698 -0.11628
 C817 C 0.90377 -0.10269 -0.06756
 N818 N 0.90075 -0.07390 -0.06518
 N819 N 0.91703 -0.05927 -0.05004
 C820 C 0.93690 -0.07282 -0.03658
 N821 N 0.93976 -0.10171 -0.03867
 N822 N 0.92346 -0.11640 -0.05392
 C823 C 0.84608 0.34018 0.35287
 N824 N 0.82783 0.35301 0.33756
 N825 N 0.81139 0.33742 0.32314
 C826 C 0.81246 0.30836 0.32346
 N827 N 0.83078 0.29557 0.33881
 N828 N 0.84724 0.31116 0.35323
 C829 C 0.86396 0.35739 0.36901
 N830 N 0.88204 0.34450 0.38444
 N831 N 0.89783 0.36005 0.39939
 C832 C 0.89618 0.38907 0.39946
 N833 N 0.87819 0.40198 0.38397
 N834 N 0.86239 0.38642 0.36901
 C835 C 0.91289 0.40606 0.41659
 N836 N 0.91071 0.43508 0.41738
 N837 N 0.92497 0.45027 0.43361
 C838 C 0.94194 0.43697 0.44963
 N839 N 0.94429 0.40800 0.44870
 N840 N 0.93006 0.39284 0.43249
 C841 C 0.33365 -0.15637 0.34515
 N842 N 0.34153 -0.15869 0.32261
 N843 N 0.32668 -0.17477 0.30738
 C844 C 0.30350 -0.18946 0.31409
 N845 N 0.29580 -0.18700 0.33675
 N846 N 0.31046 -0.17072 0.35192
 C847 C 0.35005 -0.13897 0.36211
 N848 N 0.33886 -0.13177 0.38305
 N849 N 0.35381 -0.11646 0.39871
 C850 C 0.38063 -0.10804 0.39411
 N851 N 0.39187 -0.11527 0.37317
 N852 N 0.37679 -0.13035 0.35741
 C853 C 0.39724 -0.09191 0.41176
 N854 N 0.42591 -0.08933 0.40999
 N855 N 0.44100 -0.07553 0.42654
 C856 C 0.42790 -0.06363 0.44531
 N857 N 0.39922 -0.06600 0.44695
 N858 N 0.38419 -0.07999 0.43053
 C859 C 0.36057 0.35462 -0.15258
 N860 N 0.33482 0.34546 -0.14579
 N861 N 0.31913 0.32856 -0.15969
 C862 C 0.32844 0.32031 -0.18103
 N863 N 0.35416 0.32966 -0.18795
 N864 N 0.37003 0.34639 -0.17390
 C865 C 0.37765 0.37285 -0.13674
 N866 N 0.40590 0.37683 -0.14008
 N867 N 0.42131 0.39244 -0.12485
 C868 C 0.40892 0.40478 -0.10590
 N869 N 0.38067 0.40101 -0.10278
 N870 N 0.36536 0.38527 -0.11785
 C871 C 0.42559 0.42098 -0.08834
 N872 N 0.41191 0.43573 -0.07123
 N873 N 0.42657 0.44905 -0.05426
 C874 C 0.45547 0.44800 -0.05365
 N875 N 0.46928 0.43346 -0.07087
 N876 N 0.45457 0.42022 -0.08798
 C877 C 1.14635 -0.16982 0.13633
 N878 N 1.16342 -0.15634 0.15233
 N879 N 1.17637 -0.17088 0.16929
 C880 C 1.17275 -0.19950 0.17101
 N881 N 1.15561 -0.21300 0.15498
 N882 N 1.14264 -0.19845 0.13796
 C883 C 1.13205 -0.15333 0.11786
 N884 N 1.11528 -0.16617 0.10123
 N885 N 1.10209 -0.15071 0.08484
 C886 C 1.10523 -0.12188 0.08456
 N887 N 1.12208 -0.10917 0.10113
 N888 N 1.13526 -0.12458 0.11743
 C889 C 1.09002 -0.10413 0.06737
 N890 N 1.09154 -0.07526 0.06938
 N891 N 1.07707 -0.05860 0.05471
 C892 C 1.06061 -0.07011 0.03734
 N893 N 1.05920 -0.09905 0.03507
 N894 N 1.07365 -0.11580 0.04989
 C895 C 1.14102 0.35282 0.66207
 N896 N 1.13580 0.32467 0.66492
 N897 N 1.15078 0.30963 0.68049
 C898 C 1.17164 0.32209 0.69380
 N899 N 1.17671 0.35034 0.69100
 N900 N 1.16168 0.36542 0.67546
 C901 C 1.12531 0.36899 0.64414
 N902 N 1.13008 0.39727 0.64134
 N903 N 1.11656 0.41156 0.62446
 C904 C 1.09786 0.39806 0.60973
 N905 N 1.09301 0.36983 0.61262
 N906 N 1.10645 0.35557 0.62952
 C907 C 1.08385 0.41337 0.59046
 N908 N 1.06736 0.39901 0.57454
 N909 N 1.05546 0.41251 0.55653
 C910 C 1.05955 0.44090 0.55380
 N911 N 1.07585 0.45535 0.56980
 N912 N 1.08784 0.44181 0.58779
 C913 C 0.63345 -0.14207 0.65595
 N914 N 0.62438 -0.16756 0.66359
 N915 N 0.64080 -0.18318 0.67780
 C916 C 0.66703 -0.17405 0.68484
 N917 N 0.67607 -0.14850 0.67718
 N918 N 0.65959 -0.13278 0.66306
 C919 C 0.61563 -0.12534 0.63967
 N920 N 0.62322 -0.09863 0.63365
 N921 N 0.60755 -0.08398 0.61822
 C922 C 0.58377 -0.09554 0.60818
 N923 N 0.57613 -0.12219 0.61430
 N924 N 0.59169 -0.13676 0.62981
 C925 C 0.56758 -0.08031 0.58994
 N926 N 0.54750 -0.09414 0.57678
 N927 N 0.53433 -0.08117 0.55905
 C928 C 0.54054 -0.05378 0.55396
 N929 N 0.56028 -0.03975 0.56736
 N930 N 0.57360 -0.05280 0.58500
 C931 C 0.64675 0.35028 0.15592
 N932 N 0.63139 0.33390 0.17014
 N933 N 0.64446 0.31700 0.18555
 C934 C 0.67339 0.31577 0.18733
 N935 N 0.68867 0.33228 0.17311
 N936 N 0.67562 0.34918 0.15772
 C937 C 0.63244 0.36840 0.13851
 N938 N 0.64791 0.38449 0.12415
 N939 N 0.63501 0.40031 0.10791
 C940 C 0.60616 0.40063 0.10545
 N941 N 0.59068 0.38464 0.11988
 N942 N 0.60358 0.36883 0.13613
 C943 C 0.59194 0.41712 0.08694
 N944 N 0.56320 0.41626 0.08388
 N945 N 0.55034 0.43019 0.06651
 C946 C 0.56575 0.44551 0.05157
 N947 N 0.59448 0.44659 0.05473
 N948 N 0.60735 0.43263 0.07211
 C949 C 0.83894 0.13675 0.15327
 N950 N 0.81015 0.13440 0.15361
 N951 N 0.79512 0.14809 0.16994
 C952 C 0.80826 0.16463 0.18659
 N953 N 0.83710 0.16676 0.18627
 N954 N 0.85213 0.15312 0.16994
 C955 C 0.85560 0.12250 0.13489
 N956 N 0.88415 0.12646 0.13402
 N957 N 0.89933 0.11426 0.11711
 C958 C 0.88657 0.09758 0.10041
 N959 N 0.85802 0.09347 0.10129
 N960 N 0.84280 0.10575 0.11822
 C961 C 0.90358 0.08476 0.08158
 N962 N 0.89167 0.06712 0.06507
 N963 N 0.90739 0.05591 0.04797
 C964 C 0.93553 0.06206 0.04677
 N965 N 0.94734 0.07965 0.06329
 N966 N 0.93169 0.09077 0.08036
 C967 C 0.84983 0.64771 0.64984
 N968 N 0.82392 0.63855 0.65629
 N969 N 0.80828 0.65405 0.67113
 C970 C 0.81801 0.67922 0.68024
 N971 N 0.84405 0.68826 0.67386
 N972 N 0.85961 0.67287 0.65888
 C973 C 0.86675 0.63088 0.63306
 N974 N 0.89002 0.64220 0.62329
 N975 N 0.90489 0.62717 0.60762
 C976 C 0.89717 0.60018 0.60128
 N977 N 0.87403 0.58879 0.61117
 N978 N 0.85905 0.60390 0.62672
 C979 C 0.91305 0.58386 0.58352
 N980 N 0.90783 0.55569 0.57945
 N981 N 0.92157 0.54109 0.56286
 C982 C 0.94089 0.55418 0.54962
 N983 N 0.94618 0.58233 0.55372
 N984 N 0.93258 0.59688 0.57042
 C985 C 0.34605 0.13479 0.65915
 N986 N 0.35985 0.14977 0.67636
 N987 N 0.34526 0.16591 0.69150
 C988 C 0.31633 0.16773 0.68999
 N989 N 0.30261 0.15259 0.67281
 N990 N 0.31717 0.13644 0.65770
 C991 C 0.36196 0.11784 0.64186
 N992 N 0.34783 0.10329 0.62460
 N993 N 0.36210 0.08882 0.60828
 C994 C 0.39104 0.08836 0.60859
 N995 N 0.40522 0.10275 0.62594
 N996 N 0.39093 0.11723 0.64230
 C997 C 0.40650 0.07363 0.58980
 N998 N 0.43543 0.07391 0.58926
 N999 N 0.44920 0.06172 0.57149
 C1000 C 0.43449 0.04885 0.55364
 N1001 N 0.40561 0.04836 0.55431
 N1002 N 0.39187 0.06051 0.57206
 C1003 C 0.35929 0.62885 0.16177
 N1004 N 0.36937 0.64879 0.17725
 N1005 N 0.35167 0.66279 0.19150
 C1006 C 0.32324 0.65745 0.19074
 N1007 N 0.31333 0.63728 0.17538
 N1008 N 0.33099 0.62325 0.16120
 C1009 C 0.37809 0.61465 0.14487
 N1010 N 0.36721 0.59522 0.12937
 N1011 N 0.38346 0.58354 0.11293
 C1012 C 0.41121 0.59085 0.11132
 N1013 N 0.42227 0.61008 0.12698
 N1014 N 0.40597 0.62179 0.14349
 C1015 C 0.42808 0.57921 0.09201
 N1016 N 0.45580 0.58633 0.08942
 N1017 N 0.47022 0.57670 0.07100
 C1018 C 0.45730 0.55975 0.05453
 N1019 N 0.42972 0.55252 0.05728
 N1020 N 0.41540 0.56204 0.07566
   
