data_POSCAR
  _audit_creation_date              2014-09-24
  _audit_creation_method            'ToBaCCo'
  _symmetry_space_group_name_H-M    'P1'
  _symmetry_Int_Tables_number       1
  _symmetry_cell_setting            triclinic
  loop_
  _symmetry_equiv_pos_as_xyz
 x,y,z
_cell_length_a 45.1113
_cell_length_b 44.8009
_cell_length_c 23.8483
_cell_angle_alpha 89.724400
_cell_angle_beta 91.019800
_cell_angle_gamma 84.377700
loop_
  _atom_site_label
  _atom_site_type_symbol
  _atom_site_fract_x
  _atom_site_fract_y
  _atom_site_fract_z
O1 O -0.03297 0.27720 0.16527
 O2 O 0.02883 0.26867 0.06327
 O3 O -0.03029 0.27669 0.05704
 O4 O 0.02636 0.27131 0.17169
 O5 O 0.02547 0.22212 0.17347
 O6 O -0.03087 0.22747 0.06036
 O7 O 0.02632 0.21977 0.06536
 O8 O -0.03255 0.22790 0.16870
 Cu9 Cu -0.00191 0.27848 0.11430
 Cu10 Cu -0.00302 0.21950 0.11755
 C11 C -0.04367 0.25373 0.18313
 C12 C 0.03817 0.24238 0.04717
 C13 C -0.04040 0.25285 0.03968
 C14 C 0.03623 0.24563 0.19072
 O15 O 0.46565 0.78039 0.44291
 O16 O 0.52421 0.76731 0.33594
 O17 O 0.46533 0.77003 0.33619
 O18 O 0.52473 0.77834 0.44273
 O19 O 0.52712 0.72967 0.45983
 O20 O 0.46903 0.72135 0.35390
 O21 O 0.52639 0.71870 0.35360
 O22 O 0.46976 0.73169 0.46056
 Cu23 Cu 0.49469 0.77901 0.38767
 Cu24 Cu 0.49837 0.72056 0.40871
 C25 C 0.45758 0.75792 0.46939
 C26 C 0.53543 0.74061 0.32718
 C27 C 0.45687 0.74416 0.32770
 C28 C 0.53623 0.75514 0.46893
 O29 O 0.97234 0.73786 -0.17384
 O30 O 1.03232 0.73139 -0.06522
 O31 O 0.97380 0.73229 -0.06524
 O32 O 1.03156 0.74011 -0.17257
 O33 O 1.02440 0.78926 -0.16365
 O34 O 0.96985 0.78152 -0.05558
 O35 O 1.02695 0.78064 -0.05609
 O36 O 0.96792 0.78704 -0.16412
 Cu37 Cu 1.00296 0.73039 -0.12072
 Cu38 Cu 0.99672 0.78942 -0.10891
 C39 C 0.95955 0.76360 -0.18672
 C40 C 1.03986 0.75510 -0.04233
 C41 C 0.96225 0.75603 -0.04190
 C42 C 1.03810 0.76629 -0.18551
 O43 O 0.47436 0.22081 0.55291
 O44 O 0.53298 0.22940 0.66109
 O45 O 0.47410 0.23142 0.66011
 O46 O 0.53349 0.21992 0.55429
 O47 O 0.52892 0.26874 0.53793
 O48 O 0.47130 0.28014 0.64344
 O49 O 0.52866 0.27822 0.64468
 O50 O 0.47146 0.26958 0.53678
 Cu51 Cu 0.50403 0.22040 0.60871
 Cu52 Cu 0.49967 0.27896 0.58902
 C53 C 0.46274 0.24401 0.52685
 C54 C 0.54107 0.25535 0.67043
 C55 C 0.46250 0.25794 0.66931
 C56 C 0.54163 0.24274 0.52897
 O57 O 0.72517 0.05351 -0.04913
 O58 O 0.73897 -0.01729 0.03272
 O59 O 0.73399 0.04082 0.05620
 O60 O 0.72922 -0.00433 -0.07262
 O61 O 0.77756 -0.00273 -0.08357
 O62 O 0.78257 0.04037 0.04532
 O63 O 0.78725 -0.01592 0.02153
 O64 O 0.77374 0.05344 -0.05959
 Cu65 Cu 0.72688 0.01807 -0.00697
 Cu66 Cu 0.78507 0.01879 -0.02018
 C67 C 0.74744 0.06567 -0.06751
 C68 C 0.76566 -0.02886 0.04035
 C69 C 0.75916 0.04853 0.07212
 C70 C 0.75282 -0.01120 -0.09987
 O71 O 0.21981 0.51366 0.44178
 O72 O 0.22576 0.46268 0.56471
 O73 O 0.22315 0.52161 0.54910
 O74 O 0.22669 0.45443 0.45703
 O75 O 0.27559 0.45458 0.45579
 O76 O 0.27225 0.51950 0.54764
 O77 O 0.27473 0.46217 0.56328
 O78 O 0.26888 0.51212 0.44026
 Cu79 Cu 0.21888 0.48817 0.50323
 Cu80 Cu 0.27765 0.48696 0.50157
 C81 C 0.24337 0.52199 0.42087
 C82 C 0.25136 0.45353 0.58452
 C83 C 0.24744 0.53213 0.56319
 C84 C 0.25215 0.44291 0.44151
 O85 O 0.26977 1.00583 0.07198
 O86 O 0.28054 0.95408 -0.04838
 O87 O 0.26783 1.01333 -0.03551
 O88 O 0.27923 0.94678 0.05909
 O89 O 0.23069 0.94350 0.05539
 O90 O 0.21978 1.00788 -0.03930
 O91 O 0.23207 0.95045 -0.05217
 O92 O 0.22163 1.00079 0.06835
 Cu93 Cu 0.27926 0.98044 0.01193
 Cu94 Cu 0.22134 0.97525 0.00757
 C95 C 0.24365 1.01248 0.09015
 C96 C 0.25812 0.94292 -0.06973
 C97 C 0.24146 1.02244 -0.05205
 C98 C 0.25657 0.93362 0.07243
 O99 O 0.78075 0.47808 0.45812
 O100 O 0.77503 0.54533 0.54910
 O101 O 0.78128 0.48632 0.56541
 O102 O 0.77559 0.53686 0.44143
 O103 O 0.72669 0.53633 0.44141
 O104 O 0.73220 0.48744 0.56510
 O105 O 0.72614 0.54470 0.54857
 O106 O 0.73168 0.47923 0.45793
 Cu107 Cu 0.78318 0.51168 0.50363
 Cu108 Cu 0.72435 0.51196 0.50329
 C109 C 0.75689 0.46709 0.44328
 C110 C 0.74934 0.55662 0.56357
 C111 C 0.75753 0.47796 0.58562
 C112 C 0.74998 0.54528 0.42063
 C113 C 0.20007 0.15852 0.29127
 C114 C 0.23088 0.15136 0.28487
 C115 C 0.25037 0.17192 0.30491
 C116 C 0.23920 0.19901 0.33071
 C117 C 0.20814 0.20502 0.33679
 C118 C 0.18851 0.18527 0.31617
 C119 C 0.25945 0.22196 0.34836
 C120 C 0.24925 0.25281 0.34562
 C121 C 0.26751 0.27468 0.36299
 C122 C 0.29677 0.26575 0.38066
 C123 C 0.30770 0.23538 0.38386
 C124 C 0.28882 0.21348 0.36822
 H125 H 0.18461 0.14403 0.27338
 H126 H 0.27404 0.16751 0.29910
 H127 H 0.19888 0.22536 0.35688
 H128 H 0.22721 0.26011 0.32922
 H129 H 0.31078 0.28266 0.39478
 H130 H 0.29699 0.19001 0.37164
 C131 C 0.80348 0.79278 0.10972
 C132 C 0.77624 0.80490 0.13116
 C133 C 0.75736 0.78544 0.15503
 C134 C 0.76467 0.75403 0.15449
 C135 C 0.79177 0.74242 0.13045
 C136 C 0.81153 0.76181 0.10928
 C137 C 0.74413 0.73366 0.17963
 C138 C 0.75539 0.70646 0.20585
 C139 C 0.73609 0.68769 0.23077
 C140 C 0.70542 0.69660 0.23007
 C141 C 0.69378 0.72392 0.20604
 C142 C 0.71311 0.74192 0.17949
 H143 H 0.81830 0.80756 0.09118
 H144 H 0.73730 0.79488 0.17503
 H145 H 0.79773 0.71847 0.12858
 H146 H 0.77911 0.70002 0.20751
 H147 H 0.69058 0.68287 0.25139
 H148 H 0.70382 0.76232 0.15871
 C149 C 0.79405 0.19254 0.26751
 C150 C 0.80361 0.21857 0.29136
 C151 C 0.78234 0.24082 0.31086
 C152 C 0.75159 0.23743 0.30609
 C153 C 0.74263 0.21112 0.28141
 C154 C 0.76368 0.18859 0.26171
 C155 C 0.72879 0.26181 0.32411
 C156 C 0.70066 0.25509 0.34321
 C157 C 0.67860 0.27809 0.35671
 C158 C 0.68540 0.30792 0.35408
 C159 C 0.71326 0.31517 0.33637
 C160 C 0.73472 0.29212 0.32096
 H161 H 0.81045 0.17598 0.25027
 H162 H 0.79000 0.26064 0.32983
 H163 H 0.71921 0.20851 0.27648
 H164 H 0.69572 0.23206 0.34763
 H165 H 0.66934 0.32562 0.36855
 H166 H 0.75580 0.29812 0.30568
 C167 C 0.19567 0.76921 0.13758
 C168 C 0.19045 0.73942 0.12655
 C169 C 0.21279 0.71631 0.14100
 C170 C 0.23996 0.72300 0.16612
 C171 C 0.24436 0.75328 0.17657
 C172 C 0.22245 0.77639 0.16204
 C173 C 0.26398 0.69875 0.18098
 C174 C 0.29412 0.70450 0.17867
 C175 C 0.31695 0.68333 0.19793
 C176 C 0.30958 0.65540 0.21693
 C177 C 0.27993 0.64840 0.21745
 C178 C 0.25713 0.67042 0.20038
 H179 H 0.17932 0.78728 0.12420
 H180 H 0.20925 0.69327 0.13223
 H181 H 0.26472 0.75915 0.19650
 H182 H 0.30002 0.72582 0.16304
 H183 H 0.32682 0.63977 0.23547
 H184 H 0.23415 0.66571 0.20385
 C185 C 0.68732 0.34470 0.78506
 C186 C 0.68018 0.31660 0.80368
 C187 C 0.70313 0.29571 0.82371
 C188 C 0.73319 0.30200 0.82272
 C189 C 0.73971 0.33042 0.80342
 C190 C 0.71686 0.35209 0.78554
 C191 C 0.75766 0.27836 0.83865
 C192 C 0.78487 0.28602 0.86229
 C193 C 0.80802 0.26366 0.87622
 C194 C 0.80348 0.23356 0.86671
 C195 C 0.77662 0.22543 0.84420
 C196 C 0.75395 0.24780 0.82983
 H197 H 0.67006 0.36013 0.76607
 H198 H 0.69737 0.27430 0.83906
 H199 H 0.76259 0.33552 0.80050
 H200 H 0.78793 0.30926 0.87010
 H201 H 0.82049 0.21602 0.87967
 H202 H 0.73364 0.24111 0.81101
 C203 C 0.31972 0.69292 0.65484
 C204 C 0.32519 0.72320 0.65279
 C205 C 0.30218 0.74537 0.66589
 C206 C 0.27433 0.73734 0.68384
 C207 C 0.27002 0.70653 0.68757
 C208 C 0.29224 0.68432 0.67181
 C209 C 0.24947 0.76066 0.69765
 C210 C 0.21964 0.75406 0.69112
 C211 C 0.19602 0.77400 0.70937
 C212 C 0.20212 0.80217 0.72917
 C213 C 0.23134 0.81032 0.73313
 C214 C 0.25506 0.78905 0.71903
 H215 H 0.33652 0.67603 0.64005
 H216 H 0.30604 0.76871 0.66136
 H217 H 0.24934 0.69944 0.70268
 H218 H 0.21458 0.73325 0.67219
 H219 H 0.18401 0.81733 0.74475
 H220 H 0.27766 0.79462 0.72550
 C221 C 0.29285 0.30038 0.77000
 C222 C 0.26217 0.30930 0.76945
 C223 C 0.24278 0.28994 0.79268
 C224 C 0.25408 0.26229 0.81745
 C225 C 0.28520 0.25437 0.81800
 C226 C 0.30451 0.27277 0.79262
 C227 C 0.23376 0.24105 0.84102
 C228 C 0.24222 0.20987 0.84024
 C229 C 0.22447 0.18958 0.86446
 C230 C 0.19712 0.20041 0.88700
 C231 C 0.18747 0.23123 0.88756
 C232 C 0.20620 0.25150 0.86489
 H233 H 0.30775 0.31439 0.74961
 H234 H 0.21905 0.29628 0.79087
 H235 H 0.29465 0.23386 0.83816
 H236 H 0.26250 0.20108 0.82012
 H237 H 0.18365 0.18454 0.90609
 H238 H 0.19951 0.27527 0.86601
 C239 C 0.70346 0.73358 0.61365
 C240 C 0.73260 0.72534 0.63291
 C241 C 0.75044 0.74773 0.64953
 C242 C 0.73974 0.77834 0.64499
 C243 C 0.71065 0.78610 0.62324
 C244 C 0.69227 0.76377 0.60819
 C245 C 0.75875 0.80199 0.66389
 C246 C 0.74574 0.82876 0.68800
 C247 C 0.76360 0.85045 0.70809
 C248 C 0.79461 0.84506 0.70469
 C249 C 0.80820 0.81846 0.68205
 C250 C 0.79011 0.79728 0.66077
 H251 H 0.68975 0.71626 0.60030
 H252 H 0.77238 0.74106 0.66707
 H253 H 0.70221 0.80942 0.61831
 H254 H 0.72185 0.83249 0.69247
 H255 H 0.80825 0.86087 0.72399
 H256 H 0.80070 0.77697 0.64254
 C257 C 0.25509 0.07397 0.18580
 C258 C 0.22642 0.08011 0.20689
 N259 N 0.20465 0.06280 0.19179
 C260 C 0.21003 0.03983 0.15537
 C261 C 0.23862 0.03380 0.13259
 N262 N 0.26066 0.05090 0.14925
 N263 N 0.27638 0.09224 0.19987
 C264 C 0.27013 0.11666 0.23325
 C265 C 0.24098 0.12338 0.25341
 N266 N 0.22024 0.10432 0.23981
 H267 H 0.19191 0.02685 0.14358
 H268 H 0.28761 0.13085 0.24208
 C269 C 0.76049 0.63371 0.60890
 C270 C 0.73249 0.64283 0.63115
 N271 N 0.71230 0.62264 0.63737
 C272 C 0.71835 0.59389 0.62030
 C273 C 0.74562 0.58501 0.59459
 N274 N 0.76638 0.60506 0.59062
 N275 N 0.78025 0.65433 0.60130
 C276 C 0.77289 0.68381 0.61319
 C277 C 0.74411 0.69325 0.63212
 N278 N 0.72491 0.67224 0.64155
 H279 H 0.70140 0.57853 0.62416
 H280 H 0.78863 0.69989 0.60440
 C281 C 0.75461 0.89759 0.09797
 C282 C 0.78420 0.88542 0.10621
 N283 N 0.80675 0.90254 0.09683
 C284 C 0.80118 0.93117 0.07795
 C285 C 0.77157 0.94331 0.06719
 N286 N 0.74890 0.92626 0.07867
 N287 N 0.73223 0.87985 0.10562
 C288 C 0.73816 0.85032 0.11979
 C289 C 0.76796 0.83776 0.12584
 N290 N 0.79008 0.85605 0.11962
 H291 H 0.81985 0.94394 0.06994
 H292 H 0.71982 0.83663 0.12323
 C293 C 0.23806 0.38854 0.67459
 C294 C 0.26484 0.38457 0.70561
 N295 N 0.28539 0.40447 0.70003
 C296 C 0.28075 0.42788 0.66356
 C297 C 0.25445 0.43146 0.63070
 N298 N 0.23343 0.41187 0.63769
 N299 N 0.21814 0.36778 0.67898
 C300 C 0.22413 0.34285 0.71190
 C301 C 0.25161 0.33819 0.74124
 N302 N 0.27090 0.35967 0.73772
 H303 H 0.29786 0.44301 0.65904
 H304 H 0.20829 0.32624 0.71256
 C305 C 0.89405 0.22848 0.26284
 C306 C 0.87267 0.25333 0.25790
 N307 N 0.88054 0.27931 0.23545
 C308 C 0.90851 0.28119 0.21583
 C309 C 0.92927 0.25562 0.21713
 N310 N 0.92154 0.23008 0.24171
 N311 N 0.88627 0.20229 0.28408
 C312 C 0.85771 0.19936 0.29844
 C313 C 0.83561 0.22345 0.28962
 N314 N 0.84387 0.25020 0.27083
 H315 H 0.91375 0.30175 0.19596
 H316 H 0.85203 0.17796 0.31405
 C317 C 0.40720 0.73822 0.58061
 C318 C 0.38191 0.75843 0.57010
 N319 N 0.38321 0.78054 0.53119
 C320 C 0.40836 0.78270 0.50113
 C321 C 0.43296 0.76118 0.50912
 N322 N 0.43178 0.73976 0.54939
 N323 N 0.40616 0.71605 0.61910
 C324 C 0.38057 0.71233 0.64610
 C325 C 0.35441 0.73100 0.63272
 N326 N 0.35594 0.75421 0.59590
 H327 H 0.40845 0.79981 0.46895
 H328 H 0.38038 0.69418 0.67617
 C329 C 0.11072 0.73014 0.03362
 C330 C 0.11327 0.75432 0.06984
 N331 N 0.09124 0.77714 0.07120
 C332 C 0.06686 0.77724 0.03702
 C333 C 0.06439 0.75347 -0.00051
 N334 N 0.08631 0.73019 -0.00081
 N335 N 0.13350 0.70797 0.03118
 C336 C 0.15895 0.70919 0.06251
 C337 C 0.16194 0.73398 0.09767
 N338 N 0.13858 0.75560 0.10060
 H339 H 0.04986 0.79602 0.03839
 H340 H 0.17701 0.69172 0.05779
 C341 C 0.59483 0.29372 0.75538
 C342 C 0.61890 0.27150 0.76026
 N343 N 0.61564 0.24332 0.74188
 C344 C 0.58968 0.23665 0.71708
 C345 C 0.56630 0.25946 0.70858
 N346 N 0.56938 0.28735 0.72890
 N347 N 0.59798 0.32188 0.77348
 C348 C 0.62457 0.32926 0.79398
 C349 C 0.64957 0.30776 0.79456
 N350 N 0.64577 0.27907 0.77903
 H351 H 0.58808 0.21432 0.70091
 H352 H 0.62635 0.35203 0.80758
 C353 C 0.76800 0.13321 0.86021
 C354 C 0.74389 0.15427 0.87223
 N355 N 0.71959 0.14499 0.89752
 C356 C 0.71879 0.11578 0.91313
 C357 C 0.74383 0.09515 0.90456
 N358 N 0.76755 0.10441 0.87726
 N359 N 0.79260 0.14233 0.83617
 C360 C 0.79479 0.17183 0.82574
 C361 C 0.77166 0.19334 0.84154
 N362 N 0.74635 0.18390 0.86315
 H363 H 0.69966 0.10922 0.93516
 H364 H 0.81503 0.17856 0.80793
 C365 C 0.26675 0.56850 0.30446
 C366 C 0.24470 0.59289 0.30465
 N367 N 0.22086 0.59193 0.33840
 C368 C 0.21856 0.56807 0.37318
 C369 C 0.24168 0.54460 0.37572
 N370 N 0.26504 0.54530 0.34060
 N371 N 0.29044 0.56916 0.27056
 C372 C 0.29384 0.59367 0.23853
 C373 C 0.27320 0.61932 0.24208
 N374 N 0.24859 0.61791 0.27410
 H375 H 0.19984 0.56833 0.40100
 H376 H 0.31311 0.59346 0.21212
 C377 C 0.23944 0.89281 0.81507
 C378 C 0.26231 0.86930 0.82048
 N379 N 0.28526 0.87212 0.85718
 C380 C 0.28586 0.89697 0.88983
 C381 C 0.26189 0.91956 0.88707
 N382 N 0.23944 0.91697 0.84912
 N383 N 0.21666 0.89036 0.77819
 C384 C 0.21495 0.86496 0.74806
 C385 C 0.23639 0.84018 0.75665
 N386 N 0.26012 0.84334 0.79177
 H387 H 0.30384 0.89816 0.92015
 H388 H 0.19637 0.86382 0.71910
 C389 C 0.72901 0.40504 0.36417
 C390 C 0.75204 0.38199 0.37277
 N391 N 0.77796 0.38837 0.39786
 C392 C 0.78143 0.41654 0.41656
 C393 C 0.75752 0.43906 0.41152
 N394 N 0.73212 0.43274 0.38443
 N395 N 0.70293 0.39885 0.33998
 C396 C 0.69826 0.37034 0.32612
 C397 C 0.72033 0.34671 0.33867
 N398 N 0.74710 0.35328 0.36038
 H399 H 0.80181 0.42073 0.43848
 H400 H 0.67700 0.36601 0.30776
 C401 C 0.10497 0.25465 0.96865
 C402 C 0.11299 0.22566 0.94884
 N403 N 0.09546 0.20349 0.95912
 C404 C 0.07040 0.20875 0.98948
 C405 C 0.06230 0.23765 1.01092
 N406 N 0.07972 0.26013 0.99911
 N407 N 0.12343 0.27637 0.95950
 C408 C 0.14967 0.27027 0.93215
 C409 C 0.15806 0.24087 0.91319
 N410 N 0.13898 0.21964 0.92188
 H411 H 0.05724 0.19027 0.99740
 H412 H 0.16401 0.28801 0.92724
 C413 C 0.60515 0.75010 0.25230
 C414 C 0.61417 0.72034 0.23758
 N415 N 0.59575 0.69871 0.24637
 C416 C 0.56907 0.70524 0.27116
 C417 C 0.56062 0.73467 0.28911
 N418 N 0.57868 0.75660 0.27813
 N419 N 0.62417 0.77145 0.24505
 C420 C 0.65213 0.76423 0.22553
 C421 C 0.66184 0.73406 0.21399
 N422 N 0.64220 0.71306 0.21943
 H423 H 0.55524 0.68730 0.27914
 H424 H 0.66715 0.78155 0.22275
 C425 C 0.89831 0.80004 0.73024
 C426 C 0.88066 0.77639 0.72123
 N427 N 0.89146 0.74807 0.73651
 C428 C 0.91864 0.74257 0.76246
 C429 C 0.93503 0.76679 0.77646
 N430 N 0.92458 0.79483 0.75858
 N431 N 0.88801 0.82824 0.71411
 C432 C 0.86008 0.83423 0.69222
 C433 C 0.84092 0.81122 0.68898
 N434 N 0.85217 0.78255 0.70184
 H435 H 0.92621 0.71990 0.77565
 H436 H 0.85247 0.85707 0.68037
 C437 C 0.39332 0.22102 0.46084
 C438 C 0.38599 0.24491 0.42334
 N439 N 0.40505 0.26617 0.41663
 C440 C 0.43084 0.26518 0.44700
 C441 C 0.43784 0.24207 0.48656
 N442 N 0.41904 0.22015 0.49189
 N443 N 0.37353 0.20038 0.46852
 C444 C 0.34647 0.20302 0.44150
 C445 C 0.33855 0.22782 0.40591
 N446 N 0.35895 0.24778 0.39732
 H447 H 0.44524 0.28291 0.44173
 H448 H 0.33079 0.18689 0.45023
 C449 C 0.73766 0.92520 0.80914
 C450 C 0.76030 0.92611 0.76979
 N451 N 0.77759 0.94919 0.77009
 C452 C 0.77401 0.97099 0.80933
 C453 C 0.75240 0.96945 0.85070
 N454 N 0.73425 0.94684 0.84896
 N455 N 0.72134 0.90125 0.81002
 C456 C 0.72734 0.87772 0.77462
 C457 C 0.75123 0.87785 0.73743
 N458 N 0.76658 0.90250 0.73544
 H459 H 0.78875 0.98866 0.80970
 H460 H 0.71488 0.85839 0.77824
 C461 C 0.24042 0.36606 0.39400
 C462 C 0.26818 0.35718 0.37048
 N463 N 0.28835 0.37742 0.36457
 C464 C 0.28251 0.40596 0.38298
 C465 C 0.25548 0.41462 0.40977
 N466 N 0.23475 0.39451 0.41365
 N467 N 0.22065 0.34537 0.40096
 C468 C 0.22775 0.31609 0.38707
 C469 C 0.25628 0.30685 0.36664
 N470 N 0.27552 0.32794 0.35808
 H471 H 0.29946 0.42132 0.37917
 H472 H 0.21199 0.29994 0.39525
 C473 C 0.25059 0.09752 0.89570
 C474 C 0.22104 0.10762 0.88098
 N475 N 0.19973 0.08839 0.88292
 C476 C 0.20631 0.05969 0.90088
 C477 C 0.23559 0.04974 0.91907
 N478 N 0.25722 0.06888 0.91466
 N479 N 0.27168 0.11718 0.89485
 C480 C 0.26441 0.14661 0.88133
 C481 C 0.23448 0.15708 0.86925
 N482 N 0.21370 0.13700 0.86871
 H483 H 0.18848 0.04524 0.90315
 H484 H 0.28154 0.16189 0.88311
 C485 C 0.76169 0.61012 0.32916
 C486 C 0.73507 0.61293 0.29747
 N487 N 0.71531 0.59225 0.30304
 C488 C 0.72054 0.56920 0.34012
 C489 C 0.74662 0.56682 0.37368
 N490 N 0.76689 0.58717 0.36674
 N491 N 0.78086 0.63156 0.32463
 C492 C 0.77430 0.65601 0.29079
 C493 C 0.74700 0.65947 0.26066
 N494 N 0.72839 0.63741 0.26448
 H495 H 0.70402 0.55342 0.34462
 H496 H 0.78953 0.67319 0.28992
 C497 C 0.10931 0.75215 0.74560
 C498 C 0.11464 0.78150 0.73101
 N499 N 0.09308 0.80432 0.73781
 C500 C 0.06677 0.79944 0.76101
 C501 C 0.06185 0.77036 0.77931
 N502 N 0.08301 0.74717 0.76939
 N503 N 0.13165 0.72969 0.74117
 C504 C 0.15934 0.73544 0.72485
 C505 C 0.16519 0.76523 0.71349
 N506 N 0.14225 0.78726 0.71571
 H507 H 0.05043 0.81843 0.76735
 H508 H 0.17691 0.71721 0.72463
 C509 C 0.59488 0.26466 0.42455
 C510 C 0.61937 0.24329 0.43392
 N511 N 0.61668 0.22001 0.46968
 C512 C 0.59090 0.21769 0.49771
 C513 C 0.56704 0.24017 0.49087
 N514 N 0.56963 0.26286 0.45373
 N515 N 0.59728 0.28795 0.38908
 C516 C 0.62344 0.29157 0.36397
 C517 C 0.64880 0.27150 0.37615
 N518 N 0.64589 0.24729 0.40995
 H519 H 0.58971 0.19955 0.52746
 H520 H 0.62456 0.31047 0.33595
 C521 C 0.88874 0.27633 0.96330
 C522 C 0.88624 0.25151 0.92864
 N523 N 0.90865 0.22905 0.92754
 C524 C 0.93329 0.22987 0.96074
 C525 C 0.93564 0.25422 0.99691
 N526 N 0.91340 0.27719 0.99679
 N527 N 0.86555 0.29806 0.96583
 C528 C 0.83973 0.29575 0.93619
 C529 C 0.83678 0.27027 0.90282
 N530 N 0.86056 0.24915 0.89961
 H531 H 0.95052 0.21128 0.96007
 H532 H 0.82142 0.31293 0.94102
 C533 C 0.40267 0.70571 0.24438
 C534 C 0.37879 0.72811 0.23896
 N535 N 0.38233 0.75640 0.25639
 C536 C 0.40840 0.76302 0.28080
 C537 C 0.43156 0.74006 0.28988
 N538 N 0.42820 0.71205 0.27046
 N539 N 0.39922 0.67744 0.22726
 C540 C 0.37252 0.67014 0.20727
 C541 C 0.34771 0.69187 0.20625
 N542 N 0.35181 0.72063 0.22073
 H543 H 0.41025 0.78546 0.29624
 H544 H 0.37051 0.64729 0.19444
 C545 C 0.23369 0.86814 0.14778
 C546 C 0.25775 0.84658 0.13817
 N547 N 0.28288 0.85524 0.11496
 C548 C 0.28455 0.88425 0.09880
 C549 C 0.25953 0.90527 0.10427
 N550 N 0.23497 0.89669 0.12979
 N551 N 0.20830 0.85965 0.16977
 C552 C 0.20526 0.83031 0.18017
 C553 C 0.22828 0.80826 0.16609
 N554 N 0.25440 0.81708 0.14689
 H555 H 0.30427 0.89022 0.07793
 H556 H 0.18442 0.82411 0.19628
 C557 C 0.73179 0.43195 0.70007
 C558 C 0.75391 0.40765 0.70186
 N559 N 0.77864 0.40864 0.67044
 C560 C 0.78176 0.43243 0.63595
 C561 C 0.75862 0.45578 0.63133
 N562 N 0.73439 0.45507 0.66427
 N563 N 0.70711 0.43119 0.73137
 C564 C 0.70287 0.40666 0.76270
 C565 C 0.72375 0.38113 0.76114
 N566 N 0.74926 0.38266 0.73176
 H567 H 0.80114 0.43215 0.60977
 H568 H 0.68287 0.40682 0.78710
 C569 C 0.74327 0.11362 0.16520
 C570 C 0.77036 0.11354 0.19494
 N571 N 0.79201 0.09072 0.18796
 C572 C 0.78811 0.06830 0.15125
 C573 C 0.76141 0.06879 0.11983
 N574 N 0.73938 0.09129 0.12823
 N575 N 0.72227 0.13724 0.17043
 C576 C 0.72732 0.16110 0.20318
 C577 C 0.75493 0.16158 0.23182
 N578 N 0.77547 0.13735 0.22719
 H579 H 0.80609 0.05083 0.14520
 H580 H 0.71044 0.17992 0.20421
 C581 C 0.27743 0.59427 0.63952
 C582 C 0.25388 0.61705 0.63469
 N583 N 0.22728 0.61053 0.61260
 C584 C 0.22352 0.58248 0.59346
 C585 C 0.24775 0.56020 0.59498
 N586 N 0.27396 0.56668 0.61893
 N587 N 0.30411 0.60060 0.66097
 C588 C 0.30877 0.62901 0.67583
 C589 C 0.28596 0.65248 0.66733
 N590 N 0.25872 0.64567 0.64816
 H591 H 0.20246 0.57820 0.57417
 H592 H 0.33043 0.63333 0.69228
 C593 C 0.89297 0.73885 0.02788
 C594 C 0.88984 0.76218 0.06704
 N595 N 0.91175 0.78051 0.07385
 C596 C 0.93637 0.77730 0.04186
 C597 C 0.93908 0.75501 0.00046
 N598 N 0.91749 0.73584 -0.00495
 N599 N 0.87032 0.72123 0.02033
 C600 C 0.84442 0.72647 0.04897
 C601 C 0.84074 0.75094 0.08583
 N602 N 0.86392 0.76774 0.09443
 H603 H 0.95312 0.79285 0.04707
 H604 H 0.82637 0.71282 0.04058
 C605 C 0.39297 0.24736 0.74426
 C606 C 0.38398 0.27690 0.76039
 N607 N 0.40229 0.29870 0.75220
 C608 C 0.42883 0.29256 0.72673
 C609 C 0.43728 0.26337 0.70752
 N610 N 0.41933 0.24125 0.71782
 N611 N 0.37403 0.22588 0.75086
 C612 C 0.34616 0.23279 0.77110
 C613 C 0.33646 0.26278 0.78412
 N614 N 0.35605 0.28388 0.77931
 H615 H 0.44258 0.31063 0.71933
 H616 H 0.33117 0.21541 0.77325
 C617 C 0.09778 0.20854 0.27740
 C618 C 0.11775 0.23065 0.27906
 N619 N 0.10889 0.25855 0.25883
 C620 C 0.08136 0.26501 0.23495
 C621 C 0.06218 0.24222 0.22935
 N622 N 0.07075 0.21468 0.25192
 N623 N 0.10672 0.18049 0.29653
 C624 C 0.13520 0.17310 0.31479
 C625 C 0.15606 0.19446 0.31201
 N626 N 0.14647 0.22305 0.29568
 H627 H 0.07540 0.28708 0.21706
 H628 H 0.14186 0.15033 0.32851
 C629 C 0.60644 0.77764 0.53194
 C630 C 0.61397 0.75382 0.56953
 N631 N 0.59481 0.73276 0.57730
 C632 C 0.56870 0.73389 0.54789
 C633 C 0.56151 0.75694 0.50828
 N634 N 0.58042 0.77864 0.50187
 N635 N 0.62624 0.79814 0.52331
 C636 C 0.65347 0.79548 0.54960
 C637 C 0.66153 0.77083 0.58547
 N638 N 0.64117 0.75094 0.59489
 H639 H 0.55419 0.71632 0.55399
 H640 H 0.66910 0.81157 0.54028
   
