data_POSCAR
  _audit_creation_date              2014-09-24
  _audit_creation_method            'ToBaCCo'
  _symmetry_space_group_name_H-M    'P1'
  _symmetry_Int_Tables_number       1
  _symmetry_cell_setting            triclinic
  loop_
  _symmetry_equiv_pos_as_xyz
 x,y,z
_cell_length_a 40.5154
_cell_length_b 40.4812
_cell_length_c 22.6088
_cell_angle_alpha 89.925000
_cell_angle_beta 90.241100
_cell_angle_gamma 88.280000
loop_
  _atom_site_label
  _atom_site_type_symbol
  _atom_site_fract_x
  _atom_site_fract_y
  _atom_site_fract_z
C1 C -0.02778 0.27440 0.03405
 C2 C -0.02810 0.27145 -0.02904
 C3 C 0.00201 0.26625 -0.05901
 C4 C 0.03295 0.26558 -0.03006
 C5 C 0.03315 0.27147 0.03203
 C6 C 0.00323 0.27564 0.06258
 H7 H 0.00480 0.27696 0.11028
 H8 H 0.00110 0.26523 -0.10679
 C9 C 0.45958 0.76979 0.55469
 C10 C 0.45834 0.77045 0.49205
 C11 C 0.48767 0.77298 0.46007
 C12 C 0.51842 0.77403 0.48832
 C13 C 0.52019 0.77163 0.55098
 C14 C 0.49053 0.77011 0.58311
 H15 H 0.49140 0.76803 0.63083
 H16 H 0.48653 0.77384 0.41213
 C17 C 1.01550 0.75655 0.05533
 C18 C 1.01600 0.75368 -0.00751
 C19 C 0.98602 0.75161 -0.03877
 C20 C 0.95514 0.75364 -0.01028
 C21 C 0.95480 0.75460 0.05269
 C22 C 0.98468 0.75598 0.08380
 H23 H 0.98371 0.75488 0.13163
 H24 H 0.98696 0.75082 -0.08670
 C25 C 0.53617 0.22564 0.52757
 C26 C 0.53367 0.22511 0.46508
 C27 C 0.50242 0.22311 0.43859
 C28 C 0.47356 0.22127 0.47240
 C29 C 0.47595 0.22146 0.53520
 C30 C 0.50737 0.22372 0.56147
 H31 H 0.50957 0.22522 0.60914
 H32 H 0.50051 0.22321 0.39072
 C33 C 0.74140 -0.04179 0.01020
 C34 C 0.74498 -0.04465 -0.05236
 C35 C 0.74761 -0.01595 -0.08698
 C36 C 0.74900 0.01555 -0.06127
 C37 C 0.74665 0.01821 0.00086
 C38 C 0.74215 -0.00999 0.03514
 H39 H 0.73843 -0.00643 0.08213
 H40 H 0.74988 -0.01838 -0.13454
 C41 C 0.22668 0.47763 0.57170
 C42 C 0.22574 0.47699 0.50886
 C43 C 0.22690 0.50686 0.47742
 C44 C 0.22873 0.53745 0.50626
 C45 C 0.22934 0.53825 0.56897
 C46 C 0.22821 0.50836 0.60055
 H47 H 0.22964 0.50906 0.64840
 H48 H 0.22645 0.50630 0.42946
 C49 C 0.28557 1.03847 0.06925
 C50 C 0.28617 1.03720 0.00577
 C51 C 0.28315 1.00645 -0.02266
 C52 C 0.28264 0.97670 0.00905
 C53 C 0.28293 0.97748 0.07165
 C54 C 0.28421 1.00819 0.10038
 H55 H 0.28102 1.00832 0.14779
 H56 H 0.28323 1.00532 -0.07062
 C57 C 0.78306 0.51933 0.49714
 C58 C 0.77670 0.51868 0.43535
 C59 C 0.77240 0.48805 0.40776
 C60 C 0.77326 0.45841 0.43986
 C61 C 0.77868 0.45923 0.50178
 C62 C 0.78372 0.48969 0.52934
 H63 H 0.78781 0.49037 0.57677
 H64 H 0.76684 0.48719 0.36088
 O65 O 0.22817 0.29269 0.17429
 O66 O 0.30958 0.27519 0.24067
 O67 O 0.27049 0.24342 0.16872
 O68 O 0.26544 0.32237 0.24996
 O69 O 0.23973 0.29767 0.32284
 O70 O 0.25011 0.21768 0.24605
 O71 O 0.28651 0.25113 0.31715
 O72 O 0.20474 0.26443 0.24554
 Cu73 Cu 0.27083 0.28585 0.20097
 Cu74 Cu 0.24283 0.25542 0.29062
 C75 C 0.20266 0.28094 0.19767
 C76 C 0.31206 0.26077 0.29045
 C77 C 0.26139 0.21709 0.19381
 C78 C 0.25144 0.32353 0.30015
 O79 O 0.72877 0.79290 0.22114
 O80 O 0.74042 0.71848 0.31248
 O81 O 0.77584 0.74926 0.23450
 O82 O 0.69358 0.76281 0.29946
 O83 O 0.67227 0.73146 0.23008
 O84 O 0.75437 0.72015 0.16209
 O85 O 0.72121 0.68823 0.23940
 O86 O 0.70633 0.76350 0.15014
 Cu87 Cu 0.73675 0.75886 0.27409
 Cu88 Cu 0.71107 0.72290 0.18830
 C89 C 0.71606 0.79093 0.16991
 C90 C 0.73317 0.69064 0.29113
 C91 C 0.77913 0.73287 0.18690
 C92 C 0.66900 0.74886 0.27658
 O93 O 0.80361 0.22749 0.22375
 O94 O 0.72852 0.21154 0.30819
 O95 O 0.75904 0.18336 0.21851
 O96 O 0.77290 0.25753 0.30767
 O97 O 0.74390 0.28731 0.24279
 O98 O 0.72659 0.21254 0.15799
 O99 O 0.69890 0.24303 0.24691
 O100 O 0.77340 0.25472 0.15695
 Cu101 Cu 0.76871 0.21686 0.27131
 Cu102 Cu 0.73268 0.25249 0.19486
 C103 C 0.80115 0.24330 0.17545
 C104 C 0.70105 0.22483 0.29264
 C105 C 0.74059 0.18535 0.17298
 C106 C 0.76131 0.28523 0.28948
 O107 O 0.25645 0.77995 0.20179
 O108 O 0.24293 0.70480 0.28967
 O109 O 0.21255 0.73526 0.20143
 O110 O 0.28757 0.74948 0.28859
 O111 O 0.25831 0.77874 0.35324
 O112 O 0.18361 0.76592 0.26445
 O113 O 0.21268 0.73425 0.35252
 O114 O 0.22870 0.80985 0.26779
 Cu115 Cu 0.25284 0.73927 0.23910
 Cu116 Cu 0.21778 0.77494 0.31619
 C117 C 0.24486 0.80761 0.21995
 C118 C 0.22547 0.70674 0.33613
 C119 C 0.18544 0.74901 0.21724
 C120 C 0.28578 0.76662 0.33551
 O121 O 0.71519 0.24582 0.71073
 O122 O 0.79495 0.25697 0.78720
 O123 O 0.76126 0.28889 0.70611
 O124 O 0.74758 0.21454 0.79453
 O125 O 0.77332 0.18370 0.72762
 O126 O 0.78696 0.25845 0.63853
 O127 O 0.81986 0.22597 0.71955
 O128 O 0.74070 0.21464 0.64402
 Cu129 Cu 0.75222 0.25458 0.75653
 Cu130 Cu 0.78268 0.21767 0.67548
 C131 C 0.71443 0.22811 0.66439
 C132 C 0.82102 0.24329 0.76620
 C133 C 0.77654 0.28643 0.65742
 C134 C 0.75799 0.18647 0.77635
 O135 O 0.28931 0.75927 0.76190
 O136 O 0.21373 0.74582 0.84704
 O137 O 0.24557 0.71406 0.76378
 O138 O 0.25667 0.79364 0.84153
 O139 O 0.22662 0.81915 0.77275
 O140 O 0.21514 0.74036 0.69642
 O141 O 0.18400 0.77288 0.77962
 O142 O 0.25983 0.78569 0.69335
 Cu143 Cu 0.25422 0.75072 0.81075
 Cu144 Cu 0.21850 0.78209 0.72862
 C145 C 0.28747 0.77451 0.71290
 C146 C 0.18602 0.75680 0.82785
 C147 C 0.22832 0.71381 0.71668
 C148 C 0.24347 0.81999 0.82010
 O149 O 0.26574 0.29827 0.76207
 O150 O 0.27739 0.21495 0.82726
 O151 O 0.30878 0.25000 0.75061
 O152 O 0.23416 0.26363 0.84090
 O153 O 0.20391 0.24279 0.76945
 O154 O 0.27821 0.23036 0.67821
 O155 O 0.24718 0.19435 0.75552
 O156 O 0.23564 0.27721 0.69038
 Cu157 Cu 0.27439 0.25877 0.80265
 Cu158 Cu 0.23798 0.23394 0.71661
 C159 C 0.24962 0.30156 0.71398
 C160 C 0.26426 0.19044 0.80238
 C161 C 0.30599 0.23875 0.69852
 C162 C 0.20632 0.25530 0.82073
 O163 O 0.72704 0.74913 0.64019
 O164 O 0.80792 0.74557 0.71561
 O165 O 0.77422 0.70481 0.65227
 O166 O 0.76037 0.79019 0.70521
 O167 O 0.73875 0.77097 0.78762
 O168 O 0.74850 0.68640 0.73110
 O169 O 0.78393 0.72651 0.79588
 O170 O 0.70283 0.73362 0.72269
 Cu171 Cu 0.76973 0.74930 0.67010
 Cu172 Cu 0.74106 0.72703 0.76715
 C173 C 0.70119 0.74238 0.66881
 C174 C 0.80946 0.73587 0.76899
 C175 C 0.76311 0.68111 0.68228
 C176 C 0.74803 0.79488 0.75621
 C177 C 0.26660 0.12589 0.10354
 C178 C 0.27669 0.12806 0.16264
 N179 N 0.28940 0.10077 0.19028
 C180 C 0.29265 0.07135 0.16153
 C181 C 0.28243 0.06869 0.10170
 N182 N 0.26906 0.09638 0.07530
 N183 N 0.25558 0.15353 0.07462
 C184 C 0.25422 0.18334 0.10236
 C185 C 0.26363 0.18548 0.16207
 N186 N 0.27452 0.15763 0.19093
 H187 H 0.30446 0.05089 0.18490
 H188 H 0.24531 0.20504 0.07844
 C189 C 0.76798 0.58575 0.60726
 C190 C 0.78837 0.61065 0.58658
 N191 N 0.80864 0.60445 0.53996
 C192 C 0.80877 0.57470 0.51203
 C193 C 0.78684 0.55045 0.53037
 N194 N 0.76751 0.55640 0.57853
 N195 N 0.74799 0.59178 0.65425
 C196 C 0.74698 0.62185 0.68095
 C197 C 0.76635 0.64731 0.65885
 N198 N 0.78683 0.64091 0.61234
 H199 H 0.82489 0.57042 0.47459
 H200 H 0.73038 0.62613 0.71772
 C201 C 0.71812 0.87606 0.06205
 C202 C 0.72989 0.87628 0.12037
 N203 N 0.74451 0.90344 0.14167
 C204 C 0.74811 0.93056 0.10732
 C205 C 0.73684 0.93066 0.04793
 N206 N 0.72179 0.90314 0.02738
 N207 N 0.70418 0.84839 0.04054
 C208 C 0.70194 0.82078 0.07467
 C209 C 0.71438 0.82084 0.13288
 N210 N 0.72785 0.84881 0.15416
 H211 H 0.76138 0.95091 0.12578
 H212 H 0.69126 0.79888 0.05613
 C213 C 0.24818 0.39147 0.61977
 C214 C 0.23123 0.38916 0.67362
 N215 N 0.21336 0.41574 0.69361
 C216 C 0.21153 0.44444 0.66212
 C217 C 0.22850 0.44687 0.60805
 N218 N 0.24675 0.42022 0.58889
 N219 N 0.26504 0.36467 0.59833
 C220 C 0.26568 0.33555 0.62827
 C221 C 0.24912 0.33320 0.68245
 N222 N 0.23229 0.36015 0.70418
 H223 H 0.19649 0.46491 0.67867
 H224 H 0.27914 0.31442 0.61016
 C225 C 0.88819 0.25286 0.07693
 C226 C 0.88615 0.26491 0.13481
 N227 N 0.91236 0.28019 0.15874
 C228 C 0.94062 0.28402 0.12744
 C229 C 0.94316 0.27165 0.06896
 N230 N 0.91662 0.25586 0.04640
 N231 N 0.86149 0.23906 0.05156
 C232 C 0.83274 0.23666 0.08182
 C233 C 0.83093 0.24785 0.14046
 N234 N 0.85778 0.26164 0.16576
 H235 H 0.96010 0.29773 0.14777
 H236 H 0.81179 0.22536 0.06096
 C237 C 0.37483 0.78548 0.61406
 C238 C 0.37316 0.76153 0.65867
 N239 N 0.39965 0.74097 0.66913
 C240 C 0.42770 0.74314 0.63660
 C241 C 0.42944 0.76700 0.59147
 N242 N 0.40296 0.78791 0.58223
 N243 N 0.34804 0.80542 0.60234
 C244 C 0.31954 0.80245 0.63325
 C245 C 0.31784 0.77868 0.67846
 N246 N 0.34489 0.75884 0.69011
 H247 H 0.44827 0.72613 0.64533
 H248 H 0.29854 0.81862 0.62290
 C249 C 0.10088 0.74489 0.10800
 C250 C 0.09974 0.76130 0.16246
 N251 N 0.07130 0.77673 0.17985
 C252 C 0.04370 0.77613 0.14560
 C253 C 0.04435 0.75934 0.09064
 N254 N 0.07335 0.74439 0.07371
 N255 N 0.12937 0.72942 0.09052
 C256 C 0.15689 0.72974 0.12517
 C257 C 0.15587 0.74637 0.17980
 N258 N 0.12717 0.76180 0.19694
 H259 H 0.02184 0.78954 0.16070
 H260 H 0.17936 0.71745 0.10991
 C261 C 0.62353 0.21348 0.57717
 C262 C 0.62670 0.23919 0.61818
 N263 N 0.60042 0.25985 0.62904
 C264 C 0.57114 0.25607 0.60045
 C265 C 0.56791 0.23042 0.55905
 N266 N 0.59421 0.20948 0.54928
 N267 N 0.64992 0.19323 0.56520
 C268 C 0.67947 0.19751 0.59238
 C269 C 0.68275 0.22304 0.63399
 N270 N 0.65610 0.24325 0.64597
 H271 H 0.55065 0.27305 0.60955
 H272 H 0.70009 0.18096 0.58194
 C273 C 0.74178 0.10133 0.87928
 C274 C 0.76359 0.10002 0.83131
 N275 N 0.78010 0.07121 0.81872
 C276 C 0.77584 0.04367 0.85210
 C277 C 0.75397 0.04488 0.90041
 N278 N 0.73737 0.07383 0.91216
 N279 N 0.72573 0.13020 0.89284
 C280 C 0.73053 0.15796 0.86054
 C281 C 0.75226 0.15679 0.81214
 N282 N 0.76823 0.12767 0.79865
 H283 H 0.78983 0.02127 0.84161
 H284 H 0.71739 0.18064 0.87243
 C285 C 0.21337 0.62115 0.44056
 C286 C 0.23851 0.62239 0.39821
 N287 N 0.25985 0.59614 0.39192
 C288 C 0.25730 0.56875 0.42633
 C289 C 0.23225 0.56743 0.46912
 N290 N 0.21058 0.59364 0.47440
 N291 N 0.19249 0.64769 0.44782
 C292 C 0.19567 0.67550 0.41472
 C293 C 0.22070 0.67678 0.37188
 N294 N 0.24147 0.64999 0.36466
 H295 H 0.27475 0.54824 0.42063
 H296 H 0.17877 0.69634 0.42167
 C297 C 0.25401 0.91217 0.90549
 C298 C 0.27607 0.88560 0.91784
 N299 N 0.30101 0.88979 0.95721
 C300 C 0.30451 0.91915 0.98555
 C301 C 0.28154 0.94535 0.97519
 N302 N 0.25714 0.94127 0.93449
 N303 N 0.22945 0.90828 0.86541
 C304 C 0.22578 0.87900 0.83720
 C305 C 0.24740 0.85204 0.85012
 N306 N 0.27216 0.85608 0.89028
 H307 H 0.32445 0.92180 1.01703
 H308 H 0.20587 0.87669 0.80555
 C309 C 0.78167 0.37278 0.38155
 C310 C 0.75324 0.37071 0.34628
 N311 N 0.73188 0.39709 0.34225
 C312 C 0.73761 0.42545 0.37224
 C313 C 0.76611 0.42763 0.40763
 N314 N 0.78769 0.40129 0.41042
 N315 N 0.80254 0.34610 0.38714
 C316 C 0.79629 0.31735 0.35883
 C317 C 0.76819 0.31541 0.32247
 N318 N 0.74735 0.34226 0.31701
 H319 H 0.72006 0.44606 0.36875
 H320 H 0.81338 0.29646 0.36381
 C321 C 0.12011 0.26692 0.92451
 C322 C 0.11917 0.25147 0.86925
 N323 N 0.09028 0.23979 0.84894
 C324 C 0.06204 0.24338 0.88083
 C325 C 0.06232 0.25976 0.93628
 N326 N 0.09190 0.27063 0.95628
 N327 N 0.14912 0.27832 0.94527
 C328 C 0.17730 0.27499 0.91298
 C329 C 0.17640 0.25966 0.85716
 N330 N 0.14720 0.24819 0.83685
 H331 H 0.04008 0.23241 0.86335
 H332 H 0.20007 0.28429 0.93067
 C333 C 0.57904 0.75421 0.36999
 C334 C 0.60416 0.77633 0.38224
 N335 N 0.60012 0.79866 0.42659
 C336 C 0.57232 0.79937 0.46018
 C337 C 0.54791 0.77600 0.45015
 N338 N 0.55166 0.75443 0.40429
 N339 N 0.58287 0.73219 0.32515
 C340 C 0.61100 0.73086 0.29253
 C341 C 0.63677 0.75213 0.30609
 N342 N 0.63252 0.77456 0.35053
 H343 H 0.56967 0.81733 0.49540
 H344 H 0.61361 0.71265 0.25773
 C345 C 0.89826 0.73966 0.86620
 C346 C 0.86902 0.75482 0.88701
 N347 N 0.86931 0.77174 0.93859
 C348 C 0.89722 0.77304 0.97181
 C349 C 0.92613 0.75530 0.95424
 N350 N 0.92598 0.74012 0.90023
 N351 N 0.89829 0.72432 0.81273
 C352 C 0.87018 0.72317 0.77956
 C353 C 0.84062 0.73719 0.80171
 N354 N 0.84087 0.75287 0.85483
 H355 H 0.89673 0.78840 1.01084
 H356 H 0.87069 0.71079 0.73715
 C357 C 0.40604 0.24922 0.37104
 C358 C 0.38106 0.22704 0.38388
 N359 N 0.38738 0.20191 0.42261
 C360 C 0.41729 0.19843 0.45006
 C361 C 0.44165 0.22185 0.43990
 N362 N 0.43550 0.24626 0.39953
 N363 N 0.40026 0.27377 0.33116
 C364 C 0.37047 0.27744 0.30379
 C365 C 0.34495 0.25600 0.31778
 N366 N 0.35094 0.23114 0.35756
 H367 H 0.42169 0.17830 0.48092
 H368 H 0.36651 0.29743 0.27247
 C369 C 0.73796 0.88836 0.83605
 C370 C 0.75913 0.86368 0.85996
 N371 N 0.77633 0.86971 0.91015
 C372 C 0.77277 0.89915 0.93844
 C373 C 0.74993 0.92322 0.91697
 N374 N 0.73367 0.91747 0.86524
 N375 N 0.72184 0.88265 0.78437
 C376 C 0.72560 0.85311 0.75602
 C377 C 0.74574 0.82804 0.78133
 N378 N 0.76210 0.83400 0.83265
 H379 H 0.78725 0.90355 0.97783
 H380 H 0.71222 0.84886 0.71533
 C381 C 0.24729 0.41345 0.39558
 C382 C 0.22588 0.38798 0.40947
 N383 N 0.20377 0.39241 0.45398
 C384 C 0.20248 0.42095 0.48587
 C385 C 0.22497 0.44593 0.47385
 N386 N 0.24644 0.44161 0.42808
 N387 N 0.26882 0.40950 0.35019
 C388 C 0.27016 0.38110 0.31818
 C389 C 0.24934 0.35511 0.33270
 N390 N 0.22758 0.35929 0.37817
 H391 H 0.18445 0.42394 0.52079
 H392 H 0.28777 0.37861 0.28248
 C393 C 0.27118 0.09734 0.88732
 C394 C 0.29161 0.12302 0.90453
 N395 N 0.31249 0.11847 0.95109
 C396 C 0.31279 0.08994 0.98294
 C397 C 0.29010 0.06522 0.96932
 N398 N 0.27095 0.06913 0.91986
 N399 N 0.25050 0.10176 0.84041
 C400 C 0.24876 0.13100 0.81068
 C401 C 0.26814 0.15734 0.82941
 N402 N 0.28944 0.15246 0.87564
 H403 H 0.32975 0.08705 1.01986
 H404 H 0.23162 0.13396 0.77408
 C405 C 0.74983 0.60432 0.39236
 C406 C 0.75931 0.60550 0.33281
 N407 N 0.77496 0.57889 0.30808
 C408 C 0.78145 0.55099 0.34012
 C409 C 0.77131 0.54931 0.39959
 N410 N 0.75548 0.57618 0.42385
 N411 N 0.73559 0.63147 0.41798
 C412 C 0.73031 0.65980 0.38654
 C413 C 0.73894 0.66072 0.32648
 N414 N 0.75323 0.63346 0.30098
 H415 H 0.79456 0.53047 0.31934
 H416 H 0.71896 0.68120 0.40784
 C417 C 0.09922 0.73976 0.92513
 C418 C 0.10174 0.76810 0.88974
 N419 N 0.07638 0.79076 0.88816
 C420 C 0.04873 0.78656 0.92088
 C421 C 0.04614 0.75833 0.95669
 N422 N 0.07130 0.73522 0.95684
 N423 N 0.12509 0.71773 0.92846
 C424 C 0.15342 0.72276 0.89807
 C425 C 0.15583 0.75084 0.86180
 N426 N 0.12974 0.77279 0.85838
 H427 H 0.02896 0.80514 0.91928
 H428 H 0.17368 0.70481 0.90156
 C429 C 0.61617 0.21062 0.39646
 C430 C 0.61690 0.23627 0.35474
 N431 N 0.59041 0.25739 0.34906
 C432 C 0.56331 0.25421 0.38371
 C433 C 0.56266 0.22879 0.42613
 N434 N 0.58900 0.20727 0.43053
 N435 N 0.64292 0.18998 0.40327
 C436 C 0.67053 0.19389 0.37036
 C437 C 0.67137 0.21948 0.32828
 N438 N 0.64434 0.24000 0.32140
 H439 H 0.54263 0.27157 0.37880
 H440 H 0.69156 0.17713 0.37689
 C441 C 0.91204 0.25164 0.85614
 C442 C 0.88488 0.27220 0.87110
 N443 N 0.88784 0.29430 0.91578
 C444 C 0.91635 0.29590 0.94762
 C445 C 0.94288 0.27345 0.93579
 N446 N 0.94019 0.25280 0.88853
 N447 N 0.90944 0.22986 0.81100
 C448 C 0.88068 0.22730 0.78053
 C449 C 0.85298 0.24709 0.79646
 N450 N 0.85589 0.26934 0.84128
 H451 H 0.91802 0.31399 0.98264
 H452 H 0.87931 0.20945 0.74508
 C453 C 0.37298 0.78250 0.43277
 C454 C 0.37116 0.75614 0.39275
 N455 N 0.39757 0.73512 0.38593
 C456 C 0.42572 0.73916 0.41766
 C457 C 0.42763 0.76547 0.45798
 N458 N 0.40127 0.78683 0.46369
 N459 N 0.34627 0.80302 0.44074
 C460 C 0.31774 0.79836 0.41042
 C461 C 0.31598 0.77224 0.36967
 N462 N 0.34289 0.75180 0.36179
 H463 H 0.44641 0.72195 0.41174
 H464 H 0.29680 0.81510 0.41757
 C465 C 0.25615 0.89409 0.11931
 C466 C 0.27137 0.89060 0.17490
 N467 N 0.29028 0.91516 0.19576
 C468 C 0.29465 0.94310 0.16360
 C469 C 0.27898 0.94705 0.10811
 N470 N 0.25984 0.92229 0.08791
 N471 N 0.23839 0.86899 0.09714
 C472 C 0.23504 0.84055 0.12830
 C473 C 0.24953 0.83736 0.18458
 N474 N 0.26734 0.86254 0.20673
 H475 H 0.31052 0.96183 0.18098
 H476 H 0.22067 0.82087 0.10992
 C477 C 0.79136 0.37359 0.55953
 C478 C 0.76881 0.37325 0.60636
 N479 N 0.75080 0.40107 0.61949
 C480 C 0.75400 0.42916 0.58725
 C481 C 0.77617 0.42947 0.53956
 N482 N 0.79477 0.40172 0.52781
 N483 N 0.80871 0.34553 0.54530
 C484 C 0.80443 0.31699 0.57578
 C485 C 0.78194 0.31659 0.62296
 N486 N 0.76478 0.34491 0.63718
 H487 H 0.73892 0.45085 0.59791
 H488 H 0.81855 0.29496 0.56349
 C489 C 0.72969 0.10090 0.06657
 C490 C 0.75755 0.10427 0.10298
 N491 N 0.78168 0.08032 0.10338
 C492 C 0.77915 0.05299 0.06909
 C493 C 0.75116 0.04936 0.03308
 N494 N 0.72684 0.07329 0.03322
 N495 N 0.70590 0.12523 0.06541
 C496 C 0.70871 0.15282 0.09911
 C497 C 0.73630 0.15592 0.13643
 N498 N 0.76006 0.13147 0.13735
 H499 H 0.79849 0.03396 0.07058
 H500 H 0.68947 0.17193 0.09727
 C501 C 0.21544 0.62436 0.62391
 C502 C 0.24053 0.62687 0.66649
 N503 N 0.26133 0.60054 0.67670
 C504 C 0.25829 0.57187 0.64599
 C505 C 0.23329 0.56932 0.60294
 N506 N 0.21221 0.59565 0.59379
 N507 N 0.19505 0.65082 0.61261
 C508 C 0.19864 0.67982 0.64186
 C509 C 0.22363 0.68248 0.68490
 N510 N 0.24395 0.65574 0.69627
 H511 H 0.27540 0.55137 0.65465
 H512 H 0.18205 0.70053 0.63177
 C513 C 0.87209 0.72824 0.10294
 C514 C 0.86570 0.75036 0.14956
 N515 N 0.88883 0.77225 0.16533
 C516 C 0.91796 0.77341 0.13602
 C517 C 0.92430 0.75177 0.08843
 N518 N 0.90126 0.72928 0.07372
 N519 N 0.84842 0.70715 0.08594
 C520 C 0.81848 0.70744 0.11301
 C521 C 0.81190 0.72983 0.15934
 N522 N 0.83592 0.75057 0.17669
 H523 H 0.93559 0.79174 0.14854
 H524 H 0.79991 0.69064 0.09808
 C525 C 0.39018 0.23725 0.59010
 C526 C 0.39142 0.22257 0.64633
 N527 N 0.41987 0.20742 0.66520
 C528 C 0.44719 0.20633 0.63042
 C529 C 0.44637 0.22172 0.57436
 N530 N 0.41771 0.23711 0.55629
 N531 N 0.36130 0.25078 0.56961
 C532 C 0.33356 0.25048 0.60314
 C533 C 0.33501 0.23688 0.66029
 N534 N 0.36401 0.22327 0.68072
 H535 H 0.46913 0.19320 0.64627
 H536 H 0.31081 0.26153 0.58601
 C537 C 0.11300 0.29215 0.10282
 C538 C 0.11947 0.26405 0.13803
 N539 N 0.09767 0.23924 0.13828
 C540 C 0.06982 0.24111 0.10449
 C541 C 0.06344 0.26903 0.06879
 N542 N 0.08497 0.29423 0.06970
 N543 N 0.13536 0.31642 0.10086
 C544 C 0.16408 0.31374 0.13206
 C545 C 0.17064 0.28569 0.16748
 N546 N 0.14798 0.26156 0.16984
 H547 H 0.05285 0.22096 0.10515
 H548 H 0.18171 0.33324 0.12904
 C549 C 0.60839 0.74898 0.58378
 C550 C 0.61253 0.76176 0.64084
 N551 N 0.58670 0.77755 0.66782
 C552 C 0.55688 0.78121 0.64028
 C553 C 0.55239 0.76809 0.58315
 N554 N 0.57845 0.75191 0.55697
 N555 N 0.63457 0.73470 0.55536
 C556 C 0.66484 0.73261 0.58155
 C557 C 0.66892 0.74470 0.63924
 N558 N 0.64255 0.75892 0.66768
 H559 H 0.53715 0.79475 0.66251
 H560 H 0.68539 0.72117 0.55801
   
