data_POSCAR
  _audit_creation_date              2014-09-24
  _audit_creation_method            'ToBaCCo'
  _symmetry_space_group_name_H-M    'P1'
  _symmetry_Int_Tables_number       1
  _symmetry_cell_setting            triclinic
  loop_
  _symmetry_equiv_pos_as_xyz
 x,y,z
_cell_length_a 42.5103
_cell_length_b 42.1803
_cell_length_c 41.5236
_cell_angle_alpha 89.322800
_cell_angle_beta 91.162900
_cell_angle_gamma 82.374700
loop_
  _atom_site_label
  _atom_site_type_symbol
  _atom_site_fract_x
  _atom_site_fract_y
  _atom_site_fract_z
N1 N 0.58186 0.65635 0.60437
 N2 N 0.56328 0.63745 0.61743
 C3 C 0.53378 0.65335 0.61940
 C4 C 0.53398 0.68389 0.60715
 C5 C 0.56486 0.68502 0.59773
 H6 H 0.51378 0.64364 0.62952
 H7 H 0.57424 0.70500 0.58664
 Cu8 Cu 0.57951 0.59449 0.63223
 Cu9 Cu 0.62635 0.64190 0.59602
 Cu10 Cu 0.65709 0.56752 0.62738
 N11 N 0.59945 0.55904 0.65895
 N12 N 0.63002 0.54906 0.65770
 C13 C 0.63754 0.52463 0.67882
 C14 C 0.61004 0.51909 0.69412
 C15 C 0.58637 0.54133 0.68088
 H16 H 0.66115 0.51182 0.68234
 H17 H 0.56151 0.54451 0.68687
 N18 N 0.68250 0.59440 0.60232
 N19 N 0.67065 0.62259 0.59003
 C20 C 0.69295 0.63402 0.57234
 C21 C 0.72014 0.61202 0.57373
 C22 C 0.71280 0.58736 0.59313
 H23 H 0.68945 0.65639 0.55896
 H24 H 0.72807 0.56538 0.59904
 H25 H 0.62425 0.59359 0.59577
 H26 H 0.63187 0.61134 0.63570
 N27 N 0.91250 0.34893 0.12204
 N28 N 0.92741 0.36728 0.14075
 C29 C 0.95676 0.35240 0.14787
 C30 C 0.96043 0.32311 0.13289
 C31 C 0.93182 0.32163 0.11668
 H32 H 0.97412 0.36208 0.16295
 H33 H 0.92564 0.30260 0.10157
 Cu34 Cu 0.90702 0.40845 0.15489
 Cu35 Cu 0.87012 0.36292 0.10406
 Cu36 Cu 0.83338 0.43658 0.12903
 N37 N 0.88069 0.44133 0.17816
 N38 N 0.85159 0.45190 0.16828
 C39 C 0.83867 0.47426 0.18869
 C40 C 0.86089 0.47790 0.21262
 C41 C 0.88735 0.45660 0.20524
 H42 H 0.81493 0.48706 0.18622
 H43 H 0.90964 0.45225 0.21860
 N44 N 0.81419 0.41055 0.09708
 N45 N 0.82756 0.38200 0.08831
 C46 C 0.80882 0.37069 0.06579
 C47 C 0.78253 0.39333 0.06022
 C48 C 0.78671 0.41820 0.08041
 H49 H 0.81455 0.34835 0.05339
 H50 H 0.77114 0.44053 0.08231
 H51 H 0.87230 0.41089 0.10661
 H52 H 0.85551 0.39218 0.14220
 N53 N 0.42246 0.16679 -0.10271
 N54 N 0.43729 0.15616 -0.12872
 C55 C 0.46189 0.17264 -0.13355
 C56 C 0.46251 0.19463 -0.10915
 C57 C 0.43726 0.19018 -0.08998
 H58 H 0.47827 0.16869 -0.15311
 H59 H 0.43018 0.20312 -0.06840
 Cu60 Cu 0.42342 0.12156 -0.15363
 Cu61 Cu 0.38507 0.14959 -0.08737
 Cu62 Cu 0.35810 0.08983 -0.13274
 N63 N 0.40745 0.08837 -0.17903
 N64 N 0.38131 0.07685 -0.17130
 C65 C 0.37542 0.05468 -0.19286
 C66 C 0.39930 0.05203 -0.21515
 C67 C 0.41929 0.07359 -0.20562
 H68 H 0.35581 0.04082 -0.19179
 H69 H 0.44088 0.07801 -0.21719
 N70 N 0.33776 0.10601 -0.09295
 N71 N 0.34767 0.12910 -0.07585
 C72 C 0.32913 0.13441 -0.04998
 C73 C 0.30674 0.11344 -0.05085
 C74 C 0.31295 0.09578 -0.07825
 H75 H 0.33226 0.15154 -0.03142
 H76 H 0.30041 0.07664 -0.08657
 H77 H 0.39560 0.10473 -0.10686
 H78 H 0.37056 0.13571 -0.13210
 N79 N 0.06994 0.83109 0.38731
 N80 N 0.05987 0.84065 0.35820
 C81 C 0.03734 0.82312 0.34833
 C82 C 0.03297 0.80155 0.37254
 C83 C 0.05397 0.80729 0.39709
 H84 H 0.02517 0.82554 0.32513
 H85 H 0.05808 0.79461 0.41988
 Cu86 Cu 0.07748 0.87466 0.33571
 Cu87 Cu 0.10468 0.84860 0.40923
 Cu88 Cu 0.13866 0.90704 0.36787
 N89 N 0.09546 0.90871 0.31364
 N90 N 0.11995 0.92073 0.32596
 C91 C 0.12732 0.94413 0.30628
 C92 C 0.10614 0.94696 0.28032
 C93 C 0.08625 0.92423 0.28580
 H94 H 0.14589 0.95873 0.31115
 H95 H 0.06623 0.91982 0.27081
 N96 N 0.15400 0.89028 0.41066
 N97 N 0.14027 0.86904 0.42701
 C98 C 0.15545 0.86348 0.45574
 C99 C 0.18004 0.88176 0.45733
 C100 C 0.17843 0.89852 0.42841
 H101 H 0.14950 0.84695 0.47403
 H102 H 0.19364 0.91576 0.42106
 H103 H 0.09784 0.89295 0.38653
 H104 H 0.12617 0.86120 0.36776
 N105 N 0.13140 0.12867 0.11749
 N106 N 0.37833 0.89301 0.60081
 N107 N 0.88612 0.63058 0.40110
 N108 N 0.63197 0.34781 -0.12687
 C109 C -0.01221 0.30079 0.13404
 C110 C -0.01034 0.27097 0.11945
 C111 C 0.01905 0.24818 0.12034
 N112 N 0.01856 0.21784 0.11005
 N113 N 0.04500 0.19698 0.11054
 C114 C 0.07298 0.20574 0.12118
 N115 N 0.07352 0.23614 0.13129
 N116 N 0.04704 0.25696 0.13095
 C117 C 0.10241 0.18303 0.12172
 C118 C 0.10241 0.15049 0.11641
 H119 H -0.03099 0.26366 0.10747
 H120 H 0.12459 0.19190 0.12747
 H121 H 0.00833 0.30704 0.14717
 H122 H 0.08008 0.14124 0.11264
 C123 C 0.50661 0.70917 0.60497
 C124 C 0.50980 0.74107 0.59845
 C125 C 0.48224 0.76618 0.59712
 N126 N 0.48664 0.79747 0.59645
 N127 N 0.46184 0.82043 0.59561
 C128 C 0.43174 0.81290 0.59521
 N129 N 0.42737 0.78162 0.59561
 N130 N 0.45214 0.75869 0.59663
 C131 C 0.40403 0.83777 0.59459
 C132 C 0.40642 0.86995 0.59980
 H133 H 0.53314 0.74809 0.59535
 H134 H 0.38072 0.83037 0.59150
 H135 H 0.48339 0.70254 0.60982
 H136 H 0.42947 0.87733 0.60451
 C137 C 1.01230 0.77856 0.37085
 C138 C 1.00767 0.75789 0.39631
 C139 C 0.98650 0.73318 0.39261
 N140 N 0.97708 0.71774 0.41887
 N141 N 0.95778 0.69545 0.41562
 C142 C 0.94743 0.68765 0.38594
 N143 N 0.95711 0.70286 0.35972
 N144 N 0.97620 0.72525 0.36299
 C145 C 0.92593 0.66341 0.38160
 C146 C 0.90967 0.65150 0.40694
 H147 H 1.01913 0.76012 0.41954
 H148 H 0.92112 0.65635 0.35719
 H149 H 0.99907 0.77701 0.34847
 H150 H 0.91228 0.66093 0.43087
 C151 C 0.48514 0.21771 -0.10377
 C152 C 0.50696 0.22402 -0.12681
 C153 C 0.52971 0.24694 -0.12140
 N154 N 0.54751 0.25532 -0.14608
 N155 N 0.56828 0.27597 -0.14161
 C156 C 0.57214 0.28891 -0.11222
 N157 N 0.55448 0.28039 -0.08749
 N158 N 0.53359 0.25984 -0.09200
 C159 C 0.59505 0.31168 -0.10687
 C160 C 0.61029 0.32484 -0.13223
 H161 H 0.50706 0.21238 -0.14990
 H162 H 0.59921 0.31913 -0.08246
 H163 H 0.48406 0.23053 -0.08128
 H164 H 0.60436 0.31900 -0.15677
 C165 C 0.10312 -0.02953 0.25361
 C166 C 0.12639 -0.01007 0.24736
 C167 C 0.12224 0.01482 0.22194
 N168 N 0.14700 0.03033 0.21387
 N169 N 0.14339 0.05347 0.19145
 C170 C 0.11481 0.06206 0.17639
 N171 N 0.09002 0.04661 0.18454
 N172 N 0.09368 0.02336 0.20683
 C173 C 0.11015 0.08822 0.15229
 C174 C 0.13557 0.10180 0.13969
 H175 H 0.14837 -0.01314 0.26137
 H176 H 0.08612 0.09653 0.14417
 H177 H 0.08193 -0.02764 0.23841
 H178 H 0.15950 0.09167 0.14679
 C179 C 0.60592 0.49621 -0.28234
 C180 C 0.63102 0.47523 -0.26884
 C181 C 0.62603 0.45131 -0.24403
 N182 N 0.65137 0.43473 -0.22822
 N183 N 0.64726 0.41312 -0.20556
 C184 C 0.61764 0.40718 -0.19798
 N185 N 0.59231 0.42357 -0.21397
 N186 N 0.59642 0.44529 -0.23652
 C187 C 0.61270 0.38351 -0.17291
 C188 C 0.63720 0.36996 -0.15221
 H189 H 0.65515 0.47670 -0.27589
 H190 H 0.58892 0.37758 -0.16980
 H191 H 0.58208 0.49516 -0.27402
 H192 H 0.66038 0.37781 -0.15391
 C193 C 0.40399 1.02981 0.75781
 C194 C 0.37930 1.01485 0.74506
 C195 C 0.38427 0.99123 0.71929
 N196 N 0.35901 0.98293 0.70243
 N197 N 0.36313 0.96103 0.67949
 C198 C 0.39265 0.94642 0.67280
 N199 N 0.41788 0.95454 0.68985
 N200 N 0.41379 0.97665 0.71258
 C201 C 0.39755 0.92154 0.64822
 C202 C 0.37439 0.91769 0.62476
 H203 H 0.35545 1.02104 0.75373
 H204 H 0.42019 0.90648 0.64863
 H205 H 0.42727 1.02566 0.74733
 H206 H 0.35266 0.93433 0.62432
 C207 C 0.85642 0.49988 0.23989
 C208 C 0.88152 0.50616 0.25986
 C209 C 0.87698 0.52868 0.28666
 N210 N 0.90259 0.53787 0.30218
 N211 N 0.89888 0.55845 0.32633
 C212 C 0.86940 0.57048 0.33597
 N213 N 0.84378 0.56110 0.32063
 N214 N 0.84749 0.54064 0.29636
 C215 C 0.86490 0.59336 0.36250
 C216 C 0.89002 0.60768 0.37549
 H217 H 0.90542 0.49510 0.25521
 H218 H 0.84108 0.59968 0.37108
 H219 H 0.83277 0.51216 0.24366
 H220 H 0.91339 0.60169 0.36556
 C221 C 0.28236 0.10882 -0.02727
 C222 C 0.27286 0.13115 -0.00374
 C223 C 0.24844 0.12573 0.01956
 N224 N 0.23406 0.15040 0.03690
 N225 N 0.21166 0.14573 0.05780
 C226 C 0.20304 0.11612 0.06228
 N227 N 0.21769 0.09142 0.04522
 N228 N 0.23989 0.09614 0.02417
 C229 C 0.17826 0.11039 0.08501
 C230 C 0.15715 0.13512 0.09750
 H231 H 0.28264 0.15356 -0.00309
 H232 H 0.17530 0.08581 0.09047
 H233 H 0.27084 0.08748 -0.02923
 H234 H 0.15829 0.15941 0.08928
 C235 C 0.74998 0.61290 0.55658
 C236 C 0.75184 0.63314 0.53012
 C237 C 0.78056 0.63208 0.51084
 N238 N 0.77871 0.64610 0.48118
 N239 N 0.80428 0.64475 0.46298
 C240 C 0.83272 0.62952 0.47387
 N241 N 0.83469 0.61583 0.50371
 N242 N 0.80904 0.61697 0.52184
 C243 C 0.86097 0.62751 0.45373
 C244 C 0.85852 0.63363 0.42070
 H245 H 0.73094 0.64882 0.52182
 H246 H 0.88406 0.61960 0.46468
 H247 H 0.77024 0.59566 0.56355
 H248 H 0.83533 0.63935 0.40922
 C249 C 0.75678 0.39327 0.03602
 C250 C 0.75224 0.36633 0.01831
 C251 C 0.72820 0.36773 -0.00786
 N252 N 0.72176 0.34044 -0.02209
 N253 N 0.70074 0.34157 -0.04649
 C254 C 0.68554 0.37008 -0.05764
 N255 N 0.69204 0.39734 -0.04345
 N256 N 0.71291 0.39619 -0.01897
 C257 C 0.66331 0.37204 -0.08538
 C258 C 0.65235 0.34520 -0.09860
 H259 H 0.76674 0.34369 0.02351
 H260 H 0.65511 0.39546 -0.09568
 H261 H 0.74107 0.41541 0.03189
 H262 H 0.65838 0.32209 -0.08677
 C263 C 0.20286 0.88275 0.48431
 C264 C 0.23167 0.89451 0.48034
 C265 C 0.25504 0.89510 0.50682
 N266 N 0.28533 0.89923 0.50013
 N267 N 0.30687 0.89987 0.52376
 C268 C 0.29884 0.89668 0.55501
 N269 N 0.26845 0.89288 0.56176
 N270 N 0.24695 0.89196 0.53808
 C271 C 0.32248 0.89752 0.58123
 C272 C 0.35492 0.89273 0.57541
 H273 H 0.23806 0.90228 0.45670
 H274 H 0.31433 0.90054 0.60568
 H275 H 0.19748 0.87268 0.50735
 H276 H 0.36289 0.88617 0.55147
   
