data_POSCAR
  _audit_creation_date              2014-09-24
  _audit_creation_method            'ToBaCCo'
  _symmetry_space_group_name_H-M    'P1'
  _symmetry_Int_Tables_number       1
  _symmetry_cell_setting            triclinic
  loop_
  _symmetry_equiv_pos_as_xyz
 x,y,z
_cell_length_a 38.3087
_cell_length_b 30.5007
_cell_length_c 13.8494
_cell_angle_alpha 90.104400
_cell_angle_beta 90.010300
_cell_angle_gamma 89.461000
loop_
  _atom_site_label
  _atom_site_type_symbol
  _atom_site_fract_x
  _atom_site_fract_y
  _atom_site_fract_z
C1 C 0.72692 0.27297 0.55511
 C2 C 0.72928 0.28107 0.45382
 C3 C 0.75814 0.26612 0.40108
 C4 C 0.78524 0.24205 0.44447
 C5 C 0.78408 0.23512 0.54638
 C6 C 0.75440 0.24881 0.59884
 H7 H 0.75474 0.24412 0.67625
 H8 H 0.75763 0.27031 0.32338
 C9 C 0.23277 0.79614 0.54266
 C10 C 0.23213 0.78931 0.44158
 C11 C 0.25757 0.76236 0.39933
 C12 C 0.28313 0.74115 0.45462
 C13 C 0.28357 0.74632 0.55725
 C14 C 0.25804 0.77438 0.59904
 H15 H 0.25656 0.77849 0.67652
 H16 H 0.25733 0.75715 0.32183
 C17 C 0.28207 0.25717 -0.55103
 C18 C 0.28232 0.25669 -0.44911
 C19 C 0.25645 0.23372 -0.39954
 C20 C 0.22965 0.21078 -0.44753
 C21 C 0.22983 0.21059 -0.55165
 C22 C 0.25593 0.23439 -0.60021
 H23 H 0.25635 0.23468 -0.67855
 H24 H 0.25788 0.23322 -0.32137
 C25 C -0.23314 0.78008 -0.55254
 C26 C -0.23257 0.77924 -0.45056
 C27 C -0.25861 0.75646 -0.40098
 C28 C -0.28524 0.73323 -0.44906
 C29 C -0.28511 0.73337 -0.55309
 C30 C -0.25965 0.75800 -0.60165
 H31 H -0.25954 0.75858 -0.68002
 H32 H -0.25689 0.75554 -0.32295
 N33 N 0.03979 1.07062 -0.10250
 N34 N 0.06657 1.09637 -0.12079
 N35 N -0.03624 1.04977 -0.16564
 N36 N -0.06349 1.05831 -0.22131
 N37 N -0.03332 1.07987 -0.09816
 N38 N -0.05827 1.10976 -0.10633
 N39 N 0.03708 1.04026 -0.16937
 N40 N 0.06187 1.04437 -0.23455
 C41 C 0.08021 1.07929 -0.20313
 C42 C -0.07684 1.09583 -0.18325
 N43 N -0.04479 0.92479 -0.10315
 N44 N -0.07152 0.89893 -0.12060
 N45 N 0.03073 0.94599 -0.17101
 N46 N 0.05780 0.93764 -0.22793
 N47 N 0.02801 0.91540 -0.10488
 N48 N 0.05272 0.88548 -0.11510
 N49 N -0.04290 0.95574 -0.16865
 N50 N -0.06857 0.95219 -0.23163
 Mn51 Mn -0.00281 0.99795 -0.16998
 C52 C -0.08630 0.91676 -0.20038
 C53 C 0.07110 0.89955 -0.19210
 N54 N -0.03218 1.07870 0.10993
 N55 N -0.05634 1.10902 0.12711
 N56 N 0.03934 1.03810 0.17117
 N57 N 0.06564 1.04080 0.23234
 N58 N 0.04104 1.06934 0.10622
 N59 N 0.06842 1.09438 0.12196
 N60 N -0.03361 1.04759 0.17503
 N61 N -0.05857 1.05563 0.23793
 Mn62 Mn 0.00389 1.07522 0.00383
 C63 C -0.07260 1.09391 0.20733
 C64 C 0.08364 1.07592 0.20045
 N65 N 0.02919 0.91445 0.10220
 N66 N 0.05156 0.88205 0.11835
 N67 N -0.04128 0.95440 0.17232
 N68 N -0.06675 0.95095 0.23586
 N69 N -0.04387 0.92404 0.10545
 N70 N -0.07096 0.89873 0.12229
 N71 N 0.03151 0.94441 0.16996
 N72 N 0.05506 0.93309 0.23482
 Mn73 Mn -0.00795 0.91922 -0.00020
 Mn74 Mn -0.00096 0.99617 0.17297
 Cl75 Cl -0.00194 0.99715 0.00153
 C76 C 0.06753 0.89449 0.20099
 C77 C -0.08512 0.91622 0.20342
 N78 N 0.53365 0.57532 -0.10536
 N79 N 0.55797 0.60441 -0.12528
 N80 N 0.45984 0.54477 -0.16751
 N81 N 0.43565 0.55306 -0.23287
 N82 N 0.46023 0.57576 -0.10161
 N83 N 0.43616 0.60592 -0.12029
 N84 N 0.53305 0.54451 -0.17165
 N85 N 0.55685 0.55168 -0.23823
 C86 C 0.57236 0.58893 -0.20813
 C87 C 0.42083 0.59104 -0.20201
 N88 N 0.46189 0.41880 -0.10214
 N89 N 0.43715 0.38979 -0.11850
 N90 N 0.53391 0.45028 -0.17162
 N91 N 0.55793 0.44334 -0.23809
 N92 N 0.53534 0.41966 -0.10513
 N93 N 0.56048 0.39096 -0.12497
 N94 N 0.46058 0.45024 -0.16679
 N95 N 0.43482 0.44379 -0.22810
 Mn96 Mn 0.49678 0.49741 -0.17018
 C97 C 0.42034 0.40612 -0.19690
 C98 C 0.57447 0.40644 -0.20804
 N99 N 0.46160 0.57596 0.10628
 N100 N 0.43624 0.60457 0.12273
 N101 N 0.53505 0.54496 0.16964
 N102 N 0.56127 0.55055 0.22996
 N103 N 0.53481 0.57564 0.10333
 N104 N 0.56060 0.60339 0.11757
 N105 N 0.46136 0.54467 0.17124
 N106 N 0.43550 0.55073 0.23293
 Mn107 Mn 0.49763 0.57618 0.00072
 C108 C 0.42006 0.58814 0.20140
 C109 C 0.57702 0.58702 0.19652
 N110 N 0.53632 0.42002 0.10446
 N111 N 0.56338 0.39348 0.11788
 N112 N 0.46248 0.45035 0.17189
 N113 N 0.43737 0.44387 0.23527
 N114 N 0.46293 0.41903 0.10669
 N115 N 0.43825 0.39016 0.12451
 N116 N 0.53600 0.45131 0.16971
 N117 N 0.56303 0.44754 0.22796
 Mn118 Mn 0.49919 0.41876 0.00101
 Mn119 Mn 0.49863 0.49781 0.17164
 Cl120 Cl 0.49805 0.49751 0.00072
 C121 C 0.57982 0.41138 0.19499
 C122 C 0.42238 0.40633 0.20464
 C123 C 0.34101 0.34395 0.35596
 C124 C 0.36019 0.32115 0.28530
 N125 N 0.35328 0.27822 0.26838
 C126 C 0.32827 0.25697 0.31957
 C127 C 0.30930 0.27959 0.39136
 N128 N 0.31591 0.32282 0.40633
 N129 N 0.34831 0.38656 0.37469
 C130 C 0.37413 0.40745 0.32630
 C131 C 0.39345 0.38481 0.25537
 N132 N 0.38584 0.34209 0.23625
 H133 H 0.32351 0.22264 0.30531
 H134 H 0.37952 0.44138 0.34317
 C135 C -0.17029 0.86206 0.35328
 C136 C -0.15214 0.83748 0.28343
 N137 N -0.16106 0.79515 0.26721
 C138 C -0.18711 0.77611 0.31847
 C139 C -0.20510 0.80047 0.38942
 N140 N -0.19652 0.84318 0.40358
 N141 N -0.16073 0.90398 0.37172
 C142 C -0.13361 0.92241 0.32381
 C143 C -0.11540 0.89792 0.25367
 N144 N -0.12529 0.85600 0.23482
 H145 H -0.19341 0.74212 0.30503
 H146 H -0.12633 0.95579 0.34040
 C147 C 0.66021 0.64725 0.34401
 C148 C 0.64050 0.67082 0.27601
 N149 N 0.64690 0.71408 0.26259
 C150 C 0.67144 0.73510 0.31610
 C151 C 0.68992 0.71213 0.38862
 N152 N 0.68467 0.66823 0.39710
 N153 N 0.65343 0.60426 0.35947
 C154 C 0.62731 0.58388 0.31115
 C155 C 0.60709 0.60750 0.24398
 N156 N 0.61447 0.65044 0.22719
 H157 H 0.67550 0.76980 0.30482
 H158 H 0.62215 0.54970 0.32585
 C159 C 0.16932 1.12924 0.35042
 C160 C 0.15225 1.15340 0.27827
 N161 N 0.16211 1.19526 0.26083
 C162 C 0.18772 1.21439 0.31394
 C163 C 0.20383 1.19100 0.39015
 N164 N 0.19484 1.14836 0.40318
 N165 N 0.15909 1.08770 0.36967
 C166 C 0.13207 1.06940 0.32096
 C167 C 0.11450 1.09372 0.24949
 N168 N 0.12530 1.13514 0.22920
 H169 H 0.19436 1.24816 0.29940
 H170 H 0.12417 1.03640 0.33864
 C171 C 0.65539 0.34609 -0.36922
 C172 C 0.64605 0.32923 -0.27910
 N173 N 0.66330 0.29338 -0.24479
 C174 C 0.68958 0.27385 -0.29626
 C175 C 0.69914 0.29069 -0.38779
 N176 N 0.68130 0.32655 -0.42026
 N177 N 0.63865 0.38196 -0.40445
 C178 C 0.61276 0.40188 -0.35341
 C179 C 0.60296 0.38512 -0.26291
 N180 N 0.61992 0.34894 -0.22772
 H181 H 0.70175 0.24475 -0.26672
 H182 H 0.59986 0.43044 -0.38367
 C183 C 0.15835 0.82923 -0.30102
 C184 C 0.15136 0.87219 -0.33262
 N185 N 0.17268 0.89068 -0.39913
 C186 C 0.20020 0.86784 -0.43688
 C187 C 0.20629 0.82413 -0.40840
 N188 N 0.18541 0.80620 -0.33982
 N189 N 0.13734 0.81070 -0.23416
 C190 C 0.10944 0.83298 -0.19773
 C191 C 0.10179 0.87567 -0.23042
 N192 N 0.12313 0.89441 -0.29713
 H193 H 0.21647 0.88302 -0.49099
 H194 H 0.09313 0.81718 -0.14459
 C195 C 0.34542 0.66134 -0.36302
 C196 C 0.35568 0.67645 -0.27209
 N197 N 0.34170 0.71447 -0.23760
 C198 C 0.31796 0.73805 -0.29012
 C199 C 0.30795 0.72338 -0.38317
 N200 N 0.32222 0.68504 -0.41529
 N201 N 0.35896 0.62337 -0.39842
 C202 C 0.38269 0.59979 -0.34694
 C203 C 0.39368 0.61507 -0.25615
 N204 N 0.37977 0.65318 -0.22059
 H205 H 0.30847 0.76871 -0.26054
 H206 H 0.39321 0.56976 -0.37741
 C207 C -0.16425 1.16415 -0.29451
 C208 C -0.13013 1.17640 -0.31919
 N209 N -0.12516 1.20986 -0.38174
 C210 C -0.15270 1.23085 -0.42328
 C211 C -0.18710 1.21757 -0.40237
 N212 N -0.19193 1.18528 -0.33567
 N213 N -0.16905 1.12990 -0.23344
 C214 C -0.14131 1.10721 -0.19659
 C215 C -0.10727 1.11937 -0.22180
 N216 N -0.10249 1.15397 -0.28196
 H217 H -0.14781 1.25725 -0.47350
 H218 H -0.14572 1.07997 -0.14824
 C219 C 0.64962 0.65328 -0.37022
 C220 C 0.63909 0.67009 -0.28075
 N221 N 0.65361 0.70767 -0.24777
 C222 C 0.67825 0.72906 -0.30028
 C223 C 0.68880 0.71250 -0.39165
 N224 N 0.67384 0.67480 -0.42231
 N225 N 0.63547 0.61573 -0.40415
 C226 C 0.61094 0.59419 -0.35253
 C227 C 0.59986 0.61111 -0.26300
 N228 N 0.61431 0.64881 -0.22898
 H229 H 0.68824 0.75957 -0.27219
 H230 H 0.59999 0.56439 -0.38172
 C231 C 0.16301 1.13401 -0.36224
 C232 C 0.15110 1.15440 -0.27771
 N233 N 0.16564 1.19275 -0.24952
 C234 C 0.19139 1.21170 -0.30246
 C235 C 0.20303 1.19184 -0.38951
 N236 N 0.18843 1.15309 -0.41491
 N237 N 0.14858 1.09583 -0.39162
 C238 C 0.12237 1.07724 -0.34055
 C239 C 0.10988 1.09783 -0.25626
 N240 N 0.12474 1.13600 -0.22646
 H241 H 0.20142 1.24293 -0.27862
 H242 H 0.11120 1.04691 -0.36622
 C243 C 0.33879 0.34383 -0.34727
 C244 C 0.36024 0.31991 -0.28381
 N245 N 0.35566 0.27602 -0.27467
 C246 C 0.33082 0.25491 -0.32690
 C247 C 0.30964 0.27873 -0.39152
 N248 N 0.31381 0.32284 -0.39844
 N249 N 0.34384 0.38746 -0.35869
 C250 C 0.36963 0.40831 -0.31002
 C251 C 0.39119 0.38457 -0.24629
 N252 N 0.38582 0.34082 -0.23428
 H253 H 0.32780 0.21985 -0.31888
 H254 H 0.37330 0.44309 -0.32116
 C255 C -0.17098 0.86176 -0.35163
 C256 C -0.15141 0.83649 -0.28620
 N257 N -0.15883 0.79337 -0.27483
 C258 C -0.18477 0.77427 -0.32666
 C259 C -0.20423 0.79938 -0.39306
 N260 N -0.19714 0.84281 -0.40231
 N261 N -0.16292 0.90453 -0.36538
 C262 C -0.13596 0.92317 -0.31700
 C263 C -0.11639 0.89804 -0.25104
 N264 N -0.12476 0.85522 -0.23690
 H265 H -0.18994 0.73973 -0.31697
 H266 H -0.12990 0.95726 -0.32983
 C267 C 0.33703 0.65187 0.34575
 C268 C 0.36246 0.67597 0.29638
 N269 N 0.36132 0.72043 0.29893
 C270 C 0.33608 0.74196 0.34966
 C271 C 0.31076 0.71799 0.39968
 N272 N 0.31135 0.67338 0.39457
 N273 N 0.33915 0.60741 0.34681
 C274 C 0.36566 0.58593 0.30096
 C275 C 0.39077 0.60999 0.25023
 N276 N 0.38844 0.65451 0.24882
 H277 H 0.33578 0.77745 0.35133
 H278 H 0.36697 0.55048 0.30336
 C279 C -0.15274 1.15855 0.36160
 C280 C -0.13996 1.17672 0.27589
 N281 N -0.15296 1.21584 0.24504
 C282 C -0.17789 1.23781 0.29665
 C283 C -0.18994 1.22031 0.38495
 N284 N -0.17715 1.18057 0.41323
 N285 N -0.14005 1.11961 0.39339
 C286 C -0.11473 1.09801 0.34367
 C287 C -0.10121 1.11635 0.25855
 N288 N -0.11431 1.15535 0.22615
 H289 H -0.18674 1.26948 0.27104
 H290 H -0.10499 1.06705 0.37127
 C291 C 0.66861 0.36053 0.33715
 C292 C 0.64504 0.33235 0.29087
 N293 N 0.64970 0.28830 0.29777
 C294 C 0.67667 0.27112 0.34967
 C295 C 0.70007 0.29924 0.39649
 N296 N 0.69584 0.34339 0.38764
 N297 N 0.66317 0.40450 0.33379
 C298 C 0.63504 0.42163 0.28693
 C299 C 0.61153 0.39359 0.24012
 N300 N 0.61722 0.34950 0.24269
 H301 H 0.67979 0.23589 0.35487
 H302 H 0.63102 0.45682 0.28636
 C303 C 0.14471 0.82704 0.35790
 C304 C 0.15245 0.84534 0.26752
 N305 N 0.18580 0.84429 0.23453
 C306 C 0.21186 0.82607 0.28819
 C307 C 0.20426 0.80801 0.37922
 N308 N 0.17062 0.80852 0.41086
 N309 N 0.11171 0.82972 0.39308
 C310 C 0.08609 0.85029 0.34217
 C311 C 0.09376 0.86849 0.25180
 N312 N 0.12679 0.86555 0.21624
 H313 H 0.23833 0.82660 0.26099
 H314 H 0.06007 0.85289 0.37229
   
