data_POSCAR
  _audit_creation_date              2014-09-24
  _audit_creation_method            'ToBaCCo'
  _symmetry_space_group_name_H-M    'P1'
  _symmetry_Int_Tables_number       1
  _symmetry_cell_setting            triclinic
  loop_
  _symmetry_equiv_pos_as_xyz
 x,y,z
_cell_length_a 12.4952
_cell_length_b 12.4265
_cell_length_c 12.4927
_cell_angle_alpha 92.066100
_cell_angle_beta 88.268500
_cell_angle_gamma 91.548800
loop_
  _atom_site_label
  _atom_site_type_symbol
  _atom_site_fract_x
  _atom_site_fract_y
  _atom_site_fract_z
C1 C 0.01315 0.51267 0.24510
 C2 C -0.00388 0.49591 0.73366
 C3 C 0.25365 -0.00736 0.48886
 C4 C 0.75575 0.00820 0.50899
 C5 C 0.50246 0.26071 0.98982
 C6 C 0.48965 0.74136 1.01255
 B7 B 1.00380 1.11314 0.07457
 B8 B 1.00475 1.11738 -0.06138
 B9 B 1.11543 1.06820 0.00201
 B10 B 1.06806 1.00039 0.11142
 B11 B 0.93123 1.00025 0.11611
 B12 B 0.88958 1.07283 0.00730
 B13 B 0.99266 0.89231 -0.07451
 B14 B 0.99306 0.88874 0.06293
 B15 B 0.88175 0.93619 0.00345
 B16 B 0.93093 1.00628 -0.10771
 B17 B 1.06599 1.00240 -0.11301
 B18 B 1.10673 0.92994 -0.00417
 B19 B 0.62475 0.50249 0.43719
 B20 B 0.60999 0.49315 0.57033
 B21 B 0.57539 0.61034 0.50894
 B22 B 0.51978 0.57274 0.38875
 B23 B 0.51479 0.43692 0.37944
 B24 B 0.56940 0.38573 0.49134
 B25 B 0.38726 0.50026 0.55349
 B26 B 0.40137 0.50354 0.41661
 B27 B 0.43430 0.38761 0.47717
 B28 B 0.49193 0.42624 0.59907
 B29 B 0.49664 0.56304 0.61134
 B30 B 0.44164 0.61292 0.49721
 N31 N 0.89126 1.25585 0.17411
 N32 N 0.89030 1.36029 0.19077
 C33 C 0.98908 1.40166 0.19019
 C34 C 1.05721 1.31856 0.15414
 C35 C 0.98992 1.22650 0.14109
 H36 H 1.14139 1.32729 0.13656
 H37 H 0.82146 1.20969 0.17161
 H38 H 0.82264 1.40583 0.19229
 N39 N 0.90859 0.69600 0.06586
 N40 N 0.92367 0.59889 0.09869
 C41 C 1.00908 0.59874 0.16136
 C42 C 1.05001 0.70541 0.16757
 C43 C 0.98282 0.76579 0.10484
 H44 H 1.11579 0.73588 0.21506
 H45 H 0.84635 0.71176 0.01713
 H46 H 0.86731 0.53684 0.08735
 N47 N 0.93804 1.31968 -0.05309
 N48 N 0.94515 1.41459 -0.09503
 C49 C 1.01092 1.41174 -0.18021
 C50 C 1.04811 1.30385 -0.19070
 C51 C 1.00206 1.24623 -0.10382
 H52 H 1.08806 1.27010 -0.26130
 H53 H 0.87686 1.30569 0.00121
 H54 H 0.89024 1.47445 -0.07652
 N55 N 0.87812 0.75180 -0.17718
 N56 N 0.87292 0.64778 -0.19998
 C57 C 0.97230 0.60958 -0.21279
 C58 C 1.04271 0.69654 -0.18464
 C59 C 0.97721 0.78380 -0.15257
 H60 H 1.12918 0.69577 -0.18892
 H61 H 0.81465 0.80245 -0.18306
 H62 H 0.80055 0.60437 -0.20336
 N63 N 1.07586 1.08643 0.30703
 N64 N 1.10153 1.06377 0.40416
 C65 C 1.17268 0.98562 0.40085
 C66 C 1.18873 0.95409 0.29056
 C67 C 1.12097 1.01786 0.23232
 H68 H 1.24394 0.89577 0.25687
 H69 H 1.01795 1.14263 0.29885
 H70 H 1.07691 1.10965 0.47180
 N71 N 1.18925 1.10086 -0.24226
 N72 N 1.24499 1.09158 -0.33134
 C73 C 1.20353 1.01379 -0.39564
 C74 C 1.13009 0.95494 -0.32925
 C75 C 1.12500 1.01506 -0.22991
 H76 H 1.08779 0.88029 -0.34972
 H77 H 1.20165 1.16329 -0.18735
 H78 H 1.31999 1.12839 -0.33939
 N79 N 0.93543 0.91050 0.30488
 N80 N 0.90751 0.92514 0.40651
 C81 C 0.83702 1.00370 0.41619
 C82 C 0.82359 1.04227 0.31248
 C83 C 0.88827 0.98115 0.24190
 H84 H 0.76745 1.10105 0.29063
 H85 H 0.99672 0.85995 0.28322
 H86 H 0.93410 0.87811 0.46752
 N87 N 0.75522 0.99479 -0.20843
 N88 N 0.71146 1.02016 -0.29710
 C89 C 0.78718 1.03894 -0.37432
 C90 C 0.88628 1.03733 -0.32368
 C91 C 0.86190 1.00752 -0.21643
 H92 H 0.96277 1.05388 -0.36177
 H93 H 0.70835 0.97782 -0.14131
 H94 H 0.62949 1.00889 -0.30522
 N95 N 1.31104 1.05657 -0.07713
 N96 N 1.40979 1.09276 -0.06782
 C97 C 1.41422 1.17298 0.00694
 C98 C 1.30846 1.18166 0.05180
 C99 C 1.24349 1.10674 -0.00579
 H100 H 1.28180 1.23747 0.11315
 H101 H 1.29365 0.99253 -0.13036
 H102 H 1.47141 1.06840 -0.12092
 N103 N 0.76419 1.18274 -0.11054
 N104 N 0.66427 1.20517 -0.12548
 C105 C 0.60803 1.19785 -0.03400
 C106 C 0.67562 1.14938 0.03824
 C107 C 0.77676 1.13840 -0.01481
 H108 H 0.65523 1.13831 0.12161
 H109 H 0.82106 1.19123 -0.17133
 H110 H 0.63440 1.21236 -0.20109
 N111 N 1.19967 0.74400 -0.00215
 N112 N 1.28944 0.69846 0.01915
 C113 C 1.36969 0.77258 0.02604
 C114 C 1.32037 0.87155 0.03025
 C115 C 1.21125 0.85152 0.00349
 H116 H 1.35940 0.94472 0.05833
 H117 H 1.13056 0.69835 -0.01404
 H118 H 1.29073 0.61739 0.03574
 N119 N 0.68731 0.93536 0.10161
 N120 N 0.58618 0.90317 0.09295
 C121 C 0.57785 0.83000 0.01251
 C122 C 0.68292 0.81632 -0.02864
 C123 C 0.75263 0.89053 0.02488
 H124 H 0.70353 0.74732 -0.07768
 H125 H 0.70989 0.98759 0.16252
 H126 H 0.52598 0.92302 0.14949
 N127 N 0.77922 0.63185 0.36854
 N128 N 0.88069 0.63789 0.33979
 C129 C 0.92202 0.53953 0.33198
 C130 C 0.84208 0.47009 0.37815
 C131 C 0.74910 0.53081 0.39421
 H132 H 0.84786 0.38490 0.38729
 H133 H 0.72988 0.69526 0.35544
 H134 H 0.91578 0.70877 0.31459
 N135 N 0.21319 0.41492 0.40574
 N136 N 0.11702 0.42407 0.37203
 C137 C 0.11719 0.50026 0.30056
 C138 C 0.22347 0.54259 0.28805
 C139 C 0.28385 0.48526 0.36012
 H140 H 0.25100 0.60691 0.23774
 H141 H 0.22183 0.37386 0.47401
 H142 H 0.05113 0.37906 0.40100
 N143 N 0.74409 0.37022 0.66264
 N144 N 0.84607 0.36248 0.68342
 C145 C 0.89817 0.45659 0.66716
 C146 C 0.82509 0.52102 0.61850
 C147 C 0.72409 0.46764 0.62534
 H148 H 0.84581 0.59787 0.58543
 H149 H 0.69036 0.30637 0.67122
 H150 H 0.87894 0.29178 0.70685
 N151 N 0.19916 0.59208 0.55093
 N152 N 0.09979 0.58378 0.58723
 C153 C 0.09422 0.51054 0.66254
 C154 C 0.19588 0.47062 0.67381
 C155 C 0.26337 0.52326 0.59965
 H156 H 0.21437 0.41530 0.73331
 H157 H 0.21769 0.63840 0.48591
 H158 H 0.03735 0.62951 0.56111
 N159 N 0.62263 0.59262 0.20445
 N160 N 0.60656 0.62206 0.10706
 C161 C 0.51661 0.67713 0.10743
 C162 C 0.47276 0.68225 0.21212
 C163 C 0.54198 0.62505 0.27257
 H164 H 0.40078 0.72172 0.23922
 H165 H 0.68695 0.54527 0.21790
 H166 H 0.65825 0.60503 0.04174
 N167 N 0.41312 0.55630 0.80438
 N168 N 0.43532 0.57860 0.90426
 C169 C 0.49641 0.66773 0.91013
 C170 C 0.53300 0.68735 0.80418
 C171 C 0.47967 0.60962 0.73733
 H172 H 0.58695 0.75181 0.78003
 H173 H 0.35506 0.50001 0.78520
 H174 H 0.40907 0.53082 0.96714
 N175 N 0.62632 0.36216 0.22623
 N176 N 0.62682 0.35064 0.12160
 C177 C 0.52544 0.33691 0.08818
 C178 C 0.45879 0.36569 0.17708
 C179 C 0.52858 0.38387 0.26237
 H180 H 0.37301 0.37227 0.18060
 H181 H 0.69132 0.35392 0.27446
 H182 H 0.69714 0.34571 0.07486
 N183 N 0.38398 0.31509 0.73615
 N184 N 0.37626 0.29886 0.83963
 C185 C 0.47007 0.32108 0.88705
 C186 C 0.53495 0.37149 0.80778
 C187 C 0.47765 0.36288 0.71118
 H188 H 0.61291 0.40880 0.81997
 H189 H 0.32220 0.30097 0.68388
 H190 H 0.30465 0.27871 0.87841
 N191 N 0.70895 0.73530 0.60365
 N192 N 0.76241 0.82615 0.59362
 C193 C 0.71596 0.88843 0.52216
 C194 C 0.63490 0.82406 0.47508
 C195 C 0.63699 0.72458 0.52807
 H196 H 0.58407 0.84486 0.41077
 H197 H 0.71890 0.68385 0.66561
 H198 H 0.83076 0.84355 0.63699
 N199 N 0.54406 0.18572 0.55097
 N200 N 0.57753 0.08787 0.53164
 C201 C 0.67425 0.09281 0.48589
 C202 C 0.69699 0.20260 0.46370
 C203 C 0.60808 0.25983 0.50152
 H204 H 0.77133 0.23555 0.43229
 H205 H 0.47473 0.19829 0.59598
 H206 H 0.53787 0.01902 0.55754
 N207 N 0.42601 0.79995 0.59292
 N208 N 0.38510 0.89474 0.58725
 C209 C 0.32481 0.89712 0.50082
 C210 C 0.33037 0.79596 0.44715
 C211 C 0.39584 0.73470 0.51037
 H212 H 0.28770 0.76863 0.37712
 H213 H 0.47952 0.78569 0.65090
 H214 H 0.39645 0.95551 0.64595
 N215 N 0.43421 0.19368 0.36792
 N216 N 0.39662 0.09406 0.37893
 C217 C 0.31997 0.09391 0.45566
 C218 C 0.30280 0.20214 0.48642
 C219 C 0.38284 0.26485 0.43700
 H220 H 0.24218 0.22963 0.54316
 H221 H 0.50435 0.20617 0.32316
 H222 H 0.42744 0.02654 0.33774
   
