data_POSCAR
  _audit_creation_date              2014-09-24
  _audit_creation_method            'ToBaCCo'
  _symmetry_space_group_name_H-M    'P1'
  _symmetry_Int_Tables_number       1
  _symmetry_cell_setting            triclinic
  loop_
  _symmetry_equiv_pos_as_xyz
 x,y,z
_cell_length_a 42.2887
_cell_length_b 42.2936
_cell_length_c 42.3272
_cell_angle_alpha 89.712700
_cell_angle_beta 89.531400
_cell_angle_gamma 89.476400
loop_
  _atom_site_label
  _atom_site_type_symbol
  _atom_site_fract_x
  _atom_site_fract_y
  _atom_site_fract_z
C1 C 0.55839 0.41942 -0.01317
 C2 C 0.58125 0.44223 -0.01305
 C3 C 0.56607 0.47057 -0.00586
 N4 N 0.53481 0.46571 -0.00140
 C5 C 0.53000 0.43454 -0.00608
 C6 C 0.58135 0.49979 -0.00147
 C7 C 0.56515 0.52881 0.00350
 C8 C 0.57924 0.55651 0.01354
 C9 C 0.55614 0.57958 0.01356
 C10 C 0.52848 0.56545 0.00354
 N11 N 0.53427 0.53457 -0.00271
 C12 C 0.49945 0.58162 -0.00136
 C13 C 0.47025 0.56630 -0.00568
 C14 C 0.44188 0.58142 -0.01275
 C15 C 0.41910 0.55854 -0.01285
 C16 C 0.43425 0.53017 -0.00586
 N17 N 0.46542 0.53504 -0.00126
 C18 C 0.41895 0.50090 -0.00182
 C19 C 0.43499 0.47180 0.00282
 C20 C 0.42062 0.44391 0.01228
 C21 C 0.44373 0.42082 0.01222
 C22 C 0.47162 0.43521 0.00273
 N23 N 0.46600 0.46622 -0.00317
 C24 C 0.50073 0.41920 -0.00202
 H25 H 0.56229 0.39450 -0.01762
 H26 H 0.60625 0.43835 -0.01737
 H27 H 0.48152 0.48174 -0.01412
 H28 H 0.60372 0.55982 0.01988
 H29 H 0.55943 0.60408 0.01994
 H30 H 0.43796 0.60641 -0.01701
 H31 H 0.39417 0.56240 -0.01721
 H32 H 0.44030 0.39617 0.01821
 H33 H 0.51906 0.51932 -0.01406
 H34 H 0.39596 0.44046 0.01831
 C35 C 0.01214 0.55792 0.41927
 C36 C 0.01235 0.58093 0.44200
 C37 C 0.00536 0.56611 0.47052
 N38 N 0.00068 0.53492 0.46584
 C39 C 0.00504 0.52979 0.43462
 C40 C 0.00137 0.58167 0.49977
 C41 C -0.00336 0.56574 0.52890
 C42 C -0.01297 0.58017 0.55682
 C43 C -0.01296 0.55714 0.57986
 C44 C -0.00337 0.52922 0.56545
 N45 N 0.00265 0.53473 0.53448
 C46 C 0.00135 0.50017 0.58145
 C47 C 0.00535 0.47080 0.56619
 C48 C 0.01221 0.44243 0.58134
 C49 C 0.01205 0.41945 0.55857
 C50 C 0.00509 0.43455 0.53027
 N51 N 0.00077 0.46585 0.53507
 C52 C 0.00084 0.41915 0.50114
 C53 C -0.00397 0.43514 0.47216
 C54 C -0.01378 0.42085 0.44453
 C55 C -0.01385 0.44385 0.42145
 C56 C -0.00408 0.47160 0.43559
 N57 N 0.00211 0.46600 0.46642
 C58 C 0.00068 0.50052 0.41947
 H59 H 0.01636 0.56155 0.39427
 H60 H 0.01677 0.60581 0.43795
 H61 H 0.01332 0.48135 0.48164
 H62 H -0.01907 0.60483 0.56031
 H63 H -0.01906 0.56065 0.60449
 H64 H 0.01651 0.43863 0.60625
 H65 H 0.01620 0.39444 0.56246
 H66 H -0.02011 0.44044 0.39696
 H67 H 0.01370 0.51915 0.51900
 H68 H -0.01999 0.39632 0.44124
 C69 C 0.41934 0.01144 0.55874
 C70 C 0.44212 0.01151 0.58163
 C71 C 0.47066 0.00466 0.56661
 N72 N 0.46593 0.00021 0.53541
 C73 C 0.43465 0.00458 0.53048
 C74 C 0.49998 0.00060 0.58200
 C75 C 0.52913 -0.00409 0.56589
 C76 C 0.55706 -0.01383 0.58012
 C77 C 0.58011 -0.01372 0.55705
 C78 C 0.56574 -0.00391 0.52924
 N79 N 0.53472 0.00209 0.53493
 C80 C 0.58178 0.00105 0.50016
 C81 C 0.56639 0.00526 0.47089
 C82 C 0.58140 0.01241 0.44248
 C83 C 0.55854 0.01236 0.41966
 C84 C 0.53030 0.00521 0.43484
 N85 N 0.53522 0.00065 0.46606
 C86 C 0.50111 0.00102 0.41954
 C87 C 0.47211 -0.00383 0.43560
 C88 C 0.44441 -0.01343 0.42134
 C89 C 0.42133 -0.01360 0.44442
 C90 C 0.43554 -0.00409 0.47220
 N91 N 0.46642 0.00203 0.46654
 C92 C 0.41943 0.00047 0.50124
 H93 H 0.39430 0.01561 0.56255
 H94 H 0.43810 0.01573 0.60656
 H95 H 0.48171 0.01303 0.48196
 H96 H 0.56054 -0.02009 0.60469
 H97 H 0.60476 -0.01988 0.56044
 H98 H 0.60630 0.01682 0.43855
 H99 H 0.56234 0.01673 0.39471
 H100 H 0.39680 -0.01975 0.44104
 H101 H 0.51920 0.01325 0.51953
 H102 H 0.44106 -0.01943 0.39677
 O103 O 0.47413 -0.00026 -0.04344
 O104 O 0.47422 -0.00035 0.04365
 O105 O 0.47409 0.04324 -0.00006
 O106 O 0.47420 -0.04385 0.00027
 O107 O 0.52650 -0.04428 -0.00022
 O108 O 0.52639 0.04281 -0.00055
 O109 O 0.52652 -0.00078 0.04316
 O110 O 0.52642 -0.00068 -0.04392
 Cu111 Cu 0.46889 -0.00026 0.00015
 Cu112 Cu 0.53173 -0.00078 -0.00043
 C113 C 0.50026 -0.00046 -0.05838
 C114 C 0.50039 -0.00057 0.05810
 C115 C 0.50023 0.05773 -0.00035
 C116 C 0.50036 -0.05877 0.00007
 O117 O -0.04461 0.52657 1.00058
 O118 O 0.04249 0.52666 1.00038
 O119 O -0.00081 0.52683 0.95700
 O120 O -0.00132 0.52636 1.04397
 O121 O -0.00079 0.47406 1.04396
 O122 O -0.00028 0.47453 0.95700
 O123 O 0.04302 0.47436 1.00037
 O124 O -0.04408 0.47428 1.00057
 Cu125 Cu -0.00111 0.53189 1.00049
 Cu126 Cu -0.00048 0.46902 1.00048
 C127 C -0.05904 0.50041 1.00060
 C128 C 0.05745 0.50052 1.00034
 C129 C -0.00046 0.50075 0.94233
 C130 C -0.00114 0.50013 1.05863
 O131 O 0.00008 -0.04386 0.47379
 O132 O -0.00028 0.04323 0.47394
 O133 O 0.04345 -0.00053 0.47384
 O134 O -0.04365 -0.00011 0.47390
 O135 O -0.04404 -0.00046 0.52616
 O136 O 0.04306 -0.00088 0.52609
 O137 O -0.00067 0.04288 0.52619
 O138 O -0.00031 -0.04421 0.52605
 Cu139 Cu -0.00006 -0.00028 0.46860
 Cu140 Cu -0.00053 -0.00070 0.53139
 C141 C -0.00006 -0.05873 0.49989
 C142 C -0.00053 0.05775 0.50009
 C143 C 0.05796 -0.00077 0.49995
 C144 C -0.05855 -0.00022 0.50004
 C145 C -0.38623 0.49989 0.99890
 C146 C -0.35772 0.49996 0.99920
 C147 C -0.32372 0.50002 0.99954
 C148 C -0.30672 0.47221 0.99318
 C149 C -0.27367 0.47224 0.99345
 C150 C -0.25717 0.50015 1.00008
 C151 C -0.27450 0.52799 1.00647
 C152 C -0.30756 0.52790 1.00620
 C153 C -0.22205 0.50023 1.00029
 C154 C -0.20525 0.52577 0.98719
 C155 C -0.17219 0.52579 0.98732
 C156 C -0.15549 0.50033 1.00055
 C157 C -0.17196 0.47483 1.01367
 C158 C -0.20502 0.47475 1.01354
 C159 C -0.12146 0.50036 1.00061
 C160 C -0.09295 0.50038 1.00063
 H161 H -0.31902 0.45052 0.98791
 H162 H -0.26101 0.45054 0.98804
 H163 H -0.26250 0.54975 1.01205
 H164 H -0.32050 0.54954 1.01125
 H165 H -0.21766 0.54553 0.97645
 H166 H -0.15966 0.54560 0.97702
 H167 H -0.15926 0.45504 1.02405
 H168 H -0.21727 0.45495 1.02417
 C169 C 0.38468 0.50079 0.99848
 C170 C 0.35618 0.50073 0.99872
 C171 C 0.32216 0.50071 0.99899
 C172 C 0.30585 0.47267 1.00511
 C173 C 0.27279 0.47262 1.00534
 C174 C 0.25560 0.50066 0.99946
 C175 C 0.27225 0.52873 0.99336
 C176 C 0.30531 0.52872 0.99312
 C177 C 0.22048 0.50063 0.99967
 C178 C 0.20327 0.52575 1.01340
 C179 C 0.17021 0.52569 1.01356
 C180 C 0.15391 0.50059 1.00000
 C181 C 0.17078 0.47550 0.98629
 C182 C 0.20385 0.47549 0.98611
 C183 C 0.11987 0.50057 1.00015
 C184 C 0.09137 0.50055 1.00025
 H185 H 0.31868 0.45087 1.00977
 H186 H 0.26067 0.45073 1.01052
 H187 H 0.25972 0.55060 0.98835
 H188 H 0.31773 0.55053 0.98827
 H189 H 0.21538 0.54523 1.02438
 H190 H 0.15738 0.54519 1.02432
 H191 H 0.15839 0.45599 0.97565
 H192 H 0.21639 0.45602 0.97500
 C193 C 0.00119 -0.38591 0.49982
 C194 C 0.00103 -0.35740 0.49983
 C195 C 0.00085 -0.32339 0.49981
 C196 C 0.00775 -0.30673 0.47200
 C197 C 0.00762 -0.27367 0.47195
 C198 C 0.00056 -0.25684 0.49976
 C199 C -0.00636 -0.27385 0.52760
 C200 C -0.00619 -0.30690 0.52760
 C201 C 0.00043 -0.22173 0.49975
 C202 C -0.02302 -0.20476 0.51649
 C203 C -0.02310 -0.17170 0.51647
 C204 C 0.00022 -0.15517 0.49977
 C205 C 0.02364 -0.17180 0.48304
 C206 C 0.02376 -0.20486 0.48300
 C207 C 0.00012 -0.12114 0.49980
 C208 C 0.00005 -0.09264 0.49984
 H209 H 0.01315 -0.31928 0.45033
 H210 H 0.01264 -0.26127 0.45006
 H211 H -0.01148 -0.26159 0.54948
 H212 H -0.01148 -0.31960 0.54928
 H213 H -0.04153 -0.21704 0.52926
 H214 H -0.04140 -0.15905 0.52943
 H215 H 0.04185 -0.15923 0.47010
 H216 H 0.04235 -0.21723 0.47023
 C217 C 0.00045 0.38490 0.50108
 C218 C 0.00018 0.35640 0.50101
 C219 C -0.00010 0.32240 0.50094
 C220 C -0.00759 0.30615 0.47332
 C221 C -0.00777 0.27309 0.47320
 C222 C -0.00043 0.25586 0.50075
 C223 C 0.00703 0.27245 0.52841
 C224 C 0.00718 0.30550 0.52848
 C225 C -0.00050 0.22074 0.50063
 C226 C 0.02309 0.20343 0.51659
 C227 C 0.02303 0.17038 0.51644
 C228 C -0.00060 0.15418 0.50037
 C229 C -0.02418 0.17116 0.48444
 C230 C -0.02415 0.20422 0.48454
 C231 C -0.00063 0.12016 0.50024
 C232 C -0.00060 0.09166 0.50016
 H233 H -0.01318 0.31902 0.45185
 H234 H -0.01322 0.26101 0.45144
 H235 H 0.01237 0.25988 0.55009
 H236 H 0.01292 0.31787 0.55001
 H237 H 0.04185 0.21545 0.52883
 H238 H 0.04145 0.15746 0.52878
 H239 H -0.04263 0.15886 0.47200
 H240 H -0.04286 0.21686 0.47239
 C241 C 0.50009 0.00032 -0.38558
 C242 C 0.50014 0.00012 -0.35708
 C243 C 0.50016 -0.00007 -0.32307
 C244 C 0.47241 0.00717 -0.30626
 C245 C 0.47240 0.00709 -0.27322
 C246 C 0.50018 -0.00026 -0.25652
 C247 C 0.52795 -0.00755 -0.27366
 C248 C 0.52791 -0.00744 -0.30670
 C249 C 0.50020 -0.00030 -0.22139
 C250 C 0.51683 -0.02381 -0.20452
 C251 C 0.51681 -0.02382 -0.17147
 C252 C 0.50021 -0.00037 -0.15483
 C253 C 0.48362 0.02312 -0.17138
 C254 C 0.48359 0.02317 -0.20442
 C255 C 0.50021 -0.00041 -0.12080
 C256 C 0.50022 -0.00044 -0.09230
 H257 H 0.45077 0.01281 -0.31869
 H258 H 0.45055 0.01238 -0.26073
 H259 H 0.54981 -0.01292 -0.26153
 H260 H 0.54954 -0.01299 -0.31949
 H261 H 0.52951 -0.04243 -0.21686
 H262 H 0.52967 -0.04218 -0.15891
 H263 H 0.47076 0.04145 -0.15875
 H264 H 0.47091 0.04182 -0.21670
 C265 C 0.50101 0.00077 0.38528
 C266 C 0.50094 0.00057 0.35678
 C267 C 0.50087 0.00036 0.32277
 C268 C 0.52874 0.00641 0.30584
 C269 C 0.52871 0.00623 0.27279
 C270 C 0.50073 -0.00000 0.25623
 C271 C 0.47283 -0.00605 0.27350
 C272 C 0.47293 -0.00588 0.30654
 C273 C 0.50066 -0.00016 0.22110
 C274 C 0.47518 0.01318 0.20432
 C275 C 0.47515 0.01305 0.17128
 C276 C 0.50053 -0.00042 0.15455
 C277 C 0.52598 -0.01377 0.17100
 C278 C 0.52607 -0.01364 0.20405
 C279 C 0.50048 -0.00051 0.12052
 C280 C 0.50044 -0.00055 0.09202
 H281 H 0.55048 0.01136 0.31817
 H282 H 0.55046 0.01138 0.26021
 H283 H 0.45102 -0.01133 0.26147
 H284 H 0.45124 -0.01068 0.31942
 H285 H 0.45547 0.02410 0.21673
 H286 H 0.45537 0.02353 0.15879
 H287 H 0.54572 -0.02433 0.15830
 H288 H 0.54583 -0.02446 0.21625
 C289 C 0.49954 -0.38596 -0.00104
 C290 C 0.49963 -0.35745 -0.00079
 C291 C 0.49974 -0.32345 -0.00053
 C292 C 0.52765 -0.30729 0.00599
 C293 C 0.52780 -0.27424 0.00618
 C294 C 0.49998 -0.25690 -0.00014
 C295 C 0.47203 -0.27338 -0.00664
 C296 C 0.47195 -0.30644 -0.00684
 C297 C 0.50012 -0.22178 0.00002
 C298 C 0.47466 -0.20465 0.01332
 C299 C 0.47479 -0.17159 0.01340
 C300 C 0.50032 -0.15521 0.00018
 C301 C 0.52575 -0.17201 -0.01310
 C302 C 0.52569 -0.20507 -0.01318
 C303 C 0.50037 -0.12118 0.00018
 C304 C 0.50038 -0.09268 0.00015
 H305 H 0.54927 -0.32025 0.01098
 H306 H 0.54958 -0.26225 0.01167
 H307 H 0.45035 -0.26072 -0.01200
 H308 H 0.45023 -0.31873 -0.01200
 H309 H 0.45483 -0.21681 0.02403
 H310 H 0.45501 -0.15882 0.02382
 H311 H 0.54560 -0.15956 -0.02347
 H312 H 0.54543 -0.21755 -0.02397
 C313 C 0.50066 0.38494 -0.00178
 C314 C 0.50061 0.35643 -0.00158
 C315 C 0.50056 0.32242 -0.00135
 C316 C 0.47278 0.30614 0.00602
 C317 C 0.47270 0.27308 0.00622
 C318 C 0.50045 0.25587 -0.00100
 C319 C 0.52825 0.27249 -0.00838
 C320 C 0.52828 0.30554 -0.00853
 C321 C 0.50038 0.22075 -0.00088
 C322 C 0.51686 0.20369 -0.02437
 C323 C 0.51677 0.17063 -0.02424
 C324 C 0.50025 0.15418 -0.00067
 C325 C 0.48379 0.17091 0.02279
 C326 C 0.48383 0.20397 0.02270
 C327 C 0.50021 0.12015 -0.00056
 C328 C 0.50021 0.09164 -0.00046
 H329 H 0.45117 0.31900 0.01153
 H330 H 0.45083 0.26100 0.01159
 H331 H 0.55008 0.25992 -0.01362
 H332 H 0.54993 0.31793 -0.01418
 H333 H 0.52948 0.21591 -0.04307
 H334 H 0.52952 0.15791 -0.04257
 H335 H 0.47099 0.15840 0.04120
 H336 H 0.47126 0.21640 0.04133
 C337 C -0.38579 0.00088 0.50025
 C338 C -0.35727 0.00076 0.50029
 C339 C -0.32326 0.00062 0.50028
 C340 C -0.30686 -0.00650 0.52802
 C341 C -0.27379 -0.00662 0.52803
 C342 C -0.25670 0.00041 0.50024
 C343 C -0.27345 0.00754 0.47247
 C344 C -0.30651 0.00763 0.47251
 C345 C -0.22158 0.00030 0.50022
 C346 C -0.20468 0.02368 0.48360
 C347 C -0.17162 0.02356 0.48360
 C348 C -0.15500 0.00010 0.50016
 C349 C -0.17157 -0.02326 0.51676
 C350 C -0.20464 -0.02317 0.51682
 C351 C -0.12097 -0.00001 0.50012
 C352 C -0.09246 -0.00010 0.50008
 H353 H -0.31962 -0.01187 0.54967
 H354 H -0.26160 -0.01180 0.54988
 H355 H -0.26099 0.01264 0.45061
 H356 H -0.31900 0.01309 0.45088
 H357 H -0.21703 0.04230 0.47095
 H358 H -0.15902 0.04180 0.47074
 H359 H -0.15894 -0.04158 0.52959
 H360 H -0.21695 -0.04172 0.52950
 C361 C 0.38517 0.00006 0.50110
 C362 C 0.35667 -0.00024 0.50097
 C363 C 0.32266 -0.00055 0.50080
 C364 C 0.30568 0.00006 0.52931
 C365 C 0.27263 -0.00014 0.52916
 C366 C 0.25611 -0.00093 0.50045
 C367 C 0.27342 -0.00155 0.47191
 C368 C 0.30648 -0.00138 0.47212
 C369 C 0.22099 -0.00102 0.50026
 C370 C 0.20416 0.01706 0.47790
 C371 C 0.17110 0.01703 0.47781
 C372 C 0.15442 -0.00106 0.50002
 C373 C 0.17092 -0.01916 0.52232
 C374 C 0.20398 -0.01915 0.52248
 C375 C 0.12038 -0.00099 0.49996
 C376 C 0.09188 -0.00091 0.49994
 H377 H 0.31800 0.00080 0.55164
 H378 H 0.25998 0.00077 0.55149
 H379 H 0.26141 -0.00258 0.44945
 H380 H 0.31941 -0.00194 0.44992
 H381 H 0.21655 0.03157 0.46077
 H382 H 0.15855 0.03121 0.46050
 H383 H 0.15824 -0.03332 0.53957
 H384 H 0.21625 -0.03363 0.53971
 C385 C 0.00019 0.50026 1.38527
 C386 C -0.00018 0.50010 1.35682
 C387 C -0.00057 0.50000 1.32288
 C388 C 0.00557 0.52783 1.30601
 C389 C 0.00527 0.52778 1.27300
 C390 C -0.00117 0.49983 1.25644
 C391 C -0.00733 0.47197 1.27364
 C392 C -0.00704 0.47209 1.30665
 C393 C -0.00139 0.49975 1.22138
 C394 C 0.01206 0.47433 1.20449
 C395 C 0.01200 0.47437 1.17147
 C396 C -0.00150 0.49975 1.15492
 C397 C -0.01500 0.52511 1.17149
 C398 C -0.01496 0.52513 1.20450
 C399 C -0.00142 0.49984 1.12095
 C400 C -0.00131 0.49996 1.09249
 H401 H 0.01070 0.54954 1.31837
 H402 H 0.01051 0.54949 1.26042
 H403 H -0.01276 0.45019 1.26157
 H404 H -0.01191 0.45043 1.31952
 H405 H 0.02304 0.45465 1.21680
 H406 H 0.02260 0.45466 1.15886
 H407 H -0.02560 0.54484 1.15889
 H408 H -0.02586 0.54483 1.21684
 C409 C 0.00109 0.50041 0.61566
 C410 C 0.00091 0.50057 0.64412
 C411 C 0.00071 0.50069 0.67807
 C412 C -0.00671 0.52848 0.69442
 C413 C -0.00687 0.52860 0.72744
 C414 C 0.00043 0.50089 0.74452
 C415 C 0.00786 0.47307 0.72783
 C416 C 0.00798 0.47299 0.69481
 C417 C 0.00032 0.50098 0.77958
 C418 C 0.02393 0.48463 0.79647
 C419 C 0.02377 0.48468 0.82948
 C420 C 0.00005 0.50105 0.84604
 C421 C -0.02353 0.51740 0.82948
 C422 C -0.02341 0.51740 0.79646
 C423 C -0.00014 0.50100 0.88001
 C424 C -0.00028 0.50091 0.90848
 H425 H -0.01229 0.55006 0.68165
 H426 H -0.01229 0.55047 0.73962
 H427 H 0.01317 0.45127 0.74030
 H428 H 0.01367 0.45134 0.68234
 H429 H 0.04273 0.47213 0.78414
 H430 H 0.04218 0.47202 0.84209
 H431 H -0.04206 0.53007 0.84209
 H432 H -0.04212 0.52986 0.78414
   
