data_POSCAR
  _audit_creation_date              2014-09-24
  _audit_creation_method            'ToBaCCo'
  _symmetry_space_group_name_H-M    'P1'
  _symmetry_Int_Tables_number       1
  _symmetry_cell_setting            triclinic
  loop_
  _symmetry_equiv_pos_as_xyz
 x,y,z
_cell_length_a 18.9671
_cell_length_b 18.9716
_cell_length_c 19.0327
_cell_angle_alpha 102.158400
_cell_angle_beta 78.121800
_cell_angle_gamma 77.835800
loop_
  _atom_site_label
  _atom_site_type_symbol
  _atom_site_fract_x
  _atom_site_fract_y
  _atom_site_fract_z
C1 C 0.57161 0.51398 0.00016
 C2 C 0.51233 0.57367 -0.00355
 C3 C 0.44044 0.56114 0.00523
 C4 C 0.42637 0.49011 -0.00187
 C5 C 0.48575 0.43052 0.00097
 C6 C 0.55739 0.44295 -0.00690
 H7 H 0.60425 0.39506 -0.01637
 H8 H 0.39314 0.60890 0.01556
 C9 C -0.00158 0.42884 0.51229
 C10 C 0.00187 0.48724 0.57187
 C11 C -0.00424 0.55875 0.55972
 C12 C 0.00377 0.57286 0.48895
 C13 C -0.00053 0.51441 0.42946
 C14 C 0.00544 0.44289 0.44175
 H15 H 0.01376 0.39625 0.39425
 H16 H -0.01348 0.60528 0.60767
 C17 C 0.48623 0.00884 0.43209
 C18 C 0.43310 -0.00990 0.48510
 C19 C 0.45451 -0.02650 0.54773
 C20 C 0.51658 -0.00889 0.57037
 C21 C 0.57092 0.00818 0.51618
 C22 C 0.54867 0.02563 0.45393
 H23 H 0.58499 0.04746 0.41733
 H24 H 0.41765 -0.04832 0.58380
 O25 O 0.44293 0.00494 -0.08578
 O26 O 0.43463 0.02118 0.11245
 O27 O 0.43073 0.11315 0.02771
 O28 O 0.44608 -0.08799 -0.00027
 O29 O 0.56922 -0.11312 -0.02868
 O30 O 0.55388 0.08819 -0.00099
 O31 O 0.55773 -0.00463 0.08456
 O32 O 0.56606 -0.02121 -0.11354
 Cu33 Cu 0.42630 0.01498 0.01602
 Cu34 Cu 0.57402 -0.01492 -0.01712
 C35 C 0.50551 -0.00889 -0.13310
 C36 C 0.49525 0.00918 0.13197
 C37 C 0.49004 0.13473 0.01645
 C38 C 0.50983 -0.13463 -0.01767
 O39 O -0.11385 0.56797 1.02396
 O40 O 0.08612 0.55646 1.00301
 O41 O -0.00258 0.55478 0.91337
 O42 O -0.02564 0.56877 1.11276
 O43 O 0.00060 0.44565 1.08836
 O44 O 0.02378 0.43164 0.88887
 O45 O 0.11185 0.43334 0.97781
 O46 O -0.08841 0.44487 0.99869
 Cu47 Cu -0.01642 0.57431 1.01558
 Cu48 Cu 0.01435 0.42655 0.98620
 C49 C -0.13510 0.50831 1.01362
 C50 C 0.13296 0.49312 0.98795
 C51 C 0.01326 0.49102 0.86730
 C52 C -0.01505 0.50941 1.13436
 O53 O 0.02831 -0.11457 0.43154
 O54 O 0.00091 0.08644 0.44560
 O55 O 0.11341 -0.02303 0.43410
 O56 O -0.08497 -0.00621 0.44279
 O57 O -0.11285 0.02056 0.56556
 O58 O 0.08544 0.00365 0.55686
 O59 O -0.02773 0.11216 0.56837
 O60 O -0.00041 -0.08870 0.55433
 Cu61 Cu 0.01687 -0.01660 0.42617
 Cu62 Cu -0.01639 0.01421 0.57359
 C63 C 0.01714 -0.13565 0.49096
 C64 C -0.01651 0.13332 0.50900
 C65 C 0.13287 -0.01060 0.49448
 C66 C -0.13234 0.00797 0.50520
 C67 C -0.35366 0.51720 1.00863
 C68 C -0.34207 0.59251 1.04710
 C69 C -0.26993 0.59048 1.04764
 C70 C -0.21542 0.51218 1.01414
 C71 C -0.25037 0.46330 1.05787
 C72 C -0.32250 0.46651 1.05603
 C73 C -0.29547 0.48842 0.93262
 C74 C -0.22426 0.48610 0.93549
 H75 H -0.38654 0.64019 1.08152
 H76 H -0.25542 0.63779 1.07870
 H77 H -0.22278 0.43290 1.09139
 H78 H -0.35590 0.43988 1.08995
 H79 H -0.30920 0.46950 0.88040
 H80 H -0.17767 0.46410 0.88610
 C81 C 0.35161 0.48634 0.99071
 C82 C 0.34079 0.41083 0.95177
 C83 C 0.26862 0.41200 0.95193
 C84 C 0.21334 0.48975 0.98671
 C85 C 0.22303 0.51515 1.06514
 C86 C 0.29432 0.51362 1.06724
 C87 C 0.31883 0.53751 0.94457
 C88 C 0.24671 0.53985 0.94348
 H89 H 0.38567 0.36373 0.91684
 H90 H 0.25436 0.36453 0.92083
 H91 H 0.17695 0.53588 1.11501
 H92 H 0.30868 0.53195 1.11922
 H93 H 0.35115 0.56510 0.91081
 H94 H 0.21809 0.57046 0.91075
 C95 C 0.01264 -0.35311 0.48517
 C96 C 0.05500 -0.34416 0.41044
 C97 C 0.05599 -0.27232 0.41089
 C98 C 0.01847 -0.21585 0.48731
 C99 C -0.06076 -0.22478 0.50895
 C100 C -0.06382 -0.29542 0.50881
 C101 C 0.05673 -0.31987 0.53848
 C102 C 0.05860 -0.24814 0.54022
 H103 H 0.08974 -0.39026 0.36427
 H104 H 0.08853 -0.25887 0.36400
 H105 H -0.11074 -0.17905 0.52315
 H106 H -0.11664 -0.30941 0.52351
 H107 H 0.08912 -0.35174 0.56769
 H108 H 0.09048 -0.21938 0.57195
 C109 C -0.01125 0.35072 0.51587
 C110 C 0.06509 0.29299 0.49232
 C111 C 0.06184 0.22229 0.49171
 C112 C -0.01752 0.21352 0.51291
 C113 C -0.05507 0.26976 0.58948
 C114 C -0.05358 0.34156 0.59040
 C115 C -0.05492 0.31806 0.46206
 C116 C -0.05724 0.24635 0.45997
 H117 H 0.11789 0.30705 0.47797
 H118 H 0.11172 0.17644 0.47749
 H119 H -0.08737 0.25611 0.63638
 H120 H -0.08736 0.38769 0.63706
 H121 H -0.08660 0.35025 0.43259
 H122 H -0.08887 0.21782 0.42771
 C123 C 0.51549 -0.00569 -0.35152
 C124 C 0.56180 0.04069 -0.31373
 C125 C 0.55985 0.03752 -0.24258
 C126 C 0.50825 -0.00793 -0.21265
 C127 C 0.43274 0.02735 -0.22515
 C128 C 0.43663 0.02975 -0.29673
 C129 C 0.53897 -0.08439 -0.33965
 C130 C 0.53605 -0.08540 -0.26788
 H131 H 0.58607 0.08051 -0.33584
 H132 H 0.58722 0.07015 -0.20860
 H133 H 0.38174 0.05359 -0.18087
 H134 H 0.38904 0.06000 -0.31130
 H135 H 0.55650 -0.13549 -0.38457
 H136 H 0.55088 -0.13701 -0.25172
 C137 C 0.48677 0.00610 0.35004
 C138 C 0.56557 -0.02775 0.29536
 C139 C 0.56888 -0.02554 0.22384
 C140 C 0.49285 0.00844 0.21152
 C141 C 0.44243 -0.03803 0.24149
 C142 C 0.44090 -0.04097 0.31263
 C143 C 0.46163 0.08473 0.33873
 C144 C 0.46400 0.08584 0.26701
 H145 H 0.61382 -0.05647 0.31002
 H146 H 0.62006 -0.05059 0.17957
 H147 H 0.41481 -0.07066 0.20784
 H148 H 0.41640 -0.08022 0.33563
 H149 H 0.44344 0.13560 0.38395
 H150 H 0.44801 0.13741 0.25109
 C151 C 0.51671 -0.35234 -0.01279
 C152 C 0.59196 -0.34278 -0.05383
 C153 C 0.59113 -0.27087 -0.05488
 C154 C 0.51395 -0.21493 -0.01892
 C155 C 0.46216 -0.24817 -0.06014
 C156 C 0.46430 -0.31995 -0.05813
 C157 C 0.49138 -0.29413 0.06322
 C158 C 0.49092 -0.22349 0.06002
 H159 H 0.63870 -0.38847 -0.08825
 H160 H 0.63830 -0.25721 -0.08686
 H161 H 0.43090 -0.21994 -0.09266
 H162 H 0.43585 -0.35242 -0.09095
 H163 H 0.47554 -0.30776 0.11590
 H164 H 0.47533 -0.17745 0.10972
 C165 C 0.48164 0.35241 0.01098
 C166 C 0.53448 0.32074 0.05606
 C167 C 0.53712 0.24895 0.05843
 C168 C 0.48555 0.21501 0.01741
 C169 C 0.40809 0.27053 0.05325
 C170 C 0.40663 0.34242 0.05177
 C171 C 0.50717 0.29420 -0.06495
 C172 C 0.50828 0.22345 -0.06164
 H173 H 0.56302 0.35364 0.08827
 H174 H 0.56890 0.22102 0.09078
 H175 H 0.36096 0.25653 0.08490
 H176 H 0.35931 0.38800 0.08523
 H177 H 0.52272 0.30796 -0.11758
 H178 H 0.52409 0.17729 -0.11128
 C179 C -0.35094 0.00483 0.51523
 C180 C -0.33908 0.08355 0.53841
 C181 C -0.26711 0.08454 0.53544
 C182 C -0.21187 0.00702 0.50799
 C183 C -0.24186 -0.03823 0.55965
 C184 C -0.31321 -0.04138 0.56161
 C185 C -0.29599 -0.03099 0.43670
 C186 C -0.22424 -0.02856 0.43277
 H187 H -0.38416 0.13466 0.55583
 H188 H -0.25083 0.13613 0.55008
 H189 H -0.20769 -0.07095 0.58681
 H190 H -0.33528 -0.08134 0.58564
 H191 H -0.31053 -0.06169 0.38946
 H192 H -0.17976 -0.05517 0.38205
 C193 C 0.35105 -0.00714 0.48552
 C194 C 0.33986 -0.08589 0.46112
 C195 C 0.26795 -0.08714 0.46371
 C196 C 0.21238 -0.00972 0.49190
 C197 C 0.22458 0.02502 0.56748
 C198 C 0.29624 0.02742 0.56398
 C199 C 0.31363 0.03934 0.43932
 C200 C 0.24231 0.03626 0.44101
 H201 H 0.38528 -0.13671 0.44320
 H202 H 0.25197 -0.13877 0.44822
 H203 H 0.18011 0.05067 0.61837
 H204 H 0.31087 0.05695 0.61173
 H205 H 0.33648 0.07863 0.41479
 H206 H 0.20841 0.06868 0.41341
 C207 C -0.00992 0.51891 1.35149
 C208 C 0.06612 0.48839 1.29338
 C209 C 0.06316 0.48593 1.22248
 C210 C -0.01568 0.51384 1.21420
 C211 C -0.06114 0.46657 1.24979
 C212 C -0.05898 0.46977 1.32153
 C213 C -0.04635 0.59477 1.33972
 C214 C -0.04727 0.59260 1.26793
 H215 H 0.11830 0.46852 1.30704
 H216 H 0.11250 0.46290 1.17587
 H217 H -0.09560 0.43698 1.22275
 H218 H -0.09336 0.44387 1.35540
 H219 H -0.07891 0.64341 1.38393
 H220 H -0.07693 0.64050 1.25316
 C221 C 0.01021 0.48238 0.64990
 C222 C 0.05849 0.53180 0.68096
 C223 C 0.05990 0.53461 0.75278
 C224 C 0.01454 0.48672 0.78736
 C225 C -0.06406 0.51424 0.77830
 C226 C -0.06630 0.51207 0.70725
 C227 C 0.04671 0.40642 0.66132
 C228 C 0.04696 0.40818 0.73323
 H229 H 0.09294 0.55817 0.64777
 H230 H 0.09384 0.56433 0.78053
 H231 H -0.11380 0.53669 0.82450
 H232 H -0.11825 0.53151 0.69301
 H233 H 0.07962 0.35808 0.61690
 H234 H 0.07649 0.36021 0.74798
   
