data_POSCAR
  _audit_creation_date              2014-09-24
  _audit_creation_method            'ToBaCCo'
  _symmetry_space_group_name_H-M    'P1'
  _symmetry_Int_Tables_number       1
  _symmetry_cell_setting            triclinic
  loop_
  _symmetry_equiv_pos_as_xyz
 x,y,z
_cell_length_a 53.7068
_cell_length_b 53.7877
_cell_length_c 53.9334
_cell_angle_alpha 89.993600
_cell_angle_beta 89.996700
_cell_angle_gamma 89.997100
loop_
  _atom_site_label
  _atom_site_type_symbol
  _atom_site_fract_x
  _atom_site_fract_y
  _atom_site_fract_z
N1 N 0.28966 0.23975 0.22037
 N2 N 0.27927 0.25953 0.21043
 C3 C 0.29249 0.26639 0.19031
 C4 C 0.31203 0.25001 0.18769
 C5 C 0.30981 0.23334 0.20696
 H6 H 0.28827 0.28205 0.17846
 H7 H 0.32193 0.21778 0.21090
 Cu8 Cu 0.24947 0.27424 0.22475
 Cu9 Cu 0.27632 0.22376 0.24993
 Cu10 Cu 0.22355 0.25011 0.27610
 N11 N 0.22009 0.28908 0.23977
 N12 N 0.21004 0.27951 0.25987
 C13 C 0.19005 0.29314 0.26637
 C14 C 0.18758 0.31216 0.24944
 C15 C 0.20682 0.30918 0.23281
 H16 H 0.17822 0.28954 0.28220
 H17 H 0.21079 0.32075 0.21690
 N18 N 0.23995 0.22035 0.28978
 N19 N 0.26005 0.21031 0.27981
 C20 C 0.26670 0.19027 0.29327
 C21 C 0.24999 0.18772 0.31246
 C22 C 0.23329 0.20696 0.30983
 H23 H 0.28247 0.17837 0.28943
 H24 H 0.21749 0.21083 0.32164
 H25 H 0.23981 0.23479 0.24491
 H26 H 0.25984 0.25526 0.26446
 N27 N 0.70993 -0.24017 0.21987
 N28 N 0.72013 -0.26017 0.21013
 C29 C 0.70693 -0.26703 0.18999
 C30 C 0.68760 -0.25040 0.18717
 C31 C 0.68992 -0.23361 0.20631
 H32 H 0.71100 -0.28286 0.17831
 H33 H 0.67799 -0.21786 0.21009
 Cu34 Cu 0.74954 -0.27526 0.22493
 Cu35 Cu 0.72329 -0.22412 0.24939
 Cu36 Cu 0.77606 -0.25040 0.27564
 N37 N 0.77934 -0.28969 0.23961
 N38 N 0.78959 -0.27986 0.25950
 C39 C 0.80972 -0.29332 0.26593
 C40 C 0.81208 -0.31249 0.24916
 C41 C 0.79264 -0.30978 0.23269
 H42 H 0.82169 -0.28949 0.28160
 H43 H 0.78853 -0.32156 0.21696
 N44 N 0.75964 -0.22058 0.28925
 N45 N 0.73954 -0.21058 0.27925
 C46 C 0.73282 -0.19055 0.29270
 C47 C 0.74949 -0.18796 0.31192
 C48 C 0.76624 -0.20717 0.30931
 H49 H 0.71703 -0.17869 0.28884
 H50 H 0.78202 -0.21102 0.32116
 H51 H 0.75968 -0.23557 0.24430
 H52 H 0.73965 -0.25548 0.26443
 N53 N 0.71078 0.24020 0.77960
 N54 N 0.72120 0.25998 0.78952
 C55 C 0.70800 0.26689 0.80963
 C56 C 0.68842 0.25053 0.81228
 C57 C 0.69062 0.23384 0.79303
 H58 H 0.71221 0.28258 0.82144
 H59 H 0.67846 0.21832 0.78907
 Cu60 Cu 0.75083 0.27471 0.77480
 Cu61 Cu 0.72403 0.22416 0.74998
 Cu62 Cu 0.77687 0.25046 0.72372
 N63 N 0.78044 0.28946 0.76008
 N64 N 0.79048 0.27987 0.73997
 C65 C 0.81048 0.29349 0.73343
 C66 C 0.81296 0.31251 0.75036
 C67 C 0.79372 0.30956 0.76703
 H68 H 0.82224 0.28988 0.71755
 H69 H 0.78973 0.32118 0.78291
 N70 N 0.76037 0.22069 0.71004
 N71 N 0.74026 0.21068 0.72005
 C72 C 0.73356 0.19063 0.70661
 C73 C 0.75024 0.18804 0.68739
 C74 C 0.76697 0.20726 0.68999
 H75 H 0.71779 0.17876 0.71049
 H76 H 0.78277 0.21109 0.67815
 H77 H 0.76050 0.23520 0.75488
 H78 H 0.74047 0.25553 0.73517
 N79 N 0.28979 -0.24044 0.77989
 N80 N 0.27956 -0.26040 0.78964
 C81 C 0.29282 -0.26730 0.80972
 C82 C 0.31223 -0.25077 0.81252
 C83 C 0.30987 -0.23396 0.79339
 H84 H 0.28872 -0.28308 0.82145
 H85 H 0.32182 -0.21822 0.78961
 Cu86 Cu 0.24993 -0.27531 0.77511
 Cu87 Cu 0.27637 -0.22430 0.75044
 Cu88 Cu 0.22357 -0.25057 0.72420
 N89 N 0.22030 -0.28988 0.76023
 N90 N 0.21008 -0.28010 0.74030
 C91 C 0.18997 -0.29360 0.73386
 C92 C 0.18760 -0.31276 0.75066
 C93 C 0.20701 -0.30998 0.76716
 H94 H 0.17799 -0.28977 0.71818
 H95 H 0.21109 -0.32170 0.78294
 N96 N 0.23996 -0.22070 0.71062
 N97 N 0.26006 -0.21070 0.72063
 C98 C 0.26676 -0.19064 0.70721
 C99 C 0.25009 -0.18804 0.68799
 C100 C 0.23335 -0.20726 0.69058
 H101 H 0.28256 -0.17879 0.71106
 H102 H 0.21758 -0.21110 0.67872
 H103 H 0.23993 -0.23562 0.75554
 H104 H 0.25996 -0.25567 0.73555
 N105 N 0.71054 -0.24023 0.77957
 N106 N 0.72083 -0.26011 0.78942
 C107 C 0.70759 -0.26699 0.80951
 C108 C 0.68813 -0.25051 0.81222
 C109 C 0.69044 -0.23377 0.79302
 H110 H 0.71174 -0.28270 0.82132
 H111 H 0.67844 -0.21809 0.78919
 Cu112 Cu 0.75062 -0.27484 0.77506
 Cu113 Cu 0.72397 -0.22413 0.75012
 Cu114 Cu 0.77671 -0.25049 0.72389
 N115 N 0.77999 -0.28969 0.76000
 N116 N 0.79012 -0.28001 0.73998
 C117 C 0.81013 -0.29361 0.73347
 C118 C 0.81252 -0.31270 0.75032
 C119 C 0.79322 -0.30982 0.76692
 H120 H 0.82204 -0.28987 0.71772
 H121 H 0.78921 -0.32146 0.78278
 N122 N 0.76040 -0.22061 0.71033
 N123 N 0.74031 -0.21057 0.72033
 C124 C 0.73366 -0.19049 0.70692
 C125 C 0.75036 -0.18792 0.68773
 C126 C 0.76705 -0.20717 0.69030
 H127 H 0.71788 -0.17862 0.71076
 H128 H 0.78282 -0.21105 0.67844
 H129 H 0.74038 -0.25561 0.73542
 H130 H 0.76044 -0.23532 0.75514
 N131 N 0.28982 0.23988 0.77953
 N132 N 0.27959 0.25984 0.78930
 C133 C 0.29281 0.26672 0.80940
 C134 C 0.31219 0.25017 0.81219
 C135 C 0.30987 0.23338 0.79305
 H136 H 0.28872 0.28251 0.82112
 H137 H 0.32184 0.21766 0.78927
 Cu138 Cu 0.25002 0.27477 0.77475
 Cu139 Cu 0.27645 0.22379 0.75009
 Cu140 Cu 0.22370 0.25008 0.72384
 N141 N 0.22045 0.28935 0.75984
 N142 N 0.21025 0.27956 0.73992
 C143 C 0.19019 0.29310 0.73344
 C144 C 0.18782 0.31227 0.75019
 C145 C 0.20719 0.30948 0.76671
 H146 H 0.17824 0.28930 0.71775
 H147 H 0.21125 0.32122 0.78248
 N148 N 0.24006 0.22025 0.71030
 N149 N 0.26016 0.21024 0.72030
 C150 C 0.26685 0.19019 0.70688
 C151 C 0.25017 0.18762 0.68768
 C152 C 0.23344 0.20683 0.69026
 H153 H 0.28264 0.17833 0.71073
 H154 H 0.21767 0.21068 0.67841
 H155 H 0.26009 0.25520 0.73521
 H156 H 0.24004 0.23513 0.75517
 N157 N 0.29004 -0.23989 0.22052
 N158 N 0.27986 -0.25991 0.21082
 C159 C 0.29307 -0.26681 0.19073
 C160 C 0.31241 -0.25023 0.18787
 C161 C 0.31006 -0.23339 0.20696
 H162 H 0.28903 -0.28267 0.17907
 H163 H 0.32201 -0.21765 0.21071
 Cu164 Cu 0.25048 -0.27499 0.22556
 Cu165 Cu 0.27664 -0.22378 0.24997
 Cu166 Cu 0.22382 -0.25002 0.27613
 N167 N 0.22065 -0.28931 0.24016
 N168 N 0.21036 -0.27944 0.26000
 C169 C 0.19021 -0.29287 0.26638
 C170 C 0.18787 -0.31205 0.24964
 C171 C 0.20735 -0.30938 0.23323
 H172 H 0.17819 -0.28902 0.28200
 H173 H 0.21147 -0.32118 0.21753
 N174 N 0.24018 -0.22024 0.28972
 N175 N 0.26031 -0.21023 0.27977
 C176 C 0.26696 -0.19018 0.29321
 C177 C 0.25021 -0.18761 0.31236
 C178 C 0.23350 -0.20682 0.30974
 H179 H 0.28275 -0.17831 0.28940
 H180 H 0.21769 -0.21068 0.32155
 H181 H 0.26029 -0.25512 0.26501
 H182 H 0.24029 -0.23526 0.24477
 N183 N 0.70989 0.23988 0.22050
 N184 N 0.72019 0.25979 0.21071
 C185 C 0.70692 0.26678 0.19068
 C186 C 0.68744 0.25035 0.18796
 C187 C 0.68975 0.23352 0.20707
 H188 H 0.71108 0.28253 0.17892
 H189 H 0.67773 0.21784 0.21086
 Cu190 Cu 0.74999 0.27442 0.22502
 Cu191 Cu 0.72333 0.22369 0.24988
 Cu192 Cu 0.77611 0.24996 0.27612
 N193 N 0.77935 0.28918 0.24007
 N194 N 0.78951 0.27947 0.26005
 C195 C 0.80952 0.29305 0.26654
 C196 C 0.81190 0.31217 0.24972
 C197 C 0.79258 0.30931 0.23317
 H198 H 0.82145 0.28931 0.28226
 H199 H 0.78856 0.32100 0.21735
 N200 N 0.75978 0.22009 0.28963
 N201 N 0.73969 0.21007 0.27962
 C202 C 0.73302 0.19000 0.29303
 C203 C 0.74971 0.18743 0.31222
 C204 C 0.76642 0.20665 0.30965
 H205 H 0.71723 0.17814 0.28918
 H206 H 0.78219 0.21052 0.32151
 H207 H 0.73977 0.25514 0.26463
 H208 H 0.75982 0.23487 0.24485
 C209 C 0.24942 0.07811 0.51282
 C210 C 0.25057 0.07812 0.48743
 C211 C 0.25088 0.05342 0.48004
 N212 N 0.25000 0.03843 0.50012
 C213 C 0.24911 0.05340 0.52020
 C214 C 0.25122 0.04535 0.45510
 C215 C 0.25077 0.02017 0.44737
 C216 C 0.24767 0.01261 0.42296
 C217 C 0.24768 -0.01291 0.42299
 C218 C 0.25079 -0.02043 0.44741
 N219 N 0.25312 -0.00012 0.46208
 C220 C 0.25128 -0.04560 0.45518
 C221 C 0.25098 -0.05370 0.48012
 C222 C 0.25068 -0.07841 0.48750
 C223 C 0.24955 -0.07842 0.51289
 C224 C 0.24924 -0.05372 0.52029
 N225 N 0.25010 -0.03873 0.50021
 C226 C 0.24892 -0.04565 0.54524
 C227 C 0.24935 -0.02046 0.55296
 C228 C 0.25244 -0.01290 0.57737
 C229 C 0.25241 0.01263 0.57734
 C230 C 0.24929 0.02014 0.55291
 N231 N 0.24698 -0.00017 0.53825
 C232 C 0.24880 0.04531 0.54514
 H233 H 0.24901 0.09447 0.52450
 H234 H 0.25098 0.09449 0.47575
 H235 H 0.24229 -0.00018 0.51965
 H236 H 0.24531 0.02427 0.40677
 H237 H 0.24534 -0.02459 0.40681
 H238 H 0.25109 -0.09476 0.47581
 H239 H 0.24915 -0.09479 0.52457
 H240 H 0.25474 0.02431 0.59351
 H241 H 0.25782 -0.00012 0.48068
 H242 H 0.25480 -0.02455 0.59356
 C243 C 0.75048 0.07803 0.48728
 C244 C 0.74933 0.07803 0.51267
 C245 C 0.74898 0.05333 0.52006
 N246 N 0.74985 0.03834 0.49998
 C247 C 0.75075 0.05332 0.47990
 C248 C 0.74863 0.04525 0.54501
 C249 C 0.74907 0.02006 0.55273
 C250 C 0.75215 0.01249 0.57714
 C251 C 0.75213 -0.01304 0.57711
 C252 C 0.74904 -0.02055 0.55268
 N253 N 0.74673 -0.00023 0.53801
 C254 C 0.74855 -0.04573 0.54490
 C255 C 0.74885 -0.05381 0.51995
 C256 C 0.74913 -0.07851 0.51256
 C257 C 0.75025 -0.07852 0.48716
 C258 C 0.75058 -0.05381 0.47978
 N259 N 0.74972 -0.03883 0.49986
 C260 C 0.75091 -0.04573 0.45483
 C261 C 0.75048 -0.02053 0.44712
 C262 C 0.74740 -0.01296 0.42271
 C263 C 0.74744 0.01257 0.42274
 C264 C 0.75055 0.02007 0.44717
 N265 N 0.75285 -0.00025 0.46183
 C266 C 0.75106 0.04524 0.45495
 H267 H 0.75091 0.09438 0.47560
 H268 H 0.74894 0.09439 0.52435
 H269 H 0.75753 -0.00027 0.48043
 H270 H 0.75450 0.02413 0.59334
 H271 H 0.75446 -0.02472 0.59328
 H272 H 0.74872 -0.09488 0.52424
 H273 H 0.75064 -0.09488 0.47548
 H274 H 0.74512 0.02426 0.40657
 H275 H 0.74206 -0.00022 0.51941
 H276 H 0.74504 -0.02460 0.40651
 C277 C 0.51283 0.25014 0.07789
 C278 C 0.48733 0.25132 0.07793
 C279 C 0.47989 0.25164 0.05330
 N280 N 0.50003 0.25074 0.03833
 C281 C 0.52021 0.24983 0.05324
 C282 C 0.45483 0.25202 0.04528
 C283 C 0.44705 0.25155 0.02018
 C284 C 0.42253 0.24846 0.01267
 C285 C 0.42253 0.24844 -0.01278
 C286 C 0.44706 0.25153 -0.02031
 N287 N 0.46181 0.25386 -0.00007
 C288 C 0.45483 0.25199 -0.04542
 C289 C 0.47987 0.25164 -0.05351
 C290 C 0.48725 0.25131 -0.07816
 C291 C 0.51275 0.25014 -0.07820
 C292 C 0.52020 0.24982 -0.05358
 N293 N 0.50005 0.25074 -0.03860
 C294 C 0.54526 0.24947 -0.04555
 C295 C 0.55303 0.24993 -0.02044
 C296 C 0.57755 0.25304 -0.01293
 C297 C 0.57755 0.25305 0.01252
 C298 C 0.55303 0.24995 0.02004
 N299 N 0.53828 0.24760 -0.00020
 C300 C 0.54525 0.24950 0.04515
 H301 H 0.52458 0.24970 0.09419
 H302 H 0.47562 0.25174 0.09426
 H303 H 0.51960 0.24290 -0.00017
 H304 H 0.40628 0.24612 0.02431
 H305 H 0.40628 0.24609 -0.02441
 H306 H 0.47550 0.25174 -0.09446
 H307 H 0.52446 0.24970 -0.09454
 H308 H 0.59380 0.25541 0.02416
 H309 H 0.48049 0.25855 -0.00010
 H310 H 0.59380 0.25539 -0.02457
 C311 C 0.48774 0.74977 0.07835
 C312 C 0.51325 0.74864 0.07837
 C313 C 0.52068 0.74834 0.05374
 N314 N 0.50052 0.74923 0.03878
 C315 C 0.48034 0.75009 0.05371
 C316 C 0.54574 0.74801 0.04569
 C317 C 0.55350 0.74848 0.02057
 C318 C 0.57801 0.75156 0.01304
 C319 C 0.57799 0.75158 -0.01242
 C320 C 0.55346 0.74852 -0.01992
 N321 N 0.53873 0.74619 0.00033
 C322 C 0.54567 0.74806 -0.04503
 C323 C 0.52061 0.74839 -0.05310
 C324 C 0.51321 0.74872 -0.07775
 C325 C 0.48770 0.74985 -0.07776
 C326 C 0.48027 0.75015 -0.05313
 N327 N 0.50043 0.74926 -0.03817
 C328 C 0.45521 0.75047 -0.04508
 C329 C 0.44745 0.75001 -0.01996
 C330 C 0.42294 0.74694 -0.01242
 C331 C 0.42296 0.74691 0.01303
 C332 C 0.44749 0.74997 0.02053
 N333 N 0.46222 0.75231 0.00028
 C334 C 0.45529 0.75040 0.04564
 H335 H 0.47600 0.75017 0.09466
 H336 H 0.52496 0.74822 0.09470
 H337 H 0.48091 0.75697 0.00029
 H338 H 0.59427 0.75389 0.02467
 H339 H 0.59424 0.75392 -0.02406
 H340 H 0.52494 0.74831 -0.09406
 H341 H 0.47598 0.75028 -0.09409
 H342 H 0.40671 0.74457 0.02468
 H343 H 0.52004 0.74152 0.00033
 H344 H 0.40667 0.74462 -0.02404
 C345 C 0.07786 0.51317 0.24857
 C346 C 0.07790 0.48772 0.24977
 C347 C 0.05317 0.48029 0.25007
 N348 N 0.03813 0.50040 0.24914
 C349 C 0.05310 0.52055 0.24823
 C350 C 0.04511 0.45528 0.25045
 C351 C 0.01990 0.44752 0.25000
 C352 C 0.01234 0.42304 0.24696
 C353 C -0.01322 0.42306 0.24693
 C354 C -0.02076 0.44756 0.24995
 N355 N -0.00043 0.46227 0.25228
 C356 C -0.04596 0.45534 0.25037
 C357 C -0.05409 0.48034 0.25000
 C358 C -0.07885 0.48771 0.24965
 C359 C -0.07889 0.51317 0.24846
 C360 C -0.05416 0.52060 0.24816
 N361 N -0.03912 0.50049 0.24910
 C362 C -0.04610 0.54562 0.24778
 C363 C -0.02088 0.55337 0.24825
 C364 C -0.01332 0.57785 0.25133
 C365 C 0.01224 0.57783 0.25136
 C366 C 0.01978 0.55333 0.24830
 N367 N -0.00056 0.53862 0.24596
 C368 C 0.04498 0.54554 0.24786
 H369 H 0.09423 0.52490 0.24815
 H370 H 0.09430 0.47603 0.25022
 H371 H -0.00054 0.51997 0.24129
 H372 H 0.02402 0.40680 0.24467
 H373 H -0.02490 0.40683 0.24460
 H374 H -0.09521 0.47597 0.25007
 H375 H -0.09529 0.52485 0.24800
 H376 H 0.02394 0.59405 0.25370
 H377 H -0.00045 0.48093 0.25692
 H378 H -0.02500 0.59409 0.25364
 C379 C 0.07816 0.48760 0.75140
 C380 C 0.07821 0.51307 0.75028
 C381 C 0.05348 0.52052 0.74997
 N382 N 0.03843 0.50040 0.75083
 C383 C 0.05340 0.48024 0.75170
 C384 C 0.04543 0.54555 0.74965
 C385 C 0.02020 0.55331 0.75007
 C386 C 0.01263 0.57779 0.75313
 C387 C -0.01293 0.57777 0.75313
 C388 C -0.02048 0.55328 0.75005
 N389 N -0.00013 0.53856 0.74774
 C390 C -0.04570 0.54549 0.74957
 C391 C -0.05382 0.52048 0.74985
 C392 C -0.07858 0.51310 0.75012
 C393 C -0.07862 0.48763 0.75123
 C394 C -0.05389 0.48019 0.75155
 N395 N -0.03885 0.50031 0.75071
 C396 C -0.04584 0.45516 0.75190
 C397 C -0.02061 0.44740 0.75149
 C398 C -0.01304 0.42292 0.74846
 C399 C 0.01253 0.42294 0.74849
 C400 C 0.02006 0.44744 0.75152
 N401 N -0.00028 0.46215 0.75379
 C402 C 0.04528 0.45523 0.75200
 H403 H 0.09452 0.47587 0.75180
 H404 H 0.09461 0.52475 0.74987
 H405 H -0.00027 0.48082 0.75840
 H406 H 0.02431 0.59402 0.75546
 H407 H -0.02462 0.59400 0.75545
 H408 H -0.09495 0.52483 0.74972
 H409 H -0.09502 0.47594 0.75162
 H410 H 0.02422 0.40671 0.74620
 H411 H -0.00015 0.51991 0.74310
 H412 H -0.02471 0.40668 0.74615
 C413 C 0.37240 0.24955 0.09399
 C414 C 0.37004 0.22976 0.11473
 C415 C 0.36588 0.25069 0.13367
 C416 C 0.36794 0.27047 0.11323
 C417 C 0.40048 0.25119 0.09916
 C418 C 0.39632 0.27211 0.11810
 C419 C 0.39842 0.23140 0.11960
 C420 C 0.39397 0.25232 0.13884
 C421 C 0.34665 0.25045 0.15293
 C422 C 0.33085 0.25026 0.16878
 C423 C 0.41976 0.25150 0.07998
 C424 C 0.43566 0.25174 0.06421
 H425 H 0.36376 0.24841 0.07532
 H426 H 0.35903 0.21233 0.11356
 H427 H 0.35520 0.28654 0.11081
 H428 H 0.40736 0.28952 0.11927
 H429 H 0.41118 0.21534 0.12200
 H430 H 0.40263 0.25344 0.15749
 C431 C 0.59499 0.74587 0.12750
 C432 C 0.61696 0.72729 0.12921
 C433 C 0.63469 0.74915 0.13416
 C434 C 0.61301 0.76774 0.13275
 C435 C 0.60011 0.74882 0.09962
 C436 C 0.61783 0.77069 0.10457
 C437 C 0.62178 0.73024 0.10104
 C438 C 0.63981 0.75211 0.10629
 C439 C 0.65397 0.74930 0.15340
 C440 C 0.66980 0.74942 0.16925
 C441 C 0.58084 0.74856 0.08040
 C442 C 0.56494 0.74831 0.06462
 H443 H 0.57633 0.74332 0.13600
 H444 H 0.61681 0.70945 0.13955
 H445 H 0.60961 0.78316 0.14600
 H446 H 0.61796 0.78853 0.09423
 H447 H 0.62517 0.71483 0.08778
 H448 H 0.65845 0.75468 0.09777
 C449 C 0.59544 0.25870 -0.12635
 C450 C 0.61991 0.27391 -0.12517
 C451 C 0.63434 0.25083 -0.13386
 C452 C 0.61016 0.23563 -0.13534
 C453 C 0.59966 0.25042 -0.09942
 C454 C 0.61409 0.22735 -0.10811
 C455 C 0.62383 0.26563 -0.09793
 C456 C 0.63855 0.24256 -0.10692
 C457 C 0.65366 0.25091 -0.15305
 C458 C 0.66953 0.25081 -0.16885
 C459 C 0.58035 0.25010 -0.08025
 C460 C 0.56444 0.24981 -0.06449
 H461 H 0.57748 0.26533 -0.13411
 H462 H 0.62250 0.29306 -0.13240
 H463 H 0.60473 0.22330 -0.15094
 H464 H 0.61147 0.20820 -0.10088
 H465 H 0.62922 0.27796 -0.08232
 H466 H 0.65649 0.23592 -0.09912
 C467 C 0.37920 0.76824 -0.10049
 C468 C 0.38402 0.77089 -0.12868
 C469 C 0.36612 0.74912 -0.13342
 C470 C 0.36102 0.74646 -0.10552
 C471 C 0.40075 0.74952 -0.09892
 C472 C 0.38287 0.72773 -0.10365
 C473 C 0.40586 0.75217 -0.12683
 C474 C 0.38767 0.73039 -0.13186
 C475 C 0.34684 0.74901 -0.15267
 C476 C 0.33103 0.74906 -0.16853
 C477 C 0.42007 0.74984 -0.07975
 C478 C 0.43599 0.75013 -0.06400
 H479 H 0.37592 0.78380 -0.08737
 H480 H 0.38429 0.78864 -0.13919
 H481 H 0.34236 0.74409 -0.09697
 H482 H 0.38261 0.70999 -0.09314
 H483 H 0.42452 0.75452 -0.13536
 H484 H 0.39095 0.71482 -0.14497
 C485 C 0.11364 0.39279 0.22635
 C486 C 0.13809 0.39356 0.24158
 C487 C 0.13378 0.36638 0.24919
 C488 C 0.10963 0.36530 0.23396
 C489 C 0.09920 0.40099 0.24954
 C490 C 0.09489 0.37381 0.25715
 C491 C 0.12335 0.40207 0.26477
 C492 C 0.11933 0.37459 0.27238
 C493 C 0.15303 0.34708 0.24915
 C494 C 0.16882 0.33117 0.24923
 C495 C 0.07995 0.42026 0.24985
 C496 C 0.06412 0.43613 0.25013
 H497 H 0.11106 0.40051 0.20743
 H498 H 0.15606 0.40148 0.23517
 H499 H 0.10421 0.34997 0.22128
 H500 H 0.07691 0.36592 0.26355
 H501 H 0.12875 0.41741 0.27743
 H502 H 0.12190 0.36689 0.29131
 C503 C 0.12249 0.59962 0.76788
 C504 C 0.13925 0.60655 0.74553
 C505 C 0.13453 0.63420 0.75096
 C506 C 0.11808 0.62757 0.77331
 C507 C 0.09974 0.59974 0.75060
 C508 C 0.09503 0.62739 0.75604
 C509 C 0.11620 0.60638 0.72826
 C510 C 0.11178 0.63431 0.73369
 C511 C 0.15388 0.65344 0.75101
 C512 C 0.16974 0.66931 0.75090
 C513 C 0.08037 0.58055 0.75030
 C514 C 0.06447 0.56471 0.75001
 H515 H 0.12669 0.58514 0.78194
 H516 H 0.15763 0.59817 0.74123
 H517 H 0.11908 0.63648 0.79185
 H518 H 0.07664 0.63575 0.76036
 H519 H 0.11521 0.59745 0.70973
 H520 H 0.10757 0.64878 0.71962
 C521 C -0.10414 0.61908 0.22773
 C522 C -0.13253 0.61411 0.22886
 C523 C -0.13496 0.63441 0.24876
 C524 C -0.10687 0.63967 0.24763
 C525 C -0.10026 0.59989 0.24847
 C526 C -0.10269 0.62018 0.26837
 C527 C -0.12835 0.59462 0.24961
 C528 C -0.13109 0.61522 0.26951
 C529 C -0.15426 0.65367 0.24887
 C530 C -0.17010 0.66956 0.24898
 C531 C -0.08095 0.58066 0.24824
 C532 C -0.06511 0.56479 0.24803
 H533 H -0.09283 0.62045 0.21055
 H534 H -0.14501 0.61181 0.21261
 H535 H -0.09824 0.65841 0.24682
 H536 H -0.09020 0.62246 0.28462
 H537 H -0.13695 0.57587 0.25043
 H538 H -0.14238 0.61383 0.28669
 C539 C -0.09846 0.37638 0.76593
 C540 C -0.12590 0.38012 0.77396
 C541 C -0.13437 0.36594 0.75071
 C542 C -0.10722 0.36191 0.74267
 C543 C -0.09987 0.40068 0.75102
 C544 C -0.10833 0.38652 0.72776
 C545 C -0.12702 0.40472 0.75905
 C546 C -0.13578 0.39025 0.73580
 C547 C -0.15356 0.34656 0.75058
 C548 C -0.16931 0.33058 0.75049
 C549 C -0.08066 0.42004 0.75129
 C550 C -0.06485 0.43597 0.75156
 H551 H -0.08289 0.37088 0.77831
 H552 H -0.13332 0.37729 0.79296
 H553 H -0.09927 0.34410 0.73592
 H554 H -0.10090 0.38935 0.70877
 H555 H -0.13494 0.42255 0.76578
 H556 H -0.15133 0.39575 0.72340
 C557 C 0.22824 0.11663 0.39556
 C558 C 0.24654 0.13885 0.39414
 C559 C 0.25002 0.13378 0.36632
 C560 C 0.23171 0.11187 0.36744
 C561 C 0.25032 0.09927 0.40085
 C562 C 0.25379 0.09420 0.37304
 C563 C 0.26862 0.12119 0.39973
 C564 C 0.27210 0.11641 0.37162
 C565 C 0.24995 0.15302 0.34709
 C566 C 0.24995 0.16886 0.33129
 C567 C 0.25060 0.08008 0.42010
 C568 C 0.25088 0.06430 0.43597
 H569 H 0.21021 0.11649 0.40563
 H570 H 0.24355 0.15742 0.40260
 H571 H 0.21653 0.10825 0.35395
 H572 H 0.25676 0.07561 0.36460
 H573 H 0.28379 0.12479 0.41324
 H574 H 0.29013 0.11653 0.36156
 C575 C 0.75340 0.09427 0.62699
 C576 C 0.77189 0.11635 0.62810
 C577 C 0.75002 0.13391 0.63365
 C578 C 0.73154 0.11212 0.63283
 C579 C 0.74959 0.09928 0.59920
 C580 C 0.72772 0.11684 0.60475
 C581 C 0.76808 0.12106 0.60001
 C582 C 0.74621 0.13892 0.60586
 C583 C 0.75017 0.15323 0.65282
 C584 C 0.75023 0.16912 0.66859
 C585 C 0.74927 0.08003 0.57999
 C586 C 0.74897 0.06422 0.56415
 H587 H 0.75636 0.07568 0.63545
 H588 H 0.79007 0.11635 0.63791
 H589 H 0.71651 0.10865 0.64654
 H590 H 0.70956 0.11683 0.59493
 H591 H 0.78310 0.12452 0.58630
 H592 H 0.74326 0.15749 0.59737
 C593 C 0.24721 -0.09441 0.62739
 C594 C 0.22838 -0.11615 0.62931
 C595 C 0.25013 -0.13409 0.63407
 C596 C 0.26897 -0.11264 0.63246
 C597 C 0.24983 -0.09958 0.59950
 C598 C 0.27159 -0.11750 0.60426
 C599 C 0.23101 -0.12102 0.60112
 C600 C 0.25276 -0.13925 0.60618
 C601 C 0.25018 -0.15333 0.65332
 C602 C 0.25016 -0.16916 0.66913
 C603 C 0.24956 -0.08039 0.58024
 C604 C 0.24927 -0.06461 0.56437
 H605 H 0.24494 -0.07575 0.63589
 H606 H 0.21061 -0.11579 0.63982
 H607 H 0.28458 -0.10940 0.64555
 H608 H 0.28935 -0.11784 0.59374
 H609 H 0.21541 -0.12425 0.58801
 H610 H 0.25506 -0.15789 0.59765
 C611 C 0.73549 -0.09762 0.37598
 C612 C 0.75875 -0.10727 0.36197
 C613 C 0.74958 -0.13405 0.36586
 C614 C 0.72631 -0.12469 0.37957
 C615 C 0.74996 -0.09959 0.40047
 C616 C 0.74078 -0.12636 0.40437
 C617 C 0.77322 -0.10894 0.38676
 C618 C 0.76404 -0.13601 0.39036
 C619 C 0.74947 -0.15327 0.34660
 C620 C 0.74945 -0.16910 0.33077
 C621 C 0.75027 -0.08043 0.41978
 C622 C 0.75055 -0.06468 0.43567
 H623 H 0.72376 -0.08162 0.37028
 H624 H 0.76613 -0.09962 0.34432
 H625 H 0.70702 -0.13138 0.37640
 H626 H 0.73340 -0.13398 0.42203
 H627 H 0.79251 -0.10225 0.38993
 H628 H 0.77577 -0.15200 0.39609
 C629 C 0.59561 0.75711 -0.12588
 C630 C 0.62011 0.77228 -0.12485
 C631 C 0.63446 0.74917 -0.13358
 C632 C 0.61026 0.73400 -0.13491
 C633 C 0.59998 0.74886 -0.09896
 C634 C 0.61432 0.72576 -0.10769
 C635 C 0.62417 0.76404 -0.09761
 C636 C 0.63882 0.74093 -0.10665
 C637 C 0.65363 0.74928 -0.15289
 C638 C 0.66938 0.74936 -0.16880
 C639 C 0.58074 0.74861 -0.07973
 C640 C 0.56486 0.74836 -0.06395
 H641 H 0.57763 0.76376 -0.13355
 H642 H 0.62270 0.79142 -0.13212
 H643 H 0.60473 0.72165 -0.15046
 H644 H 0.61172 0.70663 -0.10041
 H645 H 0.62966 0.77639 -0.08205
 H646 H 0.65679 0.73429 -0.09895
 C647 C 0.37893 0.26983 -0.10082
 C648 C 0.38381 0.27248 -0.12901
 C649 C 0.36594 0.25068 -0.13376
 C650 C 0.36077 0.24803 -0.10587
 C651 C 0.40047 0.25111 -0.09922
 C652 C 0.38262 0.22932 -0.10397
 C653 C 0.40565 0.25376 -0.12711
 C654 C 0.38749 0.23196 -0.13216
 C655 C 0.34673 0.25049 -0.15301
 C656 C 0.33096 0.25036 -0.16888
 C657 C 0.41973 0.25141 -0.08004
 C658 C 0.43563 0.25168 -0.06430
 H659 H 0.37565 0.28539 -0.08770
 H660 H 0.38408 0.29022 -0.13953
 H661 H 0.34210 0.24567 -0.09736
 H662 H 0.38237 0.21158 -0.09344
 H663 H 0.42434 0.25610 -0.13559
 H664 H 0.39079 0.21639 -0.14526
 C665 C 0.37283 0.74798 0.09425
 C666 C 0.37037 0.72828 0.11508
 C667 C 0.36629 0.74931 0.13392
 C668 C 0.36845 0.76900 0.11340
 C669 C 0.40091 0.74952 0.09946
 C670 C 0.39682 0.77054 0.11830
 C671 C 0.39876 0.72982 0.11997
 C672 C 0.39437 0.75084 0.13912
 C673 C 0.34703 0.74934 0.15314
 C674 C 0.33122 0.74950 0.16897
 C675 C 0.42020 0.74977 0.08030
 C676 C 0.43611 0.75005 0.06455
 H677 H 0.36422 0.74679 0.07558
 H678 H 0.35928 0.71090 0.11397
 H679 H 0.35577 0.78510 0.11091
 H680 H 0.40793 0.78791 0.11941
 H681 H 0.41145 0.71372 0.12245
 H682 H 0.40301 0.75201 0.15778
 C683 C 0.59421 0.24745 0.12691
 C684 C 0.61615 0.22885 0.12870
 C685 C 0.63386 0.25069 0.13375
 C686 C 0.61221 0.26930 0.13225
 C687 C 0.59948 0.25041 0.09907
 C688 C 0.61718 0.27227 0.10411
 C689 C 0.62113 0.23181 0.10057
 C690 C 0.63914 0.25366 0.10591
 C691 C 0.65298 0.25070 0.15309
 C692 C 0.66870 0.25059 0.16900
 C693 C 0.58029 0.25013 0.07982
 C694 C 0.56443 0.24984 0.06405
 H695 H 0.57551 0.24490 0.13529
 H696 H 0.61595 0.21100 0.13904
 H697 H 0.60878 0.28472 0.14550
 H698 H 0.61737 0.29011 0.09376
 H699 H 0.62456 0.21641 0.08731
 H700 H 0.65783 0.25623 0.09750
 C701 C -0.10367 0.61895 0.72967
 C702 C -0.13205 0.61397 0.73080
 C703 C -0.13450 0.63428 0.75068
 C704 C -0.10640 0.63954 0.74956
 C705 C -0.09980 0.59977 0.75043
 C706 C -0.10224 0.62006 0.77032
 C707 C -0.12789 0.59450 0.75155
 C708 C -0.13064 0.61510 0.77145
 C709 C -0.15380 0.65351 0.75068
 C710 C -0.16965 0.66937 0.75056
 C711 C -0.08052 0.58054 0.75017
 C712 C -0.06469 0.56466 0.74990
 H713 H -0.09235 0.62031 0.71250
 H714 H -0.14453 0.61167 0.71455
 H715 H -0.09778 0.65828 0.74875
 H716 H -0.08975 0.62234 0.78657
 H717 H -0.13649 0.57575 0.75237
 H718 H -0.14194 0.61373 0.78862
 C719 C -0.09840 0.37669 0.26443
 C720 C -0.12582 0.38048 0.27250
 C721 C -0.13432 0.36629 0.24928
 C722 C -0.10720 0.36220 0.24121
 C723 C -0.09984 0.40096 0.24949
 C724 C -0.10832 0.38678 0.22626
 C725 C -0.12695 0.40505 0.25756
 C726 C -0.13575 0.39056 0.23433
 C727 C -0.15352 0.34700 0.24932
 C728 C -0.16931 0.33112 0.24947
 C729 C -0.08068 0.42027 0.24976
 C730 C -0.06491 0.43618 0.25003
 H731 H -0.08281 0.37122 0.27680
 H732 H -0.13323 0.37767 0.29151
 H733 H -0.09930 0.34436 0.23448
 H734 H -0.10090 0.38961 0.20726
 H735 H -0.13483 0.42291 0.26427
 H736 H -0.15133 0.39604 0.22195
 C737 C 0.11375 0.39277 0.72791
 C738 C 0.13821 0.39356 0.74312
 C739 C 0.13394 0.36636 0.75072
 C740 C 0.10978 0.36527 0.73550
 C741 C 0.09933 0.40093 0.75112
 C742 C 0.09505 0.37374 0.75871
 C743 C 0.12348 0.40202 0.76633
 C744 C 0.11950 0.37453 0.77392
 C745 C 0.15319 0.34709 0.75054
 C746 C 0.16901 0.33122 0.75040
 C747 C 0.08008 0.42018 0.75141
 C748 C 0.06426 0.43606 0.75169
 H749 H 0.11116 0.40049 0.70899
 H750 H 0.15617 0.40149 0.73671
 H751 H 0.10438 0.34994 0.72282
 H752 H 0.07707 0.36582 0.76510
 H753 H 0.12888 0.41737 0.77900
 H754 H 0.12209 0.36682 0.79284
 C755 C 0.12188 0.59946 0.26603
 C756 C 0.13863 0.60639 0.24369
 C757 C 0.13391 0.63402 0.24912
 C758 C 0.11746 0.62740 0.27147
 C759 C 0.09915 0.59963 0.24874
 C760 C 0.09442 0.62725 0.25418
 C761 C 0.11560 0.60624 0.22640
 C762 C 0.11118 0.63417 0.23184
 C763 C 0.15321 0.65321 0.24928
 C764 C 0.16905 0.66904 0.24942
 C765 C 0.07983 0.58049 0.24844
 C766 C 0.06396 0.56467 0.24817
 H767 H 0.12603 0.58496 0.28008
 H768 H 0.15703 0.59802 0.23939
 H769 H 0.11845 0.63631 0.29001
 H770 H 0.07601 0.63558 0.25849
 H771 H 0.11460 0.59731 0.20787
 H772 H 0.10700 0.64866 0.21778
 C773 C 0.74697 -0.09442 0.62705
 C774 C 0.72821 -0.11621 0.62904
 C775 C 0.75002 -0.13408 0.63376
 C776 C 0.76879 -0.11259 0.63207
 C777 C 0.74953 -0.09963 0.59916
 C778 C 0.77135 -0.11749 0.60387
 C779 C 0.73077 -0.12112 0.60085
 C780 C 0.75259 -0.13928 0.60587
 C781 C 0.75022 -0.15328 0.65302
 C782 C 0.75031 -0.16908 0.66886
 C783 C 0.74919 -0.08046 0.57989
 C784 C 0.74889 -0.06469 0.56402
 H785 H 0.74466 -0.07576 0.63552
 H786 H 0.71047 -0.11590 0.63960
 H787 H 0.78443 -0.10929 0.64512
 H788 H 0.78908 -0.11779 0.59330
 H789 H 0.71514 -0.12440 0.58779
 H790 H 0.75491 -0.15793 0.59737
 C791 C 0.23601 -0.09745 0.37641
 C792 C 0.25931 -0.10705 0.36243
 C793 C 0.25017 -0.13383 0.36631
 C794 C 0.22686 -0.12454 0.37997
 C795 C 0.25044 -0.09942 0.40092
 C796 C 0.24130 -0.12620 0.40479
 C797 C 0.27374 -0.10872 0.38724
 C798 C 0.26459 -0.13580 0.39082
 C799 C 0.25013 -0.15300 0.34704
 C800 C 0.25016 -0.16878 0.33121
 C801 C 0.25070 -0.08029 0.42019
 C802 C 0.25097 -0.06455 0.43607
 H803 H 0.22426 -0.08145 0.37072
 H804 H 0.26670 -0.09939 0.34479
 H805 H 0.20758 -0.13126 0.37676
 H806 H 0.23389 -0.13383 0.42244
 H807 H 0.29301 -0.10199 0.39046
 H808 H 0.27634 -0.15178 0.39654
 C809 C 0.72810 0.11649 0.39545
 C810 C 0.74639 0.13872 0.39397
 C811 C 0.74984 0.13361 0.36616
 C812 C 0.73155 0.11168 0.36733
 C813 C 0.75021 0.09916 0.40074
 C814 C 0.75366 0.09404 0.37293
 C815 C 0.76849 0.12109 0.39957
 C816 C 0.77194 0.11627 0.37146
 C817 C 0.74972 0.15280 0.34690
 C818 C 0.74969 0.16859 0.33107
 C819 C 0.75049 0.07998 0.41999
 C820 C 0.75076 0.06421 0.43585
 H821 H 0.71009 0.11635 0.40554
 H822 H 0.74339 0.15731 0.40241
 H823 H 0.71636 0.10804 0.35386
 H824 H 0.75664 0.07544 0.36452
 H825 H 0.78367 0.12473 0.41306
 H826 H 0.78996 0.11640 0.36138
 C827 C 0.25347 0.09415 0.62705
 C828 C 0.27195 0.11624 0.62824
 C829 C 0.25006 0.13376 0.63381
 C830 C 0.23159 0.11197 0.63293
 C831 C 0.24967 0.09926 0.59929
 C832 C 0.22779 0.11678 0.60486
 C833 C 0.26815 0.12104 0.60016
 C834 C 0.24627 0.13886 0.60604
 C835 C 0.25018 0.15297 0.65303
 C836 C 0.25020 0.16878 0.66884
 C837 C 0.24938 0.08006 0.58007
 C838 C 0.24911 0.06427 0.56424
 H839 H 0.25644 0.07554 0.63545
 H840 H 0.29011 0.11624 0.63807
 H841 H 0.21656 0.10845 0.64662
 H842 H 0.20964 0.11677 0.59502
 H843 H 0.28318 0.12454 0.58646
 H844 H 0.24331 0.15746 0.59762
   
