data_POSCAR
  _audit_creation_date              2014-09-24
  _audit_creation_method            'ToBaCCo'
  _symmetry_space_group_name_H-M    'P1'
  _symmetry_Int_Tables_number       1
  _symmetry_cell_setting            triclinic
  loop_
  _symmetry_equiv_pos_as_xyz
 x,y,z
_cell_length_a 39.0321
_cell_length_b 38.6143
_cell_length_c 38.4747
_cell_angle_alpha 89.950500
_cell_angle_beta 90.014200
_cell_angle_gamma 89.943900
loop_
  _atom_site_label
  _atom_site_type_symbol
  _atom_site_fract_x
  _atom_site_fract_y
  _atom_site_fract_z
N1 N 0.18660 1.25717 0.16130
 N2 N 0.16248 1.25702 0.18520
 C3 C 0.14033 1.28306 0.17875
 C4 C 0.15144 1.30024 0.14944
 C5 C 0.18070 1.28328 0.13885
 H6 H 0.11746 1.28858 0.19362
 H7 H 0.19599 1.28891 0.11609
 Cu8 Cu 0.16167 1.22161 0.22116
 Cu9 Cu 0.22288 1.22248 0.15997
 Cu10 Cu 0.22154 1.15928 0.22423
 N11 N 0.16097 1.18622 0.25717
 N12 N 0.18458 1.16189 0.25818
 C13 C 0.17769 1.14003 0.28455
 C14 C 0.14832 1.15145 0.30077
 C15 C 0.13817 1.18066 0.28288
 H16 H 0.19239 1.11710 0.29085
 H17 H 0.11551 1.19607 0.28771
 N18 N 0.25679 1.16114 0.18758
 N19 N 0.25730 1.18520 0.16313
 C20 C 0.28359 1.17876 0.14137
 C21 C 0.30024 1.14944 0.15281
 C22 C 0.28274 1.13878 0.18198
 H23 H 0.28970 1.19371 0.11842
 H24 H 0.28806 1.11597 0.19740
 H25 H 0.19550 1.18348 0.18416
 H26 H 0.22268 1.21144 0.21248
 N27 N 0.81539 0.74238 0.16217
 N28 N 0.83928 0.74319 0.18628
 C29 C 0.86193 0.71750 0.18032
 C30 C 0.85143 0.69983 0.15109
 C31 C 0.82197 0.71618 0.14009
 H32 H 0.88473 0.71248 0.19548
 H33 H 0.80697 0.71001 0.11728
 Cu34 Cu 0.83909 0.77887 0.22191
 Cu35 Cu 0.77849 0.77640 0.16013
 Cu36 Cu 0.77813 0.84014 0.22378
 N37 N 0.83889 0.81455 0.25753
 N38 N 0.81485 0.83846 0.25811
 C39 C 0.82115 0.86065 0.28433
 C40 C 0.85059 0.84986 0.30091
 C41 C 0.86139 0.82072 0.28338
 H42 H 0.80598 0.88333 0.29030
 H43 H 0.88427 0.80575 0.28857
 N44 N 0.74325 0.83734 0.18680
 N45 N 0.74340 0.81309 0.16258
 C46 C 0.71725 0.81892 0.14045
 C47 C 0.70000 0.84804 0.15142
 C48 C 0.71700 0.85921 0.18070
 H49 H 0.71165 0.80371 0.11756
 H50 H 0.71116 0.88206 0.19581
 H51 H 0.80494 0.81609 0.18420
 H52 H 0.77799 0.78786 0.21252
 N53 N 0.81251 1.25749 -0.16183
 N54 N 0.83525 1.25785 -0.18706
 C55 C 0.85776 1.28366 -0.18127
 C56 C 0.84837 1.30020 -0.15100
 C57 C 0.81969 1.28306 -0.13921
 H58 H 0.87980 1.28946 -0.19729
 H59 H 0.80568 1.28824 -0.11554
 Cu60 Cu 0.83463 1.22354 -0.22407
 Cu61 Cu 0.77644 1.22293 -0.15921
 Cu62 Cu 0.77591 1.15945 -0.22264
 N63 N 0.83465 1.18652 -0.25836
 N64 N 0.81171 1.16158 -0.25768
 C65 C 0.81851 1.13884 -0.28330
 C66 C 0.84712 1.15032 -0.30079
 C67 C 0.85692 1.18046 -0.28443
 H68 H 0.80427 1.11532 -0.28822
 H69 H 0.87905 1.19619 -0.29048
 N70 N 0.74173 1.16162 -0.18510
 N71 N 0.74192 1.18585 -0.16090
 C72 C 0.71616 1.17975 -0.13840
 C73 C 0.69912 1.15045 -0.14914
 C74 C 0.71584 1.13946 -0.17865
 H75 H 0.71061 1.19498 -0.11551
 H76 H 0.70997 1.11664 -0.19379
 H77 H 0.80398 1.18484 -0.18476
 H78 H 0.77437 1.21186 -0.21173
 N79 N 0.18686 0.74299 -0.16365
 N80 N 0.16399 0.74279 -0.18876
 C81 C 0.14158 0.71687 -0.18305
 C82 C 0.15116 0.70010 -0.15294
 C83 C 0.17984 0.71722 -0.14115
 H84 H 0.11951 0.71113 -0.19902
 H85 H 0.19398 0.71187 -0.11756
 Cu86 Cu 0.16433 0.77734 -0.22562
 Cu87 Cu 0.22296 0.77751 -0.16111
 Cu88 Cu 0.22292 0.84153 -0.22412
 N89 N 0.16398 0.81471 -0.25958
 N90 N 0.18683 0.83973 -0.25885
 C91 C 0.17983 0.86266 -0.28428
 C92 C 0.15118 0.85121 -0.30172
 C93 C 0.14158 0.82089 -0.28552
 H94 H 0.19396 0.88625 -0.28917
 H95 H 0.11953 0.80507 -0.29161
 N96 N 0.25745 0.83903 -0.18691
 N97 N 0.25749 0.81460 -0.16287
 C98 C 0.28347 0.82051 -0.14057
 C99 C 0.30042 0.84990 -0.15130
 C100 C 0.28340 0.86113 -0.18056
 H101 H 0.28922 0.80512 -0.11781
 H102 H 0.28907 0.88411 -0.19557
 H103 H 0.19510 0.81573 -0.18622
 H104 H 0.22464 0.78902 -0.21354
 C105 C 0.55200 1.04717 -0.00871
 H106 H 0.55257 1.04688 0.01940
 C107 C 0.57564 1.06714 -0.02713
 H108 H 0.59443 1.08240 -0.01320
 C109 C 0.52759 1.02671 -0.06130
 H110 H 0.50935 1.01034 -0.07451
 C111 C 0.55081 1.04631 -0.08073
 H112 H 0.55019 1.04520 -0.10886
 N113 N 0.52857 1.02756 -0.02593
 C114 C 0.44744 1.00907 0.04968
 H115 H 0.44684 0.98106 0.04938
 C116 C 0.42387 1.02744 0.06980
 H117 H 0.40510 1.01358 0.08518
 C118 C 0.47183 1.06145 0.02905
 H119 H 0.49002 1.07459 0.01253
 C120 C 0.44867 1.08083 0.04879
 H121 H 0.44931 1.10885 0.04766
 Zn122 Zn 0.49972 0.99908 0.00132
 N123 N 0.47084 1.02621 0.02992
 C124 C 0.52775 0.97150 0.06391
 N125 N 0.52867 0.97060 0.02855
 C126 C 0.55212 0.95098 0.01132
 C127 C 0.57583 0.93104 0.02974
 C128 C 0.55105 0.95194 0.08335
 C129 C 0.44741 0.98911 -0.04700
 C130 C 0.42386 0.97075 -0.06712
 C131 C 0.44877 0.91735 -0.04613
 C132 C 0.47191 0.93671 -0.02640
 N133 N 0.47086 0.97195 -0.02726
 H134 H 0.50951 0.98791 0.07712
 H135 H 0.55266 0.95125 -0.01679
 H136 H 0.59463 0.91576 0.01581
 H137 H 0.55047 0.95309 0.11147
 H138 H 0.44679 1.01712 -0.04673
 H139 H 0.40505 0.98463 -0.08249
 H140 H 0.44945 0.88932 -0.04502
 H141 H 0.49017 0.92355 -0.00993
 C142 C 0.42439 1.06363 0.06921
 C143 C 0.57514 1.06656 -0.06346
 C144 C 0.42445 0.93456 -0.06655
 C145 C 0.57539 0.93167 0.06607
 C146 C -0.00845 0.55234 1.04743
 H147 H 0.01926 0.55296 1.04720
 C148 C -0.02669 0.57617 1.06748
 H149 H -0.01303 0.59518 1.08283
 C150 C -0.06020 0.52759 1.02678
 H151 H -0.07316 0.50913 1.01032
 C152 C -0.07944 0.55100 1.04644
 H153 H -0.10716 0.55032 1.04527
 N154 N -0.02534 0.52864 1.02769
 C155 C 0.04926 0.44660 1.00921
 H156 H 0.04901 0.44603 0.98110
 C157 C 0.06908 0.42273 1.02766
 H158 H 0.08426 0.40376 1.01377
 C159 C 0.02888 0.47123 1.06177
 H160 H 0.01261 0.48964 1.07495
 C161 C 0.04833 0.44778 1.08123
 H162 H 0.04720 0.44839 1.10936
 Zn163 Zn 0.00156 0.49946 0.99914
 N164 N 0.02978 0.47027 1.02640
 C165 C 0.06318 0.52771 0.97139
 N166 N 0.02832 0.52870 0.97053
 C167 C 0.01130 0.55243 0.95085
 C168 C 0.02941 0.57634 0.93079
 C169 C 0.08229 0.55120 0.95170
 C170 C -0.04588 0.44646 0.98917
 C171 C -0.06570 0.42264 0.97076
 C172 C -0.04526 0.44792 0.91715
 C173 C -0.02580 0.47131 0.93658
 N174 N -0.02656 0.47023 0.97194
 H175 H 0.07623 0.50928 0.98785
 H176 H -0.01641 0.55303 0.95120
 H177 H 0.01565 0.59535 0.91546
 H178 H 0.11002 0.55055 0.95279
 H179 H -0.04550 0.44580 1.01728
 H180 H -0.08080 0.40364 0.98469
 H181 H -0.04430 0.44869 0.88902
 H182 H -0.00964 0.48979 0.92336
 C183 C 0.06849 0.42325 1.06399
 C184 C -0.06250 0.57558 1.06686
 C185 C -0.06528 0.42331 0.93443
 C186 C 0.06523 0.57582 0.93136
 C187 C 1.04651 -0.00885 0.55346
 H188 H 1.04618 0.01915 0.55415
 C189 C 1.06642 -0.02729 0.57729
 H190 H 1.08162 -0.01349 0.59633
 C191 C 1.02625 -0.06117 0.52857
 H192 H 1.00998 -0.07426 0.51008
 C193 C 1.04579 -0.08061 0.55198
 H194 H 1.04478 -0.10863 0.55122
 N195 N 1.02706 -0.02593 0.52966
 C196 C 1.00876 0.04949 0.44732
 H197 H 0.98105 0.04926 0.44670
 C198 C 1.02697 0.06950 0.42340
 H199 H 1.01328 0.08484 0.40432
 C200 C 1.06055 0.02885 0.47215
 H201 H 1.07354 0.01239 0.49066
 C202 C 1.07975 0.04847 0.44866
 H203 H 1.10748 0.04730 0.44935
 Zn204 Zn 0.99886 0.00126 0.50039
 N205 N 1.02569 0.02978 0.47111
 C206 C 0.97144 0.06356 0.52876
 N207 N 0.97067 0.02832 0.52975
 C208 C 0.95131 0.01111 0.55355
 C209 C 0.93147 0.02941 0.57750
 C210 C 0.95196 0.08287 0.55229
 C211 C 0.98903 -0.04671 0.44719
 C212 C 0.97088 -0.06674 0.42327
 C213 C 0.91804 -0.04607 0.44864
 C214 C 0.93719 -0.02641 0.47213
 N215 N 0.97205 -0.02716 0.47104
 H216 H 0.98763 0.07676 0.51026
 H217 H 0.95169 -0.01690 0.55415
 H218 H 0.91634 0.01550 0.59653
 H219 H 0.95294 0.11089 0.55160
 H220 H 1.01674 -0.04635 0.44654
 H221 H 0.98461 -0.08196 0.40417
 H222 H 0.89031 -0.04506 0.44939
 H223 H 0.92416 -0.01010 0.49071
 C224 C 1.06279 0.06886 0.42399
 C225 C 1.06594 -0.06348 0.57661
 C226 C 0.93507 -0.06629 0.42392
 C227 C 0.93190 0.06561 0.57693
 C228 C 0.13515 0.32650 1.13264
 C229 C 0.12042 0.34941 1.11745
 C230 C 0.10278 0.37572 1.09928
 C231 C 0.08737 0.39769 1.08340
 C232 C -0.13082 0.67212 1.13390
 C233 C -0.11563 0.64928 1.11913
 C234 C -0.09749 0.62305 1.10141
 C235 C -0.08170 0.60112 1.08590
 C236 C -0.13361 0.32762 0.86631
 C237 C -0.11831 0.35025 0.88126
 C238 C -0.10015 0.37624 0.89926
 C239 C -0.08441 0.39798 0.91506
 C240 C 0.13332 0.67240 0.86417
 C241 C 0.11811 0.64956 0.87891
 C242 C 0.10001 0.62332 0.89666
 C243 C 0.08430 0.60139 0.91224
 C244 C 1.13124 0.13543 0.32703
 C245 C 1.11593 0.12086 0.34997
 C246 C 1.09774 0.10331 0.37633
 C247 C 1.08196 0.08788 0.39836
 C248 C 1.13424 -0.13206 0.67236
 C249 C 1.11901 -0.11689 0.64974
 C250 C 1.10087 -0.09872 0.62375
 C251 C 1.08512 -0.08285 0.60199
 C252 C 0.86723 -0.13367 0.32716
 C253 C 0.88228 -0.11878 0.35005
 C254 C 0.90028 -0.10096 0.37634
 C255 C 0.91597 -0.08538 0.39832
 C256 C 0.86395 0.13370 0.67317
 C257 C 0.87909 0.11866 0.65043
 C258 C 0.89712 0.10063 0.62428
 C259 C 0.91280 0.08487 0.60242
 C260 C 0.32808 1.13184 0.13595
 C261 C 0.35098 1.11676 0.12137
 C262 C 0.37720 1.09871 0.10376
 C263 C 0.39904 1.08293 0.08827
 C264 C 0.67142 1.13331 -0.13162
 C265 C 0.64858 1.11858 -0.11659
 C266 C 0.62239 1.10094 -0.09857
 C267 C 0.60053 1.08549 -0.08279
 C268 C 0.32823 0.86699 -0.13390
 C269 C 0.35112 0.88177 -0.11903
 C270 C 0.37734 0.89960 -0.10124
 C271 C 0.39916 0.91528 -0.08566
 C272 C 0.67210 0.86510 0.13406
 C273 C 0.64913 0.87975 0.11911
 C274 C 0.62280 0.89734 0.10116
 C275 C 0.60086 0.91276 0.08541
   
