data_POSCAR
  _audit_creation_date              2014-09-24
  _audit_creation_method            'ToBaCCo'
  _symmetry_space_group_name_H-M    'P1'
  _symmetry_Int_Tables_number       1
  _symmetry_cell_setting            triclinic
  loop_
  _symmetry_equiv_pos_as_xyz
 x,y,z
_cell_length_a 27.8701
_cell_length_b 27.7830
_cell_length_c 48.3550
_cell_angle_alpha 89.945500
_cell_angle_beta 91.859300
_cell_angle_gamma 90.844800
loop_
  _atom_site_label
  _atom_site_type_symbol
  _atom_site_fract_x
  _atom_site_fract_y
  _atom_site_fract_z
C1 C -0.00455 0.60065 1.02532
 C2 C -0.00330 0.62529 1.00015
 C3 C -0.00106 0.60066 0.97507
 C4 C -0.00018 0.54977 0.97486
 C5 C -0.00143 0.52427 1.00031
 C6 C -0.00354 0.54976 1.02568
 C7 C -0.00449 0.52368 1.05061
 C8 C -0.00338 0.47361 1.05069
 C9 C -0.00140 0.44762 1.02582
 C10 C -0.00044 0.47318 1.00038
 C11 C 0.00201 0.52371 0.95000
 C12 C 0.00280 0.47363 0.95008
 C13 C 0.00160 0.44770 0.97502
 C14 C 0.00245 0.39692 0.97534
 C15 C 0.00153 0.37221 1.00044
 C16 C -0.00028 0.39673 1.02557
 H17 H -0.00603 0.54184 1.07033
 H18 H -0.00410 0.45537 1.07046
 H19 H 0.00313 0.54190 0.93024
 H20 H 0.00447 0.45534 0.93039
 H21 H -0.00394 0.66441 1.00009
 H22 H 0.00233 0.33311 1.00036
 C23 C 0.60053 0.00593 0.47507
 C24 C 0.62672 0.00636 0.50018
 C25 C 0.60367 0.00717 0.52541
 C26 C 0.55291 0.00723 0.52576
 C27 C 0.52597 0.00720 0.50034
 C28 C 0.54986 0.00674 0.47487
 C29 C 0.52248 0.00702 0.44992
 C30 C 0.47253 0.00771 0.44996
 C31 C 0.44811 0.00786 0.47496
 C32 C 0.47503 0.00747 0.50038
 C33 C 0.52837 0.00725 0.55076
 C34 C 0.47840 0.00709 0.55078
 C35 C 0.45107 0.00719 0.52582
 C36 C 0.40037 0.00692 0.52558
 C37 C 0.37429 0.00769 0.50044
 C38 C 0.39745 0.00831 0.47527
 H39 H 0.53951 0.00681 0.43011
 H40 H 0.45316 0.00794 0.43019
 H41 H 0.54767 0.00722 0.57055
 H42 H 0.46134 0.00699 0.57058
 H43 H 0.66568 0.00592 0.50002
 H44 H 0.33533 0.00765 0.50047
 C45 C 0.08475 0.00295 0.26272
 H46 H 0.08755 0.00250 0.24046
 C47 C 0.12628 0.00555 0.27970
 H48 H 0.16124 0.00692 0.27056
 C49 C 0.03585 0.00223 0.30197
 H50 H 0.00066 0.00172 0.31064
 C51 C 0.07637 0.00487 0.31965
 H52 H 0.07217 0.00582 0.34184
 N53 N 0.04068 0.00058 0.27406
 C54 C -0.05473 -0.06954 0.21253
 H55 H -0.08426 -0.04468 0.21232
 C56 C -0.05632 -0.10929 0.19488
 H57 H -0.08710 -0.11509 0.18096
 C58 C 0.02217 -0.09162 0.23032
 H59 H 0.05267 -0.08467 0.24414
 C60 C 0.02202 -0.13185 0.21298
 H61 H 0.05263 -0.15546 0.21330
 Zn62 Zn -0.01452 -0.00303 0.25014
 N63 N -0.01534 -0.06073 0.22923
 C64 C -0.01149 0.04360 0.19817
 N65 N -0.01254 0.05077 0.22599
 C66 C -0.01020 0.09595 0.23691
 C67 C -0.00810 0.13620 0.21955
 C68 C -0.00938 0.08272 0.18015
 C69 C -0.07836 -0.04181 0.28768
 C70 C -0.11763 -0.04335 0.30486
 C71 C -0.14195 0.03398 0.28677
 C72 C -0.10217 0.03409 0.26988
 N73 N -0.07077 -0.00301 0.27110
 H74 H -0.01184 0.00760 0.18982
 H75 H -0.01006 0.10064 0.25912
 H76 H -0.00657 0.17206 0.22834
 H77 H -0.00874 0.07661 0.15803
 H78 H -0.05315 -0.07106 0.28798
 H79 H -0.12270 -0.07381 0.31853
 H80 H -0.16618 0.06413 0.28621
 H81 H -0.09617 0.06408 0.25615
 C82 C -0.01727 -0.14029 0.19482
 C83 C 0.12195 0.00627 0.30843
 C84 C -0.14936 -0.00485 0.30464
 C85 C -0.00787 0.12939 0.19090
 C86 C 0.01122 0.09523 0.76280
 H87 H 0.01096 0.10003 0.74059
 C88 C 0.01042 0.13540 0.78021
 H89 H 0.00976 0.17130 0.77146
 C90 C 0.01167 0.04272 0.80150
 H91 H 0.01124 0.00668 0.80982
 C92 C 0.01087 0.08174 0.81957
 H93 H 0.01046 0.07552 0.84169
 N94 N 0.01257 0.05001 0.77368
 C95 C 0.07632 -0.04180 0.71191
 H96 H 0.05045 -0.07123 0.71154
 C97 C 0.11567 -0.04301 0.69480
 H98 H 0.12015 -0.07338 0.68114
 C99 C 0.10177 0.03417 0.72982
 H100 H 0.09639 0.06405 0.74357
 C101 C 0.14166 0.03440 0.71302
 H102 H 0.16660 0.06469 0.71367
 Zn103 Zn 0.01328 -0.00369 0.74949
 N104 N 0.06953 -0.00314 0.72851
 C105 C -0.03701 0.00138 0.69768
 N106 N -0.04187 -0.00045 0.72559
 C107 C -0.08589 0.00152 0.73693
 C108 C -0.12737 0.00389 0.71994
 C109 C -0.07746 0.00380 0.68000
 C110 C 0.05233 -0.06997 0.78694
 C111 C 0.05324 -0.10973 0.80460
 C112 C -0.02578 -0.13288 0.78680
 C113 C -0.02524 -0.09261 0.76945
 N114 N 0.01295 -0.06144 0.77038
 H115 H -0.00182 0.00118 0.68902
 H116 H -0.08871 0.00095 0.75919
 H117 H -0.16231 0.00495 0.72909
 H118 H -0.07324 0.00489 0.65781
 H119 H 0.08239 -0.04488 0.78705
 H120 H 0.08404 -0.11530 0.81842
 H121 H -0.05690 -0.15672 0.78661
 H122 H -0.05574 -0.08587 0.75573
 C123 C 0.14830 -0.00431 0.69514
 C124 C 0.01047 0.12846 0.80887
 C125 C 0.01352 -0.14103 0.80483
 C126 C -0.12302 0.00479 0.69121
 C127 C -0.01353 -0.24400 0.13490
 C128 C -0.01104 -0.22786 0.10718
 C129 C -0.00926 -0.26182 0.08529
 C130 C -0.01006 -0.31177 0.09123
 C131 C -0.01262 -0.32791 0.11893
 C132 C -0.01434 -0.29390 0.14084
 C133 C -0.01682 -0.31087 0.16836
 C134 C -0.01760 -0.36004 0.17409
 C135 C -0.01594 -0.39327 0.15267
 C136 C -0.01348 -0.37757 0.12537
 C137 C -0.00669 -0.24474 0.05775
 C138 C -0.00592 -0.19560 0.05201
 C139 C -0.00771 -0.16241 0.07340
 C140 C -0.01024 -0.17812 0.10070
 C141 C -0.00819 -0.34605 0.06864
 C142 C -0.00653 -0.37228 0.04884
 C143 C -0.01509 -0.20898 0.15712
 C144 C -0.01621 -0.17848 0.17480
 H145 H -0.01818 -0.28636 0.18569
 H146 H -0.01950 -0.37243 0.19527
 H147 H -0.01657 -0.43143 0.15723
 H148 H -0.01228 -0.40470 0.10941
 H149 H -0.00524 -0.26907 0.04036
 H150 H -0.00394 -0.18323 0.03083
 H151 H -0.00712 -0.12425 0.06884
 H152 H -0.01156 -0.15085 0.11660
 C153 C -0.00185 0.23792 0.13384
 C154 C -0.01030 0.28683 0.13995
 C155 C -0.00955 0.32186 0.11848
 C156 C -0.00030 0.30773 0.09107
 C157 C 0.00870 0.25886 0.08503
 C158 C 0.00791 0.22388 0.10646
 C159 C 0.01684 0.17522 0.09985
 C160 C 0.02625 0.16154 0.07288
 C161 C 0.02700 0.19574 0.05191
 C162 C 0.01838 0.24386 0.05779
 C163 C -0.01830 0.37048 0.12504
 C164 C -0.02746 0.38418 0.15207
 C165 C -0.02816 0.34995 0.17305
 C166 C -0.01972 0.30176 0.16718
 C167 C -0.00060 0.34282 0.06880
 C168 C -0.00060 0.36950 0.04912
 C169 C -0.00396 0.20158 0.15539
 C170 C -0.00574 0.16963 0.17223
 H171 H 0.01670 0.14722 0.11542
 H172 H 0.03298 0.12418 0.06822
 H173 H 0.03432 0.18495 0.03098
 H174 H 0.01944 0.26904 0.04074
 H175 H -0.01814 0.39833 0.10940
 H176 H -0.03405 0.42156 0.15674
 H177 H -0.03528 0.36079 0.19400
 H178 H -0.02060 0.27641 0.18417
 C179 C 0.25486 -0.00293 0.63883
 C180 C 0.28332 0.03890 0.63461
 C181 C 0.31596 0.04042 0.61262
 C182 C 0.31987 0.00012 0.59498
 C183 C 0.29276 -0.04237 0.59987
 C184 C 0.26016 -0.04390 0.62186
 C185 C 0.23310 -0.08662 0.62619
 C186 C 0.23816 -0.12670 0.60929
 C187 C 0.27004 -0.12521 0.58778
 C188 C 0.29710 -0.08362 0.58302
 C189 C 0.34376 0.08274 0.60864
 C190 C 0.33946 0.12246 0.62593
 C191 C 0.30753 0.12099 0.64742
 C192 C 0.27965 0.07979 0.65179
 C193 C 0.34992 0.00301 0.57105
 C194 C 0.37359 0.00506 0.55064
 C195 C 0.21847 -0.00313 0.65966
 C196 C 0.18709 -0.00353 0.67624
 H197 H 0.20791 -0.08958 0.64269
 H198 H 0.21723 -0.15910 0.61291
 H199 H 0.27386 -0.15644 0.57471
 H200 H 0.32151 -0.08425 0.56607
 H201 H 0.36917 0.08552 0.59224
 H202 H 0.36105 0.15453 0.62263
 H203 H 0.30434 0.15193 0.66079
 H204 H 0.25539 0.08029 0.66882
 C205 C -0.23853 0.00939 0.63682
 C206 C -0.26580 -0.03292 0.63078
 C207 C -0.30140 -0.03274 0.60904
 C208 C -0.30946 0.00973 0.59349
 C209 C -0.28367 0.05259 0.60034
 C210 C -0.24810 0.05243 0.62207
 C211 C -0.22241 0.09558 0.62834
 C212 C -0.23166 0.13773 0.61359
 C213 C -0.26645 0.13789 0.59234
 C214 C -0.29224 0.09591 0.58568
 C215 C -0.32788 -0.07558 0.60319
 C216 C -0.31946 -0.11742 0.61840
 C217 C -0.28464 -0.11761 0.63964
 C218 C -0.25798 -0.07595 0.64584
 C219 C -0.34224 0.00872 0.56954
 C220 C -0.36821 0.00792 0.54910
 C221 C -0.19888 0.00799 0.65703
 C222 C -0.16485 0.00664 0.67305
 H223 H -0.19509 0.09727 0.64475
 H224 H -0.21173 0.17044 0.61869
 H225 H -0.27351 0.17073 0.58094
 H226 H -0.31904 0.09786 0.56903
 H227 H -0.35543 -0.07714 0.58691
 H228 H -0.34010 -0.14987 0.61367
 H229 H -0.27825 -0.15020 0.65139
 H230 H -0.23138 -0.07780 0.66260
 C231 C 0.00905 -0.24464 0.86494
 C232 C 0.00094 -0.29408 0.85911
 C233 C -0.00122 -0.32789 0.88116
 C234 C 0.00484 -0.31204 0.90889
 C235 C 0.01309 -0.26259 0.91471
 C236 C 0.01523 -0.22882 0.89269
 C237 C 0.02348 -0.17957 0.89906
 C238 C 0.02936 -0.16414 0.92638
 C239 C 0.02721 -0.19715 0.94792
 C240 C 0.01921 -0.24582 0.94229
 C241 C -0.00957 -0.37706 0.87484
 C242 C -0.01549 -0.39247 0.84751
 C243 C -0.01331 -0.35944 0.82595
 C244 C -0.00521 -0.31074 0.83157
 C245 C 0.00243 -0.34611 0.93162
 C246 C 0.00068 -0.37226 0.95149
 C247 C 0.01061 -0.20972 0.84261
 C248 C 0.01193 -0.17924 0.82487
 H249 H 0.02548 -0.15245 0.88304
 H250 H 0.03561 -0.12635 0.93086
 H251 H 0.03177 -0.18500 0.96912
 H252 H 0.01788 -0.27003 0.95979
 H253 H -0.01165 -0.40402 0.89091
 H254 H -0.02183 -0.43025 0.84304
 H255 H -0.01794 -0.37160 0.80476
 H256 H -0.00382 -0.28637 0.81413
 C257 C 0.00972 0.23664 0.86616
 C258 C 0.01543 0.22226 0.89417
 C259 C 0.01450 0.25719 0.91558
 C260 C 0.00786 0.30634 0.90887
 C261 C 0.00253 0.32079 0.88087
 C262 C 0.00348 0.28581 0.85943
 C263 C -0.00199 0.30106 0.83161
 C264 C -0.00822 0.34951 0.82512
 C265 C -0.00916 0.38369 0.84608
 C266 C -0.00388 0.36969 0.87368
 C267 C 0.02017 0.24186 0.94344
 C268 C 0.02655 0.19347 0.94995
 C269 C 0.02745 0.15932 0.92901
 C270 C 0.02198 0.17332 0.90143
 C271 C 0.00594 0.34144 0.93100
 C272 C 0.00434 0.36821 0.95054
 C273 C 0.00985 0.20045 0.84451
 C274 C 0.01004 0.16861 0.82760
 H275 H -0.00148 0.27575 0.81462
 H276 H -0.01234 0.36059 0.80372
 H277 H -0.01401 0.42127 0.84093
 H278 H -0.00484 0.39752 0.88928
 H279 H 0.01978 0.26699 0.96050
 H280 H 0.03082 0.18244 0.97135
 H281 H 0.03242 0.12176 0.93416
 H282 H 0.02299 0.14534 0.88592
 C283 C -0.25502 -0.00430 0.36148
 C284 C -0.28459 0.03618 0.36469
 C285 C -0.31694 0.03764 0.38681
 C286 C -0.31944 -0.00137 0.40559
 C287 C -0.29116 -0.04262 0.40176
 C288 C -0.25886 -0.04409 0.37964
 C289 C -0.23064 -0.08554 0.37638
 C290 C -0.23427 -0.12444 0.39444
 C291 C -0.26584 -0.12299 0.41608
 C292 C -0.29403 -0.08264 0.41981
 C293 C -0.34588 0.07862 0.38974
 C294 C -0.34298 0.11709 0.37132
 C295 C -0.31133 0.11569 0.34971
 C296 C -0.28234 0.07580 0.34634
 C297 C -0.34931 0.00168 0.42955
 C298 C -0.37285 0.00388 0.44998
 C299 C -0.21901 -0.00420 0.34044
 C300 C -0.18790 -0.00435 0.32370
 H301 H -0.20564 -0.08842 0.35982
 H302 H -0.21246 -0.15587 0.39163
 H303 H -0.26854 -0.15331 0.43005
 H304 H -0.31813 -0.08328 0.43690
 H305 H -0.37112 0.08128 0.40619
 H306 H -0.36543 0.14815 0.37383
 H307 H -0.30922 0.14567 0.33546
 H308 H -0.25835 0.07629 0.32918
 C309 C 0.23764 0.01141 0.36278
 C310 C 0.26512 -0.03027 0.36801
 C311 C 0.30083 -0.03013 0.38968
 C312 C 0.30880 0.01169 0.40599
 C313 C 0.28279 0.05402 0.39997
 C314 C 0.24710 0.05389 0.37830
 C315 C 0.22118 0.09648 0.37286
 C316 C 0.23032 0.13806 0.38837
 C317 C 0.26522 0.13819 0.40956
 C318 C 0.29124 0.09675 0.41540
 C319 C 0.32754 -0.07235 0.39471
 C320 C 0.31922 -0.11357 0.37876
 C321 C 0.28427 -0.11373 0.35758
 C322 C 0.25740 -0.07267 0.35218
 C323 C 0.34172 0.01043 0.42986
 C324 C 0.36778 0.00940 0.45024
 C325 C 0.19791 0.00983 0.34259
 C326 C 0.16383 0.00833 0.32659
 H327 H 0.19376 0.09817 0.35653
 H328 H 0.21021 0.17034 0.38390
 H329 H 0.27220 0.17058 0.42154
 H330 H 0.31812 0.09866 0.43204
 H331 H 0.35519 -0.07390 0.41091
 H332 H 0.34001 -0.14555 0.38285
 H333 H 0.27796 -0.14583 0.34524
 H334 H 0.23071 -0.07447 0.33544
   
