data_POSCAR
  _audit_creation_date              2014-09-24
  _audit_creation_method            'ToBaCCo'
  _symmetry_space_group_name_H-M    'P1'
  _symmetry_Int_Tables_number       1
  _symmetry_cell_setting            triclinic
  loop_
  _symmetry_equiv_pos_as_xyz
 x,y,z
_cell_length_a 22.9122
_cell_length_b 23.1112
_cell_length_c 23.0457
_cell_angle_alpha 91.002500
_cell_angle_beta 90.743600
_cell_angle_gamma 90.054900
loop_
  _atom_site_label
  _atom_site_type_symbol
  _atom_site_fract_x
  _atom_site_fract_y
  _atom_site_fract_z
Zn1 Zn 0.79017 0.71387 0.81689
 Zn2 Zn 0.81231 0.79218 0.72114
 Zn3 Zn 0.72292 0.71033 0.70563
 Zn4 Zn 0.70122 0.80534 0.78699
 O5 O 0.75643 0.75591 0.75975
 O6 O 0.86543 0.73439 0.83052
 O7 O 0.82694 0.75767 0.65276
 O8 O 0.75240 0.63957 0.70991
 O9 O 0.88057 0.79465 0.75861
 O10 O 0.79047 0.63649 0.79915
 O11 O 0.73579 0.73420 0.63257
 O12 O 0.62736 0.78192 0.76781
 O13 O 0.79130 0.86484 0.70748
 O14 O 0.64625 0.70314 0.71516
 O15 O 0.71165 0.87842 0.76036
 O16 O 0.70237 0.80615 0.86517
 O17 O 0.75568 0.72791 0.88478
 C18 C 0.89827 0.76883 0.80357
 C19 C 0.78769 0.74303 0.61625
 C20 C 0.77700 0.61210 0.75071
 C21 C 0.61040 0.73627 0.74081
 C22 C 0.75021 0.89697 0.72579
 C23 C 0.72345 0.76990 0.90086
 Zn24 Zn 0.18553 0.73638 0.71416
 Zn25 Zn 0.22948 0.81564 0.80484
 Zn26 Zn 0.28238 0.70271 0.79129
 Zn27 Zn 0.29761 0.78923 0.69938
 O28 O 0.24912 0.76087 0.75241
 O29 O 0.12062 0.75537 0.75096
 O30 O 0.27283 0.80770 0.86927
 O31 O 0.25376 0.63338 0.76914
 O32 O 0.15331 0.80953 0.82494
 O33 O 0.18460 0.65875 0.70613
 O34 O 0.27343 0.71190 0.86880
 O35 O 0.37231 0.76745 0.71179
 O36 O 0.24208 0.88778 0.77914
 O37 O 0.35968 0.70025 0.77829
 O38 O 0.29581 0.86683 0.70191
 O39 O 0.27546 0.76741 0.62600
 O40 O 0.18086 0.76686 0.64357
 C41 C 0.11183 0.78382 0.79762
 C42 C 0.28062 0.76024 0.89513
 C43 C 0.21409 0.62019 0.73214
 C44 C 0.39272 0.72933 0.74567
 C45 C 0.27116 0.90343 0.73545
 C46 C 0.22266 0.76923 0.60815
 Zn47 Zn 0.69034 0.20720 0.77010
 Zn48 Zn 0.80556 0.21731 0.71020
 Zn49 Zn 0.71991 0.30100 0.69484
 Zn50 Zn 0.77927 0.29709 0.80821
 O51 O 0.74899 0.25453 0.74811
 O52 O 0.70302 0.13259 0.74675
 O53 O 0.81884 0.24647 0.63973
 O54 O 0.64473 0.31525 0.70693
 O55 O 0.78684 0.14295 0.70024
 O56 O 0.61909 0.23106 0.74366
 O57 O 0.72860 0.27354 0.62126
 O58 O 0.77754 0.37474 0.79370
 O59 O 0.87367 0.22010 0.74794
 O60 O 0.75710 0.36838 0.69928
 O61 O 0.85476 0.27911 0.82227
 O62 O 0.74318 0.28141 0.87486
 O63 O 0.68334 0.20947 0.84790
 C64 C 0.74489 0.11159 0.71711
 C65 C 0.77945 0.26098 0.60374
 C66 C 0.60577 0.28034 0.72338
 C67 C 0.77340 0.39767 0.74380
 C68 C 0.88950 0.24664 0.79412
 C69 C 0.70581 0.24275 0.88679
 Zn70 Zn 0.29053 0.23214 0.69796
 Zn71 Zn 0.22162 0.21014 0.80573
 Zn72 Zn 0.28371 0.32310 0.78725
 Zn73 Zn 0.18042 0.28923 0.71591
 O74 O 0.24450 0.26355 0.75317
 O75 O 0.28938 0.15562 0.70210
 O76 O 0.25106 0.22699 0.87656
 O77 O 0.35892 0.32604 0.76655
 O78 O 0.24172 0.13671 0.78302
 O79 O 0.36603 0.25279 0.70407
 O80 O 0.28623 0.31586 0.86438
 O81 O 0.18149 0.36627 0.70793
 O82 O 0.14378 0.21074 0.81752
 O83 O 0.25322 0.39226 0.76860
 O84 O 0.11458 0.27303 0.75150
 O85 O 0.17234 0.25635 0.64597
 O86 O 0.26589 0.24943 0.62551
 C87 C 0.26889 0.11984 0.73774
 C88 C 0.27395 0.27353 0.89659
 C89 C 0.38918 0.29386 0.73346
 C90 C 0.21236 0.40516 0.73319
 C91 C 0.10373 0.23986 0.79314
 C92 C 0.21261 0.24888 0.60962
 Zn93 Zn 0.69500 0.71300 0.21797
 Zn94 Zn 0.80043 0.77484 0.20613
 Zn95 Zn 0.72924 0.78984 0.31404
 Zn96 Zn 0.79693 0.68221 0.29049
 O97 O 0.75611 0.74002 0.25885
 O98 O 0.68544 0.74989 0.15111
 O99 O 0.78901 0.85038 0.21163
 O100 O 0.65290 0.77842 0.32874
 O101 O 0.77915 0.75536 0.13217
 O102 O 0.62835 0.72058 0.25490
 O103 O 0.73753 0.86471 0.29203
 O104 O 0.79980 0.68921 0.36812
 O105 O 0.87745 0.76052 0.21408
 O106 O 0.76425 0.77791 0.38269
 O107 O 0.87153 0.68288 0.26888
 O108 O 0.76926 0.61223 0.26843
 O109 O 0.70245 0.63752 0.20279
 C110 C 0.72613 0.75738 0.11538
 C111 C 0.76158 0.88348 0.24639
 C112 C 0.61551 0.74775 0.30111
 C113 C 0.78819 0.73207 0.40146
 C114 C 0.90110 0.71788 0.23923
 C115 C 0.73203 0.59919 0.22888
 Zn116 Zn 0.32248 0.77796 0.21912
 Zn117 Zn 0.23075 0.70308 0.19589
 Zn118 Zn 0.28647 0.69729 0.31016
 Zn119 Zn 0.20725 0.79568 0.27692
 O120 O 0.26203 0.74466 0.25295
 O121 O 0.33395 0.75365 0.14621
 O122 O 0.26141 0.63352 0.19606
 O123 O 0.36405 0.70429 0.32420
 O124 O 0.24243 0.73258 0.12525
 O125 O 0.38890 0.76693 0.25698
 O126 O 0.27108 0.62128 0.29114
 O127 O 0.20327 0.79602 0.35464
 O128 O 0.15491 0.69374 0.20555
 O129 O 0.25440 0.71778 0.37839
 O130 O 0.13385 0.77541 0.25240
 O131 O 0.22443 0.86850 0.25417
 O132 O 0.31096 0.85312 0.21388
 C133 C 0.29333 0.74601 0.10907
 C134 C 0.26637 0.60077 0.23941
 C135 C 0.40192 0.73551 0.29976
 C136 C 0.22300 0.76119 0.39236
 C137 C 0.11790 0.72845 0.22702
 C138 C 0.26952 0.88656 0.22809
 Zn139 Zn 0.67558 0.27450 0.21163
 Zn140 Zn 0.76844 0.20227 0.18961
 Zn141 Zn 0.79112 0.29434 0.27310
 Zn142 Zn 0.71370 0.19451 0.30368
 O143 O 0.73705 0.24244 0.24697
 O144 O 0.66158 0.24638 0.13926
 O145 O 0.84457 0.19712 0.19768
 O146 O 0.77157 0.36686 0.25131
 O147 O 0.75344 0.23064 0.11861
 O148 O 0.68678 0.35018 0.20562
 O149 O 0.86465 0.27704 0.24850
 O150 O 0.74663 0.21405 0.37239
 O151 O 0.74241 0.13046 0.19044
 O152 O 0.79693 0.29317 0.35118
 O153 O 0.72923 0.11886 0.28490
 O154 O 0.63670 0.20143 0.31750
 O155 O 0.61036 0.26425 0.25028
 C156 C 0.70112 0.23838 0.10204
 C157 C 0.88105 0.23202 0.22052
 C158 C 0.72698 0.38450 0.22296
 C159 C 0.77808 0.25720 0.38781
 C160 C 0.73710 0.09794 0.23392
 C161 C 0.59854 0.23311 0.29332
 Zn162 Zn 0.19964 0.27935 0.20125
 Zn163 Zn 0.30298 0.21376 0.21367
 Zn164 Zn 0.27280 0.29079 0.31003
 Zn165 Zn 0.20098 0.18581 0.28434
 O166 O 0.24351 0.24251 0.25401
 O167 O 0.21864 0.25948 0.12729
 O168 O 0.37054 0.22039 0.25053
 O169 O 0.26586 0.36589 0.28936
 O170 O 0.31234 0.24987 0.14679
 O171 O 0.21388 0.35452 0.20760
 O172 O 0.34921 0.27800 0.32481
 O173 O 0.19693 0.19323 0.36149
 O174 O 0.29368 0.13836 0.19928
 O175 O 0.23894 0.27894 0.37809
 O176 O 0.22744 0.11532 0.26453
 O177 O 0.12702 0.18751 0.25978
 O178 O 0.12235 0.26745 0.20825
 C179 C 0.27137 0.25922 0.11089
 C180 C 0.38533 0.24718 0.29672
 C181 C 0.24238 0.38625 0.24360
 C182 C 0.21155 0.23477 0.39558
 C183 C 0.26402 0.10089 0.22587
 C184 C 0.09805 0.22395 0.23070
 N185 N 0.03816 0.77926 0.87329
 N186 N -0.01938 0.77304 0.87660
 C187 C -0.04070 0.77689 0.82193
 C188 C 0.00515 0.78544 0.78524
 N189 N 0.05349 0.78680 0.81872
 H190 H 0.00384 0.78724 0.73831
 N191 N 0.77847 0.03092 0.65889
 N192 N 0.78100 -0.02615 0.65999
 C193 C 0.74955 -0.04300 0.70572
 C194 C 0.72695 0.00605 0.73271
 N195 N 0.74643 0.05124 0.70201
 H196 H 0.70348 0.00889 0.77312
 N197 N 0.66349 0.79713 0.04024
 N198 N 0.66148 0.80220 -0.01693
 C199 C 0.70991 0.77639 -0.03746
 C200 C 0.74206 0.75571 0.00882
 N201 N 0.71152 0.76963 0.05641
 H202 H 0.78297 0.73233 0.00798
 N203 N 0.47412 0.66255 0.74521
 N204 N 0.53179 0.66280 0.74266
 C205 C 0.54870 0.71865 0.74123
 C206 C 0.49923 0.75299 0.74258
 N207 N 0.45373 0.71606 0.74496
 H208 H 0.49653 0.79974 0.74213
 N209 N 0.30702 0.04103 0.67948
 N210 N 0.30833 -0.01612 0.67707
 C211 C 0.27847 -0.03487 0.72305
 C212 C 0.25871 0.01299 0.75420
 N213 N 0.27767 0.05949 0.72530
 H214 H 0.23334 0.01392 0.79350
 N215 N 0.34968 0.78654 0.03151
 N216 N 0.34748 0.79191 -0.02554
 C217 C 0.30024 0.76203 -0.04442
 C218 C 0.27296 0.73851 0.00268
 N219 N 0.30532 0.75496 0.04923
 H220 H 0.23280 0.71383 0.00333
 N221 N 0.02770 0.23724 0.86644
 N222 N -0.03008 0.24113 0.86865
 C223 C -0.04960 0.24131 0.81315
 C224 C -0.00252 0.23764 0.77706
 N225 N 0.04478 0.23505 0.81176
 H226 H -0.00242 0.23904 0.73010
 N227 N 0.80444 0.47610 0.68427
 N228 N 0.80621 0.53320 0.68466
 C229 C 0.79146 0.55134 0.73834
 C230 C 0.78050 0.50298 0.77140
 N231 N 0.78898 0.45694 0.73559
 H232 H 0.76247 0.50159 0.81454
 N233 N 0.63465 0.21880 0.02084
 N234 N 0.63448 0.21837 -0.03669
 C235 C 0.68775 0.23646 -0.05278
 C236 C 0.72085 0.24763 -0.00335
 N237 N 0.68609 0.23599 0.04157
 H238 H 0.76573 0.26220 -0.00032
 N239 N 0.47209 0.35853 0.72652
 N240 N 0.52964 0.35640 0.72263
 C241 C 0.54475 0.29999 0.72219
 C242 C 0.49434 0.26730 0.72555
 N243 N 0.45013 0.30565 0.72809
 H244 H 0.49027 0.22071 0.72759
 N245 N 0.15988 0.48248 0.68445
 N246 N 0.15916 0.53978 0.68273
 C247 C 0.20108 0.55887 0.71998
 C248 C 0.22756 0.51149 0.74470
 N249 N 0.20055 0.46472 0.72138
 H250 H 0.26265 0.51105 0.77661
 N251 N 0.33183 0.30238 0.03782
 N252 N 0.33379 0.30775 -0.01921
 C253 C 0.28732 0.27876 -0.04136
 C254 C 0.25624 0.25590 0.00376
 N255 N 0.28555 0.27180 0.05234
 H256 H 0.21661 0.23035 0.00158
 N257 N 0.04161 0.65650 0.22118
 N258 N -0.01567 0.65179 0.22527
 C259 C -0.03666 0.70584 0.23208
 C260 C 0.00976 0.74426 0.23247
 N261 N 0.05783 0.71139 0.22560
 H262 H 0.00886 0.79081 0.23845
 N263 N 0.75660 0.01599 0.17194
 N264 N 0.76511 -0.04033 0.17401
 C265 C 0.75616 -0.05601 0.22917
 C266 C 0.74131 -0.00704 0.26138
 N267 N 0.74234 0.03698 0.22359
 H268 H 0.73243 -0.00348 0.30731
 N269 N 0.85384 0.70900 0.48127
 N270 N 0.85549 0.71216 0.53870
 C271 C 0.80377 0.73413 0.55554
 C272 C 0.77037 0.74496 0.50679
 N273 N 0.80335 0.72879 0.46150
 H274 H 0.72665 0.76257 0.50437
 N275 N 0.47936 0.74019 0.37387
 N276 N 0.53705 0.74616 0.37603
 C277 C 0.55516 0.74471 0.32053
 C278 C 0.50749 0.73765 0.28457
 N279 N 0.46120 0.73485 0.31924
 H280 H 0.50633 0.73591 0.23756
 N281 N 0.31281 0.02282 0.17495
 N282 N 0.31543 -0.03430 0.17455
 C283 C 0.27582 -0.05264 0.21291
 C284 C 0.24857 -0.00500 0.23704
 N285 N 0.27322 0.04118 0.21221
 H286 H 0.21629 -0.00382 0.27093
 N287 N 0.16068 0.79757 0.46917
 N288 N 0.15909 0.80022 0.52656
 C289 C 0.20848 0.77519 0.54629
 C290 C 0.24034 0.75642 0.49915
 N291 N 0.20880 0.77114 0.45194
 H292 H 0.28194 0.73424 0.49908
 N293 N 0.01736 0.16132 0.20545
 N294 N -0.04019 0.16217 0.20179
 C295 C -0.05720 0.21640 0.21587
 C296 C -0.00793 0.24937 0.22790
 N297 N 0.03750 0.21306 0.22070
 H298 H -0.00535 0.29419 0.24214
 N299 N 0.68132 0.46401 0.17281
 N300 N 0.68128 0.52124 0.17316
 C301 C 0.72175 0.53847 0.21274
 C302 C 0.74712 0.48997 0.23654
 N303 N 0.72046 0.44447 0.21037
 H304 H 0.77970 0.48794 0.27089
 N305 N 0.84478 0.28422 0.46664
 N306 N 0.84691 0.28482 0.52413
 C307 C 0.79462 0.26593 0.54229
 C308 C 0.76030 0.25317 0.49406
 N309 N 0.79337 0.26510 0.44783
 H310 H 0.71608 0.23662 0.49262
 N311 N 0.46381 0.23607 0.36886
 N312 N 0.52144 0.22958 0.36941
 C313 C 0.53853 0.23367 0.31378
 C314 C 0.49036 0.24289 0.27941
 N315 N 0.44480 0.24423 0.31512
 H316 H 0.48846 0.24788 0.23277
 N317 N 0.24728 0.46232 0.17449
 N318 N 0.25520 0.51868 0.17167
 C319 C 0.26382 0.53855 0.22642
 C320 C 0.26113 0.49206 0.26353
 N321 N 0.25037 0.44543 0.22893
 H322 H 0.26403 0.49235 0.31045
 N323 N 0.14784 0.20832 0.47419
 N324 N 0.14638 0.21206 0.53154
 C325 C 0.19646 0.23813 0.54896
 C326 C 0.22857 0.25083 0.50081
 N327 N 0.19658 0.23164 0.45518
 H328 H 0.27095 0.27146 0.49901
   
