data_POSCAR
  _audit_creation_date              2014-09-24
  _audit_creation_method            'ToBaCCo'
  _symmetry_space_group_name_H-M    'P1'
  _symmetry_Int_Tables_number       1
  _symmetry_cell_setting            triclinic
  loop_
  _symmetry_equiv_pos_as_xyz
 x,y,z
_cell_length_a 34.3785
_cell_length_b 34.7528
_cell_length_c 33.1318
_cell_angle_alpha 90.220200
_cell_angle_beta 89.224100
_cell_angle_gamma 92.974000
loop_
  _atom_site_label
  _atom_site_type_symbol
  _atom_site_fract_x
  _atom_site_fract_y
  _atom_site_fract_z
C1 C 0.27556 0.45365 0.98486
 C2 C 0.24513 0.45088 1.01911
 C3 C 0.22224 0.48178 1.02171
 C4 C 0.23211 0.51267 0.98955
 C5 C 0.25216 0.46014 0.94673
 C6 C 0.22904 0.49068 0.94912
 C7 C 0.29846 0.49191 0.99186
 C8 C 0.27584 0.52290 0.99452
 H9 H 0.24308 0.42684 1.03978
 H10 H 0.21411 0.53819 0.99188
 H11 H 0.25264 0.44121 0.92068
 H12 H 0.32998 0.49419 0.99260
 C13 C 0.72970 0.55967 -0.01183
 C14 C 0.75563 0.55878 0.02541
 C15 C 0.77648 0.52645 0.02795
 C16 C 0.76927 0.49807 -0.00725
 C17 C 0.75750 0.55435 -0.04762
 C18 C 0.77844 0.52228 -0.04548
 C19 C 0.70442 0.52227 -0.01015
 C20 C 0.72495 0.48991 -0.00753
 H21 H 0.75696 0.58195 0.04726
 H22 H 0.78545 0.47148 -0.00458
 H23 H 0.76086 0.57477 -0.07223
 H24 H 0.67307 0.52180 -0.01294
 C25 C 0.05659 0.22010 0.48604
 C26 C 0.05352 0.24357 0.45017
 C27 C 0.02042 0.26717 0.45059
 C28 C -0.00339 0.26257 0.48728
 C29 C 0.05631 0.24854 0.52148
 C30 C 0.02502 0.27120 0.52212
 C31 C 0.01761 0.19700 0.48997
 C32 C -0.01406 0.21905 0.49026
 H33 H 0.07562 0.24412 0.42665
 H34 H -0.02924 0.28053 0.48819
 H35 H 0.07870 0.24982 0.54413
 H36 H 0.01572 0.16601 0.49367
 C37 C 0.94628 0.77335 0.49099
 C38 C 0.95094 0.74903 0.45265
 C39 C 0.98207 0.72628 0.45314
 C40 C 1.00631 0.73077 0.49186
 C41 C 0.94534 0.74413 0.52561
 C42 C 0.97677 0.72172 0.52612
 C43 C 0.98519 0.79627 0.49492
 C44 C 1.01668 0.77413 0.49562
 H45 H 0.93031 0.74845 0.42821
 H46 H 1.03239 0.71333 0.49281
 H47 H 0.92185 0.74206 0.54765
 H48 H 0.98736 0.82746 0.49515
 C49 C 0.49342 0.05781 0.23300
 C50 C 0.45711 0.04862 0.25911
 C51 C 0.45716 0.01403 0.27834
 C52 C 0.49387 -0.00854 0.26890
 C53 C 0.52747 0.05450 0.26197
 C54 C 0.52817 0.01948 0.28043
 C55 C 0.49562 0.02551 0.20554
 C56 C 0.49628 -0.01111 0.22499
 H57 H 0.43403 0.06842 0.26315
 H58 H 0.49470 -0.03691 0.28400
 H59 H 0.54842 0.07813 0.26779
 H60 H 0.49451 0.02908 0.17314
 C61 C 0.50098 -0.04712 0.78465
 C62 C 0.46576 -0.04589 0.75696
 C63 C 0.46679 -0.01514 0.73162
 C64 C 0.50325 0.01217 0.73673
 C65 C 0.53632 -0.04497 0.75594
 C66 C 0.53790 -0.01397 0.73085
 C67 C 0.50227 -0.00838 0.80678
 C68 C 0.50360 0.02273 0.78180
 H69 H 0.44231 -0.06797 0.75693
 H70 H 0.50394 0.03811 0.71756
 H71 H 0.55812 -0.06641 0.75546
 H72 H 0.50047 -0.00614 0.83934
 C73 C 0.27860 0.00853 0.42877
 H74 H 0.25832 0.03121 0.42922
 C75 C 0.30315 0.00473 0.39535
 H76 H 0.30123 0.02442 0.37026
 C77 C 0.30713 -0.04342 0.46137
 H78 H 0.30866 -0.06178 0.48754
 C79 C 0.33273 -0.04788 0.42870
 H80 H 0.35340 -0.07027 0.42973
 N81 N 0.28111 -0.01523 0.46103
 C82 C 0.22837 0.06978 0.52566
 H83 H 0.25110 0.07085 0.54790
 C84 C 0.20455 0.10095 0.52177
 H85 H 0.20934 0.12600 0.54098
 C86 C 0.19317 0.03535 0.47492
 H87 H 0.18842 0.00922 0.45742
 C88 C 0.16878 0.06577 0.46999
 H89 H 0.14508 0.06219 0.44898
 Zn90 Zn 0.25111 -0.00675 0.50822
 N91 N 0.22238 0.03788 0.50220
 C92 C 0.31624 0.02511 0.54893
 N93 N 0.28591 -0.00149 0.55197
 C94 C 0.28193 -0.02543 0.58429
 C95 C 0.30913 -0.02313 0.61521
 C96 C 0.34429 0.02825 0.57909
 C97 C 0.20999 -0.07864 0.49209
 C98 C 0.17835 -0.10536 0.49663
 C99 C 0.15592 -0.06831 0.55343
 C100 C 0.18781 -0.04243 0.54781
 N101 N 0.21380 -0.04773 0.51730
 H102 H 0.31887 0.04360 0.52274
 H103 H 0.25810 -0.04688 0.58587
 H104 H 0.30570 -0.04269 0.64054
 H105 H 0.36785 0.04993 0.57607
 H106 H 0.23051 -0.08175 0.46744
 H107 H 0.17512 -0.12871 0.47510
 H108 H 0.13494 -0.06292 0.57722
 H109 H 0.19117 -0.01717 0.56689
 C110 C 0.17440 0.09930 0.49355
 C111 C 0.33128 -0.02302 0.39543
 C112 C 0.15044 -0.09994 0.52736
 C113 C 0.34117 0.00345 0.61258
 C114 C 0.69684 0.03567 0.55047
 H115 H 0.69751 0.05682 0.52656
 C116 C 0.67064 0.03859 0.58284
 H117 H 0.65212 0.06279 0.58400
 C118 C 0.71997 -0.02187 0.57720
 H119 H 0.73832 -0.04606 0.57430
 C120 C 0.69446 -0.01992 0.61021
 H121 H 0.69382 -0.04247 0.63273
 N122 N 0.72036 0.00546 0.54793
 C123 C 0.81142 0.03404 0.45886
 H124 H 0.80613 0.00940 0.43926
 C125 C 0.84340 0.05939 0.45163
 H126 H 0.86259 0.05411 0.42623
 C127 C 0.79362 0.06953 0.51686
 H128 H 0.77465 0.07264 0.54283
 C129 C 0.82543 0.09586 0.51064
 H130 H 0.83062 0.11891 0.53222
 Zn131 Zn 0.74892 -0.00089 0.49939
 N132 N 0.78747 0.03926 0.49114
 C133 C 0.71553 0.02568 0.42787
 N134 N 0.71258 -0.00170 0.45709
 C135 C 0.68187 -0.02797 0.45866
 C136 C 0.65259 -0.02745 0.42985
 C137 C 0.68700 0.02721 0.39849
 C138 C 0.80539 -0.04802 0.52709
 C139 C 0.82970 -0.07890 0.52720
 C140 C 0.79279 -0.10749 0.47220
 C141 C 0.76916 -0.07590 0.47310
 N142 N 0.77587 -0.04699 0.50032
 H143 H 0.73935 0.04718 0.42797
 H144 H 0.67979 -0.04886 0.48282
 H145 H 0.62806 -0.04825 0.43176
 H146 H 0.68947 0.05027 0.37665
 H147 H 0.81075 -0.02409 0.54760
 H148 H 0.85385 -0.07785 0.54779
 H149 H 0.78751 -0.13000 0.44995
 H150 H 0.74626 -0.07403 0.45130
 C151 C 0.85105 0.09056 0.47779
 C152 C 0.66856 0.00989 0.61273
 C153 C 0.82355 -0.10932 0.49945
 C154 C 0.65500 0.00027 0.39915
 C155 C 0.46971 0.19868 1.04394
 H156 H 0.45068 0.19360 1.01852
 C157 C 0.46721 0.17389 1.07695
 H158 H 0.44606 0.14967 1.07688
 C159 C 0.52138 0.23574 1.07423
 H160 H 0.54290 0.25947 1.07271
 C161 C 0.52006 0.21148 1.10776
 H162 H 0.54006 0.21752 1.13219
 N163 N 0.49651 0.22883 1.04314
 C164 C 0.45158 0.30597 0.95383
 H165 H 0.47502 0.30694 0.93168
 C166 C 0.42086 0.33045 0.95013
 H167 H 0.42052 0.34995 0.92472
 C168 C 0.42493 0.28131 1.01542
 H169 H 0.42724 0.26317 1.04156
 C170 C 0.39383 0.30540 1.01299
 H171 H 0.37184 0.30434 1.03670
 Zn172 Zn 0.50040 0.25820 0.99540
 N173 N 0.45341 0.28258 0.98649
 C174 C 0.48729 0.21481 0.92305
 N175 N 0.51228 0.22341 0.95366
 C176 C 0.54438 0.20298 0.95929
 C177 C 0.55173 0.17162 0.93450
 C178 C 0.49358 0.18358 0.89738
 C179 C 0.53096 0.32531 1.02889
 C180 C 0.55592 0.35770 1.03402
 C181 C 0.59789 0.33371 0.98157
 C182 C 0.57188 0.30162 0.97733
 N183 N 0.53920 0.29815 1.00091
 H184 H 0.46133 0.23074 0.91988
 H185 H 0.56325 0.20990 0.98446
 H186 H 0.57667 0.15479 0.94050
 H187 H 0.47218 0.17611 0.87467
 H188 H 0.50447 0.32200 1.04682
 H189 H 0.54847 0.37930 1.05608
 H190 H 0.62307 0.33648 0.96168
 H191 H 0.57736 0.28009 0.95462
 C192 C 0.39235 0.33139 0.98073
 C193 C 0.49313 0.17964 1.10895
 C194 C 0.58978 0.36236 1.01019
 C195 C 0.52583 0.16102 0.90359
 C196 C 0.46359 0.80336 -0.02705
 H197 H 0.43965 0.80162 -0.00549
 C198 C 0.46283 0.82884 -0.05948
 H199 H 0.43796 0.84637 -0.06301
 C200 C 0.52596 0.78401 -0.04746
 H201 H 0.55100 0.76733 -0.04208
 C202 C 0.52654 0.80935 -0.08014
 H203 H 0.55160 0.81073 -0.10029
 N204 N 0.49491 0.78172 -0.02152
 C205 C 0.45429 0.69346 0.06492
 H206 H 0.47624 0.69843 0.08771
 C207 C 0.42760 0.66199 0.06830
 H208 H 0.42899 0.64297 0.09401
 C209 C 0.42767 0.71076 0.00235
 H210 H 0.42885 0.72892 -0.02408
 C211 C 0.40022 0.67965 0.00461
 H212 H 0.38068 0.67443 -0.02034
 Zn213 Zn 0.49663 0.75335 0.02712
 N214 N 0.45421 0.71678 0.03211
 C215 C 0.47009 0.78994 0.09982
 N216 N 0.49679 0.79005 0.06916
 C217 C 0.52489 0.81873 0.06537
 C218 C 0.52629 0.84967 0.09216
 C219 C 0.47066 0.82027 0.12780
 C220 C 0.54820 0.69901 -0.00029
 C221 C 0.57970 0.67533 0.00157
 C222 C 0.59785 0.70560 0.06483
 C223 C 0.56636 0.72916 0.06144
 N224 N 0.54229 0.72542 0.02924
 H225 H 0.44783 0.76690 0.10212
 H226 H 0.54598 0.81779 0.04089
 H227 H 0.54966 0.87138 0.08823
 H228 H 0.44871 0.82012 0.15158
 H229 H 0.52792 0.69588 -0.02492
 H230 H 0.58325 0.65385 -0.02174
 H231 H 0.61630 0.70826 0.09104
 H232 H 0.56046 0.74950 0.08521
 C233 C 0.40045 0.65440 0.03772
 C234 C 0.49498 0.83283 -0.08589
 C235 C 0.60489 0.67843 0.03461
 C236 C 0.49813 0.85148 0.12337
 C237 C 1.03912 0.46702 0.17952
 H238 H 1.01479 0.44600 0.17888
 C239 C 1.06891 0.46536 0.15075
 H240 H 1.06672 0.44318 0.12780
 C241 C 1.06965 0.52268 0.20921
 H242 H 1.06942 0.54533 0.23161
 C243 C 1.10022 0.52208 0.18089
 H244 H 1.12365 0.54412 0.18203
 N245 N 1.04020 0.49499 0.20832
 C246 C 0.96794 0.44230 0.30494
 H247 H 0.94468 0.46200 0.30770
 C248 C 0.96906 0.41088 0.33117
 H249 H 0.94618 0.40661 0.35378
 C250 C 1.02649 0.42501 0.27305
 H251 H 1.04958 0.43117 0.25126
 C252 C 1.02872 0.39325 0.29840
 H253 H 1.05383 0.37616 0.29475
 Zn254 Zn 0.99673 0.49379 0.24413
 N255 N 0.99643 0.44875 0.27656
 C256 C 0.92265 0.46745 0.21123
 N257 N 0.95259 0.49465 0.21076
 C258 C 0.95357 0.52442 0.18424
 C259 C 0.92318 0.52852 0.15754
 C260 C 0.89151 0.47038 0.18473
 C261 C 1.02783 0.54362 0.30480
 C262 C 1.02818 0.57474 0.33177
 C263 C 0.96644 0.59214 0.30528
 C264 C 0.96729 0.56084 0.27890
 N265 N 0.99776 0.53738 0.27891
 H266 H 0.92293 0.44353 0.23195
 H267 H 0.97821 0.54510 0.18394
 H268 H 0.92515 0.55219 0.13637
 H269 H 0.86769 0.44872 0.18538
 H270 H 1.05151 0.52429 0.30456
 H271 H 1.05284 0.57930 0.35140
 H272 H 0.94172 0.61025 0.30491
 H273 H 0.94311 0.55500 0.25897
 C274 C 0.99977 0.38566 0.32835
 C275 C 1.10041 0.49281 0.15158
 C276 C 0.99683 0.59930 0.33251
 C277 C 0.89125 0.50160 0.15797
 C278 C -0.04653 0.46487 0.80052
 H279 H -0.02399 0.44437 0.80238
 C280 C -0.07762 0.46317 0.82819
 H281 H -0.07909 0.44068 0.85070
 C282 C -0.07160 0.51911 0.76870
 H283 H -0.06877 0.54148 0.74620
 C284 C -0.10329 0.51825 0.79544
 H285 H -0.12476 0.53983 0.79293
 N286 N -0.04399 0.49267 0.77167
 C287 C 0.03208 0.45370 0.67569
 H288 H 0.05269 0.47830 0.67459
 C289 C 0.03526 0.42374 0.64799
 H290 H 0.05824 0.42598 0.62538
 C291 C -0.02425 0.42268 0.70532
 H292 H -0.04776 0.42280 0.72729
 C293 C -0.02217 0.39197 0.67809
 H294 H -0.04393 0.36832 0.67958
 Zn295 Zn 0.00083 0.49602 0.73793
 N296 N 0.00296 0.45250 0.70386
 C297 C 0.07116 0.47191 0.77054
 N298 N 0.04472 0.49966 0.77185
 C299 C 0.04758 0.52885 0.79927
 C300 C 0.07801 0.53095 0.82689
 C301 C 0.10191 0.47282 0.79761
 C302 C -0.02899 0.53757 0.67547
 C303 C -0.03240 0.56778 0.64844
 C304 C 0.02370 0.60047 0.67880
 C305 C 0.02600 0.56954 0.70540
 N306 N -0.00060 0.53922 0.70365
 H307 H 0.06799 0.44846 0.74917
 H308 H 0.02586 0.55029 0.79996
 H309 H 0.07960 0.55478 0.84794
 H310 H 0.12235 0.45013 0.79639
 H311 H -0.04907 0.51259 0.67407
 H312 H -0.05494 0.56536 0.62597
 H313 H 0.04485 0.62461 0.68065
 H314 H 0.04905 0.56979 0.72724
 C315 C 0.00816 0.39202 0.64931
 C316 C -0.10623 0.49057 0.82612
 C317 C -0.00618 0.60012 0.65037
 C318 C 0.10542 0.50221 0.82669
 C319 C 0.09124 0.19507 0.48611
 C320 C 0.09529 0.16698 0.45874
 C321 C 0.12560 0.13825 0.45964
 C322 C 0.14773 0.13148 0.49174
 H323 H 0.07447 0.16404 0.43451
 H324 H 0.12795 0.12069 0.43280
 H325 H 0.11225 0.19962 0.50984
 H326 H 0.14602 0.14935 0.51840
 C327 C 0.70588 0.59466 -0.01557
 C328 C 0.68414 0.60716 0.01504
 C329 C 0.65588 0.63686 0.00870
 C330 C 0.63653 0.65172 0.03983
 H331 H 0.68582 0.59400 0.04454
 H332 H 0.65028 0.64598 -0.02182
 H333 H 0.70312 0.60729 -0.04521
 H334 H 0.64414 0.64411 0.07033
 C335 C 0.91199 -0.20118 0.49091
 C336 C 0.90297 -0.18072 0.52388
 C337 C 0.87309 -0.15163 0.52650
 C338 C 0.85016 -0.14159 0.49621
 H339 H 0.91975 -0.18427 0.55095
 H340 H 0.87082 -0.13750 0.55548
 H341 H 0.89674 -0.19787 0.46294
 H342 H 0.85065 -0.15705 0.46787
 C343 C 0.30083 0.41953 0.98202
 C344 C 0.32228 0.40928 1.01329
 C345 C 0.34836 0.37683 1.01286
 C346 C 0.36285 0.36092 0.97925
 H347 H 0.32020 0.42515 1.04139
 H348 H 0.35827 0.36790 1.04207
 H349 H 0.30125 0.40337 0.95407
 H350 H 0.35610 0.37226 0.94994
 C351 C 0.94539 0.20283 0.49422
 C352 C 0.93533 0.16720 0.48130
 C353 C 0.89606 0.14890 0.48754
 C354 C 0.88779 0.11409 0.47140
 H355 H 0.95684 0.15059 0.46583
 H356 H 0.87477 0.16339 0.50559
 H357 H 0.92355 0.22059 0.50744
 H358 H 0.90969 0.10159 0.45223
 C359 C 0.29187 0.56298 -0.00105
 C360 C 0.32546 0.57132 0.01775
 C361 C 0.34387 0.61055 0.01824
 C362 C 0.37635 0.61782 0.03939
 H363 H 0.34041 0.54853 0.03228
 H364 H 0.33161 0.63278 0.00031
 H365 H 0.27567 0.58595 -0.01353
 H366 H 0.38659 0.59523 0.05844
 C367 C 0.05732 -0.20982 0.49736
 C368 C 0.06638 -0.17572 0.51458
 C369 C 0.10606 -0.15761 0.51270
 C370 C 0.11350 -0.12372 0.53110
 H371 H 0.04382 -0.16016 0.52965
 H372 H 0.12831 -0.17138 0.49530
 H373 H 0.08012 -0.22647 0.48426
 H374 H 0.09050 -0.11189 0.54933
 C375 C 0.70677 0.45040 0.99232
 C376 C 0.66990 0.44299 1.00442
 C377 C 0.65047 0.40439 1.00106
 C378 C 0.61370 0.39878 1.01432
 H379 H 0.65320 0.46601 1.01667
 H380 H 0.66593 0.38125 0.98733
 H381 H 0.72416 0.42704 0.98213
 H382 H 0.59999 0.42252 1.02924
 C383 C 0.49286 0.09575 1.21121
 C384 C 0.52426 0.11015 1.19086
 C385 C 0.52362 0.14305 1.16297
 C386 C 0.49196 0.15125 1.14210
 H387 H 0.55176 0.09662 1.19378
 H388 H 0.55144 0.15764 1.15593
 H389 H 0.46539 0.10947 1.20921
 H390 H 0.46525 0.13372 1.14619
 C391 C -0.01756 0.69077 0.55567
 C392 C -0.04667 0.67509 0.57856
 C393 C -0.04253 0.64261 0.60646
 C394 C -0.00875 0.63313 0.62255
 H395 H -0.07597 0.68435 0.57516
 H396 H -0.06935 0.62708 0.61536
 H397 H 0.01104 0.67926 0.55659
 H398 H 0.01751 0.65095 0.61691
 C399 C 0.49921 0.91860 -0.18744
 C400 C 0.52823 0.91219 -0.16210
 C401 C 0.52764 0.88014 -0.13280
 C402 C 0.49490 0.86218 -0.11825
 H403 H 0.55432 0.93106 -0.16320
 H404 H 0.55550 0.87351 -0.12052
 H405 H 0.47353 0.89926 -0.18798
 H406 H 0.46685 0.87148 -0.12757
 C407 C 1.01194 0.29383 0.42045
 C408 C 1.03354 0.29839 0.38437
 C409 C 1.02873 0.32664 0.35500
 C410 C 1.00102 0.35504 0.35624
 H411 H 1.05663 0.27928 0.37795
 H412 H 1.04881 0.32556 0.32979
 H413 H 0.98757 0.31156 0.42616
 H414 H 0.97905 0.35377 0.37991
 C415 C 0.49962 0.95391 0.20420
 C416 C 0.51223 0.95274 0.16384
 C417 C 0.51423 0.91965 0.14013
 C418 C 0.49623 0.88355 0.14934
 H419 H 0.52357 0.97900 0.14960
 H420 H 0.52817 0.92419 0.11100
 H421 H 0.49484 0.92733 0.22087
 H422 H 0.47708 0.88104 0.17552
 C423 C 0.01881 0.30186 0.55233
 C424 C 0.04788 0.31750 0.57465
 C425 C 0.04392 0.34961 0.60343
 C426 C 0.01024 0.35943 0.62050
 H427 H 0.07722 0.30842 0.57014
 H428 H 0.07091 0.36452 0.61218
 H429 H -0.00989 0.31315 0.55421
 H430 H -0.01630 0.34223 0.61484
 C431 C 0.50301 0.06303 0.79621
 C432 C 0.51746 0.07409 0.83193
 C433 C 0.51392 0.11353 0.84759
 C434 C 0.53126 0.12412 0.88211
 H435 H 0.53171 0.05353 0.85045
 H436 H 0.49638 0.13319 0.83143
 H437 H 0.49082 0.08410 0.77666
 H438 H 0.54996 0.10402 0.89626
 C439 C 0.98894 0.69831 0.42033
 C440 C 1.00943 0.66688 0.42562
 C441 C 1.01457 0.63622 0.39504
 C442 C 0.99411 0.63230 0.36089
 H443 H 1.02272 0.66207 0.45440
 H444 H 1.03453 0.61459 0.40307
 H445 H 0.97503 0.70328 0.39192
 H446 H 0.97233 0.65259 0.35426
 C447 C 1.19085 0.48620 0.05223
 C448 C 1.17563 0.45665 0.07427
 C449 C 1.14332 0.45936 0.10380
 C450 C 1.13302 0.49204 0.12182
 H451 H 1.18536 0.42794 0.06917
 H452 H 1.12878 0.43221 0.11238
 H453 H 1.17898 0.51432 0.05501
 H454 H 1.14991 0.51869 0.11627
 C455 C 0.57025 -0.00826 0.70112
 C456 C 0.57336 0.02085 0.67460
 C457 C 0.60460 0.02495 0.64343
 C458 C 0.63933 0.00915 0.64610
 H459 H 0.55106 0.04152 0.67329
 H460 H 0.59786 0.04138 0.61702
 H461 H 0.59163 -0.03002 0.70051
 H462 H 0.64607 -0.00704 0.67270
 C463 C -0.19252 0.51404 0.92273
 C464 C -0.16819 0.48515 0.92432
 C465 C -0.13744 0.47927 0.89352
 C466 C -0.13903 0.49200 0.85541
 H467 H -0.16832 0.46653 0.95032
 H468 H -0.11238 0.46450 0.90346
 H469 H -0.19018 0.53411 0.89783
 H470 H -0.16443 0.50627 0.84552
 C471 C 0.42518 0.00238 0.30666
 C472 C 0.42637 -0.02681 0.33289
 C473 C 0.39609 -0.03413 0.36457
 C474 C 0.35925 -0.02360 0.36112
 H475 H 0.45195 -0.04349 0.33446
 H476 H 0.40549 -0.04689 0.39227
 H477 H 0.40083 0.02089 0.30773
 H478 H 0.34996 -0.01146 0.33304
 C479 C 0.20244 0.49900 0.91603
 C480 C 0.16925 0.51700 0.92193
 C481 C 0.13945 0.52152 0.89059
 C482 C 0.13753 0.50096 0.85615
 H483 H 0.16235 0.52814 0.95154
 H484 H 0.11668 0.54060 0.89838
 H485 H 0.20976 0.48771 0.88663
 H486 H 0.15897 0.47998 0.85001
 C487 C 0.55888 0.00911 0.30858
 C488 C 0.59510 0.02532 0.30590
 C489 C 0.62714 0.01833 0.33372
 C490 C 0.62258 0.00213 0.37027
 H491 H 0.60254 0.04494 0.28136
 H492 H 0.65571 0.02914 0.32375
 H493 H 0.55158 -0.01315 0.33049
 H494 H 0.59427 -0.00956 0.38008
 C495 C 0.80465 0.51875 0.06009
 C496 C 0.81668 0.54517 0.08745
 C497 C 0.84765 0.53945 0.11696
 C498 C 0.85839 0.50507 0.12991
 H499 H 0.80606 0.57384 0.08668
 H500 H 0.86144 0.56553 0.12933
 H501 H 0.81737 0.49093 0.05942
 H502 H 0.84220 0.47896 0.12095
 C503 C 0.43537 -0.01065 0.70217
 C504 C 0.43803 0.01408 0.67114
 C505 C 0.40776 0.01656 0.63995
 C506 C 0.37042 0.00396 0.64511
 H507 H 0.46453 0.03155 0.66607
 H508 H 0.41743 0.02899 0.61145
 H509 H 0.41007 -0.03027 0.70525
 H510 H 0.36080 -0.00820 0.67376
   
