data_POSCAR
  _audit_creation_date              2014-09-24
  _audit_creation_method            'ToBaCCo'
  _symmetry_space_group_name_H-M    'P1'
  _symmetry_Int_Tables_number       1
  _symmetry_cell_setting            triclinic
  loop_
  _symmetry_equiv_pos_as_xyz
 x,y,z
_cell_length_a 14.0985
_cell_length_b 14.1747
_cell_length_c 14.0738
_cell_angle_alpha 91.697300
_cell_angle_beta 89.859500
_cell_angle_gamma 89.698800
loop_
  _atom_site_label
  _atom_site_type_symbol
  _atom_site_fract_x
  _atom_site_fract_y
  _atom_site_fract_z
C1 C -0.00262 0.51008 0.25733
 C2 C -0.00265 0.49145 0.75862
 C3 C 0.24635 0.00466 0.49905
 C4 C 0.74720 -0.00120 0.49428
 C5 C 0.51094 0.24642 1.00199
 C6 C 0.49126 0.74771 0.98992
 B7 B 0.99496 1.10162 0.06454
 B8 B 1.05658 1.00240 0.10581
 B9 B 0.93010 0.99562 0.09364
 B10 B 0.90000 1.05583 -0.00990
 B11 B 1.00546 1.10025 -0.06150
 B12 B 1.10527 1.06606 0.00956
 B13 B 1.01512 0.89673 -0.06631
 B14 B 0.95325 0.99531 -0.11232
 B15 B 1.07978 1.00146 -0.09528
 B16 B 1.10704 0.94085 0.00864
 B17 B 1.00093 0.89658 0.05795
 B18 B 0.90297 0.93025 -0.01520
 B19 B 0.60313 0.50818 0.44389
 B20 B 0.59513 0.51103 0.57087
 B21 B 0.55155 0.60831 0.50197
 B22 B 0.50005 0.56033 0.39386
 B23 B 0.50981 0.43611 0.39851
 B24 B 0.56782 0.40366 0.50617
 B25 B 0.39175 0.49358 0.55722
 B26 B 0.39906 0.49171 0.43085
 B27 B 0.44491 0.39479 0.49833
 B28 B 0.49790 0.44310 0.60676
 B29 B 0.48319 0.56899 0.59745
 B30 B 0.42469 0.59730 0.48966
 C31 C 0.94128 1.30615 0.09917
 C32 C 0.90615 1.33448 0.19832
 C33 C 0.99258 1.40034 0.21354
 C34 C 1.02857 1.37122 0.11648
 C35 C 1.04500 1.31136 0.25340
 C36 C 0.95847 1.24782 0.23657
 C37 C 0.99353 1.21553 0.13395
 C38 C 1.08129 1.28224 0.15401
 H39 H 0.88704 1.31145 0.04497
 H40 H 0.82989 1.34400 0.20271
 H41 H 1.05862 1.42339 0.06747
 H42 H 1.08312 1.29820 0.31950
 H43 H 0.93543 1.21558 0.30318
 H44 H 1.15690 1.27060 0.14075
 C45 C 1.05363 0.69066 0.07801
 C46 C 1.08558 0.66685 0.17659
 C47 C 0.99722 0.60604 0.19477
 C48 C 0.96519 0.62711 0.09527
 C49 C 0.94754 0.69976 0.23070
 C50 C 1.03694 0.75775 0.21365
 C51 C 1.00176 0.78326 0.11315
 C52 C 0.91349 0.71883 0.13061
 H53 H 1.11610 0.68469 0.03243
 H54 H 1.15910 0.64258 0.17577
 H55 H 0.93132 0.57370 0.04729
 H56 H 0.90227 0.73029 0.28633
 H57 H 1.06359 0.79194 0.27818
 H58 H 0.83956 0.71355 0.11347
 C59 C 0.91163 1.27629 -0.14510
 C60 C 0.95595 1.36421 -0.09559
 C61 C 1.00571 1.39297 -0.18476
 C62 C 0.96380 1.30362 -0.23663
 C63 C 1.09090 1.32792 -0.16037
 C64 C 1.04172 1.29835 -0.07103
 C65 C 0.99683 1.21037 -0.11896
 C66 C 1.04659 1.24081 -0.21004
 H67 H 0.83550 1.26967 -0.15015
 H68 H 0.91942 1.41945 -0.05124
 H69 H 0.94519 1.29616 -0.31318
 H70 H 1.16549 1.34629 -0.15674
 H71 H 1.08510 1.28198 -0.01312
 H72 H 1.06428 1.20151 -0.27400
 C73 C 0.99862 0.75931 -0.23162
 C74 C 1.07563 0.68321 -0.24047
 C75 C 1.00590 0.60450 -0.20790
 C76 C 0.92939 0.68468 -0.20180
 C77 C 1.03282 0.62799 -0.10759
 C78 C 1.10294 0.70576 -0.13734
 C79 C 1.02466 0.78496 -0.12698
 C80 C 0.95550 0.70627 -0.09903
 H81 H 0.98193 0.79852 -0.29530
 H82 H 1.11807 0.69587 -0.30342
 H83 H 0.86519 0.70746 -0.23555
 H84 H 1.05192 0.56884 -0.06124
 H85 H 1.17423 0.69319 -0.11369
 H86 H 0.90412 0.70863 -0.04273
 C87 C 1.05674 1.03211 0.30905
 C88 C 1.10482 0.94859 0.36100
 C89 C 1.18032 1.01416 0.40328
 C90 C 1.12938 1.09626 0.35362
 C91 C 1.23897 1.00122 0.30834
 C92 C 1.16516 0.93058 0.26945
 C93 C 1.11257 1.01004 0.21798
 C94 C 1.18418 1.08136 0.25923
 H95 H 1.00364 1.08160 0.28715
 H96 H 1.05701 0.90368 0.40259
 H97 H 1.10687 1.16290 0.39051
 H98 H 1.31658 0.99362 0.29879
 H99 H 1.19333 0.86229 0.24671
 H100 H 1.19053 1.15086 0.22878
 C101 C 1.11125 0.96627 -0.27601
 C102 C 1.13010 1.05433 -0.33766
 C103 C 1.21237 1.00276 -0.38640
 C104 C 1.19181 0.91580 -0.32426
 C105 C 1.27684 1.03791 -0.30090
 C106 C 1.19143 1.09040 -0.25303
 C107 C 1.16456 1.00417 -0.19246
 C108 C 1.25253 0.95152 -0.24170
 H109 H 1.06312 0.91283 -0.25581
 H110 H 1.08022 1.09515 -0.38075
 H111 H 1.17487 0.84211 -0.34200
 H112 H 1.35069 1.06439 -0.30271
 H113 H 1.20316 1.16237 -0.22440
 H114 H 1.31727 0.91548 -0.21840
 C115 C 0.82815 1.07625 0.26447
 C116 C 0.73174 1.03541 0.29400
 C117 C 0.77723 0.98588 0.38038
 C118 C 0.86969 1.02591 0.35259
 C119 C 0.79408 0.90009 0.30853
 C120 C 0.75131 0.95302 0.22646
 C121 C 0.85213 0.99131 0.19664
 C122 C 0.89027 0.93899 0.28394
 H123 H 0.82080 1.14707 0.23784
 H124 H 0.65991 1.06742 0.29312
 H125 H 0.91372 1.05931 0.40941
 H126 H 0.77754 0.82487 0.29635
 H127 H 0.68175 0.93410 0.19625
 H128 H 0.94955 0.89122 0.28650
 C129 C 0.94390 0.97044 -0.34605
 C130 C 0.85996 0.91021 -0.36826
 C131 C 0.81084 0.99622 -0.40976
 C132 C 0.89502 1.05734 -0.38229
 C133 C 0.76830 1.01745 -0.30698
 C134 C 0.82140 0.93127 -0.26605
 C135 C 0.90744 0.99184 -0.23717
 C136 C 0.85588 1.07754 -0.27989
 H137 H 0.99983 0.94058 -0.39432
 H138 H 0.87125 0.84028 -0.40359
 H139 H 0.92881 1.10994 -0.42814
 H140 H 0.69377 1.03702 -0.28959
 H141 H 0.79765 0.87081 -0.22589
 H142 H 0.85754 1.14914 -0.25193
 C143 C 1.29940 1.14479 0.09440
 C144 C 1.38166 1.10628 0.03030
 C145 C 1.40547 1.20203 -0.00055
 C146 C 1.32210 1.24275 0.06018
 C147 C 1.33279 1.18966 -0.08320
 C148 C 1.30785 1.09266 -0.05085
 C149 C 1.22210 1.12852 0.01272
 C150 C 1.25082 1.22923 -0.02205
 H151 H 1.31840 1.12896 0.16780
 H152 H 1.43854 1.05652 0.05139
 H153 H 1.31268 1.30775 0.10383
 H154 H 1.34003 1.19291 -0.16011
 H155 H 1.31296 1.04010 -0.10657
 H156 H 1.22385 1.29996 -0.03371
 C157 C 0.75754 1.19682 0.05191
 C158 C 0.70168 1.23745 -0.03148
 C159 C 0.60864 1.18768 0.00041
 C160 C 0.66644 1.14989 0.08432
 C161 C 0.63673 1.10120 -0.05774
 C162 C 0.72771 1.14941 -0.09370
 C163 C 0.78840 1.11147 -0.01026
 C164 C 0.69781 1.06563 0.02706
 H165 H 0.79037 1.22645 0.11441
 H166 H 0.72472 1.30922 -0.04667
 H167 H 0.64123 1.13583 0.15614
 H168 H 0.58422 1.05967 -0.09996
 H169 H 0.73329 1.15527 -0.17067
 H170 H 0.71380 1.01080 0.07359
 C171 C 1.25120 0.80182 0.07996
 C172 C 1.30092 0.75607 -0.00627
 C173 C 1.39616 0.80909 0.01364
 C174 C 1.34564 0.85056 0.10415
 C175 C 1.36035 0.89120 -0.04084
 C176 C 1.26707 0.83846 -0.06611
 C177 C 1.21513 0.88320 0.02066
 C178 C 1.30767 0.93254 0.05043
 H179 H 1.21563 0.76778 0.13615
 H180 H 1.29163 0.67860 -0.00978
 H181 H 1.37572 0.86224 0.17631
 H182 H 1.41077 0.92841 -0.08703
 H183 H 1.23707 0.82294 -0.13612
 H184 H 1.30036 0.98269 0.10973
 C185 C 0.69597 0.90369 -0.06996
 C186 C 0.66119 0.81279 -0.11530
 C187 C 0.59999 0.78971 -0.02578
 C188 C 0.63405 0.87960 0.01988
 C189 C 0.69076 0.73918 0.00993
 C190 C 0.74977 0.76529 -0.07723
 C191 C 0.78845 0.85972 -0.02771
 C192 C 0.72507 0.83108 0.05918
 H193 H 0.69955 0.95810 -0.12355
 H194 H 0.64975 0.81717 -0.19090
 H195 H 0.58349 0.92659 0.05967
 H196 H 0.69673 0.66705 0.03714
 H197 H 0.77373 0.70759 -0.12173
 H198 H 0.74346 0.81600 0.13191
 C199 C 0.75858 0.59589 0.31797
 C200 C 0.85127 0.60124 0.37523
 C201 C 0.89794 0.51964 0.31717
 C202 C 0.80420 0.51412 0.25753
 C203 C 0.85461 0.45118 0.38683
 C204 C 0.80538 0.53499 0.44208
 C205 C 0.71384 0.52272 0.38575
 C206 C 0.76224 0.44227 0.32818
 H207 H 0.73467 0.66693 0.29939
 H208 H 0.89003 0.65949 0.41234
 H209 H 0.79898 0.50774 0.17887
 H210 H 0.89923 0.39607 0.41882
 H211 H 0.78455 0.58079 0.49989
 H212 H 0.72846 0.37368 0.31399
 C213 C 0.22076 0.41636 0.33237
 C214 C 0.13207 0.45762 0.38599
 C215 C 0.10325 0.51384 0.30307
 C216 C 0.19239 0.47582 0.24705
 C217 C 0.16570 0.59511 0.34172
 C218 C 0.19688 0.53965 0.42402
 C219 C 0.28595 0.49660 0.37295
 C220 C 0.25427 0.55639 0.28926
 H221 H 0.23340 0.34112 0.32133
 H222 H 0.06987 0.42320 0.41827
 H223 H 0.19837 0.45194 0.17156
 H224 H 0.14249 0.66889 0.35126
 H225 H 0.20542 0.58863 0.48318
 H226 H 0.29243 0.61281 0.26244
 C227 C 0.72533 0.46822 0.74351
 C228 C 0.80862 0.40867 0.70332
 C229 C 0.88423 0.48725 0.72367
 C230 C 0.79866 0.54289 0.76993
 C231 C 0.86026 0.53247 0.63274
 C232 C 0.78903 0.45118 0.60876
 C233 C 0.70229 0.51049 0.64545
 C234 C 0.77402 0.58911 0.67544
 H235 H 0.67820 0.47459 0.80250
 H236 H 0.80249 0.33245 0.70842
 H237 H 0.79966 0.56700 0.84529
 H238 H 0.91559 0.56118 0.58568
 H239 H 0.79873 0.40733 0.54848
 H240 H 0.75339 0.66183 0.68996
 C241 C 0.25044 0.42624 0.71162
 C242 C 0.19485 0.51206 0.75131
 C243 C 0.09922 0.47920 0.70320
 C244 C 0.15665 0.39138 0.66776
 C245 C 0.12810 0.53071 0.61663
 C246 C 0.22436 0.56402 0.66180
 C247 C 0.27943 0.47777 0.61989
 C248 C 0.18132 0.44132 0.57907
 H249 H 0.28707 0.38966 0.76575
 H250 H 0.20198 0.53496 0.82671
 H251 H 0.13722 0.31647 0.65909
 H252 H 0.07862 0.57386 0.57448
 H253 H 0.25754 0.63177 0.67553
 H254 H 0.14406 0.39327 0.53318
 C255 C 0.58991 0.63246 0.19828
 C256 C 0.52976 0.59327 0.11305
 C257 C 0.49468 0.69041 0.09039
 C258 C 0.55242 0.73067 0.17674
 C259 C 0.41281 0.67638 0.16254
 C260 C 0.44777 0.57903 0.18602
 C261 C 0.50682 0.61534 0.27395
 C262 C 0.47069 0.71505 0.24784
 H263 H 0.66350 0.61449 0.18175
 H264 H 0.55551 0.54200 0.05747
 H265 H 0.59267 0.79674 0.18392
 H266 H 0.33812 0.67503 0.14596
 H267 H 0.39191 0.52632 0.18719
 H268 H 0.46065 0.77659 0.29308
 C269 C 0.54734 0.68999 0.74550
 C270 C 0.48350 0.76838 0.79270
 C271 C 0.46994 0.70508 0.88181
 C272 C 0.53138 0.62974 0.83200
 C273 C 0.38155 0.66559 0.82833
 C274 C 0.39798 0.72410 0.74072
 C275 C 0.46267 0.64459 0.69375
 C276 C 0.44072 0.59003 0.77987
 H277 H 0.61475 0.70192 0.71075
 H278 H 0.49541 0.84566 0.79172
 H279 H 0.59131 0.59383 0.86690
 H280 H 0.31161 0.64163 0.84931
 H281 H 0.33283 0.75991 0.71958
 H282 H 0.39416 0.52890 0.76810
 C283 C 0.58038 0.28398 0.24906
 C284 C 0.49279 0.24797 0.19364
 C285 C 0.52246 0.30043 0.10344
 C286 C 0.61098 0.33402 0.15904
 C287 C 0.47047 0.38646 0.13910
 C288 C 0.43738 0.33630 0.22995
 C289 C 0.52443 0.37226 0.28821
 C290 C 0.55958 0.42020 0.19745
 H291 H 0.63953 0.24265 0.27322
 H292 H 0.47134 0.17302 0.19428
 H293 H 0.68332 0.34492 0.13153
 H294 H 0.42726 0.42279 0.08520
 H295 H 0.36475 0.33059 0.25500
 H296 H 0.61603 0.47126 0.20299
 C297 C 0.49957 0.42989 0.83859
 C298 C 0.42814 0.35677 0.86424
 C299 C 0.50900 0.29830 0.90383
 C300 C 0.57877 0.37028 0.87457
 C301 C 0.51848 0.24883 0.80406
 C302 C 0.43836 0.31072 0.76302
 C303 C 0.50766 0.38789 0.72975
 C304 C 0.58938 0.32471 0.77305
 H305 H 0.48433 0.48460 0.89423
 H306 H 0.36246 0.37771 0.90332
 H307 H 0.62571 0.40959 0.92476
 H308 H 0.52351 0.17137 0.79134
 H309 H 0.37763 0.28164 0.72381
 H310 H 0.66084 0.30399 0.75035
 C311 C 0.70968 0.74956 0.54772
 C312 C 0.72861 0.80586 0.46022
 C313 C 0.69122 0.90062 0.50741
 C314 C 0.67621 0.84254 0.59694
 C315 C 0.59353 0.87636 0.47286
 C316 C 0.62847 0.78249 0.42324
 C317 C 0.60844 0.72371 0.51234
 C318 C 0.57833 0.82170 0.56543
 H319 H 0.77685 0.71447 0.56203
 H320 H 0.80173 0.79102 0.43517
 H321 H 0.67742 0.86189 0.67196
 H322 H 0.54738 0.93058 0.44275
 H323 H 0.61741 0.76426 0.34829
 H324 H 0.52918 0.84830 0.62224
 C325 C 0.60233 0.20188 0.44401
 C326 C 0.70681 0.18215 0.42515
 C327 C 0.70924 0.10928 0.50466
 C328 C 0.60763 0.13221 0.52648
 C329 C 0.73796 0.19383 0.57201
 C330 C 0.73331 0.26370 0.49068
 C331 C 0.62716 0.28924 0.50973
 C332 C 0.63343 0.21652 0.59295
 H333 H 0.56335 0.17921 0.38205
 H334 H 0.74532 0.19315 0.35990
 H335 H 0.56638 0.07441 0.55722
 H336 H 0.79565 0.20689 0.62159
 H337 H 0.79648 0.29616 0.46110
 H338 H 0.60205 0.19959 0.65957
 C339 C 0.26820 0.74946 0.53531
 C340 C 0.32942 0.83633 0.56269
 C341 C 0.29200 0.89557 0.48213
 C342 C 0.23022 0.80733 0.45253
 C343 C 0.37072 0.85250 0.41970
 C344 C 0.40655 0.79064 0.50235
 C345 C 0.34953 0.70411 0.47268
 C346 C 0.31072 0.76554 0.38865
 H347 H 0.20900 0.71836 0.57287
 H348 H 0.35749 0.87109 0.62794
 H349 H 0.15417 0.79895 0.43879
 H350 H 0.41485 0.89585 0.37316
 H351 H 0.43786 0.75816 0.56249
 H352 H 0.29536 0.75186 0.31305
 C353 C 0.40638 0.19900 0.56660
 C354 C 0.29770 0.18823 0.56988
 C355 C 0.30348 0.10659 0.49280
 C356 C 0.40922 0.11914 0.48723
 C357 C 0.29506 0.18601 0.41816
 C358 C 0.29000 0.26374 0.49470
 C359 C 0.39704 0.27902 0.49218
 C360 C 0.40008 0.19832 0.41389
 H361 H 0.45194 0.18906 0.62807
 H362 H 0.25407 0.20379 0.63270
 H363 H 0.45039 0.05455 0.47052
 H364 H 0.26503 0.20021 0.34964
 H365 H 0.23478 0.30912 0.47388
 H366 H 0.42586 0.19267 0.34158
   
