data_POSCAR
  _audit_creation_date              2014-09-24
  _audit_creation_method            'ToBaCCo'
  _symmetry_space_group_name_H-M    'P1'
  _symmetry_Int_Tables_number       1
  _symmetry_cell_setting            triclinic
  loop_
  _symmetry_equiv_pos_as_xyz
 x,y,z
_cell_length_a 40.5823
_cell_length_b 40.5056
_cell_length_c 13.0065
_cell_angle_alpha 90.066300
_cell_angle_beta 89.923900
_cell_angle_gamma 119.979900
loop_
  _atom_site_label
  _atom_site_type_symbol
  _atom_site_fract_x
  _atom_site_fract_y
  _atom_site_fract_z
C1 C 0.15505 0.48407 0.49849
 C2 C 0.17048 0.48015 0.40538
 C3 C 0.20349 0.47684 0.40874
 C4 C 0.22426 0.48298 0.50043
 C5 C 0.21029 0.49137 0.58978
 C6 C 0.17525 0.49068 0.59101
 C7 C 0.26142 0.48291 0.50258
 C8 C 0.27683 0.47888 0.59596
 C9 C 0.31359 0.48381 0.60034
 C10 C 0.33363 0.48819 0.50907
 C11 C 0.31886 0.49148 0.41510
 C12 C 0.28329 0.48957 0.41257
 H13 H 0.12899 0.48535 0.49779
 H14 H 0.21293 0.46947 0.33950
 H15 H 0.22661 0.49816 0.65945
 H16 H 0.26091 0.47254 0.66675
 H17 H 0.36204 0.49204 0.51190
 H18 H 0.27344 0.49428 0.34007
 C19 C 0.52378 -0.32452 0.49472
 C20 C 0.52874 -0.30469 0.40193
 C21 C 0.53240 -0.26817 0.40573
 C22 C 0.52559 -0.25381 0.49699
 C23 C 0.51660 -0.27631 0.58601
 C24 C 0.51689 -0.31094 0.58717
 C25 C 0.52529 -0.21676 0.49856
 C26 C 0.52976 -0.19682 0.59129
 C27 C 0.52419 -0.16528 0.59560
 C28 C 0.51869 -0.15045 0.50401
 C29 C 0.51514 -0.16908 0.41033
 C30 C 0.51766 -0.20244 0.40863
 H31 H 0.52218 -0.35205 0.49374
 H32 H 0.54045 -0.25097 0.33715
 H33 H 0.50956 -0.26665 0.65524
 H34 H 0.53683 -0.20599 0.66165
 H35 H 0.51441 -0.12610 0.50647
 H36 H 0.51271 -0.21752 0.33675
 C37 C 1.32781 0.85131 0.48723
 C38 C 1.31078 0.83182 0.39547
 C39 C 1.27579 0.79722 0.40159
 C40 C 1.25626 0.78313 0.49573
 C41 C 1.27393 0.80414 0.58514
 C42 C 1.31050 0.83627 0.58225
 C43 C 1.21916 0.74557 0.50123
 C44 C 1.20566 0.72527 0.59469
 C45 C 1.17159 0.68967 0.59954
 C46 C 1.15208 0.67313 0.50777
 C47 C 1.16664 0.69121 0.41363
 C48 C 1.19804 0.72818 0.41171
 H49 H 1.35587 0.87644 0.48568
 H50 H 1.26412 0.78111 0.33252
 H51 H 1.26030 0.79540 0.65918
 H52 H 1.22170 0.73680 0.66402
 H53 H 1.12747 0.64468 0.50831
 H54 H 1.20611 0.74227 0.33817
 C55 C 0.85044 0.52136 0.49862
 C56 C 0.83522 0.52515 0.40570
 C57 C 0.80364 0.53054 0.40717
 C58 C 0.78367 0.52720 0.49896
 C59 C 0.79841 0.52114 0.59089
 C60 C 0.83200 0.51906 0.59162
 C61 C 0.74623 0.52683 0.49760
 C62 C 0.73002 0.53126 0.58878
 C63 C 0.69294 0.52599 0.59084
 C64 C 0.67392 0.52160 0.49702
 C65 C 0.68962 0.51783 0.40465
 C66 C 0.72500 0.51945 0.40620
 H67 H 0.87480 0.51714 0.49792
 H68 H 0.79451 0.53635 0.33500
 H69 H 0.78358 0.51694 0.66271
 H70 H 0.74619 0.53894 0.65899
 H71 H 0.64570 0.51825 0.49628
 H72 H 0.73531 0.51430 0.33509
 C73 C 0.48228 0.33205 0.50577
 C74 C 0.48679 0.31731 0.41239
 C75 C 0.48519 0.28185 0.41158
 C76 C 0.47754 0.25989 0.50145
 C77 C 0.47221 0.27497 0.59362
 C78 C 0.47707 0.31195 0.59831
 C79 C 0.47762 0.22269 0.50043
 C80 C 0.48600 0.20892 0.59034
 C81 C 0.48670 0.17444 0.59101
 C82 C 0.48092 0.15452 0.49828
 C83 C 0.47635 0.16963 0.40614
 C84 C 0.47217 0.20202 0.40874
 H85 H 0.48548 0.36026 0.50690
 H86 H 0.49060 0.27188 0.34016
 H87 H 0.46417 0.25787 0.66237
 H88 H 0.49215 0.22514 0.66031
 H89 H 0.48371 0.12927 0.49604
 H90 H 0.46561 0.21128 0.33776
 C91 C 0.67270 0.15290 0.50735
 C92 C 0.68791 0.17128 0.41393
 C93 C 0.72398 0.20442 0.41227
 C94 C 0.74599 0.21872 0.50256
 C95 C 0.73022 0.19854 0.59492
 C96 C 0.69294 0.16758 0.59873
 C97 C 0.78344 0.25591 0.50231
 C98 C 0.79845 0.27660 0.59409
 C99 C 0.83275 0.31186 0.59633
 C100 C 0.85142 0.32772 0.50283
 C101 C 0.83542 0.30931 0.40946
 C102 C 0.80307 0.27272 0.41034
 H103 H 0.64391 0.12894 0.50981
 H104 H 0.73401 0.21919 0.34017
 H105 H 0.74607 0.20689 0.66581
 H106 H 0.78313 0.26555 0.66452
 H107 H 0.87652 0.35584 0.50171
 H108 H 0.79310 0.25829 0.33762
 O109 O 1.05437 0.58375 0.19342
 O110 O 1.09630 0.57545 0.09335
 C111 C 1.08851 0.59271 0.16504
 O112 O 0.94843 0.41328 0.18123
 O113 O 0.90702 0.42389 0.08594
 C114 C 0.91440 0.40500 0.15372
 O115 O 1.05464 0.46887 0.19010
 O116 O 1.09649 0.51943 0.09076
 C117 C 1.08872 0.49383 0.16107
 O118 O 0.94794 0.53278 0.18305
 O119 O 0.90675 0.48045 0.08794
 C120 C 0.91406 0.50703 0.15483
 Zr121 Zr 1.00131 0.54176 0.13195
 O122 O 0.99731 0.54170 0.29421
 O123 O 1.00256 0.59440 0.11979
 Zr124 Zr 1.00175 0.45815 0.12968
 O125 O 0.99754 0.45458 0.29198
 O126 O 1.00532 0.40780 0.12224
 O127 O 1.03527 0.51693 0.15217
 O128 O 0.96871 0.48334 0.14904
 O129 O 0.94801 0.53302 -0.18052
 O130 O 0.90687 0.48046 -0.08612
 C131 C 0.91399 0.50662 -0.15376
 O132 O 1.05720 0.47344 -0.19140
 O133 O 1.09762 0.52262 -0.08603
 C134 C 1.09101 0.49906 -0.16077
 O135 O 0.94972 0.41505 -0.18499
 O136 O 0.90775 0.42477 -0.08885
 C137 C 0.91554 0.40634 -0.15715
 O138 O 1.05575 0.58519 -0.18569
 O139 O 1.09698 0.57656 -0.08365
 C140 C 1.08976 0.59416 -0.15544
 Zr141 Zr 1.00194 0.54279 -0.12746
 O142 O 0.99868 0.54317 -0.28983
 O143 O 1.00480 0.59638 -0.11983
 Zr144 Zr 1.00286 0.45937 -0.12978
 O145 O 1.00020 0.45482 -0.29193
 O146 O 1.00509 0.40855 -0.11651
 Zr147 Zr 1.05837 0.52906 0.00280
 Zr148 Zr 0.94553 0.47192 0.00002
 O149 O 0.96974 0.48454 -0.14813
 O150 O 1.03614 0.51830 -0.14784
 O151 O 0.96746 0.53128 0.00186
 O152 O 1.03556 0.46962 0.00031
 O153 O 1.03478 0.56499 0.00322
 O154 O 0.96821 0.43515 -0.00117
 H155 H 0.95171 0.47470 0.20984
 H156 H 1.05312 0.45928 -0.00093
 H157 H 0.95319 0.47629 -0.20975
 H158 H 1.05197 0.59298 0.00415
 H159 H 0.98431 0.38950 0.07776
 H160 H 1.00636 0.40063 -0.18780
 H161 H 1.01476 0.48102 -0.31933
 H162 H 1.01865 0.53841 -0.31742
 H163 H 0.98317 0.59311 -0.07707
 H164 H 1.00259 0.60293 0.19123
 H165 H 1.01546 0.53439 0.32175
 H166 H 1.01715 0.47944 0.31986
 O167 O 0.42342 0.47788 0.19644
 O168 O 0.43303 0.52832 0.09550
 C169 C 0.41569 0.50413 0.16838
 O170 O 0.59195 0.53559 0.17176
 O171 O 0.57948 0.48330 0.07435
 C172 C 0.59887 0.50888 0.14312
 O173 O 0.53914 0.58988 0.18361
 O174 O 0.48863 0.58257 0.08662
 C175 C 0.51478 0.59999 0.15576
 O176 O 0.47328 0.41978 0.18513
 O177 O 0.52308 0.42841 0.08234
 C178 C 0.49842 0.41087 0.15462
 Zr179 Zr 0.46396 0.46437 0.13300
 O180 O 0.46603 0.46221 0.29533
 O181 O 0.41076 0.41353 0.12771
 Zr182 Zr 0.54861 0.54691 0.12143
 O183 O 0.55606 0.54983 0.28273
 O184 O 0.59940 0.59996 0.10467
 O185 O 0.49045 0.52346 0.14941
 O186 O 0.52224 0.48879 0.14386
 O187 O 0.46607 0.41579 -0.17871
 O188 O 0.51892 0.42541 -0.08887
 C189 C 0.49121 0.40645 -0.15295
 O190 O 0.53103 0.58600 -0.19815
 O191 O 0.48340 0.57910 -0.08963
 C192 C 0.50637 0.59526 -0.16582
 O193 O 0.58748 0.53551 -0.19463
 O194 O 0.57844 0.48456 -0.09641
 C195 C 0.59667 0.51062 -0.16536
 O196 O 0.41712 0.47337 -0.17996
 O197 O 0.42810 0.52468 -0.08015
 C198 C 0.40915 0.49907 -0.14948
 Zr199 Zr 0.45968 0.46186 -0.12692
 O200 O 0.45867 0.45810 -0.28939
 O201 O 0.40555 0.41208 -0.11718
 Zr202 Zr 0.54366 0.54448 -0.13855
 O203 O 0.54336 0.54081 -0.30096
 O204 O 0.59392 0.59840 -0.14310
 Zr205 Zr 0.47689 0.53370 0.00077
 Zr206 Zr 0.53118 0.47508 -0.00613
 O207 O 0.51740 0.48585 -0.15334
 O208 O 0.48488 0.52044 -0.15067
 O209 O 0.47176 0.43918 0.00213
 O210 O 0.53634 0.56884 -0.00735
 O211 O 0.43988 0.47437 0.00585
 O212 O 0.56897 0.53438 -0.01137
 H213 H 0.53108 0.48066 0.20461
 H214 H 0.54727 0.59684 -0.00965
 H215 H 0.52490 0.47636 -0.21417
 H216 H 0.41206 0.46418 0.00983
 H217 H 0.61915 0.59480 0.07733
 H218 H 0.61329 0.59649 -0.10154
 H219 H 0.51848 0.53665 -0.32515
 H220 H 0.46142 0.48210 -0.31690
 H221 H 0.40775 0.39472 -0.06774
 H222 H 0.40336 0.40601 0.20024
 H223 H 0.47260 0.48768 0.32165
 H224 H 0.53068 0.54040 0.31382
 O225 O 0.46723 0.05537 0.18217
 O226 O 0.51863 0.09715 0.08518
 C227 C 0.49276 0.08952 0.15443
 O228 O 0.52854 -0.05299 0.18695
 O229 O 0.47797 -0.09350 0.08557
 C230 C 0.50270 -0.08685 0.15703
 O231 O 0.58103 0.05522 0.19626
 O232 O 0.57321 0.09680 0.09357
 C233 C 0.58990 0.08943 0.16713
 O234 O 0.41121 -0.05138 0.17281
 O235 O 0.42229 -0.09286 0.07849
 C236 C 0.40297 -0.08545 0.14486
 Zr237 Zr 0.45607 0.00210 0.12157
 O238 O 0.44809 -0.00101 0.28270
 O239 O 0.40538 0.00353 0.09641
 Zr240 Zr 0.53936 0.00138 0.13430
 O241 O 0.53699 -0.00244 0.29671
 O242 O 0.59176 0.00210 0.12990
 O243 O 0.51444 0.03544 0.14920
 O244 O 0.48085 -0.03106 0.14574
 O245 O 0.41658 -0.04980 -0.19386
 O246 O 0.42544 -0.09192 -0.09610
 C247 C 0.40766 -0.08407 -0.16604
 O248 O 0.58710 0.05544 -0.18023
 O249 O 0.57758 0.09717 -0.08250
 C250 C 0.59601 0.08951 -0.15107
 O251 O 0.53542 -0.05117 -0.17528
 O252 O 0.48205 -0.09298 -0.08457
 C253 C 0.50945 -0.08530 -0.14895
 O254 O 0.47453 0.05762 -0.19855
 O255 O 0.52303 0.09803 -0.09161
 C256 C 0.49977 0.09145 -0.16694
 Zr257 Zr 0.46060 0.00328 -0.13739
 O258 O 0.45873 0.00061 -0.29987
 O259 O 0.40968 0.00540 -0.12976
 Zr260 Zr 0.54360 0.00219 -0.12518
 O261 O 0.54496 -0.00113 -0.28748
 O262 O 0.59694 0.00492 -0.11396
 Zr263 Zr 0.52857 0.05872 0.00004
 Zr264 Zr 0.47132 -0.05422 -0.00349
 O265 O 0.48577 -0.03009 -0.15124
 O266 O 0.51966 0.03664 -0.15053
 O267 O 0.43471 -0.03146 -0.00985
 O268 O 0.56419 0.03487 0.00645
 O269 O 0.46937 0.03614 -0.00770
 O270 O 0.53049 -0.03235 0.00459
 H271 H 0.47143 -0.04797 0.20664
 H272 H 0.59213 0.05190 0.00998
 H273 H 0.47828 -0.04693 -0.21236
 H274 H 0.45923 0.05388 -0.01023
 H275 H 0.59897 0.00194 0.20256
 H276 H 0.59390 -0.01513 -0.06507
 H277 H 0.54198 0.01986 -0.31596
 H278 H 0.48503 0.01710 -0.32465
 H279 H 0.40257 0.00659 -0.20192
 H280 H 0.39537 0.00400 0.16556
 H281 H 0.47370 0.01216 0.31389
 H282 H 0.53170 0.01744 0.32241
 C283 C 1.15485 0.48277 0.31087
 C284 C 1.17241 0.48821 0.21583
 C285 C 1.15024 0.49403 0.14847
 C286 C 1.12053 0.49129 0.20583
 O287 O 1.12297 0.48432 0.30412
 H288 H 1.19901 0.48955 0.19706
 H289 H 1.15482 0.49905 0.06683
 C290 C 0.52678 0.67743 0.30704
 C291 C 0.52265 0.69037 0.21178
 C292 C 0.51693 0.66253 0.14369
 C293 C 0.51845 0.63485 0.20091
 O294 O 0.52453 0.64364 0.29976
 H295 H 0.52202 0.71605 0.19320
 H296 H 0.51254 0.66254 0.06176
 C297 C 0.32956 -0.15418 0.30036
 C298 C 0.31968 -0.17419 0.20821
 C299 C 0.34606 -0.15088 0.13868
 C300 C 0.36975 -0.11810 0.19156
 O301 O 0.36009 -0.11985 0.28957
 H302 H 0.29697 -0.20278 0.19224
 H303 H 0.34776 -0.15703 0.05874
 C304 C 0.84873 0.51798 0.30710
 C305 C 0.82525 0.50029 0.22389
 C306 C 0.84673 0.49367 0.15581
 C307 C 0.88180 0.50812 0.20168
 O308 O 0.88318 0.52274 0.29370
 H309 H 0.79541 0.49144 0.21593
 H310 H 0.83777 0.47956 0.08224
 C311 C 0.49616 0.34005 0.31651
 C312 C 0.51822 0.33810 0.23834
 C313 C 0.52116 0.36387 0.16716
 C314 C 0.50053 0.37966 0.20609
 O315 O 0.48547 0.36552 0.29729
 H316 H 0.53172 0.32088 0.23476
 H317 H 0.53715 0.37095 0.09607
 C318 C 0.66428 0.15794 0.32020
 C319 C 0.66573 0.18178 0.24245
 C320 C 0.63790 0.15899 0.17573
 C321 C 0.62160 0.12280 0.21681
 O322 O 0.63737 0.12199 0.30500
 H323 H 0.68390 0.21236 0.23666
 H324 H 0.63008 0.16779 0.10576
 C325 C 0.49529 0.16110 -0.31880
 C326 C 0.51260 0.18313 -0.23262
 C327 C 0.51730 0.15992 -0.16680
 C328 C 0.50180 0.12514 -0.21536
 O329 O 0.48871 0.12567 -0.30809
 H330 H 0.52245 0.21301 -0.21969
 H331 H 0.53066 0.16751 -0.09214
 C332 C 0.67403 0.52218 -0.31501
 C333 C 0.68574 0.51590 -0.22039
 C334 C 0.65757 0.50967 -0.15308
 C335 C 0.63099 0.51312 -0.21010
 O336 O 0.64067 0.52070 -0.30813
 H337 H 0.71084 0.51423 -0.20205
 H338 H 0.65673 0.50387 -0.07173
 C339 C 0.84697 0.33190 -0.31038
 C340 C 0.82678 0.32335 -0.21869
 C341 C 0.85006 0.35033 -0.15087
 C342 C 0.88301 0.37312 -0.20394
 O343 O 0.88143 0.36235 -0.30090
 H344 H 0.79800 0.30126 -0.20205
 H345 H 0.84375 0.35313 -0.07186
 C346 C 0.51926 -0.15100 -0.30389
 C347 C 0.50481 -0.17351 -0.21718
 C348 C 0.49931 -0.15169 -0.14731
 C349 C 0.51114 -0.11738 -0.19572
 O350 O 0.52313 -0.11680 -0.29081
 H351 H 0.49729 -0.20299 -0.20757
 H352 H 0.48769 -0.15990 -0.07074
 C353 C 0.33318 0.48940 -0.30002
 C354 C 0.32639 0.50533 -0.21425
 C355 C 0.35431 0.51135 -0.14615
 C356 C 0.37581 0.49837 -0.19485
 O357 O 0.36322 0.48513 -0.28814
 H358 H 0.30489 0.51342 -0.20437
 H359 H 0.35867 0.52394 -0.07050
 C360 C 1.15810 0.66951 -0.30721
 C361 C 1.17858 0.67794 -0.21633
 C362 C 1.15567 0.65032 -0.14897
 C363 C 1.12261 0.62739 -0.20177
 O364 O 1.12387 0.63873 -0.29777
 H365 H 1.20724 0.70047 -0.20036
 H366 H 1.16220 0.64736 -0.07029
 C367 C 0.84547 0.51036 -0.31190
 C368 C 0.82152 0.48802 -0.23419
 C369 C 0.84435 0.48436 -0.16453
 C370 C 0.88070 0.50508 -0.20357
 O371 O 0.88155 0.52070 -0.29371
 H372 H 0.79084 0.47449 -0.23067
 H373 H 0.83539 0.46756 -0.09492
 C374 C 0.47960 0.32970 -0.30612
 C375 C 0.48437 0.31670 -0.21159
 C376 C 0.48998 0.34423 -0.14239
 C377 C 0.48761 0.37169 -0.19835
 O378 O 0.48136 0.36319 -0.29738
 H379 H 0.48558 0.29122 -0.19440
 H380 H 0.49500 0.34425 -0.06073
 C381 C 0.67314 0.15396 -0.30172
 C382 C 0.68069 0.17685 -0.21597
 C383 C 0.65240 0.15568 -0.14794
 C384 C 0.62994 0.12141 -0.19669
 O385 O 0.64228 0.12021 -0.28994
 H386 H 0.70297 0.20616 -0.20610
 H387 H 0.64844 0.16423 -0.07227
 C388 C 1.16146 0.49816 -0.31763
 C389 C 1.18349 0.51590 -0.23174
 C390 C 1.15980 0.51878 -0.16371
 C391 C 1.12477 0.50190 -0.21076
 O392 O 1.12557 0.48972 -0.30474
 H393 H 1.21365 0.52731 -0.22031
 H394 H 1.16733 0.53216 -0.08887
 C395 C 0.50886 0.66758 -0.32172
 C396 C 0.49179 0.67258 -0.23522
 C397 C 0.48836 0.64572 -0.16742
 C398 C 0.50418 0.62663 -0.21535
 O399 O 0.51633 0.63940 -0.30943
 H400 H 0.48134 0.69214 -0.22290
 H401 H 0.47551 0.64044 -0.09190
 C402 C 0.33258 -0.15017 -0.32135
 C403 C 0.32980 -0.17463 -0.24361
 C404 C 0.35774 -0.15291 -0.17603
 C405 C 0.37525 -0.11659 -0.21605
 O406 O 0.36041 -0.11475 -0.30516
 H407 H 0.31096 -0.20516 -0.23950
 H408 H 0.36519 -0.16260 -0.10715
 C409 C 0.50534 -0.15579 0.31558
 C410 C 0.48231 -0.17985 0.23895
 C411 C 0.47875 -0.15691 0.16933
 C412 C 0.50016 -0.12045 0.20761
 O413 O 0.51615 -0.11959 0.29697
 H414 H 0.46857 -0.21061 0.23579
 H415 H 0.46185 -0.16579 0.09988
 C416 C 0.34245 0.50087 0.32147
 C417 C 0.34188 0.52363 0.24347
 C418 C 0.36935 0.52765 0.17683
 C419 C 0.38459 0.50685 0.21816
 O420 O 0.36850 0.49065 0.30654
 H421 H 0.32454 0.53692 0.23751
 H422 H 0.37768 0.54426 0.10677
 C423 C 1.15350 0.66928 0.31717
 C424 C 1.17799 0.67276 0.23869
 C425 C 1.15677 0.64404 0.17234
 C426 C 1.12077 0.62544 0.21409
 O427 O 1.11862 0.64037 0.30267
 H428 H 1.20825 0.69257 0.23339
 H429 H 1.16655 0.63699 0.10289
 C430 C 0.48211 0.15534 0.30693
 C431 C 0.49931 0.17854 0.22294
 C432 C 0.50573 0.15683 0.15520
 C433 C 0.49164 0.12184 0.20180
 O434 O 0.47744 0.12077 0.29423
 H435 H 0.50823 0.20843 0.21443
 H436 H 0.51962 0.16565 0.08143
 C437 C 0.66786 0.50911 0.30732
 C438 C 0.66921 0.48620 0.23058
 C439 C 0.64408 0.48388 0.15806
 C440 C 0.62947 0.50586 0.19477
 O441 O 0.64353 0.52099 0.28591
 H442 H 0.68547 0.47167 0.22918
 H443 H 0.63651 0.46726 0.08799
 C444 C 0.84853 0.33038 0.31118
 C445 C 0.82384 0.32744 0.23407
 C446 C 0.84539 0.35504 0.16508
 C447 C 0.88186 0.37243 0.20356
 O448 O 0.88389 0.35791 0.29311
 H449 H 0.79328 0.30893 0.23164
 H450 H 0.83543 0.36251 0.09684
   
