data_POSCAR
  _audit_creation_date              2014-09-24
  _audit_creation_method            'ToBaCCo'
  _symmetry_space_group_name_H-M    'P1'
  _symmetry_Int_Tables_number       1
  _symmetry_cell_setting            triclinic
  loop_
  _symmetry_equiv_pos_as_xyz
 x,y,z
_cell_length_a 33.4164
_cell_length_b 31.3031
_cell_length_c 33.4138
_cell_angle_alpha 90.032800
_cell_angle_beta 90.933100
_cell_angle_gamma 90.216100
loop_
  _atom_site_label
  _atom_site_type_symbol
  _atom_site_fract_x
  _atom_site_fract_y
  _atom_site_fract_z
C1 C 0.17629 0.15421 0.21328
 N2 N 0.15565 0.18431 0.19234
 C3 C 0.16942 0.19932 0.15692
 N4 N 0.20443 0.18401 0.14224
 C5 C 0.22550 0.15370 0.16295
 N6 N 0.21096 0.13926 0.19820
 C7 C -0.16605 0.85296 0.21799
 N8 N -0.14763 0.81976 0.19959
 C9 C -0.16303 0.80303 0.16512
 N10 N -0.19735 0.81928 0.14916
 C11 C -0.21653 0.85207 0.16726
 N12 N -0.20044 0.86879 0.20152
 C13 C -0.14585 0.13208 -0.20191
 N14 N -0.17907 0.11359 -0.18693
 C15 C -0.19948 0.13252 -0.15696
 N16 N -0.18550 0.17001 -0.14130
 C17 C -0.15127 0.18796 -0.15512
 N18 N -0.13189 0.16913 -0.18587
 C19 C 0.15267 0.83791 -0.20950
 N20 N 0.13102 0.80953 -0.18797
 C21 C 0.14202 0.79877 -0.15026
 N22 N 0.17520 0.81664 -0.13363
 C23 C 0.19826 0.84421 -0.15470
 N24 N 0.18695 0.85467 -0.19294
 C25 C 0.16803 1.16894 0.78830
 N26 N 0.14307 1.19531 0.80869
 C27 C 0.14996 1.20396 0.84819
 N28 N 0.18174 1.18570 0.86710
 C29 C 0.20750 1.16092 0.84687
 N30 N 0.20079 1.15282 0.80754
 C31 C 0.84286 0.84941 0.77998
 N32 N 0.86141 0.81485 0.79688
 C33 C 0.84681 0.79653 0.83062
 N34 N 0.81400 0.81337 0.84783
 C35 C 0.79522 0.84763 0.83160
 N36 N 0.80953 0.86545 0.79762
 C37 C 0.16252 0.86000 1.20284
 N38 N 0.14611 0.82178 1.19216
 C39 C 0.15769 0.80090 1.15858
 N40 N 0.18736 0.81818 1.13619
 C41 C 0.20415 0.85634 1.14648
 N42 N 0.19118 0.87737 1.17937
 C43 C 0.81575 1.16769 1.23455
 N44 N 0.83604 1.19577 1.21127
 C45 C 0.82137 1.20784 1.17485
 N46 N 0.78663 1.19004 1.16119
 C47 C 0.76584 1.16217 1.18412
 N48 N 0.78014 1.15163 1.22106
 O49 O 0.44640 1.06691 1.06132
 O50 O 0.40156 1.03208 1.01979
 C51 C 0.41036 1.05921 1.04789
 O52 O 0.56126 1.07322 0.92494
 O53 O 0.60240 1.02717 0.95960
 C54 C 0.59626 1.05871 0.93534
 O55 O 0.44887 1.07965 0.92285
 O56 O 0.40316 1.03773 0.95512
 C57 C 0.41248 1.06883 0.93147
 O58 O 0.55902 1.05662 1.06815
 O59 O 0.60122 1.02036 1.02669
 C60 C 0.59447 1.04582 1.05637
 Zr61 Zr 0.50193 1.04079 1.04314
 O62 O 0.50914 1.10719 1.05267
 O63 O 0.49601 1.03122 1.10550
 Zr64 Zr 0.50365 1.05199 0.94220
 O65 O 0.51002 1.11893 0.94904
 O66 O 0.50148 1.05865 0.87915
 O67 O 0.46775 1.05645 0.99244
 O68 O 0.53749 1.05252 0.99433
 O69 O 0.55285 0.90916 1.05499
 O70 O 0.59842 0.95002 1.02115
 C71 C 0.58920 0.92048 1.04644
 O72 O 0.44143 0.92781 0.90729
 O73 O 0.39937 0.96551 0.94784
 C74 C 0.40605 0.93938 0.91870
 O75 O 0.55460 0.92804 0.90616
 O76 O 0.59917 0.95710 0.95155
 C77 C 0.59080 0.93539 0.91944
 O78 O 0.43979 0.90961 1.04706
 O79 O 0.39870 0.95725 1.01449
 C80 C 0.40464 0.92447 1.03742
 Zr81 Zr 0.49744 0.93336 1.03241
 O82 O 0.49935 0.86620 1.02544
 O83 O 0.49176 0.92639 1.09505
 Zr84 Zr 0.49878 0.94425 0.93170
 O85 O 0.50040 0.87662 0.93014
 O86 O 0.49622 0.94482 0.86849
 Zr87 Zr 0.44127 0.99559 0.98580
 Zr88 Zr 0.55956 0.98991 0.98865
 O89 O 0.53270 0.92941 0.98208
 O90 O 0.46197 0.93230 0.98029
 O91 O 0.53523 0.98467 1.04632
 O92 O 0.46690 1.00061 0.92880
 O93 O 0.46474 0.98800 1.04412
 O94 O 0.53670 0.99743 0.92992
 H95 H 0.55625 1.07694 0.99732
 H96 H 0.44958 1.00420 0.90469
 H97 H 0.55047 0.90426 0.98000
 H98 H 0.44583 0.98669 1.06663
 H99 H 0.52474 1.04324 0.86834
 H100 H 0.50268 0.97432 0.86025
 H101 H 0.47336 0.86599 0.93672
 H102 H 0.47738 0.85811 1.00671
 H103 H 0.51369 0.94299 1.10788
 H104 H 0.52013 1.01589 1.11517
 H105 H 0.49271 1.12180 1.03201
 H106 H 0.48675 1.12924 0.96415
 O107 O 0.03790 0.55730 -0.07764
 O108 O 0.01321 0.60379 -0.03120
 C109 C 0.03123 0.59548 -0.06423
 O110 O -0.09763 0.43534 -0.04325
 O111 O -0.05094 0.38956 -0.01629
 C112 C -0.08349 0.39735 -0.03649
 O113 O -0.09502 0.55560 -0.04933
 O114 O -0.05081 0.60326 -0.02048
 C115 C -0.08150 0.59407 -0.04312
 O116 O 0.04189 0.43790 -0.07596
 O117 O 0.01543 0.39097 -0.03073
 C118 C 0.03498 0.39966 -0.06286
 Zr119 Zr 0.02603 0.49736 -0.05077
 O120 O 0.01325 0.49302 -0.11288
 O121 O 0.08806 0.50240 -0.06206
 Zr122 Zr -0.07288 0.49611 -0.02811
 O123 O -0.09279 0.49145 -0.08832
 O124 O -0.13312 0.50050 -0.00967
 O125 O -0.02554 0.53425 -0.04748
 O126 O -0.02486 0.46003 -0.04665
 O127 O 0.07811 0.43911 0.05969
 O128 O 0.03170 0.39124 0.03509
 C129 C 0.06545 0.40045 0.05291
 O130 O -0.06142 0.55702 0.09664
 O131 O -0.03695 0.60370 0.04989
 C132 C -0.05514 0.59531 0.08296
 O133 O -0.06464 0.43666 0.09414
 O134 O -0.03552 0.38990 0.05035
 C135 C -0.05665 0.39842 0.08147
 O136 O 0.07326 0.55906 0.06448
 O137 O 0.02768 0.60504 0.03580
 C138 C 0.05985 0.59707 0.05656
 Zr139 Zr 0.04976 0.49830 0.04775
 O140 O 0.06282 0.49354 0.10981
 O141 O 0.11151 0.50408 0.03580
 Zr142 Zr -0.04860 0.49701 0.07005
 O143 O -0.03484 0.49284 0.13197
 O144 O -0.11046 0.50099 0.08226
 Zr145 Zr -0.01194 0.56061 0.00922
 Zr146 Zr -0.01082 0.43350 0.00975
 O147 O 0.00272 0.46055 0.06614
 O148 O 0.00212 0.53581 0.06636
 O149 O 0.04580 0.45967 -0.00315
 O150 O -0.06813 0.53400 0.02222
 O151 O 0.04463 0.53497 -0.00329
 O152 O -0.06790 0.45799 0.02280
 H153 H -0.03032 0.44131 -0.07005
 H154 H -0.09076 0.55370 0.02671
 H155 H 0.00872 0.44135 0.08902
 H156 H 0.06744 0.55439 -0.00853
 H157 H -0.14067 0.47265 0.00205
 H158 H -0.12363 0.47549 0.07040
 H159 H -0.01395 0.51446 0.13804
 H160 H 0.05254 0.51961 0.12278
 H161 H 0.11729 0.48433 0.01355
 H162 H 0.10091 0.47561 -0.05295
 H163 H -0.00715 0.51487 -0.11935
 H164 H -0.07192 0.50484 -0.10480
 O165 O 1.08458 -0.06716 0.44092
 O166 O 1.04647 -0.02627 0.39793
 C167 C 1.07287 -0.05551 0.40529
 O168 O 0.94688 -0.07540 0.55452
 O169 O 0.98387 -0.03443 0.59866
 C170 C 0.95775 -0.06400 0.59049
 O171 O 0.94816 -0.07666 0.44176
 O172 O 0.98057 -0.03180 0.39844
 C173 C 0.95708 -0.06364 0.40611
 O174 O 1.09369 -0.06134 0.55370
 O175 O 1.05260 -0.02764 0.59819
 C176 C 1.08259 -0.05194 0.58969
 Zr177 Zr 1.06785 -0.04325 0.49779
 O178 O 1.07483 -0.11023 0.50229
 O179 O 1.13050 -0.03624 0.49171
 Zr180 Zr 0.96670 -0.05220 0.49837
 O181 O 0.97228 -0.11948 0.50169
 O182 O 0.90361 -0.05762 0.49439
 O183 O 1.01701 -0.05542 0.46245
 O184 O 1.01865 -0.05610 0.53264
 O185 O 1.08042 0.08724 0.55606
 O186 O 1.04566 0.04433 0.59922
 C187 C 1.07015 0.07531 0.59166
 O188 O 0.93705 0.07871 0.44405
 O189 O 0.97640 0.04282 0.39951
 C190 C 0.94854 0.06987 0.40805
 O191 O 0.93740 0.07436 0.55663
 O192 O 0.97803 0.03618 0.59948
 C193 C 0.94924 0.06275 0.59221
 O194 O 1.07528 0.09169 0.44369
 O195 O 1.04183 0.04755 0.39944
 C196 C 1.06530 0.07945 0.40776
 Zr197 Zr 1.06020 0.06411 0.49946
 O198 O 1.05882 0.13147 0.50401
 O199 O 1.12336 0.06561 0.49508
 Zr200 Zr 0.95871 0.05537 0.49985
 O201 O 0.95211 0.12242 0.50463
 O202 O 0.89577 0.04758 0.49607
 Zr203 Zr 1.01204 0.00717 0.43954
 Zr204 Zr 1.01449 0.00513 0.55823
 O205 O 1.00952 0.06707 0.53408
 O206 O 1.00808 0.06885 0.46442
 O207 O 1.07242 0.01062 0.53453
 O208 O 0.95476 0.00157 0.46429
 O209 O 1.07048 0.01156 0.46361
 O210 O 0.95567 0.00038 0.53489
 H211 H 1.02103 -0.08129 0.55045
 H212 H 0.93111 -0.00001 0.44607
 H213 H 1.00776 0.09224 0.55196
 H214 H 1.09313 0.01355 0.44491
 H215 H 0.89248 -0.04047 0.51642
 H216 H 0.88716 0.03292 0.52073
 H217 H 0.96846 0.13567 0.48355
 H218 H 1.03592 0.14130 0.48741
 H219 H 1.13478 0.05498 0.52069
 H220 H 1.14039 -0.01887 0.51457
 H221 H 1.05498 -0.12342 0.48378
 H222 H 0.98729 -0.12896 0.47803
 C223 C 1.17997 0.10167 0.26729
 C224 C 1.16173 0.13770 0.24949
 C225 C 1.12855 0.15621 0.26847
 C226 C 1.11385 0.13885 0.30417
 C227 C 1.13180 0.10186 0.32064
 C228 C 1.16488 0.08370 0.30212
 C229 C 1.11613 0.08332 0.35519
 C230 C 1.08319 0.10164 0.37389
 C231 C 1.06623 0.13916 0.35846
 C232 C 1.08132 0.15758 0.32361
 H233 H 1.11427 0.18428 0.25580
 H234 H 1.17903 0.05544 0.31450
 H235 H 1.12921 0.05436 0.36738
 H236 H 1.06737 0.18617 0.31170
 H237 H 1.20547 0.08639 0.25381
 H238 H 1.04081 0.15358 0.37287
 C239 C 0.83172 -0.09396 0.27182
 C240 C 0.85059 -0.12873 0.25309
 C241 C 0.88675 -0.14423 0.26992
 C242 C 0.90388 -0.12507 0.30417
 C243 C 0.88466 -0.09000 0.32223
 C244 C 0.84857 -0.07486 0.30594
 C245 C 0.90207 -0.07043 0.35608
 C246 C 0.93838 -0.08553 0.37195
 C247 C 0.95736 -0.12034 0.35415
 C248 C 0.94018 -0.14011 0.32047
 H249 H 0.90196 -0.17098 0.25634
 H250 H 0.83343 -0.04804 0.31947
 H251 H 0.88772 -0.04323 0.36988
 H252 H 0.95539 -0.16688 0.30701
 H253 H 0.80387 -0.08110 0.26009
 H254 H 0.98561 -0.13192 0.36614
 C255 C 0.88081 0.06882 0.76235
 C256 C 0.87358 0.11291 0.76345
 C257 C 0.88252 0.13829 0.73019
 C258 C 0.89800 0.11962 0.69564
 C259 C 0.90629 0.07534 0.69512
 C260 C 0.89768 0.05021 0.72863
 C261 C 0.92285 0.05691 0.66103
 C262 C 0.92978 0.08180 0.62692
 C263 C 0.92019 0.12538 0.62709
 C264 C 0.90485 0.14432 0.66142
 H265 H 0.87610 0.17222 0.73076
 H266 H 0.90343 0.01616 0.72849
 H267 H 0.93018 0.02319 0.66090
 H268 H 0.89836 0.17821 0.66123
 H269 H 0.87362 0.04887 0.78774
 H270 H 0.92579 0.14503 0.60109
 C271 C 1.10076 -0.16501 0.73841
 C272 C 1.13804 -0.14918 0.75261
 C273 C 1.15862 -0.11915 0.72899
 C274 C 1.14140 -0.10409 0.69294
 C275 C 1.10317 -0.11905 0.68052
 C276 C 1.08349 -0.14992 0.70305
 C277 C 1.08473 -0.10233 0.64612
 C278 C 1.10418 -0.07134 0.62342
 C279 C 1.14268 -0.05747 0.63470
 C280 C 1.16117 -0.07363 0.66944
 H281 H 1.18749 -0.10682 0.73886
 H282 H 1.05437 -0.16198 0.69365
 H283 H 1.05497 -0.11293 0.63718
 H284 H 1.19054 -0.06184 0.67825
 H285 H 1.08395 -0.18844 0.75512
 H286 H 1.15782 -0.03327 0.61734
 C287 C 0.28357 1.10713 1.17201
 C288 C 0.26125 1.13612 1.14822
 C289 C 0.27504 1.14573 1.10953
 C290 C 0.30947 1.12572 1.09467
 C291 C 0.33119 1.09670 1.11908
 C292 C 0.31814 1.08799 1.15774
 C293 C 0.36514 1.07612 1.10417
 C294 C 0.37704 1.08338 1.06478
 C295 C 0.35556 1.11220 1.04063
 C296 C 0.32218 1.13348 1.05550
 H297 H 0.25851 1.16771 1.09049
 H298 H 0.33437 1.06581 1.17682
 H299 H 0.38152 1.05346 1.12265
 H300 H 0.30599 1.15546 1.03618
 H301 H 0.27445 1.09893 1.20201
 H302 H 0.36477 1.11828 1.01024
 C303 C 0.23935 0.85670 0.90511
 C304 C 0.23335 0.86086 0.86336
 C305 C 0.26356 0.88051 0.84067
 C306 C 0.29949 0.89427 0.85930
 C307 C 0.30427 0.89056 0.90129
 C308 C 0.27401 0.87201 0.92385
 C309 C 0.33938 0.90520 0.92019
 C310 C 0.37066 0.92206 0.89767
 C311 C 0.36665 0.92442 0.85587
 C312 C 0.33104 0.91112 0.83681
 H313 H 0.25994 0.88358 0.80850
 H314 H 0.27736 0.86879 0.95604
 H315 H 0.34262 0.90315 0.95251
 H316 H 0.32822 0.91390 0.80457
 H317 H 0.21687 0.84217 0.92378
 H318 H 0.39056 0.93773 0.83821
 C319 C 0.72893 0.90424 1.16798
 C320 C 0.74756 0.86844 1.15077
 C321 C 0.72938 0.84932 1.11672
 C322 C 0.69352 0.86544 1.10039
 C323 C 0.67554 0.90157 1.11788
 C324 C 0.69346 0.92068 1.15162
 C325 C 0.64027 0.91837 1.10093
 C326 C 0.62272 0.89931 1.06693
 C327 C 0.64040 0.86329 1.04985
 C328 C 0.67553 0.84631 1.06655
 H329 H 0.74290 0.82172 1.10282
 H330 H 0.68008 0.94844 1.16534
 H331 H 0.62697 0.94684 1.11350
 H332 H 0.68895 0.81868 1.05265
 H333 H 0.74186 0.92005 1.19401
 H334 H 0.62755 0.84900 1.02301
 C335 C 0.75565 1.07096 0.84672
 C336 C 0.76539 1.11346 0.85723
 C337 C 0.73889 1.13651 0.88143
 C338 C 0.70299 1.11784 0.89397
 C339 C 0.69434 1.07482 0.88405
 C340 C 0.72090 1.05165 0.86062
 C341 C 0.65911 1.05574 0.89756
 C342 C 0.63169 1.07965 0.91939
 C343 C 0.63963 1.12265 0.92816
 C344 C 0.67535 1.14155 0.91595
 H345 H 0.74537 1.16943 0.88941
 H346 H 0.71457 1.01871 0.85261
 H347 H 0.65281 1.02242 0.89091
 H348 H 0.68135 1.17462 0.92364
 H349 H 0.77527 1.05207 0.82831
 H350 H 0.61873 1.14113 0.94549
 C351 C 0.10344 0.22719 0.13346
 C352 C 0.14534 0.23112 0.13448
 C353 C 0.16333 0.26663 0.11622
 C354 C 0.13947 0.29880 0.09865
 C355 C 0.09728 0.29439 0.09781
 C356 C 0.07966 0.25815 0.11480
 C357 C 0.07335 0.32695 0.08127
 C358 C 0.09088 0.36475 0.06705
 C359 C 0.13277 0.36891 0.06799
 C360 C 0.15688 0.33601 0.08314
 H361 H 0.19562 0.27016 0.11739
 H362 H 0.04742 0.25427 0.11462
 H363 H 0.04102 0.32366 0.08103
 H364 H 0.18909 0.34013 0.08361
 H365 H 0.08904 0.20002 0.14731
 H366 H 0.14688 0.39768 0.05692
 C367 C -0.09171 0.23095 -0.13429
 C368 C -0.13350 0.22578 -0.13513
 C369 C -0.15755 0.25597 -0.11573
 C370 C -0.13989 0.29106 -0.09583
 C371 C -0.09772 0.29505 -0.09432
 C372 C -0.07395 0.26499 -0.11372
 C373 C -0.07990 0.32927 -0.07375
 C374 C -0.10352 0.36062 -0.05575
 C375 C -0.14537 0.35735 -0.05822
 C376 C -0.16347 0.32239 -0.07761
 H377 H -0.18983 0.25240 -0.11651
 H378 H -0.04160 0.26783 -0.11300
 H379 H -0.04753 0.33224 -0.07273
 H380 H -0.19582 0.32008 -0.07869
 H381 H -0.07258 0.20799 -0.14878
 H382 H -0.16395 0.38156 -0.04480
 C383 C 0.11869 0.76673 -0.08633
 C384 C 0.11922 0.76633 -0.12834
 C385 C 0.09954 0.73339 -0.14946
 C386 C 0.08085 0.70016 -0.12881
 C387 C 0.08044 0.70083 -0.08652
 C388 C 0.09896 0.73448 -0.06556
 C389 C 0.06262 0.66715 -0.06584
 C390 C 0.04671 0.63195 -0.08677
 C391 C 0.04726 0.63134 -0.12872
 C392 C 0.06372 0.66556 -0.14967
 H393 H 0.10031 0.73260 -0.18189
 H394 H 0.09905 0.73525 -0.03312
 H395 H 0.06268 0.66746 -0.03336
 H396 H 0.06384 0.66459 -0.18209
 H397 H 0.13368 0.79190 -0.06957
 H398 H 0.03487 0.60445 -0.14522
 C399 C -0.14279 0.76659 0.10251
 C400 C -0.14231 0.76807 0.14449
 C401 C -0.12267 0.73571 0.16631
 C402 C -0.10488 0.70134 0.14629
 C403 C -0.10537 0.70045 0.10400
 C404 C -0.12403 0.73338 0.08243
 C405 C -0.08788 0.66624 0.08386
 C406 C -0.07117 0.63192 0.10522
 C407 C -0.07116 0.63257 0.14722
 C408 C -0.08739 0.66735 0.16764
 H409 H -0.12245 0.73656 0.19872
 H410 H -0.12467 0.73317 0.05002
 H411 H -0.08842 0.66556 0.05144
 H412 H -0.08673 0.66733 0.20004
 H413 H -0.15744 0.79139 0.08516
 H414 H -0.05824 0.60644 0.16420
 C415 C 1.18589 0.13020 0.72756
 C416 C 1.15865 0.15543 0.74904
 C417 C 1.12067 0.16349 0.73180
 C418 C 1.10908 0.14399 0.69557
 C419 C 1.13644 0.11788 0.67496
 C420 C 1.17504 0.11206 0.69077
 C421 C 1.12422 0.09674 0.63973
 C422 C 1.08465 0.10039 0.62585
 C423 C 1.05765 0.12638 0.64623
 C424 C 1.06990 0.14854 0.68057
 H425 H 1.09907 0.18267 0.74762
 H426 H 1.19642 0.09223 0.67539
 H427 H 1.14480 0.07612 0.62410
 H428 H 1.04843 0.16817 0.69602
 H429 H 1.21558 0.12364 0.73945
 H430 H 1.02692 0.12914 0.63569
 C431 C 0.84044 -0.09388 0.72922
 C432 C 0.85836 -0.13101 0.74530
 C433 C 0.89236 -0.14763 0.72614
 C434 C 0.90806 -0.12757 0.69207
 C435 C 0.88985 -0.09016 0.67676
 C436 C 0.85607 -0.07368 0.69554
 C437 C 0.90588 -0.06977 0.64306
 C438 C 0.93979 -0.08644 0.62448
 C439 C 0.95752 -0.12376 0.63952
 C440 C 0.94182 -0.14419 0.67309
 H441 H 0.90682 -0.17616 0.73761
 H442 H 0.84174 -0.04502 0.68425
 H443 H 0.89222 -0.04088 0.63139
 H444 H 0.95620 -0.17286 0.68429
 H445 H 0.81436 -0.07990 0.74282
 H446 H 0.98373 -0.13687 0.62543
 C447 C 1.16177 -0.07638 0.24574
 C448 C 1.15012 -0.11895 0.23780
 C449 C 1.12600 -0.14023 0.26583
 C450 C 1.11421 -0.11972 0.30105
 C451 C 1.12503 -0.07660 0.30786
 C452 C 1.14880 -0.05526 0.28004
 C453 C 1.11180 -0.05564 0.34238
 C454 C 1.08932 -0.07787 0.37076
 C455 C 1.07990 -0.12103 0.36453
 C456 C 1.09182 -0.14172 0.32968
 H457 H 1.11704 -0.17317 0.26088
 H458 H 1.15759 -0.02228 0.28491
 H459 H 1.11900 -0.02223 0.34728
 H460 H 1.08344 -0.17485 0.32506
 H461 H 1.18027 -0.05888 0.22503
 H462 H 1.06221 -0.13830 0.38612
 C463 C 0.80947 0.13270 0.29968
 C464 C 0.83298 0.15274 0.27046
 C465 C 0.87477 0.15489 0.27650
 C466 C 0.89291 0.13489 0.30955
 C467 C 0.86896 0.11565 0.33907
 C468 C 0.82722 0.11546 0.33421
 C469 C 0.88728 0.09568 0.37217
 C470 C 0.92912 0.09241 0.37459
 C471 C 0.95260 0.11030 0.34446
 C472 C 0.93471 0.13225 0.31264
 H473 H 0.89361 0.16930 0.25405
 H474 H 0.80838 0.10075 0.35646
 H475 H 0.86912 0.08124 0.39516
 H476 H 0.95352 0.14616 0.28993
 H477 H 0.77722 0.13083 0.29617
 H478 H 0.98488 0.10759 0.34580
 C479 C 0.12842 0.23390 -0.08846
 C480 C 0.12607 0.23273 -0.13065
 C481 C 0.10200 0.26295 -0.15083
 C482 C 0.08340 0.29576 -0.12934
 C483 C 0.08639 0.29645 -0.08705
 C484 C 0.10816 0.26486 -0.06692
 C485 C 0.06897 0.32971 -0.06555
 C486 C 0.05044 0.36359 -0.08581
 C487 C 0.04778 0.36319 -0.12775
 C488 C 0.06352 0.32908 -0.14939
 H489 H 0.10009 0.26298 -0.18326
 H490 H 0.11077 0.26503 -0.03454
 H491 H 0.07148 0.33034 -0.03312
 H492 H 0.06120 0.32941 -0.18177
 H493 H 0.14611 0.21083 -0.07181
 H494 H 0.03338 0.38921 -0.14367
 C495 C -0.17147 0.24811 0.11246
 C496 C -0.15847 0.23862 0.15185
 C497 C -0.12574 0.26172 0.16822
 C498 C -0.10759 0.29465 0.14646
 C499 C -0.12102 0.30363 0.10703
 C500 C -0.15263 0.27987 0.09018
 C501 C -0.10322 0.33690 0.08547
 C502 C -0.07330 0.36225 0.10347
 C503 C -0.06022 0.35352 0.14263
 C504 C -0.07687 0.31953 0.16386
 H505 H -0.11516 0.25532 0.19846
 H506 H -0.16335 0.28645 0.06002
 H507 H -0.11341 0.34400 0.05521
 H508 H -0.06626 0.31322 0.19409
 H509 H -0.19631 0.23100 0.09862
 H510 H -0.03698 0.37291 0.15663
 C511 C -0.09198 0.75340 -0.15234
 C512 C -0.13357 0.75919 -0.15039
 C513 C -0.15653 0.73019 -0.12809
 C514 C -0.13824 0.69632 -0.10740
 C515 C -0.09620 0.69178 -0.10819
 C516 C -0.07339 0.72019 -0.13109
 C517 C -0.07780 0.65883 -0.08619
 C518 C -0.10105 0.62950 -0.06465
 C519 C -0.14282 0.63342 -0.06507
 C520 C -0.16128 0.66695 -0.08582
 H521 H -0.18872 0.73403 -0.12680
 H522 H -0.04116 0.71687 -0.13233
 H523 H -0.04553 0.65537 -0.08656
 H524 H -0.19357 0.66978 -0.08521
 H525 H -0.07370 0.77537 -0.16921
 H526 H -0.16109 0.61086 -0.04885
 C527 C 0.10681 0.74570 0.16956
 C528 C 0.13809 0.76288 0.14657
 C529 C 0.14817 0.74202 0.11067
 C530 C 0.12694 0.70561 0.09764
 C531 C 0.09531 0.68932 0.12083
 C532 C 0.08573 0.70942 0.15683
 C533 C 0.07355 0.65345 0.10740
 C534 C 0.08323 0.63371 0.07120
 C535 C 0.11469 0.64977 0.04836
 C536 C 0.13643 0.68552 0.06146
 H537 H 0.17204 0.75439 0.09234
 H538 H 0.06162 0.69733 0.17499
 H539 H 0.04906 0.64098 0.12490
 H540 H 0.16043 0.69764 0.04318
 H541 H 0.09807 0.76051 0.19737
 H542 H 0.12219 0.63478 0.02023
 C543 C 0.23744 1.12432 0.90574
 C544 C 0.24213 1.14268 0.86784
 C545 C 0.28007 1.14455 0.85064
 C546 C 0.31336 1.12807 0.87133
 C547 C 0.30815 1.10825 0.90892
 C548 C 0.27018 1.10670 0.92598
 C549 C 0.34091 1.08988 0.92870
 C550 C 0.37916 1.09186 0.91206
 C551 C 0.38448 1.11319 0.87553
 C552 C 0.35171 1.13089 0.85513
 H553 H 0.28369 1.15948 0.82163
 H554 H 0.26584 1.09196 0.95494
 H555 H 0.33644 1.07350 0.95687
 H556 H 0.35628 1.14636 0.82654
 H557 H 0.20825 1.12299 0.91935
 H558 H 0.41370 1.11487 0.86206
 C559 C 0.23852 0.91868 1.11566
 C560 C 0.23703 0.87455 1.12291
 C561 C 0.26830 0.84844 1.10963
 C562 C 0.30151 0.86656 1.09055
 C563 C 0.30249 0.91101 1.08311
 C564 C 0.27064 0.93669 1.09535
 C565 C 0.33580 0.92928 1.06458
 C566 C 0.36897 0.90408 1.05476
 C567 C 0.36801 0.86005 1.06262
 C568 C 0.33430 0.84131 1.07986
 H569 H 0.26759 0.81444 1.11575
 H570 H 0.27103 0.97084 1.09005
 H571 H 0.33652 0.96343 1.05909
 H572 H 0.33418 0.80722 1.08548
 H573 H 0.21472 0.93925 1.12578
 H574 H 0.39323 0.84011 1.05513
 C575 C 0.69816 1.12833 1.19158
 C576 C 0.73014 1.14053 1.16726
 C577 C 0.72878 1.13062 1.12634
 C578 C 0.69601 1.10866 1.10969
 C579 C 0.66327 1.09752 1.13394
 C580 C 0.66469 1.10744 1.17493
 C581 C 0.62988 1.07667 1.11667
 C582 C 0.62962 1.06587 1.07583
 C583 C 0.66292 1.07598 1.05246
 C584 C 0.69566 1.09752 1.06914
 H585 H 0.75373 1.13915 1.10755
 H586 H 0.64008 1.09884 1.19408
 H587 H 0.60438 1.06860 1.13488
 H588 H 0.72066 1.10560 1.05028
 H589 H 0.69887 1.13547 1.22331
 H590 H 0.66317 1.06826 1.02084
 C591 C 0.76314 0.87110 0.89424
 C592 C 0.76087 0.86615 0.85251
 C593 C 0.72525 0.87660 0.83189
 C594 C 0.69176 0.89079 0.85314
 C595 C 0.69465 0.89612 0.89514
 C596 C 0.73054 0.88650 0.91533
 C597 C 0.66152 0.91054 0.91642
 C598 C 0.62495 0.91878 0.89660
 C599 C 0.62196 0.91251 0.85500
 C600 C 0.65520 0.89902 0.83338
 H601 H 0.72321 0.87220 0.79973
 H602 H 0.73321 0.89023 0.94752
 H603 H 0.66406 0.91486 0.94858
 H604 H 0.65229 0.89489 0.80127
 H605 H 0.79035 0.86308 0.91058
 H606 H 0.59415 0.91893 0.83907
   
