data_POSCAR
  _audit_creation_date              2014-09-24
  _audit_creation_method            'ToBaCCo'
  _symmetry_space_group_name_H-M    'P1'
  _symmetry_Int_Tables_number       1
  _symmetry_cell_setting            triclinic
  loop_
  _symmetry_equiv_pos_as_xyz
 x,y,z
_cell_length_a 33.6278
_cell_length_b 33.6995
_cell_length_c 33.2434
_cell_angle_alpha 65.510700
_cell_angle_beta 64.510800
_cell_angle_gamma 125.937300
loop_
  _atom_site_label
  _atom_site_type_symbol
  _atom_site_fract_x
  _atom_site_fract_y
  _atom_site_fract_z
O1 O 0.46115 0.46981 0.07335
 O2 O 0.31579 0.40959 0.08906
 O3 O 0.37112 0.37846 0.07995
 O4 O 0.39336 0.48935 0.09554
 O5 O 0.57434 0.67325 -0.08373
 O6 O 0.54962 0.56079 -0.09940
 O7 O 0.49583 0.59426 -0.08972
 O8 O 0.64079 0.65241 -0.10608
 Cu9 Cu 0.36764 0.41912 0.10224
 Cu10 Cu 0.58268 0.63826 -0.11234
 C11 C 0.57544 0.56980 -0.01918
 C12 C 0.38130 0.49233 0.00199
 C13 C 0.45729 0.45075 -0.01234
 C14 C 0.48656 0.59947 0.00934
 O15 O -0.10199 0.41631 0.57988
 O16 O -0.06126 0.33762 0.57053
 O17 O -0.08366 0.36258 0.63616
 O18 O -0.07681 0.39568 0.51127
 O19 O 0.12181 0.58630 0.34703
 O20 O 0.11452 0.55404 0.47180
 O21 O 0.13713 0.52873 0.40644
 O22 O 0.09642 0.60750 0.41482
 Cu23 Cu -0.10078 0.35852 0.59085
 Cu24 Cu 0.13733 0.58787 0.39382
 C25 C -0.00957 0.52563 0.49903
 C26 C 0.04481 0.41964 0.48676
 C27 C 0.01449 0.45441 0.57478
 C28 C 0.02305 0.49666 0.40814
 O29 O 0.61193 0.08810 0.48044
 O30 O 0.65003 0.09837 0.35166
 O31 O 0.57993 0.10106 0.42214
 O32 O 0.68586 0.08826 0.40768
 O33 O 0.49839 -0.10937 0.57001
 O34 O 0.39254 -0.09678 0.58531
 O35 O 0.46191 -0.09926 0.51470
 O36 O 0.42492 -0.10939 0.64266
 Cu37 Cu 0.65127 0.11381 0.39900
 Cu38 Cu 0.42627 -0.12322 0.59395
 C39 C 0.51144 -0.01235 0.58378
 C40 C 0.56042 0.00080 0.41199
 C41 C 0.46714 0.00333 0.50708
 C42 C 0.61062 -0.01223 0.48643
 O43 O 0.38579 -0.05387 0.02781
 O44 O 0.37892 -0.08573 0.15232
 O45 O 0.36293 -0.02873 0.09335
 O46 O 0.40425 -0.10685 0.08444
 O47 O 0.60276 0.08448 -0.08002
 O48 O 0.56122 0.16259 -0.07099
 O49 O 0.57729 0.10531 -0.01178
 O50 O 0.58402 0.13751 -0.13650
 Cu51 Cu 0.36317 -0.08747 0.10567
 Cu52 Cu 0.60104 0.14190 -0.09113
 C53 C 0.48591 0.04571 -0.07520
 C54 C 0.47753 0.00411 0.09132
 C55 C 0.45502 0.08031 0.01291
 C56 C 0.51042 -0.02469 0.00054
 O57 O 0.00049 0.61048 0.93057
 O58 O 0.10796 0.59959 0.91427
 O59 O 0.07547 0.61186 0.85700
 O60 O 0.03768 0.60131 0.98536
 O61 O -0.15014 0.40364 1.14826
 O62 O -0.11160 0.41419 1.01932
 O63 O -0.07928 0.40173 1.07730
 O64 O -0.18681 0.41282 1.09300
 Cu65 Cu 0.07366 0.62548 0.90592
 Cu66 Cu -0.15131 0.38818 1.10097
 C67 C -0.11185 0.51312 1.01432
 C68 C 0.03351 0.49956 0.99243
 C69 C -0.01100 0.51475 0.91603
 C70 C -0.06076 0.50116 1.08806
 O71 O 0.10505 0.00946 0.40235
 O72 O 0.12667 0.12036 0.41767
 O73 O 0.18197 0.08914 0.40914
 O74 O 0.03714 0.02893 0.42406
 O75 O -0.14293 -0.15419 0.60353
 O76 O 0.00134 -0.09511 0.58841
 O77 O -0.05276 -0.06228 0.59715
 O78 O -0.07560 -0.17420 0.58160
 Cu79 Cu 0.13045 0.07966 0.39552
 Cu80 Cu -0.08518 -0.13969 0.61037
 C81 C 0.01225 -0.10049 0.48857
 C82 C 0.03995 0.04794 0.50995
 C83 C 0.11574 0.00659 0.49685
 C84 C -0.07724 -0.07129 0.51645
 C85 C -0.24301 0.69460 0.87288
 C86 C -0.19346 0.70372 0.86665
 C87 C -0.26850 0.60520 0.96129
 C88 C -0.39294 0.49954 1.06310
 C89 C -0.44239 0.49064 1.06969
 C90 C -0.36865 0.58680 0.97444
 N91 N -0.21822 0.61187 0.95222
 N92 N -0.28613 0.51818 1.03296
 C93 C -0.23989 0.52029 1.02694
 C94 C -0.32139 0.41115 1.11579
 C95 C -0.28002 0.40891 1.11241
 C96 C -0.15569 0.51631 1.01952
 C97 C -0.07381 0.62617 0.93051
 C98 C -0.11546 0.62824 0.93399
 H99 H -0.18350 0.77061 0.79794
 H100 H -0.09714 0.78620 0.78760
 H101 H -0.45221 0.42312 1.13733
 H102 H -0.53916 0.40680 1.14927
 H103 H -0.41723 0.32728 1.18721
 H104 H -0.34544 0.32285 1.18212
 H105 H 0.02251 0.71045 0.85775
 H106 H -0.05069 0.71375 0.86417
 C107 C 0.20030 0.35798 1.10727
 C108 C 0.14661 0.34074 1.11416
 C109 C 0.21822 0.43758 1.02244
 C110 C 0.34509 0.55071 0.92124
 C111 C 0.39903 0.56765 0.91359
 C112 C 0.32729 0.47232 1.00732
 N113 N 0.16118 0.42189 1.03542
 N114 N 0.22410 0.51139 0.95688
 C115 C 0.17235 0.50271 0.96703
 C116 C 0.25084 0.60872 0.87744
 C117 C 0.20525 0.60685 0.88578
 C118 C 0.07968 0.49841 0.98397
 C119 C 0.00036 0.39094 1.07356
 C120 C 0.04638 0.39305 1.06537
 H121 H 0.14228 0.28225 1.18065
 H122 H 0.04897 0.25257 1.19194
 H123 H 0.40268 0.62694 0.84866
 H124 H 0.49703 0.65694 0.83497
 H125 H 0.34796 0.69370 0.80156
 H126 H 0.26879 0.69089 0.81543
 H127 H -0.09688 0.30584 1.15040
 H128 H -0.01605 0.30983 1.13597
 C129 C -0.14005 -0.53322 0.59924
 C130 C -0.15292 -0.50236 0.60593
 C131 C -0.05105 -0.38215 0.51720
 C132 C 0.06436 -0.29216 0.41979
 C133 C 0.07761 -0.32266 0.41308
 C134 C -0.02415 -0.44379 0.50340
 N135 N -0.06581 -0.35379 0.52996
 N136 N 0.02277 -0.24583 0.44967
 C137 C 0.01268 -0.21447 0.46174
 C138 C 0.11183 -0.09467 0.36813
 C139 C 0.10992 -0.05843 0.37687
 C140 C 0.00886 -0.14160 0.47989
 C141 C -0.09193 -0.26263 0.57396
 C142 C -0.09033 -0.29898 0.56503
 H143 H -0.22079 -0.62731 0.67044
 H144 H -0.24243 -0.57248 0.68118
 H145 H 0.14467 -0.19841 0.34988
 H146 H 0.16808 -0.25091 0.33733
 H147 H 0.19223 -0.02841 0.28806
 H148 H 0.18929 0.03554 0.30279
 H149 H -0.17051 -0.32849 0.65434
 H150 H -0.16764 -0.39197 0.63859
 C151 C 0.17668 0.47836 0.38440
 C152 C 0.19105 0.44836 0.37833
 C153 C 0.09091 0.32825 0.46956
 C154 C -0.02465 0.23766 0.56786
 C155 C -0.03943 0.26746 0.57365
 C156 C 0.06101 0.38814 0.48190
 N157 N 0.10779 0.30054 0.45860
 N158 N 0.02441 0.19501 0.54078
 C159 C 0.03782 0.16509 0.52970
 C160 C -0.05375 0.04966 0.62363
 C161 C -0.05056 0.01291 0.61700
 C162 C 0.04454 0.09132 0.51582
 C163 C 0.13938 0.20916 0.42093
 C164 C 0.13609 0.24574 0.42778
 H165 H 0.25577 0.57208 0.31220
 H166 H 0.28038 0.51887 0.30204
 H167 H -0.10377 0.14401 0.63926
 H168 H -0.12971 0.19599 0.64953
 H169 H -0.12924 -0.01286 0.70249
 H170 H -0.12431 -0.07794 0.69142
 H171 H 0.21419 0.27202 0.34163
 H172 H 0.20814 0.33556 0.35394
 C173 C 0.38498 -0.12627 -0.25264
 C174 C 0.36945 -0.12897 -0.20438
 C175 C 0.46175 -0.02252 -0.26831
 C176 C 0.57213 0.08744 -0.38204
 C177 C 0.58980 0.09083 -0.43104
 C178 C 0.49563 -0.01600 -0.36702
 N179 N 0.44269 -0.02835 -0.21628
 N180 N 0.52240 0.06533 -0.26980
 C181 C 0.50537 0.05953 -0.21818
 C182 C 0.60330 0.16598 -0.28330
 C183 C 0.59607 0.16262 -0.23686
 C184 C 0.48871 0.05223 -0.12355
 C185 C 0.38685 -0.05386 -0.05746
 C186 C 0.39547 -0.05060 -0.10432
 H187 H 0.31008 -0.21078 -0.19993
 H188 H 0.28519 -0.21435 -0.11680
 H189 H 0.64487 0.17060 -0.43295
 H190 H 0.67738 0.17740 -0.51917
 H191 H 0.68713 0.25163 -0.37075
 H192 H 0.67562 0.24607 -0.28996
 H193 H 0.30207 -0.13994 0.03024
 H194 H 0.31751 -0.13417 -0.05185
 C195 C 0.67731 0.11083 0.25004
 C196 C 0.67875 0.11628 0.20521
 C197 C 0.57017 0.01597 0.27275
 C198 C 0.46080 -0.09365 0.38651
 C199 C 0.45981 -0.10012 0.43136
 C200 C 0.56706 0.00327 0.36372
 N201 N 0.57234 0.02975 0.22428
 N202 N 0.47559 -0.05240 0.28103
 C203 C 0.47751 -0.03689 0.23244
 C204 C 0.36791 -0.13085 0.29949
 C205 C 0.36735 -0.11811 0.25409
 C206 C 0.47687 -0.00935 0.14025
 C207 C 0.58653 0.08601 0.07324
 C208 C 0.58688 0.07174 0.11889
 H209 H 0.76173 0.19156 0.19578
 H210 H 0.76418 0.20019 0.11753
 H211 H 0.37579 -0.17331 0.44072
 H212 H 0.37407 -0.18478 0.51917
 H213 H 0.28282 -0.21401 0.38707
 H214 H 0.28127 -0.19323 0.30812
 H215 H 0.67223 0.17157 -0.01457
 H216 H 0.67243 0.14561 0.06554
 C217 C 0.39009 -0.44234 0.12128
 C218 C 0.38879 -0.40600 0.13031
 C219 C 0.48789 -0.28622 0.03686
 C220 C 0.59014 -0.20193 -0.06656
 C221 C 0.59112 -0.23841 -0.07573
 C222 C 0.49053 -0.35930 0.01816
 N223 N 0.47832 -0.25478 0.04929
 N224 N 0.56688 -0.14683 -0.03106
 C225 C 0.55269 -0.11819 -0.01817
 C226 C 0.65452 0.00224 -0.10772
 C227 C 0.64165 0.03308 -0.10096
 C228 C 0.52611 -0.05658 -0.00416
 C229 C 0.42459 -0.17756 0.08684
 C230 C 0.43762 -0.20819 0.08004
 H231 H 0.31081 -0.53624 0.19518
 H232 H 0.30894 -0.47205 0.21045
 H233 H 0.66740 -0.10893 -0.14007
 H234 H 0.66908 -0.17271 -0.15618
 H235 H 0.74371 0.07235 -0.18361
 H236 H 0.72169 0.12699 -0.17237
 H237 H 0.33456 -0.24883 0.16277
 H238 H 0.35740 -0.30199 0.15042
 C239 C 0.54799 0.48594 -0.11952
 C240 C 0.55126 0.44913 -0.12597
 C241 C 0.45967 0.33372 -0.03191
 C242 C 0.36103 0.25293 0.06998
 C243 C 0.35754 0.28945 0.07669
 C244 C 0.45262 0.40741 -0.01831
 N245 N 0.47352 0.30398 -0.04275
 N246 N 0.39064 0.19878 0.03971
 C247 C 0.40771 0.17100 0.02930
 C248 C 0.30783 0.05085 0.12125
 C249 C 0.32259 0.02102 0.11555
 C250 C 0.43835 0.11147 0.01769
 C251 C 0.53842 0.23209 -0.07476
 C252 C 0.52327 0.26172 -0.06932
 H253 H 0.62199 0.57694 -0.19406
 H254 H 0.62704 0.51174 -0.20482
 H255 H 0.28893 0.16309 0.14393
 H256 H 0.28243 0.22644 0.15606
 H257 H 0.21836 -0.01990 0.19783
 H258 H 0.24362 -0.07276 0.18831
 H259 H 0.62872 0.30374 -0.15102
 H260 H 0.60218 0.35542 -0.14140
 C261 C -0.22212 0.09153 0.39040
 C262 C -0.18113 0.08880 0.38711
 C263 C -0.26208 -0.02047 0.47356
 C264 C -0.38572 -0.12812 0.56442
 C265 C -0.42728 -0.12574 0.56824
 C266 C -0.34582 -0.01574 0.48129
 N267 N -0.21600 -0.01880 0.46715
 N268 N -0.28381 -0.11317 0.54621
 C269 C -0.23346 -0.10671 0.53655
 C270 C -0.30858 -0.20586 0.63071
 C271 C -0.25881 -0.19665 0.62410
 C272 C -0.13300 -0.08826 0.52263
 C273 C -0.05922 0.00837 0.42769
 C274 C -0.10890 -0.00062 0.43470
 H275 H -0.15699 0.17775 0.32233
 H276 H -0.08624 0.17220 0.31787
 H277 H -0.45011 -0.21375 0.63248
 H278 H -0.52321 -0.20999 0.63963
 H279 H -0.40509 -0.28883 0.70973
 H280 H -0.31824 -0.27294 0.69874
 H281 H 0.03777 0.09275 0.34809
 H282 H -0.04976 0.07608 0.36085
 C283 C 0.29537 -0.10420 0.61358
 C284 C 0.24977 -0.10623 0.62168
 C285 C 0.32819 -0.00025 0.53219
 C286 C 0.45417 0.10966 0.43412
 C287 C 0.50025 0.11194 0.42614
 C288 C 0.42097 0.00446 0.51559
 N289 N 0.27620 -0.00951 0.54212
 N290 N 0.33839 0.07983 0.46465
 C291 C 0.28020 0.06240 0.47815
 C292 C 0.35109 0.16058 0.38870
 C293 C 0.29741 0.14318 0.39541
 C294 C 0.17157 0.02719 0.49248
 C295 C 0.09975 -0.07042 0.58423
 C296 C 0.15350 -0.05313 0.57713
 H297 H 0.23177 -0.18835 0.68389
 H298 H 0.15267 -0.19136 0.69722
 H299 H 0.51647 0.19278 0.36359
 H300 H 0.59746 0.19710 0.34950
 H301 H 0.44834 0.25016 0.31271
 H302 H 0.35431 0.21987 0.32424
 H303 H 0.00242 -0.16090 0.66035
 H304 H 0.09622 -0.13069 0.64800
 C305 C 0.13310 0.61789 1.24560
 C306 C 0.13219 0.63056 1.20046
 C307 C 0.02255 0.53778 1.26745
 C308 C -0.08681 0.43011 1.38093
 C309 C -0.08625 0.41569 1.42641
 C310 C 0.02359 0.51011 1.35933
 N311 N 0.02439 0.55347 1.21891
 N312 N -0.07247 0.47154 1.27578
 C313 C -0.07058 0.48535 1.22751
 C314 C -0.17907 0.38471 1.29513
 C315 C -0.17767 0.39040 1.25024
 C316 C -0.06761 0.49843 1.13652
 C317 C 0.03936 0.60200 1.06896
 C318 C 0.03850 0.59538 1.11379
 H319 H 0.21938 0.69224 1.19150
 H320 H 0.21709 0.71278 1.11307
 H321 H -0.17260 0.35711 1.43443
 H322 H -0.17192 0.33081 1.51417
 H323 H -0.26432 0.30028 1.38288
 H324 H -0.26187 0.30945 1.30446
 H325 H 0.12492 0.68699 0.98115
 H326 H 0.12347 0.67529 1.05950
 C327 C -0.09612 0.33764 0.73648
 C328 C -0.10347 0.33446 0.78286
 C329 C -0.00485 0.44100 0.71737
 C330 C 0.10554 0.55090 0.60343
 C331 C 0.11408 0.55392 0.55675
 C332 C 0.01177 0.44789 0.62304
 N333 N -0.02157 0.43567 0.76860
 N334 N 0.05814 0.52960 0.71473
 C335 C 0.03942 0.52422 0.76637
 C336 C 0.13067 0.63093 0.70228
 C337 C 0.11518 0.62862 0.75027
 C338 C 0.00592 0.51859 0.86419
 C339 C -0.08701 0.41155 0.92847
 C340 C -0.06970 0.41433 0.87998
 H341 H -0.17610 0.25419 0.78976
 H342 H -0.18787 0.24899 0.87045
 H343 H 0.18412 0.63462 0.55061
 H344 H 0.19925 0.63987 0.46894
 H345 H 0.21369 0.71593 0.61501
 H346 H 0.18843 0.71278 0.69824
 H347 H -0.17315 0.32556 1.01633
 H348 H -0.14148 0.33096 0.93103
   
