data_POSCAR
  _audit_creation_date              2014-09-24
  _audit_creation_method            'ToBaCCo'
  _symmetry_space_group_name_H-M    'P1'
  _symmetry_Int_Tables_number       1
  _symmetry_cell_setting            triclinic
  loop_
  _symmetry_equiv_pos_as_xyz
 x,y,z
_cell_length_a 48.0828
_cell_length_b 47.5778
_cell_length_c 49.0489
_cell_angle_alpha 90.105500
_cell_angle_beta 89.970500
_cell_angle_gamma 120.862000
loop_
  _atom_site_label
  _atom_site_type_symbol
  _atom_site_fract_x
  _atom_site_fract_y
  _atom_site_fract_z
C1 C -0.00055 0.49203 1.32964
 C2 C 0.02909 0.51117 1.31583
 C3 C 0.02824 0.51315 1.28720
 C4 C -0.00069 0.49437 1.27237
 C5 C -0.02959 0.47446 1.28691
 C6 C -0.03030 0.47420 1.31567
 C7 C -0.00069 0.49569 1.24174
 C8 C -0.02871 0.48937 1.22727
 C9 C -0.02915 0.48968 1.19865
 C10 C -0.00066 0.49832 1.18428
 C11 C 0.02782 0.50566 1.19807
 C12 C 0.02735 0.50336 1.22663
 H13 H -0.00046 0.49110 1.35161
 H14 H 0.05043 0.52841 1.27623
 H15 H -0.05183 0.46018 1.27572
 H16 H -0.05031 0.48466 1.23802
 H17 H -0.00067 0.49930 1.16223
 H18 H 0.04893 0.50707 1.23678
 C19 C 0.50787 0.50796 1.32710
 C20 C 0.49668 0.52602 1.31293
 C21 C 0.49806 0.52628 1.28423
 C22 C 0.50747 0.50694 1.26970
 C23 C 0.51713 0.48809 1.28469
 C24 C 0.51910 0.48958 1.31341
 C25 C 0.50785 0.50701 1.23898
 C26 C 0.52781 0.49850 1.22432
 C27 C 0.52775 0.49788 1.19572
 C28 C 0.50917 0.50795 1.18146
 C29 C 0.49008 0.51774 1.19532
 C30 C 0.48852 0.51598 1.22390
 H31 H 0.50536 0.50588 1.34900
 H32 H 0.49313 0.54287 1.27324
 H33 H 0.52442 0.47324 1.27387
 H34 H 0.54410 0.49284 1.23478
 H35 H 0.50897 0.50749 1.15937
 H36 H 0.47244 0.52213 1.23413
 C37 C 0.48537 0.99626 1.31218
 C38 C 0.46862 0.96736 1.29699
 C39 C 0.47073 0.96880 1.26852
 C40 C 0.49125 0.99856 1.25493
 C41 C 0.50891 1.02721 1.27095
 C42 C 0.50509 1.02678 1.29955
 C43 C 0.49393 0.99974 1.22426
 C44 C 0.50491 1.02933 1.20993
 C45 C 0.50825 1.03081 1.18145
 C46 C 0.49821 1.00186 1.16676
 C47 C 0.48590 0.97183 1.18024
 C48 C 0.48510 0.97120 1.20887
 H49 H 0.48437 0.99440 1.33418
 H50 H 0.45581 0.94639 1.25735
 H51 H 0.52484 1.05014 1.26107
 H52 H 0.51040 1.05151 1.22050
 H53 H 0.50051 1.00273 1.14476
 H54 H 0.47695 0.94806 1.21883
 C55 C 1.00032 0.48979 0.67098
 C56 C 0.97088 0.47291 0.68510
 C57 C 0.97118 0.47108 0.71360
 C58 C 1.00037 0.48816 0.72843
 C59 C 1.02958 0.50614 0.71368
 C60 C 1.03022 0.50613 0.68487
 C61 C 1.00034 0.48745 0.75913
 C62 C 1.02831 0.49403 0.77390
 C63 C 1.02883 0.49495 0.80251
 C64 C 1.00045 0.48702 0.81668
 C65 C 0.97202 0.47929 0.80267
 C66 C 0.97239 0.48050 0.77408
 H67 H 0.99952 0.49090 0.64899
 H68 H 0.94832 0.45665 0.72398
 H69 H 1.05204 0.51931 0.72471
 H70 H 1.04989 0.49815 0.76351
 H71 H 1.00051 0.48701 0.83876
 H72 H 0.95081 0.47660 0.76384
 C73 C 0.51157 0.51296 0.67275
 C74 C 0.52160 0.49375 0.68633
 C75 C 0.52059 0.49251 0.71495
 C76 C 0.51152 0.51173 0.73021
 C77 C 0.50256 0.53161 0.71596
 C78 C 0.50164 0.53165 0.68735
 C79 C 0.51145 0.51112 0.76080
 C80 C 0.49104 0.51861 0.77585
 C81 C 0.49138 0.51889 0.80447
 C82 C 0.51115 0.50988 0.81828
 C83 C 0.53104 0.50146 0.80388
 C84 C 0.53170 0.50299 0.77528
 H85 H 0.51070 0.51264 0.65067
 H86 H 0.52723 0.47667 0.72513
 H87 H 0.49669 0.54764 0.72690
 H88 H 0.47426 0.52372 0.76553
 H89 H 0.51101 0.50936 0.84035
 H90 H 0.54854 0.49827 0.76457
 C91 C 0.48669 0.00167 0.68790
 C92 C 0.49757 0.03052 0.70284
 C93 C 0.49692 0.02923 0.73135
 C94 C 0.48756 -0.00026 0.74528
 C95 C 0.47779 -0.02884 0.72958
 C96 C 0.47576 -0.02864 0.70083
 C97 C 0.48781 -0.00123 0.77600
 C98 C 0.46827 -0.03071 0.79034
 C99 C 0.46888 -0.03229 0.81910
 C100 C 0.48760 -0.00267 0.83352
 C101 C 0.50623 0.02717 0.81987
 C102 C 0.50724 0.02744 0.79131
 H103 H 0.48863 0.00346 0.66592
 H104 H 0.50346 0.05149 0.74232
 H105 H 0.47068 -0.05154 0.73982
 H106 H 0.45123 -0.05236 0.77922
 H107 H 0.48937 -0.00252 0.85550
 H108 H 0.52295 0.05044 0.78125
 O109 O 0.37374 0.65571 0.96800
 O110 O 0.37357 0.70994 0.97652
 C111 C 0.35265 0.71366 0.96371
 O112 O 0.32259 0.69672 0.96881
 O113 O 0.26914 0.64116 0.97832
 C114 C 0.26546 0.61654 0.96485
 O115 O 0.28171 0.60293 0.96972
 O116 O 0.33602 0.60449 0.97832
 C117 C 0.35978 0.62511 0.96395
 O118 O 0.37695 0.64786 1.02227
 O119 O 0.37407 0.70060 1.03058
 C120 C 0.35873 0.71520 1.03541
 O121 O 0.33295 0.70857 1.02271
 O122 O 0.28080 0.65195 1.03244
 C123 C 0.26631 0.62153 1.03742
 O124 O 0.27143 0.60189 1.02377
 O125 O 0.32735 0.60685 1.03237
 C126 C 0.35763 0.62311 1.03659
 Cr127 Cr 0.37282 0.67753 0.99936
 Cr128 Cr 0.30227 0.67375 1.00058
 Cr129 Cr 0.30496 0.60583 1.00102
 O130 O 0.32670 0.65243 1.00032
 O131 O 0.62776 0.35572 0.97461
 O132 O 0.62708 0.30076 0.96730
 C133 C 0.64094 0.28438 0.96394
 O134 O 0.66503 0.28908 0.97825
 O135 O 0.71985 0.34361 0.96998
 C136 C 0.73587 0.37398 0.96468
 O137 O 0.73196 0.39486 0.97765
 O138 O 0.67890 0.39486 0.96692
 C139 C 0.64895 0.38051 0.96139
 O140 O 0.62682 0.34688 1.02902
 O141 O 0.62332 0.29077 1.02150
 C142 C 0.64206 0.28535 1.03591
 O143 O 0.67248 0.30039 1.03230
 O144 O 0.72879 0.35358 1.02428
 C145 C 0.73397 0.37902 1.03722
 O146 O 0.71982 0.39451 1.03137
 O147 O 0.66818 0.39713 1.02060
 C148 C 0.64291 0.37737 1.03392
 Cr149 Cr 0.62802 0.32443 0.99814
 Cr150 Cr 0.69574 0.32263 1.00114
 Cr151 Cr 0.69876 0.39352 0.99914
 O152 O 0.67417 0.34685 0.99946
 O153 O 0.65602 0.37595 0.52200
 O154 O 0.70775 0.37239 0.53118
 C155 C 0.72134 0.35616 0.53646
 O156 O 0.71480 0.33030 0.52355
 O157 O 0.65825 0.27826 0.53241
 C158 C 0.62808 0.26435 0.53693
 O159 O 0.60925 0.26943 0.52235
 O160 O 0.61392 0.32598 0.53027
 C161 C 0.63032 0.35650 0.53506
 O162 O 0.66503 0.37374 0.46788
 O163 O 0.71785 0.37222 0.47704
 C164 C 0.72145 0.35097 0.46427
 O165 O 0.70487 0.32060 0.46956
 O166 O 0.64954 0.26682 0.47820
 C167 C 0.62613 0.26356 0.46373
 O168 O 0.61241 0.27987 0.46805
 O169 O 0.61400 0.33484 0.47618
 C170 C 0.63494 0.35960 0.46287
 Cr171 Cr 0.68568 0.37176 0.49954
 Cr172 Cr 0.68102 0.29994 0.50090
 Cr173 Cr 0.61419 0.30334 0.49923
 O174 O 0.66034 0.32508 0.49989
 O175 O 0.35020 0.62754 0.52193
 O176 O 0.29519 0.62461 0.53143
 C177 C 0.27888 0.63809 0.53666
 O178 O 0.28256 0.66281 0.52362
 O179 O 0.33611 0.71813 0.53247
 C180 C 0.36636 0.73506 0.53676
 O181 O 0.38683 0.73268 0.52202
 O182 O 0.38868 0.67940 0.53005
 C183 C 0.37506 0.64898 0.53492
 O184 O 0.33985 0.62807 0.46786
 O185 O 0.28393 0.62311 0.47734
 C186 C 0.27774 0.64254 0.46452
 O187 O 0.29189 0.67294 0.46968
 O188 O 0.34383 0.72981 0.47834
 C189 C 0.36775 0.73529 0.46347
 O190 O 0.38427 0.72183 0.46768
 O191 O 0.38927 0.67047 0.47600
 C192 C 0.36993 0.64475 0.46276
 Cr193 Cr 0.31811 0.62762 0.49965
 Cr194 Cr 0.31459 0.69515 0.50100
 Cr195 Cr 0.38549 0.70014 0.49897
 O196 O 0.33937 0.67422 0.49989
 C197 C 0.45463 0.57239 0.35663
 C198 C 0.44574 0.56273 0.32959
 C199 C 0.46012 0.54823 0.31495
 C200 C 0.48366 0.54281 0.32718
 C201 C 0.49283 0.55360 0.35438
 C202 C 0.47843 0.56813 0.36886
 C203 C 0.43883 0.58588 0.37223
 C204 C 0.42589 0.59690 0.38605
 C205 C 0.41108 0.60992 0.40347
 C206 C 0.37794 0.59138 0.40941
 C207 C 0.36421 0.60305 0.42811
 C208 C 0.38356 0.63339 0.44122
 C209 C 0.41669 0.65219 0.43452
 C210 C 0.43030 0.64049 0.41582
 H211 H 0.42719 0.56578 0.31995
 H212 H 0.45124 0.53972 0.29454
 H213 H 0.51175 0.55171 0.36455
 H214 H 0.48578 0.57591 0.38973
 H215 H 0.36286 0.56760 0.40003
 H216 H 0.33867 0.58796 0.43280
 H217 H 0.43230 0.67568 0.44412
 H218 H 0.45600 0.65501 0.41143
 C219 C 0.42311 0.87843 0.34316
 C220 C 0.44095 0.88092 0.31979
 C221 C 0.45443 0.90928 0.30387
 C222 C 0.45036 0.93552 0.31132
 C223 C 0.43123 0.93219 0.33418
 C224 C 0.41773 0.90383 0.34999
 C225 C 0.41235 0.85115 0.36138
 C226 C 0.40388 0.82932 0.37766
 C227 C 0.39405 0.80438 0.39812
 C228 C 0.41273 0.79010 0.40330
 C229 C 0.40413 0.76738 0.42443
 C230 C 0.37679 0.75882 0.44070
 C231 C 0.35800 0.77307 0.43504
 C232 C 0.36662 0.79569 0.41393
 H233 H 0.44536 0.86145 0.31441
 H234 H 0.46932 0.91136 0.28654
 H235 H 0.42746 0.95190 0.34020
 H236 H 0.40395 0.90213 0.36804
 H237 H 0.43416 0.79683 0.39126
 H238 H 0.41907 0.75682 0.42820
 H239 H 0.33672 0.76696 0.44704
 H240 H 0.35210 0.80674 0.41017
 C241 C 0.11809 0.55931 0.35970
 C242 C 0.11526 0.57232 0.33506
 C243 C 0.08607 0.55665 0.32053
 C244 C 0.05890 0.52756 0.33047
 C245 C 0.06249 0.51487 0.35544
 C246 C 0.09168 0.53059 0.36980
 C247 C 0.14783 0.57528 0.37500
 C248 C 0.17211 0.58788 0.38868
 C249 C 0.20026 0.60209 0.40598
 C250 C 0.21740 0.63577 0.41121
 C251 C 0.24318 0.64912 0.42972
 C252 C 0.25208 0.62886 0.44335
 C253 C 0.23517 0.59513 0.43742
 C254 C 0.20943 0.58187 0.41890
 H255 H 0.13554 0.59477 0.32717
 H256 H 0.08473 0.56836 0.30212
 H257 H 0.04336 0.49193 0.36361
 H258 H 0.09370 0.52011 0.38876
 H259 H 0.21043 0.65163 0.40139
 H260 H 0.25566 0.67518 0.43377
 H261 H 0.24137 0.57883 0.44749
 H262 H 0.19624 0.55573 0.41507
 C263 C 0.56086 0.44330 0.35765
 C264 C 0.56142 0.47080 0.36831
 C265 C 0.54742 0.48572 0.35392
 C266 C 0.53241 0.47349 0.32830
 C267 C 0.53203 0.44549 0.31791
 C268 C 0.54607 0.43062 0.33248
 C269 C 0.57496 0.42790 0.37298
 C270 C 0.58643 0.41526 0.38659
 C271 C 0.59936 0.40021 0.40383
 C272 C 0.63246 0.41661 0.41007
 C273 C 0.64438 0.40301 0.42867
 C274 C 0.62323 0.37290 0.44136
 C275 C 0.59014 0.35626 0.43433
 C276 C 0.57834 0.36985 0.41574
 H277 H 0.57295 0.48093 0.38777
 H278 H 0.54982 0.50778 0.36259
 H279 H 0.51988 0.43398 0.29904
 H280 H 0.54512 0.40901 0.32419
 H281 H 0.64894 0.44021 0.40104
 H282 H 0.66995 0.41647 0.43364
 H283 H 0.57317 0.33299 0.44359
 H284 H 0.55267 0.35698 0.41111
 C285 C 0.54977 0.11351 0.34774
 C286 C 0.52084 0.08614 0.35613
 C287 C 0.50623 0.05780 0.34026
 C288 C 0.52027 0.05600 0.31542
 C289 C 0.54943 0.08422 0.30707
 C290 C 0.56402 0.11259 0.32316
 C291 C 0.56491 0.14202 0.36498
 C292 C 0.57681 0.16495 0.38047
 C293 C 0.59034 0.19123 0.40002
 C294 C 0.57518 0.20915 0.40521
 C295 C 0.58701 0.23303 0.42569
 C296 C 0.61411 0.23916 0.44133
 C297 C 0.62946 0.22133 0.43561
 C298 C 0.61761 0.19753 0.41513
 H299 H 0.50944 0.08669 0.37503
 H300 H 0.48318 0.03779 0.34724
 H301 H 0.56205 0.08429 0.28881
 H302 H 0.58666 0.13365 0.31660
 H303 H 0.55391 0.20429 0.39372
 H304 H 0.57467 0.24633 0.42951
 H305 H 0.65043 0.22548 0.44716
 H306 H 0.62941 0.18367 0.41139
 C307 C 0.88058 0.42510 0.35937
 C308 C 0.90763 0.45238 0.37060
 C309 C 0.93686 0.46828 0.35636
 C310 C 0.93991 0.45724 0.33031
 C311 C 0.91215 0.42947 0.31929
 C312 C 0.88288 0.41361 0.33373
 C313 C 0.85060 0.40954 0.37438
 C314 C 0.82628 0.39782 0.38797
 C315 C 0.79825 0.38535 0.40533
 C316 C 0.79055 0.40717 0.41740
 C317 C 0.76507 0.39586 0.43604
 C318 C 0.74688 0.36245 0.44297
 C319 C 0.75428 0.34053 0.43019
 C320 C 0.77987 0.35196 0.41154
 H321 H 0.90603 0.46175 0.39034
 H322 H 0.95643 0.49024 0.36551
 H323 H 0.91300 0.41899 0.29996
 H324 H 0.86208 0.39231 0.32489
 H325 H 0.80469 0.43309 0.41282
 H326 H 0.76003 0.41341 0.44540
 H327 H 0.74079 0.31468 0.43504
 H328 H 0.78571 0.33487 0.40241
 C329 C 0.57535 0.45870 1.14861
 C330 C 0.57751 0.48801 1.14074
 C331 C 0.56305 0.50145 1.15659
 C332 C 0.54617 0.48568 1.18054
 C333 C 0.54507 0.45682 1.18879
 C334 C 0.55952 0.44337 1.17286
 C335 C 0.58793 0.44366 1.13096
 C336 C 0.59805 0.43137 1.11540
 C337 C 0.60994 0.41733 1.09599
 C338 C 0.63876 0.43760 1.08197
 C339 C 0.64959 0.42452 1.06199
 C340 C 0.63167 0.39087 1.05568
 C341 C 0.60291 0.37057 1.07017
 C342 C 0.59210 0.38377 1.09017
 H343 H 0.58976 0.50010 1.12203
 H344 H 0.56462 0.52391 1.14991
 H345 H 0.53196 0.44398 1.20698
 H346 H 0.55763 0.42062 1.17908
 H347 H 0.65268 0.46363 1.08625
 H348 H 0.67189 0.44085 1.05133
 H349 H 0.58857 0.34459 1.06586
 H350 H 0.56966 0.36788 1.10084
 C351 C 0.88393 0.45677 1.15201
 C352 C 0.91259 0.48514 1.14427
 C353 C 0.94064 0.49661 1.15997
 C354 C 0.94038 0.47977 1.18361
 C355 C 0.91116 0.45191 1.19173
 C356 C 0.88314 0.44045 1.17597
 C357 C 0.85609 0.44324 1.13436
 C358 C 0.83337 0.43158 1.11890
 C359 C 0.80702 0.41746 1.09968
 C360 C 0.79042 0.43361 1.09326
 C361 C 0.76617 0.42078 1.07333
 C362 C 0.75828 0.39164 1.05949
 C363 C 0.77473 0.37529 1.06651
 C364 C 0.79893 0.38815 1.08644
 H365 H 0.91348 0.49795 1.12575
 H366 H 0.96266 0.51836 1.15340
 H367 H 0.91030 0.43822 1.20965
 H368 H 0.86112 0.41836 1.18206
 H369 H 0.79656 0.45636 1.10333
 H370 H 0.75400 0.43400 1.06845
 H371 H 0.76927 0.35281 1.05632
 H372 H 0.81170 0.37550 1.09122
 C373 C 0.55296 0.12257 1.13870
 C374 C 0.52523 0.09532 1.12799
 C375 C 0.51027 0.06559 1.14208
 C376 C 0.52290 0.06276 1.16711
 C377 C 0.55048 0.09047 1.17792
 C378 C 0.56541 0.12016 1.16377
 C379 C 0.56912 0.15264 1.12347
 C380 C 0.58251 0.17738 1.11012
 C381 C 0.59802 0.20623 1.09335
 C382 C 0.57922 0.21657 1.07986
 C383 C 0.59373 0.24296 1.06182
 C384 C 0.62733 0.25938 1.05694
 C385 C 0.64619 0.24939 1.07121
 C386 C 0.63158 0.22292 1.08925
 H387 H 0.51536 0.09694 1.10860
 H388 H 0.48886 0.04483 1.13340
 H389 H 0.56101 0.08894 1.19696
 H390 H 0.58694 0.14106 1.17219
 H391 H 0.55322 0.20379 1.08284
 H392 H 0.57847 0.25001 1.05126
 H393 H 0.67209 0.26145 1.06792
 H394 H 0.64634 0.21504 1.09955
 C395 C 0.44034 0.55509 1.14879
 C396 C 0.42440 0.53354 1.17044
 C397 C 0.44052 0.52147 1.18588
 C398 C 0.47269 0.53073 1.17967
 C399 C 0.48851 0.55269 1.15808
 C400 C 0.47244 0.56472 1.14278
 C401 C 0.42394 0.56694 1.13208
 C402 C 0.41133 0.57724 1.11712
 C403 C 0.39743 0.58979 1.09827
 C404 C 0.36401 0.57275 1.09352
 C405 C 0.35094 0.58390 1.07382
 C406 C 0.37119 0.61223 1.05851
 C407 C 0.40470 0.62950 1.06383
 C408 C 0.41769 0.61831 1.08355
 H409 H 0.39949 0.52586 1.17520
 H410 H 0.42768 0.50443 1.20226
 H411 H 0.51344 0.56069 1.15311
 H412 H 0.48502 0.58143 1.12611
 H413 H 0.34813 0.55057 1.10473
 H414 H 0.32504 0.57003 1.07027
 H415 H 0.42099 0.65140 1.05250
 H416 H 0.44362 0.63161 1.08700
 C417 C 0.11475 0.54152 1.15071
 C418 C 0.11568 0.55598 1.17584
 C419 C 0.08763 0.54360 1.19171
 C420 C 0.05824 0.51667 1.18255
 C421 C 0.05780 0.50175 1.15763
 C422 C 0.08586 0.51413 1.14183
 C423 C 0.14284 0.55567 1.13333
 C424 C 0.16578 0.56753 1.11810
 C425 C 0.19244 0.58149 1.09918
 C426 C 0.20912 0.61513 1.09376
 C427 C 0.23362 0.62835 1.07405
 C428 C 0.24167 0.60802 1.05942
 C429 C 0.22513 0.57431 1.06542
 C430 C 0.20069 0.56118 1.08513
 H431 H 0.13788 0.57727 1.18287
 H432 H 0.08863 0.55581 1.21066
 H433 H 0.03565 0.48074 1.15022
 H434 H 0.08487 0.50272 1.12243
 H435 H 0.20285 0.63107 1.10445
 H436 H 0.24584 0.65437 1.06997
 H437 H 0.23072 0.55794 1.05462
 H438 H 0.18786 0.53510 1.08909
 C439 C 0.44419 0.88148 1.13520
 C440 C 0.43884 0.90646 1.12699
 C441 C 0.45286 0.93595 1.14140
 C442 C 0.47250 0.94094 1.16431
 C443 C 0.47802 0.91580 1.17229
 C444 C 0.46394 0.88625 1.15779
 C445 C 0.42914 0.85103 1.12035
 C446 C 0.41619 0.82595 1.10734
 C447 C 0.40060 0.79661 1.09104
 C448 C 0.37087 0.78696 1.07849
 C449 C 0.35672 0.75986 1.06104
 C450 C 0.37218 0.74204 1.05582
 C451 C 0.40165 0.75144 1.06914
 C452 C 0.41576 0.77857 1.08658
 H453 H 0.42356 0.90302 1.10956
 H454 H 0.44773 0.95460 1.13499
 H455 H 0.49329 0.91902 1.18965
 H456 H 0.46835 0.86711 1.16426
 H457 H 0.35895 0.80078 1.08176
 H458 H 0.33404 0.75334 1.05116
 H459 H 0.41423 0.73831 1.06561
 H460 H 0.43880 0.78585 1.09615
 C461 C 0.55779 0.44214 0.64039
 C462 C 0.56652 0.47409 0.63329
 C463 C 0.55464 0.49072 0.64821
 C464 C 0.53378 0.47561 0.67049
 C465 C 0.52514 0.44346 0.67754
 C466 C 0.53707 0.42682 0.66253
 C467 C 0.57011 0.42532 0.62464
 C468 C 0.58089 0.41220 0.61073
 C469 C 0.59418 0.39764 0.59328
 C470 C 0.62399 0.41758 0.58045
 C471 C 0.63611 0.40408 0.56201
 C472 C 0.61852 0.37034 0.55608
 C473 C 0.58889 0.35034 0.56959
 C474 C 0.57679 0.36395 0.58802
 H475 H 0.58260 0.48621 0.61623
 H476 H 0.56213 0.51561 0.64253
 H477 H 0.50888 0.43107 0.69442
 H478 H 0.53007 0.40203 0.66815
 H479 H 0.63761 0.44371 0.58432
 H480 H 0.65900 0.42019 0.55205
 H481 H 0.57471 0.32430 0.56552
 H482 H 0.55364 0.34830 0.59780
 C483 C 0.54088 0.11931 0.65634
 C484 C 0.51063 0.09286 0.64879
 C485 C 0.49578 0.06449 0.66463
 C486 C 0.51106 0.06218 0.68825
 C487 C 0.54082 0.08940 0.69635
 C488 C 0.55570 0.11778 0.68040
 C489 C 0.55741 0.14691 0.63831
 C490 C 0.57073 0.16904 0.62221
 C491 C 0.58575 0.19438 0.60197
 C492 C 0.56668 0.20294 0.58666
 C493 C 0.58055 0.22591 0.56573
 C494 C 0.61380 0.24068 0.55972
 C495 C 0.63292 0.23229 0.57550
 C496 C 0.61893 0.20922 0.59646
 H497 H 0.49892 0.09380 0.63023
 H498 H 0.47271 0.04402 0.65808
 H499 H 0.55326 0.08815 0.71429
 H500 H 0.57917 0.13808 0.68638
 H501 H 0.54096 0.19149 0.59066
 H502 H 0.56512 0.23185 0.55410
 H503 H 0.65856 0.24322 0.57146
 H504 H 0.63388 0.20262 0.60810
 C505 C 0.88072 0.43147 0.64139
 C506 C 0.88444 0.41354 0.66221
 C507 C 0.91374 0.42688 0.67648
 C508 C 0.93971 0.45829 0.67000
 C509 C 0.93563 0.47611 0.64913
 C510 C 0.90636 0.46277 0.63494
 C511 C 0.85106 0.41758 0.62601
 C512 C 0.82678 0.40623 0.61238
 C513 C 0.79854 0.39273 0.59517
 C514 C 0.78655 0.36180 0.58348
 C515 C 0.76085 0.34957 0.56498
 C516 C 0.74674 0.36818 0.55782
 C517 C 0.75837 0.39891 0.57027
 C518 C 0.78418 0.41113 0.58878
 H519 H 0.86480 0.38919 0.66726
 H520 H 0.91627 0.41250 0.69231
 H521 H 0.95497 0.50056 0.64399
 H522 H 0.90377 0.47686 0.61887
 H523 H 0.79752 0.34738 0.58821
 H524 H 0.75247 0.32578 0.55589
 H525 H 0.74811 0.41387 0.56521
 H526 H 0.79337 0.43518 0.59764
 C527 C 0.46234 0.58093 0.64257
 C528 C 0.44787 0.56490 0.66699
 C529 C 0.46122 0.54969 0.68198
 C530 C 0.48918 0.55023 0.67266
 C531 C 0.50400 0.56713 0.64844
 C532 C 0.49063 0.58234 0.63350
 C533 C 0.44717 0.59425 0.62601
 C534 C 0.43415 0.60459 0.61158
 C535 C 0.41840 0.61606 0.59365
 C536 C 0.38959 0.59349 0.58055
 C537 C 0.37511 0.60423 0.56188
 C538 C 0.38931 0.63780 0.55601
 C539 C 0.41796 0.66037 0.56973
 C540 C 0.43241 0.64953 0.58839
 H541 H 0.42586 0.56349 0.67411
 H542 H 0.44903 0.53654 0.70036
 H543 H 0.52576 0.56830 0.64093
 H544 H 0.50201 0.59466 0.61462
 H545 H 0.37858 0.56750 0.58444
 H546 H 0.35308 0.58619 0.55174
 H547 H 0.42954 0.68637 0.56572
 H548 H 0.45475 0.66721 0.59839
 C549 C 0.43720 0.88457 0.65298
 C550 C 0.45134 0.88608 0.67825
 C551 C 0.46396 0.91447 0.69424
 C552 C 0.46290 0.94212 0.68508
 C553 C 0.44811 0.93972 0.65954
 C554 C 0.43553 0.91137 0.64379
 C555 C 0.42479 0.85600 0.63592
 C556 C 0.41436 0.83304 0.62050
 C557 C 0.40208 0.80678 0.60095
 C558 C 0.42362 0.80181 0.58546
 C559 C 0.41196 0.77815 0.56485
 C560 C 0.37852 0.75917 0.55937
 C561 C 0.35699 0.76393 0.57543
 C562 C 0.36874 0.78765 0.59604
 H563 H 0.45297 0.86546 0.68548
 H564 H 0.47576 0.91490 0.71312
 H565 H 0.44494 0.95920 0.65188
 H566 H 0.42432 0.91035 0.62435
 H567 H 0.44949 0.81663 0.58898
 H568 H 0.42921 0.77507 0.55297
 H569 H 0.33112 0.74972 0.57181
 H570 H 0.35187 0.79146 0.60780
 C571 C 0.11930 0.55138 0.64116
 C572 C 0.09148 0.52511 0.62975
 C573 C 0.06221 0.51044 0.64401
 C574 C 0.06001 0.52170 0.67021
 C575 C 0.08856 0.54842 0.68136
 C576 C 0.11779 0.56304 0.66693
 C577 C 0.14909 0.56682 0.62592
 C578 C 0.17348 0.57974 0.61242
 C579 C 0.20178 0.59538 0.59534
 C580 C 0.21849 0.57937 0.58860
 C581 C 0.24434 0.59365 0.57013
 C582 C 0.25359 0.62405 0.55808
 C583 C 0.23716 0.64028 0.56562
 C584 C 0.21146 0.62602 0.58408
 H585 H 0.09241 0.51580 0.60981
 H586 H 0.04178 0.48932 0.63470
 H587 H 0.08845 0.55923 0.70072
 H588 H 0.13915 0.58373 0.67580
 H589 H 0.21110 0.55556 0.59714
 H590 H 0.25644 0.58050 0.56474
 H591 H 0.24370 0.66376 0.55686
 H592 H 0.19866 0.63860 0.58911
 C593 C 0.43854 0.55223 0.85177
 C594 C 0.43891 0.52417 0.85969
 C595 C 0.45535 0.51276 0.84395
 C596 C 0.47170 0.52933 0.82005
 C597 C 0.47051 0.55703 0.81189
 C598 C 0.45408 0.56843 0.82769
 C599 C 0.42349 0.56511 0.86905
 C600 C 0.41137 0.57586 0.88415
 C601 C 0.39735 0.58846 0.90291
 C602 C 0.36961 0.56683 0.91766
 C603 C 0.35706 0.57880 0.93715
 C604 C 0.37216 0.61266 0.94222
 C605 C 0.39971 0.63428 0.92688
 C606 C 0.41223 0.62222 0.90739
 H607 H 0.42693 0.51142 0.87827
 H608 H 0.45547 0.49112 0.85056
 H609 H 0.48317 0.57050 0.79376
 H610 H 0.45406 0.59025 0.82143
 H611 H 0.35796 0.54065 0.91441
 H612 H 0.33579 0.56146 0.94851
 H613 H 0.41192 0.66046 0.93024
 H614 H 0.43380 0.63918 0.89614
 C615 C 0.11552 0.53150 0.85011
 C616 C 0.11623 0.54649 0.82539
 C617 C 0.08835 0.53370 0.80926
 C618 C 0.05937 0.50583 0.81777
 C619 C 0.05926 0.49024 0.84214
 C620 C 0.08716 0.50304 0.85821
 C621 C 0.14306 0.54646 0.86808
 C622 C 0.16552 0.55923 0.88376
 C623 C 0.19164 0.57449 0.90313
 C624 C 0.19710 0.60237 0.91742
 C625 C 0.22141 0.61637 0.93724
 C626 C 0.24057 0.60259 0.94307
 C627 C 0.23518 0.57482 0.92827
 C628 C 0.21084 0.56087 0.90847
 H629 H 0.13802 0.56862 0.81899
 H630 H 0.08906 0.54644 0.79075
 H631 H 0.03741 0.46853 0.84904
 H632 H 0.08635 0.49123 0.87731
 H633 H 0.18230 0.61306 0.91348
 H634 H 0.22492 0.63774 0.94819
 H635 H 0.24948 0.56360 0.93219
 H636 H 0.20676 0.53924 0.89757
 C637 C 0.42181 0.87695 0.86175
 C638 C 0.43042 0.87800 0.83441
 C639 C 0.44510 0.90764 0.82015
 C640 C 0.45178 0.93715 0.83303
 C641 C 0.44202 0.93527 0.86054
 C642 C 0.42730 0.90556 0.87465
 C643 C 0.40858 0.84690 0.87697
 C644 C 0.39816 0.82220 0.89028
 C645 C 0.38640 0.79337 0.90694
 C646 C 0.40838 0.78638 0.91932
 C647 C 0.39734 0.75983 0.93712
 C648 C 0.36406 0.73986 0.94286
 C649 C 0.34206 0.74657 0.92970
 C650 C 0.35319 0.77317 0.91191
 H651 H 0.42650 0.85602 0.82424
 H652 H 0.45279 0.90735 0.79948
 H653 H 0.44491 0.95646 0.87130
 H654 H 0.42043 0.90498 0.89578
 H655 H 0.43415 0.80187 0.91566
 H656 H 0.41495 0.75542 0.94685
 H657 H 0.31631 0.73176 0.93364
 H658 H 0.33595 0.77838 0.90248
 C659 C 0.58154 0.46431 0.84948
 C660 C 0.56653 0.44961 0.82477
 C661 C 0.55103 0.46238 0.80947
 C662 C 0.55023 0.48995 0.81877
 C663 C 0.56620 0.50511 0.84323
 C664 C 0.58171 0.49233 0.85848
 C665 C 0.59492 0.44953 0.86647
 C666 C 0.60525 0.43687 0.88137
 C667 C 0.61663 0.42160 0.89996
 C668 C 0.59435 0.39259 0.91316
 C669 C 0.60493 0.37877 0.93267
 C670 C 0.63804 0.39385 0.93929
 C671 C 0.66035 0.42263 0.92542
 C672 C 0.64968 0.43641 0.90592
 H673 H 0.56609 0.42780 0.81770
 H674 H 0.53863 0.44996 0.79088
 H675 H 0.56634 0.52661 0.85073
 H676 H 0.59324 0.50389 0.87759
 H677 H 0.56870 0.38096 0.90875
 H678 H 0.58710 0.35661 0.94290
 H679 H 0.68599 0.43488 0.93000
 H680 H 0.66712 0.45893 0.89587
 C681 C 0.88571 0.44600 0.85011
 C682 C 0.91461 0.47394 0.85814
 C683 C 0.94247 0.48550 0.84223
 C684 C 0.94177 0.46918 0.81807
 C685 C 0.91234 0.44173 0.80969
 C686 C 0.88448 0.43016 0.82567
 C687 C 0.85793 0.43277 0.86774
 C688 C 0.83534 0.42190 0.88327
 C689 C 0.80920 0.40944 0.90260
 C690 C 0.80240 0.43107 0.91620
 C691 C 0.77831 0.41945 0.93617
 C692 C 0.76067 0.38595 0.94286
 C693 C 0.76738 0.36428 0.92877
 C694 C 0.79154 0.37600 0.90880
 H695 H 0.91579 0.48641 0.87700
 H696 H 0.96468 0.50694 0.84900
 H697 H 0.91119 0.42850 0.79132
 H698 H 0.86224 0.40845 0.81932
 H699 H 0.81601 0.45702 0.91163
 H700 H 0.77374 0.43682 0.94652
 H701 H 0.75424 0.33836 0.93339
 H702 H 0.79674 0.35907 0.89845
 C703 C 0.55594 0.11811 0.86416
 C704 C 0.52472 0.09367 0.87184
 C705 C 0.50885 0.06399 0.85766
 C706 C 0.52398 0.05829 0.83554
 C707 C 0.55549 0.08292 0.82808
 C708 C 0.57136 0.11263 0.84233
 C709 C 0.57205 0.14862 0.87892
 C710 C 0.58512 0.17378 0.89185
 C711 C 0.60038 0.20320 0.90807
 C712 C 0.58523 0.22139 0.91186
 C713 C 0.59889 0.24851 0.92936
 C714 C 0.62787 0.25768 0.94340
 C715 C 0.64334 0.23972 0.93882
 C716 C 0.62966 0.21269 0.92132
 H717 H 0.51256 0.09764 0.88871
 H718 H 0.48445 0.04572 0.86365
 H719 H 0.56791 0.07913 0.81135
 H720 H 0.59560 0.13132 0.83631
 H721 H 0.56249 0.21420 0.90176
 H722 H 0.58633 0.26173 0.93243
 H723 H 0.66569 0.24609 0.94922
 H724 H 0.64158 0.19877 0.91858
   
