data_POSCAR
  _audit_creation_date              2014-09-24
  _audit_creation_method            'ToBaCCo'
  _symmetry_space_group_name_H-M    'P1'
  _symmetry_Int_Tables_number       1
  _symmetry_cell_setting            triclinic
  loop_
  _symmetry_equiv_pos_as_xyz
 x,y,z
_cell_length_a 62.0899
_cell_length_b 62.1022
_cell_length_c 62.0877
_cell_angle_alpha 90.005800
_cell_angle_beta 89.997800
_cell_angle_gamma 89.965100
loop_
  _atom_site_label
  _atom_site_type_symbol
  _atom_site_fract_x
  _atom_site_fract_y
  _atom_site_fract_z
C1 C 0.20513 0.19477 0.22610
 C2 C 0.18767 0.19836 0.23998
 C3 C 0.17375 0.21577 0.23649
 C4 C 0.17717 0.22973 0.21910
 C5 C 0.19455 0.22638 0.20506
 C6 C 0.20861 0.20883 0.20854
 C7 C 0.21917 0.17738 0.22943
 C8 C 0.23655 0.17394 0.21545
 C9 C 0.24004 0.18785 0.19804
 C10 C 0.22616 0.20532 0.19446
 C11 C 0.22949 0.21935 0.17707
 C12 C 0.21552 0.23674 0.17365
 C13 C 0.19812 0.24025 0.18758
 H14 H 0.18488 0.18765 0.25349
 H15 H 0.16629 0.24317 0.21654
 H16 H 0.21661 0.16651 0.24287
 H17 H 0.25354 0.18505 0.18731
 H18 H 0.24292 0.21678 0.16619
 H19 H 0.18739 0.25376 0.18480
 C20 C 0.70529 0.69460 0.72608
 C21 C 0.68781 0.69811 0.73996
 C22 C 0.67382 0.71548 0.73647
 C23 C 0.67720 0.72947 0.71910
 C24 C 0.69460 0.72620 0.70506
 C25 C 0.70873 0.70869 0.70854
 C26 C 0.71939 0.67725 0.72940
 C27 C 0.73678 0.67389 0.71543
 C28 C 0.74024 0.68783 0.69803
 C29 C 0.72630 0.70526 0.69447
 C30 C 0.72959 0.71932 0.67710
 C31 C 0.71556 0.73666 0.67368
 C32 C 0.69813 0.74009 0.68761
 H33 H 0.68505 0.68737 0.75345
 H34 H 0.66628 0.74287 0.71655
 H35 H 0.71685 0.66636 0.74282
 H36 H 0.75375 0.68508 0.68731
 H37 H 0.74303 0.71680 0.66622
 H38 H 0.68736 0.75357 0.68482
 C39 C 0.29418 0.80567 0.72645
 C40 C 0.31163 0.80206 0.74036
 C41 C 0.32553 0.78462 0.73689
 C42 C 0.32210 0.77066 0.71951
 C43 C 0.30474 0.77402 0.70545
 C44 C 0.29070 0.79160 0.70890
 C45 C 0.28017 0.82309 0.72977
 C46 C 0.26279 0.82655 0.71577
 C47 C 0.25931 0.81261 0.69835
 C48 C 0.27317 0.79512 0.69481
 C49 C 0.26984 0.78107 0.67743
 C50 C 0.28379 0.76366 0.67403
 C51 C 0.30117 0.76014 0.68798
 H52 H 0.31442 0.81279 0.75386
 H53 H 0.33296 0.75720 0.71696
 H54 H 0.28279 0.83394 0.74322
 H55 H 0.24583 0.81538 0.68757
 H56 H 0.25643 0.78366 0.66653
 H57 H 0.31188 0.74661 0.68521
 C58 C 0.79520 0.30532 0.22639
 C59 C 0.81263 0.30179 0.24033
 C60 C 0.82660 0.28438 0.23692
 C61 C 0.82322 0.27036 0.21954
 C62 C 0.80586 0.27366 0.20546
 C63 C 0.79177 0.29121 0.20887
 C64 C 0.78113 0.32271 0.22965
 C65 C 0.76378 0.32609 0.21562
 C66 C 0.76035 0.31212 0.19824
 C67 C 0.77425 0.29466 0.19474
 C68 C 0.77097 0.28058 0.17738
 C69 C 0.78496 0.26319 0.17404
 C70 C 0.80234 0.25974 0.18801
 H71 H 0.81533 0.31259 0.25381
 H72 H 0.83408 0.25690 0.21699
 H73 H 0.78365 0.33362 0.24305
 H74 H 0.74687 0.31489 0.18747
 H75 H 0.75757 0.28311 0.16647
 H76 H 0.81308 0.24623 0.18528
 C77 C 0.79534 0.69492 0.27313
 C78 C 0.81283 0.69841 0.25926
 C79 C 0.82680 0.71579 0.26271
 C80 C 0.82337 0.72982 0.28008
 C81 C 0.80596 0.72656 0.29410
 C82 C 0.79186 0.70904 0.29064
 C83 C 0.78127 0.67756 0.26982
 C84 C 0.76386 0.67422 0.28379
 C85 C 0.76037 0.68820 0.30115
 C86 C 0.77428 0.70564 0.30470
 C87 C 0.77095 0.71972 0.32204
 C88 C 0.78495 0.73708 0.32544
 C89 C 0.80238 0.74049 0.31153
 H90 H 0.81557 0.68760 0.24579
 H91 H 0.83424 0.74325 0.28267
 H92 H 0.78383 0.66664 0.25643
 H93 H 0.74685 0.68547 0.31187
 H94 H 0.75750 0.71722 0.33291
 H95 H 0.81313 0.75397 0.31431
 C96 C 0.29533 0.19499 -0.22651
 C97 C 0.31283 0.19851 -0.24036
 C98 C 0.32673 0.21597 -0.23692
 C99 C 0.32321 0.23002 -0.21959
 C100 C 0.30578 0.22672 -0.20559
 C101 C 0.29176 0.20913 -0.20904
 C102 C 0.28133 0.17756 -0.22980
 C103 C 0.26391 0.17419 -0.21587
 C104 C 0.26034 0.18819 -0.19854
 C105 C 0.27417 0.20569 -0.19501
 C106 C 0.27075 0.21980 -0.17770
 C107 C 0.28468 0.23722 -0.17431
 C108 C 0.30212 0.24067 -0.18820
 H109 H 0.31564 0.18769 -0.25380
 H110 H 0.33402 0.24350 -0.21701
 H111 H 0.28396 0.16663 -0.24317
 H112 H 0.24681 0.18543 -0.18784
 H113 H 0.25730 0.21727 -0.16685
 H114 H 0.31281 0.25420 -0.18544
 C115 C 0.70495 0.30493 -0.22655
 C116 C 0.68747 0.30139 -0.24042
 C117 C 0.67353 0.28397 -0.23694
 C118 C 0.67700 0.26997 -0.21956
 C119 C 0.69440 0.27329 -0.20555
 C120 C 0.70846 0.29084 -0.20902
 C121 C 0.71898 0.32231 -0.22987
 C122 C 0.73638 0.32571 -0.21591
 C123 C 0.73990 0.31176 -0.19853
 C124 C 0.72603 0.29430 -0.19497
 C125 C 0.72939 0.28024 -0.17761
 C126 C 0.71543 0.26286 -0.17419
 C127 C 0.69801 0.25939 -0.18810
 H128 H 0.68470 0.31217 -0.25389
 H129 H 0.66616 0.25652 -0.21695
 H130 H 0.71640 0.33321 -0.24328
 H131 H 0.75341 0.31453 -0.18782
 H132 H 0.74283 0.28279 -0.16675
 H133 H 0.68729 0.24588 -0.18531
 C134 C 0.20545 0.80567 0.27337
 C135 C 0.18801 0.80208 0.25946
 C136 C 0.17411 0.78467 0.26291
 C137 C 0.17751 0.77070 0.28030
 C138 C 0.19487 0.77404 0.29437
 C139 C 0.20892 0.79160 0.29093
 C140 C 0.21947 0.82307 0.27007
 C141 C 0.23684 0.82651 0.28409
 C142 C 0.24030 0.81256 0.30150
 C143 C 0.22643 0.79509 0.30503
 C144 C 0.22975 0.78104 0.32242
 C145 C 0.21579 0.76365 0.32580
 C146 C 0.19842 0.76016 0.31184
 H147 H 0.18523 0.81281 0.24595
 H148 H 0.16665 0.75726 0.28283
 H149 H 0.21687 0.83392 0.25662
 H150 H 0.25377 0.81531 0.31230
 H151 H 0.24315 0.78361 0.33333
 H152 H 0.18771 0.74664 0.31460
 C153 C 0.44496 0.45520 0.47654
 C154 C 0.44851 0.43772 0.49042
 C155 C 0.46592 0.42379 0.48694
 C156 C 0.47992 0.42721 0.46957
 C157 C 0.47661 0.44461 0.45554
 C158 C 0.45905 0.45869 0.45902
 C159 C 0.42757 0.46924 0.47987
 C160 C 0.42417 0.48664 0.46590
 C161 C 0.43812 0.49013 0.44852
 C162 C 0.45559 0.47625 0.44496
 C163 C 0.46965 0.47958 0.42759
 C164 C 0.48704 0.46561 0.42418
 C165 C 0.49051 0.44819 0.43809
 H166 H 0.43777 0.43493 0.50390
 H167 H 0.49335 0.41633 0.46702
 H168 H 0.41667 0.46668 0.49328
 H169 H 0.43534 0.50364 0.43780
 H170 H 0.46710 0.49302 0.41672
 H171 H 0.50402 0.43746 0.43531
 C172 C -0.05557 -0.04462 0.97630
 C173 C -0.05208 -0.06214 0.99013
 C174 C -0.03469 -0.07610 0.98666
 C175 C -0.02064 -0.07265 0.96934
 C176 C -0.02388 -0.05521 0.95535
 C177 C -0.04142 -0.04111 0.95882
 C178 C -0.07294 -0.03055 0.97963
 C179 C -0.07628 -0.01310 0.96570
 C180 C -0.06226 -0.00959 0.94835
 C181 C -0.04481 -0.02350 0.94480
 C182 C -0.03069 -0.02015 0.92748
 C183 C -0.01332 -0.03415 0.92408
 C184 C -0.00992 -0.05161 0.93796
 H185 H -0.06286 -0.06496 1.00358
 H186 H -0.00722 -0.08355 0.96679
 H187 H -0.08385 -0.03319 0.99303
 H188 H -0.06493 0.00395 0.93763
 H189 H -0.03318 -0.00668 0.91664
 H190 H 0.00357 -0.06237 0.93518
 C191 C 1.05532 0.54477 0.97685
 C192 C 1.05174 0.56224 0.99073
 C193 C 1.03430 0.57617 0.98726
 C194 C 1.02031 0.57271 0.96988
 C195 C 1.02366 0.55532 0.95584
 C196 C 1.04123 0.54127 0.95932
 C197 C 1.07273 0.53075 0.98017
 C198 C 1.07617 0.51334 0.96620
 C199 C 1.06221 0.50985 0.94880
 C200 C 1.04472 0.52372 0.94525
 C201 C 1.03067 0.52037 0.92788
 C202 C 1.01326 0.53432 0.92447
 C203 C 1.00977 0.55173 0.93839
 H204 H 1.06252 0.56500 1.00421
 H205 H 1.00684 0.58355 0.96727
 H206 H 1.08359 0.53337 0.99361
 H207 H 1.06495 0.49635 0.93803
 H208 H 1.03324 0.50694 0.91700
 H209 H 0.99624 0.56244 0.93561
 C210 C 0.55563 0.04431 0.47655
 C211 C 0.55209 0.06175 0.49048
 C212 C 0.53463 0.07564 0.48710
 C213 C 0.52058 0.07223 0.46978
 C214 C 0.52389 0.05488 0.45569
 C215 C 0.54149 0.04084 0.45906
 C216 C 0.57307 0.03030 0.47978
 C217 C 0.57647 0.01293 0.46575
 C218 C 0.56245 0.00946 0.44840
 C219 C 0.54494 0.02332 0.44494
 C220 C 0.53082 0.02000 0.42762
 C221 C 0.51339 0.03394 0.42431
 C222 C 0.50993 0.05132 0.43829
 H223 H 0.56287 0.06453 0.50394
 H224 H 0.50711 0.08309 0.46731
 H225 H 0.58398 0.03291 0.49318
 H226 H 0.56517 -0.00401 0.43759
 H227 H 0.53336 0.00660 0.41670
 H228 H 0.49638 0.06202 0.43559
 C229 C -0.05543 0.04514 0.52395
 C230 C -0.05190 0.06262 0.51009
 C231 C -0.03450 0.07655 0.51357
 C232 C -0.02050 0.07311 0.53093
 C233 C -0.02379 0.05571 0.54495
 C234 C -0.04133 0.04164 0.54148
 C235 C -0.07281 0.03110 0.52063
 C236 C -0.07618 0.01369 0.53457
 C237 C -0.06223 0.01019 0.55196
 C238 C -0.04477 0.02407 0.55552
 C239 C -0.03070 0.02072 0.57288
 C240 C -0.01332 0.03469 0.57629
 C241 C -0.00988 0.05212 0.56239
 H242 H -0.06265 0.06543 0.49661
 H243 H -0.00708 0.08399 0.53348
 H244 H -0.08371 0.03367 0.50722
 H245 H -0.06498 -0.00333 0.56266
 H246 H -0.03323 0.00728 0.58374
 H247 H 0.00362 0.06285 0.56517
 C248 C 0.44456 0.54522 0.02345
 C249 C 0.44814 0.56266 0.00954
 C250 C 0.46558 0.57656 0.01299
 C251 C 0.47957 0.57312 0.03038
 C252 C 0.47621 0.55576 0.04444
 C253 C 0.45863 0.54174 0.04099
 C254 C 0.42714 0.53122 0.02015
 C255 C 0.42371 0.51387 0.03415
 C256 C 0.43764 0.51037 0.05155
 C257 C 0.45513 0.52422 0.05509
 C258 C 0.46918 0.52087 0.07247
 C259 C 0.48659 0.53480 0.07585
 C260 C 0.49010 0.55218 0.06190
 H261 H 0.43737 0.56540 -0.00395
 H262 H 0.49304 0.58394 0.03297
 H263 H 0.41626 0.53378 0.00673
 H264 H 0.43484 0.49689 0.06230
 H265 H 0.46660 0.50747 0.08336
 H266 H 0.50363 0.56287 0.06467
 C267 C 0.55548 -0.04498 0.02397
 C268 C 0.55191 -0.06243 0.01007
 C269 C 0.53451 -0.07635 0.01355
 C270 C 0.52054 -0.07294 0.03093
 C271 C 0.52387 -0.05558 0.04500
 C272 C 0.54141 -0.04151 0.04153
 C273 C 0.57287 -0.03095 0.02066
 C274 C 0.57628 -0.01358 0.03465
 C275 C 0.56236 -0.01011 0.05206
 C276 C 0.54489 -0.02398 0.05562
 C277 C 0.53085 -0.02067 0.07301
 C278 C 0.51347 -0.03464 0.07641
 C279 C 0.50999 -0.05202 0.06247
 H280 H 0.56264 -0.06521 -0.00344
 H281 H 0.50711 -0.08382 0.03349
 H282 H 0.58374 -0.03350 0.00722
 H283 H 0.56514 0.00338 0.06280
 H284 H 0.53341 -0.00725 0.08391
 H285 H 0.49649 -0.06274 0.06524
 C286 C 1.05511 0.45498 0.52315
 C287 C 1.05151 0.43757 0.50921
 C288 C 1.03412 0.42361 0.51270
 C289 C 1.02021 0.42696 0.53017
 C290 C 1.02359 0.44429 0.54427
 C291 C 1.04111 0.45838 0.54077
 C292 C 1.07247 0.46904 0.51981
 C293 C 1.07592 0.48637 0.53385
 C294 C 1.06206 0.48977 0.55132
 C295 C 1.04462 0.47587 0.55491
 C296 C 1.03065 0.47913 0.57236
 C297 C 1.01330 0.46513 0.57579
 C298 C 1.00977 0.44779 0.56181
 H299 H 1.06223 0.43489 0.49566
 H300 H 1.00678 0.41609 0.53280
 H301 H 1.08330 0.46655 0.50633
 H302 H 1.06487 0.50323 0.56210
 H303 H 1.03324 0.49251 0.58328
 H304 H 0.99629 0.43705 0.56461
 C305 C 0.40772 0.00970 0.22149
 H306 H 0.40858 0.02427 0.23100
 C307 C 0.42182 0.00671 0.20422
 H308 H 0.43354 0.01903 0.20033
 C309 C 0.39163 -0.02434 0.21507
 H310 H 0.38009 -0.03654 0.21954
 C311 C 0.40544 -0.02798 0.19768
 H312 H 0.40433 -0.04288 0.18868
 N313 N 0.39285 -0.00561 0.22642
 C314 C 0.34175 0.02866 0.26042
 H315 H 0.34083 0.01919 0.27502
 C316 C 0.32774 0.04599 0.25736
 H317 H 0.31602 0.04997 0.26966
 C318 C 0.35794 0.03490 0.22638
 H319 H 0.36947 0.03033 0.21419
 C320 C 0.34422 0.05235 0.22268
 H321 H 0.34539 0.06130 0.20774
 Zn322 Zn 0.37468 -0.00042 0.25036
 N323 N 0.35663 0.02361 0.24513
 C324 C 0.39148 0.02347 0.28572
 N325 N 0.39271 0.00472 0.27442
 C326 C 0.40752 -0.01064 0.27946
 C327 C 0.42156 -0.00765 0.29678
 C328 C 0.40523 0.02711 0.30316
 C329 C 0.34175 -0.02937 0.24008
 C330 C 0.32768 -0.04665 0.24303
 C331 C 0.34392 -0.05312 0.27781
 C332 C 0.35770 -0.03571 0.27422
 N333 N 0.35655 -0.02439 0.25547
 H334 H 0.38000 0.03571 0.28117
 H335 H 0.40839 -0.02523 0.26997
 H336 H 0.43324 -0.02000 0.30073
 H337 H 0.40413 0.04204 0.31212
 H338 H 0.34094 -0.01987 0.22549
 H339 H 0.31602 -0.05057 0.23065
 H340 H 0.34498 -0.06210 0.29273
 H341 H 0.36917 -0.03121 0.28648
 C342 C 0.32904 0.05797 0.23834
 C343 C 0.42061 -0.01228 0.19218
 C344 C 0.32883 -0.05866 0.26204
 C345 C 0.42035 0.01138 0.30876
 C346 C 0.09245 -0.01004 0.72122
 H347 H 0.09157 -0.02461 0.73072
 C348 C 0.07837 -0.00701 0.70393
 H349 H 0.06665 -0.01932 0.70003
 C350 C 0.10858 0.02399 0.71485
 H351 H 0.12012 0.03619 0.71935
 C352 C 0.09480 0.02766 0.69745
 H353 H 0.09592 0.04257 0.68847
 N354 N 0.10733 0.00526 0.72618
 C355 C 0.15835 -0.02902 0.76028
 H356 H 0.15926 -0.01954 0.77487
 C357 C 0.17236 -0.04636 0.75725
 H358 H 0.18407 -0.05033 0.76957
 C359 C 0.14222 -0.03529 0.72622
 H360 H 0.13070 -0.03074 0.71401
 C361 C 0.15593 -0.05275 0.72255
 H362 H 0.15478 -0.06172 0.70762
 Zn363 Zn 0.12546 0.00006 0.75016
 N364 N 0.14350 -0.02398 0.74496
 C365 C 0.10859 -0.02379 0.78550
 N366 N 0.10739 -0.00505 0.77419
 C367 C 0.09257 0.01032 0.77920
 C368 C 0.07852 0.00736 0.79651
 C369 C 0.09483 -0.02740 0.80293
 C370 C 0.15843 0.02898 0.73992
 C371 C 0.17250 0.04626 0.74288
 C372 C 0.15619 0.05276 0.77763
 C373 C 0.14241 0.03535 0.77403
 N374 N 0.14360 0.02402 0.75529
 H375 H 0.12007 -0.03605 0.78097
 H376 H 0.09173 0.02491 0.76971
 H377 H 0.06685 0.01972 0.80045
 H378 H 0.09591 -0.04233 0.81190
 H379 H 0.15926 0.01948 0.72534
 H380 H 0.18417 0.05017 0.73052
 H381 H 0.15511 0.06175 0.79255
 H382 H 0.13092 0.03086 0.78627
 C383 C 0.17109 -0.05836 0.73824
 C384 C 0.07961 0.01199 0.69192
 C385 C 0.17132 0.05829 0.76189
 C386 C 0.07971 -0.01166 0.80851
 C387 C 0.59222 0.49010 0.22091
 H388 H 0.59138 0.47550 0.23039
 C389 C 0.57814 0.49311 0.20363
 H390 H 0.56645 0.48078 0.19970
 C391 C 0.60827 0.52417 0.21460
 H392 H 0.61978 0.53639 0.21911
 C393 C 0.59448 0.52783 0.19719
 H394 H 0.59557 0.54276 0.18823
 N395 N 0.60707 0.50542 0.22590
 C396 C 0.65820 0.47126 0.25994
 H397 H 0.65910 0.48075 0.27452
 C398 C 0.67225 0.45395 0.25691
 H399 H 0.68398 0.45002 0.26922
 C400 C 0.64204 0.46492 0.22590
 H401 H 0.63049 0.46943 0.21371
 C402 C 0.65580 0.44749 0.22223
 H403 H 0.65465 0.43851 0.20732
 Zn404 Zn 0.62522 0.50024 0.24986
 N405 N 0.64331 0.47624 0.24464
 C406 C 0.60846 0.47631 0.28520
 N407 N 0.60719 0.49507 0.27391
 C408 C 0.59236 0.51040 0.27897
 C409 C 0.57835 0.50738 0.29631
 C410 C 0.59475 0.47265 0.30266
 C411 C 0.65813 0.52921 0.23960
 C412 C 0.67218 0.54651 0.24255
 C413 C 0.65590 0.55299 0.27731
 C414 C 0.64213 0.53556 0.27372
 N415 N 0.64332 0.52423 0.25498
 H416 H 0.61995 0.46409 0.28062
 H417 H 0.59146 0.52499 0.26950
 H418 H 0.56667 0.51971 0.30030
 H419 H 0.59589 0.45771 0.31160
 H420 H 0.65896 0.51970 0.22502
 H421 H 0.68385 0.55042 0.23018
 H422 H 0.65482 0.56197 0.29223
 H423 H 0.63065 0.53106 0.28597
 C424 C 0.67099 0.44194 0.23791
 C425 C 0.57934 0.51213 0.19164
 C426 C 0.67101 0.55853 0.26156
 C427 C 0.57961 0.48835 0.30829
 C428 C 0.90813 0.50968 0.72122
 H429 H 0.90901 0.52427 0.73070
 C430 C 0.92218 0.50664 0.70393
 H431 H 0.93390 0.51895 0.69999
 C432 C 0.89199 0.47564 0.71491
 H433 H 0.88046 0.46346 0.71942
 C434 C 0.90576 0.47196 0.69749
 H435 H 0.90462 0.45704 0.68852
 N436 N 0.89324 0.49439 0.72621
 C437 C 0.84217 0.52872 0.76018
 H438 H 0.84124 0.51925 0.77478
 C439 C 0.82817 0.54606 0.75712
 H440 H 0.81644 0.55004 0.76942
 C441 C 0.85837 0.53496 0.72615
 H442 H 0.86991 0.53040 0.71396
 C443 C 0.84466 0.55242 0.72245
 H444 H 0.84584 0.56137 0.70752
 Zn445 Zn 0.87509 0.49964 0.75016
 N446 N 0.85706 0.52367 0.74490
 C447 C 0.89188 0.52358 0.78547
 N448 N 0.89311 0.50480 0.77421
 C449 C 0.90791 0.48945 0.77930
 C450 C 0.92191 0.49246 0.79664
 C451 C 0.90559 0.52724 0.80293
 C452 C 0.84212 0.47073 0.73991
 C453 C 0.82804 0.45346 0.74286
 C454 C 0.84429 0.44697 0.77763
 C455 C 0.85809 0.46437 0.77403
 N456 N 0.85693 0.47569 0.75529
 H457 H 0.88042 0.53582 0.78088
 H458 H 0.90878 0.47483 0.76985
 H459 H 0.93357 0.48011 0.80065
 H460 H 0.90448 0.54219 0.81186
 H461 H 0.84132 0.48023 0.72532
 H462 H 0.81637 0.44955 0.73048
 H463 H 0.84534 0.43799 0.79255
 H464 H 0.86957 0.46886 0.78629
 C465 C 0.82947 0.55804 0.73810
 C466 C 0.92093 0.48763 0.69192
 C467 C 0.82918 0.44145 0.76187
 C468 C 0.92069 0.51151 0.80859
 C469 C 0.22047 0.40845 0.01011
 H470 H 0.22998 0.40927 0.02468
 C471 C 0.20315 0.42250 0.00718
 H472 H 0.19922 0.43415 0.01957
 C473 C 0.21413 0.39250 -0.02403
 H474 H 0.21865 0.38105 -0.03630
 C475 C 0.19668 0.40627 -0.02759
 H476 H 0.18769 0.40521 -0.04251
 N477 N 0.22547 0.39367 -0.00530
 C478 C 0.25978 0.34257 0.02864
 H479 H 0.27436 0.34176 0.01913
 C480 C 0.25683 0.32846 0.04590
 H481 H 0.26920 0.31677 0.04979
 C482 C 0.22567 0.35857 0.03506
 H483 H 0.21342 0.37007 0.03059
 C484 C 0.22208 0.34475 0.05245
 H485 H 0.20717 0.34581 0.06144
 Zn486 Zn 0.24951 0.37559 -0.00023
 N487 N 0.24441 0.35740 0.02371
 C488 C 0.28483 0.39240 0.02371
 N489 N 0.27348 0.39370 0.00499
 C490 C 0.27843 0.40860 -0.01030
 C491 C 0.29573 0.42265 -0.00728
 C492 C 0.30225 0.40616 0.02737
 C493 C 0.23940 0.34276 -0.02937
 C494 C 0.24245 0.32876 -0.04671
 C495 C 0.27716 0.34519 -0.05306
 C496 C 0.27346 0.35889 -0.03560
 N497 N 0.25471 0.35760 -0.02430
 H498 H 0.28035 0.38085 0.03590
 H499 H 0.26891 0.40951 -0.02487
 H500 H 0.29963 0.43439 -0.01958
 H501 H 0.31126 0.40499 0.04227
 H502 H 0.22481 0.34184 -0.01989
 H503 H 0.23015 0.31705 -0.05069
 H504 H 0.29209 0.34633 -0.06200
 H505 H 0.28566 0.37039 -0.03102
 C506 C 0.23783 0.32961 0.05794
 C507 C 0.19112 0.42135 -0.01182
 C508 C 0.26149 0.33003 -0.05868
 C509 C 0.30777 0.42136 0.01170
 C510 C 0.72148 0.09168 -0.01006
 H511 H 0.73094 0.09079 -0.02466
 C512 C 0.70417 0.07765 -0.00702
 H513 H 0.70021 0.06595 -0.01934
 C514 C 0.71522 0.10780 0.02402
 H515 H 0.71976 0.11931 0.03622
 C516 C 0.69779 0.09406 0.02770
 H517 H 0.68884 0.09520 0.04263
 N518 N 0.72650 0.10654 0.00525
 C519 C 0.76053 0.15752 -0.02908
 H520 H 0.77515 0.15841 -0.01964
 C521 C 0.75746 0.17154 -0.04641
 H522 H 0.76977 0.18322 -0.05041
 C523 C 0.72644 0.14143 -0.03526
 H524 H 0.71424 0.12993 -0.03068
 C525 C 0.72273 0.15515 -0.05270
 H526 H 0.70777 0.15402 -0.06161
 Zn527 Zn 0.75048 0.12462 0.00000
 N528 N 0.74522 0.14268 -0.02401
 C529 C 0.78575 0.10775 -0.02399
 N530 N 0.77449 0.10653 -0.00521
 C531 C 0.77954 0.09171 0.01012
 C532 C 0.79685 0.07767 0.00710
 C533 C 0.80319 0.09400 -0.02766
 C534 C 0.74036 0.15758 0.02900
 C535 C 0.74338 0.17164 0.04630
 C536 C 0.77814 0.15528 0.05266
 C537 C 0.77447 0.14152 0.03525
 N538 N 0.75570 0.14274 0.02397
 H539 H 0.78119 0.11924 -0.03622
 H540 H 0.77009 0.09086 0.02474
 H541 H 0.80083 0.06599 0.01943
 H542 H 0.81212 0.09509 -0.04261
 H543 H 0.72575 0.15844 0.01954
 H544 H 0.73105 0.18333 0.05026
 H545 H 0.79308 0.15418 0.06161
 H546 H 0.78669 0.13002 0.03070
 C547 C 0.73841 0.17029 -0.05834
 C548 C 0.69219 0.07891 0.01201
 C549 C 0.76242 0.17043 0.05826
 C550 C 0.80881 0.07887 -0.01195
 C551 C 0.22094 0.59213 0.48962
 H552 H 0.23048 0.59128 0.47507
 C553 C 0.20365 0.57806 0.49256
 H554 H 0.19977 0.56636 0.48020
 C555 C 0.21448 0.60818 0.52369
 H556 H 0.21894 0.61968 0.53594
 C557 C 0.19706 0.59440 0.52727
 H558 H 0.18804 0.59549 0.54216
 N559 N 0.22586 0.60697 0.50498
 C560 C 0.26008 0.65803 0.47096
 H561 H 0.27464 0.65890 0.48050
 C562 C 0.25712 0.67209 0.45366
 H563 H 0.26946 0.68379 0.44977
 C564 C 0.22604 0.64194 0.46452
 H565 H 0.21382 0.63042 0.46899
 C566 C 0.22244 0.65571 0.44709
 H567 H 0.20755 0.65459 0.43807
 Zn568 Zn 0.24986 0.62508 0.49991
 N569 N 0.24475 0.64317 0.47590
 C570 C 0.28528 0.60825 0.47610
 N571 N 0.27390 0.60700 0.49481
 C572 C 0.27886 0.59216 0.51016
 C573 C 0.29620 0.57812 0.50721
 C574 C 0.30273 0.59450 0.47251
 C575 C 0.23955 0.65799 0.52889
 C576 C 0.24248 0.67205 0.54620
 C577 C 0.27721 0.65571 0.55274
 C578 C 0.27363 0.64195 0.53531
 N579 N 0.25492 0.64316 0.52394
 H580 H 0.28078 0.61975 0.46387
 H581 H 0.26933 0.59129 0.52471
 H582 H 0.30010 0.56643 0.51955
 H583 H 0.31175 0.59562 0.45762
 H584 H 0.22499 0.65884 0.51935
 H585 H 0.23012 0.68374 0.55010
 H586 H 0.29211 0.65462 0.56175
 H587 H 0.28589 0.63045 0.53082
 C588 C 0.23815 0.67087 0.44159
 C589 C 0.19158 0.57925 0.51153
 C590 C 0.26146 0.67085 0.55826
 C591 C 0.30826 0.57935 0.48823
 C592 C 0.72075 0.90816 0.50984
 H593 H 0.73020 0.90900 0.52446
 C594 C 0.70343 0.92220 0.50683
 H595 H 0.69944 0.93386 0.51919
 C596 C 0.71455 0.89216 0.47570
 H597 H 0.71912 0.88069 0.46346
 C598 C 0.69711 0.90592 0.47205
 H599 H 0.68819 0.90484 0.45710
 N600 N 0.72581 0.89336 0.49448
 C601 C 0.75998 0.84231 0.52864
 H602 H 0.77459 0.84148 0.51918
 C603 C 0.75697 0.82823 0.54592
 H604 H 0.76932 0.81656 0.54987
 C605 C 0.72585 0.85832 0.53490
 H606 H 0.71362 0.86981 0.53037
 C607 C 0.72220 0.84454 0.55230
 H608 H 0.70725 0.84562 0.56124
 Zn609 Zn 0.74983 0.87528 0.49968
 N610 N 0.74463 0.85713 0.52363
 C611 C 0.78506 0.89213 0.52373
 N612 N 0.77379 0.89339 0.50496
 C613 C 0.77880 0.90827 0.48967
 C614 C 0.79608 0.92232 0.49273
 C615 C 0.80246 0.90588 0.52744
 C616 C 0.73982 0.84241 0.47054
 C617 C 0.74290 0.82841 0.45321
 C618 C 0.77763 0.84483 0.44695
 C619 C 0.77390 0.85853 0.46440
 N620 N 0.75511 0.85726 0.47564
 H621 H 0.78052 0.88059 0.53592
 H622 H 0.76934 0.90916 0.47506
 H623 H 0.80004 0.93403 0.48043
 H624 H 0.81140 0.90475 0.54238
 H625 H 0.72519 0.84151 0.47998
 H626 H 0.73060 0.81672 0.44919
 H627 H 0.79258 0.84598 0.43804
 H628 H 0.78609 0.87004 0.46900
 C629 C 0.73793 0.82941 0.55788
 C630 C 0.69148 0.92102 0.48778
 C631 C 0.76196 0.82968 0.44128
 C632 C 0.80805 0.92106 0.51177
 C633 C 0.00982 0.22164 0.40794
 H634 H 0.02440 0.23113 0.40879
 C635 C 0.00684 0.20436 0.42202
 H636 H 0.01918 0.20044 0.43372
 C637 C -0.02426 0.21528 0.39189
 H638 H -0.03649 0.21977 0.38037
 C639 C -0.02788 0.19788 0.40567
 H640 H -0.04280 0.18890 0.40458
 N641 N -0.00552 0.22660 0.39309
 C642 C 0.02863 0.26062 0.34197
 H643 H 0.01914 0.27521 0.34108
 C644 C 0.04594 0.25758 0.32793
 H645 H 0.04987 0.26988 0.31620
 C646 C 0.03495 0.22658 0.35813
 H647 H 0.03043 0.21439 0.36966
 C648 C 0.05238 0.22290 0.34437
 H649 H 0.06135 0.20797 0.34552
 Zn650 Zn -0.00037 0.25055 0.37494
 N651 N 0.02363 0.24533 0.35685
 C652 C 0.02356 0.28588 0.39172
 N653 N 0.00480 0.27459 0.39298
 C654 C -0.01053 0.27964 0.40781
 C655 C -0.00752 0.29696 0.42184
 C656 C 0.02721 0.30332 0.40546
 C657 C -0.02935 0.24031 0.34203
 C658 C -0.04666 0.24327 0.32796
 C659 C -0.05313 0.27802 0.34424
 C660 C -0.03570 0.27442 0.35802
 N661 N -0.02437 0.25568 0.35683
 H662 H 0.03578 0.28132 0.38023
 H663 H -0.02512 0.27017 0.40870
 H664 H -0.01984 0.30093 0.43353
 H665 H 0.04215 0.31226 0.40434
 H666 H -0.01985 0.22572 0.34120
 H667 H -0.05058 0.23090 0.31630
 H668 H -0.06211 0.29295 0.34531
 H669 H -0.03119 0.28667 0.36950
 C670 C 0.05794 0.23857 0.32919
 C671 C -0.01216 0.19234 0.42083
 C672 C -0.05868 0.26228 0.32913
 C673 C 0.01151 0.30893 0.42060
 C674 C -0.01029 0.72040 0.09192
 H675 H -0.02491 0.72984 0.09107
 C676 C -0.00727 0.70307 0.07790
 H677 H -0.01963 0.69906 0.06625
 C678 C 0.02387 0.71423 0.10790
 H679 H 0.03611 0.71882 0.11935
 C680 C 0.02753 0.69678 0.09417
 H681 H 0.04249 0.68786 0.09525
 N682 N 0.00508 0.72548 0.10670
 C683 C -0.02904 0.75971 0.15776
 H684 H -0.01957 0.77430 0.15856
 C685 C -0.04631 0.75673 0.17185
 H686 H -0.05024 0.76909 0.18352
 C687 C -0.03534 0.72559 0.14178
 H688 H -0.03083 0.71334 0.13028
 C689 C -0.05274 0.72197 0.15558
 H690 H -0.06170 0.70704 0.15452
 Zn691 Zn -0.00012 0.74951 0.12475
 N692 N -0.02405 0.74434 0.14293
 C693 C -0.02417 0.78475 0.10790
 N694 N -0.00541 0.77346 0.10662
 C695 C 0.00987 0.77847 0.09173
 C696 C 0.00681 0.79577 0.07769
 C697 C -0.02788 0.80217 0.09416
 C698 C 0.02903 0.73951 0.15763
 C699 C 0.04636 0.74259 0.17162
 C700 C 0.05262 0.77730 0.15516
 C701 C 0.03516 0.77357 0.14146
 N702 N 0.02392 0.75479 0.14276
 H703 H -0.03635 0.78022 0.11945
 H704 H 0.02448 0.76900 0.09083
 H705 H 0.01911 0.79973 0.06597
 H706 H -0.04281 0.81114 0.09532
 H707 H 0.01960 0.72489 0.15855
 H708 H 0.05038 0.73030 0.18333
 H709 H 0.06152 0.79225 0.15399
 H710 H 0.03056 0.78575 0.12995
 C711 C -0.05830 0.73771 0.17070
 C712 C 0.01180 0.69113 0.07908
 C713 C 0.05829 0.76164 0.17033
 C714 C -0.01222 0.80776 0.07897
 C715 C 0.49002 0.22073 0.59269
 H716 H 0.47543 0.23022 0.59180
 C717 C 0.49303 0.20340 0.57867
 H718 H 0.48071 0.19945 0.56697
 C719 C 0.52409 0.21442 0.60879
 H720 H 0.53631 0.21896 0.62030
 C721 C 0.52775 0.19698 0.59506
 H722 H 0.54268 0.18801 0.59619
 N723 N 0.50535 0.22574 0.60754
 C724 C 0.47113 0.26002 0.65849
 H725 H 0.48062 0.27460 0.65933
 C726 C 0.45380 0.25707 0.67252
 H727 H 0.44985 0.26943 0.68418
 C728 C 0.46483 0.22592 0.64247
 H729 H 0.46937 0.21367 0.63099
 C730 C 0.44739 0.22232 0.65621
 H731 H 0.43841 0.20740 0.65512
 Zn732 Zn 0.50016 0.24978 0.62559
 N733 N 0.47615 0.24466 0.64368
 C734 C 0.47626 0.28507 0.60864
 N735 N 0.49500 0.27374 0.60744
 C736 C 0.51035 0.27870 0.59260
 C737 C 0.50736 0.29598 0.57852
 C738 C 0.47263 0.30247 0.59485
 C739 C 0.52916 0.23966 0.65855
 C740 C 0.54648 0.24267 0.67259
 C741 C 0.55291 0.27735 0.65615
 C742 C 0.53548 0.27370 0.64241
 N743 N 0.52416 0.25497 0.64368
 H744 H 0.46402 0.28058 0.62015
 H745 H 0.52494 0.26920 0.59176
 H746 H 0.51971 0.29989 0.56682
 H747 H 0.45770 0.31145 0.59594
 H748 H 0.51967 0.22508 0.65945
 H749 H 0.55042 0.23035 0.68430
 H750 H 0.56189 0.29226 0.65501
 H751 H 0.53095 0.28590 0.63089
 C752 C 0.44180 0.23806 0.67132
 C753 C 0.51205 0.19140 0.57991
 C754 C 0.55849 0.26167 0.67132
 C755 C 0.48835 0.30800 0.57970
 C756 C 0.50997 0.72054 0.90801
 H757 H 0.52457 0.73000 0.90883
 C758 C 0.50698 0.70324 0.92206
 H759 H 0.51935 0.69927 0.93371
 C760 C 0.47582 0.71431 0.89204
 H761 H 0.46357 0.71886 0.88057
 C762 C 0.47220 0.69689 0.90580
 H763 H 0.45725 0.68795 0.90473
 N764 N 0.49459 0.72558 0.89321
 C765 C 0.52866 0.75974 0.84213
 H766 H 0.51917 0.77433 0.84130
 C767 C 0.54594 0.75674 0.82804
 H768 H 0.54986 0.76909 0.81636
 C769 C 0.53499 0.72564 0.85815
 H770 H 0.53049 0.71341 0.86965
 C771 C 0.55240 0.72200 0.84435
 H772 H 0.56137 0.70707 0.84543
 Zn773 Zn 0.49974 0.74958 0.87513
 N774 N 0.52369 0.74439 0.85696
 C775 C 0.52374 0.78484 0.89196
 N776 N 0.50499 0.77356 0.89323
 C777 C 0.48970 0.77857 0.90812
 C778 C 0.49275 0.79587 0.92217
 C779 C 0.52744 0.80226 0.90571
 C780 C 0.47062 0.73952 0.84227
 C781 C 0.45328 0.74258 0.82826
 C782 C 0.44697 0.77730 0.84468
 C783 C 0.46443 0.77360 0.85839
 N784 N 0.47569 0.75482 0.85711
 H785 H 0.53593 0.78030 0.88041
 H786 H 0.47511 0.76910 0.90902
 H787 H 0.48045 0.79983 0.93389
 H788 H 0.54236 0.81121 0.90456
 H789 H 0.48007 0.72490 0.84136
 H790 H 0.44929 0.73027 0.81657
 H791 H 0.43805 0.79225 0.84582
 H792 H 0.46901 0.78580 0.86989
 C793 C 0.55794 0.73772 0.82922
 C794 C 0.48794 0.69128 0.92089
 C795 C 0.44133 0.76163 0.82953
 C796 C 0.51177 0.80785 0.92089
 C797 C 0.15586 0.21932 0.25081
 C798 C 0.14088 0.22229 0.26280
 C799 C 0.12333 0.22575 0.27683
 C800 C 0.10835 0.22870 0.28882
 C801 C 0.09080 0.23215 0.30286
 C802 C 0.07582 0.23508 0.31486
 C803 C 0.65591 0.71894 0.75078
 C804 C 0.64091 0.72183 0.76277
 C805 C 0.62334 0.72519 0.77680
 C806 C 0.60835 0.72806 0.78879
 C807 C 0.59080 0.73142 0.80285
 C808 C 0.57582 0.73430 0.81486
 C809 C 0.34340 0.78105 0.75123
 C810 C 0.35837 0.77806 0.76322
 C811 C 0.37590 0.77457 0.77726
 C812 C 0.39089 0.77158 0.78923
 C813 C 0.40844 0.76811 0.80326
 C814 C 0.42343 0.76514 0.81523
 C815 C -0.15650 0.28108 0.25052
 C816 C -0.14153 0.27817 0.26255
 C817 C -0.12401 0.27478 0.27664
 C818 C -0.10905 0.27190 0.28867
 C819 C -0.09153 0.26854 0.30275
 C820 C -0.07656 0.26568 0.31478
 C821 C -0.15624 0.71906 0.24917
 C822 C -0.14124 0.72193 0.23718
 C823 C -0.12368 0.72528 0.22314
 C824 C -0.10869 0.72813 0.21114
 C825 C -0.09115 0.73147 0.19708
 C826 C -0.07617 0.73431 0.18506
 C827 C 0.34370 0.21927 0.74956
 C828 C 0.35871 0.22218 0.73760
 C829 C 0.37629 0.22557 0.72360
 C830 C 0.39130 0.22845 0.71163
 C831 C 0.40888 0.23181 0.69761
 C832 C 0.42389 0.23466 0.68563
 C833 C 0.65658 0.28065 0.74953
 C834 C 0.64157 0.27772 0.73757
 C835 C 0.62399 0.27430 0.72356
 C836 C 0.60898 0.27139 0.71161
 C837 C 0.59140 0.26800 0.69760
 C838 C 0.57640 0.26511 0.68563
 C839 C 0.15624 0.78112 0.24857
 C840 C 0.14127 0.77814 0.23657
 C841 C 0.12374 0.77464 0.22254
 C842 C 0.10875 0.77165 0.21057
 C843 C 0.09120 0.76816 0.19657
 C844 C 0.07620 0.76518 0.18461
 C845 C 0.25086 0.15604 0.21899
 C846 C 0.26283 0.14104 0.22196
 C847 C 0.27684 0.12348 0.22543
 C848 C 0.28879 0.10847 0.22841
 C849 C 0.30279 0.09089 0.23188
 C850 C 0.31475 0.07589 0.23483
 C851 C 0.75114 0.65602 0.71894
 C852 C 0.76315 0.64105 0.72188
 C853 C 0.77720 0.62351 0.72532
 C854 C 0.78918 0.60852 0.72825
 C855 C 0.80321 0.59096 0.73167
 C856 C 0.81519 0.57596 0.73460
 C857 C 0.75068 0.34360 0.78058
 C858 C 0.76267 0.35858 0.77767
 C859 C 0.77672 0.37612 0.77429
 C860 C 0.78873 0.39109 0.77143
 C861 C 0.80280 0.40862 0.76809
 C862 C 0.81482 0.42358 0.76525
 C863 C 0.25038 -0.15655 0.28078
 C864 C 0.26236 -0.14156 0.27787
 C865 C 0.27641 -0.12402 0.27449
 C866 C 0.28840 -0.10904 0.27162
 C867 C 0.30246 -0.09151 0.26827
 C868 C 0.31447 -0.07654 0.26543
 C869 C 0.24926 -0.15648 0.71909
 C870 C 0.23730 -0.14147 0.72203
 C871 C 0.22331 -0.12389 0.72548
 C872 C 0.21135 -0.10887 0.72842
 C873 C 0.19735 -0.09129 0.73185
 C874 C 0.18538 -0.07628 0.73477
 C875 C 0.74944 0.34399 0.21907
 C876 C 0.73744 0.35898 0.22194
 C877 C 0.72338 0.37653 0.22529
 C878 C 0.71138 0.39152 0.22817
 C879 C 0.69733 0.40907 0.23154
 C880 C 0.68532 0.42405 0.23444
 C881 C 0.74952 0.65635 0.28029
 C882 C 0.73751 0.64139 0.27739
 C883 C 0.72344 0.62387 0.27401
 C884 C 0.71143 0.60890 0.27114
 C885 C 0.69737 0.59138 0.26779
 C886 C 0.68535 0.57640 0.26495
 C887 C 0.24964 0.15626 0.78064
 C888 C 0.23768 0.14126 0.77774
 C889 C 0.22367 0.12369 0.77436
 C890 C 0.21169 0.10870 0.77149
 C891 C 0.19766 0.09115 0.76814
 C892 C 0.18566 0.07617 0.76528
 C893 C 0.21904 0.25105 0.15576
 C894 C 0.22197 0.26305 0.14078
 C895 C 0.22537 0.27710 0.12325
 C896 C 0.22825 0.28911 0.10828
 C897 C 0.23160 0.30319 0.09075
 C898 C 0.23445 0.31523 0.07579
 C899 C 0.71904 0.75099 0.65580
 C900 C 0.72194 0.76298 0.64081
 C901 C 0.72533 0.77702 0.62326
 C902 C 0.72821 0.78901 0.60828
 C903 C 0.73160 0.80306 0.59073
 C904 C 0.73448 0.81507 0.57576
 C905 C 0.78141 0.75143 0.34331
 C906 C 0.77844 0.76343 0.35828
 C907 C 0.77495 0.77746 0.37582
 C908 C 0.77197 0.78943 0.39081
 C909 C 0.76847 0.80344 0.40837
 C910 C 0.76550 0.81540 0.42337
 C911 C 0.28106 0.25160 -0.15649
 C912 C 0.27803 0.26362 -0.14155
 C913 C 0.27450 0.27769 -0.12404
 C914 C 0.27149 0.28969 -0.10908
 C915 C 0.26798 0.30373 -0.09155
 C916 C 0.26501 0.31572 -0.07657
 C917 C 0.71899 0.24853 -0.15632
 C918 C 0.72197 0.23654 -0.14134
 C919 C 0.72546 0.22252 -0.12380
 C920 C 0.72844 0.21055 -0.10881
 C921 C 0.73192 0.19655 -0.09124
 C922 C 0.73489 0.18458 -0.07625
 C923 C 0.21930 0.74933 0.34369
 C924 C 0.22223 0.73733 0.35867
 C925 C 0.22563 0.72328 0.37621
 C926 C 0.22852 0.71128 0.39119
 C927 C 0.23188 0.69722 0.40873
 C928 C 0.23475 0.68521 0.42371
 C929 C 0.28027 0.74934 0.65614
 C930 C 0.27734 0.73734 0.64117
 C931 C 0.27393 0.72329 0.62363
 C932 C 0.27105 0.71128 0.60865
 C933 C 0.26769 0.69722 0.59112
 C934 C 0.26484 0.68520 0.57614
 C935 C 0.78148 0.24884 0.15617
 C936 C 0.77855 0.23683 0.14120
 C937 C 0.77512 0.22278 0.12366
 C938 C 0.77220 0.21079 0.10868
 C939 C 0.76879 0.19675 0.09113
 C940 C 0.76588 0.18475 0.07615
 C941 C 0.46943 0.40589 0.50125
 C942 C 0.47236 0.39091 0.51323
 C943 C 0.47577 0.37336 0.52728
 C944 C 0.47866 0.35838 0.53927
 C945 C 0.48205 0.34084 0.55333
 C946 C 0.48492 0.32587 0.56535
 C947 C -0.03124 0.90595 0.00092
 C948 C -0.02835 0.89091 0.01285
 C949 C -0.02495 0.87331 0.02682
 C950 C -0.02204 0.85828 0.03875
 C951 C -0.01862 0.84069 0.05273
 C952 C -0.01570 0.82567 0.06469
 C953 C 0.03095 0.59311 0.00081
 C954 C 0.02799 0.60810 0.01279
 C955 C 0.02454 0.62566 0.02681
 C956 C 0.02160 0.64066 0.03878
 C957 C 0.01818 0.65822 0.05280
 C958 C 0.01526 0.67322 0.06478
 C959 C 0.53112 0.09350 0.50147
 C960 C 0.52819 0.10847 0.51349
 C961 C 0.52476 0.12599 0.52755
 C962 C 0.52183 0.14097 0.53955
 C963 C 0.51842 0.15851 0.55360
 C964 C 0.51551 0.17350 0.56559
 C965 C -0.03101 0.09445 0.49927
 C966 C -0.02810 0.10944 0.48728
 C967 C -0.02470 0.12699 0.47324
 C968 C -0.02182 0.14196 0.46125
 C969 C -0.01845 0.15950 0.44719
 C970 C -0.01558 0.17448 0.43518
 C971 C 0.46894 0.59347 0.99941
 C972 C 0.47188 0.60844 0.98740
 C973 C 0.47532 0.62595 0.97333
 C974 C 0.47823 0.64091 0.96132
 C975 C 0.48163 0.65844 0.94725
 C976 C 0.48451 0.67341 0.93524
 C977 C 0.53098 0.90578 0.99921
 C978 C 0.52802 0.89080 0.98722
 C979 C 0.52456 0.87326 0.97319
 C980 C 0.52162 0.85828 0.96121
 C981 C 0.51818 0.84072 0.94719
 C982 C 0.51525 0.82574 0.93521
 C983 C 0.03075 0.40672 0.49910
 C984 C 0.02778 0.39177 0.48707
 C985 C 0.02431 0.37426 0.47300
 C986 C 0.02135 0.35931 0.46099
 C987 C 0.01791 0.34178 0.44693
 C988 C 0.01499 0.32681 0.43493
 C989 C 0.40627 0.50096 0.46941
 C990 C 0.39128 0.51295 0.47234
 C991 C 0.37372 0.52699 0.47574
 C992 C 0.35873 0.53898 0.47862
 C993 C 0.34117 0.55303 0.48198
 C994 C 0.32617 0.56503 0.48484
 C995 C 0.90679 0.00048 -0.03098
 C996 C 0.89180 0.01248 -0.02805
 C997 C 0.87425 0.02653 -0.02464
 C998 C 0.85926 0.03852 -0.02173
 C999 C 0.84170 0.05255 -0.01833
 C1000 C 0.82670 0.06455 -0.01542
 C1001 C 0.59417 0.00072 0.03113
 C1002 C 0.60916 0.01269 0.02819
 C1003 C 0.62672 0.02670 0.02474
 C1004 C 0.64172 0.03865 0.02181
 C1005 C 0.65929 0.05265 0.01839
 C1006 C 0.67429 0.06462 0.01548
 C1007 C 0.09379 0.50070 0.53032
 C1008 C 0.10875 0.51271 0.52739
 C1009 C 0.12627 0.52678 0.52399
 C1010 C 0.14123 0.53879 0.52111
 C1011 C 0.15875 0.55287 0.51776
 C1012 C 0.17371 0.56489 0.51491
 C1013 C 0.09312 0.49980 -0.03049
 C1014 C 0.10812 0.48781 -0.02758
 C1015 C 0.12568 0.47377 -0.02420
 C1016 C 0.14067 0.46177 -0.02134
 C1017 C 0.15823 0.44771 -0.01801
 C1018 C 0.17322 0.43570 -0.01519
 C1019 C 0.59346 0.99940 0.46899
 C1020 C 0.60847 0.98742 0.47185
 C1021 C 0.62605 0.97339 0.47520
 C1022 C 0.64104 0.96140 0.47807
 C1023 C 0.65860 0.94735 0.48144
 C1024 C 0.67359 0.93535 0.48432
 C1025 C 0.90594 0.99937 0.53104
 C1026 C 0.89097 0.98739 0.52807
 C1027 C 0.87343 0.97336 0.52460
 C1028 C 0.85845 0.96139 0.52165
 C1029 C 0.84090 0.94737 0.51821
 C1030 C 0.82592 0.93538 0.51527
 C1031 C 0.40579 0.49959 0.03065
 C1032 C 0.39079 0.48763 0.02773
 C1033 C 0.37322 0.47363 0.02432
 C1034 C 0.35822 0.46167 0.02142
 C1035 C 0.34066 0.44765 0.01804
 C1036 C 0.32566 0.43567 0.01515
 C1037 C 0.50137 0.46914 0.40630
 C1038 C 0.51335 0.47210 0.39132
 C1039 C 0.52738 0.47557 0.37377
 C1040 C 0.53934 0.47851 0.35877
 C1041 C 0.55335 0.48196 0.34121
 C1042 C 0.56532 0.48488 0.32620
 C1043 C 0.00106 -0.03061 0.90625
 C1044 C 0.01310 -0.02767 0.89131
 C1045 C 0.02720 -0.02425 0.87381
 C1046 C 0.03923 -0.02134 0.85886
 C1047 C 0.05332 -0.01796 0.84134
 C1048 C 0.06535 -0.01508 0.82638
 C1049 C 0.00103 0.03115 0.59415
 C1050 C 0.01305 0.02819 0.60911
 C1051 C 0.02712 0.02473 0.62663
 C1052 C 0.03914 0.02180 0.64158
 C1053 C 0.05322 0.01837 0.65910
 C1054 C 0.06524 0.01545 0.67406
 C1055 C 0.50091 0.53126 0.09374
 C1056 C 0.51290 0.52830 0.10872
 C1057 C 0.52694 0.52485 0.12627
 C1058 C 0.53893 0.52192 0.14125
 C1059 C 0.55298 0.51849 0.15879
 C1060 C 0.56499 0.51558 0.17376
 C1061 C 0.49915 -0.03113 0.09431
 C1062 C 0.48715 -0.02821 0.10929
 C1063 C 0.47310 -0.02482 0.12684
 C1064 C 0.46109 -0.02194 0.14181
 C1065 C 0.44701 -0.01858 0.15935
 C1066 C 0.43498 -0.01571 0.17432
 C1067 C 0.99904 0.46859 0.59375
 C1068 C 0.98711 0.47150 0.60879
 C1069 C 0.97314 0.47492 0.62639
 C1070 C 0.96120 0.47784 0.64142
 C1071 C 0.94721 0.48125 0.65901
 C1072 C 0.93524 0.48416 0.67402
 C1073 C 0.99894 0.53077 0.90659
 C1074 C 0.98696 0.52780 0.89161
 C1075 C 0.97294 0.52432 0.87406
 C1076 C 0.96097 0.52136 0.85906
 C1077 C 0.94696 0.51791 0.84150
 C1078 C 0.93499 0.51498 0.82650
 C1079 C 0.49899 0.03042 0.40648
 C1080 C 0.48695 0.02749 0.39155
 C1081 C 0.47285 0.02406 0.37405
 C1082 C 0.46081 0.02114 0.35911
 C1083 C 0.44672 0.01773 0.34159
 C1084 C 0.43470 0.01483 0.32663
   
