data_POSCAR
  _audit_creation_date              2014-09-24
  _audit_creation_method            'ToBaCCo'
  _symmetry_space_group_name_H-M    'P1'
  _symmetry_Int_Tables_number       1
  _symmetry_cell_setting            triclinic
  loop_
  _symmetry_equiv_pos_as_xyz
 x,y,z
_cell_length_a 35.7693
_cell_length_b 34.2447
_cell_length_c 34.4348
_cell_angle_alpha 90.639700
_cell_angle_beta 89.813800
_cell_angle_gamma 89.698300
loop_
  _atom_site_label
  _atom_site_type_symbol
  _atom_site_fract_x
  _atom_site_fract_y
  _atom_site_fract_z
C1 C 0.30703 0.30021 0.22887
 H2 H 0.30896 0.30326 0.26010
 C3 C 0.33006 0.32237 0.20497
 H4 H 0.34936 0.34282 0.21811
 C5 C 0.27876 0.27037 0.17402
 H6 H 0.25914 0.24966 0.16206
 C7 C 0.30128 0.29192 0.14903
 H8 H 0.29869 0.28750 0.11798
 N9 N 0.28152 0.27540 0.21314
 C10 C 0.19742 0.26772 0.30453
 H11 H 0.19654 0.23644 0.30845
 C12 C 0.17499 0.29222 0.32753
 H13 H 0.15727 0.27951 0.34953
 C14 C 0.22225 0.32210 0.27144
 H15 H 0.24017 0.33363 0.24909
 C16 C 0.20020 0.34766 0.29371
 H17 H 0.20150 0.37868 0.28814
 Zn18 Zn 0.25067 0.24770 0.24792
 N19 N 0.22092 0.28297 0.27761
 C20 C 0.28441 0.22744 0.31932
 N21 N 0.28258 0.21872 0.28076
 C22 C 0.30473 0.19048 0.26462
 C23 C 0.32871 0.16848 0.28780
 C24 C 0.30836 0.20658 0.34347
 C25 C 0.19255 0.23217 0.19645
 C26 C 0.16716 0.20991 0.17508
 C27 C 0.19269 0.15177 0.20421
 C28 C 0.21762 0.17519 0.22506
 N29 N 0.21751 0.21459 0.22037
 H30 H 0.26773 0.25100 0.33141
 H31 H 0.30338 0.18472 0.23370
 H32 H 0.34507 0.14526 0.27444
 H33 H 0.30968 0.21452 0.37394
 H34 H 0.19268 0.26361 0.19372
 H35 H 0.14816 0.22447 0.15551
 H36 H 0.19306 0.12049 0.20846
 H37 H 0.23675 0.16180 0.24517
 C38 C 0.17637 0.33285 0.32246
 C39 C 0.32711 0.31864 0.16444
 C40 C 0.16712 0.16909 0.17866
 C41 C 0.33066 0.17626 0.32792
 C42 C 0.80524 0.79740 0.23315
 H43 H 0.80730 0.79918 0.26447
 C44 C 0.82795 0.82082 0.21006
 H45 H 0.84640 0.84106 0.22465
 C46 C 0.77693 0.76970 0.17744
 H47 H 0.75767 0.74909 0.16471
 C48 C 0.79883 0.79269 0.15321
 H49 H 0.79607 0.78825 0.12223
 N50 N 0.77992 0.77296 0.21664
 C51 C 0.69224 0.75818 0.30340
 H52 H 0.69165 0.72665 0.30494
 C53 C 0.66753 0.78053 0.32600
 H54 H 0.64841 0.76590 0.34536
 C55 C 0.71839 0.81530 0.27650
 H56 H 0.73778 0.82872 0.25668
 C57 C 0.69406 0.83880 0.29848
 H58 H 0.69506 0.87018 0.29520
 Zn59 Zn 0.74923 0.74289 0.24969
 N60 N 0.71735 0.77576 0.27969
 C61 C 0.77875 0.71814 0.32172
 N62 N 0.78077 0.71338 0.28250
 C63 C 0.80590 0.68825 0.26595
 C64 C 0.82933 0.66561 0.28915
 C65 C 0.80162 0.69614 0.34596
 C66 C 0.69198 0.72755 0.19725
 C67 C 0.66736 0.70538 0.17486
 C68 C 0.69566 0.64685 0.20035
 C69 C 0.71984 0.67021 0.22225
 N70 N 0.71785 0.70980 0.21997
 H71 H 0.75954 0.73914 0.33437
 H72 H 0.80737 0.68549 0.23465
 H73 H 0.84847 0.64505 0.27545
 H74 H 0.79963 0.70053 0.37709
 H75 H 0.69067 0.75911 0.19640
 H76 H 0.64754 0.72020 0.15637
 H77 H 0.69739 0.61541 0.20283
 H78 H 0.73986 0.65661 0.24128
 C79 C 0.66827 0.82147 0.32380
 C80 C 0.82479 0.81932 0.16916
 C81 C 0.66898 0.66443 0.17620
 C82 C 0.82711 0.66915 0.32979
 C83 C 0.81305 0.30438 0.73214
 H84 H 0.81370 0.30726 0.76345
 C85 C 0.83641 0.32740 0.70930
 H86 H 0.85463 0.34835 0.72331
 C87 C 0.78786 0.27401 0.67596
 H88 H 0.76932 0.25280 0.66303
 C89 C 0.81075 0.29630 0.65208
 H90 H 0.80953 0.29183 0.62093
 N91 N 0.78891 0.27887 0.71520
 C92 C 0.69827 0.26423 0.79860
 H93 H 0.69762 0.23268 0.79971
 C94 C 0.67287 0.28628 0.82058
 H95 H 0.65321 0.27132 0.83909
 C96 C 0.72533 0.32168 0.77343
 H97 H 0.74538 0.33535 0.75450
 C98 C 0.70022 0.34492 0.79476
 H99 H 0.70130 0.37634 0.79189
 Zn100 Zn 0.75694 0.24913 0.74720
 N101 N 0.72422 0.28210 0.77612
 C102 C 0.78273 0.22289 0.82011
 N103 N 0.78698 0.21910 0.78109
 C104 C 0.81314 0.19455 0.76570
 C105 C 0.83532 0.17143 0.78976
 C106 C 0.80395 0.20022 0.84529
 C107 C 0.70049 0.23506 0.69385
 C108 C 0.67648 0.21363 0.67010
 C109 C 0.70537 0.15432 0.69307
 C110 C 0.72880 0.17696 0.71658
 N111 N 0.72629 0.21661 0.71611
 H112 H 0.76306 0.24383 0.83204
 H113 H 0.81633 0.19241 0.73448
 H114 H 0.85414 0.15105 0.77553
 H115 H 0.80009 0.20587 0.87596
 H116 H 0.69868 0.26661 0.69458
 H117 H 0.65597 0.22901 0.65291
 H118 H 0.70837 0.12285 0.69314
 H119 H 0.74898 0.16279 0.73501
 C120 C 0.67360 0.32725 0.81890
 C121 C 0.83516 0.32379 0.66863
 C122 C 0.67891 0.17267 0.66919
 C123 C 0.83080 0.17316 0.83070
 C124 C 0.30987 0.81004 0.73573
 H125 H 0.31079 0.81298 0.76703
 C126 C 0.33292 0.83312 0.71264
 H127 H 0.35119 0.85420 0.72639
 C128 C 0.28445 0.77930 0.67986
 H129 H 0.26611 0.75777 0.66715
 C130 C 0.30695 0.80175 0.65572
 H131 H 0.30549 0.79726 0.62458
 N132 N 0.28575 0.78431 0.71907
 C133 C 0.19858 0.76853 0.80618
 H134 H 0.19890 0.73699 0.80769
 C135 C 0.17344 0.79005 0.82898
 H136 H 0.15501 0.77472 0.84852
 C137 C 0.22280 0.82645 0.77906
 H138 H 0.24158 0.84046 0.75901
 C139 C 0.19786 0.84918 0.80118
 H140 H 0.19780 0.88056 0.79781
 Zn141 Zn 0.25474 0.75434 0.75186
 N142 N 0.22291 0.78689 0.78222
 C143 C 0.28465 0.72867 0.82349
 N144 N 0.28607 0.72416 0.78422
 C145 C 0.31022 0.69837 0.76713
 C146 C 0.33303 0.67456 0.78982
 C147 C 0.30693 0.70550 0.84725
 C148 C 0.19845 0.73962 0.69798
 C149 C 0.17356 0.71767 0.67567
 C150 C 0.19878 0.65907 0.70419
 C151 C 0.22338 0.68218 0.72580
 N152 N 0.22306 0.72168 0.72201
 H153 H 0.26627 0.75023 0.83656
 H154 H 0.31120 0.69580 0.73580
 H155 H 0.35123 0.65337 0.77570
 H156 H 0.30533 0.70951 0.87844
 H157 H 0.19836 0.77113 0.69601
 H158 H 0.15489 0.73260 0.65604
 H159 H 0.19914 0.62775 0.70804
 H160 H 0.24228 0.66850 0.74598
 C161 C 0.17272 0.83099 0.82662
 C162 C 0.33131 0.82942 0.67201
 C163 C 0.17346 0.67677 0.67858
 C164 C 0.33119 0.67764 0.83049
 Si165 Si -0.00489 -0.00284 0.00385
 Si166 Si 0.00481 0.50348 0.50203
 Si167 Si 0.50162 0.00199 0.49858
 Si168 Si 0.49864 0.49504 -0.00280
 C169 C 0.09630 -0.10283 -0.10223
 C170 C 0.08501 -0.13865 -0.11839
 C171 C 0.10970 -0.15989 -0.14195
 C172 C 0.14574 -0.14572 -0.14953
 C173 C 0.15560 -0.10927 -0.13352
 N174 N 0.13099 -0.08905 -0.11065
 C175 C 0.07135 -0.07964 -0.07644
 N176 N 0.07460 -0.04004 -0.07536
 C177 C 0.05256 -0.01711 -0.05218
 C178 C 0.02563 -0.03396 -0.02802
 C179 C 0.02236 -0.07468 -0.02803
 C180 C 0.04504 -0.09761 -0.05223
 H181 H 0.10038 -0.18725 -0.15455
 H182 H 0.18309 -0.09722 -0.13838
 H183 H 0.05612 0.01425 -0.05254
 H184 H 0.00255 -0.08902 -0.00929
 H185 H 0.05724 -0.14998 -0.11342
 H186 H 0.04245 -0.12905 -0.05130
 C187 C 0.11004 0.40875 0.39512
 C188 C 0.14613 0.42021 0.38385
 C189 C 0.16766 0.39555 0.36014
 C190 C 0.15341 0.35959 0.34721
 C191 C 0.11698 0.34955 0.35852
 N192 N 0.09660 0.37398 0.38176
 C193 C 0.08579 0.43319 0.42074
 N194 N 0.04851 0.42540 0.42208
 C195 C 0.02442 0.44575 0.44535
 C196 C 0.03755 0.47578 0.46952
 C197 C 0.07570 0.48468 0.46846
 C198 C 0.09995 0.46335 0.44442
 H199 H 0.19568 0.40444 0.35237
 H200 H 0.10454 0.32248 0.34867
 H201 H -0.00486 0.43833 0.44483
 H202 H 0.08698 0.50811 0.48604
 H203 H 0.15778 0.44795 0.39270
 H204 H 0.12938 0.47024 0.44518
 C205 C 0.59465 -0.10819 0.39424
 C206 C 0.58159 -0.14332 0.37795
 C207 C 0.60548 -0.16615 0.35487
 C208 C 0.64235 -0.15416 0.34781
 C209 C 0.65410 -0.11856 0.36421
 N210 N 0.63032 -0.09684 0.38659
 C211 C 0.57077 -0.08268 0.41904
 N212 N 0.57911 -0.04402 0.42190
 C213 C 0.55908 -0.01880 0.44461
 C214 C 0.52893 -0.03222 0.46672
 C215 C 0.51966 -0.07185 0.46419
 C216 C 0.54052 -0.09721 0.44052
 H217 H 0.59489 -0.19289 0.34206
 H218 H 0.68233 -0.10827 0.35988
 H219 H 0.56691 0.01156 0.44527
 H220 H 0.49631 -0.08340 0.48034
 H221 H 0.55311 -0.15285 0.38223
 H222 H 0.53337 -0.12785 0.43985
 C223 C 0.59777 0.39486 -0.11068
 C224 C 0.58556 0.35996 -0.12807
 C225 C 0.61004 0.33830 -0.15149
 C226 C 0.64678 0.35116 -0.15769
 C227 C 0.65755 0.38680 -0.14055
 N228 N 0.63314 0.40743 -0.11783
 C229 C 0.57317 0.41821 -0.08471
 N230 N 0.57770 0.45763 -0.08241
 C231 C 0.55615 0.48064 -0.05880
 C232 C 0.52848 0.46403 -0.03540
 C233 C 0.52382 0.42347 -0.03676
 C234 C 0.54597 0.40049 -0.06140
 H235 H 0.60008 0.31163 -0.16498
 H236 H 0.68560 0.39782 -0.14433
 H237 H 0.56075 0.51186 -0.05819
 H238 H 0.50326 0.40929 -0.01877
 H239 H 0.55727 0.34964 -0.12409
 H240 H 0.54233 0.36914 -0.06147
 C241 C -0.10618 0.10244 -0.09461
 C242 C -0.13991 0.11907 -0.08165
 C243 C -0.16069 0.14263 -0.10636
 C244 C -0.14877 0.14991 -0.14487
 C245 C -0.11488 0.13159 -0.15668
 N246 N -0.09499 0.10917 -0.13169
 C247 C -0.08243 0.07734 -0.06968
 N248 N -0.05404 0.05650 -0.08655
 C249 C -0.03085 0.03298 -0.06593
 C250 C -0.03539 0.02963 -0.02568
 C251 C -0.06462 0.05030 -0.00771
 C252 C -0.08788 0.07447 -0.02933
 H253 H -0.18724 0.15302 -0.09521
 H254 H -0.10267 0.13630 -0.18491
 H255 H -0.00922 0.01693 -0.08121
 H256 H -0.07001 0.04739 0.02301
 H257 H -0.15110 0.11354 -0.05310
 H258 H -0.10948 0.09064 -0.01411
 C259 C -0.10330 0.60024 0.40377
 C260 C -0.14082 0.60716 0.41403
 C261 C -0.16344 0.62949 0.38986
 C262 C -0.14903 0.64483 0.35531
 C263 C -0.11161 0.63658 0.34570
 N264 N -0.09004 0.61485 0.36981
 C265 C -0.07785 0.57701 0.42845
 N266 N -0.04721 0.55977 0.41189
 C267 C -0.02250 0.53815 0.43267
 C268 C -0.02792 0.53317 0.47257
 C269 C -0.05888 0.55094 0.49043
 C270 C -0.08387 0.57298 0.46859
 H271 H -0.19241 0.63425 0.39793
 H272 H -0.09927 0.64795 0.31945
 H273 H 0.00131 0.52512 0.41796
 H274 H -0.06362 0.54789 0.52133
 H275 H -0.15299 0.59500 0.43998
 H276 H -0.10708 0.58715 0.48328
 C277 C 0.40255 0.10892 0.40117
 C278 C 0.36829 0.12294 0.41573
 C279 C 0.34490 0.14469 0.39186
 C280 C 0.35552 0.15290 0.35350
 C281 C 0.39004 0.13812 0.34006
 N282 N 0.41222 0.11663 0.36379
 C283 C 0.42767 0.08479 0.42512
 N284 N 0.44852 0.05609 0.40775
 C285 C 0.47106 0.03189 0.42836
 C286 C 0.47344 0.03605 0.46877
 C287 C 0.45333 0.06619 0.48711
 C288 C 0.43028 0.09055 0.46546
 H289 H 0.31816 0.15439 0.40329
 H290 H 0.39969 0.14396 0.31091
 H291 H 0.48648 0.00913 0.41319
 H292 H 0.45496 0.07041 0.51828
 H293 H 0.35914 0.11633 0.44490
 H294 H 0.41487 0.11369 0.48012
 C295 C 0.39703 0.60286 -0.09757
 C296 C 0.35991 0.61166 -0.08709
 C297 C 0.33858 0.63605 -0.11052
 C298 C 0.35386 0.65159 -0.14456
 C299 C 0.39084 0.64154 -0.15439
 N300 N 0.41116 0.61780 -0.13101
 C301 C 0.42105 0.57719 -0.07376
 N302 N 0.45068 0.55863 -0.09091
 C303 C 0.47395 0.53460 -0.07098
 C304 C 0.46820 0.52845 -0.03126
 C305 C 0.43793 0.54715 -0.01300
 C306 C 0.41448 0.57173 -0.03394
 H307 H 0.30987 0.64218 -0.10234
 H308 H 0.40379 0.65297 -0.18030
 H309 H 0.49663 0.52038 -0.08638
 H310 H 0.43193 0.54238 0.01737
 H311 H 0.34699 0.59935 -0.06161
 H312 H 0.39187 0.58646 -0.01879
 C313 C -0.10949 -0.10820 0.09714
 C314 C -0.14396 -0.12218 0.08373
 C315 C -0.16545 -0.14618 0.10733
 C316 C -0.15332 -0.15630 0.14489
 C317 C -0.11876 -0.14085 0.15729
 N318 N -0.09821 -0.11786 0.13349
 C319 C -0.08509 -0.08275 0.07346
 N320 N -0.05696 -0.06296 0.09147
 C321 C -0.03313 -0.03933 0.07196
 C322 C -0.03689 -0.03464 0.03184
 C323 C -0.06532 -0.05477 0.01250
 C324 C -0.08935 -0.07901 0.03305
 H325 H -0.19240 -0.15512 0.09637
 H326 H -0.10700 -0.14805 0.18517
 H327 H -0.01120 -0.02460 0.08782
 H328 H -0.06868 -0.05203 -0.01860
 H329 H -0.15502 -0.11419 0.05576
 H330 H -0.11036 -0.09493 0.01703
 C331 C -0.09664 0.39548 0.59609
 C332 C -0.13343 0.38680 0.58490
 C333 C -0.15555 0.36349 0.60855
 C334 C -0.14136 0.34879 0.64346
 C335 C -0.10462 0.35862 0.65388
 N336 N -0.08356 0.38141 0.63032
 C337 C -0.07206 0.42045 0.57230
 N338 N -0.04384 0.44034 0.58998
 C339 C -0.02052 0.46429 0.57017
 C340 C -0.02475 0.46902 0.53006
 C341 C -0.05342 0.44872 0.51119
 C342 C -0.07695 0.42424 0.53204
 H343 H -0.18403 0.35757 0.59983
 H344 H -0.09243 0.34780 0.68041
 H345 H 0.00086 0.47977 0.58602
 H346 H -0.05820 0.45234 0.48043
 H347 H -0.14549 0.39850 0.55871
 H348 H -0.09844 0.40839 0.51658
 C349 C 0.39777 -0.09736 0.59935
 C350 C 0.36089 -0.10629 0.58865
 C351 C 0.33933 -0.13008 0.61236
 C352 C 0.35430 -0.14534 0.64664
 C353 C 0.39141 -0.13609 0.65612
 N354 N 0.41194 -0.11283 0.63251
 C355 C 0.42189 -0.07230 0.57514
 N356 N 0.45974 -0.07631 0.57741
 C357 C 0.48350 -0.05456 0.55569
 C358 C 0.46944 -0.02665 0.53003
 C359 C 0.43064 -0.02188 0.52736
 C360 C 0.40682 -0.04433 0.55000
 H361 H 0.31078 -0.13623 0.60401
 H362 H 0.40426 -0.14772 0.68197
 H363 H 0.51332 -0.05941 0.55809
 H364 H 0.41843 -0.00111 0.50764
 H365 H 0.34879 -0.09568 0.56202
 H366 H 0.37702 -0.03936 0.54795
 C367 C 0.39446 0.38977 0.09062
 C368 C 0.35714 0.38217 0.08054
 C369 C 0.33533 0.35872 0.10441
 C370 C 0.35039 0.34291 0.13842
 C371 C 0.38773 0.35137 0.14754
 N372 N 0.40844 0.37429 0.12384
 C373 C 0.41886 0.41502 0.06695
 N374 N 0.44898 0.43211 0.08415
 C375 C 0.47273 0.45568 0.06448
 C376 C 0.46680 0.46303 0.02509
 C377 C 0.43643 0.44543 0.00651
 C378 C 0.41240 0.42134 0.02724
 H379 H 0.30641 0.35373 0.09671
 H380 H 0.40061 0.33956 0.17329
 H381 H 0.49625 0.46831 0.07964
 H382 H 0.43143 0.45015 -0.02409
 H383 H 0.34443 0.39487 0.05516
 H384 H 0.38960 0.40743 0.01201
 C385 C 0.09154 0.09918 0.11152
 C386 C 0.07919 0.13491 0.12760
 C387 C 0.10369 0.15748 0.14976
 C388 C 0.14056 0.14483 0.15588
 C389 C 0.15184 0.10902 0.13925
 N390 N 0.12749 0.08757 0.11768
 C391 C 0.06718 0.07440 0.08685
 N392 N 0.08335 0.04797 0.06208
 C393 C 0.06301 0.02470 0.03797
 C394 C 0.02391 0.02748 0.03770
 C395 C 0.00659 0.05348 0.06382
 C396 C 0.02798 0.07694 0.08843
 H397 H 0.09371 0.18478 0.16222
 H398 H 0.18017 0.09843 0.14270
 H399 H 0.07757 0.00418 0.01923
 H400 H -0.02348 0.05547 0.06573
 H401 H 0.05128 0.14597 0.12263
 H402 H 0.01374 0.09623 0.10873
 C403 C 0.09871 0.60835 0.60891
 C404 C 0.08651 0.64428 0.62450
 C405 C 0.11070 0.66637 0.64749
 C406 C 0.14708 0.65289 0.65508
 C407 C 0.15788 0.61641 0.63954
 N408 N 0.13379 0.59540 0.61723
 C409 C 0.07451 0.58404 0.58376
 N410 N 0.08025 0.54471 0.58233
 C411 C 0.05969 0.52070 0.55917
 C412 C 0.03180 0.53612 0.53524
 C413 C 0.02566 0.57653 0.53584
 C414 C 0.04683 0.60059 0.56012
 H415 H 0.10074 0.69379 0.65969
 H416 H 0.18569 0.60491 0.64436
 H417 H 0.06552 0.48965 0.55901
 H418 H 0.00492 0.58975 0.51732
 H419 H 0.05844 0.65504 0.61960
 H420 H 0.04219 0.63181 0.55943
 C421 C 0.60710 0.10558 0.59482
 C422 C 0.62118 0.14152 0.58213
 C423 C 0.64474 0.16311 0.60623
 C424 C 0.65415 0.14946 0.64324
 C425 C 0.63924 0.11360 0.65501
 N426 N 0.61642 0.09299 0.63093
 C427 C 0.58187 0.08120 0.57059
 N428 N 0.56144 0.05279 0.58801
 C429 C 0.53779 0.02912 0.56788
 C430 C 0.53395 0.03313 0.52766
 C431 C 0.55428 0.06237 0.50915
 C432 C 0.57853 0.08613 0.53027
 H433 H 0.65580 0.19041 0.59572
 H434 H 0.64521 0.10222 0.68352
 H435 H 0.52209 0.00752 0.58350
 H436 H 0.55115 0.06728 0.47835
 H437 H 0.61389 0.15350 0.55426
 H438 H 0.59454 0.10763 0.51476
 C439 C 0.59428 0.59521 0.10722
 C440 C 0.58128 0.62987 0.12501
 C441 C 0.60550 0.65213 0.14777
 C442 C 0.64280 0.64035 0.15274
 C443 C 0.65475 0.60562 0.13440
 N444 N 0.63062 0.58439 0.11233
 C445 C 0.57016 0.57075 0.08193
 N446 N 0.58659 0.54513 0.05651
 C447 C 0.56647 0.52225 0.03180
 C448 C 0.52737 0.52469 0.03158
 C449 C 0.50978 0.54988 0.05827
 C450 C 0.53093 0.57284 0.08353
 H451 H 0.59494 0.67853 0.16160
 H452 H 0.68340 0.59571 0.13693
 H453 H 0.58119 0.50233 0.01257
 H454 H 0.47967 0.55161 0.06003
 H455 H 0.55305 0.64040 0.12098
 H456 H 0.51643 0.59143 0.10426
   
