data_POSCAR
  _audit_creation_date              2014-09-24
  _audit_creation_method            'ToBaCCo'
  _symmetry_space_group_name_H-M    'P1'
  _symmetry_Int_Tables_number       1
  _symmetry_cell_setting            triclinic
  loop_
  _symmetry_equiv_pos_as_xyz
 x,y,z
_cell_length_a 48.8887
_cell_length_b 48.1767
_cell_length_c 17.4952
_cell_angle_alpha 89.970400
_cell_angle_beta 89.886000
_cell_angle_gamma 119.842000
loop_
  _atom_site_label
  _atom_site_type_symbol
  _atom_site_fract_x
  _atom_site_fract_y
  _atom_site_fract_z
O1 O 0.19752 0.46843 0.43018
 O2 O 0.24608 0.45937 0.57794
 O3 O 0.19730 0.46758 0.57785
 O4 O 0.24614 0.45984 0.42804
 O5 O 0.27770 0.51223 0.42895
 O6 O 0.22894 0.51999 0.57854
 O7 O 0.27827 0.51160 0.57690
 O8 O 0.22879 0.52089 0.43246
 Cu9 Cu 0.21873 0.45852 0.50339
 Cu10 Cu 0.25677 0.52142 0.50442
 C11 C 0.20431 0.49625 0.40806
 C12 C 0.27075 0.48394 0.60201
 C13 C 0.20427 0.49518 0.60192
 C14 C 0.27036 0.48475 0.40324
 O15 O 0.58245 -0.18125 0.57617
 O16 O 0.58371 -0.23484 0.42655
 O17 O 0.58253 -0.18118 0.42646
 O18 O 0.58354 -0.23493 0.57624
 O19 O 0.53152 -0.26179 0.57534
 O20 O 0.53046 -0.20836 0.42756
 O21 O 0.53164 -0.26169 0.42774
 O22 O 0.53042 -0.20800 0.57435
 Cu23 Cu 0.58832 -0.20532 0.50140
 Cu24 Cu 0.52585 -0.23770 0.50145
 C25 C 0.55611 -0.18518 0.59977
 C26 C 0.55770 -0.25761 0.40218
 C27 C 0.55618 -0.18554 0.40217
 C28 C 0.55755 -0.25787 0.60064
 O29 O 1.26984 0.78155 0.42739
 O30 O 1.21503 0.72750 0.57415
 O31 O 1.26916 0.78084 0.57569
 O32 O 1.21566 0.72846 0.42544
 O33 O 1.24056 0.70076 0.42512
 O34 O 1.29391 0.75300 0.57519
 O35 O 1.23919 0.69914 0.57178
 O36 O 1.29508 0.75419 0.42841
 Cu37 Cu 1.23991 0.75734 0.50079
 Cu38 Cu 1.26967 0.72398 0.50022
 C39 C 1.29231 0.77756 0.40448
 C40 C 1.21712 0.70349 0.59631
 C41 C 1.29119 0.77637 0.59945
 C42 C 1.21860 0.70527 0.40090
 O43 O 0.74358 0.54468 0.57540
 O44 O 0.79359 0.53830 0.42647
 O45 O 0.74362 0.54467 0.42541
 O46 O 0.79323 0.53766 0.57428
 O47 O 0.76237 0.48513 0.57428
 O48 O 0.71334 0.49209 0.42493
 O49 O 0.76356 0.48567 0.42809
 O50 O 0.71226 0.49232 0.57275
 Cu51 Cu 0.77142 0.54662 0.50050
 Cu52 Cu 0.73468 0.48356 0.50011
 C53 C 0.71904 0.51966 0.59865
 C54 C 0.78769 0.51082 0.40386
 C55 C 0.71992 0.51948 0.40004
 C56 C 0.78676 0.51009 0.59782
 O57 O 0.44500 0.25400 0.42696
 O58 O 0.43674 0.19582 0.57568
 O59 O 0.44499 0.25386 0.57506
 O60 O 0.43684 0.19606 0.42564
 O61 O 0.48852 0.21661 0.42575
 O62 O 0.49662 0.27382 0.57429
 O63 O 0.48829 0.21572 0.57381
 O64 O 0.49668 0.27440 0.42846
 Cu65 Cu 0.43565 0.22274 0.50092
 Cu66 Cu 0.49765 0.24693 0.50067
 C67 C 0.47239 0.27472 0.40422
 C68 C 0.46121 0.19564 0.59952
 C69 C 0.47234 0.27431 0.59826
 C70 C 0.46147 0.19654 0.40045
 O71 O 0.75020 0.19479 0.43395
 O72 O 0.80039 0.25711 0.57448
 O73 O 0.75140 0.19945 0.58333
 O74 O 0.80151 0.25016 0.42689
 O75 O 0.77237 0.27331 0.41765
 O76 O 0.72095 0.22101 0.57195
 O77 O 0.77016 0.27886 0.56280
 O78 O 0.72081 0.21761 0.42410
 Cu79 Cu 0.77881 0.22310 0.50597
 Cu80 Cu 0.74297 0.24977 0.49321
 C81 C 0.72682 0.19580 0.40516
 C82 C 0.79416 0.27913 0.59105
 C83 C 0.72737 0.20116 0.60360
 C84 C 0.79590 0.27072 0.39660
 N85 N 0.96707 0.54127 0.08186
 N86 N 0.94454 0.54845 0.09236
 N87 N 1.03255 0.55196 0.13172
 N88 N 1.05710 0.56673 0.17727
 N89 N 1.03316 0.57146 0.07847
 N90 N 1.05794 0.60031 0.08720
 N91 N 0.96607 0.52167 0.13534
 N92 N 0.94252 0.51453 0.18301
 C93 C 0.92940 0.53147 0.15560
 C94 C 1.07266 0.59683 0.14898
 N95 N 1.02693 0.46960 0.08671
 N96 N 1.04889 0.46181 0.09879
 N97 N 0.96248 0.46051 0.14040
 N98 N 0.93871 0.44715 0.18893
 N99 N 0.96092 0.43949 0.09034
 N100 N 0.93626 0.41104 0.10423
 N101 N 1.02895 0.49073 0.13701
 N102 N 1.05270 0.49830 0.18412
 Mn103 Mn 0.99753 0.50624 0.13701
 C104 C 1.06487 0.48005 0.15946
 C105 C 0.92257 0.41634 0.16563
 N106 N 1.03149 0.56889 -0.08649
 N107 N 1.05561 0.59760 -0.10084
 N108 N 0.96352 0.51749 -0.13308
 N109 N 0.93970 0.50984 -0.18000
 N110 N 0.96563 0.53874 -0.08289
 N111 N 0.94365 0.54652 -0.09502
 N112 N 1.03019 0.54802 -0.13672
 N113 N 1.05383 0.56186 -0.18575
 Mn114 Mn 0.99937 0.55543 -0.00230
 C115 C 1.06939 0.59276 -0.16262
 C116 C 0.92758 0.52817 -0.15549
 N117 N 0.95984 0.43674 -0.07450
 N118 N 0.93876 0.40671 -0.08925
 N119 N 1.02662 0.48665 -0.13147
 N120 N 1.05016 0.49367 -0.17909
 N121 N 1.02562 0.46713 -0.07771
 N122 N 1.04807 0.45985 -0.08800
 N123 N 0.96003 0.45580 -0.12851
 N124 N 0.93854 0.43916 -0.18076
 Mn125 Mn 0.99329 0.45295 0.00631
 Mn126 Mn 0.99504 0.50199 -0.13345
 Cl127 Cl 0.99627 0.50413 0.00178
 C128 C 0.92529 0.40865 -0.15488
 C129 C 1.06322 0.47670 -0.15131
 N130 N 0.45373 0.43308 0.08171
 N131 N 0.44397 0.40243 0.09311
 N132 N 0.44995 0.49233 0.13471
 N133 N 0.43770 0.50357 0.18459
 N134 N 0.42895 0.47456 0.08340
 N135 N 0.40151 0.47269 0.09801
 N136 N 0.47504 0.45077 0.13250
 N137 N 0.48072 0.43277 0.17924
 C138 C 0.46116 0.40272 0.15404
 C139 C 0.40756 0.49124 0.16096
 N140 N 0.53289 0.56470 0.08242
 N141 N 0.54179 0.59511 0.09536
 N142 N 0.53769 0.50512 0.13191
 N143 N 0.55056 0.49433 0.18114
 N144 N 0.55853 0.52388 0.08108
 N145 N 0.58640 0.52676 0.09527
 N146 N 0.51226 0.54625 0.13397
 N147 N 0.50604 0.56333 0.18222
 Mn148 Mn 0.49378 0.49858 0.13397
 C149 C 0.52456 0.59368 0.15769
 C150 C 0.58085 0.50784 0.15745
 N151 N 0.42870 0.47467 -0.08241
 N152 N 0.40116 0.47267 -0.09565
 N153 N 0.47460 0.45101 -0.13417
 N154 N 0.48025 0.43303 -0.18111
 N155 N 0.45347 0.43327 -0.08276
 N156 N 0.44381 0.40265 -0.09391
 N157 N 0.44948 0.49264 -0.13424
 N158 N 0.43694 0.50397 -0.18305
 Mn159 Mn 0.44081 0.45362 -0.00002
 C160 C 0.40688 0.49142 -0.15817
 C161 C 0.46084 0.40297 -0.15537
 N162 N 0.55830 0.52408 -0.08454
 N163 N 0.58611 0.52687 -0.09916
 N164 N 0.51188 0.54662 -0.13504
 N165 N 0.50558 0.56391 -0.18246
 N166 N 0.53269 0.56489 -0.08385
 N167 N 0.54166 0.59536 -0.09628
 N168 N 0.53739 0.50540 -0.13508
 N169 N 0.55019 0.49453 -0.18453
 Mn170 Mn 0.54601 0.54480 -0.00124
 Mn171 Mn 0.49337 0.49887 -0.13544
 Cl172 Cl 0.49352 0.49900 -0.00071
 C173 C 0.58051 0.50799 -0.16124
 C174 C 0.52428 0.59419 -0.15782
 N175 N 0.43135 -0.03609 0.08165
 N176 N 0.40247 -0.06003 0.09344
 N177 N 0.48337 0.03091 0.13270
 N178 N 0.49239 0.05501 0.18036
 N179 N 0.46390 0.03110 0.08141
 N180 N 0.45860 0.05513 0.09398
 N181 N 0.45092 -0.03657 0.13219
 N182 N 0.43600 -0.06104 0.17925
 C183 C 0.40583 -0.07540 0.15440
 C184 C 0.47681 0.06987 0.15577
 N185 N 0.56216 0.03287 0.08028
 N186 N 0.59103 0.05649 0.09465
 N187 N 0.51039 -0.03532 0.13140
 N188 N 0.50344 -0.05836 0.18138
 N189 N 0.53075 -0.03421 0.08064
 N190 N 0.53857 -0.05629 0.09556
 N191 N 0.54227 0.03205 0.13204
 N192 N 0.55677 0.05536 0.18177
 Mn193 Mn 0.49667 -0.00235 0.13278
 C194 C 0.58707 0.07043 0.15785
 C195 C 0.52100 -0.07134 0.15815
 N196 N 0.46342 0.03067 -0.08477
 N197 N 0.45812 0.05469 -0.09720
 N198 N 0.45022 -0.03729 -0.13380
 N199 N 0.43509 -0.06204 -0.17975
 N200 N 0.43090 -0.03653 -0.08271
 N201 N 0.40197 -0.06056 -0.09304
 N202 N 0.48261 0.03027 -0.13680
 N203 N 0.49147 0.05429 -0.18489
 Mn204 Mn 0.44707 -0.00259 -0.00110
 C205 C 0.47602 0.06926 -0.15974
 C206 C 0.40505 -0.07628 -0.15366
 N207 N 0.53042 -0.03447 -0.08471
 N208 N 0.53827 -0.05655 -0.09899
 N209 N 0.54151 0.03141 -0.13770
 N210 N 0.55529 0.05553 -0.18585
 N211 N 0.56163 0.03273 -0.08620
 N212 N 0.58996 0.05766 -0.09902
 N213 N 0.50975 -0.03601 -0.13487
 N214 N 0.50260 -0.05943 -0.18381
 Mn215 Mn 0.54668 -0.00066 -0.00257
 Mn216 Mn 0.49596 -0.00304 -0.13655
 Cl217 Cl 0.49663 -0.00214 -0.00185
 C218 C 0.52041 -0.07211 -0.16047
 C219 C 0.58542 0.07170 -0.16128
 C220 C 1.13879 0.47600 0.27310
 C221 C 1.13641 0.50386 0.27550
 N222 N 1.15765 0.52943 0.31651
 C223 C 1.18088 0.52822 0.35639
 C224 C 1.18248 0.49986 0.35685
 N225 N 1.16138 0.47444 0.31472
 N226 N 1.11793 0.45066 0.23085
 C227 C 1.09451 0.45175 0.19159
 C228 C 1.09130 0.47911 0.19643
 N229 N 1.11249 0.50463 0.23811
 H230 H 1.19709 0.54873 0.38993
 H231 H 1.07801 0.43111 0.15888
 C232 C 0.52748 0.66906 0.28560
 C233 C 0.55475 0.67330 0.24819
 N234 N 0.58256 0.70072 0.25976
 C235 C 0.58436 0.72389 0.30765
 C236 C 0.55708 0.71942 0.34576
 N237 N 0.52929 0.69212 0.33298
 N238 N 0.49987 0.64136 0.27680
 C239 C 0.49830 0.61734 0.23321
 C240 C 0.52554 0.62117 0.19641
 N241 N 0.55321 0.64928 0.20412
 H242 H 0.60687 0.74532 0.31654
 H243 H 0.47608 0.59521 0.22834
 C244 C 0.33236 -0.15459 0.26889
 C245 C 0.36335 -0.14919 0.27027
 N246 N 0.36997 -0.16912 0.31087
 C247 C 0.34710 -0.19395 0.35133
 C248 C 0.31631 -0.19863 0.35286
 N249 N 0.30969 -0.17881 0.31112
 N250 N 0.32567 -0.13500 0.22696
 C251 C 0.34867 -0.10995 0.18713
 C252 C 0.37993 -0.10373 0.19109
 N253 N 0.38645 -0.12367 0.23240
 H254 H 0.35320 -0.20907 0.38444
 H255 H 0.34280 -0.09448 0.15479
 C256 C 0.85376 0.53306 0.26802
 C257 C 0.85724 0.50586 0.27117
 N258 N 0.83657 0.48008 0.31278
 C259 C 0.81285 0.48044 0.35261
 C260 C 0.81013 0.50817 0.35249
 N261 N 0.83068 0.53383 0.30971
 N262 N 0.87408 0.55857 0.22499
 C263 C 0.89800 0.55827 0.18576
 C264 C 0.90232 0.53161 0.19157
 N265 N 0.88166 0.50594 0.23396
 H266 H 0.79712 0.45978 0.38662
 H267 H 0.91408 0.57902 0.15251
 C268 C 0.45365 0.32218 0.26867
 C269 C 0.48191 0.35163 0.26936
 N270 N 0.50693 0.35467 0.30958
 C271 C 0.50486 0.32970 0.35032
 C272 C 0.47621 0.30052 0.35256
 N273 N 0.45125 0.29744 0.31120
 N274 N 0.42887 0.31910 0.22703
 C275 C 0.43094 0.34432 0.18693
 C276 C 0.45878 0.37415 0.19032
 N277 N 0.48365 0.37697 0.23126
 H278 H 0.52505 0.33303 0.38303
 H279 H 0.41076 0.34139 0.15491
 C280 C 0.65589 0.14636 0.28874
 C281 C 0.66309 0.12459 0.25354
 N282 N 0.69143 0.12671 0.26758
 C283 C 0.71275 0.14948 0.31554
 C284 C 0.70545 0.17125 0.35082
 N285 N 0.67717 0.16911 0.33586
 N286 N 0.62729 0.14377 0.27755
 C287 C 0.60526 0.12006 0.23344
 C288 C 0.61217 0.09806 0.19825
 N289 N 0.64111 0.10093 0.20866
 H290 H 0.73504 0.15052 0.32612
 H291 H 0.58239 0.11817 0.22655
 C292 C 0.48343 0.14755 -0.28423
 C293 C 0.45446 0.12514 -0.25162
 N294 N 0.42830 0.12722 -0.26685
 C295 C 0.42970 0.15042 -0.31398
 C296 C 0.45870 0.17274 -0.34750
 N297 N 0.48487 0.17076 -0.33068
 N298 N 0.50938 0.14485 -0.27212
 C299 C 0.50763 0.12040 -0.22978
 C300 C 0.47869 0.09771 -0.19754
 N301 N 0.45271 0.10075 -0.20861
 H302 H 0.40833 0.15114 -0.32572
 H303 H 0.52856 0.11843 -0.22216
 C304 C 0.64832 0.49810 -0.28963
 C305 C 0.65625 0.52719 -0.25370
 N306 N 0.68521 0.55303 -0.26569
 C307 C 0.70651 0.55125 -0.31265
 C308 C 0.69868 0.52210 -0.34892
 N309 N 0.66972 0.49615 -0.33552
 N310 N 0.61883 0.47268 -0.28099
 C311 C 0.59678 0.47512 -0.23860
 C312 C 0.60466 0.50414 -0.20227
 N313 N 0.63438 0.52950 -0.21028
 H314 H 0.72924 0.57245 -0.32166
 H315 H 0.57328 0.45464 -0.23355
 C316 C 0.85930 0.32862 -0.28117
 C317 C 0.85661 0.35626 -0.27599
 N318 N 0.83244 0.35711 -0.31160
 C319 C 0.81101 0.33174 -0.35304
 C320 C 0.81432 0.30441 -0.36132
 N321 N 0.83850 0.30361 -0.32460
 N322 N 0.88277 0.32731 -0.24297
 C323 C 0.90382 0.35251 -0.20032
 C324 C 0.90187 0.38063 -0.19741
 N325 N 0.87821 0.38181 -0.23539
 H326 H 0.79220 0.33345 -0.38121
 H327 H 0.92242 0.35094 -0.17062
 C328 C 0.52445 -0.14416 -0.28799
 C329 C 0.55166 -0.11987 -0.25292
 N330 N 0.57986 -0.11819 -0.26565
 C331 C 0.58218 -0.13949 -0.31253
 C332 C 0.55491 -0.16389 -0.34794
 N333 N 0.52668 -0.16563 -0.33378
 N334 N 0.49649 -0.14501 -0.27865
 C335 C 0.49451 -0.12243 -0.23639
 C336 C 0.52163 -0.09811 -0.20100
 N337 N 0.54962 -0.09753 -0.20965
 H338 H 0.60508 -0.13722 -0.32223
 H339 H 0.47202 -0.12333 -0.23077
 C340 C 0.34040 0.50360 -0.28494
 C341 C 0.33186 0.47412 -0.25012
 N342 N 0.30282 0.44863 -0.26319
 C343 C 0.28201 0.45114 -0.31022
 C344 C 0.29049 0.48068 -0.34547
 N345 N 0.31951 0.50626 -0.33093
 N346 N 0.36997 0.52868 -0.27531
 C347 C 0.39157 0.52552 -0.23309
 C348 C 0.38311 0.49608 -0.19803
 N349 N 0.35329 0.47107 -0.20691
 H350 H 0.25920 0.43022 -0.32016
 H351 H 0.41519 0.54571 -0.22734
 C352 C 1.14765 0.66502 -0.28145
 C353 C 1.14447 0.63467 -0.27083
 N354 N 1.16668 0.62852 -0.29980
 C355 C 1.19166 0.65115 -0.34023
 C356 C 1.19406 0.68110 -0.35465
 N357 N 1.17194 0.68724 -0.32406
 N358 N 1.12605 0.67157 -0.25021
 C359 C 1.10117 0.64898 -0.20952
 C360 C 1.09717 0.61816 -0.20171
 N361 N 1.11905 0.61176 -0.23242
 H362 H 1.20866 0.64524 -0.36348
 H363 H 1.08413 0.65470 -0.18559
 C364 C 0.85318 0.53161 -0.26876
 C365 C 0.85539 0.50364 -0.26968
 N366 N 0.83381 0.47771 -0.30903
 C367 C 0.81037 0.47861 -0.34867
 C368 C 0.80888 0.50703 -0.35071
 N369 N 0.83036 0.53286 -0.31022
 N370 N 0.87440 0.55732 -0.22803
 C371 C 0.89799 0.55647 -0.18892
 C372 C 0.90102 0.52897 -0.19234
 N373 N 0.87948 0.50311 -0.23250
 H374 H 0.79389 0.45778 -0.38088
 H375 H 0.91477 0.57739 -0.15743
 C376 C 0.45344 0.32213 -0.26786
 C377 C 0.48181 0.35150 -0.26859
 N378 N 0.50697 0.35429 -0.30795
 C379 C 0.50494 0.32917 -0.34788
 C380 C 0.47618 0.30011 -0.35021
 N381 N 0.45108 0.29727 -0.30966
 N382 N 0.42850 0.31928 -0.22704
 C383 C 0.43054 0.34463 -0.18775
 C384 C 0.45849 0.37437 -0.19122
 N385 N 0.48352 0.37698 -0.23135
 H386 H 0.52524 0.33232 -0.38003
 H387 H 0.41024 0.34187 -0.15629
 C388 C 0.65397 0.15006 -0.28819
 C389 C 0.66284 0.13205 -0.24177
 N390 N 0.69311 0.13819 -0.24371
 C391 C 0.71477 0.16112 -0.29086
 C392 C 0.70578 0.17879 -0.33838
 N393 N 0.67556 0.17295 -0.33507
 N394 N 0.62352 0.14322 -0.28881
 C395 C 0.60135 0.11881 -0.24612
 C396 C 0.60994 0.10035 -0.20049
 N397 N 0.64067 0.10765 -0.19873
 H398 H 0.73859 0.16510 -0.29223
 H399 H 0.57711 0.11352 -0.24883
 C400 C 1.13838 0.47395 -0.26271
 C401 C 1.13563 0.50159 -0.26526
 N402 N 1.15687 0.52738 -0.30597
 C403 C 1.18043 0.52659 -0.34554
 C404 C 1.18235 0.49841 -0.34617
 N405 N 1.16127 0.47277 -0.30423
 N406 N 1.11753 0.44841 -0.22062
 C407 C 1.09374 0.44910 -0.18176
 C408 C 1.09012 0.47619 -0.18707
 N409 N 1.11133 0.50191 -0.22849
 H410 H 1.19659 0.54725 -0.37898
 H411 H 1.07722 0.42832 -0.14922
 C412 C 0.52729 0.67049 -0.28235
 C413 C 0.55496 0.67362 -0.25011
 N414 N 0.58305 0.70015 -0.26580
 C415 C 0.58479 0.72348 -0.31305
 C416 C 0.55706 0.72020 -0.34620
 N417 N 0.52899 0.69378 -0.32890
 N418 N 0.49933 0.64349 -0.26985
 C419 C 0.49778 0.61914 -0.22745
 C420 C 0.52539 0.62196 -0.19554
 N421 N 0.55343 0.64934 -0.20703
 H422 H 0.60760 0.74410 -0.32518
 H423 H 0.47525 0.59756 -0.21962
 C424 C 0.33122 -0.15583 -0.26536
 C425 C 0.36206 -0.15085 -0.26604
 N426 N 0.36847 -0.17120 -0.30544
 C427 C 0.34555 -0.19602 -0.34552
 C428 C 0.31495 -0.20022 -0.34805
 N429 N 0.30852 -0.18002 -0.30736
 N430 N 0.32474 -0.13578 -0.22467
 C431 C 0.34783 -0.11066 -0.18551
 C432 C 0.37898 -0.10481 -0.18901
 N433 N 0.38527 -0.12524 -0.22897
 H434 H 0.35153 -0.21143 -0.37783
 H435 H 0.34214 -0.09480 -0.15425
 C436 C 0.52488 -0.14230 0.29077
 C437 C 0.55132 -0.12040 0.24842
 N438 N 0.57889 -0.12063 0.25554
 C439 C 0.58126 -0.14161 0.30360
 C440 C 0.55479 -0.16347 0.34620
 N441 N 0.52720 -0.16330 0.33806
 N442 N 0.49764 -0.14143 0.28637
 C443 C 0.49567 -0.11933 0.24219
 C444 C 0.52206 -0.09721 0.19995
 N445 N 0.54931 -0.09840 0.20356
 H446 H 0.60357 -0.14108 0.30879
 H447 H 0.47378 -0.11882 0.24063
 C448 C 0.34216 0.50368 0.29258
 C449 C 0.33215 0.47585 0.24881
 N450 N 0.30176 0.45179 0.25435
 C451 C 0.28104 0.45414 0.30229
 C452 C 0.29110 0.48193 0.34651
 N453 N 0.32145 0.50612 0.33987
 N454 N 0.37276 0.52723 0.28977
 C455 C 0.39400 0.52409 0.24590
 C456 C 0.38420 0.49621 0.20239
 N457 N 0.35334 0.47278 0.20434
 H458 H 0.25707 0.43445 0.30632
 H459 H 0.41839 0.54302 0.24566
 C460 C 1.15264 0.66868 0.26226
 C461 C 1.14594 0.63676 0.26227
 N462 N 1.16451 0.62849 0.30242
 C463 C 1.18921 0.65060 0.34397
 C464 C 1.19512 0.68228 0.34729
 N465 N 1.17671 0.69060 0.30577
 N466 N 1.13429 0.67693 0.22081
 C467 C 1.10917 0.65456 0.18044
 C468 C 1.10157 0.62236 0.18358
 N469 N 1.12034 0.61434 0.22413
 H470 H 1.20320 0.64315 0.37677
 H471 H 1.09459 0.66161 0.14885
 C472 C 0.48389 0.14730 0.28283
 C473 C 0.45550 0.12626 0.24599
 N474 N 0.42965 0.12932 0.25803
 C475 C 0.43082 0.15219 0.30594
 C476 C 0.45917 0.17297 0.34358
 N477 N 0.48503 0.17005 0.33026
 N478 N 0.50949 0.14374 0.27360
 C479 C 0.50792 0.11968 0.23018
 C480 C 0.47951 0.09822 0.19403
 N481 N 0.45391 0.10217 0.20211
 H482 H 0.40978 0.15383 0.31530
 H483 H 0.52854 0.11698 0.22501
 C484 C 0.64790 0.49826 0.28866
 C485 C 0.65691 0.52624 0.24611
 N486 N 0.68676 0.55127 0.25278
 C487 C 0.70789 0.54970 0.30065
 C488 C 0.69882 0.52174 0.34360
 N489 N 0.66901 0.49662 0.33585
 N490 N 0.61780 0.47368 0.28475
 C491 C 0.59609 0.47593 0.24095
 C492 C 0.60487 0.50394 0.19862
 N493 N 0.63526 0.52843 0.20169
 H494 H 0.73140 0.57013 0.30556
 H495 H 0.57208 0.45617 0.23983
 C496 C 0.84546 0.34580 0.29060
 C497 C 0.86428 0.33762 0.24580
 N498 N 0.85927 0.30728 0.24814
 C499 C 0.83660 0.28483 0.29421
 C500 C 0.81795 0.29304 0.33963
 N501 N 0.82268 0.32334 0.33604
 N502 N 0.85142 0.37647 0.29121
 C503 C 0.87565 0.39950 0.24984
 C504 C 0.89468 0.39146 0.20543
 N505 N 0.88832 0.36056 0.20388
 H506 H 0.83349 0.26097 0.29622
 H507 H 0.88021 0.42390 0.25217
   
