data_POSCAR
  _audit_creation_date              2014-09-24
  _audit_creation_method            'ToBaCCo'
  _symmetry_space_group_name_H-M    'P1'
  _symmetry_Int_Tables_number       1
  _symmetry_cell_setting            triclinic
  loop_
  _symmetry_equiv_pos_as_xyz
 x,y,z
_cell_length_a 18.8769
_cell_length_b 18.9525
_cell_length_c 18.9407
_cell_angle_alpha 114.373800
_cell_angle_beta 64.411900
_cell_angle_gamma 65.785200
loop_
  _atom_site_label
  _atom_site_type_symbol
  _atom_site_fract_x
  _atom_site_fract_y
  _atom_site_fract_z
C1 C 0.56674 0.51375 0.01016
 C2 C 0.51023 0.57027 -0.00735
 C3 C 0.44184 0.56021 -0.01138
 C4 C 0.42958 0.49435 -0.00427
 C5 C 0.49491 0.42952 0.00169
 C6 C 0.55891 0.44336 0.01124
 H7 H 0.60482 0.39677 0.01918
 H8 H 0.39610 0.60553 -0.02023
 C9 C 0.00674 0.56980 0.49027
 C10 C -0.01216 0.51438 0.43517
 C11 C -0.01385 0.44418 0.44249
 C12 C -0.00252 0.42902 0.50472
 C13 C 0.00492 0.49274 0.56860
 C14 C 0.01221 0.55867 0.55715
 H15 H 0.02232 0.60279 0.60230
 H16 H -0.02355 0.39908 0.39759
 C17 C 0.49115 0.00602 0.43410
 C18 C 0.42995 -0.00631 0.49537
 C19 C 0.44234 -0.01506 0.56009
 C20 C 0.50522 -0.00366 0.57478
 C21 C 0.56814 0.00709 0.51167
 C22 C 0.55429 0.01696 0.44796
 H23 H 0.59152 0.03674 0.40992
 H24 H 0.40356 -0.03390 0.59823
 O25 O 0.40458 0.04738 -0.03357
 O26 O 0.40304 0.09052 0.17540
 O27 O 0.40774 0.16944 0.08760
 O28 O 0.40836 -0.03847 0.04760
 O29 O 0.59451 -0.16915 -0.08574
 O30 O 0.59385 0.03762 -0.04744
 O31 O 0.58913 -0.04089 0.04148
 O32 O 0.59069 -0.08503 -0.16807
 Cu33 Cu 0.38736 0.08023 0.08267
 Cu34 Cu 0.61066 -0.07738 -0.07819
 C35 C 0.49765 -0.02177 -0.13486
 C36 C 0.49577 0.02815 0.14278
 C37 C 0.50094 0.13711 0.02211
 C38 C 0.50176 -0.13794 -0.02208
 O39 O -0.16925 0.59527 1.08500
 O40 O 0.04731 0.58495 1.03659
 O41 O -0.03403 0.58450 0.95222
 O42 O -0.08764 0.59535 1.16906
 O43 O 0.04035 0.41193 1.04131
 O44 O 0.09371 0.40113 0.82415
 O45 O 0.17573 0.40160 0.90876
 O46 O -0.04137 0.41191 0.95747
 Cu47 Cu -0.07364 0.60840 1.07343
 Cu48 Cu 0.08012 0.38820 0.91994
 C49 C -0.14066 0.50509 1.02547
 C50 C 0.14657 0.49204 0.96904
 C51 C 0.03404 0.49147 0.85312
 C52 C -0.02853 0.50524 1.14056
 O53 O 0.08585 -0.17125 0.40355
 O54 O 0.05068 0.03484 0.40454
 O55 O 0.17121 -0.09028 0.40607
 O56 O -0.04062 -0.04159 0.40955
 O57 O -0.17397 0.08927 0.59529
 O58 O 0.03679 0.04256 0.59183
 O59 O -0.08452 0.16665 0.59026
 O60 O -0.04679 -0.04065 0.58932
 Cu61 Cu 0.07999 -0.08003 0.38726
 Cu62 Cu -0.08054 0.07758 0.61027
 C63 C 0.02225 -0.13993 0.49617
 C64 C -0.01874 0.13428 0.49733
 C65 C 0.13840 -0.02761 0.49873
 C66 C -0.14193 0.02763 0.50303
 C67 C -0.19894 0.40704 0.95752
 C68 C -0.31988 0.47230 1.06015
 C69 C -0.36262 0.51728 1.02047
 C70 C -0.24165 0.45146 0.91824
 C71 C -0.38537 0.61865 1.09123
 C72 C -0.34166 0.57350 1.12978
 C73 C -0.22199 0.50853 1.02736
 C74 C -0.26395 0.55333 0.98842
 H75 H -0.12218 0.31974 0.90282
 H76 H -0.34106 0.44057 1.09416
 H77 H -0.19947 0.39881 0.83055
 H78 H -0.46190 0.70691 1.14994
 H79 H -0.38044 0.62079 1.21609
 H80 H -0.23993 0.58696 0.95920
 C81 C 0.18189 0.58499 1.07823
 C82 C 0.26798 0.49956 1.06260
 C83 C 0.35516 0.49395 0.99093
 C84 C 0.26799 0.58089 1.00752
 C85 C 0.39835 0.39984 0.88336
 C86 C 0.31099 0.40447 0.95492
 C87 C 0.22566 0.49038 0.97082
 C88 C 0.31117 0.48611 0.89982
 H89 H 0.09216 0.66192 1.15878
 H90 H 0.24165 0.51133 1.13425
 H91 H 0.24176 0.65805 1.03321
 H92 H 0.48896 0.32575 0.80348
 H93 H 0.32673 0.33235 0.93371
 H94 H 0.32866 0.48053 0.83277
 C95 C -0.01707 -0.26192 0.45095
 C96 C 0.08607 -0.38101 0.38452
 C97 C 0.01547 -0.35879 0.48742
 C98 C -0.08722 -0.24019 0.55433
 C99 C 0.05502 -0.31484 0.53167
 C100 C 0.12467 -0.33632 0.42882
 C101 C 0.02191 -0.21893 0.49498
 C102 C -0.04802 -0.19620 0.59805
 H103 H -0.04654 -0.23864 0.41770
 H104 H 0.14458 -0.45694 0.29565
 H105 H -0.17477 -0.20034 0.60819
 H106 H 0.08898 -0.33431 0.56342
 H107 H 0.21126 -0.37373 0.37949
 H108 H -0.10293 -0.11996 0.68608
 C109 C 0.08886 0.17336 0.40105
 C110 C 0.01161 0.26274 0.41386
 C111 C -0.00306 0.34720 0.50082
 C112 C 0.07494 0.25726 0.48671
 C113 C -0.10678 0.38401 0.59617
 C114 C -0.09242 0.29980 0.51008
 C115 C -0.01523 0.21152 0.49736
 C116 C -0.02900 0.29417 0.58309
 H117 H 0.16968 0.08591 0.32006
 H118 H 0.03127 0.24316 0.34030
 H119 H 0.14648 0.23490 0.47366
 H120 H -0.18783 0.47138 0.67492
 H121 H -0.16124 0.31684 0.51950
 H122 H -0.04433 0.30526 0.65197
 C123 C 0.58589 -0.03481 -0.29850
 C124 C 0.59539 -0.10921 -0.38687
 C125 C 0.50165 -0.00546 -0.34800
 C126 C 0.49086 0.06921 -0.25934
 C127 C 0.41207 0.01103 -0.26036
 C128 C 0.50685 -0.09308 -0.29949
 C129 C 0.49788 -0.01935 -0.21283
 C130 C 0.40301 0.08465 -0.17266
 H131 H 0.65689 -0.05244 -0.31275
 H132 H 0.67283 -0.18923 -0.47569
 H133 H 0.47925 0.13979 -0.23519
 H134 H 0.33622 0.03355 -0.23759
 H135 H 0.51316 -0.15976 -0.31553
 H136 H 0.32304 0.16479 -0.08376
 C137 C 0.40944 0.03766 0.30414
 C138 C 0.50668 -0.06593 0.26366
 C139 C 0.49325 0.00994 0.35436
 C140 C 0.39714 0.11337 0.39477
 C141 C 0.57974 -0.00188 0.27009
 C142 C 0.59182 -0.07702 0.18013
 C143 C 0.49497 0.02633 0.22128
 C144 C 0.48284 0.10171 0.31041
 H145 H 0.33944 0.05397 0.31677
 H146 H 0.52193 -0.13877 0.23715
 H147 H 0.31950 0.19146 0.48475
 H148 H 0.65387 -0.02149 0.24951
 H149 H 0.67273 -0.15546 0.09116
 H150 H 0.47315 0.17066 0.32921
 C151 C 0.57125 -0.33544 -0.12497
 C152 C 0.61497 -0.37868 -0.08545
 C153 C 0.51271 -0.35804 -0.01613
 C154 C 0.46905 -0.31554 -0.05671
 C155 C 0.44394 -0.23855 0.08671
 C156 C 0.54676 -0.25880 0.01786
 C157 C 0.50332 -0.21726 -0.02207
 C158 C 0.40082 -0.19604 0.04652
 H159 H 0.62151 -0.37335 -0.21158
 H160 H 0.70431 -0.45360 -0.14371
 H161 H 0.43884 -0.33683 -0.09202
 H162 H 0.38924 -0.19793 0.17435
 H163 H 0.57878 -0.23408 0.04847
 H164 H 0.31253 -0.12075 0.10049
 C165 C 0.49063 0.30151 0.09293
 C166 C 0.58655 0.26328 -0.01233
 C167 C 0.49859 0.34806 0.00325
 C168 C 0.40359 0.38600 0.10823
 C169 C 0.51065 0.25874 -0.07237
 C170 C 0.59717 0.17470 -0.08713
 C171 C 0.50115 0.21404 0.01814
 C172 C 0.41449 0.29692 0.03282
 H173 H 0.48260 0.31868 0.16091
 H174 H 0.66157 0.24219 -0.03411
 H175 H 0.32544 0.47354 0.18926
 H176 H 0.52298 0.23528 -0.14352
 H177 H 0.67761 0.08697 -0.16790
 H178 H 0.34435 0.30909 0.05009
 C179 C -0.18037 -0.07842 0.41050
 C180 C -0.26677 -0.06296 0.49849
 C181 C -0.35545 0.01039 0.50857
 C182 C -0.26800 -0.00614 0.41884
 C183 C -0.39526 0.11517 0.60190
 C184 C -0.30664 0.04201 0.59304
 C185 C -0.22098 0.02625 0.50461
 C186 C -0.30782 0.09886 0.51308
 H187 H -0.09130 -0.15812 0.33102
 H188 H -0.24129 -0.13419 0.48603
 H189 H -0.24455 -0.02995 0.34259
 H190 H -0.48517 0.19462 0.67845
 H191 H -0.32059 0.06126 0.66424
 H192 H -0.32403 0.16525 0.51878
 C193 C 0.30581 -0.10208 0.48614
 C194 C 0.39075 -0.11390 0.40084
 C195 C 0.35063 -0.01085 0.49694
 C196 C 0.26571 0.00124 0.58309
 C197 C 0.26007 0.06539 0.51045
 C198 C 0.30031 -0.03778 0.41330
 C199 C 0.21694 -0.02634 0.49828
 C200 C 0.17581 0.07684 0.59528
 H201 H 0.32411 -0.17099 0.47623
 H202 H 0.48014 -0.19235 0.32263
 H203 H 0.24504 0.02045 0.65689
 H204 H 0.23487 0.13722 0.52432
 H205 H 0.31330 -0.05325 0.34370
 H206 H 0.08660 0.15575 0.67608
 C207 C 0.03818 0.40777 1.19921
 C208 C 0.07861 0.45156 1.24063
 C209 C -0.02389 0.51843 1.36175
 C210 C -0.06473 0.47414 1.32039
 C211 C -0.09388 0.61934 1.38382
 C212 C 0.00924 0.55296 1.26232
 C213 C -0.03102 0.50892 1.22170
 C214 C -0.13381 0.57501 1.34157
 H215 H 0.09223 0.32050 1.12307
 H216 H 0.16647 0.39843 1.19852
 H217 H -0.09914 0.44315 1.34299
 H218 H -0.15156 0.70741 1.45982
 H219 H 0.03969 0.58547 1.23732
 H220 H -0.22059 0.62321 1.38081
 C221 C 0.04981 0.40218 0.68853
 C222 C -0.05910 0.49605 0.73205
 C223 C 0.01066 0.49234 0.64619
 C224 C 0.11946 0.39951 0.60255
 C225 C -0.00745 0.58063 0.73365
 C226 C -0.07640 0.58297 0.81864
 C227 C 0.03231 0.48954 0.77442
 C228 C 0.10149 0.48719 0.69018
 H229 H 0.07276 0.32923 0.67180
 H230 H -0.12952 0.50547 0.75706
 H231 H 0.19928 0.32651 0.51192
 H232 H -0.03488 0.65818 0.75952
 H233 H -0.15738 0.65925 0.90830
 H234 H 0.16766 0.48347 0.67333
   
