data_POSCAR
  _audit_creation_date              2014-09-24
  _audit_creation_method            'ToBaCCo'
  _symmetry_space_group_name_H-M    'P1'
  _symmetry_Int_Tables_number       1
  _symmetry_cell_setting            triclinic
  loop_
  _symmetry_equiv_pos_as_xyz
 x,y,z
_cell_length_a 32.0368
_cell_length_b 32.0467
_cell_length_c 32.0423
_cell_angle_alpha 77.175100
_cell_angle_beta 103.718700
_cell_angle_gamma 70.250900
loop_
  _atom_site_label
  _atom_site_type_symbol
  _atom_site_fract_x
  _atom_site_fract_y
  _atom_site_fract_z
O1 O 0.54688 0.50467 0.00099
 O2 O 0.42273 0.53018 -0.00749
 O3 O 0.49536 0.45536 0.00297
 O4 O 0.47501 0.57752 -0.00752
 O5 O 0.44895 0.59775 -0.08241
 O6 O 0.48123 0.47230 -0.07106
 O7 O 0.40464 0.54090 -0.08096
 O8 O 0.52423 0.52818 -0.07399
 Cu9 Cu 0.48701 0.51489 0.00475
 Cu10 Cu 0.46239 0.53685 -0.08465
 C11 C 0.55608 0.51441 -0.03556
 C12 C 0.39301 0.53749 -0.04554
 C13 C 0.49205 0.44286 -0.03216
 C14 C 0.45913 0.60845 -0.04651
 O15 O -0.02870 0.56060 0.48795
 O16 O -0.01964 0.43968 0.50647
 O17 O -0.02383 0.49568 0.55576
 O18 O -0.02404 0.50537 0.43901
 O19 O 0.05331 0.48134 0.46372
 O20 O 0.05412 0.46261 0.58134
 O21 O 0.05794 0.41327 0.52652
 O22 O 0.04870 0.53240 0.51768
 Cu23 Cu -0.03192 0.50297 0.49489
 Cu24 Cu 0.06133 0.46990 0.52488
 C25 C 0.00858 0.56705 0.50121
 C26 C 0.02064 0.40626 0.51779
 C27 C 0.01521 0.47739 0.58836
 C28 C 0.01480 0.49471 0.43151
 O29 O 0.50087 0.02136 0.55252
 O30 O 0.48442 0.03002 0.43283
 O31 O 0.43454 0.02563 0.48683
 O32 O 0.55101 0.02664 0.49919
 O33 O 0.58350 -0.05068 0.51913
 O34 O 0.46657 -0.05187 0.50719
 O35 O 0.51501 -0.04745 0.45307
 O36 O 0.53460 -0.05589 0.57340
 Cu37 Cu 0.48965 0.03367 0.49072
 Cu38 Cu 0.52832 -0.05925 0.51520
 C39 C 0.51960 -0.01860 0.58343
 C40 C 0.49683 -0.00732 0.42260
 C41 C 0.43089 -0.01332 0.49584
 C42 C 0.58705 -0.01160 0.51071
 C43 C 0.48504 0.00966 -0.05246
 C44 C 0.48895 -0.02737 -0.01605
 C45 C 0.49117 -0.02091 0.02628
 C46 C 0.49021 0.02096 0.03382
 C47 C 0.48758 0.05757 -0.00236
 C48 C 0.48456 0.05132 -0.04485
 H49 H 0.48208 0.07950 -0.07265
 H50 H 0.49397 -0.04929 0.05408
 C51 C -0.01589 0.50544 1.04125
 C52 C -0.04944 0.50264 1.00552
 C53 C -0.04102 0.50358 0.96435
 C54 C -0.00173 0.50962 0.95696
 C55 C 0.03123 0.51414 0.99199
 C56 C 0.02398 0.51054 1.03404
 H57 H 0.04944 0.51262 1.06168
 H58 H -0.06595 0.50030 0.93712
 C59 C 0.06519 -0.01819 0.54356
 C60 C 0.02569 0.01748 0.54571
 C61 C -0.01426 0.00882 0.54678
 C62 C -0.01630 -0.03400 0.54563
 C63 C 0.02346 -0.06992 0.54440
 C64 C 0.06351 -0.06143 0.54362
 H65 H 0.09381 -0.08887 0.54233
 H66 H -0.04470 0.03624 0.54789
 C67 C -0.34925 0.53935 0.92704
 C68 C -0.30956 0.51756 0.96742
 C69 C -0.31362 0.49044 1.00650
 C70 C -0.35727 0.48890 1.00573
 C71 C -0.39678 0.51252 0.96573
 C72 C -0.39185 0.53673 0.92635
 C73 C -0.27416 0.46526 1.04601
 C74 C -0.23056 0.46584 1.04739
 C75 C -0.22517 0.49340 1.00970
 C76 C -0.26595 0.52138 0.96991
 C77 C -0.26231 0.55345 0.93436
 C78 C -0.21989 0.55669 0.93656
 C79 C -0.17913 0.52741 0.97362
 C80 C -0.18073 0.49485 1.01058
 C81 C -0.13754 0.46457 1.04625
 C82 C -0.09497 0.46696 1.04496
 C83 C -0.09419 0.50016 1.00874
 C84 C -0.13658 0.53043 0.97347
 H85 H -0.34837 0.55801 0.89507
 H86 H -0.36044 0.46929 1.03618
 H87 H -0.42149 0.55481 0.89477
 H88 H -0.27685 0.44438 1.07606
 H89 H -0.20190 0.44549 1.07914
 H90 H -0.29218 0.57786 0.90479
 H91 H -0.21889 0.58204 0.90851
 H92 H -0.13529 0.43767 1.07479
 H93 H -0.06246 0.44234 1.07207
 H94 H -0.13628 0.55621 0.94527
 C95 C 0.27982 0.52651 0.91503
 C96 C 0.26175 0.53218 0.95049
 C97 C 0.28540 0.54606 0.98444
 C98 C 0.32919 0.54739 0.98612
 C99 C 0.34793 0.53951 0.95172
 C100 C 0.32153 0.53129 0.91513
 C101 C 0.26522 0.55828 1.01651
 C102 C 0.22175 0.55749 1.01515
 C103 C 0.19863 0.54095 0.98370
 C104 C 0.22067 0.52513 0.95299
 C105 C 0.20257 0.50040 0.92771
 C106 C 0.16403 0.49152 0.93242
 C107 C 0.14001 0.51001 0.95971
 C108 C 0.15547 0.53728 0.98361
 C109 C 0.12681 0.56020 1.00603
 C110 C 0.08575 0.55419 1.00650
 C111 C 0.07280 0.52348 0.98656
 C112 C 0.10073 0.50120 0.96348
 H113 H 0.26169 0.51948 0.88624
 H114 H 0.34813 0.55559 1.01375
 H115 H 0.33432 0.52594 0.88749
 H116 H 0.28281 0.56930 1.04243
 H117 H 0.20832 0.56725 1.04104
 H118 H 0.21948 0.48497 0.90612
 H119 H 0.15232 0.47082 0.91378
 H120 H 0.13448 0.58431 1.02204
 H121 H 0.06423 0.57348 1.02310
 H122 H 0.09289 0.47619 0.94908
 C123 C -0.04134 -0.30356 0.47735
 C124 C -0.00168 -0.29685 0.49996
 C125 C 0.04166 -0.33697 0.52266
 C126 C 0.04525 -0.38132 0.52086
 C127 C 0.00545 -0.38768 0.49906
 C128 C -0.03784 -0.34823 0.47742
 C129 C 0.08112 -0.33294 0.54793
 C130 C 0.07819 -0.29022 0.55277
 C131 C 0.03583 -0.24926 0.53102
 C132 C -0.00385 -0.25205 0.50196
 C133 C -0.04386 -0.20992 0.47526
 C134 C -0.04540 -0.16666 0.47765
 C135 C -0.00813 -0.16384 0.50810
 C136 C 0.03235 -0.20528 0.53632
 C137 C 0.06746 -0.20110 0.56928
 C138 C 0.06346 -0.15734 0.57238
 C139 C 0.02473 -0.11625 0.54265
 C140 C -0.01099 -0.11974 0.51046
 H141 H -0.07598 -0.27530 0.46083
 H142 H 0.07894 -0.41134 0.53844
 H143 H -0.06943 -0.35173 0.46050
 H144 H 0.11449 -0.36342 0.56503
 H145 H 0.11035 -0.29003 0.57264
 H146 H -0.07400 -0.20910 0.45083
 H147 H -0.07645 -0.13513 0.45591
 H148 H 0.09785 -0.23108 0.59395
 H149 H 0.09102 -0.15553 0.59812
 H150 H -0.04094 -0.08810 0.48705
 C151 C 0.05502 0.29087 0.49595
 C152 C 0.02995 0.26940 0.51708
 C153 C 0.00368 0.29319 0.54110
 C154 C -0.00018 0.33833 0.54054
 C155 C 0.02430 0.35912 0.51876
 C156 C 0.05252 0.33481 0.49731
 C157 C -0.01828 0.27167 0.56573
 C158 C -0.01376 0.22646 0.56809
 C159 C 0.01120 0.20181 0.54402
 C160 C 0.03090 0.22480 0.51594
 C161 C 0.04949 0.20319 0.48660
 C162 C 0.04985 0.15997 0.48554
 C163 C 0.03385 0.13562 0.51513
 C164 C 0.01579 0.15547 0.54590
 C165 C 0.00386 0.12772 0.57789
 C166 C 0.00822 0.08289 0.57809
 C167 C 0.02378 0.06441 0.54610
 C168 C 0.03594 0.09135 0.51425
 H169 H 0.07791 0.27399 0.47927
 H170 H -0.02126 0.35686 0.55799
 H171 H 0.07209 0.35034 0.48071
 H172 H -0.03853 0.28965 0.58405
 H173 H -0.03198 0.21237 0.58763
 H174 H 0.06226 0.21987 0.46253
 H175 H 0.06363 0.14507 0.46187
 H176 H -0.00746 0.13907 0.60413
 H177 H -0.00061 0.06242 0.60356
 H178 H 0.04743 0.07769 0.48894
 C179 C 0.54690 -0.06722 -0.29142
 C180 C 0.52133 -0.02724 -0.28159
 C181 C 0.49540 0.01571 -0.31821
 C182 C 0.49717 0.01867 -0.36204
 C183 C 0.52203 -0.02137 -0.37156
 C184 C 0.54666 -0.06436 -0.33570
 C185 C 0.46701 0.05550 -0.31125
 C186 C 0.46258 0.05346 -0.26893
 C187 C 0.48791 0.01171 -0.23124
 C188 C 0.51973 -0.02853 -0.23704
 C189 C 0.54969 -0.06806 -0.19800
 C190 C 0.54854 -0.06820 -0.15480
 C191 C 0.51605 -0.03000 -0.14902
 C192 C 0.48391 0.00962 -0.18745
 C193 C 0.44887 0.04561 -0.18049
 C194 C 0.44831 0.04397 -0.13685
 C195 C 0.48258 0.00670 -0.09859
 C196 C 0.51597 -0.03071 -0.10495
 H197 H 0.56599 -0.10159 -0.26597
 H198 H 0.47710 0.05213 -0.38928
 H199 H 0.56590 -0.09614 -0.34174
 H200 H 0.44730 0.08852 -0.33907
 H201 H 0.44034 0.08591 -0.26636
 H202 H 0.57599 -0.09876 -0.19953
 H203 H 0.57315 -0.09873 -0.12564
 H204 H 0.42100 0.07522 -0.20816
 H205 H 0.42134 0.07261 -0.13285
 H206 H 0.54265 -0.05978 -0.07560
 C207 C 0.46268 -0.02642 0.30972
 C208 C 0.47978 0.00097 0.28318
 C209 C 0.50423 0.02437 0.30447
 C210 C 0.50814 0.02289 0.34946
 C211 C 0.49062 -0.00410 0.37488
 C212 C 0.46866 -0.02929 0.35503
 C213 C 0.52523 0.04846 0.28099
 C214 C 0.52380 0.04868 0.23722
 C215 C 0.49932 0.02649 0.21436
 C216 C 0.47457 0.00480 0.23675
 C217 C 0.44453 -0.01129 0.21169
 C218 C 0.44020 -0.00802 0.16682
 C219 C 0.46700 0.00958 0.14575
 C220 C 0.49780 0.02613 0.16944
 C221 C 0.52679 0.04025 0.14760
 C222 C 0.52456 0.03851 0.10391
 C223 C 0.49235 0.02424 0.07992
 C224 C 0.46358 0.01002 0.10120
 H225 H 0.44606 -0.04736 0.29693
 H226 H 0.52629 0.04143 0.36534
 H227 H 0.45566 -0.05096 0.37459
 H228 H 0.54385 0.06654 0.29700
 H229 H 0.54088 0.06802 0.22138
 H230 H 0.42251 -0.02517 0.22544
 H231 H 0.41630 -0.02038 0.14872
 H232 H 0.55291 0.05091 0.16418
 H233 H 0.54854 0.04786 0.08904
 H234 H 0.43887 -0.00158 0.08316
 C235 C 0.42562 -0.26012 -0.09062
 C236 C 0.45471 -0.25349 -0.05401
 C237 C 0.48483 -0.29362 -0.01528
 C238 C 0.48432 -0.33760 -0.01289
 C239 C 0.45555 -0.34366 -0.04930
 C240 C 0.42651 -0.30466 -0.08835
 C241 C 0.51586 -0.29005 0.02096
 C242 C 0.51859 -0.24759 0.01952
 C243 C 0.48943 -0.20640 -0.01803
 C244 C 0.45557 -0.20889 -0.05456
 C245 C 0.42312 -0.16662 -0.08961
 C246 C 0.42358 -0.12347 -0.08888
 C247 C 0.45743 -0.12079 -0.05426
 C248 C 0.49192 -0.16245 -0.01929
 C249 C 0.52768 -0.15843 0.01310
 C250 C 0.52706 -0.11471 0.01268
 C251 C 0.49111 -0.07339 -0.01994
 C252 C 0.45671 -0.07664 -0.05393
 H253 H 0.40280 -0.23189 -0.12192
 H254 H 0.50781 -0.36776 0.01710
 H255 H 0.40444 -0.30859 -0.11721
 H256 H 0.53871 -0.32062 0.05076
 H257 H 0.54299 -0.24794 0.04936
 H258 H 0.39568 -0.16556 -0.11738
 H259 H 0.39722 -0.09183 -0.11589
 H260 H 0.55704 -0.18842 0.03894
 H261 H 0.55473 -0.11308 0.03848
 H262 H 0.42888 -0.04480 -0.07951
 C263 C 0.52663 0.32520 -0.05071
 C264 C 0.50830 0.30144 -0.02214
 C265 C 0.48386 0.32594 0.00255
 C266 C 0.48063 0.37120 0.00056
 C267 C 0.49898 0.39405 -0.02789
 C268 C 0.52140 0.37101 -0.05388
 C269 C 0.46198 0.30556 0.02837
 C270 C 0.46232 0.26193 0.02903
 C271 C 0.48637 0.23602 0.00524
 C272 C 0.51210 0.25489 -0.01840
 C273 C 0.54147 0.22631 -0.03677
 C274 C 0.54406 0.18160 -0.03392
 C275 C 0.51625 0.16428 -0.01426
 C276 C 0.48630 0.19144 0.00491
 C277 C 0.45646 0.17342 0.02157
 C278 C 0.45686 0.13014 0.01945
 C279 C 0.48790 0.10279 0.00201
 C280 C 0.51772 0.12010 -0.01443
 H281 H 0.54356 0.31003 -0.07235
 H282 H 0.46207 0.38953 0.01980
 H283 H 0.53509 0.38848 -0.07663
 H284 H 0.44344 0.32403 0.04751
 H285 H 0.44457 0.24864 0.04972
 H286 H 0.56413 0.23706 -0.05241
 H287 H 0.56735 0.16076 -0.04826
 H288 H 0.43103 0.19283 0.03465
 H289 H 0.43232 0.11832 0.03091
 H290 H 0.54160 0.09936 -0.02836
 C291 C -0.32252 0.03286 0.48873
 C292 C -0.27939 -0.00711 0.51260
 C293 C -0.28100 -0.04825 0.53852
 C294 C -0.32453 -0.04981 0.53775
 C295 C -0.36691 -0.01015 0.51287
 C296 C -0.36534 0.03125 0.48907
 C297 C -0.23920 -0.08752 0.56509
 C298 C -0.19563 -0.08664 0.56728
 C299 C -0.19220 -0.04677 0.54157
 C300 C -0.23485 -0.00725 0.51216
 C301 C -0.23168 0.03038 0.48241
 C302 C -0.18842 0.03044 0.48261
 C303 C -0.14661 -0.00631 0.51312
 C304 C -0.14762 -0.04526 0.54353
 C305 C -0.10394 -0.08045 0.57519
 C306 C -0.06139 -0.07697 0.57603
 C307 C -0.06090 -0.03896 0.54491
 C308 C -0.10370 -0.00392 0.51350
 H309 H -0.32440 0.06630 0.47023
 H310 H -0.32539 -0.08177 0.55697
 H311 H -0.39754 0.06254 0.46992
 H312 H -0.24012 -0.11915 0.58491
 H313 H -0.16511 -0.11844 0.58851
 H314 H -0.26219 0.05992 0.45740
 H315 H -0.18775 0.06002 0.45896
 H316 H -0.10155 -0.11031 0.60063
 H317 H -0.02876 -0.10387 0.60138
 H318 H -0.10353 0.02570 0.48941
 C319 C 0.32492 -0.04270 0.47446
 C320 C 0.29821 -0.01707 0.49700
 C321 C 0.31708 0.00903 0.51994
 C322 C 0.35935 0.01164 0.51757
 C323 C 0.38505 -0.01382 0.49500
 C324 C 0.36802 -0.04150 0.47412
 C325 C 0.29417 0.03166 0.54580
 C326 C 0.25359 0.02770 0.55072
 C327 C 0.23315 0.00255 0.52818
 C328 C 0.25423 -0.01764 0.49867
 C329 C 0.23014 -0.03672 0.47103
 C330 C 0.18776 -0.03768 0.47335
 C331 C 0.16876 -0.02151 0.50455
 C332 C 0.19166 -0.00218 0.53325
 C333 C 0.17273 0.01033 0.56666
 C334 C 0.13221 0.00471 0.57049
 C335 C 0.10845 -0.01206 0.54031
 C336 C 0.12707 -0.02505 0.50744
 H337 H 0.31434 -0.06541 0.45833
 H338 H 0.37336 0.03203 0.53490
 H339 H 0.38805 -0.06209 0.45728
 H340 H 0.30835 0.05181 0.56328
 H341 H 0.23797 0.04618 0.57124
 H342 H 0.24242 -0.04974 0.44595
 H343 H 0.17016 -0.05216 0.45108
 H344 H 0.18945 0.02286 0.59141
 H345 H 0.11948 0.01338 0.59723
 H346 H 0.10917 -0.03851 0.48420
 C347 C 0.05884 0.46751 1.33724
 C348 C 0.01697 0.48859 1.29890
 C349 C -0.02535 0.51578 1.30436
 C350 C -0.02589 0.51842 1.34746
 C351 C 0.01565 0.49556 1.38543
 C352 C 0.05804 0.47106 1.37962
 C353 C -0.06691 0.53988 1.26689
 C354 C -0.06733 0.53830 1.22379
 C355 C -0.02630 0.51103 1.21675
 C356 C 0.01591 0.48404 1.25535
 C357 C 0.05534 0.45240 1.24947
 C358 C 0.05447 0.44882 1.20700
 C359 C 0.01485 0.47736 1.16856
 C360 C -0.02607 0.50923 1.17255
 C361 C -0.06442 0.53887 1.13191
 C362 C -0.06168 0.53701 1.08940
 C363 C -0.02129 0.50491 1.08608
 C364 C 0.01649 0.47477 1.12589
 H365 H 0.09296 0.44859 1.33553
 H366 H -0.05877 0.53817 1.35145
 H367 H 0.09077 0.45350 1.40825
 H368 H -0.09943 0.56064 1.27082
 H369 H -0.10088 0.55777 1.19675
 H370 H 0.08722 0.42880 1.27741
 H371 H 0.08561 0.42401 1.20414
 H372 H -0.09619 0.56522 1.13163
 H373 H -0.09079 0.56159 1.05894
 H374 H 0.04800 0.45008 1.12342
 C375 C 0.04267 0.43087 0.71503
 C376 C 0.01850 0.47175 0.72450
 C377 C -0.00572 0.51481 0.68781
 C378 C -0.00822 0.51584 0.64324
 C379 C 0.01548 0.47497 0.63468
 C380 C 0.04158 0.43278 0.67079
 C381 C -0.02676 0.55666 0.69585
 C382 C -0.02367 0.55701 0.73973
 C383 C -0.00105 0.51499 0.77725
 C384 C 0.01828 0.47149 0.76911
 C385 C 0.03525 0.42915 0.80544
 C386 C 0.03383 0.42923 0.84838
 C387 C 0.01731 0.47131 0.85732
 C388 C 0.00123 0.51482 0.82240
 C389 C -0.01177 0.55630 0.83431
 C390 C -0.01104 0.55447 0.87849
 C391 C 0.00228 0.51153 0.91175
 C392 C 0.01636 0.47010 0.90107
 H393 H 0.06403 0.39728 0.74127
 H394 H -0.02724 0.54884 0.61527
 H395 H 0.06095 0.40110 0.66468
 H396 H -0.04528 0.58969 0.66794
 H397 H -0.04112 0.59074 0.74299
 H398 H 0.04799 0.39518 0.80123
 H399 H 0.04615 0.39588 0.87499
 H400 H -0.02195 0.59053 0.81046
 H401 H -0.02183 0.58673 0.88653
 H402 H 0.02699 0.43683 0.92719
   
