data_POSCAR
  _audit_creation_date              2014-09-24
  _audit_creation_method            'ToBaCCo'
  _symmetry_space_group_name_H-M    'P1'
  _symmetry_Int_Tables_number       1
  _symmetry_cell_setting            triclinic
  loop_
  _symmetry_equiv_pos_as_xyz
 x,y,z
_cell_length_a 51.3065
_cell_length_b 51.2691
_cell_length_c 51.2578
_cell_angle_alpha 89.893700
_cell_angle_beta 89.916600
_cell_angle_gamma 89.948300
loop_
  _atom_site_label
  _atom_site_type_symbol
  _atom_site_fract_x
  _atom_site_fract_y
  _atom_site_fract_z
C1 C 0.19127 1.22406 0.19223
 N2 N 0.18050 1.21318 0.21392
 C3 C 0.19108 1.19159 0.22517
 N4 N 0.21281 1.18088 0.21438
 C5 C 0.22391 1.19145 0.19273
 N6 N 0.21300 1.21300 0.18178
 C7 C 0.80774 0.77293 0.19548
 N8 N 0.81822 0.78377 0.21727
 C9 C 0.80753 0.80537 0.22833
 N10 N 0.78598 0.81615 0.21724
 C11 C 0.77518 0.80562 0.19550
 N12 N 0.78619 0.78405 0.18475
 C13 C 0.80544 1.23017 -0.19552
 N14 N 0.78374 1.21937 -0.18476
 C15 C 0.77277 1.19766 -0.19519
 N16 N 0.78378 1.18666 -0.21664
 C17 C 0.80548 1.19710 -0.22774
 N18 N 0.81614 1.21886 -0.21701
 C19 C 0.19625 0.77369 -0.19456
 N20 N 0.21805 0.78447 -0.18413
 C21 C 0.22904 0.80601 -0.19500
 N22 N 0.21791 0.81682 -0.21650
 C23 C 0.19607 0.80635 -0.22723
 N24 N 0.18540 0.78476 -0.21606
 C25 C 0.54044 1.03718 -0.00737
 H26 H 0.54072 1.03698 0.01373
 C27 C 0.55802 1.05281 -0.02109
 H28 H 0.57153 1.06493 -0.01036
 C29 C 0.52253 1.02139 -0.04689
 H30 H 0.50909 1.00866 -0.05687
 C31 C 0.53977 1.03673 -0.06140
 H32 H 0.53938 1.03562 -0.08249
 N33 N 0.52311 1.02196 -0.02036
 C34 C 0.46122 1.00654 0.03594
 H35 H 0.46127 0.98544 0.03577
 C36 C 0.44297 1.01996 0.05104
 H37 H 0.42926 1.00900 0.06280
 C38 C 0.47903 1.04635 0.02059
 H39 H 0.49272 1.05657 0.00824
 C40 C 0.46112 1.06056 0.03541
 H41 H 0.46125 1.08165 0.03429
 Zn42 Zn 0.50152 0.99995 -0.00005
 N43 N 0.47883 1.01983 0.02121
 C44 C 0.52270 0.97940 0.04709
 N45 N 0.52387 0.97905 0.02058
 C46 C 0.54224 0.96480 0.00782
 C47 C 0.56026 0.94992 0.02176
 C48 C 0.54036 0.96477 0.06182
 C49 C 0.46229 0.99127 -0.03667
 C50 C 0.44513 0.97692 -0.05210
 C51 C 0.46516 0.93733 -0.03615
 C52 C 0.48198 0.95245 -0.02104
 N53 N 0.48033 0.97893 -0.02166
 H54 H 0.50841 0.99137 0.05690
 H55 H 0.54295 0.96517 -0.01328
 H56 H 0.57457 0.93852 0.01120
 H57 H 0.53943 0.96565 0.08290
 H58 H 0.46108 1.01234 -0.03638
 H59 H 0.43061 0.98713 -0.06355
 H60 H 0.46686 0.91629 -0.03553
 H61 H 0.49605 0.94297 -0.00857
 C62 C 0.44267 1.04735 0.05081
 C63 C 0.55794 1.05260 -0.04849
 C64 C 0.44635 0.94955 -0.05189
 C65 C 0.55955 0.94986 0.04915
 C66 C -0.02033 0.52030 1.04744
 H67 H -0.00817 0.50583 1.05675
 C68 C -0.03498 0.53740 1.06278
 H69 H -0.03432 0.53553 1.08381
 C70 C -0.03566 0.54064 1.00885
 H71 H -0.03547 0.54197 0.98778
 C72 C -0.05063 0.55810 1.02342
 H73 H -0.06180 0.57295 1.01338
 N74 N -0.02105 0.52212 1.02097
 C75 C 0.04654 0.47792 1.01946
 H76 H 0.05653 0.49199 1.00734
 C77 C 0.06102 0.45990 1.03391
 H78 H 0.08209 0.46033 1.03274
 C79 C 0.00705 0.45932 1.03461
 H80 H -0.01404 0.45913 1.03454
 C81 C 0.02073 0.44095 1.04933
 H82 H 0.01000 0.42690 1.06090
 Zn83 Zn -0.00025 0.50037 0.99960
 N84 N 0.02004 0.47740 1.02018
 C85 C 0.03657 0.53976 0.99250
 N86 N 0.02131 0.52252 0.97942
 C87 C 0.02042 0.52235 0.95290
 C88 C 0.03550 0.53991 0.93848
 C89 C 0.05194 0.55763 0.97887
 C90 C -0.04784 0.48087 0.97881
 C91 C -0.06302 0.46420 0.96359
 C92 C -0.02352 0.44469 0.94687
 C93 C -0.00911 0.46170 0.96241
 N94 N -0.02138 0.47941 0.97787
 H95 H 0.03663 0.53970 1.01361
 H96 H 0.00767 0.50899 0.94286
 H97 H 0.03415 0.53982 0.91740
 H98 H 0.06412 0.57104 0.98966
 H99 H -0.05726 0.49468 0.99162
 H100 H -0.08405 0.46575 0.96449
 H101 H -0.01337 0.43043 0.93507
 H102 H 0.01195 0.46062 0.96244
 C103 C 0.04811 0.44102 1.04903
 C104 C -0.05036 0.55665 1.05078
 C105 C -0.05087 0.44573 0.94741
 C106 C 0.05144 0.55796 0.95147
 C107 C 1.03579 -0.00771 0.54066
 H108 H 1.03563 0.01339 0.54085
 C109 C 1.05125 -0.02138 0.55842
 H110 H 1.06329 -0.01062 0.57197
 C111 C 1.02006 -0.04727 0.52278
 H112 H 1.00741 -0.05728 0.50928
 C113 C 1.03523 -0.06173 0.54020
 H114 H 1.03409 -0.08281 0.53988
 N115 N 1.02068 -0.02075 0.52326
 C116 C 1.00590 0.03527 0.46092
 H117 H 0.98481 0.03510 0.46081
 C118 C 1.01947 0.05029 0.44269
 H119 H 1.00864 0.06198 0.42883
 C120 C 1.04552 0.02001 0.47914
 H121 H 1.05560 0.00773 0.49298
 C122 C 1.05988 0.03476 0.46125
 H123 H 1.08095 0.03364 0.46155
 Zn124 Zn 0.99892 -0.00050 0.50139
 N125 N 1.01902 0.02062 0.47873
 C126 C 0.97840 0.04678 0.52219
 N127 N 0.97791 0.02028 0.52349
 C128 C 0.96345 0.00767 0.54183
 C129 C 0.94849 0.02176 0.55968
 C130 C 0.96371 0.06165 0.53967
 C131 C 0.99049 -0.03724 0.46222
 C132 C 0.97626 -0.05267 0.44496
 C133 C 0.93656 -0.03660 0.46462
 C134 C 0.95156 -0.02148 0.48153
 N135 N 0.97803 -0.02215 0.48012
 H136 H 0.99054 0.05648 0.50794
 H137 H 0.96371 -0.01342 0.54264
 H138 H 0.93694 0.01131 0.57396
 H139 H 0.96472 0.08272 0.53865
 H140 H 1.01155 -0.03699 0.46118
 H141 H 0.98656 -0.06418 0.43055
 H142 H 0.91552 -0.03592 0.46613
 H143 H 0.94199 -0.00895 0.49550
 C144 C 1.04685 0.05007 0.44261
 C145 C 1.05099 -0.04878 0.55844
 C146 C 0.94890 -0.05240 0.44594
 C147 C 0.94859 0.04914 0.55883
 C148 C 0.17833 0.27821 1.14523
 C149 C 0.15545 0.28882 1.15560
 C150 C 0.14481 0.27838 1.17847
 C151 C 0.15680 0.25720 1.19080
 C152 C 0.17969 0.24600 1.18037
 C153 C 0.19040 0.25703 1.15748
 C154 C 0.14242 0.30988 1.14235
 C155 C 0.13119 0.32720 1.13105
 C156 C 0.11770 0.34710 1.11762
 C157 C 0.10588 0.36377 1.10597
 C158 C 0.09142 0.38328 1.09185
 C159 C 0.06859 0.37632 1.07872
 C160 C 0.05449 0.39509 1.06486
 C161 C 0.06305 0.42115 1.06394
 C162 C 0.08605 0.42797 1.07721
 C163 C 0.10013 0.40914 1.09109
 H164 H 0.18671 0.28614 1.12750
 H165 H 0.12707 0.28644 1.18665
 H166 H 0.14786 0.24950 1.20835
 H167 H 0.20797 0.24918 1.14876
 H168 H 0.06173 0.35634 1.07910
 H169 H 0.03710 0.38913 1.05453
 H170 H 0.09299 0.44791 1.07710
 H171 H 0.11776 0.41474 1.10123
 C172 C -0.14584 0.71841 1.18238
 C173 C -0.15626 0.70800 1.15946
 C174 C -0.17896 0.71872 1.14884
 C175 C -0.19108 0.73996 1.16088
 C176 C -0.18061 0.75094 1.18382
 C177 C -0.15788 0.73965 1.19450
 C178 C -0.14325 0.68683 1.14641
 C179 C -0.13215 0.66939 1.13521
 C180 C -0.11895 0.64932 1.12178
 C181 C -0.10749 0.63247 1.11006
 C182 C -0.09358 0.61271 1.09576
 C183 C -0.10455 0.60184 1.07330
 C184 C -0.09065 0.58337 1.05883
 C185 C -0.06554 0.57555 1.06665
 C186 C -0.05481 0.58639 1.08943
 C187 C -0.06875 0.60486 1.10386
 H188 H -0.12824 0.71026 1.19075
 H189 H -0.18718 0.71081 1.13107
 H190 H -0.20851 0.74787 1.15196
 H191 H -0.14913 0.74733 1.21210
 H192 H -0.12378 0.60776 1.06686
 H193 H -0.09957 0.57515 1.04157
 H194 H -0.03540 0.58105 1.09577
 H195 H -0.06002 0.61326 1.12115
 C196 C -0.14793 0.28452 0.81706
 C197 C -0.15851 0.29537 0.83974
 C198 C -0.18142 0.28504 0.85033
 C199 C -0.19356 0.26372 0.83852
 C200 C -0.18291 0.25228 0.81585
 C201 C -0.16000 0.26320 0.80516
 C202 C -0.14542 0.31655 0.85262
 C203 C -0.13424 0.33397 0.86371
 C204 C -0.12092 0.35398 0.87703
 C205 C -0.10934 0.37074 0.88870
 C206 C -0.09528 0.39036 0.90296
 C207 C -0.10331 0.39730 0.92811
 C208 C -0.08908 0.41556 0.94244
 C209 C -0.06657 0.42712 0.93179
 C210 C -0.05884 0.42023 0.90636
 C211 C -0.07311 0.40196 0.89206
 H212 H -0.13017 0.29237 0.80872
 H213 H -0.18976 0.29328 0.86792
 H214 H -0.21114 0.25610 0.84742
 H215 H -0.15111 0.25517 0.78776
 H216 H -0.12037 0.38833 0.93679
 H217 H -0.09534 0.42016 0.96208
 H218 H -0.04179 0.42901 0.89751
 H219 H -0.06673 0.39674 0.87260
 C220 C 0.18249 0.71853 0.85300
 C221 C 0.15941 0.70823 0.84283
 C222 C 0.14873 0.71885 0.82006
 C223 C 0.16089 0.73990 0.80767
 C224 C 0.18393 0.75066 0.81793
 C225 C 0.19470 0.73958 0.84065
 C226 C 0.14624 0.68734 0.85622
 C227 C 0.13497 0.67018 0.86771
 C228 C 0.12151 0.65048 0.88147
 C229 C 0.10978 0.63400 0.89347
 C230 C 0.09550 0.61473 0.90811
 C231 C 0.09381 0.58903 0.89912
 C232 C 0.07959 0.57049 0.91325
 C233 C 0.06689 0.57745 0.93658
 C234 C 0.06879 0.60334 0.94546
 C235 C 0.08299 0.62182 0.93131
 H236 H 0.19090 0.71049 0.87065
 H237 H 0.13083 0.71105 0.81205
 H238 H 0.15205 0.74789 0.79023
 H239 H 0.21240 0.74733 0.84910
 H240 H 0.10345 0.58332 0.88119
 H241 H 0.07873 0.55066 0.90606
 H242 H 0.05892 0.60942 0.96312
 H243 H 0.08408 0.64169 0.93839
 C244 C 1.17755 0.14542 0.27990
 C245 C 1.15465 0.15603 0.29023
 C246 C 1.14420 0.17880 0.27942
 C247 C 1.15639 0.19078 0.25814
 C248 C 1.17930 0.18010 0.24722
 C249 C 1.18982 0.15732 0.25862
 C250 C 1.14141 0.14309 0.31137
 C251 C 1.13004 0.13201 0.32874
 C252 C 1.11641 0.11878 0.34870
 C253 C 1.10451 0.10725 0.36541
 C254 C 1.08999 0.09321 0.38494
 C255 C 1.06706 0.08021 0.37802
 C256 C 1.05299 0.06629 0.39678
 C257 C 1.06167 0.06517 0.42279
 C258 C 1.08474 0.07835 0.42958
 C259 C 1.09879 0.09229 0.41076
 H260 H 1.18579 0.12776 0.28811
 H261 H 1.12644 0.18716 0.28726
 H262 H 1.14760 0.20826 0.25015
 H263 H 1.20740 0.14842 0.25100
 H264 H 1.06013 0.08071 0.35807
 H265 H 1.03555 0.05604 0.39084
 H266 H 1.09177 0.07809 0.44949
 H267 H 1.11650 0.10231 0.41634
 C268 C 1.18263 -0.14693 0.71852
 C269 C 1.15960 -0.15723 0.70828
 C270 C 1.14904 -0.18000 0.71897
 C271 C 1.16124 -0.19228 0.74005
 C272 C 1.18428 -0.18189 0.75089
 C273 C 1.19491 -0.15912 0.73960
 C274 C 1.14635 -0.14395 0.68738
 C275 C 1.13501 -0.13254 0.67023
 C276 C 1.12145 -0.11885 0.65056
 C277 C 1.10964 -0.10687 0.63412
 C278 C 1.09526 -0.09224 0.61495
 C279 C 1.09375 -0.10099 0.58915
 C280 C 1.07946 -0.08684 0.57069
 C281 C 1.06650 -0.06371 0.57784
 C282 C 1.06822 -0.05507 0.60383
 C283 C 1.08249 -0.06925 0.62222
 H284 H 1.19096 -0.12927 0.71040
 H285 H 1.13118 -0.18813 0.71120
 H286 H 1.15236 -0.20975 0.74797
 H287 H 1.21259 -0.15044 0.74716
 H288 H 1.10360 -0.11875 0.58330
 H289 H 1.07874 -0.09384 0.55079
 H290 H 1.05814 -0.03758 0.61005
 H291 H 1.08343 -0.06235 0.64216
 C292 C 0.85353 -0.18203 0.28319
 C293 C 0.84292 -0.15928 0.29384
 C294 C 0.82022 -0.14860 0.28316
 C295 C 0.80830 -0.16043 0.26172
 C296 C 0.81897 -0.18319 0.25050
 C297 C 0.84169 -0.19394 0.26175
 C298 C 0.85575 -0.14643 0.31519
 C299 C 0.86673 -0.13540 0.33278
 C300 C 0.87983 -0.12217 0.35300
 C301 C 0.89122 -0.11061 0.36996
 C302 C 0.90508 -0.09649 0.38982
 C303 C 0.92731 -0.10733 0.40134
 C304 C 0.94138 -0.09316 0.41985
 C305 C 0.93340 -0.06791 0.42708
 C306 C 0.91083 -0.05732 0.41561
 C307 C 0.89680 -0.07152 0.39709
 H308 H 0.87113 -0.19044 0.29130
 H309 H 0.81185 -0.13096 0.29124
 H310 H 0.79087 -0.15148 0.25384
 H311 H 0.85059 -0.21141 0.25390
 H312 H 0.93388 -0.12665 0.39587
 H313 H 0.95848 -0.10197 0.42856
 H314 H 0.90438 -0.03781 0.42046
 H315 H 0.87969 -0.06289 0.38819
 C316 C 0.81876 0.14979 0.71863
 C317 C 0.84168 0.16005 0.70801
 C318 C 0.85222 0.18300 0.71823
 C319 C 0.84010 0.19549 0.73922
 C320 C 0.81718 0.18514 0.75045
 C321 C 0.80656 0.16219 0.73962
 C322 C 0.85486 0.14655 0.68722
 C323 C 0.86611 0.13493 0.67016
 C324 C 0.87953 0.12096 0.65060
 C325 C 0.89120 0.10874 0.63425
 C326 C 0.90537 0.09379 0.61518
 C327 C 0.90615 0.10183 0.58908
 C328 C 0.92014 0.08731 0.57069
 C329 C 0.93351 0.06452 0.57820
 C330 C 0.93256 0.05661 0.60449
 C331 C 0.91859 0.07116 0.62282
 H332 H 0.81046 0.13200 0.71087
 H333 H 0.87000 0.19110 0.71016
 H334 H 0.84895 0.21309 0.74678
 H335 H 0.78897 0.15353 0.74749
 H336 H 0.89595 0.11931 0.58295
 H337 H 0.92027 0.09375 0.55056
 H338 H 0.94296 0.03941 0.61098
 H339 H 0.91820 0.06481 0.64299
 C340 C 0.27935 1.14415 0.17962
 C341 C 0.29001 1.15449 0.15670
 C342 C 0.27953 1.17728 0.14591
 C343 C 0.25826 1.18953 0.15781
 C344 C 0.24714 1.17909 0.18068
 C345 C 0.25808 1.15635 0.19156
 C346 C 0.31116 1.14127 0.14381
 C347 C 0.32855 1.12993 0.13277
 C348 C 0.34854 1.11636 0.11958
 C349 C 0.36528 1.10452 0.10807
 C350 C 0.38487 1.09009 0.09406
 C351 C 0.41060 1.09910 0.09305
 C352 C 0.42947 1.08517 0.07910
 C353 C 0.42282 1.06202 0.06598
 C354 C 0.39691 1.05312 0.06720
 C355 C 0.37809 1.06707 0.08113
 H356 H 0.28728 1.12648 0.18811
 H357 H 0.28761 1.18543 0.12814
 H358 H 0.25038 1.20700 0.14889
 H359 H 0.25006 1.14777 0.20914
 H360 H 0.41607 1.11688 0.10302
 H361 H 0.44930 1.09237 0.07877
 H362 H 0.39106 1.03561 0.05699
 H363 H 0.35821 1.05998 0.08169
 C364 C 0.71754 1.18432 -0.14765
 C365 C 0.70707 1.16130 -0.15783
 C366 C 0.71756 1.15057 -0.18062
 C367 C 0.73867 1.16259 -0.19302
 C368 C 0.74962 1.18555 -0.18274
 C369 C 0.73865 1.19639 -0.16001
 C370 C 0.68619 1.14820 -0.14437
 C371 C 0.66907 1.13694 -0.13283
 C372 C 0.64947 1.12343 -0.11899
 C373 C 0.63310 1.11162 -0.10691
 C374 C 0.61404 1.09720 -0.09216
 C375 C 0.58824 1.09558 -0.10083
 C376 C 0.56991 1.08119 -0.08660
 C377 C 0.57719 1.06826 -0.06348
 C378 C 0.60317 1.07010 -0.05492
 C379 C 0.62144 1.08447 -0.06917
 H380 H 0.70960 1.19277 -0.12999
 H381 H 0.70964 1.13272 -0.18863
 H382 H 0.74658 1.15370 -0.21047
 H383 H 0.74654 1.21403 -0.15156
 H384 H 0.58229 1.10540 -0.11859
 H385 H 0.55001 1.08038 -0.09354
 H386 H 0.60950 1.06005 -0.03744
 H387 H 0.64139 1.08550 -0.06234
 C388 C 0.28468 0.85290 -0.18181
 C389 C 0.29538 0.84230 -0.15904
 C390 C 0.28484 0.81947 -0.14840
 C391 C 0.26350 0.80744 -0.16028
 C392 C 0.25235 0.81813 -0.18300
 C393 C 0.26334 0.84092 -0.19374
 C394 C 0.31660 0.85529 -0.14614
 C395 C 0.33406 0.86641 -0.13507
 C396 C 0.35413 0.87968 -0.12180
 C397 C 0.37096 0.89123 -0.11020
 C398 C 0.39066 0.90526 -0.09605
 C399 C 0.39803 0.89698 -0.07110
 C400 C 0.41640 0.91117 -0.05687
 C401 C 0.42762 0.93391 -0.06742
 C402 C 0.42030 0.94191 -0.09265
 C403 C 0.40193 0.92767 -0.10684
 H404 H 0.29266 0.87060 -0.19019
 H405 H 0.29294 0.81112 -0.13075
 H406 H 0.25559 0.78994 -0.15147
 H407 H 0.25530 0.84969 -0.21120
 H408 H 0.38933 0.87973 -0.06250
 H409 H 0.42134 0.90470 -0.03738
 H410 H 0.42882 0.95914 -0.10142
 H411 H 0.39638 0.93426 -0.12615
 C412 C 0.72013 0.85311 0.18142
 C413 C 0.70974 0.84272 0.15846
 C414 C 0.72028 0.81984 0.14797
 C415 C 0.74132 0.80755 0.16020
 C416 C 0.75217 0.81803 0.18312
 C417 C 0.74117 0.84086 0.19370
 C418 C 0.68886 0.85598 0.14519
 C419 C 0.67172 0.86729 0.13376
 C420 C 0.65204 0.88078 0.12003
 C421 C 0.63558 0.89249 0.10800
 C422 C 0.61637 0.90671 0.09327
 C423 C 0.62380 0.92016 0.07069
 C424 C 0.60532 0.93413 0.05633
 C425 C 0.57910 0.93484 0.06438
 C426 C 0.57180 0.92125 0.08713
 C427 C 0.59034 0.90726 0.10146
 H428 H 0.71215 0.87085 0.18969
 H429 H 0.71242 0.81166 0.13017
 H430 H 0.74925 0.79002 0.15150
 H431 H 0.74898 0.84947 0.21130
 H432 H 0.64392 0.91995 0.06423
 H433 H 0.61165 0.94470 0.03915
 H434 H 0.55172 0.92119 0.09366
 H435 H 0.58437 0.89688 0.11890
   
