data_POSCAR
  _audit_creation_date              2014-09-24
  _audit_creation_method            'ToBaCCo'
  _symmetry_space_group_name_H-M    'P1'
  _symmetry_Int_Tables_number       1
  _symmetry_cell_setting            triclinic
  loop_
  _symmetry_equiv_pos_as_xyz
 x,y,z
_cell_length_a 22.4875
_cell_length_b 26.0273
_cell_length_c 30.9106
_cell_angle_alpha 93.511400
_cell_angle_beta 87.388600
_cell_angle_gamma 95.188500
loop_
  _atom_site_label
  _atom_site_type_symbol
  _atom_site_fract_x
  _atom_site_fract_y
  _atom_site_fract_z
N1 N 0.14370 1.26014 0.14191
 N2 N 0.09847 1.26134 0.17052
 C3 C 0.07239 1.30563 0.16793
 C4 C 0.10341 1.33285 0.13601
 C5 C 0.14848 1.30372 0.12014
 H6 H 0.03452 1.31714 0.18786
 H7 H 0.18203 1.31320 0.09499
 Cu8 Cu 0.07958 1.20538 0.20922
 Cu9 Cu 0.19347 1.20232 0.13593
 Cu10 Cu 0.12752 1.09020 0.17895
 N11 N 0.07458 1.14997 0.24920
 N12 N 0.09231 1.10424 0.23697
 C13 C 0.08811 1.07435 0.27128
 C14 C 0.06628 1.10312 0.30638
 C15 C 0.05881 1.15103 0.29179
 H16 H 0.10401 1.03634 0.27133
 H17 H 0.04690 1.18495 0.31108
 N18 N 0.18994 1.09015 0.13240
 N19 N 0.21874 1.13311 0.11880
 C20 C 0.26150 1.12078 0.08900
 C21 C 0.25844 1.06762 0.08369
 C22 C 0.21256 1.04917 0.11110
 H23 H 0.29023 1.14822 0.07100
 H24 H 0.19703 1.00919 0.11542
 H25 H 0.11701 1.15678 0.14517
 H26 H 0.16930 1.16114 0.19066
 N27 N 0.82397 0.74662 0.15059
 N28 N 0.86387 0.74788 0.18060
 C29 C 0.89917 0.70905 0.17173
 C30 C 0.88029 0.68257 0.13408
 C31 C 0.83261 0.70721 0.12143
 H32 H 0.93898 0.70385 0.18875
 H33 H 0.80946 0.69994 0.09144
 Cu34 Cu 0.87227 0.80544 0.22381
 Cu35 Cu 0.77131 0.80180 0.14726
 Cu36 Cu 0.83433 0.91814 0.19126
 N37 N 0.88041 0.86825 0.26131
 N38 N 0.86663 0.91273 0.24815
 C39 C 0.87351 0.94926 0.28080
 C40 C 0.89290 0.92598 0.31572
 C41 C 0.89616 0.87466 0.30292
 H42 H 0.86156 0.98852 0.27994
 H43 H 0.90591 0.84396 0.32285
 N44 N 0.77531 0.91308 0.14572
 N45 N 0.74714 0.86874 0.13191
 C46 C 0.70795 0.87774 0.10217
 C47 C 0.71264 0.93024 0.09708
 C48 C 0.75574 0.95163 0.12464
 H49 H 0.68162 0.84817 0.08351
 H50 H 0.77225 0.99191 0.12857
 H51 H 0.84710 0.84683 0.15919
 H52 H 0.78794 0.85031 0.20335
 N53 N 0.95305 1.22528 -0.10787
 N54 N 1.00806 1.22130 -0.12341
 C55 C 1.04579 1.25504 -0.10090
 C56 C 1.01188 1.28178 -0.07041
 C57 C 0.95332 1.26260 -0.07578
 H58 H 1.09356 1.26083 -0.10721
 H59 H 0.91415 1.27405 -0.05734
 Cu60 Cu 1.02333 1.17579 -0.17436
 Cu61 Cu 0.88587 1.17951 -0.12900
 Cu62 Cu 0.92862 1.06931 -0.18539
 N63 N 1.02401 1.13121 -0.22733
 N64 N 0.98789 1.08855 -0.23112
 C65 C 0.99338 1.06747 -0.27182
 C66 C 1.03519 1.09869 -0.29425
 C67 C 1.05347 1.13914 -0.26564
 H68 H 0.96551 1.03460 -0.28486
 H69 H 1.08241 1.17333 -0.27278
 N70 N 0.85203 1.07128 -0.15266
 N71 N 0.83328 1.11469 -0.13486
 C72 C 0.77977 1.10409 -0.11447
 C73 C 0.76504 1.05150 -0.11953
 C74 C 0.81177 1.03161 -0.14341
 H75 H 0.75677 1.13144 -0.09361
 H76 H 0.81755 0.99132 -0.15157
 H77 H 0.94495 1.12571 -0.13420
 H78 H 0.91856 1.14541 -0.18652
 N79 N 0.08320 0.74339 -0.16062
 N80 N 0.03016 0.74643 -0.17617
 C81 C -0.01011 0.71353 -0.15609
 C82 C 0.01989 0.68764 -0.12749
 C83 C 0.07897 0.70713 -0.13111
 H84 H -0.05787 0.71117 -0.15988
 H85 H 0.11445 0.70007 -0.11033
 Cu86 Cu 0.01797 0.79666 -0.21812
 Cu87 Cu 0.14948 0.79544 -0.17193
 Cu88 Cu 0.10439 0.90768 -0.20951
 N89 N 0.01657 0.84824 -0.26080
 N90 N 0.04988 0.89246 -0.25686
 C91 C 0.04291 0.92033 -0.29127
 C92 C 0.00298 0.89171 -0.31759
 C93 C -0.01264 0.84603 -0.29804
 H94 H 0.06747 0.95698 -0.29750
 H95 H -0.04075 0.81306 -0.31061
 N96 N 0.17722 0.90620 -0.17721
 N97 N 0.19719 0.86285 -0.16602
 C98 C 0.24641 0.87456 -0.14281
 C99 C 0.25695 0.92772 -0.13925
 C100 C 0.21240 0.94669 -0.16104
 H101 H 0.26855 0.84703 -0.12586
 H102 H 0.20404 0.98678 -0.16273
 H103 H 0.08579 0.84592 -0.16879
 H104 H 0.12156 0.83412 -0.22373
 C105 C 0.43424 0.96585 -0.05913
 C106 C 0.46615 0.99347 -0.02587
 C107 C 0.43585 1.02312 0.00599
 C108 C 0.37388 1.02447 0.00519
 C109 C 0.34241 0.99731 -0.02838
 C110 C 0.37245 0.96827 -0.06079
 C111 C 0.53100 0.99072 -0.02382
 C112 C 0.57044 1.01590 -0.05385
 C113 C 0.63218 1.01390 -0.05138
 C114 C 0.65445 0.98781 -0.01809
 C115 C 0.61541 0.96339 0.01248
 C116 C 0.55369 0.96415 0.00911
 H117 H 0.45738 0.94275 -0.08370
 H118 H 0.46026 1.04434 0.03181
 H119 H 0.55320 1.03700 -0.07899
 H120 H 0.52346 0.94512 0.03264
 H121 H 0.29446 0.99860 -0.02914
 H122 H 0.70226 0.98717 -0.01558
 C123 C -0.00050 0.44687 0.99742
 C124 C 0.01345 0.48821 1.02751
 C125 C 0.04133 0.47910 1.06567
 C126 C 0.05645 0.42938 1.07326
 C127 C 0.04402 0.38853 1.04198
 C128 C 0.01505 0.39739 1.00422
 C129 C -0.00128 0.54055 1.01829
 C130 C -0.03555 0.56961 1.04827
 C131 C -0.05448 0.61680 1.03684
 C132 C -0.03869 0.63484 0.99587
 C133 C -0.00145 0.60775 0.96688
 C134 C 0.01699 0.56068 0.97814
 H135 H -0.02339 0.45318 0.96834
 H136 H 0.05167 0.51067 1.08939
 H137 H -0.04915 0.55481 1.07953
 H138 H 0.04539 0.53959 0.95550
 H139 H 0.05515 0.34988 1.04738
 H140 H -0.05259 0.67171 0.98766
 C141 C 0.94645 -0.00908 0.45795
 C142 C 0.99516 0.01809 0.47852
 C143 C 1.03687 0.04853 0.45360
 C144 C 1.03061 0.05135 0.40892
 C145 C 0.98288 0.02219 0.38851
 C146 C 0.94079 -0.00819 0.41320
 C147 C 1.00282 0.01339 0.52562
 C148 C 0.98904 -0.03455 0.54408
 C149 C 0.99507 -0.03972 0.58834
 C150 C 1.01481 0.00366 0.61479
 C151 C 1.02899 0.05187 0.59700
 C152 C 1.02345 0.05638 0.55244
 H153 H 0.91297 -0.03193 0.47657
 H154 H 1.07488 0.06975 0.46870
 H155 H 0.97444 -0.06847 0.52396
 H156 H 1.03361 0.09382 0.53908
 H157 H 0.97810 0.02348 0.35391
 H158 H 1.01918 -0.00004 0.64904
 N159 N 0.09324 0.37842 1.12406
 N160 N 0.08365 0.42158 1.11315
 N161 N -0.08544 0.64866 1.10715
 N162 N -0.08887 0.64805 1.06617
 N163 N 0.03278 0.32279 0.95942
 N164 N -0.00236 0.35621 0.97347
 N165 N -0.00706 0.66017 0.90791
 N166 N 0.02216 0.63000 0.92784
 N167 N 1.06932 0.09271 0.34700
 N168 N 1.07376 0.08403 0.38541
 N169 N 0.99129 -0.09841 0.64293
 N170 N 0.98084 -0.08952 0.60546
 N171 N 0.89284 -0.05497 0.35577
 N172 N 0.89160 -0.03865 0.39400
 N173 N 1.04271 0.09781 0.66354
 N174 N 1.04830 0.09684 0.62365
 N175 N 0.29129 1.03749 0.05261
 N176 N 0.34318 1.05366 0.03843
 N177 N 0.72087 1.02239 -0.09439
 N178 N 0.67247 1.04094 -0.08102
 N179 N 0.29395 0.95714 -0.10882
 N180 N 0.33995 0.93987 -0.09453
 N181 N 0.68650 0.95642 0.06456
 N182 N 0.63830 0.93816 0.04718
   
