data_POSCAR
  _audit_creation_date              2014-09-24
  _audit_creation_method            'ToBaCCo'
  _symmetry_space_group_name_H-M    'P1'
  _symmetry_Int_Tables_number       1
  _symmetry_cell_setting            triclinic
  loop_
  _symmetry_equiv_pos_as_xyz
 x,y,z
_cell_length_a 30.5253
_cell_length_b 30.5739
_cell_length_c 30.6026
_cell_angle_alpha 91.176700
_cell_angle_beta 91.161100
_cell_angle_gamma 88.850800
loop_
  _atom_site_label
  _atom_site_type_symbol
  _atom_site_fract_x
  _atom_site_fract_y
  _atom_site_fract_z
C1 C 0.02968 0.44286 0.18751
 H2 H 0.05594 0.46591 0.18540
 C3 C 0.03232 0.40260 0.16495
 H4 H 0.06053 0.39482 0.14510
 C5 C -0.03815 0.42374 0.21758
 H6 H -0.06497 0.43128 0.23907
 C7 C -0.03687 0.38334 0.19562
 H8 H -0.06304 0.36046 0.19996
 N9 N -0.00517 0.45259 0.21329
 C10 C -0.01360 0.59373 0.23761
 H11 H -0.01758 0.59292 0.27263
 C12 C -0.01400 0.63372 0.21657
 H13 H -0.01836 0.66385 0.23539
 C14 C -0.00252 0.55540 0.17040
 H15 H 0.00192 0.52476 0.15267
 C16 C -0.00266 0.59490 0.14799
 H17 H 0.00181 0.59467 0.11296
 Zn18 Zn -0.00532 0.50452 0.24838
 N19 N -0.00729 0.55568 0.21455
 C20 C 0.07586 0.53686 0.27890
 N21 N 0.04688 0.50399 0.28312
 C22 C 0.05653 0.46911 0.30882
 C23 C 0.09676 0.46645 0.33152
 C24 C 0.11623 0.53551 0.30101
 C25 C -0.09458 0.51277 0.26019
 C26 C -0.13434 0.51320 0.28177
 C27 C -0.09458 0.50183 0.34984
 C28 C -0.05534 0.50164 0.32690
 N29 N -0.05620 0.50640 0.28274
 H30 H 0.06838 0.56369 0.25746
 H31 H 0.03339 0.44293 0.31086
 H32 H 0.10453 0.43834 0.35142
 H33 H 0.13925 0.56155 0.29688
 H34 H -0.09421 0.51678 0.22515
 H35 H -0.16475 0.51760 0.26335
 H36 H -0.09390 0.49736 0.38487
 H37 H -0.02445 0.49721 0.34424
 C38 C -0.00812 0.63439 0.17145
 C39 C -0.00118 0.37244 0.16938
 C40 C -0.13441 0.50733 0.32690
 C41 C 0.12694 0.49990 0.32729
 C42 C 0.03770 0.55631 0.81022
 H43 H 0.06438 0.53263 0.81297
 C44 C 0.04002 0.59649 0.83286
 H45 H 0.06837 0.60371 0.85341
 C46 C -0.03101 0.57700 0.77857
 H47 H -0.05806 0.57008 0.75645
 C48 C -0.03002 0.61733 0.80059
 H49 H -0.05659 0.64088 0.79573
 N50 N 0.00254 0.54740 0.78367
 C51 C -0.00267 0.40650 0.75996
 H52 H -0.00626 0.40710 0.72473
 C53 C -0.00329 0.36679 0.78139
 H54 H -0.00730 0.33663 0.76266
 C55 C 0.00673 0.44523 0.82740
 H56 H 0.01024 0.47595 0.84508
 C57 C 0.00629 0.40601 0.85023
 H58 H 0.00973 0.40649 0.88554
 Zn59 Zn 0.00246 0.49540 0.74889
 N60 N 0.00273 0.44460 0.78300
 C61 C 0.08360 0.46219 0.71901
 N62 N 0.05323 0.49507 0.71428
 C63 C 0.06060 0.52963 0.68822
 C64 C 0.09993 0.53201 0.66573
 C65 C 0.12316 0.46326 0.69712
 C66 C -0.08675 0.48842 0.73777
 C67 C -0.12756 0.48787 0.71666
 C68 C -0.09156 0.49751 0.64787
 C69 C -0.05119 0.49783 0.67045
 N70 N -0.04972 0.49395 0.71470
 H71 H 0.07790 0.43566 0.74076
 H72 H 0.03638 0.55583 0.68580
 H73 H 0.10594 0.55992 0.64562
 H74 H 0.14737 0.43727 0.70170
 H75 H -0.08447 0.48506 0.77288
 H76 H -0.15679 0.48404 0.73567
 H77 H -0.09259 0.50119 0.61271
 H78 H -0.02127 0.50155 0.65275
 C79 C 0.00137 0.36649 0.82687
 C80 C 0.00589 0.62733 0.82767
 C81 C -0.13011 0.49277 0.67135
 C82 C 0.13157 0.49860 0.67055
 C83 C 0.18775 0.03822 0.44382
 H84 H 0.18499 0.06502 0.46730
 C85 C 0.16487 0.04012 0.40378
 H86 H 0.14415 0.06830 0.39643
 C87 C 0.21968 -0.03041 0.42351
 H88 H 0.24201 -0.05726 0.43052
 C89 C 0.19742 -0.02985 0.38333
 H90 H 0.20231 -0.05652 0.35995
 N91 N 0.21456 0.00330 0.45285
 C92 C 0.23878 -0.00085 0.59345
 H93 H 0.27412 -0.00408 0.59276
 C94 C 0.21740 -0.00155 0.63317
 H95 H 0.23628 -0.00526 0.66328
 C96 C 0.17099 0.00766 0.55489
 H97 H 0.15317 0.01084 0.52421
 C98 C 0.14821 0.00714 0.59412
 H99 H 0.11279 0.01018 0.59372
 Zn100 Zn 0.24957 0.00385 0.50463
 N101 N 0.21553 0.00414 0.55543
 C102 C 0.27897 0.08525 0.53726
 N103 N 0.28388 0.05475 0.50458
 C104 C 0.31007 0.06195 0.47008
 C105 C 0.33263 0.10119 0.46760
 C106 C 0.30091 0.12473 0.53608
 C107 C 0.26148 -0.08505 0.51215
 C108 C 0.28307 -0.12556 0.51300
 C109 C 0.35162 -0.08906 0.50315
 C110 C 0.32864 -0.04897 0.50252
 N111 N 0.28427 -0.04791 0.50636
 H112 H 0.25709 0.07966 0.56375
 H113 H 0.31264 0.03761 0.44405
 H114 H 0.35294 0.10704 0.43978
 H115 H 0.29625 0.14903 0.56194
 H116 H 0.22628 -0.08310 0.51549
 H117 H 0.26449 -0.15500 0.51701
 H118 H 0.38685 -0.08999 0.49949
 H119 H 0.34613 -0.01897 0.49862
 C120 C 0.17178 0.00261 0.63356
 C121 C 0.17008 0.00583 0.37320
 C122 C 0.32844 -0.12765 0.50815
 C123 C 0.32771 0.13293 0.50085
 C124 C 0.81288 0.02911 0.55468
 H125 H 0.81481 0.05543 0.53175
 C126 C 0.83542 0.03179 0.59494
 H127 H 0.85508 0.06006 0.60293
 C128 C 0.78320 -0.03891 0.57355
 H129 H 0.76186 -0.06583 0.56592
 C130 C 0.80516 -0.03755 0.61392
 H131 H 0.80102 -0.06368 0.63679
 N132 N 0.78728 -0.00586 0.54484
 C133 C 0.76281 -0.01404 0.40388
 H134 H 0.72772 -0.01817 0.40470
 C135 C 0.78389 -0.01429 0.36392
 H136 H 0.76494 -0.01870 0.33387
 C137 C 0.83013 -0.00275 0.44219
 H138 H 0.84787 0.00170 0.47282
 C139 C 0.85262 -0.00273 0.40275
 H140 H 0.88773 0.00190 0.40310
 Zn141 Zn 0.75203 -0.00599 0.49305
 N142 N 0.78589 -0.00770 0.44190
 C143 C 0.72102 0.07504 0.46106
 N144 N 0.71708 0.04604 0.49387
 C145 C 0.69169 0.05564 0.52901
 C146 C 0.66912 0.09588 0.53206
 C147 C 0.69904 0.11542 0.46279
 C148 C 0.74047 -0.09513 0.48435
 C149 C 0.71903 -0.13494 0.48408
 C150 C 0.65078 -0.09561 0.49651
 C151 C 0.67358 -0.05631 0.49649
 N152 N 0.71776 -0.05693 0.49115
 H153 H 0.74221 0.06758 0.43400
 H154 H 0.68987 0.03248 0.55514
 H155 H 0.64954 0.10364 0.56042
 H156 H 0.70300 0.13848 0.43681
 H157 H 0.77552 -0.09458 0.47992
 H158 H 0.73758 -0.16520 0.47936
 H159 H 0.61574 -0.09512 0.50150
 H160 H 0.65611 -0.02556 0.50131
 C161 C 0.82913 -0.00821 0.36325
 C162 C 0.83116 -0.00176 0.62492
 C163 C 0.67389 -0.13526 0.49059
 C164 C 0.67316 0.12613 0.49872
 C165 C 0.55485 0.18869 0.96155
 H166 H 0.53127 0.18609 0.93480
 C167 C 0.59516 0.16621 0.95926
 H168 H 0.60261 0.14590 0.93084
 C169 C 0.57518 0.21994 1.03042
 H170 H 0.56808 0.24189 1.05752
 C171 C 0.61564 0.19807 1.02946
 H172 H 0.63911 0.20284 1.05609
 N173 N 0.54571 0.21501 0.99677
 C174 C 0.40470 0.23936 1.00117
 H175 H 0.40549 0.27461 1.00472
 C176 C 0.36481 0.21811 1.00179
 H177 H 0.33473 0.23712 1.00575
 C178 C 0.44316 0.17166 0.99202
 H179 H 0.47388 0.15383 0.98865
 C180 C 0.40378 0.14898 0.99247
 H181 H 0.40420 0.11361 0.98915
 Zn182 Zn 0.49380 0.24998 0.99666
 N183 N 0.44274 0.21610 0.99593
 C184 C 0.46125 0.28057 0.91572
 N185 N 0.49406 0.28485 0.94623
 C186 C 0.52902 0.31058 0.93922
 C187 C 0.53192 0.33319 0.90011
 C188 C 0.46283 0.30260 0.87637
 C189 C 0.48612 0.26077 1.08560
 C190 C 0.48558 0.28175 1.12638
 C191 C 0.49639 0.35056 1.09093
 C192 C 0.49667 0.32818 1.05055
 N193 N 0.49221 0.28396 1.04883
 H194 H 0.43438 0.25907 0.92115
 H195 H 0.55514 0.31263 0.96356
 H196 H 0.56016 0.35303 0.89438
 H197 H 0.43690 0.29838 0.85204
 H198 H 0.48234 0.22569 1.08314
 H199 H 0.48135 0.26285 1.15551
 H200 H 0.50058 0.38566 1.09238
 H201 H 0.50088 0.34600 1.02085
 C202 C 0.36426 0.17255 0.99730
 C203 C 0.62590 0.17131 0.99345
 C204 C 0.49110 0.32694 1.12914
 C205 C 0.49861 0.32882 0.86832
 C206 C 0.44234 0.81068 0.97110
 H207 H 0.46556 0.81267 0.94502
 C208 C 0.40202 0.83321 0.96815
 H209 H 0.39437 0.85292 0.93987
 C210 C 0.42287 0.78096 1.03884
 H211 H 0.43033 0.75963 1.06575
 C212 C 0.38240 0.80288 1.03723
 H213 H 0.35936 0.79868 1.06324
 N214 N 0.45193 0.78512 1.00608
 C215 C 0.59327 0.76159 1.01524
 H216 H 0.59259 0.72657 1.01946
 C217 C 0.63322 0.78284 1.01562
 H218 H 0.66346 0.76418 1.02021
 C219 C 0.55461 0.82859 1.00357
 H220 H 0.52386 0.84616 0.99892
 C221 C 0.59407 0.85121 1.00368
 H222 H 0.59370 0.88623 0.99894
 Zn223 Zn 0.50407 0.75028 1.00677
 N224 N 0.55509 0.78444 1.00863
 C225 C 0.53683 0.71944 0.92611
 N226 N 0.50392 0.71505 0.95498
 C227 C 0.46915 0.68909 0.94536
 C228 C 0.46657 0.66642 0.90518
 C229 C 0.53556 0.69736 0.88581
 C230 C 0.51218 0.73973 1.09591
 C231 C 0.51297 0.71871 1.13588
 C232 C 0.50230 0.64989 1.09720
 C233 C 0.50175 0.67229 1.05771
 N234 N 0.50603 0.71654 1.05794
 H235 H 0.56356 0.74108 0.93356
 H236 H 0.44292 0.68691 0.96842
 H237 H 0.43848 0.64641 0.89737
 H238 H 0.56160 0.70171 0.86283
 H239 H 0.51582 0.77482 1.09504
 H240 H 0.51724 0.73762 1.16595
 H241 H 0.49826 0.61477 1.09702
 H242 H 0.49748 0.65445 1.02713
 C243 C 0.63369 0.82795 1.00942
 C244 C 0.37167 0.82896 1.00145
 C245 C 0.50767 0.67347 1.13660
 C246 C 0.50000 0.67094 0.87505
 B247 B 0.99985 1.04558 0.02735
 B248 B 0.99944 1.04482 -0.02764
 B249 B 1.04442 1.02778 0.00028
 B250 B 1.02807 1.00099 0.04435
 B251 B 0.97291 1.00147 0.04365
 B252 B 0.95521 1.02858 -0.00088
 B253 B 1.00048 0.95575 -0.02837
 B254 B 1.00089 0.95645 0.02665
 B255 B 0.95585 0.97349 -0.00130
 B256 B 0.97224 1.00032 -0.04539
 B257 B 1.02737 0.99987 -0.04462
 B258 B 1.04511 0.97274 -0.00017
 B259 B 0.54440 0.49857 0.47458
 B260 B 0.49939 0.52643 0.45742
 B261 B 0.49988 0.47137 0.45683
 B262 B 0.52806 0.45447 0.50143
 B263 B 0.54497 0.49912 0.52957
 B264 B 0.52724 0.54356 0.50239
 B265 B 0.45573 0.50009 0.52867
 B266 B 0.50078 0.47223 0.54582
 B267 B 0.50026 0.52730 0.54645
 B268 B 0.47211 0.54416 0.50182
 B269 B 0.45516 0.49956 0.47365
 B270 B 0.47290 0.45511 0.50086
 C271 C 1.00229 1.25037 0.11678
 C272 C 0.97381 1.21981 0.14295
 C273 C 0.97327 1.17793 0.12688
 C274 C 1.00124 1.17070 0.08623
 C275 C 1.04719 1.18603 0.09993
 C276 C 1.04774 1.22794 0.11603
 C277 C 0.98462 1.24660 0.06957
 C278 C 0.98407 1.20472 0.05351
 C279 C 1.00243 1.29536 0.13447
 C280 C 1.00138 1.33189 0.15015
 C281 C 1.00053 1.12586 0.06853
 C282 C 0.99999 1.08976 0.05215
 H283 H 0.95568 1.23017 0.17163
 H284 H 0.95473 1.15242 0.14177
 H285 H 1.07667 1.16578 0.09717
 H286 H 1.07770 1.24362 0.12706
 H287 H 0.97362 1.27437 0.05040
 H288 H 0.97253 1.19661 0.02058
 C289 C 0.99611 0.75546 0.11595
 C290 C 1.03223 0.76081 0.08240
 C291 C 1.03375 0.80191 0.06614
 C292 C 0.99901 0.83358 0.08504
 C293 C 1.00609 0.83226 0.13473
 C294 C 1.00457 0.79118 0.15100
 C295 C 0.95358 0.77001 0.09237
 C296 C 0.95511 0.81109 0.07611
 C297 C 0.99446 0.71141 0.13392
 C298 C 0.99318 0.67582 0.15007
 C299 C 1.00046 0.87756 0.06722
 C300 C 1.00111 0.91301 0.05095
 H301 H 1.05449 0.73460 0.07216
 H302 H 1.05731 0.81093 0.04193
 H303 H 1.01179 0.86102 0.15532
 H304 H 1.00898 0.78474 0.18558
 H305 H 0.92489 0.74976 0.08858
 H306 H 0.92775 0.82603 0.05832
 C307 C 1.00039 1.24586 -0.11672
 C308 C 1.01238 1.20981 -0.15035
 C309 C 1.01193 1.16868 -0.13411
 C310 C 0.99955 1.16768 -0.08586
 C311 C 0.95515 1.19195 -0.08332
 C312 C 0.95558 1.23310 -0.09958
 C313 C 1.03259 1.23904 -0.07819
 C314 C 1.03215 1.19789 -0.06194
 C315 C 1.00084 1.28989 -0.13477
 C316 C 1.00114 1.32536 -0.15120
 C317 C 0.99915 1.12368 -0.06811
 C318 C 0.99905 1.08821 -0.05190
 H319 H 1.02049 1.21605 -0.18401
 H320 H 1.01961 1.13968 -0.15379
 H321 H 0.92600 1.17810 -0.06981
 H322 H 0.92680 1.25453 -0.10001
 H323 H 1.05369 1.26433 -0.06472
 H324 H 1.05286 1.18790 -0.03449
 C325 C 1.00720 0.75139 -0.11835
 C326 C 0.97592 0.78187 -0.14402
 C327 C 0.97440 0.82370 -0.12786
 C328 C 1.00430 0.83094 -0.08762
 C329 C 1.05015 0.81585 -0.10203
 C330 C 1.05167 0.77398 -0.11822
 C331 C 0.99198 0.75497 -0.07090
 C332 C 0.99046 0.79680 -0.05474
 C333 C 1.00835 0.70648 -0.13611
 C334 C 1.00803 0.67001 -0.15183
 C335 C 1.00257 0.87568 -0.06979
 C336 C 1.00132 0.91169 -0.05328
 H337 H 0.95665 0.77148 -0.17245
 H338 H 0.95389 0.84916 -0.14239
 H339 H 1.07887 0.83622 -0.09966
 H340 H 1.08170 0.75845 -0.12973
 H341 H 0.98325 0.72712 -0.05166
 H342 H 0.98034 0.80481 -0.02167
 C343 C 1.11647 1.00686 0.24912
 C344 C 1.14400 1.03239 0.21722
 C345 C 1.12819 1.03104 0.17527
 C346 C 1.08644 1.00430 0.16939
 C347 C 1.05402 1.02465 0.20214
 C348 C 1.06982 1.02598 0.24411
 C349 C 1.11415 0.96039 0.22929
 C350 C 1.09832 0.95905 0.18737
 C351 C 1.13393 1.00792 0.29410
 C352 C 1.14956 1.00769 0.33057
 C353 C 1.06906 1.00281 0.12454
 C354 C 1.05285 1.00173 0.08842
 H355 H 1.17331 1.05002 0.22677
 H356 H 1.14392 1.04748 0.14885
 H357 H 1.02149 1.03688 0.19315
 H358 H 1.05086 1.03930 0.27109
 H359 H 1.12395 0.93108 0.24672
 H360 H 1.09454 0.92863 0.16884
 C361 C 1.11577 1.00124 -0.24575
 C362 C 1.10672 1.04702 -0.22601
 C363 C 1.09067 1.04644 -0.18481
 C364 C 1.08531 1.00015 -0.16747
 C365 C 1.13060 0.97804 -0.17140
 C366 C 1.14664 0.97861 -0.21259
 C367 C 1.07221 0.97735 -0.24297
 C368 C 1.05617 0.97677 -0.20176
 C369 C 1.13361 1.00183 -0.28982
 C370 C 1.14993 1.00224 -0.32531
 C371 C 1.06777 0.99961 -0.12344
 C372 C 1.05165 0.99946 -0.08796
 H373 H 1.11232 1.07721 -0.24292
 H374 H 1.08253 1.07613 -0.16638
 H375 H 1.14851 0.96330 -0.14425
 H376 H 1.17834 0.96430 -0.22075
 H377 H 1.05537 0.96239 -0.27088
 H378 H 1.02557 0.96128 -0.19433
 C379 C 0.88379 0.99634 0.24460
 C380 C 0.92692 0.97035 0.23905
 C381 C 0.94315 0.97198 0.19797
 C382 C 0.91464 0.99946 0.16651
 C383 C 0.91002 1.04451 0.18917
 C384 C 0.89377 1.04287 0.23025
 C385 C 0.85271 0.97803 0.20890
 C386 C 0.86894 0.97967 0.16784
 C387 C 0.86579 0.99456 0.28861
 C388 C 0.84947 0.99317 0.32410
 C389 C 0.93238 1.00103 0.12253
 C390 C 0.94859 1.00173 0.08706
 H391 H 0.94336 0.95241 0.26510
 H392 H 0.97352 0.95543 0.18881
 H393 H 0.91885 1.07497 0.17431
 H394 H 0.88867 1.07195 0.25061
 H395 H 0.82075 0.96490 0.21534
 H396 H 0.85092 0.96798 0.13910
 C397 C 0.88400 1.00203 -0.25048
 C398 C 0.89398 0.95588 -0.23355
 C399 C 0.90973 0.95548 -0.19159
 C400 C 0.91393 1.00125 -0.17065
 C401 C 0.86818 1.02251 -0.17523
 C402 C 0.85243 1.02292 -0.21722
 C403 C 0.92697 1.02673 -0.24381
 C404 C 0.94271 1.02634 -0.20181
 C405 C 0.86667 1.00206 -0.29557
 C406 C 0.85128 1.00101 -0.33218
 C407 C 0.93129 1.00072 -0.12573
 C408 C 0.94749 1.00034 -0.08957
 H409 H 0.88919 0.92612 -0.25287
 H410 H 0.91843 0.92540 -0.17495
 H411 H 0.84979 1.03605 -0.14794
 H412 H 0.82051 1.03684 -0.22591
 H413 H 0.94363 1.04298 -0.26976
 H414 H 0.97288 1.04228 -0.19178
 C415 C 1.24566 1.11724 -0.00117
 C416 C 1.24014 1.07569 -0.02957
 C417 C 1.19896 1.05936 -0.02896
 C418 C 1.16741 1.08620 -0.00000
 C419 C 1.16874 1.13294 -0.01706
 C420 C 1.20990 1.14927 -0.01768
 C421 C 1.23125 1.10461 0.04458
 C422 C 1.19007 1.08826 0.04519
 C423 C 1.28971 1.13537 -0.00183
 C424 C 1.32521 1.15188 -0.00230
 C425 C 1.12338 1.06835 0.00056
 C426 C 1.08788 1.05207 0.00070
 H427 H 1.26628 1.06035 -0.04832
 H428 H 1.18979 1.02998 -0.04720
 H429 H 1.13992 1.15156 -0.02769
 H430 H 1.21637 1.18195 -0.02887
 H431 H 1.25162 1.10809 0.07389
 H432 H 1.17513 1.07773 0.07500
 C433 C 0.75047 1.11819 -0.00788
 C434 C 0.75974 1.08249 -0.04264
 C435 C 0.80173 1.06650 -0.04109
 C436 C 0.83025 1.08778 -0.00492
 C437 C 0.80530 1.08135 0.03742
 C438 C 0.76335 1.09733 0.03586
 C439 C 0.78511 1.15305 -0.01479
 C440 C 0.82709 1.13703 -0.01323
 C441 C 0.70541 1.13570 -0.00906
 C442 C 0.66879 1.15115 -0.00872
 C443 C 0.87507 1.07005 -0.00313
 C444 C 0.91113 1.05353 -0.00180
 H445 H 0.73548 1.07074 -0.06626
 H446 H 0.81346 1.04098 -0.06339
 H447 H 0.81930 1.06547 0.06604
 H448 H 0.74139 1.09517 0.06317
 H449 H 0.77732 1.18729 -0.02047
 H450 H 0.85528 1.15750 -0.01753
 C451 C 1.24968 0.88212 -0.00251
 C452 C 1.22799 0.88490 -0.04811
 C453 C 1.18612 0.90128 -0.04760
 C454 C 1.17011 0.91322 -0.00156
 C455 C 1.20417 0.94502 0.01750
 C456 C 1.24600 0.92867 0.01699
 C457 C 1.21838 0.85498 0.02421
 C458 C 1.17654 0.87134 0.02470
 C459 C 1.29463 0.86415 -0.00254
 C460 C 1.33113 0.84829 -0.00134
 C461 C 1.12534 0.93123 -0.00087
 C462 C 1.08928 0.94782 -0.00032
 H463 H 1.24410 0.87495 -0.07811
 H464 H 1.16632 0.90534 -0.07718
 H465 H 1.19611 0.97755 0.03023
 H466 H 1.27380 0.94720 0.02922
 H467 H 1.22822 0.82544 0.04121
 H468 H 1.15054 0.85584 0.04206
 C469 C 0.75474 0.88381 0.00469
 C470 C 0.77742 0.87405 -0.03889
 C471 C 0.81853 0.89039 -0.04067
 C472 C 0.83291 0.91485 0.00129
 C473 C 0.82759 0.88214 0.03806
 C474 C 0.78649 0.86580 0.03984
 C475 C 0.75598 0.93372 0.01071
 C476 C 0.79711 0.95004 0.00895
 C477 C 0.71068 0.86576 0.00659
 C478 C 0.67509 0.84950 0.00801
 C479 C 0.87691 0.93277 -0.00050
 C480 C 0.91237 0.94913 -0.00140
 H481 H 0.76246 0.85593 -0.06598
 H482 H 0.83883 0.88629 -0.06926
 H483 H 0.85373 0.87277 0.06078
 H484 H 0.77742 0.84236 0.06409
 H485 H 0.72717 0.95440 0.01600
 H486 H 0.80354 0.98470 0.01281
 C487 C 0.74510 0.50328 0.38397
 C488 C 0.71000 0.52750 0.35650
 C489 C 0.66903 0.52601 0.37317
 C490 C 0.66719 0.50044 0.41566
 C491 C 0.70080 0.52217 0.44673
 C492 C 0.74179 0.52366 0.43006
 C493 C 0.72804 0.45664 0.38796
 C494 C 0.68706 0.45515 0.40465
 C495 C 0.78900 0.50489 0.36549
 C496 C 0.82441 0.50611 0.34886
 C497 C 0.62332 0.49899 0.43385
 C498 C 0.58790 0.49834 0.45028
 H499 H 0.71675 0.54438 0.32658
 H500 H 0.64067 0.54157 0.35757
 H501 H 0.69307 0.53519 0.47902
 H502 H 0.76920 0.53790 0.44804
 H503 H 0.74657 0.42737 0.37861
 H504 H 0.67045 0.42462 0.40961
 C505 C 0.25093 0.49682 0.38220
 C506 C 0.26344 0.54101 0.40316
 C507 C 0.30518 0.54167 0.41971
 C508 C 0.33035 0.49809 0.41367
 C509 C 0.32784 0.48782 0.36444
 C510 C 0.28607 0.48715 0.34788
 C511 C 0.25984 0.46321 0.41802
 C512 C 0.30162 0.46387 0.43458
 C513 C 0.20608 0.49651 0.36400
 C514 C 0.16965 0.49735 0.34799
 C515 C 0.37505 0.49888 0.43188
 C516 C 0.41105 0.49942 0.44861
 H517 H 0.24138 0.56926 0.40498
 H518 H 0.31890 0.57046 0.43574
 H519 H 0.35630 0.48169 0.34436
 H520 H 0.27877 0.48038 0.31356
 H521 H 0.23547 0.44099 0.42949
 H522 H 0.31306 0.44222 0.46029
 C523 C 0.75018 0.49542 0.61785
 C524 C 0.74415 0.46991 0.57452
 C525 C 0.70210 0.47088 0.55869
 C526 C 0.67030 0.49727 0.58778
 C527 C 0.69042 0.54273 0.59286
 C528 C 0.73246 0.54176 0.60871
 C529 C 0.71710 0.47593 0.64885
 C530 C 0.67507 0.47691 0.63302
 C531 C 0.79518 0.49436 0.63549
 C532 C 0.83147 0.49354 0.65175
 C533 C 0.62534 0.49822 0.57044
 C534 C 0.58913 0.49879 0.55429
 H535 H 0.77056 0.45280 0.55766
 H536 H 0.69246 0.45460 0.52822
 H537 H 0.67322 0.57297 0.58461
 H538 H 0.75132 0.57119 0.61405
 H539 H 0.72593 0.46253 0.68048
 H540 H 0.64788 0.46438 0.65104
 C541 C 0.25380 0.50223 0.61711
 C542 C 0.25529 0.51375 0.56859
 C543 C 0.29662 0.51354 0.55257
 C544 C 0.33237 0.50181 0.58664
 C545 C 0.31910 0.45753 0.60436
 C546 C 0.27779 0.45775 0.62040
 C547 C 0.28425 0.53491 0.64060
 C548 C 0.32559 0.53469 0.62456
 C549 C 0.20947 0.50213 0.63473
 C550 C 0.17355 0.50111 0.65031
 C551 C 0.37657 0.50141 0.56904
 C552 C 0.41216 0.50087 0.55287
 H553 H 0.22647 0.52142 0.54861
 H554 H 0.30323 0.52111 0.51886
 H555 H 0.34025 0.42854 0.60425
 H556 H 0.26354 0.42891 0.63405
 H557 H 0.27419 0.55641 0.66739
 H558 H 0.35092 0.55602 0.63754
 C559 C 0.50448 0.61749 0.25740
 C560 C 0.49888 0.56773 0.25754
 C561 C 0.49742 0.55110 0.29844
 C562 C 0.50170 0.58585 0.33515
 C563 C 0.46517 0.61968 0.32564
 C564 C 0.46662 0.63633 0.28475
 C565 C 0.54599 0.62587 0.28529
 C566 C 0.54452 0.60920 0.32619
 C567 C 0.50594 0.63578 0.21352
 C568 C 0.50688 0.65206 0.17800
 C569 C 0.50018 0.56753 0.37888
 C570 C 0.49935 0.55090 0.41411
 H571 H 0.49635 0.54735 0.22816
 H572 H 0.49362 0.51647 0.30409
 H573 H 0.44040 0.62972 0.34897
 H574 H 0.44305 0.66065 0.27301
 H575 H 0.57407 0.64330 0.27389
 H576 H 0.57133 0.61235 0.34985
 C577 C 0.49696 0.61714 0.75086
 C578 C 0.45339 0.59738 0.73528
 C579 C 0.45416 0.58123 0.69343
 C580 C 0.49842 0.58647 0.67132
 C581 C 0.53215 0.56439 0.70200
 C582 C 0.53139 0.58052 0.74382
 C583 C 0.50710 0.65161 0.71683
 C584 C 0.50786 0.63547 0.67501
 C585 C 0.49657 0.63486 0.79579
 C586 C 0.49740 0.65053 0.83228
 C587 C 0.49934 0.56869 0.62656
 C588 C 0.50000 0.55222 0.59053
 H589 H 0.42457 0.59599 0.75537
 H590 H 0.42602 0.56595 0.67768
 H591 H 0.55446 0.53817 0.69184
 H592 H 0.55308 0.56815 0.76947
 H593 H 0.51311 0.68574 0.72491
 H594 H 0.51448 0.65572 0.64725
 C595 C 0.49465 0.38176 0.25265
 C596 C 0.45502 0.41111 0.26417
 C597 C 0.45636 0.42709 0.30604
 C598 C 0.49722 0.41217 0.33222
 C599 C 0.53618 0.42579 0.30497
 C600 C 0.53482 0.40980 0.26310
 C601 C 0.49595 0.34605 0.28731
 C602 C 0.49730 0.36206 0.32918
 C603 C 0.49322 0.36413 0.20778
 C604 C 0.49215 0.34821 0.17145
 C605 C 0.49859 0.42989 0.37692
 C606 C 0.49942 0.44641 0.41289
 H607 H 0.42835 0.41881 0.24142
 H608 H 0.43087 0.44853 0.31919
 H609 H 0.56240 0.44636 0.31743
 H610 H 0.55988 0.41662 0.23965
 H611 H 0.49577 0.31123 0.27961
 H612 H 0.49827 0.34105 0.35737
 C613 C 0.50315 0.38278 0.74672
 C614 C 0.48660 0.43042 0.74446
 C615 C 0.48638 0.44667 0.70334
 C616 C 0.50274 0.41367 0.66854
 C617 C 0.47379 0.37365 0.67282
 C618 C 0.47400 0.35740 0.71393
 C619 C 0.54861 0.38254 0.72611
 C620 C 0.54840 0.39882 0.68496
 C621 C 0.50292 0.36493 0.79083
 C622 C 0.50161 0.34920 0.82657
 C623 C 0.50227 0.43154 0.62458
 C624 C 0.50162 0.44789 0.58918
 H625 H 0.47608 0.44973 0.77265
 H626 H 0.47560 0.47989 0.69629
 H627 H 0.45487 0.35930 0.64593
 H628 H 0.45520 0.32909 0.72228
 H629 H 0.57833 0.37072 0.74242
 H630 H 0.57792 0.40094 0.66596
 C631 C 0.61740 0.74415 0.49581
 C632 C 0.57852 0.74118 0.52657
 C633 C 0.56200 0.70019 0.52855
 C634 C 0.58601 0.66626 0.49955
 C635 C 0.63432 0.66861 0.51392
 C636 C 0.65083 0.70957 0.51196
 C637 C 0.60042 0.72625 0.45153
 C638 C 0.58389 0.68529 0.45350
 C639 C 0.63568 0.78806 0.49372
 C640 C 0.65214 0.82350 0.49216
 C641 C 0.56797 0.62240 0.50150
 C642 C 0.55159 0.58700 0.50247
 H643 H 0.56501 0.76883 0.54499
 H644 H 0.53431 0.69272 0.54865
 H645 H 0.65384 0.64060 0.52464
 H646 H 0.68456 0.71666 0.52102
 H647 H 0.60117 0.74422 0.42133
 H648 H 0.57046 0.66814 0.42499
 C649 C 0.61894 0.25025 0.50302
 C650 C 0.62033 0.27329 0.54808
 C651 C 0.60392 0.31510 0.54776
 C652 C 0.58778 0.32971 0.50241
 C653 C 0.55442 0.29529 0.48742
 C654 C 0.57080 0.25351 0.48774
 C655 C 0.64345 0.28054 0.47285
 C656 C 0.62707 0.32232 0.47254
 C657 C 0.63692 0.20536 0.50293
 C658 C 0.65271 0.16889 0.50172
 C659 C 0.56972 0.37440 0.50194
 C660 C 0.55307 0.41039 0.50155
 H661 H 0.63300 0.25810 0.57762
 H662 H 0.60253 0.33574 0.57702
 H663 H 0.52087 0.30306 0.47744
 H664 H 0.55128 0.22550 0.47811
 H665 H 0.67129 0.27008 0.45344
 H666 H 0.64083 0.34764 0.45292
 C667 C 0.38405 0.74911 0.50576
 C668 C 0.38966 0.72913 0.55119
 C669 C 0.40543 0.68713 0.55017
 C670 C 0.41396 0.66930 0.50382
 C671 C 0.44497 0.70211 0.48391
 C672 C 0.42923 0.74413 0.48494
 C673 C 0.35459 0.71730 0.47978
 C674 C 0.37034 0.67530 0.47877
 C675 C 0.36650 0.79405 0.50681
 C676 C 0.35030 0.83030 0.50753
 C677 C 0.43124 0.62441 0.50280
 C678 C 0.44736 0.58824 0.50218
 H679 H 0.38205 0.74648 0.58149
 H680 H 0.41134 0.66845 0.57959
 H681 H 0.47653 0.69311 0.47025
 H682 H 0.44728 0.77116 0.47223
 H683 H 0.32404 0.72694 0.46357
 H684 H 0.35334 0.64894 0.46173
 C685 C 0.38236 0.25444 0.49763
 C686 C 0.40262 0.26682 0.45419
 C687 C 0.41918 0.30791 0.45469
 C688 C 0.41381 0.33249 0.49858
 C689 C 0.43537 0.30242 0.53270
 C690 C 0.41883 0.26137 0.53220
 C691 C 0.34807 0.29069 0.50714
 C692 C 0.36462 0.33175 0.50764
 C693 C 0.36421 0.21040 0.49749
 C694 C 0.34828 0.17469 0.49838
 C695 C 0.43195 0.37639 0.49927
 C696 C 0.44847 0.41176 0.49999
 H697 H 0.40397 0.24520 0.42564
 H698 H 0.43476 0.32152 0.42657
 H699 H 0.46149 0.31244 0.55512
 H700 H 0.43075 0.23620 0.55421
 H701 H 0.31377 0.28462 0.51296
 H702 H 0.34457 0.36087 0.51387
   
