data_POSCAR
  _audit_creation_date              2014-09-24
  _audit_creation_method            'ToBaCCo'
  _symmetry_space_group_name_H-M    'P1'
  _symmetry_Int_Tables_number       1
  _symmetry_cell_setting            triclinic
  loop_
  _symmetry_equiv_pos_as_xyz
 x,y,z
_cell_length_a 29.2911
_cell_length_b 29.1341
_cell_length_c 29.3045
_cell_angle_alpha 89.931400
_cell_angle_beta 90.000300
_cell_angle_gamma 90.141600
loop_
  _atom_site_label
  _atom_site_type_symbol
  _atom_site_fract_x
  _atom_site_fract_y
  _atom_site_fract_z
N1 N 0.57039 0.69679 0.60512
 N2 N 0.55293 0.67844 0.64228
 C3 C 0.51670 0.70353 0.65562
 C4 C 0.51084 0.73878 0.62459
 C5 C 0.54529 0.73343 0.59292
 H6 H 0.49572 0.69647 0.68518
 H7 H 0.55206 0.75513 0.56371
 Cu8 Cu 0.57940 0.62310 0.66838
 Cu9 Cu 0.62554 0.67319 0.57629
 Cu10 Cu 0.67446 0.57649 0.62538
 N11 N 0.60602 0.56825 0.69536
 N12 N 0.64499 0.55213 0.67997
 C13 C 0.65822 0.51668 0.70626
 C14 C 0.62526 0.50956 0.73930
 C15 C 0.59244 0.54271 0.73130
 H16 H 0.68906 0.49698 0.70119
 H17 H 0.56165 0.54834 0.75087
 N18 N 0.69887 0.60620 0.56996
 N19 N 0.68132 0.64402 0.55236
 C20 C 0.70662 0.65688 0.51612
 C21 C 0.74101 0.62517 0.51020
 C22 C 0.73506 0.59339 0.54465
 H23 H 0.70013 0.68658 0.49496
 H24 H 0.75600 0.56356 0.55104
 H25 H 0.61723 0.60581 0.59644
 H26 H 0.65253 0.64327 0.63410
 N27 N 0.93019 0.30185 0.10524
 N28 N 0.94691 0.31940 0.14305
 C29 C 0.98307 0.29421 0.15649
 C30 C 0.98973 0.25969 0.12482
 C31 C 0.95571 0.26567 0.09267
 H32 H 1.00355 0.30085 0.18651
 H33 H 0.94948 0.24474 0.06284
 Cu34 Cu 0.92057 0.37446 0.16970
 Cu35 Cu 0.87539 0.32587 0.07616
 Cu36 Cu 0.82699 0.42293 0.12474
 N37 N 0.89399 0.42953 0.19611
 N38 N 0.85612 0.44699 0.17949
 C39 C 0.84356 0.48315 0.20507
 C40 C 0.87570 0.48910 0.23901
 C41 C 0.90738 0.45470 0.23234
 H42 H 0.81373 0.50408 0.19901
 H43 H 0.93735 0.44817 0.25288
 N44 N 0.80267 0.39346 0.06927
 N45 N 0.81994 0.35545 0.05189
 C46 C 0.79473 0.34282 0.01553
 C47 C 0.76070 0.37489 0.00934
 C48 C 0.76675 0.40660 0.04373
 H49 H 0.80105 0.31305 -0.00551
 H50 H 0.74603 0.43660 0.04995
 H51 H 0.88431 0.39285 0.09697
 H52 H 0.84766 0.35570 0.13373
 N53 N 0.42976 0.19779 -0.10511
 N54 N 0.44705 0.17962 -0.14234
 C55 C 0.48335 0.20478 -0.15571
 C56 C 0.48943 0.23990 -0.12464
 C57 C 0.45505 0.23439 -0.09289
 H58 H 0.50423 0.19786 -0.18533
 H59 H 0.44844 0.25596 -0.06363
 Cu60 Cu 0.42048 0.12432 -0.16847
 Cu61 Cu 0.37448 0.17411 -0.07637
 Cu62 Cu 0.32581 0.07680 -0.12477
 N63 N 0.39380 0.06939 -0.19525
 N64 N 0.35539 0.05237 -0.17916
 C65 C 0.34251 0.01649 -0.20506
 C66 C 0.37498 0.01027 -0.23861
 C67 C 0.40718 0.04422 -0.23139
 H68 H 0.31219 -0.00403 -0.19951
 H69 H 0.43748 0.05050 -0.25156
 N70 N 0.30120 0.10675 -0.06968
 N71 N 0.31859 0.14485 -0.05244
 C72 C 0.29307 0.15792 -0.01650
 C73 C 0.25869 0.12606 -0.01040
 C74 C 0.26487 0.09399 -0.04443
 H75 H 0.29943 0.18786 0.00435
 H76 H 0.24396 0.06400 -0.05061
 H77 H 0.38293 0.10677 -0.09630
 H78 H 0.34731 0.14376 -0.13404
 N79 N 0.06904 0.80263 0.39539
 N80 N 0.05259 0.81990 0.35732
 C81 C 0.01674 0.79426 0.34365
 C82 C 0.00987 0.75983 0.37552
 C83 C 0.04350 0.76630 0.40800
 H84 H -0.00338 0.80052 0.31334
 H85 H 0.04957 0.74550 0.43799
 Cu86 Cu 0.07898 0.87528 0.33090
 Cu87 Cu 0.12413 0.82659 0.42423
 Cu88 Cu 0.17295 0.92363 0.37535
 N89 N 0.10537 0.93062 0.30449
 N90 N 0.14350 0.94795 0.32086
 C91 C 0.15615 0.98415 0.29522
 C92 C 0.12379 0.99029 0.26154
 C93 C 0.09189 0.95597 0.26842
 H94 H 0.18621 1.00496 0.30103
 H95 H 0.06175 0.94953 0.24807
 N96 N 0.19749 0.89388 0.43059
 N97 N 0.17995 0.85595 0.44814
 C98 C 0.20549 0.84294 0.48412
 C99 C 0.24002 0.87469 0.48993
 C100 C 0.23392 0.90661 0.45568
 H101 H 0.19911 0.81306 0.50512
 H102 H 0.25497 0.93645 0.44923
 H103 H 0.11566 0.89365 0.40328
 H104 H 0.15188 0.85644 0.36641
 N105 N 0.12365 0.12594 0.12545
 N106 N 0.37548 0.87478 0.62538
 N107 N 0.87615 0.62512 0.37446
 N108 N 0.62525 0.37602 -0.12607
 N109 N 0.02906 0.19795 0.08854
 C110 C 0.02344 0.22604 0.12507
 N111 N 0.05128 0.22069 0.16177
 N112 N 0.08327 0.18825 0.16205
 C113 C 0.08905 0.16052 0.12534
 N114 N 0.06153 0.16601 0.08851
 N115 N 0.46238 0.79486 0.58544
 C116 C 0.47550 0.77437 0.62492
 N117 N 0.45546 0.78735 0.66460
 N118 N 0.42360 0.81992 0.66482
 C119 C 0.41018 0.84014 0.62527
 N120 N 0.43003 0.82692 0.58555
 N121 N 0.96996 0.69827 0.41201
 C122 C 0.97631 0.72584 0.37511
 N123 N 0.94929 0.71968 0.33791
 N124 N 0.91741 0.68698 0.33751
 C125 C 0.91087 0.65979 0.37459
 N126 N 0.93756 0.66610 0.41191
 N127 N 0.54455 0.28887 -0.16493
 C128 C 0.52483 0.27557 -0.12512
 N129 N 0.53834 0.29585 -0.08568
 N130 N 0.57078 0.32797 -0.08596
 C131 C 0.59031 0.34149 -0.12580
 N132 N 0.57648 0.32152 -0.16532
 N133 N 0.16343 0.04487 0.21156
 C134 C 0.12367 0.02569 0.22592
 N135 N 0.08387 0.03990 0.20692
 N136 N 0.08381 0.07240 0.17490
 C137 C 0.12363 0.09132 0.16025
 N138 N 0.16346 0.07685 0.17904
 N139 N 0.58768 0.46892 -0.20045
 C140 C 0.62527 0.47611 -0.22668
 N141 N 0.66289 0.44996 -0.21922
 N142 N 0.66306 0.41811 -0.18656
 C143 C 0.62531 0.41070 -0.16072
 N144 N 0.58755 0.43652 -0.16833
 N145 N 0.33547 0.95535 0.71173
 C146 C 0.37513 0.97501 0.72569
 N147 N 0.41491 0.96137 0.70628
 N148 N 0.41507 0.92892 0.67428
 C149 C 0.37537 0.90947 0.66008
 N150 N 0.33554 0.92339 0.67924
 N151 N 0.83626 0.54419 0.28827
 C152 C 0.87591 0.52455 0.27453
 N153 N 0.91568 0.53843 0.29395
 N154 N 0.91582 0.57106 0.32577
 C155 C 0.87611 0.59045 0.33979
 N156 N 0.83631 0.57630 0.32060
 N157 N 0.20947 0.16601 0.04434
 C158 C 0.22328 0.12607 0.02500
 N159 N 0.20388 0.08611 0.03899
 N160 N 0.17207 0.08604 0.07149
 C161 C 0.15803 0.12601 0.09063
 N162 N 0.17715 0.16602 0.07633
 N163 N 0.78999 0.66506 0.45497
 C164 C 0.77632 0.62516 0.47471
 N165 N 0.79587 0.58525 0.46113
 N166 N 0.82771 0.58520 0.42867
 C167 C 0.84165 0.62514 0.40915
 N168 N 0.82235 0.66510 0.42301
 N169 N 0.71169 0.33548 -0.04608
 C170 C 0.72552 0.37524 -0.02628
 N171 N 0.70617 0.41529 -0.03982
 N172 N 0.67430 0.41562 -0.07226
 C173 C 0.66016 0.37580 -0.09178
 N174 N 0.67931 0.33571 -0.07801
 N175 N 0.28882 0.83483 0.54517
 C176 C 0.27551 0.87468 0.52524
 N177 N 0.29546 0.91457 0.53858
 N178 N 0.32736 0.91465 0.57100
 C179 C 0.34091 0.87475 0.59072
 N180 N 0.32121 0.83481 0.57710
   
