data_POSCAR
  _audit_creation_date              2014-09-24
  _audit_creation_method            'ToBaCCo'
  _symmetry_space_group_name_H-M    'P1'
  _symmetry_Int_Tables_number       1
  _symmetry_cell_setting            triclinic
  loop_
  _symmetry_equiv_pos_as_xyz
 x,y,z
_cell_length_a 30.4051
_cell_length_b 30.3431
_cell_length_c 30.3033
_cell_angle_alpha 90.052700
_cell_angle_beta 90.090800
_cell_angle_gamma 89.916900
loop_
  _atom_site_label
  _atom_site_type_symbol
  _atom_site_fract_x
  _atom_site_fract_y
  _atom_site_fract_z
C1 C 0.41233 1.01928 -0.53623
 C2 C 0.39178 1.02532 -0.49517
 C3 C 0.41529 1.02374 -0.45562
 C4 C 0.46147 1.01886 -0.45650
 C5 C 0.48347 1.01389 -0.49743
 C6 C 0.45894 1.01393 -0.53746
 C7 C 0.48206 1.01128 -0.57754
 C8 C 0.52743 1.00620 -0.57842
 C9 C 0.55253 1.00664 -0.53940
 C10 C 0.53020 1.00955 -0.49829
 C11 C 0.48626 1.02054 -0.41746
 C12 C 0.53169 1.01607 -0.41824
 C13 C 0.55441 1.00878 -0.45803
 C14 C 0.60092 1.00386 -0.45904
 C15 C 0.62201 1.00068 -0.50003
 C16 C 0.59911 1.00247 -0.54016
 H17 H 0.46563 1.01383 -0.60905
 H18 H 0.54237 1.00179 -0.61043
 H19 H 0.47080 1.02636 -0.38583
 H20 H 0.54871 1.01960 -0.38713
 H21 H 0.35622 1.02803 -0.49354
 H22 H 0.65755 0.99720 -0.50070
 C23 C -0.45113 1.59112 -0.02166
 C24 C -0.49062 1.61452 -0.02446
 C25 C -0.53166 1.59361 -0.02048
 C26 C -0.53282 1.54679 -0.01657
 C27 C -0.49276 1.52257 -0.01480
 C28 C -0.45186 1.54484 -0.01712
 C29 C -0.41267 1.52019 -0.01607
 C30 C -0.41349 1.47454 -0.01237
 C31 C -0.45353 1.45169 -0.00970
 C32 C -0.49355 1.47581 -0.01137
 C33 C -0.57271 1.52318 -0.01740
 C34 C -0.57347 1.47755 -0.01331
 C35 C -0.53432 1.45320 -0.01025
 C36 C -0.53479 1.40674 -0.00645
 C37 C -0.49511 1.38352 -0.00457
 C38 C -0.45466 1.40521 -0.00647
 H39 H -0.38088 1.53594 -0.01876
 H40 H -0.38231 1.45730 -0.01209
 H41 H -0.60395 1.53950 -0.02222
 H42 H -0.60523 1.46150 -0.01321
 H43 H -0.48902 1.65018 -0.02646
 H44 H -0.49572 1.34785 -0.00203
 C45 C -0.03175 0.45893 0.40783
 C46 C -0.03190 0.50001 0.38653
 C47 C -0.03046 0.53959 0.40996
 C48 C -0.03031 0.53891 0.45655
 C49 C -0.03090 0.49802 0.47920
 C50 C -0.03219 0.45790 0.45487
 C51 C -0.03826 0.41833 0.47819
 C52 C -0.03966 0.41765 0.52398
 C53 C -0.03504 0.45648 0.54897
 C54 C -0.03216 0.49735 0.52628
 C55 C -0.03202 0.57818 0.48093
 C56 C -0.03376 0.57754 0.52668
 C57 C -0.03255 0.53764 0.55035
 C58 C -0.03576 0.53689 0.59718
 C59 C -0.03994 0.49612 0.61857
 C60 C -0.03764 0.45585 0.59582
 H61 H -0.04398 0.38746 0.46134
 H62 H -0.04638 0.38630 0.53947
 H63 H -0.03357 0.60995 0.46480
 H64 H -0.03777 0.60893 0.54305
 H65 H -0.03074 0.50147 0.35076
 H66 H -0.04039 0.49565 0.65437
 O67 O -0.05188 0.99353 -0.11172
 O68 O -0.05323 1.00125 0.11475
 O69 O -0.10539 0.93756 0.00033
 O70 O -0.10645 1.05673 0.00239
 O71 O -0.05355 1.11106 0.00177
 O72 O -0.05136 0.88416 0.00054
 O73 O -0.10667 0.99941 0.06074
 O74 O -0.10595 0.99503 -0.05844
 Zr75 Zr -0.07030 0.99742 0.00140
 O76 O -0.03346 1.03820 0.04117
 O77 O -0.03223 0.95726 -0.03787
 C78 C -0.09265 0.99291 -0.09908
 C79 C -0.09387 1.00149 0.10159
 C80 C -0.09218 0.89687 -0.00039
 C81 C -0.09411 1.09767 0.00270
 H82 H -0.05147 0.93968 0.06077
 O83 O -0.03263 0.95834 0.04192
 H84 H -0.05185 1.05537 -0.05781
 O85 O -0.03288 1.03703 -0.03867
 O86 O 0.06557 0.99763 0.11582
 O87 O 0.06711 0.99882 -0.11103
 O88 O 0.00913 0.88555 0.06283
 O89 O 0.00462 1.11202 0.06028
 O90 O 0.00804 1.11048 -0.05908
 O91 O 0.00728 0.88400 -0.05638
 O92 O 0.12060 0.93955 0.00527
 O93 O 0.11945 1.05844 0.00060
 O94 O 0.06775 0.88513 0.00477
 O95 O 0.06560 1.11193 -0.00054
 O96 O 0.00744 0.93968 0.11623
 O97 O 0.00639 0.93688 -0.11096
 O98 O 0.00757 1.05623 -0.11245
 O99 O 0.00396 1.05904 0.11482
 O100 O 0.11979 0.99830 0.06272
 O101 O 0.12044 1.00057 -0.05684
 Zr102 Zr 0.00643 0.99893 0.07952
 Zr103 Zr 0.00741 0.99703 -0.07569
 Zr104 Zr 0.00784 0.92055 0.00277
 Zr105 Zr 0.00635 1.07555 0.00104
 Zr106 Zr 0.08429 0.99871 0.00263
 O107 O 0.04673 1.03781 -0.03825
 O108 O 0.04702 0.95884 0.04278
 C109 C 0.10640 0.99725 0.10341
 C110 C 0.10771 1.00071 -0.09778
 C111 C 0.00872 0.89876 0.10360
 C112 C 0.00337 1.09964 0.10125
 C113 C 0.00822 1.09715 -0.09980
 C114 C 0.00616 0.89628 -0.09738
 C115 C 0.10826 0.89863 0.00596
 C116 C 0.10640 1.09915 -0.00088
 H117 H 0.06655 0.93933 -0.05575
 O118 O 0.04743 0.95811 -0.03721
 H119 H 0.06464 1.05777 0.06054
 O120 O 0.04610 1.03866 0.04174
 C121 C 0.32651 1.01107 0.35325
 C122 C 0.32285 1.04577 0.38376
 C123 C 0.35129 1.04850 0.41984
 C124 C 0.38504 1.01724 0.42591
 C125 C 0.38849 0.98232 0.39542
 C126 C 0.35973 0.97939 0.35947
 C127 C 0.29503 1.00748 0.31579
 C128 C 0.30901 0.99304 0.27398
 C129 C 0.27917 0.98986 0.23891
 C130 C 0.23469 1.00114 0.24485
 C131 C 0.22083 1.01566 0.28665
 C132 C 0.25053 1.01858 0.32168
 C133 C 0.20267 0.99803 0.20782
 C134 C 0.15933 0.98408 0.21572
 C135 C 0.12839 0.98339 0.18170
 C136 C 0.14005 0.99624 0.13874
 C137 C 0.18369 1.00894 0.13040
 C138 C 0.21464 1.01000 0.16463
 H139 H 0.29810 1.07113 0.37965
 H140 H 0.34753 1.07584 0.44256
 H141 H 0.41245 0.95630 0.40024
 H142 H 0.36272 0.95160 0.33724
 H143 H 0.34314 0.98464 0.26820
 H144 H 0.29085 0.97816 0.20726
 H145 H 0.18700 1.02527 0.29228
 H146 H 0.23844 1.02919 0.35355
 H147 H 0.14925 0.97361 0.24831
 H148 H 0.09522 0.97277 0.18911
 H149 H 0.19366 1.01915 0.09768
 H150 H 0.24761 1.02134 0.15749
 C151 C -0.31862 1.00087 0.34685
 C152 C -0.31523 0.96795 0.37925
 C153 C -0.34293 0.96815 0.41585
 C154 C -0.37574 1.00058 0.42063
 C155 C -0.37972 1.03311 0.38773
 C156 C -0.35154 1.03319 0.35124
 C157 C -0.28664 1.00228 0.30979
 C158 C -0.29976 1.01482 0.26708
 C159 C -0.26924 1.01606 0.23255
 C160 C -0.22497 1.00472 0.23999
 C161 C -0.21202 0.99208 0.28268
 C162 C -0.24234 0.99115 0.31713
 C163 C -0.19217 1.00583 0.20365
 C164 C -0.14882 1.01960 0.21204
 C165 C -0.11715 1.01838 0.17882
 C166 C -0.12810 1.00389 0.13617
 C167 C -0.17170 0.99129 0.12728
 C168 C -0.20337 0.99207 0.16074
 H169 H -0.29092 0.94200 0.37649
 H170 H -0.33902 0.94246 0.44037
 H171 H -0.40326 1.05971 0.39124
 H172 H -0.35447 1.05953 0.32734
 H173 H -0.33370 1.02325 0.26022
 H174 H -0.28023 1.02635 0.20016
 H175 H -0.17840 0.98245 0.28951
 H176 H -0.23085 0.98208 0.34971
 H177 H -0.13928 1.03141 0.24439
 H178 H -0.08402 1.02891 0.18661
 H179 H -0.18112 0.97984 0.09475
 H180 H -0.23632 0.98081 0.15326
 C181 C -0.31427 0.99665 -0.34776
 C182 C -0.35228 0.97030 -0.34982
 C183 C -0.38098 0.97323 -0.38591
 C184 C -0.37233 1.00259 -0.42080
 C185 C -0.33421 1.02878 -0.41853
 C186 C -0.30603 1.02632 -0.38232
 C187 C -0.28266 0.99285 -0.31038
 C188 C -0.23726 0.99730 -0.31789
 C189 C -0.20740 0.99549 -0.28297
 C190 C -0.22192 0.98839 -0.23954
 C191 C -0.26727 0.98309 -0.23203
 C192 C -0.29730 0.98544 -0.26702
 C193 C -0.18973 0.98737 -0.20246
 C194 C -0.20035 1.00539 -0.16100
 C195 C -0.16914 1.00641 -0.12703
 C196 C -0.12649 0.99003 -0.13401
 C197 C -0.11606 0.97138 -0.17510
 C198 C -0.14739 0.96969 -0.20875
 H199 H -0.35920 0.94648 -0.32421
 H200 H -0.40901 0.95128 -0.38734
 H201 H -0.32664 1.05204 -0.44455
 H202 H -0.27774 1.04792 -0.38143
 H203 H -0.22461 1.00215 -0.35090
 H204 H -0.17288 1.00044 -0.29007
 H205 H -0.27962 0.97699 -0.19912
 H206 H -0.33204 0.98221 -0.25996
 H207 H -0.23237 1.01985 -0.15510
 H208 H -0.17802 1.02116 -0.09571
 H209 H -0.08365 0.95789 -0.18122
 H210 H -0.13832 0.95451 -0.23977
 C211 C 0.33469 1.01947 -0.33944
 C212 C 0.36157 0.98350 -0.35080
 C213 C 0.38886 0.98556 -0.38776
 C214 C 0.38974 1.02358 -0.41403
 C215 C 0.36347 1.05981 -0.40248
 C216 C 0.33639 1.05792 -0.36526
 C217 C 0.30338 1.01605 -0.30215
 C218 C 0.29824 1.05094 -0.27206
 C219 C 0.26759 1.04797 -0.23780
 C220 C 0.24114 1.01029 -0.23338
 C221 C 0.24654 0.97533 -0.26328
 C222 C 0.27746 0.97809 -0.29718
 C223 C 0.20722 1.00776 -0.19841
 C224 C 0.16472 0.99275 -0.20855
 C225 C 0.13246 0.99055 -0.17589
 C226 C 0.14212 1.00287 -0.13221
 C227 C 0.18475 1.01769 -0.12199
 C228 C 0.21691 1.02038 -0.15485
 H229 H 0.36112 0.95362 -0.33129
 H230 H 0.40857 0.95711 -0.39654
 H231 H 0.36343 1.08922 -0.42272
 H232 H 0.31565 1.08591 -0.35754
 H233 H 0.31800 1.08046 -0.27501
 H234 H 0.26386 1.07550 -0.21534
 H235 H 0.22682 0.94578 -0.26040
 H236 H 0.28042 0.95090 -0.32016
 H237 H 0.15626 0.98326 -0.24196
 H238 H 0.09999 0.97892 -0.18485
 H239 H 0.19315 1.02767 -0.08871
 H240 H 0.24951 1.03183 -0.14614
 C241 C 0.34985 1.32548 -0.00159
 C242 C 0.36117 1.34760 -0.04075
 C243 C 0.39808 1.37501 -0.04211
 C244 C 0.42408 1.38090 -0.00433
 C245 C 0.41251 1.35961 0.03496
 C246 C 0.37562 1.33231 0.03641
 C247 C 0.31266 1.29378 -0.00083
 C248 C 0.31681 1.25367 0.02195
 C249 C 0.28265 1.22302 0.02170
 C250 C 0.24349 1.23161 -0.00145
 C251 C 0.23901 1.27194 -0.02381
 C252 C 0.27329 1.30268 -0.02358
 C253 C 0.20794 1.19811 -0.00268
 C254 C 0.16353 1.21045 0.00116
 C255 C 0.13039 1.17847 0.00131
 C256 C 0.14103 1.13347 -0.00238
 C257 C 0.18544 1.12134 -0.00697
 C258 C 0.21843 1.15323 -0.00716
 H259 H 0.34237 1.34256 -0.07070
 H260 H 0.40698 1.39087 -0.07283
 H261 H 0.43242 1.36375 0.06435
 H262 H 0.36742 1.31627 0.06721
 H263 H 0.34689 1.24552 0.03932
 H264 H 0.28689 1.19253 0.03976
 H265 H 0.20935 1.27937 -0.04219
 H266 H 0.26895 1.33347 -0.04111
 H267 H 0.15446 1.24476 0.00500
 H268 H 0.09654 1.18899 0.00492
 H269 H 0.19490 1.08708 -0.01037
 H270 H 0.25225 1.14272 -0.01108
 C271 C 0.35768 0.67890 -0.01134
 C272 C 0.36283 0.64376 0.01843
 C273 C 0.39874 0.61510 0.01499
 C274 C 0.43037 0.62066 -0.01848
 C275 C 0.42525 0.65620 -0.04792
 C276 C 0.38918 0.68451 -0.04475
 C277 C 0.32029 0.71031 -0.00700
 C278 C 0.32644 0.75542 -0.01544
 C279 C 0.29149 0.78506 -0.01176
 C280 C 0.24950 0.77051 0.00095
 C281 C 0.24332 0.72543 0.00965
 C282 C 0.27829 0.69566 0.00564
 C283 C 0.21245 0.80240 0.00464
 C284 C 0.16970 0.79079 -0.00884
 C285 C 0.13550 0.82166 -0.00739
 C286 C 0.14343 0.86491 0.00717
 C287 C 0.18589 0.87623 0.02154
 C288 C 0.21989 0.84530 0.02054
 H289 H 0.33983 0.63914 0.04525
 H290 H 0.40266 0.58962 0.03971
 H291 H 0.44875 0.66155 -0.07422
 H292 H 0.38588 0.71074 -0.06872
 H293 H 0.35845 0.76803 -0.02456
 H294 H 0.29735 0.81939 -0.01941
 H295 H 0.21154 0.71315 0.01994
 H296 H 0.27227 0.66108 0.01197
 H297 H 0.16289 0.75822 -0.02174
 H298 H 0.10316 0.81203 -0.01890
 H299 H 0.19292 0.90912 0.03354
 H300 H 0.25211 0.85509 0.03220
 C301 C -0.33494 0.67123 -0.01591
 C302 C -0.34803 0.64625 0.02083
 C303 C -0.38516 0.61929 0.01850
 C304 C -0.40982 0.61685 -0.02057
 C305 C -0.39666 0.64134 -0.05746
 C306 C -0.35932 0.66810 -0.05526
 C307 C -0.29725 0.70201 -0.01254
 C308 C -0.26624 0.70514 -0.04673
 C309 C -0.23171 0.73545 -0.04403
 C310 C -0.22787 0.76352 -0.00733
 C311 C -0.25861 0.76001 0.02704
 C312 C -0.29283 0.72948 0.02454
 C313 C -0.19280 0.79733 -0.00536
 C314 C -0.20290 0.84056 0.00778
 C315 C -0.17022 0.87278 0.00930
 C316 C -0.12656 0.86241 -0.00190
 C317 C -0.11636 0.81906 -0.01480
 C318 C -0.14924 0.78689 -0.01678
 H319 H -0.32967 0.64781 0.05144
 H320 H -0.39518 0.60089 0.04740
 H321 H -0.41567 0.64014 -0.08770
 H322 H -0.35029 0.68742 -0.08387
 H323 H -0.26873 0.68414 -0.07554
 H324 H -0.20861 0.73769 -0.07110
 H325 H -0.25618 0.78100 0.05587
 H326 H -0.31649 0.72808 0.05118
 H327 H -0.23630 0.84962 0.01628
 H328 H -0.17919 0.90580 0.01951
 H329 H -0.08307 0.81008 -0.02381
 H330 H -0.14056 0.75373 -0.02677
 C331 C -0.34097 1.32105 -0.00499
 C332 C -0.35059 1.34803 0.03157
 C333 C -0.38710 1.37615 0.03087
 C334 C -0.41444 1.37778 -0.00638
 C335 C -0.40468 1.35146 -0.04308
 C336 C -0.36817 1.32352 -0.04251
 C337 C -0.30373 1.28929 -0.00356
 C338 C -0.30844 1.24698 -0.02188
 C339 C -0.27389 1.21671 -0.02023
 C340 C -0.23379 1.22782 0.00001
 C341 C -0.22890 1.27019 0.01816
 C342 C -0.26352 1.30059 0.01644
 C343 C -0.19752 1.19501 0.00227
 C344 C -0.15357 1.20765 -0.00451
 C345 C -0.11981 1.17624 -0.00384
 C346 C -0.12933 1.13149 0.00351
 C347 C -0.17322 1.11908 0.01101
 C348 C -0.20683 1.15043 0.01051
 H349 H -0.33066 1.34649 0.06116
 H350 H -0.39453 1.39605 0.05961
 H351 H -0.42556 1.35240 -0.07207
 H352 H -0.36129 1.30376 -0.07146
 H353 H -0.33913 1.23697 -0.03699
 H354 H -0.27854 1.18458 -0.03509
 H355 H -0.19854 1.27963 0.03429
 H356 H -0.25872 1.33305 0.03049
 H357 H -0.14537 1.24167 -0.01134
 H358 H -0.08639 1.18694 -0.00983
 H359 H -0.18177 1.08502 0.01730
 H360 H -0.24019 1.13973 0.01677
 C361 C -0.02288 1.34760 0.32303
 C362 C 0.00410 1.35073 0.36065
 C363 C 0.00053 1.38675 0.38931
 C364 C -0.03011 1.42065 0.38107
 C365 C -0.05699 1.41734 0.34332
 C366 C -0.05386 1.38111 0.31514
 C367 C -0.01804 1.31036 0.29133
 C368 C -0.02339 1.31750 0.24579
 C369 C -0.01927 1.28281 0.21583
 C370 C -0.00898 1.24004 0.23041
 C371 C -0.00335 1.23284 0.27594
 C372 C -0.00797 1.26756 0.30604
 C373 C -0.00432 1.20334 0.19808
 C374 C -0.01875 1.16050 0.20832
 C375 C -0.01556 1.12654 0.17721
 C376 C 0.00158 1.13483 0.13500
 C377 C 0.01647 1.17743 0.12492
 C378 C 0.01388 1.21115 0.15616
 H379 H 0.02901 1.32608 0.36724
 H380 H 0.02313 1.38901 0.41689
 H381 H -0.08127 1.44249 0.33602
 H382 H -0.07592 1.37939 0.28711
 H383 H -0.03037 1.35009 0.23308
 H384 H -0.02460 1.28955 0.18116
 H385 H 0.00508 1.20047 0.28834
 H386 H -0.00408 1.26072 0.34088
 H387 H -0.03347 1.15338 0.24002
 H388 H -0.02749 1.09407 0.18582
 H389 H 0.03044 1.18469 0.09288
 H390 H 0.02636 1.24337 0.14743
 C391 C -0.02551 1.34297 -0.32203
 C392 C -0.05844 1.37457 -0.31426
 C393 C -0.06299 1.41111 -0.34183
 C394 C -0.03546 1.41668 -0.37876
 C395 C -0.00311 1.38441 -0.38706
 C396 C 0.00179 1.34807 -0.35907
 C397 C -0.01872 1.30589 -0.29057
 C398 C -0.00626 1.26378 -0.30549
 C399 C 0.00040 1.22929 -0.27555
 C400 C -0.00544 1.23605 -0.22999
 C401 C -0.01803 1.27814 -0.21520
 C402 C -0.02430 1.31260 -0.24500
 C403 C 0.00094 1.19950 -0.19784
 C404 C 0.01887 1.20797 -0.15586
 C405 C 0.02198 1.17453 -0.12441
 C406 C 0.00781 1.13160 -0.13431
 C407 C -0.00856 1.12259 -0.17676
 C408 C -0.01218 1.15623 -0.20812
 H409 H -0.08074 1.37122 -0.28666
 H410 H -0.08860 1.43487 -0.33452
 H411 H 0.02000 1.38838 -0.41393
 H412 H 0.02809 1.32489 -0.36556
 H413 H -0.00205 1.25732 -0.34037
 H414 H 0.01049 1.19743 -0.28808
 H415 H -0.02358 1.28445 -0.18049
 H416 H -0.03311 1.34472 -0.23217
 H417 H 0.03036 1.24059 -0.14715
 H418 H 0.03532 1.18237 -0.09218
 H419 H -0.01998 1.08987 -0.18527
 H420 H -0.02658 1.14860 -0.23990
 C421 C -0.02399 0.64796 -0.31805
 C422 C 0.00534 0.64209 -0.35341
 C423 C 0.00096 0.60615 -0.38201
 C424 C -0.03297 0.57514 -0.37610
 C425 C -0.06208 0.58105 -0.34046
 C426 C -0.05801 0.61720 -0.31226
 C427 C -0.01849 0.68519 -0.28650
 C428 C -0.02706 0.67914 -0.24133
 C429 C -0.02208 0.71387 -0.21153
 C430 C -0.00785 0.75550 -0.22591
 C431 C 0.00089 0.76160 -0.27106
 C432 C -0.00448 0.72688 -0.30102
 C433 C -0.00236 0.79221 -0.19377
 C434 C -0.01361 0.83575 -0.20517
 C435 C -0.00995 0.86980 -0.17422
 C436 C 0.00456 0.86097 -0.13107
 C437 C 0.01650 0.81764 -0.11991
 C438 C 0.01334 0.78377 -0.15093
 H439 H 0.03258 0.66451 -0.35821
 H440 H 0.02530 0.60163 -0.40769
 H441 H -0.08872 0.55805 -0.33489
 H442 H -0.08172 0.62108 -0.28593
 H443 H -0.03721 0.64736 -0.22879
 H444 H -0.02983 0.70810 -0.17716
 H445 H 0.01234 0.79308 -0.28324
 H446 H 0.00197 0.73285 -0.33562
 H447 H -0.02631 0.84338 -0.23768
 H448 H -0.01952 0.90282 -0.18379
 H449 H 0.02838 0.80982 -0.08712
 H450 H 0.02333 0.75090 -0.14129
 C451 C -0.02094 0.65499 0.32841
 C452 C -0.05946 0.62934 0.32851
 C453 C -0.06293 0.59251 0.35589
 C454 C -0.02821 0.58090 0.38405
 C455 C 0.00989 0.60690 0.38490
 C456 C 0.01348 0.64370 0.35739
 C457 C -0.01597 0.69203 0.29674
 C458 C 0.00510 0.73138 0.30919
 C459 C 0.01061 0.76558 0.27873
 C460 C -0.00472 0.76110 0.23516
 C461 C -0.02610 0.72191 0.22292
 C462 C -0.03156 0.68780 0.25326
 C463 C 0.00145 0.79691 0.20232
 C464 C 0.01211 0.78665 0.15839
 C465 C 0.01539 0.81981 0.12669
 C466 C 0.00828 0.86417 0.13812
 C467 C -0.00099 0.87465 0.18238
 C468 C -0.00443 0.84135 0.21412
 H469 H -0.08682 0.63752 0.30712
 H470 H -0.09251 0.57268 0.35476
 H471 H 0.03724 0.59799 0.40605
 H472 H 0.04379 0.66239 0.35769
 H473 H 0.01714 0.73581 0.34254
 H474 H 0.02747 0.79526 0.28910
 H475 H -0.03890 0.71765 0.18983
 H476 H -0.04738 0.65774 0.24238
 H477 H 0.01781 0.75285 0.14842
 H478 H 0.02312 0.81052 0.09307
 H479 H -0.00674 0.90846 0.19231
 H480 H -0.01299 0.85030 0.24762
   
