data_POSCAR
  _audit_creation_date              2014-09-24
  _audit_creation_method            'ToBaCCo'
  _symmetry_space_group_name_H-M    'P1'
  _symmetry_Int_Tables_number       1
  _symmetry_cell_setting            triclinic
  loop_
  _symmetry_equiv_pos_as_xyz
 x,y,z
_cell_length_a 50.0375
_cell_length_b 37.9977
_cell_length_c 35.9683
_cell_angle_alpha 90.061100
_cell_angle_beta 90.013200
_cell_angle_gamma 90.045400
loop_
  _atom_site_label
  _atom_site_type_symbol
  _atom_site_fract_x
  _atom_site_fract_y
  _atom_site_fract_z
C1 C 0.25018 0.26937 0.24929
 C2 C 0.25005 0.23347 0.24970
 C3 C 0.22874 0.21280 0.23090
 C4 C 0.27124 0.21306 0.26896
 C5 C 0.26975 0.28998 0.27151
 C6 C 0.23077 0.28970 0.22661
 C7 C 0.20174 0.21860 0.23888
 C8 C 0.18185 0.19949 0.22052
 C9 C 0.18828 0.17341 0.19364
 C10 C 0.21587 0.16750 0.18675
 C11 C 0.23562 0.18680 0.20514
 C12 C 0.26415 0.18788 0.29569
 C13 C 0.28386 0.16890 0.31446
 C14 C 0.31106 0.17455 0.30664
 C15 C 0.31808 0.19930 0.27928
 C16 C 0.29834 0.21827 0.26050
 C17 C 0.28604 0.31499 0.25396
 C18 C 0.30522 0.33358 0.27427
 C19 C 0.30832 0.32772 0.31263
 C20 C 0.29145 0.30332 0.33033
 C21 C 0.27227 0.28474 0.30999
 C22 C 0.22811 0.28350 0.18829
 C23 C 0.20903 0.30180 0.16755
 C24 C 0.19248 0.32695 0.18465
 C25 C 0.19573 0.33377 0.22282
 C26 C 0.21475 0.31539 0.24355
 H27 H 0.19603 0.23786 0.25963
 H28 H 0.16157 0.20448 0.22929
 H29 H 0.22281 0.14947 0.16566
 H30 H 0.25642 0.18200 0.19850
 H31 H 0.24334 0.18325 0.30234
 H32 H 0.27781 0.14959 0.33492
 H33 H 0.30420 0.23715 0.23949
 H34 H 0.28423 0.31964 0.22436
 H35 H 0.31759 0.35265 0.25998
 H36 H 0.29345 0.29806 0.35978
 H37 H 0.25956 0.26598 0.32416
 H38 H 0.24069 0.26432 0.17453
 H39 H 0.20735 0.29644 0.13807
 H40 H 0.18313 0.35274 0.23686
 H41 H 0.21658 0.32063 0.27305
 H42 H 0.33886 0.20440 0.27280
 C43 C 0.74991 0.23405 0.25029
 C44 C 0.74988 0.26995 0.25016
 C45 C 0.76929 0.29036 0.22752
 C46 C 0.73044 0.29046 0.27267
 C47 C 0.72859 0.21353 0.26919
 C48 C 0.77126 0.21349 0.23153
 C49 C 0.78540 0.31596 0.24452
 C50 C 0.80446 0.33433 0.22380
 C51 C 0.80765 0.32758 0.18561
 C52 C 0.79099 0.30255 0.16846
 C53 C 0.77188 0.28427 0.18918
 C54 C 0.72785 0.28467 0.31105
 C55 C 0.70875 0.30308 0.33165
 C56 C 0.69210 0.32796 0.31435
 C57 C 0.69528 0.33440 0.27611
 C58 C 0.71433 0.31590 0.25551
 C59 C 0.70151 0.21915 0.26081
 C60 C 0.68164 0.20010 0.27925
 C61 C 0.68849 0.17477 0.30608
 C62 C 0.71564 0.16872 0.31382
 C63 C 0.73549 0.18785 0.29546
 C64 C 0.76441 0.18762 0.20537
 C65 C 0.78429 0.16851 0.18707
 C66 C 0.81144 0.17477 0.19477
 C67 C 0.81823 0.20029 0.22150
 C68 C 0.79832 0.21932 0.23987
 H69 H 0.78363 0.32112 0.27404
 H70 H 0.81714 0.35322 0.23787
 H71 H 0.79262 0.29726 0.13897
 H72 H 0.75922 0.26517 0.17538
 H73 H 0.74051 0.26570 0.32498
 H74 H 0.70713 0.29803 0.36118
 H75 H 0.71610 0.32083 0.22596
 H76 H 0.69580 0.23831 0.24001
 H77 H 0.66092 0.20490 0.27221
 H78 H 0.72154 0.14965 0.33460
 H79 H 0.75626 0.18304 0.30220
 H80 H 0.74364 0.18266 0.19865
 H81 H 0.77843 0.14929 0.16636
 H82 H 0.83894 0.20525 0.22850
 H83 H 0.80401 0.23863 0.26059
 H84 H 0.68260 0.35316 0.26192
 C85 C 0.75028 0.77032 0.75025
 C86 C 0.75020 0.73442 0.75038
 C87 C 0.72883 0.71386 0.73160
 C88 C 0.77150 0.71389 0.76927
 C89 C 0.76977 0.79084 0.77271
 C90 C 0.73087 0.79072 0.72763
 C91 C 0.70177 0.71965 0.73994
 C92 C 0.68185 0.70062 0.72154
 C93 C 0.68862 0.67513 0.69478
 C94 C 0.71576 0.66890 0.68709
 C95 C 0.73566 0.68801 0.70542
 C96 C 0.76457 0.68823 0.79556
 C97 C 0.78439 0.66907 0.81390
 C98 C 0.81155 0.67506 0.80611
 C99 C 0.81842 0.70038 0.77927
 C100 C 0.79858 0.71947 0.76087
 C101 C 0.78580 0.81630 0.75561
 C102 C 0.80489 0.83488 0.77612
 C103 C 0.80845 0.82862 0.81459
 C104 C 0.79156 0.80347 0.83161
 C105 C 0.77244 0.78507 0.81099
 C106 C 0.72824 0.78465 0.68929
 C107 C 0.70913 0.80292 0.66860
 C108 C 0.69249 0.82792 0.68578
 C109 C 0.69571 0.83464 0.72398
 C110 C 0.71478 0.81629 0.74466
 H111 H 0.69611 0.73894 0.76067
 H112 H 0.66114 0.70556 0.72853
 H113 H 0.72160 0.64971 0.66637
 H114 H 0.75642 0.68307 0.69870
 H115 H 0.74379 0.68346 0.80233
 H116 H 0.77847 0.65001 0.83469
 H117 H 0.80431 0.73861 0.74005
 H118 H 0.78405 0.82112 0.72603
 H119 H 0.81761 0.85281 0.76095
 H120 H 0.79222 0.79856 0.86119
 H121 H 0.75968 0.76622 0.82496
 H122 H 0.74088 0.76558 0.67546
 H123 H 0.70747 0.79765 0.63910
 H124 H 0.68304 0.85350 0.73808
 H125 H 0.71657 0.82143 0.77418
 H126 H 0.83915 0.70514 0.77220
 C127 C 0.24961 0.73406 0.75032
 C128 C 0.24952 0.76996 0.75018
 C129 C 0.26892 0.79041 0.72756
 C130 C 0.23005 0.79044 0.77266
 C131 C 0.22837 0.71346 0.76930
 C132 C 0.27096 0.71356 0.73146
 C133 C 0.28504 0.81597 0.74460
 C134 C 0.30411 0.83435 0.72393
 C135 C 0.30730 0.82766 0.68572
 C136 C 0.29063 0.80267 0.66853
 C137 C 0.27151 0.78438 0.68921
 C138 C 0.22744 0.78471 0.81096
 C139 C 0.20837 0.80312 0.83160
 C140 C 0.19147 0.82824 0.81458
 C141 C 0.19496 0.83443 0.77609
 C142 C 0.21400 0.81585 0.75557
 C143 C 0.20133 0.71892 0.76107
 C144 C 0.18151 0.69978 0.77950
 C145 C 0.18819 0.67417 0.80649
 C146 C 0.21563 0.66850 0.81384
 C147 C 0.23535 0.68780 0.79543
 C148 C 0.26409 0.68774 0.70526
 C149 C 0.28396 0.66870 0.68685
 C150 C 0.31111 0.67497 0.69450
 C151 C 0.31793 0.70043 0.72128
 C152 C 0.29803 0.71940 0.73975
 H153 H 0.28327 0.82108 0.77413
 H154 H 0.31680 0.85320 0.73803
 H155 H 0.29227 0.79743 0.63902
 H156 H 0.25885 0.76530 0.67537
 H157 H 0.24022 0.76590 0.82492
 H158 H 0.20776 0.79825 0.86119
 H159 H 0.21570 0.82063 0.72597
 H160 H 0.19555 0.73794 0.74016
 H161 H 0.16105 0.70439 0.77121
 H162 H 0.22224 0.65032 0.83501
 H163 H 0.25615 0.68323 0.80221
 H164 H 0.24332 0.68278 0.69858
 H165 H 0.27808 0.64952 0.66612
 H166 H 0.33864 0.70540 0.72823
 H167 H 0.30373 0.73867 0.76050
 H168 H 0.18222 0.85233 0.76093
 O169 O 0.97413 -0.00506 -0.04213
 O170 O 1.02622 0.04225 0.01029
 O171 O 1.02628 -0.00513 -0.04208
 O172 O 0.97428 0.04232 0.01023
 O173 O 0.97420 0.00027 0.05270
 O174 O 1.02621 -0.04719 0.00037
 O175 O 1.02616 0.00020 0.05276
 O176 O 0.97405 -0.04712 0.00032
 Cu177 Cu 1.00023 0.02279 -0.02025
 Cu178 Cu 1.00015 -0.02775 0.03078
 C179 C 0.96523 -0.03402 -0.02969
 C180 C 1.03493 0.02926 0.04042
 C181 C 1.03509 -0.03411 -0.02963
 C182 C 0.96551 0.02936 0.04035
 O183 O 0.52586 0.54274 0.50973
 O184 O 0.47385 0.49535 0.45722
 O185 O 0.47391 0.54277 0.50956
 O186 O 0.52600 0.49532 0.45741
 O187 O 0.52590 0.45329 0.49989
 O188 O 0.47380 0.50075 0.55206
 O189 O 0.47373 0.45332 0.49971
 O190 O 0.52576 0.50072 0.55223
 Cu191 Cu 0.49991 0.52324 0.47915
 Cu192 Cu 0.49979 0.47274 0.53022
 C193 C 0.53453 0.52979 0.53989
 C194 C 0.46496 0.46639 0.46965
 C195 C 0.46513 0.52982 0.53967
 C196 C 0.53480 0.46635 0.46990
 O197 O -0.02584 0.54158 -0.00990
 O198 O 0.02621 0.49385 0.04196
 O199 O 0.02610 0.54147 -0.01005
 O200 O -0.02594 0.49398 0.04214
 O201 O -0.02611 0.45210 -0.00061
 O202 O 0.02595 0.49961 -0.05282
 O203 O 0.02607 0.45198 -0.00079
 O204 O -0.02600 0.49972 -0.05267
 Cu205 Cu 0.00015 0.52190 0.02040
 Cu206 Cu -0.00004 0.47158 -0.03099
 C207 C -0.03465 0.52876 -0.04009
 C208 C 0.03500 0.46493 0.02928
 C209 C 0.03475 0.52861 -0.04029
 C210 C -0.03488 0.46509 0.02952
 O211 O 0.52586 0.99978 0.44783
 O212 O 0.47384 0.95218 0.50000
 O213 O 0.47390 0.99969 0.44786
 O214 O 0.52601 0.95224 0.49996
 O215 O 0.52602 0.99419 0.54263
 O216 O 0.47393 1.04163 0.49056
 O217 O 0.47386 0.99412 0.54267
 O218 O 0.52587 1.04171 0.49052
 Cu219 Cu 0.49990 0.97169 0.46965
 Cu220 Cu 0.49993 1.02210 0.52095
 C221 C 0.53459 1.02884 0.46032
 C222 C 0.46500 0.96518 0.53008
 C223 C 0.46518 1.02872 0.46037
 C224 C 0.53487 0.96527 0.53003
 C225 C 1.15459 0.10393 0.13776
 C226 C 1.12861 0.11703 0.13584
 C227 C 1.12238 0.14869 0.15344
 C228 C 1.14204 0.16737 0.17281
 C229 C 1.16877 0.15488 0.17508
 C230 C 1.17439 0.12243 0.15700
 C231 C 1.10840 0.09806 0.11557
 C232 C 1.09155 0.08219 0.09845
 C233 C 1.07185 0.06365 0.07828
 C234 C 1.05502 0.04789 0.06101
 H235 H 1.15956 0.07914 0.12454
 H236 H 1.10231 0.15928 0.15180
 H237 H 1.13606 0.19252 0.18402
 H238 H 1.19365 0.10978 0.15880
 C239 C 0.62459 0.65381 0.64280
 C240 C 0.62785 0.61785 0.63568
 C241 C 0.65082 0.60052 0.64818
 C242 C 0.67052 0.61907 0.66759
 C243 C 0.66749 0.65527 0.67475
 C244 C 0.64426 0.67242 0.66223
 C245 C 0.60776 0.59880 0.61527
 C246 C 0.59098 0.58286 0.59807
 C247 C 0.57136 0.56426 0.57784
 C248 C 0.55457 0.54845 0.56051
 H249 H 0.60693 0.66751 0.63314
 H250 H 0.65351 0.57267 0.64290
 H251 H 0.68801 0.60505 0.67728
 H252 H 0.64153 0.70034 0.66689
 C253 C -0.13605 0.34542 0.11744
 C254 C -0.13123 0.38124 0.12357
 C255 C -0.14655 0.39964 0.14969
 C256 C -0.16653 0.38228 0.16974
 C257 C -0.17147 0.34624 0.16388
 C258 C -0.15604 0.32801 0.13743
 C259 C -0.11048 0.39907 0.10323
 C260 C -0.09309 0.41405 0.08629
 C261 C -0.07273 0.43167 0.06651
 C262 C -0.05540 0.44685 0.04963
 H263 H -0.12426 0.33089 0.09736
 H264 H -0.14303 0.42740 0.15458
 H265 H -0.17828 0.39712 0.18957
 H266 H -0.15911 0.30015 0.13267
 C267 C 0.35320 0.89969 0.64998
 C268 C 0.36852 0.88130 0.62386
 C269 C 0.36367 0.84550 0.61766
 C270 C 0.34365 0.82810 0.63758
 C271 C 0.32821 0.84631 0.66404
 C272 C 0.33318 0.88234 0.66997
 C273 C 0.38931 0.89913 0.60359
 C274 C 0.40674 0.91410 0.58671
 C275 C 0.42712 0.93174 0.56699
 C276 C 0.44447 0.94692 0.55015
 H277 H 0.35674 0.92744 0.65493
 H278 H 0.37546 0.83098 0.59758
 H279 H 0.34055 0.80025 0.63277
 H280 H 0.32144 0.89717 0.68981
 C281 C -0.15099 0.60027 -0.14736
 C282 C -0.12788 0.61744 -0.13502
 C283 C -0.12441 0.65334 -0.14221
 C284 C -0.14403 0.67207 -0.16155
 C285 C -0.16740 0.65508 -0.17391
 C286 C -0.17064 0.61894 -0.16667
 C287 C -0.10782 0.59826 -0.11476
 C288 C -0.09107 0.58222 -0.09769
 C289 C -0.07147 0.56349 -0.07764
 C290 C -0.05469 0.54757 -0.06049
 H291 H -0.15384 0.57246 -0.14203
 H292 H -0.10663 0.66691 -0.13268
 H293 H -0.14112 0.69995 -0.16627
 H294 H -0.18824 0.60504 -0.17624
 C295 C 0.34912 1.13012 0.38484
 C296 C 0.37153 1.11718 0.36602
 C297 C 0.37425 1.12303 0.32779
 C298 C 0.35462 1.14172 0.30843
 C299 C 0.33199 1.15478 0.32710
 C300 C 0.32948 1.14879 0.36555
 C301 C 0.39171 1.09796 0.38599
 C302 C 0.40855 1.08192 0.40289
 C303 C 0.42825 1.06324 0.42283
 C304 C 0.44508 1.04740 0.43995
 H305 H 0.34687 1.12586 0.41446
 H306 H 0.39150 1.11306 0.31294
 H307 H 0.35697 1.14554 0.27878
 H308 H 0.31248 1.15893 0.38079
 C309 C 1.14180 -0.10303 -0.15617
 C310 C 1.13120 -0.11811 -0.12400
 C311 C 1.14067 -0.15068 -0.11184
 C312 C 1.16058 -0.16825 -0.13180
 C313 C 1.17152 -0.15362 -0.16466
 C314 C 1.16168 -0.12047 -0.17630
 C315 C 1.11052 -0.10022 -0.10358
 C316 C 1.09318 -0.08520 -0.08657
 C317 C 1.07287 -0.06754 -0.06673
 C318 C 1.05558 -0.05235 -0.04980
 H319 H 1.13478 -0.07760 -0.16565
 H320 H 1.13244 -0.16275 -0.08708
 H321 H 1.16634 -0.19404 -0.12200
 H322 H 1.16983 -0.10701 -0.20020
 C323 C 0.63586 0.34632 0.38246
 C324 C 0.63107 0.38209 0.37609
 C325 C 0.64638 0.40028 0.34982
 C326 C 0.66633 0.38277 0.32986
 C327 C 0.67124 0.34678 0.33597
 C328 C 0.65581 0.32876 0.36256
 C329 C 0.61035 0.40007 0.39634
 C330 C 0.59297 0.41515 0.41322
 C331 C 0.57264 0.43288 0.43295
 C332 C 0.55532 0.44810 0.44980
 H333 H 0.62407 0.33195 0.40265
 H334 H 0.64288 0.42800 0.34474
 H335 H 0.67808 0.39745 0.30991
 H336 H 0.65886 0.30094 0.36751
 C337 C 0.85824 -0.10268 -0.15618
 C338 C 0.86889 -0.11782 -0.12409
 C339 C 0.85943 -0.15043 -0.11198
 C340 C 0.83946 -0.16797 -0.13191
 C341 C 0.82846 -0.15327 -0.16469
 C342 C 0.83831 -0.12010 -0.17629
 C343 C 0.88962 -0.09996 -0.10369
 C344 C 0.90701 -0.08497 -0.08669
 C345 C 0.92736 -0.06735 -0.06684
 C346 C 0.94470 -0.05220 -0.04989
 H347 H 0.86527 -0.07723 -0.16564
 H348 H 0.86770 -0.16254 -0.08726
 H349 H 0.83369 -0.19377 -0.12215
 H350 H 0.83011 -0.10659 -0.20013
 C351 C 0.34395 0.37709 0.39002
 C352 C 0.36931 0.38205 0.37446
 C353 C 0.37471 0.36938 0.33870
 C354 C 0.35486 0.35182 0.31856
 C355 C 0.32930 0.34666 0.33396
 C356 C 0.32407 0.35950 0.36994
 C357 C 0.38981 0.40008 0.39512
 C358 C 0.40704 0.41519 0.41231
 C359 C 0.42725 0.43292 0.43232
 C360 C 0.44450 0.44814 0.44937
 H361 H 0.33953 0.38687 0.41765
 H362 H 0.39429 0.37298 0.32642
 H363 H 0.35964 0.34180 0.29117
 H364 H 0.30451 0.35630 0.38237
 C365 C 0.15374 0.60276 -0.13958
 C366 C 0.12819 0.61695 -0.13533
 C367 C 0.12233 0.64984 -0.15053
 C368 C 0.14194 0.66862 -0.16984
 C369 C 0.16805 0.65490 -0.17433
 C370 C 0.17345 0.62141 -0.15880
 C371 C 0.10806 0.59783 -0.11512
 C372 C 0.09126 0.58183 -0.09806
 C373 C 0.07161 0.56317 -0.07799
 C374 C 0.05481 0.54732 -0.06079
 H375 H 0.15843 0.57711 -0.12818
 H376 H 0.10263 0.66121 -0.14713
 H377 H 0.13664 0.69456 -0.17969
 H378 H 0.19255 0.60861 -0.16244
 C379 C 0.65090 1.10006 0.35267
 C380 C 0.62785 1.11729 0.36506
 C381 C 0.62447 1.15320 0.35788
 C382 C 0.64410 1.17188 0.33851
 C383 C 0.66741 1.15484 0.32609
 C384 C 0.67056 1.11869 0.33332
 C385 C 0.60777 1.09816 0.38537
 C386 C 0.59101 1.08215 0.40248
 C387 C 0.57140 1.06347 0.42260
 C388 C 0.55463 1.04759 0.43982
 H389 H 0.65368 1.07224 0.35799
 H390 H 0.60673 1.16682 0.36745
 H391 H 0.64127 1.19977 0.33379
 H392 H 0.68812 1.10474 0.32371
 C393 C 0.14688 0.39914 0.14873
 C394 C 0.13144 0.38076 0.12269
 C395 C 0.13614 0.34491 0.11658
 C396 C 0.15611 0.32746 0.13652
 C397 C 0.17165 0.34566 0.16290
 C398 C 0.16685 0.38173 0.16872
 C399 C 0.11067 0.39863 0.10246
 C400 C 0.09326 0.41366 0.08563
 C401 C 0.07288 0.43136 0.06599
 C402 C 0.05553 0.44660 0.04924
 H403 H 0.14346 0.42691 0.15361
 H404 H 0.12426 0.33041 0.09657
 H405 H 0.15908 0.29959 0.13178
 H406 H 0.17868 0.39655 0.18850
 C407 C 0.64666 0.89992 0.64997
 C408 C 0.63132 0.88151 0.62386
 C409 C 0.63613 0.84570 0.61769
 C410 C 0.65613 0.82831 0.63764
 C411 C 0.67159 0.84655 0.66409
 C412 C 0.66666 0.88258 0.66998
 C413 C 0.61055 0.89932 0.60357
 C414 C 0.59314 0.91428 0.58666
 C415 C 0.57276 0.93189 0.56693
 C416 C 0.55541 0.94704 0.55009
 H417 H 0.64316 0.92767 0.65490
 H418 H 0.62431 0.83117 0.59762
 H419 H 0.65919 0.80047 0.63286
 H420 H 0.67843 0.89743 0.68982
 C421 C 0.87546 0.15344 0.14287
 C422 C 0.87218 0.11747 0.13579
 C423 C 0.84920 0.10013 0.14829
 C424 C 0.82950 0.11870 0.16765
 C425 C 0.83255 0.15490 0.17477
 C426 C 0.85579 0.17206 0.16225
 C427 C 0.89227 0.09841 0.11546
 C428 C 0.90905 0.08247 0.09832
 C429 C 0.92868 0.06385 0.07815
 C430 C 0.94547 0.04804 0.06090
 H431 H 0.89314 0.16715 0.13322
 H432 H 0.84649 0.07227 0.14304
 H433 H 0.81199 0.10467 0.17733
 H434 H 0.85855 0.19999 0.16688
 C435 C 0.37507 0.65380 0.64238
 C436 C 0.37180 0.61785 0.63523
 C437 C 0.34884 0.60046 0.64775
 C438 C 0.32916 0.61897 0.66720
 C439 C 0.33220 0.65516 0.67440
 C440 C 0.35542 0.67236 0.66186
 C441 C 0.39188 0.59884 0.61482
 C442 C 0.40865 0.58292 0.59764
 C443 C 0.42827 0.56433 0.57744
 C444 C 0.44506 0.54851 0.56018
 H445 H 0.39273 0.66754 0.63272
 H446 H 0.34614 0.57261 0.64245
 H447 H 0.31168 0.60491 0.67690
 H448 H 0.35817 0.70029 0.66655
   
