data_POSCAR
  _audit_creation_date              2014-09-24
  _audit_creation_method            'ToBaCCo'
  _symmetry_space_group_name_H-M    'P1'
  _symmetry_Int_Tables_number       1
  _symmetry_cell_setting            triclinic
  loop_
  _symmetry_equiv_pos_as_xyz
 x,y,z
_cell_length_a 27.6155
_cell_length_b 27.2409
_cell_length_c 83.3295
_cell_angle_alpha 84.624100
_cell_angle_beta 92.401600
_cell_angle_gamma 118.936000
loop_
  _atom_site_label
  _atom_site_type_symbol
  _atom_site_fract_x
  _atom_site_fract_y
  _atom_site_fract_z
C1 C -0.00364 0.11781 0.51682
 H2 H 0.03858 0.12926 0.51400
 C3 C -0.01387 0.14726 0.52780
 H4 H 0.02092 0.18114 0.53334
 C5 C -0.09973 0.05907 0.51318
 H6 H -0.13308 0.02452 0.50753
 C7 C -0.11190 0.08722 0.52424
 H8 H -0.15472 0.07385 0.52696
 N9 N -0.04622 0.07425 0.50986
 C10 C -0.04009 -0.07440 0.50684
 H11 H -0.06599 -0.08863 0.49638
 C12 C -0.03503 -0.11369 0.51782
 H13 H -0.05776 -0.15786 0.51572
 C14 C 0.02064 0.00008 0.52231
 H15 H 0.04193 0.04443 0.52407
 C16 C 0.02703 -0.03766 0.53356
 H17 H 0.05322 -0.02165 0.54392
 Zn18 Zn -0.02685 0.03415 0.49629
 N19 N -0.01374 -0.01887 0.50951
 C20 C 0.07894 0.07252 0.48250
 N21 N 0.03866 0.08611 0.48498
 C22 C 0.04220 0.13537 0.47843
 C23 C 0.08692 0.17266 0.46859
 C24 C 0.12434 0.10853 0.47264
 C25 C -0.13352 -0.04698 0.48566
 C26 C -0.17246 -0.07735 0.47416
 C27 C -0.10878 -0.01477 0.45325
 C28 C -0.07110 0.01372 0.46512
 N29 N -0.08348 -0.00299 0.48098
 H30 H 0.07490 0.03284 0.48774
 H31 H 0.00927 0.14482 0.48047
 H32 H 0.08803 0.21093 0.46320
 H33 H 0.15523 0.09628 0.47046
 H34 H -0.14242 -0.06004 0.49834
 H35 H -0.21123 -0.11309 0.47831
 H36 H -0.09658 -0.00041 0.44077
 H37 H -0.03127 0.04849 0.46151
 C38 C -0.00218 -0.09561 0.53163
 C39 C -0.06858 0.13161 0.53185
 C40 C -0.16007 -0.06217 0.45758
 C41 C 0.12824 0.15896 0.46531
 C42 C 1.15509 0.06767 0.14643
 H43 H 1.16440 0.10997 0.14847
 C44 C 1.18767 0.05960 0.13577
 H45 H 1.22152 0.09610 0.12959
 C46 C 1.09978 -0.03077 0.15211
 H47 H 1.06556 -0.06590 0.15850
 C48 C 1.13119 -0.04083 0.14144
 H49 H 1.12048 -0.08382 0.13973
 N50 N 1.11163 0.02286 0.15419
 C51 C 0.96426 0.02949 0.15775
 H52 H 0.94826 0.00171 0.16859
 C53 C 0.92762 0.03660 0.14695
 H54 H 0.88371 0.01345 0.14957
 C55 C 1.04054 0.09301 0.14120
 H56 H 1.08453 0.11462 0.13892
 C57 C 1.00544 0.10144 0.13009
 H58 H 1.02312 0.12947 0.11933
 Zn59 Zn 1.06820 0.03910 0.16762
 N60 N 1.01944 0.05612 0.15446
 C61 C 1.10206 0.14185 0.18156
 N62 N 1.11632 0.10204 0.17885
 C63 C 1.16330 0.10379 0.18513
 C64 C 1.19745 0.14603 0.19494
 C65 C 1.13493 0.18477 0.19141
 C66 C 0.98483 -0.07188 0.17819
 C67 C 0.95114 -0.11494 0.18963
 C68 C 1.00631 -0.05734 0.21065
 C69 C 1.03836 -0.01530 0.19886
 N70 N 1.02690 -0.02276 0.18296
 H71 H 1.06420 0.13918 0.17653
 H72 H 1.17329 0.07122 0.18291
 H73 H 1.23388 0.14564 0.20013
 H74 H 1.12213 0.21519 0.19380
 H75 H 0.97602 -0.07679 0.16549
 H76 H 0.91688 -0.15300 0.18560
 H77 H 1.01570 -0.04961 0.22320
 H78 H 1.07158 0.02389 0.20252
 C79 C 0.94796 0.07178 0.13266
 C80 C 1.17548 0.00477 0.13296
 C81 C 0.96129 -0.10757 0.20613
 C82 C 1.18288 0.18664 0.19849
 C83 C 0.05222 0.90717 0.85342
 H84 H 0.02008 0.86496 0.85150
 C85 C 0.09749 0.91515 0.86308
 H86 H 0.09986 0.87861 0.86845
 C87 C 0.08619 1.00569 0.84932
 H88 H 0.08078 1.04067 0.84418
 C89 C 0.13208 1.01562 0.85901
 H90 H 0.16198 1.05853 0.86114
 N91 N 0.04703 0.95209 0.84695
 C92 C -0.12595 0.91299 0.84760
 H93 H -0.13587 0.91658 0.83500
 C94 C -0.16427 0.90495 0.85942
 H95 H -0.20364 0.90177 0.85567
 C96 C -0.06161 0.91569 0.86764
 H97 H -0.02130 0.92092 0.87093
 C98 C -0.09866 0.90707 0.87980
 H99 H -0.08571 0.90556 0.89221
 Zn100 Zn -0.01948 0.93794 0.83612
 N101 N -0.07527 0.91923 0.85187
 C102 C -0.09229 0.84054 0.81976
 N103 N -0.03878 0.87840 0.82276
 C104 C 0.00375 0.87708 0.81552
 C105 C -0.00657 0.83748 0.80458
 C106 C -0.10456 0.80031 0.80876
 C107 C -0.03520 1.03193 0.82548
 C108 C -0.03122 1.07560 0.81441
 C109 C 0.03114 1.06133 0.79842
 C110 C 0.02582 1.01789 0.80975
 N111 N -0.00816 1.00296 0.82273
 H112 H -0.12560 0.84205 0.82562
 H113 H 0.04598 0.90754 0.81805
 H114 H 0.02816 0.83813 0.79881
 H115 H -0.14740 0.77126 0.80630
 H116 H -0.06078 1.02067 0.83608
 H117 H -0.05446 1.09692 0.81659
 H118 H 0.05709 1.07115 0.78793
 H119 H 0.04767 0.99498 0.80793
 C120 C -0.15050 0.90287 0.87585
 C121 C 0.13761 0.96991 0.86629
 C122 C 0.00125 1.08988 0.80045
 C123 C -0.06133 0.79890 0.80086
 C124 C 0.39647 -0.01509 0.00051
 C125 C 0.42427 -0.00772 -0.01398
 C126 C 0.47544 -0.00715 -0.01340
 C127 C 0.49800 -0.01594 0.00137
 C128 C 0.46870 -0.02425 0.01571
 C129 C 0.41847 -0.02286 0.01543
 C130 C 0.55197 -0.01642 0.00181
 C131 C 0.58798 0.00273 0.01503
 C132 C 0.63835 0.00161 0.01566
 C133 C 0.65356 -0.01712 0.00260
 C134 C 0.61899 -0.03545 -0.01085
 C135 C 0.56789 -0.03594 -0.01100
 H136 H 0.35739 -0.01478 0.00017
 H137 H 0.49790 0.00075 -0.02452
 H138 H 0.48460 -0.03242 0.02715
 H139 H 0.57722 0.01920 0.02480
 H140 H 0.69269 -0.01731 0.00289
 H141 H 0.54030 -0.05214 -0.02107
 C142 C -0.07759 0.59018 0.66597
 C143 C -0.09073 0.55479 0.68031
 C144 C -0.09323 0.50208 0.68018
 C145 C -0.08040 0.48551 0.66615
 C146 C -0.06613 0.52243 0.65201
 C147 C -0.06548 0.57439 0.65173
 C148 C -0.08088 0.43032 0.66632
 C149 C -0.09474 0.40078 0.65236
 C150 C -0.09325 0.34999 0.65225
 C151 C -0.08002 0.32741 0.66653
 C152 C -0.06679 0.35552 0.68067
 C153 C -0.06648 0.40732 0.68037
 H154 H -0.07607 0.63066 0.66594
 H155 H -0.10533 0.47394 0.69108
 H156 H -0.05453 0.51126 0.64124
 H157 H -0.10688 0.41716 0.64153
 H158 H -0.07924 0.28805 0.66657
 H159 H -0.05406 0.43014 0.69106
 C160 C 0.64980 0.66821 0.33223
 C161 C 0.63658 0.63572 0.31899
 C162 C 0.58649 0.58498 0.31916
 C163 C 0.54897 0.56736 0.33214
 C164 C 0.56302 0.60126 0.34517
 C165 C 0.61368 0.65125 0.34543
 C166 C 0.49538 0.51367 0.33209
 C167 C 0.47158 0.48117 0.34663
 C168 C 0.42080 0.43115 0.34674
 C169 C 0.39466 0.41256 0.33202
 C170 C 0.41791 0.44359 0.31733
 C171 C 0.46771 0.49454 0.31752
 H172 H 0.68867 0.70701 0.33228
 H173 H 0.57720 0.55890 0.30923
 H174 H 0.53429 0.58927 0.35507
 H175 H 0.49282 0.49442 0.35791
 H176 H 0.35590 0.37364 0.33199
 H177 H 0.48459 0.51955 0.30626
 N178 N -0.04644 0.22821 0.56303
 C179 C -0.09824 0.20810 0.56887
 N180 N -0.14087 0.16379 0.56228
 N181 N -0.13178 0.14019 0.55025
 C182 C -0.07974 0.15993 0.54444
 N183 N -0.03739 0.20462 0.55104
 C184 C -0.10654 0.23097 0.58268
 C185 C -0.11054 0.25033 0.59467
 C186 C -0.11179 0.27339 0.60934
 N187 N -0.10895 0.24724 0.62371
 N188 N -0.10463 0.27091 0.63735
 C189 C -0.10283 0.32171 0.63714
 N190 N -0.10631 0.34750 0.62269
 N191 N -0.11056 0.32384 0.60903
 N192 N 0.83828 0.77219 0.22606
 C193 C 0.85160 0.77870 0.24185
 N194 N 0.90149 0.82094 0.24587
 N195 N 0.93684 0.85593 0.23447
 C196 C 0.92367 0.85014 0.21862
 N197 N 0.87378 0.80722 0.21463
 C198 C 0.81196 0.74523 0.25431
 C199 C 0.78012 0.72082 0.26538
 C200 C 0.74429 0.69635 0.27918
 N201 N 0.75950 0.72196 0.29308
 N202 N 0.72558 0.70201 0.30575
 C203 C 0.67505 0.65571 0.30502
 N204 N 0.66008 0.62986 0.29106
 N205 N 0.69407 0.64989 0.27834
 N206 N 0.22436 -0.05896 -0.10349
 C207 C 0.25794 -0.00724 -0.09846
 N208 N 0.25369 0.03752 -0.10543
 N209 N 0.21664 0.03061 -0.11701
 C210 C 0.18237 -0.02132 -0.12197
 N211 N 0.18733 -0.06586 -0.11504
 C212 C 0.29334 -0.00123 -0.08484
 C213 C 0.32039 0.00185 -0.07286
 C214 C 0.34926 0.00322 -0.05805
 N215 N 0.39711 0.00062 -0.05781
 N216 N 0.42160 -0.00176 -0.04384
 C217 C 0.39903 -0.00185 -0.02963
 N218 N 0.35125 0.00110 -0.03002
 N219 N 0.32682 0.00354 -0.04395
 N220 N 0.02699 0.84411 0.57002
 C221 C -0.00634 0.78817 0.56905
 N222 N -0.03671 0.77009 0.55555
 N223 N -0.03412 0.80691 0.54344
 C224 C -0.00121 0.86315 0.54441
 N225 N 0.02955 0.88090 0.55792
 C226 C -0.01314 0.74925 0.58274
 C227 C -0.02015 0.71765 0.59462
 C228 C -0.02992 0.68148 0.60917
 N229 N -0.03222 0.63066 0.60903
 N230 N -0.04304 0.59676 0.62256
 C231 C -0.05204 0.61242 0.63669
 N232 N -0.04952 0.66349 0.63670
 N233 N -0.03870 0.69735 0.62320
 N234 N 0.22481 0.29637 0.22705
 C235 C 0.27071 0.29714 0.23378
 N236 N 0.28891 0.26332 0.22853
 N237 N 0.26185 0.22945 0.21699
 C238 C 0.21548 0.22798 0.21029
 N239 N 0.19775 0.26248 0.21549
 C240 C 0.29682 0.32914 0.24731
 C241 C 0.31803 0.35328 0.25917
 C242 C 0.34225 0.37871 0.27382
 N243 N 0.31719 0.35295 0.28812
 N244 N 0.34085 0.37417 0.30188
 C245 C 0.39052 0.42191 0.30189
 N246 N 0.41534 0.44781 0.28748
 N247 N 0.39168 0.42654 0.27369
 N248 N 0.79729 -0.10137 -0.08456
 C249 C 0.74951 -0.10045 -0.08820
 N250 N 0.73389 -0.10019 -0.10384
 N251 N 0.76547 -0.10046 -0.11549
 C252 C 0.81396 -0.10065 -0.11192
 N253 N 0.82880 -0.10155 -0.09617
 C254 C 0.71866 -0.09543 -0.07561
 C255 C 0.69637 -0.08904 -0.06446
 C256 C 0.67415 -0.07896 -0.05064
 N257 N 0.62656 -0.07583 -0.05157
 N258 N 0.60835 -0.06307 -0.03885
 C259 C 0.63717 -0.05280 -0.02479
 N260 N 0.68462 -0.05637 -0.02397
 N261 N 0.70277 -0.06917 -0.03665
 N262 N 0.27854 0.03279 0.10162
 C263 C 0.26317 -0.01959 0.09742
 N264 N 0.21984 -0.06437 0.10514
 N265 N 0.19260 -0.05687 0.11668
 C266 C 0.20759 -0.00431 0.12086
 N267 N 0.25131 0.04027 0.11313
 C268 C 0.29002 -0.02666 0.08414
 C269 C 0.31221 -0.03042 0.07251
 C270 C 0.33794 -0.03241 0.05816
 N271 N 0.38783 -0.03081 0.05876
 N272 N 0.41302 -0.02887 0.04522
 C273 C 0.38934 -0.02825 0.03061
 N274 N 0.33919 -0.03021 0.03015
 N275 N 0.31400 -0.03219 0.04366
 N276 N 0.78645 0.89021 0.41887
 C277 C 0.73915 0.84224 0.42291
 N278 N 0.72468 0.82711 0.43867
 N279 N 0.75694 0.85899 0.45005
 C280 C 0.80510 0.90696 0.44610
 N281 N 0.81865 0.92191 0.43021
 C282 C 0.70781 0.80634 0.41056
 C283 C 0.68560 0.77799 0.39947
 C284 C 0.66423 0.74668 0.38557
 N285 N 0.61820 0.69545 0.38647
 N286 N 0.60129 0.66546 0.37364
 C287 C 0.62994 0.68555 0.35950
 N288 N 0.67574 0.73706 0.35871
 N289 N 0.69256 0.76700 0.37148
 N290 N 0.02845 0.17795 0.76189
 C291 C -0.00537 0.20057 0.76300
 N292 N -0.03550 0.18868 0.77663
 N293 N -0.03216 0.15483 0.78874
 C294 C 0.00126 0.13151 0.78764
 N295 N 0.03174 0.14411 0.77399
 C296 C -0.01280 0.23248 0.74935
 C297 C -0.02025 0.25698 0.73751
 C298 C -0.03047 0.28339 0.72303
 N299 N -0.03172 0.33251 0.72315
 N300 N -0.04281 0.35574 0.70968
 C301 C -0.05313 0.33066 0.69564
 N302 N -0.05166 0.28151 0.69565
 N303 N -0.04057 0.25831 0.70908
 N304 N 0.89510 0.10462 0.09395
 C305 C 0.83971 0.07129 0.09576
 N306 N 0.81960 0.03995 0.10992
 N307 N 0.85388 0.04156 0.12186
 C308 C 0.90955 0.07439 0.12005
 N309 N 0.92936 0.10620 0.10588
 C310 C 0.80356 0.06474 0.08229
 C311 C 0.77413 0.05729 0.07065
 C312 C 0.74038 0.04618 0.05646
 N313 N 0.69060 0.04472 0.05651
 N314 N 0.65847 0.03146 0.04348
 C315 C 0.67490 0.01903 0.02997
 N316 N 0.72497 0.02089 0.03002
 N317 N 0.75707 0.03417 0.04302
 N318 N 0.21343 0.27464 0.43506
 C319 C 0.24864 0.25770 0.43008
 N320 N 0.24583 0.20937 0.43705
 N321 N 0.20865 0.17875 0.44858
 C322 C 0.17279 0.19524 0.45351
 N323 N 0.17626 0.24403 0.44657
 C324 C 0.28466 0.28793 0.41660
 C325 C 0.31241 0.31277 0.40477
 C326 C 0.34234 0.34153 0.39016
 N327 N 0.32113 0.32086 0.37583
 N328 N 0.34663 0.34890 0.36210
 C329 C 0.39428 0.39874 0.36215
 N330 N 0.41560 0.41911 0.37659
 N331 N 0.39004 0.39106 0.39035
 N332 N -0.13420 0.69520 0.77078
 C333 C -0.09161 0.69329 0.76386
 N334 N -0.03962 0.72457 0.76938
 N335 N -0.03034 0.75705 0.78137
 C336 C -0.07266 0.75961 0.78829
 N337 N -0.12489 0.72770 0.78281
 C338 C -0.10026 0.66225 0.75006
 C339 C -0.10466 0.63890 0.73806
 C340 C -0.10652 0.61448 0.72336
 N341 N -0.10652 0.56463 0.72363
 N342 N -0.10308 0.54481 0.70993
 C343 C -0.09923 0.57424 0.69548
 N344 N -0.09977 0.62391 0.69533
 N345 N -0.10327 0.64368 0.70901
   
