data_POSCAR
  _audit_creation_date              2014-09-24
  _audit_creation_method            'ToBaCCo'
  _symmetry_space_group_name_H-M    'P1'
  _symmetry_Int_Tables_number       1
  _symmetry_cell_setting            triclinic
  loop_
  _symmetry_equiv_pos_as_xyz
 x,y,z
_cell_length_a 25.4482
_cell_length_b 18.7870
_cell_length_c 11.0977
_cell_angle_alpha 88.295800
_cell_angle_beta 90.654300
_cell_angle_gamma 90.774100
loop_
  _atom_site_label
  _atom_site_type_symbol
  _atom_site_fract_x
  _atom_site_fract_y
  _atom_site_fract_z
C1 C 0.71818 0.29398 0.56507
 C2 C 0.71818 0.28505 0.43861
 C3 C 0.76158 0.25314 0.38674
 C4 C 0.80265 0.22508 0.45827
 C5 C 0.80423 0.23802 0.58397
 C6 C 0.76213 0.27299 0.63540
 H7 H 0.76276 0.28119 0.73179
 H8 H 0.76071 0.24413 0.29071
 C9 C 0.20958 0.77294 0.60435
 C10 C 0.21202 0.80605 0.48848
 C11 C 0.25555 0.79660 0.41564
 C12 C 0.29186 0.74270 0.44051
 C13 C 0.28835 0.70524 0.55350
 C14 C 0.24973 0.72496 0.63741
 H15 H 0.24823 0.69818 0.72517
 H16 H 0.25761 0.82661 0.33108
 C17 C 0.28814 0.30871 -0.51311
 C18 C 0.28091 0.27965 -0.39496
 C19 C 0.23620 0.23815 -0.37069
 C20 C 0.19750 0.22585 -0.45940
 C21 C 0.20578 0.25095 -0.58013
 C22 C 0.24999 0.29495 -0.60300
 H23 H 0.25767 0.31314 -0.69463
 H24 H 0.23021 0.21874 -0.27876
 C25 C -0.19257 0.74421 -0.54420
 C26 C -0.21086 0.76306 -0.42955
 C27 C -0.25923 0.73465 -0.38675
 C28 C -0.29281 0.69586 -0.46364
 C29 C -0.27813 0.69304 -0.58679
 C30 C -0.22639 0.70707 -0.62048
 H31 H -0.21530 0.70075 -0.71373
 H32 H -0.27128 0.74557 -0.29596
 O33 O -0.05708 0.95374 0.25241
 O34 O 0.02323 0.90439 -0.17343
 O35 O -0.07308 0.90670 -0.11068
 O36 O 0.10430 0.96631 0.12712
 O37 O -0.05678 0.97272 -0.25760
 O38 O 0.03741 0.93605 0.24231
 O39 O 0.09613 0.93381 -0.08890
 O40 O -0.07710 0.89501 0.09672
 C41 C -0.07346 0.89762 0.20780
 C42 C 0.07065 0.89183 -0.15276
 C43 C -0.08326 0.92260 -0.21684
 C44 C 0.08401 0.92958 0.21367
 O45 O 0.05684 1.07140 0.22562
 O46 O -0.02299 1.08765 -0.17912
 O47 O -0.10658 1.03334 0.11801
 O48 O 0.07528 1.07111 -0.15247
 O49 O 0.03663 1.01700 -0.30242
 O50 O -0.04203 1.09054 0.20397
 O51 O 0.08182 1.10331 0.04894
 O52 O -0.09819 1.05226 -0.10405
 Co53 Co -0.00129 1.01183 0.21023
 Co54 Co 0.00118 0.99684 -0.16789
 Co55 Co -0.08239 0.97419 -0.00021
 Co56 Co 0.08127 1.01596 -0.01355
 O57 O -0.00207 0.99740 0.01452
 C58 C 0.08295 1.11254 0.15793
 C59 C -0.07089 1.09875 -0.16249
 C60 C -0.09004 1.08140 0.18728
 C61 C 0.07282 1.05996 -0.26448
 O62 O 0.47239 0.45703 0.26451
 O63 O 0.55007 0.39771 -0.12436
 O64 O 0.38808 0.44431 -0.05370
 O65 O 0.57214 0.41339 0.07982
 O66 O 0.45383 0.37983 -0.11012
 O67 O 0.56762 0.47441 0.23580
 O68 O 0.62428 0.45615 -0.09738
 O69 O 0.39854 0.48193 0.16590
 C70 C 0.42344 0.45048 0.25251
 C71 C 0.59754 0.40744 -0.15577
 C72 C 0.40549 0.38763 -0.09672
 C73 C 0.58105 0.41807 0.18838
 O74 O 0.54564 0.60926 0.15449
 O75 O 0.43841 0.49698 -0.23673
 O76 O 0.42104 0.61643 0.07006
 O77 O 0.57834 0.57611 -0.10653
 O78 O 0.53413 0.52258 -0.24135
 O79 O 0.45492 0.59036 0.23851
 O80 O 0.61068 0.54948 0.09121
 O81 O 0.41205 0.57863 -0.12400
 Co82 Co 0.50952 0.53105 0.20212
 Co83 Co 0.49455 0.45490 -0.16043
 Co84 Co 0.41244 0.52768 0.01586
 Co85 Co 0.57148 0.49496 -0.01398
 O86 O 0.49445 0.50617 0.01572
 C87 C 0.59356 0.60530 0.13632
 C88 C 0.41248 0.55160 -0.22306
 C89 C 0.42556 0.62917 0.17648
 C90 C 0.56661 0.57041 -0.21426
 N91 N 0.42096 0.36511 0.42687
 N92 N 0.38573 0.32880 0.49070
 C93 C 0.33735 0.34605 0.44956
 C94 C 0.34238 0.39520 0.35386
 C95 C 0.39596 0.40534 0.34234
 H96 H 0.31160 0.41859 0.29810
 H97 H 0.46155 0.36035 0.43884
 H98 H 0.39543 0.28992 0.55595
 N99 N -0.08183 0.76949 0.26564
 N100 N -0.11187 0.72895 0.33641
 C101 C -0.14258 0.77068 0.40218
 C102 C -0.13073 0.84149 0.37242
 C103 C -0.09239 0.83807 0.28492
 H104 H -0.15200 0.88819 0.39737
 H105 H -0.05675 0.75029 0.20057
 H106 H -0.11437 0.67353 0.33228
 N107 N 0.60630 0.71697 0.23947
 N108 N 0.64161 0.73876 0.32747
 C109 C 0.68411 0.69735 0.32150
 C110 C 0.67806 0.64993 0.22855
 C111 C 0.62737 0.66096 0.18519
 H112 H 0.70211 0.60392 0.21395
 H113 H 0.56701 0.73235 0.23530
 H114 H 0.63343 0.77543 0.39347
 N115 N 0.13152 1.22872 0.14507
 N116 N 0.16697 1.26640 0.21707
 C117 C 0.17448 1.22808 0.32069
 C118 C 0.14598 1.16408 0.31287
 C119 C 0.11821 1.16806 0.20537
 H120 H 0.14585 1.11908 0.37605
 H121 H 0.11768 1.24594 0.06034
 H122 H 0.18132 1.31749 0.19570
 N123 N 0.59158 0.31871 -0.31485
 N124 N 0.62486 0.29101 -0.39943
 C125 C 0.67356 0.31619 -0.37596
 C126 C 0.67260 0.36031 -0.27772
 C127 C 0.62050 0.36174 -0.24455
 H128 H 0.70523 0.38926 -0.23816
 H129 H 0.55162 0.30643 -0.30835
 H130 H 0.61382 0.25257 -0.46126
 N131 N 0.10670 0.76854 -0.16964
 N132 N 0.14529 0.73880 -0.22912
 C133 C 0.16477 0.78621 -0.31162
 C134 C 0.13675 0.84901 -0.30298
 C135 C 0.09980 0.83546 -0.21334
 H136 H 0.14414 0.89922 -0.35055
 H137 H 0.08711 0.74434 -0.09676
 H138 H 0.15835 0.68700 -0.21194
 N139 N 0.36896 0.55112 -0.42522
 N140 N 0.33233 0.59373 -0.48666
 C141 C 0.32118 0.64843 -0.41539
 C142 C 0.34794 0.64055 -0.30710
 C143 C 0.37834 0.58071 -0.31813
 H144 H 0.34700 0.67552 -0.23133
 H145 H 0.38498 0.50450 -0.45710
 H146 H 0.31612 0.58308 -0.57124
 N147 N -0.06687 1.20238 -0.30436
 N148 N -0.10182 1.23888 -0.38027
 C149 C -0.15093 1.22203 -0.34481
 C150 C -0.14838 1.17389 -0.24597
 C151 C -0.09486 1.16091 -0.22674
 H152 H -0.18093 1.14410 -0.20662
 H153 H -0.02630 1.20182 -0.31634
 H154 H -0.09105 1.26969 -0.45615
 N155 N 0.59412 0.58067 -0.42321
 N156 N 0.63475 0.61088 -0.49003
 C157 C 0.66088 0.65874 -0.42221
 C158 C 0.63770 0.65705 -0.30715
 C159 C 0.59584 0.60746 -0.31272
 H160 H 0.65150 0.68397 -0.22777
 H161 H 0.57261 0.53582 -0.44890
 H162 H 0.64673 0.58920 -0.57023
 N163 N 0.06885 1.15129 -0.42672
 N164 N 0.10292 1.20356 -0.47258
 C165 C 0.15089 1.19137 -0.42347
 C166 C 0.14751 1.13589 -0.33891
 C167 C 0.09644 1.11143 -0.34678
 H168 H 0.17857 1.11362 -0.28262
 H169 H 0.02896 1.14653 -0.44834
 H170 H 0.09207 1.24437 -0.53345
 N171 N 0.37391 0.26594 -0.14862
 N172 N 0.34223 0.23806 -0.23052
 C173 C 0.31798 0.29114 -0.29279
 C174 C 0.33373 0.35565 -0.24580
 C175 C 0.36904 0.33720 -0.15387
 H176 H 0.32359 0.40856 -0.27881
 H177 H 0.39968 0.23669 -0.09317
 H178 H 0.33888 0.18368 -0.24654
 N179 N -0.16704 0.93214 -0.32916
 N180 N -0.20204 0.88960 -0.37932
 C181 C -0.18567 0.82199 -0.36566
 C182 C -0.13817 0.82104 -0.30311
 C183 C -0.12796 0.89231 -0.28214
 H184 H -0.11371 0.77576 -0.28081
 H185 H -0.17006 0.98744 -0.32683
 H186 H -0.23554 0.90694 -0.42623
 N187 N 0.35125 0.71010 0.15484
 N188 N 0.31489 0.73623 0.22345
 C189 C 0.32880 0.72645 0.34051
 C190 C 0.37803 0.69370 0.34484
 C191 C 0.38944 0.68159 0.22496
 H192 H 0.40063 0.67614 0.42294
 H193 H 0.34728 0.70630 0.06142
 H194 H 0.27921 0.75514 0.18898
 N195 N -0.12564 1.07079 0.38935
 N196 N -0.15140 1.11342 0.46889
 C197 C -0.16527 1.17362 0.40832
 C198 C -0.14896 1.17038 0.28878
 C199 C -0.12408 1.10549 0.28182
 H200 H -0.15277 1.21091 0.21797
 H201 H -0.10854 1.02208 0.41297
 H202 H -0.16256 1.09653 0.55526
 N203 N 0.61948 0.29780 0.20441
 N204 N 0.65578 0.26353 0.26800
 C205 C 0.67333 0.30518 0.35704
 C206 C 0.64613 0.36936 0.35014
 C207 C 0.61251 0.36234 0.25095
 H208 H 0.65262 0.41597 0.40363
 H209 H 0.60111 0.27800 0.12744
 H210 H 0.66901 0.21276 0.24872
 N211 N 0.08738 0.82352 0.34568
 N212 N 0.11905 0.79527 0.42775
 C213 C 0.16469 0.83213 0.42603
 C214 C 0.16240 0.88562 0.33673
 C215 C 0.11252 0.87812 0.28855
 H216 H 0.19218 0.92502 0.31265
 H217 H 0.04868 0.80632 0.33087
 H218 H 0.10990 0.74995 0.48059
   
