data_POSCAR
  _audit_creation_date              2014-09-24
  _audit_creation_method            'ToBaCCo'
  _symmetry_space_group_name_H-M    'P1'
  _symmetry_Int_Tables_number       1
  _symmetry_cell_setting            triclinic
  loop_
  _symmetry_equiv_pos_as_xyz
 x,y,z
_cell_length_a 37.5033
_cell_length_b 36.3005
_cell_length_c 29.0290
_cell_angle_alpha 89.802800
_cell_angle_beta 89.976500
_cell_angle_gamma 89.989100
loop_
  _atom_site_label
  _atom_site_type_symbol
  _atom_site_fract_x
  _atom_site_fract_y
  _atom_site_fract_z
C1 C 1.25218 0.25062 0.25304
 C2 C 0.74645 -0.25015 0.24703
 C3 C 0.74683 0.24981 -0.25287
 C4 C 1.25215 -0.24935 -0.24719
 C5 C 0.25335 0.25005 0.74703
 C6 C 0.74751 0.75081 0.75311
 C7 C 0.74793 0.25082 0.25295
 C8 C 0.25331 0.75002 0.24715
 O9 O 1.05029 0.06611 0.08493
 O10 O 1.09035 0.03287 0.04179
 C11 C 1.08240 0.05716 0.07294
 O12 O 0.95107 -0.06765 0.07874
 O13 O 0.91109 -0.03161 0.03892
 C14 C 0.91898 -0.05817 0.06721
 O15 O 1.04986 -0.06468 0.08395
 O16 O 1.09013 -0.03102 0.04140
 C17 C 1.08207 -0.05582 0.07211
 O18 O 0.95157 0.07021 0.07974
 O19 O 0.91133 0.03512 0.03938
 C20 C 0.91940 0.06121 0.06809
 Zr21 Zr 1.00082 0.04704 0.05996
 O22 O 0.99950 0.03936 0.13213
 O23 O 1.00188 0.10490 0.06807
 Zr24 Zr 1.00052 -0.04468 0.05932
 O25 O 0.99934 -0.03799 0.13158
 O26 O 1.00099 -0.10266 0.06663
 O27 O 1.03311 0.00099 0.06854
 O28 O 0.96875 0.00125 0.06783
 O29 O 0.95167 0.07034 -0.07800
 O30 O 0.91141 0.03530 -0.03730
 C31 C 0.91950 0.06135 -0.06627
 O32 O 1.05027 -0.06292 -0.08251
 O33 O 1.09035 -0.03003 -0.03911
 C34 C 1.08238 -0.05414 -0.07040
 O35 O 0.95128 -0.06576 -0.07876
 O36 O 0.91122 -0.03100 -0.03764
 C37 C 0.91917 -0.05680 -0.06682
 O38 O 1.05065 0.06705 -0.08167
 O39 O 1.09054 0.03324 -0.03877
 C40 C 1.08272 0.05786 -0.06976
 Zr41 Zr 1.00104 0.04819 -0.05658
 O42 O 0.99726 0.04676 -0.12936
 O43 O 1.00448 0.10640 -0.05748
 Zr44 Zr 1.00074 -0.04408 -0.05725
 O45 O 0.99693 -0.04142 -0.12999
 O46 O 1.00383 -0.10228 -0.05921
 Zr47 Zr 1.05459 0.00140 0.00130
 Zr48 Zr 0.94701 0.00183 0.00107
 O49 O 0.96943 0.00222 -0.06537
 O50 O 1.03315 0.00200 -0.06591
 O51 O 0.96935 0.05516 0.00163
 O52 O 1.03154 -0.05145 0.00102
 O53 O 1.03190 0.05444 0.00178
 O54 O 0.96902 -0.05167 0.00087
 H55 H 0.95210 0.00114 0.09436
 H56 H 1.04715 -0.07345 0.00072
 H57 H 0.95316 0.00244 -0.09226
 H58 H 1.04766 0.07632 0.00182
 H59 H 1.00738 -0.11297 0.03629
 H60 H 0.98607 -0.11197 -0.03703
 H61 H 1.01872 -0.02923 -0.14171
 H62 H 1.01882 0.03428 -0.14123
 H63 H 0.98636 0.11587 -0.03574
 H64 H 1.00757 0.11559 0.03762
 H65 H 0.99845 0.06436 0.14563
 H66 H 0.99800 -0.06317 0.14474
 O67 O 1.05020 0.56731 0.58327
 O68 O 1.09025 0.53442 0.53969
 C69 C 1.08231 0.55856 0.57100
 O70 O 0.95183 0.43284 0.57793
 O71 O 0.91141 0.46859 0.53848
 C72 C 0.91961 0.44205 0.56670
 O73 O 1.05060 0.43680 0.58233
 O74 O 1.09045 0.47063 0.53930
 C75 C 1.08267 0.44590 0.57019
 O76 O 0.95143 0.57086 0.57889
 O77 O 0.91121 0.53545 0.53894
 C78 C 0.91926 0.56162 0.56755
 Zr79 Zr 1.00071 0.54800 0.55868
 O80 O 0.99979 0.54034 0.63086
 O81 O 1.00148 0.60587 0.56674
 Zr82 Zr 1.00100 0.45627 0.55807
 O83 O 1.00008 0.46295 0.63033
 O84 O 1.00203 0.39830 0.56539
 O85 O 1.03334 0.50218 0.56697
 O86 O 0.96898 0.50197 0.56687
 O87 O 0.95072 0.57083 0.42120
 O88 O 0.91089 0.53551 0.46226
 C89 C 0.91869 0.56158 0.43322
 O90 O 1.05014 0.43822 0.41589
 O91 O 1.09024 0.47150 0.45880
 C92 C 1.08227 0.44721 0.42771
 O93 O 0.95120 0.43486 0.42043
 O94 O 0.91113 0.46933 0.46193
 C95 C 0.91910 0.44361 0.43266
 O96 O 1.04971 0.56850 0.41667
 O97 O 1.09002 0.53487 0.45911
 C98 C 1.08192 0.55954 0.42828
 Zr99 Zr 1.00036 0.54911 0.44214
 O100 O 0.99625 0.54755 0.36939
 O101 O 1.00334 0.60735 0.44111
 Zr102 Zr 1.00065 0.45686 0.44150
 O103 O 0.99647 0.45957 0.36878
 O104 O 1.00407 0.39868 0.43942
 Zr105 Zr 1.05449 0.50273 0.49954
 Zr106 Zr 0.94691 0.50237 0.50032
 O107 O 0.96899 0.50292 0.43367
 O108 O 1.03273 0.50315 0.43253
 O109 O 0.96890 0.55587 0.50062
 O110 O 1.03178 0.44972 0.49951
 O111 O 1.03146 0.55560 0.50024
 O112 O 0.96927 0.44904 0.49989
 H113 H 0.95245 0.50173 0.59352
 H114 H 1.04752 0.42782 0.49913
 H115 H 0.95259 0.50301 0.40691
 H116 H 1.04707 0.57760 0.50017
 H117 H 1.00793 0.38804 0.53487
 H118 H 0.98646 0.38885 0.46170
 H119 H 1.01821 0.47177 0.35690
 H120 H 1.01792 0.53536 0.35737
 H121 H 0.98528 0.61669 0.46303
 H122 H 1.00682 0.61657 0.53620
 H123 H 0.99866 0.56534 0.64435
 H124 H 0.99905 0.43777 0.64351
 O125 O 0.43534 -0.05267 0.41668
 O126 O 0.46802 -0.09439 0.45889
 C127 C 0.44387 -0.08593 0.42863
 O128 O 0.56658 0.04851 0.42124
 O129 O 0.53222 0.08996 0.46121
 C130 C 0.55795 0.08165 0.43326
 O131 O 0.56180 -0.05346 0.41513
 O132 O 0.52932 -0.09478 0.45825
 C133 C 0.55308 -0.08658 0.42741
 O134 O 0.43200 0.04935 0.42296
 O135 O 0.46744 0.09036 0.46199
 C136 C 0.44122 0.08238 0.43471
 Zr137 Zr 0.45475 -0.00179 0.44097
 O138 O 0.46130 0.00008 0.36871
 O139 O 0.39869 -0.00255 0.43323
 Zr140 Zr 0.54345 -0.00231 0.43986
 O141 O 0.53592 -0.00032 0.36777
 O142 O 0.59937 -0.00390 0.43071
 O143 O 0.49885 -0.03552 0.43142
 O144 O 0.49923 0.03103 0.43224
 O145 O 0.43390 0.04858 0.57817
 O146 O 0.46809 0.08995 0.53752
 C147 C 0.44263 0.08170 0.56596
 O148 O 0.56289 -0.05441 0.58082
 O149 O 0.52979 -0.09527 0.53826
 C150 C 0.55394 -0.08741 0.56866
 O151 O 0.56670 0.04781 0.57679
 O152 O 0.53245 0.08958 0.53690
 C153 C 0.55811 0.08103 0.56489
 O154 O 0.43687 -0.05379 0.58228
 O155 O 0.46898 -0.09496 0.53886
 C156 C 0.44535 -0.08687 0.56982
 Zr157 Zr 0.45538 -0.00248 0.55767
 O158 O 0.45875 0.00134 0.63034
 O159 O 0.39910 -0.00566 0.56142
 Zr160 Zr 0.54453 -0.00299 0.55654
 O161 O 0.54233 0.00081 0.62929
 O162 O 0.60082 -0.00679 0.55862
 Zr163 Zr 0.49923 -0.05781 0.49868
 Zr164 Zr 0.49985 0.05307 0.49912
 O165 O 0.50018 0.02986 0.56561
 O166 O 0.49984 -0.03613 0.56602
 O167 O 0.44806 0.03036 0.49959
 O168 O 0.55061 -0.03453 0.49799
 O169 O 0.44810 -0.03393 0.49928
 O170 O 0.55138 0.02977 0.49829
 H171 H 0.49915 0.04853 0.40594
 H172 H 0.57186 -0.05072 0.49778
 H173 H 0.50043 0.04681 0.59231
 H174 H 0.42668 -0.04988 0.49960
 H175 H 0.60991 -0.00888 0.46126
 H176 H 0.61029 0.01048 0.53518
 H177 H 0.53142 -0.02215 0.64115
 H178 H 0.46928 -0.02189 0.64197
 H179 H 0.38944 0.01134 0.53781
 H180 H 0.38853 -0.00796 0.46390
 H181 H 0.43695 0.00159 0.35567
 H182 H 0.56011 0.00078 0.35413
 O183 O 0.43672 0.44724 -0.08302
 O184 O 0.46944 0.40592 -0.04024
 C185 C 0.44551 0.41411 -0.07087
 O186 O 0.56667 0.54994 -0.07638
 O187 O 0.53150 0.59102 -0.03700
 C188 C 0.55758 0.58299 -0.06457
 O189 O 0.56316 0.44797 -0.08257
 O190 O 0.53071 0.40627 -0.04001
 C191 C 0.55467 0.41473 -0.07052
 O192 O 0.43214 0.54926 -0.07688
 O193 O 0.46673 0.59066 -0.03725
 C194 C 0.44089 0.58238 -0.06497
 Zr195 Zr 0.45525 0.49838 -0.05846
 O196 O 0.46247 0.50033 -0.13061
 O197 O 0.39929 0.49692 -0.06716
 Zr198 Zr 0.54395 0.49887 -0.05809
 O199 O 0.53710 0.50075 -0.13030
 O200 O 0.59998 0.49800 -0.06627
 O201 O 0.49981 0.46516 -0.06728
 O202 O 0.49945 0.53170 -0.06646
 O203 O 0.43245 0.54851 0.07853
 O204 O 0.46654 0.59027 0.03839
 C205 C 0.44094 0.58174 0.06652
 O206 O 0.56254 0.44695 0.08312
 O207 O 0.53026 0.40575 0.04001
 C208 C 0.55405 0.41386 0.07077
 O209 O 0.56531 0.54924 0.07899
 O210 O 0.53096 0.59062 0.03861
 C211 C 0.55650 0.58235 0.06687
 O212 O 0.43646 0.44620 0.08254
 O213 O 0.46946 0.40539 0.03971
 C214 C 0.44541 0.41322 0.07025
 Zr215 Zr 0.45468 0.49771 0.05824
 O216 O 0.45729 0.50153 0.13097
 O217 O 0.39841 0.49389 0.06096
 Zr218 Zr 0.54383 0.49819 0.05861
 O219 O 0.54077 0.50199 0.13131
 O220 O 0.60013 0.49503 0.06186
 Zr221 Zr 0.49974 0.44287 -0.00002
 Zr222 Zr 0.49913 0.55375 0.00042
 O223 O 0.49906 0.53055 0.06692
 O224 O 0.49941 0.46455 0.06733
 O225 O 0.44759 0.53046 0.00003
 O226 O 0.55087 0.46674 0.00016
 O227 O 0.44835 0.46617 -0.00026
 O228 O 0.55091 0.53103 0.00047
 H229 H 0.49943 0.54919 -0.09276
 H230 H 0.57229 0.45078 0.00029
 H231 H 0.49888 0.54752 0.09361
 H232 H 0.42710 0.44998 -0.00031
 H233 H 0.61026 0.49290 -0.03560
 H234 H 0.60968 0.51216 0.03831
 H235 H 0.53019 0.47880 0.14300
 H236 H 0.46801 0.47844 0.14275
 H237 H 0.38882 0.51089 0.03729
 H238 H 0.38887 0.49155 -0.03662
 H239 H 0.43822 0.50149 -0.14405
 H240 H 0.56140 0.50216 -0.14355
 C241 C 1.16688 0.11977 0.18853
 C242 C 1.20436 0.13358 0.17389
 C243 C 1.19216 0.17340 0.18259
 C244 C 1.15507 0.16000 0.19758
 C245 C 1.15442 0.12364 0.13832
 C246 C 1.14232 0.16350 0.14707
 C247 C 1.19151 0.13702 0.12325
 C248 C 1.17970 0.17728 0.13239
 C249 C 1.21282 0.20130 0.20746
 C250 C 1.23012 0.22395 0.22803
 C251 C 1.13159 0.09723 0.11406
 C252 C 1.11051 0.07749 0.09477
 H253 H 1.16148 0.09581 0.21134
 H254 H 1.23014 0.12158 0.18526
 H255 H 1.14024 0.16976 0.22830
 H256 H 1.11655 0.17559 0.13577
 H257 H 1.20630 0.12725 0.09250
 H258 H 1.18509 0.20125 0.10959
 C259 C 1.16467 0.62163 0.68778
 C260 C 1.20316 0.63359 0.67516
 C261 C 1.19212 0.67405 0.68152
 C262 C 1.15403 0.66248 0.69450
 C263 C 1.15436 0.62469 0.63669
 C264 C 1.14341 0.66519 0.64311
 C265 C 1.19245 0.63623 0.62362
 C266 C 1.18181 0.67713 0.63044
 C267 C 1.21279 0.70171 0.70672
 C268 C 1.23009 0.72419 0.72754
 C269 C 1.13150 0.59848 0.61219
 C270 C 1.11041 0.57886 0.59280
 H271 H 1.15749 0.59847 0.71107
 H272 H 1.22799 0.62092 0.68870
 H273 H 1.13840 0.67358 0.72382
 H274 H 1.11859 0.67795 0.62963
 H275 H 1.20804 0.62511 0.59428
 H276 H 1.18898 0.70029 0.60716
 C277 C 0.64346 0.19042 0.60405
 C278 C 0.63963 0.20744 0.65278
 C279 C 0.67672 0.19238 0.66522
 C280 C 0.68105 0.17577 0.61698
 C281 C 0.62706 0.15453 0.62255
 C282 C 0.66418 0.13955 0.63502
 C283 C 0.62282 0.17117 0.67078
 C284 C 0.66025 0.15648 0.68354
 C285 C 0.70360 0.21268 0.69126
 C286 C 0.72427 0.22927 0.71518
 C287 C 0.60024 0.13136 0.60041
 C288 C 0.57975 0.10977 0.58357
 H289 H 0.63612 0.20413 0.57116
 H290 H 0.62992 0.23566 0.66041
 H291 H 0.70532 0.17785 0.59524
 H292 H 0.67396 0.11134 0.62749
 H293 H 0.59858 0.16911 0.69261
 H294 H 0.66752 0.14268 0.71640
 C295 C 0.64059 0.69277 0.10607
 C296 C 0.63816 0.70793 0.15590
 C297 C 0.67592 0.69324 0.16530
 C298 C 0.67887 0.67851 0.11596
 C299 C 0.62554 0.65593 0.12346
 C300 C 0.66333 0.64132 0.13289
 C301 C 0.62269 0.67071 0.17279
 C302 C 0.66079 0.65640 0.18250
 C303 C 0.70311 0.71319 0.19104
 C304 C 0.72393 0.72953 0.21494
 C305 C 0.59845 0.63291 0.10183
 C306 C 0.57792 0.61126 0.08532
 H307 H 0.63182 0.70746 0.07445
 H308 H 0.62824 0.73564 0.16570
 H309 H 0.70232 0.68189 0.09300
 H310 H 0.67333 0.61363 0.12319
 H311 H 0.59928 0.66734 0.19584
 H312 H 0.66948 0.64160 0.21410
 C313 C 0.81852 -0.15096 0.10771
 C314 C 0.83342 -0.18359 0.13639
 C315 C 0.80727 -0.17406 0.17530
 C316 C 0.79197 -0.14183 0.14704
 C317 C 0.84607 -0.12542 0.13026
 C318 C 0.81993 -0.11585 0.16918
 C319 C 0.86127 -0.15769 0.15855
 C320 C 0.83482 -0.14851 0.19779
 C321 C 0.78611 -0.20133 0.20072
 C322 C 0.76856 -0.22362 0.22172
 C323 C 0.86942 -0.09935 0.10609
 C324 C 0.89077 -0.07944 0.08747
 H325 H 0.81201 -0.15162 0.07042
 H326 H 0.83882 -0.21173 0.12323
 H327 H 0.76318 -0.13565 0.14262
 H328 H 0.81455 -0.08772 0.18234
 H329 H 0.89003 -0.16396 0.16306
 H330 H 0.84138 -0.14784 0.23507
 C331 C 0.81946 0.34875 0.60747
 C332 C 0.83424 0.31611 0.63626
 C333 C 0.80799 0.32569 0.67506
 C334 C 0.79281 0.35793 0.64668
 C335 C 0.84699 0.37429 0.63008
 C336 C 0.82075 0.38389 0.66889
 C337 C 0.86207 0.34201 0.65849
 C338 C 0.83553 0.35123 0.69761
 C339 C 0.78666 0.29846 0.70050
 C340 C 0.76901 0.27625 0.72157
 C341 C 0.87036 0.40044 0.60588
 C342 C 0.89160 0.42049 0.58717
 H343 H 0.81302 0.34804 0.57016
 H344 H 0.83965 0.28797 0.62313
 H345 H 0.76405 0.36417 0.64210
 H346 H 0.81536 0.41204 0.68201
 H347 H 0.89082 0.33569 0.66314
 H348 H 0.84200 0.35195 0.73491
 C349 C 0.33827 -0.16000 0.61471
 C350 C 0.33713 -0.20235 0.62161
 C351 C 0.32623 -0.19620 0.67199
 C352 C 0.32696 -0.15426 0.66544
 C353 C 0.37752 -0.16007 0.62997
 C354 C 0.36651 -0.15406 0.68035
 C355 C 0.37691 -0.20204 0.63643
 C356 C 0.36547 -0.19631 0.68725
 C357 C 0.29818 -0.21522 0.69751
 C358 C 0.27632 -0.23053 0.72109
 C359 C 0.40473 -0.13744 0.60770
 C360 C 0.42491 -0.11587 0.59011
 H361 H 0.32746 -0.14482 0.58453
 H362 H 0.32457 -0.22237 0.59778
 H363 H 0.30610 -0.13485 0.67753
 H364 H 0.37897 -0.13407 0.70430
 H365 H 0.39782 -0.22137 0.62432
 H366 H 0.37624 -0.21149 0.71746
 C367 C 0.34041 0.33281 0.10939
 C368 C 0.34270 0.29210 0.12558
 C369 C 0.32628 0.30351 0.17187
 C370 C 0.32358 0.34378 0.15607
 C371 C 0.37761 0.33965 0.12987
 C372 C 0.36109 0.35090 0.17618
 C373 C 0.38043 0.29936 0.14564
 C374 C 0.36349 0.31035 0.19232
 C375 C 0.29821 0.28453 0.19746
 C376 C 0.27634 0.26930 0.22113
 C377 C 0.40485 0.36234 0.10770
 C378 C 0.42504 0.38401 0.09027
 H379 H 0.33133 0.34225 0.07493
 H380 H 0.33465 0.26774 0.10506
 H381 H 0.29993 0.36180 0.16057
 H382 H 0.36903 0.37523 0.19685
 H383 H 0.40413 0.28141 0.14113
 H384 H 0.37257 0.30092 0.22680
 C385 C 0.85239 0.13758 -0.18269
 C386 C 0.81164 0.13453 -0.19042
 C387 C 0.80787 0.17551 -0.17812
 C388 C 0.84828 0.17888 -0.17076
 C389 C 0.84682 0.12780 -0.13161
 C390 C 0.84301 0.16879 -0.11934
 C391 C 0.80639 0.12435 -0.13892
 C392 C 0.80223 0.16578 -0.12704
 C393 C 0.78659 0.20222 -0.20446
 C394 C 0.76897 0.22398 -0.22631
 C395 C 0.87017 0.10213 -0.10660
 C396 C 0.89143 0.08245 -0.08730
 H397 H 0.87321 0.12569 -0.20540
 H398 H 0.79856 0.12073 -0.22000
 H399 H 0.86534 0.20153 -0.18408
 H400 H 0.85608 0.18263 -0.08978
 H401 H 0.78938 0.10168 -0.12557
 H402 H 0.78139 0.17773 -0.10440
 C403 C 0.85215 0.63817 0.31757
 C404 C 0.81161 0.63464 0.30850
 C405 C 0.80706 0.67535 0.32161
 C406 C 0.84726 0.67921 0.33031
 C407 C 0.84574 0.62758 0.36823
 C408 C 0.84116 0.66831 0.38130
 C409 C 0.80553 0.62363 0.35958
 C410 C 0.80058 0.66482 0.37226
 C411 C 0.78598 0.70211 0.29524
 C412 C 0.76849 0.72394 0.27342
 C413 C 0.86905 0.60196 0.39322
 C414 C 0.89041 0.58242 0.41242
 H415 H 0.87357 0.62689 0.29528
 H416 H 0.79928 0.62111 0.27819
 H417 H 0.86423 0.70230 0.31802
 H418 H 0.85348 0.68187 0.41159
 H419 H 0.78861 0.60052 0.37190
 H420 H 0.77915 0.67615 0.39448
 C421 C 0.33735 0.16996 0.40213
 C422 C 0.34272 0.20840 0.37953
 C423 C 0.32214 0.19487 0.33708
 C424 C 0.31634 0.15691 0.35922
 C425 C 0.37207 0.15689 0.37929
 C426 C 0.35141 0.14354 0.33682
 C427 C 0.37794 0.19485 0.35715
 C428 C 0.35689 0.18175 0.31437
 C429 C 0.29519 0.21496 0.31083
 C430 C 0.27456 0.23106 0.28625
 C431 C 0.39902 0.13346 0.40081
 C432 C 0.41957 0.11153 0.41696
 H433 H 0.32976 0.16490 0.43857
 H434 H 0.33866 0.23531 0.39680
 H435 H 0.29074 0.14157 0.35980
 H436 H 0.35534 0.11667 0.31938
 H437 H 0.40356 0.21015 0.35654
 H438 H 0.36456 0.18677 0.27794
 C439 C 0.36369 0.65409 -0.17282
 C440 C 0.32343 0.65228 -0.16170
 C441 C 0.32190 0.69449 -0.16341
 C442 C 0.36187 0.69660 -0.17486
 C443 C 0.37171 0.65648 -0.12106
 C444 C 0.37030 0.69872 -0.12266
 C445 C 0.33175 0.65438 -0.10957
 C446 C 0.32980 0.69704 -0.11162
 C447 C 0.29504 0.71466 -0.18964
 C448 C 0.27447 0.73088 -0.21416
 C449 C 0.39860 0.63312 -0.09938
 C450 C 0.41915 0.61131 -0.08304
 H451 H 0.37798 0.63628 -0.19778
 H452 H 0.30384 0.63343 -0.17794
 H453 H 0.37386 0.71423 -0.20209
 H454 H 0.38994 0.71749 -0.10641
 H455 H 0.31974 0.63674 -0.08237
 H456 H 0.31542 0.71489 -0.08682
 C457 C 1.15017 -0.13033 -0.18663
 C458 C 1.19128 -0.12976 -0.19190
 C459 C 1.19225 -0.17084 -0.17894
 C460 C 1.15150 -0.17177 -0.17403
 C461 C 1.15444 -0.12075 -0.13539
 C462 C 1.15547 -0.16185 -0.12249
 C463 C 1.19521 -0.11974 -0.14023
 C464 C 1.19657 -0.16130 -0.12769
 C465 C 1.21291 -0.19903 -0.20324
 C466 C 1.23017 -0.22207 -0.22317
 C467 C 1.13157 -0.09423 -0.11142
 C468 C 1.11047 -0.07446 -0.09224
 H469 H 1.13091 -0.11724 -0.21068
 H470 H 1.20621 -0.11690 -0.22081
 H471 H 1.13372 -0.19342 -0.18813
 H472 H 1.14057 -0.17478 -0.09361
 H473 H 1.21294 -0.09807 -0.12610
 H474 H 1.21583 -0.17443 -0.10369
 C475 C 1.14928 0.36925 0.31253
 C476 C 1.19026 0.37041 0.30591
 C477 C 1.19218 0.32967 0.32039
 C478 C 1.15155 0.32816 0.32665
 C479 C 1.15434 0.38018 0.36323
 C480 C 1.15632 0.33942 0.37764
 C481 C 1.19499 0.38177 0.35703
 C482 C 1.19730 0.34056 0.37109
 C483 C 1.21288 0.30126 0.29647
 C484 C 1.23017 0.27807 0.27681
 C485 C 1.13146 0.40692 0.38688
 C486 C 1.11037 0.42683 0.40590
 H487 H 1.12936 0.38139 0.28862
 H488 H 1.20441 0.38281 0.27606
 H489 H 1.13388 0.30587 0.31397
 H490 H 1.14219 0.32695 0.40747
 H491 H 1.21262 0.40408 0.36975
 H492 H 1.21722 0.32838 0.39496
 C493 C 0.65809 -0.16657 0.38848
 C494 C 0.65579 -0.20719 0.37232
 C495 C 0.67250 -0.19561 0.32619
 C496 C 0.67522 -0.15543 0.34195
 C497 C 0.62103 -0.15953 0.36762
 C498 C 0.63784 -0.14811 0.32147
 C499 C 0.61821 -0.19974 0.35189
 C500 C 0.63544 -0.18858 0.30536
 C501 C 0.70060 -0.21479 0.30110
 C502 C 0.72243 -0.23050 0.27801
 C503 C 0.59372 -0.13700 0.38966
 C504 C 0.57348 -0.11552 0.40714
 H505 H 0.66699 -0.15732 0.42302
 H506 H 0.66367 -0.23167 0.39295
 H507 H 0.69895 -0.13746 0.33766
 H508 H 0.63006 -0.12365 0.30071
 H509 H 0.59444 -0.21764 0.35619
 H510 H 0.62655 -0.19782 0.27080
 C511 C 0.65919 0.33272 -0.10981
 C512 C 0.65570 0.29281 -0.12818
 C513 C 0.67347 0.30525 -0.17332
 C514 C 0.67737 0.34474 -0.15535
 C515 C 0.62270 0.34187 -0.13105
 C516 C 0.64055 0.35417 -0.17622
 C517 C 0.61871 0.30237 -0.14901
 C518 C 0.63697 0.31440 -0.19453
 C519 C 0.70123 0.28568 -0.19875
 C520 C 0.72287 0.26970 -0.22194
 C521 C 0.59562 0.36456 -0.10859
 C522 C 0.57537 0.38597 -0.09087
 H523 H 0.66794 0.34045 -0.07461
 H524 H 0.66241 0.26737 -0.10868
 H525 H 0.70176 0.36192 -0.15817
 H526 H 0.63395 0.37958 -0.19583
 H527 H 0.59429 0.28524 -0.14617
 H528 H 0.62822 0.30668 -0.22973
 C529 C 1.18708 0.11486 -0.16679
 C530 C 1.17241 0.14179 -0.20377
 C531 C 1.19309 0.17340 -0.18098
 C532 C 1.20816 0.14692 -0.14438
 C533 C 1.15509 0.12406 -0.13583
 C534 C 1.17577 0.15567 -0.11304
 C535 C 1.14011 0.15059 -0.17246
 C536 C 1.16109 0.18253 -0.15002
 C537 C 1.21390 0.20108 -0.20638
 C538 C 1.23126 0.22356 -0.22739
 C539 C 1.13210 0.09781 -0.11119
 C540 C 1.11094 0.07815 -0.09169
 H541 H 1.19760 0.08678 -0.17338
 H542 H 1.17114 0.13641 -0.24135
 H543 H 1.23641 0.14575 -0.13307
 H544 H 1.17702 0.16106 -0.07546
 H545 H 1.11188 0.15183 -0.18385
 H546 H 1.15054 0.21059 -0.14341
 C547 C 1.14976 0.63615 0.31121
 C548 C 1.15252 0.67749 0.32363
 C549 C 1.19318 0.67530 0.31779
 C550 C 1.19075 0.63429 0.30501
 C551 C 1.15438 0.62619 0.36240
 C552 C 1.19506 0.62393 0.35661
 C553 C 1.15685 0.66722 0.37513
 C554 C 1.19786 0.66538 0.36898
 C555 C 1.21447 0.70280 0.29258
 C556 C 1.23219 0.72510 0.27157
 C557 C 1.13114 0.59994 0.38683
 C558 C 1.10997 0.58016 0.40625
 H559 H 1.12981 0.62383 0.28759
 H560 H 1.13518 0.69975 0.30989
 H561 H 1.20488 0.62102 0.27583
 H562 H 1.21236 0.60166 0.37037
 H563 H 1.14274 0.68054 0.40429
 H564 H 1.21781 0.67775 0.39255
 C565 C 0.66692 0.15605 0.39168
 C566 C 0.67793 0.15131 0.34063
 C567 C 0.67768 0.19334 0.33498
 C568 C 0.66709 0.19854 0.38566
 C569 C 0.62755 0.15543 0.37698
 C570 C 0.62720 0.19749 0.37139
 C571 C 0.63825 0.15039 0.32631
 C572 C 0.63830 0.19272 0.32033
 C573 C 0.70473 0.21367 0.30913
 C574 C 0.72546 0.23027 0.28516
 C575 C 0.60047 0.13220 0.39864
 C576 C 0.57978 0.11051 0.41507
 H577 H 0.67832 0.14073 0.42138
 H578 H 0.69908 0.13256 0.32780
 H579 H 0.67940 0.21852 0.40974
 H580 H 0.60600 0.21617 0.38423
 H581 H 0.62602 0.13044 0.30209
 H582 H 0.62690 0.20803 0.29061
 C583 C 0.66616 0.65826 -0.10597
 C584 C 0.67777 0.65227 -0.15658
 C585 C 0.67713 0.69412 -0.16405
 C586 C 0.66593 0.70057 -0.11381
 C587 C 0.62696 0.65677 -0.12130
 C588 C 0.62621 0.69865 -0.12871
 C589 C 0.63826 0.65048 -0.17153
 C590 C 0.63791 0.69262 -0.17933
 C591 C 0.70422 0.71413 -0.19028
 C592 C 0.72499 0.73048 -0.21448
 C593 C 0.59987 0.63372 -0.09928
 C594 C 0.57923 0.61204 -0.08270
 H595 H 0.67741 0.64391 -0.07543
 H596 H 0.69925 0.63343 -0.16824
 H597 H 0.67776 0.72134 -0.09038
 H598 H 0.60468 0.71742 -0.11705
 H599 H 0.62652 0.62974 -0.19511
 H600 H 0.62666 0.70697 -0.20988
 C601 C 0.81382 -0.14358 -0.11081
 C602 C 0.79357 -0.13610 -0.15651
 C603 C 0.80806 -0.17257 -0.17580
 C604 C 0.82790 -0.18045 -0.13052
 C605 C 0.84660 -0.12381 -0.13084
 C606 C 0.86098 -0.16032 -0.15017
 C607 C 0.82676 -0.11592 -0.17612
 C608 C 0.84085 -0.15280 -0.19576
 C609 C 0.78699 -0.19997 -0.20110
 C610 C 0.76953 -0.22240 -0.22189
 C611 C 0.86980 -0.09771 -0.10651
 C612 C 0.89103 -0.07785 -0.08760
 H613 H 0.80287 -0.13948 -0.07566
 H614 H 0.76558 -0.12642 -0.15942
 H615 H 0.82825 -0.20728 -0.11205
 H616 H 0.88896 -0.17008 -0.14733
 H617 H 0.82643 -0.08910 -0.19460
 H618 H 0.85183 -0.15688 -0.23089
 C619 C 0.80574 0.37563 0.36833
 C620 C 0.80697 0.36909 0.31555
 C621 C 0.80829 0.32732 0.32431
 C622 C 0.80668 0.33340 0.37666
 C623 C 0.84669 0.37622 0.36916
 C624 C 0.84796 0.33443 0.37787
 C625 C 0.84826 0.37010 0.31681
 C626 C 0.84923 0.32798 0.32521
 C627 C 0.78732 0.29988 0.29901
 C628 C 0.76991 0.27748 0.27815
 C629 C 0.86981 0.40244 0.39336
 C630 C 0.89100 0.42240 0.41212
 H631 H 0.78808 0.39549 0.38629
 H632 H 0.78992 0.38305 0.28957
 H633 H 0.78940 0.31794 0.40103
 H634 H 0.86500 0.32042 0.40382
 H635 H 0.86553 0.38552 0.29239
 H636 H 0.86694 0.30815 0.30728
 C637 C 0.33585 -0.15744 0.38144
 C638 C 0.32639 -0.15373 0.32975
 C639 C 0.32496 -0.19589 0.32635
 C640 C 0.33402 -0.20000 0.37771
 C641 C 0.37560 -0.15895 0.36852
 C642 C 0.37427 -0.20114 0.36520
 C643 C 0.36644 -0.15496 0.31717
 C644 C 0.36470 -0.19743 0.31342
 C645 C 0.29733 -0.21556 0.30073
 C646 C 0.27588 -0.23149 0.27709
 C647 C 0.40268 -0.13614 0.39088
 C648 C 0.42300 -0.11470 0.40846
 H649 H 0.32431 -0.14076 0.40975
 H650 H 0.30641 -0.13445 0.31503
 H651 H 0.32026 -0.21867 0.40231
 H652 H 0.39430 -0.22036 0.37993
 H653 H 0.38011 -0.13632 0.29245
 H654 H 0.37620 -0.21411 0.28508
 C655 C 0.34004 0.33528 -0.11137
 C656 C 0.32453 0.34498 -0.15931
 C657 C 0.32686 0.30417 -0.17255
 C658 C 0.34196 0.29404 -0.12499
 C659 C 0.37783 0.34077 -0.13076
 C660 C 0.38027 0.29994 -0.14395
 C661 C 0.36263 0.35075 -0.17832
 C662 C 0.36465 0.30965 -0.19191
 C663 C 0.29899 0.28482 -0.19795
 C664 C 0.27730 0.26922 -0.22139
 C665 C 0.40493 0.36355 -0.10859
 C666 C 0.42508 0.38513 -0.09109
 H667 H 0.33030 0.34602 -0.07789
 H668 H 0.30133 0.36326 -0.16581
 H669 H 0.33299 0.27054 -0.10334
 H670 H 0.40352 0.28172 -0.13744
 H671 H 0.37150 0.37422 -0.20011
 H672 H 0.37439 0.29891 -0.22540
 C673 C 1.15378 -0.13065 0.18823
 C674 C 1.15237 -0.17264 0.17918
 C675 C 1.19332 -0.17369 0.17898
 C676 C 1.19508 -0.13206 0.18837
 C677 C 1.15455 -0.12368 0.13595
 C678 C 1.19551 -0.12467 0.13568
 C679 C 1.15284 -0.16534 0.12662
 C680 C 1.19413 -0.16676 0.12670
 C681 C 1.21458 -0.20173 0.20329
 C682 C 1.23226 -0.22449 0.22356
 C683 C 1.13130 -0.09696 0.11235
 C684 C 1.11013 -0.07681 0.09354
 H685 H 1.13704 -0.11550 0.21339
 H686 H 1.13478 -0.19261 0.19723
 H687 H 1.21266 -0.11864 0.21409
 H688 H 1.21306 -0.10469 0.11761
 H689 H 1.13528 -0.17882 0.10092
 H690 H 1.21087 -0.18195 0.10159
 C691 C 1.18069 0.38675 0.67420
 C692 C 1.16532 0.35325 0.70084
 C693 C 1.19313 0.32830 0.67774
 C694 C 1.20891 0.36136 0.65145
 C695 C 1.15509 0.37853 0.63423
 C696 C 1.18290 0.35359 0.61109
 C697 C 1.13942 0.34543 0.66056
 C698 C 1.16752 0.32014 0.63778
 C699 C 1.21395 0.30011 0.70220
 C700 C 1.23130 0.27716 0.72242
 C701 C 1.13208 0.40524 0.61043
 C702 C 1.11090 0.42524 0.59153
 H703 H 1.18596 0.41441 0.68888
 H704 H 1.15821 0.35277 0.73796
 H705 H 1.23776 0.36758 0.64797
 H706 H 1.18998 0.35406 0.57396
 H707 H 1.11058 0.33912 0.66411
 H708 H 1.16222 0.29248 0.62309
 C709 C 0.63160 -0.15495 0.68047
 C710 C 0.63386 -0.19729 0.68597
 C711 C 0.67345 -0.19553 0.67237
 C712 C 0.67150 -0.15350 0.66723
 C713 C 0.62204 -0.16016 0.62946
 C714 C 0.66164 -0.15844 0.61588
 C715 C 0.62387 -0.20222 0.63452
 C716 C 0.66399 -0.20087 0.62136
 C717 C 0.70156 -0.21434 0.69820
 C718 C 0.72341 -0.22977 0.72174
 C719 C 0.59469 -0.13791 0.60668
 C720 C 0.57439 -0.11652 0.58886
 H721 H 0.61791 -0.13595 0.70460
 H722 H 0.62283 -0.21349 0.71519
 H723 H 0.69139 -0.13367 0.68083
 H724 H 0.67272 -0.14225 0.58669
 H725 H 0.60394 -0.22198 0.62089
 H726 H 0.67777 -0.21989 0.59735
 C727 C 0.63411 0.34798 0.18095
 C728 C 0.63479 0.30587 0.18921
 C729 C 0.67384 0.30518 0.17313
 C730 C 0.67348 0.34698 0.16522
 C731 C 0.62239 0.34107 0.13103
 C732 C 0.66145 0.34035 0.11494
 C733 C 0.62264 0.29923 0.13887
 C734 C 0.66222 0.29813 0.12320
 C735 C 0.70196 0.28606 0.19854
 C736 C 0.72382 0.27041 0.22181
 C737 C 0.59502 0.36350 0.10866
 C738 C 0.57466 0.38491 0.09101
 H739 H 0.62218 0.36861 0.20453
 H740 H 0.62422 0.29147 0.22014
 H741 H 0.69469 0.36638 0.17622
 H742 H 0.67205 0.35474 0.08404
 H743 H 0.60139 0.27990 0.12785
 H744 H 0.67425 0.27748 0.09975
 C745 C 0.85620 0.16934 0.13724
 C746 C 0.81675 0.17897 0.12704
 C747 C 0.80870 0.17630 0.17887
 C748 C 0.84783 0.16705 0.18938
 C749 C 0.84712 0.12820 0.13264
 C750 C 0.83905 0.12558 0.18447
 C751 C 0.80799 0.13741 0.12204
 C752 C 0.79955 0.13518 0.17432
 C753 C 0.78766 0.20318 0.20503
 C754 C 0.77014 0.22501 0.22670
 C755 C 0.87022 0.10231 0.10782
 C756 C 0.89136 0.08247 0.08875
 H757 H 0.87972 0.18318 0.12168
 H758 H 0.80743 0.20126 0.10370
 H759 H 0.86405 0.17950 0.21725
 H760 H 0.84837 0.10331 0.20785
 H761 H 0.79182 0.12493 0.09414
 H762 H 0.77602 0.12141 0.18992
 C763 C 0.81934 0.65436 0.61101
 C764 C 0.79287 0.64454 0.65027
 C765 C 0.80837 0.67613 0.67923
 C766 C 0.83444 0.68633 0.64038
 C767 C 0.84687 0.62821 0.63275
 C768 C 0.86227 0.65983 0.66174
 C769 C 0.82081 0.61798 0.67160
 C770 C 0.83591 0.64997 0.70092
 C771 C 0.78728 0.70297 0.70544
 C772 C 0.76973 0.72483 0.72705
 C773 C 0.87002 0.60244 0.60775
 C774 C 0.89118 0.58271 0.58848
 H775 H 0.81267 0.65585 0.57379
 H776 H 0.76405 0.63856 0.64584
 H777 H 0.83992 0.71469 0.62785
 H778 H 0.89107 0.66590 0.66625
 H779 H 0.81534 0.58961 0.68414
 H780 H 0.84261 0.64847 0.73812
 C781 C 0.37905 0.17613 0.66845
 C782 C 0.35948 0.20995 0.64779
 C783 C 0.32386 0.19378 0.66452
 C784 C 0.34308 0.16035 0.68550
 C785 C 0.37387 0.15581 0.62268
 C786 C 0.33821 0.13974 0.63945
 C787 C 0.35471 0.18922 0.60151
 C788 C 0.31860 0.17347 0.61875
 C789 C 0.29678 0.21396 0.69037
 C790 C 0.27598 0.23022 0.71447
 C791 C 0.40078 0.13246 0.60104
 C792 C 0.42123 0.11066 0.58451
 H793 H 0.40419 0.17703 0.68860
 H794 H 0.36780 0.23914 0.65151
 H795 H 0.33792 0.14861 0.72023
 H796 H 0.32979 0.11057 0.63584
 H797 H 0.35995 0.20084 0.56674
 H798 H 0.29343 0.17258 0.59868
 C799 C 0.33182 0.65411 0.11202
 C800 C 0.32319 0.65163 0.16408
 C801 C 0.32214 0.69386 0.16609
 C802 C 0.33037 0.69677 0.11436
 C803 C 0.37177 0.65555 0.12378
 C804 C 0.37083 0.69780 0.12570
 C805 C 0.36343 0.65277 0.17549
 C806 C 0.36209 0.69531 0.17782
 C807 C 0.29530 0.71435 0.19213
 C808 C 0.27472 0.73091 0.21638
 C809 C 0.39864 0.63217 0.10186
 C810 C 0.41919 0.61051 0.08514
 H811 H 0.31971 0.63691 0.08462
 H812 H 0.30330 0.63285 0.18003
 H813 H 0.31637 0.71503 0.08952
 H814 H 0.39076 0.71651 0.10975
 H815 H 0.37735 0.63455 0.20046
 H816 H 0.37420 0.71249 0.20524
   
