data_POSCAR
  _audit_creation_date              2014-09-24
  _audit_creation_method            'ToBaCCo'
  _symmetry_space_group_name_H-M    'P1'
  _symmetry_Int_Tables_number       1
  _symmetry_cell_setting            triclinic
  loop_
  _symmetry_equiv_pos_as_xyz
 x,y,z
_cell_length_a 28.3015
_cell_length_b 27.7187
_cell_length_c 68.6069
_cell_angle_alpha 91.042500
_cell_angle_beta 91.209100
_cell_angle_gamma 121.819300
loop_
  _atom_site_label
  _atom_site_type_symbol
  _atom_site_fract_x
  _atom_site_fract_y
  _atom_site_fract_z
C1 C 0.06147 0.08505 0.53148
 H2 H 0.09437 0.07625 0.53072
 C3 C 0.06417 0.12263 0.54582
 H4 H 0.09952 0.14282 0.55607
 C5 C -0.02495 0.06835 0.51914
 H6 H -0.06001 0.04619 0.50889
 C7 C -0.02380 0.10609 0.53329
 H8 H -0.05849 0.11214 0.53373
 N9 N 0.01761 0.05902 0.51846
 C10 C 0.07383 -0.04908 0.51491
 H11 H 0.10525 -0.02577 0.50439
 C12 C 0.07949 -0.08486 0.52760
 H13 H 0.11520 -0.08928 0.52666
 C14 C -0.00975 -0.07015 0.52961
 H15 H -0.04384 -0.06318 0.53052
 C16 C -0.00590 -0.10638 0.54244
 H17 H -0.03699 -0.12637 0.55335
 Zn18 Zn 0.01992 0.00752 0.50070
 N19 N 0.02943 -0.04279 0.51610
 C20 C 0.08783 0.01858 0.46960
 N21 N 0.07925 0.04790 0.48371
 C22 C 0.10856 0.10563 0.48448
 C23 C 0.14785 0.13628 0.47058
 C24 C 0.12686 0.04749 0.45539
 C25 C -0.05971 -0.00521 0.47244
 C26 C -0.10410 -0.03491 0.45888
 C27 C -0.12000 -0.12290 0.47147
 C28 C -0.07537 -0.09149 0.48474
 N29 N -0.04605 -0.03377 0.48494
 H30 H 0.06315 -0.02737 0.46908
 H31 H 0.10012 0.12826 0.49546
 H32 H 0.16867 0.18194 0.47162
 H33 H 0.13218 0.02308 0.44409
 H34 H -0.03495 0.04073 0.47259
 H35 H -0.11343 -0.01114 0.44880
 H36 H -0.14051 -0.16854 0.47156
 H37 H -0.06289 -0.11356 0.49434
 C38 C 0.03903 -0.11441 0.54145
 C39 C 0.02146 0.13384 0.54686
 C40 C -0.13467 -0.09469 0.45800
 C41 C 0.15711 0.10725 0.45549
 C42 C 1.06846 -0.00213 0.13442
 H43 H 1.06258 0.03322 0.13313
 C44 C 1.10457 -0.00688 0.12219
 H45 H 1.12559 0.02476 0.11133
 C46 C 1.04524 -0.08776 0.14957
 H47 H 1.02133 -0.11952 0.16007
 C48 C 1.08079 -0.09441 0.13747
 H49 H 1.08437 -0.13124 0.13882
 N50 N 1.04023 -0.04179 0.14792
 C51 C 0.93417 0.01799 0.14433
 H52 H 0.95591 0.05323 0.15477
 C53 C 0.89768 0.01792 0.13020
 H54 H 0.89223 0.05368 0.12989
 C55 C 0.91698 -0.07011 0.13157
 H56 H 0.92497 -0.10417 0.13220
 C57 C 0.88073 -0.07169 0.11719
 H58 H 0.86078 -0.10727 0.10676
 Zn59 Zn 0.99154 -0.03015 0.16288
 N60 N 0.94259 -0.02599 0.14483
 C61 C 1.00571 0.05195 0.19106
 N62 N 1.03304 0.03705 0.17864
 C63 C 1.08955 0.06593 0.17891
 C64 C 1.12095 0.11140 0.19214
 C65 C 1.03546 0.09721 0.20458
 C66 C 0.97742 -0.09994 0.19429
 C67 C 0.94772 -0.13913 0.20854
 C68 C 0.86221 -0.15818 0.19272
 C69 C 0.89358 -0.11880 0.17878
 N70 N 0.95007 -0.09029 0.17986
 H71 H 0.96071 0.02748 0.19087
 H72 H 1.11065 0.05246 0.16940
 H73 H 1.16556 0.13150 0.19209
 H74 H 1.01267 0.10751 0.21459
 H75 H 1.02243 -0.07586 0.19505
 H76 H 0.97056 -0.14522 0.22010
 H77 H 0.81762 -0.17827 0.19141
 H78 H 0.87255 -0.10953 0.16752
 C79 C 0.87027 -0.02766 0.11643
 C80 C 1.11149 -0.05325 0.12376
 C81 C 0.88921 -0.16838 0.20816
 C82 C 1.09400 0.12739 0.20551
 C83 C 0.04661 0.98870 0.86600
 H84 H 0.00677 0.94913 0.86610
 C85 C 0.08966 0.99777 0.87878
 H86 H 0.08200 0.96512 0.88889
 C87 C 0.10321 1.08006 0.85317
 H88 H 0.10796 1.11223 0.84335
 C89 C 0.14750 1.09108 0.86584
 H90 H 0.18636 1.13168 0.86558
 N91 N 0.05425 1.02914 0.85332
 C92 C -0.11589 0.94261 0.85346
 H93 H -0.12267 0.90873 0.84349
 C94 C -0.15774 0.93398 0.86606
 H95 H -0.19660 0.89318 0.86545
 C96 C -0.05665 1.03607 0.86653
 H97 H -0.01670 1.07558 0.86674
 C98 C -0.09732 1.02975 0.87916
 H99 H -0.08632 1.06496 0.88914
 Zn100 Zn -0.00827 1.01011 0.83697
 N101 N -0.06693 0.99349 0.85370
 C102 C -0.06988 0.92636 0.80751
 N103 N -0.02558 0.94722 0.82028
 C104 C 0.00900 0.92705 0.82006
 C105 C -0.00025 0.88425 0.80663
 C106 C -0.08084 0.88339 0.79382
 C107 C -0.03024 1.08993 0.82137
 C108 C -0.02535 1.13108 0.80886
 C109 C 0.05590 1.13119 0.79478
 C110 C 0.04673 1.08989 0.80806
 N111 N 0.00500 1.07067 0.82083
 H112 H -0.09609 0.94396 0.80770
 H113 H 0.04507 0.94535 0.82987
 H114 H 0.02932 0.87091 0.80681
 H115 H -0.11609 0.86796 0.78365
 H116 H -0.06400 1.07206 0.83130
 H117 H -0.05480 1.14469 0.80967
 H118 H 0.08929 1.14503 0.78473
 H119 H 0.07279 1.07210 0.80800
 C120 C -0.14958 0.97826 0.87890
 C121 C 0.14125 1.04926 0.87861
 C122 C 0.01855 1.15574 0.79382
 C123 C -0.04563 0.86185 0.79305
 C124 C 0.40124 0.00841 0.01771
 C125 C 0.37614 0.00864 -0.00006
 C126 C 0.39928 0.00898 -0.01795
 C127 C 0.44930 0.00893 -0.01814
 C128 C 0.47552 0.00902 -0.00024
 C129 C 0.45143 0.00876 0.01772
 C130 C 0.47731 0.00716 0.03521
 C131 C 0.52640 0.00711 0.03514
 C132 C 0.55178 0.00864 0.01757
 C133 C 0.52581 0.00900 -0.00032
 C134 C 0.47427 0.00958 -0.03572
 C135 C 0.52316 0.00908 -0.03580
 C136 C 0.54982 0.00900 -0.01829
 C137 C 0.59932 0.00798 -0.01827
 C138 C 0.62435 0.00781 -0.00047
 C139 C 0.60165 0.00839 0.01740
 H140 H 0.45956 0.00508 0.04920
 H141 H 0.54361 0.00489 0.04907
 H142 H 0.45651 0.01065 -0.04969
 H143 H 0.53950 0.00839 -0.04984
 H144 H 0.33766 0.00828 0.00005
 H145 H 0.66362 0.00975 -0.00053
 C146 C -0.00826 0.40121 0.65024
 C147 C -0.00158 0.38035 0.66784
 C148 C 0.00267 0.40723 0.68585
 C149 C -0.00124 0.45616 0.68637
 C150 C -0.00734 0.47837 0.66865
 C151 C -0.01057 0.45097 0.65054
 C152 C -0.01447 0.47495 0.63317
 C153 C -0.01615 0.52416 0.63351
 C154 C -0.01439 0.55136 0.65125
 C155 C -0.00960 0.52850 0.66901
 C156 C 0.00182 0.48415 0.70409
 C157 C -0.00160 0.53243 0.70446
 C158 C -0.00661 0.55586 0.68710
 C159 C -0.00936 0.60549 0.68734
 C160 C -0.01314 0.62786 0.66963
 C161 C -0.01552 0.60179 0.65167
 H162 H -0.01519 0.45665 0.61903
 H163 H -0.01815 0.54087 0.61961
 H164 H 0.00709 0.46932 0.71795
 H165 H -0.00005 0.55114 0.71860
 H166 H -0.00154 0.34125 0.66755
 H167 H -0.01405 0.66648 0.66979
 C168 C 0.39001 0.39480 0.31318
 C169 C 0.36619 0.37068 0.33086
 C170 C 0.39250 0.39669 0.34886
 C171 C 0.44414 0.44917 0.34928
 C172 C 0.46930 0.47394 0.33151
 C173 C 0.44232 0.44652 0.31342
 C174 C 0.46803 0.47206 0.29603
 C175 C 0.51948 0.52268 0.29636
 C176 C 0.54697 0.55084 0.31408
 C177 C 0.52168 0.52620 0.33184
 C178 C 0.47189 0.47704 0.36700
 C179 C 0.52265 0.52840 0.36732
 C180 C 0.54870 0.55357 0.34994
 C181 C 0.60057 0.60576 0.35018
 C182 C 0.62515 0.62909 0.33250
 C183 C 0.59951 0.60235 0.31451
 H184 H 0.44877 0.45341 0.28189
 H185 H 0.53733 0.53918 0.28245
 H186 H 0.45492 0.45956 0.38092
 H187 H 0.54103 0.54803 0.38146
 H188 H 0.32649 0.33078 0.33062
 H189 H 0.66510 0.66871 0.33276
 C190 C 0.02570 0.17319 0.56266
 C191 C -0.00551 0.19888 0.56329
 C192 C 0.00179 0.23887 0.57941
 C193 C -0.04295 0.24474 0.58417
 C194 C -0.03794 0.28041 0.59983
 C195 C 0.01237 0.31146 0.61088
 C196 C 0.05744 0.30665 0.60579
 C197 C 0.05252 0.27125 0.59013
 C198 C 0.01882 0.34694 0.62831
 C199 C -0.01482 0.36881 0.63188
 H200 H -0.03741 0.18838 0.55216
 H201 H -0.08233 0.22053 0.57606
 H202 H -0.07399 0.28213 0.60352
 H203 H 0.09674 0.33040 0.61398
 H204 H 0.08874 0.26983 0.58646
 H205 H 0.05280 0.35778 0.63863
 H206 H 0.05580 0.18264 0.57439
 H207 H -0.04557 0.36330 0.62098
 C208 C 0.86070 0.79595 0.22364
 C209 C 0.80273 0.76498 0.22531
 C210 C 0.77413 0.73474 0.24304
 C211 C 0.71676 0.69439 0.24157
 C212 C 0.68728 0.66718 0.25806
 C213 C 0.71460 0.68024 0.27651
 C214 C 0.77209 0.71985 0.27797
 C215 C 0.80156 0.74727 0.26149
 C216 C 0.68491 0.65290 0.29439
 C217 C 0.62790 0.62965 0.29636
 H218 H 0.77607 0.76185 0.21324
 H219 H 0.69454 0.68391 0.22757
 H220 H 0.64336 0.63561 0.25621
 H221 H 0.79410 0.73054 0.29202
 H222 H 0.84532 0.77915 0.26346
 H223 H 0.70925 0.65230 0.30668
 H224 H 0.88566 0.79306 0.23519
 H225 H 0.60335 0.63153 0.28447
 C226 C 0.18790 0.06090 -0.10789
 C227 C 0.19370 0.01745 -0.10059
 C228 C 0.23591 0.02614 -0.08548
 C229 C 0.24624 -0.01756 -0.08267
 C230 C 0.28255 -0.01323 -0.06766
 C231 C 0.30940 0.03515 -0.05506
 C232 C 0.29925 0.07898 -0.05791
 C233 C 0.26298 0.07469 -0.07296
 C234 C 0.34503 0.03975 -0.03810
 C235 C 0.36885 0.00686 -0.03615
 H236 H 0.16626 -0.02544 -0.10642
 H237 H 0.22532 -0.05577 -0.09193
 H238 H 0.28778 -0.04875 -0.06565
 H239 H 0.31880 0.11635 -0.04825
 H240 H 0.25502 0.10861 -0.07426
 H241 H 0.35340 0.07096 -0.02663
 H242 H 0.21921 0.10478 -0.10424
 H243 H 0.36561 -0.02072 -0.04812
 C244 C 0.04607 0.84956 0.55542
 C245 C 0.00109 0.80477 0.56459
 C246 C 0.00681 0.77318 0.58070
 C247 C -0.03965 0.72058 0.58535
 C248 C -0.03741 0.69119 0.60132
 C249 C 0.01153 0.71404 0.61306
 C250 C 0.05796 0.76672 0.60845
 C251 C 0.05579 0.79602 0.59242
 C252 C 0.01478 0.68575 0.63068
 C253 C -0.02017 0.62772 0.63360
 H254 H -0.04073 0.79169 0.55968
 H255 H -0.07817 0.70251 0.57675
 H256 H -0.07463 0.65158 0.60471
 H257 H 0.09591 0.78557 0.61742
 H258 H 0.09193 0.83722 0.58970
 H259 H 0.04755 0.71125 0.64154
 H260 H 0.08762 0.85811 0.55823
 H261 H -0.04976 0.60030 0.62222
 C262 C 0.12275 0.16972 0.22034
 C263 C 0.18085 0.20338 0.22277
 C264 C 0.21026 0.24026 0.24029
 C265 C 0.26707 0.28179 0.23929
 C266 C 0.29759 0.31471 0.25580
 C267 C 0.27192 0.30632 0.27380
 C268 C 0.21487 0.26576 0.27474
 C269 C 0.18435 0.23267 0.25823
 C270 C 0.30301 0.33896 0.29181
 C271 C 0.36043 0.36407 0.29467
 H272 H 0.20695 0.20360 0.21148
 H273 H 0.28808 0.28858 0.22567
 H274 H 0.34104 0.34678 0.25431
 H275 H 0.19411 0.25860 0.28843
 H276 H 0.14110 0.20023 0.25984
 H277 H 0.27940 0.34153 0.30357
 H278 H 0.09802 0.17603 0.23070
 H279 H 0.38443 0.36051 0.28333
 C280 C 0.80869 -0.03045 -0.10946
 C281 C 0.80894 0.01197 -0.09787
 C282 C 0.76484 0.00057 -0.08414
 C283 C 0.75685 0.04489 -0.07892
 C284 C 0.71874 0.03741 -0.06487
 C285 C 0.68800 -0.01467 -0.05561
 C286 C 0.69584 -0.05910 -0.06087
 C287 C 0.73370 -0.05175 -0.07505
 C288 C 0.65130 -0.02233 -0.03938
 C289 C 0.62801 0.01074 -0.03644
 H290 H 0.84064 0.05614 -0.09944
 H291 H 0.78091 0.08586 -0.08551
 H292 H 0.71522 0.07324 -0.06081
 H293 H 0.67328 -0.09933 -0.05373
 H294 H 0.73994 -0.08631 -0.07829
 H295 H 0.64249 -0.05519 -0.02915
 H296 H 0.77149 -0.07258 -0.10956
 H297 H 0.63138 0.03970 -0.04746
 C298 C 0.14800 -0.06081 0.11057
 C299 C 0.19403 -0.01481 0.10227
 C300 C 0.22687 -0.02041 0.08688
 C301 C 0.27971 0.02661 0.08325
 C302 C 0.31029 0.02488 0.06782
 C303 C 0.28842 -0.02408 0.05561
 C304 C 0.23566 -0.07118 0.05927
 C305 C 0.20516 -0.06956 0.07477
 C306 C 0.31762 -0.02618 0.03826
 C307 C 0.37480 0.00943 0.03602
 H308 H 0.20703 0.02781 0.10734
 H309 H 0.29699 0.06528 0.09217
 H310 H 0.35003 0.06268 0.06515
 H311 H 0.21758 -0.10912 0.04992
 H312 H 0.16395 -0.10607 0.07672
 H313 H 0.29320 -0.05797 0.02687
 H314 H 0.13894 -0.10345 0.10773
 H315 H 0.40100 0.03764 0.04793
 C316 C 0.82391 0.87658 0.44310
 C317 C 0.78995 0.81733 0.44071
 C318 C 0.75397 0.78787 0.42310
 C319 C 0.71200 0.73030 0.42412
 C320 C 0.67976 0.69959 0.40754
 C321 C 0.68930 0.72579 0.38946
 C322 C 0.73037 0.78364 0.38852
 C323 C 0.76274 0.81435 0.40509
 C324 C 0.65733 0.69448 0.37140
 C325 C 0.63088 0.63562 0.36869
 H326 H 0.78880 0.79037 0.45208
 H327 H 0.70431 0.70884 0.43779
 H328 H 0.64731 0.65559 0.40904
 H329 H 0.73842 0.80484 0.37478
 H330 H 0.79554 0.85814 0.40349
 H331 H 0.65623 0.71903 0.35948
 H332 H 0.81858 0.90225 0.43264
 H333 H 0.63290 0.61059 0.38020
 C334 C 0.02115 0.20056 0.77904
 C335 C 0.05973 0.22506 0.76456
 C336 C 0.05657 0.26254 0.75018
 C337 C 0.09563 0.28496 0.73552
 C338 C 0.09179 0.31782 0.72109
 C339 C 0.04890 0.32914 0.72101
 C340 C 0.01014 0.30733 0.73588
 C341 C 0.01407 0.27457 0.75034
 C342 C 0.04455 0.36085 0.70459
 C343 C 0.00905 0.38168 0.70379
 H344 H 0.09167 0.21490 0.76320
 H345 H 0.12871 0.27630 0.73504
 H346 H 0.12208 0.33382 0.70978
 H347 H -0.02422 0.31389 0.73624
 H348 H -0.01694 0.25776 0.76139
 H349 H 0.07077 0.36812 0.69232
 H350 H 0.02297 0.17794 0.78599
 H351 H -0.01445 0.37937 0.71631
 C352 C 0.83202 -0.03074 0.10073
 C353 C 0.80467 -0.00099 0.10113
 C354 C 0.76508 -0.00728 0.08531
 C355 C 0.75587 0.03711 0.08230
 C356 C 0.72016 0.03322 0.06708
 C357 C 0.69243 -0.01566 0.05471
 C358 C 0.70068 -0.06049 0.05801
 C359 C 0.73611 -0.05671 0.07323
 C360 C 0.65711 -0.02046 0.03766
 C361 C 0.63267 0.01176 0.03562
 H362 H 0.81316 0.02882 0.11307
 H363 H 0.77740 0.07547 0.09146
 H364 H 0.71578 0.06918 0.06477
 H365 H 0.67957 -0.09871 0.04876
 H366 H 0.74014 -0.09289 0.07551
 H367 H 0.64890 -0.05187 0.02628
 H368 H 0.82436 -0.05915 0.08840
 H369 H 0.63570 0.03944 0.04753
 C370 C 0.19294 0.13503 0.44008
 C371 C 0.22519 0.19412 0.43824
 C372 C 0.25596 0.22219 0.42055
 C373 C 0.29702 0.28033 0.42193
 C374 C 0.32489 0.30947 0.40544
 C375 C 0.31182 0.28105 0.38710
 C376 C 0.27147 0.22276 0.38575
 C377 C 0.24340 0.19363 0.40222
 C378 C 0.33984 0.31037 0.36922
 C379 C 0.36467 0.36879 0.36701
 H380 H 0.22904 0.22211 0.45014
 H381 H 0.30756 0.30341 0.43584
 H382 H 0.35694 0.35397 0.40722
 H383 H 0.26074 0.19990 0.37179
 H384 H 0.21106 0.14931 0.40032
 H385 H 0.33968 0.28462 0.35712
 H386 H 0.19501 0.10856 0.42877
 H387 H 0.36365 0.39484 0.37870
 C388 C -0.05587 0.82097 0.77831
 C389 C -0.02469 0.79542 0.77591
 C390 C -0.03170 0.75837 0.75881
 C391 C -0.01047 0.72274 0.76017
 C392 C -0.01348 0.68934 0.74409
 C393 C -0.03736 0.69140 0.72618
 C394 C -0.05923 0.72644 0.72489
 C395 C -0.05610 0.75994 0.74093
 C396 C -0.04060 0.65779 0.70860
 C397 C -0.00655 0.63589 0.70580
 H398 H 0.00586 0.80147 0.78695
 H399 H 0.00861 0.72075 0.77374
 H400 H 0.00249 0.66179 0.74589
 H401 H -0.07782 0.72885 0.71126
 H402 H -0.07148 0.78796 0.73902
 H403 H -0.06991 0.65177 0.69696
 H404 H -0.09028 0.80871 0.76807
 H405 H 0.02366 0.64204 0.71702
   
