data_POSCAR
  _audit_creation_date              2014-09-24
  _audit_creation_method            'ToBaCCo'
  _symmetry_space_group_name_H-M    'P1'
  _symmetry_Int_Tables_number       1
  _symmetry_cell_setting            triclinic
  loop_
  _symmetry_equiv_pos_as_xyz
 x,y,z
_cell_length_a 43.7855
_cell_length_b 34.9702
_cell_length_c 42.7751
_cell_angle_alpha 91.344600
_cell_angle_beta 89.879900
_cell_angle_gamma 89.878100
loop_
  _atom_site_label
  _atom_site_type_symbol
  _atom_site_fract_x
  _atom_site_fract_y
  _atom_site_fract_z
C1 C 0.31038 0.28842 -0.01092
 C2 C 0.30551 0.28175 0.02006
 C3 C 0.27958 0.29998 0.03732
 C4 C 0.32705 0.25810 0.03811
 C5 C 0.33260 0.26509 -0.02961
 C6 C 0.29302 0.31880 -0.02716
 C7 C 0.28521 0.32342 0.06371
 C8 C 0.26202 0.34667 0.07628
 C9 C 0.23282 0.34684 0.06260
 C10 C 0.22669 0.32128 0.03760
 C11 C 0.24976 0.29766 0.02536
 C12 C 0.35776 0.26901 0.04113
 C13 C 0.37841 0.24592 0.05701
 C14 C 0.36874 0.21123 0.06960
 C15 C 0.33791 0.20061 0.06683
 C16 C 0.31711 0.22419 0.05164
 C17 C 0.33190 0.22503 -0.02877
 C18 C 0.35336 0.20305 -0.04535
 C19 C 0.37573 0.22049 -0.06400
 C20 C 0.37568 0.26082 -0.06552
 C21 C 0.35435 0.28277 -0.04849
 C22 C 0.27622 0.30997 -0.05430
 C23 C 0.25610 0.33693 -0.06661
 C24 C 0.25226 0.37280 -0.05163
 C25 C 0.27038 0.38233 -0.02562
 C26 C 0.29110 0.35591 -0.01396
 H27 H 0.30801 0.32555 0.07337
 H28 H 0.26753 0.36591 0.09560
 H29 H 0.20432 0.32043 0.02687
 H30 H 0.24482 0.27922 0.00531
 H31 H 0.36574 0.29525 0.03095
 H32 H 0.40206 0.25467 0.05864
 H33 H 0.29348 0.21544 0.04955
 H34 H 0.31469 0.21066 -0.01517
 H35 H 0.35211 0.17223 -0.04362
 H36 H 0.39219 0.27585 -0.07947
 H37 H 0.35511 0.31366 -0.04969
 H38 H 0.27754 0.28165 -0.06503
 H39 H 0.24243 0.32906 -0.08681
 H40 H 0.26820 0.41007 -0.01401
 H41 H 0.30451 0.36373 0.00645
 H42 H 0.32990 0.17408 0.07647
 C43 C 0.69072 0.70274 -0.02238
 C44 C 0.68356 0.70466 0.00868
 C45 C 0.70019 0.68267 0.03279
 C46 C 0.65867 0.73027 0.02039
 C47 C 0.67196 0.72350 -0.04540
 C48 C 0.71784 0.68178 -0.03489
 C49 C 0.70680 0.64348 0.02861
 C50 C 0.72192 0.62351 0.05199
 C51 C 0.72962 0.64205 0.08037
 C52 C 0.72246 0.68087 0.08480
 C53 C 0.70819 0.70104 0.06117
 C54 C 0.63431 0.71517 0.03742
 C55 C 0.61134 0.73919 0.04936
 C56 C 0.61243 0.77881 0.04454
 C57 C 0.63679 0.79381 0.02731
 C58 C 0.65987 0.76982 0.01564
 C59 C 0.68505 0.75346 -0.06191
 C60 C 0.66676 0.77708 -0.07990
 C61 C 0.63515 0.77072 -0.08214
 C62 C 0.62239 0.73905 -0.06734
 C63 C 0.64069 0.71563 -0.04901
 C64 C 0.74703 0.68688 -0.02180
 C65 C 0.77208 0.66637 -0.03382
 C66 C 0.76854 0.64128 -0.05968
 C67 C 0.73949 0.63717 -0.07328
 C68 C 0.71446 0.65718 -0.06100
 H69 H 0.70003 0.62825 0.00742
 H70 H 0.72680 0.59338 0.04826
 H71 H 0.72819 0.69576 0.10648
 H72 H 0.70329 0.73114 0.06513
 H73 H 0.63312 0.68474 0.04146
 H74 H 0.59283 0.72664 0.06236
 H75 H 0.67886 0.78215 0.00316
 H76 H 0.70915 0.75982 -0.05947
 H77 H 0.67720 0.80115 -0.09125
 H78 H 0.59811 0.73353 -0.06856
 H79 H 0.63030 0.69234 -0.03659
 H80 H 0.75039 0.70656 -0.00219
 H81 H 0.79424 0.67025 -0.02302
 H82 H 0.73578 0.61782 -0.09299
 H83 H 0.69224 0.65300 -0.07163
 H84 H 0.63837 0.82423 0.02343
 C85 C 0.68041 0.29642 1.01450
 C86 C 0.68266 0.29966 0.98291
 C87 C 0.70025 0.33019 0.96789
 C88 C 0.66383 0.27521 0.96168
 C89 C 0.65882 0.26818 1.02743
 C90 C 0.69674 0.32181 1.03760
 C91 C 0.68915 0.36781 0.96821
 C92 C 0.70315 0.39533 0.94986
 C93 C 0.72886 0.38580 0.93154
 C94 C 0.74075 0.34853 0.93236
 C95 C 0.72618 0.32073 0.94998
 C96 C 0.63951 0.29142 0.94528
 C97 C 0.61930 0.26817 0.92825
 C98 C 0.62309 0.22822 0.92735
 C99 C 0.64816 0.21222 0.94289
 C100 C 0.66847 0.23554 0.95973
 C101 C 0.66950 0.23292 1.03790
 C102 C 0.64896 0.20595 1.04922
 C103 C 0.61764 0.21446 1.05111
 C104 C 0.60705 0.24992 1.04078
 C105 C 0.62746 0.27638 1.02864
 C106 C 0.72763 0.33197 1.03402
 C107 C 0.74235 0.35496 1.05669
 C108 C 0.72684 0.36702 1.08411
 C109 C 0.69621 0.35604 1.08787
 C110 C 0.68136 0.33428 1.06487
 H111 H 0.66888 0.37536 0.98156
 H112 H 0.69361 0.42392 0.94955
 H113 H 0.76033 0.34041 0.91818
 H114 H 0.73472 0.29163 0.94920
 H115 H 0.63548 0.32198 0.94664
 H116 H 0.60029 0.28151 0.91662
 H117 H 0.68731 0.22259 0.97202
 H118 H 0.69364 0.22620 1.03692
 H119 H 0.65760 0.17885 1.05721
 H120 H 0.58298 0.25699 1.04186
 H121 H 0.61893 0.30345 1.02043
 H122 H 0.74070 0.32152 1.01412
 H123 H 0.76608 0.36217 1.05304
 H124 H 0.68333 0.36473 1.10850
 H125 H 0.65762 0.32714 1.06864
 H126 H 0.65183 0.18158 0.94243
 C127 C 0.31026 0.70680 1.01230
 C128 C 0.31594 0.70719 0.98099
 C129 C 0.30106 0.68016 0.95831
 C130 C 0.33967 0.73336 0.96878
 C131 C 0.32687 0.73332 1.03377
 C132 C 0.29347 0.67526 1.02712
 C133 C 0.31871 0.66085 0.93545
 C134 C 0.30501 0.63650 0.91333
 C135 C 0.27328 0.63074 0.91345
 C136 C 0.25549 0.65013 0.93621
 C137 C 0.26924 0.67479 0.95828
 C138 C 0.37055 0.72252 0.96927
 C139 C 0.39325 0.74806 0.96015
 C140 C 0.38547 0.78533 0.95163
 C141 C 0.35460 0.79628 0.95136
 C142 C 0.33179 0.77021 0.95930
 C143 C 0.32117 0.77278 1.03358
 C144 C 0.34051 0.79821 1.04962
 C145 C 0.36564 0.78453 1.06660
 C146 C 0.36995 0.74467 1.06827
 C147 C 0.35087 0.71944 1.05191
 C148 C 0.26478 0.68172 1.04096
 C149 C 0.25127 0.65368 1.05936
 C150 C 0.26707 0.61953 1.06555
 C151 C 0.29554 0.61304 1.05091
 C152 C 0.30828 0.64028 1.03147
 H153 H 0.34323 0.66432 0.93469
 H154 H 0.31939 0.62198 0.89616
 H155 H 0.23095 0.64671 0.93679
 H156 H 0.25494 0.69018 0.97499
 H157 H 0.37704 0.69439 0.97702
 H158 H 0.41694 0.73911 0.96059
 H159 H 0.30809 0.77912 0.95908
 H160 H 0.30249 0.78394 1.01994
 H161 H 0.33613 0.82860 1.04807
 H162 H 0.38868 0.73257 1.08118
 H163 H 0.35581 0.68912 1.05227
 H164 H 0.25325 0.70884 1.03813
 H165 H 0.22940 0.65989 1.07018
 H166 H 0.30828 0.58696 1.05469
 H167 H 0.33054 0.63494 1.02113
 H168 H 0.34814 0.82485 0.94465
 C169 C -0.01940 0.32231 0.31694
 C170 C 0.01176 0.32071 0.31658
 C171 C 0.02840 0.30604 0.34396
 C172 C 0.03020 0.33550 0.29022
 C173 C -0.03691 0.34833 0.29620
 C174 C -0.03617 0.29377 0.33546
 C175 C 0.02502 0.32479 0.37311
 C176 C 0.04204 0.31319 0.39873
 C177 C 0.06226 0.28214 0.39581
 C178 C 0.06508 0.26270 0.36679
 C179 C 0.04855 0.27496 0.34088
 C180 C 0.05500 0.36000 0.29609
 C181 C 0.06956 0.37821 0.27144
 C182 C 0.05951 0.37223 0.24053
 C183 C 0.03599 0.34587 0.23454
 C184 C 0.02180 0.32720 0.25911
 C185 C -0.06460 0.33678 0.28228
 C186 C -0.07868 0.35949 0.25985
 C187 C -0.06441 0.39309 0.24981
 C188 C -0.03777 0.40559 0.26508
 C189 C -0.02521 0.38453 0.28909
 C190 C -0.03133 0.25492 0.32855
 C191 C -0.04498 0.22707 0.34649
 C192 C -0.06386 0.23726 0.37206
 C193 C -0.06947 0.27644 0.37846
 C194 C -0.05579 0.30451 0.36012
 H195 H 0.00974 0.34905 0.37577
 H196 H 0.03947 0.32858 0.42085
 H197 H 0.08076 0.23888 0.36391
 H198 H 0.05148 0.26035 0.31847
 H199 H 0.06209 0.36660 0.31985
 H200 H 0.08765 0.39834 0.27681
 H201 H 0.00324 0.30763 0.25397
 H202 H -0.07478 0.30956 0.28780
 H203 H -0.09945 0.34924 0.24883
 H204 H -0.02683 0.43213 0.25886
 H205 H -0.00523 0.39574 0.30098
 H206 H -0.01650 0.24615 0.30936
 H207 H -0.04018 0.19740 0.34047
 H208 H -0.08400 0.28555 0.39772
 H209 H -0.05983 0.33448 0.36563
 H210 H 0.02809 0.34034 0.21089
 C211 C -0.01105 0.68787 0.68662
 C212 C 0.01996 0.69182 0.68544
 C213 C 0.03427 0.72052 0.66527
 C214 C 0.04182 0.66655 0.70171
 C215 C -0.02629 0.65755 0.70502
 C216 C -0.03091 0.71429 0.66879
 C217 C 0.03498 0.71482 0.63273
 C218 C 0.05061 0.74048 0.61400
 C219 C 0.06513 0.77252 0.62760
 C220 C 0.06363 0.77868 0.66010
 C221 C 0.04872 0.75247 0.67888
 C222 C 0.06409 0.64709 0.68387
 C223 C 0.08541 0.62366 0.69807
 C224 C 0.08507 0.61894 0.73056
 C225 C 0.06284 0.63848 0.74865
 C226 C 0.04147 0.66238 0.73432
 C227 C -0.05198 0.66675 0.72348
 C228 C -0.06509 0.63950 0.74283
 C229 C -0.05208 0.60279 0.74491
 C230 C -0.02722 0.59319 0.72536
 C231 C -0.01529 0.61976 0.70482
 C232 C -0.02974 0.75393 0.67450
 C233 C -0.04512 0.77899 0.65497
 C234 C -0.06257 0.76499 0.62955
 C235 C -0.06504 0.72501 0.62502
 C236 C -0.04930 0.70000 0.64443
 H237 H 0.02404 0.69007 0.62200
 H238 H 0.05124 0.73539 0.58894
 H239 H 0.07474 0.80318 0.67104
 H240 H 0.04843 0.75699 0.70402
 H241 H 0.06486 0.64976 0.65871
 H242 H 0.10213 0.60902 0.68341
 H243 H 0.02470 0.67754 0.74857
 H244 H -0.06140 0.69541 0.72365
 H245 H -0.08433 0.64805 0.75731
 H246 H -0.01718 0.56485 0.72554
 H247 H 0.00314 0.61093 0.68937
 H248 H -0.01610 0.76553 0.69355
 H249 H -0.04292 0.80943 0.65963
 H250 H -0.07833 0.71280 0.60601
 H251 H -0.05058 0.66947 0.63972
 H252 H 0.06209 0.63561 0.77377
 C253 C 1.01339 0.70254 0.31250
 C254 C 0.98363 0.70780 0.30390
 C255 C 0.96334 0.73468 0.32170
 C256 C 0.96906 0.68538 0.27831
 C257 C 1.03456 0.67516 0.29592
 C258 C 1.02663 0.72437 0.33975
 C259 C 0.93925 0.72007 0.33949
 C260 C 0.92468 0.74312 0.36218
 C261 C 0.93373 0.78133 0.36717
 C262 C 0.95602 0.79674 0.34737
 C263 C 0.97060 0.77366 0.32472
 C264 C 0.96166 0.64675 0.28201
 C265 C 0.94526 0.62689 0.25874
 C266 C 0.93660 0.64526 0.23123
 C267 C 0.94467 0.68369 0.22737
 C268 C 0.96028 0.70377 0.25097
 C269 C 1.03781 0.67373 0.26314
 C270 C 1.06021 0.65037 0.24882
 C271 C 1.08067 0.62922 0.26708
 C272 C 1.07716 0.63073 0.29979
 C273 C 1.05424 0.65284 0.31388
 C274 C 1.05395 0.74473 0.33610
 C275 C 1.06607 0.76639 0.36099
 C276 C 1.05043 0.76936 0.38976
 C277 C 1.02330 0.74848 0.39347
 C278 C 1.01232 0.72497 0.36920
 H279 H 0.93323 0.69010 0.33744
 H280 H 0.90725 0.73044 0.37655
 H281 H 0.96321 0.82620 0.35031
 H282 H 0.98896 0.78552 0.31100
 H283 H 0.96796 0.63233 0.30319
 H284 H 0.93950 0.59718 0.26216
 H285 H 0.96554 0.73372 0.24797
 H286 H 1.02388 0.69164 0.24861
 H287 H 1.06226 0.65034 0.22360
 H288 H 1.09212 0.61466 0.31478
 H289 H 1.05239 0.65326 0.33914
 H290 H 1.06572 0.74423 0.31380
 H291 H 1.08701 0.78200 0.35715
 H292 H 1.01102 0.74925 0.41549
 H293 H 0.99220 0.70787 0.37326
 H294 H 0.93819 0.69849 0.20643
 C295 C 1.01398 0.27982 0.70720
 C296 C 0.98398 0.28020 0.69881
 C297 C 0.97332 0.25538 0.67246
 C298 C 0.96084 0.30620 0.71342
 C299 C 1.02649 0.30620 0.73144
 C300 C 1.03607 0.25573 0.68908
 C301 C 0.97811 0.26621 0.64145
 C302 C 0.96992 0.24158 0.61670
 C303 C 0.95788 0.20534 0.62271
 C304 C 0.95328 0.19444 0.65371
 C305 C 0.96039 0.21965 0.67845
 C306 C 0.94206 0.32806 0.69410
 C307 C 0.91827 0.35004 0.70671
 C308 C 0.91288 0.35117 0.73905
 C309 C 0.93184 0.32979 0.75859
 C310 C 0.95537 0.30706 0.74582
 C311 C 1.03114 0.29347 0.76191
 C312 C 1.04421 0.31775 0.78461
 C313 C 1.05406 0.35446 0.77673
 C314 C 1.04972 0.36701 0.74611
 C315 C 1.03558 0.34325 0.72374
 C316 C 1.03310 0.21578 0.68820
 C317 C 1.04727 0.19393 0.66454
 C318 C 1.06578 0.21145 0.64207
 C319 C 1.07145 0.25102 0.64535
 C320 C 1.05642 0.27296 0.66839
 H321 H 0.98838 0.29357 0.63653
 H322 H 0.97352 0.25044 0.59288
 H323 H 0.94370 0.16671 0.65873
 H324 H 0.95679 0.21087 0.70229
 H325 H 0.94561 0.32793 0.66905
 H326 H 0.90417 0.36641 0.69110
 H327 H 0.96861 0.28935 0.76115
 H328 H 1.02453 0.26478 0.76809
 H329 H 1.04742 0.30752 0.80808
 H330 H 1.05695 0.39535 0.73963
 H331 H 1.03218 0.35348 0.70030
 H332 H 1.01796 0.20187 0.70441
 H333 H 1.04289 0.16346 0.66331
 H334 H 1.08576 0.26579 0.62893
 H335 H 1.05911 0.30372 0.66860
 H336 H 0.92796 0.32980 0.78360
 C337 C 0.32471 -0.01349 0.32824
 C338 C 0.32625 0.02543 0.32972
 C339 C 0.35079 0.04594 0.31324
 C340 C 0.30532 0.05009 0.34897
 C341 C 0.30128 -0.03572 0.34517
 C342 C 0.34807 -0.03684 0.31096
 C343 C 0.38053 0.04719 0.32539
 C344 C 0.40297 0.06892 0.31083
 C345 C 0.39607 0.08847 0.28349
 C346 C 0.36655 0.08653 0.27099
 C347 C 0.34384 0.06601 0.28617
 C348 C 0.31807 0.07896 0.36820
 C349 C 0.29953 0.10414 0.38526
 C350 C 0.26768 0.10076 0.38412
 C351 C 0.25460 0.07163 0.36534
 C352 C 0.27331 0.04682 0.34744
 C353 C 0.28600 -0.06546 0.32909
 C354 C 0.26713 -0.09046 0.34508
 C355 C 0.26272 -0.08578 0.37738
 C356 C 0.27722 -0.05538 0.39345
 C357 C 0.29679 -0.03093 0.37756
 C358 C 0.35446 -0.03123 0.27922
 C359 C 0.37635 -0.05375 0.26360
 C360 C 0.39132 -0.08361 0.27904
 C361 C 0.38410 -0.08986 0.31056
 C362 C 0.36304 -0.06647 0.32638
 H363 H 0.38606 0.03209 0.34646
 H364 H 0.42572 0.07023 0.32067
 H365 H 0.36094 0.10166 0.24994
 H366 H 0.32090 0.06546 0.27674
 H367 H 0.34257 0.08220 0.37007
 H368 H 0.31023 0.12609 0.39976
 H369 H 0.26283 0.02542 0.33227
 H370 H 0.28941 -0.06997 0.30418
 H371 H 0.25615 -0.11365 0.33223
 H372 H 0.27450 -0.05154 0.41849
 H373 H 0.30912 -0.00911 0.39069
 H374 H 0.34226 -0.00977 0.26636
 H375 H 0.38066 -0.04837 0.23919
 H376 H 0.39504 -0.11252 0.32329
 H377 H 0.35829 -0.07163 0.35079
 H378 H 0.23003 0.06866 0.36394
 C379 C 0.66905 -0.01059 0.66944
 C380 C 0.67468 0.02789 0.66917
 C381 C 0.65321 0.05674 0.68318
 C382 C 0.70317 0.04287 0.65498
 C383 C 0.68850 -0.03867 0.65153
 C384 C 0.64317 -0.02711 0.68726
 C385 C 0.62148 0.05424 0.67838
 C386 C 0.60170 0.08047 0.69303
 C387 C 0.61338 0.11081 0.71133
 C388 C 0.64504 0.11481 0.71462
 C389 C 0.66477 0.08776 0.70099
 C390 C 0.70167 0.07003 0.63136
 C391 C 0.72827 0.08173 0.61613
 C392 C 0.75678 0.06650 0.62443
 C393 C 0.75829 0.04087 0.64921
 C394 C 0.73179 0.02940 0.66449
 C395 C 0.69880 -0.07206 0.66591
 C396 C 0.71635 -0.09906 0.64921
 C397 C 0.72439 -0.09287 0.61798
 C398 C 0.71391 -0.05973 0.60345
 C399 C 0.69566 -0.03327 0.61988
 C400 C 0.63884 -0.01883 0.71928
 C401 C 0.61534 -0.03654 0.73586
 C402 C 0.59612 -0.06350 0.72081
 C403 C 0.60050 -0.07123 0.68865
 C404 C 0.62366 -0.05327 0.67215
 H405 H 0.61193 0.03177 0.66359
 H406 H 0.57729 0.07730 0.68986
 H407 H 0.65445 0.13807 0.72870
 H408 H 0.68910 0.09074 0.70478
 H409 H 0.67979 0.08105 0.62393
 H410 H 0.72629 0.10151 0.59717
 H411 H 0.73350 0.00911 0.68316
 H412 H 0.69331 -0.07716 0.69016
 H413 H 0.72411 -0.12445 0.66087
 H414 H 0.71930 -0.05465 0.57919
 H415 H 0.68707 -0.00859 0.60784
 H416 H 0.65395 0.00085 0.73153
 H417 H 0.61289 -0.02974 0.76054
 H418 H 0.58620 -0.09157 0.67605
 H419 H 0.62656 -0.06012 0.64749
 H420 H 0.77996 0.02894 0.65636
 C421 C 0.32206 1.01567 0.66734
 C422 C 0.32684 0.97753 0.67189
 C423 C 0.34327 0.96435 0.70004
 C424 C 0.31359 0.94759 0.65050
 C425 C 0.29704 1.02886 0.64666
 C426 C 0.34108 1.04549 0.68350
 C427 C 0.36665 0.93695 0.69738
 C428 C 0.38220 0.92505 0.72401
 C429 C 0.37442 0.94031 0.75369
 C430 C 0.35034 0.96678 0.75628
 C431 C 0.33480 0.97848 0.72978
 C432 C 0.31394 0.95200 0.61788
 C433 C 0.29829 0.92631 0.59830
 C434 C 0.28343 0.89468 0.61082
 C435 C 0.28500 0.88853 0.64304
 C436 C 0.29965 0.91501 0.66279
 C437 C 0.26763 1.01313 0.64907
 C438 C 0.24485 1.02294 0.62801
 C439 C 0.25062 1.04987 0.60499
 C440 C 0.27945 1.06729 0.60361
 C441 C 0.30257 1.05667 0.62420
 C442 C 0.32756 1.07897 0.69611
 C443 C 0.34536 1.10662 0.71163
 C444 C 0.37688 1.10096 0.71526
 C445 C 0.39051 1.06798 0.70210
 C446 C 0.37289 1.04088 0.68592
 H447 H 0.37323 0.92536 0.67464
 H448 H 0.40064 0.90463 0.72118
 H449 H 0.34365 0.97881 0.77883
 H450 H 0.31625 0.99886 0.73243
 H451 H 0.32546 0.97606 0.60765
 H452 H 0.29773 0.93114 0.57338
 H453 H 0.29922 0.91065 0.68776
 H454 H 0.26255 0.99248 0.66683
 H455 H 0.22264 1.00956 0.62979
 H456 H 0.28442 1.08815 0.58601
 H457 H 0.32498 1.06942 0.62210
 H458 H 0.30315 1.08346 0.69438
 H459 H 0.33437 1.13190 0.72155
 H460 H 0.41488 1.06330 0.70404
 H461 H 0.38412 1.01609 0.67546
 H462 H 0.27369 0.86417 0.65309
 C463 C 0.68147 1.01423 0.32338
 C464 C 0.68075 0.97516 0.32312
 C465 C 0.65989 0.95251 0.30240
 C466 C 0.70003 0.95203 0.34434
 C467 C 0.70066 1.03659 0.34591
 C468 C 0.66199 1.03742 0.30241
 C469 C 0.64209 0.92373 0.31569
 C470 C 0.62337 0.90059 0.29708
 C471 C 0.62140 0.90634 0.26487
 C472 C 0.63877 0.93534 0.25135
 C473 C 0.65846 0.95776 0.26991
 C474 C 0.69981 0.95808 0.37699
 C475 C 0.71712 0.93459 0.39627
 C476 C 0.73367 0.90365 0.38330
 C477 C 0.73338 0.89713 0.35087
 C478 C 0.71704 0.92134 0.33156
 C479 C 0.73212 1.02981 0.34926
 C480 C 0.74895 1.04999 0.37203
 C481 C 0.73481 1.07839 0.39103
 C482 C 0.70362 1.08618 0.38643
 C483 C 0.68677 1.06534 0.36440
 C484 C 0.67552 1.06680 0.28538
 C485 C 0.65776 1.09045 0.26687
 C486 C 0.62615 1.08478 0.26453
 C487 C 0.61248 1.05539 0.28143
 C488 C 0.63016 1.03241 0.30075
 H489 H 0.64284 0.91898 0.34061
 H490 H 0.61010 0.87841 0.30796
 H491 H 0.63779 0.93984 0.22641
 H492 H 0.67258 0.97901 0.25894
 H493 H 0.68601 0.98064 0.38756
 H494 H 0.71669 0.93970 0.42134
 H495 H 0.71727 0.91577 0.30654
 H496 H 0.74354 1.00850 0.33461
 H497 H 0.77300 1.04353 0.37434
 H498 H 0.69185 1.10789 0.40038
 H499 H 0.66260 1.07131 0.36209
 H500 H 0.69993 1.07158 0.28662
 H501 H 0.66878 1.11302 0.25413
 H502 H 0.58803 1.05094 0.28045
 H503 H 0.61899 1.01094 0.31454
 H504 H 0.74596 0.87336 0.34043
 O505 O 0.87349 0.86081 0.47521
 O506 O 0.81454 0.87496 0.53549
 O507 O 0.87226 0.85698 0.53690
 O508 O 0.81525 0.87475 0.47528
 O509 O 0.80496 0.81292 0.47310
 O510 O 0.86250 0.79512 0.53355
 O511 O 0.80460 0.81305 0.53412
 O512 O 0.86274 0.79920 0.47187
 Cu513 Cu 0.84525 0.87298 0.50606
 Cu514 Cu 0.83284 0.79885 0.50307
 C515 C 0.87739 0.82808 0.46237
 C516 C 0.79939 0.84662 0.54498
 C517 C 0.87671 0.82307 0.54608
 C518 C 0.80045 0.84660 0.46368
 O519 O 0.16091 0.10528 0.51279
 O520 O 0.11984 0.17756 0.46793
 O521 O 0.16942 0.13579 0.45897
 O522 O 0.11361 0.14671 0.52363
 O523 O 0.14209 0.19225 0.54512
 O524 O 0.19626 0.18315 0.48002
 O525 O 0.14691 0.22326 0.49104
 O526 O 0.18992 0.15071 0.53371
 Cu527 Cu 0.13787 0.13706 0.48834
 Cu528 Cu 0.17165 0.19200 0.51444
 C529 C 0.18230 0.11573 0.53101
 C530 C 0.12611 0.21274 0.47213
 C531 C 0.19265 0.15752 0.45889
 C532 C 0.11890 0.17062 0.54582
 O533 O 0.18236 0.87950 0.46823
 O534 O 0.13436 0.86322 0.53666
 O535 O 0.19213 0.87369 0.52792
 O536 O 0.12445 0.86183 0.47699
 O537 O 0.13577 0.80050 0.47076
 O538 O 0.20016 0.81135 0.52448
 O539 O 0.14173 0.80090 0.53105
 O540 O 0.19274 0.81776 0.46398
 Cu541 Cu 0.15749 0.87585 0.50264
 Cu542 Cu 0.16867 0.80146 0.49709
 C543 C 0.19601 0.85176 0.45465
 C544 C 0.12962 0.82940 0.54543
 C545 C 0.20716 0.84413 0.53545
 C546 C 0.11869 0.82882 0.46535
 O547 O 0.89886 0.11811 0.51912
 O548 O 0.83217 0.10046 0.46774
 O549 O 0.88715 0.12661 0.45952
 O550 O 0.84636 0.08768 0.52589
 O551 O 0.82777 0.14489 0.53822
 O552 O 0.86979 0.18469 0.47061
 O553 O 0.81477 0.15815 0.48027
 O554 O 0.88110 0.17605 0.53011
 Cu555 Cu 0.86797 0.10257 0.49160
 Cu556 Cu 0.84664 0.17179 0.50586
 C557 C 0.90077 0.14995 0.53398
 C558 C 0.81192 0.12644 0.46568
 C559 C 0.88560 0.16184 0.45350
 C560 C 0.83052 0.10938 0.54365
 O561 O 0.47059 0.91534 0.84355
 O562 O 0.54050 0.87771 0.87719
 O563 O 0.52644 0.90714 0.82380
 O564 O 0.48185 0.88025 0.89386
 O565 O 0.47307 0.82352 0.87203
 O566 O 0.51693 0.84998 0.80303
 O567 O 0.53137 0.82038 0.85662
 O568 O 0.46105 0.85931 0.82066
 Cu569 Cu 0.50611 0.90050 0.86203
 Cu570 Cu 0.49479 0.83247 0.83617
 C571 C 0.45395 0.89413 0.82634
 C572 C 0.54831 0.84321 0.87237
 C573 C 0.52866 0.88294 0.80119
 C574 C 0.46879 0.84775 0.89410
 O575 O 0.52853 0.12420 0.12338
 O576 O 0.47532 0.11141 0.18906
 O577 O 0.46841 0.12461 0.13026
 O578 O 0.53394 0.11042 0.18261
 O579 O 0.53695 0.17292 0.19085
 O580 O 0.46891 0.18652 0.14160
 O581 O 0.47876 0.17307 0.20096
 O582 O 0.52814 0.18660 0.13254
 Cu583 Cu 0.50136 0.11145 0.15495
 Cu584 Cu 0.50310 0.18610 0.16733
 C585 C 0.53777 0.15757 0.11709
 C586 C 0.46873 0.13994 0.20672
 C587 C 0.45700 0.15778 0.12765
 C588 C 0.54671 0.13929 0.19549
 O589 O 0.52462 0.13346 0.79584
 O590 O 0.46743 0.14243 0.85868
 O591 O 0.46577 0.13083 0.79855
 O592 O 0.52727 0.14341 0.85603
 O593 O 0.52572 0.20595 0.85009
 O594 O 0.46351 0.19334 0.79256
 O595 O 0.46594 0.20497 0.85274
 O596 O 0.52338 0.19603 0.78994
 Cu597 Cu 0.49642 0.13130 0.82804
 Cu598 Cu 0.49443 0.20638 0.82073
 C599 C 0.53393 0.16326 0.78236
 C600 C 0.45664 0.17514 0.86614
 C601 C 0.45408 0.15980 0.78581
 C602 C 0.53738 0.17665 0.86249
 O603 O 0.53111 0.88450 0.17923
 O604 O 0.46401 0.87285 0.12757
 O605 O 0.47198 0.88810 0.18643
 O606 O 0.52345 0.87024 0.11955
 O607 O 0.52292 0.80844 0.12903
 O608 O 0.47226 0.82641 0.19650
 O609 O 0.46374 0.81111 0.13729
 O610 O 0.53033 0.82253 0.18814
 Cu611 Cu 0.49777 0.88515 0.15210
 Cu612 Cu 0.49716 0.81086 0.16344
 C613 C 0.54189 0.85538 0.19271
 C614 C 0.45222 0.83987 0.12409
 C615 C 0.46357 0.86034 0.20298
 C616 C 0.53225 0.83634 0.11314
 O617 O 0.88882 0.50816 0.83927
 O618 O 0.82413 0.45743 0.87502
 O619 O 0.86428 0.44247 0.83064
 O620 O 0.85005 0.52375 0.88535
 O621 O 0.81803 0.54858 0.85151
 O622 O 0.83306 0.46848 0.79661
 O623 O 0.79295 0.48352 0.84101
 O624 O 0.85712 0.53535 0.80634
 Cu625 Cu 0.85992 0.48050 0.86117
 Cu626 Cu 0.82217 0.51147 0.82042
 C627 C 0.88401 0.52963 0.81623
 C628 C 0.79739 0.46246 0.86433
 C629 C 0.85180 0.44237 0.80387
 C630 C 0.83096 0.54943 0.87804
 O631 O 0.13362 0.55024 0.17044
 O632 O 0.15729 0.47630 0.11167
 O633 O 0.11600 0.48168 0.15415
 O634 O 0.17582 0.54599 0.12477
 O635 O 0.20873 0.52015 0.15713
 O636 O 0.14833 0.45926 0.18887
 O637 O 0.18934 0.45225 0.14592
 O638 O 0.16779 0.52732 0.20294
 Cu639 Cu 0.14256 0.51664 0.13693
 Cu640 Cu 0.18190 0.48803 0.17729
 C641 C 0.14609 0.55021 0.19726
 C642 C 0.17697 0.45129 0.11913
 C643 C 0.12205 0.45939 0.17633
 C644 C 0.20293 0.54226 0.13477
 O645 O 0.87026 0.47139 0.14978
 O646 O 0.81156 0.53821 0.12212
 O647 O 0.86614 0.54422 0.14483
 O648 O 0.81507 0.46376 0.12412
 O649 O 0.79334 0.46959 0.17060
 O650 O 0.84900 0.54393 0.19346
 O651 O 0.79410 0.54407 0.17048
 O652 O 0.84784 0.47035 0.19605
 Cu653 Cu 0.84261 0.50352 0.13031
 Cu654 Cu 0.81889 0.50698 0.18732
 C655 C 0.86948 0.46038 0.17786
 C656 C 0.79343 0.55350 0.14201
 C657 C 0.86688 0.55704 0.17286
 C658 C 0.79462 0.45410 0.14347
 O659 O 0.17834 0.54439 0.86877
 O660 O 0.11823 0.47296 0.85199
 O661 O 0.16377 0.47948 0.89137
 O662 O 0.13369 0.53861 0.82786
 O663 O 0.16561 0.50957 0.79503
 O664 O 0.19305 0.44797 0.85742
 O665 O 0.14807 0.44466 0.81674
 O666 O 0.20920 0.51343 0.83599
 Cu667 Cu 0.14521 0.51183 0.86324
 Cu668 Cu 0.18192 0.47581 0.82291
 C669 C 0.20435 0.54034 0.85587
 C670 C 0.12275 0.44703 0.83120
 C671 C 0.18396 0.45421 0.88528
 C672 C 0.14491 0.53425 0.80057
 N673 N 0.17100 0.41353 0.07077
 N674 N 0.18506 0.38520 0.05539
 C675 C 0.20946 0.37521 0.07270
 C676 C 0.20982 0.39836 0.09927
 N677 N 0.18558 0.42178 0.09711
 H678 H 0.22629 0.39878 0.11810
 N679 N 0.75795 0.60589 0.15209
 N680 N 0.74090 0.63021 0.13645
 C681 C 0.74441 0.62120 0.10581
 C682 C 0.76431 0.59062 0.10310
 N683 N 0.77221 0.58205 0.13249
 H684 H 0.77266 0.57650 0.08196
 N685 N 0.74346 0.45935 0.87712
 N686 N 0.72467 0.44041 0.89542
 C687 C 0.74160 0.41394 0.90995
 C688 C 0.77152 0.41726 0.89995
 N689 N 0.77162 0.44590 0.87949
 H690 H 0.79122 0.40086 0.90703
 N691 N 0.25609 0.56449 0.85092
 N692 N 0.27508 0.58800 0.86579
 C693 C 0.25942 0.60439 0.88983
 C694 C 0.22993 0.59018 0.88901
 N695 N 0.22889 0.56544 0.86444
 H696 H 0.21149 0.59577 0.90538
 N697 N 0.10749 0.27739 0.46492
 N698 N 0.09029 0.29669 0.44532
 C699 C 0.08120 0.27164 0.42275
 C700 C 0.09326 0.23618 0.42924
 N701 N 0.10944 0.24108 0.45571
 H702 H 0.09061 0.20955 0.41610
 N703 N 0.10328 0.85082 0.59275
 N704 N 0.08612 0.83670 0.61523
 C705 C 0.08228 0.79923 0.60818
 C706 C 0.09782 0.79068 0.58081
 N707 N 0.11058 0.82361 0.57203
 H708 H 0.10005 0.76325 0.56873
 N709 N 0.91421 0.85275 0.42528
 N710 N 0.92898 0.84161 0.39958
 C711 C 0.92136 0.80476 0.39369
 C712 C 0.90151 0.79358 0.41702
 N713 N 0.89774 0.82430 0.43619
 H714 H 0.89056 0.76614 0.41974
 N715 N 0.93878 0.12785 0.57088
 N716 N 0.95398 0.14152 0.59547
 C717 C 0.94884 0.17957 0.59676
 C718 C 0.93003 0.18882 0.57236
 N719 N 0.92422 0.15582 0.55678
 H720 H 0.91960 0.21627 0.56792
 N721 N 0.45211 0.15549 0.25986
 N722 N 0.43350 0.14191 0.28139
 C723 C 0.41946 0.11133 0.26816
 C724 C 0.42994 0.10641 0.23801
 N725 N 0.45027 0.13450 0.23377
 H726 H 0.42357 0.08453 0.22092
 N727 N 0.57541 0.18824 0.75088
 N728 N 0.59735 0.17523 0.73202
 C729 C 0.59266 0.13731 0.72810
 C730 C 0.56736 0.12738 0.74525
 N731 N 0.55731 0.15991 0.75911
 H732 H 0.55819 0.09905 0.74865
 N733 N 0.41109 0.93776 0.82793
 N734 N 0.38962 0.95074 0.80924
 C735 C 0.39206 0.93089 0.78191
 C736 C 0.41567 0.90476 0.78465
 N737 N 0.42682 0.91013 0.81367
 H738 H 0.42509 0.88550 0.76695
 N739 N 0.57603 0.83133 0.23213
 N740 N 0.59720 0.84383 0.25184
 C741 C 0.60163 0.88110 0.24588
 C742 C 0.58241 0.89120 0.22187
 N743 N 0.56679 0.85929 0.21409
 H744 H 0.57900 0.91922 0.21220
 N745 N 0.42022 0.14849 0.90265
 N746 N 0.39784 0.16005 0.92149
 C747 C 0.39635 0.19862 0.92011
 C748 C 0.41897 0.21024 0.89964
 N749 N 0.43314 0.17815 0.88937
 H750 H 0.42433 0.23880 0.89219
 N751 N 0.60043 0.85468 0.88835
 N752 N 0.62417 0.83628 0.89977
 C753 C 0.61572 0.79948 0.90278
 C754 C 0.58581 0.79585 0.89258
 N755 N 0.57725 0.83100 0.88388
 H756 H 0.57146 0.77068 0.89233
 N757 N 0.40912 0.86288 0.09351
 N758 N 0.38522 0.84869 0.07821
 C759 C 0.38644 0.81022 0.08061
 C760 C 0.41200 0.80144 0.09798
 N761 N 0.42542 0.83488 0.10542
 H762 H 0.42032 0.77369 0.10472
 N763 N 0.57765 0.13452 0.08155
 N764 N 0.59979 0.14871 0.06410
 C765 C 0.59627 0.18707 0.06494
 C766 C 0.57133 0.19595 0.08345
 N767 N 0.56040 0.16246 0.09336
 H768 H 0.56314 0.22405 0.09061
 N769 N 0.18691 0.05273 0.55328
 N770 N 0.20434 0.03441 0.57331
 C771 C 0.22664 0.05887 0.58224
 C772 C 0.22235 0.09283 0.56708
 N773 N 0.19735 0.08778 0.54932
 H774 H 0.23552 0.11892 0.56935
 N775 N 0.76025 0.14141 0.45015
 N776 N 0.73898 0.12908 0.43050
 C777 C 0.75089 0.09902 0.41422
 C778 C 0.78042 0.09318 0.42484
 N779 N 0.78518 0.12021 0.44720
 H780 H 0.79678 0.07155 0.41743
 N781 N 0.76474 0.82600 0.58612
 N782 N 0.74480 0.84127 0.60623
 C783 C 0.74365 0.87910 0.60066
 C784 C 0.76365 0.88656 0.57664
 N785 N 0.77630 0.85280 0.56827
 H786 H 0.76885 0.91388 0.56653
 N787 N 0.22346 0.83325 0.40700
 N788 N 0.24098 0.84919 0.38563
 C789 C 0.24410 0.88637 0.39427
 C790 C 0.22785 0.89279 0.42149
 N791 N 0.21536 0.85904 0.42859
 H792 H 0.22531 0.91930 0.43483
 N793 N 0.07824 0.40861 0.84407
 N794 N 0.05966 0.38343 0.83042
 C795 C 0.06889 0.37944 0.80040
 C796 C 0.09390 0.40268 0.79611
 N797 N 0.09899 0.42028 0.82389
 H798 H 0.10707 0.40646 0.77495
 N799 N 0.14469 0.57158 0.25134
 N800 N 0.12703 0.59146 0.27087
 C801 C 0.10464 0.60732 0.25379
 C802 C 0.10951 0.59657 0.22266
 N803 N 0.13465 0.57416 0.22232
 H804 H 0.09527 0.60229 0.20265
 N805 N 0.92328 0.45317 0.18689
 N806 N 0.94163 0.43737 0.20746
 C807 C 0.92438 0.41371 0.22460
 C808 C 0.89470 0.41545 0.21367
 N809 N 0.89505 0.44048 0.19022
 H810 H 0.87447 0.40258 0.22348
 N811 N 0.93532 0.52660 0.79510
 N812 N 0.95260 0.54474 0.77481
 C813 C 0.93701 0.57621 0.76634
 C814 C 0.90941 0.57665 0.78224
 N815 N 0.90937 0.54528 0.79985
 H816 H 0.89060 0.59656 0.78018
 N817 N 0.83625 0.58551 0.92743
 N818 N 0.82001 0.61014 0.94475
 C819 C 0.79470 0.61851 0.92821
 C820 C 0.79625 0.59863 0.90003
 N821 N 0.82233 0.57844 0.90048
 H822 H 0.77938 0.59726 0.88158
 N823 N 0.19502 0.44468 0.94016
 N824 N 0.21353 0.42423 0.95765
 C825 C 0.22858 0.39981 0.93816
 C826 C 0.21861 0.40584 0.90807
 N827 N 0.19773 0.43409 0.91037
 H828 H 0.22670 0.39233 0.88657
 N829 N 0.25568 0.54584 0.11843
 N830 N 0.27321 0.56492 0.09901
 C831 C 0.25590 0.59292 0.08692
 C832 C 0.22682 0.59021 0.09978
 N833 N 0.22780 0.56048 0.11926
 H834 H 0.20673 0.60703 0.09472
 N835 N 0.74706 0.42035 0.15132
 N836 N 0.72803 0.39766 0.13570
 C837 C 0.74102 0.38938 0.10767
 C838 C 0.76902 0.40786 0.10678
 N839 N 0.77173 0.42687 0.13441
 H840 H 0.78513 0.40902 0.08761
 N841 N 0.91058 0.84398 0.58824
 N842 N 0.92665 0.82919 0.61124
 C843 C 0.92345 0.79078 0.60910
 C844 C 0.90474 0.78262 0.58369
 N845 N 0.89731 0.81651 0.57142
 H846 H 0.89679 0.75505 0.57511
 N847 N 0.91619 0.15140 0.40713
 N848 N 0.92987 0.17065 0.38493
 C849 C 0.92414 0.20814 0.39057
 C850 C 0.90610 0.21114 0.41733
 N851 N 0.90186 0.17503 0.42680
 H852 H 0.89739 0.23666 0.42907
 N853 N 0.08159 0.14437 0.58181
 N854 N 0.06775 0.15417 0.60842
 C855 C 0.07678 0.19013 0.61612
 C856 C 0.09679 0.20191 0.59321
 N857 N 0.09902 0.17271 0.57235
 H858 H 0.10886 0.22878 0.59172
 N859 N 0.06429 0.82096 0.45947
 N860 N 0.04533 0.80276 0.44016
 C861 C 0.06170 0.79207 0.41461
 C862 C 0.09134 0.80464 0.41893
 N863 N 0.09193 0.82258 0.44705
 H864 H 0.11120 0.79813 0.40464
 N865 N 0.53942 0.87379 0.74607
 N866 N 0.55700 0.88770 0.72392
 C867 C 0.57359 0.91631 0.73708
 C868 C 0.56518 0.91968 0.76839
 N869 N 0.54394 0.89254 0.77285
 H870 H 0.57393 0.93905 0.78630
 N871 N 0.44306 0.84528 0.25410
 N872 N 0.42408 0.86007 0.27530
 C873 C 0.41268 0.89267 0.26353
 C874 C 0.42561 0.89745 0.23433
 N875 N 0.44431 0.86739 0.22948
 H876 H 0.42224 0.92051 0.21825
 N877 N 0.59279 0.16103 0.22211
 N878 N 0.61455 0.14739 0.24024
 C879 C 0.60767 0.11042 0.24522
 C880 C 0.58105 0.10172 0.22937
 N881 N 0.57259 0.13404 0.21527
 H882 H 0.56913 0.07464 0.22801
 N883 N 0.41044 0.18135 0.75533
 N884 N 0.38913 0.16654 0.73668
 C885 C 0.39540 0.12884 0.73333
 C886 C 0.42107 0.12099 0.75063
 N887 N 0.42972 0.15438 0.76394
 H888 H 0.43191 0.09354 0.75397
 N889 N 0.56480 0.85662 0.07036
 N890 N 0.58640 0.84225 0.05176
 C891 C 0.58903 0.80478 0.05826
 C892 C 0.56820 0.79666 0.08144
 N893 N 0.55365 0.82966 0.08831
 H894 H 0.56494 0.77001 0.09336
 N895 N 0.41171 0.13396 0.10078
 N896 N 0.38761 0.14717 0.08573
 C897 C 0.39074 0.18551 0.08474
 C898 C 0.41760 0.19541 0.09979
 N899 N 0.42992 0.16245 0.10941
 H900 H 0.42702 0.22370 0.10377
 N901 N 0.57728 0.15186 0.89602
 N902 N 0.60052 0.16450 0.91310
 C903 C 0.60071 0.20298 0.91120
 C904 C 0.57662 0.21352 0.89234
 N905 N 0.56265 0.18085 0.88345
 H906 H 0.57004 0.24190 0.88535
 N907 N 0.43296 0.86550 0.93558
 N908 N 0.40974 0.85006 0.95071
 C909 C 0.40942 0.81255 0.94260
 C910 C 0.43319 0.80547 0.92208
 N911 N 0.44732 0.83920 0.91826
 H912 H 0.43824 0.77905 0.90938
 N913 N 0.76963 0.82480 0.41971
 N914 N 0.75207 0.83899 0.39764
 C915 C 0.75031 0.87703 0.40329
 C916 C 0.76748 0.88585 0.42950
 N917 N 0.77916 0.85244 0.43895
 H918 H 0.77178 0.91375 0.44007
 N919 N 0.24278 0.81852 0.57316
 N920 N 0.26317 0.83088 0.59387
 C921 C 0.26518 0.86905 0.59064
 C922 C 0.24525 0.87983 0.56753
 N923 N 0.23172 0.84748 0.55728
 H924 H 0.24012 0.90845 0.55992
 N925 N 0.23855 0.17704 0.43211
 N926 N 0.25910 0.16281 0.41234
 C927 C 0.24897 0.12807 0.40276
 C928 C 0.22124 0.12152 0.41722
 N929 N 0.21573 0.15275 0.43543
 H930 H 0.20780 0.09557 0.41662
 N931 N 0.82901 0.06462 0.58578
 N932 N 0.81017 0.05272 0.60768
 C933 C 0.78471 0.07438 0.60616
 C934 C 0.78876 0.10048 0.58256
 N935 N 0.81665 0.09323 0.57054
 H936 H 0.77265 0.12116 0.57387
 N937 N 0.90173 0.60899 0.16110
 N938 N 0.92047 0.63298 0.17586
 C939 C 0.91912 0.62484 0.20652
 C940 C 0.89866 0.59524 0.21014
 N941 N 0.88833 0.58631 0.18129
 H942 H 0.89188 0.58162 0.23153
 N943 N 0.84810 0.41156 0.75257
 N944 N 0.86414 0.38780 0.73441
 C945 C 0.88753 0.37483 0.75176
 C946 C 0.88510 0.39123 0.78136
 N947 N 0.86028 0.41399 0.78083
 H948 H 0.90111 0.38931 0.80052
 N949 N 0.14656 0.55526 0.74712
 N950 N 0.13126 0.57731 0.72793
 C951 C 0.10819 0.59352 0.74453
 C952 C 0.10997 0.58063 0.77488
 N953 N 0.13420 0.55681 0.77535
 H954 H 0.09481 0.58689 0.79435
 N955 N 0.07385 0.42521 0.17161
 N956 N 0.05689 0.40137 0.18783
 C957 C 0.07188 0.39502 0.21478
 C958 C 0.09871 0.41572 0.21449
 N959 N 0.09899 0.43409 0.18725
 H960 H 0.11611 0.41776 0.23238
   
