data_POSCAR
  _audit_creation_date              2014-09-24
  _audit_creation_method            'ToBaCCo'
  _symmetry_space_group_name_H-M    'P1'
  _symmetry_Int_Tables_number       1
  _symmetry_cell_setting            triclinic
  loop_
  _symmetry_equiv_pos_as_xyz
 x,y,z
_cell_length_a 37.3947
_cell_length_b 38.8846
_cell_length_c 40.8902
_cell_angle_alpha 90.058600
_cell_angle_beta 89.811900
_cell_angle_gamma 89.211800
loop_
  _atom_site_label
  _atom_site_type_symbol
  _atom_site_fract_x
  _atom_site_fract_y
  _atom_site_fract_z
C1 C 0.29979 0.29609 0.24483
 H2 H 0.30101 0.29579 0.27126
 C3 C 0.32394 0.31582 0.22695
 H4 H 0.34359 0.33093 0.23974
 C5 C 0.27254 0.27692 0.19599
 H6 H 0.25300 0.26129 0.18386
 C7 C 0.29582 0.29656 0.17721
 H8 H 0.29379 0.29593 0.15080
 N9 N 0.27438 0.27757 0.22921
 C10 C 0.18396 0.26772 0.29600
 H11 H 0.18064 0.24013 0.29551
 C12 C 0.16060 0.28831 0.31444
 H13 H 0.13965 0.27625 0.32851
 C14 C 0.21581 0.31671 0.27857
 H15 H 0.23706 0.32773 0.26424
 C16 C 0.19305 0.33828 0.29668
 H17 H 0.19706 0.36579 0.29603
 Zn18 Zn 0.24173 0.25210 0.25490
 N19 N 0.21124 0.28207 0.27897
 C20 C 0.26230 0.22430 0.31641
 N21 N 0.26849 0.22354 0.28361
 C22 C 0.29426 0.20264 0.27050
 C23 C 0.31449 0.18082 0.29054
 C24 C 0.28163 0.20265 0.33729
 C25 C 0.18960 0.24166 0.20700
 C26 C 0.16739 0.22303 0.18634
 C27 C 0.19061 0.17054 0.21022
 C28 C 0.21268 0.19018 0.23017
 N29 N 0.21218 0.22506 0.22787
 H30 H 0.24235 0.24160 0.32654
 H31 H 0.29887 0.20279 0.24436
 H32 H 0.33455 0.16398 0.27967
 H33 H 0.27630 0.20353 0.36333
 H34 H 0.18926 0.26947 0.20611
 H35 H 0.15056 0.23682 0.16917
 H36 H 0.19119 0.14283 0.21274
 H37 H 0.23000 0.17748 0.24759
 C38 C 0.16514 0.32409 0.31513
 C39 C 0.32173 0.31654 0.19270
 C40 C 0.16779 0.18690 0.18764
 C41 C 0.30800 0.18046 0.32438
 C42 C 0.80405 0.79439 0.22707
 H43 H 0.80467 0.79780 0.25333
 C44 C 0.82781 0.81235 0.20726
 H45 H 0.84690 0.82887 0.21907
 C46 C 0.77942 0.76683 0.18091
 H47 H 0.76059 0.74896 0.17075
 C48 C 0.80320 0.78368 0.16018
 H49 H 0.80096 0.77911 0.13418
 N50 N 0.77991 0.77281 0.21365
 C51 C 0.69469 0.76900 0.28697
 H52 H 0.69128 0.74149 0.28892
 C53 C 0.67429 0.79124 0.30661
 H54 H 0.65548 0.78060 0.32392
 C55 C 0.72406 0.81611 0.26257
 H56 H 0.74302 0.82584 0.24505
 C57 C 0.70430 0.83926 0.28176
 H58 H 0.70844 0.86659 0.27882
 Zn59 Zn 0.74842 0.74968 0.24226
 N60 N 0.71971 0.78163 0.26615
 C61 C 0.77377 0.72578 0.30401
 N62 N 0.77720 0.72307 0.27097
 C63 C 0.80240 0.70199 0.25722
 C64 C 0.82509 0.68216 0.27690
 C65 C 0.79558 0.70608 0.32458
 C66 C 0.69366 0.73620 0.19770
 C67 C 0.67014 0.71627 0.17949
 C68 C 0.69568 0.66533 0.20447
 C69 C 0.71863 0.68624 0.22227
 N70 N 0.71751 0.72096 0.21832
 H71 H 0.75431 0.74330 0.31457
 H72 H 0.80485 0.70065 0.23088
 H73 H 0.84482 0.66529 0.26559
 H74 H 0.79257 0.70856 0.35084
 H75 H 0.69313 0.76390 0.19528
 H76 H 0.65182 0.72883 0.16273
 H77 H 0.69685 0.63775 0.20804
 H78 H 0.73722 0.67465 0.23930
 C79 C 0.67946 0.82688 0.30455
 C80 C 0.82772 0.80742 0.17305
 C81 C 0.67111 0.68030 0.18262
 C82 C 0.82163 0.68396 0.31104
 C83 C 0.80721 0.29544 0.73539
 H84 H 0.80718 0.29828 0.76172
 C85 C 0.83028 0.31502 0.71628
 H86 H 0.84806 0.33296 0.72801
 C87 C 0.78441 0.26817 0.68813
 H88 H 0.76683 0.24960 0.67725
 C89 C 0.80737 0.28688 0.66814
 H90 H 0.80672 0.28303 0.64192
 N91 N 0.78432 0.27314 0.72107
 C92 C 0.70010 0.26403 0.79491
 H93 H 0.69853 0.23636 0.79714
 C94 C 0.67886 0.28520 0.81487
 H95 H 0.66156 0.27348 0.83283
 C96 C 0.72532 0.31259 0.76923
 H97 H 0.74293 0.32324 0.75103
 C98 C 0.70426 0.33470 0.78838
 H99 H 0.70607 0.36216 0.78454
 Zn100 Zn 0.75342 0.24778 0.74851
 N101 N 0.72360 0.27794 0.77338
 C102 C 0.77936 0.22092 0.80909
 N103 N 0.78286 0.22037 0.77605
 C104 C 0.80872 0.20096 0.76135
 C105 C 0.83219 0.18079 0.77994
 C106 C 0.80162 0.20055 0.82866
 C107 C 0.70052 0.23588 0.70210
 C108 C 0.67779 0.21683 0.68232
 C109 C 0.70149 0.16482 0.70680
 C110 C 0.72403 0.18490 0.72594
 N111 N 0.72338 0.21974 0.72302
 H112 H 0.75964 0.23749 0.82056
 H113 H 0.81104 0.20109 0.73497
 H114 H 0.85121 0.16486 0.76669
 H115 H 0.79833 0.20312 0.85482
 H116 H 0.70037 0.26365 0.70050
 H117 H 0.66062 0.23026 0.66517
 H118 H 0.70212 0.13716 0.70977
 H119 H 0.74189 0.17263 0.74321
 C120 C 0.68110 0.32115 0.81208
 C121 C 0.83039 0.31092 0.68218
 C122 C 0.67805 0.18074 0.68445
 C123 C 0.82899 0.17978 0.81447
 C124 C 0.30773 0.80008 0.73497
 H125 H 0.30680 0.80479 0.76104
 C126 C 0.33006 0.81962 0.71505
 H127 H 0.34635 0.83937 0.72593
 C128 C 0.28828 0.76800 0.68922
 H129 H 0.27247 0.74751 0.67925
 C130 C 0.31051 0.78664 0.66848
 H131 H 0.31093 0.78076 0.64259
 N132 N 0.28686 0.77533 0.72174
 C133 C 0.20152 0.76337 0.79389
 H134 H 0.20226 0.73567 0.79643
 C135 C 0.17689 0.78292 0.81197
 H136 H 0.15905 0.77011 0.82877
 C137 C 0.22432 0.81361 0.76911
 H138 H 0.24230 0.82544 0.75191
 C139 C 0.20023 0.83419 0.78684
 H140 H 0.20012 0.86177 0.78321
 Zn141 Zn 0.25705 0.74976 0.75007
 N142 N 0.22495 0.77891 0.77335
 C143 C 0.28613 0.73184 0.81206
 N144 N 0.28721 0.72543 0.77935
 C145 C 0.31059 0.70194 0.76648
 C146 C 0.33301 0.68267 0.78688
 C147 C 0.30844 0.71348 0.83332
 C148 C 0.20663 0.73255 0.70278
 C149 C 0.18524 0.71129 0.68380
 C150 C 0.20832 0.66229 0.71369
 C151 C 0.22953 0.68450 0.73190
 N152 N 0.22876 0.71888 0.72580
 H153 H 0.26802 0.75122 0.82175
 H154 H 0.31139 0.69785 0.74031
 H155 H 0.35118 0.66378 0.77628
 H156 H 0.30687 0.71848 0.85935
 H157 H 0.20607 0.76007 0.69884
 H158 H 0.16877 0.72270 0.66488
 H159 H 0.20910 0.63506 0.71917
 H160 H 0.24627 0.67420 0.75111
 C161 C 0.17625 0.81887 0.80876
 C162 C 0.33155 0.81300 0.68132
 C163 C 0.18601 0.67556 0.68901
 C164 C 0.33195 0.68825 0.82078
 C165 C 0.00312 -0.00098 0.00043
 C166 C -0.00492 0.50889 0.50533
 C167 C 0.50205 0.00104 0.49863
 C168 C 0.49697 0.49246 0.00340
 C169 C 0.11576 -0.17004 -0.16609
 C170 C 0.09272 -0.15045 -0.14624
 C171 C 0.10475 -0.12048 -0.13112
 C172 C 0.14006 -0.10987 -0.13659
 C173 C 0.16303 -0.12930 -0.15656
 C174 C 0.15125 -0.15976 -0.17129
 N175 N 0.08110 -0.10181 -0.10967
 N176 N 0.09169 -0.07594 -0.09347
 C177 C 0.06904 -0.05716 -0.07131
 C178 C 0.08394 -0.03089 -0.05278
 C179 C 0.06330 -0.01279 -0.02990
 C180 C 0.02709 -0.02115 -0.02423
 C181 C 0.01175 -0.04609 -0.04490
 C182 C 0.03259 -0.06440 -0.06765
 H183 H 0.10581 -0.19318 -0.17743
 H184 H 0.06557 -0.15888 -0.14228
 H185 H 0.15005 -0.08680 -0.12518
 H186 H 0.19032 -0.12093 -0.15981
 H187 H 0.11179 -0.02441 -0.05610
 H188 H 0.07600 0.00815 -0.01728
 H189 H -0.01643 -0.05182 -0.04291
 H190 H 0.02022 -0.08409 -0.08235
 C191 C 0.10448 0.33978 0.33774
 C192 C 0.08234 0.36011 0.35772
 C193 C 0.09649 0.38732 0.37570
 C194 C 0.13318 0.39429 0.37321
 C195 C 0.15535 0.37399 0.35325
 C196 C 0.14130 0.34637 0.33543
 N197 N 0.07333 0.40694 0.39680
 N198 N 0.08471 0.43191 0.41380
 C199 C 0.06202 0.45121 0.43554
 C200 C 0.07662 0.47823 0.45334
 C201 C 0.05569 0.49696 0.47559
 C202 C 0.01960 0.48834 0.48145
 C203 C 0.00468 0.46233 0.46176
 C204 C 0.02569 0.44363 0.43951
 H205 H 0.09275 0.31899 0.32399
 H206 H 0.05410 0.35453 0.35938
 H207 H 0.14481 0.41513 0.38695
 H208 H 0.18365 0.37945 0.35235
 H209 H 0.10439 0.48491 0.44981
 H210 H 0.06801 0.51852 0.48757
 H211 H -0.02336 0.45615 0.46407
 H212 H 0.01355 0.42326 0.42551
 C213 C 0.67779 -0.12135 0.34117
 C214 C 0.65988 -0.09931 0.36292
 C215 C 0.62387 -0.10442 0.37055
 C216 C 0.60572 -0.13185 0.35593
 C217 C 0.62364 -0.15401 0.33425
 C218 C 0.65993 -0.14906 0.32671
 N219 N 0.60670 -0.08190 0.39366
 N220 N 0.57382 -0.08459 0.40124
 C221 C 0.55689 -0.06251 0.42489
 C222 C 0.52047 -0.06630 0.43125
 C223 C 0.50333 -0.04581 0.45474
 C224 C 0.52250 -0.02171 0.47346
 C225 C 0.55888 -0.01680 0.46543
 C226 C 0.57595 -0.03728 0.44181
 H227 H 0.70586 -0.11715 0.33624
 H228 H 0.67419 -0.07836 0.37412
 H229 H 0.57783 -0.13632 0.36143
 H230 H 0.60908 -0.17491 0.32324
 H231 H 0.50528 -0.08521 0.41792
 H232 H 0.47494 -0.04908 0.45873
 H233 H 0.57431 0.00320 0.47679
 H234 H 0.60400 -0.03324 0.43670
 C235 C 0.67470 0.37541 -0.15474
 C236 C 0.65534 0.39697 -0.13361
 C237 C 0.62129 0.38783 -0.12279
 C238 C 0.60639 0.35694 -0.13378
 C239 C 0.62555 0.33549 -0.15524
 C240 C 0.66008 0.34435 -0.16586
 N241 N 0.60257 0.41027 -0.10060
 N242 N 0.57375 0.40160 -0.08638
 C243 C 0.55510 0.42423 -0.06431
 C244 C 0.52642 0.41162 -0.04618
 C245 C 0.50790 0.43286 -0.02414
 C246 C 0.51807 0.46739 -0.01925
 C247 C 0.54584 0.48023 -0.03912
 C248 C 0.56457 0.45883 -0.06085
 H249 H 0.70142 0.38281 -0.16185
 H250 H 0.66714 0.42067 -0.12523
 H251 H 0.57993 0.34947 -0.12595
 H252 H 0.61317 0.31213 -0.16371
 H253 H 0.51828 0.38519 -0.04926
 H254 H 0.48510 0.42213 -0.01170
 H255 H 0.55323 0.50701 -0.03754
 H256 H 0.58615 0.46945 -0.07518
 C257 C -0.11446 0.14889 -0.17814
 C258 C -0.09166 0.12888 -0.15864
 C259 C -0.10245 0.11822 -0.12763
 C260 C -0.13620 0.12836 -0.11588
 C261 C -0.15878 0.14905 -0.13486
 C262 C -0.14868 0.15978 -0.16671
 N263 N -0.07869 0.09742 -0.10835
 N264 N -0.09000 0.07995 -0.08424
 C265 C -0.06663 0.05980 -0.06402
 C266 C -0.08128 0.03453 -0.04404
 C267 C -0.05945 0.01460 -0.02368
 C268 C -0.02231 0.02065 -0.02154
 C269 C -0.00777 0.04566 -0.04266
 C270 C -0.02961 0.06504 -0.06356
 H271 H -0.10388 0.15716 -0.20142
 H272 H -0.06544 0.12154 -0.16782
 H273 H -0.14515 0.12035 -0.09189
 H274 H -0.18494 0.15475 -0.12477
 H275 H -0.10975 0.02983 -0.04471
 H276 H -0.07209 -0.00576 -0.01016
 H277 H 0.02070 0.05037 -0.04270
 H278 H -0.01764 0.08436 -0.07900
 C279 C -0.11775 0.66131 0.32673
 C280 C -0.09550 0.64206 0.34738
 C281 C -0.10991 0.62386 0.37370
 C282 C -0.14700 0.62528 0.37936
 C283 C -0.16922 0.64488 0.35900
 C284 C -0.15481 0.66304 0.33247
 N285 N -0.08637 0.60464 0.39458
 N286 N -0.09809 0.58407 0.41617
 C287 C -0.07476 0.56541 0.43767
 C288 C -0.08897 0.53964 0.45738
 C289 C -0.06712 0.52118 0.47896
 C290 C -0.03051 0.52907 0.48235
 C291 C -0.01631 0.55432 0.46133
 C292 C -0.03814 0.57243 0.43948
 H293 H -0.10597 0.67534 0.30663
 H294 H -0.06695 0.64127 0.34285
 H295 H -0.15876 0.61153 0.39964
 H296 H -0.19772 0.64560 0.36378
 H297 H -0.11706 0.53349 0.45566
 H298 H -0.07920 0.50041 0.49238
 H299 H 0.01189 0.56023 0.46210
 H300 H -0.02641 0.59203 0.42421
 C301 C 0.31093 0.13827 0.37062
 C302 C 0.33025 0.11639 0.39135
 C303 C 0.36742 0.11319 0.38830
 C304 C 0.38516 0.13186 0.36384
 C305 C 0.36581 0.15347 0.34284
 C306 C 0.32852 0.15705 0.34616
 N307 N 0.38644 0.09097 0.41032
 N308 N 0.42045 0.08993 0.41139
 C309 C 0.43958 0.06764 0.43325
 C310 C 0.47660 0.07081 0.43581
 C311 C 0.49607 0.04968 0.45704
 C312 C 0.47894 0.02501 0.47679
 C313 C 0.44169 0.02095 0.47275
 C314 C 0.42220 0.04239 0.45170
 H315 H 0.28217 0.14027 0.37347
 H316 H 0.31627 0.10205 0.41001
 H317 H 0.41389 0.12974 0.36095
 H318 H 0.38004 0.16784 0.32436
 H319 H 0.49042 0.08977 0.42129
 H320 H 0.52479 0.05264 0.45820
 H321 H 0.42738 0.00083 0.48516
 H322 H 0.39366 0.03883 0.44944
 C323 C 0.37388 0.68331 -0.13166
 C324 C 0.39503 0.66356 -0.11046
 C325 C 0.39705 0.62777 -0.11391
 C326 C 0.37815 0.61188 -0.13931
 C327 C 0.35739 0.63164 -0.16079
 C328 C 0.35484 0.66751 -0.15702
 N329 N 0.41808 0.60817 -0.09119
 N330 N 0.41682 0.57550 -0.09001
 C331 C 0.43770 0.55573 -0.06732
 C332 C 0.43057 0.52082 -0.06358
 C333 C 0.44963 0.50103 -0.04092
 C334 C 0.47613 0.51578 -0.02092
 C335 C 0.48468 0.55060 -0.02661
 C336 C 0.46520 0.57047 -0.04900
 H337 H 0.37261 0.71095 -0.12842
 H338 H 0.40954 0.67611 -0.09104
 H339 H 0.37937 0.58425 -0.14254
 H340 H 0.34276 0.61882 -0.17998
 H341 H 0.40989 0.50896 -0.07804
 H342 H 0.44334 0.47405 -0.03860
 H343 H 0.50670 0.56276 -0.01435
 H344 H 0.47199 0.59722 -0.05229
 C345 C -0.13735 -0.18762 0.12190
 C346 C -0.11482 -0.16895 0.10137
 C347 C -0.10382 -0.13606 0.11019
 C348 C -0.11473 -0.12229 0.14038
 C349 C -0.13662 -0.14111 0.16131
 C350 C -0.14884 -0.17405 0.15234
 N351 N -0.08219 -0.11689 0.08794
 N352 N -0.07831 -0.08459 0.09109
 C353 C -0.05693 -0.06494 0.06907
 C354 C -0.06111 -0.02925 0.06882
 C355 C -0.04181 -0.00935 0.04677
 C356 C -0.01773 -0.02464 0.02411
 C357 C -0.01191 -0.06060 0.02631
 C358 C -0.03189 -0.08055 0.04797
 H359 H -0.14463 -0.21318 0.11415
 H360 H -0.10630 -0.17998 0.07824
 H361 H -0.10652 -0.09685 0.14776
 H362 H -0.14528 -0.12880 0.18376
 H363 H -0.07988 -0.01683 0.08540
 H364 H -0.04609 0.01825 0.04697
 H365 H 0.00827 -0.07369 0.01185
 H366 H -0.02737 -0.10810 0.04859
 C367 C -0.12627 0.31664 0.63568
 C368 C -0.10484 0.33669 0.61538
 C369 C -0.10318 0.37229 0.61999
 C370 C -0.12262 0.38766 0.64574
 C371 C -0.14370 0.36757 0.66632
 C372 C -0.14600 0.33192 0.66128
 N373 N -0.08217 0.39226 0.59789
 N374 N -0.08358 0.42498 0.59777
 C375 C -0.06287 0.44500 0.57548
 C376 C -0.06986 0.48026 0.57308
 C377 C -0.05117 0.50026 0.55063
 C378 C -0.02523 0.48541 0.52950
 C379 C -0.01677 0.45014 0.53382
 C380 C -0.03584 0.43009 0.55603
 H381 H -0.12734 0.28917 0.63148
 H382 H -0.08991 0.32455 0.59567
 H383 H -0.12168 0.41513 0.64984
 H384 H -0.15886 0.37999 0.68573
 H385 H -0.09020 0.49221 0.58839
 H386 H -0.05736 0.52751 0.54931
 H387 H 0.00485 0.43772 0.52058
 H388 H -0.02918 0.40301 0.55823
 C389 C 0.37573 -0.18297 0.63531
 C390 C 0.39706 -0.16371 0.61426
 C391 C 0.39768 -0.12784 0.61678
 C392 C 0.37710 -0.11132 0.64113
 C393 C 0.35601 -0.13060 0.66244
 C394 C 0.35488 -0.16660 0.65956
 N395 N 0.41909 -0.10896 0.59413
 N396 N 0.41830 -0.07626 0.59268
 C397 C 0.43976 -0.05780 0.56972
 C398 C 0.43497 -0.02226 0.56673
 C399 C 0.45485 -0.00376 0.54389
 C400 C 0.47958 -0.02050 0.52281
 C401 C 0.48573 -0.05611 0.52764
 C402 C 0.46562 -0.07457 0.55029
 H403 H 0.37568 -0.21069 0.63279
 H404 H 0.41290 -0.17673 0.59567
 H405 H 0.37722 -0.08360 0.64359
 H406 H 0.34000 -0.11733 0.68075
 H407 H 0.41563 -0.00886 0.58204
 H408 H 0.45067 0.02380 0.54238
 H409 H 0.50644 -0.06998 0.51445
 H410 H 0.47064 -0.10192 0.55287
 C411 C 0.38289 0.33845 0.17927
 C412 C 0.40570 0.35819 0.15990
 C413 C 0.39192 0.37840 0.13443
 C414 C 0.35492 0.37865 0.12849
 C415 C 0.33220 0.35861 0.14754
 C416 C 0.34595 0.33825 0.17306
 N417 N 0.41595 0.39768 0.11442
 N418 N 0.40457 0.41955 0.09364
 C419 C 0.42799 0.43816 0.07252
 C420 C 0.41373 0.46464 0.05333
 C421 C 0.43539 0.48254 0.03148
 C422 C 0.47184 0.47338 0.02728
 C423 C 0.48625 0.44772 0.04808
 C424 C 0.46458 0.43011 0.07018
 H425 H 0.39418 0.32278 0.19864
 H426 H 0.43417 0.35768 0.16465
 H427 H 0.34361 0.39396 0.10890
 H428 H 0.30379 0.35916 0.14246
 H429 H 0.38568 0.47160 0.05548
 H430 H 0.42327 0.50374 0.01833
 H431 H 0.51439 0.44093 0.04676
 H432 H 0.47635 0.40998 0.08509
 C433 C 0.11055 0.17845 0.15652
 C434 C 0.08939 0.15947 0.13513
 C435 C 0.10179 0.12801 0.12261
 C436 C 0.13588 0.11572 0.13156
 C437 C 0.15724 0.13483 0.15263
 C438 C 0.14485 0.16644 0.16544
 N439 N 0.07959 0.10927 0.10059
 N440 N 0.08730 0.07863 0.09185
 C441 C 0.06577 0.05988 0.06930
 C442 C 0.07286 0.02488 0.06469
 C443 C 0.05259 0.00584 0.04274
 C444 C 0.02553 0.02164 0.02368
 C445 C 0.01782 0.05684 0.02945
 C446 C 0.03787 0.07574 0.05180
 H447 H 0.09986 0.20236 0.16628
 H448 H 0.06313 0.16918 0.12846
 H449 H 0.14621 0.09160 0.12195
 H450 H 0.18372 0.12509 0.15840
 H451 H 0.09397 0.01223 0.07840
 H452 H 0.05832 -0.02142 0.04021
 H453 H -0.00414 0.06995 0.01745
 H454 H 0.03151 0.10272 0.05541
 C455 C 0.17721 0.61978 0.65909
 C456 C 0.15681 0.59831 0.63931
 C457 C 0.12305 0.60901 0.62841
 C458 C 0.10948 0.64135 0.63804
 C459 C 0.12969 0.66272 0.65808
 C460 C 0.16395 0.65234 0.66864
 N461 N 0.10336 0.58684 0.60732
 N462 N 0.07455 0.59666 0.59348
 C463 C 0.05488 0.57462 0.57224
 C464 C 0.02604 0.58837 0.55476
 C465 C 0.00681 0.56788 0.53316
 C466 C 0.01645 0.53298 0.52803
 C467 C 0.04428 0.51899 0.54741
 C468 C 0.06370 0.53963 0.56872
 H469 H 0.20365 0.61113 0.66633
 H470 H 0.16758 0.57347 0.63198
 H471 H 0.08329 0.65008 0.63015
 H472 H 0.11834 0.68730 0.66545
 H473 H 0.01842 0.61514 0.55793
 H474 H -0.01600 0.57954 0.52116
 H475 H 0.05131 0.49194 0.54560
 H476 H 0.08541 0.52818 0.58257
 C477 C 0.61964 0.17216 0.65541
 C478 C 0.59769 0.15334 0.63463
 C479 C 0.60948 0.12189 0.62166
 C480 C 0.64367 0.10923 0.62982
 C481 C 0.66584 0.12819 0.65039
 C482 C 0.65416 0.15999 0.66334
 N483 N 0.58655 0.10385 0.59973
 N484 N 0.59365 0.07359 0.58951
 C485 C 0.57075 0.05635 0.56692
 C486 C 0.57673 0.02149 0.56028
 C487 C 0.55477 0.00408 0.53838
 C488 C 0.52716 0.02149 0.52131
 C489 C 0.52061 0.05643 0.52927
 C490 C 0.54231 0.07365 0.55148
 H491 H 0.60946 0.19617 0.66539
 H492 H 0.57134 0.16330 0.62859
 H493 H 0.65346 0.08505 0.61989
 H494 H 0.69241 0.11827 0.65554
 H495 H 0.59818 0.00766 0.57247
 H496 H 0.55945 -0.02317 0.53452
 H497 H 0.49822 0.07058 0.51907
 H498 H 0.53668 0.10050 0.55667
 C499 C 0.61100 0.66844 0.15804
 C500 C 0.58841 0.64809 0.13918
 C501 C 0.60122 0.61760 0.12489
 C502 C 0.63700 0.60743 0.12992
 C503 C 0.65957 0.62769 0.14885
 C504 C 0.64688 0.65850 0.16302
 N505 N 0.57765 0.59780 0.10499
 N506 N 0.58813 0.57054 0.09038
 C507 C 0.56499 0.55087 0.06998
 C508 C 0.57911 0.52240 0.05330
 C509 C 0.55778 0.50338 0.03214
 C510 C 0.52175 0.51304 0.02635
 C511 C 0.50723 0.54037 0.04522
 C512 C 0.52867 0.55946 0.06625
 H513 H 0.60032 0.69181 0.16896
 H514 H 0.56089 0.65618 0.13553
 H515 H 0.64759 0.58401 0.11906
 H516 H 0.68717 0.61955 0.15191
 H517 H 0.60685 0.51491 0.05672
 H518 H 0.56975 0.48087 0.02085
 H519 H 0.47920 0.54737 0.04309
 H520 H 0.51686 0.58090 0.07951
   
