data_POSCAR
  _audit_creation_date              2014-09-24
  _audit_creation_method            'ToBaCCo'
  _symmetry_space_group_name_H-M    'P1'
  _symmetry_Int_Tables_number       1
  _symmetry_cell_setting            triclinic
  loop_
  _symmetry_equiv_pos_as_xyz
 x,y,z
_cell_length_a 36.8645
_cell_length_b 24.4664
_cell_length_c 13.2545
_cell_angle_alpha 90.000900
_cell_angle_beta 89.999100
_cell_angle_gamma 89.998400
loop_
  _atom_site_label
  _atom_site_type_symbol
  _atom_site_fract_x
  _atom_site_fract_y
  _atom_site_fract_z
C1 C 0.72143 0.27337 0.55535
 C2 C 0.72161 0.27322 0.44888
 C3 C 0.75072 0.24970 0.39668
 C4 C 0.77977 0.22619 0.44926
 C5 C 0.77961 0.22623 0.55595
 C6 C 0.75045 0.24985 0.60813
 H7 H 0.75034 0.24991 0.69007
 H8 H 0.75069 0.24974 0.31477
 C9 C 0.22175 0.77355 0.55580
 C10 C 0.22159 0.77359 0.44949
 C11 C 0.25048 0.74988 0.39673
 C12 C 0.27951 0.72609 0.44888
 C13 C 0.27970 0.72594 0.55539
 C14 C 0.25076 0.74975 0.60814
 H15 H 0.25075 0.74979 0.69003
 H16 H 0.25036 0.74993 0.31488
 C17 C 0.27804 0.27294 -0.55375
 C18 C 0.27800 0.27308 -0.44746
 C19 C 0.24895 0.24973 -0.39470
 C20 C 0.21981 0.22613 -0.44686
 C21 C 0.21984 0.22600 -0.55358
 C22 C 0.24898 0.24943 -0.60613
 H23 H 0.24910 0.24939 -0.68802
 H24 H 0.24909 0.24995 -0.31280
 C25 C -0.22211 0.77339 -0.55343
 C26 C -0.22207 0.77324 -0.44714
 C27 C -0.25098 0.74933 -0.39476
 C28 C -0.27997 0.72552 -0.44731
 C29 C -0.28001 0.72567 -0.55402
 C30 C -0.25102 0.74966 -0.60619
 H31 H -0.25088 0.74990 -0.68809
 H32 H -0.25086 0.74929 -0.31286
 N33 N -0.03846 0.90394 -0.10772
 N34 N -0.06528 0.86908 -0.12265
 N35 N 0.03787 0.94200 -0.17758
 N36 N 0.06479 0.93426 -0.24167
 N37 N 0.03789 0.90399 -0.10759
 N38 N 0.06482 0.86930 -0.12205
 N39 N -0.03844 0.94199 -0.17765
 N40 N -0.06523 0.93410 -0.24212
 C41 C -0.08170 0.88867 -0.20645
 C42 C 0.08129 0.88896 -0.20564
 N43 N 0.03794 1.09780 -0.10777
 N44 N 0.06475 1.13268 -0.12283
 N45 N -0.03839 1.05974 -0.17758
 N46 N -0.06527 1.06750 -0.24177
 N47 N -0.03841 1.09776 -0.10762
 N48 N -0.06532 1.13250 -0.12222
 N49 N 0.03790 1.05974 -0.17768
 N50 N 0.06466 1.06763 -0.24224
 Mn51 Mn -0.00026 1.00087 -0.17875
 C52 C 0.08114 1.11307 -0.20666
 C53 C -0.08176 1.11283 -0.20586
 N54 N 0.03795 0.90396 0.10983
 N55 N 0.06476 0.86908 0.12487
 N56 N -0.03838 0.94201 0.17966
 N57 N -0.06525 0.93424 0.24385
 N58 N -0.03839 0.90398 0.10970
 N59 N -0.06529 0.86925 0.12429
 N60 N 0.03791 0.94202 0.17974
 N61 N 0.06467 0.93413 0.24430
 Mn62 Mn -0.00025 0.90332 0.00105
 C63 C 0.08115 0.88869 0.20870
 C64 C -0.08174 0.88891 0.20792
 N65 N -0.03847 1.09779 0.10988
 N66 N -0.06526 1.13270 0.12507
 N67 N 0.03785 1.05973 0.17967
 N68 N 0.06469 1.06750 0.24396
 N69 N 0.03788 1.09777 0.10973
 N70 N 0.06476 1.13253 0.12445
 N71 N -0.03843 1.05972 0.17976
 N72 N -0.06515 1.06763 0.24443
 Mn73 Mn -0.00027 1.09843 0.00105
 Mn74 Mn -0.00026 1.00087 0.18082
 Cl75 Cl -0.00026 1.00088 0.00104
 C76 C -0.08161 1.11309 0.20895
 C77 C 0.08118 1.11285 0.20813
 N78 N 0.53851 0.59604 -0.11063
 N79 N 0.56537 0.63084 -0.12538
 N80 N 0.46218 0.55806 -0.18062
 N81 N 0.43532 0.56592 -0.24492
 N82 N 0.46217 0.59609 -0.11065
 N83 N 0.43530 0.63090 -0.12536
 N84 N 0.53849 0.55802 -0.18059
 N85 N 0.56531 0.56584 -0.24494
 C86 C 0.58178 0.61120 -0.20909
 C87 C 0.41884 0.61132 -0.20908
 N88 N 0.46224 0.40227 -0.11064
 N89 N 0.43530 0.36759 -0.12519
 N90 N 0.53857 0.44026 -0.18064
 N91 N 0.56544 0.43245 -0.24489
 N92 N 0.53859 0.40223 -0.11067
 N93 N 0.56549 0.36747 -0.12536
 N94 N 0.46226 0.44030 -0.18058
 N95 N 0.43536 0.43260 -0.24471
 Mn96 Mn 0.50037 0.49916 -0.18175
 C97 C 0.41885 0.38729 -0.20878
 C98 C 0.58195 0.38708 -0.20906
 N99 N 0.46226 0.59606 0.10679
 N100 N 0.43545 0.63093 0.12174
 N101 N 0.53856 0.55801 0.17674
 N102 N 0.56530 0.56595 0.24137
 N103 N 0.53860 0.59606 0.10682
 N104 N 0.56539 0.63098 0.12192
 N105 N 0.46229 0.55801 0.17669
 N106 N 0.43553 0.56586 0.24118
 Mn107 Mn 0.50039 0.59671 -0.00193
 C108 C 0.41908 0.61128 0.20550
 C109 C 0.58176 0.61140 0.20579
 N110 N 0.53850 0.40226 0.10681
 N111 N 0.56533 0.36743 0.12174
 N112 N 0.46218 0.44031 0.17673
 N113 N 0.43536 0.43250 0.24115
 N114 N 0.46214 0.40225 0.10683
 N115 N 0.43527 0.36745 0.12173
 N116 N 0.53846 0.44031 0.17670
 N117 N 0.56523 0.43251 0.24116
 Mn118 Mn 0.50037 0.40160 -0.00193
 Mn119 Mn 0.50037 0.49916 0.17782
 Cl120 Cl 0.50038 0.49915 -0.00195
 C121 C 0.58170 0.38711 0.20549
 C122 C 0.41886 0.38710 0.20548
 C123 C 0.30769 0.29680 0.39007
 C124 C 0.33277 0.31703 0.34514
 C125 C 0.36249 0.34107 0.29461
 C126 C 0.38810 0.36191 0.25307
 C127 C -0.19265 0.79772 0.39075
 C128 C -0.16767 0.81832 0.34620
 C129 C -0.13804 0.84269 0.29622
 C130 C -0.11246 0.86370 0.25512
 C131 C 0.69214 0.70276 0.39222
 C132 C 0.66727 0.68227 0.34673
 C133 C 0.63778 0.65792 0.29568
 C134 C 0.61234 0.63684 0.25377
 C135 C 0.19193 1.20333 0.39295
 C136 C 0.16698 1.18304 0.34772
 C137 C 0.13741 1.15893 0.29708
 C138 C 0.11187 1.13805 0.25557
 C139 C 0.69334 0.29620 -0.39194
 C140 C 0.66822 0.31664 -0.34740
 C141 C 0.63845 0.34091 -0.29743
 C142 C 0.61278 0.36187 -0.25634
 C143 C 0.19233 0.79780 -0.38805
 C144 C 0.16735 0.81838 -0.34345
 C145 C 0.13769 0.84277 -0.29360
 C146 C 0.11208 0.86378 -0.25267
 C147 C 0.30770 0.70287 -0.39191
 C148 C 0.33275 0.68222 -0.34740
 C149 C 0.36245 0.65774 -0.29749
 C150 C 0.38807 0.63664 -0.25640
 C151 C -0.19254 1.20353 -0.39030
 C152 C -0.16762 1.18318 -0.34504
 C153 C -0.13804 1.15898 -0.29452
 C154 C -0.11248 1.13804 -0.25316
 C155 C 0.69223 0.70251 -0.39386
 C156 C 0.66737 0.68195 -0.34868
 C157 C 0.63789 0.65756 -0.29810
 C158 C 0.61241 0.63651 -0.25661
 C159 C 0.19185 1.20356 -0.39309
 C160 C 0.16688 1.18335 -0.34756
 C161 C 0.13730 1.15928 -0.29646
 C162 C 0.11179 1.13839 -0.25455
 C163 C 0.30760 0.29703 -0.39161
 C164 C 0.33268 0.31733 -0.34702
 C165 C 0.36240 0.34141 -0.29699
 C166 C 0.38805 0.36222 -0.25589
 C167 C -0.19254 0.79746 -0.39097
 C168 C -0.16755 0.81797 -0.34610
 C169 C -0.13792 0.84230 -0.29563
 C170 C -0.11238 0.86333 -0.25411
 C171 C 0.30885 0.70205 0.39193
 C172 C 0.33367 0.68171 0.34637
 C173 C 0.36311 0.65754 0.29523
 C174 C 0.38853 0.63659 0.25331
 C175 C -0.19222 1.20355 0.39578
 C176 C -0.16725 1.18334 0.35030
 C177 C -0.13769 1.15929 0.29908
 C178 C -0.11222 1.13842 0.25701
 C179 C 0.69217 0.29700 0.39196
 C180 C 0.66727 0.31714 0.34638
 C181 C 0.63777 0.34109 0.29520
 C182 C 0.61230 0.36189 0.25326
 C183 C 0.19198 0.79776 0.39362
 C184 C 0.16696 0.81819 0.34877
 C185 C 0.13733 0.84242 0.29817
 C186 C 0.11180 0.86338 0.25650
   
