data_POSCAR
  _audit_creation_date              2014-09-24
  _audit_creation_method            'ToBaCCo'
  _symmetry_space_group_name_H-M    'P1'
  _symmetry_Int_Tables_number       1
  _symmetry_cell_setting            triclinic
  loop_
  _symmetry_equiv_pos_as_xyz
 x,y,z
_cell_length_a 49.2770
_cell_length_b 49.2467
_cell_length_c 44.3240
_cell_angle_alpha 90.037700
_cell_angle_beta 90.008300
_cell_angle_gamma 89.946400
loop_
  _atom_site_label
  _atom_site_type_symbol
  _atom_site_fract_x
  _atom_site_fract_y
  _atom_site_fract_z
C1 C 0.08451 0.28917 -0.01573
 C2 C 0.08449 0.28791 0.01516
 C3 C 0.05752 0.28795 0.02413
 N4 N 0.04117 0.28922 -0.00030
 C5 C 0.05755 0.28987 -0.02473
 C6 C 0.04872 0.28723 0.05448
 C7 C 0.02127 0.28816 0.06391
 C8 C 0.01311 0.29120 0.09368
 C9 C -0.01475 0.29119 0.09372
 C10 C -0.02304 0.28812 0.06395
 N11 N -0.00090 0.28595 0.04601
 C12 C -0.05055 0.28713 0.05453
 C13 C -0.05936 0.28786 0.02410
 C14 C -0.08635 0.28785 0.01507
 C15 C -0.08636 0.28911 -0.01579
 C16 C -0.05938 0.28975 -0.02483
 N17 N -0.04302 0.28909 -0.00036
 C18 C -0.05058 0.28961 -0.05527
 C19 C -0.02304 0.28918 -0.06466
 C20 C -0.01469 0.28494 -0.09424
 C21 C 0.01315 0.28499 -0.09416
 C22 C 0.02130 0.28926 -0.06457
 N23 N -0.00091 0.29236 -0.04684
 C24 C 0.04877 0.28974 -0.05510
 H25 H 0.10238 0.28923 -0.02992
 H26 H 0.10235 0.28707 0.02936
 H27 H -0.00095 0.29805 -0.02436
 H28 H 0.02589 0.29343 0.11338
 H29 H -0.02747 0.29340 0.11348
 H30 H -0.10422 0.28705 0.02925
 H31 H -0.10425 0.28919 -0.02998
 H32 H 0.02593 0.28174 -0.11370
 H33 H -0.00091 0.28099 0.02333
 H34 H -0.02736 0.28164 -0.11386
 C35 C 0.58521 0.78880 0.51521
 C36 C 0.58521 0.79012 0.48432
 C37 C 0.55823 0.79088 0.47535
 N38 N 0.54189 0.79021 0.49980
 C39 C 0.55825 0.78886 0.52422
 C40 C 0.54941 0.79085 0.44499
 C41 C 0.52192 0.79045 0.43557
 C42 C 0.51367 0.78629 0.40599
 C43 C 0.48582 0.78623 0.40602
 C44 C 0.47761 0.79036 0.43563
 N45 N 0.49978 0.79350 0.45339
 C46 C 0.45014 0.79065 0.44510
 C47 C 0.44136 0.79066 0.47548
 C48 C 0.41441 0.78981 0.48450
 C49 C 0.41446 0.78849 0.51539
 C50 C 0.44143 0.78865 0.52435
 N51 N 0.45775 0.79005 0.49991
 C52 C 0.45027 0.78793 0.55470
 C53 C 0.47773 0.78893 0.56409
 C54 C 0.48596 0.79201 0.59384
 C55 C 0.51384 0.79206 0.59381
 C56 C 0.52203 0.78901 0.56404
 N57 N 0.49986 0.78676 0.54615
 C58 C 0.54947 0.78811 0.55458
 H59 H 0.60308 0.78791 0.52939
 H60 H 0.60306 0.79019 0.47011
 H61 H 0.49986 0.78175 0.52348
 H62 H 0.52639 0.78309 0.38639
 H63 H 0.47308 0.78298 0.38646
 H64 H 0.39653 0.78980 0.47031
 H65 H 0.39662 0.78754 0.52960
 H66 H 0.52661 0.79432 0.61352
 H67 H 0.49978 0.79911 0.47590
 H68 H 0.47321 0.79423 0.61358
 C69 C 1.08628 0.71227 -0.01510
 C70 C 1.08629 0.71097 0.01576
 C71 C 1.05931 0.71030 0.02479
 N72 N 1.04295 0.71099 0.00031
 C73 C 1.05930 0.71226 -0.02414
 C74 C 1.05050 0.71039 0.05522
 C75 C 1.02295 0.71080 0.06463
 C76 C 1.01461 0.71498 0.09422
 C77 C 0.98677 0.71492 0.09415
 C78 C 0.97862 0.71071 0.06455
 N79 N 1.00082 0.70765 0.04681
 C80 C 0.95115 0.71026 0.05508
 C81 C 0.94237 0.71017 0.02471
 C82 C 0.91541 0.71087 0.01570
 C83 C 0.91544 0.71217 -0.01519
 C84 C 0.94241 0.71213 -0.02415
 N85 N 0.95876 0.71084 0.00029
 C86 C 0.95122 0.71288 -0.05449
 C87 C 0.97867 0.71197 -0.06393
 C88 C 0.98683 0.70897 -0.09371
 C89 C 1.01469 0.70901 -0.09376
 C90 C 1.02299 0.71204 -0.06399
 N91 N 1.00084 0.71416 -0.04604
 C92 C 1.05049 0.71303 -0.05457
 H93 H 1.10415 0.71310 -0.02927
 H94 H 1.10417 0.71088 0.02995
 H95 H 1.00085 0.71908 -0.02335
 H96 H 1.02728 0.71824 0.11384
 H97 H 0.97400 0.71813 0.11370
 H98 H 0.89753 0.71080 0.02989
 H99 H 0.89759 0.71302 -0.02939
 H100 H 1.02741 0.70684 -0.11353
 H101 H 1.00087 0.70201 0.02431
 H102 H 0.97404 0.70677 -0.11342
 C103 C 0.41476 0.21022 0.51528
 C104 C 0.41484 0.21150 0.48439
 C105 C 0.44182 0.21136 0.47548
 N106 N 0.45812 0.21001 0.49995
 C107 C 0.44170 0.20940 0.52435
 C108 C 0.45070 0.21209 0.44515
 C109 C 0.47817 0.21117 0.43580
 C110 C 0.48645 0.20818 0.40605
 C111 C 0.51433 0.20820 0.40614
 C112 C 0.52247 0.21119 0.43593
 N113 N 0.50028 0.21335 0.45379
 C114 C 0.54989 0.21212 0.44544
 C115 C 0.55865 0.21129 0.47582
 C116 C 0.58560 0.21132 0.48487
 C117 C 0.58556 0.20993 0.51575
 C118 C 0.55858 0.20918 0.52468
 N119 N 0.54225 0.20991 0.50020
 C120 C 0.54972 0.20917 0.55503
 C121 C 0.52222 0.20958 0.56440
 C122 C 0.51393 0.21372 0.59397
 C123 C 0.48608 0.21381 0.59389
 C124 C 0.47790 0.20971 0.56427
 N125 N 0.50010 0.20657 0.54655
 C126 C 0.45044 0.20944 0.55474
 H127 H 0.39686 0.21021 0.52944
 H128 H 0.39701 0.21242 0.47015
 H129 H 0.50013 0.20099 0.52403
 H130 H 0.47374 0.20599 0.38629
 H131 H 0.52713 0.20601 0.38644
 H132 H 0.60348 0.21221 0.47072
 H133 H 0.60340 0.20982 0.53000
 H134 H 0.47331 0.21704 0.61344
 H135 H 0.50023 0.21829 0.47647
 H136 H 0.52663 0.21688 0.61360
 C137 C 0.71358 -0.08577 -0.01586
 C138 C 0.71240 -0.08591 0.01500
 C139 C 0.71114 -0.05896 0.02416
 N140 N 0.71138 -0.04250 -0.00023
 C141 C 0.71294 -0.05875 -0.02477
 C142 C 0.71094 -0.05026 0.05465
 C143 C 0.71087 -0.02272 0.06417
 C144 C 0.71442 -0.01442 0.09388
 C145 C 0.71424 0.01343 0.09390
 C146 C 0.71060 0.02164 0.06423
 N147 N 0.70798 -0.00054 0.04636
 C148 C 0.71039 0.04914 0.05481
 C149 C 0.71064 0.05805 0.02448
 C150 C 0.71186 0.08506 0.01569
 C151 C 0.71324 0.08520 -0.01517
 C152 C 0.71273 0.05825 -0.02440
 N153 N 0.71106 0.04179 -0.00008
 C154 C 0.71326 0.04956 -0.05486
 C155 C 0.71191 0.02206 -0.06432
 C156 C 0.70823 0.01388 -0.09403
 C157 C 0.70820 -0.01399 -0.09411
 C158 C 0.71187 -0.02230 -0.06444
 N159 N 0.71442 -0.00016 -0.04651
 C160 C 0.71325 -0.04983 -0.05515
 H161 H 0.71473 -0.10359 -0.03012
 H162 H 0.71271 -0.10385 0.02911
 H163 H 0.71999 -0.00023 -0.02399
 H164 H 0.71736 -0.02713 0.11353
 H165 H 0.71703 0.02618 0.11356
 H166 H 0.71205 0.10287 0.03001
 H167 H 0.71442 0.10313 -0.02922
 H168 H 0.70561 -0.02670 -0.11383
 H169 H 0.70296 -0.00051 0.02369
 H170 H 0.70566 0.02668 -0.11367
 C171 C 0.21078 0.41457 0.48495
 C172 C 0.20937 0.41467 0.51583
 C173 C 0.20854 0.44168 0.52474
 N174 N 0.20925 0.45797 0.50025
 C175 C 0.21070 0.44152 0.47588
 C176 C 0.20850 0.45058 0.55508
 C177 C 0.20890 0.47809 0.56449
 C178 C 0.21302 0.48637 0.59408
 C179 C 0.21312 0.51424 0.59404
 C180 C 0.20906 0.52243 0.56443
 N181 N 0.20592 0.50024 0.54667
 C182 C 0.20885 0.54992 0.55494
 C183 C 0.20884 0.55862 0.52454
 C184 C 0.20968 0.58557 0.51545
 C185 C 0.21096 0.58543 0.48456
 C186 C 0.21078 0.55842 0.47567
 N187 N 0.20942 0.54215 0.50015
 C188 C 0.21148 0.54949 0.44534
 C189 C 0.21054 0.52201 0.43596
 C190 C 0.20753 0.51374 0.40621
 C191 C 0.20757 0.48584 0.40625
 C192 C 0.21059 0.47769 0.43602
 N193 N 0.21274 0.49989 0.45391
 C194 C 0.21154 0.45024 0.44550
 H195 H 0.21175 0.39666 0.47082
 H196 H 0.20930 0.39683 0.53009
 H197 H 0.21771 0.49995 0.47659
 H198 H 0.21616 0.47365 0.61369
 H199 H 0.21635 0.52700 0.61360
 H200 H 0.20969 0.60349 0.52959
 H201 H 0.21188 0.60325 0.47030
 H202 H 0.20538 0.47303 0.38654
 H203 H 0.20037 0.50019 0.52415
 H204 H 0.20532 0.52646 0.38646
 C205 C 0.28831 0.91465 0.01546
 C206 C 0.28953 0.91445 -0.01542
 C207 C 0.29027 0.94139 -0.02463
 N208 N 0.28969 0.95791 -0.00028
 C209 C 0.28843 0.94169 0.02426
 C210 C 0.29016 0.95006 -0.05510
 C211 C 0.28988 0.97760 -0.06457
 C212 C 0.28570 0.98589 -0.09417
 C213 C 0.28586 1.01374 -0.09416
 C214 C 0.29013 1.02196 -0.06459
 N215 N 0.29313 0.99978 -0.04680
 C216 C 0.29069 1.04947 -0.05518
 C217 C 0.29081 1.05840 -0.02485
 C218 C 0.29013 1.08543 -0.01602
 C219 C 0.28877 1.08560 0.01484
 C220 C 0.28875 1.05865 0.02404
 N221 N 0.29007 1.04215 -0.00031
 C222 C 0.28788 1.04996 0.05449
 C223 C 0.28882 1.02246 0.06395
 C224 C 0.29187 1.01421 0.09373
 C225 C 0.29185 0.98634 0.09372
 C226 C 0.28880 0.97811 0.06397
 N227 N 0.28663 1.00027 0.04604
 C228 C 0.28779 0.95064 0.05458
 H229 H 0.28747 0.89687 0.02976
 H230 H 0.28954 0.89647 -0.02949
 H231 H 0.28168 1.00021 0.02336
 H232 H 0.28237 0.97317 -0.11375
 H233 H 0.28267 1.02649 -0.11374
 H234 H 0.29025 1.10323 -0.03033
 H235 H 0.28791 1.10356 0.02891
 H236 H 0.29405 0.97358 0.11345
 H237 H 0.29880 0.99982 -0.02431
 H238 H 0.29409 1.02698 0.11347
 C239 C 0.78954 0.41465 0.48418
 C240 C 0.78808 0.41454 0.51506
 C241 C 0.78812 0.44149 0.52419
 N242 N 0.78956 0.45794 0.49986
 C243 C 0.79034 0.44167 0.47533
 C244 C 0.78725 0.45018 0.55459
 C245 C 0.78819 0.47763 0.56413
 C246 C 0.79123 0.48576 0.59392
 C247 C 0.79128 0.51365 0.59402
 C248 C 0.78826 0.52195 0.56429
 N249 N 0.78603 0.49984 0.54629
 C250 C 0.78734 0.54945 0.55497
 C251 C 0.78802 0.55838 0.52466
 C252 C 0.78786 0.58540 0.51583
 C253 C 0.78913 0.58555 0.48493
 C254 C 0.78996 0.55861 0.47579
 N255 N 0.78937 0.54213 0.50014
 C256 C 0.78995 0.54992 0.44538
 C257 C 0.78973 0.52244 0.43583
 C258 C 0.78566 0.51427 0.40620
 C259 C 0.78580 0.48640 0.40610
 C260 C 0.78994 0.47810 0.43566
 N261 N 0.79291 0.50023 0.45354
 C262 C 0.79040 0.45058 0.44501
 H263 H 0.78966 0.39682 0.46988
 H264 H 0.78714 0.39662 0.52915
 H265 H 0.79849 0.50017 0.47605
 H266 H 0.79342 0.47293 0.61359
 H267 H 0.79351 0.52636 0.61380
 H268 H 0.78695 0.60321 0.53012
 H269 H 0.78912 0.60348 0.47083
 H270 H 0.78266 0.47370 0.38646
 H271 H 0.78106 0.49993 0.52362
 H272 H 0.78240 0.52705 0.38667
 O273 O 0.29210 0.25441 0.26035
 O274 O 0.23407 0.27114 0.21135
 O275 O 0.25472 0.29165 0.26060
 O276 O 0.27145 0.23390 0.21107
 O277 O 0.24507 0.20724 0.23844
 O278 O 0.22834 0.26500 0.28798
 O279 O 0.20769 0.24449 0.23872
 O280 O 0.26571 0.22775 0.28772
 Cu281 Cu 0.26575 0.26546 0.23308
 Cu282 Cu 0.23404 0.23343 0.26598
 C283 C 0.28865 0.23842 0.28244
 C284 C 0.21113 0.26050 0.21664
 C285 C 0.23886 0.28803 0.28278
 C286 C 0.26093 0.21087 0.21627
 O287 O 0.70790 0.74588 0.26077
 O288 O 0.76570 0.72867 0.21164
 O289 O 0.74515 0.70849 0.26106
 O290 O 0.72845 0.76605 0.21131
 O291 O 0.75501 0.79275 0.23844
 O292 O 0.77171 0.73519 0.28821
 O293 O 0.79227 0.75538 0.23878
 O294 O 0.73446 0.77259 0.28790
 Cu295 Cu 0.73412 0.73458 0.23346
 Cu296 Cu 0.76604 0.76667 0.26607
 C297 C 0.71147 0.76199 0.28275
 C298 C 0.78870 0.73926 0.21680
 C299 C 0.76111 0.71217 0.28315
 C300 C 0.73906 0.78907 0.21635
 O301 O 0.79260 0.24479 0.23856
 O302 O 0.73494 0.22845 0.28817
 O303 O 0.75513 0.20772 0.23884
 O304 O 0.77241 0.26552 0.28791
 O305 O 0.74586 0.29220 0.26069
 O306 O 0.72858 0.23440 0.21161
 O307 O 0.70840 0.25513 0.26095
 O308 O 0.76605 0.27147 0.21134
 Cu309 Cu 0.76645 0.23393 0.26612
 Cu310 Cu 0.73455 0.26600 0.23340
 C311 C 0.78901 0.26074 0.21646
 C312 C 0.71198 0.23916 0.28304
 C313 C 0.73908 0.21135 0.21683
 C314 C 0.76191 0.28857 0.28271
 O315 O 0.27131 0.76570 0.21171
 O316 O 0.25458 0.70785 0.26085
 O317 O 0.23417 0.72830 0.21150
 O318 O 0.29172 0.74525 0.26104
 O319 O 0.26497 0.77174 0.28826
 O320 O 0.20741 0.75479 0.23872
 O321 O 0.22783 0.73435 0.28807
 O322 O 0.24455 0.79219 0.23893
 Cu323 Cu 0.26564 0.73409 0.23353
 Cu324 Cu 0.23349 0.76594 0.26625
 C325 C 0.26062 0.78867 0.21692
 C326 C 0.23852 0.71138 0.28287
 C327 C 0.21112 0.73882 0.21663
 C328 C 0.28802 0.76123 0.28312
 O329 O 0.75546 0.20716 0.76159
 O330 O 0.77165 0.26499 0.71207
 O331 O 0.79240 0.24478 0.76143
 O332 O 0.73470 0.22739 0.71225
 O333 O 0.70794 0.25383 0.73953
 O334 O 0.76564 0.27122 0.78869
 O335 O 0.74489 0.29144 0.73934
 O336 O 0.72870 0.23360 0.78886
 Cu337 Cu 0.76625 0.23341 0.73409
 Cu338 Cu 0.73410 0.26519 0.76686
 C339 C 0.73949 0.21066 0.78371
 C340 C 0.76085 0.28793 0.71722
 C341 C 0.78872 0.26079 0.78349
 C342 C 0.71163 0.23783 0.71746
 O343 O 0.23408 0.72881 0.78887
 O344 O 0.29188 0.74532 0.73950
 O345 O 0.27157 0.76588 0.78893
 O346 O 0.25438 0.70825 0.73944
 O347 O 0.22793 0.73507 0.71227
 O348 O 0.24512 0.79269 0.76176
 O349 O 0.26542 0.77213 0.71234
 O350 O 0.20763 0.75562 0.76170
 Cu351 Cu 0.26565 0.73436 0.76692
 Cu352 Cu 0.23386 0.76658 0.73428
 C353 C 0.21115 0.73958 0.78374
 C354 C 0.28836 0.76136 0.71747
 C355 C 0.26110 0.78897 0.78382
 C356 C 0.23839 0.71198 0.71738
 O357 O 0.25426 0.29211 0.73876
 O358 O 0.27158 0.23446 0.78799
 O359 O 0.29173 0.25495 0.73857
 O360 O 0.23408 0.27159 0.78815
 O361 O 0.20753 0.24486 0.76102
 O362 O 0.26517 0.22822 0.71145
 O363 O 0.24502 0.20773 0.76086
 O364 O 0.22771 0.26538 0.71163
 Cu365 Cu 0.26559 0.26598 0.76611
 Cu366 Cu 0.23368 0.23385 0.73350
 C367 C 0.23819 0.28843 0.71678
 C368 C 0.26109 0.21140 0.78284
 C369 C 0.28814 0.23890 0.71654
 C370 C 0.21112 0.26091 0.78306
 O371 O 0.73459 0.77214 0.71178
 O372 O 0.79247 0.75553 0.76103
 O373 O 0.77184 0.73479 0.71193
 O374 O 0.75523 0.79288 0.76090
 O375 O 0.72870 0.76650 0.78843
 O376 O 0.74531 0.70840 0.73947
 O377 O 0.76595 0.72915 0.78857
 O378 O 0.70807 0.74576 0.73932
 Cu379 Cu 0.76621 0.76650 0.73363
 Cu380 Cu 0.73433 0.73479 0.76673
 C381 C 0.71161 0.76161 0.71711
 C382 C 0.78893 0.73968 0.78322
 C383 C 0.76124 0.71184 0.71732
 C384 C 0.73931 0.78945 0.78306
 C385 C 0.27680 0.11783 0.16539
 C386 C 0.25700 0.11125 0.13923
 C387 C 0.28132 0.10878 0.11772
 C388 C 0.30120 0.11502 0.14351
 C389 C 0.27481 0.14810 0.15728
 C390 C 0.29915 0.14565 0.13577
 C391 C 0.25496 0.14182 0.13147
 C392 C 0.27933 0.13905 0.10964
 C393 C 0.28436 0.08715 0.09527
 C394 C 0.28628 0.06963 0.07638
 C395 C 0.27059 0.17024 0.17889
 C396 C 0.26651 0.18868 0.19621
 H397 H 0.27571 0.10936 0.18855
 H398 H 0.23970 0.09686 0.14041
 H399 H 0.32025 0.10373 0.14819
 H400 H 0.31643 0.16005 0.13458
 H401 H 0.23590 0.15307 0.12673
 H402 H 0.28040 0.14753 0.08647
 C403 C 0.77662 0.61846 0.66714
 C404 C 0.75684 0.61198 0.64094
 C405 C 0.78121 0.60923 0.61954
 C406 C 0.80107 0.61535 0.64538
 C407 C 0.77494 0.64871 0.65890
 C408 C 0.79932 0.64598 0.63751
 C409 C 0.75512 0.64254 0.63304
 C410 C 0.77952 0.63949 0.61134
 C411 C 0.78409 0.58758 0.59715
 C412 C 0.78588 0.57009 0.57824
 C413 C 0.77082 0.67096 0.68035
 C414 C 0.76678 0.68950 0.69750
 H415 H 0.77539 0.61007 0.69034
 H416 H 0.73941 0.59775 0.64210
 H417 H 0.82000 0.60389 0.65017
 H418 H 0.81674 0.66021 0.63635
 H419 H 0.73617 0.65395 0.62820
 H420 H 0.78075 0.64787 0.58813
 C421 C 0.70168 0.85286 0.13422
 C422 C 0.69735 0.88324 0.14212
 C423 C 0.71813 0.89093 0.11776
 C424 C 0.72240 0.86092 0.10952
 C425 C 0.72494 0.85167 0.15728
 C426 C 0.74570 0.85941 0.13289
 C427 C 0.72068 0.88168 0.16554
 C428 C 0.74138 0.88973 0.14081
 C429 C 0.71489 0.91254 0.09534
 C430 C 0.71278 0.93006 0.07649
 C431 C 0.72930 0.82958 0.17889
 C432 C 0.73344 0.81119 0.19624
 H433 H 0.68540 0.83746 0.13174
 H434 H 0.67743 0.89329 0.14565
 H435 H 0.72307 0.85263 0.08623
 H436 H 0.76563 0.84939 0.12931
 H437 H 0.72001 0.88997 0.18883
 H438 H 0.75767 0.90513 0.14328
 C439 C 0.24545 0.36247 0.63760
 C440 C 0.22510 0.36180 0.61102
 C441 C 0.21597 0.39070 0.61929
 C442 C 0.23628 0.39168 0.64557
 C443 C 0.22322 0.35127 0.65845
 C444 C 0.21409 0.38016 0.66677
 C445 C 0.20291 0.35028 0.63217
 C446 C 0.19371 0.37954 0.64011
 C447 C 0.21256 0.41236 0.59703
 C448 C 0.21039 0.42987 0.57823
 C449 C 0.22786 0.32909 0.67981
 C450 C 0.23227 0.31062 0.69694
 H451 H 0.26677 0.35521 0.63679
 H452 H 0.22958 0.35451 0.58784
 H453 H 0.24994 0.40896 0.65082
 H454 H 0.20961 0.38744 0.68995
 H455 H 0.18925 0.33301 0.62690
 H456 H 0.17239 0.38683 0.64087
 C457 C 0.88183 0.27725 0.16563
 C458 C 0.88895 0.25694 0.14011
 C459 C 0.89088 0.28078 0.11789
 C460 C 0.88411 0.30117 0.14304
 C461 C 0.85166 0.27439 0.15748
 C462 C 0.85357 0.29824 0.13525
 C463 C 0.85848 0.25403 0.13230
 C464 C 0.86071 0.27792 0.10976
 C465 C 0.91243 0.28375 0.09541
 C466 C 0.92988 0.28561 0.07647
 C467 C 0.82957 0.27023 0.17909
 C468 C 0.81117 0.26622 0.19641
 H469 H 0.89026 0.27693 0.18886
 H470 H 0.90375 0.24000 0.14186
 H471 H 0.89492 0.32059 0.14718
 H472 H 0.83878 0.31518 0.13350
 H473 H 0.84770 0.23461 0.12811
 H474 H 0.85229 0.27823 0.08653
 C475 C 0.38136 0.77751 0.66690
 C476 C 0.38827 0.75742 0.64109
 C477 C 0.39049 0.78149 0.61921
 C478 C 0.38393 0.80166 0.64465
 C479 C 0.35117 0.77509 0.65868
 C480 C 0.35337 0.79917 0.63680
 C481 C 0.35777 0.75495 0.63322
 C482 C 0.36029 0.77906 0.61103
 C483 C 0.41210 0.78448 0.59679
 C484 C 0.42958 0.78635 0.57790
 C485 C 0.32902 0.77092 0.68023
 C486 C 0.31057 0.76688 0.69749
 H487 H 0.38977 0.77683 0.69012
 H488 H 0.40287 0.74029 0.64261
 H489 H 0.39495 0.82091 0.64907
 H490 H 0.33876 0.81629 0.63528
 H491 H 0.34678 0.73569 0.62874
 H492 H 0.35188 0.77973 0.58780
 C493 C 0.14665 0.70040 0.13576
 C494 C 0.11616 0.69731 0.14365
 C495 C 0.10919 0.71750 0.11840
 C496 C 0.13931 0.72051 0.11016
 C497 C 0.14847 0.72440 0.15783
 C498 C 0.14145 0.74455 0.13254
 C499 C 0.11834 0.72139 0.16609
 C500 C 0.11101 0.74149 0.14046
 C501 C 0.08759 0.71424 0.09601
 C502 C 0.07011 0.71217 0.07713
 C503 C 0.17058 0.72884 0.17936
 C504 C 0.18898 0.73309 0.19662
 H505 H 0.16156 0.68355 0.13407
 H506 H 0.10549 0.67785 0.14795
 H507 H 0.14768 0.72011 0.08691
 H508 H 0.15208 0.76402 0.12819
 H509 H 0.10997 0.72180 0.18934
 H510 H 0.09611 0.75834 0.14215
 C511 C 0.61927 0.23200 0.66391
 C512 C 0.61875 0.24407 0.63166
 C513 C 0.60954 0.21637 0.61944
 C514 C 0.60972 0.20422 0.65135
 C515 C 0.64886 0.22326 0.65884
 C516 C 0.63969 0.19554 0.64663
 C517 C 0.64863 0.23539 0.62691
 C518 C 0.63913 0.20763 0.61437
 C519 C 0.58793 0.21312 0.59706
 C520 C 0.57043 0.21102 0.57820
 C521 C 0.67101 0.22771 0.68033
 C522 C 0.68944 0.23200 0.69755
 H523 H 0.61135 0.24207 0.68452
 H524 H 0.60990 0.26399 0.62526
 H525 H 0.59346 0.19136 0.66113
 H526 H 0.64854 0.17562 0.65304
 H527 H 0.66487 0.24825 0.61707
 H528 H 0.64704 0.19758 0.59373
 C529 C 0.72428 0.11750 0.83435
 C530 C 0.74407 0.11098 0.86054
 C531 C 0.71972 0.10838 0.88198
 C532 C 0.69985 0.11454 0.85616
 C533 C 0.72604 0.14777 0.84255
 C534 C 0.70168 0.14518 0.86399
 C535 C 0.74588 0.14156 0.86840
 C536 C 0.72148 0.13865 0.89015
 C537 C 0.71674 0.08672 0.90438
 C538 C 0.71485 0.06920 0.92325
 C539 C 0.73014 0.16996 0.82101
 C540 C 0.73409 0.18843 0.80373
 H541 H 0.72547 0.10906 0.81117
 H542 H 0.76147 0.09668 0.85937
 H543 H 0.68088 0.10317 0.85139
 H544 H 0.68429 0.15948 0.86517
 H545 H 0.76485 0.15290 0.87322
 H546 H 0.72030 0.14709 0.91334
 C547 C 0.22252 0.61825 0.33318
 C548 C 0.24230 0.61160 0.35933
 C549 C 0.21796 0.60917 0.38080
 C550 C 0.19809 0.61546 0.35502
 C551 C 0.22450 0.64850 0.34139
 C552 C 0.20014 0.64608 0.36285
 C553 C 0.24433 0.64216 0.36719
 C554 C 0.21994 0.63942 0.38897
 C555 C 0.21493 0.58759 0.40320
 C556 C 0.21305 0.57014 0.42211
 C557 C 0.22876 0.67066 0.31991
 C558 C 0.23289 0.68914 0.30273
 H559 H 0.22362 0.60981 0.30998
 H560 H 0.25960 0.59718 0.35813
 H561 H 0.17905 0.60420 0.35029
 H562 H 0.18286 0.66051 0.36405
 H563 H 0.26338 0.65338 0.37197
 H564 H 0.21884 0.64786 0.41217
 C565 C 0.30016 0.85403 0.86390
 C566 C 0.30241 0.88462 0.85602
 C567 C 0.28273 0.89113 0.88191
 C568 C 0.28055 0.86091 0.89014
 C569 C 0.27568 0.85174 0.84257
 C570 C 0.25604 0.85830 0.86850
 C571 C 0.27785 0.88196 0.83432
 C572 C 0.25826 0.88883 0.86059
 C573 C 0.28608 0.91280 0.90425
 C574 C 0.28826 0.93035 0.92307
 C575 C 0.27118 0.82957 0.82107
 C576 C 0.26690 0.81114 0.80382
 H577 H 0.31735 0.83948 0.86503
 H578 H 0.32151 0.89571 0.85115
 H579 H 0.28170 0.85251 0.91334
 H580 H 0.23692 0.84725 0.87342
 H581 H 0.27670 0.89037 0.81113
 H582 H 0.24107 0.90338 0.85947
 C583 C 0.78026 0.38146 0.33282
 C584 C 0.75981 0.38934 0.35790
 C585 C 0.78337 0.39080 0.38054
 C586 C 0.80391 0.38328 0.35584
 C587 C 0.77647 0.35143 0.34119
 C588 C 0.80004 0.35288 0.36383
 C589 C 0.75597 0.35900 0.36592
 C590 C 0.77957 0.36077 0.38887
 C591 C 0.78659 0.41241 0.40292
 C592 C 0.78864 0.42990 0.42180
 C593 C 0.77202 0.32926 0.31974
 C594 C 0.76773 0.31079 0.30256
 H595 H 0.78050 0.38970 0.30952
 H596 H 0.74331 0.40458 0.35572
 H597 H 0.82365 0.39353 0.35197
 H598 H 0.81653 0.33763 0.36602
 H599 H 0.73621 0.34878 0.36984
 H600 H 0.77932 0.35252 0.41218
 C601 C 0.14643 0.29922 0.86377
 C602 C 0.11599 0.30253 0.85567
 C603 C 0.10880 0.28230 0.88080
 C604 C 0.13886 0.27907 0.88923
 C605 C 0.14826 0.27528 0.84162
 C606 C 0.14102 0.25509 0.86677
 C607 C 0.11819 0.27851 0.83316
 C608 C 0.11064 0.25837 0.85865
 C609 C 0.08710 0.28564 0.90305
 C610 C 0.06954 0.28781 0.92182
 C611 C 0.17046 0.27081 0.82021
 C612 C 0.18893 0.26659 0.80302
 H613 H 0.16140 0.31597 0.86563
 H614 H 0.10543 0.32207 0.85138
 H615 H 0.14711 0.27935 0.91254
 H616 H 0.15154 0.23554 0.87111
 H617 H 0.10995 0.27822 0.80985
 H618 H 0.09567 0.24162 0.85679
 C619 C 0.64096 0.75598 0.36592
 C620 C 0.63928 0.77951 0.38900
 C621 C 0.60928 0.78353 0.38065
 C622 C 0.61066 0.76004 0.35788
 C623 C 0.64863 0.77655 0.34130
 C624 C 0.61864 0.78056 0.33292
 C625 C 0.64726 0.80004 0.36408
 C626 C 0.61690 0.80413 0.35607
 C627 C 0.58765 0.78683 0.40301
 C628 C 0.57015 0.78896 0.42185
 C629 C 0.67079 0.77207 0.31983
 C630 C 0.68925 0.76778 0.30264
 H631 H 0.65109 0.73613 0.36975
 H632 H 0.64751 0.77912 0.41231
 H633 H 0.59536 0.74363 0.35557
 H634 H 0.61040 0.78094 0.30961
 H635 H 0.66256 0.81644 0.36639
 H636 H 0.60674 0.82396 0.35228
 C637 C 0.85107 0.70576 0.86831
 C638 C 0.88039 0.69672 0.86054
 C639 C 0.89133 0.71931 0.88111
 C640 C 0.86236 0.72828 0.88921
 C641 C 0.85190 0.72580 0.84178
 C642 C 0.86288 0.74836 0.86238
 C643 C 0.88086 0.71683 0.83363
 C644 C 0.89216 0.73936 0.85459
 C645 C 0.91299 0.71631 0.90347
 C646 C 0.93050 0.71444 0.92233
 C647 C 0.82969 0.73002 0.82032
 C648 C 0.81119 0.73411 0.80312
 H649 H 0.83392 0.69199 0.87371
 H650 H 0.88786 0.67545 0.86005
 H651 H 0.85501 0.73294 0.91231
 H652 H 0.85544 0.76964 0.86291
 H653 H 0.88821 0.71217 0.81053
 H654 H 0.90930 0.75313 0.84920
 C655 C 0.35382 0.20069 0.36307
 C656 C 0.38438 0.19809 0.35522
 C657 C 0.39096 0.21836 0.38054
 C658 C 0.36077 0.22090 0.38873
 C659 C 0.35161 0.22468 0.34106
 C660 C 0.35825 0.24492 0.36640
 C661 C 0.38180 0.22215 0.33283
 C662 C 0.38874 0.24234 0.35853
 C663 C 0.41257 0.21543 0.40298
 C664 C 0.43003 0.21361 0.42191
 C665 C 0.32943 0.22883 0.31953
 C666 C 0.31093 0.23287 0.30232
 H667 H 0.33921 0.18361 0.36469
 H668 H 0.39539 0.17880 0.35089
 H669 H 0.35238 0.22034 0.41196
 H670 H 0.34728 0.26422 0.37079
 H671 H 0.39020 0.22270 0.30961
 H672 H 0.40335 0.25943 0.35691
 C673 C 0.69970 0.86945 0.84514
 C674 C 0.70169 0.86608 0.87984
 C675 C 0.71939 0.89170 0.88129
 C676 C 0.71735 0.89546 0.84696
 C677 C 0.72566 0.85243 0.84168
 C678 C 0.74336 0.87807 0.84314
 C679 C 0.72769 0.84873 0.87602
 C680 C 0.74533 0.87467 0.87779
 C681 C 0.71650 0.91325 0.90381
 C682 C 0.71471 0.93066 0.92281
 C683 C 0.72978 0.83027 0.82012
 C684 C 0.73379 0.81176 0.80291
 H685 H 0.68099 0.86703 0.83145
 H686 H 0.68454 0.86141 0.89521
 H687 H 0.71306 0.91494 0.83531
 H688 H 0.76053 0.88275 0.82780
 H689 H 0.73198 0.82928 0.88774
 H690 H 0.76405 0.87705 0.89146
 C691 C 0.22336 0.38116 0.33352
 C692 C 0.19869 0.38426 0.35498
 C693 C 0.21829 0.39025 0.38110
 C694 C 0.24288 0.38751 0.36001
 C695 C 0.22488 0.35087 0.34165
 C696 C 0.24444 0.35691 0.36780
 C697 C 0.20028 0.35360 0.36274
 C698 C 0.21981 0.35996 0.38920
 C699 C 0.21519 0.41192 0.40350
 C700 C 0.21322 0.42946 0.42236
 C701 C 0.22915 0.32869 0.32009
 C702 C 0.23326 0.31023 0.30281
 H703 H 0.22485 0.38963 0.31038
 H704 H 0.17985 0.39577 0.34997
 H705 H 0.26036 0.40169 0.35913
 H706 H 0.26331 0.34544 0.37286
 H707 H 0.18281 0.33941 0.36362
 H708 H 0.21832 0.35150 0.41235
 C709 C 0.27950 0.11856 0.83285
 C710 C 0.30346 0.11658 0.85544
 C711 C 0.28324 0.10927 0.88051
 C712 C 0.25936 0.11088 0.85830
 C713 C 0.27602 0.14863 0.84127
 C714 C 0.25583 0.14127 0.86637
 C715 C 0.29990 0.14703 0.86349
 C716 C 0.27975 0.13934 0.88890
 C717 C 0.28663 0.08765 0.90283
 C718 C 0.28880 0.07016 0.92166
 C719 C 0.27140 0.17078 0.81986
 C720 C 0.26700 0.18922 0.80270
 H721 H 0.27935 0.11028 0.80955
 H722 H 0.32308 0.10616 0.85123
 H723 H 0.24275 0.09577 0.85642
 H724 H 0.23619 0.15165 0.87063
 H725 H 0.31651 0.16214 0.86537
 H726 H 0.27989 0.14762 0.91220
 C727 C 0.77873 0.61933 0.33360
 C728 C 0.80266 0.61723 0.35622
 C729 C 0.78238 0.61002 0.38129
 C730 C 0.75854 0.61177 0.35903
 C731 C 0.77540 0.64943 0.34198
 C732 C 0.75515 0.64218 0.36707
 C733 C 0.79925 0.64770 0.36424
 C734 C 0.77905 0.64013 0.38964
 C735 C 0.78573 0.58833 0.40358
 C736 C 0.78793 0.57076 0.42234
 C737 C 0.77097 0.67159 0.32048
 C738 C 0.76677 0.69002 0.30321
 H739 H 0.77856 0.61102 0.31031
 H740 H 0.82223 0.60671 0.35202
 H741 H 0.74184 0.59675 0.35714
 H742 H 0.73557 0.65266 0.37132
 H743 H 0.81595 0.66272 0.36614
 H744 H 0.77921 0.64843 0.41293
 C745 C 0.14532 0.70102 0.86322
 C746 C 0.13942 0.72030 0.89006
 C747 C 0.10909 0.71947 0.88209
 C748 C 0.11462 0.70012 0.85559
 C749 C 0.14837 0.72587 0.84256
 C750 C 0.11804 0.72504 0.83456
 C751 C 0.14279 0.74519 0.86909
 C752 C 0.11216 0.74431 0.86143
 C753 C 0.08752 0.71648 0.90455
 C754 C 0.07007 0.71459 0.92348
 C755 C 0.17050 0.73003 0.82100
 C756 C 0.18894 0.73407 0.80372
 H757 H 0.15920 0.68326 0.86371
 H758 H 0.14796 0.71832 0.91314
 H759 H 0.10277 0.68156 0.85031
 H760 H 0.10950 0.72703 0.81149
 H761 H 0.15460 0.76376 0.87442
 H762 H 0.09828 0.76207 0.86095
 C763 C 0.64633 0.20058 0.36265
 C764 C 0.64008 0.22000 0.38927
 C765 C 0.60981 0.21875 0.38114
 C766 C 0.61568 0.19926 0.35486
 C767 C 0.64918 0.22531 0.34178
 C768 C 0.61890 0.22406 0.33361
 C769 C 0.64326 0.24476 0.36809
 C770 C 0.61267 0.24347 0.36026
 C771 C 0.58816 0.21568 0.40349
 C772 C 0.57064 0.21375 0.42232
 C773 C 0.67135 0.22955 0.32028
 C774 C 0.68979 0.23363 0.30304
 H775 H 0.66042 0.18299 0.36339
 H776 H 0.64854 0.21829 0.41242
 H777 H 0.60407 0.18052 0.34969
 H778 H 0.61045 0.22578 0.31048
 H779 H 0.65483 0.26351 0.37330
 H780 H 0.59859 0.26106 0.35953
 C781 C 0.85500 0.25857 0.87102
 C782 C 0.88566 0.25595 0.86405
 C783 C 0.89073 0.28240 0.88155
 C784 C 0.86037 0.28507 0.88884
 C785 C 0.85145 0.27543 0.84213
 C786 C 0.85650 0.30189 0.85963
 C787 C 0.88181 0.27275 0.83482
 C788 C 0.88724 0.29929 0.85268
 C789 C 0.91232 0.28569 0.90395
 C790 C 0.92980 0.28780 0.92283
 C791 C 0.82933 0.27094 0.82062
 C792 C 0.81090 0.26663 0.80340
 H793 H 0.84151 0.24178 0.87835
 H794 H 0.89790 0.23711 0.86611
 H795 H 0.85181 0.29017 0.91131
 H796 H 0.84426 0.32073 0.85756
 H797 H 0.89038 0.26763 0.81236
 H798 H 0.90076 0.31607 0.84541
 C799 C 0.35769 0.75603 0.36732
 C800 C 0.38814 0.75875 0.35929
 C801 C 0.39018 0.78303 0.38094
 C802 C 0.36005 0.78036 0.38928
 C803 C 0.35079 0.77588 0.34170
 C804 C 0.35282 0.80017 0.36335
 C805 C 0.38092 0.77855 0.33333
 C806 C 0.38333 0.80292 0.35535
 C807 C 0.41184 0.78644 0.40322
 C808 C 0.42937 0.78866 0.42201
 C809 C 0.32862 0.77133 0.32027
 C810 C 0.31018 0.76701 0.30307
 H811 H 0.34692 0.73670 0.37202
 H812 H 0.40291 0.74176 0.35786
 H813 H 0.35172 0.78115 0.41253
 H814 H 0.33805 0.81715 0.36478
 H815 H 0.38925 0.77775 0.31008
 H816 H 0.39413 0.82223 0.35070
 C817 C 0.25520 0.85756 0.13223
 C818 C 0.25662 0.88815 0.14006
 C819 C 0.28127 0.89093 0.11909
 C820 C 0.27990 0.86065 0.11094
 C821 C 0.27469 0.85157 0.15845
 C822 C 0.29936 0.85433 0.13748
 C823 C 0.27606 0.88186 0.16663
 C824 C 0.30080 0.88500 0.14529
 C825 C 0.28432 0.91254 0.09671
 C826 C 0.28621 0.93000 0.07781
 C827 C 0.27041 0.82939 0.17990
 C828 C 0.26626 0.81091 0.19706
 H829 H 0.23640 0.84604 0.12708
 H830 H 0.23908 0.90230 0.14087
 H831 H 0.28151 0.85219 0.08779
 H832 H 0.31688 0.84017 0.13667
 H833 H 0.27444 0.89031 0.18978
 H834 H 0.31959 0.89655 0.15038
 C835 C 0.77788 0.38087 0.66665
 C836 C 0.80141 0.38287 0.64351
 C837 C 0.78070 0.39017 0.61889
 C838 C 0.75726 0.38852 0.64166
 C839 C 0.77434 0.35079 0.65834
 C840 C 0.75366 0.35812 0.63369
 C841 C 0.79779 0.35242 0.63557
 C842 C 0.77715 0.36008 0.61061
 C843 C 0.78370 0.41183 0.59651
 C844 C 0.78561 0.42938 0.57768
 C845 C 0.77022 0.32861 0.67990
 C846 C 0.76625 0.31015 0.69719
 H847 H 0.77815 0.38918 0.68993
 H848 H 0.82107 0.39331 0.64729
 H849 H 0.74062 0.40360 0.64392
 H850 H 0.73398 0.34772 0.62986
 H851 H 0.81442 0.33734 0.63330
 H852 H 0.77689 0.35178 0.58732
 C853 C 0.70017 0.14631 0.13679
 C854 C 0.72002 0.13918 0.11087
 C855 C 0.71748 0.10901 0.11918
 C856 C 0.69756 0.11576 0.14476
 C857 C 0.72442 0.14844 0.15844
 C858 C 0.72189 0.11827 0.16679
 C859 C 0.74431 0.14163 0.13283
 C860 C 0.74173 0.11116 0.14083
 C861 C 0.71423 0.08736 0.09685
 C862 C 0.71217 0.06985 0.07800
 C863 C 0.72891 0.17063 0.17986
 C864 C 0.73322 0.18912 0.19700
 H865 H 0.68313 0.16101 0.13538
 H866 H 0.71921 0.14751 0.08762
 H867 H 0.67830 0.10486 0.14939
 H868 H 0.72271 0.10994 0.19003
 H869 H 0.76357 0.15251 0.12815
 H870 H 0.75877 0.09645 0.14224
 C871 C 0.23889 0.62200 0.65917
 C872 C 0.21169 0.60715 0.65324
 C873 C 0.21658 0.60995 0.61915
 C874 C 0.24371 0.62446 0.62476
 C875 C 0.22373 0.64927 0.65856
 C876 C 0.22861 0.65203 0.62446
 C877 C 0.19658 0.63479 0.65298
 C878 C 0.20141 0.63722 0.61853
 C879 C 0.21316 0.58830 0.59681
 C880 C 0.21090 0.57074 0.57801
 C881 C 0.22827 0.67140 0.68010
 C882 C 0.23258 0.68982 0.69737
 H883 H 0.25435 0.61598 0.67612
 H884 H 0.20470 0.58843 0.66480
 H885 H 0.26305 0.61999 0.61292
 H886 H 0.23561 0.67072 0.61285
 H887 H 0.17725 0.63929 0.66484
 H888 H 0.18597 0.64323 0.60156
 C889 C 0.88175 0.72176 0.16683
 C890 C 0.88413 0.69756 0.14457
 C891 C 0.89111 0.71763 0.11921
 C892 C 0.88908 0.74174 0.14111
 C893 C 0.85164 0.72464 0.15840
 C894 C 0.85866 0.74467 0.13301
 C895 C 0.85365 0.70052 0.13650
 C896 C 0.86099 0.72052 0.11081
 C897 C 0.91280 0.71431 0.09695
 C898 C 0.93036 0.71216 0.07817
 C899 C 0.82942 0.72914 0.17979
 C900 C 0.81093 0.73345 0.19694
 H901 H 0.89003 0.72231 0.19012
 H902 H 0.89486 0.67816 0.14906
 H903 H 0.90390 0.75864 0.14275
 H904 H 0.84796 0.76409 0.12848
 H905 H 0.83883 0.68362 0.13485
 H906 H 0.85271 0.71997 0.08752
 C907 C 0.35862 0.24475 0.63319
 C908 C 0.38892 0.24083 0.64133
 C909 C 0.39040 0.21716 0.61879
 C910 C 0.36041 0.22103 0.61034
 C911 C 0.35097 0.22436 0.65798
 C912 C 0.35243 0.20068 0.63544
 C913 C 0.38095 0.22049 0.66647
 C914 C 0.38279 0.19674 0.64356
 C915 C 0.41209 0.21372 0.59655
 C916 C 0.42965 0.21147 0.57779
 C917 C 0.32879 0.22891 0.67939
 C918 C 0.31033 0.23319 0.69658
 H919 H 0.34845 0.26454 0.62914
 H920 H 0.40418 0.25729 0.64350
 H921 H 0.35222 0.22122 0.58700
 H922 H 0.33718 0.18422 0.63326
 H923 H 0.38915 0.22031 0.68980
 H924 H 0.39299 0.17696 0.64756
 C925 C 0.12002 0.28615 0.16581
 C926 C 0.12158 0.30404 0.13707
 C927 C 0.10864 0.28087 0.11886
 C928 C 0.10672 0.26305 0.14721
 C929 C 0.14809 0.27440 0.15819
 C930 C 0.13512 0.25126 0.13995
 C931 C 0.15001 0.29222 0.12983
 C932 C 0.13672 0.26913 0.11130
 C933 C 0.08697 0.28385 0.09651
 C934 C 0.06945 0.28570 0.07765
 C935 C 0.17031 0.27019 0.17964
 C936 C 0.18883 0.26610 0.19680
 H937 H 0.11341 0.29311 0.18847
 H938 H 0.11574 0.32578 0.13562
 H939 H 0.08867 0.25109 0.15410
 H940 H 0.14092 0.22951 0.14135
 H941 H 0.16806 0.30417 0.12292
 H942 H 0.14335 0.26217 0.08863
 C943 C 0.64224 0.75533 0.63286
 C944 C 0.61173 0.75761 0.64075
 C945 C 0.60934 0.78177 0.61900
 C946 C 0.63955 0.77953 0.61080
 C947 C 0.64872 0.77538 0.65843
 C948 C 0.64635 0.79955 0.63669
 C949 C 0.61851 0.77762 0.66667
 C950 C 0.61577 0.80186 0.64455
 C951 C 0.58771 0.78473 0.59661
 C952 C 0.57020 0.78658 0.57774
 C953 C 0.67089 0.77121 0.67995
 C954 C 0.68937 0.76715 0.69718
 H955 H 0.65336 0.73614 0.62828
 H956 H 0.59725 0.74041 0.64217
 H957 H 0.64795 0.78035 0.58758
 H958 H 0.66084 0.81675 0.63526
 H959 H 0.61012 0.77680 0.68988
 H960 H 0.60462 0.82103 0.64908
   
