data_POSCAR
  _audit_creation_date              2014-09-24
  _audit_creation_method            'ToBaCCo'
  _symmetry_space_group_name_H-M    'P1'
  _symmetry_Int_Tables_number       1
  _symmetry_cell_setting            triclinic
  loop_
  _symmetry_equiv_pos_as_xyz
 x,y,z
_cell_length_a 27.6867
_cell_length_b 27.4626
_cell_length_c 27.2738
_cell_angle_alpha 95.455000
_cell_angle_beta 91.679800
_cell_angle_gamma 90.506000
loop_
  _atom_site_label
  _atom_site_type_symbol
  _atom_site_fract_x
  _atom_site_fract_y
  _atom_site_fract_z
N1 N 0.57460 0.70433 0.61508
 N2 N 0.54624 0.67136 0.63180
 C3 C 0.50056 0.68775 0.63226
 C4 C 0.50056 0.73383 0.61596
 C5 C 0.54813 0.74336 0.60545
 H6 H 0.46997 0.66852 0.64538
 H7 H 0.56238 0.77597 0.59148
 Cu8 Cu 0.57222 0.61261 0.65644
 Cu9 Cu 0.64352 0.69381 0.60654
 Cu10 Cu 0.68389 0.57855 0.62661
 N11 N 0.60780 0.56640 0.69320
 N12 N 0.65247 0.55458 0.68265
 C13 C 0.66911 0.52354 0.71433
 C14 C 0.63267 0.51492 0.74608
 C15 C 0.59408 0.54270 0.73158
 H16 H 0.70472 0.50760 0.71359
 H17 H 0.55902 0.54619 0.74794
 N18 N 0.71888 0.62192 0.58680
 N19 N 0.70512 0.66701 0.58124
 C20 C 0.73542 0.68673 0.55052
 C21 C 0.76906 0.65193 0.53554
 C22 C 0.75766 0.61137 0.55944
 H23 H 0.73116 0.72232 0.53713
 H24 H 0.77532 0.57629 0.55602
 H25 H 0.63064 0.62054 0.59264
 H26 H 0.65577 0.64170 0.65558
 N27 N 0.92202 0.27864 0.08985
 N28 N 0.93847 0.29348 0.13452
 C29 C 0.97518 0.26470 0.14666
 C30 C 0.98267 0.23053 0.10688
 C31 C 0.94854 0.24070 0.07141
 H32 H 0.99609 0.26978 0.18090
 H33 H 0.94301 0.22145 0.03517
 Cu34 Cu 0.91323 0.35135 0.17117
 Cu35 Cu 0.86564 0.30783 0.06063
 Cu36 Cu 0.82719 0.41747 0.11887
 N37 N 0.89903 0.41787 0.19707
 N38 N 0.86383 0.44265 0.17813
 C39 C 0.85949 0.48578 0.20549
 C40 C 0.89442 0.48830 0.24299
 C41 C 0.91911 0.44485 0.23637
 H42 H 0.83320 0.51338 0.19852
 H43 H 0.94842 0.43315 0.25941
 N44 N 0.79528 0.38553 0.05846
 N45 N 0.80908 0.34290 0.03722
 C46 C 0.77835 0.32885 -0.00076
 C47 C 0.74432 0.36478 -0.00422
 C48 C 0.75601 0.40028 0.03376
 H49 H 0.78034 0.29492 -0.02418
 H50 H 0.73631 0.43342 0.04365
 H51 H 0.88505 0.37700 0.09270
 H52 H 0.83715 0.34350 0.12367
 N53 N 0.44115 0.19721 -0.08059
 N54 N 0.44589 0.19371 -0.12862
 C55 C 0.47767 0.22774 -0.14015
 C56 C 0.49421 0.25368 -0.09687
 C57 C 0.47079 0.23300 -0.05969
 H58 H 0.48835 0.23283 -0.17716
 H59 H 0.47389 0.24416 -0.02059
 Cu60 Cu 0.41126 0.14409 -0.17143
 Cu61 Cu 0.39419 0.15671 -0.05028
 Cu62 Cu 0.30441 0.10851 -0.13314
 N63 N 0.37486 0.09100 -0.20751
 N64 N 0.33158 0.07864 -0.19404
 C65 C 0.31433 0.04128 -0.22544
 C66 C 0.34928 0.02894 -0.25947
 C67 C 0.38721 0.06134 -0.24713
 H68 H 0.28013 0.02272 -0.22207
 H69 H 0.42142 0.06286 -0.26510
 N70 N 0.29514 0.12004 -0.06173
 N71 N 0.33053 0.13436 -0.02993
 C72 C 0.31416 0.13466 0.01611
 C73 C 0.26607 0.12067 0.01294
 C74 C 0.25510 0.11163 -0.03690
 H75 H 0.33524 0.14564 0.04940
 H76 H 0.22098 0.09860 -0.05380
 H77 H 0.37286 0.10332 -0.10681
 H78 H 0.35159 0.16727 -0.10963
 N79 N 0.07412 0.78918 0.37947
 N80 N 0.05756 0.80247 0.33715
 C81 C 0.01777 0.77579 0.32273
 C82 C 0.00838 0.74468 0.35834
 C83 C 0.04490 0.75416 0.39402
 H84 H -0.00329 0.77930 0.28923
 H85 H 0.05080 0.73610 0.42720
 Cu86 Cu 0.08845 0.85450 0.30559
 Cu87 Cu 0.13474 0.81549 0.40968
 Cu88 Cu 0.17205 0.92576 0.37010
 N89 N 0.10680 0.91805 0.28596
 N90 N 0.14074 0.94505 0.31022
 C91 C 0.14707 0.98634 0.28810
 C92 C 0.11473 0.98536 0.24843
 C93 C 0.08947 0.94178 0.24832
 H94 H 0.17219 1.01555 0.30074
 H95 H 0.06076 0.92833 0.22269
 N96 N 0.19938 0.89942 0.42954
 N97 N 0.18685 0.85640 0.44342
 C98 C 0.21408 0.84755 0.48335
 C99 C 0.24466 0.88726 0.49526
 C100 C 0.23418 0.91947 0.46077
 H101 H 0.21140 0.81509 0.50270
 H102 H 0.25160 0.95448 0.45810
 H103 H 0.11505 0.88236 0.38929
 H104 H 0.16461 0.85162 0.35380
 C105 C 0.08461 0.14690 0.13334
 N106 N 0.09426 0.11585 0.16810
 C107 C 0.13364 0.08670 0.16464
 N108 N 0.16424 0.08979 0.12704
 C109 C 0.15444 0.12044 0.09178
 N110 N 0.11434 0.14853 0.09478
 C111 C 0.42199 0.84749 0.62063
 N112 N 0.38251 0.83643 0.59064
 C113 C 0.34523 0.86823 0.58989
 N114 N 0.34686 0.91030 0.62050
 C115 C 0.38586 0.92111 0.65105
 N116 N 0.42375 0.89013 0.65020
 C117 C 0.91750 0.65199 0.39145
 N118 N 0.91094 0.61986 0.35062
 C119 C 0.87355 0.58722 0.34749
 N120 N 0.84275 0.58691 0.38519
 C121 C 0.84915 0.61871 0.42610
 N122 N 0.88678 0.65110 0.42931
 C123 C 0.57118 0.36346 -0.12438
 N124 N 0.60911 0.36511 -0.09148
 C125 C 0.64283 0.40152 -0.09042
 N126 N 0.63869 0.43609 -0.12270
 C127 C 0.60098 0.43436 -0.15587
 N128 N 0.56732 0.39814 -0.15648
 C129 C 0.01815 0.19473 0.10166
 C130 C 0.04457 0.18135 0.13991
 H131 H 0.02359 0.17655 0.06521
 H132 H 0.03644 0.19512 0.17725
 C133 C 0.45870 0.76610 0.61268
 C134 C 0.46359 0.81466 0.62068
 H135 H 0.42305 0.74956 0.60704
 H136 H 0.49875 0.83076 0.63096
 C137 C 0.97030 0.71079 0.35657
 C138 C 0.95802 0.68719 0.39520
 H139 H 0.94874 0.70490 0.32264
 H140 H 0.97568 0.69584 0.43095
 C141 C 0.52913 0.29469 -0.09131
 C142 C 0.53563 0.32316 -0.12778
 H143 H 0.54862 0.30231 -0.05636
 H144 H 0.51345 0.31745 -0.16127
 C145 C 0.10653 0.02328 0.21466
 C146 C 0.14255 0.05100 0.20057
 H147 H 0.07052 0.02633 0.19863
 H148 H 0.17946 0.04459 0.21239
 C149 C 0.63554 0.48384 -0.21630
 C150 C 0.59693 0.47032 -0.19224
 H151 H 0.67034 0.46807 -0.20831
 H152 H 0.56103 0.48173 -0.20263
 C153 C 0.34732 0.98732 0.70231
 C154 C 0.38748 0.96567 0.68548
 H155 H 0.31217 0.97201 0.69063
 H156 H 0.42254 0.97858 0.70021
 C157 C 0.90279 0.52747 0.28306
 C158 C 0.86606 0.55194 0.30396
 H159 H 0.93913 0.53320 0.29850
 H160 H 0.82924 0.54236 0.29199
 C161 C 0.23405 0.11611 0.05438
 C162 C 0.18649 0.12332 0.05013
 H163 H 0.25029 0.10937 0.08970
 H164 H 0.17098 0.13446 0.01607
 C165 C 0.80509 0.65546 0.49736
 C166 C 0.81589 0.61636 0.46678
 H167 H 0.82006 0.69108 0.49200
 H168 H 0.79722 0.58190 0.46946
 C169 C 0.70285 0.36313 -0.03924
 C170 C 0.68382 0.40370 -0.05478
 H171 H 0.68924 0.32755 -0.05437
 H172 H 0.70020 0.43905 -0.04313
 C173 C 0.28126 0.89516 0.53540
 C174 C 0.30481 0.85840 0.55394
 H175 H 0.29193 0.93264 0.54704
 H176 H 0.29736 0.82095 0.53926
   
