data_POSCAR
  _audit_creation_date              2014-09-24
  _audit_creation_method            'ToBaCCo'
  _symmetry_space_group_name_H-M    'P1'
  _symmetry_Int_Tables_number       1
  _symmetry_cell_setting            triclinic
  loop_
  _symmetry_equiv_pos_as_xyz
 x,y,z
_cell_length_a 61.4820
_cell_length_b 18.4152
_cell_length_c 16.4607
_cell_angle_alpha 95.976000
_cell_angle_beta 90.183000
_cell_angle_gamma 90.530100
loop_
  _atom_site_label
  _atom_site_type_symbol
  _atom_site_fract_x
  _atom_site_fract_y
  _atom_site_fract_z
C1 C 0.74932 0.25762 0.46549
 C2 C 0.74811 0.22045 0.53311
 C3 C 0.72755 0.21321 0.58029
 C4 C 0.76814 0.18926 0.56543
 C5 C 0.76998 0.26108 0.41965
 C6 C 0.73035 0.29556 0.43432
 C7 C 0.72787 0.22673 0.66562
 C8 C 0.70869 0.22640 0.71064
 C9 C 0.68816 0.21419 0.67185
 C10 C 0.68813 0.19782 0.58583
 C11 C 0.70756 0.19503 0.54141
 C12 C 0.78236 0.23339 0.61594
 C13 C 0.80192 0.20542 0.64225
 C14 C 0.80832 0.13341 0.61536
 C15 C 0.79376 0.08977 0.56392
 C16 C 0.77371 0.11680 0.54131
 C17 C 0.77903 0.19740 0.38009
 C18 C 0.79991 0.19876 0.34724
 C19 C 0.81192 0.26451 0.35076
 C20 C 0.80203 0.32929 0.38515
 C21 C 0.78130 0.32744 0.41969
 C22 C 0.72274 0.27504 0.35477
 C23 C 0.70244 0.29846 0.33013
 C24 C 0.68950 0.34285 0.38477
 C25 C 0.69811 0.36901 0.46163
 C26 C 0.71854 0.34631 0.48581
 H27 H 0.74293 0.24068 0.69797
 H28 H 0.71020 0.24211 0.77554
 H29 H 0.67327 0.18389 0.55223
 H30 H 0.70684 0.18053 0.47603
 H31 H 0.77825 0.28964 0.63513
 H32 H 0.81183 0.24100 0.68379
 H33 H 0.76293 0.08213 0.50175
 H34 H 0.77022 0.14603 0.37740
 H35 H 0.80688 0.14762 0.32200
 H36 H 0.81043 0.38132 0.38667
 H37 H 0.77436 0.37738 0.44877
 H38 H 0.73182 0.23690 0.31371
 H39 H 0.69627 0.27778 0.27040
 H40 H 0.68867 0.40452 0.50432
 H41 H 0.72445 0.36427 0.54672
 H42 H 0.79776 0.03507 0.53882
 C43 C 0.24965 0.74881 0.46554
 C44 C 0.24930 0.73596 0.54562
 C45 C 0.22862 0.72800 0.59048
 C46 C 0.26997 0.73035 0.59071
 C47 C 0.27023 0.74569 0.41862
 C48 C 0.22966 0.76698 0.42237
 C49 C 0.22515 0.76952 0.66558
 C50 C 0.20514 0.76618 0.70518
 C51 C 0.18822 0.72102 0.67048
 C52 C 0.19212 0.67706 0.59699
 C53 C 0.21218 0.68003 0.55787
 C54 C 0.28480 0.78898 0.59690
 C55 C 0.30604 0.77928 0.62303
 C56 C 0.31270 0.71100 0.64430
 C57 C 0.29732 0.65405 0.64452
 C58 C 0.27602 0.66374 0.61789
 C59 C 0.28251 0.68152 0.41046
 C60 C 0.30312 0.68109 0.37516
 C61 C 0.31175 0.74477 0.34703
 C62 C 0.29902 0.80812 0.35218
 C63 C 0.27835 0.80842 0.38729
 C64 C 0.22200 0.71982 0.35596
 C65 C 0.20167 0.73129 0.32185
 C66 C 0.18911 0.79115 0.35238
 C67 C 0.19737 0.84093 0.41543
 C68 C 0.21754 0.82870 0.45057
 H69 H 0.23774 0.80602 0.69248
 H70 H 0.20285 0.79949 0.76263
 H71 H 0.17948 0.64192 0.56825
 H72 H 0.21472 0.64588 0.50114
 H73 H 0.28024 0.84101 0.57699
 H74 H 0.31749 0.82440 0.62393
 H75 H 0.26472 0.61803 0.61338
 H76 H 0.27640 0.63248 0.43392
 H77 H 0.31263 0.63171 0.37260
 H78 H 0.30519 0.85761 0.32994
 H79 H 0.26905 0.85835 0.39301
 H80 H 0.23122 0.67208 0.33357
 H81 H 0.19543 0.69237 0.27329
 H82 H 0.18776 0.88703 0.44003
 H83 H 0.22339 0.86584 0.50148
 H84 H 0.30209 0.60090 0.66060
 C85 C 0.24877 0.23508 -0.47693
 C86 C 0.24997 0.25758 -0.55350
 C87 C 0.27135 0.26411 -0.59389
 C88 C 0.23005 0.27359 -0.59970
 C89 C 0.22794 0.20745 -0.44527
 C90 C 0.26856 0.23688 -0.42430
 C91 C 0.27775 0.32919 -0.62448
 C92 C 0.29905 0.33787 -0.65210
 C93 C 0.31448 0.28186 -0.64808
 C94 C 0.30727 0.21494 -0.62252
 C95 C 0.28595 0.20595 -0.59716
 C96 C 0.21429 0.32075 -0.56336
 C97 C 0.19421 0.32788 -0.60141
 C98 C 0.18924 0.28795 -0.67747
 C99 C 0.20587 0.24414 -0.71568
 C100 C 0.22600 0.23745 -0.67743
 C101 C 0.21486 0.15861 -0.49561
 C102 C 0.19368 0.14284 -0.47293
 C103 C 0.18534 0.17216 -0.39701
 C104 C 0.19945 0.21424 -0.34254
 C105 C 0.22043 0.23268 -0.36709
 C106 C 0.27696 0.17231 -0.39890
 C107 C 0.29776 0.17207 -0.36374
 C108 C 0.31032 0.23668 -0.35224
 C109 C 0.30119 0.30204 -0.37290
 C110 C 0.28053 0.30214 -0.40836
 H111 H 0.26659 0.37445 -0.62328
 H112 H 0.30367 0.39048 -0.67072
 H113 H 0.31795 0.16855 -0.62298
 H114 H 0.28101 0.15412 -0.57710
 H115 H 0.21719 0.34963 -0.50350
 H116 H 0.18224 0.36107 -0.56743
 H117 H 0.23809 0.20143 -0.70704
 H118 H 0.22073 0.13503 -0.55441
 H119 H 0.18395 0.10654 -0.51477
 H120 H 0.19381 0.23785 -0.28347
 H121 H 0.23038 0.26944 -0.32659
 H122 H 0.26796 0.12143 -0.41059
 H123 H 0.30422 0.12110 -0.34720
 H124 H 0.31044 0.35262 -0.36541
 H125 H 0.27429 0.35261 -0.42725
 H126 H 0.20362 0.21501 -0.77564
 C127 C -0.25169 0.78581 -0.45022
 C128 C -0.25041 0.79259 -0.53171
 C129 C -0.22901 0.79866 -0.57127
 C130 C -0.26999 0.78640 -0.58447
 C131 C -0.27288 0.78319 -0.40726
 C132 C -0.23157 0.77924 -0.40231
 C133 C -0.22037 0.86719 -0.58372
 C134 C -0.19882 0.87384 -0.60907
 C135 C -0.18522 0.81214 -0.61967
 C136 C -0.19443 0.74320 -0.60926
 C137 C -0.21614 0.73656 -0.58676
 C138 C -0.27747 0.84655 -0.62148
 C139 C -0.29763 0.84339 -0.66131
 C140 C -0.31063 0.77930 -0.66642
 C141 C -0.30217 0.71772 -0.63292
 C142 C -0.28220 0.72153 -0.59221
 C143 C -0.27745 0.72777 -0.35754
 C144 C -0.29790 0.72258 -0.32169
 C145 C -0.31462 0.77241 -0.33513
 C146 C -0.30937 0.82970 -0.38299
 C147 C -0.28878 0.83557 -0.41699
 C148 C -0.22254 0.71025 -0.39728
 C149 C -0.20183 0.70402 -0.36407
 C150 C -0.18982 0.76679 -0.33533
 C151 C -0.19933 0.83578 -0.33743
 C152 C -0.22004 0.84197 -0.37105
 H153 H -0.22999 0.91590 -0.57046
 H154 H -0.19249 0.92816 -0.61445
 H155 H -0.18504 0.69371 -0.61994
 H156 H -0.22268 0.68315 -0.57787
 H157 H -0.26817 0.89702 -0.61654
 H158 H -0.30274 0.89125 -0.68890
 H159 H -0.27661 0.67455 -0.56378
 H160 H -0.26535 0.68740 -0.34728
 H161 H -0.30012 0.67976 -0.28232
 H162 H -0.32121 0.86893 -0.39848
 H163 H -0.28543 0.88035 -0.45294
 H164 H -0.23116 0.66140 -0.42238
 H165 H -0.19506 0.65016 -0.36215
 H166 H -0.19041 0.88501 -0.31602
 H167 H -0.22670 0.89563 -0.37573
 H168 H -0.31146 0.66762 -0.63263
 O169 O -0.02807 0.91896 0.17814
 O170 O -0.05315 0.95909 0.09000
 C171 C -0.04794 0.92923 0.15518
 O172 O 0.03129 1.17038 0.11079
 O173 O 0.05472 1.08657 0.04797
 C174 C 0.05074 1.14742 0.09183
 O175 O -0.02950 1.15990 0.12948
 O176 O -0.05362 1.07650 0.06664
 C177 C -0.04912 1.13487 0.11487
 O178 O 0.03261 0.91334 0.16376
 O179 O 0.05565 0.96455 0.07586
 C180 C 0.05186 0.92679 0.13673
 Zr181 Zr 0.00185 0.94338 0.12263
 O182 O 0.00533 0.97697 0.24905
 O183 O 0.00142 0.83169 0.14218
 Zr184 Zr 0.00057 1.11999 0.08151
 O185 O 0.00360 1.16345 0.20502
 O186 O -0.00292 1.22692 0.04712
 O187 O -0.01788 1.03443 0.12081
 O188 O 0.02019 1.03692 0.11473
 O189 O 0.03085 0.84083 -0.11081
 O190 O 0.05458 0.93087 -0.05883
 C191 C 0.05037 0.86769 -0.09815
 O192 O -0.03251 1.07106 -0.17596
 O193 O -0.05511 1.03405 -0.07711
 C194 C -0.05163 1.05622 -0.14808
 O195 O 0.02857 1.09164 -0.17334
 O196 O 0.05370 1.05012 -0.08619
 C197 C 0.04848 1.08121 -0.15059
 O198 O -0.03042 0.84056 -0.11379
 O199 O -0.05390 0.92207 -0.04705
 C200 C -0.04988 0.86336 -0.09475
 Zr201 Zr 0.00023 0.88825 -0.07884
 O202 O 0.00128 0.85342 -0.20547
 O203 O -0.00083 0.77856 -0.05135
 Zr204 Zr -0.00145 1.06493 -0.11957
 O205 O -0.00101 1.04388 -0.24817
 O206 O -0.00522 1.17718 -0.13338
 Zr207 Zr -0.03206 1.00141 0.00601
 Zr208 Zr 0.03270 1.00659 -0.00257
 O209 O 0.01804 0.97404 -0.11656
 O210 O -0.01986 0.97038 -0.11214
 O211 O 0.02056 0.90413 0.02262
 O212 O -0.01981 1.10350 -0.01955
 O213 O -0.01782 0.90163 0.02711
 O214 O 0.01906 1.10748 -0.02480
 H215 H 0.03039 1.04960 0.16090
 H216 H -0.03061 1.14167 -0.02798
 H217 H 0.02730 0.96135 -0.16502
 H218 H -0.02726 0.85966 0.03735
 H219 H 0.01066 1.23953 0.01944
 H220 H 0.00919 1.20106 -0.12418
 H221 H -0.00033 0.99029 -0.26067
 H222 H -0.01100 0.87659 -0.23162
 H223 H 0.01002 0.77402 -0.00766
 H224 H 0.00188 0.83016 0.20219
 H225 H -0.00733 1.00762 0.26605
 H226 H -0.00060 1.12385 0.23818
 O227 O 0.47108 0.39780 0.15338
 O228 O 0.44693 0.44608 0.06777
 C229 C 0.45147 0.41079 0.12985
 O230 O 0.53133 0.65492 0.12266
 O231 O 0.55540 0.57343 0.05894
 C232 C 0.55094 0.63217 0.10581
 O233 O 0.47015 0.64552 0.12893
 O234 O 0.44666 0.56583 0.05622
 C235 C 0.45071 0.62148 0.10917
 O236 O 0.53165 0.39541 0.15111
 O237 O 0.55569 0.45166 0.07118
 C238 C 0.55124 0.41319 0.13081
 Zr239 Zr 0.50132 0.42432 0.10342
 O240 O 0.50236 0.44045 0.23253
 O241 O 0.50090 0.30961 0.10363
 Zr242 Zr 0.50084 0.60563 0.08723
 O243 O 0.50111 0.61940 0.21627
 O244 O 0.50151 0.72000 0.08084
 O245 O 0.48167 0.51628 0.11027
 O246 O 0.51988 0.51894 0.11144
 O247 O 0.53308 0.34411 -0.13230
 O248 O 0.55627 0.42804 -0.06342
 C249 C 0.55239 0.36794 -0.10946
 O250 O 0.47108 0.59408 -0.17059
 O251 O 0.44699 0.54227 -0.08708
 C252 C 0.45148 0.57828 -0.14870
 O253 O 0.53136 0.61305 -0.15442
 O254 O 0.55555 0.55469 -0.07772
 C255 C 0.55093 0.59946 -0.13099
 O256 O 0.47156 0.34675 -0.14777
 O257 O 0.44745 0.42263 -0.07573
 C258 C 0.45188 0.36819 -0.12920
 Zr259 Zr 0.50200 0.39013 -0.10188
 O260 O 0.50375 0.37655 -0.23071
 O261 O 0.50038 0.27620 -0.09465
 Zr262 Zr 0.50132 0.57075 -0.11832
 O263 O 0.50440 0.54669 -0.24634
 O264 O 0.49850 0.68336 -0.13125
 Zr265 Zr 0.46880 0.49561 -0.00873
 Zr266 Zr 0.53374 0.50017 -0.00535
 O267 O 0.52087 0.47954 -0.12394
 O268 O 0.48223 0.47644 -0.12660
 O269 O 0.52111 0.39467 0.00359
 O270 O 0.48201 0.60009 -0.01784
 O271 O 0.48262 0.39281 0.00113
 O272 O 0.52031 0.60357 -0.01580
 H273 H 0.52932 0.52806 0.16041
 H274 H 0.47185 0.64080 -0.02289
 H275 H 0.53116 0.47291 -0.17029
 H276 H 0.47283 0.35019 0.00456
 H277 H 0.48876 0.73322 0.04890
 H278 H 0.50638 0.70995 -0.08457
 H279 H 0.49349 0.50836 -0.26396
 H280 H 0.50455 0.32322 -0.24630
 H281 H 0.50953 0.26624 -0.04760
 H282 H 0.50075 0.30033 0.16184
 H283 H 0.49488 0.48697 0.24891
 H284 H 0.50152 0.67280 0.23209
 C285 C 0.36527 0.34769 0.25823
 C286 C 0.38055 0.31096 0.29868
 C287 C 0.37520 0.26479 0.35702
 C288 C 0.35313 0.25541 0.37409
 C289 C 0.33669 0.29256 0.33350
 C290 C 0.34318 0.34042 0.27527
 O291 O 0.37388 0.38699 0.20291
 C292 C 0.39506 0.37484 0.20905
 C293 C 0.39995 0.32901 0.26718
 C294 C 0.42102 0.30835 0.28367
 C295 C 0.43783 0.33605 0.23831
 C296 C 0.43333 0.38302 0.17716
 C297 C 0.41153 0.40259 0.16249
 H298 H 0.38759 0.23677 0.38830
 H299 H 0.34911 0.22109 0.42152
 H300 H 0.33148 0.36863 0.24102
 H301 H 0.42440 0.27209 0.32976
 H302 H 0.45434 0.32028 0.25062
 H303 H 0.40747 0.43801 0.11628
 C304 C -0.13341 0.87763 0.29449
 C305 C -0.11890 0.83051 0.32418
 C306 C -0.12518 0.77668 0.37258
 C307 C -0.14735 0.77077 0.39075
 C308 C -0.16289 0.81912 0.36159
 C309 C -0.15546 0.87409 0.31342
 O310 O -0.12426 0.92225 0.24590
 C311 C -0.10350 0.90301 0.24529
 C312 C -0.09934 0.84757 0.29286
 C313 C -0.07874 0.81840 0.30033
 C314 C -0.06176 0.84714 0.25633
 C315 C -0.06572 0.90317 0.20516
 C316 C -0.08693 0.93174 0.20018
 H317 H -0.11345 0.74002 0.39502
 H318 H -0.15214 0.72990 0.43010
 H319 H -0.16657 0.91071 0.28739
 H320 H -0.07588 0.77469 0.33813
 H321 H -0.04567 0.82436 0.26046
 H322 H -0.09049 0.97448 0.16175
 C323 C 0.63732 0.70962 0.23617
 C324 C 0.62536 0.77253 0.24083
 C325 C 0.63386 0.83979 0.27216
 C326 C 0.65544 0.84213 0.30079
 C327 C 0.66815 0.77739 0.29901
 C328 C 0.65864 0.71033 0.26478
 O329 O 0.62638 0.65124 0.20394
 C330 C 0.60702 0.67778 0.18844
 C331 C 0.60541 0.75164 0.21023
 C332 C 0.58625 0.78979 0.20098
 C333 C 0.56809 0.75008 0.16750
 C334 C 0.56960 0.67409 0.14328
 C335 C 0.58939 0.63771 0.15431
 H336 H 0.62413 0.88868 0.27550
 H337 H 0.66161 0.89418 0.32827
 H338 H 0.66756 0.65973 0.25844
 H339 H 0.58528 0.84785 0.21911
 H340 H 0.55304 0.77854 0.15936
 H341 H 0.59102 0.57954 0.13757
 C342 C 0.13847 1.22927 0.20704
 C343 C 0.12506 1.28679 0.23050
 C344 C 0.13207 1.34766 0.28084
 C345 C 0.15365 1.34885 0.30923
 C346 C 0.16798 1.28921 0.28792
 C347 C 0.15997 1.22914 0.23421
 O348 O 0.12843 1.17506 0.16194
 C349 C 0.10823 1.19892 0.15696
 C350 C 0.10524 1.26699 0.19784
 C351 C 0.08498 1.30031 0.20407
 C352 C 0.06708 1.26155 0.16723
 C353 C 0.06975 1.19092 0.12511
 C354 C 0.09079 1.15990 0.11936
 H355 H 0.12125 1.39260 0.29825
 H356 H 0.15905 1.39744 0.34659
 H357 H 0.16947 1.18078 0.21782
 H358 H 0.08295 1.35351 0.23763
 H359 H 0.05115 1.28603 0.17275
 H360 H 0.09347 1.10568 0.08905
 C361 C 0.63074 0.25048 -0.27079
 C362 C 0.63162 0.24014 -0.18955
 C363 C 0.65036 0.21917 -0.15175
 C364 C 0.66917 0.20914 -0.19914
 C365 C 0.66925 0.21970 -0.28410
 C366 C 0.64916 0.23902 -0.32010
 O367 O 0.61174 0.27673 -0.29275
 C368 C 0.60040 0.28269 -0.22367
 C369 C 0.61189 0.26038 -0.15893
 C370 C 0.60394 0.26627 -0.07965
 C371 C 0.58348 0.29776 -0.06603
 C372 C 0.57146 0.32275 -0.13100
 C373 C 0.57982 0.31414 -0.21142
 H374 H 0.65061 0.21179 -0.08736
 H375 H 0.68338 0.19045 -0.16891
 H376 H 0.64805 0.25125 -0.38283
 H377 H 0.61348 0.24968 -0.02951
 H378 H 0.57729 0.30546 -0.00421
 H379 H 0.57127 0.33546 -0.26130
 C380 C 0.13651 0.78959 -0.22544
 C381 C 0.12423 0.72649 -0.22954
 C382 C 0.13212 0.65939 -0.26282
 C383 C 0.15343 0.65754 -0.29372
 C384 C 0.16629 0.72229 -0.29152
 C385 C 0.15760 0.78909 -0.25603
 O386 O 0.12597 0.84794 -0.19300
 C387 C 0.10658 0.82125 -0.17636
 C388 C 0.10456 0.74730 -0.19771
 C389 C 0.08524 0.70913 -0.18792
 C390 C 0.06732 0.74890 -0.15493
 C391 C 0.06913 0.82520 -0.13201
 C392 C 0.08916 0.86146 -0.14278
 H393 H 0.12221 0.61032 -0.26539
 H394 H 0.15986 0.60569 -0.31941
 H395 H 0.16667 0.83988 -0.25460
 H396 H 0.08394 0.65100 -0.20570
 H397 H 0.05213 0.72033 -0.14696
 H398 H 0.09109 0.91977 -0.12707
 C399 C 0.36465 0.64836 -0.26304
 C400 C 0.37973 0.67374 -0.31509
 C401 C 0.37404 0.71123 -0.38090
 C402 C 0.35187 0.72329 -0.39342
 C403 C 0.33596 0.69802 -0.34035
 C404 C 0.34250 0.65953 -0.27451
 O405 O 0.37355 0.61483 -0.20373
 C406 C 0.39470 0.61919 -0.21872
 C407 C 0.39931 0.65463 -0.28622
 C408 C 0.42039 0.66604 -0.31251
 C409 C 0.43746 0.64015 -0.26711
 C410 C 0.43320 0.60371 -0.19672
 C411 C 0.41140 0.59288 -0.17268
 H412 H 0.38620 0.73049 -0.42117
 H413 H 0.34706 0.75148 -0.44510
 H414 H 0.33074 0.63979 -0.23296
 H415 H 0.42358 0.69418 -0.36584
 H416 H 0.45397 0.64887 -0.28684
 H417 H 0.40750 0.56557 -0.11931
 C418 C -0.13341 1.12270 -0.30469
 C419 C -0.13034 1.04864 -0.31380
 C420 C -0.14639 0.99934 -0.34346
 C421 C -0.16644 1.02748 -0.36535
 C422 C -0.17013 1.10424 -0.35963
 C423 C -0.15295 1.15214 -0.32899
 O424 O -0.11661 1.15975 -0.26936
 C425 C -0.10256 1.10771 -0.25632
 C426 C -0.11013 1.03884 -0.28373
 C427 C -0.09833 0.97606 -0.27599
 C428 C -0.07816 0.98437 -0.23623
 C429 C -0.07050 1.05403 -0.20325
 C430 C -0.08262 1.11705 -0.21475
 H431 H -0.14378 0.94101 -0.34754
 H432 H -0.17903 0.98845 -0.38523
 H433 H -0.15437 1.21079 -0.32401
 H434 H -0.10456 0.92255 -0.29858
 H435 H -0.06873 0.93627 -0.22872
 H436 H -0.07721 1.17070 -0.18904
 C437 C 0.63532 0.69019 -0.25089
 C438 C 0.62144 0.74819 -0.24840
 C439 C 0.62771 0.81590 -0.27024
 C440 C 0.64915 0.82419 -0.29671
 C441 C 0.66401 0.76451 -0.30328
 C442 C 0.65658 0.69646 -0.27865
 O443 O 0.62618 0.63068 -0.22618
 C444 C 0.60603 0.65179 -0.20793
 C445 C 0.60227 0.72311 -0.22128
 C446 C 0.58218 0.75610 -0.20849
 C447 C 0.56526 0.71390 -0.18038
 C448 C 0.56882 0.64066 -0.16441
 C449 C 0.58956 0.60922 -0.17813
 H450 H 0.61655 0.86124 -0.26608
 H451 H 0.65393 0.87835 -0.30951
 H452 H 0.66639 0.64792 -0.28383
 H453 H 0.57960 0.81221 -0.21992
 H454 H 0.54950 0.73877 -0.16933
 H455 H 0.59267 0.55339 -0.16669
 C456 C 0.13432 1.14428 -0.28165
 C457 C 0.11924 1.14451 -0.34342
 C458 C 0.12493 1.15215 -0.42362
 C459 C 0.14709 1.15997 -0.44100
 C460 C 0.16317 1.16194 -0.37811
 C461 C 0.15641 1.15456 -0.29686
 O462 O 0.12554 1.13225 -0.21055
 C463 C 0.10446 1.12535 -0.22786
 C464 C 0.09974 1.13334 -0.30810
 C465 C 0.07871 1.12854 -0.33943
 C466 C 0.06184 1.11378 -0.28619
 C467 C 0.06628 1.10308 -0.20355
 C468 C 0.08797 1.10953 -0.17404
 H469 H 0.11275 1.15162 -0.47132
 H470 H 0.15152 1.16765 -0.50317
 H471 H 0.16802 1.15345 -0.24744
 H472 H 0.07544 1.13546 -0.40277
 H473 H 0.04541 1.10857 -0.31010
 H474 H 0.09196 1.10151 -0.11150
 C475 C 0.36371 0.29461 -0.24843
 C476 C 0.37718 0.23964 -0.28026
 C477 C 0.36965 0.18080 -0.33312
 C478 C 0.34746 0.17907 -0.35463
 C479 C 0.33329 0.23581 -0.32347
 C480 C 0.34166 0.29402 -0.26892
 O481 O 0.37401 0.34623 -0.20043
 C482 C 0.39444 0.32357 -0.20206
 C483 C 0.39736 0.25877 -0.25006
 C484 C 0.41771 0.22660 -0.26141
 C485 C 0.43570 0.26261 -0.22151
 C486 C 0.43305 0.32940 -0.17124
 C487 C 0.41198 0.35989 -0.16179
 H488 H 0.38053 0.13831 -0.35791
 H489 H 0.34149 0.13477 -0.39753
 H490 H 0.33138 0.33814 -0.24380
 H491 H 0.41968 0.17578 -0.29989
 H492 H 0.45163 0.23838 -0.22967
 H493 H 0.40923 0.41112 -0.12483
 C494 C -0.13771 0.80063 -0.21499
 C495 C -0.12411 0.75150 -0.25748
 C496 C -0.13099 0.70550 -0.32516
 C497 C -0.15277 0.71020 -0.34972
 C498 C -0.16713 0.76049 -0.30670
 C499 C -0.15937 0.80620 -0.23820
 O500 O -0.12779 0.84182 -0.15503
 C501 C -0.10748 0.81834 -0.15982
 C502 C -0.10430 0.76313 -0.22137
 C503 C -0.08391 0.73382 -0.23994
 C504 C -0.06600 0.76413 -0.19464
 C505 C -0.06884 0.82264 -0.13234
 C506 C -0.09007 0.84836 -0.11350
 H507 H -0.11990 0.66818 -0.35855
 H508 H -0.15829 0.67598 -0.40343
 H509 H -0.16981 0.84537 -0.20424
 H510 H -0.08176 0.69095 -0.28937
 H511 H -0.04991 0.74409 -0.21054
 H512 H -0.09293 0.89375 -0.06759
 C513 C 0.36378 0.68762 0.23792
 C514 C 0.37725 0.74543 0.26424
 C515 C 0.37023 0.80523 0.31570
 C516 C 0.34847 0.80519 0.34141
 C517 C 0.33430 0.74577 0.31575
 C518 C 0.34215 0.68632 0.26288
 O519 O 0.37369 0.63572 0.19022
 C520 C 0.39388 0.66115 0.18655
 C521 C 0.39697 0.72795 0.23092
 C522 C 0.41708 0.76333 0.23721
 C523 C 0.43474 0.72827 0.19633
 C524 C 0.43195 0.65929 0.14997
 C525 C 0.41109 0.62577 0.14487
 H526 H 0.38115 0.84992 0.33599
 H527 H 0.34280 0.85051 0.38289
 H528 H 0.33176 0.64026 0.24207
 H529 H 0.41916 0.81568 0.27296
 H530 H 0.45054 0.75485 0.20102
 H531 H 0.40835 0.57298 0.11077
 C532 C -0.13611 1.21235 0.23632
 C533 C -0.12144 1.25958 0.27755
 C534 C -0.12748 1.31071 0.34137
 C535 C -0.14948 1.31285 0.36404
 C536 C -0.16506 1.26468 0.32249
 C537 C -0.15810 1.21421 0.25694
 O538 O -0.12695 1.16587 0.17985
 C539 C -0.10603 1.18411 0.18563
 C540 C -0.10177 1.24128 0.24423
 C541 C -0.08084 1.26790 0.26162
 C542 C -0.06359 1.23379 0.21729
 C543 C -0.06751 1.17387 0.15724
 C544 C -0.08917 1.14936 0.14102
 H545 H -0.11558 1.34658 0.37381
 H546 H -0.15417 1.35058 0.41568
 H547 H -0.16935 1.17678 0.22325
 H548 H -0.07787 1.31275 0.30834
 H549 H -0.04718 1.25324 0.23092
 H550 H -0.09285 1.10360 0.09616
 C551 C 0.63781 0.37418 0.26851
 C552 C 0.62253 0.36304 0.32690
 C553 C 0.62802 0.34886 0.40564
 C554 C 0.65020 0.34489 0.42470
 C555 C 0.66634 0.35468 0.36516
 C556 C 0.65997 0.36999 0.28598
 O557 O 0.62910 0.38774 0.19775
 C558 C 0.60786 0.38481 0.21177
 C559 C 0.60303 0.36932 0.28966
 C560 C 0.58185 0.36317 0.31738
 C561 C 0.56492 0.37469 0.26308
 C562 C 0.56939 0.39280 0.18290
 C563 C 0.59127 0.39723 0.15686
 H564 H 0.61566 0.34035 0.45049
 H565 H 0.65478 0.33191 0.48508
 H566 H 0.67188 0.37777 0.23929
 H567 H 0.57849 0.35085 0.37895
 H568 H 0.54835 0.37193 0.28469
 H569 H 0.59530 0.41116 0.09639
 C570 C 0.13785 0.86082 0.26270
 C571 C 0.12354 0.80605 0.27805
 C572 C 0.12967 0.74529 0.31579
 C573 C 0.15151 0.74072 0.33881
 C574 C 0.16651 0.79689 0.32479
 C575 C 0.15961 0.85804 0.28656
 O576 O 0.12865 0.91287 0.22451
 C577 C 0.10809 0.89049 0.21596
 C578 C 0.10416 0.82574 0.24843
 C579 C 0.08380 0.79263 0.24770
 C580 C 0.06671 0.82748 0.21169
 C581 C 0.07028 0.89373 0.17636
 C582 C 0.09134 0.92564 0.17832
 H583 H 0.11808 0.70287 0.32682
 H584 H 0.15675 0.69405 0.36856
 H585 H 0.17086 0.90139 0.27521
 H586 H 0.08117 0.74174 0.27386
 H587 H 0.05075 0.80197 0.21001
 H588 H 0.09452 0.97624 0.15211
   
