data_POSCAR
  _audit_creation_date              2014-09-24
  _audit_creation_method            'ToBaCCo'
  _symmetry_space_group_name_H-M    'P1'
  _symmetry_Int_Tables_number       1
  _symmetry_cell_setting            triclinic
  loop_
  _symmetry_equiv_pos_as_xyz
 x,y,z
_cell_length_a 40.2454
_cell_length_b 40.1959
_cell_length_c 59.2513
_cell_angle_alpha 90.033900
_cell_angle_beta 90.009800
_cell_angle_gamma 122.531700
loop_
  _atom_site_label
  _atom_site_type_symbol
  _atom_site_fract_x
  _atom_site_fract_y
  _atom_site_fract_z
C1 C -0.02402 0.48580 1.22799
 C2 C 0.01778 0.50609 1.22799
 C3 C 0.03815 0.51623 1.24858
 C4 C 0.01882 0.50694 1.26963
 C5 C -0.02319 0.48755 1.26983
 C6 C -0.04342 0.47710 1.24900
 H7 H -0.07521 0.46213 1.24912
 H8 H 0.06991 0.53055 1.24799
 C9 C 0.51007 0.49010 1.22979
 C10 C 0.49259 0.51265 1.22986
 C11 C 0.48475 0.52393 1.25058
 C12 C 0.49383 0.51356 1.27124
 C13 C 0.51214 0.49150 1.27134
 C14 C 0.51936 0.47979 1.25041
 H15 H 0.53376 0.46349 1.24994
 H16 H 0.47073 0.54063 1.25064
 C17 C 0.50737 1.02114 1.23249
 C18 C 0.48560 0.97949 1.23235
 C19 C 0.47412 0.95907 1.25290
 C20 C 0.48511 0.97869 1.27394
 C21 C 0.50800 1.02100 1.27410
 C22 C 0.51872 1.04109 1.25322
 H23 H 0.53397 1.07300 1.25297
 H24 H 0.45885 0.92717 1.25232
 C25 C 0.98003 0.49478 0.73167
 C26 C 1.02161 0.51533 0.73165
 C27 C 1.04187 0.52547 0.75229
 C28 C 1.02194 0.51428 0.77320
 C29 C 0.97991 0.49297 0.77303
 C30 C 0.95991 0.48386 0.75229
 H31 H 0.92806 0.46898 0.75221
 H32 H 1.07367 0.54004 0.75187
 C33 C 0.48445 0.50603 0.77096
 C34 C 0.50549 0.48689 0.77120
 C35 C 0.51583 0.47744 0.75064
 C36 C 0.50616 0.48676 0.72981
 C37 C 0.48528 0.50604 0.72955
 C38 C 0.47461 0.51516 0.75011
 H39 H 0.45855 0.52983 0.74986
 H40 H 0.53180 0.46267 0.75086
 C41 C 0.50833 0.01987 0.72692
 C42 C 0.49167 -0.02166 0.72660
 C43 C 0.48514 -0.04127 0.74744
 C44 C 0.49303 -0.02146 0.76818
 C45 C 0.50862 0.01957 0.76828
 C46 C 0.51631 0.03956 0.74769
 H47 H 0.52914 0.07118 0.74786
 H48 H 0.47211 -0.07289 0.74773
 O49 O 0.39725 0.66881 0.97530
 O50 O 0.40215 0.73553 0.98082
 C51 C 0.37837 0.74119 0.96988
 O52 O 0.34211 0.72425 0.97469
 O53 O 0.27373 0.65958 0.98183
 C54 C 0.26689 0.62954 0.97060
 O55 O 0.28302 0.61065 0.97513
 O56 O 0.34517 0.60813 0.98153
 C57 C 0.37609 0.63239 0.97059
 O58 O 0.39800 0.65996 1.02046
 O59 O 0.40021 0.72488 1.02624
 C60 C 0.38280 0.74255 1.03072
 O61 O 0.35368 0.73747 1.01935
 O62 O 0.28751 0.67117 1.02673
 C63 C 0.26812 0.63470 1.03137
 O64 O 0.27137 0.60956 1.02018
 O65 O 0.33601 0.61020 1.02657
 C66 C 0.37241 0.62968 1.03140
 Cr67 Cr 0.39722 0.69626 1.00069
 Cr68 Cr 0.31524 0.69693 1.00064
 Cr69 Cr 0.31010 0.61186 1.00088
 O70 O 0.34093 0.66834 1.00068
 O71 O 0.59892 0.34006 0.98113
 O72 O 0.59756 0.27534 0.97396
 C73 C 0.61532 0.25807 0.96916
 O74 O 0.64488 0.26340 0.98024
 O75 O 0.71180 0.33018 0.97447
 C76 C 0.73014 0.36668 0.96999
 O77 O 0.72552 0.39100 0.98103
 O78 O 0.66089 0.38897 0.97466
 C79 C 0.62451 0.37012 0.97000
 O80 O 0.60006 0.32864 1.02604
 O81 O 0.59492 0.26245 1.01905
 C82 C 0.61862 0.25673 1.02995
 O83 O 0.65487 0.27391 1.02525
 O84 O 0.72259 0.33901 1.01958
 C85 C 0.72972 0.36928 1.03066
 O86 O 0.71418 0.38878 1.02605
 O87 O 0.65058 0.39006 1.01977
 C88 C 0.62015 0.36502 1.03085
 Cr89 Cr 0.60009 0.30272 1.00002
 Cr90 Cr 0.68251 0.30275 0.99987
 Cr91 Cr 0.68658 0.38747 1.00040
 O92 O 0.65644 0.33098 1.00013
 O93 O 0.65735 0.40048 0.51959
 O94 O 0.72220 0.40235 0.52699
 C95 C 0.74064 0.38555 0.53109
 O96 O 0.73664 0.35730 0.51913
 O97 O 0.67039 0.29105 0.52647
 C98 C 0.63379 0.27089 0.53054
 O99 O 0.60884 0.27332 0.51863
 O100 O 0.61051 0.33786 0.52680
 C101 C 0.62854 0.37434 0.53133
 O102 O 0.66977 0.40001 0.47471
 O103 O 0.73623 0.40576 0.48195
 C104 C 0.74131 0.38208 0.47041
 O105 O 0.72326 0.34543 0.47445
 O106 O 0.65850 0.27695 0.48151
 C107 C 0.62929 0.27115 0.46977
 O108 O 0.61106 0.28814 0.47396
 O109 O 0.60843 0.35045 0.48201
 C110 C 0.63327 0.38019 0.47033
 Cr111 Cr 0.69541 0.40016 0.50081
 Cr112 Cr 0.69612 0.31855 0.50038
 Cr113 Cr 0.61172 0.31358 0.50035
 O114 O 0.66780 0.34413 0.50042
 O115 O 0.34019 0.60020 0.51896
 O116 O 0.27603 0.59975 0.52630
 C117 C 0.25822 0.61723 0.53033
 O118 O 0.26261 0.64550 0.51824
 O119 O 0.32940 0.71128 0.52559
 C120 C 0.36598 0.73094 0.52977
 O121 O 0.39062 0.72770 0.51805
 O122 O 0.38760 0.66249 0.52645
 C123 C 0.36921 0.62592 0.53077
 O124 O 0.32802 0.60091 0.47405
 O125 O 0.26212 0.59633 0.48127
 C126 C 0.25779 0.62026 0.46951
 O127 O 0.27632 0.65696 0.47351
 O128 O 0.34168 0.72488 0.48067
 C129 C 0.37058 0.72981 0.46898
 O130 O 0.38836 0.71243 0.47340
 O131 O 0.38965 0.64948 0.48177
 C132 C 0.36460 0.62014 0.46990
 Cr133 Cr 0.30257 0.60127 0.50015
 Cr134 Cr 0.30353 0.68374 0.49950
 Cr135 Cr 0.38706 0.68696 0.49991
 O136 O 0.33101 0.65731 0.49980
 C137 C 0.45575 0.54254 0.33201
 C138 C 0.44478 0.50345 0.32773
 C139 C 0.45651 0.49386 0.30786
 C140 C 0.48025 0.52329 0.29210
 C141 C 0.49086 0.56221 0.29617
 C142 C 0.47865 0.57172 0.31585
 C143 C 0.44315 0.55287 0.35309
 C144 C 0.46802 0.58944 0.36377
 C145 C 0.45570 0.59969 0.38314
 C146 C 0.41837 0.57343 0.39253
 C147 C 0.39384 0.53651 0.38214
 C148 C 0.40595 0.52648 0.36260
 C149 C 0.40466 0.58482 0.41272
 C150 C 0.36490 0.57284 0.41476
 C151 C 0.35195 0.58386 0.43348
 C152 C 0.37850 0.60762 0.45052
 C153 C 0.41826 0.61979 0.44854
 C154 C 0.43115 0.60828 0.42993
 H155 H 0.42755 0.48028 0.33986
 H156 H 0.44750 0.46353 0.30492
 H157 H 0.50892 0.58534 0.28415
 H158 H 0.48689 0.60192 0.31828
 H159 H 0.49714 0.61025 0.35718
 H160 H 0.47523 0.62854 0.39049
 H161 H 0.36517 0.51524 0.38909
 H162 H 0.38579 0.49825 0.35475
 H163 H 0.34381 0.55555 0.40165
 H164 H 0.32119 0.57440 0.43438
 H165 H 0.43936 0.63795 0.46147
 H166 H 0.46183 0.61753 0.42913
 C167 C 0.45586 0.90707 0.33259
 C168 C 0.42900 0.89569 0.31473
 C169 C 0.43870 0.91931 0.29556
 C170 C 0.47566 0.95509 0.29365
 C171 C 0.50295 0.96567 0.31143
 C172 C 0.49292 0.94226 0.33079
 C173 C 0.44506 0.88200 0.35295
 C174 C 0.45079 0.89850 0.37461
 C175 C 0.43913 0.87443 0.39376
 C176 C 0.42220 0.83358 0.39158
 C177 C 0.41700 0.81722 0.36994
 C178 C 0.42806 0.84115 0.35080
 C179 C 0.40981 0.80789 0.41177
 C180 C 0.42023 0.77988 0.41401
 C181 C 0.40790 0.75496 0.43275
 C182 C 0.38440 0.75713 0.44951
 C183 C 0.37398 0.78521 0.44726
 C184 C 0.38686 0.81059 0.42865
 H185 H 0.40009 0.86881 0.31581
 H186 H 0.41653 0.91008 0.28253
 H187 H 0.53244 0.99167 0.31025
 H188 H 0.51442 0.95122 0.34419
 H189 H 0.46361 0.92990 0.37666
 H190 H 0.44364 0.88773 0.41029
 H191 H 0.40377 0.78577 0.36782
 H192 H 0.42354 0.82779 0.33429
 H193 H 0.43812 0.77742 0.40129
 H194 H 0.41631 0.73355 0.43393
 H195 H 0.35598 0.78764 0.45992
 H196 H 0.37823 0.83179 0.42719
 C197 C 0.08803 0.53345 0.32928
 C198 C 0.05152 0.49749 0.32730
 C199 C 0.02917 0.48817 0.30753
 C200 C 0.04206 0.51508 0.28940
 C201 C 0.07939 0.55038 0.29120
 C202 C 0.10200 0.55929 0.31074
 C203 C 0.11125 0.54455 0.35063
 C204 C 0.13355 0.58420 0.35762
 C205 C 0.15593 0.59508 0.37736
 C206 C 0.15606 0.56656 0.39103
 C207 C 0.13334 0.52678 0.38424
 C208 C 0.11142 0.51595 0.36423
 C209 C 0.18024 0.57861 0.41205
 C210 C 0.19863 0.55889 0.41915
 C211 C 0.22289 0.57164 0.43825
 C212 C 0.22985 0.60479 0.45041
 C213 C 0.21108 0.62412 0.44362
 C214 C 0.18621 0.61092 0.42485
 H215 H 0.03974 0.47673 0.34116
 H216 H 0.00174 0.45973 0.30650
 H217 H 0.09069 0.57219 0.27786
 H218 H 0.13046 0.58674 0.31131
 H219 H 0.13362 0.60704 0.34792
 H220 H 0.17356 0.62608 0.38170
 H221 H 0.13223 0.50388 0.39444
 H222 H 0.09499 0.48518 0.35931
 H223 H 0.19529 0.53432 0.40959
 H224 H 0.23731 0.55643 0.44306
 H225 H 0.21559 0.64948 0.45288
 H226 H 0.17175 0.62620 0.42037
 C227 C 0.54632 0.46060 0.33189
 C228 C 0.53072 0.43423 0.31363
 C229 C 0.51985 0.44454 0.29372
 C230 C 0.52403 0.48156 0.29148
 C231 C 0.54094 0.50838 0.30962
 C232 C 0.55148 0.49789 0.32959
 C233 C 0.55764 0.44940 0.35312
 C234 C 0.59147 0.47732 0.36514
 C235 C 0.60264 0.46657 0.38477
 C236 C 0.58049 0.42755 0.39279
 C237 C 0.54635 0.39974 0.38095
 C238 C 0.53500 0.41057 0.36140
 C239 C 0.59367 0.41573 0.41300
 C240 C 0.56628 0.38814 0.42855
 C241 C 0.57897 0.37657 0.44724
 C242 C 0.61934 0.39260 0.45087
 C243 C 0.64667 0.42032 0.43539
 C244 C 0.63400 0.43159 0.41666
 H245 H 0.52707 0.40555 0.31463
 H246 H 0.50674 0.42271 0.28040
 H247 H 0.54698 0.53798 0.30829
 H248 H 0.56349 0.51902 0.34330
 H249 H 0.60984 0.50737 0.35915
 H250 H 0.62875 0.48891 0.39365
 H251 H 0.52881 0.36935 0.38650
 H252 H 0.50842 0.38846 0.35277
 H253 H 0.53502 0.37570 0.42638
 H254 H 0.55719 0.35523 0.45889
 H255 H 0.67798 0.43294 0.43751
 H256 H 0.65586 0.45223 0.40480
 C257 C 0.53991 0.09053 0.33392
 C258 C 0.50218 0.05612 0.33177
 C259 C 0.49128 0.03346 0.31204
 C260 C 0.51812 0.04415 0.29405
 C261 C 0.55549 0.07935 0.29609
 C262 C 0.56621 0.10206 0.31571
 C263 C 0.55195 0.11464 0.35491
 C264 C 0.59073 0.13278 0.36311
 C265 C 0.60265 0.15684 0.38226
 C266 C 0.57602 0.16317 0.39382
 C267 C 0.53699 0.14430 0.38593
 C268 C 0.52512 0.12043 0.36668
 C269 C 0.58921 0.19019 0.41362
 C270 C 0.57515 0.21516 0.41684
 C271 C 0.58798 0.24115 0.43512
 C272 C 0.61547 0.24308 0.45059
 C273 C 0.62962 0.21817 0.44741
 C274 C 0.61652 0.19191 0.42918
 H275 H 0.48112 0.04640 0.34545
 H276 H 0.46160 0.00775 0.31083
 H277 H 0.57722 0.08877 0.28279
 H278 H 0.59519 0.12886 0.31656
 H279 H 0.61199 0.12843 0.35470
 H280 H 0.63302 0.17118 0.38770
 H281 H 0.51553 0.14802 0.39462
 H282 H 0.49514 0.10720 0.36075
 H283 H 0.55473 0.21523 0.40497
 H284 H 0.57671 0.26014 0.43695
 H285 H 0.65065 0.21877 0.45909
 H286 H 0.62755 0.17272 0.42740
 C287 C 0.90977 0.46433 0.33006
 C288 C 0.94599 0.50034 0.32733
 C289 C 0.96768 0.50853 0.30738
 C290 C 0.95434 0.48046 0.28981
 C291 C 0.91732 0.44504 0.29238
 C292 C 0.89540 0.43724 0.31209
 C293 C 0.88727 0.45440 0.35160
 C294 C 0.86583 0.41525 0.35944
 C295 C 0.84389 0.40533 0.37928
 C296 C 0.84336 0.43437 0.39224
 C297 C 0.86526 0.47369 0.38462
 C298 C 0.88678 0.48355 0.36449
 C299 C 0.81949 0.42321 0.41333
 C300 C 0.80016 0.44235 0.41972
 C301 C 0.77576 0.42993 0.43877
 C302 C 0.76966 0.39770 0.45154
 C303 C 0.78958 0.37917 0.44552
 C304 C 0.81456 0.39206 0.42684
 H305 H 0.95805 0.52201 0.34075
 H306 H 0.99495 0.53698 0.30575
 H307 H 0.90577 0.42232 0.27953
 H308 H 0.86714 0.40966 0.31325
 H309 H 0.86607 0.39207 0.35030
 H310 H 0.82687 0.37462 0.38426
 H311 H 0.86598 0.49696 0.39425
 H312 H 0.90259 0.51394 0.35891
 H313 H 0.80277 0.46607 0.40963
 H314 H 0.76048 0.44453 0.44301
 H315 H 0.78579 0.35458 0.45529
 H316 H 0.82982 0.37735 0.42292
 C317 C 0.53914 0.45409 1.16824
 C318 C 0.50048 0.44473 1.17201
 C319 C 0.49073 0.45581 1.19210
 C320 C 0.51960 0.47715 1.20863
 C321 C 0.55805 0.48621 1.20500
 C322 C 0.56769 0.47470 1.18510
 C323 C 0.54974 0.44212 1.14701
 C324 C 0.58717 0.46651 1.13722
 C325 C 0.59789 0.45451 1.11791
 C326 C 0.57128 0.41801 1.10767
 C327 C 0.53348 0.39407 1.11711
 C328 C 0.52292 0.40587 1.13659
 C329 C 0.58327 0.40450 1.08763
 C330 C 0.57004 0.36444 1.08505
 C331 C 0.58171 0.35170 1.06650
 C332 C 0.60734 0.37875 1.05020
 C333 C 0.62073 0.41882 1.05273
 C334 C 0.60861 0.43151 1.07116
 H335 H 0.47782 0.42924 1.15934
 H336 H 0.46073 0.44804 1.19467
 H337 H 0.58077 0.50250 1.21756
 H338 H 0.59750 0.48163 1.18306
 H339 H 0.60835 0.49495 1.14451
 H340 H 0.62738 0.47356 1.11130
 H341 H 0.51195 0.36608 1.10948
 H342 H 0.49399 0.38612 1.14373
 H343 H 0.55123 0.34290 1.09760
 H344 H 0.57120 0.32067 1.06516
 H345 H 0.64028 0.44032 1.04036
 H346 H 0.61888 0.46247 1.07238
 C347 C 0.90687 0.45177 1.16782
 C348 C 0.89673 0.46549 1.18677
 C349 C 0.91944 0.47662 1.20638
 C350 C 0.95298 0.47404 1.20790
 C351 C 0.96213 0.45876 1.18914
 C352 C 0.93983 0.44840 1.16931
 C353 C 0.88293 0.44086 1.14674
 C354 C 0.87748 0.40982 1.13293
 C355 C 0.85430 0.39918 1.11345
 C356 C 0.83529 0.41878 1.10745
 C357 C 0.84094 0.44996 1.12120
 C358 C 0.86475 0.46111 1.14039
 C359 C 0.80906 0.40632 1.08725
 C360 C 0.80553 0.43401 1.07467
 C361 C 0.77966 0.42200 1.05635
 C362 C 0.75744 0.38221 1.04983
 C363 C 0.76144 0.35461 1.06200
 C364 C 0.78660 0.36643 1.08063
 H365 H 0.87103 0.46760 1.18657
 H366 H 0.91127 0.48864 1.22010
 H367 H 0.98601 0.45384 1.18984
 H368 H 0.94869 0.43798 1.15512
 H369 H 0.89054 0.39316 1.13732
 H370 H 0.85137 0.37554 1.10311
 H371 H 0.82644 0.46546 1.11743
 H372 H 0.86885 0.48572 1.15025
 H373 H 0.82291 0.46508 1.07885
 H374 H 0.77739 0.44393 1.04709
 H375 H 0.74429 0.32364 1.05746
 H376 H 0.78771 0.34404 1.09011
 C377 C 0.53673 0.08928 1.17107
 C378 C 0.56512 0.09968 1.18810
 C379 C 0.55560 0.07749 1.20789
 C380 C 0.51729 0.04474 1.21137
 C381 C 0.48852 0.03505 1.19477
 C382 C 0.49825 0.05662 1.17472
 C383 C 0.54729 0.11230 1.14963
 C384 C 0.51947 0.11688 1.13803
 C385 C 0.52947 0.13832 1.11790
 C386 C 0.56781 0.15651 1.10901
 C387 C 0.59566 0.15214 1.12072
 C388 C 0.58543 0.12999 1.14055
 C389 C 0.57902 0.18043 1.08789
 C390 C 0.60774 0.18260 1.07329
 C391 C 0.62021 0.20702 1.05432
 C392 C 0.60351 0.22900 1.04911
 C393 C 0.57380 0.22586 1.06307
 C394 C 0.56199 0.20220 1.08239
 H395 H 0.59477 0.12517 1.18628
 H396 H 0.57830 0.08581 1.22047
 H397 H 0.45850 0.01052 1.19723
 H398 H 0.47562 0.04725 1.16199
 H399 H 0.48997 0.10430 1.14458
 H400 H 0.50694 0.14040 1.10928
 H401 H 0.62571 0.16624 1.11478
 H402 H 0.60755 0.12662 1.14865
 H403 H 0.62079 0.16552 1.07648
 H404 H 0.64294 0.20870 1.04367
 H405 H 0.56081 0.24292 1.05952
 H406 H 0.54037 0.20199 1.09334
 C407 C 0.45950 0.54641 1.16881
 C408 C 0.49767 0.55362 1.17124
 C409 C 0.50879 0.54345 1.19114
 C410 C 0.48164 0.52463 1.20879
 C411 C 0.44367 0.51758 1.20648
 C412 C 0.43285 0.52864 1.18686
 C413 C 0.44750 0.55758 1.14774
 C414 C 0.40818 0.53538 1.14020
 C415 C 0.39646 0.54672 1.12104
 C416 C 0.42389 0.58005 1.10847
 C417 C 0.46344 0.60163 1.11565
 C418 C 0.47499 0.59082 1.13513
 C419 C 0.41115 0.59262 1.08828
 C420 C 0.42989 0.63285 1.08265
 C421 C 0.41771 0.64471 1.06392
 C422 C 0.38589 0.61677 1.05069
 C423 C 0.36687 0.57667 1.05626
 C424 C 0.37968 0.56467 1.07465
 H425 H 0.51896 0.56677 1.15770
 H426 H 0.53855 0.55000 1.19268
 H427 H 0.42223 0.50333 1.21989
 H428 H 0.40360 0.52356 1.18602
 H429 H 0.38622 0.50908 1.14907
 H430 H 0.36564 0.52958 1.11637
 H431 H 0.48570 0.62698 1.10625
 H432 H 0.50541 0.60905 1.14046
 H433 H 0.45351 0.65542 1.09295
 H434 H 0.43254 0.67589 1.06012
 H435 H 0.34245 0.55455 1.04616
 H436 H 0.36503 0.53340 1.07803
 C437 C 0.08806 0.54390 1.16736
 C438 C 0.09248 0.52117 1.18370
 C439 C 0.06961 0.50901 1.20327
 C440 C 0.04200 0.51951 1.20709
 C441 C 0.03812 0.54301 1.19113
 C442 C 0.06060 0.55473 1.17134
 C443 C 0.11233 0.55644 1.14641
 C444 C 0.12616 0.59360 1.13674
 C445 C 0.14998 0.60577 1.11750
 C446 C 0.16102 0.58130 1.10757
 C447 C 0.14680 0.54395 1.11710
 C448 C 0.12257 0.53159 1.13615
 C449 C 0.18795 0.59499 1.08772
 C450 C 0.18374 0.56831 1.07083
 C451 C 0.20982 0.58109 1.05258
 C452 C 0.24033 0.62094 1.05060
 C453 C 0.24432 0.64770 1.06729
 C454 C 0.21865 0.63485 1.08569
 H455 H 0.11394 0.51307 1.18153
 H456 H 0.07329 0.49111 1.21543
 H457 H 0.01732 0.55185 1.19387
 H458 H 0.05608 0.57185 1.15906
 H459 H 0.11926 0.61373 1.14427
 H460 H 0.15975 0.63443 1.11042
 H461 H 0.15499 0.52444 1.11014
 H462 H 0.11190 0.50247 1.14284
 H463 H 0.16007 0.53755 1.07159
 H464 H 0.20583 0.55983 1.03988
 H465 H 0.26779 0.67855 1.06635
 H466 H 0.22340 0.65611 1.09856
 C467 C 0.45831 0.91217 1.17081
 C468 C 0.42882 0.90279 1.18691
 C469 C 0.43770 0.92468 1.20681
 C470 C 0.47629 0.95630 1.21113
 C471 C 0.50597 0.96526 1.19532
 C472 C 0.49702 0.94372 1.17528
 C473 C 0.44873 0.88902 1.14952
 C474 C 0.47565 0.88092 1.13999
 C475 C 0.46642 0.85882 1.12013
 C476 C 0.42987 0.84391 1.10940
 C477 C 0.40301 0.85212 1.11891
 C478 C 0.41240 0.87455 1.13862
 C479 C 0.41942 0.81928 1.08866
 C480 C 0.39656 0.82168 1.07153
 C481 C 0.38513 0.79718 1.05258
 C482 C 0.39672 0.77005 1.05014
 C483 C 0.42036 0.76827 1.06694
 C484 C 0.43138 0.79243 1.08603
 H485 H 0.39888 0.87823 1.18428
 H486 H 0.41436 0.91706 1.21882
 H487 H 0.53610 0.98910 1.19844
 H488 H 0.52041 0.95210 1.16320
 H489 H 0.50370 0.89113 1.14803
 H490 H 0.48805 0.85357 1.11315
 H491 H 0.37436 0.84069 1.11134
 H492 H 0.39118 0.88070 1.14525
 H493 H 0.38748 0.84254 1.07273
 H494 H 0.36714 0.79945 1.03985
 H495 H 0.42945 0.74740 1.06566
 H496 H 0.44841 0.78925 1.09901
 C497 C 0.54203 0.45499 0.66927
 C498 C 0.56915 0.47580 0.68666
 C499 C 0.55743 0.48625 0.70618
 C500 C 0.51823 0.47571 0.70882
 C501 C 0.49091 0.45429 0.69156
 C502 C 0.50284 0.44449 0.67182
 C503 C 0.55456 0.44370 0.64872
 C504 C 0.54590 0.45167 0.62718
 C505 C 0.55822 0.44129 0.60782
 C506 C 0.57870 0.42207 0.60972
 C507 C 0.58712 0.41392 0.63126
 C508 C 0.57546 0.42493 0.65058
 C509 C 0.59083 0.40995 0.58934
 C510 C 0.58208 0.37124 0.58743
 C511 C 0.59384 0.35965 0.56841
 C512 C 0.61521 0.38674 0.55105
 C513 C 0.62409 0.42556 0.55299
 C514 C 0.61163 0.43695 0.57188
 H515 H 0.59957 0.48438 0.68501
 H516 H 0.57906 0.50283 0.71921
 H517 H 0.46034 0.44507 0.69339
 H518 H 0.48131 0.42800 0.65873
 H519 H 0.53000 0.46632 0.62537
 H520 H 0.55124 0.44767 0.59137
 H521 H 0.60305 0.39930 0.63312
 H522 H 0.58229 0.41832 0.66702
 H523 H 0.56587 0.34987 0.60062
 H524 H 0.58675 0.32960 0.56746
 H525 H 0.64045 0.44702 0.53986
 H526 H 0.61886 0.46703 0.57308
 C527 C 0.54427 0.09100 0.66660
 C528 C 0.55647 0.06459 0.67051
 C529 C 0.54538 0.04197 0.69021
 C530 C 0.52107 0.04452 0.70617
 C531 C 0.50911 0.07105 0.70243
 C532 C 0.52068 0.09412 0.68292
 C533 C 0.55645 0.11557 0.64578
 C534 C 0.53095 0.12479 0.63537
 C535 C 0.54294 0.14904 0.61632
 C536 C 0.58057 0.16432 0.60698
 C537 C 0.60570 0.15433 0.61708
 C538 C 0.59392 0.13053 0.63630
 C539 C 0.59397 0.19129 0.58716
 C540 C 0.63350 0.22276 0.58544
 C541 C 0.64632 0.24822 0.56695
 C542 C 0.61984 0.24327 0.54985
 C543 C 0.58023 0.21213 0.55158
 C544 C 0.56748 0.18624 0.56996
 H545 H 0.57424 0.06101 0.65824
 H546 H 0.55541 0.02210 0.69288
 H547 H 0.49054 0.07369 0.71457
 H548 H 0.51146 0.11474 0.68078
 H549 H 0.50161 0.11325 0.64193
 H550 H 0.52292 0.15640 0.60918
 H551 H 0.63461 0.16491 0.61015
 H552 H 0.61456 0.12449 0.64395
 H553 H 0.65456 0.22822 0.59857
 H554 H 0.67694 0.27225 0.56626
 H555 H 0.55919 0.20750 0.53860
 H556 H 0.53697 0.16202 0.57053
 C557 C 0.91245 0.46577 0.67024
 C558 C 0.94418 0.50461 0.67428
 C559 C 0.96583 0.51420 0.69430
 C560 C 0.95669 0.48504 0.71053
 C561 C 0.92486 0.44636 0.70664
 C562 C 0.90292 0.43684 0.68676
 C563 C 0.88918 0.45543 0.64900
 C564 C 0.87463 0.41867 0.63857
 C565 C 0.85181 0.40843 0.61899
 C566 C 0.84325 0.43484 0.60919
 C567 C 0.85834 0.47187 0.61941
 C568 C 0.88087 0.48197 0.63912
 C569 C 0.81801 0.42342 0.58870
 C570 C 0.79082 0.43493 0.58617
 C571 C 0.76627 0.42326 0.56726
 C572 C 0.76801 0.39944 0.55054
 C573 C 0.79535 0.38815 0.55293
 C574 C 0.82021 0.40019 0.57173
 H575 H 0.95261 0.52755 0.66185
 H576 H 0.98988 0.54438 0.69708
 H577 H 0.91715 0.42341 0.71896
 H578 H 0.87821 0.40684 0.68446
 H579 H 0.88096 0.39774 0.64549
 H580 H 0.84029 0.37946 0.61178
 H581 H 0.85282 0.49317 0.61217
 H582 H 0.89120 0.51036 0.64681
 H583 H 0.78779 0.45221 0.59907
 H584 H 0.74528 0.43217 0.56602
 H585 H 0.79759 0.37002 0.54026
 H586 H 0.84128 0.39139 0.57290
 C587 C 0.45352 0.53961 0.66803
 C588 C 0.42512 0.51756 0.68470
 C589 C 0.43554 0.50663 0.70454
 C590 C 0.47462 0.51769 0.70829
 C591 C 0.50324 0.54028 0.69189
 C592 C 0.49274 0.55078 0.67187
 C593 C 0.44228 0.55138 0.64695
 C594 C 0.46810 0.58832 0.63696
 C595 C 0.45703 0.59983 0.61757
 C596 C 0.41967 0.57490 0.60779
 C597 C 0.39403 0.53777 0.61763
 C598 C 0.40527 0.52608 0.63687
 C599 C 0.40719 0.58793 0.58775
 C600 C 0.38310 0.56084 0.57093
 C601 C 0.37066 0.57307 0.55244
 C602 C 0.38246 0.61275 0.55019
 C603 C 0.40680 0.63989 0.56686
 C604 C 0.41880 0.62760 0.58546
 H605 H 0.39484 0.50915 0.68259
 H606 H 0.41299 0.48938 0.71700
 H607 H 0.53371 0.54970 0.69456
 H608 H 0.51534 0.56739 0.65935
 H609 H 0.49665 0.60879 0.64435
 H610 H 0.47785 0.62835 0.61026
 H611 H 0.36488 0.51793 0.61076
 H612 H 0.38486 0.49713 0.64384
 H613 H 0.37410 0.53021 0.57192
 H614 H 0.35210 0.55150 0.53980
 H615 H 0.41607 0.67062 0.56574
 H616 H 0.43661 0.64915 0.59828
 C617 C 0.45759 0.91018 0.66616
 C618 C 0.45153 0.94131 0.66858
 C619 C 0.46231 0.96347 0.68846
 C620 C 0.48033 0.95578 0.70638
 C621 C 0.48575 0.92408 0.70395
 C622 C 0.47462 0.90172 0.68415
 C623 C 0.44552 0.88608 0.64517
 C624 C 0.46826 0.87195 0.63656
 C625 C 0.45611 0.84805 0.61733
 C626 C 0.42107 0.83792 0.60613
 C627 C 0.39881 0.85277 0.61446
 C628 C 0.41077 0.87637 0.63379
 C629 C 0.40719 0.81111 0.58624
 C630 C 0.36680 0.78294 0.58325
 C631 C 0.35355 0.75733 0.56480
 C632 C 0.38037 0.75893 0.54896
 C633 C 0.42079 0.78697 0.55192
 C634 C 0.43404 0.81290 0.57030
 H635 H 0.43848 0.94868 0.65508
 H636 H 0.45537 0.98591 0.68993
 H637 H 0.49983 0.91716 0.71707
 H638 H 0.47906 0.87749 0.68306
 H639 H 0.49551 0.87935 0.64468
 H640 H 0.47378 0.83683 0.61154
 H641 H 0.37201 0.84610 0.60606
 H642 H 0.39229 0.88634 0.64006
 H643 H 0.34536 0.78012 0.59541
 H644 H 0.32224 0.73580 0.56317
 H645 H 0.44217 0.78904 0.53997
 H646 H 0.46530 0.83458 0.57192
 C647 C 0.08885 0.54319 0.67019
 C648 C 0.09862 0.57245 0.68657
 C649 C 0.07673 0.56338 0.70646
 C650 C 0.04472 0.52485 0.71045
 C651 C 0.03532 0.49542 0.69434
 C652 C 0.05688 0.50455 0.67434
 C653 C 0.11212 0.55289 0.64900
 C654 C 0.11981 0.52574 0.63933
 C655 C 0.14203 0.53503 0.61956
 C656 C 0.15748 0.57187 0.60906
 C657 C 0.14967 0.59896 0.61869
 C658 C 0.12712 0.58952 0.63833
 C659 C 0.18224 0.58231 0.58842
 C660 C 0.18017 0.60534 0.57129
 C661 C 0.20452 0.61636 0.55232
 C662 C 0.23120 0.60422 0.54991
 C663 C 0.23279 0.58060 0.56681
 C664 C 0.20876 0.56995 0.58588
 H665 H 0.12350 0.60232 0.68418
 H666 H 0.08468 0.58650 0.71872
 H667 H 0.01118 0.46532 0.69723
 H668 H 0.04822 0.48137 0.66203
 H669 H 0.10917 0.49744 0.64721
 H670 H 0.14697 0.51322 0.61247
 H671 H 0.16150 0.62781 0.61126
 H672 H 0.12131 0.61093 0.64509
 H673 H 0.15959 0.61477 0.57246
 H674 H 0.20242 0.63438 0.53953
 H675 H 0.25330 0.57108 0.56557
 H676 H 0.21169 0.55280 0.59890
 C677 C 0.45150 0.53999 0.83204
 C678 C 0.44293 0.50130 0.82939
 C679 C 0.45271 0.48988 0.80944
 C680 C 0.47246 0.51719 0.79196
 C681 C 0.48067 0.55564 0.79445
 C682 C 0.47003 0.56679 0.81412
 C683 C 0.44120 0.55247 0.85328
 C684 C 0.46461 0.59164 0.86100
 C685 C 0.45430 0.60384 0.88039
 C686 C 0.42079 0.57701 0.89303
 C687 C 0.39791 0.53757 0.88563
 C688 C 0.40772 0.52558 0.86593
 C689 C 0.40943 0.59033 0.91351
 C690 C 0.36951 0.57291 0.91941
 C691 C 0.35882 0.58598 0.93828
 C692 C 0.38769 0.61738 0.95140
 C693 C 0.42751 0.63491 0.94564
 C694 C 0.43830 0.62121 0.92711
 H695 H 0.42913 0.47984 0.84281
 H696 H 0.44522 0.45978 0.80776
 H697 H 0.49563 0.57723 0.78118
 H698 H 0.47614 0.59646 0.81512
 H699 H 0.49111 0.61313 0.85212
 H700 H 0.47241 0.63458 0.88520
 H701 H 0.37233 0.51575 0.89506
 H702 H 0.38858 0.49530 0.86048
 H703 H 0.34629 0.54976 0.90919
 H704 H 0.32785 0.57229 0.94223
 H705 H 0.45034 0.65898 0.95563
 H706 H 0.46935 0.63480 0.92355
 C707 C 0.09001 0.54457 0.83347
 C708 C 0.10268 0.57087 0.81520
 C709 C 0.08044 0.56068 0.79542
 C710 C 0.04460 0.52387 0.79328
 C711 C 0.03275 0.49703 0.81139
 C712 C 0.05492 0.50739 0.83126
 C713 C 0.11361 0.55592 0.85462
 C714 C 0.11783 0.52823 0.86660
 C715 C 0.14103 0.53933 0.88608
 C716 C 0.16078 0.57845 0.89399
 C717 C 0.15610 0.60599 0.88218
 C718 C 0.13270 0.59483 0.86279
 C719 C 0.18702 0.59077 0.91408
 C720 C 0.18926 0.61857 0.92948
 C721 C 0.21501 0.63108 0.94790
 C722 C 0.23886 0.61582 0.95144
 C723 C 0.23627 0.58769 0.93620
 C724 C 0.21079 0.57544 0.91772
 H725 H 0.13000 0.59942 0.81612
 H726 H 0.09078 0.58245 0.78208
 H727 H 0.00675 0.46756 0.81011
 H728 H 0.04434 0.48631 0.84497
 H729 H 0.10385 0.49811 0.86068
 H730 H 0.14350 0.51722 0.89494
 H731 H 0.17119 0.63646 0.88762
 H732 H 0.12959 0.61677 0.85420
 H733 H 0.17095 0.63054 0.92738
 H734 H 0.21616 0.65263 0.95939
 H735 H 0.25447 0.57557 0.93831
 H736 H 0.21040 0.55457 0.90599
 C737 C 0.46435 0.91098 0.82968
 C738 C 0.50201 0.94533 0.82671
 C739 C 0.51177 0.96686 0.80661
 C740 C 0.48378 0.95516 0.78929
 C741 C 0.44644 0.92065 0.79208
 C742 C 0.43695 0.89866 0.81191
 C743 C 0.45338 0.88813 0.85117
 C744 C 0.41445 0.86866 0.85924
 C745 C 0.40361 0.84618 0.87894
 C746 C 0.43155 0.84320 0.89151
 C747 C 0.47070 0.86330 0.88371
 C748 C 0.48140 0.88521 0.86371
 C749 C 0.41954 0.81868 0.91240
 C750 C 0.43738 0.79790 0.91842
 C751 C 0.42480 0.77359 0.93749
 C752 C 0.39358 0.76887 0.95067
 C753 C 0.37604 0.78987 0.94492
 C754 C 0.38919 0.81486 0.92620
 H755 H 0.52381 0.95603 0.84003
 H756 H 0.54106 0.99295 0.80470
 H757 H 0.42438 0.91085 0.77894
 H758 H 0.40808 0.87185 0.81321
 H759 H 0.39215 0.87080 0.85039
 H760 H 0.37303 0.83064 0.88407
 H761 H 0.49324 0.86228 0.89305
 H762 H 0.51156 0.89935 0.85795
 H763 H 0.46033 0.79947 0.90807
 H764 H 0.43859 0.75744 0.94149
 H765 H 0.35223 0.78711 0.95500
 H766 H 0.37543 0.83114 0.92258
 C767 C 0.53937 0.45567 0.83280
 C768 C 0.51848 0.42741 0.81583
 C769 C 0.50758 0.43770 0.79593
 C770 C 0.51750 0.47653 0.79243
 C771 C 0.53906 0.50508 0.80909
 C772 C 0.54954 0.49469 0.82917
 C773 C 0.55084 0.44445 0.85401
 C774 C 0.58714 0.47074 0.86452
 C775 C 0.59843 0.45964 0.88399
 C776 C 0.57394 0.42181 0.89333
 C777 C 0.53741 0.39572 0.88299
 C778 C 0.52593 0.40698 0.86368
 C779 C 0.58686 0.40924 0.91339
 C780 C 0.55954 0.38402 0.92977
 C781 C 0.57165 0.37129 0.94818
 C782 C 0.61146 0.38391 0.95079
 C783 C 0.63885 0.40946 0.93459
 C784 C 0.62668 0.42177 0.91606
 H785 H 0.51091 0.39733 0.81776
 H786 H 0.49116 0.41523 0.78326
 H787 H 0.54755 0.53536 0.80662
 H788 H 0.56525 0.51716 0.84192
 H789 H 0.60730 0.49967 0.85747
 H790 H 0.62647 0.48078 0.89169
 H791 H 0.51794 0.36621 0.88951
 H792 H 0.49745 0.38619 0.85631
 H793 H 0.52876 0.37429 0.92849
 H794 H 0.54989 0.35179 0.96045
 H795 H 0.66968 0.41939 0.93597
 H796 H 0.64844 0.44047 0.90359
 C797 C 0.90884 0.45950 0.83337
 C798 C 0.94112 0.49854 0.83053
 C799 C 0.96374 0.50978 0.81080
 C800 C 0.95547 0.48195 0.79382
 C801 C 0.92306 0.44319 0.79648
 C802 C 0.89983 0.43220 0.81587
 C803 C 0.88457 0.44713 0.85437
 C804 C 0.86672 0.40829 0.86250
 C805 C 0.84266 0.39605 0.88160
 C806 C 0.83653 0.42254 0.89357
 C807 C 0.85524 0.46169 0.88579
 C808 C 0.87855 0.47369 0.86634
 C809 C 0.81020 0.40911 0.91374
 C810 C 0.78790 0.42568 0.91890
 C811 C 0.76259 0.41247 0.93749
 C812 C 0.75821 0.38173 0.95102
 C813 C 0.78024 0.36503 0.94600
 C814 C 0.80637 0.37894 0.92778
 H815 H 0.94939 0.52039 0.84364
 H816 H 0.98813 0.54007 0.80896
 H817 H 0.91580 0.42126 0.78353
 H818 H 0.87460 0.40224 0.81698
 H819 H 0.87126 0.38710 0.85416
 H820 H 0.82838 0.36551 0.88669
 H821 H 0.85201 0.48328 0.89472
 H822 H 0.89130 0.50369 0.86055
 H823 H 0.78918 0.44825 0.90831
 H824 H 0.74553 0.42550 0.94092
 H825 H 0.77762 0.34153 0.95636
 H826 H 0.82367 0.36607 0.92483
 C827 C 0.53544 0.08652 0.82981
 C828 C 0.49737 0.05322 0.82609
 C829 C 0.48837 0.03169 0.80601
 C830 C 0.51741 0.04264 0.78944
 C831 C 0.55521 0.07612 0.79298
 C832 C 0.56412 0.09787 0.81290
 C833 C 0.54540 0.10947 0.85117
 C834 C 0.58278 0.12569 0.86106
 C835 C 0.59278 0.14837 0.88069
 C836 C 0.56553 0.15511 0.89110
 C837 C 0.52789 0.13833 0.88143
 C838 C 0.51798 0.11588 0.86167
 C839 C 0.57676 0.18019 0.91168
 C840 C 0.56377 0.20612 0.91478
 C841 C 0.57565 0.23084 0.93366
 C842 C 0.60111 0.23050 0.94976
 C843 C 0.61370 0.20426 0.94683
 C844 C 0.60149 0.17926 0.92809
 H845 H 0.47468 0.04346 0.83881
 H846 H 0.45883 0.00627 0.80349
 H847 H 0.57799 0.08524 0.78036
 H848 H 0.59346 0.12381 0.81495
 H849 H 0.60442 0.12083 0.85366
 H850 H 0.62221 0.16123 0.88745
 H851 H 0.50599 0.14247 0.88916
 H852 H 0.48906 0.10416 0.85440
 H853 H 0.54521 0.20809 0.90233
 H854 H 0.56563 0.25091 0.93535
 H855 H 0.63304 0.20301 0.95904
 H856 H 0.61143 0.15912 0.92649
   
