data_POSCAR
  _audit_creation_date              2014-09-24
  _audit_creation_method            'ToBaCCo'
  _symmetry_space_group_name_H-M    'P1'
  _symmetry_Int_Tables_number       1
  _symmetry_cell_setting            triclinic
  loop_
  _symmetry_equiv_pos_as_xyz
 x,y,z
_cell_length_a 30.5918
_cell_length_b 30.8441
_cell_length_c 30.6677
_cell_angle_alpha 90.141900
_cell_angle_beta 91.979200
_cell_angle_gamma 89.653700
loop_
  _atom_site_label
  _atom_site_type_symbol
  _atom_site_fract_x
  _atom_site_fract_y
  _atom_site_fract_z
C1 C -0.06348 0.51194 0.26671
 C2 C -0.02259 0.51901 0.24893
 C3 C -0.01311 0.55939 0.23099
 C4 C -0.04423 0.59329 0.23002
 C5 C -0.08496 0.58563 0.24897
 C6 C -0.09532 0.54521 0.26759
 C7 C 0.01054 0.48392 0.24857
 C8 C 0.00051 0.44360 0.22947
 C9 C 0.03227 0.41057 0.22843
 C10 C 0.07400 0.41813 0.24728
 C11 C 0.08440 0.45807 0.26690
 C12 C 0.05255 0.49103 0.26699
 H13 H -0.07025 0.47990 0.27895
 H14 H 0.01796 0.56296 0.21563
 H15 H -0.03187 0.43816 0.21514
 H16 H 0.06000 0.52193 0.28232
 H17 H -0.10730 0.61253 0.25251
 H18 H 0.09899 0.39320 0.24555
 C19 C -0.04819 0.49139 0.73672
 C20 C -0.00650 0.48187 0.75471
 C21 C 0.00227 0.44058 0.77236
 C22 C -0.03071 0.40868 0.77314
 C23 C -0.07202 0.41905 0.75386
 C24 C -0.08106 0.46001 0.73596
 C25 C 0.02762 0.51564 0.75588
 C26 C 0.01905 0.55636 0.77434
 C27 C 0.05049 0.58974 0.77463
 C28 C 0.09079 0.58092 0.75504
 C29 C 0.09960 0.54040 0.73600
 C30 C 0.06798 0.50773 0.73716
 H31 H -0.05495 0.52328 0.72326
 H32 H 0.03415 0.43480 0.78768
 H33 H -0.01304 0.56190 0.78709
 H34 H 0.07397 0.47661 0.72193
 H35 H -0.09712 0.39460 0.75052
 H36 H 0.11665 0.60467 0.75612
 C37 C 0.27104 -0.05739 0.51706
 C38 C 0.25250 -0.01631 0.52418
 C39 C 0.23356 -0.00713 0.56415
 C40 C 0.23258 -0.03866 0.59692
 C41 C 0.25157 -0.07948 0.58953
 C42 C 0.27173 -0.08956 0.54991
 C43 C 0.25395 0.01764 0.49021
 C44 C 0.23561 0.01012 0.44828
 C45 C 0.23500 0.04284 0.41595
 C46 C 0.25501 0.08289 0.42691
 C47 C 0.27388 0.09063 0.46865
 C48 C 0.27275 0.05789 0.50019
 H49 H 0.28716 -0.06272 0.48664
 H50 H 0.21954 0.02469 0.56964
 H51 H 0.21956 -0.02058 0.44238
 H52 H 0.28654 0.06363 0.53271
 H53 H 0.24836 -0.10403 0.61431
 H54 H 0.25812 0.10778 0.40248
 C55 C 0.73242 -0.06164 0.48312
 C56 C 0.74852 -0.02034 0.47364
 C57 C 0.76561 -0.01225 0.43266
 C58 C 0.76735 -0.04537 0.40139
 C59 C 0.75052 -0.08632 0.41104
 C60 C 0.73282 -0.09535 0.45189
 C61 C 0.74854 0.01407 0.50724
 C62 C 0.76886 0.00675 0.54828
 C63 C 0.77002 0.03929 0.58081
 C64 C 0.74900 0.07924 0.57093
 C65 C 0.72821 0.08681 0.53001
 C66 C 0.72858 0.05412 0.49819
 H67 H 0.72075 -0.06730 0.51551
 H68 H 0.77897 0.01937 0.42580
 H69 H 0.78579 -0.02381 0.55334
 H70 H 0.71316 0.05968 0.46633
 H71 H 0.74946 -0.11037 0.38531
 H72 H 0.74650 0.10407 0.59569
 C73 C 0.48940 0.26946 1.05503
 C74 C 0.47912 0.24903 1.01524
 C75 C 0.43698 0.23249 1.00715
 C76 C 0.40460 0.23567 1.03882
 C77 C 0.41586 0.25687 1.07850
 C78 C 0.45774 0.27407 1.08661
 C79 C 0.51217 0.24656 0.98139
 C80 C 0.55284 0.22677 0.99053
 C81 C 0.58566 0.22576 0.95922
 C82 C 0.57631 0.24597 0.91857
 C83 C 0.53586 0.26641 0.90935
 C84 C 0.50374 0.26598 0.94079
 H85 H 0.52165 0.28316 1.06066
 H86 H 0.42964 0.21830 0.97546
 H87 H 0.55888 0.21364 1.02287
 H88 H 0.47273 0.28237 0.93449
 H89 H 0.39300 0.25832 1.10459
 H90 H 0.59953 0.24442 0.89282
 C91 C 0.50766 0.73373 1.06125
 C92 C 0.51532 0.75138 1.02027
 C93 C 0.55563 0.77093 1.01272
 C94 C 0.58871 0.77363 1.04598
 C95 C 0.58008 0.75511 1.08698
 C96 C 0.53992 0.73508 1.09475
 C97 C 0.48084 0.74936 0.98531
 C98 C 0.43852 0.76451 0.99333
 C99 C 0.40504 0.76362 0.96046
 C100 C 0.41522 0.74580 0.91957
 C101 C 0.45740 0.73052 0.91110
 C102 C 0.49017 0.73264 0.94411
 H103 H 0.47684 0.71777 1.06656
 H104 H 0.56102 0.78304 0.98029
 H105 H 0.43299 0.77920 1.02474
 H106 H 0.52289 0.72105 0.93791
 H107 H 0.60345 0.75802 1.11407
 H108 H 0.38989 0.74151 0.89448
 B109 B 0.99862 1.04409 0.02774
 B110 B 1.02738 0.99879 0.04672
 B111 B 0.97076 0.99792 0.04432
 B112 B 0.95325 1.02580 -0.00218
 B113 B 0.99905 1.04373 -0.02841
 B114 B 1.04469 1.02701 0.00227
 B115 B 1.00033 0.95301 -0.02821
 B116 B 0.97204 0.99793 -0.04723
 B117 B 1.02825 0.99854 -0.04433
 B118 B 1.04550 0.97041 0.00175
 B119 B 0.99997 0.95298 0.02818
 B120 B 0.95396 0.97006 -0.00171
 B121 B 0.54630 0.50142 0.47187
 B122 B 0.49939 0.52897 0.45440
 B123 B 0.50070 0.47316 0.45399
 B124 B 0.52993 0.45547 0.49996
 B125 B 0.54760 0.50110 0.52917
 B126 B 0.52921 0.54661 0.49975
 B127 B 0.45584 0.50071 0.52745
 B128 B 0.50184 0.47356 0.54608
 B129 B 0.50149 0.52951 0.54569
 B130 B 0.47212 0.54626 0.50012
 B131 B 0.45493 0.50031 0.47084
 B132 B 0.47330 0.45528 0.50027
 C133 C 1.01224 1.28937 0.16189
 C134 C 1.03294 1.29027 0.20326
 C135 C 1.03822 1.32955 0.22549
 C136 C 1.02290 1.36853 0.20656
 C137 C 1.00100 1.36719 0.16549
 C138 C 0.99580 1.32779 0.14325
 C139 C 1.00942 1.24919 0.13812
 C140 C 1.00790 1.21530 0.11852
 C141 C 1.00657 1.17464 0.09551
 C142 C 1.03930 1.14379 0.10284
 C143 C 1.03747 1.10413 0.08079
 C144 C 1.00153 1.09228 0.05276
 C145 C 0.97226 1.12666 0.04248
 C146 C 0.97366 1.16646 0.06427
 H147 H 1.04565 1.26070 0.21803
 H148 H 1.05471 1.32955 0.25731
 H149 H 0.98929 1.39673 0.14995
 H150 H 0.97978 1.32743 0.11119
 H151 H 1.06685 1.15064 0.12489
 H152 H 1.06607 1.08403 0.08471
 H153 H 0.94814 1.12431 0.01711
 H154 H 0.94932 1.19109 0.05615
 C155 C 0.98277 0.71336 0.16866
 C156 C 0.93968 0.69952 0.17220
 C157 C 0.93074 0.66036 0.19271
 C158 C 0.96491 0.63383 0.21025
 C159 C 1.00836 0.64874 0.20663
 C160 C 1.01707 0.68804 0.18607
 C161 C 0.99138 0.75311 0.14615
 C162 C 0.99681 0.78631 0.12648
 C163 C 1.00084 0.82575 0.10205
 C164 C 0.97986 0.82955 0.06140
 C165 C 0.98032 0.86884 0.03907
 C166 C 1.00064 0.90656 0.05629
 C167 C 1.02380 0.90038 0.09668
 C168 C 1.02341 0.86112 0.11946
 H169 H 0.91285 0.71872 0.15840
 H170 H 0.89695 0.65028 0.19269
 H171 H 1.03594 0.63106 0.22082
 H172 H 1.05061 0.69864 0.18377
 H173 H 0.96182 0.80247 0.04734
 H174 H 0.96105 0.86974 0.01006
 H175 H 1.04202 0.92504 0.11248
 H176 H 1.04036 0.85865 0.15097
 C177 C 0.99005 1.28508 -0.16835
 C178 C 1.02554 1.30793 -0.18405
 C179 C 1.01907 1.34883 -0.20307
 C180 C 0.97674 1.36754 -0.20699
 C181 C 0.94156 1.34386 -0.19025
 C182 C 0.94823 1.30324 -0.17135
 C183 C 0.99574 1.24329 -0.14824
 C184 C 0.99788 1.20855 -0.13043
 C185 C 0.99785 1.16776 -0.10789
 C186 C 1.03502 1.14178 -0.10508
 C187 C 1.03480 1.10348 -0.08084
 C188 C 0.99830 1.08985 -0.05724
 C189 C 0.96061 1.11633 -0.06323
 C190 C 0.96043 1.15459 -0.08739
 H191 H 1.05816 1.29405 -0.18185
 H192 H 1.04721 1.36464 -0.21614
 H193 H 0.90875 1.35707 -0.18989
 H194 H 0.92061 1.28612 -0.15859
 H195 H 1.06457 1.15142 -0.12088
 H196 H 1.06483 1.08682 -0.07863
 H197 H 0.93058 1.10961 -0.04916
 H198 H 0.93090 1.17420 -0.08966
 C199 C 1.02577 0.71238 -0.16666
 C200 C 1.00384 0.67554 -0.15292
 C201 C 1.01164 0.63529 -0.17233
 C202 C 1.04188 0.63085 -0.20604
 C203 C 1.06343 0.66876 -0.21962
 C204 C 1.05542 0.70891 -0.20012
 C205 C 1.01894 0.75350 -0.14554
 C206 C 1.01416 0.78787 -0.12742
 C207 C 1.00984 0.82878 -0.10522
 C208 C 0.96979 0.84198 -0.08926
 C209 C 0.96651 0.88090 -0.06605
 C210 C 1.00313 0.90774 -0.05727
 C211 C 1.04284 0.89389 -0.07551
 C212 C 1.04624 0.85512 -0.09868
 H213 H 0.98113 0.67777 -0.12664
 H214 H 0.99523 0.60757 -0.15911
 H215 H 1.08550 0.66823 -0.24640
 H216 H 1.07243 0.73733 -0.21122
 H217 H 0.94114 0.82180 -0.09398
 H218 H 0.93518 0.88791 -0.05289
 H219 H 1.07184 0.91327 -0.07360
 H220 H 1.07747 0.84576 -0.11156
 C221 C 1.17152 1.02297 0.29145
 C222 C 1.18760 0.98757 0.31555
 C223 C 1.20874 0.99392 0.35630
 C224 C 1.21437 1.03608 0.37403
 C225 C 1.19803 1.07141 0.34877
 C226 C 1.17692 1.06482 0.30814
 C227 C 1.14859 1.01659 0.25002
 C228 C 1.12875 1.01218 0.21556
 C229 C 1.10421 1.00799 0.17475
 C230 C 1.12010 0.98291 0.14080
 C231 C 1.09613 0.97936 0.10123
 C232 C 1.05576 1.00137 0.09376
 C233 C 1.04015 1.02536 0.12957
 C234 C 1.06394 1.02890 0.16909
 H235 H 1.18386 0.95495 0.30284
 H236 H 1.22179 0.96554 0.37287
 H237 H 1.19941 1.10434 0.36083
 H238 H 1.16419 1.09252 0.29000
 H239 H 1.15083 0.96553 0.14503
 H240 H 1.10886 0.95735 0.07773
 H241 H 1.00916 1.04228 0.12714
 H242 H 1.05080 1.04814 0.19524
 C243 C 1.16831 0.98360 -0.28237
 C244 C 1.14943 0.99895 -0.32166
 C245 C 1.17069 0.99250 -0.36085
 C246 C 1.21107 0.97044 -0.36126
 C247 C 1.23011 0.95581 -0.32148
 C248 C 1.20884 0.96233 -0.28235
 C249 C 1.14541 0.98815 -0.24233
 C250 C 1.12597 0.99107 -0.20887
 C251 C 1.10235 0.99359 -0.16911
 C252 C 1.11939 1.01626 -0.13314
 C253 C 1.09654 1.01795 -0.09445
 C254 C 1.05576 0.99725 -0.09010
 C255 C 1.03972 0.97435 -0.12745
 C256 C 1.06243 0.97262 -0.16612
 H257 H 1.11797 1.01529 -0.32209
 H258 H 1.15497 1.00371 -0.39097
 H259 H 1.26143 0.93923 -0.32065
 H260 H 1.22378 0.95033 -0.25215
 H261 H 1.15042 1.03282 -0.13490
 H262 H 1.11127 1.03689 -0.06851
 H263 H 1.00997 0.95606 -0.12732
 H264 H 1.04891 0.95440 -0.19362
 C265 C 0.82484 0.97394 0.27722
 C266 C 0.79803 1.00627 0.29438
 C267 C 0.77942 1.00035 0.33501
 C268 C 0.78747 0.96197 0.35874
 C269 C 0.81474 0.92993 0.34124
 C270 C 0.83322 0.93590 0.30079
 C271 C 0.84513 0.97971 0.23611
 C272 C 0.86393 0.98303 0.20244
 C273 C 0.88868 0.98564 0.16359
 C274 C 0.86877 0.99600 0.12348
 C275 C 0.89388 0.99819 0.08629
 C276 C 0.94013 0.99325 0.08810
 C277 C 0.95739 0.97722 0.12821
 C278 C 0.93284 0.97490 0.16555
 H279 H 0.79154 1.03595 0.27642
 H280 H 0.75831 1.02540 0.34757
 H281 H 0.82214 0.90037 0.35908
 H282 H 0.85428 0.91088 0.28799
 H283 H 0.83373 1.00122 0.12059
 H284 H 0.87573 1.00121 0.05587
 H285 H 0.98985 0.96563 0.13193
 H286 H 0.94837 0.96396 0.19591
 C287 C 0.83731 1.01824 -0.29708
 C288 C 0.82060 0.98312 -0.32099
 C289 C 0.79822 0.98991 -0.36096
 C290 C 0.79197 1.03223 -0.37805
 C291 C 0.80892 1.06730 -0.35297
 C292 C 0.83130 1.06027 -0.31310
 C293 C 0.86092 1.01139 -0.25621
 C294 C 0.88091 1.00667 -0.22194
 C295 C 0.90493 1.00255 -0.18094
 C296 C 0.89822 0.96754 -0.15350
 C297 C 0.92056 0.96503 -0.11298
 C298 C 0.94858 0.99820 -0.09714
 C299 C 0.95792 1.03062 -0.12817
 C300 C 0.93582 1.03348 -0.16864
 H301 H 0.82471 0.95041 -0.30867
 H302 H 0.78462 0.96174 -0.37736
 H303 H 0.80692 1.10031 -0.36466
 H304 H 0.84442 1.08774 -0.29496
 H305 H 0.87550 0.94219 -0.16320
 H306 H 0.91394 0.93729 -0.09427
 H307 H 0.98452 1.05230 -0.12390
 H308 H 0.94356 1.05952 -0.19069
 C309 C 1.27927 1.17807 0.02154
 C310 C 1.28478 1.21409 0.04873
 C311 C 1.32568 1.23371 0.05368
 C312 C 1.36231 1.21751 0.03160
 C313 C 1.35557 1.18181 0.00313
 C314 C 1.31455 1.16229 -0.00161
 C315 C 1.23806 1.15588 0.01910
 C316 C 1.20420 1.13611 0.01767
 C317 C 1.16483 1.11089 0.01630
 C318 C 1.12484 1.12924 0.00326
 C319 C 1.08731 1.10358 0.00075
 C320 C 1.08867 1.05822 0.00847
 C321 C 1.12870 1.04253 0.02659
 C322 C 1.16637 1.06776 0.02928
 H323 H 1.25750 1.22683 0.06651
 H324 H 1.32789 1.26224 0.07417
 H325 H 1.38224 1.16694 -0.01378
 H326 H 1.31067 1.13412 -0.02254
 H327 H 1.12241 1.16348 -0.00428
 H328 H 1.05701 1.12063 -0.00505
 H329 H 1.13231 1.01048 0.03845
 H330 H 1.19678 1.05343 0.04159
 C331 C 0.70799 1.16247 -0.01597
 C332 C 0.70468 1.19662 -0.04570
 C333 C 0.66469 1.21775 -0.05356
 C334 C 0.62675 1.20512 -0.03180
 C335 C 0.63108 1.17091 -0.00119
 C336 C 0.67122 1.14982 0.00644
 C337 C 0.74878 1.13940 -0.01004
 C338 C 0.78303 1.11997 -0.00670
 C339 C 0.82391 1.09664 -0.00487
 C340 C 0.85062 1.09667 0.03286
 C341 C 0.89079 1.07475 0.03352
 C342 C 0.90560 1.05162 -0.00323
 C343 C 0.87786 1.05327 -0.04113
 C344 C 0.83772 1.07498 -0.04184
 H345 H 0.73309 1.20689 -0.06305
 H346 H 0.66434 1.24489 -0.07581
 H347 H 0.60324 1.15856 0.01553
 H348 H 0.67334 1.12306 0.02925
 H349 H 0.84060 1.11379 0.06177
 H350 H 0.91028 1.07588 0.06353
 H351 H 0.88741 1.04028 -0.07164
 H352 H 0.81785 1.07565 -0.07179
 C353 C 1.27963 0.81792 -0.01768
 C354 C 1.30511 0.80196 0.01743
 C355 C 1.34616 0.78352 0.01039
 C356 C 1.36266 0.78078 -0.03213
 C357 C 1.33584 0.79666 -0.06716
 C358 C 1.29494 0.81497 -0.05990
 C359 C 1.23892 0.83984 -0.01065
 C360 C 1.20549 0.85995 -0.00643
 C361 C 1.16671 0.88607 -0.00336
 C362 C 1.16687 0.92835 -0.01868
 C363 C 1.12921 0.95381 -0.01727
 C364 C 1.09019 0.93930 0.00088
 C365 C 1.09065 0.89499 0.01360
 C366 C 1.12832 0.86913 0.01234
 H367 H 1.29342 0.80404 0.05032
 H368 H 1.36410 0.77049 0.03843
 H369 H 1.34695 0.79737 -0.10023
 H370 H 1.27568 0.82788 -0.08727
 H371 H 1.19613 0.94175 -0.03220
 H372 H 1.13223 0.98533 -0.02980
 H373 H 1.06197 0.87787 0.02113
 H374 H 1.12697 0.83549 0.02228
 C375 C 0.70928 0.83743 0.02494
 C376 C 0.70712 0.80495 0.05643
 C377 C 0.66766 0.78379 0.06326
 C378 C 0.62916 0.79464 0.03862
 C379 C 0.63228 0.82745 0.00664
 C380 C 0.67184 0.84854 0.00003
 C381 C 0.74982 0.85973 0.01875
 C382 C 0.78393 0.87834 0.01425
 C383 C 0.82490 0.90038 0.00990
 C384 C 0.83076 0.92937 -0.02406
 C385 C 0.87043 0.95127 -0.02734
 C386 C 0.90657 0.94385 0.00168
 C387 C 0.89777 0.91666 0.03763
 C388 C 0.85836 0.89460 0.04117
 H389 H 0.73606 0.79582 0.07571
 H390 H 0.66824 0.75785 0.08692
 H391 H 0.60395 0.83866 -0.01223
 H392 H 0.67305 0.87396 -0.02422
 H393 H 0.80438 0.93577 -0.04770
 H394 H 0.87130 0.97445 -0.05263
 H395 H 0.91977 0.91408 0.06547
 H396 H 0.85363 0.87402 0.06918
 C397 C 0.78301 0.52789 0.32859
 C398 C 0.78652 0.55804 0.29504
 C399 C 0.82627 0.56343 0.27460
 C400 C 0.86374 0.53872 0.28736
 C401 C 0.85915 0.50785 0.32098
 C402 C 0.81931 0.50268 0.34132
 C403 C 0.74241 0.52329 0.35051
 C404 C 0.70869 0.51943 0.36935
 C405 C 0.66885 0.51458 0.39247
 C406 C 0.63884 0.54841 0.39446
 C407 C 0.60084 0.54359 0.41796
 C408 C 0.59109 0.50520 0.44146
 C409 C 0.62174 0.47130 0.43642
 C410 C 0.65988 0.47578 0.41307
 H411 H 0.75846 0.57745 0.28458
 H412 H 0.82678 0.58615 0.24783
 H413 H 0.88664 0.48891 0.33348
 H414 H 0.81703 0.47938 0.36753
 H415 H 0.64481 0.57879 0.37809
 H416 H 0.57970 0.57147 0.41775
 H417 H 0.61690 0.43992 0.44782
 H418 H 0.68221 0.44852 0.41076
 C419 C 0.21274 0.47662 0.32496
 C420 C 0.19273 0.50997 0.30051
 C421 C 0.15080 0.50420 0.28179
 C422 C 0.12850 0.46492 0.28731
 C423 C 0.14887 0.43176 0.31218
 C424 C 0.19069 0.43760 0.33083
 C425 C 0.25561 0.48229 0.34477
 C426 C 0.29119 0.48612 0.36236
 C427 C 0.33304 0.48985 0.38476
 C428 C 0.35046 0.53041 0.39461
 C429 C 0.38951 0.53369 0.41936
 C430 C 0.41090 0.49708 0.43784
 C431 C 0.39547 0.45662 0.42175
 C432 C 0.35653 0.45283 0.39699
 H433 H 0.20954 0.54034 0.29586
 H434 H 0.13610 0.53013 0.26246
 H435 H 0.13227 0.40143 0.31756
 H436 H 0.20577 0.41171 0.34996
 H437 H 0.33382 0.55963 0.38337
 H438 H 0.40170 0.56546 0.42401
 H439 H 0.41461 0.42746 0.42634
 H440 H 0.34505 0.42099 0.38715
 C441 C 0.79227 0.48070 0.67491
 C442 C 0.82963 0.49612 0.65503
 C443 C 0.87086 0.49049 0.67539
 C444 C 0.87512 0.46920 0.71581
 C445 C 0.83724 0.45476 0.73598
 C446 C 0.79610 0.46044 0.71560
 C447 C 0.75015 0.48451 0.65302
 C448 C 0.71501 0.48743 0.63431
 C449 C 0.67345 0.49124 0.61135
 C450 C 0.65953 0.53116 0.59517
 C451 C 0.61966 0.53465 0.57197
 C452 C 0.59345 0.49842 0.56081
 C453 C 0.60614 0.45982 0.58309
 C454 C 0.64590 0.45571 0.60665
 H455 H 0.82696 0.51181 0.62347
 H456 H 0.89949 0.50155 0.65894
 H457 H 0.83952 0.43877 0.76738
 H458 H 0.76736 0.44854 0.73132
 H459 H 0.67862 0.56005 0.60189
 H460 H 0.60733 0.56697 0.56817
 H461 H 0.58546 0.43167 0.58211
 H462 H 0.65492 0.42482 0.62121
 C463 C 0.21993 0.51832 0.67055
 C464 C 0.20298 0.48584 0.69680
 C465 C 0.16396 0.49296 0.71835
 C466 C 0.14146 0.53275 0.71391
 C467 C 0.15890 0.56518 0.68752
 C468 C 0.19782 0.55798 0.66604
 C469 C 0.25973 0.51119 0.64778
 C470 C 0.29286 0.50637 0.62808
 C471 C 0.33213 0.50203 0.60386
 C472 C 0.37278 0.49887 0.62544
 C473 C 0.41093 0.49764 0.60170
 C474 C 0.41019 0.49962 0.55542
 C475 C 0.36813 0.50198 0.53490
 C476 C 0.32991 0.50322 0.55850
 H477 H 0.21986 0.45503 0.70057
 H478 H 0.15159 0.46753 0.73876
 H479 H 0.14204 0.59588 0.68288
 H480 H 0.21055 0.58330 0.64567
 H481 H 0.37519 0.49854 0.66077
 H482 H 0.44106 0.49793 0.62074
 H483 H 0.36338 0.50263 0.50026
 H484 H 0.29853 0.50564 0.54115
 C485 C 0.51559 0.67324 0.21704
 C486 C 0.48271 0.69808 0.19616
 C487 C 0.49076 0.71882 0.15673
 C488 C 0.53184 0.71489 0.13767
 C489 C 0.56482 0.69032 0.15928
 C490 C 0.55670 0.66964 0.19864
 C491 C 0.50721 0.65031 0.25668
 C492 C 0.50175 0.62999 0.28957
 C493 C 0.49764 0.60440 0.32837
 C494 C 0.47409 0.61952 0.36346
 C495 C 0.47339 0.59553 0.40213
 C496 C 0.49675 0.55606 0.40754
 C497 C 0.51865 0.54108 0.37030
 C498 C 0.51927 0.56475 0.33170
 H499 H 0.45079 0.70114 0.21014
 H500 H 0.46488 0.73795 0.14116
 H501 H 0.59655 0.68619 0.14519
 H502 H 0.58234 0.65034 0.21445
 H503 H 0.45679 0.65023 0.36130
 H504 H 0.45481 0.60934 0.42770
 H505 H 0.53784 0.51178 0.37087
 H506 H 0.53780 0.55248 0.30477
 C507 C 0.47799 0.67180 0.78636
 C508 C 0.45468 0.71080 0.78897
 C509 C 0.44894 0.73047 0.82946
 C510 C 0.46639 0.71129 0.86791
 C511 C 0.49063 0.67258 0.86486
 C512 C 0.49632 0.65294 0.82429
 C513 C 0.48197 0.65041 0.74498
 C514 C 0.48514 0.63188 0.71061
 C515 C 0.48928 0.60885 0.67015
 C516 C 0.45327 0.60280 0.64204
 C517 C 0.45742 0.57855 0.60385
 C518 C 0.49759 0.55899 0.59175
 C519 C 0.53300 0.56660 0.62147
 C520 C 0.52920 0.59081 0.65966
 H521 H 0.44048 0.72572 0.75979
 H522 H 0.43060 0.76056 0.83079
 H523 H 0.50402 0.65684 0.89392
 H524 H 0.51435 0.62268 0.82259
 H525 H 0.42174 0.61653 0.64966
 H526 H 0.42797 0.57582 0.58406
 H527 H 0.56369 0.55223 0.61848
 H528 H 0.55748 0.59453 0.68161
 C529 C 0.48582 0.34148 0.20682
 C530 C 0.51683 0.31281 0.19032
 C531 C 0.50796 0.29095 0.15099
 C532 C 0.46789 0.29750 0.12795
 C533 C 0.43719 0.32667 0.14472
 C534 C 0.44612 0.34845 0.18388
 C535 C 0.49382 0.36346 0.24762
 C536 C 0.49830 0.38251 0.28176
 C537 C 0.50092 0.40589 0.32229
 C538 C 0.47011 0.43779 0.33056
 C539 C 0.47138 0.45962 0.37040
 C540 C 0.50128 0.44853 0.40516
 C541 C 0.53532 0.42022 0.39284
 C542 C 0.53449 0.39805 0.35299
 H543 H 0.54762 0.30713 0.20795
 H544 H 0.53204 0.26841 0.13898
 H545 H 0.40636 0.33286 0.12735
 H546 H 0.42195 0.37067 0.19637
 H547 H 0.44560 0.44671 0.30577
 H548 H 0.45046 0.48751 0.37159
 H549 H 0.56326 0.41430 0.41324
 H550 H 0.56032 0.37509 0.34611
 C551 C 0.51260 0.33522 0.78899
 C552 C 0.55325 0.33781 0.81113
 C553 C 0.56085 0.31515 0.85002
 C554 C 0.52783 0.28949 0.86737
 C555 C 0.48704 0.28695 0.84483
 C556 C 0.47951 0.30968 0.80582
 C557 C 0.50532 0.35898 0.74909
 C558 C 0.50103 0.37940 0.71576
 C559 C 0.49827 0.40421 0.67613
 C560 C 0.52738 0.43785 0.67002
 C561 C 0.52655 0.46046 0.63066
 C562 C 0.49944 0.44848 0.59442
 C563 C 0.46584 0.41895 0.60480
 C564 C 0.46624 0.39584 0.64400
 H565 H 0.57904 0.35757 0.79843
 H566 H 0.59233 0.31832 0.86695
 H567 H 0.46114 0.26715 0.85719
 H568 H 0.44795 0.30737 0.78886
 H569 H 0.55089 0.44676 0.69569
 H570 H 0.54848 0.48674 0.62943
 H571 H 0.43673 0.41555 0.58476
 H572 H 0.44089 0.37231 0.64956
 C573 C 0.67682 0.78131 0.47383
 C574 C 0.66263 0.81746 0.49704
 C575 C 0.68173 0.85791 0.49080
 C576 C 0.71533 0.86311 0.46070
 C577 C 0.73008 0.82567 0.43865
 C578 C 0.71091 0.78535 0.44511
 C579 C 0.65483 0.74058 0.47773
 C580 C 0.63531 0.70698 0.48027
 C581 C 0.61054 0.66776 0.48289
 C582 C 0.56597 0.66839 0.47280
 C583 C 0.54155 0.63059 0.47626
 C584 C 0.55924 0.59154 0.49361
 C585 C 0.60569 0.59105 0.49643
 C586 C 0.63082 0.62851 0.49316
 H587 H 0.63593 0.81465 0.51917
 H588 H 0.66804 0.88526 0.50784
 H589 H 0.75717 0.82684 0.41695
 H590 H 0.72242 0.75738 0.42728
 H591 H 0.54998 0.69800 0.46164
 H592 H 0.50862 0.63342 0.46517
 H593 H 0.62369 0.56106 0.49872
 H594 H 0.66607 0.62648 0.49745
 C595 C 0.66118 0.20783 0.50594
 C596 C 0.70223 0.20726 0.52755
 C597 C 0.72421 0.16799 0.53500
 C598 C 0.70540 0.12865 0.52091
 C599 C 0.66430 0.12958 0.49877
 C600 C 0.64233 0.16894 0.49140
 C601 C 0.63814 0.24834 0.49999
 C602 C 0.61972 0.28289 0.49641
 C603 C 0.59909 0.32491 0.49406
 C604 C 0.62113 0.36081 0.51088
 C605 C 0.60089 0.40144 0.51041
 C606 C 0.55687 0.40792 0.49615
 C607 C 0.53797 0.37162 0.47400
 C608 C 0.55791 0.33063 0.47412
 H609 H 0.71713 0.23719 0.53894
 H610 H 0.75602 0.16838 0.55163
 H611 H 0.64874 0.09980 0.48801
 H612 H 0.61047 0.16898 0.47484
 H613 H 0.65464 0.35778 0.52323
 H614 H 0.62230 0.42825 0.51659
 H615 H 0.50681 0.37441 0.45659
 H616 H 0.54108 0.30355 0.45865
 C617 C 0.33393 0.78791 0.53227
 C618 C 0.32913 0.80478 0.57410
 C619 C 0.30870 0.84490 0.57990
 C620 C 0.29237 0.86940 0.54379
 C621 C 0.29773 0.85170 0.50163
 C622 C 0.31820 0.81143 0.49607
 C623 C 0.35565 0.74676 0.52677
 C624 C 0.37432 0.71246 0.52285
 C625 C 0.39726 0.67182 0.51858
 C626 C 0.37550 0.63499 0.50335
 C627 C 0.39823 0.59581 0.49889
 C628 C 0.44392 0.59228 0.50661
 C629 C 0.46345 0.62919 0.52694
 C630 C 0.44115 0.66848 0.53157
 H631 H 0.34169 0.78710 0.60239
 H632 H 0.30768 0.85715 0.61291
 H633 H 0.28480 0.86784 0.47267
 H634 H 0.32157 0.79855 0.46344
 H635 H 0.34072 0.63627 0.49546
 H636 H 0.37877 0.56880 0.48994
 H637 H 0.49614 0.62777 0.54111
 H638 H 0.45809 0.69600 0.54607
 C639 C 0.33671 0.21267 0.49683
 C640 C 0.35565 0.17395 0.51219
 C641 C 0.33505 0.13431 0.50344
 C642 C 0.29523 0.13284 0.47905
 C643 C 0.27627 0.17201 0.46414
 C644 C 0.29689 0.21159 0.47296
 C645 C 0.35882 0.25338 0.50399
 C646 C 0.37728 0.28766 0.50861
 C647 C 0.39923 0.32882 0.51211
 C648 C 0.44306 0.33115 0.52552
 C649 C 0.46482 0.37089 0.52455
 C650 C 0.44524 0.40896 0.50623
 C651 C 0.39914 0.40639 0.50115
 C652 C 0.37679 0.36701 0.50191
 H653 H 0.38660 0.17433 0.53045
 H654 H 0.35076 0.10473 0.51493
 H655 H 0.24538 0.17205 0.44578
 H656 H 0.28192 0.24133 0.46084
 H657 H 0.46040 0.30248 0.53718
 H658 H 0.49682 0.37179 0.54033
 H659 H 0.37933 0.43409 0.49489
 H660 H 0.34195 0.36646 0.49418
   
