data_POSCAR
  _audit_creation_date              2014-09-24
  _audit_creation_method            'ToBaCCo'
  _symmetry_space_group_name_H-M    'P1'
  _symmetry_Int_Tables_number       1
  _symmetry_cell_setting            triclinic
  loop_
  _symmetry_equiv_pos_as_xyz
 x,y,z
_cell_length_a 33.3356
_cell_length_b 33.2837
_cell_length_c 61.0605
_cell_angle_alpha 90.378400
_cell_angle_beta 90.635100
_cell_angle_gamma 90.250900
loop_
  _atom_site_label
  _atom_site_type_symbol
  _atom_site_fract_x
  _atom_site_fract_y
  _atom_site_fract_z
C1 C -0.00447 0.60834 0.99955
 C2 C 0.00156 0.58793 1.01922
 C3 C 0.00262 0.54585 1.01933
 C4 C -0.00444 0.52344 0.99990
 C5 C -0.01152 0.54477 0.98029
 C6 C -0.01048 0.58686 0.98005
 C7 C -0.00442 0.47828 1.00008
 C8 C 0.00341 0.45593 0.98082
 C9 C 0.00242 0.41387 0.98093
 C10 C -0.00434 0.39341 1.00043
 C11 C -0.01114 0.41481 1.01976
 C12 C -0.01220 0.45685 1.01952
 H13 H -0.00447 0.64098 0.99942
 H14 H 0.00922 0.53100 1.03465
 H15 H -0.01809 0.52907 0.96509
 H16 H 0.01055 0.47072 0.96564
 H17 H -0.00430 0.36082 1.00057
 H18 H -0.01935 0.47235 1.03459
 C19 C 0.39473 0.00151 0.50037
 C20 C 0.41624 0.00786 0.51983
 C21 C 0.45822 0.00913 0.51964
 C22 C 0.47948 0.00197 0.50009
 C23 C 0.45701 -0.00542 0.48067
 C24 C 0.41502 -0.00461 0.48077
 C25 C 0.52457 0.00216 0.49994
 C26 C 0.54581 0.00974 0.48046
 C27 C 0.58783 0.00882 0.48025
 C28 C 0.60934 0.00244 0.49967
 C29 C 0.58903 -0.00409 0.51922
 C30 C 0.54701 -0.00528 0.51928
 H31 H 0.36219 0.00131 0.50048
 H32 H 0.47381 0.01594 0.53485
 H33 H 0.47165 -0.01208 0.46537
 H34 H 0.53011 0.01661 0.46536
 H35 H 0.64192 0.00252 0.49956
 H36 H 0.53224 -0.01228 0.53448
 C37 C 0.07763 0.00581 0.26015
 H38 H 0.08052 0.00591 0.24252
 C39 C 0.11196 0.00588 0.27351
 H40 H 0.14141 0.00596 0.26620
 C41 C 0.03581 0.00538 0.29131
 H42 H 0.00619 0.00564 0.29826
 C43 C 0.06929 0.00550 0.30524
 H44 H 0.06526 0.00540 0.32283
 N45 N 0.04049 0.00463 0.26919
 C46 C -0.03623 -0.05322 0.21971
 H47 H -0.06082 -0.03213 0.21903
 C48 C -0.03636 -0.08685 0.20591
 H49 H -0.06107 -0.09171 0.19450
 C50 C 0.02646 -0.07232 0.23505
 H51 H 0.05080 -0.06678 0.24649
 C52 C 0.02749 -0.10633 0.22155
 H53 H 0.05283 -0.12654 0.22246
 Zn54 Zn -0.00492 0.00223 0.25021
 N55 N -0.00460 -0.04601 0.23349
 C56 C -0.00237 0.04222 0.20930
 N57 N -0.00280 0.04736 0.23143
 C58 C -0.00146 0.08474 0.24062
 C59 C -0.00151 0.11885 0.22738
 C60 C -0.00237 0.07547 0.19549
 C61 C -0.05976 -0.02856 0.28033
 C62 C -0.09312 -0.02846 0.29397
 C63 C -0.11280 0.03525 0.27855
 C64 C -0.07906 0.03399 0.26520
 N65 N -0.05279 0.00289 0.26673
 H66 H -0.00222 0.01242 0.20224
 H67 H -0.00111 0.08799 0.25827
 H68 H -0.00128 0.14850 0.23481
 H69 H -0.00270 0.07108 0.17789
 H70 H -0.03872 -0.05319 0.28099
 H71 H -0.09779 -0.05302 0.30523
 H72 H -0.13299 0.06062 0.27766
 H73 H -0.07371 0.05817 0.25391
 C74 C -0.00392 -0.11332 0.20663
 C75 C 0.10767 0.00530 0.29627
 C76 C -0.11955 0.00403 0.29328
 C77 C -0.00239 0.11410 0.20461
 C78 C 0.00316 0.07676 0.76058
 H79 H 0.00318 0.08033 0.74298
 C80 C 0.00302 0.11063 0.77425
 H81 H 0.00302 0.14041 0.76720
 C82 C 0.00333 0.03369 0.79137
 H83 H 0.00298 0.00376 0.79804
 C84 C 0.00314 0.06668 0.80558
 H85 H 0.00312 0.06198 0.82313
 N86 N 0.00423 0.03923 0.76930
 C87 C 0.06222 -0.03549 0.71992
 H88 H 0.04119 -0.06030 0.71888
 C89 C 0.09579 -0.03488 0.70644
 H90 H 0.10065 -0.05924 0.69493
 C91 C 0.08120 0.02707 0.73581
 H92 H 0.07562 0.05107 0.74733
 C93 C 0.11515 0.02883 0.72265
 H94 H 0.13529 0.05441 0.72390
 Zn95 Zn 0.00673 -0.00556 0.74999
 N96 N 0.05497 -0.00426 0.73381
 C97 C -0.03288 -0.00192 0.70864
 N98 N -0.03821 -0.00317 0.73070
 C99 C -0.07562 -0.00253 0.73943
 C100 C -0.10956 -0.00254 0.72576
 C101 C -0.06595 -0.00185 0.69442
 C102 C 0.03730 -0.06130 0.77999
 C103 C 0.03713 -0.09519 0.79336
 C104 C -0.02643 -0.11488 0.77708
 C105 C -0.02510 -0.08061 0.76403
 N106 N 0.00596 -0.05409 0.76611
 H107 H -0.00306 -0.00121 0.70196
 H108 H -0.07903 -0.00282 0.75703
 H109 H -0.13924 -0.00291 0.73281
 H110 H -0.06140 -0.00156 0.67688
 H111 H 0.06190 -0.04004 0.78109
 H112 H 0.06161 -0.10007 0.80484
 H113 H -0.05177 -0.13528 0.77575
 H114 H -0.04919 -0.07504 0.75251
 C115 C 0.12216 -0.00213 0.70760
 C116 C 0.00344 0.10547 0.79696
 C117 C 0.00468 -0.12190 0.79209
 C118 C -0.10460 -0.00263 0.70305
 C119 C 0.00510 -0.39077 0.03829
 C120 C 0.00702 -0.37104 0.05490
 C121 C 0.00794 -0.34635 0.07434
 C122 C -0.02762 -0.33878 0.08557
 C123 C -0.02758 -0.31247 0.10351
 C124 C 0.00809 -0.29327 0.11042
 C125 C 0.04388 -0.30175 0.09930
 C126 C 0.04376 -0.32808 0.08136
 C127 C 0.00752 -0.26320 0.12851
 C128 C 0.02969 -0.22729 0.12691
 C129 C 0.02767 -0.19801 0.14336
 C130 C 0.00352 -0.20417 0.16164
 C131 C -0.01825 -0.24000 0.16356
 C132 C -0.01627 -0.26936 0.14711
 C133 C 0.00044 -0.17312 0.17804
 C134 C -0.00182 -0.14629 0.19133
 H135 H -0.05557 -0.35254 0.08018
 H136 H -0.05571 -0.30617 0.11150
 H137 H 0.07190 -0.28783 0.10440
 H138 H 0.07145 -0.33369 0.07275
 H139 H 0.04778 -0.22134 0.11267
 H140 H 0.04451 -0.17031 0.14167
 H141 H -0.03699 -0.24509 0.17767
 H142 H -0.03333 -0.29687 0.14893
 C143 C -0.01559 0.39325 0.03995
 C144 C -0.01796 0.37407 0.05657
 C145 C -0.01937 0.34989 0.07600
 C146 C -0.04729 0.31854 0.07746
 C147 C -0.04636 0.29272 0.09542
 C148 C -0.01735 0.29784 0.11214
 C149 C 0.00999 0.33004 0.11077
 C150 C 0.00898 0.35585 0.09280
 C151 C -0.01445 0.26852 0.13032
 C152 C 0.02325 0.25479 0.13761
 C153 C 0.02599 0.22521 0.15370
 C154 C -0.00885 0.20904 0.16276
 C155 C -0.04646 0.22308 0.15596
 C156 C -0.04928 0.25265 0.13986
 C157 C -0.00612 0.17653 0.17812
 C158 C -0.00415 0.14849 0.19048
 H159 H -0.06913 0.31344 0.06445
 H160 H -0.06744 0.26790 0.09583
 H161 H 0.03236 0.33504 0.12350
 H162 H 0.03083 0.37995 0.09179
 H163 H 0.05059 0.26597 0.13038
 H164 H 0.05524 0.21435 0.15874
 H165 H -0.07363 0.21072 0.16285
 H166 H -0.07869 0.26293 0.13477
 C167 C 0.39488 0.01159 0.54010
 C168 C 0.37594 0.01333 0.55678
 C169 C 0.35209 0.01396 0.57628
 C170 C 0.33424 0.04967 0.58334
 C171 C 0.30854 0.04946 0.60129
 C172 C 0.30028 0.01344 0.61237
 C173 C 0.31911 -0.02211 0.60543
 C174 C 0.34479 -0.02181 0.58749
 C175 C 0.27071 0.01248 0.63039
 C176 C 0.27721 -0.01162 0.64895
 C177 C 0.24821 -0.01412 0.66529
 C178 C 0.21242 0.00744 0.66329
 C179 C 0.20596 0.03194 0.64507
 C180 C 0.23487 0.03448 0.62874
 C181 C 0.18164 0.00366 0.67950
 C182 C 0.15499 0.00077 0.69259
 H183 H 0.33963 0.07753 0.57475
 H184 H 0.29490 0.07740 0.60641
 H185 H 0.31296 -0.05041 0.61339
 H186 H 0.35822 -0.04969 0.58206
 H187 H 0.30467 -0.02857 0.65082
 H188 H 0.25353 -0.03314 0.67934
 H189 H 0.17828 0.04861 0.64331
 H190 H 0.22866 0.05279 0.61452
 C191 C -0.38958 -0.00800 0.53823
 C192 C -0.36966 -0.01025 0.55477
 C193 C -0.34462 -0.01154 0.57410
 C194 C -0.32801 -0.04789 0.58105
 C195 C -0.30113 -0.04845 0.59880
 C196 C -0.29042 -0.01259 0.60978
 C197 C -0.30803 0.02365 0.60296
 C198 C -0.33489 0.02413 0.58523
 C199 C -0.25958 -0.01256 0.62753
 C200 C -0.26360 0.01230 0.64612
 C201 C -0.23333 0.01389 0.66216
 C202 C -0.19873 -0.00934 0.65985
 C203 C -0.19475 -0.03461 0.64160
 C204 C -0.22493 -0.03625 0.62556
 C205 C -0.16658 -0.00650 0.67571
 C206 C -0.13877 -0.00445 0.68847
 H207 H -0.33528 -0.07568 0.57252
 H208 H -0.28847 -0.07689 0.60382
 H209 H -0.30001 0.05183 0.61085
 H210 H -0.34734 0.05249 0.57988
 H211 H -0.29009 0.03056 0.64822
 H212 H -0.23672 0.03353 0.67624
 H213 H -0.16800 -0.05258 0.63960
 H214 H -0.22061 -0.05521 0.61131
 C215 C -0.01396 -0.39287 0.96081
 C216 C -0.01581 -0.37403 0.94404
 C217 C -0.01661 -0.35039 0.92439
 C218 C -0.04362 -0.31855 0.92235
 C219 C -0.04217 -0.29343 0.90412
 C220 C -0.01353 -0.29977 0.88769
 C221 C 0.01292 -0.33241 0.88967
 C222 C 0.01139 -0.35752 0.90791
 C223 C -0.01016 -0.27135 0.86914
 C224 C 0.02778 -0.25867 0.86192
 C225 C 0.03103 -0.23003 0.84538
 C226 C -0.00353 -0.21377 0.83579
 C227 C -0.04139 -0.22675 0.84255
 C228 C -0.04472 -0.25536 0.85911
 C229 C -0.00020 -0.18234 0.81984
 C230 C 0.00228 -0.15521 0.80693
 H231 H -0.06517 -0.31255 0.93510
 H232 H -0.06256 -0.26825 0.90324
 H233 H 0.03496 -0.33835 0.87718
 H234 H 0.03252 -0.38202 0.90936
 H235 H 0.05494 -0.26995 0.86952
 H236 H 0.06048 -0.22000 0.84037
 H237 H -0.06835 -0.21432 0.83525
 H238 H -0.07432 -0.26486 0.86413
 C239 C 0.00697 0.39132 0.96093
 C240 C 0.00944 0.37131 0.94447
 C241 C 0.01101 0.34612 0.92526
 C242 C -0.02436 0.33688 0.91370
 C243 C -0.02368 0.30986 0.89610
 C244 C 0.01245 0.29161 0.88983
 C245 C 0.04803 0.30182 0.90123
 C246 C 0.04728 0.32887 0.91885
 C247 C 0.01257 0.26061 0.87221
 C248 C 0.03559 0.22555 0.87463
 C249 C 0.03409 0.19528 0.85868
 C250 C 0.00963 0.19957 0.84008
 C251 C -0.01295 0.23456 0.83733
 C252 C -0.01150 0.26492 0.85328
 C253 C 0.00698 0.16740 0.82427
 C254 C 0.00509 0.13960 0.81153
 H255 H -0.05265 0.34984 0.91863
 H256 H -0.05166 0.30223 0.88788
 H257 H 0.07639 0.28867 0.89663
 H258 H 0.07483 0.33576 0.92771
 H259 H 0.05391 0.22100 0.88915
 H260 H 0.05155 0.16824 0.86102
 H261 H -0.03195 0.23821 0.82298
 H262 H -0.02923 0.29173 0.85084
 C263 C -0.39197 0.01275 0.46110
 C264 C -0.37309 0.01496 0.44442
 C265 C -0.34928 0.01616 0.42492
 C266 C -0.34247 -0.01925 0.41308
 C267 C -0.31676 -0.01906 0.39516
 C268 C -0.29740 0.01662 0.38885
 C269 C -0.30518 0.05229 0.40055
 C270 C -0.33092 0.05201 0.41849
 C271 C -0.26779 0.01613 0.37084
 C272 C -0.23164 0.03789 0.37292
 C273 C -0.20274 0.03581 0.35656
 C274 C -0.20950 0.01202 0.33789
 C275 C -0.24558 -0.00931 0.33550
 C276 C -0.27457 -0.00728 0.35186
 C277 C -0.17879 0.00878 0.32160
 C278 C -0.15223 0.00636 0.30843
 H279 H -0.35629 -0.04724 0.41802
 H280 H -0.31099 -0.04711 0.38670
 H281 H -0.29113 0.08032 0.39593
 H282 H -0.33592 0.07958 0.42756
 H283 H -0.22521 0.05566 0.38746
 H284 H -0.17484 0.05230 0.35862
 H285 H -0.25114 -0.02778 0.32109
 H286 H -0.30226 -0.02402 0.34967
 C287 C 0.39238 -0.00870 0.46066
 C288 C 0.37239 -0.01082 0.44411
 C289 C 0.34732 -0.01197 0.42478
 C290 C 0.35250 0.01662 0.40833
 C291 C 0.32597 0.01776 0.39045
 C292 C 0.29382 -0.00967 0.38882
 C293 C 0.28944 -0.03889 0.40519
 C294 C 0.31598 -0.03996 0.42306
 C295 C 0.26388 -0.00674 0.37071
 C296 C 0.24781 -0.04160 0.36076
 C297 C 0.21778 -0.03876 0.34469
 C298 C 0.20345 -0.00109 0.33831
 C299 C 0.21977 0.03379 0.34779
 C300 C 0.24982 0.03102 0.36386
 C301 C 0.17059 0.00165 0.32292
 C302 C 0.14231 0.00360 0.31050
 H303 H 0.37659 0.03851 0.40954
 H304 H 0.33042 0.04029 0.37798
 H305 H 0.26469 -0.06006 0.40458
 H306 H 0.31148 -0.06199 0.43580
 H307 H 0.25833 -0.07106 0.36550
 H308 H 0.20531 -0.06596 0.33747
 H309 H 0.20871 0.06309 0.34309
 H310 H 0.26114 0.05839 0.37141
   
