data_POSCAR
  _audit_creation_date              2014-09-24
  _audit_creation_method            'ToBaCCo'
  _symmetry_space_group_name_H-M    'P1'
  _symmetry_Int_Tables_number       1
  _symmetry_cell_setting            triclinic
  loop_
  _symmetry_equiv_pos_as_xyz
 x,y,z
_cell_length_a 51.9223
_cell_length_b 53.3144
_cell_length_c 53.3764
_cell_angle_alpha 90.894900
_cell_angle_beta 90.751500
_cell_angle_gamma 89.811000
loop_
  _atom_site_label
  _atom_site_type_symbol
  _atom_site_fract_x
  _atom_site_fract_y
  _atom_site_fract_z
N1 N 0.16432 1.22203 0.15459
 N2 N 0.14567 1.22182 0.17094
 C3 C 0.13093 1.24238 0.16802
 C4 C 0.14073 1.25636 0.14856
 C5 C 0.16205 1.24268 0.14054
 H6 H 0.11415 1.24645 0.17914
 H7 H 0.17495 1.24709 0.12553
 Cu8 Cu 0.14170 1.19431 0.19396
 Cu9 Cu 0.18925 1.19481 0.15211
 Cu10 Cu 0.19220 1.15582 0.20355
 N11 N 0.14383 1.17296 0.22298
 N12 N 0.16387 1.15844 0.22706
 C13 C 0.16034 1.14583 0.24838
 C14 C 0.13665 1.15272 0.25830
 C15 C 0.12682 1.17011 0.24150
 H16 H 0.17390 1.13231 0.25569
 H17 H 0.10867 1.18000 0.24244
 N18 N 0.21867 1.15595 0.17737
 N19 N 0.21742 1.17064 0.15772
 C20 C 0.23761 1.16566 0.14284
 C21 C 0.25219 1.14673 0.15351
 C22 C 0.23958 1.14108 0.17540
 H23 H 0.24100 1.17464 0.12518
 H24 H 0.24504 1.12694 0.18876
 H25 H 0.17202 1.16629 0.17224
 H26 H 0.18825 1.19210 0.19030
 N27 N 0.83107 0.76808 0.15896
 N28 N 0.84717 0.76780 0.17814
 C29 C 0.86340 0.74820 0.17543
 C30 C 0.85708 0.73543 0.15338
 C31 C 0.83639 0.74865 0.14348
 H32 H 0.87872 0.74365 0.18849
 H33 H 0.82624 0.74479 0.12605
 Cu34 Cu 0.84546 0.79351 0.20434
 Cu35 Cu 0.80480 0.79400 0.15502
 Cu36 Cu 0.80237 0.84040 0.20129
 N37 N 0.84376 0.81923 0.23052
 N38 N 0.82728 0.83789 0.22882
 C39 C 0.83060 0.85352 0.24861
 C40 C 0.85019 0.84414 0.26382
 C41 C 0.85800 0.82224 0.25162
 H42 H 0.81927 0.87029 0.25171
 H43 H 0.87332 0.80970 0.25725
 N44 N 0.77880 0.83949 0.17199
 N45 N 0.77967 0.82180 0.15445
 C46 C 0.76095 0.82610 0.13734
 C47 C 0.74752 0.84752 0.14441
 C48 C 0.75948 0.85548 0.16649
 H49 H 0.75737 0.81444 0.12094
 H50 H 0.75425 0.87151 0.17797
 H51 H 0.82441 0.82176 0.17492
 H52 H 0.80099 0.80265 0.19265
 N53 N 0.82578 1.22412 -0.15451
 N54 N 0.84586 1.22232 -0.16915
 C55 C 0.86128 1.24224 -0.16493
 C56 C 0.85035 1.25735 -0.14653
 C57 C 0.82777 1.24519 -0.14042
 H58 H 0.87941 1.24514 -0.17416
 H59 H 0.81389 1.25105 -0.12659
 Cu60 Cu 0.85066 1.19371 -0.19164
 Cu61 Cu 0.79929 1.19841 -0.15392
 Cu62 Cu 0.80378 1.15041 -0.19802
 N63 N 0.85027 1.16935 -0.21911
 N64 N 0.83206 1.15243 -0.22147
 C65 C 0.83660 1.13800 -0.24184
 C66 C 0.85901 1.14625 -0.25305
 C67 C 0.86706 1.16630 -0.23793
 H68 H 0.82436 1.12267 -0.24790
 H69 H 0.88380 1.17795 -0.24029
 N70 N 0.77661 1.15191 -0.17265
 N71 N 0.77449 1.17056 -0.15626
 C72 C 0.75412 1.16629 -0.14157
 C73 C 0.74301 1.14377 -0.14894
 C74 C 0.75779 1.13516 -0.16868
 H75 H 0.74830 1.17822 -0.12609
 H76 H 0.75503 1.11795 -0.17933
 H77 H 0.82085 1.16856 -0.16756
 H78 H 0.80420 1.18867 -0.19126
 N79 N 0.16774 0.77844 -0.15849
 N80 N 0.14841 0.77983 -0.17454
 C81 C 0.13254 0.76029 -0.17120
 C82 C 0.14239 0.74579 -0.15195
 C83 C 0.16481 0.75797 -0.14437
 H84 H 0.11516 0.75695 -0.18209
 H85 H 0.17793 0.75260 -0.12950
 Cu86 Cu 0.14538 0.80706 -0.19817
 Cu87 Cu 0.19497 0.80349 -0.15686
 Cu88 Cu 0.19427 0.84775 -0.20357
 N89 N 0.14778 0.82914 -0.22667
 N90 N 0.16692 0.84497 -0.22872
 C91 C 0.16364 0.85817 -0.24979
 C92 C 0.14108 0.85027 -0.26178
 C93 C 0.13163 0.83168 -0.24640
 H94 H 0.17672 0.87257 -0.25566
 H95 H 0.11426 0.82082 -0.24910
 N96 N 0.22029 0.84746 -0.17641
 N97 N 0.22069 0.83053 -0.15865
 C98 C 0.24043 0.83557 -0.14275
 C99 C 0.25299 0.85681 -0.15080
 C100 C 0.23965 0.86378 -0.17223
 H101 H 0.24494 0.82494 -0.12617
 H102 H 0.24371 0.87962 -0.18391
 H103 H 0.17527 0.83276 -0.17324
 H104 H 0.19194 0.81004 -0.19471
 C105 C 0.53978 1.03673 -0.00306
 H106 H 0.54061 1.03606 0.01719
 C107 C 0.55802 1.05051 -0.01591
 H108 H 0.57273 1.06069 -0.00544
 C109 C 0.51994 1.02366 -0.04131
 H110 H 0.50552 1.01261 -0.05115
 C111 C 0.53765 1.03748 -0.05492
 H112 H 0.53663 1.03705 -0.07520
 N113 N 0.52136 1.02352 -0.01583
 C114 C 0.46130 1.01060 0.03852
 H115 H 0.46183 0.99033 0.03909
 C116 C 0.44282 1.02385 0.05212
 H117 H 0.42955 1.01359 0.06358
 C118 C 0.47785 1.04839 0.02248
 H119 H 0.49111 1.05779 0.01037
 C120 C 0.45951 1.06241 0.03565
 H121 H 0.45891 1.08255 0.03349
 Zn122 Zn 0.49996 1.00309 0.00362
 N123 N 0.47827 1.02296 0.02404
 C124 C 0.52223 0.98438 0.04874
 N125 N 0.52216 0.98293 0.02327
 C126 C 0.53966 0.96859 0.01081
 C127 C 0.55831 0.95504 0.02398
 C128 C 0.54055 0.97111 0.06267
 C129 C 0.46011 0.99533 -0.03097
 C130 C 0.44143 0.98193 -0.04454
 C131 C 0.45974 0.94346 -0.02880
 C132 C 0.47815 0.95761 -0.01556
 N133 N 0.47795 0.98308 -0.01682
 H134 H 0.50855 0.99630 0.05830
 H135 H 0.53949 0.96822 -0.00947
 H136 H 0.57250 0.94432 0.01365
 H137 H 0.54036 0.97254 0.08293
 H138 H 0.46010 1.01561 -0.03125
 H139 H 0.42743 0.99209 -0.05568
 H140 H 0.45971 0.92326 -0.02695
 H141 H 0.49202 0.94827 -0.00364
 C142 C 0.44144 1.05010 0.05047
 C143 C 0.55721 1.05081 -0.04218
 C144 C 0.44084 0.95564 -0.04330
 C145 C 0.55909 0.95639 0.05028
 C146 C -0.01346 0.51985 1.04011
 H147 H -0.00132 0.50643 1.04960
 C148 C -0.02833 0.53668 1.05415
 H149 H -0.02786 0.53570 1.07439
 C150 C -0.02841 0.53789 1.00229
 H151 H -0.02792 0.53849 0.98205
 C152 C -0.04360 0.55501 1.01557
 H153 H -0.05468 0.56884 1.00537
 N154 N -0.01381 0.52073 1.01465
 C155 C 0.05411 0.47935 1.01568
 H156 H 0.06402 0.49312 1.00477
 C157 C 0.06835 0.46190 1.02944
 H158 H 0.08918 0.46278 1.02938
 C159 C 0.01502 0.46106 1.02858
 H160 H -0.00581 0.46059 1.02770
 C161 C 0.02846 0.44328 1.04254
 H162 H 0.01778 0.42909 1.05227
 Zn163 Zn 0.00781 0.49991 0.99503
 N164 N 0.02792 0.47860 1.01551
 C165 C 0.04307 0.53866 0.98960
 N166 N 0.02885 0.52147 0.97645
 C167 C 0.02811 0.52129 0.95096
 C168 C 0.04202 0.53900 0.93771
 C169 C 0.05730 0.55664 0.97713
 C170 C -0.03810 0.47936 0.97343
 C171 C -0.05217 0.46210 0.95887
 C172 C -0.01211 0.44401 0.94466
 C173 C 0.00117 0.46163 0.95943
 N174 N -0.01191 0.47880 0.97346
 H175 H 0.04285 0.53870 1.00987
 H176 H 0.01626 0.50783 0.94086
 H177 H 0.04114 0.53865 0.91743
 H178 H 0.06796 0.57055 0.98797
 H179 H -0.04816 0.49281 0.98509
 H180 H -0.07300 0.46287 0.95909
 H181 H -0.00129 0.43008 0.93419
 H182 H 0.02200 0.46132 0.96018
 C183 C 0.05552 0.44341 1.04295
 C184 C -0.04357 0.55466 1.04187
 C185 C -0.03917 0.44393 0.94442
 C186 C 0.05672 0.55712 0.95083
 C187 C 1.03771 -0.00503 0.53660
 H188 H 1.03712 0.01523 0.53803
 C189 C 1.05277 -0.01869 0.55341
 H190 H 1.06369 -0.00877 0.56784
 C191 C 1.02288 -0.04251 0.51686
 H192 H 1.01080 -0.05169 0.50288
 C193 C 1.03759 -0.05694 0.53339
 H194 H 1.03705 -0.07719 0.53169
 N195 N 1.02309 -0.01705 0.51887
 C196 C 1.00563 0.03955 0.46321
 H197 H 0.98481 0.03932 0.46384
 C198 C 1.01799 0.05403 0.44550
 H199 H 1.00650 0.06537 0.43292
 C200 C 1.04571 0.02441 0.47852
 H201 H 1.05637 0.01220 0.49089
 C202 C 1.05888 0.03854 0.46099
 H203 H 1.07966 0.03708 0.46014
 Zn204 Zn 1.00074 0.00288 0.49928
 N205 N 1.01954 0.02502 0.47916
 C206 C 0.97921 0.04628 0.52280
 N207 N 0.97938 0.02076 0.52183
 C208 C 0.96584 0.00712 0.53843
 C209 C 0.95132 0.01911 0.55693
 C210 C 0.96497 0.05904 0.54103
 C211 C 0.99430 -0.02761 0.45729
 C212 C 0.98123 -0.04030 0.43799
 C213 C 0.94131 -0.03264 0.45965
 C214 C 0.95512 -0.01964 0.47837
 N215 N 0.98115 -0.01732 0.47679
 H216 H 0.99055 0.05680 0.50983
 H217 H 0.96679 -0.01315 0.53760
 H218 H 0.94119 0.00788 0.57033
 H219 H 0.96507 0.07935 0.54151
 H220 H 1.01495 -0.02520 0.45637
 H221 H 0.99191 -0.04790 0.42230
 H222 H 0.92054 -0.03395 0.46079
 H223 H 0.94495 -0.01089 0.49372
 C224 C 1.04496 0.05330 0.44389
 C225 C 1.05258 -0.04503 0.55216
 C226 C 0.95439 -0.04272 0.43895
 C227 C 0.95093 0.04543 0.55854
 C228 C 0.10875 0.29039 1.14903
 C229 C 0.09850 0.31230 1.13888
 C230 C 0.11000 0.32361 1.11833
 C231 C 0.13211 0.31241 1.10802
 C232 C 0.14241 0.29046 1.11815
 C233 C 0.13082 0.27894 1.13875
 C234 C 0.09749 0.34617 1.10760
 C235 C 0.10927 0.36233 1.09252
 C236 C 0.09585 0.38394 1.08095
 C237 C 0.10503 0.39318 1.05828
 C238 C 0.09225 0.41276 1.04615
 C239 C 0.07010 0.42372 1.05659
 C240 C 0.06148 0.41510 1.07977
 C241 C 0.07423 0.39550 1.09187
 H242 H 0.09904 0.28253 1.16486
 H243 H 0.08138 0.32043 1.14714
 H244 H 0.14122 0.32001 1.09172
 H245 H 0.15927 0.28249 1.10938
 H246 H 0.07750 0.34924 1.11228
 H247 H 0.12916 0.35931 1.08752
 H248 H 0.12177 0.38477 1.04958
 H249 H 0.09929 0.41879 1.02823
 H250 H 0.04486 0.42357 1.08861
 H251 H 0.06716 0.38967 1.10983
 C252 C -0.10598 0.70489 1.15171
 C253 C -0.09354 0.68419 1.14089
 C254 C -0.10482 0.67097 1.12065
 C255 C -0.12885 0.67907 1.11128
 C256 C -0.14128 0.69979 1.12208
 C257 C -0.12998 0.71302 1.14237
 C258 C -0.09028 0.64979 1.10917
 C259 C -0.10116 0.63164 1.09492
 C260 C -0.08626 0.61132 1.08239
 C261 C -0.09710 0.59927 1.06121
 C262 C -0.08343 0.58067 1.04824
 C263 C -0.05864 0.57352 1.05632
 C264 C -0.04808 0.58503 1.07796
 C265 C -0.06174 0.60364 1.09092
 H266 H -0.09650 0.71468 1.16712
 H267 H -0.07493 0.67853 1.14833
 H268 H -0.13794 0.66998 1.09525
 H269 H -0.15974 0.70542 1.11436
 H270 H -0.06972 0.64952 1.11262
 H271 H -0.12172 0.63189 1.09144
 H272 H -0.11608 0.60456 1.05441
 H273 H -0.09227 0.57184 1.03189
 H274 H -0.02899 0.58000 1.08461
 H275 H -0.05300 0.61176 1.10764
 C276 C -0.14870 0.29028 0.88762
 C277 C -0.13797 0.31167 0.89896
 C278 C -0.11737 0.32414 0.88790
 C279 C -0.10756 0.31459 0.86520
 C280 C -0.11825 0.29313 0.85389
 C281 C -0.13888 0.28064 0.86501
 C282 C -0.10594 0.34609 0.90133
 C283 C -0.09183 0.36372 0.89024
 C284 C -0.07947 0.38491 0.90413
 C285 C -0.05794 0.39644 0.89368
 C286 C -0.04510 0.41584 0.90651
 C287 C -0.05364 0.42430 0.93006
 C288 C -0.07569 0.41331 0.94017
 C289 C -0.08855 0.39393 0.92733
 H290 H -0.16438 0.28109 0.89692
 H291 H -0.14574 0.31845 0.91655
 H292 H -0.09122 0.32313 0.85638
 H293 H -0.11020 0.28632 0.83647
 H294 H -0.10935 0.34745 0.92124
 H295 H -0.08833 0.36234 0.87034
 H296 H -0.05074 0.39011 0.87569
 H297 H -0.02846 0.42421 0.89799
 H298 H -0.08273 0.41930 0.95831
 H299 H -0.10560 0.38625 0.93568
 C300 C 0.10627 0.71477 0.85128
 C301 C 0.09544 0.69336 0.86154
 C302 C 0.10915 0.67915 0.87918
 C303 C 0.13402 0.68702 0.88654
 C304 C 0.14486 0.70847 0.87629
 C305 C 0.13111 0.72268 0.85857
 C306 C 0.09629 0.65708 0.89006
 C307 C 0.10873 0.63852 0.90194
 C308 C 0.09531 0.61713 0.91344
 C309 C 0.10734 0.60477 0.93347
 C310 C 0.09502 0.58506 0.94538
 C311 C 0.07046 0.57709 0.93732
 C312 C 0.05875 0.58892 0.91675
 C313 C 0.07103 0.60868 0.90488
 H314 H 0.09493 0.72521 0.83787
 H315 H 0.07618 0.68789 0.85568
 H316 H 0.14505 0.67713 0.90060
 H317 H 0.16400 0.71389 0.88242
 H318 H 0.07553 0.65637 0.88816
 H319 H 0.12944 0.63915 0.90417
 H320 H 0.12616 0.61068 0.94023
 H321 H 0.10471 0.57605 0.96092
 H322 H 0.03980 0.58328 0.91015
 H323 H 0.06146 0.61710 0.88897
 C324 C 1.09997 0.15157 0.28687
 C325 C 1.08798 0.14183 0.30787
 C326 C 1.10057 0.12417 0.32288
 C327 C 1.12549 0.11628 0.31640
 C328 C 1.13749 0.12589 0.29533
 C329 C 1.12488 0.14359 0.28005
 C330 C 1.08653 0.11328 0.34410
 C331 C 1.09825 0.10307 0.36405
 C332 C 1.08390 0.09108 0.38444
 C333 C 1.09499 0.09019 0.40853
 C334 C 1.08227 0.07828 0.42797
 C335 C 1.05828 0.06673 0.42361
 C336 C 1.04735 0.06741 0.39939
 C337 C 1.05998 0.07941 0.38003
 H338 H 1.08931 0.16508 0.27594
 H339 H 1.06868 0.14808 0.31235
 H340 H 1.13556 0.10215 0.32709
 H341 H 1.15658 0.11905 0.29107
 H342 H 1.06570 0.11441 0.34345
 H343 H 1.11899 0.10415 0.36605
 H344 H 1.11350 0.09886 0.41233
 H345 H 1.09115 0.07821 0.44643
 H346 H 1.02928 0.05807 0.39519
 H347 H 1.05128 0.07884 0.36150
 C348 C 1.10657 -0.15017 0.70623
 C349 C 1.09537 -0.14054 0.68443
 C350 C 1.10730 -0.12122 0.67142
 C351 C 1.13070 -0.11152 0.68084
 C352 C 1.14193 -0.12109 0.70263
 C353 C 1.13003 -0.14052 0.71582
 C354 C 1.09402 -0.11077 0.64909
 C355 C 1.10609 -0.09801 0.63122
 C356 C 1.09246 -0.08582 0.61004
 C357 C 1.10419 -0.06533 0.59862
 C358 C 1.09151 -0.05239 0.57949
 C359 C 1.06688 -0.05984 0.57116
 C360 C 1.05554 -0.08095 0.58189
 C361 C 1.06818 -0.09386 0.60108
 H362 H 1.09651 -0.16504 0.71550
 H363 H 1.07720 -0.14821 0.67773
 H364 H 1.14015 -0.09604 0.67194
 H365 H 1.15982 -0.11281 0.70911
 H366 H 1.07342 -0.11353 0.64776
 H367 H 1.12670 -0.09530 0.63254
 H368 H 1.12301 -0.05895 0.60491
 H369 H 1.10093 -0.03645 0.57130
 H370 H 1.03654 -0.08711 0.57593
 H371 H 1.05884 -0.11008 0.60873
 C372 C 0.87821 -0.15852 0.30114
 C373 C 0.88838 -0.14785 0.32321
 C374 C 0.88138 -0.12352 0.33071
 C375 C 0.86319 -0.11033 0.31632
 C376 C 0.85262 -0.12112 0.29450
 C377 C 0.86021 -0.14529 0.28631
 C378 C 0.89329 -0.11233 0.35357
 C379 C 0.89943 -0.08798 0.35520
 C380 C 0.91326 -0.07689 0.37704
 C381 C 0.93090 -0.05755 0.37308
 C382 C 0.94444 -0.04669 0.39322
 C383 C 0.94010 -0.05455 0.41778
 C384 C 0.92203 -0.07353 0.42188
 C385 C 0.90883 -0.08478 0.40164
 H386 H 0.88442 -0.17726 0.29603
 H387 H 0.90219 -0.15845 0.33419
 H388 H 0.85696 -0.09172 0.32199
 H389 H 0.83889 -0.11010 0.28394
 H390 H 0.89909 -0.12482 0.36846
 H391 H 0.89612 -0.07612 0.33916
 H392 H 0.93446 -0.05107 0.35431
 H393 H 0.95809 -0.03188 0.38967
 H394 H 0.91837 -0.07983 0.44069
 H395 H 0.89491 -0.09931 0.40528
 C396 C 0.89398 0.14676 0.71638
 C397 C 0.90587 0.13682 0.69507
 C398 C 0.89502 0.11647 0.68182
 C399 C 0.87215 0.10591 0.69062
 C400 C 0.86025 0.11577 0.71197
 C401 C 0.87093 0.13641 0.72526
 C402 C 0.90875 0.10618 0.65970
 C403 C 0.89716 0.09293 0.64118
 C404 C 0.91108 0.08180 0.61956
 C405 C 0.89988 0.06144 0.60652
 C406 C 0.91262 0.04982 0.58654
 C407 C 0.93679 0.05848 0.57897
 C408 C 0.94767 0.07934 0.59152
 C409 C 0.93496 0.09095 0.61152
 H410 H 0.90316 0.16251 0.72580
 H411 H 0.92363 0.14516 0.68885
 H412 H 0.86361 0.08964 0.68151
 H413 H 0.84276 0.10687 0.71797
 H414 H 0.92919 0.10985 0.65890
 H415 H 0.87670 0.08935 0.64203
 H416 H 0.88135 0.05423 0.61206
 H417 H 0.90352 0.03407 0.57697
 H418 H 0.96631 0.08642 0.58621
 H419 H 0.94390 0.10712 0.62042
 C420 C 0.28268 1.11025 0.15111
 C421 C 0.30379 1.09796 0.14052
 C422 C 0.31822 1.10942 0.12188
 C423 C 0.31096 1.13347 0.11383
 C424 C 0.28969 1.14570 0.12429
 C425 C 0.27526 1.13419 0.14300
 C426 C 0.33962 1.09514 0.11031
 C427 C 0.35973 1.10593 0.09926
 C428 C 0.38050 1.09120 0.08713
 C429 C 0.40525 1.10151 0.08567
 C430 C 0.42514 1.08817 0.07400
 C431 C 0.42057 1.06432 0.06326
 C432 C 0.39562 1.05423 0.06437
 C433 C 0.37583 1.06748 0.07614
 H434 H 0.27185 1.10067 0.16523
 H435 H 0.30881 1.07934 0.14685
 H436 H 0.32118 1.14263 0.09901
 H437 H 0.28454 1.16414 0.11764
 H438 H 0.33913 1.07491 0.11183
 H439 H 0.36170 1.12614 0.09991
 H440 H 0.40927 1.11985 0.09381
 H441 H 0.44414 1.09644 0.07360
 H442 H 0.39121 1.03626 0.05563
 H443 H 0.35677 1.05932 0.07603
 C444 C 0.71862 1.10484 -0.13892
 C445 C 0.69843 1.09273 -0.12705
 C446 C 0.67986 1.10659 -0.11388
 C447 C 0.68200 1.13287 -0.11252
 C448 C 0.70244 1.14496 -0.12405
 C449 C 0.72097 1.13106 -0.13734
 C450 C 0.65948 1.09304 -0.10057
 C451 C 0.63592 1.10258 -0.09675
 C452 C 0.61601 1.08896 -0.08283
 C453 C 0.58994 1.09217 -0.08933
 C454 C 0.57077 1.07962 -0.07631
 C455 C 0.57734 1.06411 -0.05617
 C456 C 0.60341 1.06125 -0.04940
 C457 C 0.62256 1.07349 -0.06261
 H458 H 0.73276 1.09359 -0.14876
 H459 H 0.69731 1.07245 -0.12812
 H460 H 0.66835 1.14405 -0.10198
 H461 H 0.70373 1.16519 -0.12257
 H462 H 0.66382 1.07414 -0.09460
 H463 H 0.63060 1.12034 -0.10497
 H464 H 0.58444 1.10421 -0.10468
 H465 H 0.55079 1.08230 -0.08174
 H466 H 0.60899 1.04931 -0.03400
 H467 H 0.64243 1.07115 -0.05669
 C468 C 0.28070 0.89486 -0.14451
 C469 C 0.30131 0.90735 -0.13286
 C470 C 0.31714 0.89508 -0.11541
 C471 C 0.31170 0.87002 -0.10953
 C472 C 0.29093 0.85756 -0.12108
 C473 C 0.27521 0.86983 -0.13873
 C474 C 0.33817 0.90947 -0.10292
 C475 C 0.35925 0.89889 -0.09276
 C476 C 0.37990 0.91379 -0.08022
 C477 C 0.40512 0.90423 -0.07950
 C478 C 0.42498 0.91782 -0.06771
 C479 C 0.41996 0.94119 -0.05616
 C480 C 0.39461 0.95051 -0.05651
 C481 C 0.37480 0.93698 -0.06832
 H482 H 0.26883 0.90506 -0.15770
 H483 H 0.30490 0.92673 -0.13750
 H484 H 0.32300 0.86015 -0.09565
 H485 H 0.28726 0.83829 -0.11617
 H486 H 0.33659 0.92972 -0.10315
 H487 H 0.36222 0.87885 -0.09466
 H488 H 0.40950 0.88632 -0.08833
 H489 H 0.44432 0.91017 -0.06787
 H490 H 0.38993 0.96809 -0.04717
 H491 H 0.35545 0.94451 -0.06758
 C492 C 0.71253 0.84655 0.11138
 C493 C 0.69120 0.85732 0.09941
 C494 C 0.68158 0.88068 0.10739
 C495 C 0.69415 0.89337 0.12734
 C496 C 0.71552 0.88263 0.13929
 C497 C 0.72495 0.85903 0.13154
 C498 C 0.65911 0.89148 0.09384
 C499 C 0.64326 0.90871 0.10393
 C500 C 0.62120 0.91999 0.09016
 C501 C 0.61214 0.94362 0.09802
 C502 C 0.59179 0.95527 0.08532
 C503 C 0.57985 0.94342 0.06455
 C504 C 0.58842 0.91945 0.05708
 C505 C 0.60882 0.90780 0.06977
 H506 H 0.71907 0.82836 0.10483
 H507 H 0.68202 0.84723 0.08396
 H508 H 0.68799 0.91182 0.13352
 H509 H 0.72475 0.89306 0.15442
 H510 H 0.65562 0.88470 0.07490
 H511 H 0.64675 0.91549 0.12287
 H512 H 0.62120 0.95334 0.11377
 H513 H 0.58585 0.97384 0.09141
 H514 H 0.57923 0.90959 0.04151
 H515 H 0.61451 0.88917 0.06370
   
