data_POSCAR
  _audit_creation_date              2014-09-24
  _audit_creation_method            'ToBaCCo'
  _symmetry_space_group_name_H-M    'P1'
  _symmetry_Int_Tables_number       1
  _symmetry_cell_setting            triclinic
  loop_
  _symmetry_equiv_pos_as_xyz
 x,y,z
_cell_length_a 38.8473
_cell_length_b 39.0150
_cell_length_c 12.5012
_cell_angle_alpha 90.250600
_cell_angle_beta 89.910700
_cell_angle_gamma 120.250500
loop_
  _atom_site_label
  _atom_site_type_symbol
  _atom_site_fract_x
  _atom_site_fract_y
  _atom_site_fract_z
C1 C 0.20886 0.47845 0.44553
 C2 C 0.20806 0.47532 0.55915
 C3 C 0.24028 0.47581 0.61145
 C4 C 0.27529 0.48366 0.55735
 C5 C 0.27691 0.48934 0.44435
 C6 C 0.24405 0.48719 0.39100
 H7 H 0.24456 0.48796 0.30436
 H8 H 0.23897 0.47230 0.69779
 C9 C 0.52402 -0.26667 0.47504
 C10 C 0.51395 -0.26799 0.58464
 C11 C 0.50752 -0.23883 0.62927
 C12 C 0.51280 -0.20599 0.56953
 C13 C 0.52596 -0.20278 0.46192
 C14 C 0.53006 -0.23348 0.41502
 H15 H 0.54011 -0.22991 0.33294
 H16 H 0.50025 -0.24150 0.71341
 C17 C 1.29253 0.77186 0.42796
 C18 C 1.29460 0.77450 0.54151
 C19 C 1.26142 0.74868 0.60309
 C20 C 1.22568 0.72047 0.55537
 C21 C 1.22277 0.71741 0.44285
 C22 C 1.25642 0.74258 0.38058
 H23 H 1.25385 0.73954 0.29495
 H24 H 1.26332 0.75093 0.68963
 C25 C 0.77227 0.48343 0.44284
 C26 C 0.77337 0.48556 0.55626
 C27 C 0.74278 0.48792 0.60984
 C28 C 0.71258 0.49103 0.55519
 C29 C 0.71403 0.49246 0.44124
 C30 C 0.74349 0.48807 0.38757
 H31 H 0.74385 0.48778 0.30090
 H32 H 0.74477 0.49045 0.69604
 C33 C 0.46655 0.26764 0.46046
 C34 C 0.47550 0.27095 0.57202
 C35 C 0.48212 0.24206 0.61920
 C36 C 0.47835 0.20921 0.56110
 C37 C 0.47245 0.20833 0.44900
 C38 C 0.46653 0.23720 0.40062
 H39 H 0.46117 0.23555 0.31507
 H40 H 0.48853 0.24492 0.70374
 C41 C 0.72989 0.21840 0.43932
 C42 C 0.72829 0.21555 0.55187
 C43 C 0.75504 0.24858 0.61325
 C44 C 0.78400 0.28448 0.56560
 C45 C 0.78676 0.28623 0.45171
 C46 C 0.75905 0.25345 0.39080
 H47 H 0.76116 0.25448 0.30428
 H48 H 0.75438 0.24500 0.69893
 O49 O 0.95285 0.42264 0.20685
 O50 O 0.90570 0.42634 0.10497
 C51 C 0.91620 0.41188 0.18363
 O52 O 1.06118 0.59974 0.14581
 O53 O 1.10309 0.58655 0.04689
 C54 C 1.09631 0.60836 0.11175
 O55 O 0.94929 0.54084 0.16922
 O56 O 0.90349 0.48249 0.08739
 C57 C 0.91309 0.51252 0.15072
 O58 O 1.06444 0.47556 0.17349
 O59 O 1.10464 0.52757 0.06364
 C60 C 1.09921 0.50198 0.13670
 Zr61 Zr 1.00656 0.46467 0.13167
 O62 O 1.01554 0.47427 0.29861
 O63 O 1.00301 0.40897 0.14682
 Zr64 Zr 1.00437 0.54989 0.11007
 O65 O 1.01188 0.55647 0.27813
 O66 O 0.99979 0.60160 0.10196
 O67 O 0.97032 0.48982 0.14763
 O68 O 1.04058 0.52591 0.13470
 O69 O 1.05556 0.46371 -0.19662
 O70 O 1.10071 0.52066 -0.10925
 C71 C 1.09164 0.49164 -0.17486
 O72 O 0.94129 0.52309 -0.21844
 O73 O 0.90008 0.47492 -0.10031
 C74 C 0.90626 0.49675 -0.18421
 O75 O 1.05281 0.58517 -0.22398
 O76 O 1.09906 0.57839 -0.12709
 C77 C 1.08928 0.59550 -0.19969
 O78 O 0.94440 0.40988 -0.19263
 O79 O 0.90148 0.41929 -0.08679
 C80 C 0.90898 0.40068 -0.16153
 Zr81 Zr 1.00040 0.45401 -0.13591
 O82 O 0.99894 0.44242 -0.30164
 O83 O 0.99751 0.39919 -0.10606
 Zr84 Zr 0.99842 0.53951 -0.15879
 O85 O 0.99912 0.53643 -0.32784
 O86 O 0.99216 0.59031 -0.16763
 Zr87 Zr 0.94280 0.47141 -0.00364
 Zr88 Zr 1.06137 0.53255 -0.02353
 O89 O 1.03325 0.51369 -0.17320
 O90 O 0.96382 0.47789 -0.16242
 O91 O 1.03919 0.47113 -0.00674
 O92 O 0.96654 0.53296 -0.02074
 O93 O 0.96851 0.43519 0.00497
 O94 O 1.03660 0.56965 -0.03197
 H95 H 1.06041 0.53768 0.19322
 H96 H 0.94801 0.54340 -0.02467
 H97 H 1.04966 0.52069 -0.23894
 H98 H 0.95043 0.40618 0.01228
 H99 H 1.01831 0.61863 0.04553
 H100 H 1.01656 0.61292 -0.13709
 H101 H 0.97905 0.50901 -0.34895
 H102 H 1.00189 0.46601 -0.33894
 H103 H 1.02483 0.40483 -0.09002
 H104 H 1.02278 0.40881 0.09719
 H105 H 0.99435 0.47887 0.32640
 H106 H 0.98782 0.53446 0.31155
 O107 O 0.42000 0.47333 0.21035
 O108 O 0.42460 0.52407 0.10729
 C109 C 0.40931 0.49879 0.18531
 O110 O 0.59523 0.54140 0.18212
 O111 O 0.58409 0.48677 0.08392
 C112 C 0.60356 0.51418 0.15536
 O113 O 0.53668 0.59478 0.19112
 O114 O 0.48179 0.58318 0.09346
 C115 C 0.50953 0.60326 0.16262
 O116 O 0.47290 0.41586 0.18797
 O117 O 0.52597 0.42734 0.08233
 C118 C 0.50015 0.40803 0.15632
 Zr119 Zr 0.46126 0.46104 0.13623
 O120 O 0.46067 0.45510 0.30426
 O121 O 0.40488 0.40850 0.12704
 Zr122 Zr 0.54764 0.54940 0.13216
 O123 O 0.55169 0.54969 0.30112
 O124 O 0.60116 0.60443 0.11859
 O125 O 0.48651 0.52230 0.15842
 O126 O 0.52237 0.48881 0.15102
 O127 O 0.46729 0.41565 -0.18914
 O128 O 0.52299 0.42622 -0.09768
 C129 C 0.49448 0.40688 -0.16657
 O130 O 0.53260 0.59263 -0.19076
 O131 O 0.47922 0.58181 -0.08693
 C132 C 0.50572 0.60100 -0.15987
 O133 O 0.59115 0.54052 -0.19798
 O134 O 0.58231 0.48674 -0.10168
 C135 C 0.60032 0.51373 -0.17422
 O136 O 0.41675 0.47483 -0.19956
 O137 O 0.42207 0.52366 -0.08639
 C138 C 0.40637 0.50001 -0.16764
 Zr139 Zr 0.45784 0.46087 -0.13130
 O140 O 0.45207 0.45287 -0.29894
 O141 O 0.40126 0.40903 -0.11418
 Zr142 Zr 0.54462 0.54846 -0.13703
 O143 O 0.54399 0.54663 -0.30641
 O144 O 0.59740 0.60466 -0.13789
 Zr145 Zr 0.47211 0.53352 0.00473
 Zr146 Zr 0.53354 0.47640 -0.00530
 O147 O 0.51857 0.48795 -0.15726
 O148 O 0.48306 0.52179 -0.15268
 O149 O 0.47142 0.43692 -0.00049
 O150 O 0.53441 0.57173 -0.00036
 O151 O 0.43505 0.47152 0.00585
 O152 O 0.57125 0.53844 -0.00539
 H153 H 0.53183 0.48049 0.21389
 H154 H 0.54603 0.60090 -0.00082
 H155 H 0.52672 0.47933 -0.22244
 H156 H 0.40589 0.46086 0.00813
 H157 H 0.61019 0.61357 0.19276
 H158 H 0.61626 0.60337 -0.08726
 H159 H 0.51859 0.54418 -0.33055
 H160 H 0.47320 0.47778 -0.33083
 H161 H 0.40566 0.38737 -0.09039
 H162 H 0.40909 0.38711 0.09918
 H163 H 0.47977 0.48163 0.33309
 H164 H 0.52699 0.54755 0.33033
 O165 O 0.53051 -0.06061 0.17666
 O166 O 0.47743 -0.09976 0.06714
 C167 C 0.50344 -0.09494 0.13913
 O168 O 0.46386 0.04958 0.23207
 O169 O 0.51837 0.09785 0.14267
 C170 C 0.49011 0.08636 0.21313
 O171 O 0.41279 -0.06079 0.20913
 O172 O 0.42077 -0.09985 0.08532
 C173 C 0.40378 -0.09497 0.16902
 O174 O 0.59072 0.05072 0.20259
 O175 O 0.57879 0.09770 0.13041
 C176 C 0.59934 0.08717 0.18921
 Zr177 Zr 0.54284 -0.00231 0.13880
 O178 O 0.54672 -0.00561 0.30700
 O179 O 0.59615 -0.00339 0.11477
 Zr180 Zr 0.45569 -0.00317 0.15977
 O181 O 0.45797 -0.00550 0.32860
 O182 O 0.39863 -0.00877 0.16869
 O183 O 0.48162 -0.03873 0.15826
 O184 O 0.51660 0.03069 0.18042
 O185 O 0.58951 0.06777 -0.16428
 O186 O 0.57812 0.10617 -0.04588
 C187 C 0.59789 0.10182 -0.12303
 O188 O 0.40969 -0.04374 -0.18011
 O189 O 0.42013 -0.09132 -0.10479
 C190 C 0.40127 -0.08011 -0.16832
 O191 O 0.46453 0.06603 -0.13849
 O192 O 0.51842 0.10535 -0.03175
 C193 C 0.49142 0.10027 -0.10066
 O194 O 0.53140 -0.04269 -0.20931
 O195 O 0.47810 -0.09093 -0.11610
 C196 C 0.50479 -0.07946 -0.19097
 Zr197 Zr 0.54233 0.00971 -0.12791
 O198 O 0.54388 0.02113 -0.29381
 O199 O 0.59537 0.00722 -0.14032
 Zr200 Zr 0.45489 0.00847 -0.10708
 O201 O 0.45577 0.01931 -0.27313
 O202 O 0.39855 0.00416 -0.09108
 Zr203 Zr 0.46915 -0.05578 -0.00393
 Zr204 Zr 0.52835 0.06183 0.03567
 O205 O 0.51577 0.04406 -0.12556
 O206 O 0.48082 -0.02521 -0.15026
 O207 O 0.56692 0.03905 0.01581
 O208 O 0.43159 -0.03195 0.01664
 O209 O 0.53146 -0.03066 -0.00741
 O210 O 0.46613 0.03774 0.03951
 H211 H 0.52573 0.04586 0.24834
 H212 H 0.40237 -0.05024 0.01637
 H213 H 0.52468 0.06442 -0.18233
 H214 H 0.54279 -0.04822 -0.01767
 H215 H 0.40061 0.01514 0.13566
 H216 H 0.40207 0.02649 -0.04546
 H217 H 0.45988 -0.00067 -0.31090
 H218 H 0.51878 -0.00013 -0.32537
 H219 H 0.61324 0.02384 -0.08192
 H220 H 0.60453 -0.00728 0.18637
 H221 H 0.52122 -0.02824 0.33191
 H222 H 0.46406 -0.02653 0.34656
 C223 C 1.17384 0.46812 0.38711
 C224 C 1.17336 0.48495 0.29454
 C225 C 1.13542 0.47897 0.25114
 C226 C 1.13557 0.50392 0.17831
 H227 H 1.20095 0.50703 0.25770
 H228 H 1.10744 0.45564 0.28322
 H229 H 1.14534 0.44849 0.42429
 H230 H 1.16387 0.52745 0.14826
 C231 C 0.52835 0.70216 0.43004
 C232 C 0.52877 0.69472 0.32555
 C233 C 0.53061 0.65939 0.29041
 C234 C 0.51055 0.63926 0.20377
 H235 H 0.52411 0.71192 0.26566
 H236 H 0.54632 0.64863 0.33872
 H237 H 0.52878 0.68052 0.48280
 H238 H 0.49293 0.64923 0.16094
 C239 C 0.32478 -0.19980 0.36536
 C240 C 0.32820 -0.20106 0.25823
 C241 C 0.35987 -0.16736 0.19759
 C242 C 0.37244 -0.12971 0.22563
 H243 H 0.30871 -0.22724 0.21220
 H244 H 0.37106 -0.17379 0.12540
 H245 H 0.34861 -0.17447 0.40627
 H246 H 0.35917 -0.12367 0.29417
 C247 C 0.79795 0.47260 0.38042
 C248 C 0.81944 0.49440 0.29750
 C249 C 0.84844 0.48659 0.24281
 C250 C 0.88142 0.51687 0.20169
 H251 H 0.81802 0.52050 0.27522
 H252 H 0.84409 0.45687 0.24166
 H253 H 0.80196 0.44865 0.40912
 H254 H 0.88689 0.54682 0.21231
 C255 C 0.45878 0.29569 0.40109
 C256 C 0.48657 0.32405 0.33995
 C257 C 0.47859 0.35237 0.28309
 C258 C 0.50414 0.37663 0.20972
 H259 H 0.51561 0.32663 0.33294
 H260 H 0.45211 0.35376 0.30255
 H261 H 0.42908 0.29162 0.40375
 H262 H 0.52996 0.37413 0.18954
 C263 C 0.70127 0.18480 0.37166
 C264 C 0.68021 0.18972 0.29464
 C265 C 0.64721 0.15704 0.23379
 C266 C 0.63442 0.11826 0.24647
 H267 H 0.68576 0.21936 0.27864
 H268 H 0.63194 0.16590 0.17766
 H269 H 0.69594 0.15564 0.39094
 H270 H 0.64920 0.10836 0.30068
 C271 C 0.47925 0.17718 -0.38819
 C272 C 0.48407 0.17404 -0.28302
 C273 C 0.48080 0.13746 -0.24026
 C274 C 0.49255 0.13606 -0.14096
 H275 H 0.49016 0.19743 -0.22665
 H276 H 0.46962 0.11157 -0.29179
 H277 H 0.47458 0.15219 -0.43696
 H278 H 0.50606 0.16254 -0.09143
 C279 C 0.68220 0.49325 -0.38669
 C280 C 0.67366 0.48299 -0.28296
 C281 C 0.64236 0.48537 -0.22196
 C282 C 0.63219 0.51311 -0.23733
 H283 H 0.68716 0.46865 -0.24081
 H284 H 0.62872 0.46427 -0.15747
 H285 H 0.66326 0.50175 -0.42787
 H286 H 0.64703 0.53549 -0.29832
 C287 C 0.81051 0.31740 -0.37033
 C288 C 0.80625 0.32132 -0.26458
 C289 C 0.83755 0.35432 -0.20097
 C290 C 0.87614 0.36754 -0.21938
 H291 H 0.77908 0.30141 -0.22277
 H292 H 0.82860 0.36613 -0.13488
 H293 H 0.83582 0.34207 -0.40812
 H294 H 0.88447 0.35360 -0.28147
 C295 C 0.50601 -0.17653 -0.38420
 C296 C 0.48703 -0.18055 -0.29073
 C297 C 0.48257 -0.14884 -0.23896
 C298 C 0.50654 -0.10994 -0.25705
 H299 H 0.47238 -0.20855 -0.24924
 H300 H 0.46045 -0.15829 -0.17605
 H301 H 0.51524 -0.14951 -0.42803
 H302 H 0.53004 -0.09979 -0.31602
 C303 C 0.30601 0.48477 -0.37849
 C304 C 0.34474 0.50153 -0.40447
 C305 C 0.37375 0.49798 -0.33640
 C306 C 0.37575 0.50280 -0.22993
 H307 H 0.35647 0.51748 -0.47799
 H308 H 0.39602 0.49377 -0.37711
 H309 H 0.29774 0.47184 -0.29930
 H310 H 0.35657 0.51139 -0.18942
 C311 C 1.19106 0.69473 -0.37625
 C312 C 1.19411 0.67411 -0.29521
 C313 C 1.15999 0.64345 -0.23374
 C314 C 1.12147 0.62836 -0.26006
 H315 H 1.22319 0.67857 -0.27469
 H316 H 1.16762 0.63147 -0.16569
 H317 H 1.16252 0.69082 -0.39925
 H318 H 1.11282 0.63931 -0.32804
 C319 C 0.80416 0.48716 -0.37943
 C320 C 0.84213 0.50241 -0.41137
 C321 C 0.87524 0.50779 -0.34159
 C322 C 0.87120 0.49056 -0.24594
 H323 H 0.85122 0.51562 -0.48950
 H324 H 0.90484 0.52654 -0.37385
 H325 H 0.79767 0.48011 -0.29553
 H326 H 0.84205 0.47019 -0.21394
 C327 C 0.47957 0.30186 -0.35969
 C328 C 0.46029 0.32194 -0.37173
 C329 C 0.46405 0.35363 -0.29968
 C330 C 0.49297 0.37347 -0.22673
 H331 H 0.43731 0.31301 -0.43096
 H332 H 0.44164 0.36195 -0.31235
 H333 H 0.49675 0.30717 -0.28709
 H334 H 0.51635 0.36658 -0.21397
 C335 C 0.69915 0.17797 -0.39432
 C336 C 0.68119 0.17710 -0.30224
 C337 C 0.65082 0.13912 -0.25558
 C338 C 0.63116 0.13853 -0.16725
 H339 H 0.68754 0.20454 -0.26324
 H340 H 0.64349 0.11161 -0.29595
 H341 H 0.69106 0.15003 -0.43291
 H342 H 0.63838 0.16630 -0.12856
 C343 C 1.17737 0.47331 -0.37520
 C344 C 1.15407 0.48819 -0.40234
 C345 C 1.12064 0.48301 -0.33653
 C346 C 1.12442 0.49174 -0.23251
 H347 H 1.15831 0.50416 -0.47601
 H348 H 1.09338 0.47616 -0.37790
 H349 H 1.17405 0.46135 -0.29521
 H350 H 1.15304 0.50337 -0.19322
 C351 C 0.50901 0.69986 -0.34428
 C352 C 0.54073 0.69733 -0.31509
 C353 C 0.53837 0.66311 -0.25936
 C354 C 0.50594 0.63517 -0.20881
 H355 H 0.56997 0.71985 -0.34246
 H356 H 0.56518 0.66110 -0.26108
 H357 H 0.47909 0.67807 -0.32051
 H358 H 0.47967 0.63775 -0.19941
 C359 C 0.33113 -0.19641 -0.40070
 C360 C 0.32987 -0.17164 -0.32888
 C361 C 0.36547 -0.14265 -0.26955
 C362 C 0.36697 -0.11027 -0.22884
 H363 H 0.30206 -0.17205 -0.31559
 H364 H 0.39065 -0.14724 -0.26131
 H365 H 0.35925 -0.19448 -0.42013
 H366 H 0.34287 -0.10458 -0.24490
 C367 C 0.53700 -0.16672 0.39870
 C368 C 0.51795 -0.16785 0.30892
 C369 C 0.52463 -0.13072 0.25972
 C370 C 0.50110 -0.13128 0.18114
 H371 H 0.49519 -0.19617 0.27682
 H372 H 0.54751 -0.10262 0.29258
 H373 H 0.55844 -0.13826 0.43301
 H374 H 0.47793 -0.15954 0.14987
 C375 C 0.30816 0.48933 0.37681
 C376 C 0.32642 0.51571 0.29783
 C377 C 0.35875 0.51755 0.23023
 C378 C 0.37798 0.49805 0.25289
 H379 H 0.31728 0.53718 0.28110
 H380 H 0.36717 0.53621 0.15996
 H381 H 0.31592 0.46705 0.39505
 H382 H 0.37075 0.48008 0.32391
 C383 C 1.18500 0.68634 0.39256
 C384 C 1.17356 0.68771 0.29273
 C385 C 1.13558 0.65502 0.25240
 C386 C 1.13126 0.64484 0.14951
 H387 H 1.19198 0.71198 0.23968
 H388 H 1.11227 0.63676 0.30884
 H389 H 1.16520 0.66076 0.44035
 H390 H 1.15602 0.66069 0.09490
 C391 C 0.47194 0.17717 0.38040
 C392 C 0.50231 0.18535 0.31428
 C393 C 0.50613 0.15500 0.25228
 C394 C 0.48659 0.11629 0.27658
 H395 H 0.52586 0.21592 0.30503
 H396 H 0.52694 0.16547 0.18609
 H397 H 0.44737 0.14723 0.39022
 H398 H 0.46655 0.10547 0.34419
 C399 C 0.68522 0.49814 0.37568
 C400 C 0.66938 0.47769 0.28466
 C401 C 0.64047 0.48170 0.21638
 C402 C 0.63582 0.51351 0.21590
 H403 H 0.67585 0.45475 0.26137
 H404 H 0.62227 0.45689 0.16390
 H405 H 0.67674 0.51910 0.40350
 H406 H 0.65430 0.53886 0.26624
 C407 C 0.81975 0.32057 0.39440
 C408 C 0.81398 0.33517 0.30325
 C409 C 0.84608 0.36766 0.23954
 C410 C 0.88512 0.38074 0.25153
 H411 H 0.78388 0.32324 0.27357
 H412 H 0.83655 0.38012 0.17688
 H413 H 0.84930 0.33339 0.42781
 H414 H 0.89526 0.36796 0.31148
   
