data_POSCAR
  _audit_creation_date              2014-09-24
  _audit_creation_method            'ToBaCCo'
  _symmetry_space_group_name_H-M    'P1'
  _symmetry_Int_Tables_number       1
  _symmetry_cell_setting            triclinic
  loop_
  _symmetry_equiv_pos_as_xyz
 x,y,z
_cell_length_a 26.7031
_cell_length_b 30.6836
_cell_length_c 26.6790
_cell_angle_alpha 89.093000
_cell_angle_beta 91.429300
_cell_angle_gamma 88.270700
loop_
  _atom_site_label
  _atom_site_type_symbol
  _atom_site_fract_x
  _atom_site_fract_y
  _atom_site_fract_z
C1 C 1.21015 0.22219 0.21499
 C2 C 1.24215 0.25148 0.18155
 C3 C 1.27261 0.27826 0.20763
 C4 C 1.26936 0.27347 0.26486
 C5 C 1.24894 0.19828 0.24922
 C6 C 1.27872 0.22432 0.27633
 C7 C 1.18284 0.25487 0.24854
 C8 C 1.21310 0.28191 0.27504
 H9 H 1.23941 0.25416 0.14124
 H10 H 1.29563 0.29528 0.28421
 H11 H 1.25098 0.16308 0.25367
 H12 H 1.14236 0.25649 0.25025
 C13 C 0.70974 -0.27623 0.21491
 C14 C 0.74181 -0.24735 0.18136
 C15 C 0.77241 -0.22067 0.20728
 C16 C 0.76980 -0.22548 0.26456
 C17 C 0.74865 -0.30047 0.24882
 C18 C 0.77885 -0.27459 0.27569
 C19 C 0.68297 -0.24333 0.24870
 C20 C 0.71394 -0.21700 0.27528
 H21 H 0.73934 -0.24502 0.14102
 H22 H 0.79598 -0.20375 0.28427
 H23 H 0.75045 -0.33567 0.25333
 H24 H 0.64251 -0.24077 0.25060
 C25 C 0.71456 0.22236 -0.28297
 C26 C 0.74312 0.25117 -0.31528
 C27 C 0.77352 0.28111 -0.28842
 C28 C 0.77148 0.27549 -0.23380
 C29 C 0.75315 0.20056 -0.25142
 C30 C 0.78338 0.22903 -0.22322
 C31 C 0.68733 0.25209 -0.25053
 C32 C 0.71787 0.28198 -0.22300
 H33 H 0.74598 0.24908 -0.35545
 H34 H 0.79720 0.29804 -0.21507
 H35 H 0.75843 0.16540 -0.24848
 H36 H 0.64714 0.25056 -0.24651
 C37 C 1.21284 -0.27689 -0.28376
 C38 C 1.24248 -0.24415 -0.31513
 C39 C 1.27082 -0.21657 -0.28708
 C40 C 1.26720 -0.22467 -0.22980
 C41 C 1.25365 -0.29990 -0.25118
 C42 C 1.28106 -0.27343 -0.22211
 C43 C 1.18274 -0.24765 -0.24903
 C44 C 1.21051 -0.22112 -0.22021
 H45 H 1.24255 -0.24268 -0.35556
 H46 H 1.29029 -0.20301 -0.20631
 H47 H 1.25891 -0.33509 -0.24950
 H48 H 1.14213 -0.24690 -0.24881
 C49 C 0.22811 0.21932 0.78950
 C50 C 0.25969 0.24814 0.81862
 C51 C 0.28944 0.27620 0.78886
 C52 C 0.28407 0.26893 0.73491
 C53 C 0.19862 0.25050 0.75323
 C54 C 0.22733 0.27641 0.72426
 C55 C 0.26530 0.19423 0.75732
 C56 C 0.29320 0.21936 0.72739
 H57 H 0.25836 0.25243 0.85857
 H58 H 0.30822 0.29000 0.71222
 H59 H 0.15803 0.25288 0.75216
 H60 H 0.26641 0.15896 0.75512
 C61 C 0.72955 0.71386 0.78489
 C62 C 0.76007 0.74433 0.81355
 C63 C 0.78851 0.77381 0.78310
 C64 C 0.78055 0.76576 0.72900
 C65 C 0.69895 0.74184 0.75104
 C66 C 0.72608 0.77049 0.71961
 C67 C 0.76626 0.69141 0.75457
 C68 C 0.79335 0.71913 0.72286
 H69 H 0.76933 0.74003 0.85296
 H70 H 0.80080 0.78813 0.70500
 H71 H 0.65846 0.74013 0.74909
 H72 H 0.77349 0.65640 0.75628
 C73 C 0.72767 0.21688 0.28644
 C74 C 0.76111 0.24831 0.31609
 C75 C 0.79018 0.27399 0.28667
 C76 C 0.78314 0.26541 0.23001
 C77 C 0.69817 0.24721 0.24979
 C78 C 0.72650 0.27225 0.22005
 C79 C 0.76527 0.19123 0.25555
 C80 C 0.79316 0.21574 0.22533
 H81 H 0.76174 0.25136 0.35633
 H82 H 0.80549 0.28629 0.20535
 H83 H 0.65759 0.25009 0.24930
 H84 H 0.76892 0.15593 0.25685
 C85 C 0.22875 0.71602 0.28349
 C86 C 0.25847 0.75000 0.31311
 C87 C 0.28467 0.77754 0.28378
 C88 C 0.27989 0.76855 0.22724
 C89 C 0.19671 0.74383 0.24598
 C90 C 0.22301 0.77074 0.21637
 C91 C 0.26908 0.69327 0.25270
 C92 C 0.29475 0.71988 0.22208
 H93 H 0.25810 0.75422 0.35314
 H94 H 0.30152 0.79096 0.20358
 H95 H 0.15612 0.74362 0.24467
 H96 H 0.27570 0.65823 0.25401
 N97 N 1.08406 0.04065 0.05769
 N98 N 1.11600 0.07099 0.06975
 N99 N 1.05121 -0.05336 0.08361
 N100 N 1.06309 -0.08474 0.11665
 N101 N 1.08624 -0.05031 0.05016
 N102 N 1.12265 -0.07956 0.05922
 N103 N 1.04924 0.03794 0.09127
 N104 N 1.05610 0.06673 0.12673
 C105 C 1.09820 0.08682 0.11320
 C106 C 1.10728 -0.10112 0.10023
 N107 N 0.90705 -0.04694 0.04554
 N108 N 0.86990 -0.07292 0.05542
 N109 N 0.94250 0.03959 0.08826
 N110 N 0.93929 0.07149 0.12041
 N111 N 0.90839 0.04484 0.05227
 N112 N 0.88135 0.08101 0.05902
 N113 N 0.94238 -0.05108 0.08070
 N114 N 0.92984 -0.07961 0.11539
 Mn115 Mn 0.99628 -0.00702 0.08637
 C116 C 0.88468 -0.09317 0.09903
 C117 C 0.90148 0.09753 0.10173
 N118 N 1.08613 -0.04226 -0.05653
 N119 N 1.11904 -0.07402 -0.06445
 N120 N 1.04978 0.05105 -0.08563
 N121 N 1.06074 0.08066 -0.11951
 N122 N 1.08461 0.04842 -0.05003
 N123 N 1.12068 0.07567 -0.05931
 N124 N 1.05111 -0.04049 -0.09194
 N125 N 1.05934 -0.07132 -0.12500
 Mn126 Mn 1.08565 -0.00073 0.00033
 C127 C 1.10156 -0.09242 -0.10679
 C128 C 1.10505 0.09567 -0.10270
 N129 N 0.90763 0.05231 -0.05577
 N130 N 0.87668 0.08650 -0.06091
 N131 N 0.94259 -0.03809 -0.09585
 N132 N 0.93413 -0.06607 -0.13192
 N133 N 0.90679 -0.03904 -0.06309
 N134 N 0.87279 -0.06737 -0.07659
 N135 N 0.94273 0.05394 -0.08915
 N136 N 0.93697 0.08972 -0.11723
 Mn137 Mn 0.90678 0.00281 -0.00523
 Mn138 Mn 0.99653 0.00647 -0.09126
 Cl139 Cl 0.99620 0.00015 -0.00251
 C140 C 0.89562 0.11017 -0.09897
 C141 C 0.89019 -0.08408 -0.11998
 N142 N 1.08440 0.54299 0.55899
 N143 N 1.11681 0.57311 0.57023
 N144 N 1.05215 0.44919 0.58691
 N145 N 1.06457 0.41788 0.61986
 N146 N 1.08687 0.45229 0.55318
 N147 N 1.12365 0.42356 0.56240
 N148 N 1.04998 0.54070 0.59307
 N149 N 1.05765 0.56969 0.62814
 C150 C 1.09974 0.58936 0.61365
 C151 C 1.10886 0.40145 0.60329
 N152 N 0.90863 0.45381 0.54968
 N153 N 0.87135 0.42802 0.55961
 N154 N 0.94283 0.54203 0.59133
 N155 N 0.93902 0.57442 0.62291
 N156 N 0.90849 0.54621 0.55542
 N157 N 0.88074 0.58215 0.56162
 N158 N 0.94295 0.45091 0.58581
 N159 N 0.92902 0.42375 0.62155
 Mn160 Mn 0.99703 0.49545 0.58977
 C161 C 0.88417 0.40940 0.60464
 C162 C 0.90053 0.59971 0.60397
 N163 N 1.08659 0.45874 0.44623
 N164 N 1.12363 0.43166 0.43514
 N165 N 1.05007 0.55258 0.41591
 N166 N 1.06215 0.58048 0.38052
 N167 N 1.08506 0.54996 0.45136
 N168 N 1.12211 0.57582 0.44063
 N169 N 1.05308 0.46150 0.40943
 N170 N 1.06750 0.43680 0.37185
 Mn171 Mn 1.08599 0.50106 0.50252
 C172 C 1.11182 0.41811 0.38861
 C173 C 1.10704 0.59484 0.39649
 N174 N 0.90808 0.55210 0.44746
 N175 N 0.87657 0.58582 0.44258
 N176 N 0.94387 0.46278 0.40737
 N177 N 0.93712 0.43289 0.37311
 N178 N 0.90937 0.46059 0.44148
 N179 N 0.87871 0.42868 0.43152
 N180 N 0.94297 0.55429 0.41391
 N181 N 0.93643 0.59000 0.38591
 Mn182 Mn 0.90799 0.50316 0.49844
 Mn183 Mn 0.99729 0.50769 0.41111
 Cl184 Cl 0.99700 0.50158 0.50044
 C185 C 0.89486 0.60975 0.40450
 C186 C 0.89682 0.41123 0.38892
 N187 N 0.58502 0.04602 0.55816
 N188 N 0.61782 0.07579 0.56982
 N189 N 0.55748 -0.04733 0.58991
 N190 N 0.57277 -0.07598 0.62502
 N191 N 0.59066 -0.04537 0.55454
 N192 N 0.62850 -0.07295 0.56428
 N193 N 0.55056 0.04397 0.59227
 N194 N 0.55878 0.07237 0.62787
 C195 C 0.60095 0.09188 0.61348
 C196 C 0.61734 -0.09199 0.60839
 N197 N 0.41338 -0.04895 0.55251
 N198 N 0.37914 -0.07783 0.56252
 N199 N 0.44302 0.04197 0.59061
 N200 N 0.43417 0.07384 0.62232
 N201 N 0.40899 0.04297 0.55432
 N202 N 0.37679 0.07569 0.56004
 N203 N 0.44849 -0.04972 0.58802
 N204 N 0.43880 -0.07893 0.62310
 Mn205 Mn 0.49983 -0.00291 0.59076
 C206 C 0.39609 -0.09689 0.60606
 C207 C 0.39216 0.09456 0.60292
 N208 N 0.58942 -0.04075 0.44690
 N209 N 0.62512 -0.06979 0.43750
 N210 N 0.54892 0.05065 0.41486
 N211 N 0.55885 0.07937 0.37952
 N212 N 0.58400 0.05008 0.45024
 N213 N 0.61904 0.07788 0.43946
 N214 N 0.55396 -0.04101 0.41199
 N215 N 0.56445 -0.07073 0.37825
 Mn216 Mn 0.58762 0.00253 0.50249
 C217 C 0.60873 -0.08905 0.39516
 C218 C 0.60271 0.09605 0.39532
 N219 N 0.40711 0.04710 0.44675
 N220 N 0.37508 0.08056 0.44158
 N221 N 0.44556 -0.04261 0.40922
 N222 N 0.43438 -0.06881 0.37188
 N223 N 0.41170 -0.04468 0.44398
 N224 N 0.37681 -0.07226 0.43126
 N225 N 0.44180 0.04942 0.41303
 N226 N 0.43463 0.08482 0.38460
 Mn227 Mn 0.40981 -0.00098 0.49945
 Mn228 Mn 0.49755 0.00402 0.41173
 Cl229 Cl 0.49868 0.00041 0.50110
 C230 C 0.39280 0.10434 0.40296
 C231 C 0.39136 -0.08720 0.38625
 N232 N 0.58651 0.54126 0.05770
 N233 N 0.61850 0.57173 0.06917
 N234 N 0.55362 0.44753 0.08540
 N235 N 0.56536 0.41592 0.11815
 N236 N 0.58848 0.45038 0.05178
 N237 N 0.62464 0.42099 0.06069
 N238 N 0.55204 0.53875 0.09167
 N239 N 0.55906 0.56776 0.12675
 C240 C 0.60093 0.58775 0.11262
 C241 C 0.60930 0.39898 0.10144
 N242 N 0.40966 0.45348 0.04872
 N243 N 0.37252 0.42746 0.05864
 N244 N 0.44561 0.54147 0.08965
 N245 N 0.44240 0.57436 0.12073
 N246 N 0.41082 0.54532 0.05419
 N247 N 0.38260 0.58083 0.06065
 N248 N 0.44474 0.44983 0.08406
 N249 N 0.43210 0.42143 0.11900
 Mn250 Mn 0.49901 0.49409 0.08815
 C251 C 0.38701 0.40749 0.10251
 C252 C 0.40305 0.59896 0.10220
 N253 N 0.58842 0.45650 -0.05517
 N254 N 0.62584 0.42987 -0.06654
 N255 N 0.55221 0.54994 -0.08612
 N256 N 0.56385 0.57843 -0.12109
 N257 N 0.58697 0.54778 -0.05039
 N258 N 0.62345 0.57443 -0.06054
 N259 N 0.55451 0.45875 -0.09170
 N260 N 0.56906 0.43424 -0.12939
 Mn261 Mn 0.58792 0.49911 0.00105
 C262 C 0.61380 0.41621 -0.11301
 C263 C 0.60828 0.59354 -0.10462
 N264 N 0.41085 0.55164 -0.05377
 N265 N 0.38076 0.58647 -0.05830
 N266 N 0.44455 0.46062 -0.09387
 N267 N 0.43306 0.43377 -0.13051
 N268 N 0.41034 0.45984 -0.05930
 N269 N 0.37550 0.43202 -0.07106
 N270 N 0.44494 0.55217 -0.08832
 N271 N 0.43894 0.58736 -0.11720
 Mn272 Mn 0.40985 0.50261 -0.00265
 Mn273 Mn 0.49891 0.50515 -0.09056
 Cl274 Cl 0.49888 0.49995 -0.00109
 C275 C 0.39906 0.60884 -0.09773
 C276 C 0.38963 0.41618 -0.11577
 C277 C 1.14507 0.15438 0.11419
 C278 C 1.17056 0.18748 0.13763
 C279 C 1.17476 0.18959 0.19021
 C280 C 1.14856 0.15819 0.21925
 C281 C 1.12390 0.12345 0.19502
 C282 C 1.12232 0.12179 0.14184
 C283 C 1.10347 0.09063 0.22528
 N284 N 1.10448 0.09395 0.27579
 N285 N 1.12525 0.12741 0.29844
 C286 C 1.14730 0.15934 0.27217
 H287 H 1.14355 0.15410 0.07355
 H288 H 1.18728 0.21082 0.11323
 H289 H 1.08760 0.06175 0.21003
 H290 H 1.16372 0.18487 0.29354
 C291 C 1.14743 0.65652 0.61485
 C292 C 1.17381 0.68896 0.63861
 C293 C 1.17942 0.68956 0.69108
 C294 C 1.15517 0.65673 0.71999
 C295 C 1.12987 0.62272 0.69531
 C296 C 1.12556 0.62322 0.64224
 C297 C 1.11150 0.58839 0.72481
 N298 N 1.11488 0.58969 0.77542
 N299 N 1.13610 0.62255 0.79878
 C300 C 1.15632 0.65581 0.77312
 H301 H 1.14424 0.65741 0.57425
 H302 H 1.18978 0.71331 0.61486
 H303 H 1.09553 0.55985 0.70877
 H304 H 1.17329 0.68064 0.79523
 C305 C 0.64476 0.16099 0.61646
 C306 C 0.67045 0.19347 0.64089
 C307 C 0.68111 0.19122 0.69309
 C308 C 0.65836 0.15680 0.72117
 C309 C 0.63369 0.12285 0.69557
 C310 C 0.62701 0.12526 0.64273
 C311 C 0.61768 0.08688 0.72389
 N312 N 0.62198 0.08669 0.77453
 N313 N 0.64171 0.11974 0.79890
 C314 C 0.65978 0.15458 0.77424
 H315 H 0.63837 0.16402 0.57625
 H316 H 0.68108 0.22049 0.61763
 H317 H 0.60245 0.05847 0.70670
 H318 H 0.67497 0.17993 0.79691
 C319 C 0.64495 0.65670 0.11361
 C320 C 0.66893 0.69045 0.13738
 C321 C 0.67416 0.69156 0.18998
 C322 C 0.64961 0.65901 0.21873
 C323 C 0.62719 0.62344 0.19422
 C324 C 0.62483 0.62267 0.14107
 C325 C 0.60962 0.58902 0.22410
 N326 N 0.61051 0.59188 0.27468
 N327 N 0.62843 0.62645 0.29761
 C328 C 0.64789 0.65988 0.27156
 H329 H 0.64236 0.65713 0.07298
 H330 H 0.68349 0.71519 0.11328
 H331 H 0.59617 0.55934 0.20839
 H332 H 0.66175 0.68650 0.29287
 C333 C 0.87836 -0.15878 0.15317
 C334 C 0.85158 -0.18938 0.17984
 C335 C 0.79941 -0.18567 0.18184
 C336 C 0.77373 -0.14938 0.15845
 C337 C 0.80102 -0.11757 0.13233
 C338 C 0.85377 -0.12337 0.12811
 C339 C 0.77443 -0.08037 0.11297
 N340 N 0.72404 -0.07661 0.11752
 N341 N 0.69836 -0.10716 0.14058
 C342 C 0.72143 -0.14327 0.16127
 H343 H 0.91866 -0.16331 0.15124
 H344 H 0.87160 -0.21680 0.19795
 H345 H 0.79286 -0.05358 0.09544
 H346 H 0.69865 -0.16656 0.18010
 C347 C 0.87531 0.35246 0.67105
 C348 C 0.84856 0.32189 0.69802
 C349 C 0.79763 0.31575 0.68740
 C350 C 0.77199 0.34474 0.65249
 C351 C 0.79882 0.37728 0.62649
 C352 C 0.85187 0.37950 0.63386
 C353 C 0.77076 0.40775 0.59612
 N354 N 0.72040 0.40487 0.59089
 N355 N 0.69555 0.37435 0.61481
 C356 C 0.71935 0.34471 0.64579
 H357 H 0.91522 0.35422 0.67869
 H358 H 0.86873 0.30098 0.72527
 H359 H 0.78712 0.43520 0.57808
 H360 H 0.69633 0.32264 0.66621
 C361 C 0.36555 -0.17054 0.62482
 C362 C 0.33548 -0.19908 0.65091
 C363 C 0.30411 -0.18428 0.68906
 C364 C 0.30408 -0.13928 0.70132
 C365 C 0.33544 -0.11045 0.67522
 C366 C 0.36587 -0.12632 0.63644
 C367 C 0.33428 -0.06606 0.68787
 N368 N 0.30330 -0.05150 0.72382
 N369 N 0.27323 -0.07824 0.74764
 C370 C 0.27240 -0.12135 0.73739
 H371 H 0.38858 -0.18306 0.59510
 H372 H 0.33645 -0.23317 0.64088
 H373 H 0.35739 -0.04272 0.66932
 H374 H 0.24652 -0.14079 0.75709
 C375 C 0.37981 0.34053 0.15503
 C376 C 0.35246 0.30936 0.18045
 C377 C 0.30023 0.31341 0.18260
 C378 C 0.27522 0.35067 0.16063
 C379 C 0.30304 0.38283 0.13548
 C380 C 0.35581 0.37685 0.13117
 C381 C 0.27693 0.42063 0.11716
 N382 N 0.22662 0.42488 0.12202
 N383 N 0.20052 0.39422 0.14442
 C384 C 0.22304 0.35741 0.16399
 H385 H 0.42006 0.33570 0.15304
 H386 H 0.37211 0.28132 0.19764
 H387 H 0.29578 0.44749 0.10020
 H388 H 0.19993 0.33411 0.18246
 C389 C 0.89014 0.16634 -0.16749
 C390 C 0.86295 0.19675 -0.19762
 C391 C 0.81496 0.21150 -0.18458
 C392 C 0.79579 0.19739 -0.13785
 C393 C 0.82556 0.16961 -0.10505
 C394 C 0.87099 0.15037 -0.12237
 C395 C 0.80795 0.16172 -0.05645
 N396 N 0.76174 0.17656 -0.04379
 N397 N 0.73204 0.19912 -0.07616
 C398 C 0.74730 0.20974 -0.12269
 H399 H 0.92522 0.15332 -0.18132
 H400 H 0.87783 0.20595 -0.23360
 H401 H 0.83074 0.14542 -0.02759
 H402 H 0.72173 0.22861 -0.14673
 C403 C 0.88909 0.66641 0.33696
 C404 C 0.86093 0.69507 0.30561
 C405 C 0.81121 0.70587 0.31628
 C406 C 0.79096 0.69078 0.36186
 C407 C 0.82120 0.66504 0.39606
 C408 C 0.86893 0.64894 0.38089
 C409 C 0.80175 0.65598 0.44365
 N410 N 0.75380 0.66781 0.45378
 N411 N 0.72409 0.68859 0.41991
 C412 C 0.74094 0.70023 0.37430
 H413 H 0.92592 0.65586 0.32502
 H414 H 0.87665 0.70593 0.27066
 H415 H 0.82429 0.64126 0.47376
 H416 H 0.71562 0.71829 0.34906
 C417 C 0.38706 0.16073 0.33490
 C418 C 0.35990 0.19087 0.30446
 C419 C 0.31142 0.20451 0.31672
 C420 C 0.29170 0.19036 0.36295
 C421 C 0.32093 0.16236 0.39593
 C422 C 0.36724 0.14403 0.37943
 C423 C 0.30194 0.15355 0.44376
 N424 N 0.25535 0.16819 0.45547
 N425 N 0.22649 0.19139 0.42293
 C426 C 0.24293 0.20273 0.37707
 H427 H 0.42281 0.14855 0.32176
 H428 H 0.37519 0.20076 0.26894
 H429 H 0.32386 0.13674 0.47285
 H430 H 0.21813 0.22222 0.35265
 C431 C 0.32118 0.65159 -0.11637
 C432 C 0.29245 0.68046 -0.14648
 C433 C 0.31463 0.70703 -0.18236
 C434 C 0.36742 0.70696 -0.18489
 C435 C 0.39704 0.67757 -0.15385
 C436 C 0.37316 0.64764 -0.12163
 C437 C 0.44949 0.67926 -0.15653
 N438 N 0.47039 0.70714 -0.18938
 N439 N 0.44248 0.73352 -0.21962
 C440 C 0.39173 0.73430 -0.21859
 H441 H 0.30191 0.62981 -0.09155
 H442 H 0.25201 0.67989 -0.14416
 H443 H 0.47420 0.65957 -0.13214
 H444 H 0.37093 0.75658 -0.24366
 C445 C 1.12432 -0.12840 -0.18513
 C446 C 1.15199 -0.15828 -0.21245
 C447 C 1.18560 -0.18827 -0.18850
 C448 C 1.19007 -0.18900 -0.13554
 C449 C 1.16018 -0.15975 -0.10731
 C450 C 1.12838 -0.12803 -0.13274
 C451 C 1.16203 -0.16460 -0.05462
 N452 N 1.19363 -0.19482 -0.03224
 N453 N 1.22307 -0.22092 -0.05882
 C454 C 1.22218 -0.21911 -0.10961
 H455 H 1.10014 -0.10481 -0.20536
 H456 H 1.14759 -0.15773 -0.25295
 H457 H 1.13779 -0.14589 -0.03081
 H458 H 1.24636 -0.24125 -0.12919
 C459 C 1.12295 0.37191 0.31431
 C460 C 1.14714 0.33944 0.28746
 C461 C 1.19166 0.31841 0.30563
 C462 C 1.21368 0.33342 0.35118
 C463 C 1.19150 0.36981 0.37601
 C464 C 1.14343 0.38699 0.35936
 C465 C 1.21895 0.38758 0.41634
 N466 N 1.26159 0.36729 0.43422
 N467 N 1.27921 0.33069 0.41435
 C468 C 1.25667 0.31309 0.37379
 H469 H 1.08736 0.38505 0.29959
 H470 H 1.12998 0.33035 0.25211
 H471 H 1.20885 0.41814 0.43295
 H472 H 1.27266 0.28324 0.36042
 C473 C 0.62669 -0.12670 0.31635
 C474 C 0.65323 -0.15605 0.28728
 C475 C 0.69322 -0.18182 0.30760
 C476 C 0.70706 -0.17676 0.35905
 C477 C 0.67727 -0.14927 0.38982
 C478 C 0.63775 -0.12273 0.36762
 C479 C 0.68731 -0.15076 0.44202
 N480 N 0.72708 -0.17448 0.46110
 N481 N 0.75725 -0.19730 0.43183
 C482 C 0.74862 -0.19914 0.38171
 H483 H 0.59687 -0.10701 0.29829
 H484 H 0.64188 -0.15889 0.24825
 H485 H 0.66345 -0.13482 0.46845
 H486 H 0.77438 -0.21842 0.36074
 C487 C 0.62272 0.36490 -0.18288
 C488 C 0.64756 0.33211 -0.20858
 C489 C 0.69596 0.31606 -0.19381
 C490 C 0.71979 0.33622 -0.15176
 C491 C 0.69610 0.37302 -0.12893
 C492 C 0.64552 0.38529 -0.14230
 C493 C 0.72430 0.39610 -0.09331
 N494 N 0.76930 0.37986 -0.07615
 N495 N 0.78825 0.34231 -0.09242
 C496 C 0.76486 0.31984 -0.12897
 H497 H 0.58483 0.37422 -0.19503
 H498 H 0.62815 0.32011 -0.24138
 H499 H 0.71220 0.42743 -0.07973
 H500 H 0.78144 0.28896 -0.13836
 C501 C 1.16128 0.15766 -0.10555
 C502 C 1.18972 0.18786 -0.13070
 C503 C 1.19328 0.18785 -0.18338
 C504 C 1.16540 0.15610 -0.21056
 C505 C 1.13931 0.12362 -0.18430
 C506 C 1.13577 0.12571 -0.13156
 C507 C 1.11886 0.08918 -0.21185
 N508 N 1.12001 0.08968 -0.26250
 N509 N 1.14080 0.12191 -0.28752
 C510 C 1.16322 0.15490 -0.26347
 H511 H 1.15897 0.15947 -0.06513
 H512 H 1.20828 0.21116 -0.10762
 H513 H 1.10305 0.06118 -0.19405
 H514 H 1.17890 0.17952 -0.28642
 C515 C 1.16345 0.65652 0.39070
 C516 C 1.19193 0.68580 0.36421
 C517 C 1.19680 0.68320 0.31183
 C518 C 1.17133 0.64913 0.28628
 C519 C 1.14395 0.61832 0.31400
 C520 C 1.13869 0.62325 0.36633
 C521 C 1.12388 0.58266 0.28841
 N522 N 1.12768 0.57984 0.23809
 N523 N 1.15072 0.60989 0.21158
 C524 C 1.17250 0.64417 0.23371
 H525 H 1.16002 0.66043 0.43079
 H526 H 1.20915 0.71076 0.38591
 H527 H 1.10621 0.55631 0.30766
 H528 H 1.19065 0.66666 0.20948
 C529 C 0.65849 0.15822 0.39102
 C530 C 0.68799 0.18745 0.36567
 C531 C 0.69258 0.18603 0.31334
 C532 C 0.66482 0.15418 0.28624
 C533 C 0.63689 0.12301 0.31273
 C534 C 0.63269 0.12608 0.36544
 C535 C 0.61563 0.08877 0.28549
 N536 N 0.61835 0.08802 0.23496
 N537 N 0.64154 0.11872 0.20966
 C538 C 0.66472 0.15153 0.23327
 H539 H 0.65578 0.16080 0.43134
 H540 H 0.70678 0.21119 0.38802
 H541 H 0.59793 0.06180 0.30339
 H542 H 0.68294 0.17466 0.20972
 C543 C 0.66245 0.65700 -0.11006
 C544 C 0.69078 0.68668 -0.13624
 C545 C 0.69808 0.68319 -0.18837
 C546 C 0.67234 0.64905 -0.21422
 C547 C 0.64567 0.61768 -0.18657
 C548 C 0.63960 0.62266 -0.13440
 C549 C 0.62670 0.58155 -0.21214
 N550 N 0.62989 0.57911 -0.26253
 N551 N 0.65123 0.61005 -0.28918
 C552 C 0.67221 0.64474 -0.26710
 H553 H 0.65754 0.66143 -0.07023
 H554 H 0.70552 0.71303 -0.11468
 H555 H 0.61015 0.55464 -0.19282
 H556 H 0.68839 0.66826 -0.29178
 C557 C 0.82678 -0.14135 -0.12562
 C558 C 0.80340 -0.17617 -0.14824
 C559 C 0.81782 -0.19221 -0.19526
 C560 C 0.85876 -0.17123 -0.21878
 C561 C 0.87877 -0.13249 -0.19794
 C562 C 0.86468 -0.11890 -0.14927
 C563 C 0.91250 -0.10898 -0.22702
 N564 N 0.93104 -0.12629 -0.26929
 N565 N 0.91799 -0.16539 -0.28469
 C566 C 0.88329 -0.18854 -0.26056
 H567 H 0.81445 -0.13171 -0.08893
 H568 H 0.77230 -0.18953 -0.12853
 H569 H 0.92364 -0.07663 -0.21784
 H570 H 0.87661 -0.22059 -0.27389
 C571 C 0.82191 0.36881 0.36880
 C572 C 0.79620 0.33685 0.34329
 C573 C 0.82003 0.31003 0.30846
 C574 C 0.87158 0.31656 0.29898
 C575 C 0.89873 0.34744 0.32746
 C576 C 0.87303 0.37491 0.36156
 C577 C 0.95109 0.34846 0.32174
 N578 N 0.97367 0.32335 0.28711
 N579 N 0.94775 0.29679 0.25821
 C580 C 0.89776 0.29259 0.26302
 H581 H 0.80125 0.38915 0.39444
 H582 H 0.75683 0.33320 0.35077
 H583 H 0.97496 0.36766 0.34513
 H584 H 0.87945 0.27062 0.23843
 C585 C 0.38813 -0.15105 0.33013
 C586 C 0.36244 -0.18368 0.30518
 C587 C 0.31005 -0.18433 0.30508
 C588 C 0.28284 -0.14983 0.32778
 C589 C 0.30885 -0.11613 0.35222
 C590 C 0.36212 -0.11796 0.35541
 C591 C 0.28034 -0.08109 0.37145
 N592 N 0.22959 -0.08095 0.36814
 N593 N 0.20528 -0.11315 0.34647
 C594 C 0.23007 -0.14746 0.32612
 H595 H 0.42873 -0.15264 0.33133
 H596 H 0.38368 -0.20964 0.28759
 H597 H 0.29755 -0.05316 0.38785
 H598 H 0.20821 -0.17206 0.30805
 C599 C 0.38593 0.35559 -0.17670
 C600 C 0.36134 0.32166 -0.20034
 C601 C 0.31077 0.31406 -0.19141
 C602 C 0.28292 0.34496 -0.16293
 C603 C 0.30750 0.38084 -0.14114
 C604 C 0.36028 0.38432 -0.14518
 C605 C 0.27774 0.41316 -0.11797
 N606 N 0.22763 0.40878 -0.11484
 N607 N 0.20478 0.37481 -0.13419
 C608 C 0.23043 0.34317 -0.15844
 H609 H 0.42584 0.35840 -0.18172
 H610 H 0.38296 0.29939 -0.22309
 H611 H 0.29293 0.44295 -0.10425
 H612 H 0.20890 0.31790 -0.17517
 C613 C 1.17285 -0.12229 0.16309
 C614 C 1.20245 -0.15326 0.18979
 C615 C 1.19730 -0.19779 0.18116
 C616 C 1.16406 -0.21120 0.14243
 C617 C 1.13409 -0.17966 0.11523
 C618 C 1.13787 -0.13510 0.12671
 C619 C 1.10130 -0.19384 0.07721
 N620 N 1.09944 -0.23689 0.06684
 N621 N 1.12814 -0.26653 0.09187
 C622 C 1.16036 -0.25517 0.12919
 H623 H 1.17673 -0.08807 0.17135
 H624 H 1.22821 -0.14243 0.21865
 H625 H 1.07742 -0.17110 0.05550
 H626 H 1.18360 -0.28043 0.14731
 C627 C 1.13499 0.36513 0.68292
 C628 C 1.16528 0.33690 0.71223
 C629 C 1.20353 0.31125 0.69131
 C630 C 1.21215 0.31563 0.63910
 C631 C 1.17920 0.34272 0.60850
 C632 C 1.14095 0.36851 0.63111
 C633 C 1.18483 0.34164 0.55608
 N634 N 1.22297 0.31801 0.53636
 N635 N 1.25558 0.29492 0.56525
 C636 C 1.25146 0.29296 0.61572
 H637 H 1.10651 0.38458 0.70124
 H638 H 1.15798 0.33455 0.75188
 H639 H 1.15879 0.35805 0.53015
 H640 H 1.27892 0.27341 0.63656
 C641 C 0.62940 -0.14557 0.67802
 C642 C 0.65480 -0.17926 0.70420
 C643 C 0.70113 -0.19678 0.68846
 C644 C 0.72107 -0.17886 0.64365
 C645 C 0.69777 -0.14107 0.62006
 C646 C 0.64963 -0.12583 0.63579
 C647 C 0.72406 -0.12049 0.58147
 N648 N 0.76578 -0.13985 0.56300
 N649 N 0.78312 -0.17840 0.58026
 C650 C 0.76167 -0.19878 0.61923
 H651 H 0.59342 -0.13453 0.69172
 H652 H 0.63801 -0.19033 0.73842
 H653 H 0.71349 -0.08882 0.56637
 H654 H 0.77613 -0.23065 0.63004
 C655 C 0.63776 0.36418 0.18117
 C656 C 0.66800 0.33539 0.20988
 C657 C 0.70257 0.30698 0.18751
 C658 C 0.70759 0.30876 0.13473
 C659 C 0.67525 0.33695 0.10504
 C660 C 0.64060 0.36547 0.12887
 C661 C 0.67777 0.33428 0.05242
 N662 N 0.71236 0.30743 0.03151
 N663 N 0.74424 0.28270 0.05950
 C664 C 0.74288 0.28242 0.11023
 H665 H 0.61202 0.38586 0.20023
 H666 H 0.66378 0.33476 0.25019
 H667 H 0.65204 0.35219 0.02742
 H668 H 0.76981 0.26215 0.13078
 C669 C 0.83263 0.15159 0.11423
 C670 C 0.80615 0.17997 0.14471
 C671 C 0.82698 0.19380 0.19022
 C672 C 0.87585 0.17887 0.20501
 C673 C 0.90456 0.15309 0.17199
 C674 C 0.88100 0.13618 0.12819
 C675 C 0.95542 0.14451 0.18505
 N676 N 0.97385 0.15614 0.23057
 N677 N 0.94507 0.17608 0.26375
 C678 C 0.89656 0.18740 0.25271
 H679 H 0.81366 0.13942 0.08117
 H680 H 0.76749 0.18830 0.13454
 H681 H 0.98119 0.12981 0.15934
 H682 H 0.87483 0.20351 0.28107
 C683 C 0.83134 0.65447 0.61497
 C684 C 0.80520 0.68452 0.64394
 C685 C 0.82624 0.70047 0.68849
 C686 C 0.87556 0.68617 0.70321
 C687 C 0.90376 0.65838 0.67157
 C688 C 0.87978 0.63928 0.62925
 C689 C 0.95478 0.65028 0.68438
 N690 N 0.97411 0.66467 0.72836
 N691 N 0.94616 0.68698 0.76027
 C692 C 0.89752 0.69789 0.74942
 H693 H 0.81209 0.64097 0.58284
 H694 H 0.76653 0.69271 0.63341
 H695 H 0.98008 0.63393 0.65951
 H696 H 0.87674 0.71632 0.77664
 C697 C 0.39311 0.15520 0.66323
 C698 C 0.37033 0.18738 0.69206
 C699 C 0.31945 0.19817 0.68537
 C700 C 0.29175 0.17809 0.64635
 C701 C 0.31416 0.14435 0.61769
 C702 C 0.36572 0.13206 0.62715
 C703 C 0.28281 0.12334 0.58254
 N704 N 0.23429 0.13656 0.57541
 N705 N 0.21414 0.16896 0.60125
 C706 C 0.24110 0.18984 0.63647
 H707 H 0.43232 0.14699 0.67092
 H708 H 0.39182 0.20182 0.72216
 H709 H 0.29468 0.09627 0.56060
 H710 H 0.22262 0.21577 0.65610
 C711 C 0.39317 0.64123 0.17952
 C712 C 0.36824 0.67182 0.20845
 C713 C 0.33152 0.70046 0.18714
 C714 C 0.32447 0.70158 0.13413
 C715 C 0.35073 0.67072 0.10430
 C716 C 0.38263 0.63818 0.12794
 C717 C 0.34409 0.67384 0.05182
 N718 N 0.31181 0.70432 0.03102
 N719 N 0.28605 0.73215 0.05900
 C720 C 0.29128 0.73179 0.10967
 H721 H 0.41847 0.61780 0.19857
 H722 H 0.37475 0.67071 0.24872
 H723 H 0.36511 0.65341 0.02685
 H724 H 0.27031 0.75579 0.12989
   
