data_POSCAR
  _audit_creation_date              2014-09-24
  _audit_creation_method            'ToBaCCo'
  _symmetry_space_group_name_H-M    'P1'
  _symmetry_Int_Tables_number       1
  _symmetry_cell_setting            triclinic
  loop_
  _symmetry_equiv_pos_as_xyz
 x,y,z
_cell_length_a 36.1074
_cell_length_b 36.3307
_cell_length_c 36.1780
_cell_angle_alpha 90.175300
_cell_angle_beta 89.451200
_cell_angle_gamma 89.807000
loop_
  _atom_site_label
  _atom_site_type_symbol
  _atom_site_fract_x
  _atom_site_fract_y
  _atom_site_fract_z
N1 N 0.30911 0.23497 0.20826
 N2 N 0.29502 0.26575 0.19537
 C3 C 0.31534 0.27673 0.16598
 C4 C 0.34329 0.25130 0.16018
 C5 C 0.33862 0.22519 0.18740
 H6 H 0.30996 0.30093 0.14954
 H7 H 0.35544 0.20092 0.19166
 Cu8 Cu 0.25038 0.28697 0.21736
 Cu9 Cu 0.28818 0.20975 0.25104
 Cu10 Cu 0.20786 0.24695 0.28965
 N11 N 0.20575 0.30817 0.23934
 N12 N 0.18869 0.29173 0.26699
 C13 C 0.15814 0.31115 0.27626
 C14 C 0.15613 0.34133 0.25329
 C15 C 0.18669 0.33873 0.23024
 H16 H 0.13897 0.30405 0.29822
 H17 H 0.19411 0.35758 0.20833
 N18 N 0.23189 0.20199 0.30862
 N19 N 0.26285 0.18832 0.29438
 C20 C 0.27322 0.15886 0.31435
 C21 C 0.24748 0.15372 0.34222
 C22 C 0.22164 0.18135 0.33785
 H23 H 0.29776 0.14243 0.30923
 H24 H 0.19762 0.18636 0.35524
 H25 H 0.23420 0.22694 0.24287
 H26 H 0.26258 0.25505 0.27514
 N27 N 0.69081 -0.23477 0.20341
 N28 N 0.70481 -0.26551 0.18985
 C29 C 0.68461 -0.27617 0.16060
 C30 C 0.65663 -0.25070 0.15567
 C31 C 0.66134 -0.22475 0.18316
 H32 H 0.68993 -0.30043 0.14400
 H33 H 0.64445 -0.20057 0.18812
 Cu34 Cu 0.74842 -0.28804 0.21158
 Cu35 Cu 0.71145 -0.21041 0.24671
 Cu36 Cu 0.78911 -0.25087 0.28570
 N37 N 0.79204 -0.31057 0.23332
 N38 N 0.80830 -0.29531 0.26190
 C39 C 0.83835 -0.31532 0.27080
 C40 C 0.84076 -0.34479 0.24675
 C41 C 0.81105 -0.34105 0.22328
 H42 H 0.85703 -0.30905 0.29313
 H43 H 0.80419 -0.35889 0.20040
 N44 N 0.76556 -0.20590 0.30578
 N45 N 0.73636 -0.19017 0.29067
 C46 C 0.72710 -0.16003 0.31058
 C47 C 0.75141 -0.15696 0.33959
 C48 C 0.77544 -0.18633 0.33578
 H49 H 0.70421 -0.14176 0.30476
 H50 H 0.79844 -0.19280 0.35354
 H51 H 0.76497 -0.22898 0.23904
 H52 H 0.73450 -0.25689 0.26989
 N53 N 0.69347 0.23760 0.79250
 N54 N 0.71279 0.26200 0.81099
 C55 C 0.69395 0.27158 0.84188
 C56 C 0.66118 0.25212 0.84259
 C57 C 0.66164 0.23090 0.81092
 H58 H 0.70333 0.29116 0.86229
 H59 H 0.64062 0.21165 0.80230
 Cu60 Cu 0.76076 0.27900 0.79329
 Cu61 Cu 0.71192 0.21495 0.74713
 Cu62 Cu 0.79180 0.25174 0.70929
 N63 N 0.80114 0.30411 0.76806
 N64 N 0.81276 0.29386 0.73502
 C65 C 0.84039 0.31625 0.72404
 C66 C 0.84644 0.34161 0.75182
 C67 C 0.82111 0.33323 0.77936
 H68 H 0.85520 0.31410 0.69799
 H69 H 0.81730 0.34740 0.80546
 N70 N 0.76623 0.20906 0.68763
 N71 N 0.73518 0.19565 0.70158
 C72 C 0.72455 0.16667 0.68098
 C73 C 0.75032 0.16149 0.65308
 C74 C 0.77636 0.18873 0.65798
 H75 H 0.70043 0.14987 0.68633
 H76 H 0.80099 0.19312 0.64136
 H77 H 0.76796 0.22476 0.75398
 H78 H 0.74001 0.26219 0.73194
 N79 N 0.30922 -0.23839 0.79422
 N80 N 0.29446 -0.26838 0.80823
 C81 C 0.31416 -0.27872 0.83794
 C82 C 0.34272 -0.25396 0.84249
 C83 C 0.33887 -0.22879 0.81434
 H84 H 0.30829 -0.30240 0.85501
 H85 H 0.35623 -0.20514 0.80912
 Cu86 Cu 0.25085 -0.29092 0.78636
 Cu87 Cu 0.28871 -0.21366 0.75133
 Cu88 Cu 0.20968 -0.25133 0.71337
 N89 N 0.20580 -0.31109 0.76507
 N90 N 0.18950 -0.29493 0.73707
 C91 C 0.15877 -0.31375 0.72825
 C92 C 0.15578 -0.34335 0.75187
 C93 C 0.18605 -0.34105 0.77482
 H94 H 0.14025 -0.30668 0.70604
 H95 H 0.19297 -0.35973 0.79694
 N96 N 0.23411 -0.20732 0.69314
 N97 N 0.26394 -0.19261 0.70788
 C98 C 0.27363 -0.16267 0.68815
 C99 C 0.24889 -0.15871 0.65962
 C100 C 0.22423 -0.18734 0.66351
 H101 H 0.29703 -0.14511 0.69381
 H102 H 0.20075 -0.19298 0.64609
 H103 H 0.23503 -0.23118 0.76022
 H104 H 0.26431 -0.25957 0.72814
 N105 N 0.69129 -0.23532 0.79066
 N106 N 0.70690 -0.26430 0.80576
 C107 C 0.68720 -0.27407 0.83596
 C108 C 0.65761 -0.25018 0.83955
 C109 C 0.66094 -0.22592 0.81047
 H110 H 0.69367 -0.29682 0.85401
 H111 H 0.64292 -0.20291 0.80451
 Cu112 Cu 0.75115 -0.28654 0.78413
 Cu113 Cu 0.71201 -0.21116 0.74722
 Cu114 Cu 0.79146 -0.24985 0.70879
 N115 N 0.79541 -0.30826 0.76197
 N116 N 0.81142 -0.29327 0.73291
 C117 C 0.84175 -0.31296 0.72359
 C118 C 0.84469 -0.34186 0.74803
 C119 C 0.81486 -0.33830 0.77193
 H120 H 0.86007 -0.30693 0.70060
 H121 H 0.80810 -0.35614 0.79488
 N122 N 0.76715 -0.20594 0.68833
 N123 N 0.73721 -0.19084 0.70327
 C124 C 0.72783 -0.16093 0.68349
 C125 C 0.75283 -0.15741 0.65470
 C126 C 0.77736 -0.18625 0.65846
 H127 H 0.70450 -0.14304 0.68934
 H128 H 0.80103 -0.19217 0.64088
 H129 H 0.73699 -0.25741 0.72532
 H130 H 0.76603 -0.22761 0.75551
 N131 N 0.30896 0.23449 0.79534
 N132 N 0.29352 0.26385 0.81033
 C133 C 0.31283 0.27368 0.84042
 C134 C 0.34189 0.24930 0.84418
 C135 C 0.33880 0.22485 0.81517
 H136 H 0.30664 0.29704 0.85803
 H137 H 0.35692 0.20183 0.80903
 Cu138 Cu 0.25033 0.28688 0.78854
 Cu139 Cu 0.28919 0.21090 0.75142
 Cu140 Cu 0.21162 0.25123 0.71242
 N141 N 0.20714 0.30942 0.76623
 N142 N 0.19166 0.29483 0.73690
 C143 C 0.16183 0.31500 0.72773
 C144 C 0.15877 0.34383 0.75243
 C145 C 0.18786 0.33963 0.77650
 H146 H 0.14377 0.30931 0.70475
 H147 H 0.19416 0.35708 0.79985
 N148 N 0.23590 0.20703 0.69179
 N149 N 0.26502 0.19128 0.70699
 C150 C 0.27445 0.16123 0.68707
 C151 C 0.25035 0.15832 0.65793
 C152 C 0.22630 0.18764 0.66161
 H153 H 0.29717 0.14282 0.69312
 H154 H 0.20328 0.19403 0.64383
 H155 H 0.26573 0.25784 0.72948
 H156 H 0.23520 0.22849 0.75900
 N157 N 0.30797 -0.23593 0.20751
 N158 N 0.28973 -0.26163 0.18970
 C159 C 0.30912 -0.27133 0.15917
 C160 C 0.34112 -0.25069 0.15812
 C161 C 0.33960 -0.22853 0.18910
 H162 H 0.30071 -0.29184 0.13924
 H163 H 0.35978 -0.20826 0.19736
 Cu164 Cu 0.24253 -0.28019 0.20789
 Cu165 Cu 0.28897 -0.21317 0.25251
 Cu166 Cu 0.21189 -0.25340 0.29224
 N167 N 0.20241 -0.30549 0.23337
 N168 N 0.19134 -0.29559 0.26669
 C169 C 0.16364 -0.31775 0.27777
 C170 C 0.15694 -0.34265 0.24983
 C171 C 0.18188 -0.33421 0.22201
 H172 H 0.14894 -0.31547 0.30386
 H173 H 0.18481 -0.34798 0.19560
 N174 N 0.23645 -0.21025 0.31365
 N175 N 0.26543 -0.19436 0.29802
 C176 C 0.27469 -0.16452 0.31803
 C177 C 0.25051 -0.16182 0.34760
 C178 C 0.22666 -0.19112 0.34415
 H179 H 0.29713 -0.14592 0.31153
 H180 H 0.20342 -0.19744 0.36207
 H181 H 0.26373 -0.26153 0.26859
 H182 H 0.23341 -0.22585 0.24674
 N183 N 0.69016 0.23733 0.20560
 N184 N 0.70625 0.26624 0.19081
 C185 C 0.68719 0.27664 0.16076
 C186 C 0.65762 0.25310 0.15685
 C187 C 0.66014 0.22855 0.18569
 H188 H 0.69401 0.29970 0.14318
 H189 H 0.64168 0.20587 0.19148
 Cu190 Cu 0.75004 0.28790 0.21260
 Cu191 Cu 0.70978 0.21276 0.24893
 Cu192 Cu 0.78761 0.25130 0.28892
 N193 N 0.79284 0.30984 0.23599
 N194 N 0.80785 0.29509 0.26545
 C195 C 0.83749 0.31513 0.27528
 C196 C 0.84085 0.34404 0.25088
 C197 C 0.81219 0.33999 0.22633
 H198 H 0.85526 0.30924 0.29844
 H199 H 0.80625 0.35746 0.20297
 N200 N 0.76300 0.20702 0.30848
 N201 N 0.73377 0.19201 0.29285
 C202 C 0.72401 0.16176 0.31199
 C203 C 0.74806 0.15786 0.34105
 C204 C 0.77234 0.18691 0.33821
 H205 H 0.70102 0.14397 0.30549
 H206 H 0.79525 0.19265 0.35635
 H207 H 0.73392 0.25911 0.27130
 H208 H 0.76425 0.22910 0.24184
 O209 O 0.27866 0.03339 0.46480
 O210 O 0.27916 -0.03662 0.53823
 O211 O 0.27893 -0.03816 0.46671
 O212 O 0.27939 0.03524 0.53681
 O213 O 0.21817 0.03478 0.53866
 O214 O 0.21769 -0.03696 0.46680
 O215 O 0.21793 -0.03651 0.53890
 O216 O 0.21746 0.03471 0.46683
 Cu217 Cu 0.28523 -0.00148 0.50156
 Cu218 Cu 0.21162 -0.00099 0.50285
 C219 C 0.24798 0.04604 0.45352
 C220 C 0.24858 -0.04854 0.55086
 C221 C 0.24823 -0.04987 0.45479
 C222 C 0.24889 0.04725 0.54979
 O223 O 0.71952 0.03534 0.53539
 O224 O 0.72029 -0.03575 0.46252
 O225 O 0.72112 -0.03631 0.53419
 O226 O 0.71866 0.03611 0.46347
 O227 O 0.77988 0.03642 0.46113
 O228 O 0.78231 -0.03404 0.53383
 O229 O 0.78151 -0.03484 0.46155
 O230 O 0.78066 0.03775 0.53277
 Cu231 Cu 0.71371 -0.00026 0.49902
 Cu232 Cu 0.78728 0.00135 0.49728
 C233 C 0.74997 0.04882 0.54616
 C234 C 0.75104 -0.04737 0.44975
 C235 C 0.75215 -0.04727 0.54614
 C236 C 0.74884 0.04839 0.45022
 O237 O 0.46321 0.28373 0.03501
 O238 O 0.53655 0.28400 -0.03630
 O239 O 0.46477 0.28263 -0.03683
 O240 O 0.53524 0.28440 0.03580
 O241 O 0.53742 0.22356 0.03516
 O242 O 0.46480 0.22179 -0.03524
 O243 O 0.53708 0.22314 -0.03646
 O244 O 0.46559 0.22293 0.03674
 Cu245 Cu 0.49986 0.28986 -0.00062
 Cu246 Cu 0.50128 0.21670 0.00003
 C247 C 0.45218 0.25329 0.04815
 C248 C 0.54911 0.25364 -0.04857
 C249 C 0.45268 0.25190 -0.04813
 C250 C 0.54838 0.25426 0.04762
 O251 O 0.53690 0.71873 0.03559
 O252 O 0.46526 0.71748 -0.03610
 O253 O 0.53706 0.71882 -0.03642
 O254 O 0.46477 0.71803 0.03604
 O255 O 0.46332 0.77887 0.03551
 O256 O 0.53636 0.77968 -0.03581
 O257 O 0.46414 0.77832 -0.03616
 O258 O 0.53530 0.77957 0.03625
 Cu259 Cu 0.50111 0.71212 -0.00018
 Cu260 Cu 0.49973 0.78525 -0.00007
 C261 C 0.54811 0.74932 0.04820
 C262 C 0.45263 0.74766 -0.04835
 C263 C 0.54893 0.74943 -0.04836
 C264 C 0.45172 0.74837 0.04791
 O265 O 0.03483 0.46598 0.28111
 O266 O -0.03826 0.53671 0.27801
 O267 O -0.03740 0.46545 0.27979
 O268 O 0.03374 0.53760 0.27885
 O269 O 0.03642 0.53474 0.21782
 O270 O -0.03608 0.46398 0.21868
 O271 O -0.03578 0.53579 0.21692
 O272 O 0.03564 0.46324 0.22004
 Cu273 Cu -0.00188 0.50162 0.28561
 Cu274 Cu 0.00018 0.49931 0.21218
 C275 C 0.04743 0.45245 0.25112
 C276 C -0.04931 0.54833 0.24696
 C277 C -0.04888 0.45260 0.24935
 C278 C 0.04729 0.54821 0.24821
 O279 O 0.03633 0.53599 0.72098
 O280 O -0.03460 0.46345 0.72043
 O281 O -0.03586 0.53533 0.71950
 O282 O 0.03726 0.46478 0.72170
 O283 O 0.03456 0.46485 0.78280
 O284 O -0.03697 0.53713 0.78059
 O285 O -0.03749 0.46547 0.78147
 O286 O 0.03491 0.53669 0.78209
 Cu287 Cu 0.00085 0.49985 0.71448
 Cu288 Cu -0.00144 0.50111 0.78792
 C289 C 0.04782 0.54845 0.75160
 C290 C -0.04803 0.45214 0.75087
 C291 C -0.04857 0.54840 0.74963
 C292 C 0.04814 0.45274 0.75263
 C293 C 0.38953 0.22718 0.07815
 C294 C 0.39693 0.21883 0.11939
 C295 C 0.37218 0.25173 0.13033
 C296 C 0.36443 0.26004 0.08946
 C297 C 0.40573 0.27766 0.12985
 C298 C 0.43085 0.24476 0.11854
 C299 C 0.42311 0.25309 0.07770
 C300 C 0.39838 0.28600 0.08861
 H301 H 0.38313 0.20644 0.05656
 H302 H 0.39621 0.19108 0.13214
 H303 H 0.33681 0.26630 0.07777
 H304 H 0.41208 0.29842 0.15145
 H305 H 0.45849 0.23853 0.13023
 H306 H 0.39921 0.31366 0.07566
 C307 C 0.61885 0.74756 0.06915
 C308 C 0.62527 0.77849 0.09797
 C309 C 0.62888 0.74907 0.12819
 C310 C 0.62287 0.71813 0.09975
 C311 C 0.58707 0.75112 0.13650
 C312 C 0.58306 0.78053 0.10585
 C313 C 0.57705 0.74961 0.07739
 C314 C 0.58068 0.72022 0.10768
 H315 H 0.63161 0.74616 0.04113
 H316 H 0.64392 0.80246 0.09424
 H317 H 0.63930 0.69235 0.09725
 H318 H 0.57423 0.75256 0.16448
 H319 H 0.56640 0.80620 0.10816
 H320 H 0.56198 0.69630 0.11146
 C321 C 0.61841 0.23976 -0.07119
 C322 C 0.61685 0.21862 -0.10836
 C323 C 0.63160 0.25300 -0.12828
 C324 C 0.63355 0.27415 -0.09146
 C325 C 0.59192 0.26691 -0.13465
 C326 C 0.57678 0.23256 -0.11437
 C327 C 0.57875 0.25370 -0.07756
 C328 C 0.59349 0.28809 -0.09747
 H329 H 0.62896 0.22857 -0.04477
 H330 H 0.62681 0.19003 -0.11312
 H331 H 0.65713 0.29124 -0.08213
 H332 H 0.58137 0.27807 -0.16109
 H333 H 0.55314 0.21546 -0.12353
 H334 H 0.58359 0.31671 -0.09282
 C335 C 0.41549 0.71404 -0.10280
 C336 C 0.37353 0.71946 -0.09530
 C337 C 0.37176 0.74600 -0.12829
 C338 C 0.41335 0.74059 -0.13615
 C339 C 0.37985 0.77900 -0.10293
 C340 C 0.38200 0.75249 -0.06958
 C341 C 0.42358 0.74706 -0.07744
 C342 C 0.42182 0.77358 -0.11043
 H343 H 0.43049 0.68732 -0.10259
 H344 H 0.35351 0.69714 -0.08918
 H345 H 0.42600 0.73566 -0.16382
 H346 H 0.36483 0.80571 -0.10324
 H347 H 0.36939 0.75743 -0.04189
 H348 H 0.44192 0.79589 -0.11643
 C349 C 0.09745 0.41088 0.28696
 C350 C 0.09089 0.37022 0.27597
 C351 C 0.12709 0.37074 0.25320
 C352 C 0.13402 0.41104 0.26419
 C353 C 0.10606 0.38301 0.21856
 C354 C 0.06952 0.38285 0.24129
 C355 C 0.07643 0.42313 0.25230
 C356 C 0.11262 0.42369 0.22956
 H357 H 0.09379 0.42260 0.31514
 H358 H 0.08196 0.34806 0.29510
 H359 H 0.16088 0.42234 0.27358
 H360 H 0.10989 0.37127 0.19041
 H361 H 0.04266 0.37155 0.23189
 H362 H 0.12128 0.44603 0.21051
 C363 C 0.07031 0.61744 0.76444
 C364 C 0.10687 0.61593 0.78648
 C365 C 0.12800 0.62915 0.75191
 C366 C 0.09181 0.63111 0.72987
 C367 C 0.13466 0.58924 0.73925
 C368 C 0.11310 0.57556 0.77376
 C369 C 0.07693 0.57752 0.75173
 C370 C 0.09811 0.59082 0.71720
 H371 H 0.04354 0.62877 0.77478
 H372 H 0.11079 0.62650 0.81499
 H373 H 0.08290 0.65405 0.71177
 H374 H 0.16140 0.57785 0.72890
 H375 H 0.12152 0.55239 0.79180
 H376 H 0.09432 0.58030 0.68864
 C377 C -0.09166 0.59815 0.21155
 C378 C -0.13247 0.59166 0.22338
 C379 C -0.13149 0.62751 0.24609
 C380 C -0.09111 0.63441 0.23425
 C381 C -0.11874 0.60644 0.28053
 C382 C -0.11927 0.57023 0.25785
 C383 C -0.07888 0.57709 0.24600
 C384 C -0.07796 0.61296 0.26866
 H385 H -0.08022 0.59455 0.18316
 H386 H -0.15512 0.58292 0.20480
 H387 H -0.07982 0.66112 0.22455
 H388 H -0.13014 0.61003 0.30892
 H389 H -0.13049 0.54350 0.26756
 H390 H -0.05523 0.62149 0.28725
 C391 C -0.07487 0.38817 0.77553
 C392 C -0.11635 0.39373 0.78553
 C393 C -0.12675 0.37002 0.75190
 C394 C -0.08566 0.36407 0.74196
 C395 C -0.12845 0.40428 0.72714
 C396 C -0.11763 0.42841 0.76076
 C397 C -0.07655 0.42249 0.75081
 C398 C -0.08698 0.39877 0.71720
 H399 H -0.05250 0.38182 0.79538
 H400 H -0.12849 0.39158 0.81374
 H401 H -0.07270 0.33733 0.73427
 H402 H -0.15081 0.41066 0.70727
 H403 H -0.13047 0.45521 0.76842
 H404 H -0.07469 0.40100 0.68905
 C405 C 0.21560 0.10137 0.41657
 C406 C 0.24377 0.13327 0.41319
 C407 C 0.24791 0.12494 0.37166
 C408 C 0.21975 0.09342 0.37467
 C409 C 0.28011 0.09821 0.37911
 C410 C 0.27594 0.10621 0.42103
 C411 C 0.24780 0.07466 0.42402
 C412 C 0.25196 0.06631 0.38251
 H413 H 0.18902 0.10247 0.43224
 H414 H 0.24039 0.16111 0.42553
 H415 H 0.19665 0.08844 0.35527
 H416 H 0.30674 0.09701 0.36355
 H417 H 0.29906 0.11123 0.44040
 H418 H 0.25529 0.03846 0.37017
 C419 C 0.75614 0.11940 0.56602
 C420 C 0.72338 0.12957 0.59213
 C421 C 0.75048 0.13161 0.62458
 C422 C 0.78324 0.12180 0.59884
 C423 C 0.74415 0.09069 0.63333
 C424 C 0.71703 0.08829 0.60050
 C425 C 0.74979 0.07850 0.57477
 C426 C 0.77688 0.08051 0.60726
 H427 H 0.76103 0.13092 0.53800
 H428 H 0.70138 0.15008 0.58617
 H429 H 0.81054 0.13574 0.59830
 H430 H 0.73923 0.07916 0.66134
 H431 H 0.68977 0.07425 0.60101
 H432 H 0.79888 0.06002 0.61327
 C433 C 0.25773 -0.11820 0.57237
 C434 C 0.28261 -0.11867 0.60698
 C435 C 0.24879 -0.12946 0.63067
 C436 C 0.22389 -0.12936 0.59640
 C437 C 0.23975 -0.08875 0.63831
 C438 C 0.27355 -0.07755 0.61424
 C439 C 0.24865 -0.07750 0.57999
 C440 C 0.21483 -0.08831 0.60369
 H441 H 0.26512 -0.13002 0.54493
 H442 H 0.31050 -0.13148 0.60862
 H443 H 0.20341 -0.15082 0.58907
 H444 H 0.23237 -0.07694 0.66575
 H445 H 0.29399 -0.05596 0.62133
 H446 H 0.18690 -0.07556 0.60220
 C447 C 0.72672 -0.07599 0.38600
 C448 C 0.76066 -0.08726 0.36202
 C449 C 0.75152 -0.12796 0.36902
 C450 C 0.71756 -0.11707 0.39264
 C451 C 0.77617 -0.12832 0.40348
 C452 C 0.78533 -0.08727 0.39682
 C453 C 0.75136 -0.07637 0.42044
 C454 C 0.74218 -0.11705 0.42744
 H455 H 0.70634 -0.05419 0.37909
 H456 H 0.76823 -0.07528 0.33481
 H457 H 0.68966 -0.12961 0.39070
 H458 H 0.79656 -0.15000 0.41066
 H459 H 0.81326 -0.07478 0.39868
 H460 H 0.73459 -0.12899 0.45467
 C461 C 0.61509 0.72919 -0.07607
 C462 C 0.60918 0.71517 -0.11605
 C463 C 0.62858 0.74983 -0.13080
 C464 C 0.63487 0.76382 -0.09123
 C465 C 0.59139 0.77046 -0.13264
 C466 C 0.57164 0.73579 -0.11750
 C467 C 0.57792 0.74981 -0.07794
 C468 C 0.59731 0.78448 -0.09270
 H469 H 0.62459 0.71229 -0.05246
 H470 H 0.61436 0.68667 -0.12597
 H471 H 0.66119 0.77537 -0.08076
 H472 H 0.58169 0.78739 -0.15613
 H473 H 0.54530 0.72428 -0.12799
 H474 H 0.59227 0.81304 -0.08288
 C475 C 0.42442 0.22687 -0.11173
 C476 C 0.38346 0.21636 -0.10437
 C477 C 0.37120 0.24988 -0.12708
 C478 C 0.41174 0.26035 -0.13482
 C479 C 0.37032 0.27417 -0.09220
 C480 C 0.38297 0.24065 -0.06914
 C481 C 0.42348 0.25116 -0.07688
 C482 C 0.41120 0.28467 -0.09960
 H483 H 0.44700 0.20744 -0.11949
 H484 H 0.37171 0.18827 -0.10661
 H485 H 0.42326 0.26843 -0.16215
 H486 H 0.34784 0.29362 -0.08425
 H487 H 0.37149 0.23255 -0.04179
 H488 H 0.42290 0.31281 -0.09749
 C489 C 0.38560 0.72714 0.07478
 C490 C 0.39100 0.71400 0.11510
 C491 C 0.37064 0.74871 0.12896
 C492 C 0.36485 0.76181 0.08907
 C493 C 0.40740 0.76986 0.13119
 C494 C 0.42812 0.73515 0.11694
 C495 C 0.42231 0.74829 0.07708
 C496 C 0.40193 0.78298 0.09098
 H497 H 0.37697 0.70960 0.05122
 H498 H 0.38613 0.68565 0.12537
 H499 H 0.33852 0.77279 0.07788
 H500 H 0.41639 0.78747 0.15453
 H501 H 0.45447 0.72423 0.12815
 H502 H 0.40662 0.81142 0.08086
 C503 C 0.61772 0.24303 0.06981
 C504 C 0.63060 0.27703 0.09212
 C505 C 0.62879 0.25393 0.12764
 C506 C 0.61630 0.21996 0.10568
 C507 C 0.58834 0.26559 0.13449
 C508 C 0.58977 0.28871 0.09858
 C509 C 0.57729 0.25471 0.07665
 C510 C 0.57547 0.23164 0.11217
 H511 H 0.62944 0.23377 0.04285
 H512 H 0.65355 0.29567 0.08402
 H513 H 0.62751 0.19168 0.10887
 H514 H 0.57657 0.27486 0.16142
 H515 H 0.57856 0.31700 0.09545
 H516 H 0.55246 0.21301 0.12015
 C517 C -0.09606 0.59253 0.71372
 C518 C -0.13405 0.59091 0.73395
 C519 C -0.12785 0.63026 0.74823
 C520 C -0.09025 0.63230 0.72800
 C521 C -0.10922 0.61556 0.78327
 C522 C -0.11500 0.57577 0.76897
 C523 C -0.07742 0.57778 0.74876
 C524 C -0.07127 0.61715 0.76306
 H525 H -0.09044 0.58284 0.68509
 H526 H -0.16015 0.58039 0.72194
 H527 H -0.08002 0.65573 0.71120
 H528 H -0.11492 0.62530 0.81188
 H529 H -0.12489 0.55218 0.78575
 H530 H -0.04514 0.62762 0.77504
 C531 C -0.07663 0.38837 0.27281
 C532 C -0.11749 0.39490 0.28463
 C533 C -0.13002 0.37307 0.25052
 C534 C -0.08958 0.36617 0.23873
 C535 C -0.13142 0.40847 0.22735
 C536 C -0.11848 0.43066 0.26147
 C537 C -0.07806 0.42374 0.24965
 C538 C -0.09062 0.40192 0.21554
 H539 H -0.05375 0.38040 0.29148
 H540 H -0.12887 0.39174 0.31306
 H541 H -0.07800 0.33934 0.22936
 H542 H -0.15422 0.41663 0.20867
 H543 H -0.13002 0.45753 0.27080
 H544 H -0.07931 0.40502 0.18708
 C545 C 0.08918 0.40169 0.78742
 C546 C 0.08896 0.36616 0.76362
 C547 C 0.12967 0.37306 0.75305
 C548 C 0.13028 0.40821 0.77683
 C549 C 0.11797 0.39526 0.71897
 C550 C 0.07688 0.38871 0.72955
 C551 C 0.07749 0.42386 0.75331
 C552 C 0.11819 0.43076 0.74271
 H553 H 0.07705 0.40453 0.81559
 H554 H 0.07726 0.33926 0.77220
 H555 H 0.15252 0.41610 0.79625
 H556 H 0.13014 0.39235 0.69081
 H557 H 0.05460 0.38094 0.71011
 H558 H 0.12990 0.45765 0.73412
 C559 C 0.06966 0.61728 0.25952
 C560 C 0.10509 0.61594 0.28322
 C561 C 0.12792 0.62822 0.24934
 C562 C 0.09285 0.62993 0.22564
 C563 C 0.13476 0.58797 0.23791
 C564 C 0.11158 0.57532 0.27175
 C565 C 0.07649 0.57704 0.24808
 C566 C 0.09928 0.58930 0.21419
 H567 H 0.04254 0.62901 0.26836
 H568 H 0.10760 0.62698 0.31173
 H569 H 0.08544 0.65272 0.20669
 H570 H 0.16186 0.57624 0.22904
 H571 H 0.11898 0.55253 0.29071
 H572 H 0.09662 0.57807 0.18576
 C573 C 0.74361 -0.11696 0.56767
 C574 C 0.77768 -0.12854 0.59065
 C575 C 0.75318 -0.12831 0.62567
 C576 C 0.71916 -0.11712 0.60303
 C577 C 0.76254 -0.08773 0.63302
 C578 C 0.78705 -0.08758 0.59763
 C579 C 0.75300 -0.07639 0.57502
 C580 C 0.72853 -0.07616 0.61003
 H581 H 0.73583 -0.12870 0.54049
 H582 H 0.79789 -0.15030 0.58273
 H583 H 0.69123 -0.12955 0.60550
 H584 H 0.77028 -0.07599 0.66020
 H585 H 0.81500 -0.07516 0.59524
 H586 H 0.70830 -0.05433 0.61775
 C587 C 0.21439 -0.09210 0.40415
 C588 C 0.23860 -0.09220 0.36858
 C589 C 0.24950 -0.13234 0.37635
 C590 C 0.22530 -0.13263 0.41155
 C591 C 0.28329 -0.11976 0.39852
 C592 C 0.27238 -0.07922 0.39111
 C593 C 0.24821 -0.07952 0.42631
 C594 C 0.25912 -0.11965 0.43408
 H595 H 0.18602 -0.08046 0.40662
 H596 H 0.23020 -0.08122 0.34132
 H597 H 0.20594 -0.15483 0.41986
 H598 H 0.31162 -0.13145 0.39592
 H599 H 0.29172 -0.05693 0.38298
 H600 H 0.26754 -0.13063 0.46134
 C601 C 0.71339 0.09874 0.40899
 C602 C 0.73600 0.13488 0.41026
 C603 C 0.74784 0.12852 0.36982
 C604 C 0.72524 0.09275 0.36817
 C605 C 0.78241 0.10717 0.38208
 C606 C 0.77056 0.11317 0.42291
 C607 C 0.74799 0.07741 0.42125
 C608 C 0.75985 0.07104 0.38083
 H609 H 0.68497 0.09505 0.42032
 H610 H 0.72620 0.16147 0.42206
 H611 H 0.70659 0.08443 0.34543
 H612 H 0.81082 0.11095 0.37073
 H613 H 0.78917 0.12128 0.44576
 H614 H 0.76965 0.04445 0.36904
 C615 C 0.26110 0.11655 0.57124
 C616 C 0.22685 0.13023 0.59350
 C617 C 0.24992 0.12900 0.62900
 C618 C 0.28416 0.11572 0.60710
 C619 C 0.23801 0.08908 0.63628
 C620 C 0.21491 0.08996 0.60044
 C621 C 0.24915 0.07666 0.57853
 C622 C 0.27221 0.07539 0.61401
 H623 H 0.27059 0.12753 0.54416
 H624 H 0.20818 0.15301 0.58515
 H625 H 0.31266 0.12662 0.61016
 H626 H 0.22851 0.07811 0.66335
 H627 H 0.18638 0.07911 0.59751
 H628 H 0.29085 0.05248 0.62213
   
