data_POSCAR
  _audit_creation_date              2014-09-24
  _audit_creation_method            'ToBaCCo'
  _symmetry_space_group_name_H-M    'P1'
  _symmetry_Int_Tables_number       1
  _symmetry_cell_setting            triclinic
  loop_
  _symmetry_equiv_pos_as_xyz
 x,y,z
_cell_length_a 35.6894
_cell_length_b 35.6894
_cell_length_c 35.6894
_cell_angle_alpha 89.998000
_cell_angle_beta 89.990500
_cell_angle_gamma 89.999800
loop_
  _atom_site_label
  _atom_site_type_symbol
  _atom_site_fract_x
  _atom_site_fract_y
  _atom_site_fract_z
Zn1 Zn 0.77969 0.72045 0.77963
 Zn2 Zn 0.77970 0.77973 0.72037
 Zn3 Zn 0.72044 0.72046 0.72036
 Zn4 Zn 0.72042 0.77971 0.77964
 O5 O 0.75006 0.75009 0.75000
 O6 O 0.82871 0.72812 0.77195
 O7 O 0.77204 0.77207 0.67136
 O8 O 0.72810 0.67145 0.72802
 O9 O 0.82871 0.77206 0.72805
 O10 O 0.77202 0.67143 0.77194
 O11 O 0.72812 0.72814 0.67135
 O12 O 0.67141 0.77204 0.77196
 O13 O 0.77202 0.82874 0.72806
 O14 O 0.67142 0.72814 0.72803
 O15 O 0.72810 0.82873 0.77198
 O16 O 0.72809 0.77202 0.82865
 O17 O 0.77201 0.72810 0.82864
 C18 C 0.84593 0.75009 0.75000
 C19 C 0.75009 0.75010 0.65413
 C20 C 0.75006 0.65422 0.74998
 C21 C 0.65419 0.75009 0.75000
 C22 C 0.75006 0.84596 0.75002
 C23 C 0.75004 0.75006 0.84587
 Zn24 Zn 0.22043 0.72049 0.72041
 Zn25 Zn 0.22041 0.77970 0.77960
 Zn26 Zn 0.27970 0.72050 0.77961
 Zn27 Zn 0.27971 0.77969 0.72040
 O28 O 0.25006 0.75009 0.75000
 O29 O 0.17144 0.72818 0.72811
 O30 O 0.22806 0.77204 0.82862
 O31 O 0.27206 0.67148 0.77195
 O32 O 0.17142 0.77199 0.77189
 O33 O 0.22809 0.67147 0.72809
 O34 O 0.27203 0.72817 0.82863
 O35 O 0.32870 0.77199 0.72810
 O36 O 0.22807 0.82872 0.77191
 O37 O 0.32870 0.72821 0.77191
 O38 O 0.27205 0.82871 0.72805
 O39 O 0.27206 0.77201 0.67137
 O40 O 0.22809 0.72815 0.67139
 C41 C 0.15393 0.75009 0.75000
 C42 C 0.25004 0.75010 0.84585
 C43 C 0.25008 0.65424 0.75002
 C44 C 0.34620 0.75010 0.75001
 C45 C 0.25005 0.84594 0.74998
 C46 C 0.25008 0.75008 0.65415
 Zn47 Zn 0.72046 0.22045 0.77961
 Zn48 Zn 0.77966 0.22044 0.72040
 Zn49 Zn 0.72046 0.27973 0.72040
 Zn50 Zn 0.77966 0.27974 0.77959
 O51 O 0.75006 0.25009 0.75000
 O52 O 0.72817 0.17146 0.77192
 O53 O 0.77199 0.22809 0.67138
 O54 O 0.67144 0.27207 0.72808
 O55 O 0.77197 0.17145 0.72812
 O56 O 0.67144 0.22810 0.77195
 O57 O 0.72813 0.27206 0.67138
 O58 O 0.77196 0.32873 0.77188
 O59 O 0.82869 0.22810 0.72806
 O60 O 0.72817 0.32872 0.72809
 O61 O 0.82869 0.27208 0.77192
 O62 O 0.77199 0.27209 0.82862
 O63 O 0.72813 0.22811 0.82863
 C64 C 0.75007 0.15395 0.75002
 C65 C 0.75006 0.25007 0.65415
 C66 C 0.65421 0.25009 0.75001
 C67 C 0.75006 0.34623 0.74998
 C68 C 0.84591 0.25009 0.74999
 C69 C 0.75006 0.25010 0.84585
 Zn70 Zn 0.27968 0.22050 0.72043
 Zn71 Zn 0.22045 0.22048 0.77956
 Zn72 Zn 0.27967 0.27970 0.77959
 Zn73 Zn 0.22046 0.27971 0.72044
 O74 O 0.25007 0.25010 0.75001
 O75 O 0.27201 0.17149 0.72813
 O76 O 0.22809 0.22811 0.82860
 O77 O 0.32867 0.27202 0.77189
 O78 O 0.22814 0.17148 0.77186
 O79 O 0.32868 0.22819 0.72813
 O80 O 0.27200 0.27203 0.82862
 O81 O 0.22815 0.32871 0.72815
 O82 O 0.17145 0.22816 0.77187
 O83 O 0.27199 0.32870 0.77190
 O84 O 0.17146 0.27204 0.72815
 O85 O 0.22811 0.27206 0.67141
 O86 O 0.27203 0.22815 0.67140
 C87 C 0.25008 0.15398 0.74999
 C88 C 0.25004 0.25007 0.84584
 C89 C 0.34618 0.25011 0.75001
 C90 C 0.25007 0.34621 0.75003
 C91 C 0.15395 0.25010 0.75001
 C92 C 0.25007 0.25010 0.65418
 Zn93 Zn 0.72033 0.72037 0.22036
 Zn94 Zn 0.77953 0.77956 0.22036
 Zn95 Zn 0.72033 0.77956 0.27965
 Zn96 Zn 0.77953 0.72035 0.27963
 O97 O 0.74993 0.74996 0.25000
 O98 O 0.72803 0.72808 0.17136
 O99 O 0.77186 0.82858 0.22802
 O100 O 0.67131 0.77188 0.27201
 O101 O 0.77183 0.77188 0.17136
 O102 O 0.67131 0.72803 0.22803
 O103 O 0.72799 0.82858 0.27199
 O104 O 0.77184 0.72806 0.32863
 O105 O 0.82855 0.77189 0.22800
 O106 O 0.72805 0.77186 0.32864
 O107 O 0.82855 0.72802 0.27196
 O108 O 0.77185 0.67133 0.27198
 O109 O 0.72800 0.67134 0.22800
 C110 C 0.74992 0.74998 0.15386
 C111 C 0.74993 0.84581 0.25000
 C112 C 0.65408 0.74996 0.25002
 C113 C 0.74996 0.74996 0.34614
 C114 C 0.84578 0.74995 0.24998
 C115 C 0.74992 0.65411 0.24999
 Zn116 Zn 0.27954 0.77955 0.22040
 Zn117 Zn 0.22032 0.72042 0.22039
 Zn118 Zn 0.27953 0.72040 0.27960
 Zn119 Zn 0.22032 0.77954 0.27962
 O120 O 0.24993 0.74998 0.25000
 O121 O 0.27187 0.77186 0.17140
 O122 O 0.22797 0.67139 0.22803
 O123 O 0.32853 0.72809 0.27191
 O124 O 0.22801 0.72813 0.17139
 O125 O 0.32854 0.77185 0.22808
 O126 O 0.27187 0.67137 0.27195
 O127 O 0.22801 0.77185 0.32862
 O128 O 0.17132 0.72812 0.22808
 O129 O 0.27186 0.72810 0.32860
 O130 O 0.17132 0.77184 0.27195
 O131 O 0.22796 0.82857 0.27196
 O132 O 0.27189 0.82858 0.22805
 C133 C 0.24994 0.75000 0.15389
 C134 C 0.24992 0.65415 0.24999
 C135 C 0.34604 0.74997 0.25000
 C136 C 0.24994 0.74997 0.34612
 C137 C 0.15381 0.74998 0.25001
 C138 C 0.24992 0.84581 0.25000
 Zn139 Zn 0.72038 0.27956 0.22040
 Zn140 Zn 0.77951 0.22034 0.22038
 Zn141 Zn 0.77953 0.27957 0.27959
 Zn142 Zn 0.72039 0.22035 0.27963
 O143 O 0.74995 0.24996 0.25000
 O144 O 0.72807 0.27189 0.17140
 O145 O 0.82854 0.22799 0.22801
 O146 O 0.77184 0.32857 0.27190
 O147 O 0.77180 0.22802 0.17139
 O148 O 0.72808 0.32857 0.22808
 O149 O 0.82856 0.27191 0.27192
 O150 O 0.72810 0.22805 0.32863
 O151 O 0.77181 0.17134 0.22808
 O152 O 0.77185 0.27190 0.32859
 O153 O 0.72809 0.17135 0.27196
 O154 O 0.67135 0.22800 0.27199
 O155 O 0.67135 0.27191 0.22806
 C156 C 0.74994 0.24996 0.15389
 C157 C 0.84578 0.24994 0.24996
 C158 C 0.74996 0.34607 0.24999
 C159 C 0.74998 0.24998 0.34612
 C160 C 0.74995 0.15384 0.25002
 C161 C 0.65412 0.24995 0.25003
 Zn162 Zn 0.22037 0.27955 0.22044
 Zn163 Zn 0.27952 0.22040 0.22043
 Zn164 Zn 0.27953 0.27955 0.27957
 Zn165 Zn 0.22037 0.22040 0.27959
 O166 O 0.24995 0.24998 0.25001
 O167 O 0.22806 0.27189 0.17143
 O168 O 0.32853 0.22806 0.22810
 O169 O 0.27185 0.32856 0.27190
 O170 O 0.27185 0.22809 0.17142
 O171 O 0.22804 0.32856 0.22812
 O172 O 0.32853 0.27187 0.27189
 O173 O 0.22806 0.22808 0.32860
 O174 O 0.27183 0.17139 0.22810
 O175 O 0.27185 0.27187 0.32858
 O176 O 0.22804 0.17139 0.27191
 O177 O 0.17136 0.22808 0.27192
 O178 O 0.17136 0.27187 0.22812
 C179 C 0.24996 0.24999 0.15392
 C180 C 0.34604 0.24997 0.24999
 C181 C 0.24994 0.34607 0.25001
 C182 C 0.24996 0.24997 0.34610
 C183 C 0.24994 0.15388 0.25001
 C184 C 0.15385 0.24997 0.25002
 C185 C 0.05317 0.77408 0.77396
 C186 C 0.03352 0.75007 0.74999
 C187 C 0.05319 0.72607 0.72602
 C188 C 0.09236 0.72604 0.72600
 C189 C -0.11388 0.75009 0.74999
 C190 C 0.09234 0.77411 0.77399
 C191 C -0.00680 0.75006 0.74999
 C192 C -0.04057 0.75007 0.74998
 C193 C -0.08011 0.75008 0.74998
 C194 C 0.11241 0.75008 0.75000
 H195 H 0.03821 0.79277 0.79263
 H196 H 0.03825 0.70737 0.70735
 H197 H 0.10692 0.70720 0.70718
 H198 H 0.10688 0.79296 0.79281
 C199 C 0.77407 0.05320 0.72606
 C200 C 0.75006 0.03355 0.75004
 C201 C 0.72606 0.05321 0.77401
 C202 C 0.72603 0.09238 0.77404
 C203 C 0.75005 -0.11385 0.75002
 C204 C 0.77410 0.09238 0.72603
 C205 C 0.75005 -0.00678 0.75002
 C206 C 0.75004 -0.04055 0.75003
 C207 C 0.75004 -0.08009 0.75001
 C208 C 0.75007 0.11243 0.75003
 H209 H 0.79276 0.03825 0.70739
 H210 H 0.70736 0.03826 0.79268
 H211 H 0.70719 0.10693 0.79285
 H212 H 0.79294 0.10692 0.70721
 C213 C 0.72593 0.72603 0.05311
 C214 C 0.74993 0.75001 0.03346
 C215 C 0.77392 0.77399 0.05311
 C216 C 0.77395 0.77401 0.09229
 C217 C 0.75002 0.75004 -0.11394
 C218 C 0.72589 0.72600 0.09229
 C219 C 0.74995 0.75000 -0.00687
 C220 C 0.74997 0.74999 -0.04064
 C221 C 0.74999 0.75001 -0.08017
 C222 C 0.74992 0.75000 0.11234
 H223 H 0.70724 0.70736 0.03816
 H224 H 0.79262 0.79266 0.03817
 H225 H 0.79278 0.79283 0.10684
 H226 H 0.70706 0.70717 0.10683
 C227 C 0.44695 0.77408 0.72601
 C228 C 0.46661 0.75010 0.75000
 C229 C 0.44695 0.72613 0.77400
 C230 C 0.40777 0.72610 0.77404
 C231 C 0.61401 0.75008 0.75000
 C232 C 0.40778 0.77411 0.72598
 C233 C 0.50693 0.75009 0.74999
 C234 C 0.54070 0.75008 0.74999
 C235 C 0.58024 0.75007 0.74999
 C236 C 0.38772 0.75010 0.75001
 H237 H 0.46191 0.79275 0.70731
 H238 H 0.46189 0.70745 0.79270
 H239 H 0.39322 0.70728 0.79288
 H240 H 0.39323 0.79293 0.70714
 C241 C 0.27417 0.05323 0.72608
 C242 C 0.25009 0.03356 0.74996
 C243 C 0.22600 0.05321 0.77386
 C244 C 0.22597 0.09239 0.77390
 C245 C 0.25004 -0.11386 0.74996
 C246 C 0.27420 0.09241 0.72606
 C247 C 0.25007 -0.00677 0.74994
 C248 C 0.25007 -0.04054 0.74995
 C249 C 0.25004 -0.08009 0.74995
 C250 C 0.25009 0.11246 0.74998
 H251 H 0.29293 0.03829 0.70746
 H252 H 0.20724 0.03826 0.79247
 H253 H 0.20706 0.10693 0.79266
 H254 H 0.29311 0.10696 0.70731
 C255 C 0.22587 0.72614 0.05312
 C256 C 0.24995 0.75004 0.03347
 C257 C 0.27403 0.77393 0.05313
 C258 C 0.27405 0.77395 0.09231
 C259 C 0.25002 0.75010 -0.11395
 C260 C 0.22584 0.72610 0.09230
 C261 C 0.24997 0.75003 -0.00686
 C262 C 0.24999 0.75005 -0.04064
 C263 C 0.25001 0.75008 -0.08018
 C264 C 0.24994 0.75001 0.11237
 H265 H 0.20712 0.70753 0.03817
 H266 H 0.29278 0.79254 0.03819
 H267 H 0.29295 0.79270 0.10686
 H268 H 0.20693 0.70734 0.10685
 C269 C 0.05320 0.27419 0.72612
 C270 C 0.03353 0.25011 0.75001
 C271 C 0.05319 0.22603 0.77390
 C272 C 0.09236 0.22599 0.77393
 C273 C -0.11389 0.25009 0.74998
 C274 C 0.09237 0.27422 0.72609
 C275 C -0.00680 0.25010 0.75000
 C276 C -0.04057 0.25010 0.75000
 C277 C -0.08012 0.25008 0.74999
 C278 C 0.11243 0.25011 0.75001
 H279 H 0.03825 0.29295 0.70751
 H280 H 0.03823 0.20727 0.79251
 H281 H 0.10691 0.20709 0.79268
 H282 H 0.10693 0.29312 0.70734
 C283 C 0.72609 0.44697 0.72595
 C284 C 0.75006 0.46663 0.74993
 C285 C 0.77404 0.44698 0.77393
 C286 C 0.77407 0.40781 0.77398
 C287 C 0.75005 0.61403 0.74997
 C288 C 0.72606 0.40779 0.72593
 C289 C 0.75005 0.50695 0.74992
 C290 C 0.75004 0.54072 0.74993
 C291 C 0.75005 0.58026 0.74995
 C292 C 0.75006 0.38774 0.74996
 H293 H 0.70741 0.46191 0.70725
 H294 H 0.79271 0.46194 0.79262
 H295 H 0.79289 0.39327 0.79282
 H296 H 0.70724 0.39324 0.70710
 C297 C 0.72606 0.27406 0.05313
 C298 C 0.74997 0.25001 0.03347
 C299 C 0.77387 0.22593 0.05312
 C300 C 0.77389 0.22588 0.09230
 C301 C 0.75006 0.25010 -0.11395
 C302 C 0.72601 0.27407 0.09231
 C303 C 0.74999 0.25003 -0.00686
 C304 C 0.75002 0.25004 -0.04064
 C305 C 0.75004 0.25008 -0.08018
 C306 C 0.74994 0.24997 0.11236
 H307 H 0.70744 0.29281 0.03819
 H308 H 0.79250 0.20719 0.03817
 H309 H 0.79265 0.20698 0.10684
 H310 H 0.70724 0.29295 0.10687
 C311 C 0.44693 0.27416 0.77392
 C312 C 0.46660 0.25011 0.75000
 C313 C 0.44694 0.22606 0.72608
 C314 C 0.40776 0.22603 0.72605
 C315 C 0.61402 0.25009 0.75002
 C316 C 0.40776 0.27419 0.77395
 C317 C 0.50693 0.25009 0.75001
 C318 C 0.54070 0.25009 0.75000
 C319 C 0.58025 0.25008 0.75001
 C320 C 0.38770 0.25011 0.75000
 H321 H 0.46188 0.29289 0.79256
 H322 H 0.46189 0.20732 0.70745
 H323 H 0.39322 0.20715 0.70728
 H324 H 0.39320 0.29307 0.79273
 C325 C 0.22604 0.44697 0.72611
 C326 C 0.25010 0.46663 0.75003
 C327 C 0.27414 0.44696 0.77395
 C328 C 0.27416 0.40778 0.77398
 C329 C 0.25009 0.61405 0.75002
 C330 C 0.22600 0.40780 0.72608
 C331 C 0.25011 0.50696 0.75002
 C332 C 0.25011 0.54073 0.75002
 C333 C 0.25010 0.58028 0.75001
 C334 C 0.25008 0.38773 0.75003
 H335 H 0.20731 0.46193 0.70748
 H336 H 0.29288 0.46191 0.79258
 H337 H 0.29304 0.39323 0.79275
 H338 H 0.20712 0.39325 0.70731
 C339 C 0.22599 0.27401 0.05315
 C340 C 0.24998 0.25003 0.03348
 C341 C 0.27397 0.22604 0.05314
 C342 C 0.27399 0.22600 0.09232
 C343 C 0.25003 0.25006 -0.11396
 C344 C 0.22595 0.27403 0.09233
 C345 C 0.24998 0.25003 -0.00685
 C346 C 0.25000 0.25004 -0.04063
 C347 C 0.25001 0.25004 -0.08018
 C348 C 0.24997 0.25001 0.11239
 H349 H 0.20731 0.29269 0.03821
 H350 H 0.29266 0.20736 0.03819
 H351 H 0.29282 0.20717 0.10687
 H352 H 0.20712 0.29285 0.10689
 C353 C 0.05305 0.77390 0.27405
 C354 C 0.03340 0.74997 0.25001
 C355 C 0.05306 0.72604 0.22597
 C356 C 0.09224 0.72601 0.22594
 C357 C -0.11403 0.74995 0.24997
 C358 C 0.09223 0.77393 0.27409
 C359 C -0.00693 0.74996 0.25001
 C360 C -0.04071 0.74994 0.25000
 C361 C -0.08025 0.74994 0.24998
 C362 C 0.11229 0.74997 0.25002
 H363 H 0.03809 0.79254 0.29278
 H364 H 0.03812 0.70740 0.20725
 H365 H 0.10679 0.70723 0.20707
 H366 H 0.10677 0.79272 0.29296
 C367 C 0.77389 0.05308 0.22600
 C368 C 0.74996 0.03342 0.25004
 C369 C 0.72603 0.05309 0.27408
 C370 C 0.72600 0.09226 0.27411
 C371 C 0.74992 -0.11400 0.25000
 C372 C 0.77392 0.09226 0.22596
 C373 C 0.74995 -0.00691 0.25003
 C374 C 0.74994 -0.04068 0.25002
 C375 C 0.74993 -0.08022 0.25000
 C376 C 0.74996 0.11232 0.25003
 H377 H 0.79253 0.03813 0.20727
 H378 H 0.70739 0.03814 0.29281
 H379 H 0.70721 0.10681 0.29298
 H380 H 0.79270 0.10681 0.20708
 C381 C 0.77402 0.72603 0.44688
 C382 C 0.75005 0.75003 0.46654
 C383 C 0.72605 0.77401 0.44689
 C384 C 0.72598 0.77401 0.40772
 C385 C 0.75011 0.75009 0.61394
 C386 C 0.77402 0.72598 0.40770
 C387 C 0.75007 0.75005 0.50686
 C388 C 0.75008 0.75008 0.54063
 C389 C 0.75010 0.75009 0.58017
 C390 C 0.74998 0.74998 0.38765
 H391 H 0.79271 0.70735 0.46182
 H392 H 0.70738 0.79270 0.46185
 H393 H 0.70715 0.79283 0.39318
 H394 H 0.79283 0.70714 0.39315
 C395 C 0.44681 0.77393 0.22599
 C396 C 0.46646 0.74997 0.25001
 C397 C 0.44679 0.72602 0.27402
 C398 C 0.40762 0.72599 0.27405
 C399 C 0.61389 0.74995 0.25003
 C400 C 0.40763 0.77396 0.22596
 C401 C 0.50679 0.74997 0.25001
 C402 C 0.54057 0.74996 0.25001
 C403 C 0.58011 0.74995 0.25003
 C404 C 0.38757 0.74997 0.25000
 H405 H 0.46176 0.79259 0.20729
 H406 H 0.46174 0.70735 0.29273
 H407 H 0.39306 0.70718 0.29290
 H408 H 0.39309 0.79276 0.20710
 C409 C 0.27392 0.05311 0.22602
 C410 C 0.24990 0.03345 0.24998
 C411 C 0.22590 0.05312 0.27395
 C412 C 0.22588 0.09230 0.27400
 C413 C 0.24990 -0.11399 0.24999
 C414 C 0.27396 0.09229 0.22600
 C415 C 0.24988 -0.00689 0.24996
 C416 C 0.24987 -0.04066 0.24996
 C417 C 0.24988 -0.08022 0.24996
 C418 C 0.24993 0.11236 0.25000
 H419 H 0.29262 0.03817 0.20735
 H420 H 0.20719 0.03817 0.29262
 H421 H 0.20704 0.10685 0.29281
 H422 H 0.29282 0.10684 0.20719
 C423 C 0.27405 0.72609 0.44686
 C424 C 0.25000 0.75001 0.46654
 C425 C 0.22593 0.77391 0.44688
 C426 C 0.22587 0.77393 0.40771
 C427 C 0.25007 0.75007 0.61396
 C428 C 0.27406 0.72605 0.40769
 C429 C 0.25002 0.75002 0.50686
 C430 C 0.25003 0.75004 0.54064
 C431 C 0.25006 0.75006 0.58018
 C432 C 0.24996 0.74998 0.38764
 H433 H 0.29281 0.70747 0.46181
 H434 H 0.20719 0.79254 0.46184
 H435 H 0.20698 0.79269 0.39317
 H436 H 0.29294 0.70728 0.39313
 C437 C 0.05309 0.27396 0.22605
 C438 C 0.03342 0.24995 0.25001
 C439 C 0.05309 0.22595 0.27398
 C440 C 0.09227 0.22593 0.27402
 C441 C -0.11402 0.24993 0.24994
 C442 C 0.09227 0.27400 0.22603
 C443 C -0.00691 0.24992 0.24999
 C444 C -0.04069 0.24991 0.24997
 C445 C -0.08024 0.24992 0.24994
 C446 C 0.11233 0.24997 0.25002
 H447 H 0.03814 0.29266 0.20738
 H448 H 0.03814 0.20724 0.29264
 H449 H 0.10681 0.20708 0.29283
 H450 H 0.10682 0.29285 0.20722
 C451 C 0.72602 0.44683 0.22596
 C452 C 0.74997 0.46649 0.24998
 C453 C 0.77393 0.44683 0.27399
 C454 C 0.77395 0.40765 0.27403
 C455 C 0.74992 0.61391 0.24998
 C456 C 0.72598 0.40765 0.22594
 C457 C 0.74997 0.50682 0.24997
 C458 C 0.74996 0.54060 0.24997
 C459 C 0.74993 0.58014 0.24997
 C460 C 0.74996 0.38759 0.24998
 H461 H 0.70736 0.46178 0.20726
 H462 H 0.79259 0.46178 0.29269
 H463 H 0.79275 0.39310 0.29288
 H464 H 0.70718 0.39311 0.20709
 C465 C 0.77392 0.27408 0.44685
 C466 C 0.75001 0.25003 0.46653
 C467 C 0.72610 0.22596 0.44689
 C468 C 0.72605 0.22591 0.40772
 C469 C 0.75005 0.25007 0.61396
 C470 C 0.77395 0.27409 0.40767
 C471 C 0.75002 0.25004 0.50686
 C472 C 0.75004 0.25004 0.54064
 C473 C 0.75004 0.25005 0.58018
 C474 C 0.74999 0.24999 0.38764
 H475 H 0.79256 0.29282 0.46178
 H476 H 0.70747 0.20723 0.46186
 H477 H 0.70728 0.20702 0.39319
 H478 H 0.79271 0.29297 0.39311
 C479 C 0.44681 0.27398 0.27393
 C480 C 0.46647 0.24994 0.25000
 C481 C 0.44681 0.22590 0.22607
 C482 C 0.40763 0.22588 0.22603
 C483 C 0.61392 0.24994 0.25003
 C484 C 0.40763 0.27402 0.27396
 C485 C 0.50681 0.24993 0.25000
 C486 C 0.54059 0.24992 0.25001
 C487 C 0.58014 0.24992 0.25001
 C488 C 0.38757 0.24996 0.24999
 H489 H 0.46176 0.29270 0.29257
 H490 H 0.46175 0.20717 0.20742
 H491 H 0.39308 0.20702 0.20725
 H492 H 0.39308 0.29289 0.29274
 C493 C 0.22588 0.44683 0.22609
 C494 C 0.24991 0.46650 0.25001
 C495 C 0.27395 0.44684 0.27395
 C496 C 0.27399 0.40766 0.27398
 C497 C 0.24991 0.61394 0.24998
 C498 C 0.22585 0.40765 0.22605
 C499 C 0.24990 0.50684 0.25001
 C500 C 0.24989 0.54062 0.24999
 C501 C 0.24990 0.58017 0.24999
 C502 C 0.24993 0.38759 0.25002
 H503 H 0.20715 0.46177 0.20744
 H504 H 0.29267 0.46179 0.29259
 H505 H 0.29286 0.39311 0.29276
 H506 H 0.20699 0.39310 0.20727
 C507 C 0.27398 0.27396 0.44685
 C508 C 0.24998 0.25000 0.46653
 C509 C 0.22598 0.22602 0.44688
 C510 C 0.22595 0.22598 0.40770
 C511 C 0.25005 0.25009 0.61397
 C512 C 0.27401 0.27398 0.40767
 C513 C 0.24998 0.25002 0.50687
 C514 C 0.24999 0.25004 0.54065
 C515 C 0.25003 0.25007 0.58020
 C516 C 0.24997 0.24998 0.38763
 H517 H 0.29268 0.29264 0.46179
 H518 H 0.20729 0.20735 0.46184
 H519 H 0.20711 0.20716 0.39316
 H520 H 0.29284 0.29280 0.39311
   
