data_POSCAR
  _audit_creation_date              2014-09-24
  _audit_creation_method            'ToBaCCo'
  _symmetry_space_group_name_H-M    'P1'
  _symmetry_Int_Tables_number       1
  _symmetry_cell_setting            triclinic
  loop_
  _symmetry_equiv_pos_as_xyz
 x,y,z
_cell_length_a 60.9704
_cell_length_b 60.9663
_cell_length_c 23.0834
_cell_angle_alpha 90.098300
_cell_angle_beta 90.081400
_cell_angle_gamma 119.941400
loop_
  _atom_site_label
  _atom_site_type_symbol
  _atom_site_fract_x
  _atom_site_fract_y
  _atom_site_fract_z
C1 C 0.30407 0.52554 0.44190
 C2 C 0.31726 0.52844 0.49345
 C3 C 0.30685 0.52841 0.54788
 C4 C 0.28312 0.52771 0.54945
 C5 C 0.26931 0.52424 0.49734
 C6 C 0.27972 0.52284 0.44349
 C7 C 0.26531 0.51812 0.39272
 C8 C 0.24087 0.51434 0.39480
 C9 C 0.23016 0.51575 0.44753
 C10 C 0.24467 0.52134 0.49924
 C11 C 0.27315 0.53118 0.60135
 C12 C 0.24902 0.52817 0.60346
 C13 C 0.23421 0.52296 0.55308
 C14 C 0.20871 0.51768 0.55517
 C15 C 0.19454 0.51122 0.50372
 C16 C 0.20494 0.51072 0.45029
 H17 H 0.27259 0.51675 0.35095
 H18 H 0.23034 0.50990 0.35461
 H19 H 0.28388 0.53616 0.64130
 H20 H 0.24201 0.52938 0.64557
 H21 H 0.33502 0.52846 0.49070
 H22 H 0.17510 0.50728 0.50485
 C23 C 0.51167 -0.19761 0.44803
 C24 C 0.51614 -0.18459 0.50039
 C25 C 0.51297 -0.19657 0.55407
 C26 C 0.50655 -0.22242 0.55501
 C27 C 0.50275 -0.23573 0.50183
 C28 C 0.50475 -0.22343 0.44830
 C29 C 0.50026 -0.23710 0.39647
 C30 C 0.49449 -0.26222 0.39689
 C31 C 0.49407 -0.27442 0.44895
 C32 C 0.49750 -0.26124 0.50208
 C33 C 0.50562 -0.23480 0.60715
 C34 C 0.50037 -0.25978 0.60736
 C35 C 0.49629 -0.27330 0.55540
 C36 C 0.49111 -0.29861 0.55545
 C37 C 0.48662 -0.31172 0.50317
 C38 C 0.48914 -0.29983 0.44957
 H39 H 0.50126 -0.22849 0.35490
 H40 H 0.49023 -0.27200 0.35571
 H41 H 0.50955 -0.22515 0.64844
 H42 H 0.49962 -0.26840 0.64880
 H43 H 0.52079 -0.16493 0.49909
 H44 H 0.48372 -0.33079 0.50434
 C45 C 1.30531 0.78185 0.45142
 C46 C 1.31397 0.79336 0.50566
 C47 C 1.30334 0.78090 0.55783
 C48 C 1.28208 0.75604 0.55590
 C49 C 1.27216 0.74422 0.50139
 C50 C 1.28402 0.75697 0.44899
 C51 C 1.27265 0.74559 0.39582
 C52 C 1.25041 0.72239 0.39370
 C53 C 1.23812 0.70976 0.44461
 C54 C 1.24917 0.72046 0.49912
 C55 C 1.26880 0.74389 0.60652
 C56 C 1.24648 0.72076 0.60422
 C57 C 1.23626 0.70844 0.55119
 C58 C 1.21221 0.68589 0.54817
 C59 C 1.20167 0.67614 0.49356
 C60 C 1.21424 0.68750 0.44230
 H61 H 1.28001 0.75495 0.35494
 H62 H 1.24236 0.71493 0.35148
 H63 H 1.27469 0.75271 0.64862
 H64 H 1.23672 0.71344 0.64473
 H65 H 1.33045 0.81223 0.50748
 H66 H 1.18326 0.65911 0.49064
 C67 C 0.79406 0.50611 0.45483
 C68 C 0.80674 0.51080 0.50762
 C69 C 0.79503 0.50995 0.56047
 C70 C 0.76965 0.50505 0.56005
 C71 C 0.75650 0.50040 0.50643
 C72 C 0.76860 0.50037 0.45379
 C73 C 0.75540 0.49587 0.40125
 C74 C 0.73106 0.49229 0.39989
 C75 C 0.71924 0.49367 0.45084
 C76 C 0.73181 0.49742 0.50488
 C77 C 0.75801 0.50717 0.61063
 C78 C 0.73418 0.50501 0.60885
 C79 C 0.72053 0.49997 0.55662
 C80 C 0.69710 0.49982 0.55323
 C81 C 0.68520 0.49601 0.49910
 C82 C 0.69564 0.49259 0.44865
 H83 H 0.76395 0.49560 0.36043
 H84 H 0.72190 0.48930 0.35809
 H85 H 0.76775 0.51189 0.65189
 H86 H 0.72712 0.50831 0.64886
 H87 H 0.82619 0.51473 0.50740
 H88 H 0.66730 0.49576 0.49590
 C89 C 0.52533 0.30895 0.44325
 C90 C 0.52648 0.32165 0.49448
 C91 C 0.52833 0.31245 0.54887
 C92 C 0.52868 0.28932 0.55195
 C93 C 0.52641 0.27568 0.50007
 C94 C 0.52485 0.28560 0.44560
 C95 C 0.52168 0.27143 0.39507
 C96 C 0.51909 0.24746 0.39794
 C97 C 0.52005 0.23696 0.45135
 C98 C 0.52415 0.25133 0.50285
 C99 C 0.52895 0.27833 0.60539
 C100 C 0.52722 0.25473 0.60798
 C101 C 0.52451 0.24080 0.55739
 C102 C 0.52089 0.21606 0.56003
 C103 C 0.51667 0.20212 0.50910
 C104 C 0.51593 0.21202 0.45509
 H105 H 0.52041 0.27844 0.35288
 H106 H 0.51585 0.23708 0.35783
 H107 H 0.52974 0.28740 0.64617
 H108 H 0.52722 0.24714 0.65034
 H109 H 0.52597 0.33917 0.49187
 H110 H 0.51327 0.18289 0.51171
 C111 C 0.70685 0.19677 0.44114
 C112 C 0.69348 0.18702 0.49256
 C113 C 0.70430 0.19702 0.54684
 C114 C 0.72888 0.21875 0.54920
 C115 C 0.74224 0.22945 0.49690
 C116 C 0.73127 0.21829 0.44274
 C117 C 0.74506 0.22875 0.39166
 C118 C 0.76913 0.25003 0.39352
 C119 C 0.78028 0.26162 0.44653
 C120 C 0.76679 0.25120 0.49877
 C121 C 0.73994 0.23089 0.60202
 C122 C 0.76413 0.25195 0.60390
 C123 C 0.77793 0.26230 0.55290
 C124 C 0.80273 0.28333 0.55446
 C125 C 0.81573 0.29332 0.50273
 C126 C 0.80485 0.28304 0.44900
 H127 H 0.73730 0.22058 0.34970
 H128 H 0.77902 0.25717 0.35294
 H129 H 0.72990 0.22446 0.64259
 H130 H 0.77185 0.26012 0.64586
 H131 H 0.67502 0.17003 0.49024
 H132 H 0.83467 0.30965 0.50432
 O133 O 0.96373 0.44630 0.10894
 O134 O 0.93420 0.45005 0.05489
 C135 C 0.94052 0.43945 0.09531
 O136 O 1.03140 0.55942 0.09775
 O137 O 1.05950 0.55320 0.04398
 C138 C 1.05424 0.56545 0.08246
 O139 O 0.96042 0.52031 0.10674
 O140 O 0.93249 0.48552 0.05390
 C141 C 0.93765 0.50243 0.09382
 O142 O 1.03425 0.48148 0.09899
 O143 O 1.06075 0.51606 0.04436
 C144 C 1.05664 0.49911 0.08326
 Zr145 Zr 0.99801 0.47417 0.07198
 O146 O 1.00032 0.47239 0.16307
 O147 O 0.99828 0.43981 0.06284
 Zr148 Zr 0.99599 0.52866 0.07207
 O149 O 0.99967 0.53105 0.16343
 O150 O 0.99209 0.56128 0.07105
 O151 O 0.97471 0.48972 0.08514
 O152 O 1.01906 0.51303 0.08139
 O153 O 1.03105 0.47854 -0.10206
 O154 O 1.05934 0.51468 -0.05371
 C155 C 1.05390 0.49631 -0.08990
 O156 O 0.95784 0.51886 -0.10312
 O157 O 0.93104 0.48519 -0.04634
 C158 C 0.93536 0.50175 -0.08655
 O159 O 1.02852 0.55732 -0.10518
 O160 O 1.05806 0.55212 -0.05496
 C161 C 1.05173 0.56355 -0.09326
 O162 O 0.96024 0.44363 -0.10285
 O163 O 0.93227 0.44924 -0.04709
 C164 C 0.93745 0.43753 -0.08712
 Zr165 Zr 0.99578 0.47286 -0.07335
 O166 O 0.99725 0.47374 -0.16502
 O167 O 0.99442 0.43748 -0.07331
 Zr168 Zr 0.99407 0.52736 -0.07366
 O169 O 0.99515 0.52801 -0.16533
 O170 O 0.99044 0.56013 -0.07273
 Zr171 Zr 0.95823 0.48100 0.00177
 Zr172 Zr 1.03384 0.52068 -0.00324
 O173 O 1.01675 0.51148 -0.08573
 O174 O 0.97219 0.48821 -0.08365
 O175 O 1.01980 0.48130 -0.00214
 O176 O 0.97285 0.52040 0.00066
 O177 O 0.97482 0.45793 0.00101
 O178 O 1.01763 0.54420 -0.00236
 H179 H 1.03074 0.51927 0.11500
 H180 H 0.96101 0.52708 0.00157
 H181 H 1.02755 0.51690 -0.12076
 H182 H 0.96373 0.43929 0.00202
 H183 H 1.00614 0.57429 0.04769
 H184 H 1.00525 0.57355 -0.05177
 H185 H 0.98139 0.51147 -0.17926
 H186 H 0.98221 0.47430 -0.17918
 H187 H 1.00730 0.43873 -0.04528
 H188 H 0.99883 0.43408 0.10267
 H189 H 1.00115 0.48786 0.17877
 H190 H 0.98588 0.51507 0.17959
 O191 O 0.43391 0.47029 0.10181
 O192 O 0.43891 0.50434 0.04924
 C193 C 0.42742 0.48691 0.08810
 O194 O 0.54774 0.51726 0.10845
 O195 O 0.54347 0.48362 0.05468
 C196 C 0.55480 0.50118 0.09361
 O197 O 0.50762 0.54747 0.11482
 O198 O 0.47415 0.54102 0.05725
 C199 C 0.48960 0.55182 0.10021
 O200 O 0.46942 0.43539 0.09677
 O201 O 0.50593 0.44450 0.04890
 C202 C 0.48758 0.43092 0.08439
 Zr203 Zr 0.46296 0.46461 0.06876
 O204 O 0.45772 0.45862 0.15908
 O205 O 0.42921 0.43026 0.05201
 Zr206 Zr 0.51716 0.52129 0.07926
 O207 O 0.51723 0.51900 0.17076
 O208 O 0.55020 0.55734 0.07859
 O209 O 0.47783 0.50306 0.08557
 O210 O 0.50154 0.48249 0.08539
 O211 O 0.47485 0.44040 -0.10547
 O212 O 0.50874 0.44686 -0.04960
 C213 C 0.49214 0.43505 -0.09016
 O214 O 0.51241 0.55215 -0.09876
 O215 O 0.47698 0.54384 -0.04701
 C216 C 0.49392 0.55616 -0.08620
 O217 O 0.55215 0.52093 -0.09203
 O218 O 0.54534 0.48534 -0.04321
 C219 C 0.55804 0.50374 -0.07913
 O220 O 0.44293 0.47905 -0.11848
 O221 O 0.44247 0.50782 -0.05493
 C222 C 0.43555 0.49476 -0.10249
 Zr223 Zr 0.46672 0.46824 -0.07532
 O224 O 0.46619 0.46472 -0.16645
 O225 O 0.43086 0.43481 -0.07425
 Zr226 Zr 0.52099 0.52484 -0.06534
 O227 O 0.52577 0.52721 -0.15634
 O228 O 0.55331 0.56114 -0.05485
 Zr229 Zr 0.47166 0.51242 0.00159
 Zr230 Zr 0.51221 0.47701 0.00247
 O231 O 0.50575 0.48653 -0.08101
 O232 O 0.48244 0.50727 -0.08197
 O233 O 0.47296 0.45140 -0.00372
 O234 O 0.51088 0.53751 0.00741
 O235 O 0.44886 0.47288 -0.00446
 O236 O 0.53531 0.51665 0.00804
 H237 H 0.50696 0.47659 0.11963
 H238 H 0.51698 0.55591 0.00950
 H239 H 0.51251 0.48211 -0.11531
 H240 H 0.43033 0.46587 -0.00770
 H241 H 0.55483 0.56210 0.11973
 H242 H 0.56550 0.55914 -0.03021
 H243 H 0.50910 0.52224 -0.17382
 H244 H 0.48101 0.48028 -0.18103
 H245 H 0.43333 0.42108 -0.05863
 H246 H 0.42187 0.42317 0.09040
 H247 H 0.47338 0.47172 0.17788
 H248 H 0.50000 0.51423 0.18415
 O249 O 0.51604 -0.03589 0.10176
 O250 O 0.48080 -0.06435 0.05101
 C251 C 0.49837 -0.05881 0.08947
 O252 O 0.47618 0.03655 0.10409
 O253 O 0.50936 0.06320 0.04617
 C254 C 0.49333 0.05901 0.08735
 O255 O 0.44149 -0.03414 0.11219
 O256 O 0.44469 -0.06368 0.05678
 C257 C 0.43481 -0.05732 0.09887
 O258 O 0.55425 0.03468 0.09150
 O259 O 0.54659 0.06243 0.04042
 C260 C 0.55973 0.05744 0.07690
 Zr261 Zr 0.52357 -0.00088 0.06604
 O262 O 0.53002 0.00091 0.15639
 O263 O 0.55684 -0.00260 0.05063
 Zr264 Zr 0.46878 0.00036 0.07532
 O265 O 0.47205 0.00376 0.16664
 O266 O 0.43316 -0.00154 0.07856
 O267 O 0.48496 -0.02259 0.08363
 O268 O 0.50773 0.02173 0.08032
 O269 O 0.54855 0.03208 -0.11157
 O270 O 0.54319 0.06099 -0.05859
 C271 C 0.55412 0.05504 -0.09879
 O272 O 0.43552 -0.03671 -0.10027
 O273 O 0.44186 -0.06491 -0.04748
 C274 C 0.42978 -0.05956 -0.08630
 O275 O 0.46963 0.03380 -0.09792
 O276 O 0.50623 0.06201 -0.05123
 C277 C 0.48752 0.05667 -0.08615
 O278 O 0.51075 -0.03855 -0.10985
 O279 O 0.47802 -0.06589 -0.05150
 C280 C 0.49409 -0.06116 -0.09317
 Zr281 Zr 0.51917 -0.00266 -0.07861
 O282 O 0.51776 -0.00144 -0.17016
 O283 O 0.55232 -0.00557 -0.08266
 Zr284 Zr 0.46440 -0.00149 -0.06961
 O285 O 0.46211 0.00024 -0.16082
 O286 O 0.42876 -0.00371 -0.06098
 Zr287 Zr 0.47436 -0.03927 0.00059
 Zr288 Zr 0.51333 0.03664 -0.00396
 O289 O 0.50264 0.01964 -0.08633
 O290 O 0.47988 -0.02478 -0.08439
 O291 O 0.53729 0.02101 -0.00828
 O292 O 0.45121 -0.02279 0.00480
 O293 O 0.51378 -0.02421 -0.00535
 O294 O 0.47401 0.02229 0.00217
 H295 H 0.51449 0.03338 0.11394
 H296 H 0.43263 -0.03410 0.00730
 H297 H 0.50720 0.03035 -0.12143
 H298 H 0.52058 -0.03596 -0.00615
 H299 H 0.43490 0.01366 0.05892
 H300 H 0.43150 0.01178 -0.04073
 H301 H 0.46612 -0.01232 -0.17735
 H302 H 0.50139 -0.01587 -0.18290
 H303 H 0.56533 0.00815 -0.05835
 H304 H 0.56387 -0.00267 0.08930
 H305 H 0.51737 0.00428 0.17472
 H306 H 0.47526 -0.00968 0.18094
 C307 C 1.14875 0.47538 0.35121
 C308 C 1.15232 0.49395 0.30960
 C309 C 1.17523 0.51751 0.31217
 C310 C 1.19292 0.52254 0.35662
 C311 C 1.18831 0.50432 0.39882
 C312 C 1.16640 0.48065 0.39521
 C313 C 1.18007 0.53622 0.27144
 C314 C 1.16231 0.53255 0.22920
 C315 C 1.13866 0.50998 0.22641
 C316 C 1.13370 0.49023 0.26689
 C317 C 1.10992 0.46781 0.26476
 C318 C 1.09125 0.46508 0.22627
 C319 C 1.09549 0.48435 0.18781
 C320 C 1.11942 0.50681 0.18595
 C321 C 1.12274 0.52537 0.14457
 C322 C 1.10271 0.52229 0.10942
 C323 C 1.07872 0.50072 0.11421
 C324 C 1.07552 0.48150 0.15233
 H325 H 1.13240 0.45670 0.35179
 H326 H 1.20991 0.54095 0.35971
 H327 H 1.16267 0.46634 0.42754
 H328 H 1.19767 0.55414 0.27278
 H329 H 1.16753 0.54819 0.20021
 H330 H 1.10471 0.45210 0.29348
 H331 H 1.07305 0.44778 0.22744
 H332 H 1.14040 0.54269 0.13871
 H333 H 1.10591 0.53727 0.07958
 H334 H 1.05717 0.46448 0.15577
 C335 C 0.51134 0.68394 0.31443
 C336 C 0.49342 0.65792 0.30753
 C337 C 0.47245 0.64718 0.34570
 C338 C 0.47081 0.66144 0.39147
 C339 C 0.48924 0.68697 0.39924
 C340 C 0.50927 0.69811 0.35950
 C341 C 0.45343 0.62207 0.33890
 C342 C 0.45485 0.60708 0.29552
 C343 C 0.47591 0.61643 0.25809
 C344 C 0.49577 0.64212 0.26493
 C345 C 0.51779 0.65080 0.23084
 C346 C 0.52054 0.63488 0.19210
 C347 C 0.50124 0.60994 0.18438
 C348 C 0.47828 0.60058 0.21573
 C349 C 0.45877 0.57553 0.20392
 C350 C 0.46257 0.56019 0.16526
 C351 C 0.48562 0.56920 0.13675
 C352 C 0.50491 0.59411 0.14602
 H353 H 0.52730 0.69394 0.28600
 H354 H 0.45499 0.65264 0.42127
 H355 H 0.52423 0.71756 0.36497
 H356 H 0.43726 0.61382 0.36775
 H357 H 0.43949 0.58782 0.29416
 H358 H 0.53381 0.66962 0.23474
 H359 H 0.53807 0.64219 0.16807
 H360 H 0.44036 0.56714 0.22371
 H361 H 0.44776 0.54081 0.15923
 H362 H 0.52276 0.60110 0.12347
 C363 C 0.34161 -0.19703 0.31258
 C364 C 0.34678 -0.17168 0.30844
 C365 C 0.33631 -0.16304 0.35156
 C366 C 0.32247 -0.17868 0.39771
 C367 C 0.31778 -0.20359 0.40191
 C368 C 0.32738 -0.21264 0.35854
 C369 C 0.33992 -0.13867 0.34920
 C370 C 0.35390 -0.12234 0.30512
 C371 C 0.36530 -0.12959 0.26164
 C372 C 0.36210 -0.15451 0.26378
 C373 C 0.37496 -0.16103 0.22240
 C374 C 0.39078 -0.14372 0.18116
 C375 C 0.39396 -0.11943 0.17840
 C376 C 0.38064 -0.11232 0.21748
 C377 C 0.38348 -0.08798 0.21117
 C378 C 0.40035 -0.07083 0.17132
 C379 C 0.41481 -0.07723 0.13536
 C380 C 0.41082 -0.10196 0.13762
 H381 H 0.34833 -0.20538 0.28118
 H382 H 0.31490 -0.17148 0.43046
 H383 H 0.32469 -0.23157 0.36126
 H384 H 0.33194 -0.13202 0.38216
 H385 H 0.35606 -0.10374 0.30773
 H386 H 0.37383 -0.17924 0.22182
 H387 H 0.40079 -0.14937 0.15134
 H388 H 0.37303 -0.08143 0.23635
 H389 H 0.40230 -0.05218 0.16938
 H390 H 0.42139 -0.10736 0.10904
 C391 C 0.84675 0.53637 0.34598
 C392 C 0.84407 0.51537 0.31375
 C393 C 0.82228 0.49147 0.32416
 C394 C 0.80516 0.48860 0.36835
 C395 C 0.80917 0.50938 0.40201
 C396 C 0.82967 0.53328 0.38957
 C397 C 0.81811 0.47043 0.29169
 C398 C 0.83536 0.47233 0.24992
 C399 C 0.85797 0.49538 0.23986
 C400 C 0.86251 0.51719 0.27277
 C401 C 0.88584 0.53981 0.26561
 C402 C 0.90433 0.54102 0.22870
 C403 C 0.90021 0.52001 0.19629
 C404 C 0.87671 0.49712 0.19977
 C405 C 0.87318 0.47687 0.16334
 C406 C 0.89266 0.47895 0.12777
 C407 C 0.91634 0.50110 0.12747
 C408 C 0.91976 0.52174 0.16104
 H409 H 0.86194 0.55542 0.33914
 H410 H 0.78924 0.47006 0.37806
 H411 H 0.83286 0.54957 0.41502
 H412 H 0.80142 0.45216 0.29911
 H413 H 0.83084 0.45502 0.22773
 H414 H 0.89092 0.55684 0.28966
 H415 H 0.92219 0.55862 0.22590
 H416 H 0.85560 0.45919 0.16106
 H417 H 0.88925 0.46291 0.10123
 H418 H 0.93780 0.53922 0.16015
 C419 C 0.54189 0.34782 0.30629
 C420 C 0.51842 0.34584 0.29082
 C421 C 0.49697 0.32976 0.32492
 C422 C 0.49926 0.31702 0.37303
 C423 C 0.52272 0.31999 0.38850
 C424 C 0.54391 0.33510 0.35457
 C425 C 0.47341 0.32696 0.31192
 C426 C 0.47069 0.34072 0.26757
 C427 C 0.49159 0.35801 0.23414
 C428 C 0.51565 0.35988 0.24437
 C429 C 0.53619 0.37614 0.20866
 C430 C 0.53379 0.39127 0.16704
 C431 C 0.51100 0.39105 0.15954
 C432 C 0.48939 0.37402 0.19196
 C433 C 0.46670 0.37450 0.18242
 C434 C 0.46602 0.39215 0.14532
 C435 C 0.48773 0.40980 0.11569
 C436 C 0.50995 0.40849 0.12129
 H437 H 0.55917 0.35954 0.28312
 H438 H 0.48290 0.30530 0.39973
 H439 H 0.56222 0.33760 0.36642
 H440 H 0.45690 0.31436 0.33723
 H441 H 0.45181 0.33745 0.26111
 H442 H 0.55458 0.37783 0.21208
 H443 H 0.55019 0.40374 0.14134
 H444 H 0.44926 0.36217 0.20438
 H445 H 0.44845 0.39241 0.14122
 H446 H 0.52685 0.42193 0.09832
 C447 C 0.68401 0.14388 0.33228
 C448 C 0.66791 0.14840 0.29596
 C449 C 0.66725 0.17111 0.30499
 C450 C 0.68100 0.18763 0.35069
 C451 C 0.69558 0.18192 0.38776
 C452 C 0.69740 0.16033 0.37758
 C453 C 0.65224 0.17683 0.26963
 C454 C 0.63699 0.16007 0.22683
 C455 C 0.63588 0.13659 0.21801
 C456 C 0.65188 0.13083 0.25261
 C457 C 0.65056 0.10723 0.24433
 C458 C 0.63336 0.08935 0.20608
 C459 C 0.61703 0.09428 0.17368
 C460 C 0.61856 0.11823 0.17747
 C461 C 0.60210 0.12238 0.14159
 C462 C 0.58389 0.10303 0.10687
 C463 C 0.58140 0.07891 0.10656
 C464 C 0.59862 0.07497 0.13875
 H465 H 0.68635 0.12760 0.32787
 H466 H 0.67966 0.20445 0.35883
 H467 H 0.70874 0.15580 0.40603
 H468 H 0.65189 0.19428 0.27584
 H469 H 0.62569 0.16585 0.20244
 H470 H 0.66208 0.10154 0.26808
 H471 H 0.63252 0.07120 0.20266
 H472 H 0.60244 0.14020 0.13992
 H473 H 0.57113 0.10678 0.08173
 H474 H 0.59724 0.05654 0.13802
 C475 C 0.53926 0.19396 -0.30497
 C476 C 0.51583 0.17291 -0.28793
 C477 C 0.49392 0.16793 -0.31994
 C478 C 0.49570 0.18297 -0.36753
 C479 C 0.51909 0.20298 -0.38483
 C480 C 0.54078 0.20864 -0.35294
 C481 C 0.47040 0.14751 -0.30557
 C482 C 0.46817 0.13081 -0.26229
 C483 C 0.48954 0.13390 -0.23140
 C484 C 0.51351 0.15602 -0.24216
 C485 C 0.53438 0.16017 -0.20759
 C486 C 0.53234 0.14259 -0.16660
 C487 C 0.50961 0.12000 -0.15898
 C488 C 0.48781 0.11535 -0.19094
 C489 C 0.46548 0.09173 -0.18310
 C490 C 0.46524 0.07325 -0.14724
 C491 C 0.48701 0.07768 -0.11707
 C492 C 0.50885 0.10155 -0.12126
 H493 H 0.55689 0.19905 -0.28363
 H494 H 0.47894 0.17858 -0.39270
 H495 H 0.55905 0.22398 -0.36637
 H496 H 0.45353 0.14401 -0.32908
 H497 H 0.44928 0.11556 -0.25414
 H498 H 0.55271 0.17691 -0.21122
 H499 H 0.54902 0.14636 -0.14192
 H500 H 0.44813 0.08636 -0.20604
 H501 H 0.44799 0.05509 -0.14441
 H502 H 0.52577 0.10533 -0.09763
 C503 C 0.66625 0.52893 -0.36277
 C504 C 0.65870 0.51445 -0.31139
 C505 C 0.66494 0.49505 -0.30527
 C506 C 0.67888 0.49102 -0.34853
 C507 C 0.68595 0.50544 -0.39958
 C508 C 0.67926 0.52424 -0.40601
 C509 C 0.65646 0.47923 -0.25697
 C510 C 0.64091 0.48142 -0.21601
 C511 C 0.63378 0.50012 -0.22088
 C512 C 0.64410 0.51782 -0.26749
 C513 C 0.63936 0.53823 -0.26896
 C514 C 0.62334 0.54015 -0.22932
 C515 C 0.61124 0.52177 -0.18690
 C516 C 0.61647 0.50165 -0.18128
 C517 C 0.60332 0.48340 -0.13772
 C518 C 0.58521 0.48471 -0.10303
 C519 C 0.57962 0.50426 -0.11014
 C520 C 0.59332 0.52310 -0.15119
 H521 H 0.66146 0.54333 -0.37223
 H522 H 0.68290 0.47567 -0.34400
 H523 H 0.68423 0.53556 -0.44510
 H524 H 0.66128 0.46448 -0.25161
 H525 H 0.63492 0.46823 -0.18055
 H526 H 0.64798 0.55331 -0.30011
 H527 H 0.61990 0.55591 -0.23290
 H528 H 0.60583 0.46732 -0.13081
 H529 H 0.57496 0.46981 -0.07176
 H530 H 0.58932 0.53840 -0.15721
 C531 C 0.85339 0.30772 -0.33088
 C532 C 0.84874 0.32502 -0.29967
 C533 C 0.82635 0.32570 -0.31311
 C534 C 0.81045 0.31091 -0.35866
 C535 C 0.81643 0.29525 -0.39120
 C536 C 0.83759 0.29333 -0.37618
 C537 C 0.82045 0.34180 -0.28252
 C538 C 0.83672 0.35807 -0.24026
 C539 C 0.85993 0.35921 -0.22746
 C540 C 0.86592 0.34223 -0.25731
 C541 C 0.88942 0.34380 -0.24578
 C542 C 0.90695 0.36198 -0.20865
 C543 C 0.90172 0.37905 -0.18051
 C544 C 0.87787 0.37747 -0.18767
 C545 C 0.87337 0.39471 -0.15562
 C546 C 0.89233 0.41355 -0.12111
 C547 C 0.91634 0.41594 -0.11764
 C548 C 0.92061 0.39815 -0.14624
 H549 H 0.86931 0.30513 -0.32243
 H550 H 0.79402 0.31239 -0.37055
 H551 H 0.84234 0.28115 -0.40092
 H552 H 0.80325 0.34220 -0.29216
 H553 H 0.83088 0.37018 -0.21973
 H554 H 0.89536 0.33176 -0.26624
 H555 H 0.92506 0.36294 -0.20266
 H556 H 0.85554 0.39436 -0.15658
 H557 H 0.88839 0.42676 -0.09851
 H558 H 0.93895 0.39941 -0.14265
 C559 C 0.53843 -0.14150 -0.34615
 C560 C 0.51867 -0.14891 -0.30543
 C561 C 0.49744 -0.17362 -0.31045
 C562 C 0.49645 -0.19017 -0.35434
 C563 C 0.51586 -0.18210 -0.39569
 C564 C 0.53680 -0.15764 -0.39065
 C565 C 0.47681 -0.18120 -0.27343
 C566 C 0.47614 -0.16435 -0.23363
 C567 C 0.49653 -0.13933 -0.22816
 C568 C 0.51871 -0.13207 -0.26227
 C569 C 0.54012 -0.10802 -0.25282
 C570 C 0.53923 -0.09070 -0.21558
 C571 C 0.51707 -0.09661 -0.18608
 C572 C 0.49550 -0.12111 -0.19055
 C573 C 0.47368 -0.12585 -0.15860
 C574 C 0.47328 -0.10675 -0.12545
 C575 C 0.49444 -0.08238 -0.12353
 C576 C 0.51641 -0.07776 -0.15285
 H577 H 0.55487 -0.12287 -0.34693
 H578 H 0.47964 -0.20864 -0.35900
 H579 H 0.55204 -0.15082 -0.42196
 H580 H 0.46058 -0.20012 -0.27664
 H581 H 0.45930 -0.17153 -0.20761
 H582 H 0.55807 -0.10195 -0.27347
 H583 H 0.55599 -0.07221 -0.21084
 H584 H 0.45642 -0.14387 -0.15951
 H585 H 0.45615 -0.11088 -0.10262
 H586 H 0.53315 -0.05913 -0.15067
 C587 C 0.31777 0.50518 -0.31102
 C588 C 0.34447 0.51787 -0.30755
 C589 C 0.35836 0.53484 -0.35277
 C590 C 0.34585 0.53929 -0.39837
 C591 C 0.31926 0.52637 -0.40191
 C592 C 0.30552 0.50910 -0.35764
 C593 C 0.38472 0.54686 -0.35313
 C594 C 0.39758 0.54115 -0.31165
 C595 C 0.38451 0.52366 -0.26701
 C596 C 0.35780 0.51336 -0.26235
 C597 C 0.34541 0.49906 -0.21265
 C598 C 0.35848 0.49384 -0.17048
 C599 C 0.38408 0.50170 -0.17741
 C600 C 0.39734 0.51630 -0.22650
 C601 C 0.42267 0.52212 -0.23433
 C602 C 0.43440 0.51424 -0.19437
 C603 C 0.42158 0.50089 -0.14488
 C604 C 0.39651 0.49479 -0.13602
 H605 H 0.30582 0.49101 -0.28011
 H606 H 0.35700 0.55282 -0.43165
 H607 H 0.28513 0.49740 -0.36041
 H608 H 0.39551 0.56027 -0.38690
 H609 H 0.41794 0.55123 -0.31485
 H610 H 0.32563 0.49218 -0.20440
 H611 H 0.34826 0.48292 -0.13286
 H612 H 0.43367 0.53201 -0.27182
 H613 H 0.45387 0.51906 -0.20153
 H614 H 0.38659 0.48424 -0.09772
 C615 C 1.19102 0.65240 -0.30971
 C616 C 1.16552 0.64687 -0.30717
 C617 C 1.15658 0.65568 -0.35324
 C618 C 1.17211 0.66828 -0.40059
 C619 C 1.19730 0.67365 -0.40266
 C620 C 1.20659 0.66561 -0.35658
 C621 C 1.13208 0.65184 -0.35228
 C622 C 1.11603 0.63942 -0.30647
 C623 C 1.12366 0.62974 -0.25996
 C624 C 1.14855 0.63286 -0.26102
 C625 C 1.15524 0.62116 -0.21706
 C626 C 1.13807 0.60647 -0.17439
 C627 C 1.11386 0.60349 -0.17257
 C628 C 1.10671 0.61596 -0.21388
 C629 C 1.08264 0.61383 -0.20780
 C630 C 1.06554 0.59793 -0.16642
 C631 C 1.07179 0.58380 -0.12900
 C632 C 1.09643 0.58749 -0.13072
 H633 H 1.19960 0.64698 -0.27600
 H634 H 1.16473 0.67466 -0.43554
 H635 H 1.22579 0.66896 -0.35754
 H636 H 1.12518 0.65852 -0.38752
 H637 H 1.09728 0.63685 -0.31009
 H638 H 1.17339 0.62218 -0.21567
 H639 H 1.14380 0.59724 -0.14258
 H640 H 1.07632 0.62408 -0.23451
 H641 H 1.04696 0.59617 -0.16501
 H642 H 1.10173 0.57709 -0.10125
 C643 C 0.85086 0.53927 -0.34241
 C644 C 0.84400 0.52100 -0.29818
 C645 C 0.81919 0.49973 -0.29952
 C646 C 0.80204 0.49720 -0.34362
 C647 C 0.80975 0.51489 -0.38886
 C648 C 0.83420 0.53600 -0.38710
 C649 C 0.81213 0.48048 -0.25875
 C650 C 0.82962 0.48105 -0.21903
 C651 C 0.85479 0.50139 -0.21743
 C652 C 0.86152 0.52241 -0.25517
 C653 C 0.88578 0.54397 -0.24958
 C654 C 0.90379 0.54408 -0.21289
 C655 C 0.89838 0.52283 -0.18014
 C656 C 0.87370 0.50136 -0.18043
 C657 C 0.86944 0.48054 -0.14526
 C658 C 0.88916 0.48085 -0.11328
 C659 C 0.91369 0.50175 -0.11564
 C660 C 0.91787 0.52290 -0.14797
 H661 H 0.86947 0.55562 -0.34592
 H662 H 0.78347 0.48036 -0.34541
 H663 H 0.84067 0.54997 -0.42140
 H664 H 0.79314 0.46427 -0.25903
 H665 H 0.82283 0.46514 -0.19009
 H666 H 0.89152 0.56124 -0.27303
 H667 H 0.92241 0.56084 -0.21126
 H668 H 0.85131 0.46347 -0.14271
 H669 H 0.88529 0.46441 -0.08785
 H670 H 0.93662 0.53947 -0.14918
 C671 C 0.54436 0.34904 -0.31256
 C672 C 0.52333 0.35278 -0.30590
 C673 C 0.50366 0.34153 -0.34766
 C674 C 0.50589 0.32873 -0.39563
 C675 C 0.52678 0.32526 -0.40185
 C676 C 0.54591 0.33533 -0.35962
 C677 C 0.48178 0.34309 -0.34171
 C678 C 0.47878 0.35556 -0.29497
 C679 C 0.49802 0.36777 -0.25299
 C680 C 0.52107 0.36723 -0.25964
 C681 C 0.54133 0.38202 -0.22146
 C682 C 0.53932 0.39728 -0.17921
 C683 C 0.51674 0.39754 -0.17158
 C684 C 0.49542 0.38177 -0.20653
 C685 C 0.47234 0.38094 -0.19418
 C686 C 0.47128 0.39732 -0.15387
 C687 C 0.49297 0.41481 -0.12366
 C688 C 0.51546 0.41407 -0.13065
 H689 H 0.55968 0.35612 -0.28168
 H690 H 0.49081 0.32068 -0.42767
 H691 H 0.56239 0.33310 -0.36379
 H692 H 0.46671 0.33450 -0.37358
 H693 H 0.46151 0.35633 -0.29459
 H694 H 0.55949 0.38317 -0.22507
 H695 H 0.55568 0.40913 -0.15247
 H696 H 0.45475 0.36790 -0.21507
 H697 H 0.45339 0.39674 -0.14754
 H698 H 0.53224 0.42716 -0.10654
 C699 C 0.68719 0.15939 -0.31700
 C700 C 0.66113 0.15141 -0.31171
 C701 C 0.65061 0.16127 -0.35168
 C702 C 0.66508 0.17653 -0.39781
 C703 C 0.69069 0.18370 -0.40356
 C704 C 0.70166 0.17530 -0.36205
 C705 C 0.62557 0.15558 -0.34605
 C706 C 0.61056 0.14020 -0.30154
 C707 C 0.61977 0.12903 -0.26203
 C708 C 0.64515 0.13392 -0.26857
 C709 C 0.65326 0.12028 -0.23372
 C710 C 0.63706 0.10227 -0.19427
 C711 C 0.61257 0.09796 -0.18603
 C712 C 0.60398 0.11211 -0.21798
 C713 C 0.57979 0.10861 -0.20471
 C714 C 0.56427 0.09061 -0.16437
 C715 C 0.57219 0.07553 -0.13610
 C716 C 0.59643 0.07933 -0.14651
 H717 H 0.69698 0.15378 -0.28684
 H718 H 0.65646 0.18322 -0.42911
 H719 H 0.72127 0.18009 -0.36591
 H720 H 0.61745 0.16313 -0.37643
 H721 H 0.59131 0.13641 -0.30105
 H722 H 0.67175 0.12221 -0.23795
 H723 H 0.64383 0.09164 -0.16983
 H724 H 0.57238 0.11960 -0.22432
 H725 H 0.54553 0.08776 -0.15680
 H726 H 0.60266 0.06785 -0.12380
 C727 C 1.19052 0.53863 -0.31006
 C728 C 1.16659 0.51728 -0.29759
 C729 C 1.15855 0.49543 -0.33257
 C730 C 1.17291 0.49575 -0.38011
 C731 C 1.19612 0.51723 -0.39319
 C732 C 1.20500 0.53853 -0.35706
 C733 C 1.13589 0.47340 -0.32095
 C734 C 1.12052 0.47254 -0.27598
 C735 C 1.12690 0.49403 -0.24136
 C736 C 1.15014 0.51691 -0.25275
 C737 C 1.15550 0.53884 -0.22082
 C738 C 1.13840 0.53868 -0.18070
 C739 C 1.11561 0.51657 -0.16949
 C740 C 1.11007 0.49370 -0.19788
 C741 C 1.08747 0.47147 -0.18254
 C742 C 1.07003 0.47244 -0.14548
 C743 C 1.07456 0.49540 -0.12129
 C744 C 1.09791 0.51729 -0.13148
 H745 H 1.19854 0.55573 -0.28455
 H746 H 1.16601 0.47902 -0.40725
 H747 H 1.22267 0.55559 -0.36666
 H748 H 1.12978 0.45662 -0.34744
 H749 H 1.10311 0.45488 -0.27129
 H750 H 1.17238 0.55682 -0.22761
 H751 H 1.14293 0.55617 -0.15874
 H752 H 1.08250 0.45298 -0.19868
 H753 H 1.05255 0.45506 -0.13668
 H754 H 1.10179 0.53510 -0.11215
 C755 C 0.52131 0.68275 -0.32659
 C756 C 0.50057 0.66034 -0.30446
 C757 C 0.47600 0.65356 -0.32483
 C758 C 0.47282 0.66761 -0.36894
 C759 C 0.49375 0.68893 -0.39216
 C760 C 0.51786 0.69669 -0.36991
 C761 C 0.45482 0.63244 -0.30221
 C762 C 0.45737 0.61776 -0.25970
 C763 C 0.48144 0.62321 -0.23929
 C764 C 0.50341 0.64431 -0.26355
 C765 C 0.52746 0.64798 -0.24819
 C766 C 0.52999 0.63157 -0.21075
 C767 C 0.50881 0.61145 -0.18527
 C768 C 0.48429 0.60756 -0.19732
 C769 C 0.46365 0.58813 -0.16676
 C770 C 0.46715 0.57236 -0.12876
 C771 C 0.49115 0.57506 -0.12062
 C772 C 0.51199 0.59495 -0.14830
 H773 H 0.54043 0.69003 -0.31144
 H774 H 0.45412 0.66167 -0.38628
 H775 H 0.53422 0.71320 -0.38754
 H776 H 0.43601 0.62710 -0.31771
 H777 H 0.44008 0.60148 -0.24553
 H778 H 0.54479 0.66280 -0.26646
 H779 H 0.54879 0.63472 -0.20154
 H780 H 0.44461 0.58479 -0.17074
 H781 H 0.45075 0.55738 -0.10718
 H782 H 0.53073 0.59753 -0.14120
 C783 C 0.33616 -0.19982 -0.29868
 C784 C 0.34087 -0.17465 -0.29324
 C785 C 0.33041 -0.16590 -0.33613
 C786 C 0.31774 -0.18093 -0.38429
 C787 C 0.31396 -0.20547 -0.39030
 C788 C 0.32284 -0.21495 -0.34633
 C789 C 0.33303 -0.14195 -0.33166
 C790 C 0.34623 -0.12607 -0.28595
 C791 C 0.35807 -0.13324 -0.24337
 C792 C 0.35584 -0.15771 -0.24764
 C793 C 0.36964 -0.16384 -0.20800
 C794 C 0.38569 -0.14641 -0.16693
 C795 C 0.38798 -0.12252 -0.16225
 C796 C 0.37329 -0.11609 -0.19867
 C797 C 0.37486 -0.09242 -0.18965
 C798 C 0.39229 -0.07487 -0.15092
 C799 C 0.40855 -0.08028 -0.11888
 C800 C 0.40547 -0.10464 -0.12271
 H801 H 0.34254 -0.20834 -0.26692
 H802 H 0.31054 -0.17354 -0.41742
 H803 H 0.32048 -0.23373 -0.35006
 H804 H 0.32495 -0.13526 -0.36426
 H805 H 0.34780 -0.10768 -0.28696
 H806 H 0.36934 -0.18166 -0.20938
 H807 H 0.39667 -0.15159 -0.13898
 H808 H 0.36301 -0.08673 -0.21205
 H809 H 0.39343 -0.05661 -0.14723
 H810 H 0.41741 -0.10932 -0.09691
 C811 C 0.53969 -0.14553 0.33707
 C812 C 0.51810 -0.14932 0.30551
 C813 C 0.49477 -0.17162 0.31706
 C814 C 0.49299 -0.18819 0.36147
 C815 C 0.51428 -0.18312 0.39450
 C816 C 0.53765 -0.16207 0.38110
 C817 C 0.47315 -0.17681 0.28567
 C818 C 0.47386 -0.16002 0.24410
 C819 C 0.49626 -0.13692 0.23299
 C820 C 0.51873 -0.13146 0.26436
 C821 C 0.54080 -0.10782 0.25554
 C822 C 0.54082 -0.08984 0.21887
 C823 C 0.51909 -0.09476 0.18840
 C824 C 0.49671 -0.11862 0.19335
 C825 C 0.47566 -0.12289 0.15891
 C826 C 0.47653 -0.10380 0.12384
 C827 C 0.49820 -0.07978 0.12222
 C828 C 0.51960 -0.07563 0.15371
 H829 H 0.55838 -0.12981 0.32958
 H830 H 0.47483 -0.20448 0.37209
 H831 H 0.55431 -0.15799 0.40616
 H832 H 0.45532 -0.19392 0.29396
 H833 H 0.45616 -0.16534 0.22286
 H834 H 0.55832 -0.10213 0.27797
 H835 H 0.55804 -0.07170 0.21480
 H836 H 0.45823 -0.14075 0.15792
 H837 H 0.45994 -0.10777 0.09878
 H838 H 0.53674 -0.05732 0.15170
 C839 C 0.34142 0.53996 0.30273
 C840 C 0.34070 0.51673 0.29117
 C841 C 0.32631 0.49619 0.32916
 C842 C 0.31368 0.49908 0.37668
 C843 C 0.31525 0.52231 0.38804
 C844 C 0.32890 0.54263 0.35066
 C845 C 0.32503 0.47298 0.32050
 C846 C 0.33881 0.46990 0.27679
 C847 C 0.35448 0.49003 0.23955
 C848 C 0.35442 0.51341 0.24484
 C849 C 0.36835 0.53270 0.20416
 C850 C 0.38299 0.52985 0.16193
 C851 C 0.38482 0.50796 0.15924
 C852 C 0.37053 0.48768 0.19783
 C853 C 0.37385 0.46633 0.19487
 C854 C 0.39147 0.46579 0.15743
 C855 C 0.40613 0.48620 0.12070
 C856 C 0.40174 0.50670 0.11980
 H857 H 0.35209 0.55664 0.27677
 H858 H 0.30312 0.48341 0.40609
 H859 H 0.33036 0.56078 0.35939
 H860 H 0.31364 0.45710 0.34870
 H861 H 0.33665 0.45131 0.27327
 H862 H 0.36833 0.55035 0.20371
 H863 H 0.39370 0.54536 0.13228
 H864 H 0.36411 0.45018 0.22284
 H865 H 0.39410 0.44949 0.15862
 H866 H 0.41272 0.52250 0.09107
 C867 C 1.19179 0.64870 0.30444
 C868 C 1.17014 0.65052 0.28960
 C869 C 1.16474 0.66648 0.32431
 C870 C 1.17989 0.67924 0.37242
 C871 C 1.20055 0.67643 0.38735
 C872 C 1.20665 0.66143 0.35275
 C873 C 1.14386 0.66918 0.31189
 C874 C 1.12733 0.65547 0.26743
 C875 C 1.13095 0.63826 0.23341
 C876 C 1.15322 0.63645 0.24316
 C877 C 1.15744 0.62018 0.20708
 C878 C 1.13988 0.60508 0.16535
 C879 C 1.11735 0.60542 0.15792
 C880 C 1.11270 0.62230 0.19105
 C881 C 1.08939 0.62165 0.18208
 C882 C 1.07107 0.60403 0.14466
 C883 C 1.07535 0.58670 0.11398
 C884 C 1.09896 0.58817 0.11915
 H885 H 1.19742 0.63711 0.28070
 H886 H 1.17521 0.69087 0.39955
 H887 H 1.22257 0.65903 0.36409
 H888 H 1.13993 0.68170 0.33768
 H889 H 1.11168 0.65870 0.26130
 H890 H 1.17411 0.61842 0.21035
 H891 H 1.14370 0.59246 0.13965
 H892 H 1.08417 0.63378 0.20483
 H893 H 1.05310 0.60352 0.14103
 H894 H 1.10251 0.57489 0.09555
 C895 C 0.47796 0.15483 0.36054
 C896 C 0.49553 0.15741 0.31722
 C897 C 0.51945 0.17998 0.31723
 C898 C 0.52582 0.19826 0.36102
 C899 C 0.50854 0.19464 0.40482
 C900 C 0.48451 0.17309 0.40365
 C901 C 0.53714 0.18391 0.27451
 C902 C 0.53202 0.16566 0.23244
 C903 C 0.50899 0.14236 0.23197
 C904 C 0.49044 0.13817 0.27507
 C905 C 0.46784 0.11450 0.27605
 C906 C 0.46387 0.09525 0.23794
 C907 C 0.48191 0.09885 0.19646
 C908 C 0.50433 0.12269 0.19137
 C909 C 0.52137 0.12557 0.14650
 C910 C 0.51711 0.10518 0.11130
 C911 C 0.49579 0.08122 0.11933
 C912 C 0.47789 0.07842 0.16096
 H913 H 0.45907 0.13886 0.36291
 H914 H 0.54447 0.21500 0.36208
 H915 H 0.47088 0.17016 0.43713
 H916 H 0.55536 0.20119 0.27401
 H917 H 0.54699 0.17014 0.20193
 H918 H 0.45302 0.10981 0.30713
 H919 H 0.44655 0.07716 0.24155
 H920 H 0.53830 0.14322 0.13761
 H921 H 0.53107 0.10813 0.07870
 H922 H 0.46104 0.06011 0.16689
 C923 C 0.65031 0.46515 0.32253
 C924 C 0.65165 0.48707 0.29774
 C925 C 0.66956 0.51092 0.32142
 C926 C 0.68476 0.51249 0.36860
 C927 C 0.68230 0.49060 0.39378
 C928 C 0.66537 0.46699 0.37011
 C929 C 0.67168 0.53312 0.29927
 C930 C 0.65527 0.53225 0.25660
 C931 C 0.63600 0.50899 0.23413
 C932 C 0.63512 0.48614 0.25240
 C933 C 0.61742 0.46318 0.22557
 C934 C 0.59998 0.46228 0.18540
 C935 C 0.59910 0.48405 0.17117
 C936 C 0.61726 0.50778 0.19490
 C937 C 0.61508 0.52918 0.18068
 C938 C 0.59527 0.52688 0.14631
 C939 C 0.57711 0.50336 0.12404
 C940 C 0.57955 0.48209 0.13506
 H941 H 0.63716 0.44628 0.30778
 H942 H 0.69787 0.53075 0.38749
 H943 H 0.66325 0.44990 0.38969
 H944 H 0.68576 0.55140 0.31629
 H945 H 0.65824 0.55031 0.24215
 H946 H 0.61652 0.44543 0.23476
 H947 H 0.58650 0.44418 0.16667
 H948 H 0.62766 0.54785 0.19739
 H949 H 0.59390 0.54364 0.13802
 H950 H 0.56547 0.46379 0.11823
 C951 C 0.86004 0.31211 0.34643
 C952 C 0.85412 0.32729 0.31052
 C953 C 0.82982 0.32482 0.31663
 C954 C 0.81309 0.30911 0.35967
 C955 C 0.82011 0.29561 0.39701
 C956 C 0.84337 0.29678 0.38924
 C957 C 0.82271 0.33872 0.28126
 C958 C 0.83944 0.35577 0.24107
 C959 C 0.86429 0.35993 0.23522
 C960 C 0.87170 0.34534 0.27033
 C961 C 0.89676 0.35001 0.26588
 C962 C 0.91426 0.36878 0.23008
 C963 C 0.90750 0.38341 0.19642
 C964 C 0.88231 0.37884 0.19700
 C965 C 0.87647 0.39373 0.15982
 C966 C 0.89514 0.41295 0.12590
 C967 C 0.92024 0.41814 0.12813
 C968 C 0.92609 0.40290 0.16273
 H969 H 0.87757 0.31192 0.34359
 H970 H 0.79505 0.30825 0.36598
 H971 H 0.84896 0.28631 0.41774
 H972 H 0.80409 0.33673 0.28537
 H973 H 0.83249 0.36602 0.21642
 H974 H 0.90387 0.34000 0.29085
 H975 H 0.93345 0.37206 0.22926
 H976 H 0.85769 0.39106 0.15579
 H977 H 0.88993 0.42399 0.09845
 H978 H 0.94532 0.40627 0.16383
   
