data_POSCAR
  _audit_creation_date              2014-09-24
  _audit_creation_method            'ToBaCCo'
  _symmetry_space_group_name_H-M    'P1'
  _symmetry_Int_Tables_number       1
  _symmetry_cell_setting            triclinic
  loop_
  _symmetry_equiv_pos_as_xyz
 x,y,z
_cell_length_a 25.6749
_cell_length_b 25.5611
_cell_length_c 23.7359
_cell_angle_alpha 88.367500
_cell_angle_beta 90.566200
_cell_angle_gamma 90.467600
loop_
  _atom_site_label
  _atom_site_type_symbol
  _atom_site_fract_x
  _atom_site_fract_y
  _atom_site_fract_z
C1 C 0.20158 0.19546 0.23290
 N2 N 0.24765 0.17623 0.21593
 C3 C 0.27923 0.20404 0.17992
 N4 N 0.26405 0.25273 0.16122
 C5 C 0.21943 0.27366 0.18134
 N6 N 0.18850 0.24440 0.21595
 C7 C -0.19915 0.81178 0.24895
 N8 N -0.17512 0.76799 0.23258
 C9 C -0.19326 0.74051 0.18870
 N10 N -0.23603 0.75752 0.15989
 C11 C -0.26106 0.80149 0.17481
 N12 N -0.24176 0.82865 0.21936
 C13 C -0.18581 0.18534 -0.26452
 N14 N -0.15942 0.22602 -0.24178
 C15 C -0.17495 0.24694 -0.19310
 N16 N -0.21602 0.22578 -0.16530
 C17 C -0.24226 0.18399 -0.18543
 N18 N -0.22729 0.16450 -0.23587
 C19 C 0.19336 0.81476 -0.25683
 N20 N 0.17144 0.77039 -0.23485
 C21 C 0.19216 0.74673 -0.18827
 N22 N 0.23414 0.76818 -0.16271
 C23 C 0.25615 0.81332 -0.18261
 N24 N 0.23552 0.83633 -0.23053
 C25 C 0.18920 1.18844 0.75584
 N26 N 0.16975 1.23156 0.78034
 C27 C 0.19795 1.25604 0.82105
 N28 N 0.24585 1.23774 0.83623
 C29 C 0.26680 1.19719 0.80891
 N30 N 0.23797 1.17269 0.76963
 C31 C 0.80897 0.79403 0.73302
 N32 N 0.82982 0.75115 0.75955
 C33 C 0.81139 0.73328 0.81045
 N34 N 0.77390 0.76121 0.83649
 C35 C 0.75285 0.80397 0.80995
 N36 N 0.77031 0.81934 0.75875
 C37 C 0.18555 0.80409 1.26315
 N38 N 0.16545 0.75940 1.24109
 C39 C 0.18713 0.73835 1.19433
 N40 N 0.22717 0.76444 1.16809
 C41 C 0.24719 0.80888 1.18999
 N42 N 0.22600 0.82810 1.23671
 C43 C 0.79922 1.20478 1.26751
 N44 N 0.76321 1.17486 1.24108
 C45 C 0.74436 1.18773 1.18931
 N46 N 0.76040 1.23286 1.16310
 C47 C 0.79457 1.26540 1.18961
 N48 N 0.81474 1.25017 1.24104
 O49 O 0.56138 0.94523 0.90409
 O50 O 0.44933 0.94482 1.08714
 O51 O 0.58364 0.92541 1.01294
 O52 O 0.41816 0.93161 0.97429
 O53 O 0.54770 0.94071 1.09224
 O54 O 0.45872 0.94750 0.89453
 O55 O 0.37665 0.97889 1.04769
 O56 O 0.63290 0.97765 0.94601
 C57 C 0.61163 0.94935 0.90692
 C58 C 0.39902 0.94698 1.08440
 C59 C 0.57546 0.91200 1.06297
 C60 C 0.42528 0.92151 0.92322
 O61 O 0.46423 1.05196 0.89222
 O62 O 0.55235 1.04708 1.09140
 O63 O 0.59251 1.06421 0.97562
 O64 O 0.42018 1.06641 1.02151
 O65 O 0.45923 1.04842 1.09778
 O66 O 0.56045 1.04927 0.89449
 O67 O 0.39588 1.02194 0.93650
 O68 O 0.61756 1.00810 1.05728
 Co69 Co 0.51053 0.99835 0.90502
 Co70 Co 0.50297 0.99561 1.08402
 Co71 Co 0.58272 0.99528 0.99273
 Co72 Co 0.42689 0.99841 1.00100
 O73 O 0.50549 1.00075 0.99533
 C74 C 0.41612 1.05321 0.90129
 C75 C 0.60065 1.04080 1.09011
 C76 C 0.58930 1.07677 0.92476
 C77 C 0.42709 1.07574 1.07174
 O78 O 0.04959 0.45294 0.11655
 O79 O 0.06958 0.53717 -0.08437
 O80 O 0.06312 0.39643 -0.00328
 O81 O 0.07252 0.57220 0.03700
 O82 O 0.05932 0.43771 -0.08696
 O83 O 0.04257 0.54897 0.11434
 O84 O 0.03182 0.60353 -0.04862
 O85 O 0.06393 0.40414 0.04371
 C86 C 0.07749 0.41973 0.09290
 C87 C 0.06657 0.58577 -0.07986
 C88 C 0.07834 0.40142 -0.05548
 C89 C 0.07810 0.57146 0.08836
 O90 O -0.05763 0.54533 0.08885
 O91 O -0.04297 0.44850 -0.09722
 O92 O -0.07513 0.41802 0.02831
 O93 O -0.06090 0.57692 -0.01894
 O94 O -0.03382 0.54758 -0.09908
 O95 O -0.05325 0.44557 0.10775
 O96 O -0.01729 0.61873 0.05857
 O97 O -0.01809 0.38298 -0.04343
 Co98 Co -0.00408 0.49754 0.09677
 Co99 Co 0.01265 0.49284 -0.08359
 Co100 Co -0.00435 0.41375 0.02399
 Co101 Co 0.00466 0.56882 0.01303
 O102 O 0.00557 0.49172 0.00602
 C103 C -0.05342 0.59552 0.08945
 C104 C -0.04465 0.40053 -0.08475
 C105 C -0.08699 0.42363 0.07791
 C106 C -0.06555 0.57480 -0.07167
 O107 O 1.08376 0.07880 0.44092
 O108 O 0.89681 0.03064 0.54248
 O109 O 0.96287 0.07361 0.40638
 O110 O 1.04576 0.02886 0.61454
 O111 O 0.89673 0.03606 0.44091
 O112 O 1.08235 0.07438 0.54690
 O113 O 0.96355 0.06362 0.57943
 O114 O 1.04508 0.04288 0.36962
 C115 C 1.07636 0.07601 0.38860
 C116 C 0.91626 0.06625 0.57086
 C117 C 0.91607 0.07529 0.41651
 C118 C 1.07571 0.06530 0.59861
 O119 O 1.10176 -0.02868 0.54701
 O120 O 0.93531 -0.06049 0.43431
 O121 O 1.03027 -0.05128 0.39624
 O122 O 0.95073 -0.02981 0.62554
 O123 O 0.93417 -0.06715 0.54332
 O124 O 1.10216 -0.02401 0.43780
 O125 O 1.02883 -0.06244 0.58022
 O126 O 0.94955 -0.01456 0.35479
 Co127 Co 1.08541 0.02395 0.49303
 Co128 Co 0.92333 -0.01347 0.49018
 Co129 Co 0.99314 0.00987 0.40785
 Co130 Co 0.99304 0.00018 0.57369
 O131 O 1.00432 0.01082 0.49137
 C132 C 1.07790 -0.06405 0.57593
 C133 C 0.92523 -0.05298 0.38156
 C134 C 1.07931 -0.05443 0.40364
 C135 C 0.92502 -0.06482 0.59647
 C136 C 1.16045 0.10580 0.34973
 C137 C 1.19088 0.13213 0.30961
 C138 C 1.16829 0.16558 0.26833
 C139 C 1.11276 0.16907 0.26541
 C140 C 1.08195 0.14149 0.30610
 C141 C 1.10617 0.10996 0.34875
 C142 C 1.02749 0.14607 0.30245
 N143 N 1.00514 0.17445 0.25984
 N144 N 1.03361 0.19811 0.22003
 C145 C 1.08632 0.19590 0.22087
 H146 H 1.17953 0.08097 0.38126
 H147 H 1.23279 0.12798 0.31267
 H148 H 1.00240 0.12721 0.33276
 H149 H 1.10633 0.21354 0.18535
 C150 C 0.85348 -0.06974 0.31485
 C151 C 0.81999 -0.10258 0.28545
 C152 C 0.82492 -0.15729 0.29021
 C153 C 0.86047 -0.17869 0.33119
 C154 C 0.89562 -0.14524 0.35973
 C155 C 0.89211 -0.09027 0.35094
 C156 C 0.93369 -0.16838 0.39547
 N157 N 0.93331 -0.22079 0.40568
 N158 N 0.89762 -0.25171 0.38258
 C159 C 0.86106 -0.23252 0.34619
 H160 H 0.84953 -0.02775 0.30890
 H161 H 0.79273 -0.08469 0.25571
 H162 H 0.96406 -0.14578 0.41523
 H163 H 0.83200 -0.25944 0.33064
 C164 C 0.91203 0.14059 0.63469
 C165 C 0.88732 0.16911 0.67527
 C166 C 0.83383 0.16249 0.68620
 C167 C 0.80366 0.13232 0.64782
 C168 C 0.82903 0.10463 0.60438
 C169 C 0.88451 0.10519 0.60136
 C170 C 0.79756 0.07888 0.56468
 N171 N 0.74502 0.07934 0.56904
 N172 N 0.72145 0.10478 0.60954
 C173 C 0.74875 0.13170 0.64846
 H174 H 0.95401 0.14428 0.63183
 H175 H 0.91190 0.19327 0.70146
 H176 H 0.81341 0.06026 0.52863
 H177 H 0.72678 0.15423 0.67748
 C178 C 1.08435 -0.12175 0.66080
 C179 C 1.11283 -0.14868 0.70217
 C180 C 1.16618 -0.15742 0.69600
 C181 C 1.19055 -0.14156 0.64496
 C182 C 1.16109 -0.11528 0.60167
 C183 C 1.10787 -0.10295 0.61099
 C184 C 1.18593 -0.10346 0.55019
 N185 N 1.23685 -0.11530 0.54358
 N186 N 1.26459 -0.13866 0.58462
 C187 C 1.24317 -0.15240 0.63492
 H188 H 1.04404 -0.11317 0.66950
 H189 H 1.09324 -0.16119 0.74054
 H190 H 1.16524 -0.08666 0.51436
 H191 H 1.26729 -0.17236 0.66616
 C192 C 0.37571 1.15858 1.07662
 C193 C 0.34132 1.19167 1.10391
 C194 C 0.32419 1.17964 1.15902
 C195 C 0.34774 1.13693 1.18897
 C196 C 0.37818 1.10063 1.15994
 C197 C 0.39360 1.11222 1.10315
 C198 C 0.39029 1.05313 1.18903
 N199 N 0.38038 1.04696 1.24479
 N200 N 0.35827 1.08450 1.27361
 C201 C 0.34199 1.12937 1.24774
 H202 H 0.38702 1.16837 1.03374
 H203 H 0.32534 1.22470 1.08014
 H204 H 0.40617 1.02004 1.16859
 H205 H 0.32513 1.15896 1.27345
 C206 C 0.37230 0.89842 0.84023
 C207 C 0.32887 0.87459 0.81620
 C208 C 0.29943 0.83623 0.84590
 C209 C 0.31618 0.82179 0.90237
 C210 C 0.36314 0.84361 0.92449
 C211 C 0.38921 0.88462 0.89482
 C212 C 0.38240 0.82434 0.97661
 N213 N 0.35391 0.78973 1.00778
 N214 N 0.30724 0.77364 0.99052
 C215 C 0.28707 0.78897 0.93976
 H216 H 0.39132 0.92996 0.81665
 H217 H 0.31819 0.88709 0.77367
 H218 H 0.42011 0.83623 0.99259
 H219 H 0.24770 0.77678 0.93149
 C220 C 0.61988 0.87889 1.14837
 C221 C 0.66215 0.85467 1.17406
 C222 C 0.69408 0.82010 1.14511
 C223 C 0.67888 0.80703 1.08849
 C224 C 0.63441 0.83184 1.06300
 C225 C 0.60749 0.87090 1.09178
 C226 C 0.61810 0.81700 1.00907
 N227 N 0.64594 0.78191 0.98056
 N228 N 0.68930 0.76118 1.00214
 C229 C 0.70702 0.77278 1.05435
 H230 H 0.59936 0.90762 1.17226
 H231 H 0.67026 0.86444 1.21741
 H232 H 0.58283 0.83221 0.98974
 H233 H 0.74326 0.75525 1.06670
 C234 C 0.63546 1.10934 0.84011
 C235 C 0.67892 1.13169 0.81449
 C236 C 0.71517 1.16157 0.84484
 C237 C 0.70555 1.16907 0.90375
 C238 C 0.65894 1.14867 0.92855
 C239 C 0.62586 1.11522 0.89764
 C240 C 0.64735 1.16178 0.98415
 N241 N 0.68253 1.18848 1.01518
 N242 N 0.72865 1.20243 0.99450
 C243 C 0.74167 1.19301 0.94056
 H244 H 0.61075 1.08448 0.81484
 H245 H 0.68391 1.12503 0.77001
 H246 H 0.61031 1.15188 1.00297
 H247 H 0.78093 1.20252 0.92879
 C248 C 0.16219 0.37526 0.08525
 C249 C 0.19851 0.33920 0.10600
 C250 C 0.20012 0.32590 0.16335
 C251 C 0.17068 0.35552 0.20111
 C252 C 0.13121 0.38967 0.18020
 C253 C 0.12480 0.39691 0.12070
 C254 C 0.09897 0.41296 0.22018
 N255 N 0.10812 0.40507 0.27613
 N256 N 0.14672 0.37490 0.29532
 C257 C 0.17822 0.34984 0.25975
 H258 H 0.16045 0.38263 0.04016
 H259 H 0.22162 0.31798 0.07643
 H260 H 0.06680 0.43763 0.20884
 H261 H 0.20919 0.32586 0.27747
 C262 C -0.09443 0.31802 -0.08745
 C263 C -0.12657 0.28147 -0.11258
 C264 C -0.14442 0.28931 -0.16785
 C265 C -0.13058 0.33562 -0.19827
 C266 C -0.09684 0.37296 -0.17320
 C267 C -0.07870 0.36401 -0.11655
 C268 C -0.08223 0.41700 -0.20668
 N269 N -0.10184 0.42405 -0.25957
 N270 N -0.13501 0.39003 -0.28186
 C271 C -0.15011 0.34615 -0.25304
 H272 H -0.08176 0.30996 -0.04443
 H273 H -0.13655 0.24601 -0.08891
 H274 H -0.05521 0.44586 -0.19257
 H275 H -0.17765 0.32030 -0.27312
 C276 C 0.11000 0.67191 -0.08476
 C277 C 0.14049 0.71071 -0.11015
 C278 C 0.16496 0.70218 -0.16119
 C279 C 0.16099 0.65278 -0.18600
 C280 C 0.13098 0.61213 -0.15952
 C281 C 0.10365 0.62259 -0.10875
 C282 C 0.12941 0.56335 -0.18592
 N283 N 0.15534 0.55647 -0.23462
 N284 N 0.18300 0.59480 -0.25917
 C285 C 0.18676 0.64267 -0.23651
 H286 H 0.09062 0.68106 -0.04596
 H287 H 0.14356 0.74847 -0.09068
 H288 H 0.10890 0.53001 -0.16895
 H289 H 0.21022 0.67225 -0.25795
 C290 C -0.07354 0.67395 0.14052
 C291 C -0.10696 0.70871 0.16481
 C292 C -0.16060 0.69874 0.16679
 C293 C -0.18074 0.65133 0.14575
 C294 C -0.14660 0.61562 0.12024
 C295 C -0.09231 0.62772 0.11741
 C296 C -0.16871 0.57003 0.09758
 N297 N -0.22047 0.56025 0.10247
 N298 N -0.25191 0.59290 0.12815
 C299 C -0.23385 0.63802 0.14999
 H300 H -0.03238 0.68371 0.13922
 H301 H -0.09067 0.74473 0.18070
 H302 H -0.14624 0.54198 0.07552
 H303 H -0.26114 0.66253 0.17109
 C304 C 1.09718 0.14994 0.64252
 C305 C 1.12296 0.17991 0.68272
 C306 C 1.15787 0.15657 0.72166
 C307 C 1.16242 0.10085 0.72350
 C308 C 1.13750 0.07095 0.68163
 C309 C 1.10457 0.09575 0.64094
 C310 C 1.14651 0.01673 0.68185
 N311 N 1.17452 -0.00663 0.72398
 N312 N 1.19405 0.02066 0.76619
 C313 C 1.18845 0.07324 0.76785
 H314 H 1.07135 0.16922 0.61227
 H315 H 1.11764 0.22194 0.68129
 H316 H 1.13164 -0.00729 0.64908
 H317 H 1.20289 0.09227 0.80493
 C318 C 0.91595 -0.15026 0.64760
 C319 C 0.88686 -0.18772 0.67803
 C320 C 0.83314 -0.18078 0.68632
 C321 C 0.80771 -0.13961 0.65545
 C322 C 0.83766 -0.09984 0.62838
 C323 C 0.89234 -0.10499 0.62507
 C324 C 0.81156 -0.05570 0.60619
 N325 N 0.75882 -0.05417 0.60573
 N326 N 0.73039 -0.09381 0.62652
 C327 C 0.75297 -0.13658 0.65097
 H328 H 0.95759 -0.15544 0.64388
 H329 H 0.90756 -0.21949 0.69923
 H330 H 0.83254 -0.02244 0.58959
 H331 H 0.72799 -0.16813 0.66606
 C332 C 1.08304 -0.13616 0.34840
 C333 C 1.10860 -0.17331 0.31664
 C334 C 1.16261 -0.17029 0.30881
 C335 C 1.19158 -0.13336 0.34052
 C336 C 1.16574 -0.09266 0.36840
 C337 C 1.11018 -0.09429 0.37309
 C338 C 1.19732 -0.05160 0.38891
 N339 N 1.24992 -0.05557 0.38929
 N340 N 1.27363 -0.09715 0.36955
 C341 C 1.24631 -0.13619 0.34545
 H342 H 1.04110 -0.13912 0.35162
 H343 H 1.08525 -0.20183 0.29454
 H344 H 1.18203 -0.01551 0.40317
 H345 H 1.26758 -0.16942 0.33071
 C346 C 0.83257 0.10298 0.37469
 C347 C 0.80368 0.13530 0.33881
 C348 C 0.82370 0.18351 0.31733
 C349 C 0.87031 0.20318 0.34327
 C350 C 0.90010 0.16927 0.37994
 C351 C 0.88262 0.11734 0.39181
 C352 C 0.94594 0.18885 0.40476
 N353 N 0.96134 0.23882 0.39365
 N354 N 0.93356 0.27077 0.36016
 C355 C 0.88867 0.25498 0.33506
 H356 H 0.81698 0.06446 0.38538
 H357 H 0.76654 0.11984 0.32466
 H358 H 0.96913 0.16537 0.43392
 H359 H 0.86719 0.28425 0.31159
 C360 C 0.13208 0.37563 -0.13587
 C361 C 0.15891 0.34001 -0.16763
 C362 C 0.17315 0.29142 -0.14457
 C363 C 0.15844 0.27748 -0.08853
 C364 C 0.12760 0.31229 -0.05700
 C365 C 0.11482 0.36301 -0.08088
 C366 C 0.10927 0.29316 -0.00420
 N367 N 0.12301 0.24517 0.01619
 N368 N 0.15271 0.21357 -0.01282
 C369 C 0.17034 0.22773 -0.06451
 H370 H 0.12297 0.41307 -0.15596
 H371 H 0.16938 0.35096 -0.21054
 H372 H 0.08377 0.31421 0.02182
 H373 H 0.19246 0.19919 -0.08659
 C374 C -0.15227 0.35095 0.07495
 C375 C -0.18084 0.31156 0.10288
 C376 C -0.18714 0.31163 0.16173
 C377 C -0.17235 0.35767 0.19061
 C378 C -0.14528 0.39889 0.16139
 C379 C -0.13081 0.39306 0.10429
 C380 C -0.13465 0.44525 0.19015
 N381 N -0.14906 0.44958 0.24456
 N382 N -0.17420 0.41109 0.27198
 C383 C -0.18679 0.36569 0.24684
 H384 H -0.14369 0.34620 0.03082
 H385 H -0.19339 0.27824 0.07884
 H386 H -0.11713 0.47902 0.16937
 H387 H -0.20983 0.33741 0.27054
 C388 C -0.08036 0.64155 -0.14600
 C389 C -0.10967 0.67989 -0.17374
 C390 C -0.16203 0.68827 -0.16005
 C391 C -0.18559 0.65455 -0.11842
 C392 C -0.15486 0.61606 -0.08914
 C393 C -0.10168 0.61029 -0.10269
 C394 C -0.17891 0.58321 -0.04856
 N395 N -0.23034 0.58829 -0.03798
 N396 N -0.25941 0.62350 -0.06583
 C397 C -0.23906 0.65634 -0.10590
 H398 H -0.03971 0.63778 -0.15705
 H399 H -0.09028 0.70432 -0.20525
 H400 H -0.15760 0.55274 -0.02614
 H401 H -0.26553 0.68208 -0.12839
 C402 C 0.14217 0.64532 0.08612
 C403 C 0.16772 0.68667 0.11225
 C404 C 0.16717 0.69156 0.17123
 C405 C 0.14690 0.64880 0.20444
 C406 C 0.12299 0.60535 0.17753
 C407 C 0.11684 0.60574 0.11776
 C408 C 0.10751 0.56204 0.21152
 N409 N 0.11405 0.56259 0.26816
 N410 N 0.13606 0.60308 0.29334
 C411 C 0.15320 0.64572 0.26360
 H412 H 0.13976 0.64607 0.04054
 H413 H 0.18439 0.71733 0.08540
 H414 H 0.09256 0.52664 0.19375
 H415 H 0.17356 0.67539 0.28672
 C416 C 0.35081 1.12204 0.91023
 C417 C 0.31696 1.15984 0.88865
 C418 C 0.31395 1.17066 0.83062
 C419 C 0.34889 1.14579 0.79423
 C420 C 0.38317 1.10684 0.81614
 C421 C 0.38336 1.09438 0.87473
 C422 C 0.41418 1.08017 0.77802
 N423 N 0.41272 1.09358 0.72234
 N424 N 0.38200 1.13154 0.70212
 C425 C 0.35001 1.15804 0.73610
 H426 H 0.35041 1.11330 0.95511
 H427 H 0.29032 1.17794 0.91721
 H428 H 0.43893 1.04838 0.79158
 H429 H 0.32613 1.18876 0.71752
 C430 C 0.31555 0.92665 1.12891
 C431 C 0.27816 0.89323 1.15182
 C432 C 0.28844 0.84013 1.16170
 C433 C 0.33843 0.82060 1.14955
 C434 C 0.37716 0.85480 1.12591
 C435 C 0.36503 0.90859 1.11492
 C436 C 0.42591 0.83313 1.11347
 N437 N 0.43526 0.78183 1.12532
 N438 N 0.39939 0.75045 1.14861
 C439 C 0.35139 0.76806 1.16119
 H440 H 0.30534 0.96737 1.12158
 H441 H 0.24047 0.90914 1.16188
 H442 H 0.45679 0.85549 1.09394
 H443 H 0.32401 0.74078 1.18034
 C444 C 0.62371 1.12836 1.12555
 C445 C 0.65947 1.16483 1.14586
 C446 C 0.70999 1.14972 1.16122
 C447 C 0.72470 1.09661 1.15648
 C448 C 0.68789 1.05920 1.13753
 C449 C 0.63740 1.07569 1.12001
 C450 C 0.70282 1.00622 1.13798
 N451 N 0.75202 0.99252 1.15299
 N452 N 0.78735 1.02804 1.16783
 C453 C 0.77550 1.07950 1.16993
 H454 H 0.58542 1.14182 1.11251
 H455 H 0.64745 1.20503 1.15020
 H456 H 0.67582 0.97530 1.12781
 H457 H 0.80608 1.10649 1.18168
 C458 C 0.63176 0.86181 0.87001
 C459 C 0.66748 0.82528 0.85131
 C460 C 0.71867 0.84043 0.83881
 C461 C 0.73405 0.89351 0.84442
 C462 C 0.69729 0.93085 0.86094
 C463 C 0.64630 0.91441 0.87613
 C464 C 0.71279 0.98389 0.86098
 N465 N 0.76256 0.99772 0.84876
 N466 N 0.79790 0.96221 0.83624
 C467 C 0.78548 0.91068 0.83384
 H468 H 0.59299 0.84854 0.88137
 H469 H 0.65493 0.78516 0.84586
 H470 H 0.68573 1.01461 0.86972
 H471 H 0.81606 0.88368 0.82405
   
