data_POSCAR
  _audit_creation_date              2014-09-24
  _audit_creation_method            'ToBaCCo'
  _symmetry_space_group_name_H-M    'P1'
  _symmetry_Int_Tables_number       1
  _symmetry_cell_setting            triclinic
  loop_
  _symmetry_equiv_pos_as_xyz
 x,y,z
_cell_length_a 65.9044
_cell_length_b 66.0190
_cell_length_c 19.7749
_cell_angle_alpha 89.966000
_cell_angle_beta 90.020800
_cell_angle_gamma 119.972400
loop_
  _atom_site_label
  _atom_site_type_symbol
  _atom_site_fract_x
  _atom_site_fract_y
  _atom_site_fract_z
C1 C 0.24345 0.48811 0.53058
 C2 C 0.24354 0.48846 0.46181
 C3 C 0.22394 0.48778 0.42354
 C4 C 0.26299 0.48921 0.42206
 C5 C 0.26201 0.48683 0.56916
 C6 C 0.22463 0.48860 0.57023
 C7 C 0.20302 0.46665 0.41447
 C8 C 0.18429 0.46616 0.37984
 C9 C 0.18583 0.48702 0.35532
 C10 C 0.20713 0.50820 0.36479
 C11 C 0.22606 0.50844 0.39737
 C12 C 0.25843 0.47168 0.37455
 C13 C 0.27680 0.47181 0.33881
 C14 C 0.30009 0.48953 0.34992
 C15 C 0.30450 0.50743 0.39630
 C16 C 0.28612 0.50735 0.43158
 C17 C 0.27860 0.50640 0.60526
 C18 C 0.29698 0.50581 0.63866
 C19 C 0.29860 0.48538 0.63814
 C20 C 0.28150 0.46555 0.60367
 C21 C 0.26346 0.46636 0.56877
 C22 C 0.22085 0.50766 0.56534
 C23 C 0.20258 0.50767 0.60099
 C24 C 0.18798 0.48879 0.64327
 C25 C 0.19233 0.47008 0.64980
 C26 C 0.21051 0.47001 0.61357
 H27 H 0.20122 0.45054 0.43438
 H28 H 0.16842 0.44942 0.37406
 H29 H 0.20942 0.52469 0.34659
 H30 H 0.24222 0.52488 0.40386
 H31 H 0.24070 0.45760 0.36612
 H32 H 0.27277 0.45780 0.30337
 H33 H 0.28994 0.52140 0.46668
 H34 H 0.27764 0.52231 0.60600
 H35 H 0.30985 0.52127 0.66523
 H36 H 0.28242 0.44963 0.60231
 H37 H 0.25069 0.45110 0.54119
 H38 H 0.23205 0.52252 0.53384
 H39 H 0.19993 0.52250 0.59548
 H40 H 0.18147 0.45530 0.68203
 H41 H 0.21333 0.45525 0.61845
 H42 H 0.32218 0.52149 0.40555
 C43 C 0.50501 -0.24788 0.53628
 C44 C 0.50749 -0.24685 0.46759
 C45 C 0.51028 -0.26463 0.42864
 C46 C 0.50737 -0.22767 0.42838
 C47 C 0.50607 -0.22805 0.57438
 C48 C 0.50237 -0.26800 0.57698
 C49 C 0.52605 -0.27188 0.44965
 C50 C 0.52712 -0.28988 0.41569
 C51 C 0.51326 -0.30019 0.35819
 C52 C 0.49860 -0.29196 0.33458
 C53 C 0.49699 -0.27447 0.36981
 C54 C 0.52609 -0.21357 0.38529
 C55 C 0.52641 -0.19501 0.35019
 C56 C 0.50798 -0.19023 0.35761
 C57 C 0.48896 -0.20481 0.39947
 C58 C 0.48856 -0.22346 0.43395
 C59 C 0.48615 -0.23069 0.60780
 C60 C 0.48694 -0.21177 0.64192
 C61 C 0.50788 -0.19018 0.64484
 C62 C 0.52798 -0.18780 0.61281
 C63 C 0.52702 -0.20655 0.57726
 C64 C 0.51717 -0.26398 0.63245
 C65 C 0.51615 -0.28267 0.66830
 C66 C 0.50030 -0.30595 0.64944
 C67 C 0.48475 -0.30986 0.59548
 C68 C 0.48565 -0.29108 0.56012
 H69 H 0.53722 -0.26395 0.49319
 H70 H 0.53887 -0.29566 0.43412
 H71 H 0.48779 -0.29962 0.29022
 H72 H 0.48493 -0.26899 0.35200
 H73 H 0.54066 -0.21668 0.37985
 H74 H 0.54129 -0.18418 0.31821
 H75 H 0.47363 -0.23454 0.46545
 H76 H 0.46989 -0.24725 0.60618
 H77 H 0.47125 -0.21408 0.66657
 H78 H 0.54431 -0.17132 0.61408
 H79 H 0.54258 -0.20434 0.55200
 H80 H 0.53008 -0.24632 0.64679
 H81 H 0.52830 -0.27875 0.70976
 H82 H 0.47204 -0.32743 0.57974
 H83 H 0.47366 -0.29457 0.51850
 H84 H 0.47433 -0.20183 0.40566
 C85 C 1.24834 0.75287 0.53630
 C86 C 1.24843 0.75336 0.46748
 C87 C 1.26775 0.77257 0.42871
 C88 C 1.22868 0.73516 0.42795
 C89 C 1.22941 0.73326 0.57512
 C90 C 1.26669 0.77256 0.57563
 C91 C 1.26287 0.78576 0.38281
 C92 C 1.28098 0.80425 0.34725
 C93 C 1.30448 0.81004 0.35703
 C94 C 1.30915 0.79629 0.40207
 C95 C 1.29096 0.77763 0.43683
 C96 C 1.20678 0.73385 0.42852
 C97 C 1.18801 0.71623 0.39249
 C98 C 1.19078 0.69941 0.35664
 C99 C 1.21280 0.70088 0.35590
 C100 C 1.23171 0.71887 0.39044
 C101 C 1.22382 0.71007 0.56341
 C102 C 1.20519 0.69163 0.59758
 C103 C 1.19196 0.69598 0.64545
 C104 C 1.19830 0.71940 0.65885
 C105 C 1.21677 0.73777 0.62400
 C106 C 1.28484 0.77052 0.60556
 C107 C 1.30302 0.78957 0.63912
 C108 C 1.30292 0.81079 0.64567
 C109 C 1.28404 0.81232 0.61754
 C110 C 1.26632 0.79349 0.58198
 H111 H 1.24503 0.78198 0.37530
 H112 H 1.27650 0.81421 0.31294
 H113 H 1.32685 0.79982 0.41057
 H114 H 1.29502 0.76714 0.47018
 H115 H 1.20425 0.74642 0.45710
 H116 H 1.17118 0.71541 0.39402
 H117 H 1.24857 0.71975 0.38947
 H118 H 1.23380 0.70623 0.52741
 H119 H 1.20121 0.67398 0.58620
 H120 H 1.18878 0.72364 0.69544
 H121 H 1.22088 0.75553 0.63425
 H122 H 1.28525 0.75437 0.60118
 H123 H 1.31703 0.78750 0.66039
 H124 H 1.28321 0.82825 0.62122
 H125 H 1.25231 0.79523 0.55921
 H126 H 1.21540 0.68820 0.32827
 C127 C 0.75543 0.51105 0.53528
 C128 C 0.75537 0.51152 0.46650
 C129 C 0.77505 0.51295 0.42682
 C130 C 0.73587 0.51111 0.42791
 C131 C 0.73680 0.51193 0.57459
 C132 C 0.77430 0.51022 0.57407
 C133 C 0.79705 0.53337 0.42761
 C134 C 0.81579 0.53429 0.39182
 C135 C 0.81287 0.51462 0.35604
 C136 C 0.79074 0.49428 0.35499
 C137 C 0.77188 0.49359 0.38927
 C138 C 0.74029 0.52954 0.38395
 C139 C 0.72193 0.52953 0.34850
 C140 C 0.69880 0.51105 0.35639
 C141 C 0.69455 0.49235 0.39936
 C142 C 0.71294 0.49229 0.43426
 C143 C 0.71859 0.49145 0.60279
 C144 C 0.70015 0.49188 0.63627
 C145 C 0.70002 0.51304 0.64443
 C146 C 0.71895 0.53373 0.61801
 C147 C 0.73696 0.53308 0.58255
 C148 C 0.77968 0.49247 0.56243
 C149 C 0.79815 0.49238 0.59687
 C150 C 0.81142 0.50984 0.64491
 C151 C 0.80530 0.52711 0.65814
 C152 C 0.78698 0.52727 0.62305
 H153 H 0.79969 0.54847 0.45626
 H154 H 0.83270 0.55014 0.39358
 H155 H 0.78803 0.47895 0.32741
 H156 H 0.75495 0.47774 0.38817
 H157 H 0.75792 0.54412 0.37793
 H158 H 0.72583 0.54418 0.31571
 H159 H 0.70929 0.47754 0.46627
 H160 H 0.71835 0.47501 0.59714
 H161 H 0.68611 0.47559 0.65618
 H162 H 0.71961 0.55038 0.62296
 H163 H 0.75101 0.54904 0.56108
 H164 H 0.76965 0.47872 0.52633
 H165 H 0.80196 0.47858 0.58556
 H166 H 0.81488 0.54080 0.69485
 H167 H 0.78299 0.54103 0.63325
 H168 H 0.67701 0.47768 0.40595
 C169 C 0.49491 0.24694 0.53762
 C170 C 0.49220 0.24603 0.46905
 C171 C 0.48934 0.26388 0.43061
 C172 C 0.49211 0.22687 0.42936
 C173 C 0.49400 0.22704 0.57485
 C174 C 0.49760 0.26694 0.57895
 C175 C 0.47372 0.27122 0.45239
 C176 C 0.47254 0.28920 0.41860
 C177 C 0.48612 0.29940 0.36056
 C178 C 0.50064 0.29111 0.33631
 C179 C 0.50238 0.27364 0.37133
 C180 C 0.47282 0.21224 0.38878
 C181 C 0.47245 0.19378 0.35302
 C182 C 0.49139 0.18965 0.35731
 C183 C 0.51095 0.20477 0.39666
 C184 C 0.51139 0.22332 0.43173
 C185 C 0.51452 0.22870 0.60101
 C186 C 0.51378 0.20956 0.63368
 C187 C 0.49231 0.18865 0.64308
 C188 C 0.47167 0.18747 0.61831
 C189 C 0.47259 0.20636 0.58369
 C190 C 0.51428 0.29006 0.56228
 C191 C 0.51516 0.30877 0.59798
 C192 C 0.49963 0.30473 0.65206
 C193 C 0.48384 0.28142 0.67079
 C194 C 0.48285 0.26280 0.63462
 H195 H 0.46274 0.26334 0.49629
 H196 H 0.46090 0.29503 0.43754
 H197 H 0.51124 0.29868 0.29153
 H198 H 0.51431 0.26809 0.35292
 H199 H 0.45790 0.21489 0.38578
 H200 H 0.45716 0.18251 0.32302
 H201 H 0.52675 0.23487 0.46108
 H202 H 0.53116 0.24465 0.59470
 H203 H 0.53006 0.21134 0.65225
 H204 H 0.45478 0.17178 0.62418
 H205 H 0.45660 0.20493 0.56390
 H206 H 0.52622 0.29364 0.52048
 H207 H 0.52782 0.32636 0.58233
 H208 H 0.47172 0.27741 0.71235
 H209 H 0.46997 0.24512 0.64885
 H210 H 0.52597 0.20231 0.40034
 C211 C 0.75451 0.24716 0.53441
 C212 C 0.75271 0.24828 0.46584
 C213 C 0.73383 0.22842 0.42804
 C214 C 0.76991 0.26848 0.42485
 C215 C 0.77529 0.26488 0.57309
 C216 C 0.73531 0.22791 0.57377
 C217 C 0.73338 0.20699 0.42456
 C218 C 0.71551 0.18821 0.38936
 C219 C 0.69756 0.19046 0.35824
 C220 C 0.69809 0.21198 0.36176
 C221 C 0.71631 0.23094 0.39556
 C222 C 0.78064 0.26459 0.36900
 C223 C 0.79815 0.28338 0.33301
 C224 C 0.80531 0.30652 0.35201
 C225 C 0.79384 0.31038 0.40623
 C226 C 0.77615 0.29152 0.44194
 C227 C 0.77212 0.27385 0.63404
 C228 C 0.79133 0.29113 0.66948
 C229 C 0.81423 0.30035 0.64384
 C230 C 0.81738 0.29074 0.58387
 C231 C 0.79822 0.27278 0.55010
 C232 C 0.71231 0.22384 0.56932
 C233 C 0.69412 0.20516 0.60389
 C234 C 0.69861 0.19040 0.64476
 C235 C 0.72181 0.19503 0.65111
 C236 C 0.73999 0.21363 0.61588
 H237 H 0.74690 0.20487 0.44909
 H238 H 0.71546 0.17179 0.38760
 H239 H 0.68454 0.21419 0.33782
 H240 H 0.71652 0.24744 0.39765
 H241 H 0.77601 0.24697 0.35458
 H242 H 0.80650 0.27973 0.29137
 H243 H 0.76773 0.29490 0.48400
 H244 H 0.75467 0.26780 0.65363
 H245 H 0.78806 0.29785 0.71565
 H246 H 0.83470 0.29685 0.56316
 H247 H 0.80133 0.26538 0.50515
 H248 H 0.70843 0.23506 0.53859
 H249 H 0.67653 0.20231 0.59855
 H250 H 0.72588 0.18405 0.68231
 H251 H 0.75766 0.21663 0.62046
 H252 H 0.79874 0.32797 0.42175
 N253 N 0.97661 0.52609 0.07209
 N254 N 0.95948 0.53068 0.08147
 N255 N 1.02576 0.53574 0.11823
 N256 N 1.04351 0.54718 0.16008
 N257 N 1.02571 0.54981 0.07134
 N258 N 1.04327 0.57129 0.08048
 N259 N 0.97634 0.51197 0.11935
 N260 N 0.95881 0.50628 0.16162
 C261 C 0.94851 0.51813 0.13736
 C262 C 1.05423 0.56931 0.13585
 N263 N 1.02385 0.47667 0.07566
 N264 N 1.04070 0.47175 0.08620
 N265 N 0.97529 0.46796 0.12221
 N266 N 0.95729 0.45730 0.16374
 N267 N 0.97468 0.45338 0.07606
 N268 N 0.95630 0.43238 0.08497
 N269 N 1.02472 0.49165 0.12080
 N270 N 1.04242 0.49764 0.16273
 Mn271 Mn 1.00056 0.50185 0.12096
 C272 C 1.05217 0.48505 0.14046
 C273 C 0.94566 0.43513 0.13989
 N274 N 1.02552 0.54889 -0.07436
 N275 N 1.04342 0.57013 -0.08416
 N276 N 0.97594 0.51051 -0.11992
 N277 N 0.95814 0.50417 -0.16168
 N278 N 0.97628 0.52506 -0.07402
 N279 N 0.95879 0.52912 -0.08356
 N280 N 1.02529 0.53436 -0.12008
 N281 N 1.04310 0.54531 -0.16213
 Mn282 Mn 1.00101 0.53770 -0.00131
 C283 C 1.05421 0.56758 -0.13903
 C284 C 0.94766 0.51594 -0.13838
 N285 N 0.97439 0.45255 -0.06933
 N286 N 0.95675 0.43112 -0.07839
 N287 N 1.02423 0.49023 -0.11744
 N288 N 1.04187 0.49599 -0.15926
 N289 N 1.02376 0.47600 -0.07023
 N290 N 1.04110 0.47164 -0.07882
 N291 N 0.97510 0.46641 -0.11805
 N292 N 0.95821 0.45469 -0.16232
 Mn293 Mn 0.99915 0.46440 0.00303
 Mn294 Mn 1.00015 0.50040 -0.11966
 Cl295 Cl 1.00022 0.50109 0.00077
 C296 C 0.94684 0.43277 -0.13651
 C297 C 1.05220 0.48427 -0.13455
 N298 N 0.52170 0.54746 0.06795
 N299 N 0.52549 0.56885 0.07774
 N300 N 0.53363 0.50964 0.11563
 N301 N 0.54534 0.50375 0.15775
 N302 N 0.54762 0.52407 0.06910
 N303 N 0.56929 0.52846 0.07849
 N304 N 0.50814 0.53332 0.11560
 N305 N 0.50261 0.54478 0.15973
 C306 C 0.51344 0.56686 0.13507
 C307 C 0.56753 0.51563 0.13395
 N308 N 0.47696 0.45119 0.06857
 N309 N 0.47318 0.42982 0.07871
 N310 N 0.46499 0.48907 0.11488
 N311 N 0.45326 0.49516 0.15625
 N312 N 0.45108 0.47464 0.06825
 N313 N 0.42944 0.47045 0.07681
 N314 N 0.49046 0.46538 0.11621
 N315 N 0.49596 0.45397 0.16067
 Mn316 Mn 0.49931 0.49935 0.11635
 C317 C 0.48517 0.43186 0.13626
 C318 C 0.43114 0.48339 0.13191
 N319 N 0.54783 0.52420 -0.07698
 N320 N 0.56963 0.52901 -0.08642
 N321 N 0.50806 0.53305 -0.12422
 N322 N 0.50089 0.54390 -0.16558
 N323 N 0.52190 0.54741 -0.07743
 N324 N 0.52460 0.56846 -0.08574
 N325 N 0.53394 0.50955 -0.12317
 N326 N 0.54582 0.50367 -0.16469
 Mn327 Mn 0.53500 0.53603 -0.00432
 C328 C 0.56803 0.51599 -0.14114
 C329 C 0.51140 0.56596 -0.14095
 N330 N 0.45118 0.47435 -0.07784
 N331 N 0.42942 0.46956 -0.08791
 N332 N 0.49105 0.46539 -0.12350
 N333 N 0.49832 0.45451 -0.16429
 N334 N 0.47708 0.45107 -0.07682
 N335 N 0.47440 0.43001 -0.08465
 N336 N 0.46517 0.48886 -0.12415
 N337 N 0.45338 0.49460 -0.16652
 Mn338 Mn 0.46383 0.46257 -0.00443
 Mn339 Mn 0.49956 0.49921 -0.12457
 Cl340 Cl 0.49942 0.49929 -0.00424
 C341 C 0.43113 0.48239 -0.14326
 C342 C 0.48775 0.43247 -0.13945
 N343 N 0.45190 -0.02459 0.07315
 N344 N 0.43047 -0.04231 0.08235
 N345 N 0.49059 0.02472 0.11917
 N346 N 0.49667 0.04235 0.16123
 N347 N 0.47637 0.02457 0.07238
 N348 N 0.47229 0.04204 0.08153
 N349 N 0.46611 -0.02452 0.11985
 N350 N 0.45481 -0.04223 0.16184
 C351 C 0.43263 -0.05312 0.13783
 C352 C 0.48512 0.05296 0.13708
 N353 N 0.54861 0.02472 0.07397
 N354 N 0.57010 0.04225 0.08354
 N355 N 0.50985 -0.02438 0.12074
 N356 N 0.50360 -0.04198 0.16311
 N357 N 0.52410 -0.02439 0.07436
 N358 N 0.52804 -0.04192 0.08405
 N359 N 0.53433 0.02493 0.11987
 N360 N 0.54562 0.04276 0.16146
 Mn361 Mn 0.50022 0.00019 0.12070
 C362 C 0.56790 0.05335 0.13817
 C363 C 0.51510 -0.05273 0.13954
 N364 N 0.47640 0.02427 -0.07356
 N365 N 0.47226 0.04164 -0.08377
 N366 N 0.46625 -0.02497 -0.11864
 N367 N 0.45488 -0.04275 -0.16042
 N368 N 0.45196 -0.02471 -0.07282
 N369 N 0.43041 -0.04205 -0.08281
 N370 N 0.49092 0.02445 -0.11935
 N371 N 0.49736 0.04218 -0.16136
 Mn372 Mn 0.46392 -0.00012 -0.00018
 C373 C 0.48553 0.05267 -0.13854
 C374 C 0.43257 -0.05317 -0.13743
 N375 N 0.52431 -0.02455 -0.07149
 N376 N 0.52834 -0.04205 -0.08056
 N377 N 0.53459 0.02448 -0.11875
 N378 N 0.54601 0.04206 -0.16113
 N379 N 0.54875 0.02457 -0.07188
 N380 N 0.57024 0.04214 -0.08125
 N381 N 0.50992 -0.02482 -0.11789
 N382 N 0.50352 -0.04266 -0.15933
 Mn383 Mn 0.53669 0.00009 0.00125
 Mn384 Mn 0.50042 -0.00022 -0.11948
 Cl385 Cl 0.50031 -0.00001 0.00056
 C386 C 0.51518 -0.05318 -0.13544
 C387 C 0.56820 0.05288 -0.13705
 C388 C 1.13012 0.48632 0.26305
 N389 N 1.12942 0.46602 0.27929
 N390 N 1.14758 0.46625 0.30967
 C391 C 1.16738 0.48677 0.32418
 N392 N 1.16800 0.50706 0.30704
 N393 N 1.14971 0.50685 0.27761
 C394 C 1.10997 0.48608 0.23075
 N395 N 1.10632 0.50447 0.23795
 N396 N 1.08781 0.50410 0.20946
 C397 C 1.07250 0.48547 0.17191
 N398 N 1.07625 0.46718 0.16420
 N399 N 1.09456 0.46739 0.19356
 C400 C 0.51326 0.64327 0.26224
 N401 N 0.51583 0.64593 0.33031
 N402 N 0.51615 0.66410 0.36064
 C403 C 0.51363 0.68013 0.32412
 N404 N 0.51092 0.67739 0.25604
 N405 N 0.51092 0.65938 0.22560
 C406 C 0.51300 0.62329 0.22893
 N407 N 0.51827 0.62421 0.16224
 N408 N 0.51841 0.60620 0.13231
 C409 C 0.51294 0.58651 0.16777
 N410 N 0.50746 0.58550 0.23429
 N411 N 0.50763 0.60363 0.26445
 C412 C 0.35843 -0.13320 0.26009
 N413 N 0.33581 -0.13967 0.24663
 N414 N 0.31839 -0.15805 0.27770
 C415 C 0.32285 -0.17079 0.32324
 N416 N 0.34558 -0.16429 0.33611
 N417 N 0.36300 -0.14585 0.30535
 C418 C 0.37770 -0.11260 0.22730
 N419 N 0.40012 -0.10425 0.24806
 N420 N 0.41761 -0.08530 0.21937
 C421 C 0.41332 -0.07410 0.16865
 N422 N 0.39092 -0.08249 0.14757
 N423 N 0.37340 -0.10137 0.17655
 C424 C 0.87007 0.51596 0.25938
 N425 N 0.86849 0.53565 0.26359
 N426 N 0.85031 0.53526 0.29437
 C427 C 0.83290 0.51509 0.32128
 N428 N 0.83443 0.49538 0.31653
 N429 N 0.85274 0.49583 0.28652
 C430 C 0.89033 0.51645 0.22696
 N431 N 0.89573 0.49953 0.24053
 N432 N 0.91433 0.50012 0.21204
 C433 C 0.92801 0.51748 0.16832
 N434 N 0.92253 0.53430 0.15428
 N435 N 0.90409 0.53388 0.18344
 C436 C 0.48565 0.35569 0.26432
 N437 N 0.48327 0.35314 0.33246
 N438 N 0.48310 0.33505 0.36290
 C439 C 0.48558 0.31899 0.32643
 N440 N 0.48807 0.32163 0.25828
 N441 N 0.48793 0.33955 0.22773
 C442 C 0.48577 0.37559 0.23084
 N443 N 0.48044 0.37459 0.16417
 N444 N 0.48024 0.39254 0.13402
 C445 C 0.48570 0.41226 0.16925
 N446 N 0.49123 0.41336 0.23576
 N447 N 0.49112 0.39528 0.26613
 C448 C 0.64259 0.13295 0.26023
 N449 N 0.66431 0.13546 0.26259
 N450 N 0.68179 0.15375 0.29371
 C451 C 0.67827 0.17036 0.32297
 N452 N 0.65657 0.16792 0.32006
 N453 N 0.63902 0.14950 0.28960
 C454 C 0.62319 0.11249 0.22750
 N455 N 0.60065 0.10636 0.24111
 N456 N 0.58302 0.08748 0.21262
 C457 C 0.58731 0.07422 0.16894
 N458 N 0.60984 0.08044 0.15486
 N459 N 0.62747 0.09917 0.18395
 C460 C 0.48983 0.13181 -0.26171
 N461 N 0.51067 0.15056 -0.27919
 N462 N 0.51149 0.16902 -0.30924
 C463 C 0.49148 0.16934 -0.32401
 N464 N 0.47064 0.15042 -0.30664
 N465 N 0.46983 0.13211 -0.27568
 C466 C 0.48888 0.11143 -0.22891
 N467 N 0.47019 0.09683 -0.19025
 N468 N 0.46925 0.07823 -0.16078
 C469 C 0.48679 0.07337 -0.16982
 N470 N 0.50541 0.08787 -0.20877
 N471 N 0.50652 0.10668 -0.23741
 C472 C 0.64473 0.51415 -0.26124
 N473 N 0.64340 0.49356 -0.27732
 N474 N 0.66138 0.49321 -0.30693
 C475 C 0.68129 0.51344 -0.32268
 N476 N 0.68246 0.53404 -0.30667
 N477 N 0.66462 0.53439 -0.27611
 C478 C 0.62485 0.51453 -0.22925
 N479 N 0.62822 0.53308 -0.19126
 N480 N 0.61012 0.53344 -0.16250
 C481 C 0.58798 0.51542 -0.17163
 N482 N 0.58459 0.49693 -0.20993
 N483 N 0.60272 0.49641 -0.23784
 C484 C 0.87026 0.35584 -0.26182
 N485 N 0.87262 0.34903 -0.32461
 N486 N 0.85463 0.33085 -0.35453
 C487 C 0.83343 0.31900 -0.32340
 N488 N 0.83116 0.32600 -0.26053
 N489 N 0.84927 0.34391 -0.23008
 C490 C 0.89005 0.37590 -0.22911
 N491 N 0.89254 0.37667 -0.16086
 N492 N 0.91071 0.39479 -0.13130
 C493 C 0.92676 0.41297 -0.16888
 N494 N 0.92414 0.41232 -0.23704
 N495 N 0.90620 0.39401 -0.26669
 C496 C 0.51041 -0.13278 -0.25673
 N497 N 0.49025 -0.14940 -0.28576
 N498 N 0.48938 -0.16780 -0.31632
 C499 C 0.50870 -0.17012 -0.31969
 N500 N 0.52888 -0.15343 -0.29077
 N501 N 0.52968 -0.13517 -0.25953
 C502 C 0.51146 -0.11233 -0.22408
 N503 N 0.52907 -0.09894 -0.18059
 N504 N 0.53014 -0.08020 -0.15165
 C505 C 0.51378 -0.07406 -0.16585
 N506 N 0.49621 -0.08740 -0.20947
 N507 N 0.49500 -0.10628 -0.23779
 C508 C 0.35474 0.48419 -0.26622
 N509 N 0.35749 0.50428 -0.29349
 N510 N 0.33956 0.50468 -0.32328
 C511 C 0.31829 0.48495 -0.32766
 N512 N 0.31560 0.46483 -0.30065
 N513 N 0.33346 0.46449 -0.27012
 C514 C 0.37456 0.48377 -0.23374
 N515 N 0.37092 0.46629 -0.19050
 N516 N 0.38895 0.46595 -0.16113
 C517 C 0.41126 0.48292 -0.17464
 N518 N 0.41491 0.50034 -0.21810
 N519 N 0.39687 0.50084 -0.24682
 C520 C 1.13483 0.64155 -0.26012
 N521 N 1.14709 0.63722 -0.30743
 N522 N 1.16566 0.65478 -0.33741
 C523 C 1.17269 0.67740 -0.32161
 N524 N 1.16036 0.68160 -0.27401
 N525 N 1.14185 0.66406 -0.24380
 C526 C 1.11409 0.62224 -0.22793
 N527 N 1.10307 0.62647 -0.17652
 N528 N 1.08405 0.60901 -0.14792
 C529 C 1.07531 0.58672 -0.16994
 N530 N 1.08632 0.58246 -0.22132
 N531 N 1.10540 0.59991 -0.24973
 C532 C 0.86793 0.51141 -0.25967
 N533 N 0.86124 0.52720 -0.24358
 N534 N 0.84293 0.52662 -0.27412
 C535 C 0.83049 0.51018 -0.32181
 N536 N 0.83719 0.49431 -0.33736
 N537 N 0.85555 0.49494 -0.30706
 C538 C 0.88844 0.51237 -0.22728
 N539 N 0.89667 0.49830 -0.24892
 N540 N 0.91553 0.49943 -0.22045
 C541 C 0.92679 0.51460 -0.16914
 N542 N 0.91853 0.52860 -0.14724
 N543 N 0.89972 0.52754 -0.17592
 C544 C 0.49713 0.35929 -0.25410
 N545 N 0.51232 0.36346 -0.30564
 N546 N 0.51342 0.34591 -0.33524
 C547 C 0.49931 0.32344 -0.31470
 N548 N 0.48427 0.31941 -0.26264
 N549 N 0.48321 0.33695 -0.23292
 C550 C 0.49521 0.37847 -0.22313
 N551 N 0.48054 0.37430 -0.17009
 N552 N 0.47828 0.39155 -0.14311
 C553 C 0.49052 0.41356 -0.16839
 N554 N 0.50522 0.41776 -0.22130
 N555 N 0.50754 0.40052 -0.24817
 C556 C 0.64319 0.13247 -0.25890
 N557 N 0.66574 0.13962 -0.24187
 N558 N 0.68335 0.15805 -0.27221
 C559 C 0.67910 0.17012 -0.32051
 N560 N 0.65650 0.16297 -0.33718
 N561 N 0.63891 0.14449 -0.30709
 C562 C 0.62372 0.11192 -0.22653
 N563 N 0.60145 0.10337 -0.24904
 N564 N 0.58376 0.08456 -0.22044
 C565 C 0.58769 0.07367 -0.16808
 N566 N 0.60994 0.08224 -0.14532
 N567 N 0.62765 0.10101 -0.17414
 C568 C 1.13115 0.48757 -0.25701
 N569 N 1.13803 0.47194 -0.24056
 N570 N 1.15615 0.47238 -0.27191
 C571 C 1.16814 0.48852 -0.32069
 N572 N 1.16126 0.50420 -0.33673
 N573 N 1.14311 0.50370 -0.30563
 C574 C 1.11085 0.48684 -0.22400
 N575 N 1.10261 0.50083 -0.24624
 N576 N 1.08395 0.50000 -0.21745
 C577 C 1.07290 0.48522 -0.16518
 N578 N 1.08117 0.47128 -0.14261
 N579 N 1.09980 0.47204 -0.17164
 C580 C 0.50251 0.63930 -0.25687
 N581 N 0.51648 0.66160 -0.23561
 N582 N 0.51553 0.67921 -0.26534
 C583 C 0.50053 0.67528 -0.31746
 N584 N 0.48638 0.65284 -0.33810
 N585 N 0.48737 0.63521 -0.30851
 C586 C 0.50430 0.62006 -0.22572
 N587 N 0.49197 0.59801 -0.25079
 N588 N 0.49417 0.58072 -0.22361
 C589 C 0.50874 0.58488 -0.17037
 N590 N 0.52098 0.60689 -0.14509
 N591 N 0.51883 0.62417 -0.17237
 C592 C 0.35733 -0.13232 -0.25938
 N593 N 0.33739 -0.13224 -0.27580
 N594 N 0.31985 -0.15057 -0.30659
 C595 C 0.32136 -0.16990 -0.32127
 N596 N 0.34131 -0.16997 -0.30398
 N597 N 0.35901 -0.15149 -0.27415
 C598 C 0.37685 -0.11191 -0.22696
 N599 N 0.39917 -0.10751 -0.23455
 N600 N 0.41696 -0.08870 -0.20623
 C601 C 0.41302 -0.07386 -0.16848
 N602 N 0.39069 -0.07837 -0.16034
 N603 N 0.37293 -0.09697 -0.18953
 C604 C 0.51038 -0.13234 0.26144
 N605 N 0.49417 -0.14430 0.30991
 N606 N 0.49332 -0.16277 0.33994
 C607 C 0.50868 -0.16998 0.32293
 N608 N 0.52490 -0.15796 0.27434
 N609 N 0.52570 -0.13953 0.24407
 C610 C 0.51147 -0.11178 0.22910
 N611 N 0.52634 -0.10086 0.17680
 N612 N 0.52742 -0.08208 0.14799
 C613 C 0.51375 -0.07352 0.17065
 N614 N 0.49889 -0.08442 0.22292
 N615 N 0.49774 -0.10324 0.25154
 C616 C 0.35576 0.48782 0.25212
 N617 N 0.33329 0.47289 0.23354
 N618 N 0.31561 0.47352 0.26421
 C619 C 0.31972 0.48916 0.31448
 N620 N 0.34225 0.50414 0.33266
 N621 N 0.35992 0.50347 0.30217
 C622 C 0.37530 0.48683 0.21977
 N623 N 0.39750 0.50042 0.24289
 N624 N 0.41525 0.49932 0.21463
 C625 C 0.41149 0.48464 0.16211
 N626 N 0.38932 0.47109 0.13870
 N627 N 0.37153 0.47214 0.16714
 C628 C 1.13341 0.64437 0.25844
 N629 N 1.15050 0.64118 0.28572
 N630 N 1.16888 0.65877 0.31621
 C631 C 1.17071 0.68013 0.32131
 N632 N 1.15354 0.68328 0.29423
 N633 N 1.13529 0.66576 0.26299
 C634 C 1.11303 0.62490 0.22563
 N635 N 1.09949 0.62898 0.18229
 N636 N 1.08087 0.61125 0.15300
 C637 C 1.07500 0.58883 0.16671
 N638 N 1.08847 0.58474 0.21023
 N639 N 1.10725 0.60247 0.23885
 C640 C 0.48920 0.13215 0.25951
 N641 N 0.50576 0.14439 0.30687
 N642 N 0.50653 0.16273 0.33739
 C643 C 0.49072 0.16952 0.32204
 N644 N 0.47414 0.15723 0.27458
 N645 N 0.47342 0.13893 0.24377
 C646 C 0.48825 0.11173 0.22680
 N647 N 0.47323 0.10064 0.17493
 N648 N 0.47230 0.08197 0.14592
 C649 C 0.48629 0.07368 0.16802
 N650 N 0.50129 0.08476 0.21985
 N651 N 0.50229 0.10347 0.24861
 C652 C 0.64306 0.51235 0.25753
 N653 N 0.63892 0.49633 0.30651
 N654 N 0.65661 0.49582 0.33742
 C655 C 0.67916 0.51136 0.32080
 N656 N 0.68326 0.52738 0.27168
 N657 N 0.66556 0.52784 0.24054
 C658 C 0.62348 0.51306 0.22445
 N659 N 0.62729 0.52785 0.17201
 N660 N 0.60945 0.52860 0.14274
 C661 C 0.58721 0.51467 0.16511
 N662 N 0.58342 0.49991 0.21747
 N663 N 0.60122 0.49909 0.24653
 C664 C 0.86323 0.36224 0.25657
 N665 N 0.85309 0.36618 0.31091
 N666 N 0.83445 0.34858 0.34053
 C667 C 0.82523 0.32635 0.31702
 N668 N 0.83535 0.32253 0.26234
 N669 N 0.85395 0.34012 0.23266
 C670 C 0.88432 0.38140 0.22532
 N671 N 0.89429 0.37726 0.17093
 N672 N 0.91379 0.39444 0.14352
 C673 C 0.92405 0.41635 0.16963
 N674 N 0.91407 0.42054 0.22390
 N675 N 0.89455 0.40336 0.25128
   
