data_POSCAR
  _audit_creation_date              2014-09-24
  _audit_creation_method            'ToBaCCo'
  _symmetry_space_group_name_H-M    'P1'
  _symmetry_Int_Tables_number       1
  _symmetry_cell_setting            triclinic
  loop_
  _symmetry_equiv_pos_as_xyz
 x,y,z
_cell_length_a 41.0825
_cell_length_b 41.1714
_cell_length_c 40.9820
_cell_angle_alpha 89.413600
_cell_angle_beta 89.692500
_cell_angle_gamma 89.978700
loop_
  _atom_site_label
  _atom_site_type_symbol
  _atom_site_fract_x
  _atom_site_fract_y
  _atom_site_fract_z
C1 C 0.17020 0.13386 0.16138
 C2 C 0.15655 0.11402 0.18623
 C3 C 0.12517 0.12075 0.19876
 C4 C 0.10888 0.14892 0.18788
 C5 C 0.12291 0.16976 0.16481
 C6 C 0.15326 0.16195 0.15093
 C7 C 0.19973 0.12550 0.14584
 C8 C 0.21190 0.14435 0.11933
 C9 C 0.19544 0.17338 0.11099
 C10 C 0.16644 0.18218 0.12636
 C11 C 0.15003 0.21065 0.11688
 C12 C 0.12016 0.21899 0.13138
 C13 C 0.10673 0.19824 0.15527
 H14 H 0.16935 0.09236 0.19423
 H15 H 0.08547 0.15542 0.19832
 H16 H 0.21172 0.10311 0.15294
 H17 H 0.20536 0.18975 0.09262
 H18 H 0.16020 0.22598 0.09774
 H19 H 0.08382 0.20446 0.16687
 C20 C -0.16734 0.87300 0.18924
 C21 C -0.14844 0.88057 0.21658
 C22 C -0.12055 0.86213 0.22487
 C23 C -0.11192 0.83605 0.20429
 C24 C -0.13062 0.82828 0.17690
 C25 C -0.15860 0.84660 0.16955
 C26 C -0.19499 0.89150 0.18150
 C27 C -0.21454 0.88409 0.15424
 C28 C -0.20558 0.85704 0.13514
 C29 C -0.17792 0.83843 0.14258
 C30 C -0.16929 0.81174 0.12331
 C31 C -0.14114 0.79338 0.13014
 C32 C -0.12186 0.80211 0.15699
 H33 H -0.15516 0.90170 0.23058
 H34 H -0.09163 0.82035 0.21016
 H35 H -0.20177 0.91085 0.19785
 H36 H -0.21906 0.85100 0.11343
 H37 H -0.18492 0.80504 0.10328
 H38 H -0.09977 0.78877 0.16233
 C39 C -0.17509 0.13350 -0.18845
 C40 C -0.15486 0.12516 -0.21466
 C41 C -0.12469 0.14060 -0.21946
 C42 C -0.11414 0.16333 -0.19634
 C43 C -0.13442 0.17226 -0.17024
 C44 C -0.16527 0.15763 -0.16661
 C45 C -0.20549 0.11868 -0.18465
 C46 C -0.22765 0.12845 -0.16010
 C47 C -0.21753 0.15329 -0.13868
 C48 C -0.18656 0.16761 -0.14163
 C49 C -0.17696 0.19250 -0.12056
 C50 C -0.14611 0.20720 -0.12379
 C51 C -0.12484 0.19648 -0.14850
 H52 H -0.16365 0.10799 -0.23241
 H53 H -0.09061 0.17492 -0.19926
 H54 H -0.21100 0.09878 -0.20068
 H55 H -0.23384 0.16272 -0.12031
 H56 H -0.19390 0.20094 -0.10215
 H57 H -0.10088 0.20721 -0.15111
 C58 C 0.18925 0.85427 -0.16954
 C59 C 0.18236 0.87444 -0.19641
 C60 C 0.15736 0.86679 -0.21871
 C61 C 0.14009 0.83736 -0.21339
 C62 C 0.14710 0.81675 -0.18677
 C63 C 0.17138 0.82550 -0.16451
 C64 C 0.21417 0.86236 -0.14783
 C65 C 0.22176 0.84195 -0.12119
 C66 C 0.20313 0.81367 -0.11589
 C67 C 0.17800 0.80535 -0.13734
 C68 C 0.15969 0.77696 -0.13219
 C69 C 0.13578 0.76724 -0.15472
 C70 C 0.13007 0.78746 -0.18219
 H71 H 0.19773 0.89545 -0.20023
 H72 H 0.12005 0.83065 -0.22889
 H73 H 0.22765 0.88470 -0.15170
 H74 H 0.20885 0.79751 -0.09569
 H75 H 0.16421 0.76277 -0.11035
 H76 H 0.11276 0.78043 -0.20059
 C77 C 0.14025 1.18255 0.81965
 C78 C 0.12432 1.17758 0.78995
 C79 C 0.13105 1.15016 0.77048
 C80 C 0.15544 1.12836 0.78138
 C81 C 0.17199 1.13341 0.81079
 C82 C 0.16403 1.16036 0.83019
 C83 C 0.13301 1.20989 0.83854
 C84 C 0.14872 1.21542 0.86862
 C85 C 0.17200 1.19221 0.87914
 C86 C 0.18007 1.16529 0.85998
 C87 C 0.20431 1.14341 0.87007
 C88 C 0.21324 1.11697 0.85044
 C89 C 0.19660 1.11197 0.82098
 H90 H 0.10745 1.19607 0.78179
 H91 H 0.16101 1.10657 0.76794
 H92 H 0.11599 1.22737 0.82865
 H93 H 0.18363 1.19424 0.90262
 H94 H 0.21646 1.14716 0.89314
 H95 H 0.20342 1.09193 0.80544
 C96 C 0.87680 0.82744 0.83170
 C97 C 0.89231 0.84726 0.80867
 C98 C 0.87803 0.87637 0.79745
 C99 C 0.84697 0.88507 0.80958
 C100 C 0.83171 0.86602 0.83416
 C101 C 0.84665 0.83681 0.84480
 C102 C 0.89156 0.79852 0.84205
 C103 C 0.87704 0.77837 0.86608
 C104 C 0.84668 0.78802 0.87912
 C105 C 0.83182 0.81719 0.86898
 C106 C 0.80301 0.82768 0.88376
 C107 C 0.78891 0.85765 0.87514
 C108 C 0.80265 0.87621 0.84943
 H109 H 0.91542 0.83928 0.79863
 H110 H 0.83569 0.90754 0.80152
 H111 H 0.91403 0.79139 0.83020
 H112 H 0.83524 0.77395 0.89846
 H113 H 0.79199 0.81293 0.90292
 H114 H 0.79172 0.89923 0.84259
 C115 C 0.13450 0.82327 1.17868
 C116 C 0.11237 0.83655 1.20124
 C117 C 0.12064 0.86456 1.21854
 C118 C 0.15101 0.87927 1.21347
 C119 C 0.17357 0.86587 1.19183
 C120 C 0.16539 0.83776 1.17439
 C121 C 0.12611 0.79611 1.16007
 C122 C 0.14811 0.78306 1.13693
 C123 C 0.17949 0.79705 1.13437
 C124 C 0.18813 0.82419 1.15268
 C125 C 0.21926 0.83802 1.14948
 C126 C 0.22761 0.86617 1.16679
 C127 C 0.20422 0.88016 1.18754
 H128 H 0.08875 0.82540 1.20518
 H129 H 0.15730 0.90081 1.22710
 H130 H 0.10169 0.78655 1.16258
 H131 H 0.19784 0.78652 1.11865
 H132 H 0.23698 0.82664 1.13362
 H133 H 0.20965 0.90240 1.20031
 C134 C 0.85378 1.17696 1.18486
 C135 C 0.86147 1.15689 1.21159
 C136 C 0.84452 1.12749 1.21783
 C137 C 0.81931 1.11906 1.19602
 C138 C 0.81177 1.13873 1.16889
 C139 C 0.82922 1.16767 1.16317
 C140 C 0.87043 1.20631 1.17967
 C141 C 0.86398 1.22616 1.15218
 C142 C 0.83977 1.21607 1.13019
 C143 C 0.82195 1.18744 1.13589
 C144 C 0.79668 1.17852 1.11490
 C145 C 0.77857 1.15000 1.12073
 C146 C 0.78665 1.13005 1.14761
 H147 H 0.88183 1.16403 1.22646
 H148 H 0.80437 1.09785 1.20040
 H149 H 0.88799 1.21379 1.19767
 H150 H 0.83469 1.23022 1.10842
 H151 H 0.79050 1.19438 1.09461
 H152 H 0.77344 1.10763 1.15195
 N153 N 0.53745 0.95773 1.05250
 N154 N 0.56480 0.94302 1.06084
 N155 N 0.46777 0.98235 1.06783
 N156 N 0.44383 0.98381 1.08934
 N157 N 0.46891 0.95357 1.05435
 N158 N 0.44538 0.93483 1.06588
 N159 N 0.53587 0.98667 1.06560
 N160 N 0.56208 0.99243 1.08306
 C161 C 0.57984 0.96493 1.08005
 C162 C 0.43005 0.95403 1.08773
 N163 N 0.46199 1.06106 1.01315
 N164 N 0.43449 1.07686 1.00872
 N165 N 0.53139 1.05195 1.04068
 N166 N 0.55806 1.06102 1.05591
 N167 N 0.53048 1.06472 1.01122
 N168 N 0.55658 1.08267 1.00561
 N169 N 0.46274 1.04775 1.04239
 N170 N 0.43559 1.05420 1.05860
 Mn171 Mn 0.49938 1.01736 1.05451
 C172 C 0.41831 1.07267 1.03726
 C173 C 0.57340 1.08044 1.03387
 N174 N 0.46874 0.92919 0.98902
 N175 N 0.44293 0.91082 0.99469
 N176 N 0.53589 0.94636 0.95738
 N177 N 0.56313 0.94087 0.94100
 N178 N 0.53743 0.93341 0.98677
 N179 N 0.56575 0.91896 0.99114
 N180 N 0.46740 0.94215 0.95967
 N181 N 0.44081 0.93274 0.94453
 Mn182 Mn 0.50317 0.94304 1.02077
 C183 C 0.42590 0.91297 0.96656
 C184 C 0.58141 0.92343 0.96230
 N185 N 0.53018 1.04035 0.94587
 N186 N 0.55427 1.05871 0.93499
 N187 N 0.46264 1.00760 0.93485
 N188 N 0.43578 1.00185 0.91832
 N189 N 0.46169 1.03669 0.94768
 N190 N 0.43423 1.05153 0.94004
 N191 N 0.53093 1.01170 0.93213
 N192 N 0.55530 1.00994 0.91110
 Mn193 Mn 0.49612 1.05109 0.97936
 Mn194 Mn 0.49920 0.97677 0.94561
 Cl195 Cl 0.49946 0.99705 1.00008
 C196 C 0.56961 1.03944 0.91325
 C197 C 0.41839 1.02959 0.92155
 N198 N -0.05916 0.47369 0.04867
 N199 N -0.07558 0.44767 0.05828
 N200 N -0.03836 0.54626 0.05161
 N201 N -0.04186 0.57573 0.06360
 N202 N -0.06158 0.54000 0.03069
 N203 N -0.08126 0.56517 0.02759
 N204 N -0.03578 0.48014 0.06933
 N205 N -0.03575 0.45870 0.09348
 C206 C -0.06088 0.43876 0.08650
 C207 C -0.06878 0.58717 0.04839
 N208 N 0.05309 0.54329 0.02451
 N209 N 0.07277 0.56837 0.02119
 N210 N 0.03421 0.48172 0.06525
 N211 N 0.03362 0.45672 0.08563
 N212 N 0.05621 0.47708 0.04232
 N213 N 0.07115 0.44900 0.04699
 N214 N 0.03179 0.54824 0.04790
 N215 N 0.03655 0.57690 0.06131
 Mn216 Mn -0.00197 0.51425 0.05891
 C217 C 0.06216 0.58919 0.04424
 C218 C 0.05728 0.43689 0.07445
 N219 N -0.06437 0.52230 -0.03700
 N220 N -0.07902 0.55051 -0.04195
 N221 N -0.04015 0.45074 -0.04205
 N222 N -0.04400 0.42149 -0.05439
 N223 N -0.06169 0.45595 -0.01890
 N224 N -0.08050 0.43028 -0.01458
 N225 N -0.04252 0.51709 -0.05996
 N226 N -0.04179 0.54181 -0.08066
 Mn227 Mn -0.06211 0.49794 0.00584
 C228 C -0.06509 0.56214 -0.06959
 C229 C -0.06926 0.40902 -0.03695
 N230 N 0.05370 0.45992 -0.02526
 N231 N 0.07570 0.43672 -0.02418
 N232 N 0.02745 0.51884 -0.06400
 N233 N 0.02815 0.53933 -0.08898
 N234 N 0.05056 0.52581 -0.04321
 N235 N 0.06759 0.55115 -0.05357
 N236 N 0.03033 0.45258 -0.04563
 N237 N 0.03597 0.42394 -0.05900
 Mn238 Mn 0.05370 0.50165 -0.00039
 Mn239 Mn -0.00633 0.48457 -0.05330
 Cl240 Cl -0.00419 0.49959 0.00275
 C241 C 0.06443 0.41434 -0.04515
 C242 C 0.05347 0.55920 -0.08234
 N243 N 0.98106 -0.05169 0.54773
 N244 N 0.98401 -0.06306 0.57774
 N245 N 0.95170 -0.04690 0.47769
 N246 N 0.93590 -0.05381 0.45056
 N247 N 0.97750 -0.06559 0.48062
 N248 N 0.97951 -0.08570 0.45590
 N249 N 0.95511 -0.03319 0.54528
 N250 N 0.93951 -0.03189 0.57357
 C251 C 0.95776 -0.05090 0.59350
 C252 C 0.95335 -0.07843 0.43747
 N253 N 0.96032 0.04528 0.45664
 N254 N 0.95245 0.05858 0.42836
 N255 N 0.94520 0.03509 0.53111
 N256 N 0.93056 0.04050 0.55945
 N257 N 0.96352 0.06002 0.52284
 N258 N 0.96142 0.08302 0.54473
 N259 N 0.94115 0.02065 0.46360
 N260 N 0.92003 0.01618 0.43987
 Mn261 Mn 0.94778 -0.00617 0.50459
 C262 C 0.92731 0.04013 0.41814
 C263 C 0.94073 0.07082 0.56733
 N264 N 1.04699 -0.05587 0.47453
 N265 N 1.04598 -0.07486 0.44872
 N266 N 1.06862 -0.01726 0.53623
 N267 N 1.08931 -0.01342 0.56050
 N268 N 1.05001 -0.04265 0.54169
 N269 N 1.05765 -0.05694 0.56954
 N270 N 1.06605 -0.03075 0.46870
 N271 N 1.07788 -0.03212 0.43878
 Mn272 Mn 1.01390 -0.05432 0.51120
 C273 C 1.06574 -0.05996 0.42681
 C274 C 1.08219 -0.03850 0.58103
 N275 N 1.03243 0.06951 0.51773
 N276 N 1.03079 0.09126 0.54103
 N277 N 1.05601 0.03702 0.45440
 N278 N 1.07187 0.03518 0.42628
 N279 N 1.02953 0.05455 0.45092
 N280 N 1.02642 0.06458 0.42048
 N281 N 1.05793 0.05068 0.52189
 N282 N 1.07412 0.05919 0.54828
 Mn283 Mn 0.99647 0.05761 0.48682
 Mn284 Mn 1.06263 0.00998 0.49544
 Cl285 Cl 1.00518 0.00175 0.49951
 C286 C 1.05705 0.08489 0.55970
 C287 C 1.05317 0.05270 0.40545
 C288 C 1.10841 0.07461 0.27546
 C289 C 1.07520 0.07128 0.27291
 C290 C 1.05798 0.08071 0.24542
 C291 C 1.07540 0.09544 0.21993
 C292 C 1.10964 0.10044 0.22201
 C293 C 1.12659 0.08817 0.24966
 O294 O 1.11919 0.06817 0.30541
 C295 C 1.09216 0.06093 0.32200
 C296 C 1.06466 0.06240 0.30305
 C297 C 1.03337 0.05971 0.31581
 C298 C 1.03017 0.05576 0.34960
 C299 C 1.05800 0.05445 0.36986
 C300 C 1.08953 0.05625 0.35582
 H301 H 1.03177 0.07840 0.24431
 H302 H 1.06194 0.10369 0.19875
 H303 H 1.15239 0.09248 0.25272
 H304 H 1.01212 0.06185 0.30044
 H305 H 1.00594 0.05427 0.36007
 H306 H 1.11108 0.05612 0.37091
 C307 C 0.90215 -0.10922 0.30826
 C308 C 0.93384 -0.11958 0.30982
 C309 C 0.94932 -0.13501 0.28415
 C310 C 0.93131 -0.14043 0.25574
 C311 C 0.89795 -0.13079 0.25328
 C312 C 0.88362 -0.11448 0.28037
 O313 O 0.89190 -0.09529 0.33557
 C314 C 0.91776 -0.09700 0.35482
 C315 C 0.94402 -0.11179 0.34020
 C316 C 0.97335 -0.11699 0.35613
 C317 C 0.97573 -0.10649 0.38845
 C318 C 0.94916 -0.09077 0.40405
 C319 C 0.91976 -0.08586 0.38686
 H320 H 0.97451 -0.14255 0.28584
 H321 H 0.94411 -0.15132 0.23552
 H322 H 0.85829 -0.10743 0.28093
 H323 H 0.99365 -0.12877 0.34415
 H324 H 0.99852 -0.11018 0.40110
 H325 H 0.89912 -0.07393 0.39809
 C326 C 0.90531 0.10333 0.70179
 C327 C 0.91943 0.13001 0.68715
 C328 C 0.92224 0.15980 0.70246
 C329 C 0.90907 0.16256 0.73392
 C330 C 0.89363 0.13565 0.74955
 C331 C 0.89263 0.10532 0.73335
 O332 O 0.90361 0.07781 0.68226
 C333 C 0.91680 0.08874 0.65460
 C334 C 0.92689 0.12054 0.65647
 C335 C 0.94033 0.13739 0.63023
 C336 C 0.94390 0.12071 0.60088
 C337 C 0.93408 0.08776 0.59819
 C338 C 0.92011 0.07156 0.62548
 H339 H 0.93308 0.18055 0.69015
 H340 H 0.90947 0.18617 0.74525
 H341 H 0.88124 0.08419 0.74439
 H342 H 0.94778 0.16251 0.63225
 H343 H 0.95453 0.13355 0.58024
 H344 H 0.91246 0.04645 0.62420
 C345 C 1.12628 -0.10211 0.70087
 C346 C 1.13615 -0.07030 0.70179
 C347 C 1.15258 -0.05757 0.72821
 C348 C 1.15921 -0.07846 0.75467
 C349 C 1.14998 -0.11202 0.75444
 C350 C 1.13307 -0.12350 0.72652
 O351 O 1.11040 -0.10938 0.67381
 C352 C 1.11027 -0.08152 0.65729
 C353 C 1.12591 -0.05680 0.67316
 C354 C 1.12891 -0.02566 0.65981
 C355 C 1.11503 -0.01983 0.62898
 C356 C 1.09823 -0.04488 0.61256
 C357 C 1.09593 -0.07613 0.62702
 H358 H 1.15959 -0.03224 0.72872
 H359 H 1.17049 -0.06756 0.77562
 H360 H 1.12614 -0.14859 0.72365
 H361 H 1.14141 -0.00657 0.67267
 H362 H 1.11681 0.00425 0.61822
 H363 H 1.08335 -0.09577 0.61503
 C364 C 0.29209 1.10846 1.09446
 C365 C 0.29306 1.11831 1.06235
 C366 C 0.26813 1.13547 1.04757
 C367 C 0.24112 1.14344 1.06673
 C368 C 0.23918 1.13442 1.10046
 C369 C 0.26509 1.11579 1.11413
 O370 O 0.31913 1.09318 1.10371
 C371 C 0.33738 1.09351 1.07676
 C372 C 0.32235 1.10858 1.05083
 C373 C 0.33697 1.11254 1.02045
 C374 C 0.36856 1.10050 1.01651
 C375 C 0.38493 1.08487 1.04275
 C376 C 0.36899 1.08117 1.07336
 H377 H 0.26945 1.14264 1.02211
 H378 H 0.22134 1.15592 1.05461
 H379 H 0.26532 1.10872 1.13962
 H380 H 0.32457 1.12465 1.00052
 H381 H 0.38023 1.10343 0.99291
 H382 H 0.38087 1.06943 1.09383
 C383 C 0.30413 0.87097 0.90746
 C384 C 0.30246 0.86360 0.94022
 C385 C 0.27509 0.84949 0.95461
 C386 C 0.24846 0.84267 0.93437
 C387 C 0.24973 0.84974 0.90034
 C388 C 0.27823 0.86407 0.88691
 O389 O 0.33204 0.88467 0.89856
 C390 C 0.34844 0.88596 0.92628
 C391 C 0.33156 0.87324 0.95254
 C392 C 0.34450 0.87203 0.98385
 C393 C 0.37598 0.88460 0.98823
 C394 C 0.39358 0.89829 0.96154
 C395 C 0.37950 0.89885 0.93013
 H396 H 0.27416 0.84413 0.98051
 H397 H 0.22679 0.83223 0.94533
 H398 H 0.28051 0.86935 0.86107
 H399 H 0.33085 0.86187 1.00418
 H400 H 0.38640 0.88412 1.01244
 H401 H 0.39227 0.90912 0.90928
 C402 C 0.70436 0.90953 1.12135
 C403 C 0.70313 0.94117 1.13146
 C404 C 0.72812 0.95551 1.14879
 C405 C 0.75549 0.93644 1.15614
 C406 C 0.75766 0.90327 1.14633
 C407 C 0.73122 0.89003 1.12841
 O408 O 0.67791 0.90043 1.10536
 C409 C 0.65960 0.92700 1.10537
 C410 C 0.67391 0.95263 1.12107
 C411 C 0.65883 0.98268 1.12427
 C412 C 0.62771 0.98643 1.11076
 C413 C 0.61244 0.96036 1.09437
 C414 C 0.62877 0.93023 1.09161
 H415 H 0.72673 0.98063 1.15621
 H416 H 0.77532 0.94835 1.16843
 H417 H 0.73047 0.86488 1.12117
 H418 H 0.67055 1.00250 1.13678
 H419 H 0.61562 1.00969 1.11296
 H420 H 0.61779 0.90989 1.07926
 C421 C 0.69288 1.09880 0.87441
 C422 C 0.68120 1.08164 0.84845
 C423 C 0.69739 1.08012 0.81881
 C424 C 0.72710 1.09659 0.81586
 C425 C 0.74104 1.11358 0.84274
 C426 C 0.72278 1.11474 0.87240
 O427 O 0.67338 1.09758 0.90032
 C428 C 0.64895 1.07912 0.89042
 C429 C 0.65273 1.06843 0.85896
 C430 C 0.63066 1.04772 0.84412
 C431 C 0.60344 1.03778 0.86250
 C432 C 0.59861 1.04927 0.89463
 C433 C 0.62167 1.07026 0.90877
 H434 H 0.68726 1.06710 0.79843
 H435 H 0.73829 1.09653 0.79197
 H436 H 0.73170 1.12626 0.89415
 H437 H 0.63439 1.03932 0.81945
 H438 H 0.58588 1.02163 0.85158
 H439 H 0.61871 1.07895 0.93345
 C440 C 0.10311 0.30634 0.10730
 C441 C 0.06969 0.30590 0.10593
 C442 C 0.05143 0.27801 0.11163
 C443 C 0.06831 0.24938 0.11938
 C444 C 0.10283 0.24919 0.12162
 C445 C 0.12040 0.27821 0.11519
 O446 O 0.11576 0.33544 0.10100
 C447 C 0.08971 0.35377 0.09563
 C448 C 0.06093 0.33682 0.09850
 C449 C 0.03065 0.35120 0.09421
 C450 C 0.03001 0.38445 0.08671
 C451 C 0.05926 0.40248 0.08378
 C452 C 0.08960 0.38690 0.08786
 H453 H 0.02513 0.27828 0.11019
 H454 H 0.05444 0.22736 0.12351
 H455 H 0.14666 0.27910 0.11703
 H456 H 0.00836 0.33730 0.09631
 H457 H 0.00684 0.39606 0.08215
 H458 H 0.11224 0.40016 0.08529
 C459 C -0.10994 0.28632 -0.09438
 C460 C -0.12077 0.28664 -0.06260
 C461 C -0.13923 0.26157 -0.04902
 C462 C -0.14696 0.23521 -0.06908
 C463 C -0.13660 0.23454 -0.10225
 C464 C -0.11768 0.26065 -0.11484
 O465 O -0.09294 0.31255 -0.10271
 C466 C -0.09311 0.32990 -0.07562
 C467 C -0.10998 0.31527 -0.05037
 C468 C -0.11424 0.32990 -0.02019
 C469 C -0.10067 0.36090 -0.01597
 C470 C -0.08290 0.37628 -0.04158
 C471 C -0.07889 0.36037 -0.07174
 H472 H -0.14738 0.26226 -0.02387
 H473 H -0.16090 0.21533 -0.05866
 H474 H -0.10984 0.26153 -0.14008
 H475 H -0.12785 0.31809 -0.00075
 H476 H -0.10387 0.37283 0.00726
 H477 H -0.06581 0.37169 -0.09184
 C478 C 0.11155 0.68206 -0.12583
 C479 C 0.08255 0.67812 -0.14177
 C480 C 0.06900 0.70227 -0.16128
 C481 C 0.08617 0.73161 -0.16474
 C482 C 0.11711 0.73610 -0.14978
 C483 C 0.12974 0.71044 -0.13003
 O484 O 0.11914 0.65701 -0.10665
 C485 C 0.09444 0.63669 -0.11079
 C486 C 0.07169 0.64822 -0.13251
 C487 C 0.04418 0.63060 -0.14093
 C488 C 0.03955 0.60023 -0.12574
 C489 C 0.06149 0.58875 -0.10158
 C490 C 0.08973 0.60705 -0.09454
 H491 H 0.04558 0.69900 -0.17277
 H492 H 0.07471 0.75079 -0.17870
 H493 H 0.15316 0.71191 -0.11830
 H494 H 0.02681 0.63996 -0.15843
 H495 H 0.01819 0.58625 -0.13197
 H496 H 0.10708 0.59887 -0.07644
 C497 C -0.10855 0.71134 0.10368
 C498 C -0.11685 0.71153 0.07123
 C499 C -0.13231 0.73774 0.05632
 C500 C -0.13966 0.76477 0.07567
 C501 C -0.13214 0.76497 0.10955
 C502 C -0.11624 0.73760 0.12351
 O503 O -0.09367 0.68423 0.11310
 C504 C -0.09269 0.66684 0.08603
 C505 C -0.10682 0.68229 0.05975
 C506 C -0.10950 0.66786 0.02931
 C507 C -0.09714 0.63625 0.02590
 C508 C -0.08192 0.62014 0.05252
 C509 C -0.07950 0.63578 0.08294
 H510 H -0.13829 0.73751 0.03064
 H511 H -0.15095 0.78558 0.06404
 H512 H -0.11052 0.73628 0.14923
 H513 H -0.12096 0.68035 0.00904
 H514 H -0.09902 0.62448 0.00246
 H515 H -0.06831 0.62386 0.10371
 C516 C 1.10931 0.12120 0.68688
 C517 C 1.07957 0.13584 0.68295
 C518 C 1.06521 0.15471 0.70682
 C519 C 1.08229 0.15898 0.73596
 C520 C 1.11374 0.14486 0.74092
 C521 C 1.12702 0.12538 0.71549
 O522 O 1.11835 0.10378 0.66125
 C523 C 1.09370 0.10759 0.64072
 C524 C 1.06944 0.12716 0.65284
 C525 C 1.04145 0.13468 0.63548
 C526 C 1.03822 0.12128 0.60439
 C527 C 1.06256 0.10046 0.59147
 C528 C 1.09081 0.09363 0.60994
 H529 H 1.04140 0.16544 0.70335
 H530 H 1.06995 0.17239 0.75487
 H531 H 1.15096 0.11462 0.71687
 H532 H 1.02271 0.15019 0.64554
 H533 H 1.01642 0.12669 0.59066
 H534 H 1.10973 0.07776 0.60080
 C535 C 0.89931 -0.07737 0.72166
 C536 C 0.93265 -0.07696 0.72457
 C537 C 0.94873 -0.08838 0.75198
 C538 C 0.92990 -0.10208 0.77702
 C539 C 0.89536 -0.10430 0.77454
 C540 C 0.87978 -0.09008 0.74696
 O541 O 0.88941 -0.06855 0.69196
 C542 C 0.91713 -0.06273 0.67593
 C543 C 0.94421 -0.06754 0.69496
 C544 C 0.97577 -0.06632 0.68266
 C545 C 0.97971 -0.06015 0.64924
 C546 C 0.95234 -0.05513 0.62888
 C547 C 0.92055 -0.05581 0.64252
 H548 H 0.97503 -0.08810 0.75347
 H549 H 0.94246 -0.11159 0.79824
 H550 H 0.85373 -0.09203 0.74362
 H551 H 0.99661 -0.07103 0.69805
 H552 H 1.00413 -0.05968 0.63912
 H553 H 0.89925 -0.05288 0.62732
 C554 C 1.08126 -0.11968 0.29933
 C555 C 1.07167 -0.08793 0.29471
 C556 C 1.07380 -0.07201 0.26468
 C557 C 1.08749 -0.08911 0.23860
 C558 C 1.09863 -0.12141 0.24305
 C559 C 1.09449 -0.13729 0.27353
 O560 O 1.08092 -0.12893 0.33048
 C561 C 1.07129 -0.10236 0.34590
 C562 C 1.06541 -0.07658 0.32506
 C563 C 1.05913 -0.04536 0.33599
 C564 C 1.05906 -0.04047 0.36974
 C565 C 1.06504 -0.06660 0.39170
 C566 C 1.07054 -0.09815 0.37970
 H567 H 1.06698 -0.04674 0.26191
 H568 H 1.09132 -0.07666 0.21549
 H569 H 1.10424 -0.16140 0.27780
 H570 H 1.05552 -0.02526 0.31916
 H571 H 1.05454 -0.01630 0.37882
 H572 H 1.07581 -0.11827 0.39605
 C573 C 0.87814 0.09923 0.29813
 C574 C 0.86908 0.06717 0.29830
 C575 C 0.85198 0.05342 0.27282
 C576 C 0.84398 0.07348 0.24607
 C577 C 0.85262 0.10718 0.24512
 C578 C 0.86994 0.11978 0.27228
 O579 O 0.89478 0.10763 0.32436
 C580 C 0.89627 0.08022 0.34152
 C581 C 0.88072 0.05469 0.32685
 C582 C 0.87900 0.02386 0.34108
 C583 C 0.89398 0.01927 0.37158
 C584 C 0.91064 0.04521 0.38676
 C585 C 0.91177 0.07606 0.37139
 H586 H 0.84551 0.02793 0.27320
 H587 H 0.83217 0.06187 0.22582
 H588 H 0.87627 0.14511 0.27443
 H589 H 0.86656 0.00410 0.32919
 H590 H 0.89311 -0.00452 0.38307
 H591 H 0.92417 0.09633 0.38247
 C592 C 0.10722 0.28988 -0.09911
 C593 C 0.13011 0.30038 -0.07742
 C594 C 0.15915 0.28410 -0.07205
 C595 C 0.16506 0.25582 -0.08989
 C596 C 0.14189 0.24377 -0.11273
 C597 C 0.11226 0.26153 -0.11683
 O598 O 0.08164 0.30958 -0.10132
 C599 C 0.08870 0.33311 -0.08056
 C600 C 0.11806 0.32845 -0.06525
 C601 C 0.13063 0.35019 -0.04295
 C602 C 0.11233 0.37806 -0.03631
 C603 C 0.08212 0.38388 -0.05208
 C604 C 0.07002 0.36086 -0.07441
 H605 H 0.17707 0.29328 -0.05522
 H606 H 0.18861 0.24463 -0.08667
 H607 H 0.09298 0.25358 -0.13267
 H608 H 0.15384 0.34598 -0.03126
 H609 H 0.12199 0.39530 -0.01910
 H610 H 0.04713 0.36461 -0.08687
 C611 C -0.11424 0.31232 0.12495
 C612 C -0.08462 0.31610 0.13977
 C613 C -0.06973 0.29141 0.15751
 C614 C -0.08626 0.26172 0.16051
 C615 C -0.11784 0.25740 0.14692
 C616 C -0.13174 0.28346 0.12868
 O617 O -0.12323 0.33818 0.10755
 C618 C -0.09881 0.35881 0.11174
 C619 C -0.07484 0.34665 0.13174
 C620 C -0.04741 0.36441 0.14007
 C621 C -0.04417 0.39569 0.12659
 C622 C -0.06747 0.40802 0.10420
 C623 C -0.09553 0.38946 0.09718
 H624 H -0.04588 0.29465 0.16810
 H625 H -0.07398 0.24216 0.17320
 H626 H -0.15568 0.28189 0.11801
 H627 H -0.02907 0.35447 0.15619
 H628 H -0.02279 0.40974 0.13260
 H629 H -0.11385 0.39827 0.08037
 C630 C -0.10840 0.69383 -0.10273
 C631 C -0.07516 0.69222 -0.10583
 C632 C -0.05635 0.71811 -0.11661
 C633 C -0.07244 0.74688 -0.12516
 C634 C -0.10709 0.74950 -0.12323
 C635 C -0.12507 0.72232 -0.11102
 O636 O -0.12162 0.66596 -0.09271
 C637 C -0.09606 0.64640 -0.08951
 C638 C -0.06710 0.66143 -0.09732
 C639 C -0.03731 0.64556 -0.09655
 C640 C -0.03735 0.61272 -0.08750
 C641 C -0.06678 0.59644 -0.07968
 C642 C -0.09660 0.61362 -0.08014
 H643 H -0.03012 0.71624 -0.11847
 H644 H -0.05738 0.76727 -0.13241
 H645 H -0.15136 0.72232 -0.10969
 H646 H -0.01485 0.65802 -0.10262
 H647 H -0.01438 0.60007 -0.08570
 H648 H -0.11934 0.60175 -0.07392
 C649 C 0.10671 0.70892 0.10516
 C650 C 0.12212 0.70593 0.07555
 C651 C 0.14582 0.72745 0.06466
 C652 C 0.15415 0.75312 0.08516
 C653 C 0.13899 0.75701 0.11637
 C654 C 0.11454 0.73427 0.12604
 O655 O 0.08549 0.68525 0.11122
 C656 C 0.08760 0.66698 0.08477
 C657 C 0.10970 0.67864 0.06221
 C658 C 0.11664 0.66281 0.03322
 C659 C 0.10035 0.63356 0.02735
 C660 C 0.07757 0.62086 0.05031
 C661 C 0.07086 0.63807 0.07929
 H662 H 0.15745 0.72466 0.04109
 H663 H 0.17167 0.77047 0.07577
 H664 H 0.10282 0.73501 0.14970
 H665 H 0.13430 0.67239 0.01595
 H666 H 0.10569 0.62070 0.00503
 H667 H 0.05387 0.62880 0.09740
 C668 C 0.29471 1.08813 0.88248
 C669 C 0.29327 1.05554 0.87562
 C670 C 0.26621 1.04131 0.86137
 C671 C 0.23969 1.06153 0.85367
 C672 C 0.24075 1.09540 0.86006
 C673 C 0.26880 1.10867 0.87487
 O674 O 0.32263 1.09697 0.89585
 C675 C 0.33927 1.06938 0.89741
 C676 C 0.32249 1.04328 0.88525
 C677 C 0.33578 1.01222 0.88396
 C678 C 0.36760 1.00793 0.89571
 C679 C 0.38525 1.03448 0.90860
 C680 C 0.37072 1.06561 0.90949
 H681 H 0.26554 1.01557 0.85629
 H682 H 0.21835 1.05075 0.84285
 H683 H 0.27086 1.13440 0.87960
 H684 H 0.32221 0.99204 0.87417
 H685 H 0.37833 0.98392 0.89501
 H686 H 0.38356 1.08637 0.91909
 C687 C 0.30761 0.89527 1.13022
 C688 C 0.32030 0.91206 1.15602
 C689 C 0.30480 0.91382 1.18613
 C690 C 0.27481 0.89788 1.18971
 C691 C 0.26043 0.88126 1.16311
 C692 C 0.27748 0.87990 1.13296
 O693 O 0.32640 0.89629 1.10379
 C694 C 0.35141 0.91430 1.11308
 C695 C 0.34869 0.92487 1.14472
 C696 C 0.37144 0.94529 1.15892
 C697 C 0.39811 0.95514 1.13970
 C698 C 0.40180 0.94383 1.10735
 C699 C 0.37819 0.92302 1.09390
 H700 H 0.31550 0.92684 1.20622
 H701 H 0.26298 0.89847 1.21334
 H702 H 0.26738 0.86801 1.11189
 H703 H 0.36855 0.95364 1.18372
 H704 H 0.41611 0.97117 1.15010
 H705 H 0.38024 0.91451 1.06905
 C706 C 0.69622 1.12032 1.09251
 C707 C 0.69780 1.12763 1.05973
 C708 C 0.72516 1.14154 1.04517
 C709 C 0.75186 1.14837 1.06527
 C710 C 0.75067 1.14155 1.09936
 C711 C 0.72225 1.12720 1.11295
 O712 O 0.66817 1.10696 1.10156
 C713 C 0.65161 1.10586 1.07390
 C714 C 0.66853 1.11835 1.04757
 C715 C 0.65542 1.11993 1.01635
 C716 C 0.62370 1.10796 1.01213
 C717 C 0.60602 1.09448 1.03886
 C718 C 0.62028 1.09353 1.07019
 H719 H 0.72598 1.14684 1.01926
 H720 H 0.77349 1.15875 1.05417
 H721 H 0.72007 1.12210 1.13883
 H722 H 0.66911 1.12998 0.99599
 H723 H 0.61313 1.10881 0.98800
 H724 H 0.60743 1.08342 1.09108
 C725 C 0.70675 0.89094 0.90150
 C726 C 0.70944 0.88737 0.93480
 C727 C 0.73747 0.87609 0.94986
 C728 C 0.76371 0.86753 0.92980
 C729 C 0.76151 0.87002 0.89526
 C730 C 0.73274 0.88257 0.88092
 O731 O 0.67748 0.90131 0.89234
 C732 C 0.66144 0.90415 0.92048
 C733 C 0.67996 0.89578 0.94711
 C734 C 0.66784 0.89566 0.97884
 C735 C 0.63523 0.90459 0.98339
 C736 C 0.61553 0.91365 0.95645
 C737 C 0.62894 0.91357 0.92450
 H738 H 0.73895 0.87353 0.97612
 H739 H 0.78570 0.85847 0.94117
 H740 H 0.73025 0.88448 0.85469
 H741 H 0.68288 0.88867 0.99935
 H742 H 0.62543 0.90468 1.00798
 H743 H 0.61443 0.92014 0.90347
   
