data_POSCAR
  _audit_creation_date              2014-09-24
  _audit_creation_method            'ToBaCCo'
  _symmetry_space_group_name_H-M    'P1'
  _symmetry_Int_Tables_number       1
  _symmetry_cell_setting            triclinic
  loop_
  _symmetry_equiv_pos_as_xyz
 x,y,z
_cell_length_a 41.8728
_cell_length_b 41.8401
_cell_length_c 41.8618
_cell_angle_alpha 89.968700
_cell_angle_beta 89.996300
_cell_angle_gamma 89.973500
loop_
  _atom_site_label
  _atom_site_type_symbol
  _atom_site_fract_x
  _atom_site_fract_y
  _atom_site_fract_z
C1 C 0.27284 0.25025 0.22689
 N2 N 0.24981 0.27314 0.22708
 C3 C 0.22670 0.27325 0.24986
 N4 N 0.22680 0.25011 0.27265
 C5 C 0.24965 0.22704 0.27282
 N6 N 0.27258 0.22730 0.24985
 C7 C 0.72635 -0.25052 0.22627
 N8 N 0.74956 -0.27327 0.22642
 C9 C 0.77273 -0.27347 0.24919
 N10 N 0.77244 -0.25041 0.27206
 C11 C 0.74948 -0.22747 0.27236
 N12 N 0.72655 -0.22771 0.24940
 C13 C 0.72763 0.25057 0.77262
 N14 N 0.72792 0.22765 0.74966
 C15 C 0.75080 0.22747 0.72665
 N16 N 0.77358 0.25059 0.72679
 C17 C 0.77372 0.27376 0.74957
 N18 N 0.75059 0.27350 0.77239
 C19 C 0.27380 -0.25042 0.77430
 N20 N 0.25053 -0.27310 0.77420
 C21 C 0.22745 -0.27319 0.75139
 N22 N 0.22775 -0.25024 0.72844
 C23 C 0.25076 -0.22738 0.72810
 N24 N 0.27366 -0.22765 0.75109
 C25 C 0.72634 -0.25037 0.77415
 N26 N 0.72653 -0.22757 0.75098
 C27 C 0.74940 -0.22739 0.72795
 N28 N 0.77231 -0.25039 0.72822
 C29 C 0.77262 -0.27343 0.75114
 N30 N 0.74951 -0.27317 0.77398
 C31 C 0.27292 0.25014 0.77278
 N32 N 0.27274 0.22727 0.74975
 C33 C 0.24984 0.22704 0.72674
 N34 N 0.22694 0.25007 0.72695
 C35 C 0.22676 0.27313 0.74980
 N36 N 0.24984 0.27298 0.77262
 C37 C 0.27329 -0.25098 0.22603
 N38 N 0.25003 -0.27366 0.22615
 C39 C 0.22685 -0.27383 0.24893
 N40 N 0.22721 -0.25081 0.27184
 C41 C 0.25022 -0.22793 0.27217
 N42 N 0.27313 -0.22821 0.24920
 C43 C 0.72798 0.25092 0.22707
 N44 N 0.72826 0.22797 0.25004
 C45 C 0.75115 0.22777 0.27304
 N46 N 0.77393 0.25089 0.27289
 C47 C 0.77408 0.27409 0.25011
 N48 N 0.75095 0.27385 0.22730
 O49 O 0.27647 0.03042 0.46862
 O50 O 0.27695 -0.03174 0.53094
 O51 O 0.27680 -0.03184 0.46870
 O52 O 0.27658 0.03050 0.53083
 O53 O 0.22376 0.03024 0.53093
 O54 O 0.22398 -0.03210 0.46882
 O55 O 0.22413 -0.03200 0.53105
 O56 O 0.22366 0.03016 0.46873
 Cu57 Cu 0.28203 -0.00065 0.49976
 Cu58 Cu 0.21855 -0.00096 0.49989
 C59 C 0.24999 0.04079 0.45817
 C60 C 0.25062 -0.04235 0.54153
 C61 C 0.25042 -0.04248 0.45827
 C62 C 0.25013 0.04090 0.54136
 O63 O 0.72418 0.03097 0.53097
 O64 O 0.72370 -0.03126 0.46879
 O65 O 0.72365 -0.03128 0.53103
 O66 O 0.72425 0.03099 0.46877
 O67 O 0.77707 0.03052 0.46882
 O68 O 0.77647 -0.03175 0.53107
 O69 O 0.77652 -0.03173 0.46883
 O70 O 0.77700 0.03050 0.53102
 Cu71 Cu 0.71862 -0.00010 0.49988
 Cu72 Cu 0.78209 -0.00067 0.49994
 C73 C 0.75067 0.04125 0.54148
 C74 C 0.75003 -0.04199 0.45830
 C75 C 0.74996 -0.04201 0.54157
 C76 C 0.75076 0.04128 0.45830
 O77 O 0.46929 0.27705 0.03100
 O78 O 0.53145 0.27702 -0.03124
 O79 O 0.46926 0.27694 -0.03122
 O80 O 0.53150 0.27716 0.03097
 O81 O 0.53160 0.22430 0.03111
 O82 O 0.46937 0.22408 -0.03109
 O83 O 0.53156 0.22416 -0.03111
 O84 O 0.46940 0.22419 0.03113
 Cu85 Cu 0.50036 0.28238 -0.00014
 Cu86 Cu 0.50049 0.21885 0.00003
 C87 C 0.45885 0.25062 0.04156
 C88 C 0.54200 0.25059 -0.04168
 C89 C 0.45881 0.25047 -0.04165
 C90 C 0.54206 0.25077 0.04153
 O91 O 0.53117 0.72268 0.03142
 O92 O 0.46903 0.72269 -0.03086
 O93 O 0.53124 0.72280 -0.03081
 O94 O 0.46895 0.72255 0.03136
 O95 O 0.46883 0.77541 0.03143
 O96 O 0.53111 0.77565 -0.03074
 O97 O 0.46891 0.77555 -0.03078
 O98 O 0.53104 0.77554 0.03149
 Cu99 Cu 0.50011 0.71735 0.00027
 Cu100 Cu 0.49996 0.78087 0.00036
 C101 C 0.54159 0.74911 0.04196
 C102 C 0.45848 0.74912 -0.04133
 C103 C 0.54169 0.74927 -0.04127
 C104 C 0.45837 0.74894 0.04188
 O105 O 0.03077 0.46997 0.27580
 O106 O -0.03144 0.53221 0.27551
 O107 O -0.03141 0.46996 0.27590
 O108 O 0.03078 0.53221 0.27542
 O109 O 0.03071 0.53193 0.22259
 O110 O -0.03149 0.46967 0.22307
 O111 O -0.03152 0.53193 0.22269
 O112 O 0.03070 0.46968 0.22297
 Cu113 Cu -0.00032 0.50113 0.28099
 Cu114 Cu -0.00041 0.50078 0.21750
 C115 C 0.04122 0.45931 0.24943
 C116 C -0.04199 0.54257 0.24905
 C117 C -0.04194 0.45929 0.24956
 C118 C 0.04126 0.54256 0.24893
 O119 O 0.03035 0.53184 0.72467
 O120 O -0.03182 0.46962 0.72402
 O121 O -0.03187 0.53187 0.72455
 O122 O 0.03036 0.46960 0.72415
 O123 O 0.03026 0.46914 0.77698
 O124 O -0.03197 0.53141 0.77737
 O125 O -0.03193 0.46915 0.77685
 O126 O 0.03025 0.53138 0.77750
 Cu127 Cu -0.00074 0.50079 0.71902
 Cu128 Cu -0.00086 0.50023 0.78251
 C129 C 0.04081 0.54209 0.75119
 C130 C -0.04235 0.45887 0.75033
 C131 C -0.04243 0.54214 0.75103
 C132 C 0.04082 0.45886 0.75049
 C133 C 0.32202 0.27411 0.15453
 C134 C 0.34566 0.25048 0.15448
 C135 C 0.34555 0.22677 0.17807
 C136 C 0.32188 0.22667 0.20163
 C137 C 0.29796 0.25033 0.20191
 C138 C 0.29832 0.27408 0.17806
 C139 C 0.37001 0.25053 0.13023
 C140 C 0.39040 0.25057 0.10992
 C141 C 0.41426 0.25060 0.08611
 C142 C 0.43463 0.25062 0.06578
 H143 H 0.32189 0.29258 0.13637
 H144 H 0.36375 0.20836 0.17825
 H145 H 0.32237 0.20804 0.21959
 H146 H 0.28031 0.29265 0.17752
 C147 C 0.67847 0.72579 0.15494
 C148 C 0.65471 0.74927 0.15499
 C149 C 0.65468 0.77282 0.17867
 C150 C 0.67832 0.77295 0.20226
 C151 C 0.70248 0.74940 0.20255
 C152 C 0.70216 0.72579 0.17846
 C153 C 0.63036 0.74922 0.13072
 C154 C 0.60999 0.74918 0.11038
 C155 C 0.58615 0.74914 0.08656
 C156 C 0.56580 0.74912 0.06620
 H157 H 0.67870 0.70743 0.13669
 H158 H 0.63637 0.79113 0.17892
 H159 H 0.67753 0.79156 0.22021
 H160 H 0.72017 0.70722 0.17766
 C161 C 0.65510 0.22689 -0.17840
 C162 C 0.65497 0.25056 -0.15482
 C163 C 0.67855 0.27425 -0.15491
 C164 C 0.70219 0.27428 -0.17850
 C165 C 0.70256 0.25057 -0.20235
 C166 C 0.67871 0.22686 -0.20202
 C167 C 0.63067 0.25055 -0.13052
 C168 C 0.61032 0.25055 -0.11015
 C169 C 0.58652 0.25055 -0.08630
 C170 C 0.56619 0.25057 -0.06592
 H171 H 0.63695 0.20844 -0.17854
 H172 H 0.67867 0.29269 -0.13676
 H173 H 0.72014 0.29289 -0.17800
 H174 H 0.67824 0.20825 -0.21998
 C175 C 0.34547 0.77282 -0.17812
 C176 C 0.34538 0.74932 -0.15437
 C177 C 0.32157 0.72590 -0.15426
 C178 C 0.29790 0.72593 -0.17780
 C179 C 0.29764 0.74949 -0.20195
 C180 C 0.32185 0.77296 -0.20172
 C181 C 0.36971 0.74924 -0.13009
 C182 C 0.39008 0.74920 -0.10974
 C183 C 0.41392 0.74915 -0.08592
 C184 C 0.43427 0.74913 -0.06556
 H185 H 0.36382 0.79107 -0.17842
 H186 H 0.32129 0.70759 -0.13595
 H187 H 0.27985 0.70742 -0.17694
 H188 H 0.32269 0.79154 -0.21973
 C189 C 0.17788 0.34601 0.22630
 C190 C 0.15415 0.34600 0.24982
 C191 C 0.15409 0.32225 0.27336
 C192 C 0.17766 0.29858 0.27341
 C193 C 0.20167 0.29835 0.24986
 C194 C 0.20149 0.32237 0.22628
 C195 C 0.12987 0.37035 0.24979
 C196 C 0.10954 0.39075 0.24973
 C197 C 0.08575 0.41464 0.24963
 C198 C 0.06542 0.43505 0.24954
 H199 H 0.17815 0.36429 0.20796
 H200 H 0.13581 0.32203 0.29169
 H201 H 0.17704 0.28049 0.29191
 H202 H 0.21956 0.32296 0.20780
 C203 C 0.17802 0.65461 0.77531
 C204 C 0.15435 0.65467 0.75172
 C205 C 0.15453 0.67828 0.72805
 C206 C 0.17827 0.70176 0.72792
 C207 C 0.20222 0.70193 0.75154
 C208 C 0.20180 0.67806 0.77526
 C209 C 0.12993 0.63049 0.75175
 C210 C 0.10947 0.61024 0.75170
 C211 C 0.08553 0.58652 0.75158
 C212 C 0.06509 0.56625 0.75142
 H213 H 0.17810 0.63643 0.79375
 H214 H 0.13631 0.67855 0.70966
 H215 H 0.17783 0.71974 0.70931
 H216 H 0.21982 0.67744 0.79379
 C217 C -0.15555 0.67898 0.27251
 C218 C -0.15545 0.65536 0.24890
 C219 C -0.17915 0.65533 0.22538
 C220 C -0.20291 0.67882 0.22541
 C221 C -0.20335 0.70284 0.24908
 C222 C -0.17924 0.70252 0.27266
 C223 C -0.13105 0.63113 0.24885
 C224 C -0.11061 0.61083 0.24885
 C225 C -0.08669 0.58707 0.24889
 C226 C -0.06627 0.56676 0.24895
 H227 H -0.13729 0.67921 0.29085
 H228 H -0.17929 0.63712 0.20698
 H229 H -0.22087 0.67803 0.20681
 H230 H -0.17855 0.72043 0.29132
 C231 C -0.17877 0.34540 0.77311
 C232 C -0.15508 0.34547 0.74957
 C233 C -0.15499 0.32179 0.72602
 C234 C -0.17849 0.29807 0.72596
 C235 C -0.20257 0.29764 0.74956
 C236 C -0.20232 0.32174 0.77315
 C237 C -0.13084 0.36985 0.74963
 C238 C -0.11056 0.39027 0.74973
 C239 C -0.08681 0.41418 0.74991
 C240 C -0.06652 0.43459 0.75009
 H241 H -0.17904 0.36365 0.79146
 H242 H -0.13673 0.32164 0.70768
 H243 H -0.17766 0.28011 0.70735
 H244 H -0.22028 0.32245 0.79176
 C245 C 0.22591 0.17777 0.34520
 C246 C 0.24953 0.15412 0.34523
 C247 C 0.27318 0.15425 0.32162
 C248 C 0.27324 0.17794 0.29806
 C249 C 0.24959 0.20188 0.29779
 C250 C 0.22590 0.20150 0.32167
 C251 C 0.24955 0.12974 0.36949
 C252 C 0.24960 0.10933 0.38981
 C253 C 0.24970 0.08543 0.41361
 C254 C 0.24982 0.06504 0.43395
 H255 H 0.20749 0.17789 0.36338
 H256 H 0.29159 0.13604 0.32142
 H257 H 0.29183 0.17746 0.28008
 H258 H 0.20734 0.21952 0.32223
 C259 C 0.77459 0.17833 0.65424
 C260 C 0.75104 0.15462 0.65425
 C261 C 0.72743 0.15468 0.67790
 C262 C 0.72733 0.17835 0.70145
 C263 C 0.75090 0.20234 0.70168
 C264 C 0.77456 0.20204 0.67777
 C265 C 0.75107 0.13026 0.63001
 C266 C 0.75105 0.10984 0.60971
 C267 C 0.75096 0.08594 0.58595
 C268 C 0.75085 0.06552 0.56565
 H269 H 0.79299 0.17851 0.63603
 H270 H 0.70908 0.13643 0.67812
 H271 H 0.70876 0.17781 0.71945
 H272 H 0.79306 0.22010 0.67718
 C273 C 0.22728 -0.17854 0.65535
 C274 C 0.25102 -0.15503 0.65512
 C275 C 0.27470 -0.15513 0.67870
 C276 C 0.27466 -0.17865 0.70245
 C277 C 0.25087 -0.20242 0.70292
 C278 C 0.22717 -0.20208 0.67906
 C279 C 0.25105 -0.13080 0.63071
 C280 C 0.25102 -0.11052 0.61025
 C281 C 0.25092 -0.08678 0.58630
 C282 C 0.25079 -0.06650 0.56585
 H283 H 0.20883 -0.17867 0.63721
 H284 H 0.29320 -0.13703 0.67874
 H285 H 0.29327 -0.17816 0.72040
 H286 H 0.20850 -0.21997 0.67866
 C287 C 0.77316 -0.17852 0.34491
 C288 C 0.74947 -0.15494 0.34509
 C289 C 0.72576 -0.15503 0.32154
 C290 C 0.72572 -0.17860 0.29787
 C291 C 0.74945 -0.20245 0.29745
 C292 C 0.77319 -0.20212 0.32128
 C293 C 0.74950 -0.13065 0.36942
 C294 C 0.74958 -0.11032 0.38980
 C295 C 0.74971 -0.08652 0.41367
 C296 C 0.74985 -0.06619 0.43406
 H297 H 0.79163 -0.17867 0.36303
 H298 H 0.70730 -0.13687 0.32146
 H299 H 0.70709 -0.17810 0.27994
 H300 H 0.79182 -0.22007 0.32172
 C301 C 0.67856 0.72606 -0.15435
 C302 C 0.65483 0.74959 -0.15437
 C303 C 0.65481 0.77314 -0.17809
 C304 C 0.67841 0.77321 -0.20172
 C305 C 0.70253 0.74963 -0.20205
 C306 C 0.70221 0.72602 -0.17793
 C307 C 0.63050 0.74956 -0.13006
 C308 C 0.61014 0.74951 -0.10970
 C309 C 0.58629 0.74943 -0.08586
 C310 C 0.56593 0.74936 -0.06550
 H311 H 0.67879 0.70771 -0.13608
 H312 H 0.63654 0.79148 -0.17832
 H313 H 0.67762 0.79183 -0.21970
 H314 H 0.72019 0.70742 -0.17714
 C315 C 0.32197 0.27382 -0.15472
 C316 C 0.34566 0.25023 -0.15470
 C317 C 0.34562 0.22662 -0.17835
 C318 C 0.32199 0.22656 -0.20195
 C319 C 0.29802 0.25018 -0.20221
 C320 C 0.29830 0.27383 -0.17828
 C321 C 0.37000 0.25025 -0.13041
 C322 C 0.39037 0.25028 -0.11006
 C323 C 0.41421 0.25032 -0.08623
 C324 C 0.43457 0.25038 -0.06588
 H325 H 0.32177 0.29222 -0.13651
 H326 H 0.36386 0.20824 -0.17855
 H327 H 0.32254 0.20800 -0.21995
 H328 H 0.28026 0.29236 -0.17772
 C329 C 0.34502 0.77228 0.17848
 C330 C 0.34497 0.74879 0.15473
 C331 C 0.32117 0.72537 0.15463
 C332 C 0.29746 0.72538 0.17816
 C333 C 0.29716 0.74893 0.20229
 C334 C 0.32137 0.77241 0.20206
 C335 C 0.36935 0.74875 0.13047
 C336 C 0.38976 0.74875 0.11016
 C337 C 0.41367 0.74879 0.08638
 C338 C 0.43408 0.74885 0.06607
 H339 H 0.36335 0.79055 0.17877
 H340 H 0.32091 0.70706 0.13634
 H341 H 0.27942 0.70686 0.17730
 H342 H 0.32219 0.79098 0.22005
 C343 C 0.67884 0.27466 0.15461
 C344 C 0.65526 0.25098 0.15452
 C345 C 0.65541 0.22728 0.17812
 C346 C 0.67904 0.22723 0.20172
 C347 C 0.70289 0.25094 0.20204
 C348 C 0.70250 0.27467 0.17818
 C349 C 0.63093 0.25098 0.13023
 C350 C 0.61055 0.25096 0.10989
 C351 C 0.58668 0.25091 0.08608
 C352 C 0.56630 0.25085 0.06575
 H353 H 0.67895 0.29312 0.13644
 H354 H 0.63726 0.20883 0.17828
 H355 H 0.67857 0.20861 0.21968
 H356 H 0.72045 0.29328 0.17766
 C357 C -0.17936 0.65524 0.77493
 C358 C -0.15573 0.65518 0.75133
 C359 C -0.15584 0.67879 0.72768
 C360 C -0.17948 0.70240 0.72757
 C361 C -0.20352 0.70280 0.75122
 C362 C -0.20306 0.67880 0.77494
 C363 C -0.13138 0.63088 0.75136
 C364 C -0.11098 0.61054 0.75133
 C365 C -0.08709 0.58672 0.75126
 C366 C -0.06670 0.56637 0.75117
 H367 H -0.17949 0.63705 0.79337
 H368 H -0.13764 0.67896 0.70928
 H369 H -0.17879 0.72029 0.70887
 H370 H -0.22097 0.67808 0.79359
 C371 C -0.17839 0.34577 0.22660
 C372 C -0.15469 0.34582 0.25012
 C373 C -0.15460 0.32210 0.27366
 C374 C -0.17811 0.29837 0.27372
 C375 C -0.20221 0.29797 0.25013
 C376 C -0.20195 0.32211 0.22654
 C377 C -0.13045 0.37021 0.25008
 C378 C -0.11016 0.39065 0.25000
 C379 C -0.08640 0.41458 0.24987
 C380 C -0.06611 0.43500 0.24974
 H381 H -0.17867 0.36405 0.20825
 H382 H -0.13634 0.32191 0.29199
 H383 H -0.17727 0.28038 0.29232
 H384 H -0.21991 0.32285 0.20794
 C385 C 0.17772 0.34570 0.77350
 C386 C 0.15400 0.34572 0.74996
 C387 C 0.15403 0.32205 0.72636
 C388 C 0.17767 0.29844 0.72627
 C389 C 0.20166 0.29817 0.74984
 C390 C 0.20139 0.32212 0.77348
 C391 C 0.12965 0.37002 0.75003
 C392 C 0.10927 0.39038 0.75011
 C393 C 0.08541 0.41423 0.75023
 C394 C 0.06505 0.43460 0.75034
 H395 H 0.17792 0.36391 0.79189
 H396 H 0.13578 0.32185 0.70801
 H397 H 0.17711 0.28042 0.70772
 H398 H 0.21944 0.32268 0.79198
 C399 C 0.17857 0.65513 0.22505
 C400 C 0.15488 0.65518 0.24860
 C401 C 0.15504 0.67877 0.27223
 C402 C 0.17878 0.70225 0.27239
 C403 C 0.20288 0.70254 0.24880
 C404 C 0.20237 0.67856 0.22509
 C405 C 0.13043 0.63099 0.24855
 C406 C 0.10996 0.61074 0.24857
 C407 C 0.08600 0.58701 0.24865
 C408 C 0.06556 0.56673 0.24876
 H409 H 0.17866 0.63694 0.20662
 H410 H 0.13680 0.67902 0.29059
 H411 H 0.17814 0.72013 0.29108
 H412 H 0.22032 0.67775 0.20648
 C413 C 0.77298 -0.17855 0.65521
 C414 C 0.74934 -0.15491 0.65505
 C415 C 0.72570 -0.15493 0.67867
 C416 C 0.72568 -0.17848 0.70239
 C417 C 0.74936 -0.20239 0.70280
 C418 C 0.77302 -0.20213 0.67889
 C419 C 0.74937 -0.13064 0.63066
 C420 C 0.74944 -0.11032 0.61022
 C421 C 0.74959 -0.08653 0.58630
 C422 C 0.74974 -0.06621 0.56587
 H423 H 0.79140 -0.17876 0.63704
 H424 H 0.70728 -0.13673 0.67877
 H425 H 0.70710 -0.17792 0.72038
 H426 H 0.79161 -0.22012 0.67844
 C427 C 0.27415 -0.15564 0.32145
 C428 C 0.25046 -0.15549 0.34502
 C429 C 0.22670 -0.17899 0.34483
 C430 C 0.22660 -0.20256 0.32116
 C431 C 0.25031 -0.20295 0.29731
 C432 C 0.27411 -0.17918 0.29775
 C433 C 0.25051 -0.13122 0.36939
 C434 C 0.25053 -0.11089 0.38979
 C435 C 0.25052 -0.08707 0.41366
 C436 C 0.25049 -0.06672 0.43404
 H437 H 0.29266 -0.13755 0.32138
 H438 H 0.20824 -0.17910 0.36297
 H439 H 0.20792 -0.22045 0.32159
 H440 H 0.29272 -0.17871 0.27980
 C441 C 0.77489 0.17852 0.34548
 C442 C 0.75134 0.15482 0.34547
 C443 C 0.72773 0.15492 0.32182
 C444 C 0.72765 0.17861 0.29825
 C445 C 0.75123 0.20260 0.29803
 C446 C 0.77488 0.20226 0.32195
 C447 C 0.75134 0.13042 0.36973
 C448 C 0.75127 0.10997 0.39003
 C449 C 0.75114 0.08603 0.41381
 C450 C 0.75098 0.06559 0.43411
 H451 H 0.79328 0.17867 0.36369
 H452 H 0.70938 0.13668 0.32158
 H453 H 0.70910 0.17810 0.28025
 H454 H 0.79339 0.22031 0.32254
 C455 C 0.22622 0.17792 0.65425
 C456 C 0.24988 0.15429 0.65420
 C457 C 0.27352 0.15441 0.67782
 C458 C 0.27354 0.17805 0.70141
 C459 C 0.24985 0.20195 0.70171
 C460 C 0.22618 0.20159 0.67782
 C461 C 0.24990 0.12993 0.62993
 C462 C 0.24993 0.10952 0.60962
 C463 C 0.24998 0.08561 0.58584
 C464 C 0.25004 0.06519 0.56553
 H465 H 0.20780 0.17805 0.63608
 H466 H 0.29195 0.13622 0.67800
 H467 H 0.29212 0.17755 0.71939
 H468 H 0.20759 0.21958 0.67728
   
