data_POSCAR
  _audit_creation_date              2014-09-24
  _audit_creation_method            'ToBaCCo'
  _symmetry_space_group_name_H-M    'P1'
  _symmetry_Int_Tables_number       1
  _symmetry_cell_setting            triclinic
  loop_
  _symmetry_equiv_pos_as_xyz
 x,y,z
_cell_length_a 28.9220
_cell_length_b 28.2323
_cell_length_c 28.0847
_cell_angle_alpha 90.832600
_cell_angle_beta 90.331300
_cell_angle_gamma 90.266000
loop_
  _atom_site_label
  _atom_site_type_symbol
  _atom_site_fract_x
  _atom_site_fract_y
  _atom_site_fract_z
C1 C 0.18161 1.22692 0.17486
 N2 N 0.22163 1.21204 0.15465
 C3 C 0.24383 1.17343 0.17156
 N4 N 0.22720 1.15130 0.21059
 C5 C 0.18789 1.16644 0.23214
 N6 N 0.16553 1.20445 0.21386
 C7 C 0.82201 0.76906 0.18358
 N8 N 0.78255 0.78775 0.16532
 C9 C 0.76617 0.82991 0.18173
 N10 N 0.78892 0.85326 0.21744
 C11 C 0.82963 0.83643 0.23423
 N12 N 0.84608 0.79473 0.21686
 C13 C 0.82231 1.23616 -0.17465
 N14 N 0.83762 1.22459 -0.21893
 C15 C 0.81638 1.19009 -0.24557
 N16 N 0.78006 1.16647 -0.22640
 C17 C 0.76461 1.17736 -0.18204
 N18 N 0.78535 1.21282 -0.15660
 C19 C 0.17101 0.76591 -0.16295
 N20 N 0.15093 0.78516 -0.20180
 C21 C 0.17336 0.81651 -0.22964
 N22 N 0.21696 0.83003 -0.21659
 C23 C 0.23836 0.81080 -0.17822
 N24 N 0.21523 0.77846 -0.15188
 C25 C 0.57532 1.05840 -0.01913
 H26 H 0.57379 1.05987 0.01934
 C27 C 0.60972 1.08336 -0.04288
 H28 H 0.63467 1.10429 -0.02267
 C29 C 0.54612 1.02735 -0.09231
 H30 H 0.52213 1.00442 -0.11131
 C31 C 0.58002 1.05179 -0.11751
 H32 H 0.58169 1.04808 -0.15590
 N33 N 0.54460 1.03086 -0.04395
 C34 C 0.43342 1.00830 0.05740
 H35 H 0.43381 0.97002 0.05866
 C36 C 0.39998 1.03363 0.08254
 H37 H 0.37444 1.01487 0.10322
 C38 C 0.46453 1.07942 0.02666
 H39 H 0.48893 1.09696 0.00379
 C40 C 0.43148 1.10616 0.05113
 H41 H 0.43056 1.14425 0.04720
 Zn42 Zn 0.50420 0.99319 -0.00751
 N43 N 0.46464 1.03136 0.02997
 C44 C 0.54242 0.96037 0.07971
 N45 N 0.54237 0.95558 0.03140
 C46 C 0.57358 0.92749 0.00866
 C47 C 0.60729 0.90364 0.03456
 C48 C 0.57566 0.93716 0.10701
 C49 C 0.43625 0.97727 -0.07708
 C50 C 0.40363 0.95138 -0.10361
 C51 C 0.43194 0.87980 -0.06761
 C52 C 0.46430 0.90701 -0.04202
 N53 N 0.46569 0.95488 -0.04699
 H54 H 0.51817 0.98388 0.09699
 H55 H 0.57333 0.92517 -0.02983
 H56 H 0.63317 0.88290 0.01604
 H57 H 0.57685 0.94271 0.14523
 H58 H 0.43736 1.01548 -0.07944
 H59 H 0.37956 0.96967 -0.12651
 H60 H 0.43015 0.84190 -0.06242
 H61 H 0.48705 0.89004 -0.01692
 C62 C 0.39850 1.08297 0.07885
 C63 C 0.61276 1.07938 -0.09251
 C64 C 0.40109 0.90214 -0.09862
 C65 C 0.60890 0.90918 0.08414
 C66 C -0.03055 0.54694 1.09995
 H67 H -0.00423 0.52793 1.11908
 C68 C -0.05727 0.58038 1.12432
 H69 H -0.05239 0.58556 1.16231
 C70 C -0.06625 0.56704 1.02688
 H71 H -0.06864 0.56238 0.98864
 C72 C -0.09312 0.60130 1.04970
 H73 H -0.11621 0.62307 1.02893
 N74 N -0.03621 0.54014 1.05219
 C75 C 0.07915 0.44361 1.03304
 H76 H 0.09131 0.45898 1.00034
 C77 C 0.10328 0.40601 1.05311
 H78 H 0.13412 0.39290 1.03577
 C79 C 0.02153 0.43850 1.09237
 H80 H -0.01204 0.44868 1.10560
 C81 C 0.04586 0.40262 1.11504
 H82 H 0.03194 0.38737 1.14711
 Zn83 Zn 0.00141 0.49898 1.01533
 N84 N 0.03868 0.45861 1.05241
 C85 C 0.06682 0.56939 1.00441
 N86 N 0.03894 0.53934 0.97901
 C87 C 0.03454 0.54265 0.93091
 C88 C 0.05774 0.57846 0.90673
 C89 C 0.09021 0.60593 0.98176
 C90 C -0.08159 0.45404 0.98321
 C91 C -0.10702 0.41946 0.95824
 C92 C -0.03683 0.39499 0.91878
 C93 C -0.01270 0.42980 0.94463
 N94 N -0.03523 0.45842 0.97615
 H95 H 0.06916 0.56619 1.04269
 H96 H 0.01144 0.51905 0.91155
 H97 H 0.05304 0.58183 0.86864
 H98 H 0.11082 0.63085 1.00262
 H99 H -0.09859 0.47594 1.00959
 H100 H -0.14364 0.41527 0.96493
 H101 H -0.01844 0.37172 0.89452
 H102 H 0.02431 0.43324 0.94051
 C103 C 0.08592 0.38411 1.09391
 C104 C -0.08922 0.60780 1.09912
 C105 C -0.08431 0.38923 0.92615
 C106 C 0.08460 0.61152 0.93260
 C107 C 1.06515 -0.00388 0.58590
 H108 H 1.06558 0.03443 0.58705
 C109 C 1.08625 -0.02930 0.62240
 H110 H 1.10296 -0.01038 0.65162
 C111 C 1.04063 -0.07516 0.54787
 H112 H 1.02105 -0.09331 0.52043
 C113 C 1.06279 -0.10185 0.58249
 H114 H 1.06165 -0.14015 0.57980
 N115 N 1.04248 -0.02700 0.54980
 C116 C 1.02838 0.06987 0.43156
 H117 H 0.99104 0.07021 0.42935
 C118 C 1.05433 0.09045 0.39573
 H119 H 1.03681 0.10690 0.36609
 C120 C 1.09652 0.04533 0.47139
 H121 H 1.11262 0.02630 0.50015
 C122 C 1.12398 0.06632 0.43651
 H123 H 1.16130 0.06420 0.43894
 Zn124 Zn 1.00951 0.01087 0.50579
 N125 N 1.04960 0.04692 0.46777
 C126 C 0.97187 0.09838 0.53995
 N127 N 0.96999 0.05028 0.54186
 C128 C 0.94059 0.02785 0.57174
 C129 C 0.91155 0.05391 0.60152
 C130 C 0.94304 0.12589 0.56894
 C131 C 0.99447 -0.06129 0.43671
 C132 C 0.97062 -0.08470 0.40000
 C133 C 0.90671 -0.03128 0.41202
 C134 C 0.93052 -0.01101 0.45069
 N135 N 0.97389 -0.02581 0.46192
 H136 H 0.99606 0.11545 0.51647
 H137 H 0.94036 -0.01044 0.57291
 H138 H 0.88912 0.03559 0.62599
 H139 H 0.94495 0.16416 0.56747
 H140 H 1.02993 -0.07069 0.44421
 H141 H 0.98702 -0.11409 0.38166
 H142 H 0.87327 -0.01728 0.40215
 H143 H 0.91542 0.01849 0.46989
 C144 C 1.10264 0.08760 0.39722
 C145 C 1.08440 -0.07899 0.62139
 C146 C 0.92714 -0.06811 0.38543
 C147 C 0.91231 0.10354 0.60004
 C148 C 0.15693 0.34205 1.11941
 C149 C 0.18026 0.30345 1.13805
 C150 C 0.15614 0.26350 1.15392
 C151 C 0.10736 0.26076 1.14619
 C152 C 0.08399 0.29924 1.12456
 C153 C 0.10880 0.34121 1.11329
 C154 C 0.03690 0.29327 1.11243
 N155 N 0.01448 0.25258 1.12293
 N156 N 0.03607 0.21680 1.14361
 C157 C 0.08159 0.21917 1.15500
 H158 H 0.17675 0.37321 1.11015
 H159 H 0.21747 0.30600 1.14243
 H160 H 0.01782 0.31970 1.09326
 H161 H 0.09708 0.18761 1.16896
 C162 C -0.09009 0.68006 1.14949
 C163 C -0.11174 0.71872 1.17054
 C164 C -0.15980 0.72569 1.16607
 C165 C -0.18680 0.68915 1.14324
 C166 C -0.16420 0.64963 1.12156
 C167 C -0.11535 0.64603 1.12369
 C168 C -0.19146 0.61373 1.10007
 N169 N -0.23814 0.61672 1.10077
 N170 N -0.25947 0.65269 1.12223
 C171 C -0.23565 0.68847 1.14391
 H172 H -0.05277 0.67758 1.15206
 H173 H -0.08976 0.74473 1.18831
 H174 H -0.17626 0.58264 1.08379
 H175 H -0.25560 0.71444 1.16313
 C176 C -0.12100 0.35339 0.85452
 C177 C -0.14307 0.31621 0.83031
 C178 C -0.15393 0.27391 0.85344
 C179 C -0.14119 0.26876 0.90206
 C180 C -0.11927 0.30699 0.92681
 C181 C -0.10929 0.34949 0.90266
 C182 C -0.10678 0.30093 0.97483
 N183 N -0.11516 0.25910 0.99628
 N184 N -0.13480 0.22287 0.97289
 C185 C -0.14779 0.22610 0.92658
 H186 H -0.11299 0.38553 0.83556
 H187 H -0.15207 0.32066 0.79314
 H188 H -0.09005 0.32885 0.99541
 H189 H -0.16217 0.19488 0.90945
 C190 C 0.15263 0.65955 0.91044
 C191 C 0.17349 0.69808 0.88876
 C192 C 0.14717 0.73187 0.86423
 C193 C 0.09780 0.72859 0.86641
 C194 C 0.07676 0.68876 0.88814
 C195 C 0.10467 0.65347 0.90910
 C196 C 0.02812 0.68660 0.89022
 N197 N 0.00236 0.72231 0.87268
 N198 N 0.02185 0.76050 0.85408
 C199 C 0.06837 0.76523 0.85100
 H200 H 0.17429 0.63355 0.92759
 H201 H 0.21093 0.69977 0.88915
 H202 H 0.01017 0.65752 0.90664
 H203 H 0.08133 0.79865 0.83860
 C204 C 1.12364 0.15333 0.34489
 C205 C 1.14284 0.17178 0.30396
 C206 C 1.16974 0.14385 0.27280
 C207 C 1.17596 0.09477 0.28373
 C208 C 1.15597 0.07615 0.32598
 C209 C 1.12964 0.10589 0.35656
 C210 C 1.16076 0.02744 0.33495
 N211 N 1.18367 -0.00085 0.30389
 N212 N 1.20128 0.01593 0.26390
 C213 C 1.19771 0.06222 0.25242
 H214 H 1.10305 0.17635 0.36746
 H215 H 1.13704 0.20900 0.29729
 H216 H 1.14586 0.01113 0.36583
 H217 H 1.21040 0.07172 0.21798
 C218 C 1.15100 -0.09763 0.67376
 C219 C 1.17305 -0.12408 0.70852
 C220 C 1.15083 -0.16246 0.73070
 C221 C 1.10532 -0.17537 0.71410
 C222 C 1.08144 -0.14500 0.68237
 C223 C 1.10519 -0.10706 0.66052
 C224 C 1.03411 -0.15358 0.67361
 N225 N 1.01376 -0.19335 0.68997
 N226 N 1.03755 -0.22504 0.71449
 C227 C 1.08253 -0.21788 0.72645
 H228 H 1.17002 -0.06920 0.65714
 H229 H 1.20789 -0.11348 0.71839
 H230 H 1.01300 -0.12908 0.65394
 H231 H 1.09986 -0.24673 0.74350
 C232 C 0.85544 -0.09869 0.34613
 C233 C 0.83150 -0.12084 0.30885
 C234 C 0.85483 -0.13752 0.26842
 C235 C 0.90260 -0.12662 0.26317
 C236 C 0.92615 -0.10054 0.29967
 C237 C 0.90300 -0.08921 0.34296
 C238 C 0.97148 -0.08467 0.29049
 N239 N 0.99248 -0.09649 0.24904
 N240 N 0.97095 -0.12209 0.21547
 C241 C 0.92677 -0.13712 0.22082
 H242 H 0.83661 -0.08985 0.37825
 H243 H 0.79489 -0.12788 0.31318
 H244 H 0.99007 -0.06166 0.31501
 H245 H 0.91072 -0.15554 0.19108
 C246 C 0.90591 0.16380 0.66442
 C247 C 0.88221 0.18571 0.70155
 C248 C 0.83524 0.17553 0.71011
 C249 C 0.81056 0.14773 0.67529
 C250 C 0.83512 0.12519 0.63753
 C251 C 0.88357 0.13161 0.63369
 C252 C 0.81008 0.09799 0.60373
 N253 N 0.76351 0.09436 0.60693
 N254 N 0.74021 0.11663 0.64119
 C255 C 0.76190 0.14350 0.67498
 H256 H 0.94277 0.17002 0.66137
 H257 H 0.90222 0.20790 0.72588
 H258 H 0.82688 0.08062 0.57401
 H259 H 0.74041 0.16284 0.69966
 C260 C 0.36047 1.11904 0.14915
 C261 C 0.32290 1.14054 0.17142
 C262 C 0.28333 1.15278 0.14537
 C263 C 0.28146 1.14246 0.09565
 C264 C 0.32009 1.12127 0.07299
 C265 C 0.35961 1.10933 0.10017
 C266 C 0.31732 1.11115 0.02382
 N267 N 0.27813 1.12093 -0.00071
 N268 N 0.24143 1.13970 0.02064
 C269 C 0.24156 1.15043 0.06786
 H270 H 0.39028 1.10936 0.17037
 H271 H 0.32461 1.14742 0.20944
 H272 H 0.34574 1.09518 0.00469
 H273 H 0.21006 1.16410 0.08296
 C274 C 0.65360 1.15185 -0.11781
 C275 C 0.69039 1.17533 -0.13907
 C276 C 0.72634 1.15002 -0.16076
 C277 C 0.72555 1.09968 -0.16006
 C278 C 0.68784 1.07582 -0.13862
 C279 C 0.65157 1.10232 -0.11759
 C280 C 0.68857 1.02599 -0.13736
 N281 N 0.72464 1.00190 -0.15629
 N282 N 0.76024 1.02420 -0.17589
 C283 C 0.76214 1.07210 -0.17813
 H284 H 0.62644 1.17252 -0.10127
 H285 H 0.69069 1.21371 -0.13875
 H286 H 0.66120 1.00589 -0.12099
 H287 H 0.79274 1.08782 -0.19310
 C288 C 0.32952 0.85513 -0.09231
 C289 C 0.29057 0.83293 -0.11157
 C290 C 0.28381 0.82936 -0.16106
 C291 C 0.31909 0.84633 -0.19165
 C292 C 0.35846 0.86987 -0.17179
 C293 C 0.36305 0.87493 -0.12173
 C294 C 0.39256 0.88679 -0.20278
 N295 N 0.38785 0.87987 -0.25042
 N296 N 0.35158 0.85689 -0.26905
 C297 C 0.31727 0.83966 -0.24140
 H298 H 0.33265 0.85851 -0.05393
 H299 H 0.26455 0.82013 -0.08726
 H300 H 0.42322 0.90480 -0.18957
 H301 H 0.28978 0.81988 -0.25870
 C302 C 0.64731 0.84510 0.12866
 C303 C 0.68557 0.82592 0.15176
 C304 C 0.72645 0.85229 0.15774
 C305 C 0.72908 0.89878 0.13913
 C306 C 0.68992 0.91839 0.11624
 C307 C 0.64900 0.89111 0.11089
 C308 C 0.69329 0.96461 0.09838
 N309 N 0.73363 0.98899 0.10234
 N310 N 0.77083 0.97019 0.12264
 C311 C 0.77008 0.92598 0.14084
 H312 H 0.61630 0.82379 0.12421
 H313 H 0.68327 0.79019 0.16514
 H314 H 0.66436 0.98152 0.08107
 H315 H 0.80187 0.91252 0.15557
   
