data_POSCAR
  _audit_creation_date              2014-09-24
  _audit_creation_method            'ToBaCCo'
  _symmetry_space_group_name_H-M    'P1'
  _symmetry_Int_Tables_number       1
  _symmetry_cell_setting            triclinic
  loop_
  _symmetry_equiv_pos_as_xyz
 x,y,z
_cell_length_a 36.5867
_cell_length_b 36.3734
_cell_length_c 33.6871
_cell_angle_alpha 90.572400
_cell_angle_beta 89.538500
_cell_angle_gamma 120.631500
loop_
  _atom_site_label
  _atom_site_type_symbol
  _atom_site_fract_x
  _atom_site_fract_y
  _atom_site_fract_z
C1 C 0.51931 0.05687 0.05841
 H2 H 0.54580 0.05173 0.06131
 C3 C 0.51746 0.08766 0.08183
 H4 H 0.54231 0.10544 0.10333
 C5 C 0.45507 0.03988 0.02640
 H6 H 0.43148 0.02192 0.00399
 C7 C 0.45216 0.07078 0.04902
 H8 H 0.42618 0.07625 0.04373
 N9 N 0.48851 0.03383 0.03131
 C10 C 0.51298 -0.07020 0.00952
 H11 H 0.51978 -0.06680 -0.02198
 C12 C 0.51457 -0.10222 0.03065
 H13 H 0.52289 -0.12330 0.01539
 C14 C 0.49203 -0.04811 0.06750
 H15 H 0.48235 -0.02760 0.08158
 C16 C 0.49233 -0.08025 0.08953
 H17 H 0.48362 -0.08377 0.12066
 Zn18 Zn 0.49801 -0.00250 -0.00215
 N19 N 0.50249 -0.04353 0.02827
 C20 C 0.58383 0.02976 -0.02915
 N21 N 0.54878 0.03367 -0.03029
 C22 C 0.54913 0.06622 -0.05011
 C23 C 0.58562 0.09646 -0.06994
 C24 C 0.62098 0.05911 -0.04906
 C25 C 0.41371 -0.06035 -0.02208
 C26 C 0.37953 -0.08664 -0.04670
 C27 C 0.42566 -0.05556 -0.10341
 C28 C 0.45883 -0.02988 -0.07757
 N29 N 0.45241 -0.03291 -0.03774
 H30 H 0.58345 0.00449 -0.01228
 H31 H 0.52100 0.06889 -0.05009
 H32 H 0.58526 0.12214 -0.08557
 H33 H 0.64880 0.05594 -0.04764
 H34 H 0.40972 -0.06270 0.00983
 H35 H 0.35043 -0.10938 -0.03202
 H36 H 0.43259 -0.05034 -0.13475
 H37 H 0.48996 -0.00800 -0.08950
 C38 C 0.50382 -0.10763 0.07107
 C39 C 0.48403 0.09563 0.07679
 C40 C 0.38478 -0.08561 -0.08856
 C41 C 0.62218 0.09318 -0.06945
 C42 C -0.06537 0.46965 0.61086
 H43 H -0.06275 0.44137 0.61225
 C44 C -0.09639 0.46969 0.58712
 H45 H -0.11681 0.44153 0.56960
 C46 C -0.04167 0.54050 0.63231
 H47 H -0.02095 0.56763 0.65075
 C48 C -0.07267 0.54175 0.60934
 H49 H -0.07539 0.57001 0.61049
 N50 N -0.03865 0.50475 0.63266
 C51 C 0.06696 0.48521 0.65858
 H52 H 0.06800 0.48852 0.69057
 C53 C 0.09706 0.47894 0.63882
 H54 H 0.12089 0.47685 0.65587
 C55 C 0.03496 0.48466 0.59753
 H56 H 0.01153 0.48814 0.58141
 C57 C 0.06432 0.47818 0.57658
 H58 H 0.06300 0.47658 0.54447
 Zn59 Zn -0.00062 0.49985 0.66686
 N60 N 0.03662 0.48778 0.63783
 C61 C -0.03062 0.42033 0.70694
 N62 N -0.03446 0.45536 0.70261
 C63 C -0.06470 0.45928 0.72263
 C64 C -0.09239 0.42743 0.74857
 C65 C -0.05766 0.38766 0.73278
 C66 C 0.06052 0.58673 0.67372
 C67 C 0.08891 0.62481 0.69310
 C68 C 0.06126 0.58968 0.75592
 C69 C 0.03338 0.55230 0.73534
 N70 N 0.03355 0.55147 0.69498
 H71 H -0.00690 0.41744 0.69019
 H72 H -0.06749 0.48714 0.71807
 H73 H -0.11675 0.43095 0.76354
 H74 H -0.05389 0.36022 0.73619
 H75 H 0.06036 0.58500 0.64164
 H76 H 0.11013 0.65253 0.67564
 H77 H 0.06147 0.58928 0.78804
 H78 H 0.01252 0.52368 0.75174
 C79 C 0.09606 0.47550 0.59724
 C80 C -0.10082 0.50587 0.58651
 C81 C 0.08983 0.62651 0.73479
 C82 C -0.08911 0.39098 0.75402
 C83 C 0.54582 0.48173 0.38767
 H84 H 0.51471 0.45374 0.39181
 C85 C 0.58055 0.48562 0.40820
 H86 H 0.57552 0.46081 0.42881
 C87 C 0.58956 0.54785 0.35566
 H88 H 0.59313 0.57142 0.33430
 C89 C 0.62537 0.55283 0.37531
 H90 H 0.65615 0.58044 0.36886
 N91 N 0.55071 0.51279 0.36236
 C92 C 0.41970 0.48373 0.35311
 H93 H 0.41580 0.48044 0.32123
 C94 C 0.38662 0.47978 0.37712
 H95 H 0.35741 0.47372 0.36335
 C96 C 0.46362 0.49813 0.40932
 H97 H 0.49401 0.50641 0.42171
 C98 C 0.43133 0.49427 0.43445
 H99 H 0.43701 0.49852 0.46611
 Zn100 Zn 0.50156 0.50184 0.33417
 N101 N 0.45726 0.49274 0.36944
 C102 C 0.45009 0.41465 0.30912
 N103 N 0.48624 0.45280 0.30283
 C104 C 0.51554 0.45682 0.27552
 C105 C 0.50928 0.42161 0.25327
 C106 C 0.44269 0.37834 0.28766
 C107 C 0.52899 0.58779 0.31838
 C108 C 0.53462 0.62239 0.29592
 C109 C 0.50378 0.57478 0.23966
 C110 C 0.49953 0.54128 0.26295
 N111 N 0.51216 0.54832 0.30155
 H112 H 0.42770 0.41199 0.33167
 H113 H 0.54421 0.48748 0.27148
 H114 H 0.53302 0.42576 0.23153
 H115 H 0.41447 0.34793 0.29395
 H116 H 0.53759 0.59225 0.34945
 H117 H 0.54777 0.65359 0.30974
 H118 H 0.49311 0.56866 0.20913
 H119 H 0.48495 0.50943 0.25049
 C120 C 0.39229 0.48539 0.41840
 C121 C 0.62116 0.52135 0.40193
 C122 C 0.52148 0.61587 0.25619
 C123 C 0.47286 0.38146 0.25968
 C124 C 0.11767 0.44301 0.54247
 C125 C 0.14884 0.43979 0.52107
 C126 C 0.19159 0.46430 0.53198
 C127 C 0.20285 0.49169 0.56512
 C128 C 0.17171 0.49478 0.58665
 C129 C 0.12881 0.47073 0.57538
 N130 N 0.22296 0.46161 0.50845
 N131 N 0.26250 0.48502 0.51549
 C132 C 0.29421 0.48325 0.49173
 C133 C 0.33702 0.51213 0.49978
 C134 C 0.36886 0.51252 0.47630
 C135 C 0.35839 0.48373 0.44430
 C136 C 0.31528 0.45426 0.43668
 C137 C 0.28344 0.45405 0.46012
 H138 H 0.08483 0.42376 0.53335
 H139 H 0.13975 0.41851 0.49564
 H140 H 0.23570 0.51102 0.57414
 H141 H 0.18134 0.51679 0.61155
 H142 H 0.34569 0.53489 0.52397
 H143 H 0.40164 0.53610 0.48263
 H144 H 0.30614 0.43128 0.41264
 H145 H 0.25052 0.43127 0.45343
 C146 C 0.46676 0.82888 0.11529
 C147 C 0.46574 0.79544 0.13627
 C148 C 0.50126 0.79056 0.13673
 C149 C 0.53785 0.81917 0.11529
 C150 C 0.53859 0.85212 0.09356
 C151 C 0.50314 0.85739 0.09364
 N152 N 0.49908 0.75602 0.15871
 N153 N 0.53205 0.75471 0.16797
 C154 C 0.52908 0.71943 0.18934
 C155 C 0.56517 0.72419 0.20831
 C156 C 0.56279 0.69058 0.23025
 C157 C 0.52442 0.65135 0.23264
 C158 C 0.48847 0.64632 0.21292
 C159 C 0.49065 0.68020 0.19171
 H160 H 0.43895 0.83216 0.11545
 H161 H 0.43732 0.77347 0.15254
 H162 H 0.56557 0.81576 0.11501
 H163 H 0.56697 0.87383 0.07709
 H164 H 0.59498 0.75422 0.20659
 H165 H 0.59093 0.69503 0.24511
 H166 H 0.45851 0.61642 0.21457
 H167 H 0.46241 0.67568 0.17706
 C168 C 0.36041 0.87790 0.84752
 C169 C 0.32774 0.84773 0.82344
 C170 C 0.28597 0.82553 0.83721
 C171 C 0.27679 0.83460 0.87523
 C172 C 0.30929 0.86469 0.89956
 C173 C 0.35235 0.88676 0.88676
 N174 N 0.25394 0.79271 0.81267
 N175 N 0.21524 0.77078 0.82347
 C176 C 0.18381 0.73671 0.79950
 C177 C 0.14187 0.71369 0.81324
 C178 C 0.11104 0.67848 0.79183
 C179 C 0.12173 0.66565 0.75620
 C180 C 0.16373 0.68947 0.74203
 C181 C 0.19449 0.72467 0.76345
 H182 H 0.39210 0.89165 0.83546
 H183 H 0.33525 0.84075 0.79418
 H184 H 0.24449 0.81822 0.88637
 H185 H 0.29956 0.87110 0.92788
 H186 H 0.13323 0.72268 0.84095
 H187 H 0.07887 0.66117 0.80327
 H188 H 0.17318 0.68010 0.71502
 H189 H 0.22675 0.74184 0.75226
 C190 C 0.82468 0.46768 0.55998
 C191 C 0.79199 0.46701 0.53832
 C192 C 0.79799 0.50404 0.52009
 C193 C 0.83746 0.54202 0.52341
 C194 C 0.87048 0.54266 0.54471
 C195 C 0.86447 0.50546 0.56333
 N196 N 0.76347 0.50186 0.49838
 N197 N 0.76395 0.53478 0.48521
 C198 C 0.72877 0.53116 0.46339
 C199 C 0.72699 0.56793 0.45557
 C200 C 0.69223 0.56497 0.43548
 C201 C 0.65878 0.52505 0.42248
 C202 C 0.66132 0.48836 0.42962
 C203 C 0.69577 0.49132 0.45004
 H204 H 0.81846 0.43867 0.57458
 H205 H 0.76162 0.43760 0.53608
 H206 H 0.84288 0.57100 0.50929
 H207 H 0.90082 0.57214 0.54618
 H208 H 0.75223 0.59884 0.46570
 H209 H 0.69116 0.59382 0.43087
 H210 H 0.63679 0.45725 0.41919
 H211 H 0.69663 0.46246 0.45526
 C212 C 0.52224 0.16936 0.10628
 C213 C 0.52264 0.20271 0.12741
 C214 C 0.48482 0.19887 0.14139
 C215 C 0.44614 0.16100 0.13401
 C216 C 0.44568 0.12730 0.11302
 C217 C 0.48382 0.13106 0.09905
 N218 N 0.48711 0.23394 0.16320
 N219 N 0.45461 0.23537 0.17462
 C220 C 0.45919 0.27141 0.19668
 C221 C 0.42345 0.27495 0.20451
 C222 C 0.42758 0.31053 0.22511
 C223 C 0.46765 0.34306 0.23839
 C224 C 0.50324 0.33881 0.23114
 C225 C 0.49912 0.30354 0.21040
 H226 H 0.55209 0.17384 0.09520
 H227 H 0.55260 0.23186 0.13277
 H228 H 0.41649 0.15733 0.14471
 H229 H 0.41560 0.09813 0.10826
 H230 H 0.39248 0.25040 0.19415
 H231 H 0.39959 0.31294 0.23000
 H232 H 0.53437 0.36263 0.24180
 H233 H 0.52722 0.30141 0.20520
 C234 C -0.31530 0.11385 0.88559
 C235 C -0.27949 0.14491 0.86514
 C236 C -0.26602 0.18830 0.86975
 C237 C -0.28863 0.20038 0.89541
 C238 C -0.32463 0.16941 0.91544
 C239 C -0.33852 0.12584 0.91050
 N240 N -0.23060 0.21938 0.84696
 N241 N -0.21476 0.25925 0.85303
 C242 C -0.18095 0.29118 0.82944
 C243 C -0.16356 0.33408 0.84026
 C244 C -0.13283 0.36642 0.81642
 C245 C -0.11917 0.35639 0.78094
 C246 C -0.13593 0.31312 0.77065
 C247 C -0.16655 0.28075 0.79472
 H248 H -0.32553 0.08045 0.88113
 H249 H -0.26245 0.13516 0.84534
 H250 H -0.27897 0.23368 0.89944
 H251 H -0.34170 0.17950 0.93481
 H252 H -0.17437 0.34249 0.86699
 H253 H -0.12002 0.39933 0.82563
 H254 H -0.12649 0.30429 0.74332
 H255 H -0.17975 0.24775 0.78565
   
