data_POSCAR
  _audit_creation_date              2014-09-24
  _audit_creation_method            'ToBaCCo'
  _symmetry_space_group_name_H-M    'P1'
  _symmetry_Int_Tables_number       1
  _symmetry_cell_setting            triclinic
  loop_
  _symmetry_equiv_pos_as_xyz
 x,y,z
_cell_length_a 58.1348
_cell_length_b 58.3429
_cell_length_c 58.4070
_cell_angle_alpha 89.941200
_cell_angle_beta 89.962500
_cell_angle_gamma 90.009800
loop_
  _atom_site_label
  _atom_site_type_symbol
  _atom_site_fract_x
  _atom_site_fract_y
  _atom_site_fract_z
N1 N 0.28698 0.24074 0.22325
 N2 N 0.27790 0.25943 0.21450
 C3 C 0.29015 0.26573 0.19594
 C4 C 0.30780 0.25015 0.19298
 C5 C 0.30530 0.23452 0.21058
 H6 H 0.28657 0.28051 0.18534
 H7 H 0.31604 0.21975 0.21391
 Cu8 Cu 0.25097 0.27370 0.22825
 Cu9 Cu 0.27444 0.22588 0.25039
 Cu10 Cu 0.22595 0.25043 0.27474
 N11 N 0.22345 0.28699 0.24181
 N12 N 0.21376 0.27781 0.25999
 C13 C 0.19515 0.29024 0.26580
 C14 C 0.19308 0.30815 0.25044
 C15 C 0.21129 0.30559 0.23544
 H16 H 0.18392 0.28656 0.28012
 H17 H 0.21529 0.31649 0.22099
 N18 N 0.24081 0.22272 0.28717
 N19 N 0.25927 0.21337 0.27789
 C20 C 0.26531 0.19481 0.29024
 C21 C 0.24992 0.19241 0.30809
 C22 C 0.23462 0.21034 0.30567
 H23 H 0.27983 0.18382 0.28660
 H24 H 0.22010 0.21406 0.31663
 H25 H 0.24101 0.23700 0.24562
 H26 H 0.25970 0.25484 0.26453
 N27 N 0.71233 -0.24095 0.22276
 N28 N 0.72178 -0.25932 0.21372
 C29 C 0.70961 -0.26560 0.19512
 C30 C 0.69161 -0.25033 0.19242
 C31 C 0.69384 -0.23491 0.21025
 H32 H 0.71349 -0.28016 0.18434
 H33 H 0.68284 -0.22040 0.21385
 Cu34 Cu 0.74905 -0.27317 0.22723
 Cu35 Cu 0.72462 -0.22623 0.25006
 Cu36 Cu 0.77322 -0.25066 0.27439
 N37 N 0.77632 -0.28674 0.24103
 N38 N 0.78568 -0.27781 0.25948
 C39 C 0.80416 -0.29034 0.26549
 C40 C 0.80651 -0.30806 0.24996
 C41 C 0.78857 -0.30528 0.23466
 H42 H 0.81509 -0.28683 0.28006
 H43 H 0.78477 -0.31598 0.22003
 N44 N 0.75810 -0.22316 0.28695
 N45 N 0.73960 -0.21386 0.27770
 C46 C 0.73344 -0.19540 0.29012
 C47 C 0.74879 -0.19302 0.30799
 C48 C 0.76419 -0.21086 0.30550
 H49 H 0.71890 -0.18444 0.28649
 H50 H 0.77874 -0.21453 0.31642
 H51 H 0.75825 -0.23672 0.24547
 H52 H 0.73962 -0.25528 0.26378
 N53 N 0.71325 0.24089 0.77664
 N54 N 0.72283 0.25913 0.78580
 C55 C 0.71052 0.26550 0.80429
 C56 C 0.69235 0.25043 0.80679
 C57 C 0.69458 0.23504 0.78897
 H58 H 0.71442 0.27998 0.81516
 H59 H 0.68344 0.22066 0.78528
 Cu60 Cu 0.75041 0.27274 0.77264
 Cu61 Cu 0.72566 0.22611 0.74943
 Cu62 Cu 0.77427 0.25052 0.72510
 N63 N 0.77740 0.28654 0.75849
 N64 N 0.78664 0.27775 0.73991
 C65 C 0.80497 0.29045 0.73374
 C66 C 0.80732 0.30815 0.74930
 C67 C 0.78955 0.30517 0.76478
 H68 H 0.81579 0.28708 0.71905
 H69 H 0.78580 0.31580 0.77948
 N70 N 0.75924 0.22294 0.71262
 N71 N 0.74073 0.21365 0.72189
 C72 C 0.73463 0.19513 0.70954
 C73 C 0.75002 0.19270 0.69170
 C74 C 0.76539 0.21057 0.69413
 H75 H 0.72008 0.18417 0.71320
 H76 H 0.77996 0.21422 0.68320
 H77 H 0.75937 0.23641 0.75399
 H78 H 0.74075 0.25527 0.73598
 N79 N 0.28717 -0.24155 0.77683
 N80 N 0.27778 -0.25995 0.78591
 C81 C 0.29005 -0.26623 0.80446
 C82 C 0.30802 -0.25095 0.80706
 C83 C 0.30569 -0.23551 0.78926
 H84 H 0.28627 -0.28079 0.81529
 H85 H 0.31667 -0.22098 0.78566
 Cu86 Cu 0.25045 -0.27380 0.77255
 Cu87 Cu 0.27471 -0.22679 0.74960
 Cu88 Cu 0.22602 -0.25122 0.72551
 N89 N 0.22312 -0.28737 0.75889
 N90 N 0.21366 -0.27843 0.74048
 C91 C 0.19513 -0.29095 0.73460
 C92 C 0.19286 -0.30868 0.75018
 C93 C 0.21090 -0.30591 0.76537
 H94 H 0.18411 -0.28742 0.72010
 H95 H 0.21476 -0.31661 0.78000
 N96 N 0.24105 -0.22367 0.71287
 N97 N 0.25959 -0.21437 0.72205
 C98 C 0.26568 -0.19589 0.70960
 C99 C 0.25026 -0.19348 0.69179
 C100 C 0.23488 -0.21134 0.69435
 H101 H 0.28025 -0.18493 0.71316
 H102 H 0.22029 -0.21500 0.68348
 H103 H 0.24110 -0.23733 0.75436
 H104 H 0.25965 -0.25581 0.73596
 N105 N 0.71532 -0.23932 0.77849
 N106 N 0.72297 -0.25919 0.78591
 C107 C 0.70973 -0.26623 0.80350
 C108 C 0.69298 -0.24985 0.80726
 C109 C 0.69702 -0.23299 0.79112
 H110 H 0.71208 -0.28199 0.81297
 H111 H 0.68742 -0.21729 0.78878
 Cu112 Cu 0.74961 -0.27367 0.77189
 Cu113 Cu 0.72998 -0.22286 0.75341
 Cu114 Cu 0.77373 -0.25124 0.72462
 N115 N 0.77671 -0.28739 0.75803
 N116 N 0.78581 -0.27872 0.73930
 C117 C 0.80413 -0.29140 0.73315
 C118 C 0.80664 -0.30894 0.74888
 C119 C 0.78895 -0.30592 0.76445
 H120 H 0.81494 -0.28800 0.71845
 H121 H 0.78536 -0.31640 0.77931
 N122 N 0.75925 -0.22301 0.71299
 N123 N 0.74290 -0.21198 0.72416
 C124 C 0.73684 -0.19326 0.71207
 C125 C 0.75008 -0.19247 0.69246
 C126 C 0.76409 -0.21154 0.69355
 H127 H 0.72372 -0.18113 0.71709
 H128 H 0.77692 -0.21658 0.68111
 H129 H 0.74027 -0.25253 0.73732
 H130 H 0.76266 -0.23773 0.75487
 N131 N 0.28745 0.24087 0.77637
 N132 N 0.27842 0.25960 0.78508
 C133 C 0.29071 0.26590 0.80358
 C134 C 0.30834 0.25029 0.80652
 C135 C 0.30578 0.23464 0.78898
 H136 H 0.28718 0.28069 0.81415
 H137 H 0.31648 0.21984 0.78567
 Cu138 Cu 0.25149 0.27390 0.77144
 Cu139 Cu 0.27479 0.22599 0.74936
 Cu140 Cu 0.22620 0.25052 0.72523
 N141 N 0.22390 0.28712 0.75802
 N142 N 0.21411 0.27790 0.73995
 C143 C 0.19545 0.29030 0.73423
 C144 C 0.19347 0.30821 0.74955
 C145 C 0.21176 0.30571 0.76443
 H146 H 0.18413 0.28658 0.72002
 H147 H 0.21583 0.31662 0.77882
 N148 N 0.24099 0.22282 0.71282
 N149 N 0.25950 0.21347 0.72202
 C150 C 0.26546 0.19489 0.70969
 C151 C 0.24997 0.19248 0.69195
 C152 C 0.23470 0.21042 0.69441
 H153 H 0.27999 0.18389 0.71327
 H154 H 0.22012 0.21413 0.68353
 H155 H 0.26002 0.25493 0.73521
 H156 H 0.24140 0.23716 0.75433
 N157 N 0.28765 -0.24068 0.22351
 N158 N 0.27799 -0.25878 0.21419
 C159 C 0.29029 -0.26510 0.19569
 C160 C 0.30857 -0.25014 0.19336
 C161 C 0.30640 -0.23486 0.21128
 H162 H 0.28633 -0.27947 0.18470
 H163 H 0.31763 -0.22058 0.21509
 Cu164 Cu 0.25029 -0.27230 0.22712
 Cu165 Cu 0.27525 -0.22601 0.25077
 Cu166 Cu 0.22644 -0.25031 0.27478
 N167 N 0.22322 -0.28604 0.24112
 N168 N 0.21399 -0.27736 0.25975
 C169 C 0.19559 -0.29001 0.26577
 C170 C 0.19321 -0.30755 0.25009
 C171 C 0.21100 -0.30456 0.23468
 H172 H 0.18473 -0.28672 0.28045
 H173 H 0.21468 -0.31511 0.21992
 N174 N 0.24156 -0.22292 0.28747
 N175 N 0.26016 -0.21367 0.27832
 C176 C 0.26629 -0.19524 0.29079
 C177 C 0.25083 -0.19284 0.30857
 C178 C 0.23539 -0.21062 0.30599
 H179 H 0.28089 -0.18431 0.28724
 H180 H 0.22075 -0.21425 0.31683
 H181 H 0.25995 -0.25519 0.26393
 H182 H 0.24150 -0.23607 0.24602
 N183 N 0.71290 0.24002 0.22310
 N184 N 0.72249 0.25823 0.21386
 C185 C 0.71025 0.26454 0.19532
 C186 C 0.69211 0.24945 0.19288
 C187 C 0.69428 0.23411 0.21076
 H188 H 0.71416 0.27900 0.18440
 H189 H 0.68312 0.21974 0.21450
 Cu190 Cu 0.74997 0.27195 0.22698
 Cu191 Cu 0.72521 0.22535 0.25040
 Cu192 Cu 0.77355 0.25002 0.27483
 N193 N 0.77674 0.28590 0.24126
 N194 N 0.78586 0.27725 0.25996
 C195 C 0.80406 0.29007 0.26618
 C196 C 0.80643 0.30769 0.25055
 C197 C 0.78884 0.30458 0.23496
 H198 H 0.81479 0.28685 0.28095
 H199 H 0.78520 0.31514 0.22018
 N200 N 0.75859 0.22243 0.28734
 N201 N 0.74018 0.21303 0.27803
 C202 C 0.73411 0.19449 0.29042
 C203 C 0.74944 0.19218 0.30831
 C204 C 0.76472 0.21012 0.30589
 H205 H 0.71965 0.18344 0.28674
 H206 H 0.77922 0.21386 0.31685
 H207 H 0.74010 0.25464 0.26370
 H208 H 0.75890 0.23574 0.24593
 C209 C 0.26168 -0.01151 0.43001
 C210 C 0.26141 0.01201 0.43006
 C211 C 0.25456 0.01863 0.45180
 N212 N 0.25037 -0.00002 0.46491
 C213 C 0.25474 -0.01847 0.45165
 C214 C 0.25042 0.04143 0.45868
 C215 C 0.24577 0.04772 0.48157
 C216 C 0.23731 0.06886 0.48839
 C217 C 0.23704 0.06879 0.51193
 C218 C 0.24556 0.04769 0.51887
 N219 N 0.25081 0.03495 0.50026
 C220 C 0.24971 0.04128 0.54186
 C221 C 0.25362 0.01835 0.54864
 C222 C 0.26142 0.01158 0.57002
 C223 C 0.26166 -0.01193 0.56999
 C224 C 0.25400 -0.01875 0.54859
 N225 N 0.24908 -0.00022 0.53556
 C226 C 0.25044 -0.04169 0.54176
 C227 C 0.24644 -0.04796 0.51872
 C228 C 0.23747 -0.06883 0.51173
 C229 C 0.23770 -0.06876 0.48820
 C230 C 0.24680 -0.04785 0.48142
 N231 N 0.25205 -0.03524 0.50014
 C232 C 0.25109 -0.04143 0.45845
 H233 H 0.26632 -0.02220 0.41560
 H234 H 0.26555 0.02293 0.41566
 H235 H 0.26131 -0.01998 0.50028
 H236 H 0.23214 0.08303 0.47759
 H237 H 0.23142 0.08281 0.52267
 H238 H 0.26658 0.02240 0.58415
 H239 H 0.26703 -0.02272 0.58408
 H240 H 0.23177 -0.08257 0.47734
 H241 H 0.25992 0.01962 0.50034
 H242 H 0.23135 -0.08270 0.52244
 C243 C 0.76119 -0.01228 0.56977
 C244 C 0.76123 0.01123 0.56986
 C245 C 0.75348 0.01814 0.54850
 N246 N 0.74871 -0.00034 0.53538
 C247 C 0.75342 -0.01896 0.54836
 C248 C 0.74985 0.04112 0.54178
 C249 C 0.74572 0.04755 0.51879
 C250 C 0.73735 0.06871 0.51184
 C251 C 0.73751 0.06873 0.48830
 C252 C 0.74575 0.04750 0.48149
 N253 N 0.75077 0.03473 0.50017
 C254 C 0.75023 0.04113 0.45859
 C255 C 0.75416 0.01831 0.45167
 C256 C 0.76091 0.01168 0.42990
 C257 C 0.76098 -0.01184 0.42979
 C258 C 0.75403 -0.01879 0.45143
 N259 N 0.74984 -0.00033 0.46474
 C260 C 0.75020 -0.04173 0.45819
 C261 C 0.74589 -0.04809 0.48118
 C262 C 0.73658 -0.06890 0.48798
 C263 C 0.73632 -0.06891 0.51151
 C264 C 0.74549 -0.04811 0.51848
 N265 N 0.75124 -0.03548 0.49988
 C266 C 0.74956 -0.04184 0.54150
 H267 H 0.76644 -0.02316 0.58384
 H268 H 0.76653 0.02196 0.58401
 H269 H 0.76064 -0.02032 0.50001
 H270 H 0.73189 0.08281 0.52258
 H271 H 0.73240 0.08291 0.47749
 H272 H 0.76513 0.02261 0.41552
 H273 H 0.76551 -0.02253 0.41535
 H274 H 0.73006 -0.08270 0.52225
 H275 H 0.75972 0.01931 0.50022
 H276 H 0.73053 -0.08267 0.47715
 C277 C 0.42944 0.26252 -0.01158
 C278 C 0.42946 0.26227 0.01191
 C279 C 0.45132 0.25555 0.01858
 N280 N 0.46453 0.25142 -0.00002
 C281 C 0.45121 0.25571 -0.01848
 C282 C 0.45820 0.25145 0.04137
 C283 C 0.48120 0.24689 0.04770
 C284 C 0.48804 0.23845 0.06883
 C285 C 0.51169 0.23822 0.06879
 C286 C 0.51868 0.24676 0.04773
 N287 N 0.49998 0.25197 0.03497
 C288 C 0.54178 0.25094 0.04136
 C289 C 0.54861 0.25489 0.01847
 C290 C 0.57010 0.26271 0.01175
 C291 C 0.57009 0.26298 -0.01173
 C292 C 0.54861 0.25532 -0.01858
 N293 N 0.53550 0.25038 -0.00009
 C294 C 0.54179 0.25176 -0.04150
 C295 C 0.51867 0.24771 -0.04781
 C296 C 0.51170 0.23872 -0.06866
 C297 C 0.48806 0.23884 -0.06863
 C298 C 0.48119 0.24790 -0.04776
 N299 N 0.49997 0.25322 -0.03514
 C300 C 0.45809 0.25207 -0.04140
 H301 H 0.41496 0.26706 -0.02229
 H302 H 0.41496 0.26634 0.02279
 H303 H 0.50005 0.26245 -0.01992
 H304 H 0.47718 0.23324 0.08296
 H305 H 0.52247 0.23262 0.08282
 H306 H 0.58428 0.26784 0.02258
 H307 H 0.58427 0.26835 -0.02249
 H308 H 0.47719 0.23288 -0.08242
 H309 H 0.50007 0.26106 0.01966
 H310 H 0.52250 0.23265 -0.08248
 C311 C 0.57038 0.76119 -0.01199
 C312 C 0.57047 0.76122 0.01150
 C313 C 0.54911 0.75323 0.01839
 N314 N 0.53598 0.74834 -0.00007
 C315 C 0.54896 0.75318 -0.01866
 C316 C 0.54241 0.74933 0.04131
 C317 C 0.51935 0.74493 0.04764
 C318 C 0.51249 0.73570 0.06844
 C319 C 0.48885 0.73566 0.06849
 C320 C 0.48189 0.74487 0.04772
 N321 N 0.50059 0.75040 0.03506
 C322 C 0.45880 0.74923 0.04151
 C323 C 0.45194 0.75314 0.01865
 C324 C 0.43051 0.76108 0.01194
 C325 C 0.43042 0.76105 -0.01154
 C326 C 0.45180 0.75309 -0.01840
 N327 N 0.46494 0.74827 0.00008
 C328 C 0.45850 0.74914 -0.04130
 C329 C 0.48157 0.74478 -0.04761
 C330 C 0.48844 0.73551 -0.06837
 C331 C 0.51209 0.73551 -0.06842
 C332 C 0.51903 0.74479 -0.04769
 N333 N 0.50032 0.75031 -0.03506
 C334 C 0.54211 0.74921 -0.04151
 H335 H 0.58446 0.76657 -0.02286
 H336 H 0.58463 0.76663 0.02222
 H337 H 0.50036 0.75973 -0.01995
 H338 H 0.52336 0.72962 0.08220
 H339 H 0.47804 0.72955 0.08230
 H340 H 0.41642 0.76645 0.02279
 H341 H 0.41624 0.76640 -0.02229
 H342 H 0.52291 0.72940 -0.08221
 H343 H 0.50054 0.75979 0.01991
 H344 H 0.47758 0.72939 -0.08211
 C345 C -0.01240 0.42839 0.24967
 C346 C 0.01110 0.42836 0.24824
 C347 C 0.01801 0.45111 0.24791
 N348 N -0.00060 0.46498 0.24878
 C349 C -0.01924 0.45116 0.24978
 C350 C 0.04120 0.45849 0.24737
 C351 C 0.04829 0.48175 0.24763
 C352 C 0.07078 0.48873 0.25137
 C353 C 0.07077 0.51222 0.25130
 C354 C 0.04827 0.51917 0.24751
 N355 N 0.03468 0.50045 0.24496
 C356 C 0.04117 0.54243 0.24710
 C357 C 0.01799 0.54986 0.24754
 C358 C 0.01115 0.57263 0.24774
 C359 C -0.01236 0.57266 0.24915
 C360 C -0.01926 0.54991 0.24938
 N361 N -0.00065 0.53604 0.24846
 C362 C -0.04246 0.54253 0.24994
 C363 C -0.04953 0.51926 0.24963
 C364 C -0.07203 0.51227 0.24591
 C365 C -0.07202 0.48879 0.24600
 C366 C -0.04951 0.48185 0.24977
 N367 N -0.03592 0.50056 0.25228
 C368 C -0.04242 0.45859 0.25026
 H369 H -0.02313 0.41326 0.25045
 H370 H 0.02180 0.41320 0.24759
 H371 H -0.01876 0.50057 0.25708
 H372 H 0.08568 0.47805 0.25448
 H373 H 0.08566 0.52293 0.25434
 H374 H 0.02188 0.58776 0.24704
 H375 H -0.02305 0.58782 0.24986
 H376 H -0.08691 0.47807 0.24300
 H377 H 0.01752 0.50045 0.24018
 H378 H -0.08693 0.52296 0.24282
 C379 C -0.01209 0.57226 0.75060
 C380 C 0.01140 0.57230 0.75215
 C381 C 0.01831 0.54955 0.75242
 N382 N -0.00030 0.53568 0.75141
 C383 C -0.01894 0.54949 0.75036
 C384 C 0.04150 0.54218 0.75303
 C385 C 0.04859 0.51891 0.75272
 C386 C 0.07111 0.51196 0.74905
 C387 C 0.07110 0.48847 0.74901
 C388 C 0.04857 0.48150 0.75266
 N389 N 0.03497 0.50020 0.75524
 C390 C 0.04148 0.45823 0.75292
 C391 C 0.01830 0.45080 0.75234
 C392 C 0.01146 0.42802 0.75200
 C393 C -0.01203 0.42799 0.75048
 C394 C -0.01894 0.45074 0.75033
 N395 N -0.00034 0.46461 0.75140
 C396 C -0.04213 0.45811 0.74971
 C397 C -0.04921 0.48137 0.75007
 C398 C -0.07173 0.48833 0.75372
 C399 C -0.07173 0.51182 0.75372
 C400 C -0.04920 0.51879 0.75009
 N401 N -0.03559 0.50009 0.74756
 C402 C -0.04211 0.54205 0.74972
 H403 H -0.02282 0.58739 0.74981
 H404 H 0.02209 0.58746 0.75290
 H405 H -0.01840 0.50011 0.74285
 H406 H 0.08602 0.52266 0.74605
 H407 H 0.08601 0.47778 0.74598
 H408 H 0.02219 0.41290 0.75268
 H409 H -0.02272 0.41283 0.74965
 H410 H -0.08664 0.52252 0.75670
 H411 H 0.01778 0.50017 0.75993
 H412 H -0.08665 0.47763 0.75669
 N413 N 0.34186 0.26703 0.14250
 C414 C 0.35821 0.25046 0.14192
 N415 N 0.35798 0.23378 0.15810
 N416 N 0.34189 0.23367 0.17437
 C417 C 0.32550 0.25024 0.17500
 N418 N 0.32578 0.26692 0.15877
 C419 C 0.37556 0.25061 0.12443
 C420 C 0.39015 0.25074 0.10975
 C421 C 0.40754 0.25091 0.09229
 N422 N 0.41639 0.23096 0.08429
 N423 N 0.43254 0.23112 0.06809
 C424 C 0.44037 0.25125 0.05939
 N425 N 0.43147 0.27120 0.06739
 N426 N 0.41532 0.27103 0.08359
 N427 N 0.65877 0.73306 0.14262
 C428 C 0.64212 0.74933 0.14231
 N429 N 0.64203 0.76571 0.15876
 N430 N 0.65809 0.76582 0.17502
 C431 C 0.67481 0.74955 0.17541
 N432 N 0.67483 0.73316 0.15888
 C433 C 0.62482 0.74923 0.12478
 C434 C 0.61027 0.74919 0.11007
 C435 C 0.59296 0.74918 0.09256
 N436 N 0.57330 0.76137 0.09532
 N437 N 0.55725 0.76142 0.07904
 C438 C 0.56032 0.74929 0.05942
 N439 N 0.58003 0.73705 0.05675
 N440 N 0.59607 0.73701 0.07304
 N441 N 0.65839 0.26717 -0.14266
 C442 C 0.64159 0.25105 -0.14252
 N443 N 0.64145 0.23474 -0.15903
 N444 N 0.65763 0.23455 -0.17521
 C445 C 0.67448 0.25067 -0.17540
 N446 N 0.67457 0.26699 -0.15884
 C447 C 0.62420 0.25120 -0.12505
 C448 C 0.60962 0.25129 -0.11036
 C449 C 0.59230 0.25138 -0.09284
 N450 N 0.59521 0.23893 -0.07344
 N451 N 0.57917 0.23904 -0.05714
 C452 C 0.55967 0.25163 -0.05966
 N453 N 0.55680 0.26404 -0.07915
 N454 N 0.57285 0.26392 -0.09545
 N455 N 0.34200 0.73245 -0.14235
 C456 C 0.35861 0.74876 -0.14212
 N457 N 0.35860 0.76517 -0.15858
 N458 N 0.34247 0.76525 -0.17479
 C459 C 0.32581 0.74894 -0.17507
 N460 N 0.32587 0.73253 -0.15855
 C461 C 0.37597 0.74871 -0.12465
 C462 C 0.39055 0.74870 -0.10997
 C463 C 0.40790 0.74875 -0.09249
 N464 N 0.42752 0.76099 -0.09532
 N465 N 0.44359 0.76111 -0.07906
 C466 C 0.44058 0.74900 -0.05940
 N467 N 0.42091 0.73671 -0.05667
 N468 N 0.40484 0.73660 -0.07293
 N469 N 0.14224 0.34251 0.26584
 C470 C 0.14252 0.35905 0.24952
 N471 N 0.15942 0.35888 0.23351
 N472 N 0.17555 0.34266 0.23380
 C473 C 0.17531 0.32606 0.25012
 N474 N 0.15837 0.32628 0.26613
 C475 C 0.12510 0.37648 0.24917
 C476 C 0.11041 0.39107 0.24889
 C477 C 0.09285 0.40836 0.24857
 N478 N 0.09107 0.42300 0.23061
 N479 N 0.07465 0.43893 0.23023
 C480 C 0.05942 0.44070 0.24779
 N481 N 0.06133 0.42610 0.26581
 N482 N 0.07775 0.41017 0.26617
 N483 N 0.14305 0.65773 0.73464
 C484 C 0.14309 0.64140 0.75117
 N485 N 0.15977 0.64176 0.76737
 N486 N 0.17595 0.65795 0.76705
 C487 C 0.17598 0.67435 0.75051
 N488 N 0.15922 0.67392 0.73431
 C489 C 0.12561 0.62402 0.75155
 C490 C 0.11087 0.60947 0.75183
 C491 C 0.09324 0.59224 0.75210
 N492 N 0.09137 0.57756 0.77001
 N493 N 0.07491 0.56166 0.77032
 C494 C 0.05973 0.55997 0.75273
 N495 N 0.06172 0.57462 0.73475
 N496 N 0.07818 0.59052 0.73446
 N497 N -0.16038 0.64230 0.23316
 C498 C -0.14382 0.64193 0.24948
 N499 N -0.14387 0.65828 0.26596
 N500 N -0.16000 0.67451 0.26611
 C501 C -0.17664 0.67495 0.24979
 N502 N -0.17652 0.65852 0.23330
 C503 C -0.12641 0.62449 0.24933
 C504 C -0.11172 0.60989 0.24930
 C505 C -0.09416 0.59260 0.24935
 N506 N -0.07913 0.59096 0.23167
 N507 N -0.06269 0.57505 0.23183
 C508 C -0.06069 0.56029 0.24972
 N509 N -0.07585 0.56190 0.26735
 N510 N -0.09230 0.57781 0.26717
 N511 N -0.14338 0.34221 0.73304
 C512 C -0.14330 0.35846 0.74961
 N513 N -0.15975 0.35791 0.76606
 N514 N -0.17580 0.34160 0.76596
 C515 C -0.17594 0.32526 0.74939
 N516 N -0.15942 0.32589 0.73293
 C517 C -0.12594 0.37597 0.74977
 C518 C -0.11130 0.39061 0.74986
 C519 C -0.09377 0.40794 0.74992
 N520 N -0.09184 0.42281 0.73216
 N521 N -0.07543 0.43875 0.73211
 C522 C -0.06036 0.44032 0.74980
 N523 N -0.06242 0.42549 0.76763
 N524 N -0.07883 0.40955 0.76767
 N525 N 0.23354 0.15836 0.35870
 C526 C 0.24989 0.14179 0.35879
 N527 N 0.26624 0.14185 0.34223
 N528 N 0.26624 0.15798 0.32606
 C529 C 0.24989 0.17460 0.32592
 N530 N 0.23354 0.17450 0.34253
 C531 C 0.24991 0.12442 0.37621
 C532 C 0.24996 0.10981 0.39083
 C533 C 0.25007 0.09240 0.40822
 N534 N 0.27023 0.08373 0.41604
 N535 N 0.27034 0.06753 0.43214
 C536 C 0.25028 0.05950 0.44094
 N537 N 0.23011 0.06817 0.43308
 N538 N 0.23001 0.08437 0.41698
 N539 N 0.73366 0.14210 0.65773
 C540 C 0.75006 0.14198 0.64121
 N541 N 0.76644 0.15852 0.64127
 N542 N 0.76643 0.17470 0.65736
 C543 C 0.75004 0.17487 0.67394
 N544 N 0.73365 0.15828 0.67382
 C545 C 0.75007 0.12453 0.62390
 C546 C 0.75005 0.10985 0.60938
 C547 C 0.75000 0.09234 0.59214
 N548 N 0.76274 0.09481 0.57285
 N549 N 0.76270 0.07854 0.55685
 C550 C 0.74991 0.05923 0.55961
 N551 N 0.73714 0.05684 0.57896
 N552 N 0.73719 0.07312 0.59495
 N553 N 0.23375 -0.15939 0.64128
 C554 C 0.25014 -0.14285 0.64111
 N555 N 0.26657 -0.14295 0.65757
 N556 N 0.26661 -0.15910 0.67373
 C557 C 0.25022 -0.17569 0.67395
 N558 N 0.23379 -0.17554 0.65743
 C559 C 0.25008 -0.12541 0.62375
 C560 C 0.25006 -0.11072 0.60921
 C561 C 0.25006 -0.09318 0.59196
 N562 N 0.26265 -0.09574 0.57258
 N563 N 0.26276 -0.07939 0.55663
 C564 C 0.25029 -0.05991 0.55952
 N565 N 0.23766 -0.05744 0.57895
 N566 N 0.23756 -0.07379 0.59489
 N567 N 0.76519 -0.15908 0.35856
 C568 C 0.74882 -0.14252 0.35870
 N569 N 0.73244 -0.14256 0.34219
 N570 N 0.73241 -0.15867 0.32603
 C571 C 0.74878 -0.17527 0.32584
 N572 N 0.76517 -0.17519 0.34240
 C573 C 0.74891 -0.12512 0.37606
 C574 C 0.74902 -0.11048 0.39061
 C575 C 0.74922 -0.09300 0.40790
 N576 N 0.73658 -0.07366 0.40522
 N577 N 0.73687 -0.05737 0.42119
 C578 C 0.74984 -0.05985 0.44038
 N579 N 0.76241 -0.07930 0.44303
 N580 N 0.76212 -0.09559 0.42706
 N581 N 0.64338 0.76717 -0.15740
 C582 C 0.64176 0.74937 -0.14255
 N583 N 0.65692 0.73180 -0.14423
 N584 N 0.67323 0.73203 -0.16027
 C585 C 0.67491 0.74984 -0.17516
 N586 N 0.65969 0.76740 -0.17344
 C587 C 0.62432 0.74920 -0.12517
 C588 C 0.60972 0.74909 -0.11051
 C589 C 0.59242 0.74901 -0.09298
 N590 N 0.59557 0.73676 -0.07350
 N591 N 0.57958 0.73679 -0.05715
 C592 C 0.55991 0.74911 -0.05972
 N593 N 0.55681 0.76132 -0.07929
 N594 N 0.57280 0.76128 -0.09564
 N595 N 0.34239 0.26718 -0.14313
 C596 C 0.35870 0.25058 -0.14251
 N597 N 0.35847 0.23388 -0.15863
 N598 N 0.34239 0.23378 -0.17489
 C599 C 0.32603 0.25038 -0.17556
 N600 N 0.32632 0.26708 -0.15938
 C601 C 0.37600 0.25072 -0.12502
 C602 C 0.39052 0.25088 -0.11030
 C603 C 0.40777 0.25112 -0.09277
 N604 N 0.42689 0.26421 -0.09516
 N605 N 0.44287 0.26452 -0.07882
 C606 C 0.44024 0.25177 -0.05952
 N607 N 0.42109 0.23862 -0.05722
 N608 N 0.40511 0.23833 -0.07356
 N609 N 0.34244 0.73324 0.14275
 C610 C 0.35934 0.74926 0.14272
 N611 N 0.35958 0.76545 0.15935
 N612 N 0.34340 0.76563 0.17552
 C613 C 0.32644 0.74962 0.17559
 N614 N 0.32625 0.73342 0.15891
 C615 C 0.37669 0.74913 0.12526
 C616 C 0.39124 0.74905 0.11055
 C617 C 0.40851 0.74901 0.09300
 N618 N 0.42809 0.76135 0.09560
 N619 N 0.44408 0.76140 0.07924
 C620 C 0.44100 0.74914 0.05972
 N621 N 0.42137 0.73675 0.05722
 N622 N 0.40539 0.73670 0.07358
 N623 N 0.64131 0.23373 0.15871
 C624 C 0.64150 0.25002 0.14215
 N625 N 0.65831 0.26614 0.14225
 N626 N 0.67444 0.26596 0.15844
 C627 C 0.67431 0.24966 0.17505
 N628 N 0.65745 0.23355 0.17490
 C629 C 0.62416 0.25018 0.12470
 C630 C 0.60960 0.25031 0.11003
 C631 C 0.59230 0.25045 0.09254
 N632 N 0.57299 0.26323 0.09507
 N633 N 0.55694 0.26339 0.07881
 C634 C 0.55965 0.25077 0.05946
 N635 N 0.57901 0.23796 0.05701
 N636 N 0.59507 0.23781 0.07327
 N637 N -0.14394 0.65722 0.73274
 C638 C -0.14366 0.64113 0.74949
 N639 N -0.16002 0.64171 0.76603
 N640 N -0.17618 0.65790 0.76583
 C641 C -0.17652 0.67408 0.74908
 N642 N -0.16010 0.67342 0.73253
 C643 C -0.12621 0.62375 0.74972
 C644 C -0.11149 0.60922 0.74985
 C645 C -0.09389 0.59199 0.74991
 N646 N -0.09180 0.57729 0.73207
 N647 N -0.07532 0.56142 0.73201
 C648 C -0.06035 0.55979 0.74978
 N649 N -0.06257 0.57446 0.76769
 N650 N -0.07905 0.59033 0.76773
 N651 N -0.14369 0.34289 0.26695
 C652 C -0.14352 0.35906 0.25026
 N653 N -0.15982 0.35838 0.23368
 N654 N -0.17581 0.34202 0.23378
 C655 C -0.17602 0.32579 0.25047
 N656 N -0.15968 0.32653 0.26705
 C657 C -0.12622 0.37658 0.25010
 C658 C -0.11159 0.39121 0.25001
 C659 C -0.09409 0.40853 0.24996
 N660 N -0.09214 0.42328 0.26777
 N661 N -0.07571 0.43921 0.26785
 C662 C -0.06065 0.44084 0.25015
 N663 N -0.06272 0.42612 0.23227
 N664 N -0.07915 0.41020 0.23220
 N665 N 0.15985 0.35889 0.76658
 C666 C 0.14285 0.35900 0.75070
 N667 N 0.14248 0.34244 0.73444
 N668 N 0.15863 0.32624 0.73407
 C669 C 0.17568 0.32607 0.74995
 N670 N 0.17600 0.34269 0.76621
 C671 C 0.12542 0.37639 0.75111
 C672 C 0.11072 0.39095 0.75143
 C673 C 0.09315 0.40819 0.75176
 N674 N 0.07819 0.41013 0.73406
 N675 N 0.06176 0.42604 0.73441
 C676 C 0.05970 0.44048 0.75252
 N677 N 0.07478 0.43857 0.77017
 N678 N 0.09121 0.42267 0.76980
 N679 N 0.15915 0.64216 0.23280
 C680 C 0.14266 0.64157 0.24921
 N681 N 0.14279 0.65768 0.26592
 N682 N 0.15893 0.67389 0.26622
 C683 C 0.17547 0.67453 0.24980
 N684 N 0.17530 0.65837 0.23309
 C685 C 0.12521 0.62419 0.24884
 C686 C 0.11049 0.60966 0.24855
 C687 C 0.09288 0.59244 0.24823
 N688 N 0.07781 0.59062 0.26586
 N689 N 0.06136 0.57473 0.26552
 C690 C 0.05939 0.56019 0.24748
 N691 N 0.07458 0.56198 0.22989
 N692 N 0.09104 0.57787 0.23026
 N693 N 0.73454 -0.14097 0.65942
 C694 C 0.74888 -0.14252 0.64118
 N695 N 0.76356 -0.16052 0.63975
 N696 N 0.76390 -0.17648 0.65607
 C697 C 0.74956 -0.17497 0.67438
 N698 N 0.73487 -0.15693 0.67575
 C699 C 0.74870 -0.12522 0.62372
 C700 C 0.74865 -0.11063 0.60910
 C701 C 0.74870 -0.09320 0.59177
 N702 N 0.76133 -0.09589 0.57243
 N703 N 0.76157 -0.07959 0.55644
 C704 C 0.74920 -0.06003 0.55926
 N705 N 0.73652 -0.05745 0.57863
 N706 N 0.73629 -0.07375 0.59462
 N707 N 0.23425 -0.15879 0.35899
 C708 C 0.25068 -0.14230 0.35918
 N709 N 0.26716 -0.14242 0.34275
 N710 N 0.26722 -0.15855 0.32662
 C711 C 0.25079 -0.17509 0.32638
 N712 N 0.23430 -0.17492 0.34286
 C713 C 0.25061 -0.12491 0.37651
 C714 C 0.25059 -0.11025 0.39104
 C715 C 0.25062 -0.09276 0.40827
 N716 N 0.23774 -0.07358 0.40558
 N717 N 0.23788 -0.05726 0.42152
 C718 C 0.25094 -0.05956 0.44067
 N719 N 0.26376 -0.07884 0.44333
 N720 N 0.26361 -0.09516 0.42739
 N721 N 0.73331 0.14152 0.34237
 C722 C 0.74965 0.14153 0.35891
 N723 N 0.76592 0.15819 0.35885
 N724 N 0.76585 0.17435 0.34271
 C725 C 0.74951 0.17438 0.32611
 N726 N 0.73324 0.15767 0.32623
 C727 C 0.74974 0.12413 0.37627
 C728 C 0.74982 0.10950 0.39085
 C729 C 0.74992 0.09208 0.40819
 N730 N 0.77009 0.08364 0.41624
 N731 N 0.77019 0.06743 0.43233
 C732 C 0.75011 0.05917 0.44087
 N733 N 0.72994 0.06762 0.43277
 N734 N 0.72985 0.08383 0.41669
 N735 N 0.23327 0.15843 0.64159
 C736 C 0.24962 0.14185 0.64144
 N737 N 0.26606 0.14190 0.65788
 N738 N 0.26617 0.15804 0.67400
 C739 C 0.24983 0.17467 0.67420
 N740 N 0.23338 0.17457 0.65771
 C741 C 0.24952 0.12447 0.62409
 C742 C 0.24947 0.10985 0.60953
 C743 C 0.24945 0.09242 0.59224
 N744 N 0.26225 0.09497 0.57299
 N745 N 0.26231 0.07873 0.55698
 C746 C 0.24958 0.05938 0.55967
 N747 N 0.23675 0.05691 0.57897
 N748 N 0.23669 0.07316 0.59498
   
