data_POSCAR
  _audit_creation_date              2014-09-24
  _audit_creation_method            'ToBaCCo'
  _symmetry_space_group_name_H-M    'P1'
  _symmetry_Int_Tables_number       1
  _symmetry_cell_setting            triclinic
  loop_
  _symmetry_equiv_pos_as_xyz
 x,y,z
_cell_length_a 14.2416
_cell_length_b 22.7920
_cell_length_c 18.4313
_cell_angle_alpha 90.000000
_cell_angle_beta 90.000000
_cell_angle_gamma 90.756700
loop_
  _atom_site_label
  _atom_site_type_symbol
  _atom_site_fract_x
  _atom_site_fract_y
  _atom_site_fract_z
B1 B -0.05858 -0.05336 0.03104
 B2 B 0.05282 -0.04033 0.05710
 B3 B 0.02951 -0.06280 -0.02857
 B4 B -0.07195 -0.03245 -0.05579
 B5 B -0.11112 0.01049 0.01322
 B6 B -0.03335 0.00457 0.08348
 B7 B 0.05856 0.05340 -0.03104
 B8 B -0.05284 0.04036 -0.05710
 B9 B -0.02953 0.06284 0.02857
 B10 B 0.07193 0.03248 0.05579
 B11 B 0.11110 -0.01045 -0.01322
 B12 B 0.03333 -0.00454 -0.08348
 B13 B 0.54664 0.47700 0.57221
 B14 B 0.43086 0.47168 0.55725
 B15 B 0.48053 0.53833 0.57042
 B16 B 0.58859 0.53841 0.53189
 B17 B 0.60321 0.47149 0.49303
 B18 B 0.50449 0.43002 0.50972
 B19 B 0.45334 0.52304 0.42779
 B20 B 0.56912 0.52836 0.44275
 B21 B 0.51945 0.46170 0.42958
 B22 B 0.41139 0.46162 0.46811
 B23 B 0.39678 0.52855 0.50697
 B24 B 0.49550 0.57002 0.49028
 B25 B 0.55856 0.05340 0.53104
 B26 B 0.44716 0.04036 0.55710
 B27 B 0.47047 0.06284 0.47143
 B28 B 0.57193 0.03248 0.44421
 B29 B 0.61110 -0.01045 0.51322
 B30 B 0.53333 -0.00454 0.58348
 B31 B 0.44142 -0.05336 0.46896
 B32 B 0.55282 -0.04033 0.44290
 B33 B 0.52951 -0.06280 0.52857
 B34 B 0.42805 -0.03245 0.55579
 B35 B 0.38888 0.01049 0.48678
 B36 B 0.46665 0.00457 0.41652
 B37 B -0.04666 0.52304 0.07221
 B38 B 0.06912 0.52836 0.05725
 B39 B 0.01945 0.46170 0.07042
 B40 B -0.08861 0.46162 0.03189
 B41 B -0.10322 0.52855 -0.00697
 B42 B -0.00450 0.57002 0.00972
 B43 B 0.04664 0.47700 -0.07221
 B44 B -0.06914 0.47168 -0.05725
 B45 B -0.01947 0.53833 -0.07042
 B46 B 0.08859 0.53841 -0.03189
 B47 B 0.10321 0.47149 0.00697
 B48 B 0.00449 0.43002 -0.00972
 B49 B 0.05560 0.45475 0.45273
 B50 B -0.06062 0.46191 0.44524
 B51 B -0.01506 0.43273 0.52100
 B52 B 0.08854 0.46778 0.53874
 B53 B 0.10446 0.51961 0.47396
 B54 B 0.01101 0.51560 0.41599
 B55 B -0.05562 0.54529 0.54727
 B56 B 0.06060 0.53813 0.55476
 B57 B 0.01504 0.56731 0.47900
 B58 B -0.08855 0.53226 0.46126
 B59 B -0.10448 0.48043 0.52604
 B60 B -0.01103 0.48444 0.58401
 B61 B 0.45482 -0.02276 -0.07275
 B62 B 0.56936 -0.02882 -0.05577
 B63 B 0.52391 0.03794 -0.07036
 B64 B 0.41484 0.03867 -0.03369
 B65 B 0.39490 -0.02821 0.00528
 B66 B 0.49173 -0.07020 -0.00930
 B67 B 0.54516 0.02280 0.07275
 B68 B 0.43062 0.02886 0.05577
 B69 B 0.47607 -0.03790 0.07036
 B70 B 0.58514 -0.03863 0.03369
 B71 B 0.60508 0.02825 -0.00528
 B72 B 0.50825 0.07024 0.00930
 B73 B 0.44438 0.54529 -0.04727
 B74 B 0.56060 0.53813 -0.05476
 B75 B 0.51504 0.56731 0.02100
 B76 B 0.41145 0.53226 0.03874
 B77 B 0.39552 0.48043 -0.02604
 B78 B 0.48897 0.48444 -0.08401
 B79 B 0.55560 0.45475 0.04727
 B80 B 0.43938 0.46191 0.05476
 B81 B 0.48494 0.43273 -0.02100
 B82 B 0.58854 0.46778 -0.03874
 B83 B 0.60446 0.51961 0.02604
 B84 B 0.51101 0.51560 0.08401
 B85 B 0.04516 0.02280 0.42725
 B86 B -0.06938 0.02886 0.44423
 B87 B -0.02393 -0.03790 0.42964
 B88 B 0.08514 -0.03863 0.46631
 B89 B 0.10508 0.02825 0.50528
 B90 B 0.00825 0.07024 0.49070
 B91 B -0.04518 -0.02276 0.57275
 B92 B 0.06936 -0.02882 0.55577
 B93 B 0.02391 0.03794 0.57036
 B94 B -0.08516 0.03867 0.53369
 B95 B -0.10510 -0.02821 0.49472
 B96 B -0.00827 -0.07020 0.50930
 B97 B 0.78163 0.30330 0.28227
 B98 B 0.66930 0.28500 0.29592
 B99 B 0.70486 0.30103 0.21287
 B100 B 0.81417 0.27876 0.20018
 B101 B 0.84813 0.24349 0.27831
 B102 B 0.75637 0.24814 0.33983
 B103 B 0.69494 0.18539 0.22298
 B104 B 0.80728 0.20587 0.20548
 B105 B 0.77237 0.18690 0.28964
 B106 B 0.66136 0.21155 0.30452
 B107 B 0.62867 0.24499 0.22523
 B108 B 0.71928 0.24048 0.16427
 B109 B 0.72761 0.81314 0.78964
 B110 B 0.69270 0.79416 0.70548
 B111 B 0.80504 0.81464 0.72298
 B112 B 0.83862 0.78849 0.80452
 B113 B 0.74361 0.75190 0.83983
 B114 B 0.65185 0.75655 0.77831
 B115 B 0.79512 0.69901 0.71287
 B116 B 0.83068 0.71504 0.79592
 B117 B 0.71835 0.69674 0.78227
 B118 B 0.68581 0.72127 0.70018
 B119 B 0.78070 0.75955 0.66427
 B120 B 0.87131 0.75504 0.72523
 B121 B 0.29588 0.19554 0.72728
 B122 B 0.18228 0.20923 0.71729
 B123 B 0.22473 0.19712 0.80020
 B124 B 0.33327 0.22471 0.80647
 B125 B 0.35932 0.25815 0.72579
 B126 B 0.26421 0.24838 0.66861
 B127 B 0.20656 0.31241 0.78481
 B128 B 0.32068 0.29646 0.79883
 B129 B 0.28026 0.31164 0.71572
 B130 B 0.17016 0.28230 0.70609
 B131 B 0.14394 0.24994 0.78789
 B132 B 0.23805 0.26011 0.84451
 B133 B 0.20410 0.80449 0.22728
 B134 B 0.31770 0.79080 0.21729
 B135 B 0.27525 0.80292 0.30020
 B136 B 0.16671 0.77533 0.30647
 B137 B 0.14066 0.74189 0.22579
 B138 B 0.23578 0.75166 0.16861
 B139 B 0.29342 0.68763 0.28481
 B140 B 0.17930 0.70357 0.29883
 B141 B 0.21972 0.68839 0.21572
 B142 B 0.32982 0.71774 0.20609
 B143 B 0.35604 0.75010 0.28789
 B144 B 0.26193 0.73993 0.34451
 B145 B 0.29512 0.69901 0.78713
 B146 B 0.33068 0.71504 0.70408
 B147 B 0.21835 0.69674 0.71773
 B148 B 0.18581 0.72127 0.79982
 B149 B 0.28070 0.75955 0.83573
 B150 B 0.37131 0.75504 0.77477
 B151 B 0.22761 0.81314 0.71036
 B152 B 0.19270 0.79416 0.79452
 B153 B 0.30504 0.81464 0.77702
 B154 B 0.33862 0.78849 0.69548
 B155 B 0.24361 0.75190 0.66017
 B156 B 0.15185 0.75655 0.72169
 B157 B 0.19494 0.18539 0.27702
 B158 B 0.30728 0.20587 0.29452
 B159 B 0.27237 0.18690 0.21036
 B160 B 0.16136 0.21155 0.19548
 B161 B 0.12867 0.24499 0.27477
 B162 B 0.21928 0.24048 0.33573
 B163 B 0.28163 0.30330 0.21773
 B164 B 0.16930 0.28500 0.20408
 B165 B 0.20486 0.30103 0.28713
 B166 B 0.31417 0.27876 0.29982
 B167 B 0.34813 0.24349 0.22169
 B168 B 0.25637 0.24814 0.16017
 B169 B 0.79342 0.68763 0.21519
 B170 B 0.67930 0.70357 0.20117
 B171 B 0.71972 0.68839 0.28428
 B172 B 0.82982 0.71774 0.29391
 B173 B 0.85604 0.75010 0.21211
 B174 B 0.76193 0.73993 0.15549
 B175 B 0.70410 0.80449 0.27272
 B176 B 0.81770 0.79080 0.28271
 B177 B 0.77525 0.80292 0.19980
 B178 B 0.66671 0.77533 0.19353
 B179 B 0.64066 0.74189 0.27421
 B180 B 0.73578 0.75166 0.33139
 B181 B 0.72473 0.19712 0.69980
 B182 B 0.68228 0.20923 0.78271
 B183 B 0.79588 0.19554 0.77272
 B184 B 0.83327 0.22471 0.69353
 B185 B 0.73805 0.26011 0.65549
 B186 B 0.64394 0.24994 0.71211
 B187 B 0.78026 0.31164 0.78428
 B188 B 0.82068 0.29646 0.70117
 B189 B 0.70656 0.31241 0.71519
 B190 B 0.67016 0.28230 0.79391
 B191 B 0.76421 0.24838 0.83139
 B192 B 0.85932 0.25815 0.77421
 N193 N 0.12387 0.40802 0.75852
 N194 N 0.08312 0.45244 0.79223
 C195 C 0.09512 0.44322 0.86361
 C196 C 0.14256 0.39087 0.87198
 N197 N 0.16104 0.37073 0.80559
 H198 H 0.15536 0.36736 0.92193
 N199 N 0.37611 0.59202 0.25852
 N200 N 0.41686 0.54760 0.29223
 C201 C 0.40486 0.55681 0.36361
 C202 C 0.35742 0.60916 0.37198
 N203 N 0.33894 0.62931 0.30559
 H204 H 0.34462 0.63267 0.42193
 N205 N 0.89619 0.90863 0.74531
 N206 N 0.93429 0.95328 0.70924
 C207 C 0.90945 0.94583 0.63942
 C208 C 0.85697 0.89468 0.63393
 N209 N 0.84916 0.87309 0.70081
 H210 H 0.83193 0.87312 0.58509
 N211 N 0.60379 0.09141 0.24531
 N212 N 0.56569 0.04676 0.20924
 C213 C 0.59053 0.05420 0.13942
 C214 C 0.64301 0.10535 0.13393
 N215 N 0.65082 0.12694 0.20081
 H216 H 0.66805 0.12692 0.08509
 N217 N 0.79931 0.07796 0.28666
 N218 N 0.83673 0.03547 0.32550
 C219 C 0.86629 0.06011 0.38786
 C220 C 0.84622 0.11929 0.38565
 N221 N 0.80419 0.12870 0.32165
 H222 H 0.86474 0.15269 0.42510
 N223 N 0.31549 0.41971 0.72071
 N224 N 0.35107 0.46295 0.68122
 C225 C 0.36747 0.44057 0.61506
 C226 C 0.34092 0.38188 0.61547
 N227 N 0.30837 0.37061 0.68239
 H228 H 0.35114 0.34963 0.57315
 N229 N 0.70067 0.92208 0.78666
 N230 N 0.66325 0.96456 0.82550
 C231 C 0.63369 0.93992 0.88786
 C232 C 0.65376 0.88075 0.88565
 N233 N 0.69579 0.87134 0.82165
 H234 H 0.63524 0.84734 0.92510
 N235 N 0.18449 0.58033 0.22071
 N236 N 0.14891 0.53708 0.18122
 C237 C 0.13251 0.55947 0.11506
 C238 C 0.15906 0.61816 0.11547
 N239 N 0.19161 0.62942 0.18239
 H240 H 0.14884 0.65041 0.07315
 N241 N 0.47312 0.84545 0.20815
 N242 N 0.51343 0.89193 0.17722
 C243 C 0.44983 0.91598 0.13267
 C244 C 0.36943 0.88040 0.13618
 N245 N 0.38619 0.83708 0.18441
 H246 H 0.30673 0.88442 0.10374
 N247 N 0.51746 0.34035 0.29890
 N248 N 0.48084 0.38935 0.32469
 C249 C 0.54365 0.41301 0.37087
 C250 C 0.61873 0.37434 0.37443
 N251 N 0.60016 0.32944 0.32881
 H252 H 0.67938 0.37786 0.40926
 N253 N 0.98252 0.65968 0.79890
 N254 N 1.01914 0.61069 0.82469
 C255 C 0.95633 0.58703 0.87087
 C256 C 0.88125 0.62570 0.87443
 N257 N 0.89982 0.67060 0.82881
 H258 H 0.82060 0.62218 0.90926
 N259 N 0.02686 0.15459 0.70815
 N260 N -0.01345 0.10811 0.67722
 C261 C 0.05016 0.08406 0.63267
 C262 C 0.13055 0.11964 0.63618
 N263 N 0.11379 0.16296 0.68441
 H264 H 0.19325 0.11562 0.60374
 N265 N 0.17236 0.40729 0.29025
 N266 N 0.13687 0.44754 0.33240
 C267 C 0.11090 0.42069 0.39454
 C268 C 0.13209 0.36232 0.38931
 N269 N 0.17141 0.35609 0.32328
 H270 H 0.11759 0.32769 0.42809
 N271 N 0.32762 0.59275 0.79025
 N272 N 0.36311 0.55250 0.83240
 C273 C 0.38908 0.57935 0.89454
 C274 C 0.36789 0.63772 0.88931
 N275 N 0.32857 0.64395 0.82328
 H276 H 0.38239 0.67235 0.92809
 N277 N 0.76188 0.13218 0.59693
 N278 N 0.71760 0.10281 0.54535
 C279 C 0.62689 0.09910 0.56517
 C280 C 0.61818 0.12561 0.63182
 N281 N 0.70376 0.14570 0.65030
 H282 H 0.55573 0.13044 0.66350
 N283 N 0.73810 0.86786 0.09693
 N284 N 0.78238 0.89722 0.04535
 C285 C 0.87309 0.90094 0.06517
 C286 C 0.88180 0.87443 0.13182
 N287 N 0.79622 0.85433 0.15030
 H288 H 0.94425 0.86959 0.16350
 N289 N 0.82298 0.08630 0.77706
 N290 N 0.85810 0.04608 0.82081
 C291 C 0.89415 0.07395 0.87948
 C292 C 0.87992 0.13323 0.86956
 N293 N 0.83622 0.13926 0.80471
 H294 H 0.89936 0.16854 0.90611
 N295 N 0.16677 0.59041 0.72314
 N296 N 0.13021 0.54872 0.68181
 C297 C 0.11442 0.57249 0.61615
 C298 C 0.14115 0.63084 0.61926
 N299 N 0.17564 0.64005 0.68670
 H300 H 0.13578 0.66342 0.57680
 N301 N 0.67700 0.91373 0.27706
 N302 N 0.64188 0.95396 0.32081
 C303 C 0.60583 0.92609 0.37948
 C304 C 0.62006 0.86680 0.36956
 N305 N 0.66376 0.86077 0.30471
 H306 H 0.60062 0.83149 0.40611
 N307 N 0.33321 0.40963 0.22314
 N308 N 0.36977 0.45131 0.18181
 C309 C 0.38556 0.42755 0.11615
 C310 C 0.35883 0.36919 0.11926
 N311 N 0.32434 0.35998 0.18670
 H312 H 0.36420 0.33662 0.07680
 N313 N 0.51693 0.67391 0.16273
 N314 N 0.47124 0.64891 0.10803
 C315 C 0.53513 0.62759 0.06131
 C316 C 0.62251 0.64156 0.09116
 N317 N 0.60857 0.66807 0.15565
 H318 H 0.68955 0.62952 0.06934
 N319 N 0.05202 0.79704 0.87674
 N320 N 0.01240 0.82936 0.92781
 C321 C 0.06165 0.87995 0.93082
 C322 C 0.13073 0.87785 0.87753
 N323 N 0.12283 0.82543 0.84472
 H324 H 0.17885 0.91267 0.86239
 N325 N 0.44796 0.20300 0.37674
 N326 N 0.48758 0.17067 0.42781
 C327 C 0.43833 0.12009 0.43082
 C328 C 0.36925 0.12218 0.37753
 N329 N 0.37715 0.17460 0.34472
 H330 H 0.32113 0.08737 0.36239
 N331 N 0.98305 0.32613 0.66273
 N332 N 1.02874 0.35113 0.60803
 C333 C 0.96485 0.37245 0.56131
 C334 C 0.87747 0.35848 0.59116
 N335 N 0.89141 0.33196 0.65565
 H336 H 0.81043 0.37051 0.56934
 N337 N 0.87611 0.59202 0.24148
 N338 N 0.91686 0.54760 0.20777
 C339 C 0.90486 0.55681 0.13639
 C340 C 0.85742 0.60916 0.12802
 N341 N 0.83894 0.62931 0.19441
 H342 H 0.84462 0.63267 0.07807
 N343 N 0.62387 0.40802 0.74148
 N344 N 0.58312 0.45244 0.70777
 C345 C 0.59512 0.44322 0.63639
 C346 C 0.64256 0.39087 0.62802
 N347 N 0.66104 0.37073 0.69441
 H348 H 0.65536 0.36736 0.57807
 N349 N 0.10379 0.09141 0.25469
 N350 N 0.06569 0.04676 0.29076
 C351 C 0.09053 0.05420 0.36058
 C352 C 0.14301 0.10535 0.36607
 N353 N 0.15082 0.12694 0.29919
 H354 H 0.16805 0.12692 0.41491
 N355 N 0.39619 0.90863 0.75469
 N356 N 0.43429 0.95328 0.79076
 C357 C 0.40945 0.94583 0.86058
 C358 C 0.35697 0.89468 0.86607
 N359 N 0.34916 0.87309 0.79919
 H360 H 0.33193 0.87312 0.91491
 N361 N 0.20067 0.92208 0.71334
 N362 N 0.16325 0.96456 0.67450
 C363 C 0.13369 0.93992 0.61214
 C364 C 0.15376 0.88075 0.61435
 N365 N 0.19579 0.87134 0.67835
 H366 H 0.13524 0.84734 0.57490
 N367 N 0.68449 0.58033 0.27929
 N368 N 0.64891 0.53708 0.31878
 C369 C 0.63251 0.55947 0.38494
 C370 C 0.65906 0.61816 0.38453
 N371 N 0.69161 0.62942 0.31761
 H372 H 0.64884 0.65041 0.42685
 N373 N 0.29931 0.07796 0.21334
 N374 N 0.33673 0.03547 0.17450
 C375 C 0.36629 0.06011 0.11214
 C376 C 0.34622 0.11929 0.11435
 N377 N 0.30419 0.12870 0.17835
 H378 H 0.36474 0.15269 0.07490
 N379 N 0.81549 0.41971 0.77929
 N380 N 0.85107 0.46295 0.81878
 C381 C 0.86747 0.44057 0.88494
 C382 C 0.84092 0.38188 0.88453
 N383 N 0.80837 0.37061 0.81761
 H384 H 0.85114 0.34963 0.92685
 N385 N 0.52686 0.15459 0.79185
 N386 N 0.48655 0.10811 0.82278
 C387 C 0.55016 0.08406 0.86733
 C388 C 0.63055 0.11964 0.86382
 N389 N 0.61379 0.16296 0.81559
 H390 H 0.69325 0.11562 0.89626
 N391 N 0.48252 0.65968 0.70110
 N392 N 0.51914 0.61069 0.67531
 C393 C 0.45633 0.58703 0.62913
 C394 C 0.38125 0.62570 0.62557
 N395 N 0.39982 0.67060 0.67119
 H396 H 0.32060 0.62218 0.59074
 N397 N 0.01746 0.34035 0.20110
 N398 N -0.01916 0.38935 0.17531
 C399 C 0.04365 0.41301 0.12913
 C400 C 0.11873 0.37434 0.12557
 N401 N 0.10016 0.32944 0.17119
 H402 H 0.17938 0.37786 0.09074
 N403 N 0.97312 0.84545 0.29185
 N404 N 1.01343 0.89193 0.32278
 C405 C 0.94983 0.91598 0.36733
 C406 C 0.86943 0.88040 0.36382
 N407 N 0.88619 0.83708 0.31559
 H408 H 0.80673 0.88442 0.39626
 N409 N 0.82762 0.59275 0.70975
 N410 N 0.86311 0.55250 0.66760
 C411 C 0.88908 0.57935 0.60546
 C412 C 0.86789 0.63772 0.61069
 N413 N 0.82857 0.64395 0.67672
 H414 H 0.88239 0.67235 0.57191
 N415 N 0.67236 0.40729 0.20975
 N416 N 0.63687 0.44754 0.16760
 C417 C 0.61090 0.42069 0.10546
 C418 C 0.63209 0.36232 0.11069
 N419 N 0.67141 0.35609 0.17672
 H420 H 0.61759 0.32769 0.07191
 N421 N 0.23810 0.86786 0.40307
 N422 N 0.28238 0.89722 0.45465
 C423 C 0.37309 0.90094 0.43483
 C424 C 0.38180 0.87443 0.36818
 N425 N 0.29622 0.85433 0.34970
 H426 H 0.44425 0.86959 0.33650
 N427 N 0.26188 0.13218 0.90307
 N428 N 0.21760 0.10281 0.95465
 C429 C 0.12689 0.09910 0.93483
 C430 C 0.11818 0.12561 0.86818
 N431 N 0.20376 0.14570 0.84970
 H432 H 0.05573 0.13044 0.83650
 N433 N 0.17700 0.91373 0.22294
 N434 N 0.14188 0.95396 0.17919
 C435 C 0.10583 0.92609 0.12052
 C436 C 0.12006 0.86680 0.13044
 N437 N 0.16376 0.86077 0.19529
 H438 H 0.10062 0.83149 0.09389
 N439 N 0.83321 0.40963 0.27686
 N440 N 0.86977 0.45131 0.31819
 C441 C 0.88556 0.42755 0.38385
 C442 C 0.85883 0.36919 0.38074
 N443 N 0.82434 0.35998 0.31330
 H444 H 0.86420 0.33662 0.42320
 N445 N 0.32298 0.08630 0.72294
 N446 N 0.35810 0.04608 0.67919
 C447 C 0.39415 0.07395 0.62052
 C448 C 0.37992 0.13323 0.63044
 N449 N 0.33622 0.13926 0.69529
 H450 H 0.39936 0.16854 0.59389
 N451 N 0.66677 0.59041 0.77686
 N452 N 0.63021 0.54872 0.81819
 C453 C 0.61442 0.57249 0.88385
 C454 C 0.64115 0.63084 0.88074
 N455 N 0.67564 0.64005 0.81330
 H456 H 0.63578 0.66342 0.92320
 N457 N 0.48305 0.32613 0.83727
 N458 N 0.52874 0.35113 0.89197
 C459 C 0.46485 0.37245 0.93869
 C460 C 0.37747 0.35848 0.90884
 N461 N 0.39141 0.33196 0.84435
 H462 H 0.31043 0.37051 0.93066
 N463 N 0.94796 0.20300 0.12326
 N464 N 0.98758 0.17067 0.07219
 C465 C 0.93833 0.12009 0.06918
 C466 C 0.86925 0.12218 0.12247
 N467 N 0.87715 0.17460 0.15528
 H468 H 0.82113 0.08737 0.13761
 N469 N 0.55202 0.79704 0.62326
 N470 N 0.51240 0.82936 0.57219
 C471 C 0.56165 0.87995 0.56918
 C472 C 0.63073 0.87785 0.62247
 N473 N 0.62283 0.82543 0.65528
 H474 H 0.67885 0.91267 0.63761
 N475 N 0.01693 0.67391 0.33727
 N476 N -0.02876 0.64891 0.39197
 C477 C 0.03513 0.62759 0.43869
 C478 C 0.12251 0.64156 0.40884
 N479 N 0.10857 0.66807 0.34435
 H480 H 0.18955 0.62952 0.43066
   
