data_POSCAR
  _audit_creation_date              2014-09-24
  _audit_creation_method            'ToBaCCo'
  _symmetry_space_group_name_H-M    'P1'
  _symmetry_Int_Tables_number       1
  _symmetry_cell_setting            triclinic
  loop_
  _symmetry_equiv_pos_as_xyz
 x,y,z
_cell_length_a 32.5227
_cell_length_b 32.9493
_cell_length_c 32.7791
_cell_angle_alpha 90.135800
_cell_angle_beta 90.243100
_cell_angle_gamma 89.663600
loop_
  _atom_site_label
  _atom_site_type_symbol
  _atom_site_fract_x
  _atom_site_fract_y
  _atom_site_fract_z
C1 C 0.00022 0.46080 0.21855
 C2 C 0.03790 0.46357 0.24642
 C3 C 0.03860 0.49765 0.26999
 C4 C 0.00124 0.52604 0.26379
 C5 C -0.03676 0.46461 0.24697
 C6 C -0.03642 0.49870 0.27052
 C7 C 0.00022 0.50028 0.19376
 C8 C 0.00075 0.53443 0.21756
 H9 H 0.06287 0.44149 0.24610
 H10 H 0.00170 0.55371 0.28323
 H11 H -0.06231 0.44348 0.24664
 H12 H -0.00038 0.50117 0.16064
 C13 C 0.00124 0.46036 0.77550
 C14 C -0.03324 0.46287 0.74717
 C15 C -0.03229 0.49837 0.72211
 C16 C 0.00299 0.52461 0.73003
 C17 C 0.03804 0.46267 0.75053
 C18 C 0.03898 0.49817 0.72546
 C19 C 0.00009 0.49797 0.79909
 C20 C 0.00107 0.53347 0.77374
 H21 H -0.05922 0.44220 0.74743
 H22 H 0.00376 0.55206 0.71027
 H23 H 0.06377 0.44151 0.75279
 H24 H -0.00139 0.49929 0.83221
 C25 C 0.22933 -0.00021 0.45395
 C26 C 0.25795 0.03622 0.45795
 C27 C 0.28099 0.03606 0.49273
 C28 C 0.27360 -0.00089 0.52047
 C29 C 0.25725 -0.03750 0.45776
 C30 C 0.28028 -0.03806 0.49256
 C31 C 0.20357 0.00015 0.49311
 C32 C 0.22688 -0.00022 0.52793
 H33 H 0.25801 0.06132 0.43648
 H34 H 0.29267 -0.00117 0.54869
 H35 H 0.25657 -0.06273 0.43634
 H36 H 0.17017 0.00039 0.49331
 C37 C 0.76100 -0.00650 0.45163
 C38 C 0.73299 -0.04033 0.45488
 C39 C 0.70957 -0.03996 0.49159
 C40 C 0.71821 -0.00575 0.51845
 C41 C 0.73442 0.03170 0.45652
 C42 C 0.71208 0.03213 0.49161
 C43 C 0.78772 -0.00798 0.49041
 C44 C 0.76504 -0.00754 0.52545
 H45 H 0.73280 -0.06579 0.43369
 H46 H 0.69970 -0.00532 0.54691
 H47 H 0.73521 0.05719 0.43554
 H48 H 0.82112 -0.00869 0.49022
 C49 C 0.45467 0.23195 1.00205
 C50 C 0.45771 0.25710 1.03847
 C51 C 0.49428 0.28109 1.03976
 C52 C 0.52093 0.27547 1.00417
 C53 C 0.45786 0.25971 0.96777
 C54 C 0.49444 0.28368 0.96879
 C55 C 0.49227 0.20749 1.00131
 C56 C 0.52892 0.23169 1.00249
 H57 H 0.43639 0.25546 1.06392
 H58 H 0.54917 0.29440 1.00511
 H59 H 0.43683 0.25970 0.94184
 H60 H 0.49280 0.17452 0.99964
 C61 C 0.45887 0.76550 1.00394
 C62 C 0.46271 0.73639 0.96765
 C63 C 0.49804 0.71391 0.96822
 C64 C 0.52618 0.72250 1.00514
 C65 C 0.46291 0.73852 1.04173
 C66 C 0.49822 0.71604 1.04238
 C67 C 0.49587 0.78998 1.00330
 C68 C 0.53282 0.76616 1.00397
 H69 H 0.44099 0.73572 0.94235
 H70 H 0.55481 0.70387 1.00572
 H71 H 0.44101 0.73880 1.06668
 H72 H 0.49570 0.82293 1.00165
 B73 B 0.99312 1.03915 0.01650
 B74 B 1.01912 0.99781 0.03252
 B75 B 0.96739 0.99785 0.03201
 B76 B 0.95137 1.02343 -0.00956
 B77 B 0.99336 1.03912 -0.03483
 B78 B 1.03519 1.02332 -0.00882
 B79 B 0.99381 0.95650 -0.03506
 B80 B 0.96773 0.99786 -0.05105
 B81 B 1.01957 0.99782 -0.05064
 B82 B 1.03541 0.97228 -0.00894
 B83 B 0.99356 0.95645 0.01634
 B84 B 0.95172 0.97228 -0.00969
 B85 B 0.54415 0.49800 0.47902
 B86 B 0.54444 0.49826 0.53031
 B87 B 0.52775 0.53926 0.50465
 B88 B 0.50184 0.52322 0.46322
 B89 B 0.50243 0.47203 0.46325
 B90 B 0.52882 0.45669 0.50489
 B91 B 0.46073 0.49782 0.53068
 B92 B 0.46024 0.49754 0.47918
 B93 B 0.47692 0.45630 0.50507
 B94 B 0.50307 0.47255 0.54651
 B95 B 0.50246 0.52356 0.54622
 B96 B 0.47607 0.53911 0.50481
 C97 C 0.99940 1.42329 0.19436
 C98 C 0.99830 1.39115 0.17673
 C99 C 0.99656 1.35162 0.15805
 C100 C 0.98116 1.31895 0.18037
 C101 C 0.98015 1.28014 0.16320
 C102 C 0.99457 1.27338 0.12335
 C103 C 1.00986 1.30646 0.10102
 C104 C 1.01084 1.34535 0.11830
 C105 C 0.99406 1.23189 0.10550
 C106 C 1.02731 1.21764 0.08204
 C107 C 1.02711 1.17831 0.06597
 C108 C 0.99374 1.15270 0.07313
 C109 C 0.96041 1.16661 0.09619
 C110 C 0.96055 1.20593 0.11231
 C111 C 0.99325 1.11266 0.05570
 C112 C 0.99302 1.07971 0.03979
 H113 H 0.97023 1.32342 0.21125
 H114 H 0.96879 1.25526 0.18141
 H115 H 1.02074 1.30233 0.07011
 H116 H 1.02282 1.37043 0.10075
 H117 H 1.05375 1.23668 0.07665
 H118 H 1.05297 1.16786 0.04795
 H119 H 0.93424 1.14715 0.10152
 H120 H 0.93423 1.21618 0.12971
 C121 C 1.00031 0.57481 0.20051
 C122 C 0.99987 0.60840 0.18585
 C123 C 0.99929 0.64831 0.16782
 C124 C 0.98450 0.68170 0.18995
 C125 C 0.98356 0.72031 0.17221
 C126 C 0.99736 0.72608 0.13199
 C127 C 1.01230 0.69231 0.11008
 C128 C 1.01323 0.65376 0.12788
 C129 C 0.99606 0.76703 0.11287
 C130 C 0.98461 0.77157 0.07165
 C131 C 0.98370 0.80996 0.05355
 C132 C 0.99423 0.84440 0.07628
 C133 C 1.00551 0.84031 0.11733
 C134 C 1.00639 0.80191 0.13554
 C135 C 0.99392 0.88371 0.05714
 C136 C 0.99372 0.91609 0.04008
 H137 H 0.97350 0.67786 0.22085
 H138 H 0.97142 0.74553 0.18974
 H139 H 1.02370 0.69576 0.07931
 H140 H 1.02485 0.62820 0.11046
 H141 H 0.97591 0.74548 0.05349
 H142 H 0.97480 0.81278 0.02178
 H143 H 1.01386 0.86675 0.13518
 H144 H 1.01581 0.79944 0.16716
 C145 C 1.00015 1.42540 -0.20101
 C146 C 0.99887 1.39395 -0.18247
 C147 C 0.99699 1.35526 -0.16264
 C148 C 1.03167 1.33947 -0.14275
 C149 C 1.03084 1.30023 -0.12673
 C150 C 0.99534 1.27633 -0.13068
 C151 C 0.96039 1.29282 -0.15000
 C152 C 0.96126 1.33205 -0.16591
 C153 C 0.99507 1.23400 -0.11564
 C154 C 0.97706 1.20301 -0.13921
 C155 C 0.97699 1.16303 -0.12517
 C156 C 0.99490 1.15364 -0.08751
 C157 C 1.01291 1.18420 -0.06386
 C158 C 1.01308 1.22417 -0.07785
 C159 C 0.99404 1.11295 -0.07230
 C160 C 0.99353 1.07964 -0.05756
 H161 H 1.05960 1.35711 -0.14046
 H162 H 1.05833 1.28814 -0.11238
 H163 H 0.93246 1.27529 -0.15295
 H164 H 0.93433 1.34399 -0.18144
 H165 H 0.96348 1.20964 -0.16868
 H166 H 0.96293 1.13951 -0.14361
 H167 H 1.02659 1.17715 -0.03449
 H168 H 1.02674 1.24747 -0.05889
 C169 C 1.00016 0.57186 -0.21073
 C170 C 0.99937 0.60572 -0.19682
 C171 C 0.99846 0.64599 -0.17988
 C172 C 1.00725 0.67951 -0.20442
 C173 C 1.00669 0.71862 -0.18777
 C174 C 0.99736 0.72463 -0.14631
 C175 C 0.98840 0.69072 -0.12197
 C176 C 0.98896 0.65168 -0.13867
 C177 C 0.99720 0.76602 -0.12839
 C178 C 1.01378 0.77281 -0.08927
 C179 C 1.01328 0.81165 -0.07214
 C180 C 0.99622 0.84418 -0.09383
 C181 C 0.97981 0.83789 -0.13283
 C182 C 0.98033 0.79902 -0.15007
 C183 C 0.99508 0.88376 -0.07548
 C184 C 0.99435 0.91628 -0.05876
 H185 H 1.01475 0.67540 -0.23634
 H186 H 1.01418 0.74407 -0.20715
 H187 H 0.98054 0.69442 -0.09010
 H188 H 0.98198 0.62593 -0.11945
 H189 H 1.02750 0.74816 -0.07207
 H190 H 1.02615 0.81629 -0.04195
 H191 H 0.96639 0.86291 -0.14976
 H192 H 0.96692 0.79465 -0.18004
 C193 C 1.20546 1.00015 0.41587
 C194 C 1.18766 1.00044 0.38353
 C195 C 1.16828 1.00081 0.34399
 C196 C 1.18996 1.01535 0.31032
 C197 C 1.17198 1.01488 0.27154
 C198 C 1.13198 0.99981 0.26587
 C199 C 1.11029 0.98547 0.29996
 C200 C 1.12838 0.98593 0.33877
 C201 C 1.11309 0.99904 0.22454
 C202 C 1.07147 1.00959 0.21897
 C203 C 1.05388 1.00927 0.18000
 C204 C 1.07757 0.99833 0.14613
 C205 C 1.11894 0.98763 0.15130
 C206 C 1.13663 0.98799 0.19025
 C207 C 1.05917 0.99799 0.10621
 C208 C 1.04262 0.99784 0.07330
 H209 H 1.22086 1.02696 0.31402
 H210 H 1.18924 1.02667 0.24604
 H211 H 1.07963 0.97326 0.29650
 H212 H 1.11140 0.97441 0.36460
 H213 H 1.05269 1.01870 0.24465
 H214 H 1.02183 1.01772 0.17626
 H215 H 1.13747 0.97894 0.12527
 H216 H 1.16858 0.97918 0.19362
 C217 C 1.20898 0.99942 -0.43187
 C218 C 1.19371 0.99905 -0.39837
 C219 C 1.17509 0.99854 -0.35853
 C220 C 1.13578 0.98226 -0.35350
 C221 C 1.11743 0.98202 -0.31498
 C222 C 1.13815 0.99810 -0.28084
 C223 C 1.17775 1.01425 -0.28618
 C224 C 1.19604 1.01448 -0.32476
 C225 C 1.11841 0.99821 -0.23995
 C226 C 1.14149 0.98944 -0.20457
 C227 C 1.12276 0.98942 -0.16619
 C228 C 1.08077 0.99822 -0.16264
 C229 C 1.05759 1.00708 -0.19760
 C230 C 1.07621 1.00707 -0.23597
 C231 C 1.06120 0.99799 -0.12333
 C232 C 1.04378 0.99787 -0.09095
 H233 H 1.11930 0.96972 -0.37937
 H234 H 1.08719 0.96885 -0.31184
 H235 H 1.19431 1.02730 -0.26066
 H236 H 1.22643 1.02726 -0.32828
 H237 H 1.17389 0.98201 -0.20662
 H238 H 1.14097 0.98239 -0.13934
 H239 H 1.02508 1.01406 -0.19519
 H240 H 1.05769 1.01451 -0.26246
 C241 C 0.78415 0.99317 0.41349
 C242 C 0.80146 0.99299 0.38115
 C243 C 0.82024 0.99285 0.34167
 C244 C 0.79625 0.98436 0.30722
 C245 C 0.81384 0.98497 0.26850
 C246 C 0.85572 0.99409 0.26380
 C247 C 0.87969 1.00236 0.29865
 C248 C 0.86198 1.00178 0.33740
 C249 C 0.87420 0.99501 0.22265
 C250 C 0.91332 0.97797 0.21585
 C251 C 0.93054 0.97858 0.17694
 C252 C 0.90893 0.99627 0.14450
 C253 C 0.87007 1.01339 0.15091
 C254 C 0.85274 1.01275 0.18979
 C255 C 0.92711 0.99718 0.10483
 C256 C 0.94366 0.99768 0.07219
 H257 H 0.76389 0.97737 0.31029
 H258 H 0.79481 0.97792 0.24227
 H259 H 0.91191 1.00990 0.29585
 H260 H 0.88072 1.00855 0.36394
 H261 H 0.93030 0.96371 0.24047
 H262 H 0.96065 0.96519 0.17213
 H263 H 0.85328 1.02733 0.12594
 H264 H 0.82280 1.02655 0.19429
 C265 C 0.78343 0.99250 -0.43459
 C266 C 0.79871 0.99272 -0.40108
 C267 C 0.81693 0.99314 -0.36108
 C268 C 0.85868 1.00206 -0.35636
 C269 C 0.87646 1.00258 -0.31750
 C270 C 0.85263 0.99419 -0.28282
 C271 C 0.81065 0.98532 -0.28789
 C272 C 0.79295 0.98479 -0.32681
 C273 C 0.87156 0.99463 -0.24159
 C274 C 0.85049 1.01186 -0.20830
 C275 C 0.86859 1.01253 -0.16955
 C276 C 0.90785 0.99595 -0.16366
 C277 C 0.92896 0.97858 -0.19650
 C278 C 0.91097 0.97792 -0.23524
 C279 C 0.92690 0.99702 -0.12414
 C280 C 0.94397 0.99763 -0.09155
 H281 H 0.87746 1.00872 -0.38271
 H282 H 0.90871 1.01005 -0.31451
 H283 H 0.79166 0.97827 -0.26183
 H284 H 0.76060 0.97778 -0.33018
 H285 H 0.82033 1.02538 -0.21236
 H286 H 0.85211 1.02616 -0.14428
 H287 H 0.95933 0.96556 -0.19215
 H288 H 0.92769 0.96396 -0.26013
 C289 C 1.41860 1.20944 0.00080
 C290 C 1.38635 1.19156 -0.00054
 C291 C 1.34690 1.17206 -0.00242
 C292 C 1.34050 1.13502 0.01731
 C293 C 1.30166 1.11697 0.01630
 C294 C 1.26871 1.13585 -0.00439
 C295 C 1.27559 1.17295 -0.02430
 C296 C 1.31441 1.19088 -0.02330
 C297 C 1.22729 1.11709 -0.00510
 C298 C 1.19169 1.14123 -0.00077
 C299 C 1.15269 1.12358 -0.00162
 C300 C 1.14879 1.08164 -0.00687
 C301 C 1.18397 1.05736 -0.01118
 C302 C 1.22297 1.07492 -0.01027
 C303 C 1.10884 1.06326 -0.00764
 C304 C 1.07595 1.04673 -0.00824
 H305 H 1.36538 1.12030 0.03375
 H306 H 1.29721 1.08864 0.03231
 H307 H 1.25104 1.18794 -0.04096
 H308 H 1.31903 1.21956 -0.03868
 H309 H 1.19402 1.17369 0.00381
 H310 H 1.12563 1.14260 0.00192
 H311 H 1.18123 1.02486 -0.01537
 H312 H 1.24972 1.05560 -0.01419
 C313 C 0.56748 1.21499 0.00125
 C314 C 0.60130 1.19972 0.00008
 C315 C 0.64141 1.18082 -0.00138
 C316 C 0.64505 1.13851 0.00051
 C317 C 0.68381 1.11996 -0.00109
 C318 C 0.71963 1.14347 -0.00463
 C319 C 0.71565 1.18602 -0.00642
 C320 C 0.67681 1.20452 -0.00484
 C321 C 0.76085 1.12364 -0.00640
 C322 C 0.79471 1.14048 0.01439
 C323 C 0.83327 1.12141 0.01319
 C324 C 0.83857 1.08534 -0.00886
 C325 C 0.80519 1.06848 -0.02984
 C326 C 0.76663 1.08745 -0.02864
 C327 C 0.87794 1.06509 -0.00936
 C328 C 0.91050 1.04740 -0.00961
 H329 H 0.61790 1.11983 0.00331
 H330 H 0.68579 1.08721 0.00097
 H331 H 0.74252 1.20497 -0.00963
 H332 H 0.67440 1.23728 -0.00645
 H333 H 0.79121 1.16799 0.03220
 H334 H 0.85885 1.13461 0.02972
 H335 H 0.80895 1.04059 -0.04704
 H336 H 0.74140 1.07399 -0.04544
 C337 C 1.42047 0.78879 0.00319
 C338 C 1.38786 0.80615 0.00241
 C339 C 1.34800 0.82494 0.00135
 C340 C 1.31297 0.80070 0.00393
 C341 C 1.27394 0.81841 0.00244
 C342 C 1.26951 0.86067 -0.00166
 C343 C 1.30493 0.88485 -0.00409
 C344 C 1.34401 0.86703 -0.00263
 C345 C 1.22804 0.87933 -0.00333
 C346 C 1.21968 0.91546 0.01807
 C347 C 1.18042 0.93274 0.01684
 C348 C 1.14919 0.91419 -0.00583
 C349 C 1.15717 0.87834 -0.02731
 C350 C 1.19640 0.86094 -0.02607
 C351 C 1.10918 0.93245 -0.00736
 C352 C 1.07619 0.94893 -0.00833
 H353 H 1.31582 0.76807 0.00710
 H354 H 1.24723 0.79912 0.00496
 H355 H 1.30239 0.91743 -0.00770
 H356 H 1.37101 0.88599 -0.00479
 H357 H 1.24331 0.92999 0.03621
 H358 H 1.17439 0.96053 0.03360
 H359 H 1.13315 0.86394 -0.04510
 H360 H 1.20213 0.83340 -0.04326
 C361 C 0.57086 0.78309 0.00195
 C362 C 0.60440 0.79822 0.00005
 C363 C 0.64426 0.81661 -0.00227
 C364 C 0.67716 0.80079 0.02042
 C365 C 0.71578 0.81906 0.01857
 C366 C 0.72191 0.85344 -0.00600
 C367 C 0.68868 0.86894 -0.02887
 C368 C 0.65012 0.85061 -0.02699
 C369 C 0.76264 0.87340 -0.00737
 C370 C 0.76543 0.91599 -0.00724
 C371 C 0.80374 0.93485 -0.00817
 C372 C 0.83972 0.91142 -0.00926
 C373 C 0.83737 0.86905 -0.00948
 C374 C 0.79904 0.85010 -0.00853
 C375 C 0.87894 0.93110 -0.00975
 C376 C 0.91133 0.94849 -0.00991
 H377 H 0.67288 0.77453 0.03974
 H378 H 0.74064 0.80675 0.03690
 H379 H 0.69260 0.89503 -0.04847
 H380 H 0.62485 0.86300 -0.04476
 H381 H 0.73801 0.93473 -0.00577
 H382 H 0.80533 0.96769 -0.00779
 H383 H 0.86511 0.85070 -0.01037
 H384 H 0.79784 0.81727 -0.00913
 C385 C 0.92815 0.50943 0.29470
 C386 C 0.89662 0.51550 0.31309
 C387 C 0.85739 0.51978 0.33302
 C388 C 0.82200 0.52660 0.30950
 C389 C 0.78316 0.52584 0.32760
 C390 C 0.77907 0.51812 0.36959
 C391 C 0.81492 0.51238 0.39322
 C392 C 0.85378 0.51310 0.37501
 C393 C 0.73755 0.51443 0.38817
 C394 C 0.72978 0.48439 0.41760
 C395 C 0.69047 0.48005 0.43414
 C396 C 0.65833 0.50553 0.42147
 C397 C 0.66572 0.53564 0.39242
 C398 C 0.70502 0.54007 0.37585
 C399 C 0.61822 0.50172 0.43943
 C400 C 0.58514 0.49927 0.45565
 H401 H 0.82434 0.53125 0.27688
 H402 H 0.75628 0.52980 0.30839
 H403 H 0.81289 0.50694 0.42570
 H404 H 0.88090 0.50747 0.39349
 H405 H 0.75389 0.46376 0.42735
 H406 H 0.68515 0.45679 0.45680
 H407 H 0.64116 0.55583 0.38272
 H408 H 0.71004 0.56382 0.35369
 C409 C 0.07412 0.50691 0.29480
 C410 C 0.10543 0.51192 0.31402
 C411 C 0.14416 0.51516 0.33534
 C412 C 0.15108 0.49277 0.37099
 C413 C 0.19013 0.49196 0.38908
 C414 C 0.22296 0.51341 0.37162
 C415 C 0.21543 0.53663 0.33634
 C416 C 0.17634 0.53741 0.31832
 C417 C 0.26509 0.51045 0.38936
 C418 C 0.29970 0.50721 0.36381
 C419 C 0.33926 0.50361 0.38043
 C420 C 0.34482 0.50318 0.42277
 C421 C 0.31066 0.50648 0.44845
 C422 C 0.27108 0.51005 0.43191
 C423 C 0.38546 0.50009 0.44013
 C424 C 0.41892 0.49823 0.45602
 H425 H 0.12659 0.47497 0.38415
 H426 H 0.19496 0.47339 0.41590
 H427 H 0.23985 0.55394 0.32248
 H428 H 0.17148 0.55460 0.29057
 H429 H 0.29614 0.50678 0.33096
 H430 H 0.36547 0.50109 0.36027
 H431 H 0.31463 0.50643 0.48130
 H432 H 0.24521 0.51294 0.45242
 C433 C 0.93418 0.50929 0.69954
 C434 C 0.90290 0.51637 0.68105
 C435 C 0.86397 0.52163 0.66080
 C436 C 0.83248 0.54355 0.67992
 C437 C 0.79274 0.54343 0.66352
 C438 C 0.78400 0.52119 0.62787
 C439 C 0.81621 0.50044 0.60809
 C440 C 0.85591 0.50060 0.62454
 C441 C 0.74118 0.51786 0.61248
 C442 C 0.73289 0.51857 0.57034
 C443 C 0.69276 0.51368 0.55590
 C444 C 0.66045 0.50797 0.58331
 C445 C 0.66823 0.50758 0.62528
 C446 C 0.70837 0.51248 0.63982
 C447 C 0.61940 0.50311 0.56795
 C448 C 0.58571 0.49996 0.55309
 H449 H 0.83832 0.55961 0.70821
 H450 H 0.76870 0.56015 0.67910
 H451 H 0.81037 0.48264 0.58089
 H452 H 0.87992 0.48302 0.60985
 H453 H 0.75738 0.52310 0.54858
 H454 H 0.68692 0.51436 0.52333
 H455 H 0.64337 0.50327 0.64671
 H456 H 0.71387 0.51118 0.67239
 C457 C 0.07364 0.50833 0.70474
 C458 C 0.10565 0.51494 0.68774
 C459 C 0.14520 0.51992 0.66907
 C460 C 0.17956 0.52791 0.69356
 C461 C 0.21892 0.52740 0.67668
 C462 C 0.22442 0.51873 0.63501
 C463 C 0.18956 0.51204 0.61035
 C464 C 0.15019 0.51253 0.62734
 C465 C 0.26642 0.51471 0.61789
 C466 C 0.27564 0.48335 0.59010
 C467 C 0.31542 0.47874 0.57482
 C468 C 0.34649 0.50527 0.58716
 C469 C 0.33769 0.53665 0.61464
 C470 C 0.29791 0.54133 0.63000
 C471 C 0.38685 0.50143 0.57001
 C472 C 0.42000 0.49896 0.55409
 H473 H 0.17606 0.53315 0.72602
 H474 H 0.24513 0.53217 0.69656
 H475 H 0.19278 0.50586 0.57806
 H476 H 0.12381 0.50602 0.60817
 H477 H 0.25227 0.46199 0.58067
 H478 H 0.32191 0.45454 0.55330
 H479 H 0.36149 0.55765 0.62397
 H480 H 0.29166 0.56602 0.65097
 C481 C 0.50943 0.69269 0.07775
 C482 C 0.51626 0.67468 0.10898
 C483 C 0.52149 0.65496 0.14770
 C484 C 0.54132 0.67531 0.17964
 C485 C 0.54127 0.65896 0.21893
 C486 C 0.52121 0.62210 0.22675
 C487 C 0.50257 0.60120 0.19414
 C488 C 0.50262 0.61763 0.15488
 C489 C 0.51804 0.60644 0.26898
 C490 C 0.52223 0.56470 0.27691
 C491 C 0.51790 0.54994 0.31654
 C492 C 0.50921 0.57663 0.34867
 C493 C 0.50518 0.61822 0.34121
 C494 C 0.50957 0.63308 0.30158
 C495 C 0.50505 0.56099 0.38922
 C496 C 0.50259 0.54601 0.42251
 H497 H 0.55571 0.70441 0.17446
 H498 H 0.55636 0.67544 0.24332
 H499 H 0.48648 0.57300 0.19930
 H500 H 0.48669 0.60193 0.13047
 H501 H 0.52915 0.54353 0.25253
 H502 H 0.52137 0.51769 0.32215
 H503 H 0.49849 0.63908 0.36594
 H504 H 0.50555 0.66529 0.29631
 C505 C 0.50976 0.68993 0.93342
 C506 C 0.51700 0.67162 0.90244
 C507 C 0.52266 0.65182 0.86377
 C508 C 0.54146 0.67273 0.83185
 C509 C 0.54128 0.65648 0.79245
 C510 C 0.52207 0.61914 0.78449
 C511 C 0.50465 0.59760 0.81710
 C512 C 0.50485 0.61393 0.85648
 C513 C 0.51820 0.60392 0.74204
 C514 C 0.48104 0.58678 0.72842
 C515 C 0.47683 0.57348 0.68815
 C516 C 0.50961 0.57725 0.66099
 C517 C 0.54674 0.59412 0.67421
 C518 C 0.55102 0.60748 0.71448
 C519 C 0.50593 0.56156 0.62032
 C520 C 0.50358 0.54654 0.58696
 H521 H 0.55481 0.70236 0.83707
 H522 H 0.55453 0.67398 0.76793
 H523 H 0.49018 0.56850 0.81198
 H524 H 0.48990 0.59766 0.88092
 H525 H 0.45502 0.58420 0.74872
 H526 H 0.44810 0.56012 0.67824
 H527 H 0.57248 0.59659 0.65349
 H528 H 0.58011 0.62015 0.72421
 C529 C 0.50517 0.30110 0.07472
 C530 C 0.51200 0.31732 0.10711
 C531 C 0.51709 0.33499 0.14712
 C532 C 0.51368 0.37700 0.15276
 C533 C 0.51385 0.39348 0.19220
 C534 C 0.51721 0.36810 0.22661
 C535 C 0.52164 0.32601 0.22050
 C536 C 0.52150 0.30963 0.18109
 C537 C 0.51454 0.38517 0.26866
 C538 C 0.53906 0.36942 0.30049
 C539 C 0.53568 0.38486 0.34018
 C540 C 0.50771 0.41617 0.34866
 C541 C 0.48328 0.43213 0.31725
 C542 C 0.48661 0.41676 0.27757
 C543 C 0.50509 0.43312 0.38913
 C544 C 0.50335 0.44881 0.42236
 H545 H 0.50995 0.39694 0.12676
 H546 H 0.51099 0.42605 0.19577
 H547 H 0.52371 0.30554 0.24622
 H548 H 0.52362 0.27702 0.17718
 H549 H 0.56121 0.34548 0.29463
 H550 H 0.55505 0.37255 0.36417
 H551 H 0.46167 0.45652 0.32341
 H552 H 0.46683 0.42919 0.25402
 C553 C 0.50581 0.30538 0.93523
 C554 C 0.51295 0.32312 0.90389
 C555 C 0.51825 0.34266 0.86495
 C556 C 0.54110 0.32353 0.83425
 C557 C 0.54168 0.33963 0.79477
 C558 C 0.51920 0.37507 0.78536
 C559 C 0.49727 0.39470 0.81674
 C560 C 0.49674 0.37854 0.85617
 C561 C 0.51722 0.39060 0.74275
 C562 C 0.51745 0.43259 0.73493
 C563 C 0.51415 0.44712 0.69498
 C564 C 0.51054 0.41997 0.66224
 C565 C 0.51058 0.37816 0.66959
 C566 C 0.51388 0.36355 0.70955
 C567 C 0.50705 0.43538 0.62128
 C568 C 0.50465 0.45007 0.58770
 H569 H 0.55758 0.29554 0.84053
 H570 H 0.55933 0.32409 0.77150
 H571 H 0.47922 0.42170 0.81047
 H572 H 0.47844 0.39332 0.87948
 H573 H 0.52046 0.45422 0.75966
 H574 H 0.51438 0.47957 0.68962
 H575 H 0.50780 0.35688 0.64449
 H576 H 0.51297 0.33110 0.71451
 C577 C 0.68853 0.92644 0.50324
 C578 C 0.67136 0.89521 0.51124
 C579 C 0.65263 0.85645 0.51786
 C580 C 0.61487 0.84753 0.49942
 C581 C 0.59947 0.80807 0.50069
 C582 C 0.62182 0.77699 0.52028
 C583 C 0.65907 0.78657 0.53991
 C584 C 0.67440 0.82606 0.53862
 C585 C 0.60731 0.73445 0.51842
 C586 C 0.63526 0.70248 0.51105
 C587 C 0.62140 0.66255 0.50759
 C588 C 0.57952 0.65417 0.51147
 C589 C 0.55155 0.68566 0.51917
 C590 C 0.56530 0.72558 0.52259
 C591 C 0.56479 0.61339 0.50783
 C592 C 0.55031 0.57999 0.50557
 H593 H 0.59808 0.87072 0.48277
 H594 H 0.57095 0.80154 0.48489
 H595 H 0.67666 0.76337 0.55568
 H596 H 0.70384 0.83259 0.55269
 H597 H 0.66769 0.70846 0.50707
 H598 H 0.64324 0.63831 0.50163
 H599 H 0.51907 0.67935 0.52248
 H600 H 0.54314 0.74947 0.52868
 C601 C 0.68990 0.06792 0.50397
 C602 C 0.67296 0.09951 0.51190
 C603 C 0.65462 0.13871 0.51848
 C604 C 0.61492 0.14687 0.50396
 C605 C 0.59945 0.18651 0.50476
 C606 C 0.62365 0.21850 0.51989
 C607 C 0.66292 0.20972 0.53582
 C608 C 0.67831 0.17006 0.53500
 C609 C 0.60900 0.26109 0.51701
 C610 C 0.61627 0.28876 0.54895
 C611 C 0.60323 0.32911 0.54557
 C612 C 0.58304 0.34226 0.51019
 C613 C 0.57565 0.31500 0.47828
 C614 C 0.58858 0.27468 0.48161
 C615 C 0.56748 0.38297 0.50756
 C616 C 0.55232 0.41626 0.50580
 H617 H 0.59646 0.12285 0.49082
 H618 H 0.56886 0.19229 0.49286
 H619 H 0.68244 0.23374 0.54724
 H620 H 0.70930 0.16413 0.54582
 H621 H 0.63153 0.27907 0.57672
 H622 H 0.60852 0.34992 0.57067
 H623 H 0.55967 0.32487 0.45094
 H624 H 0.58311 0.25426 0.45625
 C625 C 0.30289 0.92586 0.50393
 C626 C 0.31994 0.89395 0.51080
 C627 C 0.33832 0.85439 0.51625
 C628 C 0.38046 0.84843 0.50989
 C629 C 0.39720 0.80918 0.51054
 C630 C 0.37193 0.77529 0.51736
 C631 C 0.32980 0.78177 0.52474
 C632 C 0.31317 0.82100 0.52412
 C633 C 0.38899 0.73331 0.51516
 C634 C 0.37540 0.70298 0.54206
 C635 C 0.39073 0.66330 0.53914
 C636 C 0.41973 0.65334 0.50928
 C637 C 0.43355 0.68327 0.48249
 C638 C 0.41830 0.72294 0.48535
 C639 C 0.43669 0.61295 0.50706
 C640 C 0.45250 0.57981 0.50558
 H641 H 0.40021 0.87398 0.50349
 H642 H 0.42984 0.80531 0.50534
 H643 H 0.30938 0.75641 0.52953
 H644 H 0.28042 0.82515 0.52858
 H645 H 0.35328 0.71004 0.56566
 H646 H 0.38015 0.64046 0.56033
 H647 H 0.45620 0.67595 0.45942
 H648 H 0.42898 0.74532 0.46378
 C649 C 0.30502 0.07109 0.50388
 C650 C 0.32344 0.10214 0.51050
 C651 C 0.34365 0.14067 0.51563
 C652 C 0.37912 0.14930 0.49329
 C653 C 0.39586 0.18832 0.49414
 C654 C 0.37720 0.21940 0.51723
 C655 C 0.34219 0.21012 0.54046
 C656 C 0.32552 0.17106 0.53957
 C657 C 0.39327 0.26160 0.51580
 C658 C 0.36606 0.29499 0.51404
 C659 C 0.38109 0.33461 0.51145
 C660 C 0.42349 0.34142 0.51056
 C661 C 0.45082 0.30848 0.51255
 C662 C 0.43587 0.26886 0.51512
 C663 C 0.43929 0.38206 0.50790
 C664 C 0.45423 0.41540 0.50611
 H665 H 0.39311 0.12621 0.47419
 H666 H 0.42250 0.19453 0.47552
 H667 H 0.32744 0.23317 0.55900
 H668 H 0.29787 0.16487 0.55674
 H669 H 0.33311 0.29044 0.51387
 H670 H 0.35967 0.35987 0.50992
 H671 H 0.48374 0.31343 0.51211
 H672 H 0.45764 0.24393 0.51689
   
