data_POSCAR
  _audit_creation_date              2014-09-24
  _audit_creation_method            'ToBaCCo'
  _symmetry_space_group_name_H-M    'P1'
  _symmetry_Int_Tables_number       1
  _symmetry_cell_setting            triclinic
  loop_
  _symmetry_equiv_pos_as_xyz
 x,y,z
_cell_length_a 22.0088
_cell_length_b 22.3998
_cell_length_c 22.0009
_cell_angle_alpha 89.912500
_cell_angle_beta 89.673300
_cell_angle_gamma 91.328300
loop_
  _atom_site_label
  _atom_site_type_symbol
  _atom_site_fract_x
  _atom_site_fract_y
  _atom_site_fract_z
N1 N 0.21090 1.24534 0.22761
 N2 N 0.78787 0.75531 0.21774
 N3 N 0.77075 1.19980 -0.22074
 N4 N 0.24266 0.79712 -0.23015
 C5 C 0.54771 1.11475 0.00488
 H6 H 0.52238 1.13098 0.04344
 C7 C 0.58304 1.15470 -0.02978
 H8 H 0.58410 1.20127 -0.01701
 C9 C 0.57774 1.03395 -0.05691
 H10 H 0.57549 0.98667 -0.06689
 C11 C 0.61387 1.07238 -0.09276
 H12 H 0.63939 1.05426 -0.13042
 N13 N 0.54617 1.05557 -0.00874
 C14 C 0.39696 1.07204 0.06834
 H15 H 0.38583 1.06481 0.02121
 C16 C 0.35845 1.10574 0.10472
 H17 H 0.31766 1.12369 0.08519
 C18 C 0.46378 1.05857 0.15096
 H19 H 0.50586 1.04183 0.16845
 C20 C 0.42625 1.09138 0.18908
 H21 H 0.43981 1.09876 0.23570
 Zn22 Zn 0.50018 1.00285 0.04166
 N23 N 0.44808 1.04840 0.09205
 C24 C 0.52849 0.92692 0.13924
 N25 N 0.55297 0.95785 0.09136
 C26 C 0.61335 0.95545 0.07813
 C27 C 0.65136 0.92021 0.11315
 C28 C 0.56514 0.89249 0.17637
 C29 C 0.42185 0.97091 -0.05563
 C30 C 0.38788 0.93196 -0.09252
 C31 C 0.42180 0.84952 -0.03170
 C32 C 0.45487 0.88992 0.00398
 N33 N 0.45388 0.94950 -0.00789
 H34 H 0.48023 0.92884 0.14838
 H35 H 0.63209 0.98012 0.03995
 H36 H 0.69919 0.91812 0.10168
 H37 H 0.54475 0.86796 0.21402
 H38 H 0.42325 1.01819 -0.06560
 H39 H 0.36255 0.94984 -0.13020
 H40 H 0.42304 0.80262 -0.02034
 H41 H 0.48128 0.87329 0.04122
 C42 C 0.37249 1.11500 0.16613
 C43 C 0.61724 1.13360 -0.07909
 C44 C 0.38753 0.87034 -0.08070
 C45 C 0.62732 0.88862 0.16313
 C46 C -0.04008 0.55609 1.07032
 H47 H -0.00249 0.53674 1.09415
 C48 C -0.08020 0.59287 1.10151
 H49 H -0.07379 0.60098 1.14960
 C50 C -0.09316 0.57113 0.97830
 H51 H -0.09703 0.56336 0.92994
 C52 C -0.13492 0.60703 1.00786
 H53 H -0.17089 0.62678 0.98181
 N54 N -0.04759 0.54566 1.00988
 C55 C 0.12410 0.46728 1.00589
 H56 H 0.14145 0.49645 0.97041
 C57 C 0.16466 0.43459 1.04050
 H58 H 0.21275 0.44020 1.03140
 C59 C 0.04027 0.42250 1.05799
 H60 H -0.00843 0.41740 1.06370
 C61 C 0.07921 0.38890 1.09364
 H62 H 0.06002 0.35830 1.12714
 Zn63 Zn 0.00740 0.49978 0.96438
 N64 N 0.06317 0.46087 1.01526
 C65 C 0.08455 0.59698 0.93451
 N66 N 0.04839 0.55322 0.91028
 C67 C 0.03979 0.54938 0.84922
 C68 C 0.07002 0.58903 0.80982
 C69 C 0.11584 0.63751 0.89675
 C70 C -0.09474 0.42717 0.92833
 C71 C -0.12417 0.38351 0.89311
 C72 C -0.02860 0.36484 0.84280
 C73 C -0.00078 0.40763 0.87996
 N74 N -0.03435 0.43930 0.92012
 H75 H 0.08947 0.60001 0.98332
 H76 H 0.00887 0.51610 0.83076
 H77 H 0.06249 0.58448 0.76155
 H78 H 0.14496 0.67159 0.91695
 H79 H -0.12020 0.45128 0.96206
 H80 H -0.17241 0.37475 0.89937
 H81 H -0.00138 0.34106 0.81007
 H82 H 0.04750 0.41697 0.87563
 C83 C 0.14233 0.39438 1.08488
 C84 C -0.12870 0.61820 1.07027
 C85 C -0.09120 0.35299 0.84872
 C86 C 0.10903 0.63367 0.83346
 C87 C 1.11729 -0.00680 0.54369
 H88 H 1.12746 0.02927 0.51238
 C89 C 1.16266 -0.02669 0.58251
 H90 H 1.20751 -0.00613 0.57957
 C91 C 1.04608 -0.07604 0.58646
 H92 H 1.00024 -0.09449 0.58812
 C93 C 1.09000 -0.09740 0.62585
 H94 H 1.07757 -0.13278 0.65747
 N95 N 1.06049 -0.03209 0.54589
 C96 C 1.00200 0.11337 0.44762
 H97 H 0.96579 0.12261 0.47932
 C98 C 1.02449 0.15891 0.40964
 H99 H 1.00557 0.20285 0.41348
 C100 C 1.06975 0.04466 0.40391
 H101 H 1.08695 -0.00016 0.40193
 C102 C 1.09374 0.08886 0.36533
 H103 H 1.12963 0.07761 0.33376
 Zn104 Zn 0.99687 -0.00464 0.49637
 N105 N 1.02552 0.05779 0.44479
 C106 C 0.95343 0.06606 0.58967
 N107 N 0.93593 0.02302 0.54959
 C108 C 0.87829 -0.00035 0.55008
 C109 C 0.83512 0.02099 0.59107
 C110 C 0.91189 0.08870 0.63119
 C111 C 0.98964 -0.12229 0.44724
 C112 C 0.96653 -0.16707 0.40908
 C113 C 0.89577 -0.09646 0.36887
 C114 C 0.92032 -0.05308 0.40764
 N115 N 0.96588 -0.06677 0.44631
 H116 H 0.99986 0.08304 0.58903
 H117 H 0.86567 -0.03569 0.51897
 H118 H 0.78946 0.00214 0.59020
 H119 H 0.92679 0.12354 0.66216
 H120 H 1.02690 -0.13195 0.47715
 H121 H 0.98613 -0.21083 0.41093
 H122 H 0.85926 -0.08461 0.33869
 H123 H 0.90295 -0.00829 0.40711
 C124 C 1.07143 0.14701 0.36811
 C125 C 1.14923 -0.07277 0.62422
 C126 C 0.91878 -0.15440 0.36926
 C127 C 0.85173 0.06645 0.63212
 C128 C 0.21256 0.29205 1.18249
 C129 C 0.26518 0.31650 1.15769
 C130 C 0.24642 0.35869 1.11775
 C131 C 0.18357 0.35690 1.12102
 O132 O 0.16313 0.31635 1.16045
 H133 H 0.31160 0.30534 1.16788
 H134 H 0.27560 0.38714 1.08994
 C135 C -0.20796 0.71524 1.16664
 C136 C -0.25532 0.70162 1.12771
 C137 C -0.23185 0.66366 1.08591
 C138 C -0.17208 0.65645 1.10259
 O139 O -0.15753 0.68761 1.15167
 H140 H -0.30153 0.71696 1.12964
 H141 H -0.25586 0.64291 1.04842
 C142 C -0.18358 0.24299 0.77819
 C143 C -0.14565 0.25616 0.72903
 C144 C -0.10559 0.29873 0.74920
 C145 C -0.12207 0.30933 0.80864
 O146 O -0.16946 0.27617 0.82619
 H147 H -0.14750 0.23867 0.68328
 H148 H -0.06954 0.32048 0.72317
 C149 C 0.20015 0.74744 0.76640
 C150 C 0.17536 0.72568 0.71323
 C151 C 0.13767 0.67962 0.73071
 C152 C 0.14230 0.67666 0.79338
 O153 O 0.18048 0.71785 0.81492
 H154 H 0.18401 0.74124 0.66734
 H155 H 0.11024 0.65198 0.70085
 C156 C 1.15904 0.23630 0.26710
 C157 C 1.11831 0.27958 0.28303
 C158 C 1.07885 0.25212 0.32283
 C159 C 1.09858 0.19416 0.32836
 O160 O 1.14724 0.18476 0.29451
 H161 H 1.11807 0.32580 0.26876
 H162 H 1.04081 0.27254 0.34531
 C163 C 1.23556 -0.15286 0.72951
 C164 C 1.28072 -0.11181 0.71393
 C165 C 1.25470 -0.07499 0.67242
 C166 C 1.19566 -0.09649 0.66577
 O167 O 1.18427 -0.14360 0.70053
 H168 H 1.32725 -0.10974 0.72952
 H169 H 1.27676 -0.03757 0.64953
 C170 C 0.83597 -0.23876 0.26151
 C171 C 0.87492 -0.28330 0.27793
 C172 C 0.91187 -0.25811 0.32096
 C173 C 0.89253 -0.20011 0.32768
 O174 O 0.84630 -0.18866 0.29172
 H175 H 0.87579 -0.32880 0.26162
 H176 H 0.94824 -0.27993 0.34443
 C177 C 0.77295 0.15218 0.73982
 C178 C 0.72442 0.11482 0.72403
 C179 C 0.74712 0.07627 0.68199
 C180 C 0.80770 0.09258 0.67518
 O181 O 0.82311 0.13804 0.71038
 H182 H 0.67752 0.11678 0.73867
 H183 H 0.72177 0.04159 0.65838
 C184 C 0.26048 1.20482 0.23146
 C185 C 0.28318 1.18297 0.28513
 C186 C 0.32918 1.14675 0.26816
 C187 C 0.33091 1.14910 0.20533
 O188 O 0.28912 1.18447 0.18305
 H189 H 0.26809 1.19246 0.33093
 H190 H 0.35716 1.12093 0.29817
 C191 C 0.72565 1.20219 -0.17732
 C192 C 0.70695 1.25360 -0.14844
 C193 C 0.66304 1.23528 -0.10830
 C194 C 0.65786 1.17405 -0.11516
 O195 O 0.69552 1.15414 -0.15723
 H196 H 0.72203 1.29926 -0.15646
 H197 H 0.63803 1.26377 -0.07799
 C198 C 0.28875 0.79760 -0.18395
 C199 C 0.31284 0.74689 -0.15907
 C200 C 0.35355 0.76701 -0.11708
 C201 C 0.35132 0.82869 -0.11927
 O202 O 0.31200 0.84723 -0.16016
 H203 H 0.30231 0.70085 -0.17047
 H204 H 0.38154 0.73947 -0.08879
 C205 C 0.73687 0.79388 0.22336
 C206 C 0.70527 0.80271 0.27672
 C207 C 0.65929 0.83955 0.26142
 C208 C 0.66693 0.85082 0.20004
 O209 O 0.71414 0.82315 0.17687
 H210 H 0.71414 0.78368 0.32094
 H211 H 0.62463 0.85647 0.29146
   
