data_POSCAR
  _audit_creation_date              2014-09-24
  _audit_creation_method            'ToBaCCo'
  _symmetry_space_group_name_H-M    'P1'
  _symmetry_Int_Tables_number       1
  _symmetry_cell_setting            triclinic
  loop_
  _symmetry_equiv_pos_as_xyz
 x,y,z
_cell_length_a 27.5917
_cell_length_b 43.4774
_cell_length_c 22.7914
_cell_angle_alpha 90.027800
_cell_angle_beta 90.110000
_cell_angle_gamma 89.692200
loop_
  _atom_site_label
  _atom_site_type_symbol
  _atom_site_fract_x
  _atom_site_fract_y
  _atom_site_fract_z
C1 C 0.74403 0.33406 0.51245
 C2 C 0.75014 0.31913 0.56663
 C3 C 0.75632 0.28702 0.56694
 C4 C 0.75214 0.26948 0.51489
 C5 C 0.74200 0.28516 0.46190
 C6 C 0.73885 0.31740 0.46014
 C7 C 0.75730 0.23500 0.51614
 C8 C 0.77121 0.21846 0.46534
 C9 C 0.77590 0.18615 0.46604
 C10 C 0.76817 0.17056 0.51924
 C11 C 0.75692 0.18649 0.57085
 C12 C 0.74979 0.21837 0.56858
 H13 H 0.73989 0.35883 0.51130
 H14 H 0.76465 0.27596 0.60818
 H15 H 0.73564 0.27246 0.42188
 H16 H 0.77961 0.23067 0.42539
 H17 H 0.77351 0.14589 0.52152
 H18 H 0.73847 0.22984 0.60834
 C19 C 0.23191 0.82958 0.48283
 C20 C 0.22467 0.81390 0.53608
 C21 C 0.22949 0.78158 0.53661
 C22 C 0.24276 0.76517 0.48544
 C23 C 0.24981 0.78187 0.43301
 C24 C 0.24271 0.81374 0.43099
 C25 C 0.24790 0.73075 0.48607
 C26 C 0.24161 0.71357 0.43401
 C27 C 0.24890 0.68170 0.43311
 C28 C 0.25876 0.66633 0.48577
 C29 C 0.26524 0.68250 0.53870
 C30 C 0.26049 0.71482 0.53807
 H31 H 0.22653 0.85425 0.48071
 H32 H 0.22176 0.76923 0.57663
 H33 H 0.26074 0.77039 0.39308
 H34 H 0.23129 0.72470 0.39347
 H35 H 0.26422 0.64166 0.48459
 H36 H 0.26769 0.72754 0.57788
 C37 C 0.26538 0.32977 -0.51411
 C38 C 0.25613 0.31454 -0.56702
 C39 C 0.24829 0.28274 -0.56636
 C40 C 0.25321 0.26550 -0.51407
 C41 C 0.26499 0.28134 -0.46176
 C42 C 0.27013 0.31351 -0.46124
 C43 C 0.24728 0.23114 -0.51465
 C44 C 0.23337 0.21500 -0.46353
 C45 C 0.22789 0.18276 -0.46397
 C46 C 0.23503 0.16690 -0.51711
 C47 C 0.24641 0.18250 -0.56892
 C48 C 0.25422 0.21425 -0.56696
 H49 H 0.27158 0.35434 -0.51468
 H50 H 0.23847 0.27178 -0.60719
 H51 H 0.27111 0.26881 -0.42145
 H52 H 0.22565 0.22750 -0.42360
 H53 H 0.22913 0.14232 -0.51919
 H54 H 0.26561 0.22546 -0.60686
 C55 C -0.23592 0.83298 -0.48229
 C56 C -0.22891 0.81718 -0.53552
 C57 C -0.23430 0.78494 -0.53606
 C58 C -0.24797 0.76872 -0.48495
 C59 C -0.25476 0.78555 -0.43252
 C60 C -0.24705 0.81731 -0.43047
 C61 C -0.25376 0.73436 -0.48568
 C62 C -0.24857 0.71706 -0.43350
 C63 C -0.25625 0.68525 -0.43294
 C64 C -0.26562 0.67006 -0.48587
 C65 C -0.27063 0.68637 -0.53865
 C66 C -0.26565 0.71855 -0.53801
 H67 H -0.23008 0.85757 -0.48015
 H68 H -0.22667 0.77249 -0.57608
 H69 H -0.26596 0.77427 -0.39260
 H70 H -0.23865 0.72800 -0.39269
 H71 H -0.27169 0.64548 -0.48537
 H72 H -0.27198 0.73112 -0.57822
 N73 N 0.06132 1.03237 0.09507
 N74 N 0.09666 1.03816 0.13231
 N75 N -0.04358 1.05536 0.07142
 N76 N -0.07201 1.07770 0.09098
 N77 N -0.03992 1.03327 0.11053
 N78 N -0.06613 1.03980 0.15722
 N79 N 0.05722 1.05460 0.05634
 N80 N 0.08933 1.07641 0.06706
 C81 C 0.11430 1.06541 0.11392
 C82 C -0.08643 1.06731 0.14416
 N83 N -0.06135 1.03344 -0.09379
 N84 N -0.09654 1.03984 -0.13102
 N85 N 0.04400 1.05482 -0.06996
 N86 N 0.07293 1.07674 -0.08931
 N87 N 0.03991 1.03284 -0.10923
 N88 N 0.06630 1.03904 -0.15584
 N89 N -0.05679 1.05555 -0.05489
 N90 N -0.08841 1.07787 -0.06547
 Mn91 Mn 0.00022 1.05539 0.00073
 C92 C -0.11359 1.06733 -0.11243
 C93 C 0.08717 1.06622 -0.14254
 N94 N -0.04061 0.96708 0.11027
 N95 N -0.06713 0.96093 0.15680
 N96 N 0.05609 0.94437 0.05601
 N97 N 0.08768 0.92204 0.06670
 N98 N 0.06065 0.96650 0.09485
 N99 N 0.09581 0.96012 0.13212
 N100 N -0.04471 0.94512 0.07099
 N101 N -0.07378 0.92324 0.09023
 Mn102 Mn 0.01035 0.99981 0.10299
 C103 C -0.08809 0.93379 0.14342
 C104 C 0.11285 0.93261 0.11365
 N105 N 0.03925 0.96662 -0.10945
 N106 N 0.06563 0.96011 -0.15602
 N107 N -0.05789 0.94530 -0.05531
 N108 N -0.08989 0.92344 -0.06615
 N109 N -0.06200 0.96754 -0.09403
 N110 N -0.09725 0.96170 -0.13138
 N111 N 0.04291 0.94456 -0.07028
 N112 N 0.07152 0.92227 -0.08964
 Mn113 Mn -0.01104 1.00011 -0.10194
 Mn114 Mn -0.00090 0.94453 0.00035
 Cl115 Cl -0.00035 0.99996 0.00053
 C116 C 0.08603 0.93265 -0.14278
 C117 C -0.11482 0.93442 -0.11307
 N118 N 0.45495 0.44432 -0.06833
 N119 N 0.42624 0.42190 -0.08615
 N120 N 0.55810 0.46748 -0.09815
 N121 N 0.59247 0.46204 -0.13683
 N122 N 0.55627 0.44528 -0.05916
 N123 N 0.58907 0.42384 -0.07105
 N124 N 0.45632 0.46642 -0.10759
 N125 N 0.42816 0.45984 -0.15258
 C126 C 0.40915 0.43226 -0.13831
 C127 C 0.61192 0.43504 -0.11908
 N128 N 0.55293 0.55545 -0.05894
 N129 N 0.58447 0.57743 -0.07057
 N130 N 0.45435 0.53258 -0.10753
 N131 N 0.42622 0.53880 -0.15281
 N132 N 0.45162 0.55466 -0.06827
 N133 N 0.42194 0.57671 -0.08641
 N134 N 0.55612 0.53335 -0.09807
 N135 N 0.59026 0.53940 -0.13661
 Mn136 Mn 0.50620 0.49995 -0.10315
 C137 C 0.60808 0.56670 -0.11858
 C138 C 0.40572 0.56610 -0.13875
 N139 N 0.54847 0.44515 0.06766
 N140 N 0.57878 0.42332 0.08511
 N141 N 0.44398 0.46642 0.09770
 N142 N 0.40993 0.46032 0.13633
 N143 N 0.44718 0.44432 0.05856
 N144 N 0.41572 0.42229 0.07029
 N145 N 0.54580 0.46717 0.10705
 N146 N 0.57464 0.46113 0.15179
 Mn147 Mn 0.50172 0.44445 -0.00031
 C148 C 0.59543 0.43397 0.13719
 C149 C 0.39217 0.43300 0.11837
 N150 N 0.44380 0.55446 0.05862
 N151 N 0.41095 0.57588 0.07022
 N152 N 0.54374 0.53336 0.10720
 N153 N 0.57180 0.54000 0.15226
 N154 N 0.54508 0.55546 0.06794
 N155 N 0.57368 0.57793 0.08584
 N156 N 0.44195 0.53234 0.09778
 N157 N 0.40747 0.53784 0.13633
 Mn158 Mn 0.49835 0.55532 -0.00016
 Mn159 Mn 0.49388 0.49982 0.10278
 Cl160 Cl 0.50003 0.49989 -0.00020
 C161 C 0.38801 0.56479 0.11825
 C162 C 0.59074 0.56760 0.13804
 C163 C 0.28410 0.36411 0.27949
 N164 N 0.28576 0.33288 0.27907
 N165 N 0.27391 0.31693 0.32688
 C166 C 0.26018 0.33159 0.37693
 N167 N 0.25715 0.36277 0.37651
 N168 N 0.26880 0.37868 0.32878
 C169 C 0.30530 0.38213 0.23153
 N170 N 0.30938 0.41305 0.23748
 N171 N 0.33520 0.42932 0.19944
 C172 C 0.35782 0.41536 0.15379
 N173 N 0.35277 0.38452 0.14669
 N174 N 0.32702 0.36817 0.18503
 C175 C -0.18267 0.86578 0.31937
 N176 N -0.19357 0.88033 0.37026
 N177 N -0.20917 0.86460 0.41641
 C178 C -0.21450 0.83356 0.41402
 N179 N -0.20422 0.81902 0.36253
 N180 N -0.18850 0.83481 0.31613
 C181 C -0.16188 0.88349 0.27072
 N182 N -0.14908 0.86992 0.21925
 N183 N -0.12695 0.88610 0.17745
 C184 C -0.11680 0.91634 0.18585
 N185 N -0.13010 0.92988 0.23696
 N186 N -0.15232 0.91380 0.27848
 C187 C 0.68598 0.63726 0.31150
 N188 N 0.70186 0.62247 0.36025
 N189 N 0.71665 0.63820 0.40691
 C190 C 0.71611 0.66943 0.40706
 N191 N 0.70097 0.68432 0.35776
 N192 N 0.68609 0.66852 0.31085
 C193 C 0.66541 0.61928 0.26293
 N194 N 0.64843 0.63298 0.21333
 N195 N 0.62615 0.61641 0.17207
 C196 C 0.61997 0.58564 0.17920
 N197 N 0.63747 0.57201 0.22839
 N198 N 0.65989 0.58848 0.26933
 C199 C 0.22276 1.13390 0.27533
 N200 N 0.22008 1.16510 0.27587
 N201 N 0.23078 1.18080 0.32445
 C202 C 0.24429 1.16589 0.37436
 N203 N 0.24845 1.13478 0.37300
 N204 N 0.23799 1.11912 0.32449
 C205 C 0.20212 1.11603 0.22669
 N206 N 0.19891 1.08503 0.23166
 N207 N 0.17297 1.06882 0.19348
 C208 C 0.14934 1.08294 0.14868
 N209 N 0.15362 1.11388 0.14246
 N210 N 0.17950 1.13016 0.18092
 C211 C 0.72206 0.36855 -0.28274
 N212 N 0.72737 0.33750 -0.28028
 N213 N 0.73926 0.32156 -0.32826
 C214 C 0.74559 0.33598 -0.38073
 N215 N 0.74179 0.36714 -0.38220
 N216 N 0.73041 0.38306 -0.33433
 C217 C 0.70084 0.38607 -0.23390
 N218 N 0.69398 0.41680 -0.24004
 N219 N 0.66768 0.43251 -0.20137
 C220 C 0.64720 0.41814 -0.15492
 N221 N 0.65507 0.38750 -0.14758
 N222 N 0.68142 0.37171 -0.18651
 C223 C 0.17932 0.86323 -0.31881
 N224 N 0.18461 0.83219 -0.31555
 N225 N 0.20006 0.81615 -0.36195
 C226 C 0.21058 0.83051 -0.41345
 N227 N 0.20579 0.86161 -0.41585
 N228 N 0.19046 0.87759 -0.36971
 C229 C 0.15884 0.88126 -0.27017
 N230 N 0.14980 0.91169 -0.27794
 N231 N 0.12789 0.92810 -0.23640
 C232 C 0.11438 0.91478 -0.18528
 N233 N 0.12400 0.88441 -0.17688
 N234 N 0.14583 0.86789 -0.21869
 C235 C 0.30941 0.63439 -0.31408
 N236 N 0.29782 0.61958 -0.36443
 N237 N 0.28279 0.63518 -0.41122
 C238 C 0.27871 0.66634 -0.41003
 N239 N 0.28954 0.68117 -0.35902
 N240 N 0.30476 0.66551 -0.31199
 C241 C 0.33010 0.61671 -0.26504
 N242 N 0.34477 0.63052 -0.21456
 N243 N 0.36732 0.61427 -0.17286
 C244 C 0.37602 0.58371 -0.18038
 N245 N 0.36075 0.56996 -0.23042
 N246 N 0.33813 0.58611 -0.27183
 C247 C -0.22068 1.13771 -0.27330
 N248 N -0.21696 1.16884 -0.27397
 N249 N -0.22731 1.18469 -0.32256
 C250 C -0.24151 1.16998 -0.37234
 N251 N -0.24674 1.13896 -0.37081
 N252 N -0.23662 1.12317 -0.32230
 C253 C -0.20037 1.11948 -0.22477
 N254 N -0.19798 1.08843 -0.22982
 N255 N -0.17235 1.07177 -0.19179
 C256 C -0.14825 1.08547 -0.14705
 N257 N -0.15172 1.11647 -0.14073
 N258 N -0.17727 1.13321 -0.17906
 C259 C 0.71632 0.63556 -0.27948
 N260 N 0.71468 0.66679 -0.27896
 N261 N 0.72638 0.68278 -0.32677
 C262 C 0.73992 0.66815 -0.37694
 N263 N 0.74295 0.63697 -0.37661
 N264 N 0.73146 0.62102 -0.32888
 C265 C 0.69516 0.61752 -0.23153
 N266 N 0.69100 0.58661 -0.23756
 N267 N 0.66513 0.57034 -0.19957
 C268 C 0.64252 0.58430 -0.15390
 N269 N 0.64768 0.61513 -0.14671
 N270 N 0.67348 0.63148 -0.18499
 C271 C 0.18133 1.13429 -0.31882
 N272 N 0.19225 1.11971 -0.36967
 N273 N 0.20793 1.13540 -0.41583
 C274 C 0.21332 1.16643 -0.41351
 N275 N 0.20298 1.18101 -0.36207
 N276 N 0.18718 1.16526 -0.31565
 C277 C 0.16056 1.11659 -0.27013
 N278 N 0.14781 1.13017 -0.21864
 N279 N 0.12579 1.11397 -0.17676
 C280 C 0.11573 1.08371 -0.18509
 N281 N 0.12897 1.07018 -0.23622
 N282 N 0.15107 1.08627 -0.27782
 C283 C 0.31345 0.36268 -0.31147
 N284 N 0.31326 0.33142 -0.31073
 N285 N 0.29838 0.31561 -0.35762
 C286 C 0.28332 0.33048 -0.40697
 N287 N 0.28285 0.36171 -0.40690
 N288 N 0.29764 0.37746 -0.36026
 C289 C 0.33409 0.38066 -0.26295
 N290 N 0.33974 0.41145 -0.26942
 N291 N 0.36228 0.42790 -0.22856
 C292 C 0.37978 0.41426 -0.17938
 N293 N 0.37347 0.38351 -0.17217
 N294 N 0.35107 0.36696 -0.21336
 C295 C -0.22302 0.86583 -0.27469
 N296 N -0.23845 0.88062 -0.32373
 N297 N -0.24903 0.86499 -0.37224
 C298 C -0.24477 0.83387 -0.37371
 N299 N -0.23104 0.81895 -0.32390
 N300 N -0.22023 0.83463 -0.27533
 C301 C -0.20236 0.88370 -0.22605
 N302 N -0.17970 0.86958 -0.18029
 N303 N -0.15390 0.88589 -0.14178
 C304 C -0.14973 0.91683 -0.14794
 N305 N -0.17339 0.93094 -0.19274
 N306 N -0.19925 0.91471 -0.23097
 C307 C 0.27642 0.63235 0.27901
 N308 N 0.27726 0.66357 0.27871
 N309 N 0.26535 0.67945 0.32671
 C310 C 0.25235 0.66471 0.37684
 N311 N 0.25000 0.63353 0.37626
 N312 N 0.26173 0.61769 0.32835
 C313 C 0.29827 0.61449 0.23103
 N314 N 0.30404 0.58366 0.23720
 N315 N 0.33076 0.56770 0.19926
 C316 C 0.35261 0.58190 0.15353
 N317 N 0.34582 0.61262 0.14620
 N318 N 0.31919 0.62867 0.18442
 C319 C -0.17858 1.13675 0.32107
 N320 N -0.18386 1.16779 0.31779
 N321 N -0.19927 1.18383 0.36418
 C322 C -0.20978 1.16950 0.41571
 N323 N -0.20494 1.13840 0.41818
 N324 N -0.18964 1.12240 0.37203
 C325 C -0.15833 1.11872 0.27229
 N326 N -0.14937 1.08827 0.27989
 N327 N -0.12777 1.07186 0.23812
 C328 C -0.11449 1.08520 0.18691
 N329 N -0.12402 1.11560 0.17869
 N330 N -0.14556 1.13210 0.22073
 C331 C 0.69593 0.36582 0.30910
 N332 N 0.69574 0.33457 0.30929
 N333 N 0.71079 0.31898 0.35645
 C334 C 0.72647 0.33408 0.40517
 N335 N 0.72749 0.36530 0.40410
 N336 N 0.71249 0.38083 0.35719
 C337 C 0.67437 0.38355 0.26071
 N338 N 0.66758 0.41430 0.26705
 N339 N 0.64381 0.43042 0.22651
 C340 C 0.62621 0.41647 0.17780
 N341 N 0.63371 0.38578 0.17069
 N342 N 0.65729 0.36956 0.21156
 C343 C 0.21968 0.86250 0.27518
 N344 N 0.21627 0.83135 0.27583
 N345 N 0.22673 0.81555 0.32443
 C346 C 0.24074 0.83030 0.37424
 N347 N 0.24561 0.86134 0.37275
 N348 N 0.23538 0.87710 0.32423
 C349 C 0.19941 0.88064 0.22651
 N350 N 0.19701 0.91170 0.23137
 N351 N 0.17147 0.92829 0.19316
 C352 C 0.14745 0.91452 0.14842
 N353 N 0.15093 0.88350 0.14230
 N354 N 0.17640 0.86684 0.18081
   
