data_POSCAR
  _audit_creation_date              2014-09-24
  _audit_creation_method            'ToBaCCo'
  _symmetry_space_group_name_H-M    'P1'
  _symmetry_Int_Tables_number       1
  _symmetry_cell_setting            triclinic
  loop_
  _symmetry_equiv_pos_as_xyz
 x,y,z
_cell_length_a 17.1838
_cell_length_b 17.3763
_cell_length_c 17.1443
_cell_angle_alpha 90.049000
_cell_angle_beta 89.932300
_cell_angle_gamma 90.253000
loop_
  _atom_site_label
  _atom_site_type_symbol
  _atom_site_fract_x
  _atom_site_fract_y
  _atom_site_fract_z
O1 O -0.20767 0.08862 -0.00030
 O2 O 0.19052 0.11985 0.01193
 O3 O -0.02096 0.19733 0.10619
 O4 O -0.00787 0.20349 -0.09313
 O5 O 0.00208 0.11831 -0.19506
 O6 O -0.02040 0.10324 0.20089
 O7 O 0.08886 0.20567 0.01030
 O8 O -0.12042 0.18890 0.00864
 Zr9 Zr -0.01008 0.13468 0.00585
 O10 O 0.06899 0.07998 -0.06407
 O11 O -0.07961 0.06275 0.07096
 C12 C -0.19063 0.16079 0.00616
 C13 C 0.16202 0.18923 0.01125
 C14 C -0.02392 0.17530 0.17704
 C15 C -0.00558 0.18651 -0.16604
 H16 H 0.09047 0.10520 0.11347
 O17 O 0.06091 0.07152 0.07754
 H18 H -0.10723 0.10324 -0.10174
 O19 O -0.07275 0.07004 -0.07048
 O20 O 0.20550 -0.08910 0.00658
 O21 O -0.19389 -0.11349 -0.01696
 O22 O 0.09151 -0.00445 0.20710
 O23 O 0.11606 0.02325 -0.19342
 O24 O -0.10066 0.01085 -0.20390
 O25 O -0.11736 -0.01129 0.19401
 O26 O 0.00532 -0.20212 0.09432
 O27 O 0.01287 -0.18421 -0.12669
 O28 O -0.00619 -0.11372 0.19497
 O29 O 0.01041 -0.08176 -0.21253
 O30 O 0.19125 0.00527 0.11740
 O31 O -0.20525 -0.01574 0.09294
 O32 O -0.19512 -0.01126 -0.11123
 O33 O 0.20474 0.02185 -0.09243
 O34 O 0.11872 -0.19020 -0.00602
 O35 O -0.09587 -0.20309 -0.02444
 Zr36 Zr 0.13494 0.01023 0.00743
 Zr37 Zr -0.13534 -0.00839 -0.00644
 Zr38 Zr -0.00840 -0.00490 0.13747
 Zr39 Zr 0.00543 0.01122 -0.13801
 Zr40 Zr 0.00784 -0.13516 -0.01025
 O41 O -0.06277 -0.06851 -0.07963
 O42 O 0.06884 -0.06767 0.06938
 C43 C 0.18893 -0.16182 0.00107
 C44 C -0.16898 -0.18268 -0.02652
 C45 C 0.16417 -0.00065 0.18812
 C46 C 0.18669 0.02544 -0.16553
 C47 C -0.17282 0.00295 -0.18122
 C48 C -0.18742 -0.01446 0.16583
 C49 C -0.00296 -0.18387 0.16791
 C50 C 0.01209 -0.15385 -0.19721
 H51 H -0.10258 -0.11283 0.09076
 O52 O -0.06843 -0.07676 0.06205
 H53 H 0.11297 -0.08710 -0.10494
 O54 O 0.07623 -0.05859 -0.07135
 O55 O 0.29413 0.58909 0.00194
 O56 O 0.69991 0.61264 -0.01147
 O57 O 0.49885 0.70386 0.09775
 O58 O 0.48901 0.69037 -0.11772
 O59 O 0.49596 0.58859 -0.20415
 O60 O 0.49177 0.61227 0.19427
 O61 O 0.59905 0.69831 -0.02915
 O62 O 0.38234 0.69006 -0.00386
 Zr63 Zr 0.49403 0.63564 -0.00642
 O64 O 0.56688 0.56716 -0.07202
 O65 O 0.42628 0.56906 0.06742
 C66 C 0.31160 0.66186 -0.00043
 C67 C 0.67237 0.67874 -0.03217
 C68 C 0.49837 0.68210 0.17065
 C69 C 0.49161 0.66160 -0.18808
 H70 H 0.60341 0.61372 0.09681
 O71 O 0.56983 0.57824 0.06656
 H72 H 0.39314 0.58854 -0.10487
 O73 O 0.42782 0.55897 -0.07033
 O74 O 0.71084 0.40949 0.00631
 O75 O 0.31019 0.37829 0.00510
 O76 O 0.60279 0.51662 0.20168
 O77 O 0.60188 0.49533 -0.19951
 O78 O 0.39918 0.47557 -0.19652
 O79 O 0.39967 0.50670 0.20179
 O80 O 0.52049 0.31045 0.12185
 O81 O 0.51084 0.29232 -0.08714
 O82 O 0.51199 0.41128 0.20837
 O83 O 0.50229 0.37888 -0.18824
 O84 O 0.70063 0.50424 0.11102
 O85 O 0.30228 0.49154 0.11084
 O86 O 0.30116 0.48588 -0.10560
 O87 O 0.69919 0.50927 -0.10805
 O88 O 0.62237 0.30966 0.01482
 O89 O 0.41254 0.29295 0.01451
 Zr90 Zr 0.64007 0.50748 0.00129
 Zr91 Zr 0.36370 0.48913 0.00269
 Zr92 Zr 0.50178 0.50808 0.13575
 Zr93 Zr 0.50095 0.48881 -0.13284
 Zr94 Zr 0.51186 0.36375 0.01138
 O95 O 0.43508 0.41886 -0.06265
 O96 O 0.57754 0.43857 0.07619
 C97 C 0.69286 0.33738 0.01180
 C98 C 0.33926 0.30914 0.01011
 C99 C 0.67407 0.50489 0.18250
 C100 C 0.67337 0.50484 -0.17943
 C101 C 0.32742 0.48329 -0.17706
 C102 C 0.32778 0.49902 0.18210
 C103 C 0.51948 0.33918 0.19182
 C104 C 0.50517 0.30924 -0.16019
 H105 H 0.40608 0.39599 0.11239
 O106 O 0.43615 0.42907 0.07631
 H107 H 0.61150 0.39651 -0.09664
 O108 O 0.57733 0.42910 -0.06411
 O109 O -0.19497 0.60837 0.51913
 O110 O 0.20404 0.58997 0.47376
 O111 O 0.01330 0.69722 0.60356
 O112 O -0.00539 0.68819 0.38197
 O113 O -0.02109 0.58539 0.29728
 O114 O 0.02696 0.60429 0.69868
 O115 O 0.11597 0.69021 0.48029
 O116 O -0.09954 0.70003 0.49973
 Zr117 Zr 0.00559 0.63399 0.49404
 O118 O 0.06428 0.55807 0.42049
 O119 O -0.05842 0.57458 0.57632
 C120 C -0.17197 0.67828 0.50831
 C121 C 0.18658 0.66266 0.47486
 C122 C 0.02119 0.67414 0.67643
 C123 C -0.01927 0.65868 0.31305
 H124 H 0.11627 0.60004 0.58688
 O125 O 0.07934 0.56639 0.55879
 H126 H -0.11078 0.59365 0.40442
 O127 O -0.07366 0.56387 0.43618
 O128 O 0.19307 0.38059 0.48969
 O129 O -0.20648 0.40708 0.52788
 O130 O 0.12668 0.50170 0.69045
 O131 O 0.07890 0.48025 0.29034
 O132 O -0.12481 0.47896 0.31345
 O133 O -0.07809 0.51754 0.71379
 O134 O -0.00783 0.30611 0.62422
 O135 O -0.02139 0.28614 0.42375
 O136 O 0.01203 0.40618 0.70934
 O137 O -0.02686 0.36966 0.31946
 O138 O 0.20971 0.49702 0.58507
 O139 O -0.18368 0.51592 0.63126
 O140 O -0.20760 0.48978 0.41868
 O141 O 0.18424 0.48567 0.37319
 O142 O 0.09372 0.29356 0.51217
 O143 O -0.11838 0.30782 0.51957
 Zr144 Zr 0.13567 0.48923 0.48731
 Zr145 Zr -0.13511 0.50411 0.51801
 Zr146 Zr 0.01597 0.50334 0.63752
 Zr147 Zr -0.01536 0.48501 0.36738
 Zr148 Zr -0.00705 0.36156 0.51524
 O149 O -0.08078 0.42542 0.44707
 O150 O 0.07679 0.42584 0.57157
 C151 C 0.16599 0.31101 0.50023
 C152 C -0.18875 0.33524 0.52312
 C153 C 0.19500 0.50451 0.65891
 C154 C 0.15257 0.48329 0.30411
 C155 C -0.19299 0.47781 0.34517
 C156 C -0.15175 0.51948 0.70009
 C157 C -0.00655 0.33611 0.69314
 C158 C -0.02728 0.30040 0.35086
 H159 H -0.10065 0.40797 0.62224
 O160 O -0.06650 0.43562 0.58533
 H161 H 0.08683 0.38179 0.39737
 O162 O 0.05844 0.41796 0.43152
 O163 O 0.31265 0.12206 0.48142
 O164 O 0.70964 0.08833 0.51025
 O165 O 0.50580 0.20722 0.58845
 O166 O 0.52705 0.19145 0.37993
 O167 O 0.52792 0.09146 0.29193
 O168 O 0.48801 0.12130 0.68965
 O169 O 0.62444 0.18924 0.49475
 O170 O 0.41535 0.20794 0.48086
 Zr171 Zr 0.51300 0.13647 0.48924
 O172 O 0.58461 0.06181 0.43086
 O173 O 0.43115 0.08063 0.55744
 C174 C 0.34197 0.19151 0.48130
 C175 C 0.69373 0.16049 0.50356
 C176 C 0.49624 0.19064 0.66139
 C177 C 0.53041 0.16364 0.30961
 H178 H 0.60077 0.10511 0.60259
 O179 O 0.56912 0.07038 0.56992
 H180 H 0.41477 0.10490 0.38001
 O181 O 0.44291 0.07195 0.41746
 O182 O 0.69404 -0.11645 0.51842
 O183 O 0.29376 -0.08772 0.48238
 O184 O 0.58892 0.01712 0.70637
 O185 O 0.62588 -0.01125 0.31213
 O186 O 0.41596 -0.00686 0.28902
 O187 O 0.37686 0.02235 0.68695
 O188 O 0.48417 -0.18980 0.61761
 O189 O 0.50053 -0.20032 0.40190
 O190 O 0.48217 -0.08899 0.70557
 O191 O 0.51412 -0.11142 0.30269
 O192 O 0.69168 -0.00331 0.62252
 O193 O 0.29194 0.02229 0.58286
 O194 O 0.31308 0.00681 0.37412
 O195 O 0.71078 -0.01368 0.41605
 O196 O 0.59254 -0.20324 0.51072
 O197 O 0.37943 -0.18898 0.49486
 Zr198 Zr 0.63688 -0.00862 0.51290
 Zr199 Zr 0.36561 0.01129 0.48545
 Zr200 Zr 0.48866 0.01089 0.63513
 Zr201 Zr 0.51365 -0.00607 0.36266
 Zr202 Zr 0.49064 -0.13439 0.50641
 O203 O 0.43219 -0.06788 0.42558
 O204 O 0.55971 -0.06965 0.58135
 C205 C 0.66612 -0.18511 0.50780
 C206 C 0.30969 -0.16056 0.48589
 C207 C 0.66261 0.01507 0.68949
 C208 C 0.69517 -0.01318 0.34254
 C209 C 0.34263 -0.00119 0.30475
 C210 C 0.30738 0.02517 0.65664
 C211 C 0.48270 -0.16186 0.68843
 C212 C 0.51396 -0.18082 0.32961
 H213 H 0.38232 -0.08779 0.59762
 O214 O 0.42018 -0.05856 0.56568
 H215 H 0.60501 -0.10855 0.40992
 O216 O 0.57054 -0.07480 0.44022
 N217 N 0.21412 0.25342 0.01122
 N218 N 0.28739 0.24476 0.01139
 N219 N 0.25172 -0.28487 0.47457
 N220 N 0.24409 -0.21230 0.48143
 N221 N 0.77760 0.76721 -0.04686
 N222 N 0.72372 0.72872 -0.07440
 N223 N 0.74752 0.28310 0.51965
 N224 N 0.75805 0.21182 0.50855
 N225 N 0.74546 0.21272 0.00879
 N226 N 0.75638 0.28496 0.01174
 N227 N 0.77204 -0.27333 0.49317
 N228 N 0.71475 -0.23894 0.46807
 N229 N 0.21838 0.24740 0.49735
 N230 N 0.29037 0.25582 0.48290
 N231 N 0.25433 0.78663 0.00167
 N232 N 0.24649 0.71375 -0.00024
 N233 N -0.02765 0.23864 0.22976
 N234 N -0.02997 0.23307 0.30298
 N235 N 0.50243 0.24540 0.78721
 N236 N 0.49751 0.25457 0.71392
 N237 N 0.01242 0.79816 0.73498
 N238 N 0.02296 0.72662 0.74045
 N239 N 0.51922 -0.27005 0.22529
 N240 N 0.54921 -0.23719 0.28131
 N241 N -0.02201 0.75988 0.21584
 N242 N -0.05230 0.70692 0.25354
 N243 N 0.48920 -0.28683 0.74609
 N244 N 0.48301 -0.21411 0.75373
 N245 N 0.52402 0.28776 0.25624
 N246 N 0.53202 0.21593 0.24578
 N247 N -0.02299 0.24208 0.78777
 N248 N -0.04801 0.29719 0.75185
 N249 N 0.21780 -0.00140 0.25117
 N250 N 0.29078 -0.00233 0.24010
 N251 N 0.28330 0.50381 0.76501
 N252 N 0.25730 0.53262 0.70503
 N253 N 0.77095 0.02387 0.77313
 N254 N 0.71280 0.05211 0.74334
 N255 N -0.28259 0.48110 0.24010
 N256 N -0.25604 0.45044 0.29909
 N257 N 0.25086 0.02833 0.78153
 N258 N 0.24188 0.02806 0.70803
 N259 N 0.27444 0.49708 0.24566
 N260 N 0.20222 0.48469 0.23741
 N261 N 0.74911 -0.01589 0.21839
 N262 N 0.75985 -0.01446 0.29137
 N263 N -0.27338 0.50859 0.75747
 N264 N -0.20129 0.52068 0.76650
   
