data_POSCAR
  _audit_creation_date              2014-09-24
  _audit_creation_method            'ToBaCCo'
  _symmetry_space_group_name_H-M    'P1'
  _symmetry_Int_Tables_number       1
  _symmetry_cell_setting            triclinic
  loop_
  _symmetry_equiv_pos_as_xyz
 x,y,z
_cell_length_a 47.3034
_cell_length_b 46.1873
_cell_length_c 45.2049
_cell_angle_alpha 90.003000
_cell_angle_beta 90.032500
_cell_angle_gamma 89.964100
loop_
  _atom_site_label
  _atom_site_type_symbol
  _atom_site_fract_x
  _atom_site_fract_y
  _atom_site_fract_z
C1 C 0.29363 0.28782 0.23717
 H2 H 0.29480 0.28921 0.26103
 C3 C 0.31231 0.30383 0.21973
 H4 H 0.32759 0.31783 0.23037
 C5 C 0.27194 0.26811 0.19443
 H6 H 0.25652 0.25382 0.18461
 C7 C 0.29018 0.28373 0.17615
 H8 H 0.28854 0.28124 0.15240
 N9 N 0.27366 0.27077 0.22434
 C10 C 0.20593 0.26380 0.28940
 H11 H 0.20395 0.24051 0.29081
 C12 C 0.18786 0.28154 0.30576
 H13 H 0.17228 0.27170 0.32011
 C14 C 0.22880 0.30480 0.26896
 H15 H 0.24437 0.31382 0.25414
 C16 C 0.21118 0.32336 0.28494
 H17 H 0.21347 0.34653 0.28224
 Zn18 Zn 0.24892 0.24991 0.24944
 N19 N 0.22609 0.27561 0.27169
 C20 C 0.26960 0.22903 0.30466
 N21 N 0.27145 0.22669 0.27472
 C22 C 0.29009 0.20816 0.26185
 C23 C 0.30727 0.19040 0.27923
 C24 C 0.28641 0.21169 0.32289
 C25 C 0.20542 0.24026 0.20881
 C26 C 0.18646 0.22434 0.19163
 C27 C 0.20586 0.18041 0.21241
 C28 C 0.22448 0.19719 0.22916
 N29 N 0.22418 0.22654 0.22679
 H30 H 0.25511 0.24431 0.31451
 H31 H 0.29150 0.20713 0.23799
 H32 H 0.32205 0.17588 0.26854
 H33 H 0.28425 0.21348 0.34666
 H34 H 0.20528 0.26367 0.20779
 H35 H 0.17162 0.23568 0.17754
 H36 H 0.20678 0.15705 0.21417
 H37 H 0.23908 0.18667 0.24405
 C38 C 0.19038 0.31177 0.30368
 C39 C 0.31058 0.30206 0.18875
 C40 C 0.18660 0.19397 0.19321
 C41 C 0.30547 0.19193 0.31021
 C42 C 0.79360 0.78626 0.23697
 H43 H 0.79542 0.78685 0.26082
 C44 C 0.81226 0.80229 0.21956
 H45 H 0.82751 0.81574 0.23086
 C46 C 0.77023 0.76868 0.19437
 H47 H 0.75429 0.75498 0.18457
 C48 C 0.78837 0.78437 0.17605
 H49 H 0.78598 0.78166 0.15244
 N50 N 0.77288 0.77020 0.22424
 C51 C 0.70785 0.76197 0.29215
 H52 H 0.70558 0.73867 0.29297
 C53 C 0.69102 0.77948 0.31015
 H54 H 0.67607 0.76945 0.32510
 C55 C 0.73028 0.80322 0.27172
 H56 H 0.74520 0.81245 0.25632
 C57 C 0.71390 0.82154 0.28933
 H58 H 0.71645 0.84474 0.28723
 Zn59 Zn 0.74885 0.74878 0.24956
 N60 N 0.72723 0.77399 0.27367
 C61 C 0.77189 0.72620 0.30305
 N62 N 0.77233 0.72474 0.27300
 C63 C 0.79049 0.70679 0.25861
 C64 C 0.80875 0.68884 0.27451
 C65 C 0.78978 0.70861 0.31983
 C66 C 0.70402 0.74034 0.21004
 C67 C 0.68476 0.72484 0.19280
 C68 C 0.70470 0.68042 0.21183
 C69 C 0.72360 0.69677 0.22867
 N70 N 0.72322 0.72618 0.22715
 H71 H 0.75790 0.74117 0.31410
 H72 H 0.79067 0.70637 0.23468
 H73 H 0.82267 0.67432 0.26262
 H74 H 0.78931 0.71026 0.34372
 H75 H 0.70384 0.76377 0.20967
 H76 H 0.66965 0.73651 0.17932
 H77 H 0.70577 0.65702 0.21285
 H78 H 0.73857 0.68588 0.24287
 C79 C 0.69399 0.80972 0.30894
 C80 C 0.80992 0.80181 0.18838
 C81 C 0.68506 0.69444 0.19342
 C82 C 0.80849 0.68954 0.30557
 C83 C 0.79420 0.29152 0.74187
 H84 H 0.79472 0.29161 0.76580
 C85 C 0.81257 0.30930 0.72597
 H86 H 0.82733 0.32292 0.73785
 C87 C 0.77489 0.27283 0.69743
 H88 H 0.76044 0.25833 0.68637
 C89 C 0.79293 0.29023 0.68064
 H90 H 0.79171 0.28932 0.65674
 N91 N 0.77563 0.27401 0.72748
 C92 C 0.70769 0.25915 0.79097
 H93 H 0.70717 0.23573 0.79124
 C94 C 0.68892 0.27490 0.80857
 H95 H 0.67421 0.26340 0.82264
 C96 C 0.72788 0.30247 0.77253
 H97 H 0.74277 0.31317 0.75813
 C98 C 0.70952 0.31906 0.78976
 H99 H 0.71052 0.34244 0.78838
 Zn100 Zn 0.75205 0.25019 0.75097
 N101 N 0.72697 0.27306 0.77379
 C102 C 0.77377 0.22953 0.80578
 N103 N 0.77606 0.22824 0.77590
 C104 C 0.79645 0.21204 0.76284
 C105 C 0.81509 0.19558 0.77989
 C106 C 0.79195 0.21349 0.82379
 C107 C 0.71048 0.23778 0.70863
 C108 C 0.69334 0.22056 0.69066
 C109 C 0.71589 0.17812 0.71117
 C110 C 0.73262 0.19616 0.72871
 N111 N 0.72988 0.22543 0.72691
 H112 H 0.75773 0.24292 0.81585
 H113 H 0.79835 0.21207 0.73899
 H114 H 0.83150 0.18421 0.76804
 H115 H 0.78790 0.21437 0.84726
 H116 H 0.70836 0.26110 0.70805
 H117 H 0.67790 0.23081 0.67640
 H118 H 0.71873 0.15490 0.71258
 H119 H 0.74768 0.18667 0.74382
 C120 C 0.68985 0.30529 0.80829
 C121 C 0.81205 0.30885 0.69491
 C122 C 0.69597 0.19028 0.69174
 C123 C 0.81327 0.19570 0.81123
 C124 C 0.29180 0.79306 0.73753
 H125 H 0.29377 0.79351 0.76137
 C126 C 0.30876 0.81103 0.72017
 H127 H 0.32392 0.82513 0.73085
 C128 C 0.27015 0.77341 0.69473
 H129 H 0.25531 0.75852 0.68486
 C130 C 0.28672 0.79098 0.67653
 H131 H 0.28400 0.78976 0.65278
 N132 N 0.27270 0.77502 0.72466
 C133 C 0.20805 0.76048 0.79176
 H134 H 0.20781 0.73706 0.79231
 C135 C 0.18960 0.77619 0.80974
 H136 H 0.17544 0.76467 0.82441
 C137 C 0.22709 0.80383 0.77208
 H138 H 0.24135 0.81454 0.75701
 C139 C 0.20902 0.82039 0.78969
 H140 H 0.20961 0.84376 0.78794
 Zn141 Zn 0.25059 0.75140 0.74989
 N142 N 0.22656 0.77443 0.77371
 C143 C 0.27475 0.73164 0.80386
 N144 N 0.27577 0.72974 0.77385
 C145 C 0.29538 0.71294 0.76009
 C146 C 0.31443 0.69645 0.77664
 C147 C 0.29342 0.71555 0.82126
 C148 C 0.20661 0.73883 0.71064
 C149 C 0.18813 0.72165 0.69416
 C150 C 0.21165 0.67915 0.71330
 C151 C 0.22971 0.69716 0.72939
 N152 N 0.22709 0.72644 0.72754
 H153 H 0.25948 0.74560 0.81443
 H154 H 0.29608 0.71227 0.73617
 H155 H 0.32990 0.68324 0.76527
 H156 H 0.29185 0.71688 0.84511
 H157 H 0.20462 0.76217 0.71006
 H158 H 0.17184 0.73195 0.68103
 H159 H 0.21436 0.65591 0.71471
 H160 H 0.24566 0.68766 0.74346
 C161 C 0.19003 0.80658 0.80895
 C162 C 0.30625 0.81022 0.68922
 C163 C 0.19055 0.69136 0.69532
 C164 C 0.31349 0.69751 0.80768
 C165 C -0.00114 -0.00137 0.00104
 C166 C 0.00068 0.50084 0.50032
 C167 C 0.50101 0.00143 0.49992
 C168 C 0.49919 0.49906 -0.00075
 C169 C 0.12462 -0.16869 -0.14940
 C170 C 0.13449 -0.14350 -0.13566
 C171 C 0.16247 -0.13464 -0.13997
 C172 C 0.18053 -0.15086 -0.15797
 C173 C 0.17082 -0.17622 -0.17192
 C174 C 0.14266 -0.18498 -0.16740
 C175 C 0.11595 -0.12659 -0.11728
 C176 C 0.10065 -0.11212 -0.10192
 C177 C 0.08303 -0.09479 -0.08402
 C178 C 0.06825 -0.07961 -0.06881
 C179 C 0.05098 -0.06099 -0.05080
 C180 C 0.06297 -0.04613 -0.02699
 C181 C 0.04658 -0.02716 -0.01010
 C182 C 0.01792 -0.02188 -0.01732
 C183 C 0.00582 -0.03857 -0.04029
 C184 C 0.02227 -0.05751 -0.05715
 H185 H 0.10297 -0.17569 -0.14629
 H186 H 0.17035 -0.11520 -0.12938
 H187 H 0.20218 -0.14377 -0.16068
 H188 H 0.13446 -0.20418 -0.17812
 H189 H 0.08503 -0.04926 -0.02139
 H190 H 0.05651 -0.01706 0.00879
 H191 H -0.01643 -0.03648 -0.04551
 H192 H 0.01261 -0.06936 -0.07520
 C193 C 0.16408 0.37442 0.35060
 C194 C 0.13545 0.36746 0.35380
 C195 C 0.12471 0.34243 0.34047
 C196 C 0.14252 0.32435 0.32410
 C197 C 0.17137 0.33109 0.32084
 C198 C 0.18193 0.35639 0.33422
 C199 C 0.11723 0.38574 0.37117
 C200 C 0.10212 0.40093 0.38600
 C201 C 0.08462 0.41854 0.40376
 C202 C 0.06990 0.43343 0.41933
 C203 C 0.05263 0.45097 0.43846
 C204 C 0.02390 0.44485 0.44186
 C205 C 0.00748 0.46114 0.46145
 C206 C 0.01965 0.48327 0.47891
 C207 C 0.04831 0.49034 0.47361
 C208 C 0.06467 0.47403 0.45399
 H209 H 0.17264 0.39368 0.36094
 H210 H 0.10257 0.33685 0.34278
 H211 H 0.13367 0.30526 0.31373
 H212 H 0.20409 0.36198 0.33244
 H213 H 0.01419 0.42740 0.42949
 H214 H -0.01477 0.45606 0.46350
 H215 H 0.05830 0.50863 0.48421
 H216 H 0.08675 0.47946 0.45091
 C217 C 0.67128 -0.12832 0.35883
 C218 C 0.64270 -0.13475 0.36332
 C219 C 0.63088 -0.15934 0.35014
 C220 C 0.64754 -0.17745 0.33252
 C221 C 0.67630 -0.17116 0.32781
 C222 C 0.68799 -0.14638 0.34120
 C223 C 0.62544 -0.11609 0.38134
 C224 C 0.61081 -0.10057 0.39636
 C225 C 0.59341 -0.08258 0.41386
 C226 C 0.57829 -0.06741 0.42872
 C227 C 0.55986 -0.04959 0.44635
 C228 C 0.54506 -0.02670 0.43333
 C229 C 0.52635 -0.01004 0.45016
 C230 C 0.52131 -0.01656 0.48028
 C231 C 0.53788 -0.03861 0.49338
 C232 C 0.55655 -0.05522 0.47651
 H233 H 0.68067 -0.10938 0.36899
 H234 H 0.60875 -0.16447 0.35339
 H235 H 0.63782 -0.19612 0.32221
 H236 H 0.71012 -0.14116 0.33832
 H237 H 0.54804 -0.02165 0.41014
 H238 H 0.51625 0.00811 0.43940
 H239 H 0.53589 -0.04331 0.51676
 H240 H 0.56833 -0.07254 0.48699
 C241 C 0.62420 0.33068 -0.15082
 C242 C 0.63433 0.35544 -0.13647
 C243 C 0.66254 0.36378 -0.14012
 C244 C 0.68057 0.34748 -0.15807
 C245 C 0.67061 0.32257 -0.17265
 C246 C 0.64222 0.31431 -0.16878
 C247 C 0.61583 0.37249 -0.11814
 C248 C 0.60062 0.38712 -0.10283
 C249 C 0.58313 0.40467 -0.08500
 C250 C 0.56846 0.42005 -0.06988
 C251 C 0.55124 0.43889 -0.05203
 C252 C 0.56328 0.45402 -0.02841
 C253 C 0.54692 0.47318 -0.01169
 C254 C 0.51825 0.47837 -0.01890
 C255 C 0.50611 0.46145 -0.04168
 C256 C 0.52253 0.44232 -0.05835
 H257 H 0.60237 0.32409 -0.14822
 H258 H 0.67062 0.38287 -0.12906
 H259 H 0.70241 0.35417 -0.16025
 H260 H 0.63383 0.29545 -0.17997
 H261 H 0.58536 0.45094 -0.02282
 H262 H 0.55689 0.48348 0.00706
 H263 H 0.48385 0.46349 -0.04688
 H264 H 0.51282 0.43029 -0.07625
 C265 C -0.14689 0.16852 -0.12343
 C266 C -0.13225 0.14525 -0.13573
 C267 C -0.13551 0.13890 -0.16568
 C268 C -0.15341 0.15563 -0.18336
 C269 C -0.16881 0.17941 -0.17152
 C270 C -0.16488 0.18537 -0.14093
 C271 C -0.11420 0.12757 -0.11754
 C272 C -0.09924 0.11249 -0.10241
 C273 C -0.08196 0.09449 -0.08482
 C274 C -0.06740 0.07879 -0.06993
 C275 C -0.05030 0.05962 -0.05233
 C276 C -0.02777 0.04469 -0.06523
 C277 C -0.01175 0.02525 -0.04847
 C278 C -0.01856 0.01959 -0.01855
 C279 C -0.04030 0.03630 -0.00552
 C280 C -0.05628 0.05570 -0.02234
 H281 H -0.14429 0.17381 -0.10023
 H282 H -0.12447 0.12066 -0.17538
 H283 H -0.15596 0.14845 -0.20593
 H284 H -0.17443 0.20380 -0.13017
 H285 H -0.02249 0.04814 -0.08828
 H286 H 0.00615 0.01511 -0.05910
 H287 H -0.04522 0.03390 0.01774
 H288 H -0.07335 0.06758 -0.01195
 C289 C -0.16383 0.63928 0.36540
 C290 C -0.13596 0.63481 0.35609
 C291 C -0.12621 0.64816 0.33024
 C292 C -0.14426 0.66593 0.31377
 C293 C -0.17232 0.67061 0.32298
 C294 C -0.18190 0.65706 0.34899
 C295 C -0.11736 0.61667 0.37320
 C296 C -0.10197 0.60155 0.38781
 C297 C -0.08420 0.58394 0.40530
 C298 C -0.06929 0.56900 0.42063
 C299 C -0.05184 0.55133 0.43947
 C300 C -0.02309 0.55746 0.44272
 C301 C -0.00649 0.54099 0.46200
 C302 C -0.01849 0.51864 0.47929
 C303 C -0.04718 0.51159 0.47413
 C304 C -0.06372 0.52809 0.45483
 H305 H -0.17160 0.62900 0.38534
 H306 H -0.10464 0.64492 0.32289
 H307 H -0.13614 0.67635 0.29408
 H308 H -0.20347 0.65992 0.35644
 H309 H -0.01350 0.57506 0.43048
 H310 H 0.01578 0.54607 0.46393
 H311 H -0.05706 0.49317 0.48460
 H312 H -0.08582 0.52265 0.45185
 C313 C 0.35264 0.16617 0.37294
 C314 C 0.35740 0.13731 0.36493
 C315 C 0.34517 0.12626 0.33910
 C316 C 0.32827 0.14400 0.32131
 C317 C 0.32338 0.17307 0.32914
 C318 C 0.33573 0.18394 0.35520
 C319 C 0.37505 0.11912 0.38306
 C320 C 0.39000 0.10399 0.39817
 C321 C 0.40773 0.08643 0.41576
 C322 C 0.42313 0.07162 0.43070
 C323 C 0.44187 0.05421 0.44842
 C324 C 0.44530 0.02476 0.44230
 C325 C 0.46414 0.00813 0.45900
 C326 C 0.48073 0.02076 0.48159
 C327 C 0.47562 0.05017 0.48857
 C328 C 0.45676 0.06675 0.47184
 H329 H 0.36210 0.17498 0.39283
 H330 H 0.34867 0.10394 0.33271
 H331 H 0.31876 0.13487 0.30162
 H332 H 0.33268 0.20631 0.36163
 H333 H 0.43345 0.01465 0.42458
 H334 H 0.46615 -0.01471 0.45398
 H335 H 0.48573 0.06055 0.50720
 H336 H 0.45369 0.08938 0.47729
 C337 C 0.35749 0.63412 -0.16508
 C338 C 0.36927 0.64548 -0.13917
 C339 C 0.36319 0.67399 -0.13082
 C340 C 0.34524 0.69101 -0.14820
 C341 C 0.33312 0.67972 -0.17420
 C342 C 0.33955 0.65110 -0.18251
 C343 C 0.38721 0.62771 -0.12093
 C344 C 0.40200 0.61257 -0.10567
 C345 C 0.41907 0.59454 -0.08787
 C346 C 0.43344 0.57883 -0.07277
 C347 C 0.45034 0.55968 -0.05491
 C348 C 0.44418 0.55600 -0.02493
 C349 C 0.46003 0.53669 -0.00785
 C350 C 0.48182 0.51984 -0.02061
 C351 C 0.48879 0.52525 -0.05054
 C352 C 0.47291 0.54459 -0.06755
 H353 H 0.36197 0.61204 -0.17169
 H354 H 0.37225 0.68302 -0.11083
 H355 H 0.34101 0.71308 -0.14142
 H356 H 0.33027 0.64165 -0.20216
 H357 H 0.42709 0.56800 -0.01473
 H358 H 0.45499 0.53449 0.01540
 H359 H 0.50673 0.51501 -0.06098
 H360 H 0.47833 0.54786 -0.09060
 C361 C -0.12651 -0.15665 0.16244
 C362 C -0.13504 -0.14826 0.13414
 C363 C -0.16155 -0.15658 0.12358
 C364 C -0.17960 -0.17313 0.14126
 C365 C -0.17154 -0.18173 0.17014
 C366 C -0.14446 -0.17316 0.18026
 C367 C -0.11681 -0.13064 0.11612
 C368 C -0.10176 -0.11559 0.10111
 C369 C -0.08439 -0.09758 0.08366
 C370 C -0.06981 -0.08185 0.06887
 C371 C -0.05273 -0.06260 0.05137
 C372 C -0.06485 -0.04726 0.02795
 C373 C -0.04864 -0.02774 0.01156
 C374 C -0.02003 -0.02241 0.01891
 C375 C -0.00778 -0.03954 0.04147
 C376 C -0.02406 -0.05903 0.05783
 H377 H -0.10588 -0.15048 0.17076
 H378 H -0.16849 -0.14995 0.10176
 H379 H -0.20032 -0.17789 0.13245
 H380 H -0.13639 -0.17990 0.20154
 H381 H -0.08689 -0.05044 0.02226
 H382 H -0.05866 -0.01728 -0.00707
 H383 H 0.01445 -0.03740 0.04674
 H384 H -0.01428 -0.07123 0.07556
 C385 C -0.14491 0.37383 0.67013
 C386 C -0.13201 0.36314 0.64451
 C387 C -0.13730 0.33470 0.63539
 C388 C -0.15546 0.31702 0.65176
 C389 C -0.16858 0.32757 0.67753
 C390 C -0.16306 0.35619 0.68656
 C391 C -0.11360 0.38140 0.62738
 C392 C -0.09832 0.39663 0.61279
 C393 C -0.08066 0.41436 0.59535
 C394 C -0.06581 0.42939 0.58009
 C395 C -0.04841 0.44716 0.56134
 C396 C -0.02590 0.43487 0.54576
 C397 C -0.00979 0.45176 0.52644
 C398 C -0.01651 0.48123 0.52151
 C399 C -0.03811 0.49363 0.53904
 C400 C -0.05418 0.47668 0.55832
 H401 H -0.14105 0.39586 0.67732
 H402 H -0.12739 0.32618 0.61561
 H403 H -0.15897 0.29498 0.64446
 H404 H -0.17311 0.36506 0.70607
 H405 H -0.02076 0.41217 0.54854
 H406 H 0.00803 0.44155 0.51576
 H407 H -0.04294 0.51648 0.53725
 H408 H -0.07122 0.48659 0.57073
 C409 C 0.34611 -0.12401 0.66096
 C410 C 0.35767 -0.13465 0.63462
 C411 C 0.35238 -0.16325 0.62605
 C412 C 0.33563 -0.18118 0.64375
 C413 C 0.32396 -0.17073 0.67032
 C414 C 0.32937 -0.14191 0.67870
 C415 C 0.37520 -0.11632 0.61655
 C416 C 0.39007 -0.10111 0.60149
 C417 C 0.40774 -0.08348 0.58393
 C418 C 0.42309 -0.06864 0.56901
 C419 C 0.44181 -0.05124 0.55130
 C420 C 0.45668 -0.06380 0.52789
 C421 C 0.47555 -0.04725 0.51119
 C422 C 0.48069 -0.01786 0.51819
 C423 C 0.46410 -0.00520 0.54077
 C424 C 0.44525 -0.02181 0.55744
 H425 H 0.35003 -0.10189 0.66778
 H426 H 0.36132 -0.17175 0.60577
 H427 H 0.33217 -0.20336 0.63687
 H428 H 0.32039 -0.13310 0.69881
 H429 H 0.45360 -0.08642 0.52242
 H430 H 0.48565 -0.05764 0.49257
 H431 H 0.46613 0.01763 0.54580
 H432 H 0.43341 -0.01168 0.57515
 C433 C 0.37622 0.33971 0.15944
 C434 C 0.36571 0.35291 0.13382
 C435 C 0.33730 0.34931 0.12604
 C436 C 0.31942 0.33268 0.14381
 C437 C 0.32973 0.31940 0.16969
 C438 C 0.35837 0.32306 0.17728
 C439 C 0.38389 0.37052 0.11574
 C440 C 0.39886 0.38556 0.10060
 C441 C 0.41610 0.40351 0.08294
 C442 C 0.43059 0.41917 0.06796
 C443 C 0.44762 0.43829 0.05025
 C444 C 0.43545 0.45346 0.02672
 C445 C 0.45165 0.47282 0.01010
 C446 C 0.48028 0.47817 0.01732
 C447 C 0.49256 0.46122 0.04000
 C448 C 0.47631 0.44189 0.05658
 H449 H 0.39820 0.34233 0.16565
 H450 H 0.32890 0.35955 0.10633
 H451 H 0.29740 0.33062 0.13759
 H452 H 0.36702 0.31284 0.19684
 H453 H 0.41339 0.45025 0.02112
 H454 H 0.44159 0.48315 -0.00859
 H455 H 0.51481 0.46339 0.04520
 H456 H 0.48612 0.42983 0.07439
 C457 C 0.14298 0.16773 0.12802
 C458 C 0.13008 0.14308 0.13989
 C459 C 0.13540 0.13520 0.16927
 C460 C 0.15366 0.15181 0.18668
 C461 C 0.16685 0.17655 0.17490
 C462 C 0.16123 0.18439 0.14539
 C463 C 0.11179 0.12558 0.12181
 C464 C 0.09669 0.11069 0.10666
 C465 C 0.07931 0.09296 0.08892
 C466 C 0.06473 0.07751 0.07379
 C467 C 0.04768 0.05867 0.05578
 C468 C 0.02527 0.04332 0.06837
 C469 C 0.00935 0.02419 0.05117
 C470 C 0.01614 0.01927 0.02110
 C471 C 0.03773 0.03641 0.00844
 C472 C 0.05361 0.05551 0.02569
 H473 H 0.13910 0.17395 0.10526
 H474 H 0.12549 0.11617 0.17869
 H475 H 0.15726 0.14544 0.20942
 H476 H 0.17133 0.20309 0.13558
 H477 H 0.02002 0.04620 0.09151
 H478 H -0.00846 0.01369 0.06158
 H479 H 0.04263 0.03458 -0.01488
 H480 H 0.07058 0.06772 0.01555
 C481 C 0.14208 0.62930 0.67376
 C482 C 0.13446 0.63715 0.64494
 C483 C 0.14508 0.66271 0.63261
 C484 C 0.16328 0.68036 0.64898
 C485 C 0.17113 0.67265 0.67797
 C486 C 0.16030 0.64691 0.69018
 C487 C 0.11593 0.61892 0.62788
 C488 C 0.10056 0.60377 0.61329
 C489 C 0.08278 0.58619 0.59581
 C490 C 0.06781 0.57132 0.58048
 C491 C 0.05027 0.55377 0.56163
 C492 C 0.02764 0.56625 0.54638
 C493 C 0.01139 0.54959 0.52697
 C494 C 0.01807 0.52019 0.52160
 C495 C 0.03981 0.50759 0.53881
 C496 C 0.05603 0.52429 0.55818
 H497 H 0.13394 0.60959 0.68354
 H498 H 0.13940 0.66894 0.61027
 H499 H 0.17154 0.69982 0.63882
 H500 H 0.16564 0.64058 0.71256
 H501 H 0.02252 0.58891 0.54950
 H502 H -0.00653 0.55993 0.51656
 H503 H 0.04463 0.48476 0.53668
 H504 H 0.07317 0.51424 0.57033
 C505 C 0.65505 0.16150 0.62568
 C506 C 0.64390 0.13577 0.63710
 C507 C 0.64972 0.12784 0.66636
 C508 C 0.66663 0.14555 0.68414
 C509 C 0.67796 0.17148 0.67288
 C510 C 0.67196 0.17926 0.64343
 C511 C 0.62632 0.11759 0.61891
 C512 C 0.61146 0.10242 0.60378
 C513 C 0.59384 0.08475 0.58618
 C514 C 0.57856 0.06980 0.57127
 C515 C 0.55998 0.05217 0.55361
 C516 C 0.54511 0.02934 0.56659
 C517 C 0.52633 0.01279 0.54973
 C518 C 0.52131 0.01937 0.51961
 C519 C 0.53792 0.04137 0.50655
 C520 C 0.55666 0.05788 0.52346
 H521 H 0.65071 0.16782 0.60305
 H522 H 0.64110 0.10803 0.67547
 H523 H 0.67053 0.13915 0.70682
 H524 H 0.68064 0.19888 0.63400
 H525 H 0.54810 0.02423 0.58977
 H526 H 0.51619 -0.00534 0.56045
 H527 H 0.53595 0.04610 0.48318
 H528 H 0.56849 0.07515 0.51301
 C529 C 0.64116 0.66960 0.12782
 C530 C 0.62877 0.64436 0.13898
 C531 C 0.63438 0.63573 0.16808
 C532 C 0.65247 0.65213 0.18589
 C533 C 0.66522 0.67742 0.17481
 C534 C 0.65924 0.68606 0.14560
 C535 C 0.61079 0.62696 0.12044
 C536 C 0.59598 0.61208 0.10497
 C537 C 0.57890 0.59427 0.08696
 C538 C 0.56455 0.57870 0.07172
 C539 C 0.54768 0.55966 0.05373
 C540 C 0.52520 0.54440 0.06629
 C541 C 0.50941 0.52509 0.04917
 C542 C 0.51640 0.51986 0.01920
 C543 C 0.53807 0.53690 0.00653
 C544 C 0.55382 0.55619 0.02371
 H545 H 0.63705 0.67642 0.10529
 H546 H 0.62487 0.61625 0.17696
 H547 H 0.65635 0.64513 0.20838
 H548 H 0.66900 0.70520 0.13630
 H549 H 0.51978 0.54750 0.08936
 H550 H 0.49154 0.51469 0.05956
 H551 H 0.54311 0.53485 -0.01673
 H552 H 0.57086 0.56832 0.01358
   
