data_POSCAR
  _audit_creation_date              2014-09-24
  _audit_creation_method            'ToBaCCo'
  _symmetry_space_group_name_H-M    'P1'
  _symmetry_Int_Tables_number       1
  _symmetry_cell_setting            triclinic
  loop_
  _symmetry_equiv_pos_as_xyz
 x,y,z
_cell_length_a 18.0870
_cell_length_b 18.1625
_cell_length_c 19.8109
_cell_angle_alpha 89.993700
_cell_angle_beta 90.233900
_cell_angle_gamma 120.153000
loop_
  _atom_site_label
  _atom_site_type_symbol
  _atom_site_fract_x
  _atom_site_fract_y
  _atom_site_fract_z
O1 O 0.35299 0.53857 0.30505
 O2 O 0.21278 0.54214 0.32701
 C3 C 0.17322 0.58169 0.33946
 O4 O 0.18364 0.64520 0.30482
 O5 O 0.32786 0.78533 0.32731
 C6 C 0.40737 0.82496 0.34008
 O7 O 0.46068 0.81438 0.30580
 O8 O 0.45677 0.67089 0.32774
 C9 C 0.41695 0.59169 0.33991
 O10 O 0.32784 0.54266 0.17093
 O11 O 0.18345 0.53813 0.19288
 C12 C 0.17238 0.59074 0.15791
 O13 O 0.21245 0.66998 0.17072
 O14 O 0.35259 0.81398 0.19328
 C15 C 0.41673 0.82504 0.15904
 O16 O 0.45673 0.78588 0.17165
 O17 O 0.46067 0.64630 0.19361
 C18 C 0.40736 0.58253 0.15881
 Cr19 Cr 0.27153 0.54490 0.24897
 Cr20 Cr 0.27139 0.72635 0.24904
 Cr21 Cr 0.45418 0.72709 0.24969
 O22 O 0.33240 0.66615 0.24928
 O23 O 0.54181 0.32962 0.67274
 O24 O 0.53814 0.18603 0.69285
 C25 C 0.59164 0.17450 0.66005
 O26 O 0.67085 0.21257 0.67316
 O27 O 0.81524 0.35298 0.69359
 C28 C 0.82677 0.41781 0.66057
 O29 O 0.78888 0.45872 0.67347
 O30 O 0.64821 0.46195 0.69322
 C31 C 0.58295 0.40850 0.66000
 O32 O 0.53831 0.35225 0.80721
 O33 O 0.54193 0.21229 0.82734
 C34 C 0.58312 0.17460 0.84036
 O35 O 0.64839 0.18648 0.80761
 O36 O 0.78918 0.33047 0.82806
 C37 C 0.82721 0.40934 0.84108
 O38 O 0.81546 0.46253 0.80806
 O39 O 0.67108 0.45846 0.82777
 C40 C 0.59187 0.41733 0.84036
 Cr41 Cr 0.54484 0.27245 0.75006
 Cr42 Cr 0.72852 0.27301 0.75060
 Cr43 Cr 0.72852 0.45564 0.75063
 O44 O 0.66730 0.33370 0.75045
 C45 C 0.50186 0.00396 0.50453
 C46 C 0.41439 -0.04052 0.48931
 C47 C 0.38350 -0.09868 0.43576
 C48 C 0.43987 -0.11307 0.39664
 C49 C 0.52775 -0.06794 0.41244
 C50 C 0.55841 -0.00986 0.46599
 C51 C 0.53364 0.06392 0.55954
 C52 C 0.56026 0.11431 0.60552
 H53 H 0.37005 -0.03027 0.51884
 H54 H 0.31553 -0.13235 0.42510
 H55 H 0.57292 -0.07750 0.38351
 H56 H 0.62625 0.02425 0.47734
 C57 C 0.99584 0.49796 0.50451
 C58 C 1.04004 0.45516 0.48948
 C59 C 1.09757 0.48210 0.43568
 C60 C 1.11161 0.55234 0.39610
 C61 C 1.06673 0.59488 0.41168
 C62 C 1.00927 0.56779 0.46549
 C63 C 0.93653 0.47011 0.55980
 C64 C 0.88659 0.44652 0.60595
 H65 H 1.03007 0.40098 0.51937
 H66 H 1.13109 0.44800 0.42520
 H67 H 1.07605 0.64923 0.38242
 H68 H 0.97535 0.60136 0.47669
 C69 C 0.50177 0.49761 0.50436
 C70 C 0.54482 0.58475 0.48975
 C71 C 0.51747 0.61550 0.43619
 C72 C 0.44658 0.55933 0.39644
 C73 C 0.40379 0.47178 0.41164
 C74 C 0.43127 0.44125 0.46521
 C75 C 0.53002 0.46599 0.55942
 C76 C 0.55391 0.43956 0.60543
 H77 H 0.59951 0.62894 0.51977
 H78 H 0.55180 0.68322 0.42600
 H79 H 0.34894 0.42676 0.38223
 H80 H 0.39750 0.37366 0.47609
 C81 C 0.50178 0.00411 0.99530
 C82 C 0.43097 -0.01039 1.03367
 C83 C 0.40338 -0.06850 1.08699
 C84 C 0.44639 -0.11297 1.10272
 C85 C 0.51757 -0.09789 1.06375
 C86 C 0.54501 -0.03971 1.01044
 C87 C 0.53014 0.06408 0.94051
 C88 C 0.55408 0.11446 0.89471
 H89 H 0.39704 0.02321 1.02237
 H90 H 0.34831 -0.07860 1.11580
 H91 H 0.55207 -0.13105 1.07436
 H92 H 0.59993 -0.02894 0.98102
 C93 C 0.99802 0.49892 0.99724
 C94 C 1.01154 0.44268 1.03634
 C95 C 1.06963 0.47315 1.09014
 C96 C 1.11564 0.56104 1.10601
 C97 C 1.10099 0.61692 1.06584
 C98 C 1.04277 0.58596 1.01210
 C99 C 0.93800 0.46720 0.94197
 C100 C 0.88754 0.44065 0.89581
 H101 H 0.97713 0.37509 1.02524
 H102 H 1.07826 0.42735 1.11907
 H103 H 1.13443 0.68484 1.07558
 H104 H 1.03268 0.63006 0.98208
 C105 C 0.50205 0.49816 0.99512
 C106 C 0.41455 0.45521 1.00956
 C107 C 0.38358 0.48244 1.06284
 C108 C 0.43991 0.55314 1.10247
 C109 C 0.52782 0.59588 1.08743
 C110 C 0.55856 0.56850 1.03415
 C111 C 0.53391 0.46999 0.94040
 C112 C 0.56055 0.44620 0.89465
 H113 H 0.37024 0.40065 0.97964
 H114 H 0.31559 0.44816 1.07292
 H115 H 0.57297 0.65057 1.11677
 H116 H 0.62643 0.60221 1.02339
   
