data_POSCAR
  _audit_creation_date              2014-09-24
  _audit_creation_method            'ToBaCCo'
  _symmetry_space_group_name_H-M    'P1'
  _symmetry_Int_Tables_number       1
  _symmetry_cell_setting            triclinic
  loop_
  _symmetry_equiv_pos_as_xyz
 x,y,z
_cell_length_a 20.7403
_cell_length_b 20.6248
_cell_length_c 49.1921
_cell_angle_alpha 83.484200
_cell_angle_beta 95.516300
_cell_angle_gamma 117.431000
loop_
  _atom_site_label
  _atom_site_type_symbol
  _atom_site_fract_x
  _atom_site_fract_y
  _atom_site_fract_z
C1 C 0.01637 0.08758 0.51037
 C2 C -0.03095 0.03073 0.48962
 C3 C 0.00340 -0.00476 0.48022
 C4 C 0.08211 0.02148 0.49198
 C5 C 0.03965 0.04287 0.53255
 C6 C 0.07281 0.00710 0.52298
 C7 C 0.08523 0.13909 0.49560
 C8 C 0.11988 0.10524 0.48594
 H9 H -0.08895 0.01124 0.48629
 H10 H 0.11122 -0.00536 0.48398
 H11 H 0.02126 0.03162 0.55324
 H12 H 0.10545 0.19802 0.49350
 C13 C 1.02702 -0.00034 0.18970
 C14 C 1.08394 0.00538 0.17020
 C15 C 1.11584 0.07137 0.15515
 C16 C 1.08746 0.12526 0.16115
 C17 C 1.06652 0.06138 0.20622
 C18 C 1.10141 0.13097 0.19082
 C19 C 0.97371 0.01861 0.17123
 C20 C 1.00445 0.08333 0.15586
 H21 H 1.10452 -0.03422 0.17078
 H22 H 1.11151 0.17750 0.14829
 H23 H 1.07183 0.05435 0.22833
 H24 H 0.91593 -0.01811 0.17009
 C25 C -0.04831 0.90114 0.86054
 C26 C -0.04423 0.96913 0.84219
 C27 C -0.10487 0.95365 0.82484
 C28 C -0.16162 0.87232 0.82705
 C29 C -0.12032 0.87236 0.87458
 C30 C -0.17945 0.85762 0.85732
 C31 C -0.06088 0.84512 0.84038
 C32 C -0.11937 0.82978 0.82282
 H33 H -0.00232 1.02444 0.84464
 H34 H -0.21012 0.85862 0.81280
 H35 H -0.12215 0.87581 0.89631
 H36 H -0.02576 0.81923 0.84033
 O37 O 0.55794 0.04416 -0.03563
 O38 O 0.48751 0.11415 0.01468
 O39 O 0.61351 0.11630 0.00888
 O40 O 0.43776 0.05308 -0.03114
 O41 O 0.39792 -0.05302 -0.00647
 O42 O 0.57325 0.00800 0.03197
 O43 O 0.44879 0.00685 0.03854
 O44 O 0.51425 -0.06323 -0.01172
 Cu45 Cu 0.52911 0.09298 -0.01312
 Cu46 Cu 0.48033 -0.03573 0.01565
 C47 C 0.54562 -0.02266 -0.03253
 C48 C 0.45385 0.07081 0.03478
 C49 C 0.62337 0.07272 0.02719
 C50 C 0.38742 -0.01084 -0.02529
 O51 O -0.11194 0.51003 0.63173
 O52 O -0.16844 0.34464 0.68127
 O53 O -0.17011 0.47070 0.67968
 O54 O -0.14644 0.37258 0.62878
 O55 O -0.03219 0.40542 0.64281
 O56 O -0.05576 0.51117 0.69488
 O57 O -0.05323 0.38291 0.69493
 O58 O 0.00183 0.54087 0.64608
 Cu59 Cu -0.15972 0.42125 0.65409
 Cu60 Cu -0.02427 0.46415 0.67150
 C61 C -0.04388 0.55273 0.63026
 C62 C -0.11906 0.33600 0.69655
 C63 C -0.11869 0.50772 0.69600
 C64 C -0.08679 0.37162 0.62649
 O65 O 0.67957 0.54666 0.36234
 O66 O 0.53871 0.44091 0.31017
 O67 O 0.67243 0.54026 0.30892
 O68 O 0.55717 0.42244 0.36276
 O69 O 0.50403 0.49360 0.36294
 O70 O 0.63093 0.62104 0.31018
 O71 O 0.49698 0.52236 0.30838
 O72 O 0.62807 0.61932 0.36210
 Cu73 Cu 0.61676 0.48138 0.33644
 Cu74 Cu 0.55884 0.56987 0.33637
 C75 C 0.67798 0.60216 0.37080
 C76 C 0.49479 0.46571 0.29992
 C77 C 0.67354 0.60104 0.30056
 C78 C 0.51033 0.43605 0.37202
 C79 C -0.00653 0.21023 0.55681
 C80 C -0.07127 0.20823 0.54659
 C81 C -0.11043 0.16948 0.52425
 C82 C -0.08208 0.13032 0.51208
 C83 C -0.01589 0.13004 0.52257
 C84 C 0.02283 0.17229 0.54495
 O85 O 0.02140 0.24911 0.57852
 C86 C -0.02702 0.27219 0.58214
 C87 C -0.08459 0.24869 0.56306
 C88 C -0.14241 0.26480 0.56323
 C89 C -0.14135 0.30624 0.58404
 C90 C -0.08308 0.33079 0.60430
 C91 C -0.02458 0.31398 0.60310
 H92 H -0.16119 0.16924 0.51651
 H93 H -0.11178 0.10124 0.49447
 H94 H 0.07409 0.17454 0.55320
 H95 H -0.18717 0.24551 0.54805
 H96 H -0.18657 0.31871 0.58439
 H97 H 0.02034 0.33132 0.61827
 C98 C 0.88941 0.85376 0.23759
 C99 C 0.89164 0.79170 0.23132
 C100 C 0.93960 0.79308 0.21314
 C101 C 0.98640 0.86116 0.20040
 C102 C 0.98528 0.92672 0.20624
 C103 C 0.93594 0.92211 0.22543
 O104 O 0.83852 0.84021 0.25493
 C105 C 0.80787 0.76779 0.25968
 C106 C 0.83847 0.73566 0.24565
 C107 C 0.81496 0.66060 0.24744
 C108 C 0.75871 0.61687 0.26491
 C109 C 0.72683 0.64844 0.28010
 C110 C 0.75115 0.72514 0.27706
 H111 H 0.93960 0.74315 0.20834
 H112 H 1.02068 0.86103 0.18530
 H113 H 0.93184 0.97029 0.22986
 H114 H 0.83971 0.63662 0.23609
 H115 H 0.74076 0.55831 0.26689
 H116 H 0.72851 0.75096 0.28854
 C117 C 0.13354 -0.03878 -0.09701
 C118 C 0.11686 -0.10287 -0.08085
 C119 C 0.05015 -0.16413 -0.08230
 C120 C -0.00204 -0.15980 -0.10135
 C121 C 0.01212 -0.09465 -0.11853
 C122 C 0.08150 -0.03279 -0.11628
 O123 O 0.20172 0.01192 -0.09228
 C124 C 0.22781 -0.02147 -0.07279
 C125 C 0.17757 -0.09174 -0.06526
 C126 C 0.19210 -0.13770 -0.04564
 C127 C 0.26162 -0.11011 -0.03293
 C128 C 0.31526 -0.03760 -0.03995
 C129 C 0.29805 0.00747 -0.06032
 H130 H 0.03895 -0.21402 -0.06947
 H131 H -0.05397 -0.20817 -0.10305
 H132 H 0.09516 0.01720 -0.12928
 H133 H 0.15125 -0.19296 -0.04027
 H134 H 0.27335 -0.14559 -0.01751
 H135 H 0.33770 0.06295 -0.06616
 C136 C 0.01052 0.82577 0.56469
 C137 C 0.06848 0.81168 0.56282
 C138 C 0.13042 0.86013 0.54901
 C139 C 0.13231 0.92559 0.53641
 C140 C 0.07337 0.94144 0.53822
 C141 C 0.01158 0.89050 0.55257
 O142 O -0.04291 0.77297 0.57885
 C143 C -0.01809 0.72436 0.58624
 C144 C 0.04988 0.74557 0.57693
 C145 C 0.08734 0.70432 0.58303
 C146 C 0.05419 0.63945 0.59990
 C147 C -0.01546 0.61673 0.61011
 C148 C -0.05279 0.65916 0.60271
 H149 H 0.17536 0.84773 0.54782
 H150 H 0.17931 0.96372 0.52519
 H151 H -0.03530 0.89991 0.55364
 H152 H 0.14088 0.72227 0.57561
 H153 H 0.08335 0.60737 0.60540
 H154 H -0.10530 0.64384 0.61060
 C155 C 0.25419 0.24905 0.23686
 C156 C 0.27130 0.31711 0.22394
 C157 C 0.23312 0.32772 0.20048
 C158 C 0.17563 0.26547 0.18966
 C159 C 0.15631 0.19401 0.20260
 C160 C 0.19638 0.18678 0.22692
 O161 O 0.29787 0.25036 0.25861
 C162 C 0.34344 0.32106 0.25958
 C163 C 0.32920 0.36433 0.23892
 C164 C 0.36875 0.44024 0.23659
 C165 C 0.42436 0.47282 0.25662
 C166 C 0.44026 0.42933 0.27805
 C167 C 0.39979 0.35222 0.27932
 H168 H 0.24739 0.38200 0.19072
 H169 H 0.14537 0.27387 0.17163
 H170 H 0.18638 0.13409 0.23723
 H171 H 0.35629 0.47325 0.22030
 H172 H 0.45487 0.53200 0.25557
 H173 H 0.40986 0.31791 0.29577
 C174 C 0.70954 -0.07455 -0.11017
 C175 C 0.64730 -0.13881 -0.10529
 C176 C 0.63593 -0.20522 -0.11428
 C177 C 0.69177 -0.20558 -0.12832
 C178 C 0.75695 -0.14037 -0.13274
 C179 C 0.76529 -0.07383 -0.12399
 O180 O 0.71232 -0.01857 -0.09832
 C181 C 0.65068 -0.04801 -0.08544
 C182 C 0.60905 -0.12152 -0.08895
 C183 C 0.54560 -0.16459 -0.07529
 C184 C 0.52464 -0.13072 -0.05715
 C185 C 0.56667 -0.05501 -0.05318
 C186 C 0.63000 -0.01284 -0.06793
 H187 H 0.58704 -0.25535 -0.10979
 H188 H 0.68584 -0.25679 -0.13459
 H189 H 0.81560 -0.02378 -0.12657
 H190 H 0.51449 -0.22259 -0.07788
 H191 H 0.47602 -0.16367 -0.04594
 H192 H 0.66405 0.04451 -0.06478
 C193 C 0.24364 0.05772 0.10860
 C194 C 0.29316 0.13018 0.10410
 C195 C 0.28833 0.18595 0.11580
 C196 C 0.23021 0.16619 0.13274
 C197 C 0.17747 0.09174 0.13730
 C198 C 0.18487 0.03699 0.12488
 O199 O 0.25812 0.01287 0.09595
 C200 C 0.31795 0.05794 0.08311
 C201 C 0.34161 0.13044 0.08719
 C202 C 0.40232 0.18669 0.07478
 C203 C 0.43978 0.16718 0.05745
 C204 C 0.41674 0.09252 0.05340
 C205 C 0.35503 0.03741 0.06657
 H206 H 0.32833 0.24259 0.11229
 H207 H 0.22763 0.20912 0.14260
 H208 H 0.14576 -0.02022 0.12750
 H209 H 0.41966 0.24349 0.07805
 H210 H 0.48664 0.20990 0.04735
 H211 H 0.33518 -0.01997 0.06349
 C212 C 0.86735 0.84869 0.43538
 C213 C 0.89059 0.79567 0.44071
 C214 C 0.94962 0.80429 0.45849
 C215 C 0.98621 0.87012 0.47126
 C216 C 0.96408 0.92646 0.46596
 C217 C 0.90329 0.91497 0.44771
 O218 O 0.80975 0.82931 0.41798
 C219 C 0.79653 0.76279 0.41224
 C220 C 0.84446 0.73959 0.42553
 C221 C 0.84081 0.67182 0.42209
 C222 C 0.78560 0.62626 0.40410
 C223 C 0.73525 0.64890 0.39024
 C224 C 0.74106 0.71827 0.39456
 H225 H 0.96653 0.76156 0.46261
 H226 H 1.03078 0.87584 0.48572
 H227 H 0.88472 0.95637 0.44310
 H228 H 0.87936 0.65485 0.43272
 H229 H 0.78207 0.57355 0.40101
 H230 H 0.70410 0.73774 0.38415
 C231 C -0.09160 0.11647 0.77674
 C232 C -0.16339 0.10274 0.77462
 C233 C -0.21679 0.04467 0.78932
 C234 C -0.19582 -0.00209 0.80643
 C235 C -0.12248 0.00924 0.80857
 C236 C -0.06927 0.07056 0.79382
 O237 O -0.04993 0.17405 0.76056
 C238 C -0.09654 0.19666 0.74801
 C239 C -0.16671 0.15481 0.75578
 C240 C -0.22440 0.16785 0.74458
 C241 C -0.20893 0.22698 0.72465
 C242 C -0.13672 0.27168 0.71657
 C243 C -0.07996 0.25576 0.72847
 H244 H -0.27286 0.03509 0.78743
 H245 H -0.23747 -0.04762 0.81780
 H246 H -0.01314 0.08047 0.79475
 H247 H -0.27935 0.13369 0.75092
 H248 H -0.25282 0.23847 0.71585
 H249 H -0.02427 0.28833 0.72265
 C250 C 0.85874 0.06893 0.10128
 C251 C 0.87523 0.14126 0.09470
 C252 C 0.93514 0.19811 0.10681
 C253 C 0.97878 0.17924 0.12667
 C254 C 0.96173 0.10467 0.13394
 C255 C 0.90154 0.04928 0.12042
 O256 O 0.79841 0.02257 0.08862
 C257 C 0.77575 0.06627 0.07365
 C258 C 0.82073 0.13955 0.07636
 C259 C 0.80544 0.19420 0.06264
 C260 C 0.74111 0.17218 0.04578
 C261 C 0.69332 0.09666 0.04334
 C262 C 0.71171 0.04335 0.05737
 H263 H 0.94701 0.25477 0.10159
 H264 H 1.02429 0.22243 0.13685
 H265 H 0.88740 -0.00819 0.12474
 H266 H 0.84122 0.25159 0.06505
 H267 H 0.72768 0.21372 0.03524
 H268 H 0.67669 -0.01468 0.05596
 C269 C 0.26587 0.24776 0.44089
 C270 C 0.31868 0.22469 0.44565
 C271 C 0.30971 0.16291 0.46277
 C272 C 0.24363 0.12343 0.47573
 C273 C 0.18834 0.14627 0.47141
 C274 C 0.19983 0.20941 0.45361
 O275 O 0.28486 0.30700 0.42342
 C276 C 0.35131 0.32172 0.41704
 C277 C 0.37433 0.27293 0.43020
 C278 C 0.44130 0.27671 0.42624
 C279 C 0.48604 0.33228 0.40763
 C280 C 0.46353 0.38292 0.39330
 C281 C 0.39536 0.37810 0.39844
 H282 H 0.35216 0.14581 0.46610
 H283 H 0.23629 0.07606 0.48953
 H284 H 0.15837 0.22775 0.44954
 H285 H 0.45811 0.23760 0.43681
 H286 H 0.53807 0.33512 0.40414
 H287 H 0.37624 0.41523 0.38765
 C288 C -0.10194 0.71547 0.77193
 C289 C -0.17379 0.66815 0.76663
 C290 C -0.23052 0.67308 0.77775
 C291 C -0.21232 0.72831 0.79556
 C292 C -0.13853 0.77679 0.80187
 C293 C -0.08274 0.77083 0.78939
 O294 O -0.05634 0.70114 0.75947
 C295 C -0.10044 0.64312 0.74600
 C296 C -0.17279 0.62091 0.74980
 C297 C -0.22851 0.56135 0.73780
 C298 C -0.20912 0.52384 0.72081
 C299 C -0.13493 0.54603 0.71603
 C300 C -0.07964 0.60620 0.72919
 H301 H -0.28672 0.63495 0.77326
 H302 H -0.25550 0.73151 0.80516
 H303 H -0.02583 0.80757 0.79343
 H304 H -0.28498 0.54467 0.74121
 H305 H -0.25241 0.47762 0.71115
 H306 H -0.02273 0.62477 0.72589
   
