data_POSCAR
  _audit_creation_date              2014-09-24
  _audit_creation_method            'ToBaCCo'
  _symmetry_space_group_name_H-M    'P1'
  _symmetry_Int_Tables_number       1
  _symmetry_cell_setting            triclinic
  loop_
  _symmetry_equiv_pos_as_xyz
 x,y,z
_cell_length_a 23.1697
_cell_length_b 23.1681
_cell_length_c 23.1854
_cell_angle_alpha 89.988900
_cell_angle_beta 90.127600
_cell_angle_gamma 90.008500
loop_
  _atom_site_label
  _atom_site_type_symbol
  _atom_site_fract_x
  _atom_site_fract_y
  _atom_site_fract_z
O1 O -0.14148 0.08755 0.00077
 O2 O 0.15434 0.06424 -0.00143
 O3 O 0.00855 0.14418 0.08183
 O4 O 0.01200 0.14613 -0.08038
 O5 O 0.01070 0.07389 -0.14866
 O6 O 0.00633 0.07103 0.14962
 O7 O 0.09012 0.14041 -0.00102
 O8 O -0.06563 0.15222 0.00247
 Zr9 Zr 0.00865 0.09972 0.00037
 O10 O 0.05772 0.04676 -0.05197
 O11 O -0.04652 0.05251 0.05190
 C12 C -0.12017 0.13939 0.00256
 C13 C 0.14187 0.11895 -0.00212
 C14 C 0.00762 0.12496 0.13495
 C15 C 0.01266 0.12764 -0.13388
 H16 H 0.08342 0.06729 0.07711
 O17 O 0.05677 0.04512 0.05218
 H18 H -0.06912 0.07996 -0.07702
 O19 O -0.04638 0.05371 -0.05221
 O20 O 0.14178 -0.09206 0.00197
 O21 O -0.15456 -0.06774 -0.00310
 O22 O 0.08100 -0.01266 0.14702
 O23 O 0.08235 -0.00528 -0.14716
 O24 O -0.07283 0.00294 -0.14995
 O25 O -0.07396 0.00374 0.14852
 O26 O -0.01163 -0.15234 0.07202
 O27 O -0.01575 -0.14908 -0.07791
 O28 O -0.00094 -0.08604 0.14498
 O29 O -0.00616 -0.08009 -0.14870
 O30 O 0.14948 -0.01794 0.07541
 O31 O -0.14603 0.01064 0.07968
 O32 O -0.14587 0.00562 -0.08257
 O33 O 0.15030 -0.01283 -0.07507
 O34 O 0.06578 -0.15630 0.00035
 O35 O -0.08992 -0.14322 -0.00424
 Zr36 Zr 0.10153 -0.01031 -0.00007
 Zr37 Zr -0.10105 0.00590 -0.00104
 Zr38 Zr 0.00196 -0.00490 0.10078
 Zr39 Zr 0.00271 -0.00214 -0.10143
 Zr40 Zr -0.00800 -0.10270 -0.00186
 O41 O -0.05548 -0.04933 -0.05377
 O42 O 0.04915 -0.06014 0.05114
 C43 C 0.12041 -0.14385 0.00225
 C44 C -0.14200 -0.12237 -0.00449
 C45 C 0.13373 -0.01814 0.12865
 C46 C 0.13519 -0.00959 -0.12846
 C47 C -0.12674 0.00410 -0.13574
 C48 C -0.12726 0.00990 0.13296
 C49 C -0.00653 -0.13868 0.12555
 C50 C -0.01437 -0.13264 -0.13090
 H51 H -0.08198 -0.07351 0.07537
 O52 O -0.05568 -0.05052 0.05092
 H53 H 0.07180 -0.08523 -0.07767
 O54 O 0.04937 -0.05871 -0.05294
 O55 O 0.35894 0.58796 0.00216
 O56 O 0.65476 0.56547 -0.00110
 O57 O 0.50787 0.64416 0.08444
 O58 O 0.51376 0.64768 -0.07724
 O59 O 0.51205 0.57656 -0.14705
 O60 O 0.50670 0.57029 0.15109
 O61 O 0.59051 0.64157 0.00137
 O62 O 0.43458 0.65284 0.00436
 Zr63 Zr 0.50910 0.60054 0.00237
 O64 O 0.55796 0.54809 -0.05086
 O65 O 0.45410 0.55277 0.05323
 C66 C 0.38005 0.63983 0.00428
 C67 C 0.64230 0.62020 -0.00077
 C68 C 0.50657 0.62442 0.13743
 C69 C 0.51528 0.62986 -0.13075
 H70 H 0.58419 0.56811 0.07825
 O71 O 0.55773 0.54582 0.05321
 H72 H 0.43162 0.58155 -0.07561
 O73 O 0.45423 0.55500 -0.05099
 O74 O 0.64254 0.40892 0.00152
 O75 O 0.34637 0.43284 -0.00284
 O76 O 0.58333 0.48853 0.14702
 O77 O 0.58263 0.49637 -0.14681
 O78 O 0.42786 0.50554 -0.14948
 O79 O 0.42707 0.50320 0.14919
 O80 O 0.48990 0.34829 0.07271
 O81 O 0.48515 0.35203 -0.07820
 O82 O 0.49973 0.41503 0.14566
 O83 O 0.49414 0.42152 -0.14867
 O84 O 0.65062 0.48296 0.07464
 O85 O 0.35477 0.51045 0.08062
 O86 O 0.35485 0.50683 -0.08206
 O87 O 0.65067 0.48839 -0.07483
 O88 O 0.56672 0.34452 -0.00027
 O89 O 0.41124 0.35741 -0.00423
 Zr90 Zr 0.60209 0.49070 0.00011
 Zr91 Zr 0.39968 0.50655 -0.00030
 Zr92 Zr 0.50323 0.49536 0.10138
 Zr93 Zr 0.50317 0.49952 -0.10093
 Zr94 Zr 0.49300 0.39799 -0.00172
 O95 O 0.44532 0.45173 -0.05336
 O96 O 0.55031 0.44032 0.05139
 C97 C 0.62129 0.35706 0.00150
 C98 C 0.35926 0.37835 -0.00455
 C99 C 0.63616 0.48367 0.12817
 C100 C 0.63541 0.49166 -0.12813
 C101 C 0.37397 0.50626 -0.13530
 C102 C 0.37360 0.50913 0.13390
 C103 C 0.49404 0.36264 0.12622
 C104 C 0.48619 0.36873 -0.13118
 H105 H 0.41918 0.42684 0.07552
 O106 O 0.44547 0.45001 0.05124
 H107 H 0.57228 0.41620 -0.07777
 O108 O 0.54990 0.44258 -0.05285
 O109 O -0.14359 0.59153 0.50325
 O110 O 0.15307 0.56816 0.49716
 O111 O 0.01078 0.65210 0.57390
 O112 O 0.01127 0.65019 0.42409
 O113 O 0.00302 0.58188 0.35254
 O114 O 0.00210 0.58480 0.64645
 O115 O 0.08796 0.64342 0.49583
 O116 O -0.06798 0.65600 0.50229
 Zr117 Zr 0.00620 0.60284 0.49946
 O118 O 0.05390 0.54972 0.44739
 O119 O -0.05020 0.56015 0.55276
 C120 C -0.12268 0.64358 0.50380
 C121 C 0.13998 0.62256 0.49520
 C122 C 0.00773 0.63725 0.62727
 C123 C 0.00942 0.63476 0.37087
 H124 H 0.08130 0.57386 0.57587
 O125 O 0.05471 0.55075 0.55177
 H126 H -0.07427 0.58470 0.42380
 O127 O -0.05108 0.55851 0.44831
 O128 O 0.14108 0.41298 0.50210
 O129 O -0.15476 0.43526 0.50063
 O130 O 0.07355 0.49779 0.64974
 O131 O 0.07177 0.49767 0.35090
 O132 O -0.08499 0.50413 0.35450
 O133 O -0.08077 0.51294 0.64835
 O134 O -0.00776 0.35618 0.58391
 O135 O -0.01394 0.35402 0.42183
 O136 O -0.00495 0.42957 0.65116
 O137 O -0.01217 0.42565 0.35245
 O138 O 0.14554 0.49052 0.58140
 O139 O -0.14983 0.51771 0.57705
 O140 O -0.15198 0.51088 0.42727
 O141 O 0.14471 0.49337 0.41898
 O142 O 0.06553 0.34804 0.50348
 O143 O -0.09021 0.35938 0.50116
 Zr144 Zr 0.10011 0.49441 0.50019
 Zr145 Zr -0.10240 0.51002 0.50161
 Zr146 Zr -0.00223 0.50483 0.60177
 Zr147 Zr -0.00421 0.50254 0.39924
 Zr148 Zr -0.00901 0.40043 0.50211
 O149 O -0.05828 0.45346 0.44970
 O150 O 0.04645 0.44752 0.55342
 C151 C 0.12006 0.36104 0.50358
 C152 C -0.14202 0.38064 0.50004
 C153 C 0.12691 0.49226 0.63475
 C154 C 0.12558 0.49489 0.36581
 C155 C -0.13775 0.50697 0.37384
 C156 C -0.13364 0.51837 0.63018
 C157 C -0.00570 0.37563 0.63697
 C158 C -0.01517 0.37215 0.36832
 H159 H -0.08349 0.43237 0.57914
 O160 O -0.05729 0.45459 0.55387
 H161 H 0.06764 0.42031 0.42431
 O162 O 0.04512 0.44673 0.44902
 O163 O 0.35815 0.09196 0.50028
 O164 O 0.65449 0.06638 0.50005
 O165 O 0.51105 0.15093 0.57441
 O166 O 0.51639 0.14936 0.42370
 O167 O 0.50857 0.08076 0.35227
 O168 O 0.50020 0.08333 0.64642
 O169 O 0.58992 0.14211 0.49818
 O170 O 0.43424 0.15605 0.50063
 Zr171 Zr 0.50794 0.10221 0.49940
 O172 O 0.55639 0.04887 0.44819
 O173 O 0.44995 0.05946 0.55112
 C174 C 0.37955 0.14373 0.50136
 C175 C 0.64177 0.12090 0.49837
 C176 C 0.50677 0.13593 0.62770
 C177 C 0.51581 0.13336 0.37051
 H178 H 0.58086 0.07206 0.57731
 O179 O 0.55470 0.04925 0.55247
 H180 H 0.42957 0.08541 0.42195
 O181 O 0.45160 0.05857 0.44681
 O182 O 0.64118 -0.08892 0.50413
 O183 O 0.34538 -0.06408 0.49539
 O184 O 0.57128 -0.00453 0.65047
 O185 O 0.57570 -0.00344 0.35196
 O186 O 0.42002 0.00604 0.35152
 O187 O 0.41667 0.01123 0.64576
 O188 O 0.48951 -0.14535 0.58099
 O189 O 0.48772 -0.14605 0.41914
 O190 O 0.49088 -0.07265 0.64924
 O191 O 0.49199 -0.07369 0.35086
 O192 O 0.64453 -0.01147 0.58339
 O193 O 0.34917 0.01676 0.57301
 O194 O 0.35104 0.01373 0.42241
 O195 O 0.64728 -0.00853 0.42138
 O196 O 0.56517 -0.15337 0.50307
 O197 O 0.40930 -0.14052 0.49697
 Zr198 Zr 0.60089 -0.00713 0.50156
 Zr199 Zr 0.39841 0.01015 0.49838
 Zr200 Zr 0.49633 0.00342 0.60099
 Zr201 Zr 0.49903 0.00225 0.39873
 Zr202 Zr 0.49095 -0.10032 0.50002
 O203 O 0.44302 -0.04667 0.44698
 O204 O 0.54556 -0.05399 0.55316
 C205 C 0.61982 -0.14077 0.50469
 C206 C 0.35767 -0.11880 0.49496
 C207 C 0.62496 -0.00980 0.63632
 C208 C 0.62909 -0.00712 0.36790
 C209 C 0.36699 0.01092 0.36932
 C210 C 0.36412 0.01646 0.62657
 C211 C 0.48953 -0.12640 0.63416
 C212 C 0.48856 -0.12733 0.36580
 H213 H 0.41505 -0.06816 0.57534
 O214 O 0.44213 -0.04592 0.55105
 H215 H 0.56970 -0.08073 0.42464
 O216 O 0.54684 -0.05421 0.44892
 C217 C 0.22193 0.25777 -0.00529
 C218 C 0.27954 0.23918 -0.00532
 N219 N 0.29136 0.18180 -0.00472
 C220 C 0.24813 0.14205 -0.00394
 C221 C 0.19021 0.16047 -0.00360
 N222 N 0.17876 0.21817 -0.00439
 N223 N 0.21005 0.31511 -0.00579
 C224 C 0.25322 0.35488 -0.00610
 C225 C 0.31117 0.33654 -0.00575
 N226 N 0.32272 0.27883 -0.00549
 H227 H 0.25900 0.09663 -0.00341
 H228 H 0.24226 0.40028 -0.00631
 C229 C 0.21976 -0.23849 0.49224
 C230 C 0.27734 -0.25721 0.49241
 N231 N 0.28914 -0.31455 0.49262
 C232 C 0.24591 -0.35420 0.49294
 C233 C 0.18801 -0.33572 0.49325
 N234 N 0.17650 -0.27803 0.49274
 N235 N 0.20805 -0.18109 0.49215
 C236 C 0.25138 -0.14146 0.49247
 C237 C 0.30925 -0.16006 0.49311
 N238 N 0.32057 -0.21775 0.49292
 H239 H 0.25680 -0.39962 0.49329
 H240 H 0.24065 -0.09600 0.49259
 C241 C 0.78020 0.74051 -0.00474
 C242 C 0.72263 0.75914 -0.00401
 N243 N 0.71086 0.81649 -0.00423
 C244 C 0.75404 0.85627 -0.00490
 C245 C 0.81217 0.83798 -0.00522
 N246 N 0.82346 0.78014 -0.00529
 N247 N 0.79191 0.68309 -0.00446
 C248 C 0.74863 0.64337 -0.00336
 C249 C 0.69070 0.66182 -0.00236
 N250 N 0.67938 0.71957 -0.00280
 H251 H 0.74283 0.90162 -0.00487
 H252 H 0.75946 0.59793 -0.00311
 C253 C 0.77868 0.24161 0.49807
 C254 C 0.72100 0.25999 0.49725
 N255 N 0.70890 0.31730 0.49699
 C256 C 0.75194 0.35721 0.49765
 C257 C 0.80991 0.33899 0.49875
 N258 N 0.82165 0.28137 0.49883
 N259 N 0.79080 0.18432 0.49840
 C260 C 0.74777 0.14440 0.49812
 C261 C 0.68980 0.16260 0.49760
 N262 N 0.67803 0.22022 0.49708
 H263 H 0.74089 0.40260 0.49745
 H264 H 0.75885 0.09902 0.49853
 C265 C 0.74114 0.21941 0.00334
 C266 C 0.75987 0.27699 0.00430
 N267 N 0.81723 0.28875 0.00527
 C268 C 0.85685 0.24548 0.00514
 C269 C 0.83831 0.18759 0.00384
 N270 N 0.78063 0.17617 0.00307
 N271 N 0.68378 0.20766 0.00231
 C272 C 0.64416 0.25094 0.00203
 C273 C 0.66272 0.30882 0.00267
 N274 N 0.72039 0.32024 0.00390
 H275 H 0.90229 0.25630 0.00579
 H276 H 0.59872 0.24014 0.00110
 C277 C 0.74027 -0.27862 0.50668
 C278 C 0.75887 -0.22103 0.50635
 N279 N 0.81623 -0.20925 0.50581
 C280 C 0.85602 -0.25243 0.50536
 C281 C 0.83773 -0.31057 0.50528
 N282 N 0.77990 -0.32187 0.50610
 N283 N 0.68286 -0.29037 0.50708
 C284 C 0.64312 -0.24710 0.50694
 C285 C 0.66151 -0.18915 0.50623
 N286 N 0.71927 -0.17778 0.50609
 H287 H 0.90137 -0.24123 0.50481
 H288 H 0.59769 -0.25797 0.50710
 C289 C 0.25926 0.28132 0.50391
 C290 C 0.24071 0.22369 0.50428
 N291 N 0.18337 0.21179 0.50499
 C292 C 0.14359 0.25495 0.50517
 C293 C 0.16190 0.31292 0.50448
 N294 N 0.21960 0.32448 0.50395
 N295 N 0.31664 0.29318 0.50317
 C296 C 0.35641 0.24997 0.50263
 C297 C 0.33801 0.19203 0.50271
 N298 N 0.28032 0.18054 0.50362
 H299 H 0.09819 0.24397 0.50560
 H300 H 0.40182 0.26086 0.50195
 C301 C 0.25928 0.77672 0.00595
 C302 C 0.24087 0.71905 0.00506
 N303 N 0.18356 0.70698 0.00394
 C304 C 0.14368 0.75005 0.00345
 C305 C 0.16194 0.80801 0.00392
 N306 N 0.21956 0.81972 0.00530
 N307 N 0.31657 0.78883 0.00700
 C308 C 0.35646 0.74580 0.00697
 C309 C 0.33827 0.68781 0.00566
 N310 N 0.28064 0.67605 0.00486
 H311 H 0.09829 0.73904 0.00242
 H312 H 0.40183 0.75689 0.00764
 C313 C -0.01443 0.25762 0.22473
 C314 C 0.00328 0.23833 0.27956
 N315 N 0.02337 0.18370 0.28544
 C316 C 0.02623 0.14742 0.23940
 C317 C 0.00840 0.16628 0.18420
 N318 N -0.01148 0.22140 0.17837
 N319 N -0.03461 0.31221 0.21886
 C320 C -0.03720 0.34858 0.26483
 C321 C -0.01858 0.33000 0.31988
 N322 N 0.00101 0.27479 0.32578
 H323 H 0.04226 0.10403 0.24599
 H324 H -0.05308 0.39203 0.25821
 C325 C 0.50890 0.27877 0.73963
 C326 C 0.47943 0.22786 0.75499
 N327 N 0.44974 0.22579 0.80517
 C328 C 0.44901 0.27190 0.84118
 C329 C 0.47951 0.32244 0.82648
 N330 N 0.50842 0.32481 0.77569
 N331 N 0.53872 0.28084 0.68956
 C332 C 0.54000 0.23457 0.65383
 C333 C 0.51022 0.18368 0.66885
 N334 N 0.48072 0.18147 0.71934
 H335 H 0.42571 0.26875 0.88149
 H336 H 0.56382 0.23764 0.61382
 C337 C 0.00834 0.77915 0.73940
 C338 C -0.01946 0.72739 0.75499
 N339 N -0.04821 0.72408 0.80561
 C340 C -0.04955 0.76987 0.84191
 C341 C -0.02060 0.82120 0.82697
 N342 N 0.00728 0.82481 0.77574
 N343 N 0.03715 0.78246 0.68882
 C344 C 0.03901 0.73650 0.65279
 C345 C 0.01093 0.68481 0.66816
 N346 N -0.01753 0.68139 0.71909
 H347 H -0.07208 0.76584 0.88259
 H348 H 0.06192 0.74042 0.61232
 C349 C 0.49451 -0.24205 0.22224
 C350 C 0.49701 -0.26355 0.27898
 N351 N 0.50312 -0.32102 0.28739
 C352 C 0.50671 -0.35800 0.24205
 C353 C 0.50452 -0.33692 0.18459
 N354 N 0.49851 -0.27891 0.17648
 N355 N 0.48786 -0.18459 0.21385
 C356 C 0.48420 -0.14767 0.25925
 C357 C 0.48772 -0.16869 0.31650
 N358 N 0.49387 -0.22661 0.32473
 H359 H 0.51137 -0.40357 0.25123
 H360 H 0.47926 -0.10207 0.25042
 C361 C 0.00957 0.77670 0.25687
 C362 C -0.00266 0.72070 0.23658
 N363 N -0.01670 0.71281 0.18056
 C364 C -0.01883 0.75815 0.14374
 C365 C -0.00682 0.81472 0.16380
 N366 N 0.00688 0.82238 0.22029
 N367 N 0.02439 0.78445 0.31275
 C368 C 0.02674 0.73900 0.34948
 C369 C 0.01297 0.68291 0.32971
 N370 N -0.00106 0.67517 0.27338
 H371 H -0.03008 0.74971 0.09918
 H372 H 0.03842 0.74699 0.39399
 C373 C 0.49267 -0.23865 0.77895
 C374 C 0.51524 -0.25669 0.72558
 N375 N 0.54020 -0.30942 0.72152
 C376 C 0.54287 -0.34524 0.76790
 C377 C 0.51942 -0.32792 0.82133
 N378 N 0.49506 -0.27456 0.82551
 N379 N 0.46775 -0.18590 0.78302
 C380 C 0.46481 -0.15020 0.73657
 C381 C 0.48765 -0.16778 0.68296
 N382 N 0.51228 -0.22103 0.67886
 H383 H 0.56244 -0.38736 0.76285
 H384 H 0.44504 -0.10817 0.74158
 C385 C 0.51999 0.27356 0.25577
 C386 C 0.49549 0.22051 0.23902
 N387 N 0.46960 0.21570 0.18687
 C388 C 0.46742 0.26141 0.15045
 C389 C 0.49211 0.31453 0.16698
 N390 N 0.51773 0.31935 0.21947
 N391 N 0.54574 0.27836 0.30801
 C392 C 0.54724 0.23281 0.34471
 C393 C 0.52160 0.18005 0.32854
 N394 N 0.49671 0.17505 0.27574
 H395 H 0.44670 0.25618 0.10888
 H396 H 0.56741 0.23810 0.38655
 C397 C 0.00399 0.26187 0.78145
 C398 C 0.00747 0.24034 0.72477
 N399 N 0.01465 0.18302 0.71651
 C400 C 0.01783 0.14611 0.76189
 C401 C 0.01356 0.16695 0.81934
 N402 N 0.00715 0.22497 0.82737
 N403 N -0.00344 0.31929 0.78952
 C404 C -0.00739 0.35603 0.74391
 C405 C -0.00382 0.33481 0.68675
 N406 N 0.00360 0.27702 0.67886
 H407 H 0.02327 0.10063 0.75271
 H408 H -0.01315 0.40158 0.75247
 C409 C 0.22442 0.00915 0.25671
 C410 C 0.27614 -0.01878 0.24133
 N411 N 0.27879 -0.04875 0.19125
 C412 C 0.23243 -0.05135 0.15547
 C413 C 0.18091 -0.02274 0.17044
 N414 N 0.17810 0.00661 0.22101
 N415 N 0.22171 0.03939 0.30655
 C416 C 0.26807 0.04238 0.34217
 C417 C 0.31968 0.01379 0.32742
 N418 N 0.32259 -0.01597 0.27701
 H419 H 0.23602 -0.07478 0.11523
 H420 H 0.26440 0.06633 0.38210
 C421 C 0.24074 0.49492 0.77908
 C422 C 0.26232 0.50042 0.72260
 N423 N 0.31953 0.50866 0.71475
 C424 C 0.35624 0.51135 0.76037
 C425 C 0.33516 0.50597 0.81759
 N426 N 0.27734 0.49809 0.82521
 N427 N 0.18353 0.48597 0.78678
 C428 C 0.14694 0.48302 0.74097
 C429 C 0.16805 0.48981 0.68411
 N430 N 0.22571 0.49808 0.67652
 H431 H 0.40164 0.51785 0.75158
 H432 H 0.10149 0.47609 0.74917
 C433 C 0.73927 -0.00608 0.78000
 C434 C 0.76061 -0.00292 0.72328
 N435 N 0.81797 0.00333 0.71475
 C436 C 0.85510 0.00630 0.75999
 C437 C 0.83428 0.00322 0.81743
 N438 N 0.77632 -0.00273 0.82572
 N439 N 0.68182 -0.01279 0.78835
 C440 C 0.64479 -0.01585 0.74287
 C441 C 0.66580 -0.01164 0.68578
 N442 N 0.72363 -0.00549 0.67761
 H443 H 0.90061 0.01118 0.75071
 H444 H 0.59917 -0.02086 0.75147
 C445 C -0.28063 0.49640 0.26085
 C446 C -0.22415 0.48715 0.24049
 N447 N -0.21571 0.47412 0.18435
 C448 C -0.26089 0.47087 0.14731
 C449 C -0.31778 0.48126 0.16713
 N450 N -0.32608 0.49310 0.22393
 N451 N -0.28896 0.51005 0.31692
 C452 C -0.24355 0.51472 0.35360
 C453 C -0.18679 0.50524 0.33345
 N454 N -0.17860 0.49160 0.27711
 H455 H -0.25202 0.46080 0.10260
 H456 H -0.25197 0.52555 0.39820
 C457 C 0.22277 0.01591 0.74049
 C458 C 0.27681 -0.00588 0.75784
 N459 N 0.28268 -0.03019 0.81059
 C460 C 0.23717 -0.03326 0.84710
 C461 C 0.18305 -0.01099 0.83020
 N462 N 0.17712 0.01293 0.77698
 N463 N 0.21698 0.04002 0.68757
 C464 C 0.26251 0.04264 0.65092
 C465 C 0.31646 0.02010 0.66790
 N466 N 0.32230 -0.00336 0.72127
 H467 H 0.24340 -0.05265 0.88914
 H468 H 0.25641 0.06155 0.60864
 C469 C 0.23934 0.49577 0.22202
 C470 C 0.25948 0.51118 0.27724
 N471 N 0.31516 0.52794 0.28374
 C472 C 0.35173 0.52933 0.23797
 C473 C 0.33212 0.51312 0.18254
 N474 N 0.27592 0.49698 0.17603
 N475 N 0.18371 0.47896 0.21547
 C476 C 0.14721 0.47724 0.26125
 C477 C 0.16686 0.49298 0.31681
 N478 N 0.22299 0.50948 0.32332
 H479 H 0.39602 0.54255 0.24498
 H480 H 0.10303 0.46375 0.25415
 C481 C 0.74146 -0.00852 0.22371
 C482 C 0.76056 0.01319 0.27719
 N483 N 0.81433 0.03589 0.28134
 C484 C 0.85004 0.03722 0.23489
 C485 C 0.83143 0.01488 0.18134
 N486 N 0.77716 -0.00728 0.17712
 N487 N 0.68785 -0.03142 0.21950
 C488 C 0.65220 -0.03305 0.26590
 C489 C 0.67066 -0.01073 0.31953
 N490 N 0.72486 0.01172 0.32387
 H491 H 0.89297 0.05504 0.23991
 H492 H 0.60946 -0.05128 0.26077
 C493 C -0.27468 0.52044 0.74361
 C494 C -0.22227 0.49411 0.75971
 N495 N -0.21849 0.46568 0.81055
 C496 C -0.26452 0.46282 0.84637
 C497 C -0.31691 0.48956 0.83068
 N498 N -0.32082 0.51763 0.77939
 N499 N -0.27843 0.54863 0.69258
 C500 C -0.23249 0.55087 0.65648
 C501 C -0.18037 0.52359 0.67207
 N502 N -0.17641 0.49618 0.72364
 H503 H -0.26007 0.44019 0.88700
 H504 H -0.23693 0.57289 0.61551
   
