data_POSCAR
  _audit_creation_date              2014-09-24
  _audit_creation_method            'ToBaCCo'
  _symmetry_space_group_name_H-M    'P1'
  _symmetry_Int_Tables_number       1
  _symmetry_cell_setting            triclinic
  loop_
  _symmetry_equiv_pos_as_xyz
 x,y,z
_cell_length_a 13.0077
_cell_length_b 12.1512
_cell_length_c 32.1884
_cell_angle_alpha 87.301200
_cell_angle_beta 92.963600
_cell_angle_gamma 118.424700
loop_
  _atom_site_label
  _atom_site_type_symbol
  _atom_site_fract_x
  _atom_site_fract_y
  _atom_site_fract_z
C1 C -0.00379 0.04176 0.49061
 C2 C 1.02082 -0.02219 0.16596
 C3 C -0.00991 0.99657 0.84255
 O4 O 0.55712 -0.12613 0.04546
 O5 O 0.34940 -0.12478 -0.03689
 O6 O 0.53771 -0.15502 -0.03485
 O7 O 0.34281 -0.15609 0.04345
 O8 O 0.42765 0.05025 0.03919
 O9 O 0.64026 0.05087 -0.03252
 O10 O 0.45126 0.08109 -0.04094
 O11 O 0.64140 0.07994 0.04656
 Cu12 Cu 0.43807 -0.16031 0.00435
 Cu13 Cu 0.54866 0.08532 0.00280
 C14 C 0.63575 -0.02231 0.05989
 C15 C 0.36465 -0.01997 -0.05265
 C16 C 0.62523 -0.05344 -0.04555
 C17 C 0.34818 -0.05394 0.05339
 O18 O 0.05064 0.44511 0.62643
 O19 O 0.05313 0.65207 0.70667
 O20 O 0.08777 0.45344 0.70834
 O21 O 0.09212 0.67572 0.62815
 O22 O -0.10120 0.57741 0.62467
 O23 O -0.10479 0.35901 0.70910
 O24 O -0.14009 0.54954 0.70517
 O25 O -0.14177 0.33945 0.62785
 Cu26 Cu 0.08879 0.56427 0.66815
 Cu27 Cu -0.13959 0.44728 0.66585
 C28 C -0.04696 0.35750 0.61290
 C29 C -0.04464 0.63677 0.71894
 C30 C -0.00676 0.37168 0.72370
 C31 C -0.00298 0.66651 0.61299
 O32 O 0.59539 0.64995 0.28776
 O33 O 0.37070 0.45053 0.36192
 O34 O 0.54947 0.66975 0.36442
 O35 O 0.37009 0.46824 0.28105
 O36 O 0.45186 0.34616 0.29126
 O37 O 0.64405 0.55943 0.37243
 O38 O 0.46185 0.33791 0.37378
 O39 O 0.67300 0.52314 0.29594
 Cu40 Cu 0.46369 0.57033 0.32198
 Cu41 Cu 0.56466 0.42965 0.33395
 C42 C 0.67480 0.62098 0.28005
 C43 C 0.37968 0.36087 0.38109
 C44 C 0.62973 0.65225 0.38196
 C45 C 0.37652 0.37144 0.27236
 C46 C 0.04903 0.25843 0.52018
 C47 C -0.03232 0.13012 0.51525
 C48 C -0.13234 0.08383 0.54006
 C49 C -0.14135 0.15863 0.57088
 C50 C -0.04954 0.28091 0.57817
 C51 C 0.03961 0.33031 0.55000
 C52 C 0.16807 0.41079 0.55562
 C53 C 0.18046 0.33292 0.52275
 H54 H -0.19905 -0.01302 0.53793
 H55 H -0.21575 0.11766 0.59083
 H56 H 0.20227 0.39831 0.58688
 H57 H 0.19646 0.50932 0.54524
 H58 H 0.22407 0.27831 0.53510
 H59 H 0.21756 0.38847 0.49378
 C60 C 0.92549 0.91485 0.23777
 C61 C 0.95460 0.87835 0.20075
 C62 C 0.89662 0.74684 0.19467
 C63 C 0.81029 0.66161 0.22163
 C64 C 0.77404 0.70504 0.25458
 C65 C 0.83933 0.83079 0.26374
 C66 C 0.80058 0.92135 0.27557
 C67 C 0.89276 1.01431 0.24691
 H68 H 0.90580 0.70824 0.16681
 H69 H 0.76446 0.56323 0.21432
 H70 H 0.82033 0.94529 0.30897
 H71 H 0.70985 0.89560 0.26436
 H72 H 0.96321 1.09315 0.26437
 H73 H 0.85371 1.04143 0.21943
 C74 C 0.20834 0.10469 -0.12875
 C75 C 0.09333 0.00192 -0.13345
 C76 C 0.07963 -0.11206 -0.11360
 C77 C 0.16954 -0.12125 -0.09020
 C78 C 0.27823 -0.01567 -0.08353
 C79 C 0.29543 0.09471 -0.10447
 C80 C 0.35541 0.22679 -0.09166
 C81 C 0.26386 0.24239 -0.11866
 H82 H -0.00388 -0.19564 -0.11427
 H83 H 0.15046 -0.20999 -0.07495
 H84 H 0.44514 0.27944 -0.10375
 H85 H 0.34786 0.23638 -0.05792
 H86 H 0.30637 0.30740 -0.14527
 H87 H 0.21038 0.27025 -0.10086
 C88 C -0.08322 0.81601 0.52139
 C89 C 0.00243 0.94503 0.52257
 C90 C 0.08137 0.98066 0.55734
 C91 C 0.08105 0.89014 0.58670
 C92 C 0.00032 0.76194 0.58251
 C93 C -0.08283 0.72892 0.55023
 C94 C -0.11940 0.62957 0.51885
 C95 C -0.12948 0.72199 0.48543
 H96 H 0.14421 1.07775 0.56160
 H97 H 0.14396 0.92033 0.61262
 H98 H -0.20481 0.54730 0.52627
 H99 H -0.04942 0.60417 0.51388
 H100 H -0.22652 0.68937 0.48571
 H101 H -0.02994 0.78352 0.40304
 C102 C 0.22529 0.09877 0.20097
 C103 C 0.11780 0.09540 0.18879
 C104 C 0.10765 0.20094 0.20050
 C105 C 0.19489 0.29539 0.22550
 C106 C 0.29483 0.28687 0.24049
 C107 C 0.31029 0.19081 0.22541
 C108 C 0.34699 0.10344 0.24690
 C109 C 0.25484 0.00215 0.21979
 H110 H 0.02831 0.20637 0.19488
 H111 H 0.17912 0.36949 0.23576
 H112 H 0.32669 0.08876 0.28049
 H113 H 0.43785 0.12654 0.23972
 H114 H 0.18253 -0.07178 0.23793
 H115 H 0.29500 -0.03054 0.19699
 C116 C 0.91772 0.02068 -0.08657
 C117 C 0.89207 -0.04191 -0.12468
 C118 C 0.77102 -0.12786 -0.13180
 C119 C 0.68397 -0.13697 -0.10510
 C120 C 0.71384 -0.05752 -0.07117
 C121 C 0.83210 0.01314 -0.06111
 C122 C 0.90224 0.14307 -0.04646
 C123 C 0.99739 0.15239 -0.07411
 H124 H 0.73908 -0.17866 -0.16019
 H125 H 0.59282 -0.19808 -0.11321
 H126 H 0.92588 0.14569 -0.01271
 H127 H 0.86465 0.20515 -0.05717
 H128 H 1.07453 0.15967 -0.05542
 H129 H 1.01525 0.22138 -0.10030
 C130 C 0.10143 -0.16043 0.12934
 C131 C 0.08988 -0.05092 0.13360
 C132 C 0.15421 0.04858 0.10488
 C133 C 0.23594 0.04675 0.07867
 C134 C 0.25706 -0.05593 0.07932
 C135 C 0.18289 -0.16099 0.10300
 C136 C 0.20534 -0.25177 0.12895
 C137 C 0.11355 -0.25696 0.15753
 H138 H 0.15006 0.13471 0.10549
 H139 H 0.28617 0.12861 0.05921
 H140 H 0.29497 -0.20863 0.14343
 H141 H 0.17798 -0.34070 0.11271
 H142 H 0.14708 -0.22659 0.18945
 H143 H 0.03536 -0.35096 0.15648
 C144 C 0.93623 0.88119 0.43779
 C145 C 0.90854 0.96407 0.45669
 C146 C 0.79585 0.95236 0.44718
 C147 C 0.70683 0.85324 0.42293
 C148 C 0.71513 0.74721 0.41003
 C149 C 0.81983 0.74900 0.41828
 C150 C 0.88710 0.62942 0.42958
 C151 C 1.04068 0.79583 0.45478
 H152 H 0.77454 1.02047 0.45912
 H153 H 0.62634 0.85716 0.41585
 H154 H 0.90439 0.59537 0.40037
 H155 H 0.83377 0.54302 0.44852
 H156 H 1.12006 0.83086 0.43548
 H157 H 1.07578 0.79705 0.48716
 C158 C -0.10345 0.12049 0.80844
 C159 C -0.00087 0.11121 0.82079
 C160 C 0.10291 0.20592 0.80276
 C161 C 0.10276 0.29606 0.77363
 C162 C -0.00240 0.29289 0.75939
 C163 C -0.10325 0.20902 0.77937
 C164 C -0.21992 0.12411 0.76079
 C165 C -0.22200 0.02598 0.79177
 H166 H 0.18371 0.20340 0.80597
 H167 H 0.18424 0.36059 0.75941
 H168 H -0.21617 0.10160 0.72798
 H169 H -0.28572 0.15493 0.76658
 H170 H -0.22079 -0.05367 0.77658
 H171 H -0.29221 -0.00005 0.81434
 C172 C 0.90489 0.09521 0.13310
 C173 C 0.92224 -0.01123 0.13898
 C174 C 0.83635 -0.12146 0.11934
 C175 C 0.73857 -0.12745 0.09725
 C176 C 0.72453 -0.02079 0.09085
 C177 C 0.80774 0.08923 0.10999
 C178 C 0.87403 0.21565 0.09051
 C179 C 0.98097 0.22269 0.11352
 H180 H 0.84631 -0.20429 0.11915
 H181 H 0.67874 -0.21420 0.08239
 H182 H 0.84662 0.28257 0.10173
 H183 H 0.87821 0.21389 0.05615
 H184 H 1.01832 0.30064 0.13568
 H185 H 1.04451 0.22462 0.09154
 C186 C 0.09663 0.20466 0.43449
 C187 C 0.10467 0.12267 0.46507
 C188 C 0.21269 0.11975 0.46754
 C189 C 0.30491 0.19815 0.44054
 C190 C 0.29103 0.28117 0.41088
 C191 C 0.18456 0.28036 0.40979
 C192 C 0.11526 0.33269 0.38645
 C193 C 0.01450 0.24696 0.41464
 H194 H 0.22589 0.05718 0.48950
 H195 H 0.38603 0.19338 0.44277
 H196 H 0.09899 0.30546 0.35330
 H197 H 0.14970 0.43403 0.39195
 H198 H -0.05993 0.17135 0.39742
 H199 H -0.00976 0.29895 0.43621
 C200 C 0.02894 0.93741 0.77051
 C201 C -0.03530 0.90009 0.80761
 C202 C -0.11048 0.76862 0.81240
 C203 C -0.11950 0.68325 0.78243
 C204 C -0.04736 0.72427 0.74805
 C205 C 0.02234 0.85199 0.74199
 C206 C 0.14768 0.92169 0.73184
 C207 C 0.15769 1.01590 0.76288
 H208 H -0.15650 0.72770 0.84061
 H209 H -0.17566 0.58407 0.78803
 H210 H 0.16030 0.95857 0.69919
 H211 H 0.19728 0.87110 0.74192
 H212 H 0.17951 1.10711 0.74695
 H213 H 0.21435 1.02050 0.79051
   
