data_POSCAR
  _audit_creation_date              2014-09-24
  _audit_creation_method            'ToBaCCo'
  _symmetry_space_group_name_H-M    'P1'
  _symmetry_Int_Tables_number       1
  _symmetry_cell_setting            triclinic
  loop_
  _symmetry_equiv_pos_as_xyz
 x,y,z
_cell_length_a 48.2333
_cell_length_b 48.0830
_cell_length_c 48.2835
_cell_angle_alpha 89.935500
_cell_angle_beta 90.000800
_cell_angle_gamma 90.099500
loop_
  _atom_site_label
  _atom_site_type_symbol
  _atom_site_fract_x
  _atom_site_fract_y
  _atom_site_fract_z
N1 N 0.59213 0.66896 0.61363
 N2 N 0.58093 0.65721 0.63558
 C3 C 0.55844 0.67194 0.64325
 C4 C 0.55560 0.69390 0.62511
 C5 C 0.57718 0.69151 0.60658
 H6 H 0.54516 0.66717 0.66067
 H7 H 0.58165 0.70515 0.58931
 Cu8 Cu 0.59728 0.62410 0.65198
 Cu9 Cu 0.62522 0.65416 0.59575
 Cu10 Cu 0.65433 0.59498 0.62493
 N11 N 0.61365 0.59100 0.66837
 N12 N 0.63610 0.57978 0.65767
 C13 C 0.64343 0.55750 0.67291
 C14 C 0.62456 0.55479 0.69416
 C15 C 0.60592 0.57623 0.69084
 H16 H 0.66117 0.54437 0.66891
 H17 H 0.58824 0.58074 0.70387
 N18 N 0.66968 0.61345 0.59179
 N19 N 0.65863 0.63601 0.58072
 C20 C 0.67368 0.64351 0.55840
 C21 C 0.69504 0.62479 0.55544
 C22 C 0.69203 0.60602 0.57679
 H23 H 0.66943 0.66117 0.54520
 H24 H 0.70514 0.58828 0.58097
 H25 H 0.61959 0.61337 0.60796
 H26 H 0.64168 0.63559 0.63067
 N27 N 0.90797 0.33002 0.11393
 N28 N 0.91899 0.34153 0.13608
 C29 C 0.94144 0.32674 0.14379
 C30 C 0.94442 0.30503 0.12543
 C31 C 0.92299 0.30758 0.10675
 H32 H 0.95462 0.33138 0.16130
 H33 H 0.91867 0.29414 0.08932
 Cu34 Cu 0.90289 0.37477 0.15239
 Cu35 Cu 0.87507 0.34503 0.09590
 Cu36 Cu 0.84597 0.40411 0.12500
 N37 N 0.88624 0.40768 0.16881
 N38 N 0.86399 0.41910 0.15790
 C39 C 0.85677 0.44147 0.17300
 C40 C 0.87548 0.44407 0.19441
 C41 C 0.89390 0.42242 0.19129
 H42 H 0.83921 0.45479 0.16884
 H43 H 0.91146 0.41783 0.20442
 N44 N 0.83076 0.38583 0.09176
 N45 N 0.84181 0.36329 0.08071
 C46 C 0.82681 0.35585 0.05835
 C47 C 0.80547 0.37459 0.05536
 C48 C 0.80844 0.39331 0.07671
 H49 H 0.83103 0.33819 0.04519
 H50 H 0.79532 0.41103 0.08088
 H51 H 0.88085 0.38572 0.10829
 H52 H 0.85857 0.36346 0.13084
 N53 N 0.40798 0.16927 -0.11322
 N54 N 0.41918 0.15753 -0.13513
 C55 C 0.44176 0.17223 -0.14276
 C56 C 0.44465 0.19416 -0.12463
 C57 C 0.42301 0.19180 -0.10617
 H58 H 0.45502 0.16749 -0.16018
 H59 H 0.41853 0.20546 -0.08897
 Cu60 Cu 0.40263 0.12454 -0.15158
 Cu61 Cu 0.37470 0.15457 -0.09549
 Cu62 Cu 0.34518 0.09567 -0.12487
 N63 N 0.38608 0.09157 -0.16807
 N64 N 0.36345 0.08047 -0.15753
 C65 C 0.35606 0.05825 -0.17280
 C66 C 0.37507 0.05541 -0.19390
 C67 C 0.39385 0.07675 -0.19044
 H68 H 0.33821 0.04518 -0.16892
 H69 H 0.41169 0.08113 -0.20331
 N70 N 0.32985 0.11412 -0.09179
 N71 N 0.34108 0.13656 -0.08062
 C72 C 0.32605 0.14403 -0.05832
 C73 C 0.30452 0.12542 -0.05547
 C74 C 0.30739 0.10675 -0.07687
 H75 H 0.33045 0.16158 -0.04503
 H76 H 0.29414 0.08910 -0.08112
 H77 H 0.37999 0.11379 -0.10771
 H78 H 0.35823 0.13621 -0.13052
 N79 N 0.09195 0.83009 0.38621
 N80 N 0.08136 0.84121 0.36365
 C81 C 0.05895 0.82634 0.35586
 C82 C 0.05556 0.80494 0.37457
 C83 C 0.07669 0.80779 0.39357
 H84 H 0.04605 0.83074 0.33807
 H85 H 0.08062 0.79470 0.41137
 Cu86 Cu 0.09782 0.87430 0.34721
 Cu87 Cu 0.12468 0.84536 0.40446
 Cu88 Cu 0.15402 0.90444 0.37510
 N89 N 0.11424 0.90741 0.33078
 N90 N 0.13620 0.91917 0.34196
 C91 C 0.14324 0.94175 0.32700
 C92 C 0.12471 0.94413 0.30543
 C93 C 0.10656 0.92215 0.30829
 H94 H 0.16049 0.95544 0.33148
 H95 H 0.08911 0.91739 0.29504
 N96 N 0.16899 0.88637 0.40859
 N97 N 0.15781 0.86389 0.41978
 C98 C 0.17279 0.85652 0.44218
 C99 C 0.19422 0.87524 0.44506
 C100 C 0.19134 0.89388 0.42359
 H101 H 0.16855 0.83884 0.45538
 H102 H 0.20463 0.91148 0.41923
 H103 H 0.11901 0.88593 0.39156
 H104 H 0.14179 0.86362 0.36970
 C105 C 0.10446 0.14569 0.12529
 N106 N 0.12433 0.14566 0.10539
 C107 C 0.14416 0.12568 0.10540
 N108 N 0.14413 0.10573 0.12529
 C109 C 0.12426 0.10576 0.14519
 N110 N 0.10443 0.12574 0.14519
 C111 C 0.39510 0.85511 0.62518
 N112 N 0.39507 0.87507 0.64502
 C113 C 0.37521 0.89502 0.64494
 N114 N 0.35537 0.89501 0.62502
 C115 C 0.35540 0.87506 0.60517
 N116 N 0.37526 0.85510 0.60525
 C117 C 0.89542 0.64509 0.37482
 N118 N 0.87550 0.64505 0.39467
 C119 C 0.85565 0.62500 0.39472
 N120 N 0.85574 0.60499 0.37492
 C121 C 0.87567 0.60503 0.35507
 N122 N 0.89550 0.62508 0.35503
 C123 C 0.60538 0.35562 -0.12554
 N124 N 0.62530 0.35554 -0.10570
 C125 C 0.64525 0.37548 -0.10568
 N126 N 0.64527 0.39550 -0.12552
 C127 C 0.62533 0.39558 -0.14536
 N128 N 0.60540 0.37563 -0.14537
 C129 C -0.03548 0.28525 0.12555
 C130 C -0.01767 0.26769 0.12554
 C131 C 0.00353 0.24666 0.12546
 C132 C 0.01594 0.23837 0.15037
 C133 C 0.03649 0.21789 0.15030
 C134 C 0.04473 0.20562 0.12532
 C135 C 0.03233 0.21391 0.10041
 C136 C 0.01177 0.23439 0.10048
 C137 C 0.06583 0.18450 0.12528
 C138 C 0.08348 0.16679 0.12527
 H139 H 0.00971 0.24771 0.16981
 H140 H 0.04594 0.21162 0.16969
 H141 H 0.03853 0.20455 0.08097
 H142 H 0.00230 0.24064 0.08111
 C143 C 0.53453 0.71498 0.62541
 C144 C 0.51689 0.73271 0.62552
 C145 C 0.49586 0.75392 0.62552
 C146 C 0.48438 0.76307 0.65055
 C147 C 0.46390 0.78364 0.65051
 C148 C 0.45484 0.79516 0.62543
 C149 C 0.46634 0.78602 0.60040
 C150 C 0.48681 0.76545 0.60044
 C151 C 0.43377 0.81631 0.62536
 C152 C 0.41611 0.83402 0.62527
 H153 H 0.49123 0.75430 0.67006
 H154 H 0.45515 0.79055 0.66998
 H155 H 0.45948 0.79478 0.58088
 H156 H 0.49555 0.75855 0.58097
 C157 C 1.03539 0.78516 0.37447
 C158 C 1.01755 0.76756 0.37445
 C159 C 0.99631 0.74649 0.37450
 C160 C 0.98617 0.73603 0.39964
 C161 C 0.96563 0.71545 0.39969
 C162 C 0.95515 0.70526 0.37461
 C163 C 0.96526 0.71574 0.34947
 C164 C 0.98580 0.73632 0.34941
 C165 C 0.93406 0.68405 0.37469
 C166 C 0.91641 0.66627 0.37475
 H167 H 0.99415 0.74374 0.41915
 H168 H 0.95796 0.70749 0.41925
 H169 H 0.95731 0.70800 0.32995
 H170 H 0.99350 0.74426 0.32986
 C171 C 0.46574 0.21527 -0.12500
 C172 C 0.48340 0.23304 -0.12523
 C173 C 0.50445 0.25428 -0.12540
 C174 C 0.53116 0.24818 -0.13505
 C175 C 0.55165 0.26880 -0.13512
 C176 C 0.54552 0.29559 -0.12554
 C177 C 0.51882 0.30169 -0.11591
 C178 C 0.49832 0.28108 -0.11584
 C179 C 0.56662 0.31679 -0.12556
 C180 C 0.58431 0.33452 -0.12556
 H181 H 0.53612 0.22753 -0.14247
 H182 H 0.57224 0.26386 -0.14260
 H183 H 0.51386 0.32234 -0.10846
 H184 H 0.47775 0.28601 -0.10833
 C185 C 0.12435 -0.03473 0.28441
 C186 C 0.12417 -0.01694 0.26680
 C187 C 0.12405 0.00430 0.24579
 C188 C 0.12184 0.03236 0.25327
 C189 C 0.12186 0.05301 0.23284
 C190 C 0.12411 0.04568 0.20486
 C191 C 0.12630 0.01762 0.19737
 C192 C 0.12628 -0.00302 0.21780
 C193 C 0.12417 0.06690 0.18384
 C194 C 0.12422 0.08466 0.16620
 H195 H 0.12013 0.03825 0.27485
 H196 H 0.12015 0.07464 0.23885
 H197 H 0.12805 0.01173 0.17579
 H198 H 0.12802 -0.02465 0.21178
 C199 C 0.62451 0.53510 -0.28561
 C200 C 0.62457 0.51758 -0.26774
 C201 C 0.62472 0.49655 -0.24650
 C202 C 0.62518 0.46836 -0.25380
 C203 C 0.62537 0.44789 -0.23320
 C204 C 0.62510 0.45553 -0.20521
 C205 C 0.62464 0.48372 -0.19789
 C206 C 0.62445 0.50419 -0.21850
 C207 C 0.62524 0.43444 -0.18403
 C208 C 0.62532 0.41673 -0.16635
 H209 H 0.62540 0.46223 -0.27538
 H210 H 0.62571 0.42616 -0.23909
 H211 H 0.62442 0.48984 -0.17631
 H212 H 0.62410 0.52593 -0.21262
 C213 C 0.37519 1.03455 0.78484
 C214 C 0.37522 1.01699 0.76704
 C215 C 0.37521 0.99594 0.74588
 C216 C 0.37478 1.00356 0.71786
 C217 C 0.37474 0.98307 0.69732
 C218 C 0.37515 0.95489 0.70472
 C219 C 0.37558 0.94728 0.73273
 C220 C 0.37561 0.96776 0.75327
 C221 C 0.37516 0.93380 0.68360
 C222 C 0.37518 0.91611 0.66593
 H223 H 0.37445 1.02530 0.71192
 H224 H 0.37441 0.98919 0.67572
 H225 H 0.37590 0.92554 0.73868
 H226 H 0.37593 0.96164 0.77487
 C227 C 0.87571 0.46504 0.21557
 C228 C 0.87583 0.48272 0.23326
 C229 C 0.87588 0.50386 0.25434
 C230 C 0.87817 0.49641 0.28231
 C231 C 0.87816 0.51696 0.30280
 C232 C 0.87586 0.54505 0.29539
 C233 C 0.87354 0.55250 0.26742
 C234 C 0.87355 0.53195 0.24694
 C235 C 0.87579 0.56619 0.31646
 C236 C 0.87575 0.58390 0.33412
 H237 H 0.87994 0.47475 0.28826
 H238 H 0.87993 0.51096 0.32436
 H239 H 0.87172 0.57415 0.26147
 H240 H 0.87173 0.53794 0.22538
 C241 C 0.28351 0.12540 -0.03440
 C242 C 0.26590 0.12540 -0.01669
 C243 C 0.24487 0.12542 0.00445
 C244 C 0.22203 0.10750 0.00235
 C245 C 0.20157 0.10756 0.02287
 C246 C 0.20387 0.12553 0.04558
 C247 C 0.22672 0.14343 0.04770
 C248 C 0.24718 0.14338 0.02717
 C249 C 0.18281 0.12559 0.06669
 C250 C 0.16516 0.12564 0.08436
 H251 H 0.22004 0.09353 -0.01514
 H252 H 0.18399 0.09362 0.02104
 H253 H 0.22871 0.15740 0.06518
 H254 H 0.26476 0.15731 0.02900
 C255 C 0.71605 0.62478 0.53436
 C256 C 0.73368 0.62479 0.51666
 C257 C 0.75475 0.62481 0.49555
 C258 C 0.77772 0.60717 0.49792
 C259 C 0.79820 0.60719 0.47740
 C260 C 0.79580 0.62486 0.45443
 C261 C 0.77283 0.64250 0.45205
 C262 C 0.75235 0.64248 0.47257
 C263 C 0.81690 0.62491 0.43335
 C264 C 0.83459 0.62496 0.41571
 H265 H 0.77980 0.59344 0.51560
 H266 H 0.81587 0.59346 0.47944
 H267 H 0.77076 0.65624 0.43438
 H268 H 0.73468 0.65622 0.47054
 C269 C 0.78447 0.37463 0.03429
 C270 C 0.76687 0.37468 0.01657
 C271 C 0.74587 0.37479 -0.00460
 C272 C 0.74775 0.39349 -0.02680
 C273 C 0.72734 0.39363 -0.04738
 C274 C 0.70497 0.37506 -0.04585
 C275 C 0.70310 0.35635 -0.02365
 C276 C 0.72351 0.35621 -0.00307
 C277 C 0.68394 0.37524 -0.06699
 C278 C 0.66629 0.37538 -0.08468
 H279 H 0.76496 0.40794 -0.02818
 H280 H 0.72900 0.40819 -0.06445
 H281 H 0.68590 0.34190 -0.02226
 H282 H 0.72187 0.34166 0.01400
 C283 C 0.21535 0.87522 0.46601
 C284 C 0.23310 0.87520 0.48359
 C285 C 0.25428 0.87517 0.50459
 C286 C 0.25027 0.86028 0.52923
 C287 C 0.27085 0.86024 0.54964
 C288 C 0.29553 0.87509 0.54549
 C289 C 0.29954 0.88998 0.52085
 C290 C 0.27895 0.89002 0.50044
 C291 C 0.31669 0.87505 0.56650
 C292 C 0.33438 0.87504 0.58414
 H293 H 0.23127 0.84873 0.53265
 H294 H 0.26753 0.84866 0.56862
 H295 H 0.31854 0.90153 0.51743
 H296 H 0.28227 0.90160 0.48146
   
