data_POSCAR
  _audit_creation_date              2014-09-24
  _audit_creation_method            'ToBaCCo'
  _symmetry_space_group_name_H-M    'P1'
  _symmetry_Int_Tables_number       1
  _symmetry_cell_setting            triclinic
  loop_
  _symmetry_equiv_pos_as_xyz
 x,y,z
_cell_length_a 35.8312
_cell_length_b 37.7598
_cell_length_c 31.8029
_cell_angle_alpha 89.901100
_cell_angle_beta 89.943800
_cell_angle_gamma 90.231600
loop_
  _atom_site_label
  _atom_site_type_symbol
  _atom_site_fract_x
  _atom_site_fract_y
  _atom_site_fract_z
C1 C 0.17070 0.23655 0.16231
 C2 C 0.17099 0.27277 0.16531
 C3 C 0.20634 0.28223 0.17909
 N4 N 0.22733 0.25301 0.18544
 C5 C 0.20558 0.22513 0.17524
 C6 C 0.21994 0.31720 0.18302
 C7 C 0.25522 0.32437 0.20078
 C8 C 0.27539 0.35536 0.19505
 C9 C 0.30627 0.35300 0.22052
 C10 C 0.30402 0.32059 0.24116
 N11 N 0.27280 0.30335 0.22883
 C12 C 0.32764 0.30963 0.27422
 C13 C 0.32567 0.27543 0.29218
 C14 C 0.33901 0.26630 0.33154
 C15 C 0.33217 0.23080 0.33644
 C16 C 0.31672 0.21884 0.29899
 N17 N 0.31224 0.24640 0.27224
 C18 C 0.30858 0.18297 0.28872
 C19 C 0.28733 0.17457 0.25235
 C20 C 0.29029 0.14336 0.22962
 C21 C 0.26478 0.14522 0.19746
 C22 C 0.24668 0.17747 0.20141
 N23 N 0.26084 0.19533 0.23480
 C24 C 0.21766 0.18958 0.17476
 H25 H 0.14746 0.22033 0.15204
 H26 H 0.14790 0.29001 0.15779
 H27 H 0.25094 0.21905 0.24716
 H28 H 0.26823 0.37763 0.17520
 H29 H 0.32708 0.37354 0.22450
 H30 H 0.35159 0.28337 0.35484
 H31 H 0.33802 0.21573 0.36460
 H32 H 0.26047 0.12523 0.17362
 H33 H 0.26148 0.28084 0.24286
 H34 H 0.30941 0.12173 0.23518
 C35 C 0.70907 0.22853 0.37522
 C36 C 0.71025 0.26463 0.38013
 C37 C 0.71885 0.27875 0.34108
 N38 N 0.72275 0.25260 0.31244
 C39 C 0.71652 0.22180 0.33314
 C40 C 0.72110 0.31525 0.33165
 C41 C 0.73658 0.32805 0.29361
 C42 C 0.73129 0.36182 0.27757
 C43 C 0.75416 0.36502 0.24304
 C44 C 0.77265 0.33301 0.23865
 N45 N 0.76171 0.31063 0.26968
 C46 C 0.80129 0.32630 0.20900
 C47 C 0.81559 0.29208 0.20159
 C48 C 0.84769 0.28426 0.17905
 C49 C 0.85048 0.24797 0.17821
 C50 C 0.81938 0.23497 0.19908
 N51 N 0.79810 0.26189 0.21313
 C52 C 0.80947 0.19904 0.20320
 C53 C 0.77708 0.18839 0.22489
 C54 C 0.75734 0.15765 0.21668
 C55 C 0.73055 0.15482 0.24747
 C56 C 0.73579 0.18320 0.27471
 N57 N 0.76366 0.20409 0.25991
 C58 C 0.71734 0.18791 0.31392
 H59 H 0.70398 0.20946 0.40002
 H60 H 0.70574 0.27883 0.40922
 H61 H 0.77640 0.22497 0.27584
 H62 H 0.71338 0.38232 0.28997
 H63 H 0.75742 0.38868 0.22416
 H64 H 0.86721 0.30255 0.16470
 H65 H 0.87244 0.23305 0.16315
 H66 H 0.71019 0.13369 0.25003
 H67 H 0.77394 0.28656 0.27743
 H68 H 0.76203 0.13916 0.19127
 C69 C 0.78413 0.76501 0.89905
 C70 C 0.78419 0.72878 0.89570
 C71 C 0.77316 0.72105 0.85506
 N72 N 0.76682 0.75123 0.83325
 C73 C 0.77393 0.77826 0.85995
 C74 C 0.77064 0.68669 0.83787
 C75 C 0.74962 0.67964 0.80126
 C76 C 0.75132 0.64866 0.77787
 C77 C 0.72260 0.64998 0.74931
 C78 C 0.70480 0.68204 0.75546
 N79 N 0.72153 0.70010 0.78689
 C80 C 0.67240 0.69297 0.73413
 C81 C 0.66370 0.72908 0.72901
 C82 C 0.63282 0.74233 0.70812
 C83 C 0.63774 0.77841 0.70592
 C84 C 0.67089 0.78588 0.72657
 N85 N 0.68677 0.75575 0.74035
 C86 C 0.68827 0.81932 0.72826
 C87 C 0.71746 0.82740 0.75661
 C88 C 0.73928 0.85774 0.75483
 C89 C 0.76292 0.85657 0.78886
 C90 C 0.75482 0.82559 0.81071
 N91 N 0.72708 0.80793 0.79077
 C92 C 0.77246 0.81462 0.84858
 H93 H 0.79063 0.77979 0.92723
 H94 H 0.79094 0.71024 0.92052
 H95 H 0.71332 0.78553 0.80214
 H96 H 0.77059 0.62690 0.78166
 H97 H 0.71550 0.62965 0.72670
 H98 H 0.60979 0.72758 0.69472
 H99 H 0.61928 0.79699 0.69056
 H100 H 0.78397 0.87618 0.79641
 H101 H 0.71119 0.72276 0.80137
 H102 H 0.73819 0.87863 0.73152
 C103 C 0.29245 0.74628 0.60424
 C104 C 0.29403 0.78186 0.61263
 C105 C 0.27505 0.78714 0.65019
 N106 N 0.26282 0.75572 0.66543
 C107 C 0.27368 0.73073 0.63756
 C108 C 0.27320 0.81954 0.67246
 C109 C 0.24811 0.82547 0.70634
 C110 C 0.24924 0.85454 0.73302
 C111 C 0.22099 0.85021 0.76187
 C112 C 0.20268 0.81897 0.75166
 N113 N 0.21898 0.80441 0.71732
 C114 C 0.17254 0.80385 0.77454
 C115 C 0.16069 0.76861 0.76752
 C116 C 0.12572 0.75552 0.77818
 C117 C 0.12714 0.71958 0.77294
 C118 C 0.16308 0.71189 0.75973
 N119 N 0.18346 0.74197 0.75581
 C120 C 0.17759 0.67747 0.75390
 C121 C 0.20955 0.67234 0.72839
 C122 C 0.23223 0.64259 0.72874
 C123 C 0.25804 0.64715 0.69725
 C124 C 0.25107 0.67992 0.67932
 N125 N 0.22172 0.69528 0.69858
 C126 C 0.27028 0.69391 0.64436
 H127 H 0.30495 0.73332 0.57742
 H128 H 0.30819 0.80119 0.59326
 H129 H 0.20831 0.71828 0.68870
 H130 H 0.26861 0.87658 0.73231
 H131 H 0.21531 0.86780 0.78787
 H132 H 0.10199 0.77042 0.78947
 H133 H 0.10446 0.70118 0.77867
 H134 H 0.27973 0.62862 0.68872
 H135 H 0.20954 0.78217 0.70115
 H136 H 0.23043 0.61988 0.74944
 O137 O 1.04188 0.03531 -0.00219
 O138 O 0.95687 -0.01278 -0.02904
 O139 O 0.97209 0.03992 0.02070
 O140 O 1.02800 -0.02164 -0.04652
 O141 O 1.03702 -0.05464 0.00973
 O142 O 0.98019 0.00306 0.07373
 O143 O 0.96584 -0.04978 0.02386
 O144 O 1.05009 0.00216 0.05418
 Cu145 Cu 0.99896 0.01363 -0.01982
 Cu146 Cu 1.00920 -0.02836 0.04561
 C147 C 1.06010 0.02793 0.03079
 C148 C 0.94671 -0.03933 -0.00749
 C149 C 0.96680 0.03149 0.05912
 C150 C 1.04213 -0.04891 -0.02906
 O151 O 0.53554 0.45832 0.50377
 O152 O 0.45057 0.50796 0.53076
 O153 O 0.46814 0.46107 0.47551
 O154 O 0.51794 0.50520 0.56167
 O155 O 0.53472 0.54862 0.51907
 O156 O 0.48730 0.50288 0.43173
 O157 O 0.46808 0.55107 0.48785
 O158 O 0.55411 0.50256 0.46312
 Cu159 Cu 0.49146 0.47891 0.52251
 Cu160 Cu 0.51261 0.53064 0.47100
 C161 C 0.55913 0.47198 0.47862
 C162 C 0.44493 0.53791 0.51382
 C163 C 0.46985 0.47407 0.43877
 C164 C 0.53444 0.53459 0.55539
 O165 O -0.03166 0.54733 -0.01584
 O166 O 0.04189 0.50652 0.04743
 O167 O 0.03970 0.54264 -0.02392
 O168 O -0.03108 0.50910 0.05121
 O169 O -0.03434 0.45920 0.01501
 O170 O 0.03325 0.49373 -0.06103
 O171 O 0.03817 0.45759 0.00988
 O172 O -0.03902 0.49727 -0.05088
 Cu173 Cu 0.00582 0.53120 0.01863
 Cu174 Cu -0.00039 0.47197 -0.02557
 C175 C -0.04870 0.52898 -0.04315
 C176 C 0.05237 0.47510 0.04006
 C177 C 0.04738 0.52431 -0.05629
 C178 C -0.04534 0.47868 0.04491
 O179 O 0.46895 1.04404 0.49323
 O180 O 0.54355 0.99768 0.55180
 O181 O 0.54134 1.04362 0.49005
 O182 O 0.47174 0.99998 0.55759
 O183 O 0.46758 0.95557 0.51261
 O184 O 0.53852 0.99880 0.44557
 O185 O 0.54009 0.95366 0.50624
 O186 O 0.46524 0.99889 0.44927
 Cu187 Cu 0.50657 1.02591 0.52757
 Cu188 Cu 0.50236 0.97236 0.47383
 C189 C 0.45445 1.02914 0.46133
 C190 C 0.55455 0.96770 0.53860
 C191 C 0.55222 1.02843 0.45670
 C192 C 0.45823 0.97021 0.54697
 C193 C 1.16732 0.11370 0.12530
 C194 C 1.16656 0.12526 0.08429
 C195 C 1.18255 0.15697 0.07131
 C196 C 1.19987 0.17791 0.10188
 C197 C 1.20167 0.16667 0.14456
 C198 C 1.18565 0.13360 0.15619
 O199 O 1.14694 0.08460 0.13149
 C200 C 1.13318 0.07772 0.09350
 C201 C 1.14477 0.10170 0.06358
 C202 C 1.13222 0.10111 0.02234
 C203 C 1.10588 0.07526 0.01156
 C204 C 1.09219 0.05084 0.04199
 C205 C 1.10681 0.05159 0.08343
 H206 H 1.18075 0.16583 0.03900
 H207 H 1.21205 0.20297 0.09232
 H208 H 1.18540 0.12480 0.18862
 H209 H 1.14154 0.12055 -0.00046
 H210 H 1.09520 0.07513 -0.02029
 H211 H 1.09641 0.03386 0.10757
 C212 C 0.61985 0.63584 0.65632
 C213 C 0.60483 0.61084 0.68303
 C214 C 0.61019 0.61161 0.72630
 C215 C 0.63203 0.63922 0.74267
 C216 C 0.64795 0.66522 0.71577
 C217 C 0.64181 0.66343 0.67192
 O218 O 0.61137 0.63023 0.61626
 C219 C 0.59060 0.60106 0.61775
 C220 C 0.58586 0.58807 0.65782
 C221 C 0.56535 0.55759 0.66649
 C222 C 0.54885 0.53986 0.63245
 C223 C 0.55298 0.55290 0.59077
 C224 C 0.57432 0.58398 0.58349
 H225 H 0.59812 0.59164 0.74668
 H226 H 0.63684 0.64035 0.77627
 H227 H 0.65411 0.68268 0.65071
 H228 H 0.56209 0.54785 0.69831
 H229 H 0.53259 0.51619 0.63868
 H230 H 0.57811 0.59466 0.55215
 C231 C -0.13517 0.39563 0.16102
 C232 C -0.15811 0.40896 0.13020
 C233 C -0.19444 0.39695 0.12401
 C234 C -0.20760 0.36997 0.15057
 C235 C -0.18463 0.35604 0.18281
 C236 C -0.14807 0.36943 0.18849
 O237 O -0.10054 0.40822 0.15895
 C238 C -0.10165 0.42998 0.12614
 C239 C -0.13637 0.43159 0.10769
 C240 C -0.14331 0.45074 0.07117
 C241 C -0.11305 0.46828 0.05234
 C242 C -0.07692 0.46625 0.07013
 C243 C -0.07112 0.44734 0.10789
 H244 H -0.21161 0.40721 0.09884
 H245 H -0.23546 0.35950 0.14580
 H246 H -0.12983 0.35868 0.21242
 H247 H -0.17068 0.45105 0.05683
 H248 H -0.11733 0.48215 0.02290
 H249 H -0.04343 0.44442 0.12104
 C250 C 0.33584 0.88657 0.61793
 C251 C 0.36239 0.89171 0.64858
 C252 C 0.36095 0.87494 0.68747
 C253 C 0.33116 0.85157 0.69489
 C254 C 0.30294 0.84633 0.66422
 C255 C 0.30499 0.86472 0.62545
 O256 O 0.34422 0.90262 0.58190
 C257 C 0.37661 0.91837 0.59012
 C258 C 0.38861 0.91296 0.63071
 C259 C 0.42195 0.92678 0.64604
 C260 C 0.44397 0.94684 0.61829
 C261 C 0.43288 0.95169 0.57593
 C262 C 0.39868 0.93735 0.56161
 H263 H 0.38267 0.87872 0.71067
 H264 H 0.33018 0.83714 0.72435
 H265 H 0.28408 0.86085 0.60131
 H266 H 0.43079 0.92209 0.67809
 H267 H 0.47028 0.95759 0.62930
 H268 H 0.38976 0.94069 0.52932
 C269 C -0.15259 0.63030 -0.11584
 C270 C -0.17139 0.59890 -0.10946
 C271 C -0.20943 0.59512 -0.11686
 C272 C -0.22865 0.62471 -0.13232
 C273 C -0.20948 0.65687 -0.14127
 C274 C -0.17094 0.65973 -0.13222
 O275 O -0.11680 0.62870 -0.10544
 C276 C -0.11284 0.59549 -0.09257
 C277 C -0.14527 0.57596 -0.09496
 C278 C -0.14711 0.54031 -0.08387
 C279 C -0.11432 0.52438 -0.06892
 C280 C -0.08106 0.54447 -0.06452
 C281 C -0.08027 0.58044 -0.07683
 H282 H -0.22378 0.57033 -0.11093
 H283 H -0.25830 0.62239 -0.13837
 H284 H -0.15558 0.68392 -0.13858
 H285 H -0.17288 0.52541 -0.08630
 H286 H -0.11519 0.49690 -0.05914
 H287 H -0.05519 0.59632 -0.07366
 C288 C 0.37165 1.12857 0.35666
 C289 C 0.34924 1.09962 0.36401
 C290 C 0.31364 1.09637 0.34718
 C291 C 0.30041 1.12430 0.32219
 C292 C 0.32289 1.15479 0.31380
 C293 C 0.35952 1.15615 0.33096
 O294 O 0.40444 1.12671 0.37593
 C295 C 0.40271 1.09583 0.39585
 C296 C 0.36964 1.07802 0.38924
 C297 C 0.36253 1.04452 0.40577
 C298 C 0.39076 1.02870 0.42986
 C299 C 0.42472 1.04687 0.43771
 C300 C 0.43070 1.08102 0.42073
 H301 H 0.29639 1.07338 0.35360
 H302 H 0.27216 1.12252 0.31027
 H303 H 0.37853 1.17772 0.32395
 H304 H 0.33649 1.03084 0.39974
 H305 H 0.38625 1.00237 0.44251
 H306 H 0.45676 1.09503 0.42563
 C307 C 1.12571 -0.12879 -0.15724
 C308 C 1.12424 -0.14776 -0.12038
 C309 C 1.13870 -0.18151 -0.11599
 C310 C 1.15509 -0.19683 -0.15128
 C311 C 1.15714 -0.17837 -0.19031
 C312 C 1.14271 -0.14337 -0.19301
 O313 O 1.10866 -0.09754 -0.15438
 C314 C 1.09633 -0.09703 -0.11480
 C315 C 1.10545 -0.12722 -0.09298
 C316 C 1.09519 -0.13323 -0.05163
 C317 C 1.07461 -0.10699 -0.03150
 C318 C 1.06435 -0.07529 -0.05274
 C319 C 1.07543 -0.07024 -0.09527
 H320 H 1.13696 -0.19580 -0.08651
 H321 H 1.16652 -0.22323 -0.14813
 H322 H 1.14317 -0.12875 -0.22232
 H323 H 1.10262 -0.15742 -0.03541
 H324 H 1.06644 -0.11175 0.00081
 H325 H 1.06800 -0.04652 -0.11243
 C326 C 0.65421 0.36616 0.40078
 C327 C 0.67651 0.39413 0.41276
 C328 C 0.71389 0.39685 0.40133
 C329 C 0.72873 0.36988 0.37610
 C330 C 0.70596 0.34138 0.36217
 C331 C 0.66827 0.33932 0.37527
 O332 O 0.61907 0.36939 0.41337
 C333 C 0.61909 0.40018 0.43344
 C334 C 0.65349 0.41654 0.43371
 C335 C 0.65904 0.45045 0.44969
 C336 C 0.62776 0.46834 0.46555
 C337 C 0.59219 0.45181 0.46592
 C338 C 0.58792 0.41705 0.45025
 H339 H 0.73083 0.41922 0.41086
 H340 H 0.75764 0.37164 0.36630
 H341 H 0.65013 0.31819 0.36453
 H342 H 0.68616 0.46313 0.44864
 H343 H 0.63104 0.49517 0.47700
 H344 H 0.56075 0.40442 0.44891
 C345 C 0.84247 -0.13860 -0.08408
 C346 C 0.82417 -0.10725 -0.07715
 C347 C 0.78897 -0.10024 -0.09334
 C348 C 0.77182 -0.12665 -0.11763
 C349 C 0.78995 -0.15947 -0.12562
 C350 C 0.82600 -0.16524 -0.10822
 O351 O 0.87666 -0.13912 -0.06792
 C352 C 0.88003 -0.10733 -0.05046
 C353 C 0.84863 -0.08682 -0.05531
 C354 C 0.84698 -0.05170 -0.04244
 C355 C 0.87925 -0.03689 -0.02466
 C356 C 0.91200 -0.05738 -0.01957
 C357 C 0.91223 -0.09332 -0.03189
 H358 H 0.77529 -0.07518 -0.08778
 H359 H 0.74414 -0.12163 -0.12989
 H360 H 0.84159 -0.18909 -0.11485
 H361 H 0.82224 -0.03589 -0.04737
 H362 H 0.87917 -0.00917 -0.01594
 H363 H 0.93736 -0.10904 -0.02971
 C364 C 0.37573 0.37664 0.34391
 C365 C 0.40551 0.38609 0.31886
 C366 C 0.41204 0.37076 0.27981
 C367 C 0.38669 0.34484 0.26597
 C368 C 0.35526 0.33542 0.29079
 C369 C 0.34965 0.35172 0.33023
 O370 O 0.37557 0.39304 0.38076
 C371 C 0.40576 0.41344 0.37885
 C372 C 0.42482 0.41058 0.34144
 C373 C 0.45723 0.42976 0.33290
 C374 C 0.47088 0.45228 0.36454
 C375 C 0.45250 0.45445 0.40394
 C376 C 0.41927 0.43501 0.41096
 H377 H 0.43593 0.37824 0.26088
 H378 H 0.39106 0.33244 0.23569
 H379 H 0.32577 0.34506 0.34963
 H380 H 0.47173 0.42712 0.30321
 H381 H 0.49657 0.46679 0.35907
 H382 H 0.40479 0.43612 0.44084
 C383 C 0.13162 0.62200 -0.16358
 C384 C 0.12782 0.59047 -0.18466
 C385 C 0.13939 0.58600 -0.22601
 C386 C 0.15575 0.61518 -0.24643
 C387 C 0.16060 0.64816 -0.22534
 C388 C 0.14811 0.65120 -0.18305
 O389 O 0.11762 0.62111 -0.12493
 C390 C 0.10462 0.58827 -0.12154
 C391 C 0.11033 0.56839 -0.15715
 C392 C 0.09817 0.53355 -0.16078
 C393 C 0.07873 0.51881 -0.12662
 C394 C 0.07162 0.53903 -0.08981
 C395 C 0.08535 0.57418 -0.08718
 H396 H 0.13547 0.56108 -0.24221
 H397 H 0.16376 0.61227 -0.27908
 H398 H 0.15175 0.67545 -0.16535
 H399 H 0.10289 0.51844 -0.18918
 H400 H 0.06840 0.49193 -0.12938
 H401 H 0.08014 0.59050 -0.05986
 C402 C 0.64795 1.13201 0.37216
 C403 C 0.66447 1.09936 0.36902
 C404 C 0.69892 1.09441 0.34999
 C405 C 0.71684 1.12425 0.33294
 C406 C 0.69982 1.15835 0.33385
 C407 C 0.66478 1.16192 0.35445
 O408 O 0.61559 1.13115 0.39251
 C409 C 0.61154 1.09713 0.40221
 C410 C 0.64046 1.07646 0.38808
 C411 C 0.64130 1.03991 0.39372
 C412 C 0.61127 1.02411 0.41521
 C413 C 0.58182 1.04507 0.43130
 C414 C 0.58195 1.08210 0.42463
 H415 H 0.71178 1.06855 0.34871
 H416 H 0.74430 1.12074 0.31936
 H417 H 0.65023 1.18697 0.35545
 H418 H 0.66422 1.02416 0.38201
 H419 H 0.61144 0.99575 0.42040
 H420 H 0.55964 1.09862 0.43643
 C421 C 0.15938 0.37713 0.11600
 C422 C 0.15264 0.40407 0.14401
 C423 C 0.16706 0.40439 0.18456
 C424 C 0.18917 0.37564 0.19686
 C425 C 0.19683 0.34757 0.16853
 C426 C 0.18205 0.34868 0.12724
 O427 O 0.14148 0.38114 0.07974
 C428 C 0.12312 0.41130 0.08500
 C429 C 0.12929 0.42650 0.12366
 C430 C 0.11252 0.45788 0.13610
 C431 C 0.08808 0.47415 0.10769
 C432 C 0.08045 0.45866 0.06791
 C433 C 0.09852 0.42682 0.05638
 H434 H 0.16093 0.42568 0.20622
 H435 H 0.20011 0.37497 0.22859
 H436 H 0.18751 0.32770 0.10492
 H437 H 0.11776 0.46925 0.16676
 H438 H 0.07438 0.49836 0.11720
 H439 H 0.09324 0.41426 0.02638
 C440 C 0.63984 0.89064 0.66530
 C441 C 0.65648 0.88559 0.62674
 C442 C 0.68479 0.86113 0.62021
 C443 C 0.69608 0.84064 0.65466
 C444 C 0.67893 0.84482 0.69448
 C445 C 0.65076 0.87051 0.70013
 O446 O 0.61183 0.91360 0.66396
 C447 C 0.61065 0.92304 0.62368
 C448 C 0.63732 0.90650 0.59962
 C449 C 0.63919 0.91002 0.55615
 C450 C 0.61219 0.93114 0.53656
 C451 C 0.58446 0.94857 0.56057
 C452 C 0.58403 0.94495 0.60487
 H453 H 0.69701 0.85727 0.58943
 H454 H 0.71733 0.82067 0.65019
 H455 H 0.63670 0.87343 0.73006
 H456 H 0.65993 0.89610 0.53783
 H457 H 0.61250 0.93356 0.50261
 H458 H 0.56243 0.95715 0.62371
 C459 C 0.86948 0.13890 0.13554
 C460 C 0.88358 0.11726 0.16643
 C461 C 0.87470 0.12079 0.20870
 C462 C 0.85025 0.14794 0.21982
 C463 C 0.83523 0.17086 0.18888
 C464 C 0.84485 0.16626 0.14597
 O465 O 0.88166 0.13045 0.09726
 C466 C 0.90389 0.10290 0.10439
 C467 C 0.90582 0.09399 0.14627
 C468 C 0.92690 0.06609 0.16133
 C469 C 0.94686 0.04621 0.13206
 C470 C 0.94557 0.05434 0.08838
 C471 C 0.92383 0.08340 0.07435
 H472 H 0.88621 0.10328 0.23228
 H473 H 0.84302 0.15132 0.25265
 H474 H 0.83348 0.18330 0.12179
 H475 H 0.92786 0.05972 0.19451
 H476 H 0.96339 0.02435 0.14370
 H477 H 0.92214 0.09024 0.04134
 C478 C 0.34454 0.64258 0.58576
 C479 C 0.32317 0.61573 0.56898
 C480 C 0.28465 0.61403 0.57376
 C481 C 0.26748 0.64089 0.59714
 C482 C 0.28896 0.66840 0.61568
 C483 C 0.32808 0.66930 0.60965
 O484 O 0.38080 0.63860 0.57872
 C485 C 0.38238 0.60849 0.55731
 C486 C 0.34790 0.59326 0.55083
 C487 C 0.34335 0.56032 0.53188
 C488 C 0.37568 0.54229 0.51931
 C489 C 0.41135 0.55778 0.52509
 C490 C 0.41476 0.59148 0.54395
 H491 H 0.26846 0.59251 0.56055
 H492 H 0.23756 0.63985 0.60190
 H493 H 0.34524 0.68945 0.62431
 H494 H 0.31599 0.54855 0.52790
 H495 H 0.37307 0.51629 0.50525
 H496 H 0.44188 0.60331 0.54962
   
