data_POSCAR
  _audit_creation_date              2014-09-24
  _audit_creation_method            'ToBaCCo'
  _symmetry_space_group_name_H-M    'P1'
  _symmetry_Int_Tables_number       1
  _symmetry_cell_setting            triclinic
  loop_
  _symmetry_equiv_pos_as_xyz
 x,y,z
_cell_length_a 44.0953
_cell_length_b 44.0902
_cell_length_c 26.3351
_cell_angle_alpha 90.117100
_cell_angle_beta 89.904300
_cell_angle_gamma 92.527800
loop_
  _atom_site_label
  _atom_site_type_symbol
  _atom_site_fract_x
  _atom_site_fract_y
  _atom_site_fract_z
C1 C 0.00002 0.26972 -0.02848
 C2 C -0.00038 0.26724 0.02317
 C3 C -0.02921 0.26411 0.05268
 C4 C 0.02845 0.26688 0.05233
 C5 C 0.02882 0.26810 -0.05710
 C6 C -0.02810 0.27170 -0.05906
 C7 C -0.03311 0.28171 0.09634
 C8 C -0.06044 0.27988 0.12337
 C9 C -0.08521 0.26081 0.10678
 C10 C -0.08042 0.24241 0.06357
 C11 C -0.05268 0.24351 0.03795
 C12 C 0.05006 0.29114 0.04904
 C13 C 0.07771 0.29000 0.07467
 C14 C 0.08418 0.26467 0.10451
 C15 C 0.06212 0.24074 0.10870
 C16 C 0.03450 0.24190 0.08298
 C17 C 0.04418 0.24093 -0.05862
 C18 C 0.07147 0.23943 -0.08526
 C19 C 0.08399 0.26522 -0.11007
 C20 C 0.06859 0.29242 -0.10847
 C21 C 0.04094 0.29373 -0.08269
 C22 C -0.03450 0.25007 -0.09713
 C23 C -0.06205 0.24974 -0.12312
 C24 C -0.08374 0.27125 -0.11202
 C25 C -0.07679 0.29366 -0.07519
 C26 C -0.04915 0.29397 -0.04911
 H27 H -0.01519 0.29757 0.10888
 H28 H -0.06242 0.29527 0.15510
 H29 H -0.09740 0.22574 0.05054
 H30 H -0.04968 0.22831 0.00617
 H31 H 0.04555 0.31090 0.02637
 H32 H 0.09396 0.30904 0.07144
 H33 H 0.01807 0.22298 0.08602
 H34 H 0.03496 0.22094 -0.03919
 H35 H 0.08308 0.21829 -0.08588
 H36 H 0.07783 0.31249 -0.12764
 H37 H 0.02924 0.31481 -0.08188
 H38 H -0.01863 0.23264 -0.10534
 H39 H -0.06679 0.23192 -0.15071
 H40 H -0.09279 0.31085 -0.06637
 H41 H -0.04444 0.31113 -0.02036
 H42 H 0.06651 0.22079 0.13095
 C43 C 0.50213 0.76726 0.47546
 C44 C 0.50074 0.76516 0.52704
 C45 C 0.47142 0.76302 0.55516
 C46 C 0.52890 0.76450 0.55764
 C47 C 0.53136 0.76547 0.44811
 C48 C 0.47461 0.76983 0.44381
 C49 C 0.46677 0.78225 0.59678
 C50 C 0.43905 0.78107 0.62268
 C51 C 0.41543 0.76077 0.60718
 C52 C 0.42031 0.74100 0.56640
 C53 C 0.44822 0.74177 0.54115
 C54 C 0.55072 0.78859 0.55541
 C55 C 0.57787 0.78713 0.58227
 C56 C 0.58359 0.76162 0.61216
 C57 C 0.56126 0.73792 0.61545
 C58 C 0.53410 0.73942 0.58853
 C59 C 0.54668 0.73826 0.44727
 C60 C 0.57429 0.73665 0.42152
 C61 C 0.58717 0.76238 0.39699
 C62 C 0.57182 0.78961 0.39795
 C63 C 0.54388 0.79102 0.42279
 C64 C 0.46807 0.74811 0.40598
 C65 C 0.44101 0.74864 0.37869
 C66 C 0.42009 0.77112 0.38832
 C67 C 0.42728 0.79359 0.42491
 C68 C 0.45437 0.79301 0.45230
 H69 H 0.48444 0.79858 0.60862
 H70 H 0.43578 0.79652 0.65405
 H71 H 0.40258 0.72479 0.55437
 H72 H 0.45161 0.72595 0.51039
 H73 H 0.54678 0.80842 0.53253
 H74 H 0.59437 0.80600 0.57979
 H75 H 0.51743 0.72067 0.59074
 H76 H 0.53717 0.71832 0.46648
 H77 H 0.58586 0.71548 0.42139
 H78 H 0.58132 0.80964 0.37902
 H79 H 0.53223 0.81214 0.42305
 H80 H 0.48339 0.73004 0.39891
 H81 H 0.43602 0.73079 0.35127
 H82 H 0.41188 0.81151 0.43256
 H83 H 0.45930 0.81026 0.48082
 H84 H 0.56511 0.71787 0.63778
 C85 C 0.99983 0.73299 -0.02363
 C86 C 1.00092 0.73311 0.02788
 C87 C 1.03012 0.73355 0.05553
 C88 C 0.97304 0.73511 0.05867
 C89 C 0.97059 0.73290 -0.05130
 C90 C 1.02795 0.73474 -0.05425
 C91 C 1.04906 0.70886 0.05267
 C92 C 1.07697 0.70988 0.07783
 C93 C 1.08625 0.73551 0.10667
 C94 C 1.06692 0.75997 0.11006
 C95 C 1.03908 0.75894 0.08482
 C96 C 0.96174 0.70976 0.08584
 C97 C 0.93461 0.71114 0.11308
 C98 C 0.91890 0.73816 0.11447
 C99 C 0.93072 0.76376 0.08828
 C100 C 0.95750 0.76217 0.06019
 C101 C 0.96415 0.75721 -0.08315
 C102 C 0.93618 0.75791 -0.10778
 C103 C 0.91415 0.73417 -0.10132
 C104 C 0.92086 0.70959 -0.06992
 C105 C 0.94887 0.70893 -0.04527
 C106 C 1.04293 0.76282 -0.06344
 C107 C 1.06977 0.76447 -0.09174
 C108 C 1.08279 0.73787 -0.11022
 C109 C 1.06739 0.70969 -0.10039
 C110 C 1.04003 0.70826 -0.07347
 H111 H 1.04218 0.68881 0.03107
 H112 H 1.09115 0.69050 0.07519
 H113 H 1.07359 0.78017 0.13145
 H114 H 1.02472 0.77820 0.08740
 H115 H 0.97359 0.68875 0.08497
 H116 H 0.92591 0.69120 0.13321
 H117 H 0.96607 0.78192 0.03940
 H118 H 0.98050 0.77602 -0.08808
 H119 H 0.93157 0.77737 -0.13108
 H120 H 0.90457 0.69075 -0.06481
 H121 H 0.95363 0.68975 -0.02138
 H122 H 1.03392 0.78345 -0.04834
 H123 H 1.08099 0.78659 -0.09667
 H124 H 1.07573 0.68867 -0.11502
 H125 H 1.02849 0.68642 -0.06691
 H126 H 0.91882 0.78474 0.08864
 C127 C 0.49935 0.23124 0.47330
 C128 C 0.49850 0.22919 0.52494
 C129 C 0.52636 0.22674 0.55604
 C130 C 0.46952 0.23159 0.55276
 C131 C 0.47087 0.23201 0.44329
 C132 C 0.52848 0.23376 0.44479
 C133 C 0.54683 0.20383 0.54686
 C134 C 0.57413 0.20334 0.57378
 C135 C 0.58138 0.22564 0.61065
 C136 C 0.56031 0.24792 0.62083
 C137 C 0.53305 0.24835 0.59401
 C138 C 0.45640 0.20624 0.57781
 C139 C 0.42839 0.20820 0.60225
 C140 C 0.41361 0.23577 0.60303
 C141 C 0.42715 0.26129 0.57885
 C142 C 0.45482 0.25915 0.55353
 C143 C 0.46546 0.25712 0.41256
 C144 C 0.43797 0.25883 0.38653
 C145 C 0.41545 0.23531 0.39047
 C146 C 0.42136 0.20979 0.42024
 C147 C 0.44884 0.20812 0.44624
 C148 C 0.55135 0.25546 0.45842
 C149 C 0.57927 0.25646 0.43329
 C150 C 0.58448 0.23646 0.39299
 C151 C 0.56115 0.21572 0.37777
 C152 C 0.53339 0.21433 0.40358
 H153 H 0.54187 0.18666 0.51822
 H154 H 0.58961 0.18556 0.56564
 H155 H 0.56530 0.26569 0.64839
 H156 H 0.51764 0.26628 0.60164
 H157 H 0.46757 0.18484 0.57749
 H158 H 0.41836 0.18833 0.62097
 H159 H 0.46479 0.27892 0.53443
 H160 H 0.48221 0.27577 0.40982
 H161 H 0.43405 0.27893 0.36436
 H162 H 0.40477 0.19103 0.42327
 H163 H 0.45286 0.18828 0.46902
 H164 H 0.54770 0.27140 0.48892
 H165 H 0.59674 0.27303 0.44501
 H166 H 0.56468 0.20013 0.34670
 H167 H 0.51595 0.19767 0.39208
 H168 H 0.41605 0.28272 0.57887
 C169 C 0.73436 -0.00244 -0.02236
 C170 C 0.73715 -0.00266 0.02920
 C171 C 0.74056 -0.03115 0.05853
 C172 C 0.73718 0.02609 0.05859
 C173 C 0.73551 0.02656 -0.05055
 C174 C 0.73214 -0.03073 -0.05312
 C175 C 0.72303 -0.03666 0.10227
 C176 C 0.72512 -0.06376 0.12918
 C177 C 0.74444 -0.08646 0.11239
 C178 C 0.76268 -0.08026 0.06922
 C179 C 0.76128 -0.05272 0.04350
 C180 C 0.71168 0.04400 0.05840
 C181 C 0.71209 0.07147 0.08493
 C182 C 0.73793 0.08140 0.11256
 C183 C 0.76315 0.06295 0.11377
 C184 C 0.76273 0.03548 0.08710
 C185 C 0.76335 0.04221 -0.05885
 C186 C 0.76462 0.06950 -0.08571
 C187 C 0.73784 0.08231 -0.10363
 C188 C 0.70986 0.06637 -0.09437
 C189 C 0.70884 0.03855 -0.06895
 C190 C 0.75296 -0.03509 -0.09238
 C191 C 0.75302 -0.06260 -0.11864
 C192 C 0.73210 -0.08676 -0.10650
 C193 C 0.71034 -0.08153 -0.06826
 C194 C 0.71028 -0.05385 -0.04226
 H195 H 0.70708 -0.02025 0.11499
 H196 H 0.71019 -0.06744 0.16143
 H197 H 0.77900 -0.09617 0.05611
 H198 H 0.77623 -0.04840 0.01142
 H199 H 0.69147 0.03670 0.03763
 H200 H 0.69211 0.08488 0.08407
 H201 H 0.78253 0.02180 0.08787
 H202 H 0.78414 0.03321 -0.04452
 H203 H 0.78658 0.08114 -0.09020
 H204 H 0.68873 0.07460 -0.10855
 H205 H 0.68718 0.02650 -0.06306
 H206 H 0.77016 -0.01762 -0.10135
 H207 H 0.77089 -0.06518 -0.14623
 H208 H 0.69274 -0.09842 -0.05876
 H209 H 0.69348 -0.05065 -0.01289
 H210 H 0.78348 0.07010 0.13434
 C211 C 0.23046 0.50164 0.46952
 C212 C 0.22986 0.50103 0.52110
 C213 C 0.23195 0.47214 0.54917
 C214 C 0.22913 0.52931 0.55147
 C215 C 0.23289 0.53069 0.44147
 C216 C 0.23074 0.47331 0.43924
 C217 C 0.20654 0.45959 0.57490
 C218 C 0.20811 0.43164 0.59957
 C219 C 0.23536 0.41630 0.59990
 C220 C 0.26095 0.42925 0.57496
 C221 C 0.25918 0.45685 0.54939
 C222 C 0.20531 0.54912 0.54594
 C223 C 0.20572 0.57659 0.57253
 C224 C 0.22989 0.58466 0.60537
 C225 C 0.25330 0.56434 0.61175
 C226 C 0.25284 0.53688 0.58519
 C227 C 0.26005 0.54848 0.44223
 C228 C 0.26222 0.57606 0.41615
 C229 C 0.23706 0.58648 0.38978
 C230 C 0.20986 0.56867 0.38920
 C231 C 0.20793 0.54074 0.41433
 C232 C 0.25549 0.46787 0.40753
 C233 C 0.25697 0.44031 0.38160
 C234 C 0.23359 0.41776 0.38667
 C235 C 0.20837 0.42370 0.41733
 C236 C 0.20694 0.45127 0.44326
 H237 H 0.18539 0.47118 0.57499
 H238 H 0.18818 0.42212 0.61884
 H239 H 0.28214 0.41771 0.57460
 H240 H 0.27898 0.46632 0.52968
 H241 H 0.18654 0.54338 0.52074
 H242 H 0.18710 0.59149 0.56749
 H243 H 0.27144 0.52189 0.58986
 H244 H 0.27951 0.54093 0.46298
 H245 H 0.28335 0.58954 0.41721
 H246 H 0.19027 0.57627 0.36887
 H247 H 0.18684 0.52719 0.41344
 H248 H 0.27410 0.48461 0.40407
 H249 H 0.27683 0.43631 0.35874
 H250 H 0.18974 0.40704 0.42124
 H251 H 0.18741 0.45532 0.46692
 H252 H 0.27242 0.57002 0.63623
 C253 C 0.26529 1.00259 -0.02980
 C254 C 0.26765 1.00320 0.02185
 C255 C 0.26587 1.03204 0.05023
 C256 C 0.26993 0.97524 0.05268
 C257 C 0.26249 0.97357 -0.05888
 C258 C 0.26463 1.03127 -0.05934
 C259 C 0.29206 1.04597 0.07127
 C260 C 0.29057 1.07370 0.09671
 C261 C 0.26254 1.08756 0.10342
 C262 C 0.23619 1.07273 0.08309
 C263 C 0.23797 1.04555 0.05620
 C264 C 0.29277 0.95472 0.04340
 C265 C 0.29309 0.92732 0.07006
 C266 C 0.27069 0.92005 0.10675
 C267 C 0.24851 0.94119 0.11707
 C268 C 0.24825 0.96853 0.09053
 C269 C 0.24176 0.95015 -0.04421
 C270 C 0.24088 0.92228 -0.06947
 C271 C 0.25971 0.91743 -0.11187
 C272 C 0.27905 0.94185 -0.12844
 C273 C 0.28059 0.96940 -0.10195
 C274 C 0.23989 1.03673 -0.09072
 C275 C 0.23849 1.06413 -0.11707
 C276 C 0.26189 1.08701 -0.11264
 C277 C 0.28709 1.08076 -0.08182
 C278 C 0.28852 1.05321 -0.05604
 H279 H 0.31373 1.03556 0.06727
 H280 H 0.31132 1.08351 0.11286
 H281 H 0.21426 1.08271 0.08569
 H282 H 0.21756 1.03497 0.03995
 H283 H 0.30997 0.95969 0.01484
 H284 H 0.31080 0.91178 0.06184
 H285 H 0.23037 0.98397 0.09823
 H286 H 0.22637 0.95330 -0.01275
 H287 H 0.22448 0.90496 -0.05665
 H288 H 0.29437 0.93934 -0.16014
 H289 H 0.29652 0.98726 -0.11442
 H290 H 0.22122 1.02001 -0.09382
 H291 H 0.21815 1.06766 -0.13873
 H292 H 0.30646 1.09656 -0.07872
 H293 H 0.30837 1.04897 -0.03345
 H294 H 0.23069 0.93618 0.14450
 C295 C 0.76695 0.49925 0.47830
 C296 C 0.76592 0.49857 0.52985
 C297 C 0.76373 0.52678 0.55980
 C298 C 0.76540 0.46961 0.55832
 C299 C 0.76563 0.47097 0.44793
 C300 C 0.76751 0.52827 0.45004
 C301 C 0.78885 0.53821 0.58747
 C302 C 0.78736 0.56565 0.61384
 C303 C 0.76046 0.58154 0.61391
 C304 C 0.73508 0.56964 0.58719
 C305 C 0.73680 0.54255 0.55991
 C306 C 0.78903 0.44954 0.55321
 C307 C 0.78771 0.42175 0.57870
 C308 C 0.76280 0.41364 0.61004
 C309 C 0.73950 0.43415 0.61588
 C310 C 0.74086 0.46191 0.59039
 C311 C 0.73878 0.45275 0.44577
 C312 C 0.73774 0.42587 0.41752
 C313 C 0.76370 0.41662 0.39180
 C314 C 0.79054 0.43493 0.39398
 C315 C 0.79137 0.46216 0.42133
 C316 C 0.74367 0.53433 0.41698
 C317 C 0.74315 0.56218 0.39194
 C318 C 0.76662 0.58441 0.39921
 C319 C 0.79080 0.57799 0.43167
 C320 C 0.79128 0.55011 0.45673
 H321 H 0.80976 0.52621 0.58766
 H322 H 0.80712 0.57442 0.63442
 H323 H 0.71419 0.58166 0.58660
 H324 H 0.71723 0.53390 0.53871
 H325 H 0.80845 0.45538 0.52937
 H326 H 0.80628 0.40670 0.57416
 H327 H 0.72239 0.47711 0.59476
 H328 H 0.71872 0.45938 0.46603
 H329 H 0.71688 0.41195 0.41654
 H330 H 0.81075 0.42822 0.37424
 H331 H 0.81221 0.47608 0.42263
 H332 H 0.72509 0.51777 0.41149
 H333 H 0.72401 0.56655 0.36776
 H334 H 0.80946 0.59444 0.43737
 H335 H 0.81012 0.54559 0.48152
 H336 H 0.71985 0.42843 0.63924
 O337 O 0.24129 0.20296 0.24826
 O338 O 0.23488 0.27706 0.31101
 O339 O 0.20135 0.24423 0.24903
 O340 O 0.27525 0.23558 0.31115
 O341 O 0.29836 0.25891 0.24695
 O342 O 0.22458 0.26572 0.18323
 O343 O 0.25725 0.29961 0.24538
 O344 O 0.26604 0.22529 0.18458
 Cu345 Cu 0.23597 0.23770 0.28647
 Cu346 Cu 0.26387 0.26466 0.20853
 C347 C 0.25480 0.20151 0.20576
 C348 C 0.24469 0.30107 0.28871
 C349 C 0.20031 0.25622 0.20528
 C350 C 0.29946 0.24591 0.28988
 O351 O 0.76017 0.79877 0.25889
 O352 O 0.76854 0.72499 0.32152
 O353 O 0.80178 0.75884 0.25943
 O354 O 0.72702 0.76539 0.32008
 O355 O 0.70528 0.74213 0.25442
 O356 O 0.78013 0.73415 0.19509
 O357 O 0.74637 0.70174 0.25632
 O358 O 0.73984 0.77514 0.19230
 Cu359 Cu 0.76658 0.76428 0.29664
 Cu360 Cu 0.74058 0.73603 0.21798
 C361 C 0.74899 0.79944 0.21454
 C362 C 0.75878 0.70074 0.29971
 C363 C 0.80371 0.74535 0.21693
 C364 C 0.70337 0.75489 0.29755
 O365 O 0.79927 0.24525 0.25262
 O366 O 0.72470 0.23541 0.31511
 O367 O 0.75713 0.20199 0.25509
 O368 O 0.76716 0.27810 0.31215
 O369 O 0.74450 0.29771 0.24595
 O370 O 0.73513 0.22171 0.18843
 O371 O 0.70265 0.25436 0.24777
 O372 O 0.77710 0.26431 0.18539
 Cu373 Cu 0.76421 0.23814 0.29045
 Cu374 Cu 0.73770 0.26164 0.21023
 C375 C 0.80078 0.25613 0.20805
 C376 C 0.70096 0.24335 0.29225
 C377 C 0.74472 0.19885 0.21174
 C378 C 0.75724 0.30086 0.28902
 O379 O 0.26882 0.77931 0.18295
 O380 O 0.26014 0.70472 0.24523
 O381 O 0.22668 0.73611 0.18422
 O382 O 0.30156 0.74843 0.24440
 O383 O 0.27975 0.76854 0.31118
 O384 O 0.20530 0.75825 0.24948
 O385 O 0.23715 0.72571 0.31008
 O386 O 0.24822 0.80073 0.24965
 Cu387 Cu 0.26640 0.73995 0.20757
 Cu388 Cu 0.24041 0.76542 0.28669
 C389 C 0.26026 0.80284 0.20583
 C390 C 0.24718 0.70245 0.28825
 C391 C 0.20319 0.74543 0.20633
 C392 C 0.30344 0.76042 0.28826
 O393 O 0.76260 0.27333 0.68683
 O394 O 0.75689 0.19899 0.75015
 O395 O 0.72211 0.22865 0.68847
 O396 O 0.79686 0.24394 0.74778
 O397 O 0.77465 0.26356 0.81459
 O398 O 0.70004 0.25010 0.75374
 O399 O 0.73319 0.21944 0.81483
 O400 O 0.74127 0.29426 0.75331
 Cu401 Cu 0.76176 0.23406 0.71170
 Cu402 Cu 0.73507 0.25892 0.79073
 C403 C 0.75316 0.29659 0.70942
 C404 C 0.74403 0.19653 0.79323
 C405 C 0.69829 0.23709 0.71069
 C406 C 0.79856 0.25623 0.79143
 O407 O 0.29588 0.74618 0.75129
 O408 O 0.22003 0.73522 0.80889
 O409 O 0.25293 0.70369 0.74892
 O410 O 0.26199 0.77822 0.81146
 O411 O 0.24452 0.80028 0.74291
 O412 O 0.23099 0.72512 0.68376
 O413 O 0.20022 0.75947 0.74447
 O414 O 0.27531 0.76567 0.68307
 Cu415 Cu 0.25989 0.73874 0.78680
 Cu416 Cu 0.23574 0.76483 0.70686
 C417 C 0.29846 0.75703 0.70675
 C418 C 0.19729 0.74600 0.78693
 C419 C 0.24009 0.70159 0.70583
 C420 C 0.25476 0.80195 0.78792
 O421 O 0.19990 0.24365 0.74376
 O422 O 0.27378 0.23568 0.68096
 O423 O 0.24044 0.20298 0.74344
 O424 O 0.23268 0.27683 0.68054
 O425 O 0.25650 0.29988 0.74443
 O426 O 0.26329 0.22614 0.80810
 O427 O 0.29669 0.25901 0.74547
 O428 O 0.22279 0.26772 0.80755
 Cu429 Cu 0.23441 0.23754 0.70558
 Cu430 Cu 0.26207 0.26546 0.78296
 C431 C 0.19874 0.25698 0.78646
 C432 C 0.29786 0.24599 0.70252
 C433 C 0.25307 0.20193 0.78667
 C434 C 0.24346 0.30094 0.70154
 O435 O 0.79645 0.75446 0.75634
 O436 O 0.72298 0.76122 0.69275
 O437 O 0.75532 0.79509 0.75492
 O438 O 0.76394 0.72056 0.69468
 O439 O 0.73975 0.69841 0.75903
 O440 O 0.73258 0.77286 0.82052
 O441 O 0.69962 0.73964 0.75836
 O442 O 0.77345 0.73176 0.82126
 Cu443 Cu 0.76202 0.76008 0.71819
 Cu444 Cu 0.73412 0.73341 0.79644
 C445 C 0.79760 0.74187 0.79957
 C446 C 0.69871 0.75168 0.71462
 C447 C 0.74246 0.79677 0.79799
 C448 C 0.75300 0.69678 0.71630
 C449 C 0.28521 0.13750 0.12793
 C450 C 0.26088 0.11557 0.12953
 C451 C 0.23475 0.12249 0.15762
 C452 C 0.23316 0.15010 0.18337
 C453 C 0.25715 0.17193 0.18041
 C454 C 0.28310 0.16551 0.15231
 H455 H 0.30543 0.13381 0.10582
 H456 H 0.21582 0.10619 0.16155
 H457 H 0.21291 0.15463 0.20494
 H458 H 0.30186 0.18213 0.14946
 C459 C 0.73597 0.61523 0.67684
 C460 C 0.75899 0.61075 0.64110
 C461 C 0.78035 0.63449 0.63082
 C462 C 0.77839 0.66251 0.65525
 C463 C 0.75543 0.66701 0.69120
 C464 C 0.73441 0.64303 0.70213
 H465 H 0.71934 0.59714 0.68536
 H466 H 0.79818 0.63150 0.60315
 H467 H 0.79492 0.68060 0.64623
 H468 H 0.71640 0.64597 0.72947
 C469 C 0.74003 0.88303 0.19061
 C470 C 0.74534 0.88529 0.13781
 C471 C 0.75139 0.85847 0.11089
 C472 C 0.75177 0.83053 0.13570
 C473 C 0.74711 0.82873 0.18825
 C474 C 0.74144 0.85519 0.21556
 H475 H 0.73614 0.90293 0.21342
 H476 H 0.75464 0.85864 0.07014
 H477 H 0.75623 0.81035 0.11389
 H478 H 0.73790 0.85429 0.25626
 C479 C 0.21629 0.36278 0.61515
 C480 C 0.23716 0.38684 0.62621
 C481 C 0.25995 0.38257 0.66229
 C482 C 0.26171 0.35476 0.68725
 C483 C 0.24110 0.33049 0.67577
 C484 C 0.21844 0.33472 0.63931
 H485 H 0.19863 0.36558 0.58722
 H486 H 0.27621 0.40088 0.67149
 H487 H 0.27948 0.35209 0.71502
 H488 H 0.20223 0.31642 0.62985
 C489 C 0.88487 0.26826 0.18321
 C490 C 0.88734 0.26020 0.13124
 C491 C 0.86009 0.25158 0.10541
 C492 C 0.83205 0.25125 0.13012
 C493 C 0.83025 0.25846 0.18173
 C494 C 0.85683 0.26679 0.20817
 H495 H 0.90463 0.27391 0.20616
 H496 H 0.85978 0.24657 0.06520
 H497 H 0.81171 0.24479 0.10897
 H498 H 0.85589 0.27223 0.24826
 C499 C 0.35883 0.76164 0.60443
 C500 C 0.38559 0.76043 0.63300
 C501 C 0.38363 0.75880 0.68615
 C502 C 0.35532 0.75779 0.71028
 C503 C 0.32851 0.75900 0.68169
 C504 C 0.33058 0.76120 0.62855
 H505 H 0.35983 0.76316 0.56340
 H506 H 0.40399 0.75772 0.70891
 H507 H 0.35439 0.75611 0.75128
 H508 H 0.31031 0.76202 0.60551
 C509 C 0.11884 0.74941 0.18186
 C510 C 0.11606 0.73694 0.13286
 C511 C 0.14207 0.72646 0.10872
 C512 C 0.17032 0.72884 0.13277
 C513 C 0.17315 0.74174 0.18149
 C514 C 0.14705 0.75178 0.20589
 H515 H 0.09914 0.75725 0.20173
 H516 H 0.14070 0.71705 0.07074
 H517 H 0.19001 0.72094 0.11291
 H518 H 0.14840 0.76170 0.24351
 C519 C 0.63792 0.22007 0.61087
 C520 C 0.61117 0.22649 0.63723
 C521 C 0.61330 0.23506 0.68861
 C522 C 0.64152 0.23801 0.71262
 C523 C 0.66830 0.23226 0.68595
 C524 C 0.66615 0.22284 0.63501
 H525 H 0.63717 0.21383 0.57110
 H526 H 0.59312 0.23963 0.71029
 H527 H 0.64236 0.24505 0.75203
 H528 H 0.68637 0.21833 0.61336
 C529 C 0.71507 0.13047 0.87360
 C530 C 0.73906 0.11035 0.87006
 C531 C 0.76442 0.11913 0.83979
 C532 C 0.76561 0.14677 0.81389
 C533 C 0.74201 0.16683 0.81877
 C534 C 0.71682 0.15855 0.84899
 H535 H 0.69548 0.12536 0.89737
 H536 H 0.78300 0.10423 0.83429
 H537 H 0.78528 0.15272 0.79068
 H538 H 0.69837 0.17378 0.85335
 C539 C 0.26224 0.62189 0.32713
 C540 C 0.23923 0.61594 0.36308
 C541 C 0.21854 0.63839 0.37383
 C542 C 0.22115 0.66660 0.34963
 C543 C 0.24408 0.67254 0.31340
 C544 C 0.26443 0.64982 0.30206
 H545 H 0.27836 0.60481 0.31822
 H546 H 0.20071 0.63425 0.40164
 H547 H 0.20514 0.68369 0.35898
 H548 H 0.28241 0.65387 0.27451
 C549 C 0.26523 0.88654 0.81067
 C550 C 0.25925 0.88886 0.86324
 C551 C 0.25275 0.86176 0.89045
 C552 C 0.25228 0.83357 0.86613
 C553 C 0.25738 0.83165 0.81373
 C554 C 0.26377 0.85833 0.78616
 H555 H 0.26957 0.90655 0.78762
 H556 H 0.24906 0.86200 0.93109
 H557 H 0.24727 0.81325 0.88820
 H558 H 0.26765 0.85737 0.74557
 C559 C 0.74052 0.38127 0.32686
 C560 C 0.76290 0.38757 0.36369
 C561 C 0.78408 0.36566 0.37454
 C562 C 0.78242 0.33753 0.34989
 C563 C 0.75995 0.33111 0.31315
 C564 C 0.73927 0.35340 0.30135
 H565 H 0.72404 0.39795 0.31787
 H566 H 0.80142 0.37005 0.40304
 H567 H 0.79865 0.32077 0.35963
 H568 H 0.72162 0.34895 0.27342
 C569 C 0.13725 0.28447 0.87351
 C570 C 0.11313 0.26367 0.86258
 C571 C 0.11712 0.24102 0.82598
 C572 C 0.14481 0.23922 0.80055
 C573 C 0.16918 0.25966 0.81208
 C574 C 0.16518 0.28229 0.84885
 H575 H 0.13464 0.30201 0.90185
 H576 H 0.09872 0.22483 0.81691
 H577 H 0.14733 0.22149 0.77254
 H578 H 0.18358 0.29837 0.85834
 C579 C 0.62127 0.73830 0.33417
 C580 C 0.61671 0.76084 0.37076
 C581 C 0.64061 0.78170 0.38261
 C582 C 0.66883 0.77974 0.35887
 C583 C 0.67341 0.75727 0.32205
 C584 C 0.64928 0.73673 0.30959
 H585 H 0.60305 0.72207 0.32438
 H586 H 0.63757 0.79917 0.41093
 H587 H 0.68703 0.79589 0.36907
 H588 H 0.65226 0.71911 0.28154
 C589 C 0.85737 0.72591 0.89829
 C590 C 0.88427 0.73528 0.87296
 C591 C 0.88239 0.74625 0.82306
 C592 C 0.85428 0.74821 0.79926
 C593 C 0.82736 0.73914 0.82472
 C594 C 0.82921 0.72779 0.87440
 H595 H 0.85804 0.71770 0.93698
 H596 H 0.90271 0.75317 0.80221
 H597 H 0.85367 0.75687 0.76084
 H598 H 0.80888 0.72069 0.89508
 C599 C 0.38423 0.25007 0.31532
 C600 C 0.38576 0.23762 0.36431
 C601 C 0.35863 0.22772 0.38843
 C602 C 0.33066 0.23027 0.36422
 C603 C 0.32913 0.24286 0.31534
 C604 C 0.35626 0.25268 0.29114
 H605 H 0.40472 0.25753 0.29541
 H606 H 0.35895 0.21846 0.42647
 H607 H 0.31019 0.22260 0.38402
 H608 H 0.35591 0.26236 0.25340
 C609 C 0.74671 0.88178 0.82030
 C610 C 0.73354 0.88451 0.86901
 C611 C 0.72262 0.85753 0.89310
 C612 C 0.72539 0.82920 0.87002
 C613 C 0.73901 0.82682 0.82207
 C614 C 0.74939 0.85344 0.79734
 H615 H 0.75425 0.90148 0.79860
 H616 H 0.71322 0.85773 0.93103
 H617 H 0.71723 0.80907 0.89021
 H618 H 0.75961 0.85244 0.75998
 C619 C 0.22674 0.36097 0.38632
 C620 C 0.23586 0.38791 0.36106
 C621 C 0.24769 0.38605 0.31162
 C622 C 0.25051 0.35787 0.28808
 C623 C 0.24150 0.33093 0.31344
 C624 C 0.22949 0.33280 0.36276
 H625 H 0.21799 0.36160 0.42473
 H626 H 0.25456 0.40641 0.29092
 H627 H 0.25971 0.35722 0.24997
 H628 H 0.22243 0.31247 0.38340
 C629 C 0.24279 0.11809 0.81721
 C630 C 0.26005 0.11538 0.86204
 C631 C 0.27520 0.14196 0.88109
 C632 C 0.27291 0.16992 0.85675
 C633 C 0.25570 0.17227 0.81231
 C634 C 0.24081 0.14602 0.79271
 H635 H 0.23158 0.09853 0.79942
 H636 H 0.28788 0.14180 0.91620
 H637 H 0.28455 0.18977 0.87301
 H638 H 0.22749 0.14702 0.75828
 C639 C 0.75527 0.61597 0.32303
 C640 C 0.76561 0.61423 0.37333
 C641 C 0.77434 0.64122 0.39897
 C642 C 0.77243 0.66934 0.37498
 C643 C 0.76166 0.67105 0.32492
 C644 C 0.75326 0.64403 0.29915
 H645 H 0.74885 0.59557 0.30197
 H646 H 0.78204 0.64066 0.43796
 H647 H 0.77900 0.68975 0.39590
 H648 H 0.74508 0.64454 0.26043
 C649 C 0.11913 0.76490 0.83273
 C650 C 0.11069 0.73941 0.86285
 C651 C 0.13113 0.71570 0.86599
 C652 C 0.15924 0.71790 0.84137
 C653 C 0.16728 0.74329 0.81157
 C654 C 0.14684 0.76655 0.80684
 H655 H 0.10397 0.78329 0.82753
 H656 H 0.12633 0.69602 0.88962
 H657 H 0.17475 0.69969 0.84564
 H658 H 0.15259 0.78638 0.78398
 C659 C 0.64117 0.23691 0.39540
 C660 C 0.61426 0.23727 0.36703
 C661 C 0.61597 0.23876 0.31388
 C662 C 0.64418 0.24056 0.28952
 C663 C 0.67115 0.24032 0.31786
 C664 C 0.66937 0.23815 0.37101
 H665 H 0.64035 0.23553 0.43645
 H666 H 0.59549 0.23920 0.29130
 H667 H 0.64488 0.24215 0.24850
 H668 H 0.68979 0.23804 0.39381
 C669 C 0.88376 0.26105 0.81100
 C670 C 0.88616 0.26942 0.86243
 C671 C 0.85946 0.27458 0.88982
 C672 C 0.83103 0.27084 0.86658
 C673 C 0.82865 0.26169 0.81553
 C674 C 0.85536 0.25714 0.78789
 H675 H 0.90388 0.25741 0.78857
 H676 H 0.86047 0.28063 0.92967
 H677 H 0.81087 0.27447 0.88895
 H678 H 0.85435 0.25036 0.74836
 C679 C 0.36369 0.77652 0.38824
 C680 C 0.39040 0.77024 0.36175
 C681 C 0.38832 0.76175 0.31035
 C682 C 0.36012 0.75890 0.28632
 C683 C 0.33339 0.76465 0.31308
 C684 C 0.33550 0.77384 0.36413
 H685 H 0.36446 0.78266 0.42807
 H686 H 0.40852 0.75721 0.28869
 H687 H 0.35927 0.75202 0.24683
 H688 H 0.31530 0.77835 0.38583
 C689 C 0.26111 0.88786 0.18430
 C690 C 0.26964 0.89017 0.13293
 C691 C 0.27592 0.86353 0.10619
 C692 C 0.27328 0.83523 0.13004
 C693 C 0.26413 0.83290 0.18110
 C694 C 0.25828 0.85956 0.20806
 H695 H 0.25658 0.90797 0.20622
 H696 H 0.28208 0.86443 0.06639
 H697 H 0.27787 0.81511 0.10817
 H698 H 0.25144 0.85856 0.24755
 C699 C 0.74967 0.38113 0.68581
 C700 C 0.76086 0.38374 0.63593
 C701 C 0.76974 0.35747 0.61062
 C702 C 0.76736 0.32922 0.63456
 C703 C 0.75598 0.32659 0.68432
 C704 C 0.74723 0.35287 0.70973
 H705 H 0.74303 0.40101 0.70656
 H706 H 0.77803 0.35866 0.57192
 H707 H 0.77421 0.30940 0.61387
 H708 H 0.73851 0.35163 0.74817
 C709 C 0.72684 0.13664 0.11554
 C710 C 0.73881 0.11121 0.13899
 C711 C 0.75207 0.11465 0.18728
 C712 C 0.75358 0.14298 0.21136
 C713 C 0.74192 0.16849 0.18757
 C714 C 0.72837 0.16494 0.13952
 H715 H 0.71686 0.13482 0.07805
 H716 H 0.76117 0.09539 0.20656
 H717 H 0.76413 0.14495 0.24839
 H718 H 0.71927 0.18413 0.12005
 C719 C 0.24174 0.61688 0.68215
 C720 C 0.23115 0.61444 0.63194
 C721 C 0.22260 0.64083 0.60679
 C722 C 0.22502 0.66906 0.63104
 C723 C 0.23616 0.67155 0.68092
 C724 C 0.24427 0.64511 0.70633
 H725 H 0.24807 0.59693 0.70283
 H726 H 0.21474 0.63978 0.56787
 H727 H 0.21868 0.68901 0.61035
 H728 H 0.25275 0.64622 0.74488
 C729 C 0.86614 0.71801 0.13189
 C730 C 0.88982 0.73944 0.14210
 C731 C 0.88532 0.76244 0.17791
 C732 C 0.85753 0.76396 0.20321
 C733 C 0.83358 0.74290 0.19222
 C734 C 0.83815 0.71991 0.15634
 H735 H 0.86912 0.70021 0.10414
 H736 H 0.90337 0.77913 0.18639
 H737 H 0.85454 0.78198 0.23052
 H738 H 0.82009 0.70335 0.14728
 C739 C 0.38005 0.26072 0.66541
 C740 C 0.38410 0.23800 0.62896
 C741 C 0.35971 0.21773 0.61696
 C742 C 0.33154 0.22043 0.64058
 C743 C 0.32752 0.24304 0.67736
 C744 C 0.35210 0.26303 0.68980
 H745 H 0.39864 0.27651 0.67528
 H746 H 0.36237 0.20016 0.58870
 H747 H 0.31298 0.20469 0.63043
 H748 H 0.34958 0.28074 0.71785
 C749 C 0.11558 0.25106 0.17997
 C750 C 0.11391 0.26304 0.13069
 C751 C 0.14091 0.27311 0.10635
 C752 C 0.16894 0.27108 0.13063
 C753 C 0.17060 0.25892 0.17979
 C754 C 0.14358 0.24902 0.20423
 H755 H 0.09517 0.24350 0.20001
 H756 H 0.14044 0.28207 0.06812
 H757 H 0.18932 0.27882 0.11067
 H758 H 0.14404 0.23964 0.24217
 C759 C 0.61416 0.74746 0.68821
 C760 C 0.61300 0.75947 0.63889
 C761 C 0.64024 0.76907 0.61489
 C762 C 0.66802 0.76665 0.63958
 C763 C 0.66921 0.75453 0.68881
 C764 C 0.64197 0.74501 0.71291
 H765 H 0.59352 0.74021 0.70789
 H766 H 0.64013 0.77797 0.57661
 H767 H 0.68860 0.77408 0.61988
 H768 H 0.64211 0.73566 0.75090
   
