data_POSCAR
  _audit_creation_date              2014-09-24
  _audit_creation_method            'ToBaCCo'
  _symmetry_space_group_name_H-M    'P1'
  _symmetry_Int_Tables_number       1
  _symmetry_cell_setting            triclinic
  loop_
  _symmetry_equiv_pos_as_xyz
 x,y,z
_cell_length_a 23.7428
_cell_length_b 23.9613
_cell_length_c 42.3552
_cell_angle_alpha 80.089600
_cell_angle_beta 97.986600
_cell_angle_gamma 80.834800
loop_
  _atom_site_label
  _atom_site_type_symbol
  _atom_site_fract_x
  _atom_site_fract_y
  _atom_site_fract_z
O1 O -0.04514 0.43779 1.02386
 O2 O -0.04422 0.56828 0.96358
 O3 O -0.04022 0.45807 0.96172
 O4 O -0.04853 0.54574 1.02537
 O5 O 0.04690 0.53015 1.03625
 O6 O 0.05508 0.44303 0.97331
 O7 O 0.05112 0.55171 0.97436
 O8 O 0.05034 0.42185 1.03481
 Cu9 Cu -0.05415 0.50405 0.99226
 Cu10 Cu 0.06034 0.48523 1.00572
 C11 C 0.00249 0.40775 1.03979
 C12 C 0.00364 0.58280 0.95885
 C13 C 0.00914 0.43499 0.95694
 C14 C -0.00199 0.55260 1.04180
 O15 O 0.53543 0.04943 0.45450
 O16 O 0.44185 0.06656 0.51686
 O17 O 0.54926 0.07114 0.51296
 O18 O 0.42494 0.05033 0.45740
 O19 O 0.44755 -0.04371 0.47584
 O20 O 0.57078 -0.02234 0.53327
 O21 O 0.46345 -0.02755 0.53505
 O22 O 0.55716 -0.04394 0.47458
 Cu23 Cu 0.48566 0.06873 0.48329
 Cu24 Cu 0.51210 -0.04374 0.50644
 C25 C 0.56299 -0.00062 0.45423
 C26 C 0.43681 0.02188 0.53662
 C27 C 0.58073 0.02836 0.53299
 C28 C 0.41437 0.00008 0.45734
 C29 C -0.05095 -0.12397 0.23364
 C30 C -0.10157 -0.11056 0.25177
 C31 C -0.09962 -0.06466 0.26676
 C32 C -0.04694 -0.03589 0.26200
 C33 C -0.05108 -0.06744 0.21052
 C34 C -0.04887 -0.02154 0.22511
 C35 C 0.00278 -0.13161 0.25991
 C36 C 0.00602 -0.08527 0.27440
 H37 H -0.13425 -0.13694 0.25418
 H38 H -0.04546 0.00222 0.27342
 H39 H -0.05164 -0.06444 0.18464
 H40 H 0.03454 -0.17121 0.26689
 C41 C 0.10138 0.06523 0.72902
 C42 C 0.10783 0.00821 0.75349
 C43 C 0.06213 0.00374 0.76949
 C44 C 0.01473 0.05864 0.76034
 C45 C 0.04298 0.07159 0.70714
 C46 C -0.00228 0.06794 0.72326
 C47 C 0.09216 0.11114 0.74983
 C48 C 0.04697 0.10793 0.76634
 H49 H 0.14687 -0.02431 0.75885
 H50 H -0.02289 0.05678 0.77302
 H51 H 0.03868 0.07484 0.68105
 H52 H 0.12020 0.14212 0.75223
 C53 C 0.04706 -0.40275 0.08454
 C54 C 0.04523 -0.36980 0.10865
 C55 C -0.00772 -0.34673 0.11646
 C56 C -0.05933 -0.35718 0.09992
 C57 C -0.05763 -0.39007 0.07565
 C58 C -0.00436 -0.41303 0.06763
 N59 N -0.00759 -0.31137 0.14044
 N60 N -0.05343 -0.28977 0.14978
 C61 C -0.05169 -0.25266 0.17292
 C62 C -0.10320 -0.22911 0.18215
 C63 C -0.10326 -0.18934 0.20279
 C64 C -0.05130 -0.17306 0.21509
 C65 C 0.00026 -0.19704 0.20555
 C66 C 0.00023 -0.23677 0.18507
 H67 H 0.08880 -0.41978 0.07899
 H68 H 0.08524 -0.36182 0.12117
 H69 H -0.10083 -0.33954 0.10550
 H70 H -0.09796 -0.39732 0.06312
 H71 H -0.14369 -0.24026 0.17251
 H72 H -0.14444 -0.16990 0.20787
 H73 H 0.04062 -0.18360 0.21306
 H74 H 0.04060 -0.25363 0.17794
 C75 C 0.05254 0.31306 0.07480
 C76 C 0.05210 0.26327 0.09736
 C77 C 0.00206 0.25585 0.11026
 C78 C -0.04801 0.29883 0.10025
 C79 C -0.04796 0.34826 0.07724
 C80 C 0.00234 0.35582 0.06428
 N81 N 0.00254 0.20319 0.13223
 N82 N -0.03722 0.19660 0.14906
 C83 C -0.03725 0.14231 0.16945
 C84 C -0.07572 0.13916 0.19168
 C85 C -0.07845 0.08599 0.21066
 C86 C -0.04355 0.03524 0.20703
 C87 C -0.00447 0.03860 0.18506
 C88 C -0.00105 0.09167 0.16657
 H89 H 0.09184 0.31761 0.06515
 H90 H 0.09082 0.23023 0.10476
 H91 H -0.08735 0.29372 0.10972
 H92 H -0.08718 0.38063 0.06966
 H93 H -0.10397 0.17785 0.19406
 H94 H -0.10908 0.08430 0.22731
 H95 H 0.02333 0.00002 0.18213
 H96 H 0.02892 0.09289 0.14951
 C97 C 0.39114 -0.02431 0.58129
 C98 C 0.35594 -0.02144 0.60486
 C99 C 0.32879 0.03179 0.60965
 C100 C 0.33727 0.08284 0.59050
 C101 C 0.37249 0.08008 0.56661
 C102 C 0.39970 0.02634 0.56175
 N103 N 0.29163 0.03186 0.63345
 N104 N 0.26686 0.07731 0.64132
 C105 C 0.22865 0.07363 0.66470
 C106 C 0.20363 0.12366 0.67419
 C107 C 0.16410 0.12110 0.69583
 C108 C 0.14952 0.06804 0.70881
 C109 C 0.17420 0.01821 0.69856
 C110 C 0.21379 0.02079 0.67722
 H111 H 0.41130 -0.06643 0.57823
 H112 H 0.34947 -0.06099 0.61942
 H113 H 0.31634 0.12452 0.59376
 H114 H 0.37833 0.11980 0.55196
 H115 H 0.21384 0.16488 0.66426
 H116 H 0.14372 0.16102 0.70146
 H117 H 0.16169 -0.02283 0.70620
 H118 H 0.23151 -0.01847 0.66982
 C119 C -0.35198 0.09123 0.55113
 C120 C -0.30708 0.10148 0.57306
 C121 C -0.28095 0.05958 0.60061
 C122 C -0.29984 0.00657 0.60596
 C123 C -0.34441 -0.00409 0.58376
 C124 C -0.37105 0.03828 0.55618
 N125 N -0.23400 0.07140 0.62192
 N126 N -0.21197 0.03916 0.64942
 C127 C -0.16303 0.05105 0.66926
 C128 C -0.14175 0.01619 0.70006
 C129 C -0.09088 0.02365 0.71859
 C130 C -0.06032 0.06572 0.70626
 C131 C -0.08295 0.10209 0.67594
 C132 C -0.13395 0.09501 0.65764
 H133 H -0.37148 0.12467 0.53007
 H134 H -0.29256 0.14229 0.56859
 H135 H -0.27984 -0.02665 0.62701
 H136 H -0.35838 -0.04518 0.58834
 H137 H -0.16371 -0.01785 0.70930
 H138 H -0.07394 -0.00529 0.74176
 H139 H -0.06037 0.13514 0.66606
 H140 H -0.14952 0.12270 0.63397
 C141 C -0.04762 -0.32747 0.92215
 C142 C -0.04650 -0.27600 0.90103
 C143 C 0.00596 -0.26312 0.89328
 C144 C 0.05772 -0.30193 0.90732
 C145 C 0.05695 -0.35266 0.92904
 C146 C 0.00422 -0.36638 0.93670
 N147 N 0.00596 -0.21045 0.87132
 N148 N 0.04826 -0.20428 0.85644
 C149 C 0.05037 -0.15179 0.83501
 C150 C 0.08687 -0.15372 0.81193
 C151 C 0.09023 -0.10355 0.79057
 C152 C 0.05838 -0.04967 0.79252
 C153 C 0.02227 -0.04791 0.81621
 C154 C 0.01782 -0.09861 0.83704
 H155 H -0.08907 -0.33615 0.92747
 H156 H -0.08670 -0.24636 0.89039
 H157 H 0.09887 -0.29264 0.90185
 H158 H 0.09781 -0.38126 0.93963
 H159 H 0.11206 -0.19454 0.81010
 H160 H 0.11731 -0.10758 0.77225
 H161 H -0.00203 -0.00756 0.81917
 H162 H -0.01010 -0.09613 0.85510
 C163 C 0.06900 0.37616 0.92605
 C164 C 0.07501 0.33874 0.90442
 C165 C 0.02662 0.32170 0.88892
 C166 C -0.02866 0.34332 0.89492
 C167 C -0.03486 0.38113 0.91663
 C168 C 0.01408 0.39756 0.93263
 N169 N 0.03578 0.28197 0.86766
 N170 N -0.00450 0.26255 0.85244
 C171 C 0.00861 0.22251 0.83168
 C172 C -0.03634 0.20374 0.81373
 C173 C -0.02412 0.16575 0.79276
 C174 C 0.03339 0.14617 0.78941
 C175 C 0.07834 0.16413 0.80803
 C176 C 0.06615 0.20190 0.82884
 H177 H 0.10761 0.38793 0.93783
 H178 H 0.11778 0.32242 0.89992
 H179 H -0.06672 0.33070 0.88311
 H180 H -0.07771 0.39678 0.92124
 H181 H -0.08089 0.21911 0.81571
 H182 H -0.05965 0.15290 0.77860
 H183 H 0.12319 0.14874 0.80670
 H184 H 0.10187 0.21507 0.84265
 C185 C -0.37107 -0.06505 0.43131
 C186 C -0.33259 -0.07418 0.40990
 C187 C -0.32082 -0.02784 0.38865
 C188 C -0.34885 0.02846 0.38861
 C189 C -0.38810 0.03785 0.40994
 C190 C -0.39940 -0.00889 0.43182
 N191 N -0.28019 -0.04008 0.36762
 N192 N -0.26233 -0.00163 0.34896
 C193 C -0.22146 -0.01768 0.32859
 C194 C -0.19936 0.02499 0.30978
 C195 C -0.15933 0.00991 0.28983
 C196 C -0.14130 -0.04816 0.28815
 C197 C -0.16327 -0.09082 0.30729
 C198 C -0.20284 -0.07581 0.32726
 H199 H -0.37841 -0.10238 0.44752
 H200 H -0.31135 -0.11774 0.41004
 H201 H -0.34047 0.06495 0.37221
 H202 H -0.40894 0.08167 0.40953
 H203 H -0.21316 0.06995 0.31058
 H204 H -0.14331 0.04374 0.27539
 H205 H -0.14929 -0.13606 0.30725
 H206 H -0.21883 -0.10982 0.34166
 C207 C 0.31586 0.03972 0.42445
 C208 C 0.26577 0.03306 0.40501
 C209 C 0.26156 -0.01992 0.39619
 C210 C 0.30795 -0.06680 0.40748
 C211 C 0.35772 -0.06051 0.42749
 C212 C 0.36228 -0.00704 0.43599
 N213 N 0.21000 -0.02483 0.37569
 N214 N 0.20781 -0.06708 0.36131
 C215 C 0.15641 -0.07217 0.34076
 C216 C 0.16100 -0.10977 0.31909
 C217 C 0.11233 -0.11416 0.29770
 C218 C 0.05740 -0.08192 0.29811
 C219 C 0.05277 -0.04519 0.32061
 C220 C 0.10191 -0.03995 0.34155
 H221 H 0.31792 0.08130 0.43085
 H222 H 0.23030 0.06945 0.39651
 H223 H 0.30552 -0.10830 0.40109
 H224 H 0.39279 -0.09726 0.43607
 H225 H 0.20282 -0.13467 0.31817
 H226 H 0.11840 -0.14190 0.28035
 H227 H 0.01132 -0.02067 0.32232
 H228 H 0.09727 -0.01106 0.35845
   
