data_POSCAR
  _audit_creation_date              2014-09-24
  _audit_creation_method            'ToBaCCo'
  _symmetry_space_group_name_H-M    'P1'
  _symmetry_Int_Tables_number       1
  _symmetry_cell_setting            triclinic
  loop_
  _symmetry_equiv_pos_as_xyz
 x,y,z
_cell_length_a 35.7441
_cell_length_b 35.0086
_cell_length_c 34.1687
_cell_angle_alpha 90.250900
_cell_angle_beta 90.272400
_cell_angle_gamma 89.531900
loop_
  _atom_site_label
  _atom_site_type_symbol
  _atom_site_fract_x
  _atom_site_fract_y
  _atom_site_fract_z
Si1 Si 0.25108 0.25304 0.25032
 Si2 Si 0.74826 0.75019 0.24715
 Si3 Si 0.75191 0.24740 0.74296
 Si4 Si 0.24935 0.75113 0.75397
 C5 C 0.04750 0.06265 0.01861
 H6 H 0.04648 0.06588 -0.01286
 C7 C 0.06975 0.08697 0.04122
 H8 H 0.08614 0.10873 0.02699
 C9 C 0.02776 0.03002 0.07540
 H10 H 0.01099 0.00827 0.08883
 C11 C 0.04994 0.05336 0.09902
 H12 H 0.05017 0.04912 0.13040
 N13 N 0.02764 0.03435 0.03585
 C14 C 0.01638 -0.05954 -0.04787
 H15 H -0.01350 -0.06406 -0.04686
 C16 C 0.03887 -0.08304 -0.07129
 H17 H 0.02603 -0.10542 -0.08858
 C18 C 0.06928 -0.02440 -0.02699
 H19 H 0.08115 -0.00182 -0.00942
 C20 C 0.09274 -0.04707 -0.05014
 H21 H 0.12253 -0.04167 -0.05003
 Zn22 Zn -0.00060 0.00117 0.00322
 N23 N 0.03174 -0.03050 -0.02682
 C24 C -0.03088 0.02584 -0.06949
 N25 N -0.03066 0.03184 -0.03016
 C26 C -0.05123 0.06050 -0.01373
 C27 C -0.07336 0.08439 -0.03711
 C28 C -0.05293 0.04872 -0.09389
 C29 C -0.01436 -0.05662 0.05804
 C30 C -0.03586 -0.08040 0.08154
 C31 C -0.09165 -0.05256 0.05294
 C32 C -0.06910 -0.02890 0.03044
 N33 N -0.03119 -0.03097 0.03374
 H34 H -0.01408 0.00325 -0.08213
 H35 H -0.05019 0.06494 0.01761
 H36 H -0.08890 0.10746 -0.02345
 H37 H -0.05329 0.04276 -0.12500
 H38 H 0.01586 -0.05827 0.05945
 H39 H -0.02209 -0.10042 0.10103
 H40 H -0.12180 -0.05027 0.05035
 H41 H -0.08195 -0.00890 0.01039
 C42 C 0.07755 -0.07662 -0.07298
 C43 C 0.07162 0.08195 0.08190
 C44 C -0.07502 -0.07841 0.07916
 C45 C -0.07451 0.07861 -0.07785
 C46 C 0.04885 0.56529 0.51958
 H47 H 0.04792 0.56941 0.48822
 C48 C 0.07084 0.58913 0.54301
 H49 H 0.08713 0.61139 0.52950
 C50 C 0.02910 0.53092 0.57528
 H51 H 0.01247 0.50863 0.58795
 C52 C 0.05098 0.55379 0.59969
 H53 H 0.05106 0.54869 0.63093
 N54 N 0.02906 0.53642 0.53588
 C55 C 0.01792 0.44345 0.45120
 H56 H -0.01191 0.43861 0.45243
 C57 C 0.04052 0.41992 0.42795
 H58 H 0.02780 0.39730 0.41089
 C59 C 0.07060 0.47911 0.47170
 H60 H 0.08235 0.50189 0.48910
 C61 C 0.09418 0.45639 0.44877
 H62 H 0.12394 0.46196 0.44885
 Zn63 Zn 0.00082 0.50403 0.50238
 N64 N 0.03312 0.47275 0.47198
 C65 C -0.03355 0.52712 0.43087
 N66 N -0.02931 0.53518 0.46960
 C67 C -0.04686 0.56570 0.48626
 C68 C -0.07004 0.58937 0.46385
 C69 C -0.05697 0.54966 0.40750
 C70 C -0.01351 0.44454 0.55499
 C71 C -0.03528 0.42036 0.57775
 C72 C -0.09077 0.45095 0.55154
 C73 C -0.06794 0.47487 0.52964
 N74 N -0.03005 0.47158 0.53210
 H75 H -0.01929 0.50287 0.41805
 H76 H -0.04284 0.57160 0.51709
 H77 H -0.08320 0.61384 0.47771
 H78 H -0.06086 0.54184 0.37708
 H79 H 0.01667 0.44206 0.55581
 H80 H -0.02170 0.39916 0.59607
 H81 H -0.12087 0.45429 0.54973
 H82 H -0.08055 0.49613 0.51081
 C83 C 0.07916 0.42655 0.42622
 C84 C 0.07251 0.58306 0.58355
 C85 C -0.07442 0.42353 0.57626
 C86 C -0.07574 0.58130 0.42391
 C87 C 0.54462 0.05585 0.51502
 H88 H 0.54137 0.05960 0.48377
 C89 C 0.56865 0.07958 0.53617
 H90 H 0.58405 0.10150 0.52103
 C91 C 0.52888 0.02230 0.57266
 H92 H 0.51306 0.00033 0.58696
 C93 C 0.55295 0.04504 0.59483
 H94 H 0.55546 0.04027 0.62603
 N95 N 0.52581 0.02745 0.53333
 C96 C 0.50970 -0.06520 0.44957
 H97 H 0.47978 -0.06920 0.45144
 C98 C 0.53114 -0.08895 0.42539
 H99 H 0.51743 -0.11095 0.40834
 C100 C 0.56377 -0.03133 0.46930
 H101 H 0.57653 -0.00920 0.48678
 C102 C 0.58624 -0.05437 0.44550
 H103 H 0.61615 -0.04973 0.44511
 Zn104 Zn 0.49547 -0.00484 0.50199
 N105 N 0.52614 -0.03667 0.47042
 C106 C 0.46175 0.02018 0.43107
 N107 N 0.46470 0.02670 0.47020
 C108 C 0.44678 0.05673 0.48742
 C109 C 0.42499 0.08181 0.46501
 C110 C 0.43977 0.04410 0.40770
 C111 C 0.48302 -0.06308 0.55657
 C112 C 0.46209 -0.08707 0.58040
 C113 C 0.40564 -0.05797 0.55465
 C114 C 0.42767 -0.03407 0.53181
 N115 N 0.46564 -0.03673 0.53350
 H116 H 0.47640 -0.00356 0.41776
 H117 H 0.44993 0.06151 0.51856
 H118 H 0.41189 0.10611 0.47923
 H119 H 0.43724 0.03769 0.37680
 H120 H 0.51323 -0.06522 0.55664
 H121 H 0.47631 -0.10765 0.59893
 H122 H 0.37546 -0.05527 0.55336
 H123 H 0.41438 -0.01346 0.51272
 C124 C 0.56993 -0.08344 0.42290
 C125 C 0.57344 0.07385 0.57649
 C126 C 0.42291 -0.08458 0.57960
 C127 C 0.42124 0.07571 0.42447
 C128 C 0.54994 0.55749 0.01005
 H129 H 0.54510 0.56278 -0.02069
 C130 C 0.57312 0.58191 0.03138
 H131 H 0.58674 0.60526 0.01660
 C132 C 0.53699 0.52174 0.06701
 H133 H 0.52228 0.49898 0.08123
 C134 C 0.56024 0.54523 0.08936
 H135 H 0.56320 0.54006 0.12046
 N136 N 0.53268 0.52781 0.02791
 C137 C 0.52372 0.42666 -0.03821
 H138 H 0.50163 0.41443 -0.02099
 C139 C 0.54556 0.40281 -0.06184
 H140 H 0.54050 0.37236 -0.06179
 C141 C 0.55699 0.48092 -0.05946
 H142 H 0.56112 0.51139 -0.05886
 C143 C 0.57955 0.45810 -0.08347
 H144 H 0.60077 0.47140 -0.10121
 Zn145 Zn 0.50084 0.49649 -0.00326
 N146 N 0.53007 0.46493 -0.03694
 C147 C 0.45985 0.51849 -0.07057
 N148 N 0.46971 0.52876 -0.03355
 C149 C 0.45704 0.56183 -0.01718
 C150 C 0.43374 0.58638 -0.03840
 C151 C 0.43621 0.54201 -0.09272
 C152 C 0.48710 0.43908 0.05278
 C153 C 0.46542 0.41594 0.07672
 C154 C 0.40988 0.44610 0.05015
 C155 C 0.43264 0.46906 0.02710
 N156 N 0.47054 0.46535 0.02894
 H157 H 0.46996 0.49178 -0.08273
 H158 H 0.46517 0.56918 0.01243
 H159 H 0.42466 0.61293 -0.02501
 H160 H 0.42803 0.53287 -0.12180
 H161 H 0.51724 0.43605 0.05309
 H162 H 0.47903 0.39523 0.09558
 H163 H 0.37978 0.44959 0.04862
 H164 H 0.41996 0.48980 0.00771
 C165 C 0.57414 0.41844 -0.08464
 C166 C 0.57864 0.57575 0.07153
 C167 C 0.42631 0.41935 0.07554
 C168 C 0.42284 0.57658 -0.07671
 C169 C 0.17333 -0.16887 -0.17381
 C170 C 0.16817 -0.20891 -0.17318
 C171 C 0.19131 -0.23297 -0.19571
 C172 C 0.21983 -0.21779 -0.21888
 C173 C 0.22391 -0.17805 -0.22063
 C174 C 0.20115 -0.15390 -0.19833
 C175 C 0.14888 -0.14422 -0.14838
 C176 C 0.15291 -0.10428 -0.14562
 C177 C 0.12977 -0.08263 -0.12119
 C178 C 0.10190 -0.10006 -0.09890
 C179 C 0.09756 -0.13982 -0.10146
 C180 C 0.12094 -0.16196 -0.12571
 C181 C 0.14005 -0.22468 -0.15002
 C182 C 0.11681 -0.20171 -0.12700
 H183 H 0.13594 -0.25532 -0.14967
 H184 H 0.09547 -0.21535 -0.10962
 H185 H 0.18737 -0.26365 -0.19480
 H186 H 0.24470 -0.16513 -0.23909
 H187 H 0.13343 -0.05196 -0.12006
 H188 H 0.07643 -0.15363 -0.08393
 H189 H 0.20582 -0.12363 -0.20083
 H190 H 0.17385 -0.08914 -0.16186
 C191 C 0.17519 0.33402 0.32604
 C192 C 0.16962 0.29401 0.32626
 C193 C 0.19241 0.26996 0.30332
 C194 C 0.22083 0.28520 0.28023
 C195 C 0.22571 0.32478 0.27923
 C196 C 0.20333 0.34895 0.30189
 C197 C 0.15078 0.35870 0.35144
 C198 C 0.15483 0.39864 0.35411
 C199 C 0.13160 0.42036 0.37835
 C200 C 0.10365 0.40300 0.40058
 C201 C 0.09930 0.36323 0.39813
 C202 C 0.12271 0.34102 0.37398
 C203 C 0.14140 0.27829 0.34931
 C204 C 0.11836 0.30129 0.37253
 H205 H 0.13703 0.24769 0.34941
 H206 H 0.09691 0.28772 0.38981
 H207 H 0.18813 0.23933 0.30350
 H208 H 0.24686 0.33738 0.26098
 H209 H 0.13524 0.45103 0.37934
 H210 H 0.07809 0.34947 0.41559
 H211 H 0.20855 0.37915 0.29991
 H212 H 0.17577 0.41376 0.33787
 C213 C 0.66434 -0.17836 0.32333
 C214 C 0.69331 -0.15977 0.30283
 C215 C 0.71818 -0.18104 0.27947
 C216 C 0.71487 -0.22073 0.27657
 C217 C 0.68581 -0.23905 0.29606
 C218 C 0.66083 -0.21826 0.31923
 C219 C 0.63895 -0.15471 0.34872
 C220 C 0.60963 -0.17047 0.37073
 C221 C 0.58720 -0.14730 0.39448
 C222 C 0.59335 -0.10786 0.39700
 C223 C 0.62225 -0.09184 0.37492
 C224 C 0.64501 -0.11485 0.35098
 C225 C 0.69750 -0.12014 0.30601
 C226 C 0.67387 -0.09818 0.32954
 H227 H 0.71958 -0.10589 0.29024
 H228 H 0.67843 -0.06764 0.33119
 H229 H 0.74025 -0.16662 0.26396
 H230 H 0.68266 -0.26973 0.29369
 H231 H 0.56536 -0.16044 0.41153
 H232 H 0.62689 -0.06129 0.37619
 H233 H 0.63922 -0.23403 0.33378
 H234 H 0.60366 -0.20059 0.37033
 C235 C 0.66939 0.32025 -0.18001
 C236 C 0.70802 0.32885 -0.18075
 C237 C 0.73261 0.30659 -0.20347
 C238 C 0.71929 0.27598 -0.22588
 C239 C 0.68127 0.26688 -0.22439
 C240 C 0.65656 0.28870 -0.20187
 C241 C 0.64395 0.34506 -0.15585
 C242 C 0.60503 0.33928 -0.15362
 C243 C 0.58256 0.36315 -0.13067
 C244 C 0.59816 0.39348 -0.10938
 C245 C 0.63686 0.39963 -0.11157
 C246 C 0.65975 0.37578 -0.13455
 C247 C 0.72188 0.35962 -0.15891
 C248 C 0.69828 0.38253 -0.13626
 H249 H 0.75146 0.36617 -0.15939
 H250 H 0.71040 0.40602 -0.11993
 H251 H 0.76208 0.31333 -0.20380
 H252 H 0.67038 0.24268 -0.24040
 H253 H 0.55272 0.35810 -0.12995
 H254 H 0.64929 0.42272 -0.09488
 H255 H 0.62762 0.28028 -0.20200
 H256 H 0.59129 0.31663 -0.16943
 C257 C -0.16765 0.17321 -0.17948
 C258 C -0.20155 0.18761 -0.16371
 C259 C -0.22545 0.21038 -0.18679
 C260 C -0.21644 0.21819 -0.22573
 C261 C -0.18357 0.20305 -0.24172
 C262 C -0.15928 0.18099 -0.21892
 C263 C -0.14260 0.14955 -0.15372
 C264 C -0.10725 0.13603 -0.16578
 C265 C -0.08524 0.11352 -0.14101
 C266 C -0.09782 0.10359 -0.10357
 C267 C -0.13274 0.11761 -0.09100
 C268 C -0.15490 0.14077 -0.11552
 C269 C -0.21167 0.17867 -0.12530
 C270 C -0.18910 0.15532 -0.10192
 H271 H -0.23772 0.18947 -0.11328
 H272 H -0.19844 0.14884 -0.07257
 H273 H -0.25132 0.22143 -0.17462
 H274 H -0.17659 0.20835 -0.27201
 H275 H -0.05801 0.10418 -0.15117
 H276 H -0.14301 0.11013 -0.06227
 H277 H -0.13444 0.16997 -0.23289
 H278 H -0.09586 0.14277 -0.19406
 C279 C -0.17605 0.67539 0.32939
 C280 C -0.16805 0.67827 0.28897
 C281 C -0.19142 0.70016 0.26447
 C282 C -0.22205 0.72020 0.27990
 C283 C -0.22917 0.71848 0.32007
 C284 C -0.20667 0.69618 0.34455
 C285 C -0.15100 0.65105 0.35443
 C286 C -0.15828 0.64390 0.39419
 C287 C -0.13399 0.62126 0.41640
 C288 C -0.10153 0.60531 0.39981
 C289 C -0.09431 0.61195 0.35999
 C290 C -0.11901 0.63406 0.33717
 C291 C -0.13645 0.65992 0.27344
 C292 C -0.11212 0.63881 0.29715
 H293 H -0.13011 0.66235 0.24257
 H294 H -0.08778 0.62557 0.28381
 H295 H -0.18547 0.70210 0.23345
 H296 H -0.25206 0.73440 0.33291
 H297 H -0.14108 0.61577 0.44661
 H298 H -0.06933 0.60009 0.34666
 H299 H -0.21342 0.69614 0.37527
 H300 H -0.18287 0.65498 0.40861
 C301 C 0.33034 0.17568 0.32612
 C302 C 0.29932 0.19421 0.34377
 C303 C 0.27598 0.21828 0.32145
 C304 C 0.28228 0.22288 0.28135
 C305 C 0.31229 0.20374 0.26368
 C306 C 0.33621 0.18058 0.28571
 C307 C 0.35493 0.15074 0.35104
 C308 C 0.38809 0.13366 0.33707
 C309 C 0.40962 0.10994 0.36108
 C310 C 0.39862 0.10218 0.39962
 C311 C 0.36604 0.11992 0.41411
 C312 C 0.34456 0.14449 0.39039
 C313 C 0.29129 0.18789 0.38330
 C314 C 0.31302 0.16303 0.40590
 H315 H 0.26739 0.20182 0.39678
 H316 H 0.30523 0.15858 0.43615
 H317 H 0.25262 0.23269 0.33525
 H318 H 0.31724 0.20665 0.23258
 H319 H 0.43524 0.09792 0.34937
 H320 H 0.35701 0.11431 0.44374
 H321 H 0.35866 0.16631 0.27039
 H322 H 0.39820 0.13858 0.30785
 C323 C 0.32473 0.67709 -0.16681
 C324 C 0.32985 0.67759 -0.20785
 C325 C 0.30657 0.70036 -0.23150
 C326 C 0.27837 0.72326 -0.21492
 C327 C 0.27439 0.72403 -0.17414
 C328 C 0.29707 0.70110 -0.15037
 C329 C 0.34937 0.65136 -0.14272
 C330 C 0.34488 0.64675 -0.10208
 C331 C 0.36853 0.62243 -0.08096
 C332 C 0.39750 0.60215 -0.09959
 C333 C 0.40195 0.60632 -0.14018
 C334 C 0.37794 0.63027 -0.16182
 C335 C 0.35832 0.65561 -0.22503
 C336 C 0.38214 0.63284 -0.20246
 H337 H 0.36243 0.65621 -0.25643
 H338 H 0.40391 0.61659 -0.21715
 H339 H 0.31038 0.70013 -0.26299
 H340 H 0.25379 0.74219 -0.16018
 H341 H 0.36370 0.61911 -0.04991
 H342 H 0.42432 0.59114 -0.15504
 H343 H 0.29267 0.70287 -0.11921
 H344 H 0.32299 0.66122 -0.08610
 C345 C -0.16999 -0.17293 0.17579
 C346 C -0.19815 -0.19403 0.15627
 C347 C -0.22229 -0.21738 0.17764
 C348 C -0.21973 -0.21911 0.21847
 C349 C -0.19226 -0.19796 0.23792
 C350 C -0.16758 -0.17515 0.21694
 C351 C -0.14441 -0.14881 0.15171
 C352 C -0.11407 -0.12853 0.16787
 C353 C -0.09135 -0.10612 0.14418
 C354 C -0.09848 -0.10308 0.10394
 C355 C -0.12826 -0.12351 0.08745
 C356 C -0.15088 -0.14664 0.11084
 C357 C -0.20242 -0.19137 0.11561
 C358 C -0.17962 -0.16781 0.09346
 H359 H -0.22410 -0.20739 0.10071
 H360 H -0.18438 -0.16638 0.06215
 H361 H -0.24316 -0.23392 0.16226
 H362 H -0.18986 -0.19912 0.26951
 H363 H -0.06847 -0.09056 0.15747
 H364 H -0.13345 -0.12180 0.05621
 H365 H -0.14713 -0.15929 0.23350
 H366 H -0.10730 -0.12967 0.19863
 C367 C -0.16901 0.32757 0.67183
 C368 C -0.19906 0.30896 0.65272
 C369 C -0.22278 0.28493 0.67391
 C370 C -0.21773 0.27995 0.71423
 C371 C -0.18825 0.29863 0.73317
 C372 C -0.16417 0.32216 0.71239
 C373 C -0.14378 0.35224 0.64797
 C374 C -0.11196 0.37034 0.66373
 C375 C -0.08942 0.39312 0.64030
 C376 C -0.09809 0.39869 0.60068
 C377 C -0.12952 0.38061 0.58458
 C378 C -0.15210 0.35719 0.60774
 C379 C -0.20538 0.31455 0.61266
 C380 C -0.18265 0.33845 0.59075
 H381 H -0.22847 0.30045 0.59805
 H382 H -0.18891 0.34207 0.55992
 H383 H -0.24502 0.27022 0.65874
 H384 H -0.18325 0.29447 0.76413
 H385 H -0.06537 0.40694 0.65336
 H386 H -0.13603 0.38432 0.55380
 H387 H -0.14203 0.33575 0.72866
 H388 H -0.10385 0.36723 0.69398
 C389 C 0.33030 -0.17833 0.67939
 C390 C 0.30125 -0.19915 0.66104
 C391 C 0.27713 -0.22161 0.68349
 C392 C 0.28037 -0.22240 0.72441
 C393 C 0.30911 -0.20169 0.74253
 C394 C 0.33380 -0.18002 0.72044
 C395 C 0.35547 -0.15474 0.65433
 C396 C 0.38650 -0.13476 0.66940
 C397 C 0.40857 -0.11250 0.64496
 C398 C 0.40013 -0.10930 0.60502
 C399 C 0.36975 -0.12956 0.58953
 C400 C 0.34775 -0.15259 0.61370
 C401 C 0.29594 -0.19682 0.62047
 C402 C 0.31833 -0.17362 0.59741
 H403 H 0.27363 -0.21263 0.60639
 H404 H 0.31264 -0.17229 0.56625
 H405 H 0.25568 -0.23790 0.66876
 H406 H 0.31236 -0.20193 0.77408
 H407 H 0.43197 -0.09711 0.65745
 H408 H 0.36355 -0.12772 0.55849
 H409 H 0.35497 -0.16437 0.73616
 H410 H 0.39429 -0.13598 0.69989
 C411 C 0.33226 0.32672 0.17492
 C412 C 0.30252 0.30689 0.15657
 C413 C 0.27851 0.28417 0.17890
 C414 C 0.28292 0.28195 0.21954
 C415 C 0.31205 0.30180 0.23775
 C416 C 0.33651 0.32387 0.21584
 C417 C 0.35749 0.35037 0.15001
 C418 C 0.38907 0.36942 0.16508
 C419 C 0.41144 0.39145 0.14075
 C420 C 0.40279 0.39533 0.10092
 C421 C 0.37170 0.37618 0.08548
 C422 C 0.34933 0.35341 0.10955
 C423 C 0.29656 0.31033 0.11619
 C424 C 0.31918 0.33346 0.09328
 H425 H 0.27372 0.29531 0.10214
 H426 H 0.31310 0.33555 0.06225
 H427 H 0.25625 0.26869 0.16453
 H428 H 0.31583 0.30032 0.26918
 H429 H 0.43533 0.40604 0.15325
 H430 H 0.36529 0.37854 0.05452
 H431 H 0.35819 0.33875 0.23159
 H432 H 0.39714 0.36759 0.19545
 C433 C 0.17228 0.17354 0.17693
 C434 C 0.17023 0.21371 0.17254
 C435 C 0.19366 0.23743 0.19494
 C436 C 0.22008 0.22161 0.22068
 C437 C 0.22232 0.18192 0.22477
 C438 C 0.19879 0.15812 0.20325
 C439 C 0.14638 0.14919 0.15307
 C440 C 0.14479 0.10918 0.15701
 C441 C 0.12035 0.08770 0.13403
 C442 C 0.09702 0.10539 0.10634
 C443 C 0.09815 0.14523 0.10224
 C444 C 0.12225 0.16724 0.12572
 C445 C 0.14515 0.22987 0.14555
 C446 C 0.12201 0.20712 0.12231
 H447 H 0.14368 0.26060 0.14200
 H448 H 0.10338 0.22101 0.10158
 H449 H 0.19164 0.26822 0.19207
 H450 H 0.24216 0.16896 0.24478
 H451 H 0.12005 0.05697 0.13755
 H452 H 0.07976 0.15911 0.08126
 H453 H 0.20207 0.12779 0.20752
 H454 H 0.16196 0.09384 0.17776
 C455 C 0.17158 0.67354 0.68166
 C456 C 0.16998 0.71371 0.67732
 C457 C 0.19342 0.73716 0.70000
 C458 C 0.21966 0.72114 0.72597
 C459 C 0.22091 0.68136 0.73043
 C460 C 0.19732 0.65787 0.70861
 C461 C 0.14599 0.64945 0.65711
 C462 C 0.14440 0.60938 0.66044
 C463 C 0.12038 0.58818 0.63670
 C464 C 0.09745 0.60619 0.60886
 C465 C 0.09861 0.64609 0.60537
 C466 C 0.12235 0.66782 0.62951
 C467 C 0.14536 0.73018 0.65006
 C468 C 0.12233 0.70772 0.62642
 H469 H 0.14419 0.76092 0.64662
 H470 H 0.10408 0.72184 0.60549
 H471 H 0.19166 0.76796 0.69691
 H472 H 0.23989 0.66788 0.75094
 H473 H 0.12012 0.55739 0.63974
 H474 H 0.08056 0.66024 0.58425
 H475 H 0.19994 0.62752 0.71320
 H476 H 0.16133 0.59377 0.68118
 C477 C 0.67772 0.16618 0.66625
 C478 C 0.67419 0.20633 0.66278
 C479 C 0.69705 0.23040 0.68529
 C480 C 0.72408 0.21513 0.71070
 C481 C 0.72836 0.17546 0.71331
 C482 C 0.70555 0.15121 0.69138
 C483 C 0.65147 0.14146 0.64322
 C484 C 0.65083 0.10138 0.64680
 C485 C 0.62542 0.07968 0.62521
 C486 C 0.60021 0.09725 0.59926
 C487 C 0.60059 0.13710 0.59536
 C488 C 0.62559 0.15931 0.61748
 C489 C 0.64777 0.22221 0.63706
 C490 C 0.62430 0.19919 0.61454
 H491 H 0.64525 0.25294 0.63419
 H492 H 0.60441 0.21287 0.59497
 H493 H 0.69334 0.26112 0.68364
 H494 H 0.74894 0.16293 0.73280
 H495 H 0.62571 0.04892 0.62850
 H496 H 0.58077 0.15088 0.57576
 H497 H 0.71009 0.12091 0.69469
 H498 H 0.66940 0.08621 0.66634
 C499 C 0.67222 0.67560 0.16577
 C500 C 0.69839 0.65787 0.19127
 C501 C 0.72169 0.68022 0.21518
 C502 C 0.71898 0.72010 0.21441
 C503 C 0.69249 0.73765 0.19005
 C504 C 0.66951 0.71581 0.16579
 C505 C 0.64806 0.65071 0.14049
 C506 C 0.62238 0.66552 0.11290
 C507 C 0.60019 0.64113 0.09042
 C508 C 0.60287 0.60143 0.09490
 C509 C 0.62864 0.58635 0.12192
 C510 C 0.65140 0.61058 0.14441
 C511 C 0.70079 0.61797 0.19317
 C512 C 0.67757 0.59485 0.17052
 H513 H 0.72070 0.60439 0.21280
 H514 H 0.68028 0.56412 0.17335
 H515 H 0.74154 0.66646 0.23467
 H516 H 0.68956 0.76848 0.18980
 H517 H 0.58038 0.65341 0.06985
 H518 H 0.63131 0.55563 0.12505
 H519 H 0.64961 0.73095 0.14769
 H520 H 0.61900 0.69577 0.10813
   
