data_POSCAR
  _audit_creation_date              2014-09-24
  _audit_creation_method            'ToBaCCo'
  _symmetry_space_group_name_H-M    'P1'
  _symmetry_Int_Tables_number       1
  _symmetry_cell_setting            triclinic
  loop_
  _symmetry_equiv_pos_as_xyz
 x,y,z
_cell_length_a 37.2186
_cell_length_b 42.9545
_cell_length_c 40.9933
_cell_angle_alpha 90.043900
_cell_angle_beta 89.916300
_cell_angle_gamma 89.679600
loop_
  _atom_site_label
  _atom_site_type_symbol
  _atom_site_fract_x
  _atom_site_fract_y
  _atom_site_fract_z
C1 C 1.18075 0.27168 0.26764
 H2 H 1.17000 0.25508 0.25049
 C3 C 1.15728 0.29044 0.28583
 H4 H 1.12858 0.28815 0.28239
 C5 C 1.23100 0.29403 0.29405
 H6 H 1.25983 0.29519 0.29710
 C7 C 1.20861 0.31315 0.31268
 H8 H 1.22053 0.32934 0.32972
 N9 N 1.21689 0.27405 0.27185
 C10 C 1.23272 0.19076 0.22070
 H11 H 1.25031 0.18096 0.23899
 C12 C 1.21618 0.17111 0.19817
 H13 H 1.22127 0.14631 0.19950
 C14 C 1.20643 0.23503 0.19566
 H15 H 1.20308 0.26004 0.19474
 C16 C 1.18911 0.21623 0.17283
 H17 H 1.17183 0.22704 0.15485
 Zn18 Zn 1.25049 0.24910 0.24887
 N19 N 1.22725 0.22206 0.21930
 C20 C 1.25606 0.20736 0.30044
 N21 N 1.27592 0.22589 0.28072
 C22 C 1.31197 0.22834 0.28474
 C23 C 1.32965 0.21059 0.30838
 C24 C 1.27247 0.18933 0.32455
 C25 C 1.27415 0.30557 0.22090
 C26 C 1.29587 0.32441 0.20150
 C27 C 1.33272 0.27946 0.18898
 C28 C 1.30982 0.26132 0.20810
 N29 N 1.28160 0.27467 0.22408
 H30 H 1.22728 0.20616 0.29698
 H31 H 1.32716 0.24435 0.26993
 H32 H 1.35812 0.21454 0.31115
 H33 H 1.25525 0.17375 0.33797
 H34 H 1.25097 0.31560 0.23290
 H35 H 1.28963 0.34897 0.19918
 H36 H 1.35523 0.26862 0.17655
 H37 H 1.31455 0.23653 0.21026
 C38 C 1.19379 0.18375 0.17392
 C39 C 1.17119 0.31151 0.30874
 C40 C 1.32566 0.31138 0.18545
 C41 C 1.31026 0.19000 0.32887
 C42 C 0.67642 -0.23489 0.27255
 H43 H 0.66620 -0.25297 0.25688
 C44 C 0.65233 -0.21687 0.29071
 H45 H 0.62376 -0.22103 0.28858
 C46 C 0.72587 -0.20830 0.29571
 H47 H 0.75463 -0.20514 0.29739
 C48 C 0.70279 -0.18990 0.31443
 H49 H 0.71396 -0.17230 0.33033
 N50 N 0.71241 -0.22984 0.27481
 C51 C 0.72791 -0.31194 0.22326
 H52 H 0.74796 -0.32137 0.23958
 C53 C 0.70811 -0.33198 0.20350
 H54 H 0.71269 -0.35687 0.20487
 C55 C 0.69760 -0.26814 0.20099
 H56 H 0.69386 -0.24316 0.20014
 C57 C 0.67662 -0.28736 0.18141
 H58 H 0.65665 -0.27721 0.16537
 Zn59 Zn 0.74604 -0.25298 0.25005
 N60 N 0.72173 -0.28071 0.22218
 C61 C 0.75743 -0.29478 0.30057
 N62 N 0.77501 -0.27502 0.28026
 C63 C 0.81102 -0.27049 0.28292
 C64 C 0.83089 -0.28680 0.30636
 C65 C 0.77621 -0.31166 0.32414
 C66 C 0.76393 -0.19546 0.22068
 C67 C 0.78169 -0.17606 0.19871
 C68 C 0.81826 -0.21988 0.18199
 C69 C 0.79966 -0.23850 0.20420
 N70 N 0.77321 -0.22605 0.22313
 H71 H 0.72868 -0.29759 0.29822
 H72 H 0.82434 -0.25402 0.26716
 H73 H 0.85948 -0.28269 0.30830
 H74 H 0.76169 -0.32791 0.33935
 H75 H 0.74196 -0.18619 0.23498
 H76 H 0.77322 -0.15199 0.19662
 H77 H 0.83949 -0.23020 0.16742
 H78 H 0.80599 -0.26304 0.20611
 C79 C 0.68164 -0.31964 0.18287
 C80 C 0.66549 -0.19393 0.31182
 C81 C 0.80920 -0.18821 0.17887
 C82 C 0.81351 -0.30788 0.32730
 C83 C 0.69997 0.26116 -0.21322
 H84 H 0.69881 0.23600 -0.21265
 C85 C 0.67618 0.27876 -0.19425
 H86 H 0.65690 0.26720 -0.17866
 C87 C 0.72606 0.30707 -0.23472
 H88 H 0.74495 0.31801 -0.25105
 C89 C 0.70339 0.32553 -0.21555
 H90 H 0.70525 0.35065 -0.21683
 N91 N 0.72384 0.27549 -0.23333
 C92 C 0.73595 0.20797 -0.31155
 H93 H 0.76475 0.20445 -0.31226
 C94 C 0.71366 0.18945 -0.33071
 H95 H 0.72559 0.17148 -0.34583
 C96 C 0.68552 0.23464 -0.28966
 H97 H 0.67454 0.25242 -0.27387
 C98 C 0.66226 0.21678 -0.30851
 H99 H 0.63361 0.22104 -0.30693
 Zn100 Zn 0.75240 0.25022 -0.26095
 N101 N 0.72157 0.22921 -0.29057
 C102 C 0.77150 0.18934 -0.23886
 N103 N 0.77721 0.22035 -0.23442
 C104 C 0.79936 0.23048 -0.21029
 C105 C 0.81833 0.20924 -0.19095
 C106 C 0.78977 0.16732 -0.22000
 C107 C 0.78132 0.27837 -0.31782
 C108 C 0.80347 0.29818 -0.33580
 C109 C 0.83385 0.31189 -0.28600
 C110 C 0.81090 0.29198 -0.26907
 N111 N 0.78523 0.27560 -0.28500
 H112 H 0.75241 0.18137 -0.25669
 H113 H 0.80213 0.25505 -0.20566
 H114 H 0.83656 0.21795 -0.17257
 H115 H 0.78461 0.14283 -0.22399
 H116 H 0.76060 0.26551 -0.33027
 H117 H 0.79974 0.29825 -0.36191
 H118 H 0.85215 0.32543 -0.27139
 H119 H 0.81286 0.29070 -0.24289
 C120 C 0.67619 0.19322 -0.32869
 C121 C 0.67784 0.31129 -0.19544
 C122 C 0.83052 0.31589 -0.32020
 C123 C 0.81396 0.17712 -0.19592
 C124 C 1.20288 -0.22813 -0.20215
 H125 H 1.19759 -0.25280 -0.20016
 C126 C 1.18257 -0.20686 -0.18396
 H127 H 1.16132 -0.21536 -0.16832
 C128 C 1.23677 -0.18718 -0.22530
 H129 H 1.25847 -0.17955 -0.24078
 C130 C 1.21716 -0.16512 -0.20757
 H131 H 1.22392 -0.14074 -0.20983
 N132 N 1.22891 -0.21800 -0.22282
 C133 C 1.23983 -0.29521 -0.29157
 H134 H 1.26862 -0.29865 -0.29035
 C135 C 1.21899 -0.31472 -0.31100
 H136 H 1.23198 -0.33343 -0.32432
 C137 C 1.18809 -0.26707 -0.27477
 H138 H 1.17621 -0.24821 -0.26098
 C139 C 1.16620 -0.28600 -0.29400
 H140 H 1.13757 -0.28146 -0.29474
 Zn141 Zn 1.25516 -0.24805 -0.24726
 N142 N 1.22414 -0.27232 -0.27349
 C143 C 1.26780 -0.30384 -0.21264
 N144 N 1.27957 -0.27419 -0.21704
 C145 C 1.30683 -0.26253 -0.19868
 C146 C 1.32439 -0.28137 -0.17580
 C147 C 1.28405 -0.32321 -0.18960
 C148 C 1.27152 -0.20793 -0.29794
 C149 C 1.29259 -0.18979 -0.31858
 C150 C 1.34550 -0.21432 -0.29597
 C151 C 1.32335 -0.23180 -0.27545
 N152 N 1.28711 -0.22763 -0.27615
 H153 H 1.24532 -0.31240 -0.22659
 H154 H 1.31498 -0.23859 -0.20186
 H155 H 1.34629 -0.27195 -0.16159
 H156 H 1.27445 -0.34678 -0.18652
 H157 H 1.24258 -0.20544 -0.29834
 H158 H 1.27946 -0.17305 -0.33435
 H159 H 1.37431 -0.21776 -0.29484
 H160 H 1.33521 -0.24841 -0.25883
 C161 C 1.18157 -0.31043 -0.31223
 C162 C 1.18943 -0.17482 -0.18675
 C163 C 1.33021 -0.19240 -0.31742
 C164 C 1.31286 -0.31208 -0.17103
 C165 C 0.25513 0.20537 0.70151
 H166 H 0.22670 0.20256 0.70614
 C167 C 0.27195 0.18759 0.67733
 H168 H 0.25636 0.17065 0.66398
 C169 C 0.30987 0.23058 0.71392
 H170 H 0.32439 0.24786 0.72766
 C171 C 0.32772 0.21348 0.68980
 H172 H 0.35598 0.21772 0.68548
 N173 N 0.27435 0.22579 0.71977
 C174 C 0.20641 0.23533 0.80616
 H175 H 0.20347 0.26039 0.80695
 C176 C 0.18931 0.21697 0.82952
 H177 H 0.17237 0.22870 0.84713
 C178 C 0.23108 0.19063 0.78076
 H179 H 0.24826 0.18048 0.76232
 C180 C 0.21446 0.17131 0.80357
 H181 H 0.22003 0.14663 0.80207
 Zn182 Zn 0.24902 0.24883 0.75192
 N183 N 0.22633 0.22198 0.78212
 C184 C 0.17892 0.27103 0.73386
 N185 N 0.21501 0.27341 0.72926
 C186 C 0.22890 0.29324 0.70680
 C187 C 0.20634 0.31215 0.68824
 C188 C 0.15526 0.28959 0.71572
 C189 C 0.30930 0.26197 0.79107
 C190 C 0.33233 0.28047 0.80964
 C191 C 0.29400 0.32477 0.79845
 C192 C 0.27215 0.30560 0.77957
 N193 N 0.28025 0.27485 0.77601
 H194 H 0.16838 0.25459 0.75131
 H195 H 0.25771 0.29444 0.70350
 H196 H 0.21811 0.32824 0.67099
 H197 H 0.12659 0.28730 0.71945
 H198 H 0.31462 0.23730 0.78855
 H199 H 0.35549 0.27001 0.82135
 H200 H 0.28722 0.34920 0.80109
 H201 H 0.24836 0.31523 0.76827
 C202 C 0.19275 0.18418 0.82856
 C203 C 0.30887 0.19129 0.67141
 C204 C 0.32458 0.31224 0.81358
 C205 C 0.16896 0.31046 0.69249
 C206 C 0.75649 0.70512 0.70165
 H207 H 0.72781 0.70210 0.70447
 C208 C 0.77523 0.68771 0.67840
 H209 H 0.76078 0.67084 0.66390
 C210 C 0.80991 0.73060 0.71770
 H211 H 0.82315 0.74779 0.73266
 C212 C 0.82974 0.71374 0.69459
 H213 H 0.85823 0.71811 0.69210
 N214 N 0.77399 0.72582 0.72093
 C215 C 0.69458 0.73508 0.79828
 H216 H 0.68965 0.75991 0.79731
 C217 C 0.67365 0.71641 0.81846
 H218 H 0.65314 0.72744 0.83330
 C219 C 0.72838 0.69136 0.78062
 H220 H 0.74967 0.68174 0.76568
 C221 C 0.70909 0.67193 0.80148
 H222 H 0.71539 0.64730 0.80136
 Zn223 Zn 0.74500 0.74893 0.75029
 N224 N 0.72032 0.72219 0.77894
 C225 C 0.67593 0.76599 0.72583
 N226 N 0.71187 0.77162 0.72460
 C227 C 0.72564 0.79329 0.70403
 C228 C 0.70287 0.81142 0.68479
 C229 C 0.65215 0.78371 0.70713
 C230 C 0.79841 0.76355 0.79575
 C231 C 0.81721 0.78212 0.81782
 C232 C 0.78169 0.82631 0.80045
 C233 C 0.76366 0.80692 0.77865
 N234 N 0.77233 0.77617 0.77662
 H235 H 0.66553 0.74765 0.74105
 H236 H 0.75438 0.79682 0.70305
 H237 H 0.71425 0.82920 0.66924
 H238 H 0.62361 0.77911 0.70850
 H239 H 0.80424 0.73889 0.79415
 H240 H 0.83809 0.77164 0.83261
 H241 H 0.77375 0.85054 0.80225
 H242 H 0.74195 0.81633 0.76420
 C243 C 0.68048 0.68416 0.82023
 C244 C 0.81240 0.69188 0.67456
 C245 C 0.80875 0.81394 0.82057
 C246 C 0.66558 0.80692 0.68649
 C247 C 0.76832 0.19065 0.23725
 H248 H 0.74731 0.18301 0.25349
 C249 C 0.78654 0.16865 0.21827
 H250 H 0.77947 0.14432 0.22047
 C251 C 0.80133 0.23156 0.21304
 H252 H 0.80670 0.25621 0.21099
 C253 C 0.82028 0.21033 0.19360
 H254 H 0.84066 0.21884 0.17705
 N255 N 0.77643 0.22142 0.23484
 C256 C 0.68448 0.23747 0.29048
 H257 H 0.67356 0.25574 0.27535
 C258 C 0.66128 0.21969 0.30952
 H259 H 0.63268 0.22439 0.30863
 C260 C 0.73487 0.20980 0.31088
 H261 H 0.76360 0.20583 0.31085
 C262 C 0.71263 0.19134 0.33021
 H263 H 0.72454 0.17300 0.34478
 Zn264 Zn 0.75134 0.25144 0.26042
 N265 N 0.72039 0.23132 0.29038
 C266 C 0.69713 0.26159 0.21453
 N267 N 0.72372 0.27603 0.23143
 C268 C 0.72994 0.30703 0.22785
 C269 C 0.70792 0.32497 0.20763
 C270 C 0.67392 0.27879 0.19472
 C271 C 0.81956 0.27208 0.28401
 C272 C 0.84232 0.29168 0.30163
 C273 C 0.79017 0.31974 0.32120
 C274 C 0.76845 0.29957 0.30333
 N275 N 0.78337 0.27669 0.28471
 H276 H 0.69328 0.23679 0.21732
 H277 H 0.75184 0.31791 0.24072
 H278 H 0.71279 0.34970 0.20518
 H279 H 0.65225 0.26723 0.18204
 H280 H 0.83091 0.25320 0.26988
 H281 H 0.87103 0.28759 0.30080
 H282 H 0.77768 0.33841 0.33496
 H283 H 0.73956 0.30250 0.30376
 C284 C 0.67519 0.19560 0.32893
 C285 C 0.81314 0.17833 0.19626
 C286 C 0.82770 0.31612 0.32033
 C287 C 0.67916 0.31087 0.19137
 C288 C 0.26056 0.70768 0.19679
 H289 H 0.23192 0.70557 0.20071
 C290 C 0.27765 0.68894 0.17357
 H291 H 0.26198 0.67207 0.16017
 C292 C 0.31560 0.73193 0.21008
 H293 H 0.33019 0.74930 0.22363
 C294 C 0.33378 0.71371 0.18701
 H295 H 0.36231 0.71712 0.18342
 N296 N 0.27976 0.72807 0.21513
 C297 C 0.20461 0.73842 0.29683
 H298 H 0.20184 0.76349 0.29769
 C299 C 0.18358 0.71990 0.31723
 H300 H 0.16443 0.73072 0.33368
 C301 C 0.23298 0.69369 0.27448
 H302 H 0.25250 0.68355 0.25804
 C303 C 0.21316 0.67435 0.29507
 H304 H 0.21708 0.64936 0.29398
 Zn305 Zn 0.25360 0.75171 0.24659
 N306 N 0.22779 0.72509 0.27516
 C307 C 0.18573 0.77792 0.22730
 N308 N 0.22200 0.77816 0.22299
 C309 C 0.23770 0.79805 0.20152
 C310 C 0.21687 0.81932 0.18395
 C311 C 0.16398 0.79929 0.21077
 C312 C 0.31440 0.76464 0.28618
 C313 C 0.33618 0.78298 0.30615
 C314 C 0.29296 0.82478 0.30097
 C315 C 0.27290 0.80603 0.28010
 N316 N 0.28395 0.77665 0.27288
 H317 H 0.17350 0.76137 0.24361
 H318 H 0.26656 0.79758 0.19838
 H319 H 0.22972 0.83526 0.16719
 H320 H 0.13520 0.79922 0.21473
 H321 H 0.32178 0.74068 0.28141
 H322 H 0.35973 0.77203 0.31659
 H323 H 0.28343 0.84833 0.30479
 H324 H 0.24810 0.81493 0.26996
 C325 C 0.18764 0.68747 0.31624
 C326 C 0.31488 0.69152 0.16867
 C327 C 0.32568 0.81376 0.31438
 C328 C 0.17963 0.82036 0.18894
 N329 N 1.03013 -0.03635 -0.05688
 N330 N 1.05406 -0.04525 -0.07889
 N331 N 0.95204 -0.05060 -0.03545
 N332 N 0.92847 -0.07181 -0.04444
 N333 N 0.95510 -0.02907 -0.05805
 N334 N 0.93358 -0.03511 -0.08280
 N335 N 1.02704 -0.05750 -0.03397
 N336 N 1.04884 -0.08118 -0.03962
 C337 C 1.06582 -0.07316 -0.06755
 C338 C 0.91665 -0.06154 -0.07377
 N339 N 0.95271 -0.02897 0.05794
 N340 N 0.93076 -0.03528 0.08234
 N341 N 1.02583 -0.05731 0.03593
 N342 N 1.04833 -0.08047 0.04173
 N343 N 1.02763 -0.03625 0.05907
 N344 N 1.05107 -0.04478 0.08158
 N345 N 0.95068 -0.05062 0.03535
 N346 N 0.92738 -0.07219 0.04402
 Mn347 Mn 0.98881 -0.05420 0.00046
 C348 C 0.91461 -0.06201 0.07310
 C349 C 1.06406 -0.07226 0.07017
 N350 N 0.96321 0.03790 -0.05793
 N351 N 0.94058 0.04687 -0.08093
 N352 N 1.04034 0.05209 -0.03410
 N353 N 1.06504 0.07277 -0.04188
 N354 N 1.03823 0.03052 -0.05675
 N355 N 1.06150 0.03596 -0.08036
 N356 N 0.96528 0.05913 -0.03496
 N357 N 0.94398 0.08293 -0.04157
 Mn358 Mn 0.99666 0.00075 -0.05767
 C359 C 0.92844 0.07488 -0.07016
 C360 C 1.07847 0.06212 -0.07053
 N361 N 1.03580 0.03063 0.05914
 N362 N 1.05812 0.03609 0.08343
 N363 N 0.96392 0.05925 0.03519
 N364 N 0.94313 0.08344 0.04170
 N365 N 0.96085 0.03798 0.05802
 N366 N 0.93801 0.04732 0.08076
 N367 N 1.03898 0.05208 0.03649
 N368 N 1.06357 0.07262 0.04489
 Mn369 Mn 0.99423 0.00086 0.05878
 Mn370 Mn 1.00219 0.05585 0.00065
 Cl371 Cl 0.99541 0.00082 0.00055
 C372 C 1.07572 0.06207 0.07400
 C373 C 0.92677 0.07557 0.07000
 N374 N 1.07425 0.53067 0.53654
 N375 N 1.09984 0.55118 0.54207
 N376 N 1.04211 0.46737 0.55866
 N377 N 1.04658 0.44520 0.58063
 N378 N 1.06699 0.46547 0.53603
 N379 N 1.08884 0.44185 0.54179
 N380 N 1.04934 0.53248 0.55917
 N381 N 1.05724 0.55425 0.58066
 C382 C 1.08876 0.56585 0.56964
 C383 C 1.07565 0.42923 0.56954
 N384 N 0.94004 0.47704 0.53571
 N385 N 0.91424 0.45657 0.54057
 N386 N 0.97258 0.53939 0.55895
 N387 N 0.96782 0.56017 0.58223
 N388 N 0.94766 0.54222 0.53646
 N389 N 0.92508 0.56499 0.54415
 N390 N 0.96490 0.47438 0.55825
 N391 N 0.95661 0.45214 0.57910
 Mn392 Mn 1.00721 0.50335 0.55906
 C393 C 0.92499 0.44110 0.56769
 C394 C 0.93838 0.57626 0.57261
 N395 N 1.06749 0.46568 0.46610
 N396 N 1.08956 0.44223 0.46021
 N397 N 1.05021 0.53303 0.44343
 N398 N 1.05949 0.55391 0.42139
 N399 N 1.07498 0.53065 0.46608
 N400 N 1.10199 0.54953 0.45983
 N401 N 1.04296 0.46780 0.44323
 N402 N 1.04791 0.44591 0.42097
 Mn403 Mn 1.07126 0.49814 0.50121
 C404 C 1.07688 0.42990 0.43213
 C405 C 1.09176 0.56417 0.43208
 N406 N 0.94812 0.54250 0.46535
 N407 N 0.92554 0.56523 0.45761
 N408 N 0.96560 0.47481 0.44301
 N409 N 0.95742 0.45271 0.42190
 N410 N 0.94053 0.47734 0.46545
 N411 N 0.91476 0.45695 0.46031
 N412 N 0.97334 0.53984 0.44304
 N413 N 0.96877 0.56069 0.41985
 Mn414 Mn 0.94367 0.50992 0.50074
 Mn415 Mn 1.00800 0.50383 0.44286
 Cl416 Cl 1.00750 0.50386 0.50095
 C417 C 0.93914 0.57665 0.42933
 C418 C 0.92567 0.44165 0.43311
 N419 N 0.56515 0.02688 0.53369
 N420 N 0.58957 0.04867 0.53742
 N421 N 0.53474 -0.03665 0.55640
 N422 N 0.53975 -0.05907 0.57799
 N423 N 0.55920 -0.03819 0.53340
 N424 N 0.58134 -0.06169 0.53848
 N425 N 0.54070 0.02869 0.55669
 N426 N 0.54789 0.05185 0.57684
 C427 C 0.57849 0.06411 0.56440
 C428 C 0.56877 -0.07470 0.56622
 N429 N 0.43239 -0.02887 0.53424
 N430 N 0.40770 -0.05038 0.53906
 N431 N 0.46377 0.03421 0.55710
 N432 N 0.45950 0.05558 0.57983
 N433 N 0.43846 0.03650 0.53492
 N434 N 0.41608 0.05952 0.54225
 N435 N 0.45754 -0.03080 0.55663
 N436 N 0.45060 -0.05352 0.57727
 Mn437 Mn 0.49915 -0.00116 0.55707
 C438 C 0.41950 -0.06563 0.56601
 C439 C 0.42989 0.07143 0.57021
 N440 N 0.55901 -0.03801 0.46391
 N441 N 0.58086 -0.06171 0.45881
 N442 N 0.54043 0.02901 0.44123
 N443 N 0.54744 0.05245 0.42138
 N444 N 0.56497 0.02704 0.46406
 N445 N 0.58926 0.04895 0.46052
 N446 N 0.53449 -0.03637 0.44104
 N447 N 0.53919 -0.05893 0.41949
 Mn448 Mn 0.56237 -0.00559 0.49876
 C449 C 0.56810 -0.07472 0.43117
 C450 C 0.57804 0.06467 0.43383
 N451 N 0.43828 0.03678 0.46389
 N452 N 0.41618 0.06014 0.45730
 N453 N 0.45720 -0.03065 0.44137
 N454 N 0.44861 -0.05174 0.41931
 N455 N 0.43186 -0.02823 0.46361
 N456 N 0.40514 -0.04729 0.45697
 N457 N 0.46342 0.03463 0.44144
 N458 N 0.45941 0.05660 0.41933
 Mn459 Mn 0.43476 0.00414 0.49919
 Mn460 Mn 0.49885 -0.00089 0.44087
 Cl461 Cl 0.49867 -0.00087 0.49896
 C462 C 0.43004 0.07252 0.42958
 C463 C 0.41620 -0.06209 0.42952
 N464 N 0.57010 0.52297 0.03417
 N465 N 0.59671 0.54218 0.04047
 N466 N 0.53993 0.45907 0.05606
 N467 N 0.54780 0.43876 0.07928
 N468 N 0.56442 0.45811 0.03298
 N469 N 0.58939 0.43732 0.03982
 N470 N 0.54558 0.52442 0.05716
 N471 N 0.55462 0.54502 0.07957
 C472 C 0.58649 0.55604 0.06866
 C473 C 0.57851 0.42504 0.06845
 N474 N 0.43691 0.46784 0.03450
 N475 N 0.41026 0.44858 0.04069
 N476 N 0.46865 0.53012 0.05803
 N477 N 0.46438 0.55125 0.08106
 N478 N 0.44353 0.53294 0.03573
 N479 N 0.42133 0.55602 0.04325
 N480 N 0.46231 0.46492 0.05652
 N481 N 0.45368 0.44347 0.07817
 Mn482 Mn 0.50406 0.49454 0.05727
 C483 C 0.42124 0.43329 0.06782
 C484 C 0.43497 0.56746 0.07148
 N485 N 0.56388 0.45909 -0.03669
 N486 N 0.58890 0.43868 -0.04458
 N487 N 0.54465 0.52611 -0.05844
 N488 N 0.55363 0.54688 -0.08068
 N489 N 0.56970 0.52385 -0.03605
 N490 N 0.59673 0.54251 -0.04275
 N491 N 0.53911 0.46068 -0.05942
 N492 N 0.54684 0.44114 -0.08347
 Mn493 Mn 0.56716 0.49106 -0.00139
 C494 C 0.57777 0.42724 -0.07349
 C495 C 0.58604 0.55706 -0.07034
 N496 N 0.44289 0.53385 -0.03521
 N497 N 0.42066 0.55720 -0.04147
 N498 N 0.46140 0.46657 -0.05845
 N499 N 0.45263 0.44546 -0.08043
 N500 N 0.43638 0.46882 -0.03592
 N501 N 0.40986 0.44944 -0.04207
 N502 N 0.46784 0.53191 -0.05783
 N503 N 0.46364 0.55414 -0.07969
 Mn504 Mn 0.43953 0.50097 -0.00023
 Mn505 Mn 0.50317 0.49624 -0.05888
 Cl506 Cl 0.50343 0.49567 -0.00081
 C507 C 0.43427 0.56989 -0.06910
 C508 C 0.42049 0.43480 -0.06975
 C509 C 1.16997 0.17271 0.11770
 C510 C 1.17501 0.16323 0.15024
 C511 C 1.16125 0.13431 0.16025
 C512 C 1.14210 0.11552 0.13840
 C513 C 1.13644 0.12569 0.10602
 C514 C 1.15083 0.15416 0.09583
 C515 C 1.11581 0.10758 0.08464
 C516 C 1.10058 0.07948 0.09527
 C517 C 1.10731 0.06913 0.12721
 C518 C 1.12786 0.08700 0.14859
 H519 H 1.16445 0.12678 0.18531
 H520 H 1.14700 0.16223 0.07104
 H521 H 1.11087 0.11575 0.06003
 H522 H 1.13208 0.07876 0.17328
 H523 H 1.18087 0.19452 0.10907
 H524 H 1.09594 0.04754 0.13596
 C525 C 1.12550 0.65806 0.68063
 C526 C 1.15876 0.66814 0.66833
 C527 C 1.17060 0.65678 0.63790
 C528 C 1.14999 0.63517 0.62043
 C529 C 1.11686 0.62494 0.63331
 C530 C 1.10472 0.63674 0.66327
 C531 C 1.09669 0.60273 0.61629
 C532 C 1.10930 0.59036 0.58662
 C533 C 1.14203 0.60099 0.57378
 C534 C 1.16217 0.62326 0.59050
 H535 H 1.19591 0.66467 0.62784
 H536 H 1.07941 0.62911 0.67354
 H537 H 1.07145 0.59475 0.62642
 H538 H 1.18747 0.63088 0.58021
 H539 H 1.11591 0.66606 0.70415
 H540 H 1.15225 0.59187 0.55092
 C541 C 0.62078 0.16033 0.66956
 C542 C 0.65185 0.17154 0.65399
 C543 C 0.66050 0.16059 0.62262
 C544 C 0.63922 0.13796 0.60751
 C545 C 0.60848 0.12639 0.62368
 C546 C 0.59922 0.13806 0.65450
 C547 C 0.58804 0.10282 0.60913
 C548 C 0.59828 0.09039 0.57880
 C549 C 0.62844 0.10250 0.56263
 C550 C 0.64866 0.12617 0.57680
 H551 H 0.68406 0.16935 0.61014
 H552 H 0.57579 0.12945 0.66728
 H553 H 0.56478 0.09365 0.62176
 H554 H 0.67206 0.13483 0.56400
 H555 H 0.61373 0.16804 0.69391
 H556 H 0.63669 0.09342 0.53911
 C557 C 0.62144 0.65978 0.16803
 C558 C 0.65880 0.65958 0.16344
 C559 C 0.67430 0.63931 0.14054
 C560 C 0.65259 0.61929 0.12223
 C561 C 0.61501 0.61898 0.12758
 C562 C 0.59968 0.63941 0.15044
 C563 C 0.59345 0.59823 0.10999
 C564 C 0.60887 0.57838 0.08659
 C565 C 0.64604 0.57949 0.08078
 C566 C 0.66779 0.59958 0.09868
 H567 H 0.70315 0.63941 0.13682
 H568 H 0.57094 0.63962 0.15471
 H569 H 0.56471 0.59767 0.11433
 H570 H 0.69648 0.59966 0.09413
 H571 H 0.60922 0.67535 0.18570
 H572 H 0.65842 0.56431 0.06285
 C573 C 0.83737 -0.17974 0.12381
 C574 C 0.82779 -0.16805 0.15472
 C575 C 0.83586 -0.13691 0.16235
 C576 C 0.85351 -0.11787 0.13968
 C577 C 0.86335 -0.13001 0.10886
 C578 C 0.85497 -0.16092 0.10111
 C579 C 0.88203 -0.11124 0.08658
 C580 C 0.89144 -0.08059 0.09491
 C581 C 0.88084 -0.06857 0.12534
 C582 C 0.86198 -0.08701 0.14751
 H583 H 0.82909 -0.12764 0.18619
 H584 H 0.86217 -0.17059 0.07756
 H585 H 0.89014 -0.12080 0.06321
 H586 H 0.85455 -0.07728 0.17098
 H587 H 0.83091 -0.20341 0.11700
 H588 H 0.88774 -0.04503 0.13231
 C589 C 0.88500 0.34697 0.67591
 C590 C 0.85189 0.33638 0.66291
 C591 C 0.84159 0.34841 0.63197
 C592 C 0.86266 0.37050 0.61554
 C593 C 0.89507 0.38081 0.62949
 C594 C 0.90612 0.36868 0.65945
 C595 C 0.91570 0.40342 0.61345
 C596 C 0.90406 0.41624 0.58373
 C597 C 0.87186 0.40567 0.56987
 C598 C 0.85138 0.38296 0.58558
 H599 H 0.81609 0.34253 0.62109
 H600 H 0.93123 0.37601 0.67030
 H601 H 0.94049 0.41140 0.62442
 H602 H 0.82653 0.37538 0.57444
 H603 H 0.89607 0.33777 0.69827
 H604 H 0.86234 0.41511 0.54694
 C605 C 0.38511 -0.15920 0.67608
 C606 C 0.35312 -0.17114 0.66290
 C607 C 0.34211 -0.16106 0.63174
 C608 C 0.36187 -0.13854 0.61469
 C609 C 0.39359 -0.12641 0.62855
 C610 C 0.40524 -0.13723 0.65900
 C611 C 0.41269 -0.10315 0.61209
 C612 C 0.40025 -0.09141 0.58214
 C613 C 0.36897 -0.10389 0.56831
 C614 C 0.35003 -0.12739 0.58437
 H615 H 0.31790 -0.17036 0.62092
 H616 H 0.42946 -0.12811 0.67000
 H617 H 0.43681 -0.09371 0.62300
 H618 H 0.32579 -0.13644 0.57335
 H619 H 0.39405 -0.16604 0.70016
 H620 H 0.35897 -0.09531 0.54519
 C621 C 0.38626 0.33145 0.16979
 C622 C 0.34894 0.33108 0.16487
 C623 C 0.33372 0.35015 0.14069
 C624 C 0.35548 0.36972 0.12183
 C625 C 0.39291 0.37070 0.12761
 C626 C 0.40807 0.35128 0.15147
 C627 C 0.41443 0.39129 0.10964
 C628 C 0.39907 0.41049 0.08560
 C629 C 0.36205 0.40858 0.07936
 C630 C 0.34039 0.38852 0.09746
 H631 H 0.30496 0.34963 0.13656
 H632 H 0.43672 0.35159 0.15612
 H633 H 0.44303 0.39243 0.11442
 H634 H 0.31179 0.38791 0.09258
 H635 H 0.39839 0.31691 0.18838
 H636 H 0.34965 0.42315 0.06096
 C637 C 0.84790 0.12660 -0.19081
 C638 C 0.83448 0.15398 -0.17623
 C639 C 0.84123 0.15926 -0.14292
 C640 C 0.86153 0.13787 -0.12463
 C641 C 0.87500 0.11055 -0.13964
 C642 C 0.86784 0.10506 -0.17269
 C643 C 0.89595 0.08948 -0.12150
 C644 C 0.90411 0.09566 -0.08867
 C645 C 0.89024 0.12272 -0.07392
 C646 C 0.86898 0.14355 -0.09167
 H647 H 0.83064 0.17998 -0.13116
 H648 H 0.87806 0.08432 -0.18465
 H649 H 0.90664 0.06874 -0.13316
 H650 H 0.85883 0.16434 -0.07974
 H651 H 0.84358 0.12207 -0.21649
 H652 H 0.89608 0.12795 -0.04863
 C653 C 0.81903 0.66660 0.38239
 C654 C 0.83406 0.67355 0.35171
 C655 C 0.86827 0.66156 0.34397
 C656 C 0.88666 0.64224 0.36600
 C657 C 0.87084 0.63469 0.39634
 C658 C 0.83721 0.64736 0.40446
 C659 C 0.88854 0.61404 0.41765
 C660 C 0.92174 0.60072 0.40881
 C661 C 0.93764 0.60918 0.37899
 C662 C 0.92029 0.62972 0.35780
 H663 H 0.88009 0.66633 0.32034
 H664 H 0.82474 0.64207 0.42769
 H665 H 0.87605 0.60773 0.44060
 H666 H 0.93291 0.63536 0.33473
 H667 H 0.79307 0.67599 0.38933
 H668 H 0.96329 0.59940 0.37165
 C669 C 0.30833 0.15773 0.37783
 C670 C 0.32722 0.17122 0.35128
 C671 C 0.36429 0.16371 0.34837
 C672 C 0.38108 0.14282 0.36987
 C673 C 0.36132 0.12929 0.39553
 C674 C 0.32515 0.13728 0.39955
 C675 C 0.37781 0.10732 0.41614
 C676 C 0.41361 0.09814 0.41071
 C677 C 0.43322 0.11219 0.38544
 C678 C 0.41720 0.13445 0.36535
 H679 H 0.38012 0.17195 0.32805
 H680 H 0.30965 0.12747 0.41941
 H681 H 0.36240 0.09648 0.43546
 H682 H 0.43287 0.14460 0.34579
 H683 H 0.28067 0.16357 0.38313
 H684 H 0.46092 0.10561 0.38089
 C685 C 0.31037 0.65064 -0.12419
 C686 C 0.33081 0.66730 -0.14705
 C687 C 0.36824 0.66302 -0.14796
 C688 C 0.38495 0.64143 -0.12711
 C689 C 0.36412 0.62463 -0.10429
 C690 C 0.32690 0.62973 -0.10276
 C691 C 0.38066 0.60228 -0.08418
 C692 C 0.41752 0.59574 -0.08745
 C693 C 0.43800 0.61271 -0.11002
 C694 C 0.42196 0.63561 -0.12942
 H695 H 0.38410 0.67556 -0.16581
 H696 H 0.31049 0.61705 -0.08549
 H697 H 0.36460 0.58906 -0.06706
 H698 H 0.43833 0.64820 -0.14679
 H699 H 0.28150 0.65377 -0.12304
 H700 H 0.46647 0.60807 -0.11285
 C701 C 1.15677 -0.12361 -0.18294
 C702 C 1.16772 -0.15166 -0.16820
 C703 C 1.15746 -0.15762 -0.13579
 C704 C 1.13611 -0.13618 -0.11854
 C705 C 1.12494 -0.10822 -0.13372
 C706 C 1.13562 -0.10208 -0.16587
 C707 C 1.10279 -0.08715 -0.11668
 C708 C 1.09134 -0.09391 -0.08479
 C709 C 1.10311 -0.12155 -0.06979
 C710 C 1.12538 -0.14244 -0.08645
 H711 H 1.16616 -0.17892 -0.12394
 H712 H 1.12727 -0.08082 -0.17795
 H713 H 1.09381 -0.06593 -0.12850
 H714 H 1.13379 -0.16371 -0.07440
 H715 H 1.16397 -0.11857 -0.20798
 H716 H 1.09477 -0.12723 -0.04520
 C717 C 1.11730 0.34672 0.31403
 C718 C 1.14714 0.33192 0.32837
 C719 C 1.15489 0.33775 0.36137
 C720 C 1.13416 0.35899 0.37942
 C721 C 1.10479 0.37438 0.36455
 C722 C 1.09626 0.36772 0.33197
 C723 C 1.08513 0.39676 0.38225
 C724 C 1.09493 0.40424 0.41442
 C725 C 1.12360 0.38819 0.42916
 C726 C 1.14294 0.36567 0.41188
 H727 H 1.17740 0.32606 0.37292
 H728 H 1.07384 0.37926 0.32016
 H729 H 1.06306 0.40902 0.37065
 H730 H 1.16528 0.35398 0.42368
 H731 H 1.11087 0.34278 0.28861
 H732 H 1.13150 0.39341 0.45398
 C733 C 0.61026 -0.16051 0.31605
 C734 C 0.64063 -0.17398 0.33085
 C735 C 0.64814 -0.16723 0.36363
 C736 C 0.62657 -0.14624 0.38106
 C737 C 0.59674 -0.13194 0.36571
 C738 C 0.58846 -0.13965 0.33335
 C739 C 0.57650 -0.10947 0.38265
 C740 C 0.58616 -0.10088 0.41450
 C741 C 0.61507 -0.11608 0.42986
 C742 C 0.63503 -0.13864 0.41333
 H743 H 0.67117 -0.17795 0.37539
 H744 H 0.56567 -0.12900 0.32120
 H745 H 0.55420 -0.09789 0.37064
 H746 H 0.65766 -0.14954 0.42550
 H747 H 0.60408 -0.16533 0.29074
 H748 H 0.62281 -0.11002 0.45451
 C749 C 0.61638 0.33035 -0.18056
 C750 C 0.65362 0.33047 -0.17523
 C751 C 0.66801 0.34933 -0.15072
 C752 C 0.64545 0.36804 -0.13153
 C753 C 0.60797 0.36860 -0.13745
 C754 C 0.59370 0.34953 -0.16200
 C755 C 0.58560 0.38814 -0.11866
 C756 C 0.60028 0.40630 -0.09353
 C757 C 0.63742 0.40488 -0.08747
 C758 C 0.65983 0.38618 -0.10647
 H759 H 0.69677 0.34917 -0.14648
 H760 H 0.56508 0.34943 -0.16680
 H761 H 0.55693 0.38896 -0.12328
 H762 H 0.68843 0.38588 -0.10153
 H763 H 0.60501 0.31581 -0.19947
 H764 H 0.64936 0.41875 -0.06831
 C765 C 1.16430 0.17652 -0.11747
 C766 C 1.17470 0.16493 -0.14842
 C767 C 1.16586 0.13372 -0.15598
 C768 C 1.14639 0.11527 -0.13400
 C769 C 1.13566 0.12768 -0.10361
 C770 C 1.14516 0.15815 -0.09545
 C771 C 1.11480 0.10970 -0.08225
 C772 C 1.10392 0.07960 -0.09120
 C773 C 1.11544 0.06718 -0.12117
 C774 C 1.13657 0.08481 -0.14235
 H775 H 1.17205 0.12397 -0.17968
 H776 H 1.13753 0.16794 -0.07205
 H777 H 1.10602 0.11956 -0.05921
 H778 H 1.14461 0.07484 -0.16554
 H779 H 1.17166 0.19960 -0.10947
 H780 H 1.10749 0.04402 -0.12859
 C781 C 1.12723 0.66848 0.33318
 C782 C 1.16473 0.66734 0.33661
 C783 C 1.18022 0.64656 0.35902
 C784 C 1.15839 0.62694 0.37784
 C785 C 1.12068 0.62754 0.37352
 C786 C 1.10537 0.64853 0.35126
 C787 C 1.09897 0.60706 0.39141
 C788 C 1.11438 0.58652 0.41416
 C789 C 1.15172 0.58683 0.41905
 C790 C 1.17359 0.60666 0.40083
 H791 H 1.20917 0.64587 0.36188
 H792 H 1.07653 0.64946 0.34778
 H793 H 1.07012 0.60716 0.38774
 H794 H 1.20239 0.60604 0.40463
 H795 H 1.11496 0.68439 0.31593
 H796 H 1.16414 0.57116 0.43644
 C797 C 0.61945 0.16313 0.33064
 C798 C 0.65080 0.17382 0.34609
 C799 C 0.65974 0.16215 0.37705
 C800 C 0.63849 0.13931 0.39185
 C801 C 0.60749 0.12821 0.37577
 C802 C 0.59793 0.14063 0.34540
 C803 C 0.58713 0.10436 0.38996
 C804 C 0.59769 0.09123 0.41981
 C805 C 0.62807 0.10292 0.43593
 C806 C 0.64823 0.12682 0.42213
 H807 H 0.68354 0.17051 0.38943
 H808 H 0.57429 0.13241 0.33270
 H809 H 0.56368 0.09554 0.37739
 H810 H 0.67182 0.13512 0.43486
 H811 H 0.61216 0.17140 0.30659
 H812 H 0.63658 0.09332 0.45911
 C813 C 0.62201 0.67109 -0.15564
 C814 C 0.65894 0.66462 -0.16016
 C815 C 0.67369 0.63801 -0.14498
 C816 C 0.65223 0.61846 -0.12587
 C817 C 0.61503 0.62459 -0.12283
 C818 C 0.60025 0.65102 -0.13767
 C819 C 0.59331 0.60423 -0.10487
 C820 C 0.60869 0.57868 -0.08875
 C821 C 0.64586 0.57346 -0.09072
 C822 C 0.66744 0.59294 -0.10954
 H823 H 0.70221 0.63307 -0.14681
 H824 H 0.57181 0.65616 -0.13545
 H825 H 0.56463 0.60848 -0.10298
 H826 H 0.69597 0.58807 -0.11130
 H827 H 0.60927 0.69081 -0.16738
 H828 H 0.65807 0.55378 -0.07840
 C829 C 0.83610 -0.17760 -0.12416
 C830 C 0.82746 -0.16604 -0.15529
 C831 C 0.83670 -0.13522 -0.16317
 C832 C 0.85470 -0.11641 -0.14053
 C833 C 0.86360 -0.12845 -0.10948
 C834 C 0.85398 -0.15901 -0.10148
 C835 C 0.88261 -0.10997 -0.08721
 C836 C 0.89330 -0.07971 -0.09574
 C837 C 0.88366 -0.06774 -0.12642
 C838 C 0.86445 -0.08589 -0.14859
 H839 H 0.83059 -0.12606 -0.18718
 H840 H 0.86045 -0.16859 -0.07774
 H841 H 0.88997 -0.11949 -0.06365
 H842 H 0.85776 -0.07623 -0.17224
 H843 H 0.82872 -0.20102 -0.11718
 H844 H 0.89155 -0.04449 -0.13354
 C845 C 0.88371 0.34839 0.32431
 C846 C 0.85135 0.33809 0.33831
 C847 C 0.84121 0.34962 0.36916
 C848 C 0.86256 0.37155 0.38540
 C849 C 0.89479 0.38198 0.37088
 C850 C 0.90525 0.37005 0.34045
 C851 C 0.91571 0.40447 0.38682
 C852 C 0.90464 0.41690 0.41697
 C853 C 0.87276 0.40608 0.43133
 C854 C 0.85197 0.38356 0.41575
 H855 H 0.81667 0.34156 0.38055
 H856 H 0.92982 0.37781 0.32891
 H857 H 0.94026 0.41263 0.37550
 H858 H 0.82739 0.37579 0.42728
 H859 H 0.89201 0.34026 0.30044
 H860 H 0.86372 0.41520 0.45459
 C861 C 0.38377 -0.17253 0.33722
 C862 C 0.34616 -0.16789 0.33433
 C863 C 0.33057 -0.14329 0.35275
 C864 C 0.35157 -0.12407 0.37270
 C865 C 0.38916 -0.12828 0.37376
 C866 C 0.40491 -0.15271 0.35615
 C867 C 0.41031 -0.10797 0.39243
 C868 C 0.39407 -0.08430 0.41106
 C869 C 0.35653 -0.08121 0.41107
 C870 C 0.33546 -0.10068 0.39173
 H871 H 0.30175 -0.13982 0.35326
 H872 H 0.43373 -0.15638 0.35681
 H873 H 0.43929 -0.11070 0.39270
 H874 H 0.30658 -0.09732 0.39154
 H875 H 0.39779 -0.19016 0.32321
 H876 H 0.34355 -0.06307 0.42526
 C877 C 0.38512 0.33328 -0.17207
 C878 C 0.34794 0.33229 -0.16632
 C879 C 0.33292 0.35103 -0.14169
 C880 C 0.35471 0.37086 -0.12319
 C881 C 0.39197 0.37244 -0.12977
 C882 C 0.40695 0.35337 -0.15411
 C883 C 0.41350 0.39321 -0.11206
 C884 C 0.39833 0.41198 -0.08749
 C885 C 0.36150 0.40951 -0.08051
 C886 C 0.33982 0.38929 -0.09835
 H887 H 0.30429 0.35004 -0.13691
 H888 H 0.43547 0.35413 -0.15937
 H889 H 0.44197 0.39477 -0.11741
 H890 H 0.31136 0.38822 -0.09286
 H891 H 0.39710 0.31900 -0.19101
 H892 H 0.34924 0.42376 -0.06169
 C893 C 1.13473 -0.13624 0.18906
 C894 C 1.15719 -0.15661 0.17152
 C895 C 1.15793 -0.15511 0.13733
 C896 C 1.13582 -0.13387 0.12069
 C897 C 1.11356 -0.11314 0.13854
 C898 C 1.11337 -0.11441 0.17272
 C899 C 1.09125 -0.09204 0.12187
 C900 C 1.08986 -0.09229 0.08765
 C901 C 1.11182 -0.11310 0.07015
 C902 C 1.13499 -0.13344 0.08651
 H903 H 1.17501 -0.17104 0.12374
 H904 H 1.09637 -0.09884 0.18679
 H905 H 1.07396 -0.07631 0.13550
 H906 H 1.15172 -0.14924 0.07246
 H907 H 1.13400 -0.13707 0.21546
 H908 H 1.11104 -0.11361 0.04374
 C909 C 1.11502 0.34561 0.68729
 C910 C 1.14478 0.33067 0.67286
 C911 C 1.15248 0.33633 0.63981
 C912 C 1.13192 0.35766 0.62183
 C913 C 1.10269 0.37325 0.63680
 C914 C 1.09410 0.36666 0.66939
 C915 C 1.08329 0.39581 0.61920
 C916 C 1.09327 0.40330 0.58706
 C917 C 1.12177 0.38703 0.57221
 C918 C 1.14081 0.36430 0.58937
 H919 H 1.17491 0.32451 0.62820
 H920 H 1.07176 0.37835 0.68127
 H921 H 1.06135 0.40824 0.63087
 H922 H 1.16305 0.35245 0.57751
 H923 H 1.10863 0.34180 0.71275
 H924 H 1.12979 0.39226 0.54741
 C925 C 0.60990 -0.16042 0.68140
 C926 C 0.64096 -0.17330 0.66712
 C927 C 0.64929 -0.16614 0.63459
 C928 C 0.62776 -0.14538 0.61690
 C929 C 0.59719 -0.13170 0.63176
 C930 C 0.58816 -0.13978 0.66386
 C931 C 0.57689 -0.10950 0.61461
 C932 C 0.58716 -0.10055 0.58302
 C933 C 0.61685 -0.11511 0.56812
 C934 C 0.63693 -0.13740 0.58487
 H935 H 0.67288 -0.17639 0.62322
 H936 H 0.56480 -0.12961 0.67563
 H937 H 0.55397 -0.09843 0.62626
 H938 H 0.66014 -0.14781 0.57307
 H939 H 0.60307 -0.16554 0.70652
 H940 H 0.62510 -0.10876 0.54368
 C941 C 0.61801 0.33132 0.17786
 C942 C 0.65489 0.32964 0.17084
 C943 C 0.66879 0.34634 0.14440
 C944 C 0.64611 0.36481 0.12512
 C945 C 0.60911 0.36725 0.13283
 C946 C 0.59529 0.35023 0.15917
 C947 C 0.58676 0.38680 0.11417
 C948 C 0.60091 0.40329 0.08756
 C949 C 0.63747 0.39983 0.07959
 C950 C 0.65992 0.38098 0.09834
 H951 H 0.69724 0.34477 0.13881
 H952 H 0.56701 0.35161 0.16535
 H953 H 0.55853 0.38918 0.12031
 H954 H 0.68813 0.37919 0.09199
 H955 H 0.60698 0.31848 0.19825
 H956 H 0.64902 0.41233 0.05922
 C957 C 0.84421 0.12660 0.19007
 C958 C 0.83333 0.15514 0.17634
 C959 C 0.84207 0.16145 0.14360
 C960 C 0.86174 0.13978 0.12502
 C961 C 0.87270 0.11128 0.13919
 C962 C 0.86363 0.10487 0.17168
 C963 C 0.89303 0.08991 0.12081
 C964 C 0.90299 0.09685 0.08855
 C965 C 0.89154 0.12507 0.07458
 C966 C 0.87098 0.14629 0.09259
 H967 H 0.83344 0.18313 0.13253
 H968 H 0.87190 0.08320 0.18299
 H969 H 0.90181 0.06825 0.13188
 H970 H 0.86274 0.16798 0.08130
 H971 H 0.83825 0.12128 0.21531
 H972 H 0.89881 0.13091 0.04974
 C973 C 0.81757 0.66550 0.61987
 C974 C 0.83285 0.67303 0.65025
 C975 C 0.86729 0.66149 0.65776
 C976 C 0.88570 0.64205 0.63579
 C977 C 0.86967 0.63397 0.60571
 C978 C 0.83578 0.64617 0.59784
 C979 C 0.88744 0.61328 0.58443
 C980 C 0.92089 0.60038 0.59306
 C981 C 0.93695 0.60930 0.62263
 C982 C 0.91955 0.62993 0.64377
 H983 H 0.87930 0.66674 0.68119
 H984 H 0.82314 0.64046 0.57482
 H985 H 0.87482 0.60659 0.56168
 H986 H 0.93232 0.63597 0.66664
 H987 H 0.79140 0.67452 0.61313
 H988 H 0.96278 0.59984 0.62980
 C989 C 0.31100 0.16247 0.61785
 C990 C 0.32782 0.17132 0.64713
 C991 C 0.36255 0.16002 0.65379
 C992 C 0.37989 0.13968 0.63207
 C993 C 0.36245 0.13034 0.60308
 C994 C 0.32815 0.14218 0.59603
 C995 C 0.37929 0.10878 0.58212
 C996 C 0.41317 0.09632 0.59008
 C997 C 0.43056 0.10651 0.61854
 C998 C 0.41411 0.12798 0.63932
 H999 H 0.37570 0.16617 0.67645
 H1000 H 0.31440 0.13546 0.57385
 H1001 H 0.36565 0.10109 0.56022
 H1002 H 0.42793 0.13501 0.66136
 H1003 H 0.28450 0.17121 0.61180
 H1004 H 0.45676 0.09742 0.62515
 C1005 C 0.31790 0.66199 0.11560
 C1006 C 0.33395 0.67058 0.14533
 C1007 C 0.36788 0.65814 0.15323
 C1008 C 0.38513 0.63698 0.13224
 C1009 C 0.36846 0.62806 0.10273
 C1010 C 0.33499 0.64097 0.09451
 C1011 C 0.38521 0.60595 0.08235
 C1012 C 0.41829 0.59249 0.09130
 C1013 C 0.43489 0.60208 0.12038
 C1014 C 0.41851 0.62411 0.14063
 H1015 H 0.38041 0.66414 0.17623
 H1016 H 0.32185 0.63457 0.07193
 H1017 H 0.37215 0.59875 0.05998
 H1018 H 0.43174 0.63075 0.16309
 H1019 H 0.29207 0.67155 0.10861
 H1020 H 0.46043 0.59218 0.12778
   
