data_POSCAR
  _audit_creation_date              2014-09-24
  _audit_creation_method            'ToBaCCo'
  _symmetry_space_group_name_H-M    'P1'
  _symmetry_Int_Tables_number       1
  _symmetry_cell_setting            triclinic
  loop_
  _symmetry_equiv_pos_as_xyz
 x,y,z
_cell_length_a 31.5460
_cell_length_b 31.6535
_cell_length_c 31.6802
_cell_angle_alpha 102.836000
_cell_angle_beta 76.140900
_cell_angle_gamma 75.212800
loop_
  _atom_site_label
  _atom_site_type_symbol
  _atom_site_fract_x
  _atom_site_fract_y
  _atom_site_fract_z
C1 C 0.58323 0.38382 0.03430
 C2 C 0.60962 0.41210 0.03733
 C3 C 0.58703 0.45136 0.02853
 N4 N 0.54653 0.44863 0.02274
 C5 C 0.54457 0.40712 0.02516
 C6 C 0.59983 0.49158 0.03125
 C7 C 0.56320 0.53285 0.04245
 C8 C 0.55241 0.57164 0.07886
 C9 C 0.51931 0.60565 0.07299
 C10 C 0.50940 0.58574 0.03456
 N11 N 0.53514 0.54096 0.01692
 C12 C 0.48025 0.60952 0.01403
 C13 C 0.45189 0.58804 -0.00465
 C14 C 0.42685 0.60218 -0.03242
 C15 C 0.40277 0.57218 -0.04015
 C16 C 0.41492 0.54020 -0.01785
 N17 N 0.44486 0.54992 0.00367
 C18 C 0.39621 0.50464 -0.01477
 C19 C 0.41633 0.46752 0.00011
 C20 C 0.39506 0.43645 0.01128
 C21 C 0.42659 0.40401 0.02044
 C22 C 0.46624 0.41644 0.01584
 N23 N 0.45974 0.45516 0.00305
 C24 C 0.50730 0.39084 0.02187
 H25 H 0.59063 0.35081 0.04044
 H26 H 0.63996 0.40553 0.04828
 H27 H 0.48471 0.46996 -0.00728
 H28 H 0.56819 0.57538 0.10568
 H29 H 0.50440 0.64102 0.09419
 H30 H 0.42617 0.63062 -0.04615
 H31 H 0.37940 0.57340 -0.06024
 H32 H 0.42048 0.37458 0.02935
 H33 H 0.53725 0.51862 -0.01383
 H34 H 0.36046 0.43665 0.01244
 C35 C 0.03457 0.57494 0.59053
 C36 C 0.03564 0.60237 0.56263
 C37 C 0.01322 0.58883 0.53194
 N38 N -0.00102 0.55369 0.53992
 C39 C 0.01208 0.54518 0.57567
 C40 C 0.00556 0.60918 0.49767
 C41 C -0.00861 0.58774 0.46153
 C42 C -0.02791 0.60995 0.43409
 C43 C -0.03307 0.57720 0.40114
 C44 C -0.01830 0.53582 0.40997
 N45 N -0.00339 0.54255 0.44689
 C46 C -0.01563 0.49286 0.38210
 C47 C -0.01223 0.45372 0.39719
 C48 C -0.00763 0.41065 0.37051
 C49 C -0.00866 0.38336 0.39861
 C50 C -0.01390 0.41065 0.44156
 N51 N -0.01670 0.45377 0.44068
 C52 C -0.01885 0.39640 0.48120
 C53 C -0.02221 0.42483 0.52411
 C54 C -0.03595 0.41596 0.56536
 C55 C -0.03077 0.44916 0.59790
 C56 C -0.01308 0.47699 0.57570
 N57 N -0.00825 0.46214 0.53081
 C58 C 0.00234 0.51207 0.59625
 H59 H 0.04919 0.57637 0.61823
 H60 H 0.05166 0.62886 0.56443
 H61 H 0.00947 0.47300 0.50553
 H62 H -0.03697 0.64608 0.43706
 H63 H -0.04615 0.58365 0.37384
 H64 H -0.00477 0.40009 0.33475
 H65 H -0.00672 0.34776 0.38864
 H66 H -0.03796 0.45163 0.63369
 H67 H 0.01453 0.51703 0.45791
 H68 H -0.04766 0.38806 0.57175
 C69 C 0.39946 -0.03622 0.58551
 C70 C 0.42759 -0.03665 0.61250
 C71 C 0.45807 -0.01434 0.59738
 N72 N 0.44977 -0.00083 0.56171
 C73 C 0.41406 -0.01430 0.55440
 C74 C 0.49251 -0.00618 0.61667
 C75 C 0.52806 0.00883 0.59420
 C76 C 0.55487 0.02873 0.61544
 C77 C 0.58798 0.03397 0.58207
 C78 C 0.57980 0.01892 0.54100
 N79 N 0.54307 0.00353 0.54890
 C80 C 0.60877 0.01487 0.49715
 C81 C 0.59394 0.00939 0.45795
 C82 C 0.62043 0.00534 0.41440
 C83 C 0.59205 0.00569 0.38775
 C84 C 0.54900 0.01026 0.41573
 N85 N 0.55010 0.01316 0.45867
 C86 C 0.50888 0.01515 0.40223
 C87 C 0.46565 0.01855 0.43144
 C88 C 0.42385 0.03207 0.42293
 C89 C 0.39117 0.02706 0.45701
 C90 C 0.41386 0.00974 0.48502
 N91 N 0.45917 0.00496 0.46943
 C92 C 0.39346 -0.00557 0.52096
 H93 H 0.37184 -0.05091 0.58810
 H94 H 0.42607 -0.05219 0.63975
 H95 H 0.48492 -0.01253 0.48039
 H96 H 0.55170 0.03772 0.65133
 H97 H 0.61530 0.04663 0.58823
 H98 H 0.65603 0.00405 0.40306
 H99 H 0.60180 0.00426 0.35218
 H100 H 0.35498 0.03409 0.45995
 H101 H 0.53272 -0.01510 0.52422
 H102 H 0.41723 0.04346 0.39471
 O103 O 0.45923 0.00524 -0.03675
 O104 O 0.46700 0.01757 0.07950
 O105 O 0.46723 0.06876 0.02663
 O106 O 0.45800 -0.04643 0.01787
 O107 O 0.53387 -0.07630 -0.01016
 O108 O 0.54307 0.03843 -0.00317
 O109 O 0.54293 -0.01340 0.05077
 O110 O 0.53498 -0.02576 -0.06489
 Cu111 Cu 0.45517 0.01419 0.02441
 Cu112 Cu 0.54630 -0.02222 -0.00985
 C113 C 0.49593 -0.01214 -0.07074
 C114 C 0.50636 0.00392 0.08476
 C115 C 0.50670 0.07320 0.01336
 C116 C 0.49452 -0.08101 0.00327
 O117 O -0.06985 0.53356 1.00586
 O118 O 0.04664 0.53999 0.99525
 O119 O -0.00596 0.54154 0.94263
 O120 O -0.01850 0.53205 1.05843
 O121 O 0.01344 0.45685 1.02977
 O122 O 0.02237 0.46618 0.91449
 O123 O 0.07613 0.46488 0.96488
 O124 O -0.04142 0.45818 0.97895
 Cu125 Cu -0.01469 0.54434 1.00336
 Cu126 Cu 0.02044 0.45392 0.96924
 C127 C -0.07576 0.49495 0.99439
 C128 C 0.08137 0.50362 0.97811
 C129 C 0.00984 0.50540 0.90880
 C130 C -0.00422 0.49288 1.06373
 O131 O 0.02636 -0.07133 0.46115
 O132 O 0.01567 0.04444 0.45311
 O133 O 0.07765 -0.01955 0.46528
 O134 O -0.03757 -0.00742 0.45238
 O135 O -0.06907 0.02187 0.52715
 O136 O 0.04570 0.01000 0.53986
 O137 O -0.01765 0.07337 0.52769
 O138 O -0.00548 -0.04351 0.53583
 Cu139 Cu 0.02366 -0.01610 0.45046
 Cu140 Cu -0.01463 0.01821 0.54019
 C141 C 0.01222 -0.07742 0.49962
 C142 C -0.00284 0.07860 0.48886
 C143 C 0.08131 -0.00678 0.50483
 C144 C -0.07291 0.00908 0.48776
 C145 C -0.26118 0.49210 1.01255
 C146 C -0.26919 0.45051 0.99861
 C147 C -0.31470 0.45060 1.00324
 C148 C -0.35316 0.49164 1.02428
 C149 C -0.34268 0.53324 1.03393
 C150 C -0.29758 0.53358 1.02950
 C151 C -0.21357 0.49244 1.00774
 C152 C -0.20579 0.53441 1.02094
 C153 C -0.16070 0.53471 1.01663
 C154 C -0.12321 0.49346 0.99900
 C155 C -0.13154 0.45156 0.98547
 C156 C -0.17677 0.45092 0.98968
 C157 C -0.28833 0.57498 1.04179
 C158 C -0.24324 0.57537 1.03784
 C159 C -0.23142 0.40959 0.98002
 C160 C -0.18607 0.40977 0.97590
 H161 H -0.31624 0.60738 1.05492
 H162 H -0.23765 0.60801 1.04795
 H163 H -0.23700 0.37710 0.96891
 H164 H -0.15805 0.37744 0.96167
 H165 H -0.31908 0.41860 0.98803
 H166 H -0.36865 0.56626 1.04430
 H167 H -0.15486 0.56721 1.02691
 H168 H -0.10298 0.41963 0.97153
 C169 C 0.26337 0.51029 0.97146
 C170 C 0.30220 0.47282 0.94301
 C171 C 0.34617 0.47252 0.94520
 C172 C 0.35110 0.50854 0.97679
 C173 C 0.31200 0.54649 1.00398
 C174 C 0.26801 0.54759 1.00141
 C175 C 0.21683 0.50959 0.97131
 C176 C 0.17800 0.54668 1.00038
 C177 C 0.13376 0.54512 1.00136
 C178 C 0.12819 0.50634 0.97435
 C179 C 0.16755 0.46963 0.94504
 C180 C 0.21200 0.47119 0.94322
 C181 C 0.22840 0.58442 1.02942
 C182 C 0.18415 0.58407 1.02875
 C183 C 0.29604 0.43564 0.91433
 C184 C 0.25170 0.43475 0.91456
 H185 H 0.23157 0.61346 1.05252
 H186 H 0.15447 0.61292 1.05129
 H187 H 0.32570 0.40654 0.89222
 H188 H 0.24845 0.40503 0.89255
 H189 H 0.37631 0.44331 0.92423
 H190 H 0.31573 0.57415 1.02844
 H191 H 0.10369 0.57342 1.02421
 H192 H 0.16358 0.43978 0.92394
 C193 C 0.01661 -0.25976 0.50183
 C194 C 0.03848 -0.29605 0.46114
 C195 C 0.03589 -0.33968 0.46040
 C196 C 0.01110 -0.34735 0.49984
 C197 C -0.00961 -0.31055 0.54077
 C198 C -0.00715 -0.26669 0.54184
 C199 C 0.01751 -0.21333 0.50218
 C200 C -0.00541 -0.17666 0.54253
 C201 C -0.00600 -0.13222 0.54211
 C202 C 0.01574 -0.12446 0.50154
 C203 C 0.03936 -0.16191 0.46170
 C204 C 0.04024 -0.20632 0.46179
 C205 C -0.02898 -0.22934 0.58180
 C206 C -0.02811 -0.18510 0.58215
 C207 C 0.06175 -0.28784 0.42166
 C208 C 0.06259 -0.24370 0.42197
 H209 H -0.04738 -0.23423 0.61295
 H210 H -0.04585 -0.15718 0.61354
 H211 H 0.07888 -0.31564 0.39009
 H212 H 0.08037 -0.23869 0.39064
 H213 H 0.05293 -0.36778 0.42900
 H214 H -0.02948 -0.31554 0.57120
 H215 H -0.02432 -0.10368 0.57293
 H216 H 0.05642 -0.15647 0.43032
 C217 C -0.01503 0.25949 0.47738
 C218 C -0.05692 0.29557 0.49972
 C219 C -0.05887 0.34009 0.49862
 C220 C -0.01872 0.34874 0.47746
 C221 C 0.02278 0.31216 0.45473
 C222 C 0.02472 0.26730 0.45412
 C223 C -0.01239 0.21284 0.47938
 C224 C 0.02933 0.17667 0.45646
 C225 C 0.03177 0.13245 0.45876
 C226 C -0.00654 0.12478 0.48520
 C227 C -0.04799 0.16134 0.50836
 C228 C -0.05135 0.20545 0.50493
 C229 C 0.06580 0.23026 0.43157
 C230 C 0.06795 0.18562 0.43238
 C231 C -0.09554 0.28659 0.52379
 C232 C -0.09269 0.24237 0.52670
 H233 H 0.09660 0.23587 0.41333
 H234 H 0.10034 0.15802 0.41464
 H235 H -0.12800 0.31415 0.54126
 H236 H -0.12306 0.23705 0.54625
 H237 H -0.09087 0.36834 0.51590
 H238 H 0.05360 0.31892 0.43828
 H239 H 0.06379 0.10424 0.44123
 H240 H -0.07759 0.15522 0.52842
 C241 C 0.49098 -0.01715 -0.25233
 C242 C 0.44973 0.00570 -0.25877
 C243 C 0.44991 0.00802 -0.30257
 C244 C 0.49116 -0.01195 -0.33984
 C245 C 0.53186 -0.03593 -0.33262
 C246 C 0.53204 -0.03831 -0.28905
 C247 C 0.49153 -0.01781 -0.20603
 C248 C 0.53313 -0.03957 -0.19953
 C249 C 0.53397 -0.03851 -0.15530
 C250 C 0.49364 -0.01576 -0.11756
 C251 C 0.45192 0.00506 -0.12483
 C252 C 0.45076 0.00434 -0.16903
 C253 C 0.57277 -0.06059 -0.28132
 C254 C 0.57332 -0.06118 -0.23730
 C255 C 0.40943 0.02684 -0.22102
 C256 C 0.40992 0.02614 -0.17694
 H257 H 0.60465 -0.07715 -0.30943
 H258 H 0.60560 -0.07821 -0.23272
 H259 H 0.37734 0.04456 -0.22550
 H260 H 0.37819 0.04331 -0.14874
 H261 H 0.41850 0.02729 -0.30719
 H262 H 0.56358 -0.05238 -0.36102
 H263 H 0.56625 -0.05480 -0.15024
 H264 H 0.42070 0.02274 -0.09609
 C265 C 0.51416 0.01324 0.26552
 C266 C 0.49048 0.05441 0.30111
 C267 C 0.49073 0.05563 0.34559
 C268 C 0.51246 0.01548 0.35468
 C269 C 0.53632 -0.02536 0.31864
 C270 C 0.53779 -0.02655 0.27383
 C271 C 0.51333 0.01145 0.21885
 C272 C 0.53767 -0.02953 0.18318
 C273 C 0.53641 -0.03118 0.13894
 C274 C 0.50960 0.00716 0.13077
 C275 C 0.48508 0.04788 0.16681
 C276 C 0.48746 0.05046 0.21094
 C277 C 0.56172 -0.06689 0.23728
 C278 C 0.56200 -0.06824 0.19263
 C279 C 0.46611 0.09310 0.29163
 C280 C 0.46426 0.09105 0.24738
 H281 H 0.58024 -0.09772 0.24327
 H282 H 0.58080 -0.10006 0.16541
 H283 H 0.44760 0.12501 0.31880
 H284 H 0.44445 0.12144 0.24167
 H285 H 0.47262 0.08713 0.37343
 H286 H 0.55324 -0.05616 0.32574
 H287 H 0.55490 -0.06266 0.11113
 H288 H 0.46465 0.07746 0.16030
 C289 C 0.48489 -0.25921 0.00840
 C290 C 0.52560 -0.29420 0.00192
 C291 C 0.52336 -0.33719 0.00433
 C292 C 0.48088 -0.34611 0.01248
 C293 C 0.44021 -0.31015 0.01929
 C294 C 0.44207 -0.26669 0.01730
 C295 C 0.48718 -0.21375 0.00615
 C296 C 0.44640 -0.17830 0.01351
 C297 C 0.44879 -0.13489 0.01203
 C298 C 0.49168 -0.12708 0.00295
 C299 C 0.53220 -0.16331 -0.00482
 C300 C 0.53013 -0.20655 -0.00298
 C301 C 0.40199 -0.23043 0.02431
 C302 C 0.40410 -0.18699 0.02252
 C303 C 0.56792 -0.28567 -0.00711
 C304 C 0.57017 -0.24259 -0.00962
 H305 H 0.36867 -0.23563 0.03133
 H306 H 0.37235 -0.15998 0.02826
 H307 H 0.59960 -0.31252 -0.01227
 H308 H 0.60350 -0.23741 -0.01662
 H309 H 0.55518 -0.36431 -0.00165
 H310 H 0.40692 -0.31533 0.02777
 H311 H 0.41739 -0.10726 0.01810
 H312 H 0.56535 -0.15770 -0.01145
 C313 C 0.51441 0.25439 0.02344
 C314 C 0.48455 0.29151 0.06131
 C315 C 0.48417 0.33608 0.06198
 C316 C 0.51172 0.34356 0.02415
 C317 C 0.54214 0.30599 -0.01306
 C318 C 0.54389 0.26120 -0.01347
 C319 C 0.51380 0.20762 0.02177
 C320 C 0.54383 0.17048 -0.01599
 C321 C 0.54243 0.12618 -0.01784
 C322 C 0.51015 0.11931 0.01692
 C323 C 0.48028 0.15685 0.05451
 C324 C 0.48237 0.20109 0.05741
 C325 C 0.57365 0.22319 -0.05050
 C326 C 0.57387 0.17855 -0.05158
 C327 C 0.45464 0.28342 0.09699
 C328 C 0.45332 0.23901 0.09491
 H329 H 0.59671 0.22802 -0.07906
 H330 H 0.59715 0.15021 -0.08091
 H331 H 0.43140 0.31177 0.12633
 H332 H 0.42914 0.23436 0.12275
 H333 H 0.46102 0.36512 0.09076
 H334 H 0.56360 0.31188 -0.04199
 H335 H 0.56521 0.09731 -0.04698
 H336 H 0.45565 0.15150 0.08149
 C337 C -0.25567 0.01654 0.48521
 C338 C -0.26253 -0.02238 0.46039
 C339 C -0.30771 -0.02247 0.46428
 C340 C -0.34591 0.01626 0.49222
 C341 C -0.33817 0.05579 0.51505
 C342 C -0.29319 0.05571 0.51259
 C343 C -0.20835 0.01585 0.48338
 C344 C -0.20170 0.05377 0.51033
 C345 C -0.15692 0.05174 0.51078
 C346 C -0.11902 0.01267 0.48366
 C347 C -0.12593 -0.02431 0.45541
 C348 C -0.17077 -0.02327 0.45582
 C349 C -0.28502 0.09362 0.53777
 C350 C -0.24006 0.09250 0.53700
 C351 C -0.22410 -0.06072 0.43289
 C352 C -0.17896 -0.06104 0.43040
 H353 H -0.31368 0.12404 0.55903
 H354 H -0.23532 0.12207 0.55770
 H355 H -0.22896 -0.09087 0.41340
 H356 H -0.15030 -0.09143 0.40908
 H357 H -0.31332 -0.05297 0.44636
 H358 H -0.36724 0.08633 0.53524
 H359 H -0.15147 0.08026 0.53245
 H360 H -0.09673 -0.05462 0.43498
 C361 C 0.26112 -0.01596 0.52051
 C362 C 0.26480 0.01325 0.55899
 C363 C 0.30855 0.01491 0.56014
 C364 C 0.34817 -0.01239 0.52316
 C365 C 0.34408 -0.04301 0.48584
 C366 C 0.30054 -0.04444 0.48401
 C367 C 0.21504 -0.01534 0.51754
 C368 C 0.21135 -0.04280 0.47805
 C369 C 0.16744 -0.04032 0.47437
 C370 C 0.12742 -0.01095 0.50997
 C371 C 0.13176 0.01546 0.54987
 C372 C 0.17554 0.01378 0.55361
 C373 C 0.29551 -0.07243 0.44565
 C374 C 0.25164 -0.07151 0.44266
 C375 C 0.22451 0.04134 0.59472
 C376 C 0.18064 0.04146 0.59216
 H377 H 0.32570 -0.09453 0.41730
 H378 H 0.24923 -0.09302 0.41212
 H379 H 0.22687 0.06390 0.62464
 H380 H 0.15044 0.06403 0.62024
 H381 H 0.31175 0.03864 0.58874
 H382 H 0.37469 -0.06397 0.45737
 H383 H 0.16442 -0.06099 0.44369
 H384 H 0.10113 0.03832 0.57735
 C385 C -0.01364 0.48588 1.24509
 C386 C -0.05513 0.50958 1.28094
 C387 C -0.05636 0.50987 1.32557
 C388 C -0.01589 0.48870 1.33451
 C389 C 0.02526 0.46473 1.29820
 C390 C 0.02646 0.46273 1.25327
 C391 C -0.01184 0.48623 1.19823
 C392 C 0.02947 0.46193 1.16229
 C393 C 0.03117 0.46289 1.11788
 C394 C -0.00746 0.48938 1.10980
 C395 C -0.04851 0.51376 1.14611
 C396 C -0.05114 0.51168 1.19041
 C397 C 0.06711 0.43876 1.21645
 C398 C 0.06848 0.43803 1.17167
 C399 C -0.09413 0.53349 1.27156
 C400 C -0.09205 0.53488 1.22712
 H401 H 0.09819 0.42059 1.22233
 H402 H 0.10055 0.41926 1.14426
 H403 H -0.12629 0.55200 1.29894
 H404 H -0.12268 0.55439 1.22148
 H405 H -0.08812 0.52798 1.35359
 H406 H 0.05630 0.44817 1.30519
 H407 H 0.06292 0.44451 1.08988
 H408 H -0.07831 0.53397 1.13972
 C409 C 0.01344 0.51377 0.72860
 C410 C -0.01580 0.55259 0.72335
 C411 C -0.01836 0.55248 0.67973
 C412 C 0.00825 0.51399 0.64173
 C413 C 0.03856 0.47603 0.64736
 C414 C 0.04085 0.47548 0.69084
 C415 C 0.01431 0.51261 0.77465
 C416 C 0.04201 0.47300 0.78004
 C417 C 0.04104 0.47120 0.82404
 C418 C 0.01291 0.50876 0.86246
 C419 C -0.01371 0.54871 0.85637
 C420 C -0.01353 0.55062 0.81251
 C421 C 0.06902 0.43694 0.69749
 C422 C 0.06947 0.43565 0.74137
 C423 C -0.04269 0.59020 0.76197
 C424 C -0.04144 0.58930 0.80578
 H425 H 0.09031 0.40722 0.66860
 H426 H 0.09112 0.40499 0.74510
 H427 H -0.06525 0.62040 0.75835
 H428 H -0.06306 0.61886 0.83470
 H429 H -0.04178 0.58163 0.67534
 H430 H 0.05909 0.44646 0.61800
 H431 H 0.06185 0.44043 0.82840
 H432 H -0.03566 0.57768 0.88577
   
