data_POSCAR
  _audit_creation_date              2014-09-24
  _audit_creation_method            'ToBaCCo'
  _symmetry_space_group_name_H-M    'P1'
  _symmetry_Int_Tables_number       1
  _symmetry_cell_setting            triclinic
  loop_
  _symmetry_equiv_pos_as_xyz
 x,y,z
_cell_length_a 32.9119
_cell_length_b 28.6512
_cell_length_c 29.6658
_cell_angle_alpha 89.844100
_cell_angle_beta 90.245900
_cell_angle_gamma 89.664300
loop_
  _atom_site_label
  _atom_site_type_symbol
  _atom_site_fract_x
  _atom_site_fract_y
  _atom_site_fract_z
C1 C 0.24413 0.26963 0.25846
 C2 C 0.24062 0.22223 0.25848
 C3 C 0.21572 0.19780 0.22387
 C4 C 0.26233 0.19338 0.29280
 C5 C 0.27686 0.29367 0.28409
 C6 C 0.21410 0.29947 0.23451
 C7 C 0.18935 0.16175 0.23620
 C8 C 0.16639 0.13837 0.20355
 C9 C 0.16939 0.15059 0.15738
 C10 C 0.19637 0.18654 0.14547
 C11 C 0.21948 0.20935 0.17810
 C12 C 0.25845 0.20375 0.33880
 C13 C 0.28207 0.18017 0.37082
 C14 C 0.30978 0.14536 0.35775
 C15 C 0.31232 0.13359 0.31167
 C16 C 0.28855 0.15723 0.27961
 C17 C 0.31734 0.27809 0.28132
 C18 C 0.34763 0.29896 0.30727
 C19 C 0.33841 0.33690 0.33522
 C20 C 0.29821 0.35373 0.33680
 C21 C 0.26772 0.33225 0.31143
 C22 C 0.22660 0.32994 0.20028
 C23 C 0.19832 0.35906 0.17874
 C24 C 0.15741 0.35901 0.19215
 C25 C 0.14518 0.32927 0.22709
 C26 C 0.17322 0.29920 0.24771
 H27 H 0.18620 0.15196 0.27130
 H28 H 0.14623 0.11150 0.21541
 H29 H 0.20004 0.19698 0.11057
 H30 H 0.24065 0.23594 0.16746
 H31 H 0.23793 0.23111 0.34975
 H32 H 0.27929 0.18993 0.40594
 H33 H 0.29193 0.14872 0.24426
 H34 H 0.32542 0.24929 0.25950
 H35 H 0.37840 0.28547 0.30549
 H36 H 0.28999 0.38235 0.35875
 H37 H 0.23679 0.34502 0.31405
 H38 H 0.25816 0.33090 0.19014
 H39 H 0.20854 0.38236 0.15237
 H40 H 0.11384 0.32903 0.23808
 H41 H 0.16328 0.27635 0.27459
 H42 H 0.33346 0.10751 0.29970
 C43 C 0.74271 0.22840 0.24324
 C44 C 0.74367 0.27607 0.24243
 C45 C 0.77693 0.30173 0.21923
 C46 C 0.71132 0.30413 0.26480
 C47 C 0.71226 0.20197 0.26975
 C48 C 0.77209 0.19905 0.21793
 C49 C 0.81790 0.28951 0.22641
 C50 C 0.84842 0.30935 0.20014
 C51 C 0.83889 0.34339 0.16770
 C52 C 0.79827 0.35805 0.16259
 C53 C 0.76754 0.33726 0.18809
 C54 C 0.72173 0.33812 0.29676
 C55 C 0.69153 0.36035 0.32210
 C56 C 0.65039 0.34881 0.31582
 C57 C 0.63997 0.31649 0.28236
 C58 C 0.67005 0.29504 0.25647
 C59 C 0.68918 0.16747 0.24832
 C60 C 0.66335 0.13899 0.27318
 C61 C 0.65987 0.14449 0.31995
 C62 C 0.68270 0.17947 0.34150
 C63 C 0.70879 0.20788 0.31654
 C64 C 0.77652 0.20359 0.17109
 C65 C 0.80220 0.17326 0.14754
 C66 C 0.82359 0.13766 0.17056
 C67 C 0.81882 0.13318 0.21730
 C68 C 0.79346 0.16361 0.24077
 H69 H 0.82612 0.26334 0.25127
 H70 H 0.87955 0.29774 0.20481
 H71 H 0.79001 0.38389 0.13743
 H72 H 0.73625 0.34755 0.18219
 H73 H 0.75334 0.34584 0.30357
 H74 H 0.70057 0.38463 0.34812
 H75 H 0.66122 0.26985 0.23117
 H76 H 0.69171 0.16209 0.21231
 H77 H 0.64633 0.11217 0.25583
 H78 H 0.68175 0.18393 0.37766
 H79 H 0.72714 0.23352 0.33385
 H80 H 0.75945 0.22994 0.15271
 H81 H 0.80418 0.17693 0.11132
 H82 H 0.83472 0.10592 0.23574
 H83 H 0.79016 0.15925 0.27685
 H84 H 0.60849 0.30719 0.27681
 C85 C 0.76243 0.77165 0.73877
 C86 C 0.76272 0.72419 0.73347
 C87 C 0.73555 0.70109 0.70020
 C88 C 0.78873 0.69265 0.76129
 C89 C 0.79406 0.79637 0.76585
 C90 C 0.72965 0.80045 0.71744
 C91 C 0.70916 0.66574 0.71436
 C92 C 0.68186 0.64571 0.68399
 C93 C 0.68080 0.66036 0.63865
 C94 C 0.70781 0.69510 0.62443
 C95 C 0.73526 0.71494 0.65477
 C96 C 0.78919 0.69592 0.80851
 C97 C 0.81311 0.66536 0.83428
 C98 C 0.83677 0.63066 0.81321
 C99 C 0.83533 0.62670 0.76611
 C100 C 0.81165 0.65743 0.74039
 C101 C 0.83523 0.78325 0.76359
 C102 C 0.86401 0.80399 0.79173
 C103 C 0.85300 0.84046 0.82092
 C104 C 0.81210 0.85563 0.82110
 C105 C 0.78303 0.83348 0.79421
 C106 C 0.73933 0.83788 0.68885
 C107 C 0.70876 0.86066 0.66405
 C108 C 0.66818 0.84597 0.66735
 C109 C 0.65837 0.81023 0.69765
 C110 C 0.68866 0.78843 0.72326
 H111 H 0.70884 0.65470 0.74930
 H112 H 0.66083 0.61999 0.69662
 H113 H 0.70754 0.70709 0.58977
 H114 H 0.75579 0.74171 0.64304
 H115 H 0.77073 0.72189 0.82541
 H116 H 0.81227 0.66843 0.87059
 H117 H 0.81135 0.65389 0.70405
 H118 H 0.84514 0.75629 0.74058
 H119 H 0.89519 0.79174 0.79020
 H120 H 0.80169 0.88282 0.84353
 H121 H 0.75161 0.84464 0.79645
 H122 H 0.77070 0.84794 0.68412
 H123 H 0.71714 0.88786 0.64051
 H124 H 0.62726 0.79853 0.70083
 H125 H 0.68036 0.76050 0.74604
 H126 H 0.85292 0.59999 0.74913
 C127 C 0.25297 0.72888 0.75647
 C128 C 0.25396 0.77658 0.75796
 C129 C 0.28431 0.80414 0.73234
 C130 C 0.22437 0.80468 0.78444
 C131 C 0.21979 0.70194 0.77846
 C132 C 0.28525 0.70186 0.73274
 C133 C 0.30750 0.83779 0.75490
 C134 C 0.33397 0.86648 0.73106
 C135 C 0.33800 0.86200 0.68423
 C136 C 0.31478 0.82818 0.66152
 C137 C 0.28803 0.79964 0.68541
 C138 C 0.21817 0.79653 0.83056
 C139 C 0.19077 0.82413 0.85489
 C140 C 0.16958 0.86124 0.83359
 C141 C 0.17674 0.86959 0.78758
 C142 C 0.20357 0.84161 0.76333
 C143 C 0.17883 0.71460 0.77249
 C144 C 0.14853 0.69327 0.79796
 C145 C 0.15803 0.65695 0.82828
 C146 C 0.19889 0.64186 0.83158
 C147 C 0.22935 0.66439 0.80714
 C148 C 0.27463 0.66898 0.69978
 C149 C 0.30467 0.64728 0.67381
 C150 C 0.34589 0.65825 0.68040
 C151 C 0.35652 0.68959 0.71465
 C152 C 0.32658 0.71047 0.74118
 H153 H 0.30476 0.84214 0.79102
 H154 H 0.35122 0.89248 0.74927
 H155 H 0.31608 0.82466 0.62527
 H156 H 0.26956 0.77478 0.66722
 H157 H 0.23474 0.76896 0.84779
 H158 H 0.18738 0.81656 0.89034
 H159 H 0.20811 0.84879 0.72784
 H160 H 0.17039 0.74225 0.74926
 H161 H 0.11747 0.70543 0.79396
 H162 H 0.20820 0.61463 0.85475
 H163 H 0.26068 0.65367 0.81200
 H164 H 0.24297 0.66160 0.69285
 H165 H 0.29547 0.62379 0.64719
 H166 H 0.38806 0.69844 0.72044
 H167 H 0.33559 0.73475 0.76724
 H168 H 0.16127 0.89780 0.76998
 O169 O 1.02661 -0.07012 0.00534
 O170 O 0.94891 0.01122 0.04829
 O171 O 0.95197 -0.05003 -0.01699
 O172 O 1.02257 -0.01062 0.07138
 O173 O 1.04572 0.04372 0.02543
 O174 O 0.97178 0.00747 -0.06140
 O175 O 0.97198 0.06696 0.00380
 O176 O 1.04703 -0.01549 -0.04192
 Cu177 Cu 0.98524 -0.03549 0.03148
 Cu178 Cu 1.01163 0.03099 -0.02323
 C179 C 1.04979 -0.05666 -0.02611
 C180 C 0.94759 0.05306 0.03387
 C181 C 0.94942 -0.02764 -0.05392
 C182 C 1.04606 0.02340 0.06363
 O183 O 0.53757 0.45114 0.47097
 O184 O 0.45944 0.48574 0.55329
 O185 O 0.45915 0.44896 0.47334
 O186 O 0.53887 0.48772 0.55161
 O187 O 0.53721 0.55785 0.52056
 O188 O 0.45560 0.51974 0.44388
 O189 O 0.45845 0.55683 0.52430
 O190 O 0.53518 0.52161 0.44063
 Cu191 Cu 0.49906 0.46137 0.51544
 Cu192 Cu 0.49627 0.54607 0.47924
 C193 C 0.54948 0.48037 0.44162
 C194 C 0.44585 0.52730 0.55299
 C195 C 0.44376 0.47766 0.44531
 C196 C 0.55183 0.52929 0.54926
 O197 O -0.02643 0.56987 -0.00321
 O198 O 0.04693 0.49318 0.05517
 O199 O 0.04982 0.55029 -0.01412
 O200 O -0.03023 0.51313 0.06467
 O201 O -0.04463 0.45399 0.01986
 O202 O 0.03485 0.49158 -0.05930
 O203 O 0.03231 0.43570 0.00843
 O204 O -0.04208 0.51199 -0.04903
 Cu205 Cu 0.01172 0.53730 0.03032
 Cu206 Cu -0.00680 0.46755 -0.02459
 C207 C -0.04665 0.55401 -0.03619
 C208 C 0.05238 0.45160 0.04152
 C209 C 0.05591 0.52726 -0.05006
 C210 C -0.05095 0.47709 0.05570
 O211 O 0.45004 1.04572 0.48659
 O212 O 0.53197 1.01389 0.56653
 O213 O 0.52444 1.07249 0.50018
 O214 O 0.45693 0.98732 0.55418
 O215 O 0.47672 0.93291 0.50634
 O216 O 0.54583 1.01749 0.45382
 O217 O 0.55145 0.95768 0.52046
 O218 O 0.47154 0.99146 0.43948
 Cu219 Cu 0.48860 1.03525 0.53164
 Cu220 Cu 0.51361 0.96941 0.47536
 C221 C 0.44719 1.02436 0.44918
 C222 C 0.55542 0.97997 0.55717
 C223 C 0.54662 1.05944 0.46768
 C224 C 0.45521 0.94573 0.53951
 C225 C 1.14757 0.13001 0.12414
 C226 C 1.12080 0.09256 0.12957
 C227 C 1.09809 0.07616 0.09312
 C228 C 1.07171 0.03854 0.09809
 H229 H 1.11709 0.07552 0.16180
 H230 H 1.10048 0.09346 0.06068
 H231 H 1.15098 0.14335 0.09005
 H232 H 1.07018 0.02083 0.13040
 C233 C 0.65066 0.64224 0.60598
 C234 C 0.63238 0.60090 0.61028
 C235 C 0.60126 0.58616 0.57761
 C236 C 0.58398 0.54418 0.58058
 H237 H 0.64026 0.57757 0.63776
 H238 H 0.59210 0.61019 0.55110
 H239 H 0.64358 0.66373 0.57678
 H240 H 0.59360 0.52003 0.60677
 C241 C -0.12879 0.36009 0.13729
 C242 C -0.12658 0.40414 0.12261
 C243 C -0.09450 0.41812 0.09090
 C244 C -0.08287 0.46257 0.08730
 H245 H -0.14798 0.43015 0.13458
 H246 H -0.07949 0.39145 0.07102
 H247 H -0.10526 0.33542 0.12774
 H248 H -0.09592 0.48868 0.10939
 C249 C 0.36497 0.89491 0.66034
 C250 C 0.38166 0.88629 0.62018
 C251 C 0.40815 0.92111 0.59888
 C252 C 0.42819 0.91156 0.56093
 H253 H 0.37666 0.85335 0.60331
 H254 H 0.41162 0.95489 0.61481
 H255 H 0.37240 0.92727 0.67732
 H256 H 0.42530 0.87746 0.54554
 C257 C -0.13752 0.59739 -0.16096
 C258 C -0.12164 0.60712 -0.12053
 C259 C -0.09462 0.57357 -0.09739
 C260 C -0.07534 0.58547 -0.05946
 H261 H -0.12715 0.64071 -0.10499
 H262 H -0.08974 0.53937 -0.11203
 H263 H -0.12961 0.56456 -0.17690
 H264 H -0.07984 0.62007 -0.04556
 C265 C 0.33685 1.12487 0.39293
 C266 C 0.36145 1.08809 0.38677
 C267 C 0.38993 1.07311 0.42256
 C268 C 0.41599 1.03790 0.41581
 H269 H 0.36158 1.06928 0.35524
 H270 H 0.39054 1.09212 0.45411
 H271 H 0.33712 1.14176 0.42562
 H272 H 0.41535 1.01921 0.38409
 C273 C 1.14206 -0.10904 -0.14405
 C274 C 1.12867 -0.11473 -0.10178
 C275 C 1.09971 -0.08084 -0.08268
 C276 C 1.07991 -0.08961 -0.04441
 H277 H 1.13754 -0.14442 -0.08141
 H278 H 1.09369 -0.04867 -0.10094
 H279 H 1.12998 -0.07954 -0.16298
 H280 H 1.08482 -0.12245 -0.02692
 C281 C 0.61824 0.36631 0.34621
 C282 C 0.61883 0.40853 0.36527
 C283 C 0.58708 0.42211 0.39763
 C284 C 0.58051 0.46675 0.40846
 H285 H 0.64250 0.43318 0.35692
 H286 H 0.56846 0.39506 0.41250
 H287 H 0.59269 0.34353 0.35267
 H288 H 0.59749 0.49403 0.39173
 C289 C 0.88281 -0.14132 -0.14993
 C290 C 0.87957 -0.10071 -0.12785
 C291 C 0.91094 -0.08675 -0.09514
 C292 C 0.91968 -0.04188 -0.08824
 H293 H 0.85466 -0.07678 -0.13433
 H294 H 0.92751 -0.11368 -0.07688
 H295 H 0.91092 -0.16096 -0.14588
 H296 H 0.90559 -0.01513 -0.10906
 C297 C 0.37078 0.35608 0.36427
 C298 C 0.37230 0.40083 0.37679
 C299 C 0.40475 0.41678 0.40720
 C300 C 0.41173 0.46210 0.41411
 H301 H 0.34999 0.42574 0.36439
 H302 H 0.42351 0.39076 0.42404
 H303 H 0.39498 0.33254 0.37478
 H304 H 0.39415 0.48822 0.39596
 C305 C 0.12676 0.63908 -0.14442
 C306 C 0.12922 0.59952 -0.12027
 C307 C 0.09603 0.58606 -0.08983
 C308 C 0.08824 0.54126 -0.08121
 H309 H 0.15484 0.57596 -0.12342
 H310 H 0.07721 0.61314 -0.07503
 H311 H 0.09827 0.65833 -0.14342
 H312 H 0.10478 0.51417 -0.09892
 C313 C 0.63404 1.11125 0.34495
 C314 C 0.61832 1.11969 0.38561
 C315 C 0.59289 1.08440 0.40775
 C316 C 0.57319 1.09383 0.44593
 H317 H 0.62320 1.15279 0.40221
 H318 H 0.58967 1.05045 0.39209
 H319 H 0.62670 1.07861 0.32841
 H320 H 0.57566 1.12814 0.46098
 C321 C 0.12737 0.39066 0.17104
 C322 C 0.12538 0.39656 0.12644
 C323 C 0.09466 0.42753 0.10597
 C324 C 0.08274 0.42126 0.06338
 H325 H 0.14567 0.37704 0.10469
 H326 H 0.08091 0.45479 0.12622
 H327 H 0.10482 0.40712 0.19239
 H328 H 0.09464 0.39200 0.04433
 C329 C 0.63632 0.86372 0.63652
 C330 C 0.63320 0.90838 0.62389
 C331 C 0.60156 0.92264 0.59137
 C332 C 0.58748 0.96641 0.58944
 H333 H 0.65338 0.93435 0.63800
 H334 H 0.58859 0.89630 0.56950
 H335 H 0.61381 0.83904 0.62470
 H336 H 0.59826 0.99211 0.61334
 C337 C 0.84982 0.10339 0.14722
 C338 C 0.86805 0.11172 0.10789
 C339 C 0.89533 0.07652 0.08816
 C340 C 0.91804 0.08652 0.05230
 H341 H 0.86440 0.14508 0.09107
 H342 H 0.89786 0.04251 0.10412
 H343 H 0.85597 0.07058 0.16435
 H344 H 0.91614 0.12092 0.03709
 C345 C 0.37794 0.64098 0.64975
 C346 C 0.37704 0.59906 0.63007
 C347 C 0.40878 0.58551 0.59766
 C348 C 0.41483 0.54095 0.58616
 H349 H 0.35312 0.57458 0.63799
 H350 H 0.42780 0.61250 0.58334
 H351 H 0.40371 0.66356 0.64375
 H352 H 0.39740 0.51370 0.60235
   
