data_POSCAR
  _audit_creation_date              2014-09-24
  _audit_creation_method            'ToBaCCo'
  _symmetry_space_group_name_H-M    'P1'
  _symmetry_Int_Tables_number       1
  _symmetry_cell_setting            triclinic
  loop_
  _symmetry_equiv_pos_as_xyz
 x,y,z
_cell_length_a 20.9836
_cell_length_b 20.5753
_cell_length_c 20.3991
_cell_angle_alpha 89.645800
_cell_angle_beta 87.732600
_cell_angle_gamma 87.307200
loop_
  _atom_site_label
  _atom_site_type_symbol
  _atom_site_fract_x
  _atom_site_fract_y
  _atom_site_fract_z
N1 N 0.28212 0.28726 0.28962
 N2 N 0.72739 -0.25773 0.23957
 N3 N 0.75105 0.25118 0.73790
 N4 N 0.24894 -0.27361 0.73084
 N5 N 0.73409 -0.27634 0.73291
 N6 N 0.27429 0.25050 0.76247
 N7 N 0.23876 -0.24137 0.25698
 N8 N 0.75815 0.26214 0.25692
 O9 O 0.33804 0.04995 0.44580
 O10 O 0.30669 -0.07575 0.57069
 O11 O 0.30017 -0.07119 0.44354
 O12 O 0.34346 0.04164 0.57377
 O13 O 0.24267 0.07781 0.58174
 O14 O 0.19938 -0.03614 0.45580
 O15 O 0.20668 -0.03744 0.58207
 O16 O 0.23717 0.08548 0.45415
 Cu17 Cu 0.33230 -0.01734 0.50644
 Cu18 Cu 0.21133 0.02644 0.51817
 C19 C 0.29336 0.08986 0.42948
 C20 C 0.25171 -0.07660 0.59897
 C21 C 0.24192 -0.07438 0.42934
 C22 C 0.29939 0.07762 0.60118
 O23 O 0.69404 0.06904 0.56048
 O24 O 0.65881 -0.05944 0.44217
 O25 O 0.66028 -0.05165 0.57004
 O26 O 0.66497 0.06597 0.43839
 O27 O 0.76886 0.04787 0.42123
 O28 O 0.76288 -0.07814 0.55427
 O29 O 0.76230 -0.08025 0.42545
 O30 O 0.79678 0.04323 0.54432
 Cu31 Cu 0.65982 0.00782 0.50460
 Cu32 Cu 0.78261 -0.01918 0.48465
 C33 C 0.75235 0.07830 0.57149
 C34 C 0.70524 -0.09122 0.41305
 C35 C 0.70928 -0.08570 0.58476
 C36 C 0.71650 0.07845 0.40790
 O37 O 0.46061 0.35865 0.07103
 O38 O 0.57231 0.31779 -0.07035
 O39 O 0.45085 0.34795 -0.05429
 O40 O 0.58559 0.34996 0.05190
 O41 O 0.57785 0.24544 0.07410
 O42 O 0.44147 0.24264 -0.03715
 O43 O 0.56279 0.21350 -0.04790
 O44 O 0.45279 0.25352 0.08996
 Cu45 Cu 0.51857 0.35356 -0.00215
 Cu46 Cu 0.50776 0.22859 0.02211
 C47 C 0.43683 0.31206 0.10386
 C48 C 0.58575 0.25804 -0.08327
 C49 C 0.42332 0.29585 -0.06461
 C50 C 0.60512 0.29898 0.08121
 O51 O 0.53839 0.65228 0.06387
 O52 O 0.41733 0.65210 -0.05605
 O53 O 0.54348 0.64614 -0.06233
 O54 O 0.41912 0.68867 0.06786
 O55 O 0.43003 0.79249 0.04448
 O56 O 0.55197 0.75128 -0.08067
 O57 O 0.42715 0.75601 -0.07957
 O58 O 0.55156 0.75714 0.04756
 Cu59 Cu 0.47768 0.65023 0.00446
 Cu60 Cu 0.49108 0.77423 -0.01870
 C61 C 0.56624 0.70345 0.07648
 C62 C 0.40179 0.70176 -0.08942
 C63 C 0.57000 0.69293 -0.09254
 C64 C 0.40515 0.74874 0.07923
 O65 O 0.05841 0.46271 0.34825
 O66 O -0.07037 0.58441 0.31211
 O67 O -0.06489 0.45791 0.33915
 O68 O 0.05479 0.58350 0.30851
 O69 O 0.06270 0.55371 0.20448
 O70 O -0.05691 0.43284 0.23405
 O71 O -0.05837 0.55972 0.20706
 O72 O 0.06822 0.43565 0.24362
 Cu73 Cu -0.00687 0.52476 0.33745
 Cu74 Cu 0.00358 0.49183 0.21222
 C75 C 0.08606 0.42947 0.30232
 C76 C -0.08431 0.59471 0.25289
 C77 C -0.08061 0.42351 0.29122
 C78 C 0.07918 0.58935 0.25063
 O79 O 0.06406 0.53849 0.64666
 O80 O -0.06104 0.41934 0.68120
 O81 O -0.05930 0.54116 0.64862
 O82 O 0.06316 0.41213 0.65888
 O83 O 0.07196 0.42835 0.76496
 O84 O -0.05603 0.55902 0.75511
 O85 O -0.05230 0.43675 0.78711
 O86 O 0.06906 0.55409 0.75331
 Cu87 Cu 0.00141 0.47567 0.64853
 Cu88 Cu 0.00875 0.49614 0.77557
 C89 C 0.08758 0.56667 0.69502
 C90 C -0.07846 0.40890 0.74081
 C91 C -0.07913 0.57198 0.69933
 C92 C 0.08958 0.39862 0.71220
 N93 N 0.36633 0.38322 0.17357
 N94 N 0.32368 0.37809 0.22297
 C95 C 0.32135 0.31406 0.23736
 C96 C 0.36363 0.28012 0.19535
 N97 N 0.39088 0.32498 0.15658
 H98 H 0.37319 0.22804 0.19249
 N99 N 0.64387 0.64179 0.13826
 N100 N 0.68716 0.64963 0.18247
 C101 C 0.68513 0.71364 0.19588
 C102 C 0.64022 0.74550 0.15790
 N103 N 0.61559 0.69839 0.12266
 H104 H 0.62719 0.79697 0.15573
 N105 N 0.63525 0.17900 -0.15912
 N106 N 0.67871 0.17516 -0.20788
 C107 C 0.69840 0.23593 -0.21816
 C108 C 0.66569 0.27745 -0.17410
 N109 N 0.62692 0.23971 -0.13817
 H110 H 0.67103 0.32901 -0.16723
 N111 N 0.33601 0.63568 -0.15314
 N112 N 0.29552 0.63957 -0.20106
 C113 C 0.28965 0.70274 -0.21823
 C114 C 0.32857 0.73802 -0.17940
 N115 N 0.35641 0.69376 -0.13917
 H116 H 0.33578 0.78976 -0.18018
 N117 N 0.15226 0.36608 0.37715
 N118 N 0.20471 0.32750 0.37577
 C119 C 0.22467 0.32258 0.31228
 C120 C 0.18294 0.35906 0.27455
 N121 N 0.13834 0.38522 0.31704
 H122 H 0.18529 0.36671 0.22198
 N123 N 0.14949 0.64222 0.62795
 N124 N 0.19302 0.68599 0.63606
 C125 C 0.20716 0.68347 0.70004
 C126 C 0.17058 0.63805 0.73116
 N127 N 0.13550 0.61320 0.68450
 H128 H 0.16792 0.62586 0.78287
 N129 N -0.12600 0.67723 0.17867
 N130 N -0.17402 0.72097 0.17509
 C131 C -0.20668 0.72047 0.23339
 C132 C -0.17766 0.67346 0.27266
 N133 N -0.12754 0.64781 0.23650
 H134 H -0.19498 0.65521 0.31961
 N135 N -0.15140 0.35808 0.81801
 N136 N -0.19810 0.31703 0.81939
 C137 C -0.20555 0.29922 0.75681
 C138 C -0.16168 0.33036 0.71671
 N139 N -0.12886 0.36654 0.75715
 H140 H -0.15407 0.32686 0.66403
 N141 N 0.36489 0.15067 0.35798
 N142 N 0.36393 0.20353 0.32052
 C143 C 0.30322 0.22835 0.32288
 C144 C 0.26678 0.18895 0.36309
 N145 N 0.30719 0.14104 0.38383
 H146 H 0.21638 0.19458 0.37638
 N147 N 0.82858 0.14571 0.62152
 N148 N 0.83026 0.19316 0.66483
 C149 C 0.76928 0.20738 0.68497
 C150 C 0.72993 0.16710 0.65282
 N151 N 0.76906 0.12928 0.61393
 H152 H 0.67861 0.16428 0.65829
 N153 N 0.18910 -0.11827 0.69122
 N154 N 0.18865 -0.16975 0.73042
 C155 C 0.24221 -0.20611 0.71506
 C156 C 0.27475 -0.17656 0.66406
 N157 N 0.24013 -0.12176 0.65094
 H158 H 0.31596 -0.19575 0.63559
 N159 N 0.63549 -0.15395 0.34773
 N160 N 0.63976 -0.19859 0.30102
 C161 C 0.70259 -0.21265 0.28889
 C162 C 0.73693 -0.17548 0.32955
 N163 N 0.69313 -0.13945 0.36540
 H164 H 0.78827 -0.17381 0.33205
 N165 N 0.64485 0.62318 -0.15969
 N166 N 0.69033 0.63010 -0.20610
 C167 C 0.69528 0.69476 -0.21573
 C168 C 0.65180 0.72710 -0.17395
 N169 N 0.62102 0.68095 -0.14027
 H170 H 0.64254 0.77907 -0.16901
 N171 N 0.34042 0.35342 -0.12364
 N172 N 0.29986 0.34342 -0.17009
 C173 C 0.30588 0.27956 -0.18455
 C174 C 0.35130 0.25028 -0.14523
 N175 N 0.37149 0.29837 -0.10798
 H176 H 0.36992 0.20032 -0.14575
 N177 N 0.35295 0.82968 0.15142
 N178 N 0.30982 0.83436 0.20049
 C179 C 0.29168 0.77347 0.21324
 C180 C 0.32495 0.73107 0.17036
 N181 N 0.36232 0.76839 0.13247
 H182 H 0.32097 0.67905 0.16570
 N183 N 0.68618 0.35822 0.13361
 N184 N 0.72816 0.35030 0.18008
 C185 C 0.72638 0.28779 0.20001
 C186 C 0.68179 0.25739 0.16383
 N187 N 0.65763 0.30333 0.12347
 H188 H 0.66632 0.20807 0.16815
 N189 N -0.14448 0.64528 0.63450
 N190 N -0.19474 0.68621 0.64117
 C191 C -0.21093 0.68780 0.70570
 C192 C -0.16925 0.64667 0.73880
 N193 N -0.12839 0.62138 0.69227
 H194 H -0.16967 0.63485 0.79060
 N195 N -0.14758 0.35321 0.35919
 N196 N -0.18984 0.30805 0.35163
 C197 C -0.19404 0.29942 0.28640
 C198 C -0.15315 0.34064 0.25423
 N199 N -0.12540 0.37353 0.30130
 H200 H -0.14588 0.34775 0.20188
 N201 N 0.16266 0.32223 0.65576
 N202 N 0.21253 0.28272 0.66679
 C203 C 0.22273 0.28608 0.73147
 C204 C 0.17747 0.32935 0.76013
 N205 N 0.14092 0.35051 0.71082
 H206 H 0.17181 0.34422 0.81090
 N207 N 0.14850 0.64631 0.17522
 N208 N 0.19140 0.69129 0.17458
 C209 C 0.19584 0.71054 0.23718
 C210 C 0.15388 0.67623 0.27664
 N211 N 0.12553 0.63649 0.23566
 H212 H 0.14568 0.67886 0.32930
 N213 N 0.64633 -0.14286 0.66607
 N214 N 0.65058 -0.19348 0.70612
 C215 C 0.71141 -0.21740 0.70075
 C216 C 0.74469 -0.17954 0.65566
 N217 N 0.70196 -0.13370 0.63528
 H218 H 0.79395 -0.18544 0.63814
 N219 N 0.16327 -0.13682 0.37584
 N220 N 0.16045 -0.18290 0.33107
 C221 C 0.22116 -0.19818 0.31065
 C222 C 0.26145 -0.15998 0.34406
 N223 N 0.22327 -0.12229 0.38411
 H224 H 0.31292 -0.15870 0.33889
 N225 N 0.65867 0.14965 0.33497
 N226 N 0.66729 0.19936 0.29492
 C227 C 0.73022 0.20966 0.29313
 C228 C 0.76042 0.16464 0.33372
 N229 N 0.71362 0.12787 0.35845
 H230 H 0.81028 0.16034 0.34553
 N231 N 0.37000 0.13478 0.67214
 N232 N 0.36464 0.18077 0.71776
 C233 C 0.30149 0.19314 0.72993
 C234 C 0.26858 0.15350 0.69061
 N235 N 0.31268 0.11864 0.65482
 H236 H 0.21749 0.15367 0.68481
   
