data_POSCAR
  _audit_creation_date              2014-09-24
  _audit_creation_method            'ToBaCCo'
  _symmetry_space_group_name_H-M    'P1'
  _symmetry_Int_Tables_number       1
  _symmetry_cell_setting            triclinic
  loop_
  _symmetry_equiv_pos_as_xyz
 x,y,z
_cell_length_a 26.4989
_cell_length_b 26.4764
_cell_length_c 26.5781
_cell_angle_alpha 92.386700
_cell_angle_beta 90.594100
_cell_angle_gamma 88.754000
loop_
  _atom_site_label
  _atom_site_type_symbol
  _atom_site_fract_x
  _atom_site_fract_y
  _atom_site_fract_z
C1 C 0.03114 0.44187 0.17724
 H2 H 0.06202 0.46742 0.17325
 C3 C 0.03199 0.39455 0.15136
 H4 H 0.06332 0.38410 0.12691
 C5 C -0.04581 0.42268 0.21611
 H6 H -0.07534 0.43258 0.24257
 C7 C -0.04649 0.37534 0.19101
 H8 H -0.07694 0.34988 0.19786
 N9 N -0.00724 0.45487 0.20928
 C10 C -0.01360 0.61792 0.24855
 H11 H -0.01913 0.61410 0.28847
 C12 C -0.01195 0.66595 0.22910
 H13 H -0.01675 0.69917 0.25394
 C14 C 0.00087 0.57916 0.16773
 H15 H 0.00645 0.54521 0.14426
 C16 C 0.00281 0.62674 0.14667
 H17 H 0.00955 0.62939 0.10675
 Zn18 Zn -0.00370 0.51436 0.25239
 N19 N -0.00651 0.57578 0.21805
 C20 C 0.09184 0.54970 0.28209
 N21 N 0.05870 0.51183 0.28817
 C22 C 0.07177 0.47082 0.31508
 C23 C 0.11993 0.46689 0.33701
 C24 C 0.14006 0.54729 0.30336
 C25 C -0.10481 0.52758 0.27168
 C26 C -0.15013 0.52690 0.29761
 C27 C -0.10355 0.50416 0.37232
 C28 C -0.05873 0.50540 0.34485
 N29 N -0.06042 0.51616 0.29520
 H30 H 0.08175 0.58133 0.25950
 H31 H 0.04529 0.44063 0.31839
 H32 H 0.13040 0.43387 0.35780
 H33 H 0.16624 0.57736 0.29764
 H34 H -0.10497 0.53599 0.23220
 H35 H -0.18531 0.53502 0.27812
 H36 H -0.10234 0.49451 0.41152
 H37 H -0.02300 0.49674 0.36283
 C38 C -0.00308 0.67050 0.17785
 C39 C -0.00695 0.36067 0.15886
 C40 C -0.14965 0.51451 0.34815
 C41 C 0.15444 0.50541 0.33068
 C42 C 0.03506 0.57125 0.81241
 H43 H 0.06687 0.54561 0.81753
 C44 C 0.03581 0.62036 0.83418
 H45 H 0.06803 0.63243 0.85665
 C46 C -0.04471 0.58830 0.77477
 H47 H -0.07538 0.57669 0.75025
 C48 C -0.04549 0.63737 0.79582
 H49 H -0.07705 0.66268 0.78806
 N50 N -0.00475 0.55633 0.78305
 C51 C -0.00513 0.39226 0.75974
 H52 H -0.01070 0.39249 0.71937
 C53 C -0.00385 0.34662 0.78375
 H54 H -0.00858 0.31154 0.76190
 C55 C 0.00756 0.43799 0.83741
 H56 H 0.01170 0.47382 0.85790
 C57 C 0.00906 0.39278 0.86313
 H58 H 0.01438 0.39368 0.90362
 Zn59 Zn -0.00236 0.49347 0.74597
 N60 N 0.00093 0.43665 0.78652
 C61 C 0.09187 0.45601 0.71234
 N62 N 0.05561 0.49218 0.70457
 C63 C 0.06290 0.52944 0.67175
 C64 C 0.10833 0.53126 0.64543
 C65 C 0.13747 0.45637 0.68682
 C66 C -0.10381 0.47916 0.73880
 C67 C -0.15214 0.47737 0.71805
 C68 C -0.11639 0.49053 0.63629
 C69 C -0.06837 0.49191 0.65876
 N70 N -0.06333 0.48722 0.70935
 H71 H 0.08647 0.42767 0.73965
 H72 H 0.03408 0.55849 0.66715
 H73 H 0.11440 0.56152 0.62012
 H74 H 0.16633 0.42791 0.69411
 H75 H -0.09853 0.47559 0.77892
 H76 H -0.18410 0.47221 0.74234
 H77 H -0.12046 0.49565 0.59618
 H78 H -0.03556 0.49796 0.63614
 C79 C 0.00340 0.34676 0.83580
 C80 C -0.00469 0.65382 0.82524
 C81 C -0.15866 0.48380 0.66650
 C82 C 0.14605 0.49452 0.65348
 C83 C 0.18075 0.03875 0.42680
 H84 H 0.17345 0.06886 0.45471
 C85 C 0.15933 0.04114 0.37847
 H86 H 0.13493 0.07287 0.36930
 C87 C 0.22350 -0.03809 0.40325
 H88 H 0.25000 -0.06804 0.41202
 C89 C 0.20293 -0.03719 0.35482
 H90 H 0.21289 -0.06691 0.32721
 N91 N 0.21243 -0.00041 0.43815
 C92 C 0.23820 -0.00488 0.60067
 H93 H 0.27890 -0.00723 0.59802
 C94 C 0.21546 -0.00834 0.64723
 H95 H 0.23863 -0.01289 0.68064
 C96 C 0.15846 0.00338 0.55997
 H97 H 0.13670 0.00723 0.52565
 C98 C 0.13398 0.00012 0.60625
 H99 H 0.09315 0.00212 0.60777
 Zn100 Zn 0.24950 0.00041 0.49980
 N101 N 0.20977 0.00109 0.55832
 C102 C 0.28186 0.09446 0.53923
 N103 N 0.29052 0.05814 0.50236
 C104 C 0.32471 0.06483 0.46547
 C105 C 0.35179 0.10962 0.46486
 C106 C 0.30808 0.13952 0.54007
 C107 C 0.25720 -0.10125 0.50719
 C108 C 0.27867 -0.14929 0.51055
 C109 C 0.36128 -0.11271 0.50551
 C110 C 0.33809 -0.06492 0.50235
 N111 N 0.28685 -0.06045 0.50263
 H112 H 0.25346 0.08938 0.56729
 H113 H 0.33006 0.03588 0.43596
 H114 H 0.37836 0.11515 0.43499
 H115 H 0.30024 0.16847 0.56913
 H116 H 0.21658 -0.09626 0.50780
 H117 H 0.25464 -0.18163 0.51345
 H118 H 0.40204 -0.11661 0.50455
 H119 H 0.36080 -0.03175 0.49957
 C120 C 0.16297 -0.00595 0.65016
 C121 C 0.17110 0.00302 0.34203
 C122 C 0.33105 -0.15511 0.50949
 C123 C 0.34304 0.14736 0.50242
 C124 C 0.82074 0.03413 0.56331
 H125 H 0.82622 0.06203 0.53538
 C126 C 0.84395 0.03977 0.61078
 H127 H 0.86806 0.07160 0.61919
 C128 C 0.78088 -0.04022 0.58774
 H129 H 0.75509 -0.07050 0.57955
 C130 C 0.80327 -0.03604 0.63536
 H131 H 0.79538 -0.06369 0.66300
 N132 N 0.78980 -0.00542 0.55276
 C133 C 0.76552 -0.02593 0.39039
 H134 H 0.72508 -0.03029 0.39186
 C135 C 0.78982 -0.02906 0.34415
 H136 H 0.76798 -0.03591 0.30992
 C137 C 0.84292 -0.01013 0.43333
 H138 H 0.86317 -0.00241 0.46821
 C139 C 0.86886 -0.01281 0.38759
 H140 H 0.90920 -0.00695 0.38732
 Zn141 Zn 0.75170 -0.00832 0.49183
 N142 N 0.79199 -0.01575 0.43363
 C143 C 0.72229 0.08419 0.45044
 N144 N 0.71409 0.05311 0.48898
 C145 C 0.68404 0.06805 0.52830
 C146 C 0.66140 0.11630 0.53011
 C147 C 0.70038 0.13255 0.45077
 C148 C 0.73613 -0.11059 0.48598
 C149 C 0.71059 -0.15595 0.48622
 C150 C 0.63212 -0.10838 0.49595
 C151 C 0.65928 -0.06358 0.49546
 N152 N 0.71045 -0.06567 0.49120
 H153 H 0.74735 0.07243 0.42022
 H154 H 0.67909 0.04312 0.55902
 H155 H 0.63840 0.12842 0.56203
 H156 H 0.70804 0.15735 0.42047
 H157 H 0.77676 -0.11101 0.48234
 H158 H 0.73156 -0.19150 0.48270
 H159 H 0.59148 -0.10677 0.50001
 H160 H 0.63965 -0.02742 0.49898
 C161 C 0.84182 -0.02181 0.34257
 C162 C 0.83466 0.00451 0.64723
 C163 C 0.65823 -0.15492 0.49159
 C164 C 0.67022 0.14899 0.49123
 C165 C 0.56156 0.17901 0.95176
 H166 H 0.53398 0.17518 0.92163
 C167 C 0.60753 0.15194 0.94878
 H168 H 0.61540 0.12690 0.91642
 C169 C 0.58650 0.21794 1.02984
 H170 H 0.57925 0.24480 1.06068
 C171 C 0.63250 0.19168 1.02842
 H172 H 0.65990 0.19795 1.05846
 N173 N 0.55199 0.21122 0.99198
 C174 C 0.39117 0.24403 1.00265
 H175 H 0.39417 0.28463 1.00750
 C176 C 0.34430 0.22192 1.00535
 H177 H 0.31091 0.24557 1.01193
 C178 C 0.43146 0.16376 0.98841
 H179 H 0.46572 0.14152 0.98247
 C180 C 0.38498 0.13992 0.99077
 H181 H 0.38331 0.09914 0.98600
 Zn182 Zn 0.49274 0.25235 0.99436
 N183 N 0.43338 0.21499 0.99389
 C184 C 0.45406 0.28781 0.90353
 N185 N 0.49184 0.29398 0.93822
 C186 C 0.53051 0.32573 0.93063
 C187 C 0.53214 0.35266 0.88646
 C188 C 0.45418 0.31399 0.85920
 C189 C 0.48450 0.25890 1.09601
 C190 C 0.48356 0.27954 1.14486
 C191 C 0.49594 0.36207 1.11170
 C192 C 0.49652 0.33973 1.06301
 N193 N 0.49156 0.28884 1.05644
 H194 H 0.42451 0.26130 0.90921
 H195 H 0.56066 0.32908 0.95824
 H196 H 0.56346 0.37714 0.88007
 H197 H 0.42441 0.30801 0.83147
 H198 H 0.48038 0.21860 1.08943
 H199 H 0.47878 0.25518 1.17616
 H200 H 0.50079 0.40244 1.11725
 H201 H 0.50144 0.36274 1.03085
 C202 C 0.34113 0.16949 0.99931
 C203 C 0.64330 0.15870 0.98749
 C204 C 0.48971 0.33140 1.15281
 C205 C 0.49372 0.34630 0.85034
 C206 C 0.43363 0.82013 0.97712
 H207 H 0.46141 0.82649 0.94865
 C208 C 0.38570 0.84358 0.97432
 H209 H 0.37708 0.86871 0.94410
 C210 C 0.40971 0.77775 1.04966
 H211 H 0.41815 0.75078 1.07805
 C212 C 0.36161 0.80033 1.04829
 H213 H 0.33413 0.79130 1.07629
 N214 N 0.44467 0.78766 1.01431
 C215 C 0.60805 0.75588 1.02585
 H216 H 0.60445 0.71554 1.02914
 C217 C 0.65579 0.77696 1.02750
 H218 H 0.68891 0.75289 1.03241
 C219 C 0.56920 0.83615 1.01411
 H220 H 0.53534 0.85880 1.00842
 C221 C 0.61660 0.85890 1.01548
 H222 H 0.61918 0.89923 1.01101
 Zn223 Zn 0.50577 0.74773 1.01265
 N224 N 0.56602 0.78529 1.01858
 C225 C 0.54548 0.71974 0.91740
 N226 N 0.50733 0.71092 0.94969
 C227 C 0.46818 0.68101 0.93520
 C228 C 0.46629 0.65909 0.88633
 C229 C 0.54507 0.69857 0.86848
 C230 C 0.51281 0.73126 1.11371
 C231 C 0.51382 0.70562 1.15839
 C232 C 0.50318 0.62720 1.10995
 C233 C 0.50242 0.65448 1.06580
 N234 N 0.50668 0.70569 1.06866
 H235 H 0.57556 0.74470 0.92868
 H236 H 0.43772 0.67549 0.96106
 H237 H 0.43457 0.63611 0.87470
 H238 H 0.57517 0.70669 0.84294
 H239 H 0.51645 0.77191 1.11478
 H240 H 0.51822 0.72657 1.19402
 H241 H 0.49928 0.58653 1.10773
 H242 H 0.49817 0.63490 1.02955
 C243 C 0.66031 0.82881 1.02176
 C244 C 0.34909 0.83308 1.00998
 C245 C 0.50874 0.65321 1.15666
 C246 C 0.50491 0.66848 0.85256
 B247 B 0.99827 1.05884 0.02905
 B248 B 0.99700 1.05531 -0.03550
 B249 B 1.05157 1.03807 -0.00415
 B250 B 1.03486 1.00742 0.04885
 B251 B 0.97012 1.00476 0.05115
 B252 B 0.94556 1.03458 -0.00210
 B253 B 1.00182 0.95017 -0.03604
 B254 B 1.00445 0.95240 0.02945
 B255 B 0.94933 0.96962 -0.00098
 B256 B 0.96670 1.00132 -0.05523
 B257 B 1.03147 1.00255 -0.05615
 B258 B 1.05501 0.97268 -0.00353
 B259 B 0.55424 0.49695 0.47365
 B260 B 0.55034 0.50161 0.53826
 B261 B 0.52896 0.55134 0.50274
 B262 B 0.50079 0.52561 0.44870
 B263 B 0.50431 0.46085 0.45133
 B264 B 0.53515 0.44596 0.50630
 B265 B 0.44498 0.49753 0.53134
 B266 B 0.44893 0.49285 0.46680
 B267 B 0.47048 0.44303 0.50244
 B268 B 0.49849 0.46898 0.55646
 B269 B 0.49500 0.53372 0.55385
 B270 B 0.46424 0.54849 0.49877
 C271 C 0.99510 1.21904 0.09785
 C272 C 0.96418 1.18254 0.11689
 C273 C 0.96437 1.13327 0.09534
 C274 C 0.99431 1.31289 0.13720
 C275 C 1.02523 1.15688 0.03548
 C276 C 1.02520 1.20605 0.05663
 C277 C 0.99471 1.27018 0.11915
 C278 C 0.99634 1.11770 0.05501
 H279 H 0.93856 1.19250 0.14740
 H280 H 0.93493 1.10950 0.10736
 H281 H 1.04893 1.15070 0.00344
 H282 H 1.04861 1.23408 0.04037
 C283 C 1.00637 0.80796 0.11453
 C284 C 1.01009 0.85451 0.14089
 C285 C 1.01093 0.89947 0.11463
 C286 C 1.00055 0.71996 0.15759
 C287 C 1.00516 0.85131 0.03661
 C288 C 1.00449 0.80673 0.06237
 C289 C 1.00349 0.76088 0.13956
 C290 C 1.00757 0.89954 0.06127
 H291 H 1.01165 0.85625 0.18166
 H292 H 1.01259 0.93418 0.13709
 H293 H 1.00376 0.84589 -0.00305
 H294 H 1.00201 0.77096 0.04118
 C295 C 1.00137 1.20826 -0.10309
 C296 C 0.95832 1.19336 -0.07881
 C297 C 0.95597 1.14491 -0.06042
 C298 C 1.00399 1.29926 -0.13993
 C299 C 1.03876 1.12545 -0.09150
 C300 C 1.04143 1.17392 -0.11009
 C301 C 1.00342 1.25811 -0.12229
 C302 C 0.99607 1.10910 -0.06552
 H303 H 0.92648 1.21938 -0.07362
 H304 H 0.92227 1.13703 -0.04204
 H305 H 1.07081 1.10140 -0.09796
 H306 H 1.07501 1.18461 -0.12963
 C307 C 0.99729 0.80103 -0.12239
 C308 C 1.04329 0.82416 -0.11337
 C309 C 1.04465 0.87255 -0.09058
 C310 C 0.99609 0.70559 -0.15596
 C311 C 0.95468 0.87712 -0.09012
 C312 C 0.95271 0.82860 -0.11301
 C313 C 0.99631 0.74919 -0.14093
 C314 C 1.00072 0.89823 -0.07294
 H315 H 1.07837 0.80446 -0.12303
 H316 H 1.08093 0.88784 -0.08578
 H317 H 0.91969 0.89844 -0.08650
 H318 H 0.91646 0.81260 -0.12283
 C319 C 1.11851 1.00876 0.19713
 C320 C 1.12217 0.96656 0.16405
 C321 C 1.09881 0.96722 0.11655
 C322 C 1.15244 1.00555 0.29104
 C323 C 1.07072 1.05273 0.13404
 C324 C 1.09402 1.05232 0.18131
 C325 C 1.13741 1.00695 0.24808
 C326 C 1.06985 1.00955 0.10098
 H327 H 1.14153 0.93241 0.17555
 H328 H 1.10089 0.93255 0.09411
 H329 H 1.05141 1.08725 0.12549
 H330 H 1.09143 1.08575 0.20618
 C331 C 1.10082 0.99220 -0.21026
 C332 C 1.05893 1.02330 -0.20060
 C333 C 1.03869 1.02729 -0.15254
 C334 C 1.13992 0.99148 -0.30132
 C335 C 1.10255 0.96989 -0.12262
 C336 C 1.12318 0.96591 -0.17103
 C337 C 1.12218 0.99062 -0.25981
 C338 C 1.05846 0.99946 -0.11213
 H339 H 1.04188 1.04500 -0.23027
 H340 H 1.00665 1.05246 -0.14822
 H341 H 1.12389 0.95294 -0.09292
 H342 H 1.15729 0.94338 -0.17747
 C343 C 0.90458 0.98623 0.20687
 C344 C 0.89539 0.95044 0.16834
 C345 C 0.91590 0.95600 0.12064
 C346 C 0.86484 0.97931 0.29708
 C347 C 0.95546 1.03148 0.14987
 C348 C 0.93544 1.02637 0.19767
 C349 C 0.88348 0.98161 0.25607
 C350 C 0.94384 0.99905 0.10803
 H351 H 0.87382 0.91721 0.17546
 H352 H 0.91285 0.92337 0.09574
 H353 H 0.98101 1.06099 0.14778
 H354 H 0.94493 1.05352 0.22776
 C355 C 0.89539 1.00878 -0.21093
 C356 C 0.92741 0.96869 -0.19928
 C357 C 0.94931 0.96651 -0.15151
 C358 C 0.85644 1.00933 -0.30297
 C359 C 0.90834 1.04466 -0.12664
 C360 C 0.88638 1.04732 -0.17467
 C361 C 0.87402 1.01063 -0.26089
 C362 C 0.93776 1.00224 -0.11169
 H363 H 0.93770 0.94018 -0.22803
 H364 H 0.98020 0.94010 -0.14950
 H365 H 0.90199 1.07684 -0.10182
 H366 H 0.86320 1.07998 -0.18368
 C367 C 1.20359 1.11139 -0.00101
 C368 C 1.17099 1.11931 0.03931
 C369 C 1.12267 1.09918 0.03696
 C370 C 1.29512 1.14818 0.00050
 C371 C 1.13900 1.06518 -0.04603
 C372 C 1.18715 1.08509 -0.04402
 C373 C 1.25351 1.13104 0.00068
 C374 C 1.10471 1.07058 -0.00552
 H375 H 1.18290 1.14074 0.07281
 H376 H 1.09991 1.10738 0.06873
 H377 H 1.13047 1.04575 -0.08018
 H378 H 1.21183 1.07933 -0.07613
 C379 C 0.78531 1.09703 -0.01198
 C380 C 0.82062 1.12183 0.01864
 C381 C 0.87038 1.10357 0.02119
 C382 C 0.69224 1.13440 -0.01492
 C383 C 0.84976 1.03603 -0.03757
 C384 C 0.80004 1.05419 -0.04040
 C385 C 0.73433 1.11638 -0.01451
 C386 C 0.88722 1.05977 -0.00629
 H387 H 0.81009 1.15636 0.03964
 H388 H 0.89562 1.12818 0.03980
 H389 H 0.85771 1.00111 -0.05860
 H390 H 0.77302 1.03424 -0.06430
 C391 C 1.20902 0.89487 0.00563
 C392 C 1.20336 0.94648 0.01608
 C393 C 1.15548 0.96944 0.01587
 C394 C 1.30133 0.85366 0.00736
 C395 C 1.11779 0.88988 -0.00195
 C396 C 1.16577 0.86617 -0.00170
 C397 C 1.25900 0.87175 0.00611
 C398 C 1.11125 0.94312 0.00138
 H399 H 1.23589 0.96897 0.02628
 H400 H 1.15418 1.00668 0.03223
 H401 H 1.08640 0.86555 -0.00564
 H402 H 1.16892 0.82541 -0.00676
 C403 C 0.80098 0.88962 0.01916
 C404 C 0.80680 0.93943 0.03599
 C405 C 0.85349 0.96210 0.03241
 C406 C 0.70992 0.85022 0.02115
 C407 C 0.89040 0.88508 -0.00009
 C408 C 0.84353 0.86164 0.00314
 C409 C 0.75171 0.86754 0.02034
 C410 C 0.89564 0.93799 0.00772
 H411 H 0.77538 0.96084 0.05256
 H412 H 0.85620 0.99878 0.05110
 H413 H 0.92171 0.86054 -0.00847
 H414 H 0.84075 0.82161 -0.00638
 C415 C 0.71161 0.50427 0.41146
 C416 C 0.67071 0.52342 0.38442
 C417 C 0.62167 0.51946 0.40238
 C418 C 0.80300 0.51086 0.37363
 C419 C 0.65389 0.47547 0.47338
 C420 C 0.70301 0.47955 0.45563
 C421 C 0.76187 0.50779 0.39209
 C422 C 0.61142 0.49688 0.44852
 H423 H 0.67657 0.54101 0.34890
 H424 H 0.59247 0.53208 0.37805
 H425 H 0.65003 0.45361 0.50604
 H426 H 0.73421 0.46279 0.47620
 C427 C 0.29830 0.49619 0.38672
 C428 C 0.33192 0.53537 0.38161
 C429 C 0.37995 0.53279 0.40398
 C430 C 0.20505 0.50178 0.35058
 C431 C 0.36143 0.45181 0.43488
 C432 C 0.31361 0.45402 0.41267
 C433 C 0.24768 0.49940 0.36677
 C434 C 0.39631 0.49119 0.43224
 H435 H 0.32078 0.56845 0.36121
 H436 H 0.40334 0.56430 0.39922
 H437 H 0.36953 0.41868 0.45408
 H438 H 0.28815 0.42298 0.41672
 C439 C 0.70196 0.49406 0.61406
 C440 C 0.68608 0.53817 0.59161
 C441 C 0.63742 0.54228 0.57156
 C442 C 0.79569 0.48602 0.64774
 C443 C 0.61932 0.45960 0.59876
 C444 C 0.66804 0.45521 0.61892
 C445 C 0.75299 0.48908 0.63208
 C446 C 0.60276 0.50258 0.57266
 H447 H 0.71169 0.56925 0.58856
 H448 H 0.62877 0.57683 0.55483
 H449 H 0.59553 0.42831 0.60329
 H450 H 0.67946 0.42100 0.63737
 C451 C 0.28694 0.49751 0.59338
 C452 C 0.29686 0.52130 0.54903
 C453 C 0.34602 0.52200 0.53082
 C454 C 0.19471 0.49681 0.63029
 C455 C 0.37576 0.47558 0.60126
 C456 C 0.32657 0.47495 0.61970
 C457 C 0.23646 0.49747 0.61279
 C458 C 0.38736 0.49837 0.55561
 H459 H 0.26667 0.54000 0.52866
 H460 H 0.35083 0.54322 0.49786
 H461 H 0.40427 0.45994 0.62464
 H462 H 0.31964 0.45729 0.65495
 C463 C 0.50712 0.58794 0.29315
 C464 C 0.48253 0.54311 0.30103
 C465 C 0.47965 0.52489 0.34946
 C466 C 0.50850 0.62731 0.20327
 C467 C 0.52535 0.59631 0.38256
 C468 C 0.52815 0.61472 0.33415
 C469 C 0.50807 0.60830 0.24374
 C470 C 0.50179 0.55010 0.39207
 H471 H 0.46464 0.52252 0.26984
 H472 H 0.45774 0.49174 0.35277
 H473 H 0.53957 0.62037 0.41207
 H474 H 0.54603 0.65053 0.32893
 C475 C 0.49785 0.61423 0.70643
 C476 C 0.53735 0.61979 0.67299
 C477 C 0.53483 0.59764 0.62423
 C478 C 0.50269 0.64923 0.80108
 C479 C 0.45317 0.56632 0.64163
 C480 C 0.45532 0.58834 0.69013
 C481 C 0.50091 0.63362 0.75780
 C482 C 0.49304 0.56899 0.60704
 H483 H 0.57067 0.64028 0.68483
 H484 H 0.56662 0.60259 0.60101
 H485 H 0.41976 0.54709 0.63280
 H486 H 0.42395 0.58408 0.71536
 C487 C 0.49853 0.38447 0.29824
 C488 C 0.45923 0.37883 0.33172
 C489 C 0.46308 0.39898 0.38097
 C490 C 0.49157 0.35185 0.20352
 C491 C 0.54608 0.42747 0.36408
 C492 C 0.54255 0.40744 0.31495
 C493 C 0.49411 0.36698 0.24670
 C494 C 0.50589 0.42588 0.39839
 H495 H 0.42509 0.35992 0.31954
 H496 H 0.43144 0.39402 0.40441
 H497 H 0.58058 0.44464 0.37333
 H498 H 0.57396 0.41101 0.28963
 C499 C 0.49607 0.40772 0.71236
 C500 C 0.52041 0.45242 0.70364
 C501 C 0.52156 0.47057 0.65516
 C502 C 0.49568 0.37005 0.80279
 C503 C 0.47424 0.39951 0.62384
 C504 C 0.47314 0.38115 0.67232
 C505 C 0.49614 0.38798 0.76190
 C506 C 0.49798 0.44527 0.61336
 H507 H 0.53933 0.47302 0.73418
 H508 H 0.54328 0.50376 0.65117
 H509 H 0.45835 0.37585 0.59492
 H510 H 0.45498 0.34565 0.67834
 C511 C 0.59313 0.70738 0.49740
 C512 C 0.62030 0.66578 0.47744
 C513 C 0.60158 0.61713 0.48055
 C514 C 0.63241 0.79799 0.49347
 C515 C 0.52938 0.65121 0.52505
 C516 C 0.54791 0.69993 0.52185
 C517 C 0.61340 0.75718 0.49521
 C518 C 0.55453 0.60805 0.50304
 H519 H 0.65656 0.67077 0.46002
 H520 H 0.62601 0.58729 0.46739
 H521 H 0.49592 0.64820 0.54683
 H522 H 0.52717 0.73169 0.53918
 C523 C 0.61462 0.29399 0.50026
 C524 C 0.58750 0.30993 0.54263
 C525 C 0.56546 0.35820 0.54572
 C526 C 0.65051 0.20005 0.49379
 C527 C 0.59893 0.37583 0.46527
 C528 C 0.62111 0.32736 0.46181
 C529 C 0.63445 0.24301 0.49625
 C530 C 0.56951 0.39286 0.50706
 H531 H 0.58236 0.28462 0.57311
 H532 H 0.54508 0.36682 0.57880
 H533 H 0.60469 0.39897 0.43421
 H534 H 0.64246 0.31569 0.42861
 C535 C 0.38804 0.70115 0.50549
 C536 C 0.41235 0.68393 0.46190
 C537 C 0.43281 0.63512 0.45836
 C538 C 0.35273 0.79491 0.51020
 C539 C 0.40267 0.61948 0.54073
 C540 C 0.38204 0.66850 0.54460
 C541 C 0.36906 0.75220 0.50916
 C542 C 0.43017 0.60146 0.49799
 H543 H 0.41636 0.70859 0.43070
 H544 H 0.45084 0.62550 0.42413
 H545 H 0.39724 0.59660 0.57211
 H546 H 0.36222 0.68108 0.57846
 C547 C 0.40653 0.28630 0.50221
 C548 C 0.38020 0.32687 0.52531
 C549 C 0.39936 0.37559 0.52491
 C550 C 0.36741 0.19531 0.50141
 C551 C 0.47071 0.34352 0.47778
 C552 C 0.45175 0.29479 0.47824
 C553 C 0.38598 0.23645 0.50153
 C554 C 0.44576 0.38582 0.50177
 H555 H 0.34429 0.32107 0.54309
 H556 H 0.37581 0.40485 0.54077
 H557 H 0.50432 0.34729 0.45634
 H558 H 0.47215 0.26383 0.45910
   
