data_POSCAR
  _audit_creation_date              2014-09-24
  _audit_creation_method            'ToBaCCo'
  _symmetry_space_group_name_H-M    'P1'
  _symmetry_Int_Tables_number       1
  _symmetry_cell_setting            triclinic
  loop_
  _symmetry_equiv_pos_as_xyz
 x,y,z
_cell_length_a 35.8621
_cell_length_b 36.2597
_cell_length_c 22.4643
_cell_angle_alpha 89.932300
_cell_angle_beta 89.749200
_cell_angle_gamma 87.034800
loop_
  _atom_site_label
  _atom_site_type_symbol
  _atom_site_fract_x
  _atom_site_fract_y
  _atom_site_fract_z
C1 C -0.08450 0.20476 -0.02950
 C2 C -0.08500 0.20529 0.03153
 C3 C -0.05894 0.23008 0.04908
 N4 N -0.04197 0.24402 0.00077
 C5 C -0.05781 0.22880 -0.04718
 C6 C -0.05143 0.24046 0.10842
 C7 C -0.01762 0.25709 0.12272
 C8 C -0.01169 0.27822 0.17297
 C9 C 0.02523 0.28670 0.17208
 C10 C 0.04073 0.27134 0.12057
 N11 N 0.01440 0.25349 0.09059
 C12 C 0.07898 0.27084 0.10508
 C13 C 0.09178 0.26224 0.04700
 C14 C 0.12832 0.25250 0.03100
 C15 C 0.12896 0.24959 -0.02981
 C16 C 0.09318 0.25939 -0.04944
 N17 N 0.07039 0.26646 -0.00218
 C18 C 0.08163 0.26324 -0.10959
 C19 C 0.04311 0.26508 -0.12369
 C20 C 0.02738 0.28110 -0.17450
 C21 C -0.00991 0.27406 -0.17350
 C22 C -0.01600 0.25437 -0.12179
 N23 N 0.01623 0.24959 -0.09108
 C24 C -0.04964 0.23826 -0.10647
 H25 H -0.10132 0.18801 -0.05750
 H26 H -0.10205 0.18860 0.05953
 H27 H 0.02045 0.23279 -0.05375
 H28 H -0.03177 0.28669 0.20700
 H29 H 0.03899 0.30205 0.20608
 H30 H 0.15218 0.24738 0.05949
 H31 H 0.15312 0.24057 -0.05590
 H32 H -0.03016 0.28228 -0.20720
 H33 H 0.01907 0.23644 0.05370
 H34 H 0.04133 0.29618 -0.20893
 C35 C 0.59275 0.70616 0.52656
 C36 C 0.59260 0.70701 0.46547
 C37 C 0.56249 0.73025 0.44895
 N38 N 0.54417 0.74344 0.49775
 C39 C 0.56271 0.72887 0.54521
 C40 C 0.55338 0.74090 0.39009
 C41 C 0.51802 0.75739 0.37523
 C42 C 0.50964 0.77590 0.32255
 C43 C 0.47182 0.78441 0.32315
 C44 C 0.45811 0.77136 0.37663
 N45 N 0.48650 0.75485 0.40799
 C46 C 0.41994 0.77176 0.39302
 C47 C 0.40818 0.76468 0.45190
 C48 C 0.37206 0.75798 0.46965
 C49 C 0.37242 0.75550 0.53054
 C50 C 0.40838 0.76217 0.54837
 N51 N 0.43020 0.76746 0.50019
 C52 C 0.42042 0.76595 0.60782
 C53 C 0.45865 0.76693 0.62209
 C54 C 0.47263 0.78055 0.67469
 C55 C 0.51053 0.77251 0.67391
 C56 C 0.51858 0.75422 0.62087
 N57 N 0.48690 0.75138 0.58918
 C58 C 0.55371 0.73781 0.60485
 H59 H 0.61249 0.69029 0.55389
 H60 H 0.61222 0.69189 0.43670
 H61 H 0.48404 0.73540 0.55112
 H62 H 0.52865 0.78221 0.28685
 H63 H 0.45629 0.79798 0.28748
 H64 H 0.34768 0.75506 0.44244
 H65 H 0.34869 0.74941 0.55797
 H66 H 0.52984 0.77898 0.70880
 H67 H 0.48383 0.73893 0.44621
 H68 H 0.45707 0.79437 0.71032
 C69 C 1.10229 0.74454 0.02657
 C70 C 1.10126 0.74425 -0.03435
 C71 C 1.06521 0.75523 -0.05055
 N72 N 1.04375 0.76028 -0.00122
 C73 C 1.06626 0.75383 0.04637
 C74 C 1.05228 0.76234 -0.10928
 C75 C 1.01359 0.76227 -0.12119
 C76 C 0.99514 0.78074 -0.16750
 C77 C 0.95897 0.76983 -0.16681
 C78 C 0.95628 0.74545 -0.11963
 N79 N 0.98942 0.74161 -0.09126
 C80 C 0.92486 0.72518 -0.10591
 C81 C 0.91912 0.71196 -0.04778
 C82 C 0.89380 0.68625 -0.03113
 C83 C 0.89474 0.68445 0.02994
 C84 C 0.92064 0.70912 0.04829
 N85 N 0.93566 0.72567 0.00071
 C86 C 0.92777 0.71888 0.10776
 C87 C 0.95958 0.73824 0.12350
 C88 C 0.96443 0.75615 0.17708
 C89 C 1.00021 0.76798 0.17695
 C90 C 1.01622 0.75808 0.12233
 N91 N 0.99111 0.73970 0.09036
 C92 C 1.05438 0.76101 0.10592
 H93 H 1.12718 0.73772 0.05147
 H94 H 1.12456 0.73607 -0.06293
 H95 H 0.99667 0.72509 0.05115
 H96 H 1.00656 0.79990 -0.19880
 H97 H 0.93719 0.77883 -0.19755
 H98 H 0.87643 0.67046 -0.05975
 H99 H 0.87814 0.66710 0.05759
 H100 H 1.01294 0.78076 0.21460
 H101 H 0.99636 0.72252 -0.05779
 H102 H 0.94468 0.75973 0.21338
 C103 C 0.61475 0.18305 0.46648
 C104 C 0.61602 0.18412 0.52754
 C105 C 0.58793 0.20938 0.54556
 N106 N 0.56943 0.22354 0.49776
 C107 C 0.58590 0.20766 0.44936
 C108 C 0.58116 0.22142 0.60450
 C109 C 0.54789 0.24164 0.62019
 C110 C 0.54292 0.26372 0.67026
 C111 C 0.50572 0.27504 0.67220
 C112 C 0.48909 0.25954 0.62325
 N113 N 0.51508 0.23974 0.59127
 C114 C 0.45042 0.26092 0.61156
 C115 C 0.43702 0.25512 0.55330
 C116 C 0.40046 0.24915 0.53799
 C117 C 0.39888 0.24990 0.47705
 C118 C 0.43491 0.25456 0.45673
 N119 N 0.45809 0.25788 0.50353
 C120 C 0.44583 0.25947 0.39675
 C121 C 0.48371 0.25524 0.37843
 C122 C 0.49767 0.26584 0.32364
 C123 C 0.53482 0.25442 0.32214
 C124 C 0.54252 0.23626 0.37537
 N125 N 0.51124 0.23701 0.40947
 C126 C 0.57699 0.21769 0.39015
 H127 H 0.63300 0.16608 0.43803
 H128 H 0.63539 0.16809 0.55530
 H129 H 0.50788 0.22245 0.44895
 H130 H 0.56380 0.27075 0.70237
 H131 H 0.49240 0.29238 0.70611
 H132 H 0.37712 0.24448 0.56710
 H133 H 0.37375 0.24704 0.45173
 H134 H 0.55378 0.25888 0.28557
 H135 H 0.50980 0.22206 0.55606
 H136 H 0.48285 0.27977 0.28763
 C137 C 0.76836 -0.14440 -0.03312
 C138 C 0.77081 -0.14391 0.02768
 C139 C 0.75813 -0.10902 0.04597
 N140 N 0.74975 -0.08771 -0.00214
 C141 C 0.75600 -0.10915 -0.05085
 C142 C 0.75257 -0.09724 0.10574
 C143 C 0.74795 -0.05914 0.11917
 C144 C 0.73018 -0.04424 0.16937
 C145 C 0.73502 -0.00689 0.16819
 C146 C 0.75512 -0.00001 0.11695
 N147 N 0.76230 -0.03182 0.08670
 C148 C 0.76919 0.03425 0.10141
 C149 C 0.77872 0.04239 0.04214
 C150 C 0.80083 0.07058 0.02428
 C151 C 0.80104 0.07021 -0.03677
 C152 C 0.77850 0.04215 -0.05415
 N153 N 0.76531 0.02487 -0.00570
 C154 C 0.76914 0.03339 -0.11350
 C155 C 0.75423 -0.00106 -0.12755
 C156 C 0.73402 -0.00830 -0.17828
 C157 C 0.72727 -0.04519 -0.17721
 C158 C 0.74240 -0.05964 -0.12471
 N159 N 0.75881 -0.03236 -0.09479
 C160 C 0.74547 -0.09772 -0.10917
 H161 H 0.77528 -0.16847 -0.05967
 H162 H 0.78119 -0.16684 0.05475
 H163 H 0.77593 -0.03577 -0.05762
 H164 H 0.71544 -0.05876 0.20356
 H165 H 0.72504 0.01288 0.20141
 H166 H 0.81578 0.08905 0.05221
 H167 H 0.81657 0.08821 -0.06491
 H168 H 0.71386 -0.05948 -0.21271
 H169 H 0.77992 -0.03527 0.04984
 H170 H 0.72526 0.01083 -0.21310
 C171 C 0.21267 0.42472 0.47298
 C172 C 0.21246 0.42483 0.53419
 C173 C 0.22893 0.45682 0.55159
 N174 N 0.23885 0.47631 0.50330
 C175 C 0.22931 0.45661 0.45523
 C176 C 0.23737 0.46688 0.61050
 C177 C 0.24510 0.50366 0.62450
 C178 C 0.26407 0.51497 0.67438
 C179 C 0.26168 0.55299 0.67421
 C180 C 0.24135 0.56376 0.62420
 N181 N 0.23197 0.53356 0.59361
 C182 C 0.22909 0.60031 0.60983
 C183 C 0.21945 0.61006 0.55084
 C184 C 0.19915 0.64170 0.53313
 C185 C 0.19930 0.64161 0.47193
 C186 C 0.21975 0.60994 0.45450
 N187 N 0.23168 0.59057 0.50277
 C188 C 0.22984 0.60007 0.39563
 C189 C 0.24228 0.56345 0.38173
 C190 C 0.26316 0.55252 0.33212
 C191 C 0.26554 0.51448 0.33229
 C192 C 0.24604 0.50328 0.38202
 N193 N 0.23259 0.53329 0.41248
 C194 C 0.23816 0.46650 0.39623
 H195 H 0.20144 0.40374 0.44503
 H196 H 0.20110 0.40395 0.56241
 H197 H 0.21395 0.53315 0.44824
 H198 H 0.27802 0.49770 0.70766
 H199 H 0.27340 0.57062 0.70734
 H200 H 0.18534 0.66250 0.56114
 H201 H 0.18558 0.66232 0.44376
 H202 H 0.27983 0.49713 0.29935
 H203 H 0.21369 0.53333 0.55763
 H204 H 0.27529 0.57005 0.29902
 C205 C 0.27825 0.92084 0.02894
 C206 C 0.27774 0.92026 -0.03207
 C207 C 0.26493 0.95522 -0.05083
 N208 N 0.25694 0.97654 -0.00266
 C209 C 0.26446 0.95552 0.04592
 C210 C 0.25464 0.96647 -0.10932
 C211 C 0.25177 1.00472 -0.12453
 C212 C 0.23776 1.01945 -0.17762
 C213 C 0.24332 1.05656 -0.17686
 C214 C 0.26215 1.06369 -0.12476
 N215 N 0.26678 1.03211 -0.09277
 C216 C 0.27627 1.09818 -0.10888
 C217 C 0.28336 1.10660 -0.04859
 C218 C 0.30642 1.13353 -0.02879
 C219 C 0.30386 1.13386 0.03214
 C220 C 0.27927 1.10716 0.04763
 N221 N 0.26725 1.09008 -0.00175
 C222 C 0.26740 1.09882 0.10607
 C223 C 0.25320 1.06388 0.11834
 C224 C 0.22918 1.05581 0.16468
 C225 C 0.22597 1.01818 0.16450
 C226 C 0.24761 1.00443 0.11752
 N227 N 0.26340 1.03250 0.08875
 C228 C 0.25486 0.96673 0.10435
 H229 H 0.28746 0.89800 0.05715
 H230 H 0.28611 0.89627 -0.05776
 H231 H 0.28357 1.02985 0.05518
 H232 H 0.22603 1.00534 -0.21485
 H233 H 0.23472 1.07588 -0.21151
 H234 H 0.32405 1.15054 -0.05528
 H235 H 0.31934 1.15100 0.06150
 H236 H 0.20958 1.00272 0.19540
 H237 H 0.28293 1.02894 -0.05447
 H238 H 0.21549 1.07498 0.19565
 C239 C 0.72665 0.36014 0.53028
 C240 C 0.72556 0.36008 0.46918
 C241 C 0.74118 0.39233 0.45055
 N242 N 0.75159 0.41211 0.49805
 C243 C 0.74293 0.39241 0.54682
 C244 C 0.74762 0.40260 0.39091
 C245 C 0.75491 0.43929 0.37543
 C246 C 0.77084 0.45027 0.32236
 C247 C 0.76892 0.48828 0.32223
 C248 C 0.75188 0.49939 0.37524
 N249 N 0.74393 0.46938 0.40776
 C250 C 0.74094 0.53613 0.39054
 C251 C 0.73355 0.54651 0.45017
 C252 C 0.71475 0.57887 0.46866
 C253 C 0.71604 0.57897 0.52975
 C254 C 0.73561 0.54667 0.54645
 N255 N 0.74609 0.52681 0.49777
 C256 C 0.74534 0.53633 0.60521
 C257 C 0.75686 0.49955 0.61955
 C258 C 0.77567 0.48839 0.67083
 C259 C 0.77734 0.45038 0.67101
 C260 C 0.75957 0.43942 0.61977
 N261 N 0.74766 0.46953 0.58826
 C262 C 0.75155 0.40275 0.60555
 H263 H 0.71610 0.33907 0.55900
 H264 H 0.71403 0.33897 0.44187
 H265 H 0.72991 0.46961 0.55165
 H266 H 0.78221 0.43276 0.28702
 H267 H 0.77855 0.50570 0.28679
 H268 H 0.70100 0.59998 0.44125
 H269 H 0.70341 0.60013 0.55836
 H270 H 0.78974 0.43284 0.70539
 H271 H 0.72757 0.46945 0.44621
 H272 H 0.78654 0.50580 0.70507
 O273 O 0.22009 0.29180 0.18269
 O274 O 0.31846 0.29044 0.22859
 O275 O 0.27400 0.24133 0.18372
 O276 O 0.26247 0.33932 0.22735
 O277 O 0.24978 0.32244 0.31951
 O278 O 0.25687 0.22488 0.27411
 O279 O 0.30278 0.27046 0.31778
 O280 O 0.20358 0.27696 0.27427
 Cu281 Cu 0.27076 0.29215 0.19639
 Cu282 Cu 0.25166 0.27193 0.30551
 C283 C 0.19514 0.28552 0.22099
 C284 C 0.32733 0.28021 0.28092
 C285 C 0.26670 0.21650 0.22134
 C286 C 0.25405 0.34748 0.28087
 O287 O 0.75033 0.77625 0.27496
 O288 O 0.74761 0.67809 0.31446
 O289 O 0.79841 0.71993 0.27438
 O290 O 0.69874 0.73355 0.31411
 O291 O 0.68316 0.71946 0.22217
 O292 O 0.78250 0.70919 0.18129
 O293 O 0.73266 0.66494 0.22183
 O294 O 0.73314 0.76373 0.18317
 Cu295 Cu 0.75024 0.72839 0.30379
 Cu296 Cu 0.73129 0.71303 0.19281
 C297 C 0.74258 0.78667 0.22230
 C298 C 0.73966 0.65482 0.27496
 C299 C 0.80730 0.71273 0.22072
 C300 C 0.67404 0.72802 0.27519
 O301 O 0.72279 0.20723 0.31379
 O302 O 0.82122 0.21554 0.27229
 O303 O 0.76808 0.26043 0.31245
 O304 O 0.77556 0.16209 0.27029
 O305 O 0.75946 0.17701 0.17820
 O306 O 0.74937 0.27474 0.22135
 O307 O 0.80436 0.23110 0.18082
 O308 O 0.70562 0.21956 0.22122
 Cu309 Cu 0.77364 0.20974 0.30138
 Cu310 Cu 0.75308 0.22718 0.19114
 C311 C 0.69750 0.21194 0.27479
 C312 C 0.82959 0.22485 0.21966
 C313 C 0.75681 0.28422 0.27417
 C314 C 0.76904 0.15290 0.21691
 O315 O 0.27622 0.79242 0.31685
 O316 O 0.17759 0.79444 0.27140
 O317 O 0.22512 0.74414 0.31723
 O318 O 0.23011 0.84168 0.27355
 O319 O 0.24414 0.82435 0.18149
 O320 O 0.24289 0.72669 0.22679
 O321 O 0.19480 0.77405 0.18223
 O322 O 0.29352 0.77674 0.22531
 Cu323 Cu 0.22526 0.79468 0.30398
 Cu324 Cu 0.24564 0.77364 0.19489
 C325 C 0.30153 0.78528 0.27834
 C326 C 0.16949 0.78430 0.21913
 C327 C 0.23333 0.71888 0.27959
 C328 C 0.23821 0.84956 0.22014
 O329 O 0.77360 0.26057 0.68277
 O330 O 0.77855 0.16164 0.72132
 O331 O 0.72713 0.20843 0.67949
 O332 O 0.82527 0.21418 0.72389
 O333 O 0.80710 0.22963 0.81500
 O334 O 0.70921 0.21954 0.77229
 O335 O 0.76224 0.17556 0.81387
 O336 O 0.75358 0.27402 0.77373
 Cu337 Cu 0.77802 0.20977 0.69265
 Cu338 Cu 0.75630 0.22612 0.80300
 C339 C 0.76199 0.28404 0.72141
 C340 C 0.77155 0.15182 0.77433
 C341 C 0.70151 0.21287 0.71839
 C342 C 0.83285 0.22305 0.77693
 O343 O 0.22903 0.74402 0.68408
 O344 O 0.22611 0.84184 0.72803
 O345 O 0.27843 0.79344 0.68881
 O346 O 0.17809 0.79025 0.72401
 O347 O 0.19230 0.77951 0.81830
 O348 O 0.29188 0.77266 0.77908
 O349 O 0.24577 0.82563 0.81786
 O350 O 0.23783 0.72787 0.77811
 Cu351 Cu 0.22673 0.79452 0.69689
 Cu352 Cu 0.24352 0.77509 0.80775
 C353 C 0.23263 0.71933 0.72405
 C354 C 0.23577 0.85032 0.78029
 C355 C 0.30211 0.78170 0.72721
 C356 C 0.16822 0.78433 0.77740
 O357 O 0.21096 0.27101 0.72394
 O358 O 0.31035 0.27755 0.68758
 O359 O 0.26960 0.22578 0.72640
 O360 O 0.25274 0.32345 0.68567
 O361 O 0.26410 0.33965 0.77836
 O362 O 0.27791 0.24163 0.82021
 O363 O 0.32199 0.29080 0.78147
 O364 O 0.22153 0.28836 0.81634
 Cu365 Cu 0.25969 0.27304 0.69654
 Cu366 Cu 0.27265 0.29221 0.80832
 C367 C 0.19937 0.27813 0.77638
 C368 C 0.33321 0.28403 0.72869
 C369 C 0.27623 0.21706 0.78025
 C370 C 0.25563 0.34814 0.72509
 O371 O 0.69772 0.73106 0.68320
 O372 O 0.79666 0.72524 0.72610
 O373 O 0.75006 0.67894 0.68406
 O374 O 0.74316 0.77742 0.72656
 O375 O 0.72686 0.76157 0.81777
 O376 O 0.73468 0.66364 0.77584
 O377 O 0.78067 0.71113 0.81813
 O378 O 0.68173 0.71479 0.77428
 Cu379 Cu 0.74872 0.72974 0.69583
 Cu380 Cu 0.72956 0.71116 0.80576
 C381 C 0.67294 0.72359 0.72124
 C382 C 0.80545 0.71759 0.77950
 C383 C 0.74290 0.65462 0.72263
 C384 C 0.73343 0.78606 0.77935
 N385 N 0.27238 0.14936 0.24314
 N386 N 0.27267 0.11655 0.21089
 C387 C 0.26947 0.12517 0.15250
 C388 C 0.26770 0.16357 0.14670
 C389 C 0.26945 0.17742 0.20405
 H390 H 0.26349 0.17964 0.10644
 H391 H 0.27421 0.15119 0.28942
 H392 H 0.27696 0.09036 0.22980
 N393 N 0.72925 0.58889 0.73972
 N394 N 0.72925 0.55801 0.70859
 C395 C 0.74284 0.56435 0.65366
 C396 C 0.75205 0.60101 0.64992
 C397 C 0.74270 0.61559 0.70526
 H398 H 0.76295 0.61534 0.61184
 H399 H 0.71893 0.59180 0.78311
 H400 H 0.71886 0.53342 0.72430
 N401 N 0.75999 0.85094 0.24197
 N402 N 0.76320 0.88318 0.20887
 C403 C 0.75133 0.87679 0.15295
 C404 C 0.73970 0.84072 0.15004
 C405 C 0.74603 0.82555 0.20594
 H406 H 0.72809 0.82691 0.11225
 H407 H 0.76908 0.84712 0.28575
 H408 H 0.77608 0.90649 0.22431
 N409 N 0.23502 0.41345 0.74607
 N410 N 0.22921 0.44441 0.71562
 C411 C 0.23931 0.43834 0.65835
 C412 C 0.25183 0.40169 0.65228
 C413 C 0.24847 0.38698 0.70871
 H414 H 0.26212 0.38763 0.61256
 H415 H 0.22877 0.41037 0.79121
 H416 H 0.21772 0.46897 0.73379
 N417 N 0.89748 0.22242 0.24230
 N418 N 0.93066 0.22688 0.21117
 C419 C 0.92195 0.23482 0.15397
 C420 C 0.88319 0.23588 0.14794
 C421 C 0.86912 0.22796 0.20380
 H422 H 0.86705 0.24225 0.10831
 H423 H 0.89565 0.21539 0.28727
 H424 H 0.95725 0.22193 0.22917
 N425 N 0.36654 0.75508 0.74166
 N426 N 0.39731 0.75014 0.70955
 C427 C 0.39271 0.76829 0.65744
 C428 C 0.35748 0.78608 0.65700
 C429 C 0.34163 0.77637 0.71066
 H430 H 0.34439 0.80215 0.62146
 H431 H 0.36206 0.74226 0.78256
 H432 H 0.42028 0.73304 0.72209
 N433 N 0.10488 0.81220 0.21286
 N434 N 0.07302 0.80581 0.17977
 C435 C 0.07968 0.77453 0.14791
 C436 C 0.11571 0.76058 0.16031
 C437 C 0.13044 0.78496 0.20010
 H438 H 0.12946 0.73509 0.14524
 H439 H 0.10871 0.83562 0.23868
 H440 H 0.05006 0.82459 0.17598
 N441 N 0.63426 0.20384 0.73823
 N442 N 0.60267 0.20555 0.70808
 C443 C 0.61007 0.21406 0.65089
 C444 C 0.64821 0.21744 0.64434
 C445 C 0.66240 0.21079 0.70071
 H446 H 0.66331 0.22528 0.60486
 H447 H 0.63635 0.19814 0.78372
 H448 H 0.57652 0.20121 0.72669
 N449 N 0.78320 0.08487 0.75213
 N450 N 0.78234 0.05176 0.78370
 C451 C 0.77320 0.05989 0.84079
 C452 C 0.76793 0.09806 0.84639
 C453 C 0.77432 0.11249 0.79037
 H454 H 0.75923 0.11350 0.88571
 H455 H 0.78962 0.08718 0.70694
 H456 H 0.78976 0.02580 0.76588
 N457 N 0.22157 0.65306 0.25971
 N458 N 0.21969 0.62209 0.29037
 C459 C 0.22838 0.62861 0.34769
 C460 C 0.23575 0.66567 0.35357
 C461 C 0.23097 0.68006 0.29693
 H462 H 0.24382 0.68016 0.39319
 H463 H 0.21547 0.65576 0.21444
 H464 H 0.21177 0.59717 0.27226
 N465 N 0.20353 0.91194 0.78945
 N466 N 0.20852 0.94397 0.82205
 C467 C 0.24186 0.94022 0.84987
 C468 C 0.25841 0.90571 0.83571
 C469 C 0.23356 0.88904 0.79868
 H470 H 0.28561 0.89417 0.84815
 H471 H 0.17915 0.90594 0.76696
 H472 H 0.18768 0.96476 0.82882
 N473 N 0.73351 0.34935 0.25833
 N474 N 0.73058 0.38030 0.28935
 C475 C 0.74660 0.37441 0.34298
 C476 C 0.76045 0.33803 0.34599
 C477 C 0.75133 0.32311 0.29164
 H478 H 0.77448 0.32415 0.38293
 H479 H 0.72249 0.34612 0.21581
 H480 H 0.71687 0.40468 0.27447
 N481 N 0.13576 0.25738 0.75541
 N482 N 0.10308 0.25280 0.78786
 C483 C 0.10816 0.26559 0.84361
 C484 C 0.14376 0.27922 0.84696
 C485 C 0.16010 0.27306 0.79163
 H486 H 0.15656 0.29200 0.88469
 H487 H 0.14070 0.24791 0.71206
 H488 H 0.08058 0.23845 0.77230
 N489 N 0.60667 0.71893 0.25732
 N490 N 0.57505 0.72170 0.28778
 C491 C 0.58196 0.73512 0.34235
 C492 C 0.61974 0.74125 0.34663
 C493 C 0.63436 0.73039 0.29194
 H494 H 0.63462 0.75133 0.38462
 H495 H 0.60927 0.70829 0.21422
 H496 H 0.54945 0.71351 0.27183
 N497 N 0.87372 0.71182 0.75878
 N498 N 0.90512 0.71328 0.78904
 C499 C 0.89677 0.71935 0.84695
 C500 C 0.85826 0.72146 0.85377
 C501 C 0.84483 0.71653 0.79689
 H502 H 0.84223 0.72723 0.89393
 H503 H 0.87227 0.70764 0.71287
 H504 H 0.93174 0.71024 0.77007
 N505 N 0.38746 0.31024 0.29177
 N506 N 0.41811 0.30535 0.32386
 C507 C 0.41728 0.27275 0.35270
 C508 C 0.38444 0.25627 0.33829
 C509 C 0.36624 0.28115 0.30021
 H510 H 0.37451 0.23041 0.35444
 H511 H 0.38025 0.33415 0.26755
 H512 H 0.43835 0.32487 0.32797
 N513 N 0.69652 0.84498 0.79139
 N514 N 0.69978 0.87723 0.82427
 C515 C 0.73397 0.87590 0.84937
 C516 C 0.75314 0.84320 0.83238
 C517 C 0.72883 0.82484 0.79662
 H518 H 0.78118 0.83358 0.84417
 H519 H 0.67203 0.83682 0.77143
 H520 H 0.67774 0.89648 0.83289
 N521 N 0.23550 0.41330 0.26065
 N522 N 0.23032 0.44429 0.29116
 C523 C 0.24002 0.43792 0.34840
 C524 C 0.25161 0.40093 0.35436
 C525 C 0.24814 0.38642 0.29785
 H526 H 0.26131 0.38652 0.39403
 H527 H 0.22928 0.41047 0.21556
 H528 H 0.21940 0.46907 0.27305
 N529 N 0.28996 0.15064 0.75761
 N530 N 0.29031 0.11739 0.78890
 C531 C 0.28166 0.12507 0.84635
 C532 C 0.27660 0.16324 0.85278
 C533 C 0.28160 0.17797 0.79655
 H534 H 0.26771 0.17840 0.89228
 H535 H 0.29494 0.15321 0.71199
 H536 H 0.29759 0.09163 0.77029
 N537 N 0.72249 0.58995 0.25786
 N538 N 0.72228 0.55888 0.28869
 C539 C 0.73745 0.56442 0.34260
 C540 C 0.74790 0.60061 0.34598
 C541 C 0.73767 0.61585 0.29163
 H542 H 0.76046 0.61420 0.38318
 H543 H 0.71137 0.59349 0.21522
 H544 H 0.71092 0.53469 0.27348
 N545 N 0.10327 0.76948 0.75318
 N546 N 0.07121 0.76208 0.78554
 C547 C 0.07756 0.76940 0.84358
 C548 C 0.11342 0.78221 0.84856
 C549 C 0.12862 0.78102 0.79185
 H550 H 0.12743 0.79093 0.88828
 H551 H 0.10760 0.76323 0.70823
 H552 H 0.04862 0.74890 0.76767
 N553 N 0.63073 0.19947 0.25602
 N554 N 0.59912 0.20023 0.28666
 C555 C 0.60590 0.21092 0.34295
 C556 C 0.64368 0.21662 0.34837
 C557 C 0.65830 0.20909 0.29243
 H558 H 0.65828 0.22617 0.38702
 H559 H 0.63329 0.19225 0.21114
 H560 H 0.57343 0.19350 0.26907
 N561 N 0.90146 0.21447 0.76040
 N562 N 0.93233 0.21809 0.79126
 C563 C 0.92307 0.23120 0.84581
 C564 C 0.88455 0.23621 0.84968
 C565 C 0.87199 0.22512 0.79474
 H566 H 0.86800 0.24615 0.88732
 H567 H 0.90072 0.20419 0.71702
 H568 H 0.95916 0.21092 0.77545
 N569 N 0.35722 0.82118 0.29371
 N570 N 0.38811 0.81795 0.32548
 C571 C 0.39147 0.78354 0.34818
 C572 C 0.36150 0.76388 0.32945
 C573 C 0.34043 0.78887 0.29532
 H574 H 0.35449 0.73633 0.34249
 H575 H 0.34663 0.84582 0.27465
 H576 H 0.40534 0.83964 0.33429
 N577 N 0.25452 0.91403 0.24081
 N578 N 0.25994 0.94442 0.21014
 C579 C 0.25100 0.93882 0.15266
 C580 C 0.23922 0.90307 0.14691
 C581 C 0.24235 0.88829 0.20354
 H582 H 0.23012 0.88935 0.10718
 H583 H 0.26073 0.91057 0.28592
 H584 H 0.27089 0.96807 0.22818
 N585 N 0.74037 0.34949 0.73933
 N586 N 0.73720 0.38058 0.70858
 C587 C 0.75197 0.37466 0.65389
 C588 C 0.76539 0.33818 0.64995
 C589 C 0.75716 0.32316 0.70481
 H590 H 0.77823 0.32421 0.61193
 H591 H 0.73005 0.34621 0.78246
 H592 H 0.72398 0.40501 0.72431
 N593 N 0.78606 0.08620 0.23445
 N594 N 0.78641 0.05506 0.20385
 C595 C 0.77339 0.06242 0.14861
 C596 C 0.76433 0.09991 0.14397
 C597 C 0.77285 0.11393 0.19925
 H598 H 0.75298 0.11485 0.10586
 H599 H 0.79504 0.08831 0.27842
 H600 H 0.79584 0.02935 0.22049
 N601 N 0.21940 0.65385 0.74484
 N602 N 0.21754 0.62279 0.71453
 C603 C 0.22736 0.62893 0.65743
 C604 C 0.23559 0.66572 0.65131
 C605 C 0.23003 0.68045 0.70757
 H606 H 0.24452 0.67984 0.61166
 H607 H 0.21246 0.65688 0.78984
 H608 H 0.20888 0.59810 0.73266
 N609 N 0.87510 0.69929 0.24032
 N610 N 0.90685 0.70024 0.21030
 C611 C 0.89931 0.71131 0.15406
 C612 C 0.86101 0.71705 0.14795
 C613 C 0.84680 0.70919 0.20350
 H614 H 0.84571 0.72711 0.10926
 H615 H 0.87300 0.69199 0.28516
 H616 H 0.93314 0.69359 0.22835
 N617 N 0.39850 0.26262 0.74960
 N618 N 0.42894 0.25488 0.71766
 C619 C 0.42385 0.26841 0.66209
 C620 C 0.38866 0.28615 0.65935
 C621 C 0.37324 0.28102 0.71508
 H622 H 0.37490 0.29881 0.62114
 H623 H 0.39401 0.25255 0.79248
 H624 H 0.45169 0.23837 0.73277
 N625 N 0.13701 0.32254 0.20012
 N626 N 0.10669 0.31889 0.16796
 C627 C 0.10599 0.28361 0.14942
 C628 C 0.13710 0.26384 0.17140
 C629 C 0.15604 0.28963 0.20309
 H630 H 0.14623 0.23554 0.16183
 H631 H 0.14572 0.34768 0.21631
 H632 H 0.08806 0.34071 0.15598
 N633 N 0.60562 0.71250 0.73693
 N634 N 0.57435 0.71583 0.70604
 C635 C 0.58190 0.73022 0.65219
 C636 C 0.61966 0.73639 0.64881
 C637 C 0.63363 0.72463 0.70329
 H638 H 0.63486 0.74764 0.61183
 H639 H 0.60768 0.70150 0.77986
 H640 H 0.54848 0.70772 0.72137
   
