data_POSCAR
  _audit_creation_date              2014-09-24
  _audit_creation_method            'ToBaCCo'
  _symmetry_space_group_name_H-M    'P1'
  _symmetry_Int_Tables_number       1
  _symmetry_cell_setting            triclinic
  loop_
  _symmetry_equiv_pos_as_xyz
 x,y,z
_cell_length_a 45.7618
_cell_length_b 46.0157
_cell_length_c 45.8403
_cell_angle_alpha 89.994600
_cell_angle_beta 89.953800
_cell_angle_gamma 89.969200
loop_
  _atom_site_label
  _atom_site_type_symbol
  _atom_site_fract_x
  _atom_site_fract_y
  _atom_site_fract_z
N1 N 0.14919 0.16972 0.23085
 N2 N 0.16951 0.14948 0.23034
 C3 C 0.16512 0.13104 0.25280
 C4 C 0.14082 0.14041 0.26792
 C5 C 0.13117 0.16491 0.25358
 H6 H 0.17846 0.11226 0.25779
 H7 H 0.11247 0.17817 0.25919
 Cu8 Cu 0.19960 0.14934 0.20024
 Cu9 Cu 0.14736 0.20061 0.20185
 Cu10 Cu 0.20065 0.20013 0.14776
 N11 N 0.22966 0.14929 0.17006
 N12 N 0.22986 0.16926 0.14950
 C13 C 0.25265 0.16443 0.13151
 C14 C 0.26736 0.14019 0.14140
 C15 C 0.25236 0.13102 0.16585
 H16 H 0.25812 0.17757 0.11273
 H17 H 0.25763 0.11252 0.17945
 N18 N 0.16934 0.22964 0.14978
 N19 N 0.14920 0.22992 0.17047
 C20 C 0.13115 0.25265 0.16598
 C21 C 0.14046 0.26719 0.14142
 C22 C 0.16461 0.25221 0.13162
 H23 H 0.11259 0.25826 0.17948
 H24 H 0.17771 0.25745 0.11270
 H25 H 0.16739 0.17785 0.16875
 H26 H 0.19133 0.20114 0.19185
 N27 N -0.14973 0.83007 0.23011
 N28 N -0.17004 0.85033 0.22959
 C29 C -0.16565 0.86873 0.25206
 C30 C -0.14137 0.85934 0.26718
 C31 C -0.13176 0.83486 0.25282
 H32 H -0.17897 0.88747 0.25706
 H33 H -0.11306 0.82160 0.25845
 Cu34 Cu -0.20010 0.85044 0.19957
 Cu35 Cu -0.14787 0.79919 0.20113
 Cu36 Cu -0.20112 0.79971 0.14710
 N37 N -0.23006 0.85056 0.16941
 N38 N -0.23028 0.83059 0.14885
 C39 C -0.25304 0.83541 0.13089
 C40 C -0.26774 0.85963 0.14079
 C41 C -0.25276 0.86881 0.16522
 H42 H -0.25853 0.82227 0.11209
 H43 H -0.25801 0.88727 0.17883
 N44 N -0.16985 0.77022 0.14910
 N45 N -0.14973 0.76992 0.16977
 C46 C -0.13172 0.74717 0.16530
 C47 C -0.14104 0.73265 0.14077
 C48 C -0.16516 0.74763 0.13096
 H49 H -0.11320 0.74153 0.17879
 H50 H -0.17825 0.74238 0.11206
 H51 H -0.16787 0.82198 0.16808
 H52 H -0.19179 0.79866 0.19122
 N53 N -0.14924 0.16983 -0.22982
 N54 N -0.16976 0.14980 -0.22956
 C55 C -0.16547 0.13157 -0.25219
 C56 C -0.14107 0.14083 -0.26720
 C57 C -0.13125 0.16507 -0.25258
 H58 H -0.17899 0.11303 -0.25746
 H59 H -0.11245 0.17821 -0.25808
 Cu60 Cu -0.19989 0.14981 -0.19954
 Cu61 Cu -0.14735 0.20063 -0.20074
 Cu62 Cu -0.20106 0.20052 -0.14708
 N63 N -0.22999 0.14967 -0.16945
 N64 N -0.23026 0.16967 -0.14891
 C65 C -0.25305 0.16486 -0.13094
 C66 C -0.26769 0.14059 -0.14080
 C67 C -0.25264 0.13138 -0.16520
 H68 H -0.25854 0.17800 -0.11215
 H69 H -0.25785 0.11287 -0.17878
 N70 N -0.16967 0.22992 -0.14899
 N71 N -0.14926 0.22995 -0.16941
 C72 C -0.13126 0.25270 -0.16494
 C73 C -0.14088 0.26749 -0.14066
 C74 C -0.16517 0.25267 -0.13102
 H75 H -0.11260 0.25821 -0.17833
 H76 H -0.17855 0.25816 -0.11237
 H77 H -0.16788 0.17803 -0.16786
 H78 H -0.19135 0.20158 -0.19116
 N79 N 0.14938 0.83036 -0.22986
 N80 N 0.16993 0.85036 -0.22961
 C81 C 0.16569 0.86860 -0.25223
 C82 C 0.14128 0.85940 -0.26722
 C83 C 0.13141 0.83516 -0.25260
 H84 H 0.17922 0.88715 -0.25746
 H85 H 0.11260 0.82205 -0.25810
 Cu86 Cu 0.20000 0.85038 -0.19955
 Cu87 Cu 0.14742 0.79958 -0.20074
 Cu88 Cu 0.20110 0.79961 -0.14711
 N89 N 0.23010 0.85043 -0.16949
 N90 N 0.23034 0.83043 -0.14895
 C91 C 0.25310 0.83527 -0.13096
 C92 C 0.26775 0.85954 -0.14083
 C93 C 0.25274 0.86872 -0.16524
 H94 H 0.25856 0.82214 -0.11216
 H95 H 0.25794 0.88727 -0.17880
 N96 N 0.16966 0.77026 -0.14898
 N97 N 0.14925 0.77026 -0.16938
 C98 C 0.13117 0.74758 -0.16484
 C99 C 0.14072 0.73279 -0.14054
 C100 C 0.16505 0.74756 -0.13095
 H101 H 0.11249 0.74213 -0.17819
 H102 H 0.17837 0.74208 -0.11227
 H103 H 0.16793 0.82214 -0.16776
 H104 H 0.19141 0.79866 -0.19115
 N105 N 0.16962 1.14945 0.77001
 N106 N 0.14955 1.16995 0.77018
 C107 C 0.13119 1.16565 0.74760
 C108 C 0.14045 1.14128 0.73271
 C109 C 0.16479 1.13148 0.74736
 H110 H 0.11257 1.17912 0.74234
 H111 H 0.17800 1.11274 0.74193
 Cu112 Cu 0.14969 1.19995 0.80014
 Cu113 Cu 0.20056 1.14751 0.79907
 Cu114 Cu 0.20045 1.20091 0.85271
 N115 N 0.14952 1.22984 0.83021
 N116 N 0.16955 1.22997 0.85079
 C117 C 0.16475 1.25260 0.86878
 C118 C 0.14044 1.26727 0.85891
 C119 C 0.13121 1.25241 0.83448
 H120 H 0.17795 1.25802 0.88758
 H121 H 0.11263 1.25770 0.82092
 N122 N 0.22988 1.16968 0.85083
 N123 N 0.22993 1.14940 0.83041
 C124 C 0.25268 1.13139 0.83498
 C125 C 0.26742 1.14090 0.85930
 C126 C 0.25262 1.16510 0.86890
 H127 H 0.25818 1.11277 0.82167
 H128 H 0.25809 1.17832 0.88761
 H129 H 0.17778 1.16801 0.83194
 H130 H 0.20162 1.19130 0.80867
 N131 N 0.83069 0.85009 0.77014
 N132 N 0.85085 0.82973 0.77044
 C133 C 0.86927 0.83399 0.74783
 C134 C 0.85996 0.85826 0.73284
 C135 C 0.83552 0.86800 0.74742
 H136 H 0.88797 0.82057 0.74264
 H137 H 0.82229 0.88669 0.74193
 Cu138 Cu 0.85091 0.79979 0.80044
 Cu139 Cu 0.79975 0.85197 0.79924
 Cu140 Cu 0.79982 0.79870 0.85301
 N141 N 0.85080 0.76995 0.83050
 N142 N 0.83073 0.76974 0.85103
 C143 C 0.83548 0.74707 0.86896
 C144 C 0.85979 0.73244 0.85905
 C145 C 0.86910 0.74733 0.83466
 H146 H 0.82227 0.74161 0.88774
 H147 H 0.88771 0.74203 0.82110
 N148 N 0.77042 0.82992 0.85110
 N149 N 0.77034 0.85014 0.83061
 C150 C 0.74760 0.86816 0.83521
 C151 C 0.73290 0.85873 0.85962
 C152 C 0.74773 0.83456 0.86924
 H153 H 0.74208 0.88676 0.82188
 H154 H 0.74231 0.82139 0.88802
 H155 H 0.82246 0.83154 0.83237
 H156 H 0.79889 0.80809 0.80907
 N157 N 0.16935 0.85000 1.22944
 N158 N 0.14925 0.82955 1.22926
 C159 C 0.13093 0.83381 1.25190
 C160 C 0.14018 0.85815 1.26679
 C161 C 0.16452 0.86794 1.25212
 H162 H 0.11229 0.82035 1.25718
 H163 H 0.17770 0.88669 1.25753
 Cu164 Cu 0.14928 0.79963 1.19931
 Cu165 Cu 0.20025 0.85188 1.20033
 Cu166 Cu 0.20033 0.79843 1.14676
 N167 N 0.14931 0.76974 1.16935
 N168 N 0.16942 0.76948 1.14879
 C169 C 0.16463 0.74682 1.13088
 C170 C 0.14031 0.73225 1.14081
 C171 C 0.13103 0.74717 1.16518
 H172 H 0.17781 0.74134 1.11207
 H173 H 0.11241 0.74195 1.17874
 N174 N 0.22969 0.82967 1.14861
 N175 N 0.22966 0.84999 1.16899
 C176 C 0.25237 0.86802 1.16440
 C177 C 0.26718 0.85849 1.14009
 C178 C 0.25244 0.83425 1.13053
 H179 H 0.25782 0.88666 1.17768
 H180 H 0.25796 0.82101 1.11183
 H181 H 0.17760 0.83124 1.16728
 H182 H 0.20126 0.80795 1.19069
 N183 N 0.83027 1.15028 1.22980
 N184 N 0.85052 1.17056 1.22940
 C185 C 0.86897 1.16622 1.25191
 C186 C 0.85965 1.14200 1.26695
 C187 C 0.83512 1.13235 1.25249
 H188 H 0.88775 1.17956 1.25699
 H189 H 0.82186 1.11372 1.25805
 Cu190 Cu 0.85061 1.20046 1.19939
 Cu191 Cu 0.79934 1.14844 1.20074
 Cu192 Cu 0.79960 1.20149 1.14680
 N193 N 0.85053 1.23025 1.16932
 N194 N 0.83049 1.23043 1.14875
 C195 C 0.83526 1.25310 1.13082
 C196 C 0.85951 1.26774 1.14079
 C197 C 0.86876 1.25287 1.16517
 H198 H 0.82207 1.25859 1.11206
 H199 H 0.88731 1.25819 1.17877
 N200 N 0.77016 1.17033 1.14877
 N201 N 0.76996 1.15025 1.16938
 C202 C 0.74721 1.13225 1.16483
 C203 C 0.73262 1.14156 1.14032
 C204 C 0.74752 1.16564 1.13059
 H205 H 0.74163 1.11374 1.17825
 H206 H 0.74221 1.17871 1.11171
 H207 H 0.82220 1.16868 1.16755
 H208 H 0.79861 1.19231 1.19074
 N209 N 0.53059 1.03130 1.05178
 N210 N 0.55289 1.03485 1.06966
 N211 N 0.46900 1.05145 1.03150
 N212 N 0.44667 1.06933 1.03510
 N213 N 0.46900 1.03126 1.05176
 N214 N 0.44668 1.03484 1.06971
 N215 N 0.53056 1.05148 1.03152
 N216 N 0.55284 1.06933 1.03501
 C217 C 0.56643 1.05864 1.05887
 C218 C 0.43305 1.05864 1.05901
 N219 N 0.46939 1.03124 0.94843
 N220 N 0.44711 1.03475 0.93052
 N221 N 0.53087 1.05146 0.96874
 N222 N 0.55317 1.06935 0.96516
 N223 N 0.53094 1.03126 0.94848
 N224 N 0.55327 1.03485 0.93056
 N225 N 0.46934 1.05141 0.96870
 N226 N 0.44703 1.06924 0.96516
 Mn227 Mn 0.49994 1.05180 1.00011
 C228 C 0.43351 1.05852 0.94129
 C229 C 0.56684 1.05867 0.94127
 N230 N 0.46926 0.96869 1.05172
 N231 N 0.44692 0.96512 1.06960
 N232 N 0.53083 0.94852 1.03151
 N233 N 0.55315 0.93066 1.03510
 N234 N 0.53080 0.96871 1.05177
 N235 N 0.55310 0.96515 1.06970
 N236 N 0.46932 0.94852 1.03145
 N237 N 0.44706 0.93065 1.03494
 Mn238 Mn 0.49991 0.99999 1.05212
 C239 C 0.43343 0.94133 1.05879
 C240 C 0.56674 0.94134 1.05899
 N241 N 0.53079 0.96868 0.94849
 N242 N 0.55312 0.96512 0.93061
 N243 N 0.46919 0.94848 0.96867
 N244 N 0.44689 0.93061 0.96507
 N245 N 0.46921 0.96867 0.94840
 N246 N 0.44693 0.96509 0.93045
 N247 N 0.53073 0.94850 0.96875
 N248 N 0.55302 0.93063 0.96525
 Mn249 Mn 0.50009 0.99996 0.94809
 Mn250 Mn 0.50002 0.94816 1.00010
 Cl251 Cl 0.49999 0.99998 1.00010
 C252 C 0.56664 0.94133 0.94140
 C253 C 0.43330 0.94128 0.94115
 N254 N 0.03128 0.46931 0.05183
 N255 N 0.03473 0.44708 0.06972
 N256 N 0.05165 0.53048 0.03158
 N257 N 0.06947 0.55276 0.03503
 N258 N 0.03132 0.53049 0.05182
 N259 N 0.03472 0.55277 0.06962
 N260 N 0.05161 0.46926 0.03158
 N261 N 0.06947 0.44699 0.03512
 C262 C 0.05862 0.43347 0.05898
 C263 C 0.05858 0.56633 0.05883
 N264 N 0.03143 0.53060 -0.05146
 N265 N 0.03486 0.55294 -0.06921
 N266 N 0.05168 0.46931 -0.03124
 N267 N 0.06952 0.44701 -0.03473
 N268 N 0.03140 0.46937 -0.05150
 N269 N 0.03487 0.44712 -0.06935
 N270 N 0.05172 0.53056 -0.03120
 N271 N 0.06953 0.55288 -0.03461
 Mn272 Mn 0.05203 0.49990 0.00018
 C273 C 0.05871 0.56651 -0.05840
 C274 C 0.05872 0.43350 -0.05859
 N275 N -0.03153 0.53064 0.05180
 N276 N -0.03501 0.55289 0.06965
 N277 N -0.05186 0.46950 0.03152
 N278 N -0.06973 0.44726 0.03498
 N279 N -0.03158 0.46948 0.05178
 N280 N -0.03507 0.44723 0.06961
 N281 N -0.05181 0.53067 0.03154
 N282 N -0.06967 0.55295 0.03503
 Mn283 Mn -0.00013 0.49998 0.05216
 C284 C -0.05887 0.56648 0.05887
 C285 C -0.05893 0.43372 0.05881
 N286 N -0.03149 0.46944 -0.05149
 N287 N -0.03496 0.44718 -0.06933
 N288 N -0.05176 0.53065 -0.03120
 N289 N -0.06959 0.55294 -0.03465
 N290 N -0.03144 0.53064 -0.05145
 N291 N -0.03486 0.55292 -0.06926
 N292 N -0.05181 0.46946 -0.03124
 N293 N -0.06969 0.44722 -0.03472
 Mn294 Mn -0.00002 0.50001 -0.05183
 Mn295 Mn -0.05217 0.50007 0.00016
 Cl296 Cl -0.00007 0.49999 0.00016
 C297 C -0.05887 0.43365 -0.05856
 C298 C -0.05873 0.56650 -0.05846
 N299 N 0.94839 -0.03113 0.46913
 N300 N 0.93047 -0.03466 0.44685
 N301 N 0.96877 -0.05126 0.53054
 N302 N 0.96526 -0.06912 0.55281
 N303 N 0.94846 -0.03108 0.53059
 N304 N 0.93055 -0.03464 0.55291
 N305 N 0.96869 -0.05133 0.46913
 N306 N 0.96515 -0.06918 0.44686
 C307 C 0.94124 -0.05845 0.43329
 C308 C 0.94137 -0.05844 0.56645
 N309 N 1.05195 -0.03115 0.53036
 N310 N 1.06989 -0.03467 0.55263
 N311 N 1.03154 -0.05138 0.46902
 N312 N 1.03499 -0.06926 0.44677
 N313 N 1.05186 -0.03122 0.46891
 N314 N 1.06972 -0.03482 0.44656
 N315 N 1.03164 -0.05131 0.53042
 N316 N 1.03518 -0.06912 0.55273
 Mn317 Mn 1.00016 -0.05166 0.49978
 C318 C 1.05911 -0.05842 0.56626
 C319 C 1.05886 -0.05861 0.43308
 N320 N 0.94849 0.03150 0.53047
 N321 N 0.93061 0.03506 0.55280
 N322 N 0.96874 0.05160 0.46898
 N323 N 0.96522 0.06943 0.44670
 N324 N 0.94842 0.03145 0.46901
 N325 N 0.93049 0.03501 0.44673
 N326 N 0.96880 0.05167 0.53040
 N327 N 0.96531 0.06952 0.55268
 Mn328 Mn 0.94808 0.00019 0.49980
 C329 C 0.94142 0.05884 0.56633
 C330 C 0.94131 0.05877 0.43313
 N331 N 1.05190 0.03136 0.46881
 N332 N 1.06983 0.03488 0.44650
 N333 N 1.03168 0.05161 0.53027
 N334 N 1.03519 0.06945 0.55254
 N335 N 1.05198 0.03142 0.53027
 N336 N 1.06989 0.03495 0.55256
 N337 N 1.03161 0.05156 0.46884
 N338 N 1.03515 0.06940 0.44656
 Mn339 Mn 1.05229 0.00010 0.49958
 Mn340 Mn 1.00021 0.05195 0.49962
 Cl341 Cl 1.00018 0.00014 0.49969
 C342 C 1.05905 0.05868 0.43294
 C343 C 1.05909 0.05875 0.56612
 C344 C 1.12876 0.12804 0.29205
 C345 C 1.11800 0.11721 0.31346
 C346 C 1.10537 0.10463 0.33858
 C347 C 1.09461 0.09399 0.36008
 C348 C 1.08211 0.08161 0.38537
 C349 C 1.07154 0.07111 0.40704
 C350 C 0.87135 -0.12760 0.29262
 C351 C 0.88215 -0.11678 0.31399
 C352 C 0.89485 -0.10424 0.33905
 C353 C 0.90565 -0.09364 0.36052
 C354 C 0.91819 -0.08132 0.38578
 C355 C 0.92876 -0.07086 0.40743
 C356 C 0.87161 0.12791 0.70723
 C357 C 0.88238 0.11717 0.68578
 C358 C 0.89506 0.10468 0.66065
 C359 C 0.90585 0.09409 0.63915
 C360 C 0.91839 0.08175 0.61388
 C361 C 0.92897 0.07128 0.59221
 C362 C 1.12864 -0.12762 0.70721
 C363 C 1.11793 -0.11683 0.68577
 C364 C 1.10533 -0.10428 0.66064
 C365 C 1.09460 -0.09365 0.63913
 C366 C 1.08213 -0.08129 0.61383
 C367 C 1.07159 -0.07082 0.59215
 C368 C 0.29167 1.12788 1.12940
 C369 C 0.31319 1.11708 1.11862
 C370 C 0.33842 1.10453 1.10588
 C371 C 0.35998 1.09393 1.09500
 C372 C 0.38535 1.08160 1.08232
 C373 C 0.40708 1.07113 1.07162
 C374 C 0.29201 0.87189 0.87116
 C375 C 0.31350 0.88272 0.88190
 C376 C 0.33871 0.89530 0.89456
 C377 C 0.36028 0.90594 0.90536
 C378 C 0.38564 0.91831 0.91794
 C379 C 0.40735 0.92880 0.92858
 C380 C 0.70799 0.87194 1.12887
 C381 C 0.68648 0.88276 1.11816
 C382 C 0.66127 0.89533 1.10552
 C383 C 0.63972 0.90597 1.09473
 C384 C 0.61437 0.91836 1.08217
 C385 C 0.59267 0.92887 1.07154
 C386 C 0.70804 1.12826 0.87119
 C387 C 0.68655 1.11742 0.88195
 C388 C 0.66136 1.10480 0.89464
 C389 C 0.63982 1.09413 0.90546
 C390 C 0.61448 1.08172 0.91805
 C391 C 0.59277 1.07120 0.92870
 C392 C 0.12761 0.29270 0.12862
 C393 C 0.11687 0.31411 0.11787
 C394 C 0.10435 0.33923 0.10527
 C395 C 0.09375 0.36071 0.09454
 C396 C 0.08143 0.38597 0.08204
 C397 C 0.07100 0.40761 0.07146
 C398 C -0.12815 0.29308 -0.12797
 C399 C -0.11742 0.31450 -0.11726
 C400 C -0.10484 0.33955 -0.10468
 C401 C -0.09416 0.36099 -0.09397
 C402 C -0.08178 0.38621 -0.08152
 C403 C -0.07130 0.40783 -0.07099
 C404 C 0.12791 0.70724 -0.12780
 C405 C 0.11717 0.68583 -0.11708
 C406 C 0.10460 0.66074 -0.10449
 C407 C 0.09394 0.63928 -0.09377
 C408 C 0.08157 0.61405 -0.08131
 C409 C 0.07110 0.59240 -0.07078
 C410 C -0.12821 0.70715 0.12801
 C411 C -0.11743 0.68575 0.11730
 C412 C -0.10484 0.66068 0.10478
 C413 C -0.09416 0.63921 0.09414
 C414 C -0.08175 0.61397 0.08175
 C415 C -0.07127 0.59233 0.07127
 C416 C 1.12755 0.12867 0.70713
 C417 C 1.11689 0.11792 0.68565
 C418 C 1.10454 0.10523 0.66049
 C419 C 1.09407 0.09441 0.63896
 C420 C 1.08189 0.08182 0.61367
 C421 C 1.07151 0.07121 0.59199
 C422 C 0.87298 -0.12907 0.70731
 C423 C 0.88371 -0.11823 0.68589
 C424 C 0.89609 -0.10541 0.66078
 C425 C 0.90653 -0.09444 0.63928
 C426 C 0.91865 -0.08170 0.61400
 C427 C 0.92898 -0.07097 0.59233
 C428 C 1.12720 -0.12918 0.29231
 C429 C 1.11649 -0.11837 0.31373
 C430 C 1.10413 -0.10558 0.33884
 C431 C 1.09368 -0.09464 0.36032
 C432 C 1.08153 -0.08189 0.38556
 C433 C 1.07120 -0.07116 0.40721
 C434 C 0.87272 0.12930 0.29242
 C435 C 0.88350 0.11846 0.31380
 C436 C 0.89593 0.10565 0.33886
 C437 C 0.90641 0.09470 0.36034
 C438 C 0.91856 0.08198 0.38559
 C439 C 0.92891 0.07127 0.40726
 C440 C 0.12752 0.29281 -0.12846
 C441 C 0.11680 0.31423 -0.11771
 C442 C 0.10434 0.33931 -0.10502
 C443 C 0.09379 0.36077 -0.09421
 C444 C 0.08152 0.38601 -0.08164
 C445 C 0.07110 0.40765 -0.07105
 C446 C -0.12759 0.29324 0.12825
 C447 C -0.11687 0.31463 0.11757
 C448 C -0.10442 0.33966 0.10497
 C449 C -0.09389 0.36109 0.09421
 C450 C -0.08166 0.38629 0.08172
 C451 C -0.07128 0.40791 0.07118
 C452 C -0.12729 0.70696 -0.12834
 C453 C -0.11659 0.68559 -0.11756
 C454 C -0.10418 0.66057 -0.10484
 C455 C -0.09368 0.63914 -0.09400
 C456 C -0.08146 0.61395 -0.08143
 C457 C -0.07108 0.59233 -0.07086
 C458 C 0.12733 0.70680 0.12825
 C459 C 0.11656 0.68543 0.11759
 C460 C 0.10408 0.66040 0.10501
 C461 C 0.09351 0.63896 0.09427
 C462 C 0.08126 0.61378 0.08177
 C463 C 0.07088 0.59217 0.07121
 C464 C 0.29294 1.12812 0.87207
 C465 C 0.31435 1.11734 0.88279
 C466 C 0.33940 1.10471 0.89532
 C467 C 0.36086 1.09396 0.90597
 C468 C 0.38606 1.08148 0.91835
 C469 C 0.40769 1.07093 0.92884
 C470 C 0.29272 0.87126 1.12735
 C471 C 0.31416 0.88206 1.11670
 C472 C 0.33924 0.89477 1.10429
 C473 C 0.36072 0.90560 1.09377
 C474 C 0.38595 0.91820 1.08154
 C475 C 0.40759 0.92884 1.07116
 C476 C 0.70713 1.12872 1.12752
 C477 C 0.68573 1.11788 1.11682
 C478 C 0.66066 1.10515 1.10439
 C479 C 0.63919 1.09431 1.09385
 C480 C 0.61394 1.08173 1.08163
 C481 C 0.59229 1.07110 1.07124
 C482 C 0.70738 0.87152 0.87243
 C483 C 0.68595 0.88230 0.88316
 C484 C 0.66086 0.89494 0.89566
 C485 C 0.63938 0.90572 0.90626
 C486 C 0.61414 0.91825 0.91857
 C487 C 0.59249 0.92885 0.92901
   
