data_POSCAR
  _audit_creation_date              2014-09-24
  _audit_creation_method            'ToBaCCo'
  _symmetry_space_group_name_H-M    'P1'
  _symmetry_Int_Tables_number       1
  _symmetry_cell_setting            triclinic
  loop_
  _symmetry_equiv_pos_as_xyz
 x,y,z
_cell_length_a 43.8896
_cell_length_b 44.1066
_cell_length_c 42.9695
_cell_angle_alpha 89.912400
_cell_angle_beta 89.941700
_cell_angle_gamma 89.845000
loop_
  _atom_site_label
  _atom_site_type_symbol
  _atom_site_fract_x
  _atom_site_fract_y
  _atom_site_fract_z
C1 C 0.17529 0.17498 0.20716
 N2 N 0.19691 0.15901 0.19144
 C3 C 0.20992 0.17029 0.16507
 N4 N 0.20055 0.19780 0.15418
 C5 C 0.17884 0.21396 0.16953
 N6 N 0.16657 0.20247 0.19600
 C7 C -0.16635 0.83970 0.20391
 N8 N -0.19222 0.84970 0.18984
 C9 C -0.20408 0.83495 0.16487
 N10 N -0.18958 0.80980 0.15395
 C11 C -0.16371 0.79945 0.16775
 N12 N -0.15231 0.81451 0.19265
 C13 C -0.17255 0.17228 -0.20557
 N14 N -0.19716 0.15801 -0.19302
 C15 C -0.21030 0.16829 -0.16632
 N16 N -0.19805 0.19278 -0.15185
 C17 C -0.17330 0.20708 -0.16376
 N18 N -0.16088 0.19687 -0.19074
 C19 C 0.16822 0.82763 -0.20501
 N20 N 0.19548 0.83822 -0.19492
 C21 C 0.21090 0.82404 -0.17164
 N22 N 0.19878 0.79860 -0.15870
 C23 C 0.17168 0.78747 -0.16879
 N24 N 0.15644 0.80224 -0.19180
 C25 C 0.16979 1.17541 0.79574
 N26 N 0.19493 1.16223 0.80851
 C27 C 0.20919 1.17508 0.83325
 N28 N 0.19833 1.20156 0.84497
 C29 C 0.17339 1.21522 0.83250
 N30 N 0.15917 1.20182 0.80805
 C31 C 0.83308 0.82655 0.79096
 N32 N 0.84224 0.79923 0.80241
 C33 C 0.82781 0.78631 0.82712
 N34 N 0.80380 0.80106 0.84025
 C35 C 0.79452 0.82847 0.82935
 N36 N 0.80934 0.84107 0.80482
 C37 C 0.17130 0.82574 1.21200
 N38 N 0.19805 0.83630 1.20035
 C39 C 0.20960 0.82548 1.17325
 N40 N 0.19425 0.80353 1.15770
 C41 C 0.16770 0.79227 1.16919
 N42 N 0.15630 0.80360 1.19625
 C43 C 0.82492 1.17077 1.20731
 N44 N 0.79880 1.15920 1.19515
 C45 C 0.78691 1.17045 1.16832
 N46 N 0.80143 1.19347 1.15355
 C47 C 0.82750 1.20547 1.16522
 N48 N 0.83907 1.19395 1.19215
 O49 O 0.45701 1.05570 1.04600
 O50 O 0.42326 1.02492 1.02049
 C51 C 0.42951 1.04762 1.03852
 O52 O 0.54421 1.04225 0.93740
 O53 O 0.57625 1.01559 0.96959
 C54 C 0.57120 1.03388 0.94649
 O55 O 0.45860 1.04740 0.93829
 O56 O 0.42400 1.02184 0.96849
 C57 C 0.43089 1.04103 0.94671
 O58 O 0.54268 1.04975 1.05107
 O59 O 0.57555 1.01906 1.02394
 C60 C 0.56989 1.04005 1.04425
 Zr61 Zr 0.49957 1.03611 1.03364
 O62 O 0.50473 1.08368 1.02976
 O63 O 0.49523 1.03998 1.08254
 Zr64 Zr 0.50070 1.03039 0.95515
 O65 O 0.50540 1.07805 0.95183
 O66 O 0.49818 1.02692 0.90609
 O67 O 0.47315 1.04001 0.99349
 O68 O 0.52679 1.03794 0.99443
 O69 O 0.53953 0.94529 1.05882
 O70 O 0.57393 0.96891 1.02680
 C71 C 0.56720 0.95135 1.05000
 O72 O 0.45531 0.93713 0.94723
 O73 O 0.42239 0.96909 0.97272
 C74 C 0.42807 0.94629 0.95457
 O75 O 0.54102 0.93699 0.94555
 O76 O 0.57473 0.96567 0.97354
 C77 C 0.56849 0.94465 0.95349
 O78 O 0.45365 0.94445 1.05413
 O79 O 0.42163 0.97280 1.02351
 C80 C 0.42664 0.95254 1.04481
 Zr81 Zr 0.49728 0.95966 1.03965
 O82 O 0.49941 0.91192 1.04423
 O83 O 0.49287 0.96409 1.08852
 Zr84 Zr 0.49842 0.95394 0.96108
 O85 O 0.50039 0.90609 0.96464
 O86 O 0.49569 0.95081 0.91200
 Zr87 Zr 0.45383 0.99640 0.99663
 Zr88 Zr 0.54414 0.99357 0.99808
 O89 O 0.52402 0.95042 1.00121
 O90 O 0.47064 0.95171 1.00037
 O91 O 0.52545 0.99745 1.04314
 O92 O 0.47319 0.99255 0.95201
 O93 O 0.47189 0.99908 1.04188
 O94 O 0.52677 0.99087 0.95246
 H95 H 0.54130 1.05508 0.99342
 H96 H 0.45955 0.99160 0.93368
 H97 H 0.53722 0.93222 1.00275
 H98 H 0.45770 1.00070 1.05976
 H99 H 0.51492 1.01342 0.89928
 H100 H 0.51347 0.96164 0.90326
 H101 H 0.48307 0.89958 0.97775
 H102 H 0.48351 0.90333 1.03058
 H103 H 0.51091 0.97524 1.09611
 H104 H 0.51116 1.02703 1.09201
 H105 H 0.48810 1.09127 1.01630
 H106 H 0.48808 1.08731 0.96314
 O107 O -0.05719 0.45620 0.05827
 O108 O -0.02891 0.42363 0.02830
 C109 C -0.04921 0.42913 0.04951
 O110 O -0.05622 0.54347 -0.05319
 O111 O -0.02879 0.57619 -0.02271
 C112 C -0.04819 0.57058 -0.04472
 O113 O -0.05883 0.45823 -0.05162
 O114 O -0.02966 0.42452 -0.02385
 C115 C -0.05071 0.43085 -0.04406
 O116 O -0.05586 0.54134 0.06135
 O117 O -0.02885 0.57511 0.03161
 C118 C -0.04835 0.56875 0.05332
 Zr119 Zr -0.04202 0.49916 0.04239
 O120 O -0.09011 0.50180 0.03888
 O121 O -0.04616 0.49763 0.09137
 Zr122 Zr -0.04191 0.50059 -0.03622
 O123 O -0.09004 0.50349 -0.03711
 O124 O -0.03926 0.50000 -0.08533
 O125 O -0.04781 0.47274 0.00267
 O126 O -0.04766 0.52629 0.00356
 O127 O 0.04929 0.54180 0.06060
 O128 O 0.02198 0.57534 0.03079
 C129 C 0.04140 0.56916 0.05261
 O130 O 0.05207 0.45831 -0.05225
 O131 O 0.02281 0.42476 -0.02452
 C132 C 0.04375 0.43096 -0.04480
 O133 O 0.04885 0.54385 -0.05347
 O134 O 0.02128 0.57624 -0.02257
 C135 C 0.04078 0.57090 -0.04458
 O136 O 0.05329 0.45642 0.05522
 O137 O 0.02396 0.42365 0.02672
 C138 C 0.04571 0.42931 0.04628
 Zr139 Zr 0.03526 0.49936 0.04234
 O140 O 0.08332 0.50312 0.04274
 O141 O 0.03513 0.49504 0.09142
 Zr142 Zr 0.03512 0.50076 -0.03638
 O143 O 0.08324 0.50418 -0.03583
 O144 O 0.03529 0.49906 -0.08558
 Zr145 Zr -0.00318 0.45498 0.00232
 Zr146 Zr -0.00363 0.54488 0.00392
 O147 O 0.04061 0.52638 0.00341
 O148 O 0.04126 0.47309 0.00245
 O149 O -0.00351 0.52602 0.04906
 O150 O -0.00333 0.47443 -0.04241
 O151 O -0.00309 0.47289 0.04768
 O152 O -0.00356 0.52775 -0.04178
 H153 H -0.06543 0.54020 0.00376
 H154 H -0.00338 0.46110 -0.06094
 H155 H 0.05837 0.54020 0.00354
 H156 H -0.00243 0.45873 0.06558
 H157 H -0.06058 0.50017 -0.09292
 H158 H 0.01864 0.51246 -0.09286
 H159 H 0.09128 0.48610 -0.02491
 H160 H 0.09144 0.48767 0.02827
 H161 H 0.02296 0.51208 0.09986
 H162 H -0.02571 0.49306 0.09973
 H163 H -0.09757 0.48200 0.03128
 H164 H -0.09789 0.48776 -0.02280
 O165 O 1.05800 -0.04754 0.54404
 O166 O 1.02974 -0.01934 0.57840
 C167 C 1.05067 -0.03920 0.57205
 O168 O 1.05553 0.05825 0.45464
 O169 O 1.02681 0.02895 0.42190
 C170 C 1.04722 0.04953 0.42704
 O171 O 1.06023 0.05668 0.54212
 O172 O 1.03022 0.03151 0.57735
 C173 C 1.05225 0.04986 0.57040
 O174 O 1.05253 -0.05228 0.45675
 O175 O 1.02450 -0.02337 0.42278
 C176 C 1.04372 -0.04495 0.42886
 Zr177 Zr 1.03989 -0.03397 0.50054
 O178 O 1.08788 -0.03511 0.49558
 O179 O 1.03913 -0.08175 0.50525
 Zr180 Zr 1.04121 0.04277 0.49911
 O181 O 1.08922 0.04295 0.49454
 O182 O 1.04079 0.09071 0.50183
 O183 O 1.04716 0.00470 0.52736
 O184 O 1.04559 0.00377 0.47276
 O185 O 0.94788 -0.05039 0.45941
 O186 O 0.97410 -0.02136 0.42416
 C187 C 0.95490 -0.04260 0.43114
 O188 O 0.94795 0.05919 0.54496
 O189 O 0.97753 0.03158 0.57877
 C190 C 0.95620 0.05118 0.57288
 O191 O 0.94952 0.06114 0.45692
 O192 O 0.97634 0.03113 0.42291
 C193 C 0.95724 0.05281 0.42895
 O194 O 0.94688 -0.04615 0.54678
 O195 O 0.97698 -0.01834 0.57956
 C196 C 0.95561 -0.03791 0.57438
 Zr197 Zr 0.96275 -0.03220 0.50237
 O198 O 0.91461 -0.02969 0.49987
 O199 O 0.96047 -0.07993 0.50670
 Zr200 Zr 0.96426 0.04443 0.50087
 O201 O 0.91612 0.04577 0.49833
 O202 O 0.96561 0.09232 0.50367
 Zr203 Zr 1.00308 0.00587 0.54689
 Zr204 Zr 1.00110 0.00442 0.45459
 O205 O 0.95738 0.00579 0.47468
 O206 O 0.95817 0.00664 0.52948
 O207 O 1.00060 -0.03952 0.47396
 O208 O 1.00341 0.04950 0.52699
 O209 O 1.00184 -0.03827 0.52849
 O210 O 1.00231 0.04904 0.47210
 H211 H 1.06315 0.00291 0.45827
 H212 H 1.00396 0.06736 0.54095
 H213 H 0.93934 0.00601 0.46083
 H214 H 1.00194 -0.05584 0.54288
 H215 H 1.03026 0.09848 0.48309
 H216 H 0.97778 0.09968 0.48582
 H217 H 0.90821 0.03273 0.51522
 H218 H 0.90732 -0.01932 0.51888
 H219 H 0.97469 -0.08862 0.49123
 H220 H 1.02637 -0.08986 0.48825
 H221 H 1.09663 -0.02279 0.51256
 H222 H 1.09744 0.02869 0.51022
 C223 C 1.14066 0.18071 0.25149
 C224 C 1.12693 0.16908 0.27827
 C225 C 1.13337 0.13956 0.28835
 C226 C 1.15467 0.12208 0.27170
 C227 C 1.16882 0.13383 0.24511
 C228 C 1.16179 0.16325 0.23438
 C229 C 1.11796 0.12797 0.31659
 C230 C 1.11063 0.09873 0.32031
 C231 C 1.09393 0.08727 0.34786
 C232 C 1.07528 0.06172 0.34456
 C233 C 1.05959 0.04990 0.37012
 C234 C 1.06266 0.06310 0.39973
 C235 C 1.08149 0.08862 0.40308
 C236 C 1.09694 0.10063 0.37741
 H237 H 1.13467 0.20353 0.24437
 H238 H 1.11080 0.18307 0.29091
 H239 H 1.16076 0.09949 0.27940
 H240 H 1.18507 0.11965 0.23289
 H241 H 1.11052 0.14444 0.33367
 H242 H 1.11527 0.08284 0.30169
 H243 H 1.07277 0.05092 0.32209
 H244 H 1.04549 0.03007 0.36675
 H245 H 1.08448 0.09921 0.42558
 H246 H 1.11176 0.11988 0.38094
 C247 C 0.83299 -0.11714 0.23981
 C248 C 0.84586 -0.10123 0.26461
 C249 C 0.87156 -0.11260 0.28006
 C250 C 0.88466 -0.13993 0.26988
 C251 C 0.87213 -0.15567 0.24484
 C252 C 0.84604 -0.14457 0.22940
 C253 C 0.88498 -0.09495 0.30583
 C254 C 0.89898 -0.10811 0.33004
 C255 C 0.91269 -0.09056 0.35569
 C256 C 0.91321 -0.10309 0.38569
 C257 C 0.92650 -0.08732 0.41033
 C258 C 0.94016 -0.05895 0.40525
 C259 C 0.94004 -0.04660 0.37508
 C260 C 0.92633 -0.06218 0.35054
 H261 H 0.81304 -0.10763 0.22860
 H262 H 0.83556 -0.08005 0.27192
 H263 H 0.90502 -0.14887 0.28078
 H264 H 0.88307 -0.17656 0.23762
 H265 H 0.88193 -0.07057 0.30550
 H266 H 0.89917 -0.13260 0.33201
 H267 H 0.90311 -0.12508 0.39009
 H268 H 0.92651 -0.09756 0.43325
 H269 H 0.95049 -0.02484 0.37041
 H270 H 0.92703 -0.05229 0.32748
 C271 C 0.86462 0.17805 0.75222
 C272 C 0.87809 0.16753 0.72479
 C273 C 0.86879 0.14011 0.71149
 C274 C 0.84493 0.12383 0.72547
 C275 C 0.83096 0.13461 0.75257
 C276 C 0.84085 0.16173 0.76663
 C277 C 0.88419 0.12915 0.68300
 C278 C 0.89018 0.09973 0.67829
 C279 C 0.90752 0.08856 0.65107
 C280 C 0.92664 0.06334 0.65479
 C281 C 0.94303 0.05182 0.62957
 C282 C 0.93999 0.06473 0.59979
 C283 C 0.92065 0.08994 0.59600
 C284 C 0.90470 0.10189 0.62145
 H285 H 0.87285 0.19913 0.76195
 H286 H 0.89629 0.18055 0.71425
 H287 H 0.83684 0.10292 0.71528
 H288 H 0.81267 0.12138 0.76265
 H289 H 0.89301 0.14589 0.66687
 H290 H 0.88421 0.08341 0.69615
 H291 H 0.92910 0.05265 0.67738
 H292 H 0.95776 0.03247 0.63337
 H293 H 0.91775 0.10039 0.57337
 H294 H 0.88965 0.12104 0.61778
 C295 C 1.12117 -0.16384 0.76293
 C296 C 1.10531 -0.14816 0.73972
 C297 C 1.11945 -0.12481 0.72293
 C298 C 1.14957 -0.11683 0.73034
 C299 C 1.16536 -0.13232 0.75368
 C300 C 1.15141 -0.15610 0.77015
 C301 C 1.10208 -0.10883 0.69835
 C302 C 1.11549 -0.09679 0.67319
 C303 C 1.09831 -0.08183 0.64786
 C304 C 1.11025 -0.08268 0.61760
 C305 C 1.09472 -0.06892 0.59300
 C306 C 1.06714 -0.05349 0.59826
 C307 C 1.05548 -0.05202 0.62871
 C308 C 1.07087 -0.06613 0.65329
 H309 H 1.10966 -0.18186 0.77534
 H310 H 1.08201 -0.15451 0.73462
 H311 H 1.16087 -0.09831 0.71852
 H312 H 1.18854 -0.12560 0.75879
 H313 H 1.07746 -0.10875 0.70013
 H314 H 1.13979 -0.09970 0.66987
 H315 H 1.13151 -0.09437 0.61292
 H316 H 1.10445 -0.07022 0.56987
 H317 H 1.03434 -0.04020 0.63351
 H318 H 1.06148 -0.06433 0.67651
 C319 C 0.24151 1.12463 1.15981
 C320 C 0.26459 1.10845 1.14469
 C321 C 0.28013 1.12112 1.11933
 C322 C 0.27149 1.15002 1.10865
 C323 C 0.24809 1.16611 1.12345
 C324 C 0.23290 1.15380 1.14950
 C325 C 0.30467 1.10332 1.10419
 C326 C 0.32906 1.11615 1.09078
 C327 C 0.35435 1.09821 1.07714
 C328 C 0.38394 1.11013 1.07762
 C329 C 0.40840 1.09367 1.06527
 C330 C 0.40364 1.06514 1.05159
 C331 C 0.37384 1.05351 1.05046
 C332 C 0.34947 1.06982 1.06316
 H333 H 0.23042 1.11409 1.17956
 H334 H 0.27065 1.08609 1.15316
 H335 H 0.28246 1.16009 1.08858
 H336 H 0.24216 1.18833 1.11451
 H337 H 0.30358 1.07886 1.10617
 H338 H 0.33172 1.14054 1.09168
 H339 H 0.38823 1.13208 1.08799
 H340 H 0.43100 1.10340 1.06626
 H341 H 0.36935 1.03168 1.03994
 H342 H 0.32680 1.06034 1.06161
 C343 C 0.25230 0.86092 0.82423
 C344 C 0.27928 0.87342 0.83556
 C345 C 0.29281 0.86193 0.86261
 C346 C 0.27967 0.83678 0.87750
 C347 C 0.25302 0.82377 0.86582
 C348 C 0.23860 0.83599 0.83928
 C349 C 0.32062 0.87652 0.87468
 C350 C 0.32548 0.88032 0.90518
 C351 C 0.35203 0.89709 0.91728
 C352 C 0.34860 0.91478 0.94414
 C353 C 0.37318 0.93119 0.95594
 C354 C 0.40190 0.92956 0.94155
 C355 C 0.40547 0.91135 0.91497
 C356 C 0.38073 0.89540 0.90283
 H357 H 0.24227 0.87092 0.80358
 H358 H 0.28923 0.89264 0.82359
 H359 H 0.29011 0.82703 0.89805
 H360 H 0.24348 0.80451 0.87805
 H361 H 0.33606 0.88670 0.85801
 H362 H 0.30830 0.87306 0.92170
 H363 H 0.32672 0.91624 0.95576
 H364 H 0.36978 0.94485 0.97655
 H365 H 0.42736 0.90957 0.90344
 H366 H 0.38419 0.88139 0.88246
 C367 C 0.75812 0.83226 1.12297
 C368 C 0.73239 0.84394 1.10794
 C369 C 0.71686 0.86908 1.12010
 C370 C 0.72774 0.88267 1.14745
 C371 C 0.75368 0.87130 1.16229
 C372 C 0.76937 0.84594 1.15026
 C373 C 0.69057 0.88170 1.10281
 C374 C 0.66741 0.89622 1.11673
 C375 C 0.64186 0.90982 1.09908
 C376 C 0.61286 0.91132 1.11277
 C377 C 0.58844 0.92452 1.09677
 C378 C 0.59278 0.93707 1.06702
 C379 C 0.62198 0.93600 1.05356
 C380 C 0.64624 0.92246 1.06937
 H381 H 0.76941 0.81279 1.11277
 H382 H 0.72456 0.83327 1.08672
 H383 H 0.71678 0.90261 1.15698
 H384 H 0.76146 0.88267 1.18314
 H385 H 0.68988 0.87796 1.07791
 H386 H 0.66642 0.89723 1.14190
 H387 H 0.60906 0.90204 1.13580
 H388 H 0.56627 0.92522 1.10784
 H389 H 0.62611 0.94554 1.03070
 H390 H 0.66851 0.92246 1.05853
 C391 C 0.74847 1.16659 0.87208
 C392 C 0.72209 1.15320 0.88390
 C393 C 0.71053 1.12661 0.87069
 C394 C 0.72554 1.11383 0.84493
 C395 C 0.75167 1.12753 0.83264
 C396 C 0.76360 1.15412 0.84608
 C397 C 0.68226 1.11347 0.88367
 C398 C 0.67697 1.08358 0.88467
 C399 C 0.64944 1.07085 0.89961
 C400 C 0.65170 1.04348 0.91609
 C401 C 0.62630 1.03149 0.93137
 C402 C 0.59791 1.04626 0.92978
 C403 C 0.59544 1.07318 0.91241
 C404 C 0.62098 1.08546 0.89762
 H405 H 0.75662 1.18705 0.88316
 H406 H 0.71077 1.16353 0.90365
 H407 H 0.71675 1.09366 0.83383
 H408 H 0.76244 1.11716 0.81260
 H409 H 0.66634 1.12884 0.89481
 H410 H 0.69431 1.06792 0.87660
 H411 H 0.67334 1.03170 0.91771
 H412 H 0.62887 1.01061 0.94437
 H413 H 0.57387 1.08503 0.91068
 H414 H 0.61840 1.10625 0.88443
 C415 C 0.15106 0.26305 0.17657
 C416 C 0.13853 0.28978 0.16470
 C417 C 0.14170 0.29710 0.13312
 C418 C 0.15901 0.27786 0.11383
 C419 C 0.17193 0.25124 0.12582
 C420 C 0.16758 0.24328 0.15720
 C421 C 0.12658 0.32484 0.12125
 C422 C 0.11572 0.32717 0.09219
 C423 C 0.09802 0.35374 0.08111
 C424 C 0.07686 0.34971 0.05704
 C425 C 0.05956 0.37411 0.04606
 C426 C 0.06334 0.40327 0.05869
 C427 C 0.08486 0.40740 0.08251
 C428 C 0.10204 0.38293 0.09361
 H429 H 0.14756 0.25775 0.20093
 H430 H 0.12560 0.30441 0.18009
 H431 H 0.16263 0.28332 0.08955
 H432 H 0.18466 0.23655 0.11035
 H433 H 0.12187 0.34266 0.13788
 H434 H 0.11775 0.30801 0.07658
 H435 H 0.07352 0.32752 0.04684
 H436 H 0.04345 0.37015 0.02744
 H437 H 0.08857 0.42959 0.09254
 H438 H 0.11878 0.38712 0.11154
 C439 C -0.16746 0.23906 -0.11595
 C440 C -0.15368 0.26283 -0.09980
 C441 C -0.13214 0.28141 -0.11450
 C442 C -0.12417 0.27543 -0.14562
 C443 C -0.13768 0.25143 -0.16168
 C444 C -0.15951 0.23300 -0.14704
 C445 C -0.11764 0.30605 -0.09651
 C446 C -0.10808 0.33188 -0.10968
 C447 C -0.09394 0.35678 -0.09178
 C448 C -0.09740 0.38663 -0.10249
 C449 C -0.08383 0.41069 -0.08666
 C450 C -0.06597 0.40535 -0.06005
 C451 C -0.06222 0.37538 -0.04950
 C452 C -0.07615 0.35133 -0.06513
 H453 H -0.18400 0.22515 -0.10389
 H454 H -0.15999 0.26684 -0.07577
 H455 H -0.10702 0.28880 -0.15740
 H456 H -0.13092 0.24728 -0.18554
 H457 H -0.11640 0.30343 -0.07147
 H458 H -0.11222 0.33577 -0.13421
 H459 H -0.11077 0.39136 -0.12312
 H460 H -0.08696 0.43346 -0.09560
 H461 H -0.04840 0.37045 -0.02925
 H462 H -0.07233 0.32848 -0.05675
 C463 C 0.17693 0.74052 -0.13612
 C464 C 0.16482 0.71397 -0.12336
 C465 C 0.13432 0.70614 -0.12863
 C466 C 0.11630 0.72492 -0.14768
 C467 C 0.12847 0.75127 -0.16073
 C468 C 0.15886 0.75949 -0.15494
 C469 C 0.12204 0.67812 -0.11443
 C470 C 0.09293 0.67573 -0.10539
 C471 C 0.08053 0.64846 -0.08991
 C472 C 0.05671 0.65202 -0.06850
 C473 C 0.04414 0.62688 -0.05357
 C474 C 0.05463 0.59744 -0.06029
 C475 C 0.07830 0.59382 -0.08206
 C476 C 0.09122 0.61909 -0.09667
 H477 H 0.20050 0.74605 -0.13144
 H478 H 0.17921 0.69970 -0.10898
 H479 H 0.09292 0.71908 -0.15293
 H480 H 0.11397 0.76525 -0.17527
 H481 H 0.13788 0.65988 -0.10941
 H482 H 0.07796 0.69520 -0.10745
 H483 H 0.04800 0.67440 -0.06304
 H484 H 0.02612 0.63059 -0.03679
 H485 H 0.08688 0.57147 -0.08781
 H486 H 0.10911 0.61556 -0.11365
 C487 C -0.11762 0.76597 0.16490
 C488 C -0.10209 0.74088 0.15296
 C489 C -0.11636 0.72135 0.13184
 C490 C -0.14639 0.72769 0.12236
 C491 C -0.16182 0.75303 0.13403
 C492 C -0.14763 0.77242 0.15549
 C493 C -0.09882 0.69549 0.11908
 C494 C -0.11185 0.66955 0.10997
 C495 C -0.09427 0.64394 0.09672
 C496 C -0.10553 0.61438 0.10008
 C497 C -0.09016 0.58981 0.08676
 C498 C -0.06347 0.59440 0.06930
 C499 C -0.05216 0.62403 0.06599
 C500 C -0.06737 0.64854 0.07955
 H501 H -0.10591 0.78055 0.18121
 H502 H -0.07888 0.73662 0.16035
 H503 H -0.15776 0.71356 0.10543
 H504 H -0.18487 0.75744 0.12621
 H505 H -0.07424 0.69751 0.11862
 H506 H -0.13608 0.66635 0.11343
 H507 H -0.12634 0.61030 0.11299
 H508 H -0.09961 0.56730 0.08953
 H509 H -0.03170 0.62836 0.05259
 H510 H -0.05847 0.67110 0.07575
 C511 C 1.12716 0.17404 0.75899
 C512 C 1.11167 0.16008 0.73453
 C513 C 1.12345 0.13393 0.72047
 C514 C 1.15086 0.12155 0.73169
 C515 C 1.16619 0.13519 0.75650
 C516 C 1.15461 0.16172 0.77054
 C517 C 1.10600 0.11948 0.69507
 C518 C 1.11927 0.10440 0.67162
 C519 C 1.10160 0.09059 0.64600
 C520 C 1.11441 0.08929 0.61611
 C521 C 1.09826 0.07639 0.59144
 C522 C 1.06921 0.06391 0.59637
 C523 C 1.05664 0.06469 0.62646
 C524 C 1.07261 0.07799 0.65101
 H525 H 1.11725 0.19430 0.76905
 H526 H 1.09045 0.16989 0.72642
 H527 H 1.16016 0.10093 0.72182
 H528 H 1.18712 0.12482 0.76462
 H529 H 1.08155 0.12292 0.69482
 H530 H 1.14390 0.10367 0.67004
 H531 H 1.13684 0.09859 0.61178
 H532 H 1.10868 0.07587 0.56859
 H533 H 1.03436 0.05516 0.63104
 H534 H 1.06244 0.07791 0.67397
 C535 C 0.87082 -0.17628 0.74890
 C536 C 0.88481 -0.16350 0.72275
 C537 C 0.87672 -0.13438 0.71257
 C538 C 0.85384 -0.11842 0.72856
 C539 C 0.83947 -0.13131 0.75438
 C540 C 0.84778 -0.16043 0.76505
 C541 C 0.89167 -0.12157 0.68467
 C542 C 0.89731 -0.09188 0.68162
 C543 C 0.91239 -0.07889 0.65391
 C544 C 0.93137 -0.05365 0.65753
 C545 C 0.94568 -0.04060 0.63176
 C546 C 0.94060 -0.05200 0.60167
 C547 C 0.92121 -0.07707 0.59803
 C548 C 0.90735 -0.09049 0.62390
 H549 H 0.87787 -0.19877 0.75610
 H550 H 0.90223 -0.17630 0.71059
 H551 H 0.84655 -0.09621 0.72077
 H552 H 0.82182 -0.11828 0.76590
 H553 H 0.89964 -0.13720 0.66700
 H554 H 0.89227 -0.07670 0.70076
 H555 H 0.93543 -0.04424 0.68042
 H556 H 0.96064 -0.02150 0.63546
 H557 H 0.91681 -0.08644 0.57519
 H558 H 0.89224 -0.10953 0.62033
 C559 C 1.17563 -0.14005 0.25656
 C560 C 1.16331 -0.12691 0.28330
 C561 C 1.13401 -0.13462 0.29342
 C562 C 1.11756 -0.15670 0.27697
 C563 C 1.13005 -0.17029 0.25044
 C564 C 1.15913 -0.16182 0.23953
 C565 C 1.12156 -0.11949 0.32139
 C566 C 1.09187 -0.11325 0.32496
 C567 C 1.07991 -0.09608 0.35194
 C568 C 1.05405 -0.07772 0.34802
 C569 C 1.04247 -0.06085 0.37289
 C570 C 1.05624 -0.06244 0.40239
 C571 C 1.08177 -0.08135 0.40645
 C572 C 1.09352 -0.09796 0.38150
 H573 H 1.19817 -0.13298 0.24933
 H574 H 1.17652 -0.11017 0.29580
 H575 H 1.09520 -0.16373 0.28474
 H576 H 1.11662 -0.18708 0.23828
 H577 H 1.13775 -0.11107 0.33829
 H578 H 1.07608 -0.11883 0.30649
 H579 H 1.04301 -0.07613 0.32553
 H580 H 1.02255 -0.04678 0.36907
 H581 H 1.09276 -0.08326 0.42893
 H582 H 1.11297 -0.11258 0.38554
 C583 C 0.82179 0.13577 0.25161
 C584 C 0.83416 0.12350 0.27884
 C585 C 0.86253 0.13324 0.28987
 C586 C 0.87793 0.15630 0.27369
 C587 C 0.86541 0.16895 0.24668
 C588 C 0.83725 0.15866 0.23499
 C589 C 0.87514 0.11923 0.31848
 C590 C 0.90511 0.11530 0.32299
 C591 C 0.91779 0.09950 0.35057
 C592 C 0.94508 0.08321 0.34738
 C593 C 0.95770 0.06787 0.37277
 C594 C 0.94359 0.06903 0.40215
 C595 C 0.91658 0.08591 0.40554
 C596 C 0.90370 0.10089 0.37997
 H597 H 0.80001 0.12725 0.24374
 H598 H 0.82174 0.10594 0.29107
 H599 H 0.89948 0.16490 0.28207
 H600 H 0.87804 0.18663 0.23489
 H601 H 0.85915 0.10986 0.33510
 H602 H 0.92092 0.12183 0.30482
 H603 H 0.95651 0.08203 0.32505
 H604 H 0.97872 0.05535 0.36945
 H605 H 0.90527 0.08734 0.42790
 H606 H 0.88303 0.11391 0.38339
 C607 C 0.17774 0.25720 -0.13048
 C608 C 0.16636 0.28403 -0.11763
 C609 C 0.13897 0.29657 -0.12837
 C610 C 0.12368 0.28247 -0.15314
 C611 C 0.13521 0.25587 -0.16633
 C612 C 0.16223 0.24256 -0.15493
 C613 C 0.12692 0.32428 -0.11338
 C614 C 0.09700 0.32915 -0.10975
 C615 C 0.08445 0.35554 -0.09282
 C616 C 0.05670 0.35225 -0.07705
 C617 C 0.04385 0.37663 -0.06105
 C618 C 0.05820 0.40509 -0.06101
 C619 C 0.08585 0.40856 -0.07714
 C620 C 0.09896 0.38396 -0.09281
 H621 H 0.19873 0.24803 -0.12110
 H622 H 0.17866 0.29467 -0.09874
 H623 H 0.10291 0.29211 -0.16253
 H624 H 0.12264 0.24564 -0.18527
 H625 H 0.14309 0.33968 -0.10286
 H626 H 0.08102 0.31203 -0.11740
 H627 H 0.04501 0.33064 -0.07694
 H628 H 0.02236 0.37327 -0.04913
 H629 H 0.09734 0.43025 -0.07763
 H630 H 0.12004 0.38740 -0.10540
 C631 C -0.16863 0.23958 0.12036
 C632 C -0.15416 0.26322 0.10460
 C633 C -0.12902 0.27786 0.11775
 C634 C -0.11796 0.26785 0.14670
 C635 C -0.13207 0.24379 0.16231
 C636 C -0.15782 0.22941 0.14949
 C637 C -0.11448 0.30293 0.10036
 C638 C -0.10200 0.32694 0.11445
 C639 C -0.08892 0.35279 0.09699
 C640 C -0.09049 0.38190 0.10997
 C641 C -0.07817 0.40678 0.09425
 C642 C -0.06341 0.40294 0.06546
 C643 C -0.06150 0.37369 0.05263
 C644 C -0.07424 0.34887 0.06815
 H645 H -0.18819 0.22916 0.10941
 H646 H -0.16292 0.27039 0.08219
 H647 H -0.09811 0.27825 0.15709
 H648 H -0.12285 0.23669 0.18453
 H649 H -0.11617 0.30260 0.07521
 H650 H -0.10321 0.32878 0.13957
 H651 H -0.10148 0.38543 0.13226
 H652 H -0.07975 0.42896 0.10493
 H653 H -0.05010 0.36995 0.03060
 H654 H -0.07197 0.32659 0.05788
 C655 C -0.17797 0.74422 -0.13608
 C656 C -0.16710 0.71735 -0.12284
 C657 C -0.13964 0.70453 -0.13303
 C658 C -0.12385 0.71822 -0.15776
 C659 C -0.13497 0.74478 -0.17149
 C660 C -0.16192 0.75855 -0.16045
 C661 C -0.12797 0.67697 -0.11746
 C662 C -0.09822 0.67271 -0.11204
 C663 C -0.08635 0.64634 -0.09453
 C664 C -0.06038 0.65002 -0.07597
 C665 C -0.04842 0.62556 -0.05926
 C666 C -0.06173 0.59670 -0.06142
 C667 C -0.08758 0.59294 -0.08033
 C668 C -0.09988 0.61756 -0.09661
 H669 H -0.19895 0.75374 -0.12702
 H670 H -0.17977 0.70697 -0.10400
 H671 H -0.10297 0.70833 -0.16661
 H672 H -0.12199 0.75478 -0.19032
 H673 H -0.14442 0.66119 -0.10795
 H674 H -0.08216 0.69021 -0.11863
 H675 H -0.04949 0.67196 -0.07416
 H676 H -0.02849 0.62921 -0.04498
 H677 H -0.09831 0.57098 -0.08256
 H678 H -0.11954 0.61389 -0.11131
 C679 C 0.15926 0.76046 0.12164
 C680 C 0.14444 0.73691 0.10610
 C681 C 0.12207 0.71967 0.12125
 C682 C 0.11406 0.72705 0.15203
 C683 C 0.12861 0.75085 0.16746
 C684 C 0.15158 0.76766 0.15254
 C685 C 0.10706 0.69476 0.10407
 C686 C 0.09654 0.66967 0.11806
 C687 C 0.08245 0.64431 0.10072
 C688 C 0.08490 0.61478 0.11266
 C689 C 0.07184 0.59031 0.09694
 C690 C 0.05555 0.59497 0.06919
 C691 C 0.05263 0.62466 0.05753
 C692 C 0.06597 0.64906 0.07308
 H693 H 0.17666 0.77309 0.10937
 H694 H 0.15078 0.73186 0.08229
 H695 H 0.09629 0.71477 0.16410
 H696 H 0.12206 0.75589 0.19121
 H697 H 0.10650 0.69637 0.07892
 H698 H 0.09998 0.66666 0.14283
 H699 H 0.09724 0.61059 0.13407
 H700 H 0.07429 0.56778 0.10670
 H701 H 0.04009 0.62908 0.03630
 H702 H 0.06287 0.67163 0.06369
 C703 C 0.24541 1.16916 0.87783
 C704 C 0.26935 1.15414 0.89272
 C705 C 0.28431 1.12987 0.87820
 C706 C 0.27460 1.12057 0.84852
 C707 C 0.25036 1.13539 0.83374
 C708 C 0.23549 1.15985 0.84825
 C709 C 0.30898 1.11407 0.89523
 C710 C 0.33237 1.10028 0.88100
 C711 C 0.35726 1.08521 0.89841
 C712 C 0.38660 1.08457 0.88549
 C713 C 0.41062 1.07054 0.90133
 C714 C 0.40560 1.05632 0.93018
 C715 C 0.37607 1.05652 0.94288
 C716 C 0.35215 1.07086 0.92720
 H717 H 0.23433 1.18776 0.88981
 H718 H 0.27626 1.16156 0.91567
 H719 H 0.28514 1.10142 0.83700
 H720 H 0.24318 1.12756 0.81103
 H721 H 0.30866 1.11541 0.92040
 H722 H 0.33446 1.10160 0.85592
 H723 H 0.39102 1.09523 0.86321
 H724 H 0.43304 1.07054 0.89080
 H725 H 0.37144 1.04568 0.96502
 H726 H 0.32961 1.07022 0.93741
 C727 C 0.25798 0.85467 1.17996
 C728 C 0.28460 0.86748 1.16798
 C729 C 0.29179 0.86455 1.13634
 C730 C 0.27247 0.84750 1.11705
 C731 C 0.24603 0.83429 1.12913
 C732 C 0.23831 0.83808 1.16064
 C733 C 0.31970 0.87922 1.12432
 C734 C 0.32160 0.89058 1.09544
 C735 C 0.34882 0.90673 1.08372
 C736 C 0.34506 0.92905 1.06077
 C737 C 0.37023 0.94443 1.04872
 C738 C 0.39986 0.93737 1.05892
 C739 C 0.40363 0.91493 1.08189
 C740 C 0.37838 0.89977 1.09419
 H741 H 0.25283 0.85777 1.20441
 H742 H 0.29931 0.88025 1.18334
 H743 H 0.27785 0.84412 1.09271
 H744 H 0.23141 0.82153 1.11369
 H745 H 0.33824 0.88276 1.14051
 H746 H 0.30182 0.88979 1.08041
 H747 H 0.32253 0.93473 1.05225
 H748 H 0.36642 0.96169 1.03120
 H749 H 0.42611 0.90876 1.09014
 H750 H 0.38218 0.88213 1.11129
 C751 C 0.74268 1.17344 1.13164
 C752 C 0.71624 1.16129 1.11864
 C753 C 0.70544 1.13290 1.12825
 C754 C 0.72103 1.11724 1.15196
 C755 C 0.74730 1.12957 1.16527
 C756 C 0.75859 1.15767 1.15503
 C757 C 0.67768 1.12057 1.11342
 C758 C 0.67309 1.09079 1.10945
 C759 C 0.64629 1.07850 1.09284
 C760 C 0.64925 1.05093 1.07689
 C761 C 0.62454 1.03866 1.06083
 C762 C 0.59612 1.05346 1.06085
 C763 C 0.59298 1.08079 1.07734
 C764 C 0.61783 1.09325 1.09311
 H765 H 0.75058 1.19526 1.12340
 H766 H 0.70445 1.17390 1.10063
 H767 H 0.71281 1.09567 1.16052
 H768 H 0.75893 1.11694 1.18335
 H769 H 0.66176 1.13665 1.10342
 H770 H 0.69058 1.07487 1.11658
 H771 H 0.67086 1.03900 1.07659
 H772 H 0.62764 1.01736 1.04868
 H773 H 0.57133 1.09262 1.07798
 H774 H 0.61453 1.11411 1.10592
 C775 C 0.76336 0.87543 0.83792
 C776 C 0.73938 0.89079 0.85243
 C777 C 0.72000 0.87558 0.87314
 C778 C 0.72546 0.84480 0.87971
 C779 C 0.74965 0.82951 0.86548
 C780 C 0.76880 0.84462 0.84433
 C781 C 0.69500 0.89264 0.88825
 C782 C 0.66867 0.87968 0.89667
 C783 C 0.64346 0.89686 0.91123
 C784 C 0.61340 0.88744 0.90614
 C785 C 0.58903 0.90307 0.91962
 C786 C 0.59429 0.92819 0.93899
 C787 C 0.62449 0.93722 0.94461
 C788 C 0.64883 0.92179 0.93081
 H789 H 0.77783 0.88781 0.82194
 H790 H 0.73578 0.91458 0.84725
 H791 H 0.71147 0.83262 0.89626
 H792 H 0.75331 0.80582 0.87105
 H793 H 0.69779 0.91690 0.89082
 H794 H 0.66463 0.85609 0.89111
 H795 H 0.60874 0.86809 0.89139
 H796 H 0.56609 0.89533 0.91500
 H797 H 0.62941 0.95616 0.95977
 H798 H 0.67180 0.92906 0.93601
   
