data_POSCAR
  _audit_creation_date              2014-09-24
  _audit_creation_method            'ToBaCCo'
  _symmetry_space_group_name_H-M    'P1'
  _symmetry_Int_Tables_number       1
  _symmetry_cell_setting            triclinic
  loop_
  _symmetry_equiv_pos_as_xyz
 x,y,z
_cell_length_a 44.5357
_cell_length_b 43.9110
_cell_length_c 42.3608
_cell_angle_alpha 87.926100
_cell_angle_beta 88.752800
_cell_angle_gamma 88.136700
loop_
  _atom_site_label
  _atom_site_type_symbol
  _atom_site_fract_x
  _atom_site_fract_y
  _atom_site_fract_z
N1 N 0.27087 0.22696 0.20807
 N2 N 0.25579 0.25080 0.19626
 C3 C 0.27102 0.26254 0.17118
 C4 C 0.29684 0.24490 0.16672
 C5 C 0.29608 0.22236 0.19048
 H6 H 0.26412 0.28277 0.15755
 H7 H 0.31317 0.20491 0.19558
 Cu8 Cu 0.21792 0.26483 0.21486
 Cu9 Cu 0.25735 0.20581 0.24697
 Cu10 Cu 0.21171 0.25304 0.29302
 N11 N 0.18582 0.28423 0.23914
 N12 N 0.18362 0.27995 0.26994
 C13 C 0.16097 0.29780 0.28115
 C14 C 0.14824 0.31399 0.25596
 C15 C 0.16459 0.30478 0.22958
 H16 H 0.15472 0.29946 0.30587
 H17 H 0.16212 0.31313 0.20543
 N18 N 0.23328 0.21632 0.31000
 N19 N 0.24971 0.19764 0.29243
 C20 C 0.25977 0.17387 0.31074
 C21 C 0.24897 0.17793 0.34127
 C22 C 0.23236 0.20497 0.33989
 H23 H 0.27371 0.15509 0.30238
 H24 H 0.21984 0.21520 0.35916
 H25 H 0.21382 0.22463 0.25606
 H26 H 0.24734 0.24835 0.26062
 N27 N 0.70089 -0.21488 0.20880
 N28 N 0.70987 -0.23820 0.19201
 C29 C 0.68855 -0.24389 0.17113
 C30 C 0.66494 -0.22292 0.17514
 C31 C 0.67351 -0.20499 0.19930
 H32 H 0.69022 -0.26180 0.15429
 H33 H 0.66095 -0.18581 0.20884
 Cu34 Cu 0.74860 -0.25878 0.19888
 Cu35 Cu 0.72594 -0.19810 0.24052
 Cu36 Cu 0.79531 -0.23402 0.25319
 N37 N 0.78672 -0.27978 0.20782
 N38 N 0.80503 -0.26985 0.22881
 C39 C 0.82940 -0.28873 0.23066
 C40 C 0.82604 -0.31185 0.20971
 C41 C 0.79878 -0.30542 0.19564
 H42 H 0.84777 -0.28603 0.24648
 H43 H 0.78841 -0.31872 0.17811
 N44 N 0.78129 -0.19756 0.27563
 N45 N 0.75455 -0.18438 0.27141
 C46 C 0.75125 -0.16073 0.29069
 C47 C 0.77721 -0.15895 0.30776
 C48 C 0.79578 -0.18252 0.29757
 H49 H 0.73154 -0.14578 0.29198
 H50 H 0.81808 -0.18840 0.30589
 H51 H 0.76671 -0.21244 0.22104
 H52 H 0.74931 -0.23846 0.25163
 N53 N 0.70668 0.21462 0.80397
 N54 N 0.71516 0.24056 0.81483
 C55 C 0.69763 0.24762 0.84006
 C56 C 0.67725 0.22468 0.84515
 C57 C 0.68370 0.20415 0.82191
 H58 H 0.69966 0.26772 0.85376
 H59 H 0.67221 0.18331 0.81816
 Cu60 Cu 0.74865 0.26192 0.79493
 Cu61 Cu 0.72537 0.19679 0.76693
 Cu62 Cu 0.78554 0.23409 0.73122
 N63 N 0.78213 0.28289 0.77476
 N64 N 0.79705 0.27181 0.75037
 C65 C 0.81933 0.29076 0.74181
 C66 C 0.81803 0.31501 0.76198
 C67 C 0.79421 0.30922 0.78242
 H68 H 0.83493 0.28724 0.72230
 H69 H 0.78641 0.32322 0.80160
 N70 N 0.77000 0.19565 0.71568
 N71 N 0.74686 0.18199 0.72932
 C72 C 0.74009 0.15785 0.71255
 C73 C 0.75983 0.15593 0.68728
 C74 C 0.77867 0.18019 0.68982
 H75 H 0.72153 0.14307 0.71771
 H76 H 0.79640 0.18680 0.67338
 H77 H 0.76757 0.21480 0.77189
 H78 H 0.74115 0.23686 0.74544
 N79 N 0.28129 -0.26002 0.80203
 N80 N 0.27371 -0.28746 0.81197
 C81 C 0.29004 -0.29600 0.83735
 C82 C 0.30884 -0.27268 0.84367
 C83 C 0.30271 -0.25013 0.82076
 H84 H 0.28859 -0.31769 0.85014
 H85 H 0.31335 -0.22843 0.81752
 Cu86 Cu 0.24377 -0.30987 0.79059
 Cu87 Cu 0.26378 -0.23993 0.76468
 Cu88 Cu 0.20335 -0.27481 0.73280
 N89 N 0.20651 -0.32618 0.77660
 N90 N 0.19049 -0.31239 0.75430
 C91 C 0.16606 -0.32880 0.74936
 C92 C 0.16701 -0.35429 0.76971
 C93 C 0.19295 -0.35181 0.78660
 H94 H 0.14922 -0.32274 0.73203
 H95 H 0.20135 -0.36758 0.80479
 N96 N 0.22004 -0.23676 0.71462
 N97 N 0.24303 -0.22343 0.72684
 C98 C 0.24995 -0.19879 0.70856
 C99 C 0.23037 -0.19658 0.68360
 C100 C 0.21174 -0.22095 0.68821
 H101 H 0.26835 -0.18409 0.71269
 H102 H 0.19391 -0.22704 0.67295
 H103 H 0.22304 -0.26047 0.77318
 H104 H 0.24870 -0.27784 0.74267
 N105 N 0.71691 -0.23330 0.80746
 N106 N 0.72954 -0.25981 0.81565
 C107 C 0.71309 -0.27275 0.83934
 C108 C 0.68920 -0.25312 0.84650
 C109 C 0.69233 -0.22831 0.82577
 H110 H 0.71781 -0.29497 0.85030
 H111 H 0.67725 -0.20863 0.82332
 Cu112 Cu 0.76574 -0.27518 0.79394
 Cu113 Cu 0.73160 -0.20820 0.77210
 Cu114 Cu 0.79314 -0.23633 0.73002
 N115 N 0.80017 -0.29068 0.76939
 N116 N 0.81006 -0.27582 0.74395
 C117 C 0.83280 -0.29208 0.73065
 C118 C 0.83772 -0.31842 0.74883
 C119 C 0.81661 -0.31683 0.77337
 H120 H 0.84498 -0.28525 0.70932
 H121 H 0.81297 -0.33367 0.79219
 N122 N 0.77310 -0.19672 0.71955
 N123 N 0.74955 -0.18604 0.73557
 C124 C 0.74021 -0.15926 0.72203
 C125 C 0.75886 -0.15267 0.69644
 C126 C 0.77951 -0.17690 0.69552
 H127 H 0.72090 -0.14571 0.72975
 H128 H 0.79730 -0.18029 0.67813
 H129 H 0.75035 -0.24436 0.74769
 H130 H 0.77591 -0.22376 0.77346
 N131 N 0.29802 0.22138 0.79190
 N132 N 0.28846 0.24737 0.80361
 C133 C 0.30788 0.25556 0.82557
 C134 C 0.33079 0.23350 0.82742
 C135 C 0.32386 0.21232 0.80569
 H136 H 0.30564 0.27603 0.83898
 H137 H 0.33668 0.19171 0.80047
 Cu138 Cu 0.25144 0.26748 0.78884
 Cu139 Cu 0.27636 0.20078 0.75989
 Cu140 Cu 0.21237 0.23789 0.73118
 N141 N 0.21481 0.28761 0.77304
 N142 N 0.19871 0.27505 0.75163
 C143 C 0.17466 0.29337 0.74504
 C144 C 0.17597 0.31891 0.76309
 C145 C 0.20175 0.31461 0.78043
 H146 H 0.15829 0.28915 0.72735
 H147 H 0.21045 0.33023 0.79688
 N148 N 0.22663 0.19764 0.71670
 N149 N 0.25128 0.18376 0.72747
 C150 C 0.25628 0.15775 0.71205
 C151 C 0.23368 0.15511 0.69051
 C152 C 0.21520 0.18067 0.69423
 H153 H 0.27527 0.14221 0.71583
 H154 H 0.19542 0.18682 0.68076
 H155 H 0.25803 0.24005 0.73996
 H156 H 0.23423 0.21948 0.77004
 N157 N 0.27707 -0.22901 0.20958
 N158 N 0.26680 -0.25550 0.20215
 C159 C 0.28298 -0.26636 0.17763
 C160 C 0.30445 -0.24556 0.16901
 C161 C 0.30015 -0.22202 0.18976
 H162 H 0.27963 -0.28797 0.16697
 H163 H 0.31339 -0.20191 0.19108
 Cu164 Cu 0.23358 -0.27387 0.22511
 Cu165 Cu 0.26100 -0.20707 0.24592
 Cu166 Cu 0.20067 -0.23960 0.28656
 N167 N 0.19393 -0.28485 0.24054
 N168 N 0.18134 -0.27182 0.26515
 C169 C 0.15538 -0.28544 0.27265
 C170 C 0.15132 -0.30790 0.25131
 C171 C 0.17622 -0.30693 0.23119
 H172 H 0.14084 -0.27986 0.29255
 H173 H 0.18174 -0.32199 0.21213
 N174 N 0.21818 -0.20128 0.29850
 N175 N 0.24139 -0.18897 0.28355
 C176 C 0.24871 -0.16376 0.29860
 C177 C 0.22884 -0.16005 0.32389
 C178 C 0.20976 -0.18403 0.32293
 H179 H 0.26712 -0.14931 0.29181
 H180 H 0.19149 -0.18889 0.33939
 H181 H 0.24541 -0.24399 0.27090
 H182 H 0.21814 -0.22403 0.24387
 N183 N 0.72081 0.24631 0.19552
 N184 N 0.73310 0.27092 0.18307
 C185 C 0.71691 0.28131 0.15825
 C186 C 0.69317 0.26226 0.15501
 C187 C 0.69641 0.24013 0.17899
 H188 H 0.72167 0.30159 0.14400
 H189 H 0.68192 0.22131 0.18455
 Cu190 Cu 0.76865 0.28757 0.20096
 Cu191 Cu 0.73697 0.22512 0.23309
 Cu192 Cu 0.77394 0.27499 0.27897
 N193 N 0.79825 0.30786 0.22513
 N194 N 0.79969 0.30322 0.25589
 C195 C 0.82067 0.32092 0.26727
 C196 C 0.83336 0.33729 0.24230
 C197 C 0.81858 0.32856 0.21577
 H198 H 0.82627 0.32181 0.29194
 H199 H 0.82184 0.33701 0.19168
 N200 N 0.75797 0.23627 0.29563
 N201 N 0.74523 0.21638 0.27798
 C202 C 0.74024 0.19077 0.29558
 C203 C 0.75054 0.19495 0.32571
 C204 C 0.76147 0.22397 0.32486
 H205 H 0.73074 0.17045 0.28679
 H206 H 0.77271 0.23469 0.34372
 H207 H 0.74027 0.26791 0.24694
 H208 H 0.77727 0.24739 0.24140
 C209 C 0.27696 0.00410 0.51224
 C210 C 0.27534 -0.02665 0.51087
 C211 C 0.27272 -0.04657 0.53976
 C212 C 0.27517 -0.04195 0.48030
 C213 C 0.27801 0.02421 0.48334
 C214 C 0.27628 0.01959 0.54270
 C215 C 0.29524 -0.04811 0.56245
 C216 C 0.29269 -0.06778 0.58904
 C217 C 0.26775 -0.08645 0.59334
 C218 C 0.24499 -0.08441 0.57068
 C219 C 0.24765 -0.06487 0.54408
 C220 C 0.29908 -0.06186 0.47214
 C221 C 0.29915 -0.07671 0.44353
 C222 C 0.27495 -0.07251 0.42300
 C223 C 0.25104 -0.05231 0.43112
 C224 C 0.25118 -0.03714 0.45958
 C225 C 0.25546 0.04686 0.47887
 C226 C 0.25584 0.06616 0.45200
 C227 C 0.27913 0.06350 0.42916
 C228 C 0.30156 0.04058 0.43351
 C229 C 0.30117 0.02124 0.46052
 C230 C 0.24983 0.02140 0.56123
 C231 C 0.24880 0.03846 0.58853
 C232 C 0.27434 0.05373 0.59771
 C233 C 0.30100 0.05092 0.57963
 C234 C 0.30183 0.03437 0.55210
 H235 H 0.31493 -0.03439 0.55935
 H236 H 0.31048 -0.06871 0.60612
 H237 H 0.22493 -0.09751 0.57330
 H238 H 0.22996 -0.06382 0.52689
 H239 H 0.31777 -0.06575 0.48789
 H240 H 0.31785 -0.09204 0.43772
 H241 H 0.23255 -0.02182 0.46559
 H242 H 0.23723 0.04931 0.49603
 H243 H 0.23749 0.08268 0.44901
 H244 H 0.31958 0.03789 0.41615
 H245 H 0.31895 0.00405 0.46369
 H246 H 0.22989 0.01017 0.55414
 H247 H 0.22812 0.03964 0.60240
 H248 H 0.32098 0.06231 0.58635
 H249 H 0.32237 0.03323 0.53794
 H250 H 0.23237 -0.04806 0.41546
 C251 C 0.77168 -0.01127 0.49400
 C252 C 0.77100 0.01969 0.49224
 C253 C 0.77686 0.03826 0.51988
 C254 C 0.76443 0.03705 0.46232
 C255 C 0.76617 -0.02929 0.46595
 C256 C 0.77758 -0.02903 0.52379
 C257 C 0.75535 0.06043 0.52895
 C258 C 0.76098 0.07967 0.55345
 C259 C 0.78840 0.07720 0.56937
 C260 C 0.81015 0.05531 0.55997
 C261 C 0.80438 0.03583 0.53549
 C262 C 0.73733 0.03389 0.44654
 C263 C 0.73084 0.05207 0.41957
 C264 C 0.75096 0.07416 0.40853
 C265 C 0.77841 0.07667 0.42391
 C266 C 0.78495 0.05840 0.45062
 C267 C 0.78633 -0.02911 0.44004
 C268 C 0.78112 -0.04684 0.41406
 C269 C 0.75558 -0.06487 0.41366
 C270 C 0.73524 -0.06449 0.43940
 C271 C 0.74071 -0.04718 0.46553
 C272 C 0.80060 -0.05157 0.52426
 C273 C 0.80505 -0.07034 0.55112
 C274 C 0.78634 -0.06732 0.57798
 C275 C 0.76369 -0.04411 0.57783
 C276 C 0.75928 -0.02525 0.55086
 H277 H 0.73422 0.06302 0.51678
 H278 H 0.74411 0.09695 0.55936
 H279 H 0.83155 0.05323 0.57166
 H280 H 0.82153 0.01930 0.52831
 H281 H 0.72095 0.01788 0.45551
 H282 H 0.70967 0.04961 0.40795
 H283 H 0.80602 0.06108 0.46237
 H284 H 0.80611 -0.01540 0.44008
 H285 H 0.79685 -0.04613 0.39423
 H286 H 0.71534 -0.07805 0.43950
 H287 H 0.72494 -0.04749 0.48537
 H288 H 0.81493 -0.05488 0.50360
 H289 H 0.82276 -0.08784 0.55060
 H290 H 0.74924 -0.04044 0.59825
 H291 H 0.74118 -0.00817 0.55086
 H292 H 0.79487 0.09276 0.41536
 C293 C 0.49366 0.24707 0.02944
 C294 C 0.49533 0.25276 -0.00228
 C295 C 0.52458 0.25581 -0.01927
 C296 C 0.46821 0.25448 -0.02208
 C297 C 0.46471 0.24124 0.04603
 C298 C 0.52084 0.24485 0.04919
 C299 C 0.53071 0.28284 -0.03647
 C300 C 0.55759 0.28548 -0.05383
 C301 C 0.57844 0.26087 -0.05490
 C302 C 0.57245 0.23389 -0.03719
 C303 C 0.54568 0.23139 -0.01960
 C304 C 0.44496 0.27618 -0.01700
 C305 C 0.42016 0.27804 -0.03681
 C306 C 0.41814 0.25835 -0.06209
 C307 C 0.44147 0.23636 -0.06674
 C308 C 0.46625 0.23469 -0.04710
 C309 C 0.44868 0.21511 0.04020
 C310 C 0.42293 0.20832 0.05825
 C311 C 0.41259 0.22779 0.08198
 C312 C 0.42859 0.25413 0.08752
 C313 C 0.45452 0.26065 0.06980
 C314 C 0.52646 0.21841 0.06794
 C315 C 0.55152 0.21601 0.08717
 C316 C 0.57153 0.23998 0.08815
 C317 C 0.56572 0.26671 0.06951
 C318 C 0.54055 0.26908 0.05024
 H319 H 0.51459 0.30185 -0.03651
 H320 H 0.56176 0.30650 -0.06713
 H321 H 0.58838 0.21475 -0.03684
 H322 H 0.54117 0.21028 -0.00660
 H323 H 0.44623 0.29190 0.00201
 H324 H 0.40259 0.29513 -0.03251
 H325 H 0.48394 0.21770 -0.05131
 H326 H 0.45661 0.19960 0.02231
 H327 H 0.41115 0.18775 0.05384
 H328 H 0.42173 0.26914 0.10625
 H329 H 0.46696 0.28063 0.07491
 H330 H 0.51146 0.19950 0.06759
 H331 H 0.55527 0.19528 0.10138
 H332 H 0.57999 0.28610 0.07016
 H333 H 0.53622 0.28996 0.03646
 H334 H 0.44101 0.22015 -0.08524
 C335 C 0.49204 0.77058 -0.01588
 C336 C 0.49084 0.76943 0.01625
 C337 C 0.51854 0.76584 0.03507
 C338 C 0.46216 0.77285 0.03447
 C339 C 0.46454 0.77134 -0.03519
 C340 C 0.52123 0.77208 -0.03339
 C341 C 0.53818 0.74050 0.03162
 C342 C 0.56388 0.73710 0.04994
 C343 C 0.57031 0.75878 0.07223
 C344 C 0.55060 0.78432 0.07540
 C345 C 0.52488 0.78760 0.05718
 C346 C 0.45477 0.75087 0.05794
 C347 C 0.42944 0.75515 0.07746
 C348 C 0.41107 0.78171 0.07401
 C349 C 0.41852 0.80370 0.05049
 C350 C 0.44376 0.79925 0.03074
 C351 C 0.46094 0.79364 -0.05947
 C352 C 0.43604 0.79377 -0.07892
 C353 C 0.41436 0.77138 -0.07485
 C354 C 0.41773 0.74925 -0.05013
 C355 C 0.44270 0.74916 -0.03063
 C356 C 0.53992 0.79679 -0.02990
 C357 C 0.56666 0.79895 -0.04758
 C358 C 0.57540 0.77627 -0.06874
 C359 C 0.55666 0.75144 -0.07213
 C360 C 0.52970 0.74951 -0.05473
 H361 H 0.53347 0.72325 0.01492
 H362 H 0.57868 0.71731 0.04686
 H363 H 0.55495 0.80212 0.09147
 H364 H 0.51002 0.80738 0.06004
 H365 H 0.46900 0.73061 0.06152
 H366 H 0.42501 0.73815 0.09596
 H367 H 0.44949 0.81681 0.01322
 H368 H 0.47751 0.81096 -0.06344
 H369 H 0.43396 0.81119 -0.09760
 H370 H 0.40124 0.73202 -0.04560
 H371 H 0.44520 0.73151 -0.01227
 H372 H 0.53348 0.81468 -0.01391
 H373 H 0.58051 0.81848 -0.04487
 H374 H 0.56226 0.73403 -0.08892
 H375 H 0.51532 0.73049 -0.05798
 H376 H 0.40494 0.82450 0.04763
 C377 C -0.01482 0.51178 0.21119
 C378 C 0.01565 0.50949 0.21066
 C379 C 0.03218 0.47967 0.21031
 C380 C 0.03411 0.53692 0.21000
 C381 C -0.03106 0.54162 0.21380
 C382 C -0.03371 0.48476 0.20915
 C383 C 0.02791 0.45746 0.23452
 C384 C 0.04465 0.42993 0.23447
 C385 C 0.06605 0.42435 0.21022
 C386 C 0.06979 0.44645 0.18582
 C387 C 0.05325 0.47396 0.18601
 C388 C 0.05323 0.54171 0.23505
 C389 C 0.07143 0.56702 0.23428
 C390 C 0.07107 0.58772 0.20814
 C391 C 0.05221 0.58261 0.18289
 C392 C 0.03363 0.55754 0.18392
 C393 C -0.05141 0.55131 0.19048
 C394 C -0.06830 0.57841 0.19349
 C395 C -0.06554 0.59607 0.22032
 C396 C -0.04458 0.58664 0.24327
 C397 C -0.02759 0.55954 0.24015
 C398 C -0.03099 0.46562 0.18334
 C399 C -0.05032 0.44138 0.18088
 C400 C -0.07254 0.43582 0.20420
 C401 C -0.07529 0.45523 0.22992
 C402 C -0.05605 0.47942 0.23231
 H403 H 0.01188 0.46159 0.25360
 H404 H 0.04061 0.41314 0.25326
 H405 H 0.08601 0.44265 0.16682
 H406 H 0.05684 0.49084 0.16714
 H407 H 0.05406 0.52577 0.25517
 H408 H 0.08638 0.56984 0.25369
 H409 H 0.01925 0.55387 0.16420
 H410 H -0.05421 0.53781 0.16990
 H411 H -0.08330 0.58535 0.17466
 H412 H -0.04186 0.59990 0.26403
 H413 H -0.01222 0.55221 0.25859
 H414 H -0.01431 0.46982 0.16484
 H415 H -0.04803 0.42703 0.16064
 H416 H -0.09281 0.45245 0.24778
 H417 H -0.05879 0.49425 0.25213
 H418 H 0.05187 0.59807 0.16237
 C419 C 0.00470 0.48401 0.74778
 C420 C -0.02589 0.48486 0.74735
 C421 C -0.04353 0.45713 0.74347
 C422 C -0.04360 0.51347 0.75292
 C423 C 0.02172 0.51256 0.74860
 C424 C 0.02289 0.45485 0.74768
 C425 C -0.03923 0.43890 0.71709
 C426 C -0.05658 0.41319 0.71379
 C427 C -0.07866 0.40537 0.73665
 C428 C -0.08239 0.42349 0.76334
 C429 C -0.06529 0.44921 0.76645
 C430 C -0.06394 0.52491 0.73028
 C431 C -0.08257 0.55033 0.73649
 C432 C -0.08146 0.56445 0.76574
 C433 C -0.06112 0.55287 0.78836
 C434 C -0.04215 0.52775 0.78192
 C435 C 0.04262 0.51609 0.77237
 C436 C 0.06033 0.54180 0.77215
 C437 C 0.05786 0.56434 0.74769
 C438 C 0.03636 0.56102 0.72436
 C439 C 0.01855 0.53535 0.72471
 C440 C 0.01589 0.43009 0.76825
 C441 C 0.03385 0.40336 0.76855
 C442 C 0.05986 0.40139 0.74941
 C443 C 0.06713 0.42618 0.72912
 C444 C 0.04873 0.45256 0.72815
 H445 H -0.02261 0.44472 0.69900
 H446 H -0.05295 0.39953 0.69319
 H447 H -0.09808 0.41780 0.78228
 H448 H -0.06870 0.46275 0.78718
 H449 H -0.06567 0.51385 0.70797
 H450 H -0.09857 0.55815 0.71888
 H451 H -0.02698 0.51885 0.79991
 H452 H 0.04529 0.49880 0.79108
 H453 H 0.07574 0.54374 0.79125
 H454 H 0.03379 0.57804 0.70537
 H455 H 0.00279 0.53289 0.70592
 H456 H -0.00319 0.43154 0.78445
 H457 H 0.02793 0.38451 0.78444
 H458 H 0.08687 0.42502 0.71377
 H459 H 0.05476 0.47132 0.71220
 H460 H -0.06010 0.56314 0.81117
 C461 C 0.32099 0.25163 0.14355
 C462 C 0.34255 0.23124 0.13585
 C463 C 0.36728 0.24009 0.11419
 C464 C 0.38630 0.21929 0.10195
 H465 H 0.34216 0.20814 0.14575
 H466 H 0.36995 0.26408 0.10825
 H467 H 0.32091 0.27424 0.13238
 H468 H 0.38225 0.19527 0.10626
 C469 C 0.63823 0.78068 0.15854
 C470 C 0.63169 0.76368 0.13415
 C471 C 0.60347 0.76922 0.11707
 C472 C 0.59798 0.75416 0.09099
 H473 H 0.64728 0.74601 0.12617
 H474 H 0.58728 0.78567 0.12627
 H475 H 0.62238 0.79856 0.16564
 H476 H 0.61445 0.73716 0.08317
 C477 C 0.65327 0.22171 -0.13059
 C478 C 0.64429 0.24440 -0.11207
 C479 C 0.61887 0.24028 -0.08967
 C480 C 0.60585 0.26390 -0.07505
 H481 H 0.65483 0.26630 -0.11423
 H482 H 0.60966 0.21781 -0.08658
 H483 H 0.64180 0.20029 -0.12882
 H484 H 0.61406 0.28659 -0.08005
 C485 C 0.33139 0.72669 -0.13131
 C486 C 0.34831 0.75047 -0.12591
 C487 C 0.37171 0.74837 -0.10178
 C488 C 0.38889 0.77215 -0.09694
 H489 H 0.34530 0.77157 -0.13969
 H490 H 0.37547 0.72685 -0.08902
 H491 H 0.33437 0.70578 -0.11717
 H492 H 0.38508 0.79292 -0.11113
 C493 C 0.12426 0.33784 0.25792
 C494 C 0.11402 0.35319 0.23234
 C495 C 0.09226 0.37897 0.23500
 C496 C 0.08497 0.39604 0.20934
 H497 H 0.12261 0.34757 0.20909
 H498 H 0.08374 0.38492 0.25817
 H499 H 0.11557 0.34357 0.28113
 H500 H 0.09518 0.39023 0.18676
 C501 C 0.14722 0.62169 0.77302
 C502 C 0.12204 0.62002 0.75653
 C503 C 0.10300 0.59324 0.76083
 C504 C 0.07719 0.59137 0.74544
 H505 H 0.11547 0.63808 0.73975
 H506 H 0.11096 0.57462 0.77615
 H507 H 0.15289 0.60339 0.78996
 H508 H 0.07051 0.61004 0.72938
 C509 C -0.15505 0.66292 0.20385
 C510 C -0.12881 0.65754 0.21816
 C511 C -0.11054 0.62991 0.21146
 C512 C -0.08409 0.62422 0.22525
 H513 H -0.12074 0.67321 0.23497
 H514 H -0.11953 0.61371 0.19579
 H515 H -0.16234 0.64691 0.18690
 H516 H -0.07637 0.64019 0.24201
 C517 C -0.16413 0.34052 0.76289
 C518 C -0.14019 0.34555 0.74397
 C519 C -0.12304 0.37337 0.74757
 C520 C -0.09680 0.37799 0.73236
 H521 H -0.13295 0.32926 0.72656
 H522 H -0.13247 0.39032 0.76317
 H523 H -0.17015 0.35705 0.78056
 H524 H -0.08847 0.36126 0.71582
 C525 C 0.25242 0.15803 0.36976
 C526 C 0.26674 0.13081 0.36994
 C527 C 0.26733 0.11172 0.39925
 C528 C 0.28001 0.08365 0.40029
 H529 H 0.27714 0.12226 0.34853
 H530 H 0.25693 0.12096 0.42032
 H531 H 0.24191 0.16596 0.39142
 H532 H 0.29178 0.07533 0.37949
 C533 C 0.75755 0.13411 0.66199
 C534 C 0.77884 0.12916 0.63995
 C535 C 0.77321 0.10777 0.61490
 C536 C 0.79486 0.09783 0.59511
 H537 H 0.79992 0.14078 0.64025
 H538 H 0.75063 0.09962 0.61294
 H539 H 0.73714 0.12129 0.66179
 H540 H 0.81787 0.10417 0.59843
 C541 C 0.22985 -0.17457 0.65645
 C542 C 0.24859 -0.15140 0.65327
 C543 C 0.24787 -0.13082 0.62499
 C544 C 0.26641 -0.10741 0.62168
 H545 H 0.26476 -0.14768 0.67135
 H546 H 0.23251 -0.13568 0.60655
 H547 H 0.21363 -0.17786 0.63826
 H548 H 0.28218 -0.10402 0.64029
 C549 C 0.78428 -0.13715 0.33195
 C550 C 0.76338 -0.11862 0.34476
 C551 C 0.77096 -0.09804 0.36985
 C552 C 0.74929 -0.08405 0.38678
 H553 H 0.74023 -0.11928 0.33754
 H554 H 0.79436 -0.09549 0.37543
 H555 H 0.80716 -0.13714 0.34018
 H556 H 0.72600 -0.08856 0.38223
 C557 C 0.66454 0.74118 -0.13043
 C558 C 0.64546 0.76347 -0.12131
 C559 C 0.61959 0.75732 -0.10003
 C560 C 0.60288 0.78042 -0.08850
 H561 H 0.64867 0.78669 -0.12990
 H562 H 0.61417 0.73393 -0.09401
 H563 H 0.66202 0.71816 -0.12086
 H564 H 0.60987 0.80359 -0.09340
 C565 C 0.35747 0.23184 -0.15260
 C566 C 0.36117 0.24996 -0.12839
 C567 C 0.38837 0.24626 -0.10922
 C568 C 0.39140 0.26146 -0.08265
 H569 H 0.34405 0.26698 -0.12235
 H570 H 0.40586 0.23070 -0.11739
 H571 H 0.37444 0.21434 -0.15768
 H572 H 0.37338 0.27717 -0.07565
 C573 C 0.32794 0.75005 0.14446
 C574 C 0.34547 0.77230 0.13342
 C575 C 0.36958 0.76566 0.11006
 C576 C 0.38534 0.78788 0.09589
 H577 H 0.34230 0.79523 0.14178
 H578 H 0.37442 0.74211 0.10445
 H579 H 0.33075 0.72748 0.13504
 H580 H 0.37900 0.81144 0.10018
 C581 C 0.66918 0.26635 0.13163
 C582 C 0.64545 0.24851 0.13167
 C583 C 0.62127 0.25390 0.10873
 C584 C 0.59725 0.23633 0.10981
 H585 H 0.64344 0.22999 0.14909
 H586 H 0.62346 0.27212 0.09104
 H587 H 0.67085 0.28505 0.11432
 H588 H 0.59655 0.21773 0.12736
 C589 C -0.14081 0.65860 0.74227
 C590 C -0.13517 0.63449 0.76173
 C591 C -0.11303 0.61049 0.75270
 C592 C -0.10259 0.58979 0.77402
 H593 H -0.14667 0.63230 0.78446
 H594 H -0.10500 0.61001 0.72838
 H595 H -0.12792 0.66082 0.72033
 H596 H -0.10923 0.59186 0.79865
 C597 C -0.14324 0.35987 0.24498
 C598 C -0.12993 0.37360 0.22003
 C599 C -0.10767 0.39696 0.22472
 C600 C -0.09351 0.41079 0.20029
 H601 H -0.13574 0.36806 0.19626
 H602 H -0.10295 0.40289 0.24866
 H603 H -0.13682 0.36540 0.26860
 H604 H -0.09719 0.40334 0.17659
 C605 C 0.15613 0.34638 0.76223
 C606 C 0.12777 0.34600 0.75264
 C607 C 0.10898 0.37418 0.75114
 C608 C 0.07901 0.37330 0.75074
 H609 H 0.11819 0.32473 0.74630
 H610 H 0.11977 0.39596 0.75118
 H611 H 0.16497 0.36736 0.77037
 H612 H 0.06821 0.35155 0.75328
 C613 C 0.12721 0.66995 0.25246
 C614 C 0.12189 0.65243 0.22821
 C615 C 0.09952 0.62854 0.23111
 C616 C 0.09148 0.61359 0.20586
 H617 H 0.13450 0.65527 0.20619
 H618 H 0.08984 0.62291 0.25420
 H619 H 0.11367 0.66786 0.27396
 H620 H 0.09983 0.62077 0.18262
 C621 C 0.75532 -0.12641 0.67400
 C622 C 0.77576 -0.12005 0.65137
 C623 C 0.77045 -0.09512 0.62771
 C624 C 0.79103 -0.08933 0.60498
 H625 H 0.79633 -0.13378 0.64969
 H626 H 0.74902 -0.08282 0.62814
 H627 H 0.73506 -0.11218 0.67595
 H628 H 0.81179 -0.10297 0.60494
 C629 C 0.22792 -0.13685 0.34813
 C630 C 0.25153 -0.12030 0.35448
 C631 C 0.25017 -0.09996 0.38140
 C632 C 0.27522 -0.08977 0.39363
 H633 H 0.27242 -0.12317 0.34117
 H634 H 0.22857 -0.09516 0.39274
 H635 H 0.20771 -0.13494 0.36276
 H636 H 0.29682 -0.09668 0.38343
 C637 C 0.75320 0.17317 0.35274
 C638 C 0.74472 0.14429 0.35240
 C639 C 0.75121 0.12370 0.37975
 C640 C 0.74298 0.09467 0.38129
 H641 H 0.73410 0.13568 0.33191
 H642 H 0.76323 0.13265 0.39919
 H643 H 0.76375 0.18117 0.37361
 H644 H 0.72928 0.08614 0.36292
 C645 C 0.23060 0.13170 0.66676
 C646 C 0.25230 0.11075 0.66097
 C647 C 0.24999 0.08943 0.63513
 C648 C 0.27409 0.07286 0.62574
 H649 H 0.27276 0.11015 0.67436
 H650 H 0.22912 0.08876 0.62255
 H651 H 0.21057 0.13272 0.65262
 H652 H 0.29526 0.07549 0.63738
   
