data_POSCAR
  _audit_creation_date              2014-09-24
  _audit_creation_method            'ToBaCCo'
  _symmetry_space_group_name_H-M    'P1'
  _symmetry_Int_Tables_number       1
  _symmetry_cell_setting            triclinic
  loop_
  _symmetry_equiv_pos_as_xyz
 x,y,z
_cell_length_a 32.2332
_cell_length_b 32.3462
_cell_length_c 43.1869
_cell_angle_alpha 89.486200
_cell_angle_beta 86.529900
_cell_angle_gamma 89.539600
loop_
  _atom_site_label
  _atom_site_type_symbol
  _atom_site_fract_x
  _atom_site_fract_y
  _atom_site_fract_z
C1 C -0.00406 0.50031 0.98482
 C2 C 0.00188 0.50012 1.01576
 C3 C 0.00309 0.53918 1.03341
 C4 C 0.00708 0.46103 1.03342
 C5 C -0.00977 0.46156 0.96749
 C6 C -0.00436 0.53946 0.96676
 C7 C 0.03810 0.54879 1.04937
 C8 C 0.03975 0.58563 1.06586
 C9 C 0.00593 0.61418 1.06737
 C10 C -0.02953 0.60325 1.05128
 C11 C -0.03079 0.56647 1.03468
 C12 C 0.03824 0.43230 1.02428
 C13 C 0.04211 0.39513 1.04064
 C14 C 0.01500 0.38612 1.06651
 C15 C -0.01556 0.41539 1.07598
 C16 C -0.01932 0.45258 1.05967
 C17 C -0.04138 0.43368 0.97678
 C18 C -0.04567 0.39675 0.96075
 C19 C -0.01848 0.38715 0.93509
 C20 C 0.01255 0.41558 0.92547
 C21 C 0.01670 0.45253 0.94142
 C22 C -0.04016 0.55168 0.95218
 C23 C -0.04086 0.58880 0.93542
 C24 C -0.00540 0.61403 0.93240
 C25 C 0.03066 0.60119 0.94676
 C26 C 0.03109 0.56434 0.96388
 H27 H 0.06473 0.52808 1.04846
 H28 H 0.06887 0.59183 1.07593
 H29 H -0.05771 0.62154 1.05236
 H30 H -0.05862 0.55897 1.02310
 H31 H 0.05935 0.43857 1.00435
 H32 H 0.06580 0.37309 1.03272
 H33 H -0.04331 0.47453 1.06723
 H34 H -0.06251 0.44041 0.99658
 H35 H -0.06974 0.37535 0.96876
 H36 H 0.03350 0.40930 0.90549
 H37 H 0.04107 0.47380 0.93376
 H38 H -0.06781 0.53279 0.95426
 H39 H -0.06940 0.59795 0.92521
 H40 H 0.05879 0.61927 0.94444
 H41 H 0.05918 0.55500 0.97470
 H42 H -0.03644 0.40959 1.09611
 C43 C 0.50122 -0.00250 0.48404
 C44 C 0.49891 -0.00105 0.51563
 C45 C 0.45849 0.00199 0.53390
 C46 C 0.53683 -0.00206 0.53356
 C47 C 0.54182 -0.00152 0.46591
 C48 C 0.46348 -0.00443 0.46597
 C49 C 0.43033 0.03427 0.52866
 C50 C 0.39225 0.03645 0.54589
 C51 C 0.38180 0.00658 0.56887
 C52 C 0.41041 -0.02534 0.57432
 C53 C 0.44843 -0.02747 0.55710
 C54 C 0.54354 0.02950 0.55469
 C55 C 0.57935 0.02940 0.57134
 C56 C 0.60908 -0.00246 0.56731
 C57 C 0.60189 -0.03449 0.54653
 C58 C 0.56599 -0.03439 0.52992
 C59 C 0.55319 -0.03413 0.44590
 C60 C 0.59169 -0.03402 0.42921
 C61 C 0.61923 -0.00095 0.43191
 C62 C 0.60739 0.03211 0.45151
 C63 C 0.56899 0.03182 0.46838
 C64 C 0.43320 -0.03487 0.47216
 C65 C 0.39739 -0.03550 0.45545
 C66 C 0.39145 -0.00605 0.43192
 C67 C 0.42242 0.02365 0.42526
 C68 C 0.45805 0.02440 0.44207
 H69 H 0.43791 0.05779 0.51127
 H70 H 0.37121 0.06181 0.54152
 H71 H 0.40311 -0.04911 0.59156
 H72 H 0.46981 -0.05255 0.56152
 H73 H 0.52121 0.05451 0.55803
 H74 H 0.58361 0.05409 0.58758
 H75 H 0.56103 -0.05944 0.51412
 H76 H 0.53244 -0.05995 0.44356
 H77 H 0.59979 -0.05959 0.41395
 H78 H 0.62810 0.05787 0.45414
 H79 H 0.56048 0.05750 0.48344
 H80 H 0.43717 -0.05795 0.49008
 H81 H 0.37407 -0.05864 0.46129
 H82 H 0.41926 0.04621 0.40686
 H83 H 0.48122 0.04787 0.43669
 H84 H 0.62430 -0.05933 0.54278
 C85 C 0.10491 -0.00081 0.25782
 H86 H 0.10807 0.00174 0.23279
 C87 C 0.14023 -0.00104 0.27499
 H88 H 0.17063 0.00094 0.26298
 C89 C 0.06126 -0.00675 0.30380
 H90 H 0.03043 -0.00838 0.31497
 C91 C 0.09578 -0.00736 0.32186
 H92 H 0.09113 -0.00938 0.34687
 N93 N 0.06644 -0.00394 0.27235
 C94 C -0.01212 -0.05661 0.20430
 H95 H -0.03601 -0.03303 0.20328
 C96 C -0.01424 -0.09223 0.18644
 H97 H -0.03955 -0.09540 0.17128
 C98 C 0.04998 -0.08068 0.22523
 H99 H 0.07456 -0.07645 0.24079
 C100 C 0.04892 -0.11689 0.20797
 H101 H 0.07278 -0.14017 0.21060
 Zn102 Zn 0.02039 -0.00281 0.24718
 N103 N 0.01994 -0.05124 0.22289
 C104 C 0.02484 0.04260 0.19020
 N105 N 0.02520 0.04507 0.22161
 C106 C 0.02938 0.08202 0.23582
 C107 C 0.03154 0.11863 0.21845
 C108 C 0.02679 0.07846 0.17193
 C109 C -0.04064 -0.03535 0.28927
 C110 C -0.07798 -0.03632 0.30745
 C111 C -0.09319 0.03284 0.28958
 C112 C -0.05575 0.03235 0.27156
 N113 N -0.03012 -0.00124 0.27199
 H114 H 0.02277 0.01293 0.17919
 H115 H 0.03020 0.08305 0.26081
 H116 H 0.03352 0.14784 0.23031
 H117 H 0.02613 0.07593 0.14698
 H118 H -0.01995 -0.06187 0.28886
 H119 H -0.08569 -0.06357 0.32129
 H120 H -0.11333 0.05973 0.28880
 H121 H -0.04750 0.05875 0.25710
 C122 C 0.01659 -0.12302 0.18811
 C123 C 0.13590 -0.00449 0.30745
 C124 C -0.10470 -0.00181 0.30782
 C125 C 0.02967 0.11717 0.18608
 C126 C -0.03068 0.08887 0.76502
 H127 H -0.03010 0.09105 0.73998
 C128 C -0.03379 0.12472 0.78280
 H129 H -0.03511 0.15448 0.77122
 C130 C -0.02857 0.04731 0.81036
 H131 H -0.02718 0.01712 0.82109
 C132 C -0.03150 0.08237 0.82903
 H133 H -0.03214 0.07872 0.85400
 N134 N -0.02713 0.05122 0.77891
 C135 C 0.04111 -0.02417 0.70946
 H136 H 0.02044 -0.05025 0.70848
 C137 C 0.07865 -0.02394 0.69153
 H138 H 0.08678 -0.05019 0.67696
 C139 C 0.05617 0.04091 0.73068
 H140 H 0.04770 0.06585 0.74631
 C141 C 0.09396 0.04246 0.71314
 H142 H 0.11368 0.06914 0.71501
 Zn143 Zn -0.02036 0.00467 0.75265
 N144 N 0.03043 0.00811 0.72833
 C145 C -0.06052 0.00513 0.69561
 N146 N -0.06600 0.00418 0.72709
 C147 C -0.10467 0.00358 0.74152
 C148 C -0.13981 0.00280 0.72418
 C149 C -0.09483 0.00437 0.67736
 C150 C 0.01172 -0.05000 0.79633
 C151 C 0.01443 -0.08643 0.81373
 C152 C -0.04396 -0.11308 0.78779
 C153 C -0.04601 -0.07589 0.77129
 N154 N -0.01866 -0.04509 0.77604
 H155 H -0.02959 0.00638 0.68456
 H156 H -0.10812 0.00349 0.76659
 H157 H -0.17031 0.00252 0.73614
 H158 H -0.08982 0.00429 0.65235
 H159 H 0.03378 -0.02546 0.79906
 H160 H 0.03860 -0.08983 0.82994
 H161 H -0.06609 -0.13723 0.78389
 H162 H -0.06916 -0.07195 0.75443
 C163 C 0.10567 0.00973 0.69322
 C164 C -0.03356 0.12176 0.81524
 C165 C -0.01365 -0.11851 0.80947
 C166 C -0.13515 0.00294 0.69163
 C167 C 0.01038 -0.27417 0.11745
 C168 C 0.03828 -0.30647 0.12275
 C169 C 0.03681 -0.34340 0.10635
 C170 C 0.00740 -0.34949 0.08363
 C171 C -0.02043 -0.31613 0.07858
 C172 C -0.01899 -0.27941 0.09527
 C173 C 0.01188 -0.23517 0.13512
 C174 C -0.02487 -0.21656 0.14758
 C175 C -0.02339 -0.18020 0.16471
 C176 C 0.01489 -0.16145 0.16957
 C177 C 0.05161 -0.17995 0.15678
 C178 C 0.05012 -0.21647 0.13987
 H179 H 0.05783 -0.36748 0.11318
 H180 H -0.04241 -0.31665 0.06072
 H181 H -0.05220 -0.16723 0.17466
 H182 H 0.08154 -0.16595 0.15954
 H183 H -0.04038 -0.25457 0.09027
 H184 H -0.05473 -0.23061 0.14460
 H185 H 0.06074 -0.30356 0.14026
 H186 H 0.07888 -0.22986 0.13014
 C187 C 0.02382 0.27023 0.11576
 C188 C 0.05992 0.29207 0.10611
 C189 C 0.05713 0.32959 0.09000
 C190 C 0.01818 0.34618 0.08340
 C191 C -0.01788 0.32432 0.09305
 C192 C -0.01509 0.28675 0.10900
 C193 C 0.02655 0.23052 0.13303
 C194 C 0.00093 0.19726 0.12626
 C195 C 0.00244 0.16032 0.14316
 C196 C 0.02951 0.15584 0.16731
 C197 C 0.05550 0.18893 0.17386
 C198 C 0.05412 0.22584 0.15684
 H199 H 0.08543 0.34591 0.08305
 H200 H -0.04830 0.33611 0.08800
 H201 H -0.01826 0.13554 0.13777
 H202 H 0.07695 0.18624 0.19214
 H203 H -0.04347 0.27086 0.11642
 H204 H -0.02030 0.19980 0.10782
 H205 H 0.09034 0.27992 0.11077
 H206 H 0.07400 0.25105 0.16274
 C207 C 0.26385 0.01055 0.62161
 C208 C 0.30047 -0.00005 0.63600
 C209 C 0.33870 -0.00101 0.61896
 C210 C 0.34124 0.00853 0.58709
 C211 C 0.30467 0.01938 0.57271
 C212 C 0.26641 0.02038 0.58978
 C213 C 0.22316 0.01099 0.63974
 C214 C 0.18730 -0.00415 0.62686
 C215 C 0.14919 -0.00441 0.64413
 C216 C 0.14605 0.01044 0.67469
 C217 C 0.18188 0.02576 0.68749
 C218 C 0.21995 0.02607 0.67022
 H219 H 0.36635 -0.00900 0.63081
 H220 H 0.30553 0.02648 0.54813
 H221 H 0.12209 -0.01598 0.63347
 H222 H 0.18066 0.03698 0.71108
 H223 H 0.23885 0.02912 0.57808
 H224 H 0.18880 -0.01639 0.60357
 H225 H 0.29952 -0.00824 0.66040
 H226 H 0.24687 0.03837 0.68069
 C227 C -0.28039 -0.00128 0.61881
 C228 C -0.30131 -0.03850 0.61421
 C229 C -0.33701 -0.03895 0.59738
 C230 C -0.35262 -0.00219 0.58478
 C231 C -0.33153 0.03497 0.58919
 C232 C -0.29585 0.03542 0.60601
 C233 C -0.24290 -0.00062 0.63718
 C234 C -0.20879 0.02432 0.62789
 C235 C -0.17380 0.02539 0.64547
 C236 C -0.17213 0.00157 0.67275
 C237 C -0.20617 -0.02353 0.68194
 C238 C -0.24114 -0.02461 0.66437
 H239 H -0.35275 -0.06801 0.59463
 H240 H -0.34248 0.06373 0.57946
 H241 H -0.14827 0.04534 0.63791
 H242 H -0.20566 -0.04264 0.70264
 H243 H -0.28071 0.06466 0.60940
 H244 H -0.20901 0.04282 0.60689
 H245 H -0.28993 -0.06737 0.62348
 H246 H -0.26708 -0.04380 0.67234
 C247 C -0.00736 -0.27165 0.87981
 C248 C 0.01566 -0.27506 0.90638
 C249 C 0.01610 -0.31192 0.92350
 C250 C -0.00602 -0.34658 0.91428
 C251 C -0.02878 -0.34326 0.88759
 C252 C -0.02969 -0.30624 0.87073
 C253 C -0.00824 -0.23225 0.86170
 C254 C -0.01031 -0.23269 0.82924
 C255 C -0.01214 -0.19577 0.81233
 C256 C -0.01125 -0.15757 0.82739
 C257 C -0.00852 -0.15690 0.85968
 C258 C -0.00736 -0.19382 0.87670
 H259 H 0.03349 -0.31305 0.94416
 H260 H -0.04569 -0.36941 0.87946
 H261 H -0.01371 -0.19703 0.78737
 H262 H -0.00823 -0.12776 0.87183
 H263 H -0.04832 -0.30469 0.85072
 H264 H -0.01009 -0.26158 0.81677
 H265 H 0.03373 -0.24934 0.91387
 H266 H -0.00657 -0.19216 0.90167
 C267 C -0.02830 0.27218 0.88655
 C268 C 0.01070 0.28731 0.89369
 C269 C 0.01379 0.32455 0.90947
 C270 C -0.02204 0.34744 0.91857
 C271 C -0.06110 0.33219 0.91166
 C272 C -0.06419 0.29501 0.89570
 C273 C -0.03127 0.23300 0.86923
 C274 C -0.05808 0.22990 0.84489
 C275 C -0.05931 0.19362 0.82762
 C276 C -0.03396 0.15959 0.83446
 C277 C -0.00780 0.16243 0.85923
 C278 C -0.00642 0.19875 0.87637
 H279 H 0.04427 0.33531 0.91477
 H280 H -0.08922 0.34934 0.91821
 H281 H -0.08005 0.19219 0.80885
 H282 H 0.01239 0.13689 0.86487
 H283 H -0.09467 0.28393 0.89071
 H284 H -0.07737 0.25591 0.83871
 H285 H 0.03892 0.27064 0.88665
 H286 H 0.01421 0.20008 0.89522
 C287 C -0.26210 -0.00145 0.38029
 C288 C -0.28680 0.03461 0.38195
 C289 C -0.32516 0.03486 0.39887
 C290 C -0.33983 -0.00102 0.41431
 C291 C -0.31522 -0.03705 0.41271
 C292 C -0.27673 -0.03724 0.39599
 C293 C -0.22140 -0.00179 0.36209
 C294 C -0.20835 -0.03675 0.34485
 C295 C -0.17031 -0.03691 0.32751
 C296 C -0.14460 -0.00203 0.32681
 C297 C -0.15751 0.03287 0.34406
 C298 C -0.19539 0.03294 0.36160
 H299 H -0.34375 0.06291 0.39939
 H300 H -0.32553 -0.06497 0.42478
 H301 H -0.16139 -0.06403 0.31408
 H302 H -0.13802 0.05998 0.34429
 H303 H -0.25819 -0.06531 0.39568
 H304 H -0.22790 -0.06375 0.34426
 H305 H -0.27685 0.06250 0.36970
 H306 H -0.20409 0.06008 0.37504
 C307 C 0.28117 -0.00582 0.38011
 C308 C 0.29966 -0.04332 0.38879
 C309 C 0.33533 -0.04347 0.40569
 C310 C 0.35315 -0.00610 0.41440
 C311 C 0.33426 0.03137 0.40602
 C312 C 0.29877 0.03150 0.38900
 C313 C 0.24388 -0.00554 0.36158
 C314 C 0.24091 0.02230 0.33662
 C315 C 0.20592 0.02256 0.31905
 C316 C 0.17302 -0.00482 0.32615
 C317 C 0.17591 -0.03256 0.35118
 C318 C 0.21106 -0.03303 0.36864
 H319 H 0.34942 -0.07284 0.41138
 H320 H 0.34667 0.06067 0.41289
 H321 H 0.20439 0.04453 0.30007
 H322 H 0.15118 -0.05425 0.35702
 H323 H 0.28478 0.06085 0.38308
 H324 H 0.26590 0.04357 0.33047
 H325 H 0.28704 -0.07255 0.38193
 H326 H 0.21238 -0.05459 0.38789
   
