data_POSCAR
  _audit_creation_date              2014-09-24
  _audit_creation_method            'ToBaCCo'
  _symmetry_space_group_name_H-M    'P1'
  _symmetry_Int_Tables_number       1
  _symmetry_cell_setting            triclinic
  loop_
  _symmetry_equiv_pos_as_xyz
 x,y,z
_cell_length_a 41.0030
_cell_length_b 40.7631
_cell_length_c 22.4675
_cell_angle_alpha 89.516500
_cell_angle_beta 90.534600
_cell_angle_gamma 89.930700
loop_
  _atom_site_label
  _atom_site_type_symbol
  _atom_site_fract_x
  _atom_site_fract_y
  _atom_site_fract_z
O1 O 0.22664 0.27692 0.19822
 O2 O 0.27838 0.21399 0.27157
 O3 O 0.22051 0.21370 0.22756
 O4 O 0.28666 0.27411 0.24076
 O5 O 0.26948 0.28710 0.33030
 O6 O 0.19603 0.23728 0.30285
 O7 O 0.25499 0.22576 0.35671
 O8 O 0.21341 0.29612 0.28640
 Cu9 Cu 0.25459 0.24335 0.22523
 Cu10 Cu 0.23170 0.26195 0.32879
 C11 C 0.21208 0.29799 0.23005
 C12 C 0.27526 0.20904 0.32712
 C13 C 0.19580 0.21671 0.26060
 C14 C 0.29004 0.29020 0.28860
 O15 O 0.78830 0.28347 0.28324
 O16 O 0.72419 0.22235 0.31621
 O17 O 0.78652 0.21998 0.29469
 O18 O 0.72638 0.28595 0.31088
 O19 O 0.71370 0.28284 0.21550
 O20 O 0.77515 0.21736 0.19871
 O21 O 0.71305 0.21922 0.22031
 O22 O 0.77551 0.28081 0.18787
 Cu23 Cu 0.75756 0.25333 0.31081
 Cu24 Cu 0.74317 0.24985 0.19605
 C25 C 0.79303 0.29232 0.22955
 C26 C 0.70757 0.21028 0.27356
 C27 C 0.79134 0.20747 0.24400
 C28 C 0.70930 0.29533 0.26650
 O29 O 0.78996 0.72093 0.71104
 O30 O 0.72746 0.78518 0.69240
 O31 O 0.78993 0.78463 0.71568
 O32 O 0.72762 0.72176 0.68658
 O33 O 0.71687 0.71899 0.78248
 O34 O 0.77968 0.78151 0.81165
 O35 O 0.71697 0.78253 0.78841
 O36 O 0.77924 0.71797 0.80693
 Cu37 Cu 0.75984 0.75342 0.69185
 Cu38 Cu 0.74715 0.75000 0.80699
 C39 C 0.79546 0.70858 0.76228
 C40 C 0.71122 0.79458 0.73704
 C41 C 0.79584 0.79364 0.76872
 C42 C 0.71128 0.70988 0.72940
 O43 O 0.20994 0.78312 0.70597
 O44 O 0.27236 0.72006 0.67873
 O45 O 0.21011 0.71937 0.70271
 O46 O 0.27212 0.78354 0.68193
 O47 O 0.28360 0.78181 0.77800
 O48 O 0.22189 0.71717 0.79853
 O49 O 0.28405 0.71828 0.77471
 O50 O 0.22153 0.78113 0.80198
 Cu51 Cu 0.23990 0.75170 0.68276
 Cu52 Cu 0.25384 0.74939 0.79794
 C53 C 0.20498 0.79287 0.75869
 C54 C 0.28921 0.70870 0.72197
 C55 C 0.20522 0.70726 0.75419
 C56 C 0.28871 0.79346 0.72629
 C57 C 1.02861 0.05491 0.09268
 C58 C 0.99787 0.06652 0.11038
 C59 C 0.96880 0.05305 0.08872
 C60 C 0.96989 0.02413 0.05474
 C61 C 1.00038 0.01166 0.03628
 C62 C 1.02966 0.02833 0.05175
 C63 C 1.05872 0.01837 0.02425
 C64 C 1.05993 -0.01004 -0.00971
 C65 C 1.03185 -0.02903 -0.01943
 C66 C 1.00152 -0.01724 0.00133
 C67 C 0.94122 0.00729 0.03911
 C68 C 0.94240 -0.02129 0.00596
 C69 C 0.97234 -0.03436 -0.01250
 C70 C 0.97385 -0.06388 -0.04508
 C71 C 1.00406 -0.07557 -0.06405
 C72 C 1.03308 -0.05891 -0.05108
 H73 H 1.08083 0.03261 0.02779
 H74 H 1.08307 -0.01678 -0.02891
 H75 H 0.91754 0.01574 0.05340
 H76 H 0.91949 -0.03294 -0.00520
 H77 H 0.99616 0.08700 0.14048
 H78 H 1.00510 -0.09881 -0.08713
 C79 C 0.47209 0.44145 0.44361
 C80 C 0.50196 0.42666 0.43061
 C81 C 0.53158 0.44260 0.44140
 C82 C 0.53156 0.47467 0.46505
 C83 C 0.50146 0.49032 0.47733
 C84 C 0.47161 0.47377 0.46623
 C85 C 0.44211 0.49015 0.47731
 C86 C 0.44186 0.52161 0.50080
 C87 C 0.47112 0.53829 0.51296
 C88 C 0.50121 0.52256 0.50097
 C89 C 0.56080 0.49163 0.47615
 C90 C 0.56056 0.52294 0.50034
 C91 C 0.53105 0.53893 0.51290
 C92 C 0.53057 0.57068 0.53785
 C93 C 0.50072 0.58560 0.55041
 C94 C 0.47110 0.57014 0.53751
 H95 H 0.41880 0.47888 0.46772
 H96 H 0.41840 0.53263 0.50961
 H97 H 0.58425 0.48088 0.46632
 H98 H 0.58385 0.53443 0.50921
 H99 H 0.50223 0.40178 0.41381
 H100 H 0.50053 0.61006 0.56909
 C101 C -0.02885 0.42424 0.01662
 C102 C 0.00044 0.40716 0.02468
 C103 C 0.03043 0.42144 0.01079
 C104 C 0.03142 0.45393 -0.01172
 C105 C 0.00189 0.47161 -0.02022
 C106 C -0.02839 0.45667 -0.00629
 C107 C -0.05732 0.47466 -0.01502
 C108 C -0.05664 0.50650 -0.03774
 C109 C -0.02694 0.52195 -0.05123
 C110 C 0.00263 0.50433 -0.04251
 C111 C 0.06108 0.46903 -0.02666
 C112 C 0.06181 0.50110 -0.04843
 C113 C 0.03292 0.51933 -0.05608
 C114 C 0.03340 0.55199 -0.07803
 C115 C 0.00400 0.56875 -0.08749
 C116 C -0.02600 0.55440 -0.07399
 H117 H -0.08087 0.46430 -0.00448
 H118 H -0.07974 0.51884 -0.04471
 H119 H 0.08403 0.45609 -0.02197
 H120 H 0.08529 0.51135 -0.05981
 H121 H -0.00009 0.38233 0.04248
 H122 H 0.00454 0.59386 -0.10389
 C123 C 0.46998 0.94004 0.55748
 C124 C 0.49974 0.92600 0.57511
 C125 C 0.52938 0.94184 0.56445
 C126 C 0.52936 0.97352 0.53819
 C127 C 0.49943 0.98808 0.51992
 C128 C 0.46963 0.97120 0.52908
 C129 C 0.44032 0.98598 0.50981
 C130 C 0.44037 1.01602 0.47989
 C131 C 0.46961 1.03308 0.47012
 C132 C 0.49937 1.01933 0.49141
 C133 C 0.55852 0.99098 0.52979
 C134 C 0.55845 1.02171 0.50245
 C135 C 0.52917 1.03636 0.48286
 C136 C 0.52895 1.06719 0.45342
 C137 C 0.49956 1.07982 0.43097
 C138 C 0.47008 1.06320 0.43846
 H139 H 0.41699 0.97434 0.51716
 H140 H 0.41718 1.02577 0.46463
 H141 H 0.58176 0.98108 0.54447
 H142 H 0.58173 1.03360 0.49605
 H143 H 0.49992 0.90162 0.59485
 H144 H 0.49962 1.10308 0.40710
 C145 C 1.16988 0.16714 0.22293
 C146 C 1.14162 0.15047 0.20470
 C147 C 1.11125 0.16688 0.20523
 C148 C 1.10895 0.19783 0.23164
 C149 C 1.13676 0.21297 0.25504
 C150 C 1.16768 0.19864 0.24783
 C151 C 1.08375 0.15202 0.17951
 C152 C 1.08558 0.11969 0.15878
 C153 C 1.11477 0.10169 0.16640
 C154 C 1.14307 0.11761 0.18661
 C155 C 1.11485 0.06800 0.15475
 C156 C 1.08649 0.05257 0.13427
 C157 C 1.05852 0.07099 0.11863
 C158 C 1.05844 0.10481 0.13189
 H159 H 1.19348 0.15531 0.21914
 H160 H 1.08568 0.21035 0.23405
 H161 H 1.13435 0.23716 0.27418
 H162 H 1.06082 0.16528 0.17692
 H163 H 1.16596 0.10430 0.18945
 H164 H 1.13653 0.05339 0.16320
 H165 H 1.08672 0.02615 0.12996
 H166 H 1.03728 0.11980 0.12166
 C167 C 0.67738 0.67702 0.65823
 C168 C 0.65102 0.65613 0.64602
 C169 C 0.63204 0.64372 0.69335
 C170 C 0.64009 0.65202 0.75209
 C171 C 0.66625 0.67298 0.76385
 C172 C 0.68496 0.68596 0.71711
 C173 C 0.60507 0.62364 0.68120
 C174 C 0.59670 0.61599 0.62226
 C175 C 0.61592 0.62807 0.57491
 C176 C 0.64301 0.64796 0.58712
 C177 C 0.60741 0.62042 0.51601
 C178 C 0.57989 0.60134 0.50405
 C179 C 0.56065 0.58943 0.55077
 C180 C 0.56913 0.59679 0.60979
 H181 H 0.69157 0.68682 0.62171
 H182 H 0.62586 0.64267 0.78892
 H183 H 0.67154 0.67940 0.80960
 H184 H 0.59037 0.61434 0.71750
 H185 H 0.65758 0.65744 0.55079
 H186 H 0.62182 0.62951 0.47922
 H187 H 0.57334 0.59607 0.45830
 H188 H 0.55406 0.58774 0.64577
 C189 C -0.17512 0.32489 0.15520
 C190 C -0.14843 0.34461 0.13985
 C191 C -0.12663 0.35535 0.18470
 C192 C -0.13230 0.34665 0.24426
 C193 C -0.15886 0.32682 0.25914
 C194 C -0.18030 0.31541 0.21475
 C195 C -0.09926 0.37411 0.16918
 C196 C -0.09334 0.38203 0.10932
 C197 C -0.11544 0.37167 0.06456
 C198 C -0.14290 0.35315 0.08017
 C199 C -0.10941 0.37956 0.00476
 C200 C -0.08149 0.39714 -0.01073
 C201 C -0.05935 0.40728 0.03334
 C202 C -0.06538 0.39974 0.09330
 H203 H -0.19146 0.31636 0.12043
 H204 H -0.11589 0.35474 0.27924
 H205 H -0.16227 0.31992 0.30531
 H206 H -0.08236 0.38211 0.20351
 H207 H -0.15968 0.34494 0.04577
 H208 H -0.12608 0.37179 -0.03007
 H209 H -0.07688 0.40258 -0.05718
 H210 H -0.04809 0.40743 0.12723
 C211 C 0.32338 0.82820 0.65959
 C212 C 0.34945 0.84992 0.65070
 C213 C 0.36695 0.86212 0.70029
 C214 C 0.35784 0.85265 0.75791
 C215 C 0.33206 0.83078 0.76635
 C216 C 0.31474 0.81813 0.71737
 C217 C 0.39355 0.88317 0.69150
 C218 C 0.40309 0.89190 0.63370
 C219 C 0.38543 0.87986 0.58408
 C220 C 0.35863 0.85910 0.59292
 C221 C 0.39522 0.88839 0.52634
 C222 C 0.42247 0.90834 0.51777
 C223 C 0.44007 0.92042 0.56675
 C224 C 0.43032 0.91210 0.62464
 H225 H 0.31031 0.81858 0.62138
 H226 H 0.37095 0.86181 0.79643
 H227 H 0.32590 0.82351 0.81133
 H228 H 0.40709 0.89237 0.72956
 H229 H 0.34524 0.84972 0.55484
 H230 H 0.38207 0.87929 0.48783
 H231 H 0.43009 0.91418 0.47288
 H232 H 0.44417 0.92115 0.66242
 C233 C -0.17062 0.67140 -0.17267
 C234 C -0.14476 0.64917 -0.16452
 C235 C -0.12667 0.63873 -0.21421
 C236 C -0.13503 0.65040 -0.27120
 C237 C -0.16067 0.67267 -0.27889
 C238 C -0.17855 0.68361 -0.22976
 C239 C -0.10029 0.61718 -0.20608
 C240 C -0.09158 0.60612 -0.14881
 C241 C -0.10984 0.61632 -0.09913
 C242 C -0.13639 0.63767 -0.10734
 C243 C -0.10092 0.60535 -0.04190
 C244 C -0.07393 0.58480 -0.03385
 C245 C -0.05568 0.57464 -0.08291
 C246 C -0.06458 0.58536 -0.14030
 H247 H -0.18416 0.67963 -0.13435
 H248 H -0.12148 0.64260 -0.30979
 H249 H -0.16626 0.68161 -0.32335
 H250 H -0.08630 0.60935 -0.24418
 H251 H -0.15024 0.64566 -0.06920
 H252 H -0.11457 0.61299 -0.00333
 H253 H -0.06700 0.57703 0.01074
 H254 H -0.05026 0.57773 -0.17809
 C255 C 0.31872 1.16590 0.32506
 C256 C 0.34172 1.14580 0.35418
 C257 C 0.34232 1.14396 0.41705
 C258 C 0.31915 1.16148 0.44957
 C259 C 0.29647 1.18169 0.42021
 C260 C 0.29646 1.18464 0.35779
 C261 C 0.36663 1.12546 0.44634
 C262 C 0.39059 1.10918 0.41348
 C263 C 0.38939 1.11039 0.35049
 C264 C 0.36483 1.12844 0.32132
 C265 C 0.41340 1.09435 0.31760
 C266 C 0.43901 1.07816 0.34672
 C267 C 0.44083 1.07742 0.40907
 C268 C 0.41637 1.09258 0.44243
 H269 H 0.31893 1.16781 0.27690
 H270 H 0.31911 1.16025 0.49776
 H271 H 0.27957 1.19577 0.44656
 H272 H 0.36742 1.12448 0.49459
 H273 H 0.36429 1.12978 0.27307
 H274 H 0.41282 1.09501 0.26938
 H275 H 0.45788 1.06669 0.32061
 H276 H 0.41804 1.09226 0.49062
 C277 C 1.17531 -0.16940 -0.17273
 C278 C 1.14992 -0.14728 -0.16116
 C279 C 1.12823 -0.13786 -0.20755
 C280 C 1.13277 -0.15016 -0.26495
 C281 C 1.15808 -0.17218 -0.27610
 C282 C 1.17935 -0.18235 -0.23005
 C283 C 1.10203 -0.11681 -0.19559
 C284 C 1.09704 -0.10534 -0.13767
 C285 C 1.11913 -0.11424 -0.09153
 C286 C 1.14552 -0.13499 -0.10365
 C287 C 1.11393 -0.10296 -0.03360
 C288 C 1.08655 -0.08392 -0.02104
 C289 C 1.06418 -0.07541 -0.06630
 C290 C 1.06977 -0.08589 -0.12474
 H291 H 1.19161 -0.17688 -0.13684
 H292 H 1.11646 -0.14311 -0.30108
 H293 H 1.16065 -0.18168 -0.32067
 H294 H 1.08515 -0.10994 -0.23103
 H295 H 1.16220 -0.14213 -0.06807
 H296 H 1.13056 -0.10959 0.00229
 H297 H 1.08226 -0.07661 0.02446
 H298 H 1.05235 -0.07962 -0.15965
 C299 C 0.67726 0.33242 0.33224
 C300 C 0.65110 0.35385 0.34188
 C301 C 0.63090 0.36363 0.29355
 C302 C 0.63762 0.35219 0.23625
 C303 C 0.66359 0.33060 0.22711
 C304 C 0.68343 0.32020 0.27505
 C305 C 0.60401 0.38414 0.30349
 C306 C 0.59689 0.39469 0.36125
 C307 C 0.61736 0.38519 0.40946
 C308 C 0.64442 0.36500 0.39939
 C309 C 0.61007 0.39554 0.46721
 C310 C 0.58245 0.41469 0.47734
 C311 C 0.56196 0.42412 0.42985
 C312 C 0.56928 0.41410 0.37185
 H313 H 0.69232 0.32464 0.36970
 H314 H 0.62246 0.35949 0.19865
 H315 H 0.66779 0.32161 0.18261
 H316 H 0.58834 0.39142 0.26650
 H317 H 0.65993 0.35750 0.43646
 H318 H 0.62543 0.38840 0.50463
 H319 H 0.57678 0.42188 0.52238
 H320 H 0.55322 0.42113 0.33529
 C321 C 0.82915 -0.17486 -0.16116
 C322 C 0.85522 -0.15346 -0.14970
 C323 C 0.87290 -0.13984 -0.19761
 C324 C 0.86412 -0.14775 -0.25615
 C325 C 0.83844 -0.16940 -0.26725
 C326 C 0.82072 -0.18345 -0.22000
 C327 C 0.89930 -0.11887 -0.18628
 C328 C 0.90851 -0.11165 -0.12755
 C329 C 0.89083 -0.12529 -0.07958
 C330 C 0.86419 -0.14593 -0.09097
 C331 C 0.90035 -0.11838 -0.02091
 C332 C 0.92724 -0.09826 -0.00982
 C333 C 0.94471 -0.08435 -0.05715
 C334 C 0.93537 -0.09127 -0.11596
 H335 H 0.81595 -0.18534 -0.12398
 H336 H 0.87739 -0.13751 -0.29341
 H337 H 0.83268 -0.17527 -0.31309
 H338 H 0.91290 -0.10849 -0.22309
 H339 H 0.85072 -0.15645 -0.05414
 H340 H 0.88721 -0.12876 0.01637
 H341 H 0.93455 -0.09358 0.03577
 H342 H 0.94911 -0.08083 -0.15250
 C343 C 0.32521 0.32671 0.35133
 C344 C 0.35226 0.34743 0.35847
 C345 C 0.37243 0.35442 0.30924
 C346 C 0.36525 0.34049 0.25385
 C347 C 0.33846 0.31966 0.24725
 C348 C 0.31819 0.31256 0.29580
 C349 C 0.39956 0.37500 0.31623
 C350 C 0.40700 0.38841 0.37200
 C351 C 0.38694 0.38128 0.42134
 C352 C 0.35961 0.36099 0.41418
 C353 C 0.39479 0.39429 0.47724
 C354 C 0.42233 0.41404 0.48430
 C355 C 0.44212 0.42161 0.43541
 C356 C 0.43443 0.40858 0.37939
 H357 H 0.30986 0.32133 0.38921
 H358 H 0.38045 0.34555 0.21567
 H359 H 0.33359 0.30917 0.20396
 H360 H 0.41501 0.38034 0.27844
 H361 H 0.34424 0.35554 0.45203
 H362 H 0.37984 0.38889 0.51561
 H363 H 0.42838 0.42335 0.52804
 H364 H 0.44995 0.41405 0.34178
 C365 C 0.17544 0.66915 -0.18126
 C366 C 0.15017 0.64639 -0.17277
 C367 C 0.13000 0.63750 -0.22137
 C368 C 0.13593 0.65087 -0.27786
 C369 C 0.16115 0.67341 -0.28606
 C370 C 0.18097 0.68326 -0.23783
 C371 C 0.10392 0.61580 -0.21262
 C372 C 0.09766 0.60294 -0.15578
 C373 C 0.11829 0.61121 -0.10736
 C374 C 0.14446 0.63281 -0.11620
 C375 C 0.11193 0.59827 -0.05058
 C376 C 0.08489 0.57807 -0.04151
 C377 C 0.06399 0.57027 -0.08911
 C378 C 0.07062 0.58254 -0.14626
 H379 H 0.19048 0.67611 -0.14348
 H380 H 0.12081 0.64419 -0.31566
 H381 H 0.16468 0.68352 -0.33028
 H382 H 0.08820 0.60935 -0.24981
 H383 H 0.16000 0.63947 -0.07890
 H384 H 0.12747 0.60434 -0.01298
 H385 H 0.07977 0.56913 0.00297
 H386 H 0.05429 0.57673 -0.18291
 C387 C 0.67462 1.17818 0.34358
 C388 C 0.64870 1.15644 0.35441
 C389 C 0.63092 1.14329 0.30595
 C390 C 0.63940 1.15182 0.24770
 C391 C 0.66489 1.17366 0.23725
 C392 C 0.68274 1.18736 0.28488
 C393 C 0.60463 1.12216 0.31637
 C394 C 0.59553 1.11429 0.37468
 C395 C 0.61331 1.12725 0.42334
 C396 C 0.63992 1.14809 0.41288
 C397 C 0.60376 1.11953 0.48163
 C398 C 0.57660 1.09957 0.49154
 C399 C 0.55889 1.08669 0.44337
 C400 C 0.56853 1.09406 0.38506
 H401 H 0.68796 1.18836 0.38099
 H402 H 0.62605 1.14191 0.21010
 H403 H 0.67042 1.17992 0.19149
 H404 H 0.59095 1.11224 0.27909
 H405 H 0.65346 1.15818 0.45017
 H406 H 0.61700 1.12931 0.51948
 H407 H 0.56913 1.09441 0.53678
 H408 H 0.55467 1.08431 0.34787
 C409 C 0.17663 0.31979 0.14730
 C410 C 0.15420 0.34321 0.12557
 C411 C 0.14851 0.37214 0.15834
 C412 C 0.16570 0.37745 0.21152
 C413 C 0.18720 0.35366 0.23360
 C414 C 0.19248 0.32447 0.20229
 C415 C 0.12483 0.39469 0.13879
 C416 C 0.10594 0.38824 0.08797
 C417 C 0.11183 0.35955 0.05465
 C418 C 0.13629 0.33748 0.07314
 C419 C 0.09229 0.35282 0.00465
 C420 C 0.06639 0.37362 -0.01079
 C421 C 0.06012 0.40176 0.02274
 C422 C 0.08028 0.40931 0.07143
 H423 H 0.18035 0.29717 0.12321
 H424 H 0.16170 0.39949 0.23709
 H425 H 0.19932 0.35784 0.27590
 H426 H 0.12024 0.41663 0.16444
 H427 H 0.14049 0.31527 0.04807
 H428 H 0.09639 0.33096 -0.02137
 H429 H 0.05078 0.36747 -0.04820
 H430 H 0.07505 0.43084 0.09774
 C431 C 0.67753 0.83165 0.67159
 C432 C 0.65087 0.85276 0.66243
 C433 C 0.63118 0.86166 0.71105
 C434 C 0.63890 0.84974 0.76818
 C435 C 0.66539 0.82856 0.77688
 C436 C 0.68473 0.81899 0.72864
 C437 C 0.60383 0.88186 0.70160
 C438 C 0.59582 0.89307 0.64406
 C439 C 0.61584 0.88450 0.59560
 C440 C 0.64327 0.86452 0.60515
 C441 C 0.60780 0.89560 0.53811
 C442 C 0.57994 0.91467 0.52847
 C443 C 0.55985 0.92321 0.57615
 C444 C 0.56784 0.91234 0.63392
 H445 H 0.69222 0.82453 0.63395
 H446 H 0.62415 0.85637 0.80601
 H447 H 0.67038 0.81923 0.82131
 H448 H 0.58855 0.88846 0.73882
 H449 H 0.65841 0.85773 0.56786
 H450 H 0.62281 0.88919 0.50050
 H451 H 0.57376 0.92251 0.48356
 H452 H 0.55214 0.91870 0.67064
 C453 C 0.82405 0.16922 0.18125
 C454 C 0.84926 0.14625 0.17476
 C455 C 0.86700 0.13523 0.22540
 C456 C 0.85888 0.14703 0.28175
 C457 C 0.83393 0.17008 0.28779
 C458 C 0.81649 0.18167 0.23764
 C459 C 0.89296 0.11313 0.21880
 C460 C 0.90171 0.10228 0.16206
 C461 C 0.88370 0.11303 0.11150
 C462 C 0.85745 0.13472 0.11823
 C463 C 0.89275 0.10259 0.05476
 C464 C 0.91990 0.08237 0.04793
 C465 C 0.93812 0.07170 0.09771
 C466 C 0.92875 0.08155 0.15482
 H467 H 0.81082 0.17791 0.14219
 H468 H 0.87215 0.13881 0.32107
 H469 H 0.82856 0.17914 0.33180
 H470 H 0.90674 0.10494 0.25761
 H471 H 0.84387 0.14316 0.07935
 H472 H 0.87933 0.11069 0.01555
 H473 H 0.92720 0.07558 0.00348
 H474 H 0.94294 0.07363 0.19330
 C475 C 0.32308 0.67547 0.65218
 C476 C 0.34967 0.65475 0.64103
 C477 C 0.36903 0.64296 0.68906
 C478 C 0.36113 0.65163 0.74740
 C479 C 0.33476 0.67241 0.75809
 C480 C 0.31568 0.68483 0.71067
 C481 C 0.39625 0.62313 0.67798
 C482 C 0.40450 0.61510 0.61944
 C483 C 0.38488 0.62651 0.57140
 C484 C 0.35754 0.64617 0.58253
 C485 C 0.39326 0.61847 0.51290
 C486 C 0.42105 0.59968 0.50201
 C487 C 0.44071 0.58848 0.54941
 C488 C 0.43236 0.59621 0.60804
 H489 H 0.30860 0.68485 0.61515
 H490 H 0.37564 0.64274 0.78474
 H491 H 0.32961 0.67914 0.80357
 H492 H 0.41125 0.61432 0.71482
 H493 H 0.34268 0.65515 0.54566
 H494 H 0.37854 0.62703 0.47558
 H495 H 0.42749 0.59412 0.45654
 H496 H 0.44773 0.58770 0.64456
   
