data_POSCAR
  _audit_creation_date              2014-09-24
  _audit_creation_method            'ToBaCCo'
  _symmetry_space_group_name_H-M    'P1'
  _symmetry_Int_Tables_number       1
  _symmetry_cell_setting            triclinic
  loop_
  _symmetry_equiv_pos_as_xyz
 x,y,z
_cell_length_a 13.3086
_cell_length_b 13.3918
_cell_length_c 13.1829
_cell_angle_alpha 89.999900
_cell_angle_beta 90.378300
_cell_angle_gamma 120.204500
loop_
  _atom_site_label
  _atom_site_type_symbol
  _atom_site_fract_x
  _atom_site_fract_y
  _atom_site_fract_z
O1 O 0.35839 0.49209 0.33432
 O2 O 0.16716 0.49618 0.36407
 C3 C 0.11537 0.55129 0.38351
 O4 O 0.13059 0.63910 0.33393
 O5 O 0.32672 0.82993 0.36496
 C6 C 0.43446 0.88222 0.38472
 O7 O 0.50733 0.86658 0.33585
 O8 O 0.50247 0.67183 0.36598
 C9 C 0.44715 0.56471 0.38447
 O10 O 0.32664 0.49703 0.13227
 O11 O 0.13011 0.49099 0.16184
 C12 C 0.11392 0.56306 0.11224
 O13 O 0.16613 0.67009 0.13186
 O14 O 0.35754 0.86570 0.16312
 C15 C 0.44666 0.88229 0.11444
 O16 O 0.50230 0.83083 0.13385
 O17 O 0.50729 0.64092 0.16399
 C18 C 0.43443 0.55248 0.11402
 Cr19 Cr 0.24879 0.50054 0.24814
 Cr20 Cr 0.24848 0.74797 0.24846
 Cr21 Cr 0.49833 0.74927 0.24987
 O22 O 0.33188 0.66596 0.24878
 O23 O 0.49241 0.35911 0.66391
 O24 O 0.49727 0.16922 0.63381
 C25 C 0.55261 0.11744 0.61528
 O26 O 0.64141 0.13361 0.66538
 O27 O 0.83267 0.32892 0.63572
 C28 C 0.88441 0.43581 0.61626
 O29 O 0.86915 0.50840 0.66580
 O30 O 0.67301 0.50307 0.63480
 C31 C 0.56528 0.44762 0.61504
 O32 O 0.49746 0.32843 0.86591
 O33 O 0.49247 0.13353 0.83582
 C34 C 0.56531 0.11789 0.88573
 O35 O 0.67309 0.17017 0.86745
 O36 O 0.86961 0.36065 0.83799
 C37 C 0.88576 0.44896 0.88746
 O38 O 0.83369 0.50391 0.86787
 O39 O 0.64224 0.50806 0.83666
 C40 C 0.55310 0.43553 0.88532
 Cr41 Cr 0.50143 0.25082 0.74992
 Cr42 Cr 0.75099 0.25160 0.75162
 Cr43 Cr 0.75129 0.49938 0.75130
 O44 O 0.66789 0.33395 0.75100
 C45 C 0.47673 -0.03497 0.46589
 C46 C 0.51166 0.03463 0.53412
 C47 C 1.03398 0.51140 0.46539
 C48 C 0.96580 0.47731 0.53438
 C49 C 0.48809 0.52283 0.46563
 C50 C 0.52301 0.48815 0.53386
 C51 C 0.48773 -0.03474 1.03395
 C52 C 0.52288 0.03501 0.96629
 C53 C 1.03852 0.52469 1.03801
 C54 C 0.96879 0.48976 0.96922
 C55 C 0.47686 0.51203 1.03346
 C56 C 0.51202 0.47744 0.96581
   
