data_POSCAR
  _audit_creation_date              2014-09-24
  _audit_creation_method            'ToBaCCo'
  _symmetry_space_group_name_H-M    'P1'
  _symmetry_Int_Tables_number       1
  _symmetry_cell_setting            triclinic
  loop_
  _symmetry_equiv_pos_as_xyz
 x,y,z
_cell_length_a 33.9893
_cell_length_b 29.6151
_cell_length_c 36.4619
_cell_angle_alpha 88.241900
_cell_angle_beta 89.601800
_cell_angle_gamma 89.707600
loop_
  _atom_site_label
  _atom_site_type_symbol
  _atom_site_fract_x
  _atom_site_fract_y
  _atom_site_fract_z
N1 N 0.55585 0.67331 0.59938
 N2 N 0.54463 0.65535 0.63114
 C3 C 0.51041 0.67456 0.64132
 C4 C 0.49950 0.70588 0.61433
 C5 C 0.52925 0.70459 0.58834
 H6 H 0.49518 0.66761 0.66700
 H7 H 0.53174 0.72568 0.56370
 Cu8 Cu 0.57685 0.61019 0.65670
 Cu9 Cu 0.60533 0.65699 0.57594
 Cu10 Cu 0.66415 0.57796 0.62210
 N11 N 0.60942 0.56508 0.68188
 N12 N 0.64332 0.55219 0.66810
 C13 C 0.65909 0.51989 0.69035
 C14 C 0.63344 0.51149 0.71959
 C15 C 0.60264 0.54170 0.71348
 H16 H 0.68790 0.50517 0.68625
 H17 H 0.57651 0.54521 0.73024
 N18 N 0.67967 0.60782 0.57508
 N19 N 0.65650 0.63638 0.55688
 C20 C 0.67443 0.64943 0.52531
 C21 C 0.71116 0.62924 0.52396
 C22 C 0.71321 0.60250 0.55571
 H23 H 0.66159 0.67169 0.50456
 H24 H 0.73743 0.58076 0.56394
 H25 H 0.61005 0.59263 0.59935
 H26 H 0.63463 0.63903 0.62385
 N27 N 0.94071 0.33785 0.10040
 N28 N 0.94933 0.34773 0.13425
 C29 C 0.98342 0.32727 0.14364
 C30 C 0.99741 0.30353 0.11392
 C31 C 0.96890 0.31063 0.08717
 H32 H 0.99573 0.32730 0.17089
 H33 H 0.96874 0.29725 0.05991
 Cu34 Cu 0.91468 0.38526 0.16328
 Cu35 Cu 0.89279 0.35949 0.07662
 Cu36 Cu 0.83075 0.42742 0.12727
 N37 N 0.88037 0.42495 0.19069
 N38 N 0.84777 0.44165 0.17645
 C39 C 0.83101 0.46979 0.20041
 C40 C 0.85405 0.47019 0.23151
 C41 C 0.88534 0.44178 0.22421
 H42 H 0.80456 0.48937 0.19531
 H43 H 0.91059 0.43541 0.24153
 N44 N 0.81883 0.40933 0.07698
 N45 N 0.84293 0.38448 0.05737
 C46 C 0.82663 0.37803 0.02439
 C47 C 0.79070 0.40009 0.02302
 C48 C 0.78645 0.41897 0.05707
 H49 H 0.83949 0.35801 0.00305
 H50 H 0.76107 0.43723 0.06695
 H51 H 0.88684 0.41737 0.10672
 H52 H 0.85978 0.36619 0.12399
 N53 N 0.44289 0.16581 -0.09696
 N54 N 0.45367 0.15518 -0.13031
 C55 C 0.48806 0.17555 -0.13863
 C56 C 0.49960 0.19989 -0.10881
 C57 C 0.46999 0.19338 -0.08301
 H58 H 0.50289 0.17442 -0.16492
 H59 H 0.46787 0.20862 -0.05649
 Cu60 Cu 0.42069 0.11789 -0.16037
 Cu61 Cu 0.39335 0.14555 -0.07509
 Cu62 Cu 0.33393 0.07903 -0.12813
 N63 N 0.38783 0.07893 -0.18915
 N64 N 0.35391 0.06394 -0.17640
 C65 C 0.33799 0.03651 -0.20097
 C66 C 0.36302 0.03467 -0.23092
 C67 C 0.39458 0.06157 -0.22234
 H68 H 0.31065 0.01841 -0.19709
 H69 H 0.42102 0.06670 -0.23857
 N70 N 0.31899 0.09773 -0.07856
 N71 N 0.34211 0.12190 -0.05794
 C72 C 0.32399 0.12844 -0.02556
 C73 C 0.28789 0.10711 -0.02566
 C74 C 0.28545 0.08866 -0.05995
 H75 H 0.33583 0.14780 -0.00356
 H76 H 0.26063 0.07081 -0.07078
 H77 H 0.38863 0.08766 -0.10499
 H78 H 0.36358 0.13952 -0.12388
 N79 N 0.06734 0.81816 0.39393
 N80 N 0.06357 0.82705 0.35864
 C81 C 0.03121 0.80640 0.34650
 C82 C 0.01301 0.78386 0.37597
 C83 C 0.03756 0.79147 0.40547
 H84 H 0.02263 0.80647 0.31800
 H85 H 0.03337 0.77978 0.43360
 Cu86 Cu 0.10048 0.86572 0.33180
 Cu87 Cu 0.11001 0.84275 0.42240
 Cu88 Cu 0.16450 0.92731 0.37942
 N89 N 0.12638 0.91844 0.31004
 N90 N 0.15014 0.94338 0.32910
 C91 C 0.16225 0.97873 0.30796
 C92 C 0.14585 0.97529 0.27350
 C93 C 0.12278 0.93690 0.27603
 H94 H 0.18098 1.00546 0.31719
 H95 H 0.10430 0.92378 0.25484
 N96 N 0.17461 0.90545 0.43004
 N97 N 0.15430 0.87251 0.44619
 C98 C 0.16972 0.86313 0.47948
 C99 C 0.20090 0.89200 0.48476
 C100 C 0.20344 0.91798 0.45267
 H101 H 0.16001 0.83617 0.49800
 H102 H 0.22544 0.94322 0.44601
 H103 H 0.10910 0.90132 0.39009
 H104 H 0.14929 0.85962 0.38028
 C105 C 0.11715 0.16733 0.11679
 C106 C 0.11944 0.13902 0.14825
 C107 C 0.14680 0.10339 0.15004
 C108 C 0.17141 0.09586 0.11974
 C109 C 0.16914 0.12374 0.08799
 C110 C 0.14189 0.15950 0.08671
 H111 H 0.10014 0.14497 0.17142
 H112 H 0.19260 0.06839 0.12098
 H113 H 0.14020 0.18153 0.06247
 C114 C 0.37716 0.84157 0.62279
 C115 C 0.34667 0.84449 0.59710
 C116 C 0.31881 0.87953 0.59842
 C117 C 0.32223 0.91241 0.62511
 C118 C 0.35279 0.90988 0.65074
 C119 C 0.38011 0.87433 0.64956
 H120 H 0.34457 0.81941 0.57617
 H121 H 0.30109 0.93990 0.62599
 H122 H 0.40371 0.87224 0.66939
 C123 C 0.88465 0.65952 0.37597
 C124 C 0.88202 0.62750 0.34864
 C125 C 0.85115 0.59626 0.34922
 C126 C 0.82207 0.59817 0.37668
 C127 C 0.82435 0.63036 0.40410
 C128 C 0.85646 0.66002 0.40413
 H129 H 0.90413 0.62672 0.32709
 H130 H 0.79776 0.57463 0.37665
 H131 H 0.85905 0.68429 0.42563
 C132 C 0.61976 0.33667 -0.11434
 C133 C 0.64629 0.34521 -0.08619
 C134 C 0.67362 0.38051 -0.09022
 C135 C 0.67439 0.40682 -0.12299
 C136 C 0.64757 0.39857 -0.15100
 C137 C 0.62036 0.36348 -0.14659
 H138 H 0.64572 0.32435 -0.06125
 H139 H 0.69582 0.43357 -0.12674
 H140 H 0.59969 0.35700 -0.16830
 C141 C 0.05723 0.20308 0.09113
 C142 C 0.02866 0.23688 0.08965
 C143 C 0.03046 0.27430 0.11252
 C144 C 0.06470 0.27934 0.13453
 C145 C 0.09323 0.24408 0.13664
 C146 C 0.08878 0.20536 0.11531
 C147 C 0.12633 0.24952 0.15902
 N148 N 0.13141 0.28855 0.17677
 N149 N 0.10594 0.32265 0.17323
 C150 C 0.07321 0.31966 0.15242
 H151 H 0.05399 0.17404 0.07404
 H152 H 0.00374 0.23187 0.07193
 H153 H 0.14869 0.22359 0.16193
 H154 H 0.05533 0.34963 0.14885
 C155 C 0.44557 0.81707 0.61164
 C156 C 0.47481 0.78427 0.60885
 C157 C 0.46639 0.73847 0.61554
 C158 C 0.42724 0.72544 0.62436
 C159 C 0.39749 0.75897 0.62748
 C160 C 0.40691 0.80508 0.62091
 C161 C 0.35927 0.74516 0.63750
 N162 N 0.35123 0.70061 0.64265
 N163 N 0.37879 0.66904 0.63850
 C164 C 0.41641 0.67987 0.62943
 H165 H 0.45314 0.85219 0.60642
 H166 H 0.50451 0.79491 0.60210
 H167 H 0.33573 0.76927 0.64138
 H168 H 0.43723 0.65267 0.62582
 C169 C 0.94587 0.68951 0.40142
 C170 C 0.97642 0.72053 0.40204
 C171 C 0.97885 0.75668 0.37608
 C172 C 0.94722 0.76305 0.35075
 C173 C 0.91676 0.73037 0.34955
 C174 C 0.91653 0.69326 0.37491
 C175 C 0.88631 0.73695 0.32394
 N176 N 0.88540 0.77483 0.30220
 N177 N 0.91248 0.80682 0.30477
 C178 C 0.94285 0.80261 0.32856
 H179 H 0.94552 0.66171 0.42145
 H180 H 0.99932 0.71453 0.42211
 H181 H 0.86276 0.71285 0.32149
 H182 H 0.96191 0.83130 0.33097
 C183 C 0.55385 0.30875 -0.09668
 C184 C 0.52501 0.27551 -0.09503
 C185 C 0.53283 0.23193 -0.10733
 C186 C 0.57131 0.22115 -0.11980
 C187 C 0.60054 0.25519 -0.12176
 C188 C 0.59138 0.29932 -0.11049
 C189 C 0.63814 0.24392 -0.13505
 N190 N 0.64607 0.20100 -0.14482
 N191 N 0.61898 0.16872 -0.14211
 C192 C 0.58200 0.17723 -0.12984
 H193 H 0.54658 0.34245 -0.08795
 H194 H 0.49588 0.28444 -0.08533
 H195 H 0.66135 0.26872 -0.13752
 H196 H 0.56164 0.14940 -0.12747
 C197 C 0.11391 0.05018 0.19377
 C198 C 0.11396 0.01862 0.22282
 C199 C 0.14864 0.00794 0.24188
 C200 C 0.18424 0.02959 0.23092
 C201 C 0.18380 0.06317 0.20223
 C202 C 0.14844 0.07261 0.18293
 C203 C 0.21891 0.08648 0.19401
 N204 N 0.25262 0.07465 0.21154
 N205 N 0.25357 0.04123 0.23678
 C206 C 0.22069 0.01817 0.24690
 H207 H 0.08665 0.05678 0.17929
 H208 H 0.08644 0.00263 0.23065
 H209 H 0.21990 0.11414 0.17400
 H210 H 0.22372 -0.00932 0.26679
 C211 C 0.62624 0.46774 -0.18428
 C212 C 0.62149 0.49420 -0.21610
 C213 C 0.63784 0.48131 -0.24986
 C214 C 0.65804 0.43889 -0.25115
 C215 C 0.66337 0.41248 -0.21827
 C216 C 0.64708 0.42711 -0.18488
 C217 C 0.68398 0.37129 -0.21996
 N218 N 0.69659 0.35627 -0.25273
 N219 N 0.68952 0.37939 -0.28387
 C220 C 0.67031 0.41966 -0.28429
 H221 H 0.61314 0.47890 -0.15891
 H222 H 0.60589 0.52595 -0.21372
 H223 H 0.68981 0.35069 -0.19556
 H224 H 0.66347 0.43484 -0.31070
 C225 C 0.34852 0.92931 0.71594
 C226 C 0.35023 0.95958 0.74432
 C227 C 0.35939 1.00513 0.73728
 C228 C 0.36599 1.02065 0.70054
 C229 C 0.36451 0.98966 0.67164
 C230 C 0.35558 0.94370 0.67959
 C231 C 0.37243 1.00573 0.63566
 N232 N 0.37991 1.05017 0.62908
 N233 N 0.38003 1.07954 0.65600
 C234 C 0.37321 1.06639 0.69142
 H235 H 0.34155 0.89428 0.72237
 H236 H 0.34510 0.94708 0.77217
 H237 H 0.37282 0.98344 0.61272
 H238 H 0.37302 1.09196 0.71190
 C239 C 0.84271 0.57655 0.28442
 C240 C 0.84270 0.54601 0.25613
 C241 C 0.84974 0.49990 0.26324
 C242 C 0.85508 0.48405 0.30000
 C243 C 0.85541 0.51525 0.32879
 C244 C 0.84939 0.56188 0.32072
 C245 C 0.86250 0.49869 0.36473
 N246 N 0.86737 0.45373 0.37139
 N247 N 0.86573 0.42428 0.34458
 C248 C 0.85966 0.43784 0.30920
 H249 H 0.83804 0.61211 0.27789
 H250 H 0.83854 0.55878 0.22826
 H251 H 0.86427 0.52095 0.38760
 H252 H 0.85795 0.41226 0.28879
 C253 C 0.22138 0.15412 0.04690
 C254 C 0.25054 0.14973 0.02030
 C255 C 0.25702 0.10852 0.00327
 C256 C 0.23340 0.07072 0.01369
 C257 C 0.20267 0.07573 0.03991
 C258 C 0.19735 0.11758 0.05726
 C259 C 0.17805 0.03855 0.04770
 N260 N 0.18542 -0.00161 0.03213
 N261 N 0.21564 -0.00707 0.00926
 C262 C 0.23996 0.02754 -0.00032
 H263 H 0.21793 0.18629 0.05996
 H264 H 0.26811 0.17905 0.01280
 H265 H 0.15291 0.04103 0.06585
 H266 H 0.26449 0.02053 -0.01823
 C267 C 0.78622 0.59250 0.45426
 C268 C 0.75985 0.59258 0.48365
 C269 C 0.74067 0.63240 0.49374
 C270 C 0.74895 0.67330 0.47380
 C271 C 0.77426 0.67269 0.44265
 C272 C 0.79393 0.63210 0.43351
 C273 C 0.77874 0.71291 0.42145
 N274 N 0.76172 0.75170 0.43252
 N275 N 0.74040 0.75298 0.46322
 C276 C 0.73365 0.71529 0.48432
 H277 H 0.80104 0.56121 0.44785
 H278 H 0.75411 0.56098 0.49842
 H279 H 0.79539 0.71394 0.39609
 H280 H 0.71711 0.71893 0.50941
 C281 C 0.72702 0.35187 -0.05005
 C282 C 0.75560 0.35683 -0.02338
 C283 C 0.76116 0.39833 -0.00671
 C284 C 0.73760 0.43598 -0.01797
 C285 C 0.70752 0.43048 -0.04434
 C286 C 0.70271 0.38812 -0.06089
 C287 C 0.68290 0.46762 -0.05288
 N288 N 0.68966 0.50811 -0.03783
 N289 N 0.71924 0.51394 -0.01475
 C290 C 0.74351 0.47943 -0.00446
 H291 H 0.72392 0.31931 -0.06248
 H292 H 0.77315 0.32760 -0.01529
 H293 H 0.65822 0.46491 -0.07119
 H294 H 0.76749 0.48667 0.01364
 C295 C 0.29785 0.88774 0.53387
 C296 C 0.26948 0.89168 0.50663
 C297 C 0.22928 0.89070 0.51545
 C298 C 0.21756 0.88669 0.55287
 C299 C 0.24656 0.88166 0.58059
 C300 C 0.28702 0.88268 0.57086
 C301 C 0.23394 0.87518 0.61720
 N302 N 0.19502 0.87611 0.62552
 N303 N 0.16791 0.88296 0.59975
 C304 C 0.17781 0.88846 0.56381
 H305 H 0.32864 0.88870 0.52599
 H306 H 0.27910 0.89466 0.47828
 H307 H 0.25454 0.86918 0.63928
 H308 H 0.15449 0.89482 0.54435
   
