data_POSCAR
  _audit_creation_date              2014-09-24
  _audit_creation_method            'ToBaCCo'
  _symmetry_space_group_name_H-M    'P1'
  _symmetry_Int_Tables_number       1
  _symmetry_cell_setting            triclinic
  loop_
  _symmetry_equiv_pos_as_xyz
 x,y,z
_cell_length_a 37.9590
_cell_length_b 37.8775
_cell_length_c 38.0644
_cell_angle_alpha 89.914900
_cell_angle_beta 90.023800
_cell_angle_gamma 89.991400
loop_
  _atom_site_label
  _atom_site_type_symbol
  _atom_site_fract_x
  _atom_site_fract_y
  _atom_site_fract_z
C1 C 0.16334 0.16304 0.20632
 N2 N 0.19116 0.14669 0.19065
 C3 C 0.20542 0.15950 0.16041
 N4 N 0.19103 0.18879 0.14554
 C5 C 0.16349 0.20555 0.16087
 N6 N 0.14994 0.19279 0.19134
 C7 C -0.16279 0.83701 0.20983
 N8 N -0.19042 0.85279 0.19327
 C9 C -0.20463 0.83878 0.16360
 N10 N -0.19026 0.80888 0.15008
 C11 C -0.16272 0.79271 0.16620
 N12 N -0.14933 0.80665 0.19623
 C13 C -0.16259 0.15938 -0.20506
 N14 N -0.19212 0.14511 -0.19064
 C15 C -0.20856 0.16079 -0.16298
 N16 N -0.19494 0.19120 -0.14971
 C17 C -0.16519 0.20549 -0.16342
 N18 N -0.14920 0.18950 -0.19102
 C19 C 0.16853 0.83497 -0.21202
 N20 N 0.15333 0.80569 -0.19804
 C21 C 0.16493 0.79247 -0.16691
 N22 N 0.19214 0.80849 -0.15004
 C23 C 0.20823 0.83723 -0.16422
 N24 N 0.19596 0.85041 -0.19511
 C25 C 0.16320 1.16253 0.79346
 N26 N 0.14718 1.19052 0.80922
 C27 C 0.16005 1.20457 0.83949
 N28 N 0.18913 1.18982 0.85432
 C29 C 0.20559 1.16208 0.83892
 N30 N 0.19274 1.14872 0.80841
 C31 C 0.83645 0.83678 0.78983
 N32 N 0.85237 0.80910 0.80627
 C33 C 0.83849 0.79471 0.83596
 N34 N 0.80860 0.80892 0.84956
 C35 C 0.79228 0.83645 0.83352
 N36 N 0.80610 0.85005 0.80353
 C37 C 0.16009 0.83856 1.20706
 N38 N 0.14576 0.80913 1.19245
 C39 C 0.16243 0.79189 1.16597
 N40 N 0.19360 0.80444 1.15365
 C41 C 0.20777 0.83432 1.16733
 N42 N 0.19098 0.85112 1.19401
 C43 C 0.83466 1.16701 1.21094
 N44 N 0.80608 1.15154 1.19590
 C45 C 0.79339 1.16324 1.16461
 N46 N 0.80939 1.19081 1.14828
 C47 C 0.83746 1.20724 1.16328
 N48 N 0.84986 1.19505 1.19455
 O49 O 0.45156 1.06096 1.06490
 O50 O 0.41258 1.02730 1.03316
 C51 C 0.41992 1.05142 1.05603
 O52 O 0.54879 1.06091 0.93810
 O53 O 0.58773 1.02727 0.97003
 C54 C 0.58040 1.05092 0.94659
 O55 O 0.44963 1.06312 0.94168
 O56 O 0.41167 1.02970 0.97487
 C57 C 0.41822 1.05399 0.95179
 O58 O 0.55093 1.05717 1.06666
 O59 O 0.58866 1.02702 1.03034
 C60 C 0.58225 1.04885 1.05567
 Zr61 Zr 0.50092 1.04155 1.04699
 O62 O 0.50504 1.09728 1.04773
 O63 O 0.49783 1.04053 1.10251
 Zr64 Zr 0.49947 1.04363 0.95801
 O65 O 0.50298 1.09939 0.95988
 O66 O 0.49512 1.04518 0.90258
 O67 O 0.46883 1.04962 1.00314
 O68 O 0.53071 1.04902 1.00214
 O69 O 0.55081 0.93522 1.06370
 O70 O 0.58870 0.96842 1.03015
 C71 C 0.58214 0.94509 1.05412
 O72 O 0.44943 0.93560 0.93929
 O73 O 0.41154 0.96810 0.97346
 C74 C 0.41813 0.94461 0.94970
 O75 O 0.54866 0.93875 0.93456
 O76 O 0.58756 0.96871 0.96980
 C77 C 0.58033 0.94696 0.94463
 O78 O 0.45152 0.93143 1.06150
 O79 O 0.41278 0.96713 1.03172
 C80 C 0.41990 0.94192 1.05359
 Zr81 Zr 0.50082 0.95214 1.04496
 O82 O 0.50490 0.89642 1.04368
 O83 O 0.49754 0.95102 1.10047
 Zr84 Zr 0.49938 0.95424 0.95614
 O85 O 0.50330 0.89847 0.95629
 O86 O 0.49461 0.95429 0.90074
 Zr87 Zr 0.44791 0.99809 1.00237
 Zr88 Zr 0.55233 0.99787 1.00067
 O89 O 0.53067 0.94673 0.99994
 O90 O 0.46864 0.94644 1.00088
 O91 O 0.53233 0.99666 1.05233
 O92 O 0.46880 0.99913 0.95117
 O93 O 0.47050 0.99673 1.05287
 O94 O 0.53065 0.99907 0.94969
 H95 H 0.54671 1.06968 1.00230
 H96 H 0.45258 0.99962 0.93078
 H97 H 0.54671 0.92610 0.99931
 H98 H 0.45495 0.99621 1.07377
 H99 H 0.51469 1.03101 0.89285
 H100 H 0.51236 0.97098 0.89148
 H101 H 0.48217 0.88909 0.96830
 H102 H 0.48569 0.88758 1.02850
 H103 H 0.51754 0.96492 1.10973
 H104 H 0.51709 1.02519 1.11111
 H105 H 0.48497 1.10680 1.03410
 H106 H 0.48263 1.10806 0.97361
 O107 O 0.05697 0.55095 -0.06791
 O108 O 0.02715 0.58870 -0.03135
 C109 C 0.04863 0.58234 -0.05697
 O110 O -0.06769 0.45052 -0.06040
 O111 O -0.03117 0.41202 -0.03124
 C112 C -0.05680 0.41893 -0.05260
 O113 O -0.06449 0.55022 -0.06331
 O114 O -0.03123 0.58847 -0.03029
 C115 C -0.05468 0.58170 -0.05400
 O116 O 0.06147 0.45144 -0.06556
 O117 O 0.02914 0.41236 -0.03250
 C118 C 0.05263 0.41972 -0.05600
 Zr119 Zr 0.04194 0.50085 -0.04772
 O120 O 0.04019 0.49746 -0.10320
 O121 O 0.09751 0.50531 -0.04920
 Zr122 Zr -0.04727 0.50027 -0.04447
 O123 O -0.04927 0.49669 -0.09993
 O124 O -0.10286 0.50408 -0.04238
 O125 O -0.00309 0.53204 -0.05258
 O126 O -0.00269 0.47009 -0.05286
 O127 O 0.06509 0.45003 0.05757
 O128 O 0.03131 0.41173 0.02520
 C129 C 0.05588 0.41849 0.04783
 O130 O -0.05961 0.54869 0.06576
 O131 O -0.03019 0.58762 0.03001
 C132 C -0.05166 0.58043 0.05542
 O133 O -0.06231 0.44912 0.06154
 O134 O -0.03027 0.41120 0.02696
 C135 C -0.05348 0.41776 0.05097
 O136 O 0.06256 0.54940 0.06046
 O137 O 0.02784 0.58804 0.02936
 C138 C 0.05193 0.58101 0.05243
 Zr139 Zr 0.04520 0.49977 0.04120
 O140 O 0.04741 0.49571 0.09664
 O141 O 0.10079 0.50352 0.03853
 Zr142 Zr -0.04396 0.49922 0.04444
 O143 O -0.04263 0.49464 0.09984
 O144 O -0.09961 0.50283 0.04556
 Zr145 Zr -0.00134 0.55227 -0.00103
 Zr146 Zr -0.00066 0.44772 -0.00225
 O147 O 0.00101 0.46881 0.04884
 O148 O 0.00068 0.53080 0.05005
 O149 O 0.05065 0.46892 -0.00382
 O150 O -0.05224 0.53030 0.00051
 O151 O 0.04980 0.53095 -0.00313
 O152 O -0.05226 0.46825 -0.00011
 H153 H -0.00327 0.45434 -0.07361
 H154 H -0.07290 0.54627 0.00132
 H155 H 0.00176 0.45257 0.06926
 H156 H 0.07028 0.54716 -0.00364
 H157 H -0.11143 0.48447 -0.02747
 H158 H -0.10906 0.48219 0.03276
 H159 H -0.02661 0.51318 0.10871
 H160 H 0.03342 0.51542 0.10642
 H161 H 0.10937 0.48305 0.02486
 H162 H 0.10729 0.48535 -0.03553
 H163 H 0.02467 0.51664 -0.11169
 H164 H -0.03540 0.51659 -0.10953
 O165 O 1.06533 -0.06045 0.54659
 O166 O 1.03369 -0.02774 0.58640
 C167 C 1.05732 -0.05104 0.57841
 O168 O 1.06095 0.06795 0.45010
 O169 O 1.02807 0.03455 0.41188
 C170 C 1.05120 0.05869 0.41874
 O171 O 1.06644 0.06322 0.54870
 O172 O 1.03329 0.03055 0.58736
 C173 C 1.05748 0.05353 0.58019
 O174 O 1.06057 -0.06044 0.44766
 O175 O 1.02702 -0.02611 0.41070
 C176 C 1.05019 -0.05046 0.41669
 Zr177 Zr 1.04496 -0.04199 0.49796
 O178 O 1.10052 -0.04165 0.49308
 O179 O 1.04483 -0.09784 0.50041
 Zr180 Zr 1.04513 0.04743 0.49958
 O181 O 1.10065 0.04766 0.49449
 O182 O 1.04459 0.10311 0.50440
 O183 O 1.05280 0.00207 0.52985
 O184 O 1.05067 0.00331 0.46821
 O185 O 0.93872 -0.06146 0.45087
 O186 O 0.96877 -0.02580 0.41232
 C187 C 0.94680 -0.05095 0.41941
 O188 O 0.93765 0.06318 0.55220
 O189 O 0.97227 0.02992 0.58912
 C190 C 0.94778 0.05293 0.58317
 O191 O 0.93784 0.06826 0.45335
 O192 O 0.96913 0.03533 0.41344
 C193 C 0.94640 0.05946 0.42154
 O194 O 0.93665 -0.05880 0.54970
 O195 O 0.97247 -0.02852 0.58785
 C196 C 0.94735 -0.05058 0.58104
 Zr197 Zr 0.95592 -0.04182 0.50017
 O198 O 0.90024 -0.04159 0.49706
 O199 O 0.95592 -0.09760 0.50362
 Zr200 Zr 0.95602 0.04754 0.50189
 O201 O 0.90030 0.04757 0.49951
 O202 O 0.95645 0.10320 0.50676
 Zr203 Zr 1.00193 0.00173 0.55202
 Zr204 Zr 0.99913 0.00390 0.44776
 O205 O 0.94871 0.00347 0.47072
 O206 O 0.94993 0.00223 0.53246
 O207 O 0.99964 -0.04811 0.46764
 O208 O 1.00138 0.05328 0.53134
 O209 O 1.00119 -0.04895 0.52945
 O210 O 0.99978 0.05505 0.46952
 H211 H 1.07099 0.00352 0.45188
 H212 H 1.00179 0.07363 0.54767
 H213 H 0.92769 0.00369 0.45527
 H214 H 1.00144 -0.06994 0.54503
 H215 H 1.03063 0.11264 0.48459
 H216 H 0.97021 0.11274 0.48682
 H217 H 0.89160 0.03311 0.51935
 H218 H 0.89139 -0.02708 0.51675
 H219 H 0.97059 -0.10661 0.48413
 H220 H 1.03058 -0.10654 0.48046
 H221 H 1.11012 -0.02864 0.51347
 H222 H 1.11023 0.03192 0.51291
 C223 C 1.11714 0.12023 0.29790
 C224 C 1.14497 0.10223 0.28154
 C225 C 1.16060 0.11683 0.25147
 C226 C 1.14829 0.14906 0.23723
 C227 C 1.12020 0.16668 0.25424
 C228 C 1.10468 0.15245 0.28458
 C229 C 1.10054 0.10488 0.32946
 C230 C 1.07276 0.12296 0.34598
 C231 C 1.05700 0.10811 0.37592
 C232 C 1.06867 0.07536 0.38875
 C233 C 1.09634 0.05750 0.37196
 C234 C 1.11258 0.07225 0.34233
 C235 C 1.07680 0.16973 0.30177
 C236 C 1.06117 0.15528 0.33199
 C237 C 1.15643 0.06978 0.29539
 C238 C 1.14043 0.05499 0.32520
 H239 H 1.06694 0.19463 0.29176
 H240 H 1.03974 0.16944 0.34440
 H241 H 1.17784 0.05559 0.28296
 H242 H 1.14993 0.02983 0.33491
 H243 H 1.18201 0.10267 0.23897
 H244 H 1.11026 0.19147 0.24401
 H245 H 1.03549 0.12162 0.38893
 H246 H 1.10506 0.03215 0.38198
 C247 C 0.88248 -0.11643 0.29990
 C248 C 0.85635 -0.09814 0.28119
 C249 C 0.84089 -0.11404 0.25174
 C250 C 0.85201 -0.14773 0.24020
 C251 C 0.87859 -0.16550 0.25937
 C252 C 0.89360 -0.15012 0.28937
 C253 C 0.89866 -0.09987 0.33102
 C254 C 0.92434 -0.11845 0.35020
 C255 C 0.93944 -0.10263 0.37992
 C256 C 0.92963 -0.06825 0.38964
 C257 C 0.90429 -0.04976 0.37003
 C258 C 0.88831 -0.06566 0.34086
 C259 C 0.91959 -0.16775 0.30904
 C260 C 0.93455 -0.15227 0.33905
 C261 C 0.84640 -0.06413 0.29210
 C262 C 0.86229 -0.04806 0.32129
 H263 H 0.92839 -0.19379 0.30122
 H264 H 0.95444 -0.16679 0.35350
 H265 H 0.82635 -0.04968 0.27779
 H266 H 0.85407 -0.02170 0.32865
 H267 H 0.82072 -0.09969 0.23747
 H268 H 0.88750 -0.19143 0.25125
 H269 H 0.95925 -0.11660 0.39505
 H270 H 0.89697 -0.02319 0.37765
 C271 C 0.88478 0.11343 0.70572
 C272 C 0.89815 0.14522 0.71910
 C273 C 0.88274 0.16000 0.74911
 C274 C 0.85363 0.14359 0.76560
 C275 C 0.84077 0.11145 0.75171
 C276 C 0.85637 0.09623 0.72195
 C277 C 0.90076 0.09796 0.67398
 C278 C 0.88763 0.06593 0.66075
 C279 C 0.90302 0.05132 0.63060
 C280 C 0.93089 0.06884 0.61375
 C281 C 0.94375 0.10086 0.62709
 C282 C 0.92885 0.11553 0.65742
 C283 C 0.84400 0.06419 0.70798
 C284 C 0.85946 0.04922 0.67798
 C285 C 0.92649 0.16182 0.70200
 C286 C 0.94151 0.14728 0.67161
 H287 H 0.82217 0.05057 0.72034
 H288 H 0.84918 0.02446 0.66810
 H289 H 0.93703 0.18639 0.71209
 H290 H 0.96319 0.16102 0.65912
 H291 H 0.89318 0.18464 0.75915
 H292 H 0.81864 0.09817 0.76393
 H293 H 0.89346 0.02647 0.62022
 H294 H 0.96548 0.11403 0.61404
 C295 C 1.12456 -0.11694 0.69630
 C296 C 1.13998 -0.09572 0.72232
 C297 C 1.15525 -0.11183 0.75175
 C298 C 1.15417 -0.14877 0.75580
 C299 C 1.13841 -0.16969 0.72961
 C300 C 1.12394 -0.15389 0.69951
 C301 C 1.10827 -0.10009 0.66539
 C302 C 1.09339 -0.12129 0.63900
 C303 C 1.07778 -0.10506 0.60971
 C304 C 1.07595 -0.06806 0.60761
 C305 C 1.09060 -0.04718 0.63437
 C306 C 1.10737 -0.06307 0.66309
 C307 C 1.10868 -0.17421 0.67265
 C308 C 1.09389 -0.15819 0.64278
 C309 C 1.13930 -0.05880 0.71868
 C310 C 1.12300 -0.04273 0.68968
 H311 H 1.10814 -0.20273 0.67474
 H312 H 1.08238 -0.17482 0.62269
 H313 H 1.15106 -0.04217 0.73862
 H314 H 1.12262 -0.01416 0.68808
 H315 H 1.16700 -0.09558 0.77204
 H316 H 1.13767 -0.19816 0.73258
 H317 H 1.06600 -0.12104 0.58922
 H318 H 1.08902 -0.01866 0.63266
 C319 C 0.29636 1.11330 1.11616
 C320 C 0.28104 1.14281 1.09991
 C321 C 0.25048 1.15762 1.11435
 C322 C 0.23516 1.14335 1.14513
 C323 C 0.25077 1.11323 1.16068
 C324 C 0.28132 1.09817 1.14631
 C325 C 0.32884 1.09801 1.10135
 C326 C 0.34412 1.06834 1.11751
 C327 C 0.37483 1.05373 1.10310
 C328 C 0.39004 1.06877 1.07297
 C329 C 0.37473 1.09855 1.05718
 C330 C 0.34393 1.11327 1.07122
 C331 C 0.29731 1.06842 1.16165
 C332 C 0.32814 1.05372 1.14747
 C333 C 0.29675 1.15716 1.06965
 C334 C 0.32768 1.14264 1.05555
 H335 H 0.28591 1.05640 1.18486
 H336 H 0.33957 1.03074 1.16006
 H337 H 0.28510 1.17988 1.05680
 H338 H 0.33892 1.15448 1.03217
 H339 H 0.23904 1.18058 1.10172
 H340 H 0.23950 1.10160 1.18416
 H341 H 0.38664 1.03048 1.11488
 H342 H 0.38648 1.10975 1.03372
 C343 C 0.29696 0.88291 0.88463
 C344 C 0.28659 0.89465 0.85122
 C345 C 0.25663 0.87995 0.83550
 C346 C 0.23742 0.85289 0.85248
 C347 C 0.24843 0.84146 0.88613
 C348 C 0.27792 0.85664 0.90241
 C349 C 0.32843 0.89839 0.90128
 C350 C 0.33837 0.88727 0.93511
 C351 C 0.36805 0.90249 0.95098
 C352 C 0.38792 0.92787 0.93278
 C353 C 0.37798 0.93854 0.89889
 C354 C 0.34793 0.92411 0.88307
 C355 C 0.28880 0.84604 0.93613
 C356 C 0.31838 0.86125 0.95230
 C357 C 0.30656 0.92069 0.83401
 C358 C 0.33683 0.93505 0.84959
 H359 H 0.27425 0.82588 0.95020
 H360 H 0.32578 0.85245 0.97838
 H361 H 0.29884 0.92992 0.80817
 H362 H 0.35157 0.95496 0.83538
 H363 H 0.24889 0.88917 0.80965
 H364 H 0.23401 0.82096 0.89987
 H365 H 0.37584 0.89461 0.97728
 H366 H 0.39325 0.95851 0.88526
 C367 C 0.70529 0.88440 1.11678
 C368 C 0.72018 0.85396 1.10196
 C369 C 0.75042 0.83925 1.11727
 C370 C 0.76583 0.85456 1.14747
 C371 C 0.75056 0.88550 1.16162
 C372 C 0.72035 0.90045 1.14640
 C373 C 0.67320 0.89968 1.10105
 C374 C 0.65833 0.93023 1.11581
 C375 C 0.62791 0.94474 1.10063
 C376 C 0.61249 0.92864 1.07119
 C377 C 0.62750 0.89810 1.05666
 C378 C 0.65803 0.88348 1.07148
 C379 C 0.70477 0.93103 1.16037
 C380 C 0.67432 0.94572 1.14530
 C381 C 0.70437 0.83866 1.07225
 C382 C 0.67381 0.85316 1.05727
 H383 H 0.71617 0.94371 1.18319
 H384 H 0.66317 0.96933 1.15686
 H385 H 0.71565 0.81518 1.06053
 H386 H 0.66245 0.84053 1.03440
 H387 H 0.76159 0.81560 1.10575
 H388 H 0.76187 0.89792 1.18465
 H389 H 0.61639 0.96860 1.11136
 H390 H 0.61562 0.88610 1.03369
 C391 C 0.70085 1.11488 0.88231
 C392 C 0.71793 1.09755 0.85457
 C393 C 0.74781 1.11306 0.83935
 C394 C 0.76103 1.14558 0.85193
 C395 C 0.74339 1.16242 0.88001
 C396 C 0.71333 1.14725 0.89517
 C397 C 0.66939 1.09871 0.89836
 C398 C 0.65222 1.11616 0.92606
 C399 C 0.62235 1.10065 0.94123
 C400 C 0.61013 1.06791 0.92907
 C401 C 0.62762 1.05051 0.90161
 C402 C 0.65726 1.06598 0.88590
 C403 C 0.69555 1.16379 0.92304
 C404 C 0.66548 1.14853 0.93820
 C405 C 0.70491 1.06493 0.84272
 C406 C 0.67516 1.04934 0.85821
 H407 H 0.70497 1.18876 0.93324
 H408 H 0.65258 1.16212 0.95967
 H409 H 0.71793 1.05123 0.82138
 H410 H 0.66609 1.02407 0.84841
 H411 H 0.76085 1.09948 0.81793
 H412 H 0.75287 1.18739 0.89019
 H413 H 0.60895 1.11360 0.96283
 H414 H 0.61820 1.02501 0.89270
 C415 C 0.11961 0.29732 0.11246
 C416 C 0.12380 0.29646 0.14913
 C417 C 0.13765 0.26602 0.16499
 C418 C 0.14829 0.23721 0.14428
 C419 C 0.14451 0.23872 0.10753
 C420 C 0.12958 0.26852 0.09149
 C421 C 0.10423 0.32887 0.09572
 C422 C 0.09847 0.32904 0.05926
 C423 C 0.08256 0.35856 0.04370
 C424 C 0.07375 0.38818 0.06413
 C425 C 0.08051 0.38802 0.10046
 C426 C 0.09514 0.35807 0.11655
 C427 C 0.12412 0.26998 0.05500
 C428 C 0.10849 0.29961 0.03919
 C429 C 0.11413 0.32607 0.16912
 C430 C 0.10032 0.35647 0.15307
 H431 H 0.13160 0.24789 0.03857
 H432 H 0.10430 0.29951 0.01103
 H433 H 0.11737 0.32578 0.19740
 H434 H 0.09326 0.37876 0.16943
 H435 H 0.14083 0.26496 0.19329
 H436 H 0.15247 0.21640 0.09158
 H437 H 0.07713 0.35862 0.01575
 H438 H 0.07321 0.41066 0.11628
 C439 C -0.11963 0.29777 -0.11757
 C440 C -0.09768 0.27207 -0.13266
 C441 C -0.11290 0.24226 -0.14823
 C442 C -0.14968 0.23758 -0.14789
 C443 C -0.17132 0.26338 -0.13230
 C444 C -0.15642 0.29383 -0.11748
 C445 C -0.10374 0.32929 -0.10135
 C446 C -0.12565 0.35549 -0.08697
 C447 C -0.11029 0.38555 -0.07176
 C448 C -0.07343 0.38863 -0.06995
 C449 C -0.05190 0.36200 -0.08409
 C450 C -0.06690 0.33250 -0.10032
 C451 C -0.17748 0.32041 -0.10258
 C452 C -0.16236 0.35083 -0.08780
 C453 C -0.06095 0.27653 -0.13158
 C454 C -0.04580 0.30613 -0.11544
 H455 H -0.20589 0.31773 -0.10243
 H456 H -0.17956 0.37072 -0.07668
 H457 H -0.04377 0.25682 -0.14305
 H458 H -0.01735 0.30842 -0.11486
 H459 H -0.09610 0.22230 -0.15988
 H460 H -0.19968 0.25996 -0.13217
 H461 H -0.12680 0.40596 -0.06049
 H462 H -0.02348 0.36451 -0.08273
 C463 C 0.11494 0.70266 -0.12051
 C464 C 0.11704 0.70515 -0.15727
 C465 C 0.13303 0.73490 -0.17244
 C466 C 0.14766 0.76142 -0.15104
 C467 C 0.14569 0.75826 -0.11424
 C468 C 0.12894 0.72915 -0.09883
 C469 C 0.09781 0.67170 -0.10440
 C470 C 0.09486 0.66977 -0.06767
 C471 C 0.07819 0.64054 -0.05249
 C472 C 0.06552 0.61294 -0.07369
 C473 C 0.06907 0.61489 -0.11041
 C474 C 0.08478 0.64460 -0.12599
 C475 C 0.12580 0.72608 -0.06218
 C476 C 0.10881 0.69699 -0.04686
 C477 C 0.10329 0.67776 -0.17804
 C478 C 0.08764 0.64789 -0.16266
 H479 H 0.13640 0.74640 -0.04520
 H480 H 0.10679 0.69568 -0.01849
 H481 H 0.10483 0.67932 -0.20642
 H482 H 0.07758 0.62727 -0.17961
 H483 H 0.13471 0.73713 -0.20079
 H484 H 0.15664 0.77877 -0.09766
 H485 H 0.07569 0.63884 -0.02414
 H486 H 0.05903 0.59370 -0.12670
 C487 C -0.11637 0.70109 0.11968
 C488 C -0.11675 0.70427 0.15644
 C489 C -0.13161 0.73455 0.17170
 C490 C -0.14685 0.76089 0.15041
 C491 C -0.14667 0.75698 0.11364
 C492 C -0.13101 0.72739 0.09810
 C493 C -0.10019 0.66972 0.10343
 C494 C -0.09865 0.66731 0.06665
 C495 C -0.08247 0.63794 0.05133
 C496 C -0.06895 0.61061 0.07244
 C497 C -0.07130 0.61290 0.10923
 C498 C -0.08640 0.64286 0.12493
 C499 C -0.12944 0.72373 0.06141
 C500 C -0.11327 0.69431 0.04594
 C501 C -0.10236 0.67705 0.17710
 C502 C -0.08769 0.64675 0.16163
 H503 H -0.14056 0.74390 0.04451
 H504 H -0.11231 0.69263 0.01753
 H505 H -0.10257 0.67911 0.20549
 H506 H -0.07702 0.62634 0.17852
 H507 H -0.13186 0.73737 0.20004
 H508 H -0.15806 0.77735 0.09711
 H509 H -0.08071 0.63607 0.02296
 H510 H -0.06054 0.59195 0.12544
 C511 C 1.11998 0.11767 0.70144
 C512 C 1.15179 0.10441 0.71482
 C513 C 1.16617 0.11945 0.74532
 C514 C 1.14909 0.14783 0.76245
 C515 C 1.11722 0.16087 0.74819
 C516 C 1.10250 0.14576 0.71794
 C517 C 1.10450 0.10166 0.66966
 C518 C 1.07229 0.11452 0.65672
 C519 C 1.05737 0.09881 0.62691
 C520 C 1.07464 0.07081 0.61002
 C521 C 1.10701 0.05832 0.62291
 C522 C 1.12201 0.07356 0.65303
 C523 C 1.07044 0.15805 0.70404
 C524 C 1.05554 0.14262 0.67401
 C525 C 1.16850 0.07622 0.69751
 C526 C 1.15391 0.06111 0.66712
 H527 H 1.05664 0.17966 0.71660
 H528 H 1.03069 0.15275 0.66426
 H529 H 1.19306 0.06571 0.70758
 H530 H 1.16760 0.03938 0.65466
 H531 H 1.19067 0.10894 0.75558
 H532 H 1.10345 0.18251 0.76076
 H533 H 1.03228 0.10812 0.61691
 H534 H 1.12005 0.03650 0.60987
 C535 C 0.88263 -0.11655 0.70020
 C536 C 0.84894 -0.10574 0.71088
 C537 C 0.83368 -0.12128 0.74069
 C538 C 0.85157 -0.14805 0.75955
 C539 C 0.88523 -0.15887 0.74785
 C540 C 0.90101 -0.14290 0.71856
 C541 C 0.89907 -0.09980 0.66928
 C542 C 0.93325 -0.10987 0.65926
 C543 C 0.94901 -0.09341 0.63025
 C544 C 0.93038 -0.06789 0.61095
 C545 C 0.89605 -0.05834 0.62085
 C546 C 0.88038 -0.07392 0.65043
 C547 C 0.93500 -0.15253 0.70749
 C548 C 0.95095 -0.13612 0.67848
 C549 C 0.83120 -0.07952 0.69156
 C550 C 0.84657 -0.06403 0.66174
 H551 H 0.94952 -0.17275 0.72153
 H552 H 0.97729 -0.14414 0.67098
 H553 H 0.80517 -0.07096 0.69952
 H554 H 0.83196 -0.04398 0.64755
 H555 H 0.80776 -0.11259 0.74893
 H556 H 0.89966 -0.17918 0.76188
 H557 H 0.97554 -0.10056 0.62243
 H558 H 0.88196 -0.03844 0.60592
 C559 C 1.11229 -0.11310 0.29474
 C560 C 1.09472 -0.14066 0.27746
 C561 C 1.11052 -0.15646 0.24812
 C562 C 1.14359 -0.14464 0.23567
 C563 C 1.16029 -0.11622 0.25304
 C564 C 1.14497 -0.10069 0.28273
 C565 C 1.09630 -0.09712 0.32622
 C566 C 1.11433 -0.07010 0.34400
 C567 C 1.09926 -0.05537 0.37421
 C568 C 1.06633 -0.06720 0.38613
 C569 C 1.04830 -0.09391 0.36798
 C570 C 1.06337 -0.10926 0.33805
 C571 C 1.16195 -0.07327 0.30094
 C572 C 1.14696 -0.05834 0.33115
 C573 C 1.06180 -0.15206 0.29003
 C574 C 1.04631 -0.13651 0.31972
 H575 H 1.18720 -0.06348 0.29193
 H576 H 1.16104 -0.03746 0.34459
 H577 H 1.04790 -0.17321 0.27684
 H578 H 1.02088 -0.14605 0.32853
 H579 H 1.09697 -0.17800 0.23514
 H580 H 1.18565 -0.10658 0.24409
 H581 H 1.11281 -0.03451 0.38825
 H582 H 1.02278 -0.10269 0.37729
 C583 C 0.87972 0.12431 0.30302
 C584 C 0.84837 0.10984 0.28982
 C585 C 0.83315 0.12448 0.25956
 C586 C 0.84901 0.15352 0.24236
 C587 C 0.88023 0.16803 0.25660
 C588 C 0.89580 0.15335 0.28667
 C589 C 0.89634 0.10839 0.33427
 C590 C 0.92821 0.12233 0.34698
 C591 C 0.94432 0.10653 0.37620
 C592 C 0.92855 0.07729 0.39252
 C593 C 0.89655 0.06378 0.37986
 C594 C 0.88034 0.07916 0.35051
 C595 C 0.92747 0.16680 0.30037
 C596 C 0.94346 0.15148 0.32995
 C597 C 0.83309 0.08069 0.30688
 C598 C 0.84877 0.06565 0.33676
 H599 H 0.94018 0.18916 0.28792
 H600 H 0.96804 0.16244 0.33948
 H601 H 0.80889 0.06928 0.29695
 H602 H 0.83622 0.04310 0.34904
 H603 H 0.80914 0.11289 0.24932
 H604 H 0.89300 0.19029 0.24398
 H605 H 0.96914 0.11661 0.38606
 H606 H 0.88472 0.04104 0.39254
 C607 C 0.11431 0.29587 -0.11618
 C608 C 0.09931 0.28101 -0.14645
 C609 C 0.11424 0.25036 -0.16082
 C610 C 0.14411 0.23446 -0.14519
 C611 C 0.15829 0.24963 -0.11432
 C612 C 0.14359 0.28030 -0.09984
 C613 C 0.09911 0.32844 -0.10135
 C614 C 0.11418 0.34334 -0.07107
 C615 C 0.09951 0.37420 -0.05699
 C616 C 0.06998 0.38979 -0.07292
 C617 C 0.05517 0.37477 -0.10322
 C618 C 0.06969 0.34398 -0.11763
 C619 C 0.15778 0.29586 -0.06946
 C620 C 0.14333 0.32685 -0.05532
 C621 C 0.06981 0.29725 -0.16191
 C622 C 0.05522 0.32817 -0.14772
 H623 H 0.18033 0.28402 -0.05654
 H624 H 0.15504 0.33795 -0.03183
 H625 H 0.05791 0.28598 -0.18521
 H626 H 0.03244 0.33980 -0.16040
 H627 H 0.10267 0.23922 -0.18437
 H628 H 0.18107 0.23797 -0.10163
 H629 H 0.11058 0.38583 -0.03343
 H630 H 0.03210 0.38675 -0.11509
 C631 C -0.11631 0.29641 0.11533
 C632 C -0.14133 0.27664 0.09667
 C633 C -0.15681 0.24711 0.11273
 C634 C -0.14679 0.23669 0.14700
 C635 C -0.12097 0.25665 0.16492
 C636 C -0.10609 0.28673 0.14944
 C637 C -0.10051 0.32791 0.09887
 C638 C -0.07617 0.34823 0.11796
 C639 C -0.06149 0.37834 0.10232
 C640 C -0.07042 0.38744 0.06769
 C641 C -0.09439 0.36670 0.04863
 C642 C -0.10996 0.33704 0.06433
 C643 C -0.08136 0.30750 0.16754
 C644 C -0.06681 0.33785 0.15215
 C645 C -0.15035 0.28678 0.06227
 C646 C -0.13474 0.31633 0.04628
 H647 H -0.07334 0.30033 0.19393
 H648 H -0.04796 0.35323 0.16706
 H649 H -0.16953 0.27167 0.04752
 H650 H -0.14228 0.32313 0.01965
 H651 H -0.17633 0.23211 0.09827
 H652 H -0.11289 0.24939 0.19129
 H653 H -0.04260 0.39427 0.11665
 H654 H -0.10098 0.37386 0.02181
 C655 C -0.11564 0.70471 -0.11704
 C656 C -0.09995 0.71951 -0.14701
 C657 C -0.11494 0.74972 -0.16230
 C658 C -0.14562 0.76519 -0.14791
 C659 C -0.16059 0.75001 -0.11738
 C660 C -0.14578 0.71984 -0.10196
 C661 C -0.10030 0.67264 -0.10120
 C662 C -0.11610 0.65779 -0.07123
 C663 C -0.10141 0.62730 -0.05629
 C664 C -0.07124 0.61197 -0.07115
 C665 C -0.05555 0.62706 -0.10101
 C666 C -0.07009 0.65748 -0.11627
 C667 C -0.16070 0.70434 -0.07186
 C668 C -0.14609 0.67385 -0.05674
 C669 C -0.06967 0.70365 -0.16126
 C670 C -0.05497 0.67319 -0.14613
 H671 H -0.18393 0.71583 -0.05993
 H672 H -0.15840 0.66274 -0.03354
 H673 H -0.05727 0.71484 -0.18436
 H674 H -0.03161 0.66181 -0.15792
 H675 H -0.10280 0.76085 -0.18559
 H676 H -0.18402 0.76135 -0.10565
 H677 H -0.11310 0.61567 -0.03300
 H678 H -0.03196 0.61528 -0.11200
 C679 C 0.11536 0.70086 0.11924
 C680 C 0.09376 0.72812 0.13190
 C681 C 0.10936 0.75757 0.14782
 C682 C 0.14628 0.76028 0.15015
 C683 C 0.16759 0.73292 0.13697
 C684 C 0.15222 0.70287 0.12189
 C685 C 0.09908 0.66973 0.10267
 C686 C 0.12062 0.64204 0.09076
 C687 C 0.10495 0.61242 0.07515
 C688 C 0.06823 0.61109 0.07048
 C689 C 0.04703 0.63914 0.08222
 C690 C 0.06229 0.66836 0.09883
 C691 C 0.17291 0.67479 0.10941
 C692 C 0.15736 0.64478 0.09433
 C693 C 0.05702 0.72552 0.12810
 C694 C 0.04156 0.69625 0.11161
 H695 H 0.20135 0.67598 0.11142
 H696 H 0.17425 0.62368 0.08513
 H697 H 0.04010 0.74643 0.13769
 H698 H 0.01315 0.69540 0.10892
 H699 H 0.09288 0.77874 0.15765
 H700 H 0.19602 0.73484 0.13893
 H701 H 0.12126 0.59092 0.06573
 H702 H 0.01869 0.63797 0.07874
 C703 C 0.29704 1.11751 0.88720
 C704 C 0.29588 1.12113 0.85047
 C705 C 0.26554 1.13515 0.83466
 C706 C 0.23710 1.14654 0.85547
 C707 C 0.23892 1.14328 0.89227
 C708 C 0.26862 1.12821 0.90826
 C709 C 0.32853 1.10205 0.90390
 C710 C 0.32903 1.09697 0.94046
 C711 C 0.35854 1.08111 0.95603
 C712 C 0.38784 1.07167 0.93545
 C713 C 0.38733 1.07771 0.89899
 C714 C 0.35739 1.09230 0.88294
 C715 C 0.27039 1.12335 0.94484
 C716 C 0.29995 1.10768 0.96064
 C717 C 0.32514 1.11076 0.83036
 C718 C 0.35548 1.09686 0.84635
 H719 H 0.24859 1.13140 0.96136
 H720 H 0.30010 1.10402 0.98888
 H721 H 0.32463 1.11354 0.80203
 H722 H 0.37750 1.08930 0.82989
 H723 H 0.26429 1.13792 0.80634
 H724 H 0.21691 1.15182 0.90831
 H725 H 0.35888 1.07627 0.98409
 H726 H 0.40970 1.06994 0.88308
 C727 C 0.29998 0.87949 1.12110
 C728 C 0.27392 0.90163 1.13523
 C729 C 0.24430 0.88652 1.15120
 C730 C 0.24011 0.84961 1.15214
 C731 C 0.26632 0.82773 1.13762
 C732 C 0.29662 0.84258 1.12244
 C733 C 0.33119 0.89528 1.10425
 C734 C 0.35771 0.87323 1.09075
 C735 C 0.38744 0.88851 1.07485
 C736 C 0.38985 0.92539 1.07146
 C737 C 0.36288 0.94705 1.08473
 C738 C 0.33373 0.93218 1.10165
 C739 C 0.32354 0.82135 1.10844
 C740 C 0.35369 0.83642 1.09310
 C741 C 0.27774 0.93844 1.13267
 C742 C 0.30703 0.95346 1.11590
 H743 H 0.32133 0.79285 1.10939
 H744 H 0.37385 0.81910 1.08268
 H745 H 0.25775 0.95577 1.14337
 H746 H 0.30882 0.98196 1.11411
 H747 H 0.22400 0.90349 1.16198
 H748 H 0.26325 0.79929 1.13845
 H749 H 0.40811 0.87187 1.06429
 H750 H 0.36486 0.97549 1.08218
 C751 C 0.70302 1.11447 1.11831
 C752 C 0.72859 1.12998 1.09653
 C753 C 0.75800 1.14621 1.11186
 C754 C 0.76230 1.14623 1.14860
 C755 C 0.73664 1.13014 1.17003
 C756 C 0.70669 1.11459 1.15502
 C757 C 0.67179 1.09781 1.10237
 C758 C 0.64569 1.08317 1.12416
 C759 C 0.61581 1.06774 1.10881
 C760 C 0.61273 1.06602 1.07207
 C761 C 0.63927 1.08037 1.05059
 C762 C 0.66866 1.09681 1.06562
 C763 C 0.68025 1.09933 1.17595
 C764 C 0.65015 1.08409 1.16079
 C765 C 0.72428 1.12883 1.05988
 C766 C 0.69492 1.11232 1.04467
 H767 H 0.68275 1.09934 1.20431
 H768 H 0.63031 1.07276 1.17787
 H769 H 0.74386 1.14063 1.04282
 H770 H 0.69266 1.11184 1.01628
 H771 H 0.77779 1.15834 1.09523
 H772 H 0.73966 1.13034 1.19835
 H773 H 0.59542 1.05637 1.12526
 H774 H 0.63668 1.07918 1.02224
 C775 C 0.70065 0.88231 0.88018
 C776 C 0.70408 0.88252 0.84344
 C777 C 0.73433 0.86775 0.82814
 C778 C 0.76044 0.85210 0.84937
 C779 C 0.75628 0.85170 0.88611
 C780 C 0.72668 0.86721 0.90169
 C781 C 0.66932 0.89842 0.89647
 C782 C 0.66665 0.89936 0.93325
 C783 C 0.63734 0.91550 0.94864
 C784 C 0.61037 0.92964 0.92756
 C785 C 0.61290 0.92791 0.89076
 C786 C 0.64278 0.91281 0.87501
 C787 C 0.72277 0.86819 0.93838
 C788 C 0.69336 0.88424 0.95391
 C789 C 0.67717 0.89746 0.82282
 C790 C 0.64693 0.91212 0.83833
 H791 H 0.74275 0.85672 0.95523
 H792 H 0.69148 0.88476 0.98232
 H793 H 0.67945 0.89772 0.79445
 H794 H 0.62678 0.92327 0.82147
 H795 H 0.73735 0.86794 0.79982
 H796 H 0.77647 0.84001 0.90259
 H797 H 0.63524 0.91680 0.97701
 H798 H 0.59221 0.93917 0.87460
   
