data_POSCAR
  _audit_creation_date              2014-09-24
  _audit_creation_method            'ToBaCCo'
  _symmetry_space_group_name_H-M    'P1'
  _symmetry_Int_Tables_number       1
  _symmetry_cell_setting            triclinic
  loop_
  _symmetry_equiv_pos_as_xyz
 x,y,z
_cell_length_a 53.0003
_cell_length_b 50.0304
_cell_length_c 50.5409
_cell_angle_alpha 90.509500
_cell_angle_beta 90.120700
_cell_angle_gamma 90.236300
loop_
  _atom_site_label
  _atom_site_type_symbol
  _atom_site_fract_x
  _atom_site_fract_y
  _atom_site_fract_z
C1 C 0.61268 0.64773 0.61493
 C2 C 0.63499 0.63724 0.60430
 C3 C 0.64588 0.61486 0.61540
 C4 C 0.63471 0.60285 0.63749
 C5 C 0.61267 0.61312 0.64783
 C6 C 0.60168 0.63582 0.63665
 C7 C 0.59802 0.66934 0.60834
 N8 N 0.57856 0.67093 0.62573
 C9 C 0.58067 0.65052 0.64313
 C10 C 0.60596 0.59745 0.66888
 N11 N 0.62354 0.57787 0.67198
 C12 C 0.64127 0.58128 0.65273
 C13 C 0.66724 0.60913 0.60098
 N14 N 0.66964 0.62764 0.58162
 C15 C 0.65002 0.64493 0.58355
 H16 H 0.60150 0.68320 0.59242
 H17 H 0.56778 0.64661 0.65924
 H18 H 0.58978 0.60088 0.68143
 H19 H 0.65747 0.56864 0.64931
 H20 H 0.68028 0.59295 0.60453
 H21 H 0.64680 0.66172 0.57062
 C22 C 0.88852 0.35067 0.11348
 C23 C 0.86687 0.36129 0.10160
 C24 C 0.85556 0.38379 0.11230
 C25 C 0.86563 0.39582 0.13519
 C26 C 0.88695 0.38525 0.14691
 C27 C 0.89830 0.36237 0.13611
 C28 C 0.90354 0.32917 0.10728
 N29 N 0.92216 0.32717 0.12583
 C30 C 0.91886 0.34755 0.14359
 C31 C 0.89279 0.40116 0.16842
 N32 N 0.87544 0.42099 0.17014
 C33 C 0.85867 0.41783 0.14998
 C34 C 0.83500 0.38958 0.09670
 N35 N 0.83344 0.37098 0.07701
 C36 C 0.85286 0.35360 0.07987
 H37 H 0.90040 0.31554 0.09085
 H38 H 0.93087 0.35202 0.16040
 H39 H 0.90845 0.39845 0.18191
 H40 H 0.84288 0.43089 0.14607
 H41 H 0.82183 0.40580 0.09977
 H42 H 0.85657 0.33665 0.06701
 C43 C 0.38384 0.15033 -0.10967
 C44 C 0.36100 0.14036 -0.09975
 C45 C 0.34960 0.11848 -0.11177
 C46 C 0.36071 0.10647 -0.13402
 C47 C 0.38322 0.11619 -0.14371
 C48 C 0.39480 0.13840 -0.13160
 C49 C 0.39928 0.17119 -0.10196
 N50 N 0.41917 0.17232 -0.11883
 C51 C 0.41656 0.15236 -0.13703
 C52 C 0.38970 0.10044 -0.16507
 N53 N 0.37148 0.08143 -0.16892
 C54 C 0.35364 0.08523 -0.14983
 C55 C 0.32801 0.11288 -0.09781
 N56 N 0.32592 0.13094 -0.07772
 C57 C 0.34597 0.14790 -0.07880
 H58 H 0.39610 0.18478 -0.08553
 H59 H 0.42968 0.14815 -0.15291
 H60 H 0.40618 0.10343 -0.17729
 H61 H 0.33699 0.07307 -0.14688
 H62 H 0.31468 0.09694 -0.10204
 H63 H 0.34957 0.16422 -0.06508
 C64 C 0.11551 0.84708 0.38665
 C65 C 0.13844 0.85681 0.39687
 C66 C 0.15013 0.87845 0.38518
 C67 C 0.13921 0.89046 0.36301
 C68 C 0.11662 0.88095 0.35303
 C69 C 0.10482 0.85889 0.36477
 C70 C 0.09977 0.82660 0.39414
 N71 N 0.07977 0.82529 0.37712
 C72 C 0.08293 0.84514 0.35905
 C73 C 0.11025 0.89684 0.33197
 N74 N 0.12863 0.91569 0.32859
 C75 C 0.14645 0.91167 0.34765
 C76 C 0.17167 0.88395 0.39945
 N77 N 0.17345 0.86604 0.41940
 C78 C 0.15324 0.84929 0.41793
 H79 H 0.10332 0.81321 0.41040
 H80 H 0.06998 0.85003 0.34327
 H81 H 0.09371 0.89412 0.31965
 H82 H 0.16316 0.92373 0.35096
 H83 H 0.18516 0.89973 0.39555
 H84 H 0.14937 0.83316 0.43149
 N85 N 0.09032 0.16415 0.11298
 N86 N 0.08196 0.15358 0.13503
 C87 C 0.06146 0.16717 0.14317
 C88 C 0.05657 0.18704 0.12505
 C89 C 0.07518 0.18448 0.10609
 H90 H 0.05075 0.16290 0.16083
 H91 H 0.07792 0.19702 0.08900
 Cu92 Cu 0.09855 0.12293 0.15077
 Cu93 Cu 0.12111 0.15195 0.09580
 Cu94 Cu 0.15126 0.09764 0.12367
 N95 N 0.11495 0.09157 0.16533
 N96 N 0.13604 0.08239 0.15513
 C97 C 0.14396 0.06144 0.16939
 C98 C 0.12675 0.05702 0.18941
 C99 C 0.10852 0.07643 0.18621
 H100 H 0.16076 0.04997 0.16527
 H101 H 0.09209 0.07954 0.19848
 N102 N 0.16373 0.11574 0.09180
 N103 N 0.15252 0.13671 0.08143
 C104 C 0.16599 0.14499 0.06043
 C105 C 0.18648 0.12823 0.05729
 C106 C 0.18440 0.10990 0.07747
 H107 H 0.16117 0.16179 0.04814
 H108 H 0.19732 0.09382 0.08167
 H109 H 0.11816 0.11286 0.10828
 H110 H 0.13772 0.13604 0.12909
 N111 N 0.40952 0.83438 0.60994
 N112 N 0.41935 0.84685 0.63053
 C113 C 0.44011 0.83368 0.63842
 C114 C 0.44363 0.81197 0.62171
 C115 C 0.42389 0.81309 0.60380
 H116 H 0.45188 0.83946 0.65502
 H117 H 0.41991 0.79904 0.58793
 Cu118 Cu 0.40426 0.87900 0.64541
 Cu119 Cu 0.37827 0.84595 0.59346
 Cu120 Cu 0.34877 0.90093 0.62135
 N121 N 0.38668 0.90924 0.66119
 N122 N 0.36465 0.91713 0.65227
 C123 C 0.35628 0.93744 0.66747
 C124 C 0.37413 0.94276 0.68682
 C125 C 0.39322 0.92453 0.68220
 H126 H 0.33865 0.94780 0.66450
 H127 H 0.41027 0.92221 0.69372
 N128 N 0.33557 0.88197 0.58997
 N129 N 0.34651 0.86069 0.57962
 C130 C 0.33272 0.85201 0.55879
 C131 C 0.31230 0.86885 0.55575
 C132 C 0.31475 0.88762 0.57583
 H133 H 0.33738 0.83500 0.54643
 H134 H 0.30207 0.90399 0.57998
 H135 H 0.38119 0.88578 0.60415
 H136 H 0.36402 0.86337 0.62751
 N137 N 0.90050 0.67307 0.38834
 N138 N 0.90688 0.66590 0.36420
 C139 C 0.92742 0.67986 0.35683
 C140 C 0.93443 0.69651 0.37760
 C141 C 0.91696 0.69163 0.39731
 H142 H 0.93684 0.67771 0.33797
 H143 H 0.91604 0.70122 0.41654
 Cu144 Cu 0.88830 0.63844 0.34494
 Cu145 Cu 0.87071 0.65866 0.40572
 Cu146 Cu 0.84167 0.60447 0.37520
 N147 N 0.87555 0.60476 0.33093
 N148 N 0.85689 0.59188 0.34232
 C149 C 0.85171 0.56954 0.32825
 C150 C 0.86824 0.56820 0.30711
 C151 C 0.88313 0.59087 0.30948
 H152 H 0.83747 0.55496 0.33342
 H153 H 0.89829 0.59690 0.29650
 N154 N 0.82938 0.62041 0.40859
 N155 N 0.84028 0.64132 0.41998
 C156 C 0.82709 0.64819 0.44171
 C157 C 0.80705 0.63062 0.44429
 C158 C 0.80914 0.61321 0.42299
 H159 H 0.83172 0.66473 0.45478
 H160 H 0.79645 0.59695 0.41801
 H161 H 0.87517 0.62164 0.38765
 H162 H 0.85122 0.64450 0.37279
 N163 N 0.59691 0.32865 -0.10990
 N164 N 0.58662 0.33938 -0.13095
 C165 C 0.56533 0.32588 -0.13710
 C166 C 0.56200 0.30579 -0.11878
 C167 C 0.58239 0.30820 -0.10175
 H168 H 0.55295 0.33049 -0.15345
 H169 H 0.58657 0.29569 -0.08498
 Cu170 Cu 0.60188 0.37015 -0.14795
 Cu171 Cu 0.62870 0.34158 -0.09510
 Cu172 Cu 0.65674 0.39592 -0.12578
 N173 N 0.61746 0.40091 -0.16467
 N174 N 0.63934 0.41036 -0.15650
 C175 C 0.64604 0.43113 -0.17177
 C176 C 0.62717 0.43512 -0.19026
 C177 C 0.60932 0.41562 -0.18514
 H178 H 0.66302 0.44294 -0.16918
 H179 H 0.59181 0.41234 -0.19572
 N180 N 0.67130 0.37849 -0.09442
 N181 N 0.66085 0.35752 -0.08309
 C182 C 0.67533 0.35004 -0.06254
 C183 C 0.69572 0.36727 -0.06065
 C184 C 0.69253 0.38511 -0.08113
 H185 H 0.67112 0.33359 -0.04952
 H186 H 0.70492 0.40152 -0.08609
 H187 H 0.62504 0.38072 -0.10745
 H188 H 0.64271 0.35752 -0.12974
 C189 C -0.02122 0.26825 0.12832
 C190 C -0.03343 0.27428 0.10422
 C191 C -0.05265 0.29351 0.10363
 C192 C -0.05929 0.30812 0.12656
 C193 C -0.04614 0.30277 0.15018
 C194 C -0.02762 0.28304 0.15113
 C195 C -0.00146 0.24689 0.12830
 C196 C 0.00971 0.23724 0.15166
 C197 C 0.02824 0.21751 0.15054
 C198 C 0.03638 0.20725 0.12614
 C199 C 0.02512 0.21636 0.10279
 C200 C 0.00590 0.23558 0.10374
 C201 C -0.02593 0.26159 0.08070
 C202 C -0.00631 0.24311 0.08038
 H203 H -0.03506 0.26641 0.06215
 H204 H -0.00091 0.23424 0.06160
 H205 H -0.06155 0.29785 0.08487
 H206 H -0.05062 0.31314 0.16841
 H207 H 0.03660 0.21062 0.16881
 H208 H 0.03093 0.20800 0.08391
 H209 H -0.01836 0.27990 0.16986
 H210 H 0.00420 0.24443 0.17098
 C211 C 0.52164 0.73098 0.62686
 C212 C 0.52990 0.71979 0.60255
 C213 C 0.54892 0.70033 0.60231
 C214 C 0.55932 0.69109 0.62604
 C215 C 0.55059 0.70157 0.65012
 C216 C 0.53210 0.72136 0.65059
 C217 C 0.50177 0.75222 0.62622
 C218 C 0.49377 0.76616 0.64904
 C219 C 0.47509 0.78567 0.64744
 C220 C 0.46371 0.79160 0.62314
 C221 C 0.47171 0.77808 0.60024
 C222 C 0.49089 0.75883 0.60153
 C223 C 0.51883 0.72774 0.57871
 C224 C 0.49947 0.74652 0.57825
 H225 H 0.52499 0.71903 0.56012
 H226 H 0.49130 0.75173 0.55932
 H227 H 0.55526 0.69185 0.58368
 H228 H 0.55840 0.69468 0.66864
 H229 H 0.46926 0.79584 0.66539
 H230 H 0.46339 0.78295 0.58129
 H231 H 0.52613 0.72862 0.66972
 H232 H 0.50181 0.76249 0.66828
 C233 C 1.01912 0.77048 0.38011
 C234 C 1.02479 0.78399 0.35639
 C235 C 1.04472 0.80256 0.35564
 C236 C 1.06011 0.80734 0.37801
 C237 C 1.05485 0.79295 0.40122
 C238 C 1.03464 0.77502 0.40233
 C239 C 0.99717 0.75147 0.38029
 C240 C 0.98843 0.73903 0.40348
 C241 C 0.96794 0.72140 0.40256
 C242 C 0.95588 0.71546 0.37851
 C243 C 0.96422 0.72793 0.35536
 C244 C 0.98437 0.74623 0.35617
 C245 C 1.01089 0.77848 0.33335
 C246 C 0.99143 0.75965 0.33313
 H247 H 1.01536 0.78861 0.31507
 H248 H 0.98149 0.75585 0.31470
 H249 H 1.04874 0.81236 0.33713
 H250 H 1.06579 0.79602 0.41907
 H251 H 0.96176 0.71208 0.42069
 H252 H 0.95459 0.72390 0.33679
 H253 H 1.03164 0.76477 0.42074
 H254 H 0.99695 0.74285 0.42254
 C255 C 0.47970 0.22880 -0.11570
 C256 C 0.46918 0.22076 -0.14031
 C257 C 0.44948 0.20194 -0.14117
 C258 C 0.43946 0.19148 -0.11777
 C259 C 0.44934 0.20004 -0.09339
 C260 C 0.46929 0.21835 -0.09229
 C261 C 0.50119 0.24843 -0.11572
 C262 C 0.51427 0.25617 -0.09255
 C263 C 0.53411 0.27460 -0.09365
 C264 C 0.54123 0.28598 -0.11776
 C265 C 0.52852 0.27822 -0.14096
 C266 C 0.50890 0.25931 -0.14019
 C267 C 0.47810 0.23183 -0.16387
 C268 C 0.49728 0.25097 -0.16378
 H269 H 0.46992 0.22583 -0.18269
 H270 H 0.50331 0.25915 -0.18253
 H271 H 0.44152 0.19580 -0.16004
 H272 H 0.44183 0.19220 -0.07511
 H273 H 0.54365 0.28024 -0.07546
 H274 H 0.53425 0.28648 -0.15978
 H275 H 0.47611 0.22419 -0.07297
 H276 H 0.50964 0.24811 -0.07345
 C277 C 0.13041 -0.02460 0.27020
 C278 C 0.10733 -0.03683 0.27729
 C279 C 0.10692 -0.05711 0.29634
 C280 C 0.12912 -0.06483 0.30963
 C281 C 0.15183 -0.05172 0.30309
 C282 C 0.15251 -0.03214 0.28362
 C283 C 0.13018 -0.00367 0.24916
 C284 C 0.15239 0.00764 0.23874
 C285 C 0.15117 0.02716 0.21922
 C286 C 0.12782 0.03616 0.20988
 C287 C 0.10559 0.02486 0.21987
 C288 C 0.10661 0.00465 0.23896
 C289 C 0.08470 -0.02829 0.26580
 C290 C 0.08430 -0.00764 0.24745
 H291 H 0.06694 -0.03742 0.27140
 H292 H 0.06626 -0.00149 0.23946
 H293 H 0.08895 -0.06594 0.30153
 H294 H 0.16949 -0.05704 0.31233
 H295 H 0.16858 0.03553 0.21169
 H296 H 0.08748 0.03130 0.21226
 H297 H 0.17053 -0.02297 0.27958
 H298 H 0.17089 0.00148 0.24512
 C299 C 0.62259 0.51800 -0.26975
 C300 C 0.64535 0.52484 -0.28260
 C301 C 0.64548 0.54439 -0.30240
 C302 C 0.62333 0.55842 -0.30902
 C303 C 0.60099 0.55207 -0.29532
 C304 C 0.60056 0.53214 -0.27621
 C305 C 0.62307 0.49643 -0.24936
 C306 C 0.60104 0.48630 -0.23745
 C307 C 0.60249 0.46628 -0.21847
 C308 C 0.62589 0.45609 -0.21061
 C309 C 0.64794 0.46579 -0.22251
 C310 C 0.64665 0.48542 -0.24218
 C311 C 0.66799 0.51256 -0.27518
 C312 C 0.66869 0.49367 -0.25505
 H313 H 0.68552 0.51796 -0.28478
 H314 H 0.68674 0.48507 -0.24978
 H315 H 0.66322 0.54938 -0.31172
 H316 H 0.58337 0.56184 -0.29980
 H317 H 0.58521 0.45903 -0.20960
 H318 H 0.66606 0.45755 -0.21695
 H319 H 0.58281 0.52831 -0.26655
 H320 H 0.58250 0.49330 -0.24271
 C321 C 0.36999 1.02259 0.77075
 C322 C 0.39293 1.03519 0.77801
 C323 C 0.39325 1.05507 0.79782
 C324 C 0.37109 1.06214 0.81157
 C325 C 0.34854 1.04867 0.80481
 C326 C 0.34794 1.02941 0.78468
 C327 C 0.37031 1.00210 0.74892
 C328 C 0.34819 0.99029 0.73851
 C329 C 0.34952 0.97123 0.71822
 C330 C 0.37288 0.96321 0.70803
 C331 C 0.39501 0.97502 0.71803
 C332 C 0.39387 0.99471 0.73797
 C333 C 0.41554 1.02750 0.76585
 C334 C 0.41605 1.00737 0.74661
 H335 H 0.43319 1.03693 0.77157
 H336 H 0.43407 1.00191 0.73807
 H337 H 0.41114 1.06415 0.80311
 H338 H 0.33090 1.05346 0.81439
 H339 H 0.33217 0.96244 0.71076
 H340 H 0.41312 0.96935 0.70983
 H341 H 0.33003 1.01996 0.78049
 H342 H 0.32968 0.99567 0.74552
 C343 C 0.87504 0.48369 0.22793
 C344 C 0.85221 0.47110 0.22009
 C345 C 0.85242 0.45077 0.20073
 C346 C 0.87522 0.44206 0.18967
 C347 C 0.89788 0.45394 0.19805
 C348 C 0.89785 0.47458 0.21681
 C349 C 0.87393 0.50581 0.24811
 C350 C 0.89521 0.52111 0.25557
 C351 C 0.89322 0.54143 0.27453
 C352 C 0.87007 0.54686 0.28678
 C353 C 0.84870 0.53194 0.27934
 C354 C 0.85036 0.51185 0.25982
 C355 C 0.82939 0.47852 0.23193
 C356 C 0.82855 0.49815 0.25168
 H357 H 0.81193 0.46875 0.22611
 H358 H 0.81046 0.50292 0.26047
 H359 H 0.83492 0.44122 0.19468
 H360 H 0.91567 0.44746 0.18973
 H361 H 0.90998 0.55268 0.27992
 H362 H 0.83062 0.53638 0.28831
 H363 H 0.91588 0.48291 0.22249
 H364 H 0.91351 0.51790 0.24684
 C365 C 0.26657 0.13295 -0.02083
 C366 C 0.27700 0.10828 -0.02921
 C367 C 0.29629 0.10781 -0.04818
 C368 C 0.30605 0.13164 -0.05842
 C369 C 0.29632 0.15610 -0.04950
 C370 C 0.27673 0.15681 -0.03106
 C371 C 0.24552 0.13250 -0.00104
 C372 C 0.23247 0.15568 0.00703
 C373 C 0.21312 0.15419 0.02570
 C374 C 0.20649 0.12967 0.03700
 C375 C 0.21910 0.10644 0.02884
 C376 C 0.23820 0.10761 0.00969
 C377 C 0.26842 0.08427 -0.01833
 C378 C 0.24972 0.08398 0.00100
 H379 H 0.27654 0.06541 -0.02460
 H380 H 0.24397 0.06489 0.00905
 H381 H 0.30418 0.08888 -0.05460
 H382 H 0.30365 0.17470 -0.05717
 H383 H 0.20363 0.17239 0.03165
 H384 H 0.21372 0.08730 0.03704
 H385 H 0.26999 0.17621 -0.02494
 H386 H 0.23677 0.17509 -0.00093
 C387 C 0.72848 0.63165 0.52426
 C388 C 0.71810 0.60666 0.53156
 C389 C 0.69909 0.60544 0.55085
 C390 C 0.68957 0.62890 0.56241
 C391 C 0.69940 0.65365 0.55467
 C392 C 0.71868 0.65508 0.53596
 C393 C 0.74908 0.63206 0.50397
 C394 C 0.76195 0.65561 0.49681
 C395 C 0.78085 0.65499 0.47764
 C396 C 0.78728 0.63097 0.46490
 C397 C 0.77481 0.60734 0.47207
 C398 C 0.75611 0.60763 0.49174
 C399 C 0.72639 0.58312 0.51922
 C400 C 0.74471 0.58364 0.49946
 H401 H 0.71833 0.56400 0.52466
 H402 H 0.75022 0.56490 0.49027
 H403 H 0.69116 0.58630 0.55639
 H404 H 0.69230 0.67197 0.56338
 H405 H 0.79018 0.67351 0.47247
 H406 H 0.78002 0.58858 0.46271
 H407 H 0.72540 0.67471 0.53077
 H408 H 0.75786 0.67469 0.50589
 C409 C 0.77570 0.36641 0.01812
 C410 C 0.78588 0.39148 0.02596
 C411 C 0.80471 0.39285 0.04554
 C412 C 0.81416 0.36950 0.05698
 C413 C 0.80463 0.34466 0.04862
 C414 C 0.78558 0.34306 0.02955
 C415 C 0.75505 0.36587 -0.00222
 C416 C 0.74230 0.34224 -0.00982
 C417 C 0.72307 0.34282 -0.02872
 C418 C 0.71622 0.36686 -0.04075
 C419 C 0.72873 0.39053 -0.03331
 C420 C 0.74773 0.39028 -0.01389
 C421 C 0.77746 0.41497 0.01400
 C422 C 0.75906 0.41434 -0.00576
 H423 H 0.78539 0.43414 0.01982
 H424 H 0.75335 0.43305 -0.01455
 H425 H 0.81240 0.41207 0.05157
 H426 H 0.81167 0.32640 0.05723
 H427 H 0.71372 0.32428 -0.03413
 H428 H 0.72322 0.40930 -0.04212
 H429 H 0.77901 0.32338 0.02395
 H430 H 0.74665 0.32315 -0.00123
 C431 C 0.23235 0.86400 0.47704
 C432 C 0.22225 0.88869 0.46866
 C433 C 0.20309 0.88917 0.44947
 C434 C 0.19315 0.86533 0.43897
 C435 C 0.20255 0.84086 0.44788
 C436 C 0.22200 0.84013 0.46656
 C437 C 0.25330 0.86445 0.49705
 C438 C 0.26606 0.84122 0.50514
 C439 C 0.28537 0.84274 0.52397
 C440 C 0.29224 0.86733 0.53541
 C441 C 0.27989 0.89060 0.52726
 C442 C 0.26084 0.88940 0.50796
 C443 C 0.23102 0.91274 0.47976
 C444 C 0.24962 0.91306 0.49928
 H445 H 0.22314 0.93162 0.47350
 H446 H 0.25554 0.93218 0.50747
 H447 H 0.19546 0.90811 0.44307
 H448 H 0.19507 0.82225 0.44002
 H449 H 0.29468 0.82451 0.52989
 H450 H 0.28547 0.90979 0.53556
 H451 H 0.22849 0.82074 0.47266
 H452 H 0.26158 0.82176 0.49705
   
