data_POSCAR
  _audit_creation_date              2014-09-24
  _audit_creation_method            'ToBaCCo'
  _symmetry_space_group_name_H-M    'P1'
  _symmetry_Int_Tables_number       1
  _symmetry_cell_setting            triclinic
  loop_
  _symmetry_equiv_pos_as_xyz
 x,y,z
_cell_length_a 25.1281
_cell_length_b 21.9851
_cell_length_c 19.0738
_cell_angle_alpha 90.025300
_cell_angle_beta 90.252600
_cell_angle_gamma 87.577300
loop_
  _atom_site_label
  _atom_site_type_symbol
  _atom_site_fract_x
  _atom_site_fract_y
  _atom_site_fract_z
C1 C 1.22075 0.20569 0.20244
 C2 C 1.24875 0.24960 0.15353
 C3 C 1.27618 0.29268 0.18864
 C4 C 1.27370 0.28803 0.26900
 C5 C 1.26499 0.17904 0.25025
 C6 C 1.29273 0.22212 0.28498
 C7 C 1.18626 0.24693 0.25029
 C8 C 1.21387 0.28989 0.28483
 H9 H 1.24923 0.24506 0.09681
 H10 H 1.29610 0.32300 0.29742
 H11 H 1.27391 0.13047 0.25573
 H12 H 1.14329 0.24407 0.25427
 C13 C 0.72082 -0.29841 0.18220
 C14 C 0.74720 -0.24576 0.14646
 C15 C 0.76746 -0.20510 0.19271
 C16 C 0.75784 -0.22191 0.27181
 C17 C 0.76226 -0.32716 0.23089
 C18 C 0.78094 -0.28811 0.27903
 C19 C 0.67828 -0.26969 0.22941
 C20 C 0.69701 -0.23082 0.27717
 H21 H 0.75371 -0.24378 0.09023
 H22 H 0.77369 -0.18927 0.31026
 H23 H 0.77214 -0.37586 0.23177
 H24 H 0.63649 -0.28092 0.22697
 C25 C 0.70250 0.22423 -0.31723
 C26 C 0.73744 0.26328 -0.35577
 C27 C 0.77593 0.29119 -0.31157
 C28 C 0.77230 0.27369 -0.23697
 C29 C 0.73735 0.17931 -0.28099
 C30 C 0.77578 0.20628 -0.23561
 C31 C 0.67893 0.26165 -0.26261
 C32 C 0.71689 0.28906 -0.21869
 H33 H 0.73293 0.27352 -0.41133
 H34 H 0.80192 0.29519 -0.20235
 H35 H 0.73239 0.13045 -0.28366
 H36 H 0.63629 0.27265 -0.25866
 C37 C 1.22211 -0.29255 -0.30230
 C38 C 1.27227 -0.27255 -0.33915
 C39 C 1.30319 -0.23735 -0.29822
 C40 C 1.28011 -0.22502 -0.22364
 C41 C 1.24121 -0.32387 -0.23532
 C42 C 1.27214 -0.28937 -0.19436
 C43 C 1.19274 -0.23407 -0.27799
 C44 C 1.22227 -0.19873 -0.23515
 H45 H 1.28162 -0.28355 -0.39339
 H46 H 1.30499 -0.19626 -0.18991
 H47 H 1.23836 -0.37266 -0.22717
 H48 H 1.14999 -0.22635 -0.28473
 C49 C 0.22293 0.20599 0.80132
 C50 C 0.24743 0.24936 0.84790
 C51 C 0.27620 0.29443 0.81112
 C52 C 0.27586 0.28772 0.73521
 C53 C 0.18886 0.24490 0.75005
 C54 C 0.21661 0.28771 0.71574
 C55 C 0.26858 0.17887 0.75652
 C56 C 0.29638 0.22183 0.72193
 H57 H 0.24750 0.24545 0.90471
 H58 H 0.29826 0.32244 0.70652
 H59 H 0.14590 0.24205 0.74537
 H60 H 0.27799 0.13030 0.75235
 C61 C 0.71945 0.70367 0.81717
 C62 C 0.74286 0.75515 0.85176
 C63 C 0.76634 0.79648 0.80311
 C64 C 0.75997 0.77730 0.72828
 C65 C 0.68070 0.72921 0.76794
 C66 C 0.70230 0.76880 0.71834
 C67 C 0.76125 0.67483 0.77580
 C68 C 0.78313 0.71452 0.72570
 H69 H 0.74854 0.75792 0.90821
 H70 H 0.77729 0.80876 0.68976
 H71 H 0.63838 0.71993 0.76867
 H72 H 0.77124 0.62609 0.77700
 C73 C 0.70059 0.22305 0.31555
 C74 C 0.73794 0.26134 0.35874
 C75 C 0.77562 0.28797 0.31933
 C76 C 0.77344 0.27219 0.24004
 C77 C 0.67832 0.26525 0.25910
 C78 C 0.71606 0.29091 0.21987
 C79 C 0.73645 0.17605 0.27620
 C80 C 0.77429 0.20160 0.23556
 H81 H 0.73201 0.27120 0.41407
 H82 H 0.80428 0.29359 0.20785
 H83 H 0.63589 0.27585 0.25211
 H84 H 0.72978 0.12754 0.27618
 C85 C 0.22029 0.70454 0.30346
 C86 C 0.26876 0.72715 0.34264
 C87 C 0.30032 0.76192 0.30247
 C88 C 0.27933 0.77148 0.22596
 C89 C 0.19057 0.76147 0.27497
 C90 C 0.22060 0.79654 0.23284
 C91 C 0.24226 0.67166 0.23910
 C92 C 0.27360 0.70590 0.19872
 H93 H 0.27697 0.71734 0.39756
 H94 H 0.30464 0.79993 0.19278
 H95 H 0.14764 0.76863 0.27950
 H96 H 0.24007 0.62267 0.23208
 O97 O 1.06946 0.10611 0.12479
 O98 O 1.13039 0.04870 0.06070
 C99 C 1.11779 0.09036 0.10694
 O100 O 0.92446 -0.11009 0.11952
 O101 O 0.86317 -0.04997 0.05800
 C102 C 0.87595 -0.09317 0.10305
 O103 O 1.07191 -0.10991 0.12613
 O104 O 1.13178 -0.05792 0.06083
 C105 C 1.12016 -0.09687 0.10937
 O106 O 0.92354 0.11500 0.12125
 O107 O 0.86267 0.06071 0.05926
 C108 C 0.87530 0.10197 0.10537
 Zr109 Zr 0.99622 0.07512 0.08697
 O110 O 0.99631 0.06088 0.19655
 O111 O 0.99502 0.17081 0.09926
 Zr112 Zr 0.99762 -0.07661 0.08517
 O113 O 0.99562 -0.06973 0.19571
 O114 O 1.00235 -0.17295 0.08610
 O115 O 1.04534 -0.00246 0.10027
 O116 O 0.94933 0.00105 0.09790
 O117 O 0.92418 0.11624 -0.12661
 O118 O 0.86302 0.06177 -0.06626
 C119 C 0.87582 0.10375 -0.11135
 O120 O 1.07271 -0.10672 -0.13154
 O121 O 1.13236 -0.05478 -0.06491
 C122 C 1.12085 -0.09329 -0.11403
 O123 O 0.92456 -0.10939 -0.12693
 O124 O 0.86311 -0.05114 -0.06418
 C125 C 0.87589 -0.09380 -0.10993
 O126 O 1.07045 0.10716 -0.12575
 O127 O 1.13094 0.04884 -0.06135
 C128 C 1.11867 0.09102 -0.10707
 Zr129 Zr 0.99658 0.07663 -0.08983
 O130 O 0.99241 0.07255 -0.20073
 O131 O 0.99963 0.17272 -0.09090
 Zr132 Zr 0.99776 -0.07594 -0.09067
 O133 O 0.99286 -0.07798 -0.20146
 O134 O 1.00136 -0.17194 -0.08294
 Zr135 Zr 1.07791 -0.00271 -0.00143
 Zr136 Zr 0.91536 0.00344 -0.00329
 O137 O 0.95006 0.00219 -0.10352
 O138 O 1.04531 -0.00120 -0.10368
 O139 O 0.94840 0.09009 -0.00184
 O140 O 1.04487 -0.08910 -0.00255
 O141 O 1.04248 0.08577 -0.00090
 O142 O 0.94955 -0.08600 -0.00334
 H143 H 0.92550 0.00172 0.13918
 H144 H 1.06915 -0.12580 -0.00276
 H145 H 0.92637 0.00293 -0.14520
 H146 H 1.06505 0.12160 -0.00049
 H147 H 0.97931 -0.18681 0.04758
 H148 H 1.00295 -0.18753 -0.13168
 H149 H 1.01838 -0.04884 -0.21949
 H150 H 1.02669 0.05467 -0.21805
 H151 H 0.97302 0.18891 -0.05681
 H152 H 1.00649 0.18816 0.05432
 H153 H 0.99511 0.10189 0.21818
 H154 H 0.99608 -0.11202 0.21376
 O155 O 1.07159 0.61064 0.62687
 O156 O 1.13094 0.55310 0.56041
 C157 C 1.11908 0.59533 0.60584
 O158 O 0.92512 0.39447 0.62594
 O159 O 0.86358 0.45447 0.56488
 C160 C 0.87677 0.41024 0.60831
 O161 O 1.07134 0.39517 0.63120
 O162 O 1.13092 0.44649 0.56458
 C163 C 1.11912 0.40710 0.61211
 O164 O 0.92651 0.62668 0.61935
 O165 O 0.86415 0.57060 0.56264
 C166 C 0.87816 0.61525 0.60298
 Zr167 Zr 0.99780 0.58033 0.59274
 O168 O 0.99622 0.56778 0.70250
 O169 O 1.00191 0.67552 0.60594
 Zr170 Zr 0.99739 0.42988 0.59362
 O171 O 0.99606 0.44019 0.70377
 O172 O 1.00101 0.33377 0.60004
 O173 O 1.04650 0.50283 0.60614
 O174 O 0.94949 0.50783 0.60643
 O175 O 0.92441 0.62707 0.39279
 O176 O 0.86295 0.56962 0.44852
 C177 C 0.87632 0.61465 0.40864
 O178 O 1.06912 0.39453 0.37654
 O179 O 1.12996 0.44608 0.44136
 C180 C 1.11730 0.40665 0.39409
 O181 O 0.92288 0.39451 0.38513
 O182 O 0.86247 0.45425 0.44778
 C183 C 0.87502 0.41025 0.40399
 O184 O 1.06922 0.61043 0.37994
 O185 O 1.12993 0.55218 0.44386
 C186 C 1.11719 0.59454 0.39887
 Zr187 Zr 0.99595 0.57941 0.41492
 O188 O 0.98792 0.56711 0.30526
 O189 O 0.99997 0.67384 0.39624
 Zr190 Zr 0.99570 0.42861 0.41650
 O191 O 0.98887 0.42933 0.30577
 O192 O 0.99842 0.33241 0.42168
 Zr193 Zr 1.07712 0.50096 0.50326
 Zr194 Zr 0.91573 0.50910 0.50541
 O195 O 0.94770 0.50663 0.40366
 O196 O 1.04431 0.50171 0.40120
 O197 O 0.95052 0.59471 0.50437
 O198 O 1.04290 0.41537 0.50452
 O199 O 1.04223 0.58973 0.50321
 O200 O 0.94925 0.41969 0.50563
 H201 H 0.92473 0.50969 0.64678
 H202 H 1.06620 0.37787 0.50437
 H203 H 0.92208 0.50813 0.36397
 H204 H 1.06379 0.62641 0.50289
 H205 H 0.98708 0.31861 0.55499
 H206 H 0.99875 0.31748 0.37261
 H207 H 1.01884 0.45212 0.28712
 H208 H 1.02416 0.56138 0.28555
 H209 H 0.99936 0.69382 0.44267
 H210 H 0.99291 0.69411 0.55999
 H211 H 0.99510 0.60918 0.72310
 H212 H 0.99621 0.39845 0.72336
 O213 O 0.60085 -0.08418 0.62413
 O214 O 0.55629 -0.15585 0.56144
 C215 C 0.59332 -0.13917 0.60540
 O216 O 0.39927 0.07985 0.62543
 O217 O 0.44489 0.15014 0.56266
 C218 C 0.40886 0.13494 0.60769
 O219 O 0.40877 -0.08509 0.63377
 O220 O 0.45580 -0.15626 0.56716
 C221 C 0.42053 -0.14036 0.61501
 O222 O 0.60090 0.07717 0.61169
 O223 O 0.54658 0.14865 0.55570
 C224 C 0.58796 0.13216 0.59377
 Zr225 Zr 0.56486 -0.00373 0.58852
 O226 O 0.55432 -0.00074 0.69833
 O227 O 0.64852 -0.00668 0.60211
 Zr228 Zr 0.43452 -0.00329 0.59324
 O229 O 0.44557 -0.00078 0.70311
 O230 O 0.35080 -0.00649 0.60207
 O231 O 0.50215 -0.06017 0.60451
 O232 O 0.49843 0.05208 0.60371
 O233 O 0.59322 0.07727 0.38248
 O234 O 0.54340 0.14854 0.44488
 C235 C 0.58201 0.13204 0.40276
 O236 O 0.40317 -0.08520 0.37721
 O237 O 0.45348 -0.15645 0.44001
 C238 C 0.41636 -0.14052 0.39412
 O239 O 0.39420 0.08000 0.38516
 O240 O 0.44250 0.15027 0.44474
 C241 C 0.40481 0.13511 0.40165
 O242 O 0.59300 -0.08538 0.37299
 O243 O 0.55285 -0.15661 0.44113
 C244 C 0.58686 -0.14019 0.39364
 Zr245 Zr 0.56033 -0.00408 0.41124
 O246 O 0.54603 -0.00106 0.30203
 O247 O 0.64365 -0.00844 0.39515
 Zr248 Zr 0.42957 -0.00323 0.41707
 O249 O 0.42721 0.00267 0.30622
 O250 O 0.34574 -0.00510 0.42606
 Zr251 Zr 0.50125 -0.09750 0.50241
 Zr252 Zr 0.49483 0.08936 0.50227
 O253 O 0.49316 0.05143 0.40118
 O254 O 0.49669 -0.06002 0.40051
 O255 O 0.57214 0.04877 0.49930
 O256 O 0.42396 -0.05666 0.50541
 O257 O 0.57518 -0.05601 0.49951
 O258 O 0.41945 0.05110 0.50546
 H259 H 0.49920 0.08082 0.64375
 H260 H 0.39254 -0.08237 0.50635
 H261 H 0.49192 0.07963 0.36059
 H262 H 0.60949 -0.07983 0.49809
 H263 H 0.33544 0.01050 0.55806
 H264 H 0.33108 -0.00409 0.37769
 H265 H 0.45071 -0.03066 0.28738
 H266 H 0.58140 0.00162 0.27976
 H267 H 0.66028 0.00518 0.43919
 H268 H 0.66425 -0.00725 0.55473
 H269 H 0.59015 0.00458 0.71868
 H270 H 0.40944 0.00166 0.72382
 O271 O 0.57943 0.59870 0.12004
 O272 O 0.63749 0.54119 0.05207
 C273 C 0.62650 0.58315 0.09708
 O274 O 0.43166 0.38318 0.11498
 O275 O 0.37109 0.44565 0.05567
 C276 C 0.38355 0.40072 0.09769
 O277 O 0.58042 0.38608 0.12080
 O278 O 0.63833 0.43920 0.05392
 C279 C 0.62780 0.39995 0.10129
 O280 O 0.43207 0.61403 0.11520
 O281 O 0.37137 0.55792 0.05560
 C282 C 0.38415 0.60200 0.09694
 Zr283 Zr 0.50436 0.56964 0.08760
 O284 O 0.50325 0.55565 0.19713
 O285 O 0.50768 0.66463 0.10314
 Zr286 Zr 0.50480 0.41839 0.08486
 O287 O 0.50297 0.42531 0.19531
 O288 O 0.50916 0.32221 0.08911
 O289 O 0.55296 0.49191 0.09938
 O290 O 0.45689 0.49620 0.09926
 O291 O 0.43028 0.61836 -0.11257
 O292 O 0.37034 0.55906 -0.05684
 C293 C 0.38258 0.60504 -0.09533
 O294 O 0.57887 0.38873 -0.13099
 O295 O 0.63768 0.44076 -0.06376
 C296 C 0.62663 0.40195 -0.11155
 O297 O 0.42952 0.38569 -0.12223
 O298 O 0.37005 0.44654 -0.05969
 C299 C 0.38180 0.40233 -0.10283
 O300 O 0.57764 0.60346 -0.12128
 O301 O 0.63699 0.54305 -0.05806
 C302 C 0.62520 0.58722 -0.10013
 Zr303 Zr 0.50285 0.57167 -0.09122
 O304 O 0.49631 0.56093 -0.20119
 O305 O 0.50603 0.66632 -0.10884
 Zr306 Zr 0.50333 0.42011 -0.09291
 O307 O 0.49647 0.42282 -0.20356
 O308 O 0.50721 0.32385 -0.09232
 Zr309 Zr 0.58281 0.49197 -0.00378
 Zr310 Zr 0.42371 0.49911 -0.00208
 O311 O 0.45525 0.49837 -0.10411
 O312 O 0.55126 0.49420 -0.10646
 O313 O 0.45749 0.58519 -0.00112
 O314 O 0.55006 0.40560 -0.00462
 O315 O 0.54811 0.58094 -0.00191
 O316 O 0.45708 0.40959 -0.00376
 H317 H 0.43213 0.49731 0.13961
 H318 H 0.57386 0.36850 -0.00527
 H319 H 0.42953 0.50027 -0.14369
 H320 H 0.56893 0.61820 -0.00083
 H321 H 0.49577 0.30780 0.04342
 H322 H 0.50793 0.31091 -0.14212
 H323 H 0.52695 0.44518 -0.22149
 H324 H 0.53292 0.55813 -0.22017
 H325 H 0.50458 0.68581 -0.06211
 H326 H 0.49885 0.68383 0.05744
 H327 H 0.50327 0.59675 0.21839
 H328 H 0.50424 0.38294 0.21309
 C329 C 1.18905 0.15985 0.16624
 C330 C 1.15898 0.12546 0.13837
 C331 C 1.18949 0.66670 0.65794
 C332 C 1.15973 0.63205 0.63189
 C333 C 0.66236 0.19935 0.64337
 C334 C 0.62590 0.17412 0.61670
 C335 C 0.69652 0.65669 0.14006
 C336 C 0.66772 0.62013 0.11746
 C337 C 0.80329 -0.15972 0.16593
 C338 C 0.83459 -0.12663 0.13770
 C339 C 0.80757 0.33564 0.66286
 C340 C 0.83670 0.37253 0.63787
 C341 C 0.35039 -0.21046 0.67341
 C342 C 0.38621 -0.18358 0.64655
 C343 C 0.31055 0.33377 0.15397
 C344 C 0.34203 0.36624 0.12708
 C345 C 0.80668 0.17121 -0.18905
 C346 C 0.83539 0.13938 -0.15078
 C347 C 0.81018 0.68519 0.33669
 C348 C 0.83718 0.65377 0.37551
 C349 C 0.33625 0.20449 0.33146
 C350 C 0.37043 0.17948 0.36709
 C351 C 0.30946 0.67826 -0.15029
 C352 C 0.34153 0.64513 -0.12146
 C353 C 1.19373 -0.15619 -0.18843
 C354 C 1.16337 -0.12510 -0.15246
 C355 C 1.18655 0.33574 0.32672
 C356 C 1.15812 0.37088 0.35928
 C357 C 0.66003 -0.20529 0.32762
 C358 C 0.62510 -0.18140 0.36228
 C359 C 0.69791 0.33356 -0.17575
 C360 C 0.66939 0.36834 -0.14368
 C361 C 1.19084 0.16042 -0.16325
 C362 C 1.16024 0.12614 -0.13675
 C363 C 1.18724 0.66438 0.34331
 C364 C 1.15752 0.63051 0.37062
 C365 C 0.65672 0.19808 0.35411
 C366 C 0.61977 0.17347 0.37940
 C367 C 0.69484 0.66215 -0.14229
 C368 C 0.66608 0.62546 -0.11947
 C369 C 0.80209 -0.16184 -0.17152
 C370 C 0.83421 -0.12855 -0.14407
 C371 C 0.80705 0.33542 0.34872
 C372 C 0.83508 0.37270 0.37475
 C373 C 0.34705 -0.21080 0.33272
 C374 C 0.38243 -0.18392 0.36127
 C375 C 0.30860 0.33375 -0.15623
 C376 C 0.34001 0.36708 -0.13044
 C377 C 1.19267 -0.16095 0.18475
 C378 C 1.16260 -0.12954 0.14810
 C379 C 1.18917 0.33452 0.67554
 C380 C 1.16044 0.37059 0.64477
 C381 C 0.66795 -0.20478 0.67039
 C382 C 0.63271 -0.18036 0.63586
 C383 C 0.69839 0.33492 0.16991
 C384 C 0.67057 0.36781 0.13468
 C385 C 0.80624 0.16557 0.18534
 C386 C 0.83484 0.13549 0.14586
 C387 C 0.81198 0.68750 0.67316
 C388 C 0.83930 0.65527 0.63558
 C389 C 0.34023 0.20420 0.67673
 C390 C 0.37456 0.17921 0.64186
 C391 C 0.31130 0.67381 0.15501
 C392 C 0.34334 0.64128 0.12533
   
