data_POSCAR
  _audit_creation_date              2014-09-24
  _audit_creation_method            'ToBaCCo'
  _symmetry_space_group_name_H-M    'P1'
  _symmetry_Int_Tables_number       1
  _symmetry_cell_setting            triclinic
  loop_
  _symmetry_equiv_pos_as_xyz
 x,y,z
_cell_length_a 26.8682
_cell_length_b 25.9345
_cell_length_c 61.1745
_cell_angle_alpha 93.288600
_cell_angle_beta 87.197400
_cell_angle_gamma 118.896700
loop_
  _atom_site_label
  _atom_site_type_symbol
  _atom_site_fract_x
  _atom_site_fract_y
  _atom_site_fract_z
C1 C 0.02437 -0.03362 0.49094
 C2 C 0.97059 0.01940 0.16878
 C3 C -0.00105 1.00437 0.84080
 O4 O 0.46259 0.07474 0.02664
 O5 O 0.56434 0.07015 -0.01535
 O6 O 0.46969 0.07704 -0.01593
 O7 O 0.56096 0.07789 0.02704
 O8 O 0.51603 -0.01933 0.02592
 O9 O 0.42165 -0.02003 -0.01603
 O10 O 0.51559 -0.02699 -0.01652
 O11 O 0.41793 -0.02246 0.02655
 Cu12 Cu 0.51893 0.08466 0.00556
 Cu13 Cu 0.46309 -0.03186 0.00486
 C14 C 0.42311 0.02656 0.03390
 C15 C 0.55758 0.02043 -0.02288
 C16 C 0.42939 0.02861 -0.02306
 C17 C 0.55473 0.02960 0.03366
 O18 O -0.02628 0.41937 0.68832
 O19 O -0.02544 0.51376 0.64512
 O20 O -0.03074 0.41051 0.64574
 O21 O -0.03280 0.51606 0.68760
 O22 O 0.06099 0.56541 0.68680
 O23 O 0.06302 0.45659 0.64538
 O24 O 0.06837 0.55926 0.64432
 O25 O 0.06747 0.46786 0.68802
 Cu26 Cu -0.03809 0.46013 0.66672
 Cu27 Cu 0.07428 0.51687 0.66614
 C28 C 0.02077 0.42770 0.69557
 C29 C 0.02195 0.55287 0.63738
 C30 C 0.01607 0.41492 0.63844
 C31 C 0.01331 0.55916 0.69420
 O32 O 0.51681 0.56973 0.31303
 O33 O 0.42645 0.46039 0.35371
 O34 O 0.52150 0.56067 0.35481
 O35 O 0.41642 0.47645 0.31324
 O36 O 0.45945 0.42384 0.30436
 O37 O 0.56701 0.51043 0.34635
 O38 O 0.47193 0.40999 0.34540
 O39 O 0.55968 0.51685 0.30452
 Cu40 Cu 0.46602 0.52196 0.33457
 Cu41 Cu 0.51881 0.46005 0.32436
 C42 C 0.55402 0.56184 0.30187
 C43 C 0.43359 0.41605 0.35629
 C44 C 0.56270 0.55108 0.35757
 C45 C 0.41917 0.43549 0.30186
 C46 C 0.01379 0.10750 0.53163
 C47 C -0.03594 0.05482 0.52673
 C48 C -0.03350 0.01007 0.51350
 C49 C 0.01865 0.01695 0.50416
 C50 C 0.06820 0.06978 0.51002
 C51 C 0.06573 0.11425 0.52306
 C52 C 0.01284 0.15428 0.54651
 N53 N 0.06213 0.20354 0.55167
 N54 N 0.06227 0.24503 0.56553
 C55 C 0.01306 0.23916 0.57488
 N56 N -0.03642 0.19008 0.56963
 N57 N -0.03655 0.14846 0.55574
 C58 C 0.01376 0.28487 0.59078
 C59 C -0.03721 0.28034 0.59982
 C60 C -0.03635 0.32283 0.61514
 C61 C 0.01551 0.37077 0.62185
 C62 C 0.06649 0.37556 0.61273
 C63 C 0.06562 0.33316 0.59734
 H64 H -0.07667 0.04733 0.53362
 H65 H -0.07246 -0.03115 0.51173
 H66 H 0.11010 0.07740 0.50519
 H67 H 0.10525 0.15361 0.52685
 H68 H -0.07789 0.24385 0.59513
 H69 H -0.07643 0.31781 0.62185
 H70 H 0.10711 0.41198 0.61752
 H71 H 0.10574 0.33807 0.59073
 C72 C 0.84339 0.87461 0.20755
 C73 C 0.85010 0.93168 0.20988
 C74 C 0.89172 0.97712 0.19777
 C75 C 0.92914 0.96776 0.18311
 C76 C 0.92141 0.90991 0.18047
 C77 C 0.87954 0.86418 0.19273
 C78 C 0.79815 0.82654 0.22035
 N79 N 0.79305 0.77176 0.21962
 N80 N 0.75263 0.72912 0.23141
 C81 C 0.71550 0.73940 0.24436
 N82 N 0.72048 0.79407 0.24499
 N83 N 0.76089 0.83666 0.23324
 C84 C 0.67168 0.69265 0.25806
 C85 C 0.63232 0.70305 0.27095
 C86 C 0.59300 0.66005 0.28477
 C87 C 0.59233 0.60584 0.28606
 C88 C 0.63072 0.59493 0.27278
 C89 C 0.66984 0.63775 0.25892
 H90 H 0.82284 0.94144 0.22098
 H91 H 0.89474 1.02031 0.19973
 H92 H 0.94607 0.89897 0.16850
 H93 H 0.87477 0.82036 0.19026
 H94 H 0.63235 0.74476 0.27062
 H95 H 0.56400 0.66979 0.29479
 H96 H 0.63120 0.55350 0.27331
 H97 H 0.69934 0.62813 0.24920
 C98 C 0.13979 0.02192 -0.12129
 C99 C 0.09735 -0.03299 -0.12893
 C100 C 0.05268 -0.03779 -0.14098
 C101 C 0.04900 0.01230 -0.14703
 C102 C 0.09077 0.06747 -0.13801
 C103 C 0.13576 0.07222 -0.12576
 C104 C 0.18600 0.02512 -0.10795
 N105 N 0.22667 0.07713 -0.09923
 N106 N 0.26693 0.07869 -0.08682
 C107 C 0.26815 0.02835 -0.08263
 N108 N 0.22771 -0.02340 -0.09148
 N109 N 0.18764 -0.02495 -0.10385
 C110 C 0.31137 0.02905 -0.06822
 C111 C 0.30858 -0.02417 -0.06260
 C112 C 0.34745 -0.02423 -0.04826
 C113 C 0.39030 0.02894 -0.03926
 C114 C 0.39397 0.08229 -0.04522
 C115 C 0.35486 0.08234 -0.05950
 H116 H 0.09768 -0.07316 -0.12523
 H117 H 0.02063 -0.08205 -0.14502
 H118 H 0.08788 0.10725 -0.13953
 H119 H 0.16666 0.11524 -0.11940
 H120 H 0.27574 -0.06611 -0.06900
 H121 H 0.34349 -0.06606 -0.04404
 H122 H 0.42647 0.12405 -0.03854
 H123 H 0.35839 0.12412 -0.06352
 C124 C 0.04300 0.85178 0.53647
 C125 C 0.07562 0.86670 0.51694
 C126 C 0.07248 0.90552 0.50272
 C127 C 0.03780 0.93216 0.50786
 C128 C 0.00630 0.91707 0.52788
 C129 C 0.00925 0.87834 0.54191
 C130 C 0.04041 0.80588 0.55054
 N131 N -0.00325 0.77992 0.56527
 N132 N -0.00691 0.73797 0.57782
 C133 C 0.03305 0.72015 0.57625
 N134 N 0.07688 0.74608 0.56152
 N135 N 0.08035 0.78791 0.54883
 C136 C 0.02928 0.67449 0.59074
 C137 C 0.07703 0.66751 0.59396
 C138 C 0.07428 0.62717 0.60882
 C139 C 0.02351 0.59239 0.62055
 C140 C -0.02478 0.59792 0.61677
 C141 C -0.02183 0.63880 0.60213
 H142 H 0.10120 0.84590 0.51204
 H143 H 0.09387 0.91059 0.48694
 H144 H -0.02322 0.93276 0.53268
 H145 H -0.01663 0.86780 0.55682
 H146 H 0.11700 0.69432 0.58546
 H147 H 0.11217 0.62370 0.61132
 H148 H -0.06444 0.57182 0.62558
 H149 H -0.05953 0.64280 0.59989
 C150 C 0.09762 0.16957 0.20689
 C151 C 0.05891 0.11835 0.21738
 C152 C 0.01688 0.07104 0.20560
 C153 C 0.01007 0.07445 0.18302
 C154 C 0.04828 0.12740 0.17282
 C155 C 0.09192 0.17400 0.18453
 C156 C 0.14562 0.21585 0.21925
 N157 N 0.19897 0.24277 0.21023
 N158 N 0.24316 0.28007 0.22225
 C159 C 0.23549 0.29216 0.24367
 N160 N 0.18201 0.26588 0.25253
 N161 N 0.13804 0.22813 0.24062
 C162 C 0.28408 0.33147 0.25749
 C163 C 0.27589 0.36305 0.27539
 C164 C 0.32032 0.39762 0.28941
 C165 C 0.37371 0.40047 0.28614
 C166 C 0.38222 0.36915 0.26816
 C167 C 0.33787 0.33545 0.25377
 H168 H 0.06328 0.11344 0.23454
 H169 H -0.00799 0.03104 0.21431
 H170 H 0.04587 0.13160 0.15546
 H171 H 0.12162 0.21317 0.17608
 H172 H 0.23493 0.36089 0.27861
 H173 H 0.31240 0.42108 0.30318
 H174 H 0.42303 0.37079 0.26525
 H175 H 0.34510 0.31112 0.24015
 C176 C 0.85944 -0.01530 -0.11339
 C177 C 0.91636 0.02082 -0.10794
 C178 C 0.96021 0.02350 -0.12181
 C179 C 0.94935 -0.01044 -0.14175
 C180 C 0.89125 -0.04834 -0.14657
 C181 C 0.84732 -0.05122 -0.13253
 C182 C 0.81361 -0.01128 -0.10016
 N183 N 0.75805 -0.05151 -0.10300
 N184 N 0.71707 -0.04596 -0.09170
 C185 C 0.72991 0.00037 -0.07728
 N186 N 0.78543 0.04050 -0.07446
 N187 N 0.82635 0.03477 -0.08564
 C188 C 0.68458 0.00676 -0.06463
 C189 C 0.69654 0.06044 -0.05358
 C190 C 0.65459 0.06570 -0.04074
 C191 C 0.59998 0.01717 -0.03845
 C192 C 0.58760 -0.03606 -0.04993
 C193 C 0.62932 -0.04109 -0.06300
 H194 H 0.92735 0.04914 -0.09326
 H195 H 1.00268 0.05510 -0.11712
 H196 H 0.87880 -0.07148 -0.16227
 H197 H 0.80377 -0.07877 -0.13747
 H198 H 0.73857 0.09832 -0.05465
 H199 H 0.66547 0.10719 -0.03202
 H200 H 0.54585 -0.07423 -0.04853
 H201 H 0.61867 -0.08300 -0.07132
 C202 C 0.10547 0.00612 0.13005
 C203 C 0.09368 -0.01245 0.15170
 C204 C 0.04853 -0.01111 0.16375
 C205 C 0.01261 0.00665 0.15422
 C206 C 0.02467 0.02398 0.13222
 C207 C 0.06996 0.02340 0.12041
 C208 C 0.15621 0.01119 0.11769
 N209 N 0.17980 0.05041 0.10155
 N210 N 0.22494 0.05514 0.08999
 C211 C 0.24828 0.02060 0.09400
 N212 N 0.22488 -0.01859 0.11022
 N213 N 0.17990 -0.02297 0.12195
 C214 C 0.29646 0.02407 0.08018
 C215 C 0.30674 -0.02416 0.07782
 C216 C 0.34869 -0.02286 0.06306
 C217 C 0.38185 0.02708 0.05067
 C218 C 0.37321 0.07625 0.05372
 C219 C 0.33059 0.07456 0.06818
 H220 H 0.12098 -0.02523 0.15964
 H221 H 0.04282 -0.02191 0.18084
 H222 H 0.00151 0.04158 0.12419
 H223 H 0.07810 0.03818 0.10377
 H224 H 0.28105 -0.06370 0.08679
 H225 H 0.35469 -0.06129 0.06113
 H226 H 0.39808 0.11528 0.04438
 H227 H 0.32387 0.11257 0.06977
 C228 C 0.87499 0.83505 0.45426
 C229 C 0.88054 0.89070 0.46008
 C230 C 0.92738 0.93263 0.47188
 C231 C 0.96946 0.91976 0.47901
 C232 C 0.96388 0.86416 0.47216
 C233 C 0.91740 0.82254 0.46038
 C234 C 0.82681 0.79094 0.44105
 N235 N 0.82604 0.74051 0.43314
 N236 N 0.78356 0.70123 0.42091
 C237 C 0.73984 0.71057 0.41610
 N238 N 0.74042 0.76087 0.42410
 N239 N 0.78301 0.80025 0.43630
 C240 C 0.69323 0.66760 0.40200
 C241 C 0.64565 0.67488 0.39876
 C242 C 0.60283 0.63611 0.38477
 C243 C 0.60652 0.58913 0.37356
 C244 C 0.65350 0.58101 0.37710
 C245 C 0.69635 0.61976 0.39122
 H246 H 0.84956 0.90264 0.45497
 H247 H 0.93165 0.97615 0.47435
 H248 H 0.99586 0.85213 0.47535
 H249 H 0.91535 0.78062 0.45578
 H250 H 0.64164 0.71096 0.40688
 H251 H 0.56721 0.64369 0.38246
 H252 H 0.65759 0.54527 0.36871
 H253 H 0.73241 0.61281 0.39336
 C254 C 0.01664 0.15004 0.80311
 C255 C 0.06506 0.14609 0.80810
 C256 C 0.06031 0.10026 0.82068
 C257 C 0.00693 0.05710 0.82931
 C258 C -0.04114 0.06168 0.82327
 C259 C -0.03627 0.10739 0.81098
 C260 C 0.01963 0.19563 0.78868
 N261 N -0.02853 0.19734 0.78417
 N262 N -0.02738 0.23582 0.77043
 C263 C 0.02204 0.27447 0.76054
 N264 N 0.07051 0.27335 0.76519
 N265 N 0.06935 0.23468 0.77897
 C266 C 0.02224 0.31535 0.74449
 C267 C 0.07337 0.35771 0.73491
 C268 C 0.07292 0.39469 0.71924
 C269 C 0.02132 0.38995 0.71272
 C270 C -0.02971 0.34806 0.72247
 C271 C -0.02925 0.31133 0.73820
 H272 H 0.10655 0.17737 0.80173
 H273 H 0.09864 0.09724 0.82248
 H274 H -0.08397 0.02932 0.82731
 H275 H -0.07491 0.10790 0.80707
 H276 H 0.11376 0.36210 0.73940
 H277 H 0.11303 0.42654 0.71204
 H278 H -0.07014 0.34338 0.71785
 H279 H -0.06950 0.27921 0.74521
 C280 C 0.84515 0.03322 0.12997
 C281 C 0.85422 -0.01570 0.12778
 C282 C 0.89545 -0.01811 0.13985
 C283 C 0.92973 0.02849 0.15449
 C284 C 0.92038 0.07766 0.15677
 C285 C 0.87895 0.08019 0.14444
 C286 C 0.79969 0.03364 0.11734
 N287 N 0.79609 0.08369 0.11548
 N288 N 0.75561 0.08333 0.10357
 C289 C 0.71696 0.03287 0.09318
 N290 N 0.72039 -0.01709 0.09525
 N291 N 0.76084 -0.01669 0.10705
 C292 C 0.67315 0.03220 0.07919
 C293 C 0.63043 -0.02149 0.07033
 C294 C 0.59115 -0.02238 0.05599
 C295 C 0.59375 0.03039 0.05008
 C296 C 0.63553 0.08403 0.05935
 C297 C 0.67473 0.08492 0.07379
 H298 H 0.82916 -0.05270 0.11679
 H299 H 0.90044 -0.05715 0.13792
 H300 H 0.94355 0.11346 0.16842
 H301 H 0.87244 0.11825 0.14665
 H302 H 0.62770 -0.06299 0.07423
 H303 H 0.55945 -0.06443 0.04919
 H304 H 0.63855 0.12548 0.05517
 H305 H 0.70702 0.12700 0.08033
 C306 C 0.15654 0.07839 0.44412
 C307 C 0.09881 0.05480 0.43976
 C308 C 0.05721 0.01534 0.45381
 C309 C 0.07127 -0.00311 0.47281
 C310 C 0.13003 0.01864 0.47630
 C311 C 0.17185 0.05825 0.46208
 C312 C 0.19943 0.12793 0.43124
 N313 N 0.25577 0.14479 0.43184
 N314 N 0.29392 0.19124 0.42091
 C315 C 0.27732 0.22311 0.40920
 N316 N 0.22107 0.20619 0.40865
 N317 N 0.18301 0.15962 0.41940
 C318 C 0.31915 0.27484 0.39704
 C319 C 0.30457 0.31690 0.39055
 C320 C 0.34267 0.36415 0.37804
 C321 C 0.39582 0.36984 0.37146
 C322 C 0.41094 0.32855 0.37835
 C323 C 0.37318 0.28180 0.39117
 H324 H 0.08543 0.06900 0.42593
 H325 H 0.01394 0.00256 0.45012
 H326 H 0.14454 0.01046 0.49121
 H327 H 0.21615 0.07631 0.46608
 H328 H 0.26342 0.31303 0.39498
 H329 H 0.32975 0.39513 0.37292
 H330 H 0.45173 0.33192 0.37357
 H331 H 0.38564 0.25014 0.39591
 C332 C -0.01661 0.86415 0.79257
 C333 C 0.01845 0.92369 0.78835
 C334 C 0.02043 0.96767 0.80304
 C335 C -0.01329 0.95445 0.82261
 C336 C -0.04952 0.89369 0.82632
 C337 C -0.05167 0.84958 0.81146
 C338 C -0.01300 0.81809 0.77816
 N339 N -0.05221 0.76031 0.77971
 N340 N -0.04745 0.71910 0.76714
 C341 C -0.00304 0.73390 0.75267
 N342 N 0.03613 0.79163 0.75115
 N343 N 0.03121 0.83280 0.76361
 C344 C 0.00227 0.68829 0.73858
 C345 C 0.05357 0.70146 0.72719
 C346 C 0.05788 0.65899 0.71326
 C347 C 0.01076 0.60277 0.71024
 C348 C -0.04018 0.58933 0.72192
 C349 C -0.04427 0.63147 0.73603
 H350 H 0.04618 0.93663 0.77393
 H351 H 0.05099 1.01201 0.79912
 H352 H -0.07270 0.87922 0.84165
 H353 H -0.07841 0.80391 0.81546
 H354 H 0.09037 0.74473 0.72892
 H355 H 0.09761 0.67066 0.70444
 H356 H -0.07720 0.54627 0.72000
 H357 H -0.08436 0.61987 0.74456
   
