data_POSCAR
  _audit_creation_date              2014-09-24
  _audit_creation_method            'ToBaCCo'
  _symmetry_space_group_name_H-M    'P1'
  _symmetry_Int_Tables_number       1
  _symmetry_cell_setting            triclinic
  loop_
  _symmetry_equiv_pos_as_xyz
 x,y,z
_cell_length_a 23.1789
_cell_length_b 23.9196
_cell_length_c 61.1586
_cell_angle_alpha 79.034600
_cell_angle_beta 97.306600
_cell_angle_gamma 118.962200
loop_
  _atom_site_label
  _atom_site_type_symbol
  _atom_site_fract_x
  _atom_site_fract_y
  _atom_site_fract_z
C1 C -0.00056 0.17268 0.51810
 H2 H 0.04845 0.17882 0.51703
 C3 C -0.01024 0.20919 0.53104
 H4 H 0.03170 0.24300 0.54002
 C5 C -0.11503 0.11804 0.50864
 H6 H -0.15559 0.08185 0.50004
 C7 C -0.12707 0.15342 0.52159
 H8 H -0.17710 0.14455 0.52276
 N9 N -0.05261 0.12763 0.50748
 C10 C -0.01655 -0.03405 0.50701
 H11 H -0.01348 -0.03298 0.48942
 C12 C -0.02012 -0.08713 0.52230
 H13 H -0.01932 -0.12657 0.51634
 C14 C -0.02674 0.01358 0.53593
 H15 H -0.03119 0.05185 0.54120
 C16 C -0.03038 -0.03828 0.55170
 H17 H -0.03600 -0.03837 0.56902
 Zn18 Zn -0.03259 0.07720 0.49261
 N19 N -0.02111 0.01435 0.51400
 C20 C 0.09656 0.12181 0.47738
 N21 N 0.04480 0.13399 0.47680
 C22 C 0.04576 0.18807 0.46447
 C23 C 0.09919 0.23144 0.45140
 C24 C 0.15116 0.16398 0.46446
 C25 C -0.15464 -0.02367 0.48058
 C26 C -0.19926 -0.06599 0.46625
 C27 C -0.13665 0.00914 0.43520
 C28 C -0.09292 0.04922 0.45017
 N29 N -0.10166 0.03175 0.47243
 H30 H 0.09512 0.07895 0.48753
 H31 H 0.00400 0.19666 0.46441
 H32 H 0.09768 0.27291 0.44111
 H33 H 0.19169 0.15331 0.46487
 H34 H -0.16056 -0.03660 0.49840
 H35 H -0.24067 -0.10909 0.47371
 H36 H -0.12358 0.02421 0.41795
 H37 H -0.04992 0.09273 0.44393
 C38 C -0.02892 -0.09039 0.54490
 C39 C -0.07423 0.19921 0.53320
 C40 C -0.19004 -0.05158 0.44296
 C41 C 0.15254 0.21932 0.45106
 C42 C 1.24463 0.07231 0.15514
 H43 H 1.26464 0.11788 0.16126
 C44 C 1.28266 0.06336 0.14161
 H45 H 1.33232 0.10144 0.13816
 C46 C 1.15461 -0.03064 0.15097
 H47 H 1.10395 -0.06619 0.15405
 C48 C 1.19089 -0.04147 0.13722
 H49 H 1.16747 -0.08551 0.12985
 N50 N 1.18151 0.02598 0.15935
 C51 C 1.01376 0.05856 0.15699
 H52 H 1.00474 0.05234 0.17443
 C53 C 0.96438 0.05569 0.14081
 H54 H 0.91756 0.04735 0.14599
 C55 C 1.08357 0.07103 0.12928
 H56 H 1.12949 0.07550 0.12490
 C57 C 1.03585 0.06880 0.11260
 H58 H 1.04613 0.07270 0.09543
 Zn59 Zn 1.12747 0.04716 0.17334
 N60 N 1.07101 0.06392 0.15104
 C61 C 1.17111 0.17245 0.18460
 N62 N 1.18170 0.12025 0.18779
 C63 C 1.23015 0.11719 0.20223
 C64 C 1.26894 0.16689 0.21471
 C65 C 1.20878 0.22338 0.19685
 C66 C 1.01756 -0.07281 0.18711
 C67 C 0.96807 -0.11687 0.20174
 C68 C 1.03360 -0.05837 0.23167
 C69 C 1.08146 -0.01536 0.21652
 N70 N 1.07223 -0.02224 0.19457
 H71 H 1.13243 0.17390 0.17297
 H72 H 1.23737 0.07499 0.20449
 H73 H 1.30546 0.16211 0.22671
 H74 H 1.19912 0.26418 0.19441
 H75 H 1.00999 -0.07634 0.16951
 H76 H 0.92324 -0.15448 0.19525
 H77 H 1.04135 -0.05085 0.24894
 H78 H 1.12423 0.02531 0.22227
 C79 C 0.97432 0.05853 0.11834
 C80 C 1.25532 0.00663 0.13194
 C81 C 0.97490 -0.10854 0.22421
 C82 C 1.25792 0.22052 0.21236
 C83 C 0.00766 0.84941 0.86497
 H84 H -0.03121 0.80233 0.86194
 C85 C 0.05865 0.85394 0.88049
 H86 H 0.05844 0.81006 0.88929
 C87 C 0.05599 0.96340 0.85653
 H88 H 0.05491 1.00593 0.84714
 C89 C 0.10814 0.97020 0.87200
 H90 H 0.14616 1.01815 0.87459
 N91 N 0.00632 0.90356 0.85368
 C92 C -0.17716 0.89909 0.84621
 H93 H -0.17030 0.93060 0.83049
 C94 C -0.21980 0.89531 0.86130
 H95 H -0.24266 0.92615 0.85666
 C96 C -0.15114 0.82531 0.87113
 H97 H -0.12397 0.79839 0.87504
 C98 C -0.19334 0.81987 0.88673
 H99 H -0.19916 0.78644 0.90195
 Zn100 Zn -0.06876 0.88936 0.83431
 N101 N -0.14130 0.86691 0.85178
 C102 C -0.14542 0.77260 0.81531
 N103 N -0.08427 0.82221 0.81867
 C104 C -0.03033 0.82838 0.80976
 C105 C -0.03668 0.78453 0.79639
 C106 C -0.15414 0.72764 0.80182
 C107 C -0.04479 1.01912 0.82017
 C108 C -0.04498 1.07029 0.80469
 C109 C -0.06334 1.00838 0.77523
 C110 C -0.06289 0.95855 0.79120
 N111 N -0.05493 0.96406 0.81325
 H112 H -0.18752 0.76902 0.82254
 H113 H 0.01757 0.86873 0.81255
 H114 H 0.00670 0.79188 0.78882
 H115 H -0.20319 0.68904 0.79887
 H116 H -0.04023 1.02192 0.83780
 H117 H -0.03977 1.11252 0.81055
 H118 H -0.07086 1.00241 0.75781
 H119 H -0.07163 0.91446 0.78591
 C120 C -0.22610 0.85787 0.88259
 C121 C 0.10923 0.91490 0.88448
 C122 C -0.05602 1.06450 0.78192
 C123 C -0.09927 0.73383 0.79199
 C124 C 0.63144 -0.06360 -0.01534
 C125 C 0.67682 -0.04878 0.00278
 C126 C 0.66392 -0.03282 0.02176
 C127 C 0.60339 -0.03308 0.02308
 C128 C 0.55761 -0.04649 0.00457
 C129 C 0.57201 -0.06103 -0.01485
 C130 C 0.52672 -0.07251 -0.03322
 C131 C 0.46850 -0.06936 -0.03258
 C132 C 0.45279 -0.05606 -0.01336
 C133 C 0.49733 -0.04534 0.00548
 C134 C 0.58738 -0.02040 0.04237
 C135 C 0.52729 -0.02129 0.04352
 C136 C 0.48169 -0.03346 0.02524
 C137 C 0.42080 -0.03401 0.02611
 C138 C 0.37811 -0.04307 0.00728
 C139 C 0.39370 -0.05322 -0.01242
 H140 H 0.53626 -0.08341 -0.04834
 H141 H 0.43552 -0.07808 -0.04722
 H142 H 0.62100 -0.01029 0.05684
 H143 H 0.51711 -0.01173 0.05881
 H144 H 0.72294 -0.04967 0.00209
 H145 H 0.33199 -0.04219 0.00798
 C146 C -0.09194 0.36028 0.63961
 C147 C -0.09101 0.31992 0.65927
 C148 C -0.09028 0.33615 0.68009
 C149 C -0.09218 0.39349 0.68150
 C150 C -0.09165 0.43561 0.66166
 C151 C -0.09075 0.41934 0.64061
 C152 C -0.08840 0.46260 0.62120
 C153 C -0.08643 0.52106 0.62244
 C154 C -0.08814 0.53773 0.64311
 C155 C -0.09167 0.49424 0.66287
 C156 C -0.09448 0.40988 0.70215
 C157 C -0.09648 0.46653 0.70329
 C158 C -0.09485 0.50947 0.68387
 C159 C -0.09601 0.56746 0.68481
 C160 C -0.09107 0.61050 0.66530
 C161 C -0.08631 0.59678 0.64461
 H162 H -0.08740 0.45184 0.60488
 H163 H -0.08408 0.55294 0.60703
 H164 H -0.09528 0.37871 0.71760
 H165 H -0.09866 0.47674 0.71958
 H166 H -0.09050 0.27528 0.65835
 H167 H -0.09055 0.65561 0.66625
 C168 C 0.43874 0.44993 0.31296
 C169 C 0.40124 0.42065 0.33193
 C170 C 0.41978 0.44966 0.35120
 C171 C 0.47635 0.51054 0.35151
 C172 C 0.51589 0.53988 0.33256
 C173 C 0.49755 0.50903 0.31329
 C174 C 0.53845 0.53803 0.29493
 C175 C 0.59657 0.59613 0.29554
 C176 C 0.61497 0.62809 0.31431
 C177 C 0.57381 0.60020 0.33287
 C178 C 0.49437 0.54287 0.37018
 C179 C 0.54996 0.60321 0.37017
 C180 C 0.59042 0.63258 0.35172
 C181 C 0.64717 0.69348 0.35153
 C182 C 0.68821 0.71956 0.33343
 C183 C 0.67336 0.68734 0.31506
 H184 H 0.52615 0.51562 0.28002
 H185 H 0.62666 0.61621 0.28106
 H186 H 0.46513 0.52205 0.38487
 H187 H 0.56141 0.62641 0.38487
 H188 H 0.35684 0.37454 0.33167
 H189 H 0.73245 0.76582 0.33363
 C190 C -0.09527 0.29207 0.58286
 C191 C -0.14214 0.22841 0.58054
 C192 C -0.13739 0.19914 0.56360
 C193 C -0.08537 0.23318 0.54884
 C194 C -0.04032 0.29813 0.55067
 C195 C -0.04519 0.32730 0.56761
 C196 C -0.09495 0.31882 0.60207
 C197 C -0.09371 0.33907 0.61882
 H198 H -0.18085 0.20055 0.59236
 H199 H -0.17233 0.14889 0.56280
 H200 H -0.00021 0.32579 0.53938
 H201 H -0.00858 0.37656 0.56927
 C202 C 0.81361 0.78008 0.26820
 C203 C 0.85257 0.84652 0.26826
 C204 C 0.90485 0.88233 0.25398
 C205 C 0.91928 0.85221 0.23940
 C206 C 0.87943 0.78539 0.23922
 C207 C 0.82697 0.74947 0.25363
 C208 C 0.76160 0.74405 0.28372
 C209 C 0.72011 0.71682 0.29753
 H210 H 0.84265 0.87073 0.27943
 H211 H 0.93356 0.93388 0.25418
 H212 H 0.88946 0.76089 0.22822
 H213 H 0.79723 0.69794 0.25352
 C214 C 0.25927 -0.07049 -0.06432
 C215 C 0.27628 -0.02818 -0.08447
 C216 C 0.22765 -0.03275 -0.10122
 C217 C 0.16146 -0.07982 -0.09797
 C218 C 0.14508 -0.12207 -0.07765
 C219 C 0.19363 -0.11740 -0.06098
 C220 C 0.30827 -0.06463 -0.04665
 C221 C 0.34785 -0.05978 -0.03133
 H222 H 0.32697 0.00850 -0.08719
 H223 H 0.24188 0.00005 -0.11675
 H224 H 0.09445 -0.15807 -0.07446
 H225 H 0.17983 -0.14999 -0.04537
 C226 C -0.06199 0.74146 0.59293
 C227 C -0.01431 0.76399 0.57696
 C228 C -0.00376 0.81833 0.56109
 C229 C -0.04052 0.85093 0.56118
 C230 C -0.08901 0.82712 0.57708
 C231 C -0.09953 0.77291 0.59282
 C232 C -0.07067 0.68829 0.61022
 C233 C -0.07808 0.64551 0.62546
 H234 H 0.01530 0.74017 0.57698
 H235 H 0.03405 0.83571 0.54912
 H236 H -0.11905 0.85032 0.57730
 H237 H -0.13653 0.75594 0.60510
 C238 C 0.35998 0.35341 0.25937
 C239 C 0.29390 0.33584 0.25307
 C240 C 0.26142 0.29478 0.23705
 C241 C 0.29464 0.27052 0.22717
 C242 C 0.36181 0.29045 0.23301
 C243 C 0.39420 0.33153 0.24904
 C244 C 0.39074 0.38972 0.27758
 C245 C 0.41411 0.41809 0.29341
 H246 H 0.26685 0.35221 0.26106
 H247 H 0.20955 0.27971 0.23316
 H248 H 0.38892 0.27322 0.22549
 H249 H 0.44534 0.34481 0.25380
 C250 C 0.68575 -0.11466 -0.06625
 C251 C 0.66621 -0.10385 -0.08852
 C252 C 0.69285 -0.11548 -0.10538
 C253 C 0.74030 -0.13779 -0.10033
 C254 C 0.75690 -0.15113 -0.07753
 C255 C 0.73010 -0.13945 -0.06080
 C256 C 0.66357 -0.09721 -0.04895
 C257 C 0.64770 -0.08191 -0.03396
 H258 H 0.63118 -0.08536 -0.09292
 H259 H 0.67528 -0.10729 -0.12230
 H260 H 0.79404 -0.16640 -0.07230
 H261 H 0.74582 -0.14775 -0.04358
 C262 C 0.35309 -0.01264 0.08083
 C263 C 0.31835 -0.06599 0.09679
 C264 C 0.28780 -0.05964 0.11381
 C265 C 0.29162 0.00024 0.11502
 C266 C 0.32780 0.05378 0.09912
 C267 C 0.35825 0.04732 0.08217
 C268 C 0.37957 -0.02004 0.06218
 C269 C 0.39968 -0.02611 0.04602
 H270 H 0.31382 -0.11273 0.09584
 H271 H 0.26080 -0.10158 0.12590
 H272 H 0.33067 0.10024 0.09928
 H273 H 0.38443 0.08876 0.06977
 C274 C 0.70757 0.81290 0.39869
 C275 C 0.70514 0.79224 0.42164
 C276 C 0.73627 0.83729 0.43651
 C277 C 0.77207 0.90461 0.42871
 C278 C 0.77003 0.92403 0.40531
 C279 C 0.73860 0.87881 0.39063
 C280 C 0.68253 0.76725 0.38316
 C281 C 0.66485 0.73191 0.36926
 H282 H 0.68123 0.74110 0.42808
 H283 H 0.73605 0.81763 0.45394
 H284 H 0.79137 0.97424 0.39792
 H285 H 0.73970 0.89546 0.37284
 C286 C -0.07736 0.20845 0.73273
 C287 C -0.02854 0.22750 0.74983
 C288 C -0.02182 0.18086 0.76608
 C289 C -0.06361 0.11468 0.76525
 C290 C -0.11317 0.09626 0.74821
 C291 C -0.11987 0.14279 0.73208
 C292 C -0.08210 0.25546 0.71508
 C293 C -0.08616 0.29303 0.69954
 H294 H 0.00491 0.27824 0.75041
 H295 H 0.01694 0.19644 0.77894
 H296 H -0.14696 0.04575 0.74737
 H297 H -0.15778 0.12750 0.71892
 C298 C 0.81254 0.01445 0.06983
 C299 C 0.85735 -0.00880 0.06962
 C300 C 0.91021 0.00631 0.08521
 C301 C 0.91930 0.04518 0.10130
 C302 C 0.87403 0.06852 0.10139
 C303 C 0.82100 0.05330 0.08570
 C304 C 0.75850 -0.00162 0.05354
 C305 C 0.71459 -0.01580 0.03939
 H306 H 0.85120 -0.03901 0.05745
 H307 H 0.94321 -0.01364 0.08497
 H308 H 0.87988 0.09879 0.11348
 H309 H 0.78667 0.07174 0.08596
 C310 C 0.30137 0.34308 0.40369
 C311 C 0.27764 0.36984 0.41641
 C312 C 0.23093 0.32987 0.43241
 C313 C 0.20721 0.26254 0.43584
 C314 C 0.23298 0.23641 0.42345
 C315 C 0.27965 0.27646 0.40746
 C316 C 0.34483 0.38302 0.38584
 C317 C 0.37966 0.41462 0.37034
 H318 H 0.29414 0.42135 0.41363
 H319 H 0.21265 0.35151 0.44189
 H320 H 0.21513 0.18477 0.42547
 H321 H 0.29747 0.25521 0.39762
 C322 C -0.10985 0.62702 0.74135
 C323 C -0.15902 0.64460 0.74204
 C324 C -0.15771 0.67634 0.75924
 C325 C -0.10686 0.69123 0.77588
 C326 C -0.05947 0.67062 0.77561
 C327 C -0.06092 0.63885 0.75842
 C328 C -0.10604 0.60263 0.72211
 C329 C -0.10170 0.58519 0.70543
 H330 H -0.19688 0.63604 0.72883
 H331 H -0.19438 0.69224 0.75884
 H332 H -0.02018 0.68076 0.78834
 H333 H -0.02257 0.62555 0.75804
   
