data_POSCAR
  _audit_creation_date              2014-09-24
  _audit_creation_method            'ToBaCCo'
  _symmetry_space_group_name_H-M    'P1'
  _symmetry_Int_Tables_number       1
  _symmetry_cell_setting            triclinic
  loop_
  _symmetry_equiv_pos_as_xyz
 x,y,z
_cell_length_a 58.1424
_cell_length_b 58.7349
_cell_length_c 55.8002
_cell_angle_alpha 92.804400
_cell_angle_beta 91.341500
_cell_angle_gamma 93.830100
loop_
  _atom_site_label
  _atom_site_type_symbol
  _atom_site_fract_x
  _atom_site_fract_y
  _atom_site_fract_z
C1 C 0.26586 0.46352 0.99952
 C2 C 0.24832 0.46072 1.01961
 C3 C 0.23402 0.47818 1.02200
 C4 C 0.23860 0.49692 1.00400
 C5 C 0.25119 0.46691 0.97696
 C6 C 0.23686 0.48424 0.97922
 C7 C 0.27835 0.48695 1.00581
 C8 C 0.26425 0.50442 1.00790
 H9 H 0.24843 0.44746 1.03233
 H10 H 0.22725 0.51131 1.00571
 H11 H 0.25137 0.45566 0.96101
 H12 H 0.29693 0.48953 1.00793
 C13 C 0.73759 0.54179 0.00167
 C14 C 0.75294 0.53925 0.02401
 C15 C 0.76650 0.52119 0.02251
 C16 C 0.76335 0.50707 -0.00146
 C17 C 0.75475 0.54282 -0.01894
 C18 C 0.76814 0.52460 -0.02066
 C19 C 0.72413 0.51861 -0.00259
 C20 C 0.73743 0.50053 -0.00416
 H21 H 0.75325 0.55115 0.03947
 H22 H 0.77419 0.49227 -0.00290
 H23 H 0.75659 0.55661 -0.03097
 H24 H 0.70547 0.51671 -0.00417
 C25 C 0.04571 0.22717 0.49778
 C26 C 0.04217 0.24092 0.47717
 C27 C 0.02137 0.25279 0.47755
 C28 C 0.00777 0.24829 0.49879
 C29 C 0.04434 0.24409 0.51957
 C30 C 0.02447 0.25528 0.52022
 C31 C 0.02393 0.21130 0.49868
 C32 C 0.00396 0.22205 0.49899
 H33 H 0.05587 0.24494 0.46495
 H34 H -0.00875 0.25656 0.49926
 H35 H 0.05838 0.24778 0.53251
 H36 H 0.02450 0.19294 0.49935
 C37 C 0.95276 0.76877 0.50007
 C38 C 0.95614 0.75236 0.47828
 C39 C 0.97613 0.74139 0.47903
 C40 C 0.99072 0.74751 0.50218
 C41 C 0.95440 0.75355 0.52158
 C42 C 0.97422 0.74253 0.52279
 C43 C 0.97475 0.78459 0.50196
 C44 C 0.99455 0.77365 0.50306
 H45 H 0.94299 0.74861 0.46436
 H46 H 1.00709 0.73898 0.50361
 H47 H 0.94061 0.75060 0.53398
 H48 H 0.97459 0.80302 0.50183
 C49 C 0.49660 0.04651 0.22389
 C50 C 0.47572 0.04417 0.24023
 C51 C 0.47551 0.02565 0.25403
 C52 C 0.49647 0.01124 0.25034
 C53 C 0.51735 0.04693 0.24152
 C54 C 0.51742 0.02843 0.25531
 C55 C 0.49654 0.02480 0.21039
 C56 C 0.49659 0.00505 0.22457
 H57 H 0.46275 0.05648 0.24158
 H58 H 0.49667 -0.00292 0.26260
 H59 H 0.53051 0.06088 0.24325
 H60 H 0.49448 0.02399 0.19106
 C61 C 0.50158 -0.04391 0.77591
 C62 C 0.48014 -0.04469 0.75913
 C63 C 0.48004 -0.02737 0.74372
 C64 C 0.50164 -0.01074 0.74645
 C65 C 0.52173 -0.04352 0.75850
 C66 C 0.52192 -0.02605 0.74327
 C67 C 0.50304 -0.02001 0.78830
 C68 C 0.50299 -0.00276 0.77300
 H69 H 0.46651 -0.05815 0.75915
 H70 H 0.50189 0.00345 0.73405
 H71 H 0.53452 -0.05606 0.75789
 H72 H 0.50394 -0.01702 0.80763
 C73 C 0.28975 0.00558 0.47036
 H74 H 0.29115 0.01784 0.48553
 C75 C 0.30554 0.00721 0.45202
 H76 H 0.31921 0.02070 0.45332
 C77 C 0.27055 -0.02729 0.45079
 H78 H 0.25707 -0.04088 0.45054
 C79 C 0.28601 -0.02630 0.43199
 H80 H 0.28395 -0.03892 0.41716
 N81 N 0.27247 -0.01123 0.46927
 C82 C 0.21964 0.01771 0.51332
 H83 H 0.21729 0.00484 0.52644
 C84 C 0.20614 0.03652 0.51398
 H85 H 0.19330 0.03792 0.52762
 C86 C 0.23855 0.03086 0.47896
 H87 H 0.25089 0.02843 0.46506
 C88 C 0.22545 0.04993 0.47897
 H89 H 0.22828 0.06222 0.46532
 Zn90 Zn 0.25231 -0.01131 0.49540
 N91 N 0.23554 0.01528 0.49606
 C92 C 0.27170 0.00457 0.54120
 N93 N 0.27106 -0.01216 0.52341
 C94 C 0.28511 -0.02970 0.52420
 C95 C 0.30057 -0.03100 0.54349
 C96 C 0.28692 0.00393 0.56089
 C97 C 0.21594 -0.03934 0.47357
 C98 C 0.19869 -0.05710 0.47180
 C99 C 0.21158 -0.06924 0.51031
 C100 C 0.22876 -0.05141 0.51119
 N101 N 0.23062 -0.03689 0.49298
 H102 H 0.26070 0.01860 0.54001
 H103 H 0.28452 -0.04253 0.50957
 H104 H 0.31195 -0.04485 0.54345
 H105 H 0.28713 0.01731 0.57496
 H106 H 0.21751 -0.02730 0.45954
 H107 H 0.18739 -0.05884 0.45603
 H108 H 0.20997 -0.08005 0.52542
 H109 H 0.24014 -0.04880 0.52681
 C110 C 0.20890 0.05292 0.49658
 C111 C 0.30368 -0.00873 0.43237
 C112 C 0.19612 -0.07223 0.49048
 C113 C 0.30169 -0.01400 0.56215
 C114 C 0.71346 0.02301 0.53360
 H115 H 0.71313 0.03659 0.52121
 C116 C 0.69809 0.02227 0.55248
 H117 H 0.68591 0.03536 0.55440
 C118 C 0.72877 -0.01134 0.54506
 H119 H 0.74031 -0.02474 0.54182
 C120 C 0.71383 -0.01267 0.56423
 H121 H 0.71455 -0.02684 0.57586
 N122 N 0.72826 0.00626 0.53015
 C123 C 0.78238 0.03338 0.48458
 H124 H 0.78054 0.02068 0.46984
 C125 C 0.79981 0.05086 0.48449
 H126 H 0.81105 0.05167 0.46932
 C127 C 0.76981 0.04753 0.52221
 H128 H 0.75832 0.04587 0.53706
 C129 C 0.78717 0.06526 0.52294
 H130 H 0.78892 0.07705 0.53850
 Zn131 Zn 0.74611 0.00651 0.50223
 N132 N 0.76780 0.03203 0.50321
 C133 C 0.72684 0.02486 0.46062
 N134 N 0.72527 0.00739 0.47576
 C135 C 0.70782 -0.00923 0.47332
 C136 C 0.69117 -0.00884 0.45492
 C137 C 0.71057 0.02592 0.44198
 C138 C 0.77983 -0.02180 0.51678
 C139 C 0.79316 -0.04070 0.51619
 C140 C 0.77212 -0.05523 0.48021
 C141 C 0.75915 -0.03603 0.48150
 N142 N 0.76303 -0.01993 0.49978
 H143 H 0.74048 0.03822 0.46315
 H144 H 0.70669 -0.02266 0.48593
 H145 H 0.67720 -0.02202 0.45355
 H146 H 0.71222 0.03987 0.43003
 H147 H 0.78284 -0.00854 0.53086
 H148 H 0.80657 -0.04174 0.52981
 H149 H 0.76854 -0.06805 0.46575
 H150 H 0.74605 -0.03403 0.46787
 C151 C 0.80262 0.06695 0.50399
 C152 C 0.69793 0.00406 0.56791
 C153 C 0.78933 -0.05780 0.49778
 C154 C 0.69236 0.00898 0.43901
 C155 C 0.48958 0.22562 1.00436
 H156 H 0.47631 0.22435 0.99035
 C157 C 0.48818 0.21093 1.02326
 H158 H 0.47381 0.19825 1.02358
 C159 C 0.52489 0.24318 1.02033
 H160 H 0.53940 0.25545 1.01893
 C161 C 0.52419 0.22883 1.03956
 H162 H 0.53795 0.23063 1.05306
 N163 N 0.50759 0.24152 1.00338
 C164 C 0.47982 0.29253 0.95845
 H165 H 0.49218 0.29309 0.94426
 C166 C 0.46126 0.30644 0.95800
 H167 H 0.45925 0.31728 0.94306
 C168 C 0.46758 0.27760 0.99506
 H169 H 0.47036 0.26674 1.00977
 C170 C 0.44896 0.29142 0.99549
 H171 H 0.43772 0.29098 1.01067
 Zn172 Zn 0.50824 0.26017 0.97663
 N173 N 0.48242 0.27821 0.97659
 C174 C 0.49230 0.24063 0.93065
 N175 N 0.50809 0.24022 0.94897
 C176 C 0.52398 0.22428 0.94901
 C177 C 0.52427 0.20771 0.93027
 C178 C 0.49225 0.22461 0.91128
 C179 C 0.53792 0.29544 0.99722
 C180 C 0.55730 0.31080 0.99930
 C181 C 0.56997 0.29539 0.96128
 C182 C 0.55050 0.28005 0.96013
 N183 N 0.53505 0.28026 0.97805
 H184 H 0.47952 0.25313 0.93109
 H185 H 0.53611 0.22413 0.96399
 H186 H 0.53655 0.19471 0.93132
 H187 H 0.47972 0.22549 0.89676
 H188 H 0.52520 0.29541 1.01107
 H189 H 0.55949 0.32221 1.01513
 H190 H 0.58175 0.29525 0.94655
 H191 H 0.54760 0.26818 0.94477
 C192 C 0.44550 0.30605 0.97674
 C193 C 0.50562 0.21246 1.04122
 C194 C 0.57365 0.31104 0.98113
 C195 C 0.50822 0.20763 0.91102
 C196 C 0.47854 0.77902 -0.00147
 H197 H 0.46743 0.78127 0.01358
 C198 C 0.47880 0.79464 -0.01954
 H199 H 0.46731 0.80840 -0.01859
 C200 C 0.50770 0.75902 -0.02048
 H201 H 0.51945 0.74558 -0.02058
 C202 C 0.50841 0.77416 -0.03901
 H203 H 0.52062 0.77205 -0.05317
 N204 N 0.49267 0.76145 -0.00232
 C205 C 0.46502 0.69969 0.02312
 H206 H 0.48140 0.69232 0.02522
 C207 C 0.44489 0.68532 0.02147
 H208 H 0.44606 0.66704 0.02212
 C209 C 0.44335 0.73228 0.02073
 H210 H 0.44277 0.75059 0.02061
 C211 C 0.42274 0.71853 0.01936
 H212 H 0.40648 0.72639 0.01788
 Zn213 Zn 0.49195 0.74174 0.02375
 N214 N 0.46401 0.72272 0.02232
 C215 C 0.47700 0.75814 0.06910
 N216 N 0.49337 0.76058 0.05223
 C217 C 0.51029 0.77773 0.05433
 C218 C 0.51086 0.79372 0.07370
 C219 C 0.47683 0.77386 0.08871
 C220 C 0.51932 0.70826 0.00360
 C221 C 0.53781 0.69435 0.00212
 C222 C 0.55255 0.71135 0.04018
 C223 C 0.53372 0.72493 0.04094
 N224 N 0.51763 0.72327 0.02273
 H225 H 0.46375 0.74433 0.06711
 H226 H 0.52295 0.77937 0.04049
 H227 H 0.52397 0.80774 0.07458
 H228 H 0.46343 0.77197 0.10176
 H229 H 0.50618 0.70705 -0.01055
 H230 H 0.53895 0.68275 -0.01342
 H231 H 0.56504 0.71272 0.05496
 H232 H 0.53193 0.73667 0.05619
 C233 C 0.42343 0.69472 0.01944
 C234 C 0.49384 0.79227 -0.03867
 C235 C 0.55476 0.69579 0.02057
 C236 C 0.49372 0.79214 0.09096
 C237 C 1.02965 0.47037 0.22218
 H238 H 1.01563 0.45726 0.22104
 C239 C 1.04760 0.46948 0.20609
 H240 H 1.04711 0.45565 0.19249
 C241 C 1.04637 0.50499 0.24051
 H242 H 1.04558 0.51908 0.25356
 C243 C 1.06477 0.50470 0.22484
 H244 H 1.07825 0.51836 0.22648
 N245 N 1.02933 0.48791 0.23896
 C246 C 0.98274 0.45982 0.29208
 H247 H 0.96920 0.47157 0.29162
 C248 C 0.98133 0.44181 0.30757
 H249 H 0.96637 0.43961 0.31862
 C250 C 1.01864 0.44857 0.27814
 H251 H 1.03341 0.45154 0.26705
 C252 C 1.01805 0.43048 0.29350
 H253 H 1.03250 0.41981 0.29401
 Zn254 Zn 1.00284 0.48824 0.25807
 N255 N 1.00110 0.46274 0.27763
 C256 C 0.95958 0.47132 0.23555
 N257 N 0.97732 0.48769 0.23631
 C258 C 0.97809 0.50472 0.22066
 C259 C 0.96023 0.50624 0.20387
 C260 C 0.94129 0.47217 0.21893
 C261 C 1.02122 0.51956 0.29475
 C262 C 1.02204 0.53922 0.31002
 C263 C 0.98582 0.54871 0.29236
 C264 C 0.98580 0.52903 0.27733
 N265 N 1.00349 0.51507 0.27851
 H266 H 0.95954 0.45762 0.24778
 H267 H 0.99262 0.51726 0.22139
 H268 H 0.96127 0.51993 0.19155
 H269 H 0.92707 0.45927 0.21880
 H270 H 1.03486 0.50795 0.29567
 H271 H 1.03660 0.54276 0.32238
 H272 H 0.97133 0.55932 0.29131
 H273 H 0.97142 0.52480 0.26496
 C274 C 0.99921 0.42687 0.30853
 C275 C 1.06548 0.48685 0.20719
 C276 C 1.00419 0.55419 0.30888
 C277 C 0.94138 0.48997 0.20297
 C278 C -0.02792 0.49054 0.78031
 H279 H -0.01511 0.47801 0.78077
 C280 C -0.04546 0.49024 0.79702
 H281 H -0.04600 0.47742 0.81033
 C282 C -0.04190 0.52327 0.76325
 H283 H -0.04021 0.53640 0.75040
 C284 C -0.05967 0.52363 0.77963
 H285 H -0.07177 0.53683 0.77885
 N286 N -0.02644 0.50691 0.76391
 C287 C 0.01481 0.48208 0.70510
 H288 H 0.02731 0.49651 0.70439
 C289 C 0.01522 0.46377 0.68826
 H290 H 0.02831 0.46409 0.67477
 C291 C -0.01738 0.46420 0.72369
 H292 H -0.03028 0.46461 0.73729
 C293 C -0.01748 0.44541 0.70728
 H294 H -0.03050 0.43147 0.70843
 Zn295 Zn -0.00067 0.50806 0.74378
 N296 N -0.00124 0.48194 0.72243
 C297 C 0.04177 0.49358 0.76182
 N298 N 0.02601 0.50961 0.76407
 C299 C 0.02800 0.52618 0.78203
 C300 C 0.04642 0.52710 0.79864
 C301 C 0.06048 0.49389 0.77801
 C302 C -0.01777 0.53360 0.70741
 C303 C -0.01903 0.55184 0.69245
 C304 C 0.01437 0.57052 0.71349
 C305 C 0.01508 0.55181 0.72796
 N306 N -0.00101 0.53394 0.72485
 H307 H 0.03961 0.48021 0.74781
 H308 H 0.01502 0.53849 0.78364
 H309 H 0.04771 0.54046 0.81278
 H310 H 0.07253 0.48066 0.77625
 H311 H -0.03013 0.51900 0.70510
 H312 H -0.03231 0.55098 0.67846
 H313 H 0.02707 0.58477 0.71657
 H314 H 0.02848 0.55163 0.74167
 C315 C -0.00105 0.44509 0.68924
 C316 C -0.06146 0.50712 0.79699
 C317 C -0.00288 0.57073 0.69543
 C318 C 0.06290 0.51070 0.79686
 C319 C 0.10172 0.18153 0.49595
 C320 C 0.09450 0.19096 0.51789
 C321 C 0.07720 0.20639 0.51846
 C322 C 0.06700 0.21327 0.49705
 C323 C 0.07440 0.20376 0.47509
 C324 C 0.09167 0.18833 0.47456
 C325 C 0.11855 0.16357 0.49546
 C326 C 0.11499 0.14426 0.47958
 C327 C 0.13024 0.12688 0.47963
 C328 C 0.14944 0.12836 0.49555
 C329 C 0.15310 0.14774 0.51133
 C330 C 0.13781 0.16515 0.51130
 C331 C 0.16531 0.10955 0.49585
 C332 C 0.17406 0.10224 0.51767
 C333 C 0.18833 0.08400 0.51793
 C334 C 0.19419 0.07267 0.49637
 C335 C 0.18562 0.08015 0.47455
 C336 C 0.17138 0.09837 0.47430
 H337 H 0.10146 0.18560 0.53471
 H338 H 0.07119 0.21211 0.53578
 H339 H 0.06630 0.20757 0.45824
 H340 H 0.09686 0.18136 0.45734
 H341 H 0.10006 0.14230 0.46751
 H342 H 0.12667 0.11199 0.46757
 H343 H 0.16791 0.14954 0.52358
 H344 H 0.14113 0.17993 0.52356
 H345 H 0.16952 0.11034 0.53459
 H346 H 0.19485 0.07881 0.53501
 H347 H 0.18958 0.07164 0.45765
 H348 H 0.16514 0.10375 0.45718
 C349 C 0.68701 0.59281 0.01039
 C350 C 0.69069 0.57716 0.02806
 C351 C 0.70741 0.56136 0.02523
 C352 C 0.72119 0.56087 0.00480
 C353 C 0.71767 0.57685 -0.01275
 C354 C 0.70087 0.59268 -0.00989
 C355 C 0.66803 0.60844 0.01261
 C356 C 0.67104 0.63118 0.00591
 C357 C 0.65289 0.64562 0.00756
 C358 C 0.63133 0.63757 0.01583
 C359 C 0.62841 0.61488 0.02267
 C360 C 0.64653 0.60049 0.02107
 C361 C 0.61181 0.65260 0.01702
 C362 C 0.58943 0.64399 0.00989
 C363 C 0.57097 0.65799 0.01109
 C364 C 0.57444 0.68095 0.01943
 C365 C 0.59681 0.68959 0.02658
 C366 C 0.61531 0.67557 0.02534
 H367 H 0.68045 0.57697 0.04402
 H368 H 0.70930 0.54909 0.03889
 H369 H 0.72709 0.57688 -0.02916
 H370 H 0.69814 0.60427 -0.02403
 H371 H 0.68746 0.63784 -0.00050
 H372 H 0.65560 0.66296 0.00196
 H373 H 0.61210 0.60825 0.02938
 H374 H 0.64355 0.58297 0.02607
 H375 H 0.58622 0.62643 0.00315
 H376 H 0.55391 0.65076 0.00570
 H377 H 0.60006 0.70727 0.03287
 H378 H 0.63232 0.68264 0.03115
 C379 C 0.89633 -0.18637 0.49618
 C380 C 0.90677 -0.19432 0.47523
 C381 C 0.92429 -0.20941 0.47644
 C382 C 0.93154 -0.21742 0.49859
 C383 C 0.92102 -0.20935 0.51956
 C384 C 0.90348 -0.19425 0.51833
 C385 C 0.87907 -0.16887 0.49513
 C386 C 0.85975 -0.16984 0.50981
 C387 C 0.84418 -0.15269 0.50961
 C388 C 0.84760 -0.13418 0.49474
 C389 C 0.86674 -0.13341 0.47981
 C390 C 0.88228 -0.15053 0.48000
 C391 C 0.83176 -0.11533 0.49533
 C392 C 0.82538 -0.10515 0.47410
 C393 C 0.81136 -0.08670 0.47484
 C394 C 0.80345 -0.07799 0.49683
 C395 C 0.80952 -0.08842 0.51800
 C396 C 0.82350 -0.10687 0.51727
 H397 H 0.90166 -0.18855 0.45788
 H398 H 0.93266 -0.21418 0.46000
 H399 H 0.92688 -0.21391 0.53711
 H400 H 0.89623 -0.18795 0.53488
 H401 H 0.85665 -0.18390 0.52143
 H402 H 0.82941 -0.15395 0.52106
 H403 H 0.87009 -0.11918 0.46846
 H404 H 0.89722 -0.14904 0.46881
 H405 H 0.83126 -0.11143 0.45690
 H406 H 0.80715 -0.07893 0.45824
 H407 H 0.80345 -0.08230 0.53519
 H408 H 0.82829 -0.11418 0.53396
 C409 C 0.31612 0.41259 0.98822
 C410 C 0.31782 0.43328 0.97669
 C411 C 0.30114 0.44906 0.97995
 C412 C 0.28264 0.44491 0.99535
 C413 C 0.28042 0.42362 1.00601
 C414 C 0.29702 0.40766 1.00247
 C415 C 0.33465 0.39657 0.98586
 C416 C 0.32941 0.37312 0.98087
 C417 C 0.34708 0.35818 0.97855
 C418 C 0.37035 0.36636 0.98149
 C419 C 0.37545 0.38985 0.98673
 C420 C 0.35782 0.40478 0.98874
 C421 C 0.38926 0.35055 0.97941
 C422 C 0.41038 0.35769 0.96946
 C423 C 0.42852 0.34325 0.96846
 C424 C 0.42593 0.32116 0.97710
 C425 C 0.40462 0.31383 0.98655
 C426 C 0.38657 0.32837 0.98781
 H427 H 0.33211 0.43726 0.96516
 H428 H 0.30297 0.46488 0.97076
 H429 H 0.26604 0.41900 1.01706
 H430 H 0.29523 0.39168 1.01137
 H431 H 0.31166 0.36642 0.97838
 H432 H 0.34250 0.34027 0.97415
 H433 H 0.39309 0.39672 0.98969
 H434 H 0.36229 0.42275 0.99297
 H435 H 0.41297 0.37449 0.96242
 H436 H 0.44472 0.34963 0.96133
 H437 H 0.40185 0.29681 0.99301
 H438 H 0.37066 0.32235 0.99581
 C439 C 0.93952 0.18185 0.50217
 C440 C 0.95766 0.17396 0.48864
 C441 C 0.97812 0.18744 0.48690
 C442 C 0.98112 0.20909 0.49892
 C443 C 0.96258 0.21747 0.51158
 C444 C 0.94188 0.20396 0.51315
 C445 C 0.91873 0.16642 0.50536
 C446 C 0.89648 0.17360 0.50134
 C447 C 0.87717 0.15807 0.50232
 C448 C 0.87983 0.13517 0.50754
 C449 C 0.90208 0.12842 0.51268
 C450 C 0.92128 0.14381 0.51148
 C451 C 0.85979 0.11798 0.50666
 C452 C 0.86225 0.09573 0.49704
 C453 C 0.84376 0.07931 0.49629
 C454 C 0.82216 0.08471 0.50489
 C455 C 0.81958 0.10699 0.51441
 C456 C 0.83820 0.12347 0.51526
 H457 H 0.95606 0.15719 0.47953
 H458 H 0.99173 0.18073 0.47631
 H459 H 0.96431 0.23401 0.52105
 H460 H 0.92808 0.21042 0.52366
 H461 H 0.89411 0.19095 0.49654
 H462 H 0.86028 0.16379 0.49814
 H463 H 0.90472 0.11112 0.51744
 H464 H 0.93824 0.13799 0.51514
 H465 H 0.87850 0.09100 0.48987
 H466 H 0.84651 0.06226 0.48919
 H467 H 0.80311 0.11176 0.52100
 H468 H 0.83576 0.14041 0.52292
 C469 C 0.29535 0.57262 0.01665
 C470 C 0.30230 0.55553 0.03145
 C471 C 0.29148 0.53358 0.02931
 C472 C 0.27334 0.52834 0.01249
 C473 C 0.26542 0.54569 -0.00132
 C474 C 0.27648 0.56765 0.00058
 C475 C 0.30939 0.59462 0.01641
 C476 C 0.31658 0.60311 -0.00549
 C477 C 0.33301 0.62156 -0.00582
 C478 C 0.34240 0.63201 0.01573
 C479 C 0.33414 0.62443 0.03763
 C480 C 0.31787 0.60583 0.03797
 C481 C 0.36224 0.64919 0.01545
 C482 C 0.36337 0.66893 0.03083
 C483 C 0.38301 0.68412 0.03169
 C484 C 0.40197 0.67961 0.01748
 C485 C 0.40065 0.66009 0.00183
 C486 C 0.38095 0.64510 0.00074
 H487 H 0.31692 0.55879 0.04381
 H488 H 0.29773 0.52050 0.04031
 H489 H 0.25151 0.54197 -0.01448
 H490 H 0.27074 0.58057 -0.01094
 H491 H 0.31049 0.59468 -0.02237
 H492 H 0.33894 0.62722 -0.02294
 H493 H 0.34118 0.63209 0.05451
 H494 H 0.31248 0.59969 0.05509
 H495 H 0.34914 0.67249 0.04231
 H496 H 0.38367 0.69901 0.04398
 H497 H 0.41496 0.65634 -0.00947
 H498 H 0.38066 0.62987 -0.01106
 C499 C 0.05898 -0.18623 0.50224
 C500 C 0.04187 -0.18053 0.51847
 C501 C 0.02127 -0.19402 0.51926
 C502 C 0.01743 -0.21376 0.50414
 C503 C 0.03492 -0.22034 0.48892
 C504 C 0.05549 -0.20661 0.48785
 C505 C 0.07968 -0.17031 0.49959
 C506 C 0.10142 -0.17848 0.49499
 C507 C 0.12066 -0.16323 0.49231
 C508 C 0.11859 -0.13948 0.49423
 C509 C 0.09685 -0.13139 0.49888
 C510 C 0.07766 -0.14657 0.50134
 C511 C 0.13894 -0.12304 0.49178
 C512 C 0.13648 -0.10225 0.48083
 C513 C 0.15507 -0.08600 0.48007
 C514 C 0.17676 -0.09021 0.48995
 C515 C 0.17944 -0.11135 0.50016
 C516 C 0.16074 -0.12752 0.50115
 H517 H 0.04423 -0.16538 0.53036
 H518 H 0.00815 -0.18885 0.53146
 H519 H 0.03223 -0.23546 0.47701
 H520 H 0.06820 -0.21146 0.47503
 H521 H 0.10364 -0.19665 0.49369
 H522 H 0.13710 -0.17006 0.48851
 H523 H 0.09463 -0.11325 0.50090
 H524 H 0.06114 -0.13961 0.50439
 H525 H 0.12007 -0.09838 0.47300
 H526 H 0.15220 -0.06986 0.47232
 H527 H 0.19597 -0.11536 0.50758
 H528 H 0.16325 -0.14327 0.50986
 C529 C 0.70265 0.43399 0.98797
 C530 C 0.69894 0.45035 0.97102
 C531 C 0.71102 0.47173 0.97305
 C532 C 0.72728 0.47697 0.99181
 C533 C 0.73198 0.46024 1.00798
 C534 C 0.71959 0.43894 1.00621
 C535 C 0.68714 0.41296 0.98793
 C536 C 0.67597 0.40705 1.00901
 C537 C 0.65877 0.38924 1.00842
 C538 C 0.65268 0.37681 0.98682
 C539 C 0.66465 0.38194 0.96598
 C540 C 0.68162 0.40001 0.96648
 C541 C 0.63280 0.35968 0.98571
 C542 C 0.63452 0.33788 0.97473
 C543 C 0.61544 0.32199 0.97343
 C544 C 0.59415 0.32774 0.98272
 C545 C 0.59253 0.34972 0.99350
 C546 C 0.61168 0.36542 0.99515
 H547 H 0.68582 0.44705 0.95696
 H548 H 0.70719 0.48446 0.96040
 H549 H 0.74425 0.46408 1.02272
 H550 H 0.72274 0.42657 1.01947
 H551 H 0.67975 0.41692 1.02570
 H552 H 0.64985 0.38549 1.02473
 H553 H 0.66016 0.37263 0.94910
 H554 H 0.69004 0.40424 0.95001
 H555 H 0.65070 0.33308 0.96742
 H556 H 0.61748 0.30514 0.96537
 H557 H 0.57636 0.35504 1.00032
 H558 H 0.60984 0.38229 1.00332
 C559 C 0.49872 0.10058 1.17304
 C560 C 0.47773 0.09303 1.18288
 C561 C 0.47695 0.07602 1.19954
 C562 C 0.49727 0.06644 1.20728
 C563 C 0.51821 0.07383 1.19702
 C564 C 0.51897 0.09082 1.18034
 C565 C 0.49939 0.11787 1.15450
 C566 C 0.51750 0.13497 1.15449
 C567 C 0.51843 0.15084 1.13662
 C568 C 0.50125 0.14997 1.11839
 C569 C 0.48305 0.13300 1.11852
 C570 C 0.48215 0.11712 1.13635
 C571 C 0.50247 0.16644 1.09906
 C572 C 0.48246 0.17604 1.09074
 C573 C 0.48352 0.19108 1.07211
 C574 C 0.50460 0.19685 1.06136
 C575 C 0.52464 0.18739 1.06983
 C576 C 0.52359 0.17237 1.08848
 H577 H 0.46180 0.10015 1.17754
 H578 H 0.46023 0.07007 1.20567
 H579 H 0.53404 0.06608 1.20146
 H580 H 0.53533 0.09579 1.17258
 H581 H 0.53087 0.13618 1.16842
 H582 H 0.53249 0.16393 1.13717
 H583 H 0.46977 0.13167 1.10449
 H584 H 0.46820 0.10391 1.13560
 H585 H 0.46601 0.17206 1.09880
 H586 H 0.46785 0.19839 1.06626
 H587 H 0.54107 0.19122 1.06167
 H588 H 0.53923 0.16498 1.09427
 C589 C -0.01420 0.69559 0.57798
 C590 C -0.02154 0.71747 0.58387
 C591 C -0.02513 0.73280 0.56595
 C592 C -0.02121 0.72666 0.54184
 C593 C -0.01365 0.70499 0.53596
 C594 C -0.01024 0.68959 0.55379
 C595 C -0.01137 0.67879 0.59678
 C596 C 0.00633 0.66362 0.59549
 C597 C 0.00819 0.64698 0.61236
 C598 C -0.00751 0.64517 0.63107
 C599 C -0.02486 0.66070 0.63271
 C600 C -0.02682 0.67725 0.61574
 C601 C -0.00623 0.62670 0.64831
 C602 C -0.02649 0.61550 0.65645
 C603 C -0.02538 0.59763 0.67197
 C604 C -0.00398 0.59035 0.67963
 C605 C 0.01629 0.60171 0.67171
 C606 C 0.01518 0.61970 0.65630
 H607 H -0.02445 0.72280 0.60234
 H608 H -0.03088 0.74951 0.57093
 H609 H -0.01124 0.69959 0.51750
 H610 H -0.00514 0.67272 0.54849
 H611 H 0.01874 0.66454 0.58135
 H612 H 0.02162 0.63517 0.61038
 H613 H -0.03704 0.66003 0.64709
 H614 H -0.04081 0.68847 0.61717
 H615 H -0.04328 0.62022 0.65045
 H616 H -0.04134 0.58952 0.67799
 H617 H 0.03307 0.59642 0.67704
 H618 H 0.03113 0.62813 0.65065
 C619 C 0.49964 0.90558 -0.16939
 C620 C 0.47945 0.91526 -0.17703
 C621 C 0.48018 0.93127 -0.19471
 C622 C 0.50100 0.93762 -0.20580
 C623 C 0.52131 0.92834 -0.19762
 C624 C 0.52058 0.91236 -0.17984
 C625 C 0.49890 0.88889 -0.15020
 C626 C 0.51242 0.86992 -0.15147
 C627 C 0.51167 0.85424 -0.13341
 C628 C 0.49736 0.85714 -0.11368
 C629 C 0.48385 0.87611 -0.11243
 C630 C 0.48465 0.89182 -0.13043
 C631 C 0.49652 0.84048 -0.09446
 C632 C 0.49503 0.84800 -0.07027
 C633 C 0.49407 0.83235 -0.05220
 C634 C 0.49469 0.80884 -0.05789
 C635 C 0.49627 0.80130 -0.08204
 C636 C 0.49713 0.81694 -0.10014
 H637 H 0.46302 0.91045 -0.16934
 H638 H 0.46437 0.93889 -0.19947
 H639 H 0.53796 0.93375 -0.20437
 H640 H 0.53656 0.90578 -0.17379
 H641 H 0.52341 0.86706 -0.16657
 H642 H 0.52250 0.83996 -0.13478
 H643 H 0.47245 0.87871 -0.09762
 H644 H 0.47425 0.90640 -0.12872
 H645 H 0.49495 0.86603 -0.06525
 H646 H 0.49323 0.83868 -0.03370
 H647 H 0.49650 0.78326 -0.08697
 H648 H 0.49789 0.81056 -0.11861
 C649 C 1.00800 0.30225 0.42662
 C650 C 0.99810 0.30341 0.44929
 C651 C 1.00201 0.28693 0.46592
 C652 C 1.01627 0.26893 0.46044
 C653 C 1.02594 0.26782 0.43747
 C654 C 1.02174 0.28415 0.42080
 C655 C 1.00466 0.32023 0.40935
 C656 C 0.99977 0.31439 0.38497
 C657 C 0.99754 0.33140 0.36854
 C658 C 1.00042 0.35466 0.37608
 C659 C 1.00509 0.36043 0.40057
 C660 C 1.00708 0.34342 0.41701
 C661 C 0.99919 0.37282 0.35844
 C662 C 0.98971 0.39364 0.36470
 C663 C 0.98951 0.41104 0.34848
 C664 C 0.99860 0.40803 0.32549
 C665 C 1.00764 0.38703 0.31907
 C666 C 1.00803 0.36970 0.33535
 H667 H 0.98739 0.31720 0.45423
 H668 H 0.99469 0.28929 0.48341
 H669 H 1.03645 0.25408 0.43196
 H670 H 1.02967 0.28287 0.40345
 H671 H 0.99754 0.29664 0.37863
 H672 H 0.99349 0.32631 0.34994
 H673 H 1.00784 0.37812 0.40698
 H674 H 1.01117 0.34840 0.43565
 H675 H 0.98244 0.39654 0.38218
 H676 H 0.98264 0.42705 0.35419
 H677 H 1.01448 0.38394 0.30141
 H678 H 1.01571 0.35403 0.32997
 C679 C 0.49396 0.93731 0.19268
 C680 C 0.49081 0.94078 0.21736
 C681 C 0.49185 0.96292 0.22804
 C682 C 0.49626 0.98232 0.21429
 C683 C 0.50025 0.97831 0.18957
 C684 C 0.49892 0.95626 0.17899
 C685 C 0.49191 0.91411 0.18091
 C686 C 0.50357 0.89623 0.19037
 C687 C 0.50291 0.87484 0.17804
 C688 C 0.49027 0.87092 0.15627
 C689 C 0.47804 0.88863 0.14728
 C690 C 0.47893 0.91001 0.15942
 C691 C 0.49077 0.84898 0.14206
 C692 C 0.47050 0.83872 0.13091
 C693 C 0.47136 0.81962 0.11513
 C694 C 0.49253 0.81047 0.11004
 C695 C 0.51268 0.82015 0.12196
 C696 C 0.51179 0.83917 0.13791
 H697 H 0.48692 0.92636 0.22831
 H698 H 0.48844 0.96429 0.24692
 H699 H 0.50493 0.99194 0.17798
 H700 H 0.50204 0.95398 0.15998
 H701 H 0.51376 0.89903 0.20687
 H702 H 0.51241 0.86143 0.18538
 H703 H 0.46838 0.88618 0.13042
 H704 H 0.46963 0.92347 0.15188
 H705 H 0.45405 0.84584 0.13396
 H706 H 0.45558 0.81264 0.10606
 H707 H 0.52919 0.81331 0.11853
 H708 H 0.52769 0.84683 0.14616
 C709 C 0.01369 0.31139 0.57076
 C710 C 0.03604 0.30663 0.56391
 C711 C 0.03952 0.28840 0.54769
 C712 C 0.02075 0.27428 0.53802
 C713 C -0.00160 0.27893 0.54498
 C714 C -0.00510 0.29725 0.56117
 C715 C 0.01013 0.33115 0.58765
 C716 C -0.00654 0.32953 0.60546
 C717 C -0.00942 0.34803 0.62164
 C718 C 0.00431 0.36856 0.62039
 C719 C 0.02084 0.37019 0.60246
 C720 C 0.02365 0.35177 0.58626
 C721 C 0.00177 0.38812 0.63790
 C722 C 0.00398 0.41070 0.63053
 C723 C 0.00281 0.42914 0.64715
 C724 C -0.00077 0.42545 0.67150
 C725 C -0.00355 0.40291 0.67882
 C726 C -0.00222 0.38444 0.66222
 H727 H 0.05094 0.31697 0.57116
 H728 H 0.05697 0.28574 0.54243
 H729 H -0.01645 0.26838 0.53808
 H730 H -0.02256 0.30057 0.56589
 H731 H -0.01711 0.31384 0.60716
 H732 H -0.02249 0.34628 0.63506
 H733 H 0.03192 0.38562 0.60115
 H734 H 0.03641 0.35373 0.57256
 H735 H 0.00658 0.41415 0.61187
 H736 H 0.00459 0.44632 0.64092
 H737 H -0.00609 0.39956 0.69752
 H738 H -0.00368 0.36729 0.66857
 C739 C 0.50485 0.06637 0.80123
 C740 C 0.48617 0.05730 0.78655
 C741 C 0.48599 0.03499 0.77653
 C742 C 0.50422 0.02136 0.78152
 C743 C 0.52305 0.03049 0.79586
 C744 C 0.52348 0.05294 0.80545
 C745 C 0.50426 0.08912 0.81361
 C746 C 0.52304 0.10530 0.81272
 C747 C 0.52319 0.12607 0.82610
 C748 C 0.50478 0.13086 0.84109
 C749 C 0.48578 0.11470 0.84149
 C750 C 0.48545 0.09417 0.82772
 C751 C 0.50587 0.15189 0.85728
 C752 C 0.48568 0.16245 0.86352
 C753 C 0.48648 0.18076 0.88055
 C754 C 0.50755 0.18932 0.89149
 C755 C 0.52787 0.17946 0.88439
 C756 C 0.52702 0.16087 0.86772
 H757 H 0.47163 0.06738 0.78313
 H758 H 0.47122 0.02807 0.76573
 H759 H 0.53724 0.02012 0.79988
 H760 H 0.53794 0.05953 0.81692
 H761 H 0.53766 0.10177 0.80178
 H762 H 0.53787 0.13825 0.82486
 H763 H 0.47149 0.11745 0.85312
 H764 H 0.47092 0.08178 0.82890
 H765 H 0.46913 0.15639 0.85552
 H766 H 0.47041 0.18768 0.88564
 H767 H 0.54450 0.18587 0.89195
 H768 H 0.54294 0.15312 0.86367
 C769 C 0.99169 0.69070 0.42394
 C770 C 0.97807 0.70876 0.41852
 C771 C 0.97349 0.72545 0.43618
 C772 C 0.98243 0.72457 0.45976
 C773 C 0.99707 0.70718 0.46475
 C774 C 1.00143 0.69036 0.44719
 C775 C 0.99501 0.67187 0.40575
 C776 C 1.01593 0.66114 0.40480
 C777 C 1.01847 0.64260 0.38859
 C778 C 1.00025 0.63455 0.37279
 C779 C 0.97952 0.64550 0.37338
 C780 C 0.97688 0.66386 0.38973
 C781 C 1.00253 0.61444 0.35611
 C782 C 0.99464 0.61460 0.33216
 C783 C 0.99568 0.59525 0.31674
 C784 C 1.00439 0.57518 0.32498
 C785 C 1.01269 0.57520 0.34888
 C786 C 1.01185 0.59466 0.36424
 H787 H 0.97086 0.71000 0.40061
 H788 H 0.96295 0.73905 0.43121
 H789 H 1.00480 0.70598 0.48233
 H790 H 1.01190 0.67667 0.45211
 H791 H 1.03040 0.66709 0.41654
 H792 H 1.03473 0.63462 0.38830
 H793 H 0.96508 0.63944 0.36162
 H794 H 0.96037 0.67134 0.39025
 H795 H 0.98769 0.62974 0.32535
 H796 H 0.98964 0.59605 0.29832
 H797 H 1.01921 0.55998 0.35594
 H798 H 1.01783 0.59400 0.38271
 C799 C 1.18479 0.48220 0.07839
 C800 C 1.19552 0.50218 0.06969
 C801 C 1.21145 0.50088 0.05136
 C802 C 1.21683 0.47958 0.04119
 C803 C 1.20587 0.45962 0.04975
 C804 C 1.19011 0.46092 0.06820
 C805 C 1.16815 0.48351 0.09806
 C806 C 1.16911 0.46881 0.11711
 C807 C 1.15325 0.46979 0.13550
 C808 C 1.13592 0.48539 0.13516
 C809 C 1.13508 0.50019 0.11613
 C810 C 1.15108 0.49933 0.09784
 C811 C 1.11852 0.48590 0.15430
 C812 C 1.11022 0.50667 0.16276
 C813 C 1.09326 0.50702 0.18011
 C814 C 1.08428 0.48661 0.18955
 C815 C 1.09291 0.46589 0.18142
 C816 C 1.10974 0.46553 0.16397
 H817 H 1.19194 0.51880 0.07743
 H818 H 1.21990 0.51658 0.04562
 H819 H 1.20928 0.44295 0.04203
 H820 H 1.18183 0.44526 0.07431
 H821 H 1.18232 0.45669 0.11790
 H822 H 1.15470 0.45845 0.15010
 H823 H 1.12173 0.51213 0.11505
 H824 H 1.14978 0.51068 0.08323
 H825 H 1.11682 0.52271 0.15597
 H826 H 1.08684 0.52326 0.18573
 H827 H 1.08663 0.44988 0.18853
 H828 H 1.11553 0.44919 0.15770
 C829 C 0.57526 -0.01486 0.69209
 C830 C 0.56663 -0.03714 0.69657
 C831 C 0.54925 -0.04078 0.71308
 C832 C 0.54001 -0.02222 0.72540
 C833 C 0.54837 0.00006 0.72074
 C834 C 0.56585 0.00372 0.70430
 C835 C 0.59404 -0.01112 0.67479
 C836 C 0.59394 0.00696 0.65918
 C837 C 0.61132 0.01001 0.64249
 C838 C 0.62911 -0.00501 0.64100
 C839 C 0.62941 -0.02285 0.65684
 C840 C 0.61213 -0.02584 0.67357
 C841 C 0.64696 -0.00252 0.62256
 C842 C 0.65381 -0.02187 0.60953
 C843 C 0.67036 -0.01969 0.59193
 C844 C 0.68061 0.00190 0.58701
 C845 C 0.67379 0.02127 0.60011
 C846 C 0.65710 0.01909 0.61766
 H847 H 0.57313 -0.05180 0.68710
 H848 H 0.54284 -0.05814 0.71598
 H849 H 0.54180 0.01467 0.73026
 H850 H 0.57233 0.02107 0.70150
 H851 H 0.58011 0.01843 0.65945
 H852 H 0.61051 0.02376 0.63032
 H853 H 0.64313 -0.03446 0.65636
 H854 H 0.61301 -0.03963 0.68568
 H855 H 0.64599 -0.03869 0.61261
 H856 H 0.67478 -0.03491 0.58182
 H857 H 0.68154 0.03811 0.59697
 H858 H 0.65231 0.03427 0.62761
 C859 C -0.18043 0.51735 0.92563
 C860 C -0.19340 0.49809 0.93326
 C861 C -0.21005 0.50047 0.95073
 C862 C -0.21414 0.52213 0.96089
 C863 C -0.20117 0.54137 0.95328
 C864 C -0.18452 0.53900 0.93585
 C865 C -0.16276 0.51495 0.90702
 C866 C -0.14168 0.52817 0.90905
 C867 C -0.12531 0.52647 0.89124
 C868 C -0.12961 0.51150 0.87097
 C869 C -0.15053 0.49802 0.86908
 C870 C -0.16694 0.49974 0.88690
 C871 C -0.11242 0.51026 0.85176
 C872 C -0.10748 0.48913 0.84082
 C873 C -0.09104 0.48807 0.82296
 C874 C -0.07930 0.50813 0.81556
 C875 C -0.08439 0.52924 0.82640
 C876 C -0.10074 0.53029 0.84428
 H877 H -0.19052 0.48116 0.92589
 H878 H -0.21997 0.48535 0.95599
 H879 H -0.20368 0.55827 0.96098
 H880 H -0.17502 0.55420 0.93017
 H881 H -0.13775 0.53972 0.92455
 H882 H -0.10917 0.53677 0.89343
 H883 H -0.15445 0.48653 0.85354
 H884 H -0.18313 0.48955 0.88465
 H885 H -0.11608 0.47339 0.84633
 H886 H -0.08761 0.47157 0.81482
 H887 H -0.07545 0.54497 0.82133
 H888 H -0.10437 0.54684 0.85216
 C889 C 0.42236 0.01131 0.30470
 C890 C 0.43284 -0.00663 0.29258
 C891 C 0.45018 -0.00198 0.27620
 C892 C 0.45743 0.02068 0.27171
 C893 C 0.44716 0.03858 0.28415
 C894 C 0.42980 0.03394 0.30040
 C895 C 0.40373 0.00662 0.32186
 C896 C 0.38425 0.01952 0.32196
 C897 C 0.36725 0.01608 0.33890
 C898 C 0.36938 -0.00028 0.35623
 C899 C 0.38859 -0.01363 0.35574
 C900 C 0.40557 -0.01024 0.33869
 C901 C 0.35209 -0.00272 0.37528
 C902 C 0.34481 -0.02433 0.38319
 C903 C 0.32893 -0.02637 0.40155
 C904 C 0.32005 -0.00683 0.41242
 C905 C 0.32718 0.01473 0.40432
 C906 C 0.34302 0.01676 0.38603
 H907 H 0.42730 -0.02424 0.29542
 H908 H 0.45751 -0.01612 0.26667
 H909 H 0.45273 0.05623 0.28159
 H910 H 0.42237 0.04811 0.30986
 H911 H 0.38217 0.03232 0.30889
 H912 H 0.35243 0.02629 0.33847
 H913 H 0.39086 -0.02619 0.36902
 H914 H 0.42051 -0.02030 0.33915
 H915 H 0.35132 -0.03967 0.37512
 H916 H 0.32391 -0.04320 0.40752
 H917 H 0.32043 0.03009 0.41209
 H918 H 0.34849 0.03368 0.38058
 C919 C 0.18778 0.49757 0.92343
 C920 C 0.18234 0.50059 0.94775
 C921 C 0.19839 0.49656 0.96583
 C922 C 0.22024 0.48942 0.96001
 C923 C 0.22583 0.48674 0.93571
 C924 C 0.20979 0.49077 0.91763
 C925 C 0.17036 0.50086 0.90422
 C926 C 0.16793 0.48564 0.88395
 C927 C 0.15107 0.48823 0.86622
 C928 C 0.13622 0.50612 0.86833
 C929 C 0.13882 0.52150 0.88847
 C930 C 0.15569 0.51890 0.90622
 C931 C 0.11775 0.50831 0.84989
 C932 C 0.09562 0.51391 0.85672
 C933 C 0.07795 0.51503 0.83949
 C934 C 0.08199 0.51057 0.81502
 C935 C 0.10420 0.50530 0.80815
 C936 C 0.12188 0.50419 0.82539
 H937 H 0.16542 0.50546 0.95281
 H938 H 0.19340 0.49838 0.98436
 H939 H 0.24267 0.48162 0.93066
 H940 H 0.21465 0.48867 0.89908
 H941 H 0.17869 0.47134 0.88207
 H942 H 0.14926 0.47587 0.85114
 H943 H 0.12788 0.53566 0.89044
 H944 H 0.15736 0.53111 0.92144
 H945 H 0.09178 0.51682 0.87547
 H946 H 0.06094 0.51876 0.84541
 H947 H 0.10795 0.50213 0.78941
 H948 H 0.13883 0.50020 0.81952
 C949 C 0.56911 0.02058 0.31028
 C950 C 0.55941 0.00147 0.29653
 C951 C 0.54265 0.00403 0.27865
 C952 C 0.53534 0.02575 0.27409
 C953 C 0.54509 0.04485 0.28777
 C954 C 0.56177 0.04229 0.30565
 C955 C 0.58681 0.01799 0.32938
 C956 C 0.58629 0.03065 0.35137
 C957 C 0.60329 0.02879 0.36913
 C958 C 0.62122 0.01423 0.36532
 C959 C 0.62158 0.00132 0.34346
 C960 C 0.60454 0.00317 0.32568
 C961 C 0.63961 0.01280 0.38401
 C962 C 0.64817 -0.00831 0.38910
 C963 C 0.66534 -0.00957 0.40687
 C964 C 0.67437 0.01026 0.41988
 C965 C 0.66588 0.03137 0.41468
 C966 C 0.64872 0.03262 0.39696
 H967 H 0.56460 -0.01550 0.29980
 H968 H 0.53562 -0.01097 0.26822
 H969 H 0.53960 0.06178 0.28490
 H970 H 0.56910 0.05737 0.31574
 H971 H 0.57261 0.04188 0.35493
 H972 H 0.60228 0.03862 0.38595
 H973 H 0.63532 -0.00984 0.33989
 H974 H 0.60556 -0.00659 0.30881
 H975 H 0.64137 -0.02390 0.37957
 H976 H 0.67167 -0.02605 0.41031
 H977 H 0.67227 0.04692 0.42457
 H978 H 0.64269 0.04918 0.39326
 C979 C 0.81778 0.50886 0.07664
 C980 C 0.80667 0.49056 0.06276
 C981 C 0.78997 0.49452 0.04526
 C982 C 0.78390 0.51684 0.04137
 C983 C 0.79501 0.53510 0.05536
 C984 C 0.81168 0.53115 0.07279
 C985 C 0.83586 0.50490 0.09495
 C986 C 0.85573 0.51987 0.09769
 C987 C 0.87240 0.51679 0.11542
 C988 C 0.86966 0.49866 0.13084
 C989 C 0.85004 0.48336 0.12781
 C990 C 0.83329 0.48646 0.11004
 C991 C 0.88716 0.49604 0.15014
 C992 C 0.89456 0.47443 0.15517
 C993 C 0.91186 0.47232 0.17265
 C994 C 0.92207 0.49178 0.18542
 C995 C 0.91417 0.51328 0.18082
 C996 C 0.89695 0.51538 0.16340
 H997 H 0.81116 0.47320 0.06517
 H998 H 0.78177 0.48004 0.03494
 H999 H 0.79118 0.55257 0.05259
 H1000 H 0.81973 0.54560 0.08335
 H1001 H 0.85846 0.53393 0.08601
 H1002 H 0.88757 0.52857 0.11695
 H1003 H 0.84737 0.46934 0.13955
 H1004 H 0.81806 0.47476 0.10851
 H1005 H 0.88745 0.45924 0.14512
 H1006 H 0.91773 0.45556 0.17566
 H1007 H 0.92132 0.52853 0.19074
 H1008 H 0.89124 0.53220 0.16033
 C1009 C 0.42601 -0.02205 0.69035
 C1010 C 0.43825 -0.00234 0.70052
 C1011 C 0.45578 -0.00406 0.71780
 C1012 C 0.46143 -0.02552 0.72537
 C1013 C 0.44922 -0.04522 0.71509
 C1014 C 0.43169 -0.04350 0.69788
 C1015 C 0.40744 -0.02035 0.67190
 C1016 C 0.40489 -0.03630 0.65225
 C1017 C 0.38721 -0.03504 0.63510
 C1018 C 0.37171 -0.01774 0.63712
 C1019 C 0.37436 -0.00163 0.65661
 C1020 C 0.39201 -0.00295 0.67385
 C1021 C 0.35296 -0.01655 0.61882
 C1022 C 0.34779 0.00448 0.60978
 C1023 C 0.33086 0.00538 0.59170
 C1024 C 0.31868 -0.01472 0.58236
 C1025 C 0.32349 -0.03566 0.59187
 C1026 C 0.34045 -0.03657 0.60985
 H1027 H 0.43448 0.01443 0.69490
 H1028 H 0.46467 0.01149 0.72536
 H1029 H 0.45335 -0.06208 0.72006
 H1030 H 0.42245 -0.05902 0.69061
 H1031 H 0.41676 -0.04964 0.64995
 H1032 H 0.38587 -0.04744 0.62003
 H1033 H 0.36252 0.01175 0.65874
 H1034 H 0.39331 0.00942 0.68895
 H1035 H 0.35733 0.02015 0.61618
 H1036 H 0.32780 0.02175 0.58454
 H1037 H 0.31411 -0.05139 0.58539
 H1038 H 0.34377 -0.05297 0.61680
   
