data_POSCAR
  _audit_creation_date              2014-09-24
  _audit_creation_method            'ToBaCCo'
  _symmetry_space_group_name_H-M    'P1'
  _symmetry_Int_Tables_number       1
  _symmetry_cell_setting            triclinic
  loop_
  _symmetry_equiv_pos_as_xyz
 x,y,z
_cell_length_a 37.8484
_cell_length_b 14.4561
_cell_length_c 11.2777
_cell_angle_alpha 85.330000
_cell_angle_beta 90.482200
_cell_angle_gamma 88.814000
loop_
  _atom_site_label
  _atom_site_type_symbol
  _atom_site_fract_x
  _atom_site_fract_y
  _atom_site_fract_z
C1 C 0.71858 0.27517 0.58057
 C2 C 0.72381 0.26447 0.45780
 C3 C 0.75825 0.26875 0.41224
 C4 C 0.78815 0.28594 0.48382
 C5 C 0.78125 0.30509 0.60497
 C6 C 0.74738 0.29525 0.65155
 H7 H 0.74277 0.31035 0.74300
 H8 H 0.76166 0.25934 0.31860
 C9 C 0.20955 0.75241 0.53444
 C10 C 0.21247 0.74445 0.41088
 C11 C 0.24541 0.72685 0.36151
 C12 C 0.27569 0.71224 0.43337
 C13 C 0.27312 0.72065 0.55826
 C14 C 0.23981 0.73999 0.60682
 H15 H 0.23710 0.74249 0.70217
 H16 H 0.24742 0.72346 0.26607
 C17 C 0.28312 0.20551 -0.53988
 C18 C 0.28161 0.20998 -0.41538
 C19 C 0.24880 0.21482 -0.36053
 C20 C 0.21712 0.21639 -0.42691
 C21 C 0.21848 0.20419 -0.55179
 C22 C 0.25185 0.19920 -0.60579
 H23 H 0.25376 0.18987 -0.69994
 H24 H 0.24812 0.22349 -0.26593
 C25 C -0.22457 0.76011 -0.57412
 C26 C -0.22661 0.77542 -0.45239
 C27 C -0.25858 0.76287 -0.39174
 C28 C -0.28934 0.73799 -0.45140
 C29 C -0.28682 0.72165 -0.57419
 C30 C -0.25450 0.73136 -0.63302
 H31 H -0.25303 0.72122 -0.72716
 H32 H -0.25938 0.77248 -0.29742
 N33 N 0.03586 1.07963 0.19866
 N34 N 0.06557 1.06851 0.26068
 N35 N -0.03710 1.16988 0.12700
 N36 N -0.06332 1.22833 0.14571
 N37 N -0.03852 1.09559 0.20155
 N38 N -0.06571 1.10102 0.27297
 N39 N 0.03735 1.15312 0.12273
 N40 N 0.06807 1.19396 0.13225
 C41 C 0.08567 1.14006 0.21844
 C42 C -0.08072 1.18428 0.23737
 N43 N -0.04183 1.14798 -0.21561
 N44 N -0.07064 1.17023 -0.27951
 N45 N 0.03496 1.18443 -0.13276
 N46 N 0.06537 1.22752 -0.13626
 N47 N 0.03211 1.13232 -0.22238
 N48 N 0.06036 1.13898 -0.28966
 N49 N -0.03926 1.20096 -0.12675
 N50 N -0.06647 1.25952 -0.12673
 Mn51 Mn -0.00091 1.17837 -0.00239
 C52 C -0.08542 1.24064 -0.22357
 C53 C 0.08049 1.19934 -0.23557
 N54 N -0.04321 0.90012 0.18346
 N55 N -0.07159 0.89376 0.25011
 N56 N 0.03012 0.83242 0.09149
 N57 N 0.06041 0.78517 0.08814
 N58 N 0.03016 0.88434 0.18169
 N59 N 0.05977 0.87259 0.24272
 N60 N -0.04502 0.84497 0.09674
 N61 N -0.07508 0.79959 0.10223
 Mn62 Mn -0.00403 0.98981 0.19238
 C63 C -0.09099 0.83019 0.19943
 C64 C 0.07828 0.81005 0.18500
 N65 N 0.02821 0.93569 -0.24185
 N66 N 0.05593 0.93210 -0.31201
 N67 N -0.04659 0.87582 -0.15849
 N68 N -0.07677 0.83246 -0.16575
 N69 N -0.04640 0.94992 -0.23409
 N70 N -0.07641 0.95852 -0.29489
 N71 N 0.02803 0.86249 -0.16483
 N72 N 0.05563 0.80748 -0.18091
 Mn73 Mn -0.00709 1.04161 -0.23015
 Mn74 Mn -0.00830 0.85236 -0.03398
 Cl75 Cl -0.00509 1.01548 -0.01880
 C76 C 0.07258 0.85086 -0.27453
 C77 C -0.09516 0.88489 -0.25095
 N78 N 0.46102 0.30982 -0.10417
 N79 N 0.43377 0.25448 -0.10982
 N80 N 0.53249 0.38355 -0.19950
 N81 N 0.56060 0.38502 -0.26722
 N82 N 0.53521 0.31563 -0.11534
 N83 N 0.56535 0.26935 -0.12436
 N84 N 0.45859 0.37837 -0.18793
 N85 N 0.42965 0.37189 -0.25229
 C86 C 0.41467 0.29390 -0.20356
 C87 C 0.58101 0.31314 -0.22005
 N88 N 0.53033 0.64351 -0.12892
 N89 N 0.55933 0.69295 -0.14046
 N90 N 0.45563 0.57697 -0.19707
 N91 N 0.42535 0.57807 -0.25496
 N92 N 0.45517 0.63851 -0.11790
 N93 N 0.42410 0.68243 -0.11997
 N94 N 0.52955 0.58251 -0.20881
 N95 N 0.55758 0.59004 -0.27730
 Mn96 Mn 0.49403 0.48048 -0.19940
 C97 C 0.57590 0.66017 -0.23524
 C98 C 0.40575 0.64451 -0.20713
 N99 N 0.53993 0.30618 0.14045
 N100 N 0.57032 0.25892 0.14458
 N101 N 0.46591 0.36147 0.23142
 N102 N 0.43873 0.35149 0.30293
 N103 N 0.46517 0.30041 0.15162
 N104 N 0.43698 0.24830 0.16595
 N105 N 0.53994 0.36848 0.21908
 N106 N 0.57022 0.36544 0.27823
 Mn107 Mn 0.50034 0.30652 0.01832
 C108 C 0.58871 0.29632 0.23183
 C109 C 0.42105 0.27979 0.26254
 N110 N 0.45940 0.63014 0.13758
 N111 N 0.42971 0.67882 0.14610
 N112 N 0.53563 0.56708 0.21142
 N113 N 0.56512 0.57125 0.27323
 N114 N 0.53372 0.63451 0.12626
 N115 N 0.56209 0.68614 0.12768
 N116 N 0.46136 0.56146 0.22143
 N117 N 0.43292 0.56136 0.28850
 Mn118 Mn 0.49464 0.63817 0.00406
 Mn119 Mn 0.50069 0.46454 0.22211
 Cl120 Cl 0.49738 0.47238 0.01141
 C121 C 0.41375 0.63578 0.24154
 C122 C 0.58112 0.64656 0.22135
 C123 C 0.36650 0.32132 0.36279
 C124 C 0.33280 0.30555 0.40495
 C125 C 0.31706 0.21978 0.39716
 C126 C 0.33533 0.14916 0.34091
 C127 C 0.37005 0.16511 0.29701
 C128 C 0.38562 0.25304 0.30740
 C129 C 0.38815 0.09084 0.24927
 N130 N 0.37215 0.00828 0.24265
 N131 N 0.33944 -0.00570 0.28158
 C132 C 0.32055 0.06169 0.33090
 H133 H 0.37753 0.38875 0.37317
 H134 H 0.31910 0.36047 0.44723
 H135 H 0.41505 0.09596 0.21956
 H136 H 0.29435 0.04586 0.36300
 C137 C -0.13103 0.72990 0.32034
 C138 C -0.16307 0.71505 0.37801
 C139 C -0.19169 0.77733 0.35725
 C140 C -0.18828 0.85496 0.27322
 C141 C -0.15583 0.86938 0.21318
 C142 C -0.12689 0.80720 0.23918
 C143 C -0.15327 0.94669 0.12979
 N144 N -0.18132 1.00594 0.10950
 N145 N -0.21157 0.99346 0.16757
 C146 C -0.21597 0.92038 0.24906
 H147 H -0.10891 0.68270 0.34262
 H148 H -0.16533 0.65602 0.44233
 H149 H -0.12928 0.96035 0.08044
 H150 H -0.24099 0.91432 0.29421
 C151 C 0.64140 0.60109 0.28624
 C152 C 0.67441 0.61880 0.33280
 C153 C 0.68302 0.70901 0.35677
 C154 C 0.65998 0.78418 0.31803
 C155 C 0.62665 0.76651 0.26709
 C156 C 0.61685 0.67339 0.25620
 C157 C 0.60422 0.84293 0.23204
 N158 N 0.61545 0.93051 0.24125
 N159 N 0.64711 0.94692 0.28623
 C160 C 0.66951 0.87693 0.32680
 H161 H 0.63460 0.52970 0.27645
 H162 H 0.69226 0.56086 0.35854
 H163 H 0.57805 0.83479 0.19656
 H164 H 0.69477 0.89440 0.36360
 C165 C 0.13166 1.10770 0.37341
 C166 C 0.16367 1.12232 0.42884
 C167 C 0.18750 1.18808 0.38065
 C168 C 0.17911 1.23570 0.26757
 C169 C 0.14718 1.21600 0.20684
 C170 C 0.12218 1.15523 0.26408
 C171 C 0.14179 1.25809 0.09079
 N172 N 0.16460 1.32198 0.04430
 N173 N 0.19253 1.34685 0.10556
 C174 C 0.20034 1.30685 0.21569
 H175 H 0.11388 1.05902 0.41848
 H176 H 0.16959 1.08235 0.51225
 H177 H 0.12039 1.23989 0.03455
 H178 H 0.22277 1.33243 0.26177
 C179 C 0.62609 0.34537 -0.37088
 C180 C 0.65933 0.33889 -0.41901
 C181 C 0.68480 0.27633 -0.36777
 C182 C 0.67642 0.22048 -0.26224
 C183 C 0.64275 0.23044 -0.20848
 C184 C 0.61704 0.29359 -0.26509
 C185 C 0.63674 0.17662 -0.10051
 N186 N 0.66167 0.11495 -0.05442
 N187 N 0.69227 0.10241 -0.10835
 C188 C 0.70034 0.15216 -0.21097
 H189 H 0.60749 0.39399 -0.41692
 H190 H 0.66536 0.38529 -0.49614
 H191 H 0.61301 0.18163 -0.05029
 H192 H 0.72528 0.13700 -0.25193
 C193 C 0.13143 0.88855 -0.35851
 C194 C 0.16471 0.86527 -0.40099
 C195 C 0.17482 0.77257 -0.41059
 C196 C 0.15120 0.70165 -0.37321
 C197 C 0.11716 0.72491 -0.32986
 C198 C 0.10721 0.81980 -0.32188
 C199 C 0.09409 0.65177 -0.29929
 N200 N 0.10506 0.56247 -0.30592
 N201 N 0.13726 0.54106 -0.34316
 C202 C 0.16055 0.60748 -0.37815
 H203 H 0.12473 0.96131 -0.35289
 H204 H 0.18267 0.92014 -0.42831
 H205 H 0.06732 0.66390 -0.27177
 H206 H 0.18620 0.58604 -0.40910
 C207 C 0.35344 0.60114 -0.31717
 C208 C 0.32131 0.61852 -0.37411
 C209 C 0.30274 0.70232 -0.36555
 C210 C 0.31536 0.76544 -0.28468
 C211 C 0.34793 0.74556 -0.22160
 C212 C 0.36833 0.66504 -0.24498
 C213 C 0.35880 0.80838 -0.13997
 N214 N 0.33928 0.88620 -0.12561
 N215 N 0.30997 0.90696 -0.18883
 C216 C 0.29775 0.85045 -0.26923
 H217 H 0.36727 0.53723 -0.33372
 H218 H 0.31138 0.56657 -0.42928
 H219 H 0.38201 0.79690 -0.08502
 H220 H 0.27458 0.87354 -0.32050
 C221 C -0.14895 1.25936 -0.17779
 C222 C -0.18404 1.28060 -0.21334
 C223 C -0.19217 1.33341 -0.32110
 C224 C -0.16699 1.38678 -0.37768
 C225 C -0.12672 1.33951 -0.35617
 C226 C -0.12049 1.28160 -0.25289
 C227 C -0.09689 1.36023 -0.46337
 N228 N -0.11867 1.45088 -0.61267
 N229 N -0.15616 1.48494 -0.60726
 C230 C -0.18032 1.45900 -0.49852
 H231 H -0.14436 1.21454 -0.09709
 H232 H -0.20467 1.24399 -0.16423
 H233 H -0.07042 1.32932 -0.44854
 H234 H -0.20764 1.48283 -0.50393
 C235 C 0.63015 0.61940 -0.33986
 C236 C 0.66279 0.63691 -0.39079
 C237 C 0.67871 0.72333 -0.38748
 C238 C 0.66173 0.79168 -0.32181
 C239 C 0.62805 0.77358 -0.26866
 C240 C 0.61174 0.68655 -0.28026
 C241 C 0.61167 0.84492 -0.20943
 N242 N 0.62800 0.92667 -0.20127
 N243 N 0.65918 0.94346 -0.25094
 C244 C 0.67623 0.87983 -0.31256
 H245 H 0.61927 0.55142 -0.34714
 H246 H 0.67608 0.58097 -0.43204
 H247 H 0.58600 0.83829 -0.17022
 H248 H 0.70057 0.90015 -0.35528
 C249 C 0.14429 1.17007 -0.21584
 C250 C 0.17819 1.17500 -0.26210
 C251 C 0.18496 1.23107 -0.36710
 C252 C 0.15771 1.29286 -0.41517
 C253 C 0.12300 1.28485 -0.37075
 C254 C 0.11640 1.22109 -0.27274
 C255 C 0.09589 1.34107 -0.42625
 N256 N 0.10365 1.40450 -0.51687
 N257 N 0.13665 1.41577 -0.55433
 C258 C 0.16399 1.36329 -0.50557
 H259 H 0.13933 1.12140 -0.13983
 H260 H 0.19835 1.12800 -0.22161
 H261 H 0.06877 1.33618 -0.39721
 H262 H 0.19035 1.37682 -0.53792
 C263 C 0.35166 0.32615 -0.24615
 C264 C 0.31922 0.30546 -0.29526
 C265 C 0.31423 0.22028 -0.34331
 C266 C 0.34193 0.15240 -0.33435
 C267 C 0.37510 0.17371 -0.28486
 C268 C 0.38001 0.26218 -0.24258
 C269 C 0.40259 0.10672 -0.28393
 N270 N 0.39680 0.02346 -0.32725
 N271 N 0.36544 0.00277 -0.37123
 C272 C 0.33779 0.06416 -0.37561
 H273 H 0.35497 0.39376 -0.21315
 H274 H 0.29842 0.35833 -0.30170
 H275 H 0.42863 0.11974 -0.24987
 H276 H 0.31278 0.04346 -0.41098
 C277 C -0.13911 0.76824 -0.29320
 C278 C -0.17105 0.74135 -0.33998
 C279 C -0.19556 0.80772 -0.38856
 C280 C -0.18921 0.90310 -0.38120
 C281 C -0.15709 0.93086 -0.33029
 C282 C -0.13106 0.86242 -0.29148
 C283 C -0.15286 1.02602 -0.31718
 N284 N -0.17847 1.08833 -0.35647
 N285 N -0.20804 1.06228 -0.40782
 C286 C -0.21423 0.97189 -0.42209
 H287 H -0.12003 0.71472 -0.26171
 H288 H -0.17613 0.66809 -0.34276
 H289 H -0.13014 1.05166 -0.27297
 H290 H -0.23887 0.95458 -0.46336
 C291 C 0.37122 0.73640 0.33979
 C292 C 0.33794 0.75436 0.38621
 C293 C 0.31007 0.69294 0.37449
 C294 C 0.31572 0.61380 0.30940
 C295 C 0.34919 0.59790 0.25818
 C296 C 0.37740 0.65755 0.27819
 C297 C 0.35330 0.52253 0.18768
 N298 N 0.32601 0.46498 0.17370
 N299 N 0.29519 0.47687 0.22701
 C300 C 0.28931 0.54833 0.29561
 H301 H 0.39252 0.78324 0.35442
 H302 H 0.33410 0.81549 0.43458
 H303 H 0.37789 0.50893 0.14339
 H304 H 0.26414 0.55280 0.33893
 C305 C -0.14208 1.17084 0.30557
 C306 C -0.17247 1.19656 0.36583
 C307 C -0.17660 1.27452 0.43388
 C308 C -0.14511 1.33203 0.44349
 C309 C -0.10890 1.30293 0.35238
 C310 C -0.11149 1.22255 0.29525
 C311 C -0.06971 1.37008 0.34634
 N312 N -0.06177 1.46080 0.41951
 N313 N -0.08281 1.51414 0.50817
 C314 C -0.12216 1.49220 0.55698
 H315 H -0.14277 1.10640 0.26307
 H316 H -0.19385 1.14804 0.36252
 H317 H -0.04859 1.34770 0.29097
 H318 H -0.13504 1.53519 0.61978
 C319 C 0.65228 0.33137 0.23262
 C320 C 0.68579 0.32220 0.28564
 C321 C 0.69328 0.25150 0.37567
 C322 C 0.66766 0.18259 0.40165
 C323 C 0.63322 0.19396 0.35104
 C324 C 0.62537 0.27044 0.26832
 C325 C 0.60722 0.13085 0.39014
 N326 N 0.61560 0.05974 0.47204
 N327 N 0.64826 0.04716 0.51606
 C328 C 0.67465 0.10545 0.48287
 H329 H 0.64663 0.39011 0.16890
 H330 H 0.70489 0.37561 0.26398
 H331 H 0.58036 0.13739 0.35644
 H332 H 0.70069 0.09213 0.52165
 C333 C 0.13491 0.86319 0.25456
 C334 C 0.16727 0.84774 0.31139
 C335 C 0.18129 0.75787 0.33146
 C336 C 0.16436 0.68342 0.28122
 C337 C 0.13131 0.69933 0.22176
 C338 C 0.11570 0.78943 0.21490
 C339 C 0.11481 0.62376 0.17512
 N340 N 0.13106 0.53897 0.18413
 N341 N 0.16209 0.52420 0.23967
 C342 C 0.17893 0.59298 0.29055
 H343 H 0.12399 0.93329 0.24661
 H344 H 0.18063 0.90584 0.34534
 H345 H 0.08954 0.63103 0.13013
 H346 H 0.20349 0.57632 0.33734
   
