data_POSCAR
  _audit_creation_date              2014-09-24
  _audit_creation_method            'ToBaCCo'
  _symmetry_space_group_name_H-M    'P1'
  _symmetry_Int_Tables_number       1
  _symmetry_cell_setting            triclinic
  loop_
  _symmetry_equiv_pos_as_xyz
 x,y,z
_cell_length_a 21.1767
_cell_length_b 21.1767
_cell_length_c 51.3808
_cell_angle_alpha 96.363700
_cell_angle_beta 83.636300
_cell_angle_gamma 118.822700
loop_
  _atom_site_label
  _atom_site_type_symbol
  _atom_site_fract_x
  _atom_site_fract_y
  _atom_site_fract_z
Si1 Si -0.01196 -0.06443 0.49556
 Si2 Si 0.93560 -0.01199 0.17111
 Si3 Si 0.07091 1.07087 0.83333
 O4 O 0.60445 0.10374 -0.01953
 O5 O 0.45993 0.08969 0.03100
 O6 O 0.58513 0.09428 0.03100
 O7 O 0.48642 0.11527 -0.01866
 O8 O 0.42794 -0.00310 -0.02705
 O9 O 0.52849 -0.02429 0.02288
 O10 O 0.40345 -0.02872 0.02248
 O11 O 0.54561 -0.01472 -0.02768
 Cu12 Cu 0.53962 0.11257 0.00671
 Cu13 Cu 0.47062 -0.02947 -0.00320
 C14 C 0.59937 0.04622 -0.03194
 C15 C 0.40723 0.02752 0.03522
 C16 C 0.57409 0.03196 0.03530
 C17 C 0.44026 0.06013 -0.03112
 O18 O -0.00307 0.42791 0.69371
 O19 O -0.02426 0.52846 0.64379
 O20 O -0.02868 0.40342 0.64419
 O21 O -0.01469 0.54558 0.69435
 O22 O 0.10377 0.60441 0.68619
 O23 O 0.08972 0.45989 0.63567
 O24 O 0.09431 0.58509 0.63567
 O25 O 0.11530 0.48639 0.68533
 Cu26 Cu -0.02944 0.47059 0.66987
 Cu27 Cu 0.11261 0.53958 0.65995
 C28 C 0.06016 0.44023 0.69778
 C29 C 0.03199 0.57405 0.63136
 C30 C 0.02756 0.40719 0.63145
 C31 C 0.04626 0.59934 0.69860
 O32 O 0.42046 0.37536 0.30291
 O33 O 0.55422 0.48593 0.35182
 O34 O 0.43662 0.36102 0.35114
 O35 O 0.54518 0.49265 0.30241
 O36 O 0.48597 0.55418 0.31485
 O37 O 0.37539 0.42042 0.36375
 O38 O 0.49268 0.54514 0.36426
 O39 O 0.36105 0.43658 0.31552
 Cu40 Cu 0.49497 0.42253 0.32585
 Cu41 Cu 0.42257 0.49493 0.34082
 C42 C 0.36799 0.38760 0.30106
 C43 C 0.54612 0.53489 0.36610
 C44 C 0.38764 0.36796 0.36561
 C45 C 0.53492 0.54608 0.30057
 C46 C -0.03467 0.11499 0.52257
 C47 C -0.02461 0.12078 0.54940
 C48 C -0.02018 0.06572 0.56047
 C49 C -0.02228 0.00683 0.54465
 C50 C -0.02928 0.00216 0.51757
 C51 C -0.03710 0.05576 0.50670
 C52 C -0.01363 0.18500 0.56542
 C53 C -0.00271 0.23820 0.57953
 C54 C 0.01030 0.29922 0.59683
 C55 C 0.01986 0.34971 0.61227
 H56 H -0.03791 0.15743 0.51377
 H57 H -0.01212 0.06975 0.58117
 H58 H -0.01467 -0.03272 0.55354
 H59 H -0.04130 0.05368 0.48578
 C60 C 0.82431 0.79111 0.20547
 C61 C 0.77048 0.79962 0.22152
 C62 C 0.76772 0.86448 0.22247
 C63 C 0.81822 0.92051 0.20746
 C64 C 0.87228 0.91248 0.19142
 C65 C 0.87509 0.84745 0.19037
 C66 C 0.71821 0.74271 0.23735
 C67 C 0.67417 0.69663 0.25113
 C68 C 0.62333 0.64390 0.26783
 C69 C 0.58154 0.59927 0.28255
 H70 H 0.82689 0.74106 0.20460
 H71 H 0.72643 0.87172 0.23480
 H72 H 0.81500 0.97024 0.20832
 H73 H 0.91596 0.84007 0.17787
 C74 C 0.17858 0.10579 -0.10157
 C75 C 0.24366 0.10906 -0.11235
 C76 C 0.25999 0.11281 -0.13947
 C77 C 0.20915 0.10797 -0.15589
 C78 C 0.14083 0.09739 -0.14535
 C79 C 0.12765 0.10070 -0.11796
 C80 C 0.29004 0.10173 -0.09579
 C81 C 0.32635 0.09259 -0.08166
 C82 C 0.36679 0.08025 -0.06468
 C83 C 0.40043 0.07005 -0.04969
 H84 H 0.16584 0.10404 -0.08056
 H85 H 0.31047 0.11600 -0.14803
 H86 H 0.22130 0.10714 -0.17694
 H87 H 0.07728 0.09647 -0.10901
 C88 C -0.05306 0.78189 0.54668
 C89 C 0.01310 0.78247 0.54709
 C90 C 0.07312 0.82928 0.53157
 C91 C 0.06683 0.87570 0.51581
 C92 C 0.00061 0.87557 0.51570
 C93 C -0.05929 0.82806 0.53104
 C94 C 0.01870 0.73592 0.56403
 C95 C 0.02117 0.69694 0.57883
 C96 C 0.02318 0.65213 0.59673
 C97 C 0.02587 0.61530 0.61240
 H98 H -0.09977 0.74604 0.55859
 H99 H 0.12462 0.83013 0.53177
 H100 H 0.11341 0.91160 0.50391
 H101 H -0.11093 0.82707 0.53107
 C102 C 0.04375 0.11586 0.23489
 C103 C 0.10042 0.17605 0.22325
 C104 C 0.10143 0.18396 0.19647
 C105 C 0.04771 0.13008 0.18119
 C106 C -0.00711 0.06792 0.19257
 C107 C -0.00965 0.06197 0.21964
 C108 C 0.16012 0.22581 0.23849
 C109 C 0.20980 0.26477 0.25181
 C110 C 0.26693 0.30823 0.26814
 C111 C 0.31421 0.34449 0.28275
 H112 H 0.04260 0.10898 0.25555
 H113 H 0.14523 0.23014 0.18722
 H114 H 0.05126 0.13501 0.16025
 H115 H -0.05030 0.01414 0.22889
 C116 C 0.88802 0.08813 -0.13779
 C117 C 0.86121 0.04279 -0.11700
 C118 C 0.89273 0.00007 -0.11291
 C119 C 0.95308 0.00548 -0.12880
 C120 C 0.98343 0.05497 -0.14844
 C121 C 0.94831 0.09370 -0.15357
 C122 C 0.80382 0.04319 -0.09924
 C123 C 0.75692 0.04535 -0.08417
 C124 C 0.70257 0.04818 -0.06628
 C125 C 0.65590 0.04902 -0.05075
 H126 H 0.86332 0.12048 -0.14145
 H127 H 0.87189 -0.03593 -0.09705
 H128 H 0.97797 -0.02656 -0.12502
 H129 H 0.96759 0.12932 -0.16943
 C130 C 0.11503 -0.03471 0.14410
 C131 C 0.12081 -0.02464 0.11727
 C132 C 0.06575 -0.02021 0.10620
 C133 C 0.00687 -0.02232 0.12201
 C134 C 0.00220 -0.02931 0.14909
 C135 C 0.05579 -0.03714 0.15996
 C136 C 0.18503 -0.01366 0.10124
 C137 C 0.23823 -0.00274 0.08713
 C138 C 0.29925 0.01027 0.06983
 C139 C 0.34974 0.01983 0.05439
 H140 H 0.15746 -0.03795 0.15290
 H141 H 0.06979 -0.01216 0.08549
 H142 H -0.03269 -0.01470 0.11312
 H143 H 0.05372 -0.04134 0.18089
 C144 C 0.86451 0.76768 0.44419
 C145 C 0.79965 0.77044 0.44514
 C146 C 0.79115 0.82427 0.46119
 C147 C 0.84749 0.87506 0.47630
 C148 C 0.91252 0.87225 0.47524
 C149 C 0.92054 0.81818 0.45921
 C150 C 0.74274 0.71817 0.42932
 C151 C 0.69666 0.67414 0.41554
 C152 C 0.64393 0.62330 0.39883
 C153 C 0.59930 0.58151 0.38411
 H154 H 0.87175 0.72639 0.43186
 H155 H 0.74109 0.82686 0.46207
 H156 H 0.84011 0.91593 0.48879
 H157 H 0.97027 0.81496 0.45835
 C158 C 0.10582 0.17854 0.76824
 C159 C 0.10909 0.24363 0.77901
 C160 C 0.11284 0.25996 0.80613
 C161 C 0.10801 0.20912 0.82256
 C162 C 0.09742 0.14080 0.81202
 C163 C 0.10073 0.12762 0.78462
 C164 C 0.10176 0.29001 0.76246
 C165 C 0.09263 0.32631 0.74832
 C166 C 0.08028 0.36675 0.73135
 C167 C 0.07008 0.40040 0.71636
 H168 H 0.10407 0.16581 0.74723
 H169 H 0.11603 0.31044 0.81469
 H170 H 0.10717 0.22127 0.84360
 H171 H 0.09651 0.07725 0.77568
 C172 C 0.78193 -0.05309 0.11999
 C173 C 0.78250 0.01306 0.11958
 C174 C 0.82932 0.07309 0.13509
 C175 C 0.87574 0.06680 0.15085
 C176 C 0.87560 0.00058 0.15096
 C177 C 0.82810 -0.05932 0.13562
 C178 C 0.73595 0.01866 0.10264
 C179 C 0.69698 0.02113 0.08784
 C180 C 0.65216 0.02315 0.06993
 C181 C 0.61534 0.02584 0.05427
 H182 H 0.74608 -0.09981 0.10807
 H183 H 0.83016 0.12458 0.13489
 H184 H 0.91164 0.11338 0.16275
 H185 H 0.82710 -0.11096 0.13560
 C186 C 0.11590 0.04371 0.43177
 C187 C 0.17609 0.10039 0.44341
 C188 C 0.18400 0.10140 0.47019
 C189 C 0.13012 0.04768 0.48548
 C190 C 0.06795 -0.00714 0.47409
 C191 C 0.06201 -0.00968 0.44702
 C192 C 0.22584 0.16008 0.42818
 C193 C 0.26480 0.20976 0.41485
 C194 C 0.30826 0.26689 0.39853
 C195 C 0.34453 0.31417 0.38391
 H196 H 0.10901 0.04256 0.41111
 H197 H 0.23018 0.14519 0.47945
 H198 H 0.13505 0.05122 0.50641
 H199 H 0.01417 -0.05033 0.43778
 C200 C 0.08817 0.88799 0.80446
 C201 C 0.04282 0.86118 0.78367
 C202 C 0.00010 0.89270 0.77957
 C203 C 0.00551 0.95304 0.79547
 C204 C 0.05501 0.98340 0.81510
 C205 C 0.09374 0.94828 0.82024
 C206 C 0.04322 0.80379 0.76590
 C207 C 0.04539 0.75689 0.75084
 C208 C 0.04821 0.70254 0.73294
 C209 C 0.04905 0.65586 0.71741
 H210 H 0.12052 0.86329 0.80812
 H211 H -0.03589 0.87185 0.76371
 H212 H -0.02653 0.97794 0.79168
 H213 H 0.12935 0.96755 0.83609
   
