data_POSCAR
  _audit_creation_date              2014-09-24
  _audit_creation_method            'ToBaCCo'
  _symmetry_space_group_name_H-M    'P1'
  _symmetry_Int_Tables_number       1
  _symmetry_cell_setting            triclinic
  loop_
  _symmetry_equiv_pos_as_xyz
 x,y,z
_cell_length_a 31.1649
_cell_length_b 31.1368
_cell_length_c 24.7517
_cell_angle_alpha 89.803200
_cell_angle_beta 90.044000
_cell_angle_gamma 90.019800
loop_
  _atom_site_label
  _atom_site_type_symbol
  _atom_site_fract_x
  _atom_site_fract_y
  _atom_site_fract_z
C1 C 1.28531 0.20443 0.27482
 C2 C 1.25142 0.22696 0.25062
 C3 C 1.21751 0.20430 0.22681
 C4 C 1.21763 0.15936 0.22656
 C5 C 1.25136 0.13681 0.25136
 C6 C 1.28516 0.15944 0.27583
 C7 C 1.25141 0.27424 0.25021
 C8 C 1.28524 0.29680 0.22596
 C9 C 1.28504 0.34178 0.22483
 C10 C 1.25124 0.36439 0.24926
 C11 C 1.21755 0.34181 0.27414
 C12 C 1.21751 0.29687 0.27397
 H13 H 1.31129 0.22203 0.29381
 H14 H 1.19152 0.22170 0.20749
 H15 H 1.31120 0.27921 0.20698
 H16 H 1.19156 0.27943 0.29331
 H17 H 1.25124 0.10198 0.25157
 H18 H 1.25107 0.39923 0.24896
 C19 C 0.78396 -0.29710 0.27441
 C20 C 0.74992 -0.27450 0.25068
 C21 C 0.71598 -0.29707 0.22685
 C22 C 0.71622 -0.34200 0.22609
 C23 C 0.75011 -0.36464 0.25042
 C24 C 0.78395 -0.34207 0.27492
 C25 C 0.74987 -0.22725 0.25070
 C26 C 0.78388 -0.20456 0.22705
 C27 C 0.78374 -0.15963 0.22652
 C28 C 0.74989 -0.13713 0.25083
 C29 C 0.71603 -0.15981 0.27508
 C30 C 0.71586 -0.20474 0.27441
 H31 H 0.80996 -0.27955 0.29343
 H32 H 0.68989 -0.27960 0.20785
 H33 H 0.80996 -0.22192 0.20808
 H34 H 0.68978 -0.22226 0.29335
 H35 H 0.75010 -0.39947 0.25022
 H36 H 0.74991 -0.10231 0.25089
 C37 C 0.78466 0.20499 -0.22689
 C38 C 0.75061 0.22752 -0.25074
 C39 C 0.71659 0.20483 -0.27427
 C40 C 0.71677 0.15990 -0.27455
 C41 C 0.75067 0.13739 -0.25010
 C42 C 0.78454 0.16006 -0.22598
 C43 C 0.75059 0.27478 -0.25112
 C44 C 0.78459 0.29734 -0.27500
 C45 C 0.78444 0.34230 -0.27601
 C46 C 0.75051 0.36492 -0.25187
 C47 C 0.71667 0.34233 -0.22740
 C48 C 0.71657 0.29740 -0.22765
 H49 H 0.81075 0.22249 -0.20806
 H50 H 0.69048 0.22221 -0.29337
 H51 H 0.81065 0.27975 -0.29376
 H52 H 0.69050 0.27997 -0.20856
 H53 H 0.75070 0.10257 -0.24986
 H54 H 0.75039 0.39976 -0.25208
 C55 C 1.28411 -0.29708 -0.22569
 C56 C 1.24994 -0.27443 -0.24904
 C57 C 1.21584 -0.29694 -0.27254
 C58 C 1.21603 -0.34184 -0.27334
 C59 C 1.25004 -0.36454 -0.24943
 C60 C 1.28404 -0.34203 -0.22528
 C61 C 1.24995 -0.22722 -0.24901
 C62 C 1.28408 -0.20458 -0.27242
 C63 C 1.28394 -0.15967 -0.27301
 C64 C 1.25000 -0.13713 -0.24905
 C65 C 1.21603 -0.15977 -0.22507
 C66 C 1.21584 -0.20469 -0.22561
 H67 H 1.31025 -0.27958 -0.20689
 H68 H 1.18965 -0.27943 -0.29130
 H69 H 1.31024 -0.22197 -0.29121
 H70 H 1.18966 -0.22216 -0.20683
 H71 H 1.24999 -0.39938 -0.24967
 H72 H 1.25002 -0.10231 -0.24907
 C73 C 0.20395 0.28353 0.72753
 C74 C 0.22662 0.24969 0.75167
 C75 C 0.20414 0.21564 0.77567
 C76 C 0.15920 0.21558 0.77615
 C77 C 0.13655 0.24933 0.75134
 C78 C 0.15906 0.28322 0.72674
 C79 C 0.27384 0.24988 0.75175
 C80 C 0.29628 0.28392 0.77555
 C81 C 0.34122 0.28402 0.77613
 C82 C 0.36390 0.25030 0.75163
 C83 C 0.34142 0.21641 0.72723
 C84 C 0.29653 0.21606 0.72792
 H85 H 0.22132 0.30964 0.70835
 H86 H 0.22176 0.18971 0.79491
 H87 H 0.27864 0.30984 0.79454
 H88 H 0.27918 0.18997 0.70888
 H89 H 0.10175 0.24929 0.75113
 H90 H 0.39870 0.25037 0.75148
 C91 C 0.70304 0.78444 0.72637
 C92 C 0.72561 0.75043 0.75031
 C93 C 0.70304 0.71646 0.77435
 C94 C 0.65811 0.71663 0.77510
 C95 C 0.63553 0.75052 0.75051
 C96 C 0.65810 0.78437 0.72582
 C97 C 0.77284 0.75037 0.75016
 C98 C 0.79554 0.78421 0.77405
 C99 C 0.84044 0.78402 0.77449
 C100 C 0.86289 0.75029 0.74981
 C101 C 0.84021 0.71659 0.72531
 C102 C 0.79531 0.71649 0.72609
 H103 H 0.72059 0.81045 0.70719
 H104 H 0.72059 0.69041 0.79343
 H105 H 0.77820 0.81019 0.79327
 H106 H 0.77779 0.69054 0.70700
 H107 H 0.60070 0.75055 0.75057
 H108 H 0.89768 0.75025 0.74968
 C109 C 0.70421 0.28374 0.22547
 C110 C 0.72674 0.24963 0.24922
 C111 C 0.70413 0.21547 0.27271
 C112 C 0.65925 0.21557 0.27305
 C113 C 0.63672 0.24953 0.24873
 C114 C 0.65934 0.28353 0.22465
 C115 C 0.77391 0.24971 0.24952
 C116 C 0.79635 0.28390 0.27296
 C117 C 0.84122 0.28384 0.27379
 C118 C 0.86393 0.24991 0.25002
 C119 C 0.84148 0.21588 0.22600
 C120 C 0.79661 0.21562 0.22633
 H121 H 0.72165 0.30995 0.20664
 H122 H 0.72152 0.18931 0.29176
 H123 H 0.77883 0.31005 0.29157
 H124 H 0.77929 0.18941 0.20751
 H125 H 0.60193 0.24950 0.24857
 H126 H 0.89872 0.24999 0.25020
 C127 C 0.20315 0.78400 0.22632
 C128 C 0.22572 0.75000 0.25025
 C129 C 0.20318 0.71603 0.27430
 C130 C 0.15825 0.71619 0.27506
 C131 C 0.13565 0.75008 0.25048
 C132 C 0.15822 0.78392 0.22578
 C133 C 0.27293 0.74997 0.25011
 C134 C 0.29559 0.78386 0.27394
 C135 C 0.34048 0.78375 0.27433
 C136 C 0.36297 0.75003 0.24967
 C137 C 0.34032 0.71629 0.22522
 C138 C 0.29543 0.71612 0.22606
 H139 H 0.22069 0.81001 0.20713
 H140 H 0.22074 0.68999 0.29338
 H141 H 0.27822 0.80983 0.29314
 H142 H 0.27793 0.69013 0.20699
 H143 H 0.10083 0.75011 0.25056
 H144 H 0.39776 0.75006 0.24949
 O145 O 1.07407 0.02195 0.06779
 O146 O 0.92734 -0.02224 0.06750
 O147 O 0.97875 0.07315 0.06745
 O148 O 1.02270 -0.07363 0.06782
 O149 O 0.91912 0.04992 0.03795
 O150 O 1.08238 -0.05023 0.03857
 O151 O 0.95059 -0.08190 0.03829
 O152 O 1.05085 0.08166 0.03816
 C153 C 1.07165 0.06111 0.07278
 C154 C 0.92982 -0.06140 0.07274
 C155 C 0.93965 0.07052 0.07259
 C156 C 1.06181 -0.07117 0.07303
 O157 O 1.07401 -0.02243 -0.06605
 O158 O 0.92765 0.02251 -0.06655
 O159 O 1.02327 0.07329 -0.06642
 O160 O 0.97824 -0.07330 -0.06624
 O161 O 0.91874 -0.04967 -0.03703
 O162 O 1.08278 0.04966 -0.03689
 O163 O 1.05026 -0.08201 -0.03661
 O164 O 0.95121 0.08202 -0.03715
 Co165 Co 1.07061 -0.00025 0.00084
 Co166 Co 0.93091 0.00011 0.00048
 Co167 Co 1.00099 0.06982 0.00053
 Co168 Co 1.00047 -0.07001 0.00080
 O169 O 1.00075 -0.00009 0.00066
 C170 C 1.07106 -0.06153 -0.07123
 C171 C 0.93036 0.06166 -0.07172
 C172 C 1.06239 0.07069 -0.07145
 C173 C 0.93913 -0.07060 -0.07145
 O174 O 1.07314 0.52238 0.56653
 O175 O 0.92664 0.47800 0.56641
 O176 O 0.97737 0.57359 0.56617
 O177 O 1.02230 0.42696 0.56658
 O178 O 0.91790 0.55015 0.53655
 O179 O 1.08185 0.45035 0.53709
 O180 O 0.95021 0.41839 0.53734
 O181 O 1.04952 0.58209 0.53725
 C182 C 1.07030 0.56148 0.57182
 C183 C 0.92925 0.43885 0.57170
 C184 C 0.93824 0.57102 0.57112
 C185 C 1.06141 0.42943 0.57167
 O186 O 1.07328 0.47832 0.43256
 O187 O 0.92662 0.52248 0.43226
 O188 O 1.02228 0.57383 0.43245
 O189 O 0.97774 0.42716 0.43264
 O190 O 0.91816 0.45035 0.46206
 O191 O 1.08181 0.55044 0.46216
 O192 O 1.04983 0.41859 0.46188
 O193 O 0.95008 0.58216 0.46132
 Co194 Co 1.06980 0.50037 0.49956
 Co195 Co 0.93005 0.50025 0.49934
 Co196 Co 0.99982 0.57024 0.49931
 Co197 Co 1.00001 0.43046 0.49959
 O198 O 0.99992 0.50033 0.49945
 C199 C 1.07080 0.43918 0.42746
 C200 C 0.92916 0.56162 0.42694
 C201 C 1.06141 0.57139 0.42754
 C202 C 0.93865 0.42973 0.42747
 O203 O 0.57322 0.02218 0.56750
 O204 O 0.42666 -0.02232 0.56753
 O205 O 0.47800 0.07327 0.56744
 O206 O 0.52197 -0.07359 0.56789
 O207 O 0.41830 0.04988 0.53833
 O208 O 0.58160 -0.05005 0.53866
 O209 O 0.44989 -0.08192 0.53816
 O210 O 0.55002 0.08180 0.53763
 C211 C 0.57078 0.06134 0.57234
 C212 C 0.42929 -0.06145 0.57278
 C213 C 0.43890 0.07071 0.57273
 C214 C 0.56108 -0.07102 0.57313
 O215 O 0.57312 -0.02258 0.43383
 O216 O 0.42668 0.02259 0.43357
 O217 O 0.52208 0.07323 0.43334
 O218 O 0.47759 -0.07337 0.43381
 O219 O 0.41804 -0.04964 0.46288
 O220 O 0.58166 0.04953 0.46263
 O221 O 0.54966 -0.08214 0.46355
 O222 O 0.45010 0.08208 0.46306
 Co223 Co 0.56974 -0.00021 0.50066
 Co224 Co 0.43009 0.00011 0.50057
 Co225 Co 0.50004 0.06986 0.50039
 Co226 Co 0.49979 -0.07003 0.50083
 O227 O 0.49991 -0.00007 0.50062
 C228 C 0.57048 -0.06172 0.42890
 C229 C 0.42919 0.06175 0.42852
 C230 C 0.56114 0.07032 0.42799
 C231 C 0.43849 -0.07059 0.42851
 O232 O 0.57294 0.52214 0.06568
 O233 O 0.42634 0.47779 0.06600
 O234 O 0.47699 0.57328 0.06565
 O235 O 0.52216 0.42682 0.06550
 O236 O 0.41749 0.54996 0.03602
 O237 O 0.58158 0.45021 0.03563
 O238 O 0.45000 0.41822 0.03689
 O239 O 0.54913 0.58191 0.03683
 C240 C 0.57015 0.56123 0.07115
 C241 C 0.42905 0.43865 0.07131
 C242 C 0.43787 0.57075 0.07061
 C243 C 0.56127 0.42943 0.07041
 O244 O 0.57272 0.47852 -0.06854
 O245 O 0.42605 0.52219 -0.06817
 O246 O 0.52186 0.57381 -0.06812
 O247 O 0.47700 0.42708 -0.06813
 O248 O 0.41751 0.45001 -0.03824
 O249 O 0.58141 0.55056 -0.03848
 O250 O 0.54922 0.41868 -0.03947
 O251 O 0.44971 0.58187 -0.03923
 Co252 Co 0.56942 0.50034 -0.00142
 Co253 Co 0.42960 0.50001 -0.00111
 Co254 Co 0.49943 0.57007 -0.00123
 Co255 Co 0.49959 0.43035 -0.00130
 O256 O 0.49951 0.50020 -0.00127
 C257 C 0.57009 0.43940 -0.07388
 C258 C 0.42882 0.56131 -0.07361
 C259 C 0.56099 0.57153 -0.07302
 C260 C 0.43785 0.42927 -0.07287
 C261 C 1.18388 0.13697 0.19852
 C262 C 1.15596 0.11947 0.17298
 C263 C 1.12434 0.09963 0.14063
 C264 C 1.09898 0.08249 0.11085
 C265 C 1.18215 0.63606 0.69870
 C266 C 1.15413 0.61892 0.67305
 C267 C 1.12251 0.59956 0.64040
 C268 C 1.09727 0.58273 0.61027
 C269 C 0.68296 0.13747 0.69766
 C270 C 0.65501 0.11992 0.67228
 C271 C 0.62340 0.10001 0.64005
 C272 C 0.59807 0.08280 0.61034
 C273 C 0.68243 0.63582 0.19790
 C274 C 0.65443 0.61865 0.17215
 C275 C 0.62273 0.59926 0.13952
 C276 C 0.59737 0.58243 0.10948
 C277 C 0.81757 -0.13722 0.19863
 C278 C 0.84556 -0.11973 0.17315
 C279 C 0.87721 -0.09993 0.14079
 C280 C 0.90255 -0.08280 0.11093
 C281 C 0.81645 0.36340 0.69737
 C282 C 0.84454 0.38079 0.67189
 C283 C 0.87637 0.40040 0.63957
 C284 C 0.90187 0.41742 0.60978
 C285 C 0.31779 -0.13731 0.69921
 C286 C 0.34572 -0.11983 0.67371
 C287 C 0.37720 -0.10003 0.64123
 C288 C 0.40234 -0.08288 0.61118
 C289 C 0.31688 0.36290 0.19784
 C290 C 0.34480 0.38034 0.17208
 C291 C 0.37644 0.40005 0.13949
 C292 C 0.40180 0.41715 0.10955
 C293 C 0.81840 0.13779 -0.19790
 C294 C 0.84636 0.12033 -0.17230
 C295 C 0.87795 0.10047 -0.13985
 C296 C 0.90322 0.08323 -0.10995
 C297 C 0.81603 0.63680 0.30139
 C298 C 0.84419 0.61943 0.32678
 C299 C 0.87612 0.59989 0.35905
 C300 C 0.90170 0.58296 0.38883
 C301 C 0.31703 0.13827 0.30269
 C302 C 0.34492 0.12065 0.32830
 C303 C 0.37651 0.10066 0.36068
 C304 C 0.40186 0.08335 0.39047
 C305 C 0.31617 0.63677 -0.19911
 C306 C 0.34433 0.61932 -0.17389
 C307 C 0.37616 0.59968 -0.14170
 C308 C 0.40160 0.58267 -0.11186
 C309 C 1.18221 -0.13750 -0.19734
 C310 C 1.15433 -0.12003 -0.17191
 C311 C 1.12293 -0.10019 -0.13952
 C312 C 1.09788 -0.08299 -0.10955
 C313 C 1.18372 0.36410 0.30209
 C314 C 1.15566 0.38140 0.32757
 C315 C 1.12383 0.40094 0.35983
 C316 C 1.09829 0.41788 0.38952
 C317 C 0.68225 -0.13758 0.30307
 C318 C 0.65435 -0.12016 0.32862
 C319 C 0.62283 -0.10037 0.36100
 C320 C 0.59760 -0.08321 0.39082
 C321 C 0.68277 0.36460 -0.19961
 C322 C 0.65468 0.38187 -0.17418
 C323 C 0.62288 0.40135 -0.14187
 C324 C 0.59742 0.41822 -0.11206
 C325 C 1.13813 0.18354 -0.19715
 C326 C 1.12069 0.15545 -0.17162
 C327 C 1.10097 0.12363 -0.13927
 C328 C 1.08387 0.09813 -0.10949
 C329 C 1.13714 0.68421 0.30182
 C330 C 1.11969 0.65617 0.32739
 C331 C 1.09996 0.62438 0.35977
 C332 C 1.08287 0.59887 0.38954
 C333 C 0.63692 0.18171 0.30096
 C334 C 0.61945 0.15378 0.32658
 C335 C 0.59966 0.12231 0.35922
 C336 C 0.58253 0.09719 0.38940
 C337 C 0.63695 0.68463 -0.19821
 C338 C 0.61941 0.65658 -0.17274
 C339 C 0.59957 0.62475 -0.14052
 C340 C 0.58242 0.59917 -0.11088
 C341 C 0.86289 -0.18232 -0.19740
 C342 C 0.88045 -0.15449 -0.17181
 C343 C 0.90038 -0.12299 -0.13940
 C344 C 0.91762 -0.09776 -0.10957
 C345 C 0.86336 0.31778 0.30154
 C346 C 0.88066 0.34581 0.32697
 C347 C 0.90028 0.37742 0.35933
 C348 C 0.91730 0.40267 0.38923
 C349 C 0.36284 -0.18253 0.30239
 C350 C 0.38025 -0.15461 0.32799
 C351 C 0.39996 -0.12303 0.36045
 C352 C 0.41705 -0.09774 0.39034
 C353 C 0.36226 0.31609 -0.19742
 C354 C 0.37966 0.34421 -0.17213
 C355 C 0.39933 0.37611 -0.14009
 C356 C 0.41640 0.40170 -0.11058
 C357 C 1.13710 -0.18407 0.19908
 C358 C 1.11969 -0.15600 0.17351
 C359 C 1.10007 -0.12417 0.14108
 C360 C 1.08310 -0.09865 0.11121
 C361 C 1.13675 0.31695 0.69834
 C362 C 1.11941 0.34492 0.67251
 C363 C 1.09980 0.37662 0.63985
 C364 C 1.08280 0.40204 0.60987
 C365 C 0.63694 -0.18364 0.69911
 C366 C 0.61941 -0.15562 0.67356
 C367 C 0.59959 -0.12388 0.64117
 C368 C 0.58247 -0.09843 0.61132
 C369 C 0.63710 0.31742 0.19666
 C370 C 0.61971 0.34542 0.17107
 C371 C 0.59996 0.37703 0.13858
 C372 C 0.58280 0.40230 0.10862
 C373 C 0.86390 0.18207 0.19842
 C374 C 0.88139 0.15414 0.17308
 C375 C 0.90119 0.12265 0.14077
 C376 C 0.91830 0.09749 0.11087
 C377 C 0.86241 0.68289 0.69705
 C378 C 0.87980 0.65503 0.67137
 C379 C 0.89956 0.62350 0.63892
 C380 C 0.91673 0.59823 0.60912
 C381 C 0.36376 0.18275 0.69907
 C382 C 0.38110 0.15486 0.67340
 C383 C 0.40069 0.12326 0.64087
 C384 C 0.41764 0.09794 0.61094
 C385 C 0.36250 0.68262 0.19692
 C386 C 0.37979 0.65475 0.17116
 C387 C 0.39940 0.62321 0.13859
 C388 C 0.41644 0.59794 0.10870
   
