data_POSCAR
  _audit_creation_date              2014-09-24
  _audit_creation_method            'ToBaCCo'
  _symmetry_space_group_name_H-M    'P1'
  _symmetry_Int_Tables_number       1
  _symmetry_cell_setting            triclinic
  loop_
  _symmetry_equiv_pos_as_xyz
 x,y,z
_cell_length_a 43.7029
_cell_length_b 43.6537
_cell_length_c 43.8170
_cell_angle_alpha 89.773000
_cell_angle_beta 90.165000
_cell_angle_gamma 89.797500
loop_
  _atom_site_label
  _atom_site_type_symbol
  _atom_site_fract_x
  _atom_site_fract_y
  _atom_site_fract_z
C1 C 0.23614 0.96451 -0.02435
 C2 C 0.24607 0.96249 0.00633
 C3 C 0.25516 0.98904 0.02168
 C4 C 0.25241 1.01865 0.00890
 C5 C 0.24153 1.02123 -0.02180
 C6 C 0.23292 0.99411 -0.03713
 H7 H 0.22539 0.99600 -0.06060
 H8 H 0.26214 0.98635 0.04533
 C9 C 0.74757 0.52133 0.47759
 C10 C 0.75385 0.51870 0.50917
 C11 C 0.75262 0.48960 0.52276
 C12 C 0.74526 0.46317 0.50622
 C13 C 0.74071 0.46531 0.47430
 C14 C 0.74187 0.49459 0.46074
 H15 H 0.73854 0.49677 0.43631
 H16 H 0.75613 0.48750 0.54721
 C17 C 0.73627 1.00618 1.01924
 C18 C 0.74595 0.97509 1.01959
 C19 C 0.75339 0.96150 0.99133
 C20 C 0.75062 0.97703 0.96320
 C21 C 0.73965 1.00755 0.96316
 C22 C 0.73263 1.02132 0.99119
 H23 H 0.72602 1.04528 0.99137
 H24 H 0.76048 0.93772 0.99088
 C25 C 0.24505 0.47635 0.52067
 C26 C 0.24775 0.50857 0.51956
 C27 C 0.24780 0.52322 0.49102
 C28 C 0.24492 0.50714 0.46351
 C29 C 0.24352 0.47474 0.46432
 C30 C 0.24355 0.46010 0.49307
 H31 H 0.24283 0.43531 0.49412
 H32 H 0.24892 0.54804 0.49014
 C33 C 0.96681 0.24578 -0.01276
 C34 C 0.96374 0.25076 0.01919
 C35 C 0.99046 0.25356 0.03718
 C36 C 1.02025 0.25340 0.02475
 C37 C 1.02286 0.25026 -0.00727
 C38 C 0.99672 0.24509 -0.02482
 H39 H 1.00026 0.24244 -0.04916
 H40 H 0.98770 0.25594 0.06162
 C41 C 0.46438 0.74732 0.49309
 C42 C 0.46523 0.74781 0.52538
 C43 C 0.49411 0.74848 0.53983
 C44 C 0.52173 0.75024 0.52354
 C45 C 0.52038 0.75272 0.49142
 C46 C 0.49184 0.75066 0.47691
 H47 H 0.49095 0.75137 0.45216
 H48 H 0.49525 0.74754 0.56452
 C49 C 0.01044 0.76289 -0.02000
 C50 C -0.02108 0.75448 -0.02032
 C51 C -0.03577 0.75017 0.00809
 C52 C -0.02132 0.75560 0.03637
 C53 C 0.00922 0.76618 0.03632
 C54 C 0.02393 0.77060 0.00823
 H55 H 0.04780 0.77715 0.00888
 H56 H -0.05973 0.74397 0.00833
 C57 C 0.50858 0.25391 0.53468
 C58 C 0.47654 0.25858 0.53307
 C59 C 0.46259 0.25800 0.50403
 C60 C 0.47914 0.25279 0.47703
 C61 C 0.51084 0.24647 0.47914
 C62 C 0.52480 0.24711 0.50798
 H63 H 0.54934 0.24351 0.50969
 H64 H 0.43808 0.26138 0.50224
 C65 C 0.97835 -0.00944 0.22691
 C66 C 0.97928 0.02123 0.23729
 C67 C 1.00793 0.03506 0.24183
 C68 C 1.03581 0.01960 0.23656
 C69 C 1.03491 -0.01063 0.22459
 C70 C 1.00598 -0.02307 0.21748
 H71 H 1.00501 -0.04585 0.20795
 H72 H 1.00852 0.05883 0.24883
 C73 C 0.53777 0.52262 0.75264
 C74 C 0.53863 0.49183 0.76289
 C75 C 0.51102 0.47714 0.77003
 C76 C 0.48245 0.49138 0.76641
 C77 C 0.48134 0.52219 0.75642
 C78 C 0.50902 0.53720 0.74991
 H79 H 0.50812 0.56109 0.74322
 H80 H 0.51166 0.45315 0.77651
 C81 C 1.02385 0.97919 0.75898
 C82 C 0.99294 0.97860 0.76806
 C83 C 0.97817 1.00623 0.77479
 C84 C 0.99165 1.03515 0.76962
 C85 C 1.02276 1.03585 0.76003
 C86 C 1.03818 1.00776 0.75529
 H87 H 1.06224 1.00807 0.74941
 H88 H 0.95430 1.00489 0.78118
 C89 C 0.52142 0.47867 0.24929
 C90 C 0.48981 0.47990 0.25586
 C91 C 0.47639 0.50845 0.26183
 C92 C 0.49290 0.53599 0.26074
 C93 C 0.52452 0.53503 0.25374
 C94 C 0.53806 0.50618 0.24827
 H95 H 0.56243 0.50484 0.24405
 H96 H 0.45193 0.50949 0.26583
 O97 O 0.26799 0.16965 0.19093
 O98 O 0.30295 0.16138 0.23409
 O99 O 0.18820 0.20258 0.23941
 O100 O 0.17699 0.24231 0.26997
 O101 O 0.22005 0.24999 0.15729
 O102 O 0.26268 0.28379 0.14788
 O103 O 0.26455 0.29045 0.31344
 O104 O 0.23310 0.24523 0.32222
 O105 O 0.34603 0.24893 0.27480
 O106 O 0.35319 0.21405 0.22965
 O107 O 0.30679 0.32705 0.23692
 O108 O 0.26177 0.33543 0.20022
 O109 O 0.26537 0.32721 0.27655
 O110 O 0.23093 0.33664 0.23445
 O111 O 0.34414 0.29083 0.23330
 O112 O 0.35408 0.24905 0.19965
 O113 O 0.31008 0.25308 0.31200
 O114 O 0.27591 0.21630 0.32434
 O115 O 0.26289 0.20697 0.15482
 O116 O 0.29600 0.24911 0.14541
 O117 O 0.18500 0.24685 0.19550
 O118 O 0.17757 0.28024 0.23860
 O119 O 0.22584 0.16693 0.23374
 O120 O 0.26884 0.15798 0.26646
 Zr121 Zr 0.26615 0.19298 0.23301
 O122 O 0.29441 0.21963 0.26144
 Zr123 Zr 0.21097 0.24512 0.23581
 O124 O 0.23722 0.27470 0.26315
 Zr125 Zr 0.26253 0.24763 0.18013
 O126 O 0.29177 0.27610 0.20555
 Zr127 Zr 0.26816 0.24878 0.28920
 O128 O 0.23966 0.21854 0.26421
 Zr129 Zr 0.32018 0.24936 0.23403
 O130 O 0.29393 0.22071 0.20528
 Zr131 Zr 0.26536 0.30244 0.23565
 O132 O 0.23570 0.27594 0.20812
 O133 O 0.23587 0.21802 0.20600
 O134 O 0.29548 0.27781 0.26332
 C135 C 0.26587 0.17889 0.16308
 C136 C 0.19777 0.17471 0.23744
 C137 C 0.19243 0.24951 0.16729
 C138 C 0.26421 0.31860 0.30452
 C139 C 0.33790 0.25161 0.30282
 C140 C 0.33498 0.31866 0.23550
 H141 H 0.30750 0.20600 0.27402
 H142 H 0.30380 0.28905 0.19150
 H143 H 0.22254 0.20496 0.19325
 H144 H 0.22324 0.28683 0.27609
 H145 H 0.22106 0.22671 0.31722
 H146 H 0.18515 0.25267 0.28828
 H147 H 0.34680 0.26243 0.18286
 H148 H 0.31267 0.23511 0.15192
 H149 H 0.27204 0.19602 0.31529
 H150 H 0.25291 0.16246 0.28185
 H151 H 0.28057 0.33431 0.18774
 H152 H 0.24828 0.29951 0.15554
 H153 H 0.31742 0.16777 0.21796
 H154 H 0.35117 0.20022 0.24747
 H155 H 0.18334 0.29612 0.22350
 H156 H 0.21506 0.33071 0.24937
 O157 O 0.74961 0.84478 0.22208
 O158 O 0.71592 0.85361 0.26543
 O159 O 0.83030 0.80956 0.26583
 O160 O 0.84015 0.77141 0.30067
 O161 O 0.79516 0.76280 0.18856
 O162 O 0.75112 0.73009 0.18014
 O163 O 0.75406 0.72531 0.34674
 O164 O 0.78793 0.76869 0.35286
 O165 O 0.67335 0.76671 0.30972
 O166 O 0.66462 0.80187 0.26414
 O167 O 0.70898 0.68736 0.26713
 O168 O 0.75317 0.67785 0.23424
 O169 O 0.74631 0.68886 0.31066
 O170 O 0.78753 0.68017 0.27149
 O171 O 0.67249 0.72467 0.26905
 O172 O 0.66162 0.76646 0.23497
 O173 O 0.71045 0.76334 0.34609
 O174 O 0.74548 0.79978 0.35566
 O175 O 0.75192 0.80684 0.18665
 O176 O 0.71863 0.76487 0.17816
 O177 O 0.83153 0.76560 0.22570
 O178 O 0.83911 0.73204 0.26838
 O179 O 0.79310 0.84620 0.26449
 O180 O 0.75025 0.85667 0.29719
 Zr181 Zr 0.75209 0.82133 0.26432
 O182 O 0.72435 0.79554 0.29400
 Zr183 Zr 0.80629 0.76779 0.26626
 O184 O 0.78023 0.73906 0.29488
 Zr185 Zr 0.75301 0.76615 0.21216
 O186 O 0.72403 0.73872 0.23890
 Zr187 Zr 0.75121 0.76629 0.32139
 O188 O 0.77942 0.79557 0.29501
 Zr189 Zr 0.69712 0.76596 0.26791
 O190 O 0.72294 0.79378 0.23786
 Zr191 Zr 0.75060 0.71178 0.26866
 O192 O 0.77991 0.73730 0.23975
 O193 O 0.78085 0.79534 0.23685
 O194 O 0.72234 0.73754 0.29682
 C195 C 0.75005 0.83511 0.19439
 C196 C 0.82119 0.83761 0.26491
 C197 C 0.82320 0.76311 0.19774
 C198 C 0.74971 0.69749 0.33842
 C199 C 0.68240 0.76464 0.33760
 C200 C 0.68093 0.69649 0.26787
 H201 H 0.71201 0.80953 0.30677
 H202 H 0.71127 0.72614 0.22519
 H203 H 0.79383 0.80798 0.22331
 H204 H 0.79403 0.72625 0.30757
 H205 H 0.80013 0.78698 0.34739
 H206 H 0.83392 0.75808 0.31785
 H207 H 0.66802 0.75297 0.21806
 H208 H 0.70192 0.77843 0.18528
 H209 H 0.75311 0.81917 0.34698
 H210 H 0.76706 0.85291 0.31194
 H211 H 0.73710 0.68230 0.21890
 H212 H 0.76618 0.71449 0.18695
 H213 H 0.70068 0.84699 0.25008
 H214 H 0.66723 0.81545 0.28197
 H215 H 0.83152 0.71549 0.25501
 H216 H 0.77971 0.66034 0.27933
 O217 O 0.75443 0.16902 0.78889
 O218 O 0.72364 0.15751 0.74760
 O219 O 0.83260 0.21168 0.74849
 O220 O 0.84205 0.25375 0.71933
 O221 O 0.78950 0.25260 0.82841
 O222 O 0.74793 0.27880 0.83907
 O223 O 0.75111 0.28788 0.66686
 O224 O 0.78037 0.24656 0.65640
 O225 O 0.67075 0.24625 0.70705
 O226 O 0.65972 0.21722 0.74756
 O227 O 0.70820 0.32839 0.74245
 O228 O 0.74531 0.33805 0.77826
 O229 O 0.74577 0.32615 0.70149
 O230 O 0.78611 0.33429 0.74193
 O231 O 0.67161 0.29158 0.74646
 O232 O 0.66552 0.24491 0.78438
 O233 O 0.70654 0.24976 0.66966
 O234 O 0.75237 0.20974 0.66400
 O235 O 0.74921 0.20506 0.82591
 O236 O 0.71158 0.24996 0.83145
 O237 O 0.82787 0.25260 0.79338
 O238 O 0.83406 0.28973 0.74900
 O239 O 0.79826 0.17263 0.74916
 O240 O 0.75494 0.16330 0.71182
 Zr241 Zr 0.75472 0.19447 0.74868
 O242 O 0.72360 0.21920 0.72114
 Zr243 Zr 0.80526 0.25089 0.75037
 O244 O 0.77846 0.27628 0.71925
 Zr245 Zr 0.75000 0.24786 0.80222
 O246 O 0.72254 0.27701 0.77514
 Zr247 Zr 0.74928 0.24818 0.69318
 O248 O 0.78084 0.22241 0.71983
 Zr249 Zr 0.69600 0.24908 0.74714
 O250 O 0.72270 0.21948 0.77507
 Zr251 Zr 0.74866 0.30362 0.74453
 O252 O 0.77641 0.27914 0.77617
 O253 O 0.78076 0.22109 0.77799
 O254 O 0.72018 0.27707 0.71726
 C255 C 0.75138 0.17706 0.81673
 C256 C 0.82580 0.18321 0.74875
 C257 C 0.81778 0.25348 0.82104
 C258 C 0.74808 0.31609 0.67396
 C259 C 0.67864 0.24793 0.67906
 C260 C 0.68036 0.31975 0.74416
 H261 H 0.71103 0.20473 0.70919
 H262 H 0.71000 0.29018 0.78854
 H263 H 0.79414 0.20868 0.79151
 H264 H 0.79209 0.28875 0.70620
 H265 H 0.79995 0.25472 0.66421
 H266 H 0.83524 0.24315 0.70060
 H267 H 0.66434 0.26505 0.79460
 H268 H 0.70014 0.23060 0.82891
 H269 H 0.73170 0.20078 0.66200
 H270 H 0.77322 0.16794 0.69937
 H271 H 0.76206 0.33411 0.79304
 H272 H 0.74817 0.29951 0.82988
 H273 H 0.70551 0.16415 0.75936
 H274 H 0.66872 0.19725 0.74182
 H275 H 0.82899 0.30240 0.76700
 H276 H 0.77794 0.35472 0.73610
 O277 O 0.23363 0.81114 0.79463
 O278 O 0.26835 0.81988 0.75196
 O279 O 0.15451 0.77474 0.75182
 O280 O 0.14385 0.73545 0.72036
 O281 O 0.19274 0.73266 0.83121
 O282 O 0.23548 0.69713 0.83892
 O283 O 0.23573 0.68949 0.67344
 O284 O 0.19744 0.72889 0.66564
 O285 O 0.31197 0.73327 0.70765
 O286 O 0.32190 0.76675 0.75270
 O287 O 0.27704 0.65310 0.75179
 O288 O 0.23285 0.64455 0.78679
 O289 O 0.23512 0.65277 0.71043
 O290 O 0.20155 0.64295 0.75342
 O291 O 0.31315 0.69027 0.74768
 O292 O 0.32417 0.73247 0.78288
 O293 O 0.27454 0.73106 0.67159
 O294 O 0.23240 0.76551 0.66282
 O295 O 0.23626 0.77402 0.83120
 O296 O 0.26921 0.73164 0.83950
 O297 O 0.15545 0.73159 0.79480
 O298 O 0.14773 0.69646 0.75315
 O299 O 0.19162 0.81117 0.74975
 O300 O 0.23440 0.82123 0.71872
 Zr301 Zr 0.23302 0.78693 0.75285
 O302 O 0.26095 0.76091 0.72368
 Zr303 Zr 0.17931 0.73317 0.75333
 O304 O 0.20528 0.70444 0.72467
 Zr305 Zr 0.23396 0.73304 0.80640
 O306 O 0.26252 0.70480 0.77992
 Zr307 Zr 0.23407 0.73118 0.69721
 O308 O 0.20565 0.76028 0.72343
 Zr309 Zr 0.28873 0.73166 0.74985
 O310 O 0.26316 0.76020 0.77941
 Zr311 Zr 0.23531 0.67755 0.75136
 O312 O 0.20653 0.70358 0.78024
 O313 O 0.20502 0.76151 0.78136
 O314 O 0.26334 0.70264 0.72205
 C315 C 0.23531 0.80216 0.82266
 C316 C 0.16352 0.80271 0.74986
 C317 C 0.16457 0.73193 0.82266
 C318 C 0.23588 0.66144 0.68245
 C319 C 0.30268 0.73253 0.67976
 C320 C 0.30489 0.66215 0.74945
 H321 H 0.27319 0.77500 0.71097
 H322 H 0.27552 0.69225 0.79360
 H323 H 0.19200 0.77476 0.79426
 H324 H 0.19154 0.69174 0.71204
 H325 H 0.18231 0.74463 0.67182
 H326 H 0.14931 0.72143 0.70354
 H327 H 0.31978 0.71645 0.79826
 H328 H 0.28615 0.74415 0.83125
 H329 H 0.24772 0.78133 0.66786
 H330 H 0.22181 0.81364 0.70154
 H331 H 0.24985 0.64852 0.80119
 H332 H 0.21953 0.68225 0.83293
 H333 H 0.28373 0.81330 0.76730
 H334 H 0.31719 0.78202 0.73661
 H335 H 0.15495 0.68138 0.76852
 H336 H 0.18553 0.64807 0.73823
 O337 O 0.25119 0.34504 0.72437
 O338 O 0.21748 0.35299 0.76776
 O339 O 0.33092 0.30701 0.76881
 O340 O 0.34206 0.26589 0.79795
 O341 O 0.29367 0.26605 0.68733
 O342 O 0.25071 0.23123 0.67930
 O343 O 0.25444 0.22187 0.84548
 O344 O 0.28923 0.26435 0.85225
 O345 O 0.17398 0.26618 0.81097
 O346 O 0.16469 0.30164 0.76654
 O347 O 0.20778 0.18675 0.76524
 O348 O 0.25077 0.17720 0.73199
 O349 O 0.24613 0.18642 0.80852
 O350 O 0.28655 0.17867 0.76783
 O351 O 0.17200 0.22449 0.76988
 O352 O 0.16143 0.26769 0.73600
 O353 O 0.21161 0.26030 0.84649
 O354 O 0.24736 0.29623 0.85641
 O355 O 0.24866 0.30810 0.68797
 O356 O 0.21738 0.26539 0.67840
 O357 O 0.33067 0.26443 0.72398
 O358 O 0.33805 0.22879 0.76583
 O359 O 0.29433 0.34414 0.76556
 O360 O 0.25228 0.35417 0.79992
 Zr361 Zr 0.25301 0.32006 0.76573
 O362 O 0.22526 0.29396 0.79512
 Zr363 Zr 0.30635 0.26558 0.76527
 O364 O 0.28021 0.23659 0.79358
 Zr365 Zr 0.25208 0.26665 0.71206
 O366 O 0.22315 0.23881 0.73851
 Zr367 Zr 0.25201 0.26350 0.82126
 O368 O 0.28034 0.29292 0.79523
 Zr369 Zr 0.19709 0.26554 0.76875
 O370 O 0.22286 0.29385 0.73908
 Zr371 Zr 0.24976 0.21054 0.76703
 O372 O 0.27895 0.23647 0.73827
 O373 O 0.28099 0.29456 0.73711
 O374 O 0.22233 0.23588 0.79639
 C375 C 0.24887 0.33618 0.69651
 C376 C 0.32219 0.33520 0.76786
 C377 C 0.32186 0.26477 0.69601
 C378 C 0.24985 0.19431 0.83649
 C379 C 0.18346 0.26280 0.83859
 C380 C 0.17992 0.19626 0.76735
 H381 H 0.21340 0.30783 0.80846
 H382 H 0.20998 0.22680 0.72468
 H383 H 0.29390 0.30771 0.72400
 H384 H 0.29400 0.22324 0.80573
 H385 H 0.30170 0.28254 0.84708
 H386 H 0.33457 0.25491 0.81622
 H387 H 0.16593 0.25237 0.72005
 H388 H 0.19996 0.27728 0.68667
 H389 H 0.25577 0.31555 0.84831
 H390 H 0.26968 0.35001 0.81386
 H391 H 0.23605 0.18361 0.71600
 H392 H 0.26665 0.21616 0.68525
 H393 H 0.20199 0.34696 0.75241
 H394 H 0.16879 0.31562 0.78378
 H395 H 0.33064 0.21357 0.75087
 H396 H 0.27898 0.15882 0.77586
 O397 O 0.77137 0.67089 0.69177
 O398 O 0.80585 0.66349 0.73531
 O399 O 0.69058 0.70455 0.73546
 O400 O 0.67850 0.74402 0.76648
 O401 O 0.72559 0.75110 0.65504
 O402 O 0.76859 0.78469 0.64704
 O403 O 0.76867 0.79354 0.81249
 O404 O 0.73227 0.75196 0.82069
 O405 O 0.84700 0.75317 0.77765
 O406 O 0.85600 0.71630 0.73344
 O407 O 0.80899 0.82909 0.73871
 O408 O 0.76603 0.83685 0.69873
 O409 O 0.76427 0.82959 0.77512
 O410 O 0.73342 0.83856 0.73129
 O411 O 0.84649 0.79308 0.73483
 O412 O 0.85801 0.75080 0.70281
 O413 O 0.80975 0.75156 0.81374
 O414 O 0.76947 0.71803 0.82445
 O415 O 0.76834 0.70795 0.65512
 O416 O 0.80205 0.75001 0.64646
 O417 O 0.68921 0.74687 0.69187
 O418 O 0.68008 0.78232 0.73321
 O419 O 0.72869 0.66886 0.73590
 O420 O 0.77134 0.66068 0.76765
 Zr421 Zr 0.76897 0.69495 0.73351
 O422 O 0.79620 0.72198 0.76247
 Zr423 Zr 0.71347 0.74701 0.73328
 O424 O 0.73867 0.77681 0.76150
 Zr425 Zr 0.76713 0.74899 0.67974
 O426 O 0.79531 0.77786 0.70595
 Zr427 Zr 0.76870 0.75122 0.78900
 O428 O 0.74113 0.72092 0.76314
 Zr429 Zr 0.82275 0.75161 0.73579
 O430 O 0.79763 0.72252 0.70647
 Zr431 Zr 0.76768 0.80437 0.73476
 O432 O 0.73917 0.77759 0.70628
 O433 O 0.73970 0.71952 0.70503
 O434 O 0.79685 0.78013 0.76387
 C435 C 0.77046 0.67990 0.66375
 C436 C 0.70036 0.67670 0.73656
 C437 C 0.69762 0.74939 0.66392
 C438 C 0.76608 0.82148 0.80318
 C439 C 0.83788 0.75251 0.80553
 C440 C 0.83723 0.82078 0.73767
 H441 H 0.80909 0.70841 0.77527
 H442 H 0.80782 0.79073 0.69224
 H443 H 0.72690 0.70605 0.69218
 H444 H 0.72443 0.78917 0.77394
 H445 H 0.71797 0.73547 0.81468
 H446 H 0.68379 0.75815 0.78327
 H447 H 0.85105 0.76336 0.68527
 H448 H 0.81819 0.73567 0.65355
 H449 H 0.78202 0.70056 0.81747
 H450 H 0.75795 0.66760 0.78447
 H451 H 0.78602 0.83663 0.68821
 H452 H 0.75420 0.80069 0.65413
 H453 H 0.82087 0.67027 0.71984
 H454 H 0.85417 0.70352 0.75203
 H455 H 0.68603 0.79719 0.71719
 H456 H 0.71611 0.83193 0.74420
 O457 O 0.25303 0.66981 0.29002
 O458 O 0.22269 0.65972 0.24798
 O459 O 0.33237 0.71182 0.25021
 O460 O 0.34359 0.75480 0.22391
 O461 O 0.28932 0.75295 0.33152
 O462 O 0.24740 0.77832 0.34250
 O463 O 0.25420 0.79138 0.17067
 O464 O 0.28163 0.74959 0.15911
 O465 O 0.17183 0.74829 0.20868
 O466 O 0.15989 0.72063 0.25017
 O467 O 0.21055 0.83119 0.24967
 O468 O 0.24876 0.83926 0.28301
 O469 O 0.24737 0.82885 0.20592
 O470 O 0.28847 0.83534 0.24640
 O471 O 0.17357 0.79488 0.24511
 O472 O 0.16558 0.74994 0.28585
 O473 O 0.20794 0.75446 0.17200
 O474 O 0.25312 0.71323 0.16596
 O475 O 0.24866 0.70511 0.32784
 O476 O 0.21096 0.74997 0.33338
 O477 O 0.32820 0.75124 0.29710
 O478 O 0.33519 0.78997 0.25389
 O479 O 0.29752 0.67324 0.25096
 O480 O 0.25472 0.66566 0.21278
 Zr481 Zr 0.25445 0.69603 0.25029
 O482 O 0.22411 0.72188 0.22283
 Zr483 Zr 0.30592 0.75146 0.25384
 O484 O 0.27996 0.77803 0.22298
 Zr485 Zr 0.24998 0.74832 0.30491
 O486 O 0.22335 0.77849 0.27808
 Zr487 Zr 0.25054 0.75112 0.19588
 O488 O 0.28134 0.72420 0.22233
 Zr489 Zr 0.19672 0.75181 0.24896
 O490 O 0.22252 0.72113 0.27667
 Zr491 Zr 0.25040 0.80539 0.24860
 O492 O 0.27729 0.77964 0.27993
 O493 O 0.28062 0.72150 0.28054
 O494 O 0.22178 0.78012 0.22019
 C495 C 0.25023 0.67727 0.31806
 C496 C 0.32518 0.68345 0.25020
 C497 C 0.31775 0.75276 0.32459
 C498 C 0.25073 0.81941 0.17824
 C499 C 0.17993 0.75169 0.18091
 C500 C 0.18268 0.82299 0.24667
 H501 H 0.21152 0.70781 0.21044
 H502 H 0.21074 0.79155 0.29154
 H503 H 0.29368 0.70857 0.29389
 H504 H 0.29401 0.79050 0.21038
 H505 H 0.30164 0.75602 0.16745
 H506 H 0.33667 0.74617 0.20423
 H507 H 0.16311 0.77093 0.29395
 H508 H 0.19924 0.73095 0.32976
 H509 H 0.23217 0.70526 0.16296
 H510 H 0.27316 0.67040 0.20059
 H511 H 0.26492 0.83389 0.29801
 H512 H 0.24757 0.79926 0.33381
 H513 H 0.20456 0.66640 0.25972
 H514 H 0.16831 0.70064 0.24369
 H515 H 0.33026 0.80202 0.27234
 H516 H 0.28079 0.85590 0.24041
 O517 O 0.73255 0.31397 0.28928
 O518 O 0.76707 0.32321 0.24616
 O519 O 0.65402 0.27580 0.24603
 O520 O 0.64422 0.23601 0.21503
 O521 O 0.69309 0.23274 0.32576
 O522 O 0.73768 0.19972 0.33323
 O523 O 0.73308 0.19212 0.16773
 O524 O 0.69701 0.23290 0.16036
 O525 O 0.81204 0.23772 0.20146
 O526 O 0.81993 0.27303 0.24758
 O527 O 0.77946 0.15731 0.24424
 O528 O 0.73650 0.14753 0.28117
 O529 O 0.73798 0.15589 0.20490
 O530 O 0.70441 0.14508 0.24796
 O531 O 0.81498 0.19524 0.24421
 O532 O 0.82600 0.23703 0.27534
 O533 O 0.77443 0.23303 0.16582
 O534 O 0.73270 0.26788 0.15675
 O535 O 0.73544 0.27674 0.32573
 O536 O 0.76940 0.23542 0.33432
 O537 O 0.65583 0.23405 0.28936
 O538 O 0.64894 0.19754 0.24849
 O539 O 0.69028 0.31309 0.24426
 O540 O 0.73259 0.32434 0.21359
 Zr541 Zr 0.73223 0.28974 0.24745
 O542 O 0.76044 0.26432 0.21790
 Zr543 Zr 0.67974 0.23490 0.24799
 O544 O 0.70616 0.20665 0.21934
 Zr545 Zr 0.73438 0.23572 0.30094
 O546 O 0.76371 0.20848 0.27424
 Zr547 Zr 0.73403 0.23395 0.19156
 O548 O 0.70536 0.26257 0.21805
 Zr549 Zr 0.78914 0.23588 0.24398
 O550 O 0.76298 0.26355 0.27391
 Zr551 Zr 0.73718 0.18060 0.24569
 O552 O 0.70770 0.20576 0.27467
 O553 O 0.70484 0.26373 0.27607
 O554 O 0.76436 0.20627 0.21615
 C555 C 0.73436 0.30491 0.31728
 C556 C 0.66239 0.30395 0.24410
 C557 C 0.66489 0.23279 0.31719
 C558 C 0.73554 0.16421 0.17693
 C559 C 0.80257 0.23580 0.17367
 C560 C 0.80720 0.16693 0.24411
 H561 H 0.77233 0.27862 0.20509
 H562 H 0.77717 0.19632 0.28785
 H563 H 0.69156 0.27666 0.28902
 H564 H 0.69247 0.19362 0.20701
 H565 H 0.68202 0.24851 0.16716
 H566 H 0.65007 0.22210 0.19825
 H567 H 0.81940 0.22584 0.29383
 H568 H 0.78555 0.24934 0.32675
 H569 H 0.74783 0.28387 0.16178
 H570 H 0.72133 0.31595 0.19588
 H571 H 0.75447 0.15108 0.29444
 H572 H 0.72276 0.18394 0.32691
 H573 H 0.78224 0.31742 0.26200
 H574 H 0.81693 0.28636 0.22949
 H575 H 0.65659 0.18280 0.26398
 H576 H 0.68806 0.14988 0.23303
 C577 C 0.26229 0.08902 0.07107
 N578 N 0.27592 0.06152 0.07577
 N579 N 0.27339 0.03939 0.05518
 C580 C 0.25717 0.04363 0.02893
 N581 N 0.24335 0.07126 0.02448
 N582 N 0.24605 0.09360 0.04498
 C583 C 0.26404 0.11270 0.09460
 N584 N 0.25524 0.14193 0.08854
 N585 N 0.25626 0.16312 0.11031
 C586 C 0.26584 0.15576 0.13895
 N587 N 0.27459 0.12652 0.14500
 N588 N 0.27384 0.10541 0.12316
 C589 C 0.76631 0.59022 0.57156
 N590 N 0.78058 0.56290 0.57551
 N591 N 0.77741 0.54079 0.55497
 C592 C 0.75978 0.54500 0.52968
 N593 N 0.74546 0.57241 0.52577
 N594 N 0.74887 0.59471 0.54620
 C595 C 0.76848 0.61378 0.59518
 N596 N 0.75984 0.64306 0.58922
 N597 N 0.76099 0.66417 0.61105
 C598 C 0.77050 0.65670 0.63968
 N599 N 0.77911 0.62739 0.64566
 N600 N 0.77826 0.60635 0.62373
 C601 C 0.74824 0.91897 0.09603
 N602 N 0.75968 0.90946 0.06899
 N603 N 0.75922 0.92783 0.04476
 C604 C 0.74726 0.95658 0.04627
 N605 N 0.73558 0.96593 0.07348
 N606 N 0.73620 0.94760 0.09794
 C607 C 0.74842 0.89783 0.12212
 N608 N 0.74190 0.90735 0.15088
 N609 N 0.74246 0.88753 0.17417
 C610 C 0.74931 0.85753 0.16937
 N611 N 0.75569 0.84816 0.14062
 N612 N 0.75535 0.86792 0.11749
 C613 C 0.24331 0.42163 0.59965
 N614 N 0.22669 0.41425 0.57461
 N615 N 0.22684 0.43219 0.55005
 C616 C 0.24371 0.45822 0.54937
 N617 N 0.26049 0.46562 0.57446
 N618 N 0.26016 0.44773 0.59925
 C619 C 0.24415 0.40033 0.62563
 N620 N 0.25532 0.40869 0.65335
 N621 N 0.25637 0.38852 0.67634
 C622 C 0.24659 0.35929 0.67222
 N623 N 0.23549 0.35109 0.64453
 N624 N 0.23413 0.37124 0.62176
 C625 C 0.74178 0.07484 0.89533
 N626 N 0.76241 0.05143 0.89477
 N627 N 0.76070 0.02847 0.91493
 C628 C 0.73790 0.02783 0.93596
 N629 N 0.71671 0.05070 0.93552
 N630 N 0.71859 0.07372 0.91568
 C631 C 0.74515 0.10183 0.87552
 N632 N 0.73117 0.12875 0.88272
 N633 N 0.73398 0.15332 0.86474
 C634 C 0.75079 0.15172 0.83883
 N635 N 0.76483 0.12483 0.83176
 N636 N 0.76235 0.10043 0.84989
 C637 C 0.24246 0.57394 0.39571
 N638 N 0.22038 0.57250 0.41727
 N639 N 0.21970 0.54931 0.43703
 C640 C 0.24093 0.52649 0.43604
 N641 N 0.26278 0.52766 0.41410
 N642 N 0.26326 0.55075 0.39402
 C643 C 0.24480 0.60110 0.37592
 N644 N 0.26096 0.59990 0.34962
 N645 N 0.26301 0.62451 0.33171
 C646 C 0.24954 0.65143 0.33964
 N647 N 0.23370 0.65283 0.36618
 N648 N 0.23132 0.62804 0.38395
 C649 C 0.22992 0.89221 0.91513
 N650 N 0.23915 0.88700 0.94439
 N651 N 0.23997 0.90988 0.96459
 C652 C 0.23154 0.93884 0.95635
 N653 N 0.22146 0.94338 0.92727
 N654 N 0.22067 0.92072 0.90717
 C655 C 0.23134 0.86835 0.89150
 N656 N 0.22668 0.87612 0.86178
 N657 N 0.22839 0.85517 0.83984
 C658 C 0.23483 0.82554 0.84677
 N659 N 0.23948 0.81769 0.87652
 N660 N 0.23794 0.83873 0.89849
 C661 C 0.73194 0.39350 0.41129
 N662 N 0.74428 0.38796 0.43933
 N663 N 0.74592 0.41022 0.46013
 C664 C 0.73503 0.43876 0.45376
 N665 N 0.72201 0.44380 0.42597
 N666 N 0.72050 0.42173 0.40520
 C667 C 0.73234 0.37020 0.38708
 N668 N 0.72568 0.37826 0.35780
 N669 N 0.72666 0.35763 0.33547
 C670 C 0.73424 0.32807 0.34162
 N671 N 0.74081 0.31998 0.37093
 N672 N 0.74006 0.34067 0.39322
 C673 C 0.09420 0.25718 0.08383
 N674 N 0.09873 0.25638 0.05326
 N675 N 0.07498 0.25579 0.03415
 C676 C 0.04574 0.25592 0.04467
 N677 N 0.04150 0.25725 0.07539
 N678 N 0.06515 0.25783 0.09454
 C679 C 0.12003 0.25606 0.10520
 N680 N 0.11476 0.25485 0.13565
 N681 N 0.13793 0.25279 0.15530
 C682 C 0.16725 0.25185 0.14524
 N683 N 0.17260 0.25319 0.11475
 N684 N 0.14936 0.25519 0.09505
 C685 C 0.60066 0.74836 0.57842
 N686 N 0.60029 0.76551 0.55245
 N687 N 0.57555 0.76593 0.53445
 C688 C 0.55051 0.74894 0.54161
 N689 N 0.55123 0.73174 0.56747
 N690 N 0.57570 0.73151 0.58550
 C691 C 0.62654 0.74883 0.59987
 N692 N 0.62229 0.73846 0.62874
 N693 N 0.64504 0.73881 0.64891
 C694 C 0.67309 0.74924 0.64096
 N695 N 0.67756 0.75949 0.61196
 N696 N 0.65459 0.75944 0.59177
 C697 C 0.07303 0.74909 0.91093
 N698 N 0.04499 0.73591 0.90933
 N699 N 0.02426 0.74105 0.93102
 C700 C 0.03046 0.76007 0.95477
 N701 N 0.05854 0.77338 0.95580
 N702 N 0.07934 0.76803 0.93444
 C703 C 0.09672 0.74272 0.88833
 N704 N 0.12641 0.74885 0.89499
 N705 N 0.14820 0.74432 0.87436
 C706 C 0.14104 0.73366 0.84624
 N707 N 0.11134 0.72735 0.83958
 N708 N 0.08955 0.73157 0.86037
 C709 C 0.57304 0.23566 0.40728
 N710 N 0.54762 0.25327 0.40335
 N711 N 0.52720 0.25614 0.42573
 C712 C 0.53117 0.24105 0.45263
 N713 N 0.55650 0.22323 0.45625
 N714 N 0.57704 0.22062 0.43409
 C715 C 0.59666 0.23403 0.38368
 N716 N 0.62545 0.22455 0.39085
 N717 N 0.64731 0.22403 0.36972
 C718 C 0.64102 0.23267 0.34060
 N719 N 0.61216 0.24191 0.33340
 N720 N 0.59040 0.24276 0.35459
 C721 C 0.91780 0.75350 0.11030
 N722 N 0.91358 0.73536 0.08568
 N723 N 0.93401 0.73485 0.06328
 C724 C 0.95953 0.75253 0.06431
 N725 N 0.96414 0.77026 0.08936
 N726 N 0.94374 0.77057 0.11204
 C727 C 0.89348 0.75587 0.13335
 N728 N 0.89908 0.76776 0.16138
 N729 N 0.87664 0.77000 0.18183
 C730 C 0.84772 0.76090 0.17489
 N731 N 0.84210 0.74924 0.14679
 N732 N 0.86459 0.74666 0.12648
 C733 C 0.41455 0.26667 0.60590
 N734 N 0.44299 0.25488 0.61095
 N735 N 0.46343 0.25338 0.58835
 C736 C 0.45627 0.26384 0.55992
 N737 N 0.42806 0.27629 0.55537
 N738 N 0.40766 0.27766 0.57777
 C739 C 0.39072 0.26628 0.62963
 N740 N 0.36113 0.27238 0.62205
 N741 N 0.33914 0.27156 0.64304
 C742 C 0.34592 0.26471 0.67252
 N743 N 0.37554 0.25868 0.68016
 N744 N 0.39751 0.25926 0.65910
 C745 C 0.89979 0.24658 0.92053
 N746 N 0.89253 0.25498 0.94955
 N747 N 0.91353 0.25366 0.97183
 C748 C 0.94249 0.24383 0.96586
 N749 N 0.94889 0.23454 0.93696
 N750 N 0.92819 0.23589 0.91487
 C751 C 0.87834 0.24969 0.89487
 N752 N 0.88857 0.24553 0.86588
 N753 N 0.86958 0.24764 0.84214
 C754 C 0.83957 0.25400 0.84656
 N755 N 0.82936 0.25837 0.87555
 N756 N 0.84840 0.25644 0.89929
 C757 C 0.39543 0.74540 0.42762
 N758 N 0.39291 0.76476 0.45177
 N759 N 0.41343 0.76397 0.47444
 C760 C 0.43675 0.74329 0.47404
 N761 N 0.43842 0.72334 0.45038
 N762 N 0.41821 0.72432 0.42768
 C763 C 0.37552 0.74831 0.40066
 N764 N 0.38472 0.73687 0.37333
 N765 N 0.36692 0.73926 0.34867
 C766 C 0.33916 0.75309 0.35050
 N767 N 0.33001 0.76458 0.37781
 N768 N 0.34797 0.76255 0.40237
 C769 C 0.11051 0.07938 0.24233
 N770 N 0.08697 0.08127 0.26227
 N771 N 0.06437 0.06096 0.26152
 C772 C 0.06419 0.03792 0.24074
 N773 N 0.08806 0.03574 0.22101
 N774 N 0.11094 0.05594 0.22198
 C775 C 0.13365 0.10377 0.24154
 N776 N 0.16121 0.09931 0.22804
 N777 N 0.18167 0.12188 0.22696
 C778 C 0.17515 0.14987 0.23887
 N779 N 0.14752 0.15436 0.25218
 N780 N 0.12724 0.13168 0.25362
 C781 C 0.61188 0.58240 0.74045
 N782 N 0.58497 0.58700 0.72575
 N783 N 0.56231 0.56699 0.72849
 C784 C 0.56536 0.54151 0.74616
 N785 N 0.59262 0.53650 0.76045
 N786 N 0.61554 0.55650 0.75750
 C787 C 0.63538 0.60645 0.73933
 N788 N 0.66479 0.60087 0.74782
 N789 N 0.68554 0.62322 0.74688
 C790 C 0.67754 0.65202 0.73788
 N791 N 0.64811 0.65757 0.72960
 N792 N 0.62750 0.63519 0.73019
 C793 C 0.92682 0.10381 0.76479
 N794 N 0.92242 0.07866 0.78222
 N795 N 0.94436 0.05782 0.78524
 C796 C 0.97179 0.06086 0.77098
 N797 N 0.97674 0.08691 0.75454
 N798 N 0.95467 0.10806 0.75157
 C799 C 0.90076 0.12444 0.75922
 N800 N 0.90462 0.15309 0.74785
 N801 N 0.88052 0.17149 0.74377
 C802 C 0.85171 0.16176 0.75035
 N803 N 0.84786 0.13296 0.76125
 N804 N 0.87196 0.11470 0.76563
 C805 C 0.42828 0.60599 0.26110
 N806 N 0.42869 0.58448 0.28343
 N807 N 0.45127 0.56405 0.28499
 C808 C 0.47441 0.56421 0.26433
 N809 N 0.47456 0.58644 0.24253
 N810 N 0.45205 0.60719 0.24116
 C811 C 0.40128 0.62579 0.25738
 N812 N 0.40302 0.65260 0.24178
 N813 N 0.37840 0.67046 0.23881
 C814 C 0.35099 0.66187 0.25062
 N815 N 0.34912 0.63481 0.26581
 N816 N 0.37386 0.61714 0.26915
 C817 C 0.07905 0.90071 0.74988
 N818 N 0.08597 0.92704 0.73492
 N819 N 0.06803 0.95159 0.73731
 C820 C 0.04249 0.95093 0.75488
 N821 N 0.03572 0.92457 0.77003
 N822 N 0.05353 0.89986 0.76744
 C823 C 0.10005 0.87446 0.74847
 N824 N 0.09166 0.84629 0.75871
 N825 N 0.11155 0.82302 0.75848
 C826 C 0.14056 0.82725 0.74828
 N827 N 0.14880 0.85538 0.73799
 N828 N 0.12889 0.87849 0.73792
 C829 C 0.57511 0.39938 0.24065
 N830 N 0.55021 0.39927 0.25913
 N831 N 0.53243 0.42408 0.26129
 C832 C 0.53870 0.44973 0.24477
 N833 N 0.56343 0.44953 0.22611
 N834 N 0.58129 0.42492 0.22413
 C835 C 0.59677 0.37364 0.24025
 N836 N 0.62547 0.37813 0.22950
 N837 N 0.64613 0.35571 0.23049
 C838 C 0.63878 0.32780 0.24194
 N839 N 0.60991 0.32306 0.25237
 N840 N 0.58929 0.34569 0.25171
 C841 C 0.90774 0.92974 0.24147
 N842 N 0.90617 0.95840 0.25330
 N843 N 0.92819 0.97872 0.24756
 C844 C 0.95233 0.97138 0.22939
 N845 N 0.95305 0.94284 0.21707
 N846 N 0.93136 0.92250 0.22297
 C847 C 0.88546 0.90610 0.24934
 N848 N 0.89275 0.87617 0.24518
 N849 N 0.87262 0.85426 0.25134
 C850 C 0.84436 0.86150 0.26178
 N851 N 0.83706 0.89147 0.26613
 N852 N 0.85737 0.91342 0.26028
 C853 C 0.41019 0.42905 0.77185
 N854 N 0.40861 0.45302 0.75204
 N855 N 0.43089 0.47378 0.75109
 C856 C 0.45520 0.47168 0.77038
 N857 N 0.45633 0.44793 0.79050
 N858 N 0.43432 0.42701 0.79121
 C859 C 0.38723 0.40478 0.77123
 N860 N 0.39391 0.37648 0.78248
 N861 N 0.37337 0.35404 0.78116
 C862 C 0.34535 0.35927 0.76878
 N863 N 0.33866 0.38761 0.75769
 N864 N 0.35931 0.40992 0.75865
 C865 C 0.09641 0.25925 0.93314
 N866 N 0.09623 0.23608 0.95394
 N867 N 0.07367 0.23385 0.97425
 C868 C 0.05103 0.25523 0.97498
 N869 N 0.05148 0.27846 0.95432
 N870 N 0.07373 0.28046 0.93381
 C871 C 0.11929 0.26034 0.90884
 N872 N 0.11280 0.27491 0.88215
 N873 N 0.13310 0.27543 0.85955
 C874 C 0.16076 0.26167 0.86303
 N875 N 0.16734 0.24725 0.88980
 N876 N 0.14685 0.24635 0.91224
 C877 C 0.59280 0.76082 0.42970
 N878 N 0.56649 0.77679 0.42571
 N879 N 0.54418 0.77494 0.44614
 C880 C 0.54719 0.75700 0.47137
 N881 N 0.57360 0.74097 0.47542
 N882 N 0.59615 0.74305 0.45505
 C883 C 0.61634 0.76186 0.40605
 N884 N 0.64532 0.75222 0.41182
 N885 N 0.66643 0.75324 0.38997
 C886 C 0.65918 0.76357 0.36155
 N887 N 0.63015 0.77301 0.35576
 N888 N 0.60915 0.77230 0.37768
 C889 C 0.92278 0.75212 0.90323
 N890 N 0.91414 0.73898 0.92988
 N891 N 0.93259 0.73928 0.95405
 C892 C 0.96061 0.75269 0.95285
 N893 N 0.96901 0.76621 0.92609
 N894 N 0.95062 0.76574 0.90170
 C895 C 0.90141 0.75230 0.87723
 N896 N 0.91044 0.76008 0.84856
 N897 N 0.89043 0.76000 0.82543
 C898 C 0.86068 0.75240 0.83029
 N899 N 0.85180 0.74476 0.85896
 N900 N 0.87176 0.74458 0.88190
 C901 C 0.42536 0.25571 0.39761
 N902 N 0.42051 0.27545 0.42088
 N903 N 0.43837 0.27492 0.44546
 C904 C 0.46176 0.25453 0.44795
 N905 N 0.46669 0.23468 0.42461
 N906 N 0.44891 0.23538 0.39976
 C907 C 0.40365 0.25523 0.37204
 N908 N 0.41047 0.24159 0.34506
 N909 N 0.38983 0.24090 0.32254
 C910 C 0.36161 0.25346 0.32645
 N911 N 0.35492 0.26701 0.35341
 N912 N 0.37560 0.26805 0.37567
 C913 C 0.07665 0.76422 0.10382
 N914 N 0.07520 0.78760 0.08346
 N915 N 0.05192 0.78974 0.06392
 C916 C 0.02905 0.76867 0.06383
 N917 N 0.02999 0.74579 0.08495
 N918 N 0.05320 0.74381 0.10478
 C919 C 0.10402 0.76020 0.12315
 N920 N 0.10318 0.74178 0.14809
 N921 N 0.12786 0.73842 0.16570
 C922 C 0.15455 0.75273 0.15877
 N923 N 0.15559 0.77082 0.13354
 N924 N 0.13075 0.77447 0.11606
 C925 C 0.57544 0.25635 0.60180
 N926 N 0.57410 0.27822 0.57983
 N927 N 0.55075 0.27914 0.56032
 C928 C 0.52768 0.25842 0.56204
 N929 N 0.52875 0.23681 0.58438
 N930 N 0.55200 0.23607 0.60419
 C931 C 0.60272 0.25354 0.62128
 N932 N 0.60169 0.23697 0.64745
 N933 N 0.62635 0.23457 0.66519
 C934 C 0.65316 0.24804 0.65718
 N935 N 0.65439 0.26427 0.63075
 N936 N 0.62956 0.26697 0.61313
 C937 C 0.88841 0.24780 0.07779
 N938 N 0.90942 0.27043 0.07975
 N939 N 0.93186 0.27254 0.05944
 C940 C 0.93442 0.25211 0.03627
 N941 N 0.91300 0.22969 0.03389
 N942 N 0.89021 0.22778 0.05411
 C943 C 0.86593 0.24402 0.10252
 N944 N 0.83915 0.22899 0.09806
 N945 N 0.81907 0.22613 0.12080
 C946 C 0.82529 0.23764 0.14896
 N947 N 0.85222 0.25232 0.15344
 N948 N 0.87205 0.25557 0.13063
 C949 C 0.39181 0.74308 0.58697
 N950 N 0.38830 0.73194 0.55818
 N951 N 0.41104 0.73404 0.53789
 C952 C 0.43796 0.74757 0.54567
 N953 N 0.44085 0.75921 0.57422
 N954 N 0.41839 0.75698 0.59441
 C955 C 0.36827 0.73951 0.61066
 N956 N 0.37570 0.74498 0.64026
 N957 N 0.35494 0.74227 0.66225
 C958 C 0.32581 0.73414 0.65548
 N959 N 0.31828 0.72861 0.62585
 N960 N 0.33918 0.73109 0.60382
 C961 C 0.24342 0.09829 0.92284
 N962 N 0.26115 0.09701 0.94832
 N963 N 0.26022 0.07256 0.96672
 C964 C 0.24120 0.04868 0.96067
 N965 N 0.22353 0.05041 0.93511
 N966 N 0.22461 0.07456 0.91664
 C967 C 0.24528 0.12378 0.90103
 N968 N 0.23396 0.12010 0.87243
 N969 N 0.23560 0.14261 0.85200
 C970 C 0.24835 0.16984 0.85946
 N971 N 0.25955 0.17372 0.88816
 N972 N 0.25820 0.15099 0.90858
 C973 C 0.74560 0.60159 0.42483
 N974 N 0.72507 0.57888 0.42032
 N975 N 0.72532 0.55404 0.43790
 C976 C 0.74620 0.55073 0.46066
 N977 N 0.76683 0.57351 0.46527
 N978 N 0.76642 0.59863 0.44777
 C979 C 0.74628 0.62741 0.40337
 N980 N 0.76100 0.65396 0.40996
 N981 N 0.76175 0.67674 0.38955
 C982 C 0.74817 0.67349 0.36180
 N983 N 0.73356 0.64695 0.35535
 N984 N 0.73248 0.62444 0.37580
 C985 C 0.73219 0.06880 0.09093
 N986 N 0.75423 0.04681 0.09067
 N987 N 0.75479 0.02581 0.06869
 C988 C 0.73286 0.02556 0.04665
 N989 N 0.71063 0.04739 0.04729
 N990 N 0.71030 0.06861 0.06897
 C991 C 0.73298 0.09350 0.11335
 N992 N 0.71960 0.12093 0.10700
 N993 N 0.72085 0.14377 0.12702
 C994 C 0.73527 0.13981 0.15420
 N995 N 0.74853 0.11233 0.16059
 N996 N 0.74766 0.08965 0.14039
 C997 C 0.24574 0.56993 0.59270
 N998 N 0.22986 0.54328 0.59438
 N999 N 0.23113 0.52308 0.57166
 C1000 C 0.24877 0.52857 0.54674
 N1001 N 0.26485 0.55510 0.54542
 N1002 N 0.26334 0.57538 0.56790
 C1003 C 0.24292 0.59341 0.61625
 N1004 N 0.25081 0.62277 0.60982
 N1005 N 0.24811 0.64452 0.63083
 C1006 C 0.23767 0.63763 0.65913
 N1007 N 0.22988 0.60823 0.66566
 N1008 N 0.23223 0.58650 0.64449
 C1009 C 0.76315 0.91738 0.88960
 N1010 N 0.78072 0.91517 0.91500
 N1011 N 0.77800 0.93555 0.93728
 C1012 C 0.75753 0.95899 0.93531
 N1013 N 0.74043 0.96172 0.90946
 N1014 N 0.74335 0.94139 0.88691
 C1015 C 0.76416 0.89273 0.86683
 N1016 N 0.75272 0.89692 0.83831
 N1017 N 0.75337 0.87414 0.81813
 C1018 C 0.76498 0.84621 0.82586
 N1019 N 0.77622 0.84196 0.85445
 N1020 N 0.77591 0.86485 0.87450
 C1021 C 0.24746 0.41230 0.39183
 N1022 N 0.23232 0.40554 0.41789
 N1023 N 0.22968 0.42622 0.43990
 C1024 C 0.24207 0.45459 0.43700
 N1025 N 0.25667 0.46165 0.41054
 N1026 N 0.25916 0.44094 0.38828
 C1027 C 0.25231 0.38815 0.36898
 N1028 N 0.26231 0.39488 0.34044
 N1029 N 0.26648 0.37263 0.32007
 C1030 C 0.26127 0.34284 0.32758
 N1031 N 0.25156 0.33614 0.35620
 N1032 N 0.24712 0.35838 0.37647
 C1033 C 0.24404 0.89641 0.07455
 N1034 N 0.26552 0.89470 0.05220
 N1035 N 0.26493 0.91414 0.02863
 C1036 C 0.24227 0.93536 0.02607
 N1037 N 0.22052 0.93654 0.04813
 N1038 N 0.22128 0.91739 0.07183
 C1039 C 0.24629 0.87706 0.10201
 N1040 N 0.23123 0.88470 0.12807
 N1041 N 0.23342 0.86714 0.15301
 C1042 C 0.25073 0.84127 0.15267
 N1043 N 0.26579 0.83378 0.12664
 N1044 N 0.26389 0.85147 0.10190
 C1045 C 0.73997 0.39428 0.57134
 N1046 N 0.76011 0.39162 0.54789
 N1047 N 0.76031 0.41216 0.52525
 C1048 C 0.73980 0.43559 0.52486
 N1049 N 0.71921 0.43763 0.54794
 N1050 N 0.71921 0.41737 0.57068
 C1051 C 0.74206 0.37411 0.59815
 N1052 N 0.72955 0.38264 0.62523
 N1053 N 0.73209 0.36471 0.64984
 C1054 C 0.74718 0.33757 0.64814
 N1055 N 0.75964 0.32911 0.62105
 N1056 N 0.75741 0.34716 0.59659
 C1057 C 0.08411 0.10958 0.75932
 N1058 N 0.05943 0.11016 0.77817
 N1059 N 0.03876 0.08766 0.77746
 C1060 C 0.04172 0.06405 0.75749
 N1061 N 0.06603 0.06414 0.73820
 N1062 N 0.08677 0.08634 0.73911
 C1063 C 0.10883 0.13233 0.76177
 N1064 N 0.13716 0.12561 0.75091
 N1065 N 0.15993 0.14570 0.75319
 C1066 C 0.15518 0.17346 0.76619
 N1067 N 0.12681 0.18026 0.77698
 N1068 N 0.10411 0.15998 0.77506
 C1069 C 0.58736 0.60774 0.25776
 N1070 N 0.55947 0.61067 0.27122
 N1071 N 0.53880 0.58823 0.26924
 C1072 C 0.54513 0.56222 0.25340
 N1073 N 0.57278 0.55991 0.23948
 N1074 N 0.59343 0.58206 0.24164
 C1075 C 0.61144 0.63098 0.26123
 N1076 N 0.64089 0.62372 0.25440
 N1077 N 0.66308 0.64438 0.25709
 C1078 C 0.65665 0.67323 0.26653
 N1079 N 0.62718 0.68055 0.27339
 N1080 N 0.60499 0.65976 0.27099
 C1081 C 0.10244 0.92327 0.22933
 N1082 N 0.07786 0.91974 0.21096
 N1083 N 0.05740 0.94209 0.20799
 C1084 C 0.06031 0.96907 0.22321
 N1085 N 0.08576 0.97304 0.24072
 N1086 N 0.10649 0.95060 0.24362
 C1087 C 0.12299 0.89708 0.23467
 N1088 N 0.15038 0.90080 0.24869
 N1089 N 0.16886 0.87687 0.25312
 C1090 C 0.16052 0.84826 0.24420
 N1091 N 0.13294 0.84444 0.23053
 N1092 N 0.11454 0.86846 0.22586
 C1093 C 0.60479 0.42360 0.75647
 N1094 N 0.58726 0.42613 0.78175
 N1095 N 0.56836 0.44981 0.78504
 C1096 C 0.56617 0.47199 0.76327
 N1097 N 0.58455 0.47000 0.73839
 N1098 N 0.60378 0.44639 0.73522
 C1099 C 0.62317 0.39581 0.75170
 N1100 N 0.64679 0.39580 0.73175
 N1101 N 0.66403 0.37084 0.72839
 C1102 C 0.65788 0.34473 0.74420
 N1103 N 0.63383 0.34450 0.76369
 N1104 N 0.61679 0.36963 0.76735
 C1105 C 0.90336 0.08024 0.24316
 N1106 N 0.90273 0.05580 0.22412
 N1107 N 0.92653 0.03668 0.22264
 C1108 C 0.95158 0.04086 0.24060
 N1109 N 0.95204 0.06536 0.25963
 N1110 N 0.92845 0.08469 0.26084
 C1111 C 0.87804 0.10238 0.24375
 N1112 N 0.88284 0.13122 0.25413
 N1113 N 0.86024 0.15174 0.25411
 C1114 C 0.83190 0.14409 0.24406
 N1115 N 0.82698 0.11516 0.23389
 N1116 N 0.84972 0.09472 0.23353
 C1117 C 0.40216 0.57676 0.74979
 N1118 N 0.40303 0.55269 0.76952
 N1119 N 0.42786 0.53487 0.77138
 C1120 C 0.45253 0.54020 0.75328
 N1121 N 0.45137 0.56419 0.73349
 N1122 N 0.42677 0.58213 0.73183
 C1123 C 0.37613 0.59808 0.74896
 N1124 N 0.37982 0.62638 0.73668
 N1125 N 0.35695 0.64656 0.73670
 C1126 C 0.32937 0.63910 0.74866
 N1127 N 0.32546 0.61063 0.76067
 N1128 N 0.34853 0.59050 0.76098
 C1129 C 0.93071 0.90680 0.75795
 N1130 N 0.92778 0.92708 0.78108
 N1131 N 0.94875 0.94862 0.78544
 C1132 C 0.97346 0.95086 0.76681
 N1133 N 0.97651 0.93027 0.74382
 N1134 N 0.95570 0.90841 0.73969
 C1135 C 0.90633 0.88473 0.75194
 N1136 N 0.91199 0.85887 0.73584
 N1137 N 0.88971 0.83876 0.73077
 C1138 C 0.86090 0.84413 0.74103
 N1139 N 0.85515 0.87020 0.75678
 N1140 N 0.87752 0.89010 0.76221
 C1141 C 0.42665 0.40823 0.24820
 N1142 N 0.42214 0.43137 0.26819
 N1143 N 0.44293 0.45327 0.27139
 C1144 C 0.46907 0.45306 0.25468
 N1145 N 0.47359 0.42979 0.23464
 N1146 N 0.45290 0.40759 0.23168
 C1147 C 0.40287 0.38506 0.24403
 N1148 N 0.40940 0.35754 0.23129
 N1149 N 0.38764 0.33646 0.22823
 C1150 C 0.35852 0.34236 0.23735
 N1151 N 0.35196 0.37000 0.24977
 N1152 N 0.37378 0.39092 0.25316
   
