data_POSCAR
  _audit_creation_date              2014-09-24
  _audit_creation_method            'ToBaCCo'
  _symmetry_space_group_name_H-M    'P1'
  _symmetry_Int_Tables_number       1
  _symmetry_cell_setting            triclinic
  loop_
  _symmetry_equiv_pos_as_xyz
 x,y,z
_cell_length_a 35.0049
_cell_length_b 32.1428
_cell_length_c 21.1361
_cell_angle_alpha 89.548200
_cell_angle_beta 90.371300
_cell_angle_gamma 89.266900
loop_
  _atom_site_label
  _atom_site_type_symbol
  _atom_site_fract_x
  _atom_site_fract_y
  _atom_site_fract_z
O1 O 0.26982 0.27721 0.33471
 O2 O 0.19545 0.19895 0.30793
 O3 O 0.26652 0.19669 0.34668
 O4 O 0.19882 0.27881 0.29576
 O5 O 0.21700 0.27081 0.19672
 O6 O 0.28779 0.19161 0.24898
 O7 O 0.21622 0.19037 0.21043
 O8 O 0.28777 0.27140 0.23520
 Cu9 Cu 0.23078 0.23856 0.33122
 Cu10 Cu 0.25407 0.23015 0.21291
 C11 C 0.29150 0.28761 0.28943
 C12 C 0.19290 0.18171 0.25425
 C13 C 0.28958 0.18099 0.30698
 C14 C 0.19580 0.28830 0.23747
 O15 O 0.73096 0.22921 0.32956
 O16 O 0.80593 0.30628 0.29650
 O17 O 0.73558 0.30981 0.33784
 O18 O 0.80173 0.22622 0.29225
 O19 O 0.78297 0.23216 0.19265
 O20 O 0.71359 0.31390 0.23983
 O21 O 0.78410 0.31307 0.19876
 O22 O 0.71214 0.23372 0.22984
 Cu23 Cu 0.77051 0.26747 0.32398
 Cu24 Cu 0.74621 0.27389 0.20536
 C25 C 0.70880 0.21829 0.28494
 C26 C 0.80805 0.32246 0.24152
 C27 C 0.71265 0.32547 0.29718
 C28 C 0.80424 0.21529 0.23485
 O29 O 0.72016 0.77524 0.69362
 O30 O 0.78910 0.69256 0.74048
 O31 O 0.71842 0.69459 0.70019
 O32 O 0.79148 0.77291 0.73291
 O33 O 0.77236 0.77669 0.83196
 O34 O 0.69780 0.69959 0.79838
 O35 O 0.76838 0.69602 0.83877
 O36 O 0.70108 0.77971 0.79270
 Cu37 Cu 0.75677 0.73349 0.70691
 Cu38 Cu 0.73301 0.73850 0.82537
 C39 C 0.69838 0.79106 0.73514
 C40 C 0.79059 0.68039 0.79779
 C41 C 0.69519 0.68430 0.74328
 C42 C 0.79506 0.78757 0.78827
 O43 O 0.29490 0.80535 0.77823
 O44 O 0.22497 0.72298 0.80594
 O45 O 0.29639 0.72516 0.77228
 O46 O 0.22176 0.80367 0.80678
 O47 O 0.20479 0.80473 0.70609
 O48 O 0.28011 0.72772 0.67119
 O49 O 0.20889 0.72451 0.70474
 O50 O 0.27812 0.80822 0.67742
 Cu51 Cu 0.26109 0.76433 0.80094
 Cu52 Cu 0.24135 0.76680 0.67974
 C53 C 0.29929 0.81996 0.72285
 C54 C 0.20490 0.70978 0.76027
 C55 C 0.30116 0.71338 0.71555
 C56 C 0.19960 0.81648 0.76263
 C57 C 0.99358 0.07719 0.11856
 C58 C 1.02725 0.05549 0.10432
 C59 C 1.02563 0.02180 0.06281
 C60 C 0.99156 0.01198 0.03031
 C61 C 0.95830 0.03574 0.04332
 C62 C 0.95899 0.06758 0.08861
 C63 C 0.99136 -0.02252 -0.01724
 C64 C 0.95767 -0.04422 -0.03201
 C65 C 0.95799 -0.07677 -0.07628
 C66 C 0.99265 -0.08863 -0.10444
 C67 C 1.02664 -0.06877 -0.08831
 C68 C 1.02550 -0.03484 -0.04726
 H69 H 0.99458 0.10307 0.15108
 H70 H 1.05129 0.00333 0.05657
 H71 H 0.93178 0.02964 0.01885
 H72 H 0.93112 -0.03612 -0.00917
 H73 H 0.99353 -0.11486 -0.13634
 H74 H 1.05178 -0.01838 -0.03913
 C75 C 0.49701 0.58121 0.60213
 C76 C 0.53073 0.56024 0.58537
 C77 C 0.52896 0.52769 0.54151
 C78 C 0.49426 0.51772 0.51114
 C79 C 0.46114 0.54086 0.52662
 C80 C 0.46218 0.57206 0.57274
 C81 C 0.49265 0.48380 0.46291
 C82 C 0.45868 0.46149 0.45286
 C83 C 0.45665 0.43041 0.40663
 C84 C 0.48924 0.42083 0.37122
 C85 C 0.52370 0.44141 0.38176
 C86 C 0.52507 0.47322 0.42675
 H87 H 0.49816 0.60637 0.63591
 H88 H 0.55473 0.51006 0.53185
 H89 H 0.43435 0.53479 0.50297
 H90 H 0.43369 0.46811 0.48093
 H91 H 0.48829 0.39556 0.33764
 H92 H 0.55157 0.48971 0.43272
 C93 C 0.00535 0.42093 0.10104
 C94 C -0.02818 0.44154 0.08155
 C95 C -0.02619 0.47254 0.03461
 C96 C 0.00843 0.48093 0.00329
 C97 C 0.04143 0.45799 0.02167
 C98 C 0.04022 0.42871 0.07133
 C99 C 0.00990 0.51308 -0.04860
 C100 C 0.04416 0.53398 -0.06243
 C101 C 0.04558 0.56407 -0.11100
 C102 C 0.01219 0.57407 -0.14500
 C103 C -0.02244 0.55497 -0.13077
 C104 C -0.02322 0.52394 -0.08387
 H105 H 0.00399 0.39700 0.13737
 H106 H -0.05189 0.49010 0.02328
 H107 H 0.06823 0.46274 -0.00224
 H108 H 0.06978 0.52736 -0.03526
 H109 H 0.01270 0.59886 -0.18001
 H110 H -0.05001 0.50854 -0.07545
 C111 C 0.50430 0.92082 0.60162
 C112 C 0.47085 0.94170 0.58211
 C113 C 0.47340 0.97508 0.53934
 C114 C 0.50848 0.98566 0.51127
 C115 C 0.54148 0.96265 0.52926
 C116 C 0.53971 0.93091 0.57530
 C117 C 0.51023 1.01989 0.46263
 C118 C 0.54425 1.04205 0.45206
 C119 C 0.54576 1.07380 0.40593
 C120 C 0.51263 1.08423 0.37135
 C121 C 0.47829 1.06382 0.38267
 C122 C 0.47749 1.03118 0.42679
 H123 H 0.50254 0.89516 0.63501
 H124 H 0.44765 0.99269 0.52860
 H125 H 0.56870 0.96918 0.50779
 H126 H 0.56962 1.03491 0.47960
 H127 H 0.51303 1.10998 0.33796
 H128 H 0.45094 1.01480 0.43238
 C129 C 1.12993 0.10977 0.16753
 C130 C 1.09787 0.10851 0.20695
 N131 N 1.09872 0.12828 0.26344
 C132 C 1.12990 0.15009 0.28171
 C133 C 1.16139 0.15308 0.24095
 N134 N 1.16068 0.13235 0.18501
 N135 N 1.12899 0.09035 0.11082
 C136 C 1.09713 0.07039 0.09103
 C137 C 1.06425 0.07054 0.12914
 N138 N 1.06571 0.08946 0.18660
 H139 H 1.12939 0.16635 0.32634
 H140 H 1.09691 0.05653 0.04455
 C141 C 0.63287 0.61434 0.65135
 C142 C 0.60103 0.61113 0.69095
 N143 N 0.60174 0.62911 0.74883
 C144 C 0.63259 0.65096 0.76845
 C145 C 0.66388 0.65588 0.72773
 N146 N 0.66330 0.63696 0.67027
 N147 N 0.63201 0.59668 0.59326
 C148 C 0.60040 0.57668 0.57232
 C149 C 0.56771 0.57498 0.61072
 N150 N 0.56915 0.59206 0.66952
 H151 H 0.63199 0.66571 0.81429
 H152 H 0.60018 0.56429 0.52488
 C153 C -0.13057 0.38886 0.14776
 C154 C -0.09945 0.39408 0.18887
 N155 N -0.10096 0.37837 0.24862
 C156 C -0.13183 0.35671 0.26866
 C157 C -0.16224 0.34934 0.22632
 N158 N -0.16089 0.36632 0.16708
 N159 N -0.12907 0.40436 0.08796
 C160 C -0.09744 0.42407 0.06679
 C161 C -0.06534 0.42761 0.10679
 N162 N -0.06744 0.41275 0.16729
 H163 H -0.13176 0.34392 0.31620
 H164 H -0.09667 0.43467 0.01811
 C165 C 0.36604 0.88794 0.63574
 C166 C 0.39592 0.89184 0.67983
 N167 N 0.39214 0.87540 0.73874
 C168 C 0.36019 0.85437 0.75516
 C169 C 0.33094 0.84862 0.71013
 N170 N 0.33455 0.86601 0.65153
 N171 N 0.36986 0.90428 0.57679
 C172 C 0.40246 0.92374 0.55948
 C173 C 0.43316 0.92625 0.60267
 N174 N 0.42890 0.91033 0.66212
 H175 H 0.35845 0.84073 0.80202
 H176 H 0.40502 0.93532 0.51150
 C177 C -0.12159 0.61481 -0.20363
 C178 C -0.12040 0.59950 -0.14127
 N179 N -0.14959 0.60841 -0.10147
 C180 C -0.17957 0.63276 -0.12073
 C181 C -0.18026 0.64938 -0.18252
 N182 N -0.15135 0.63943 -0.22275
 N183 N -0.09187 0.60691 -0.24285
 C184 C -0.06047 0.58539 -0.22200
 C185 C -0.05845 0.57150 -0.15871
 N186 N -0.08894 0.57838 -0.12028
 H187 H -0.20205 0.64001 -0.08751
 H188 H -0.03689 0.58022 -0.25397
 C189 C 0.37785 1.12002 0.30788
 C190 C 0.37992 1.10692 0.37129
 N191 N 0.35092 1.11640 0.41112
 C192 C 0.32020 1.13922 0.39085
 C193 C 0.31833 1.15341 0.32760
 N194 N 0.34712 1.14271 0.28746
 N195 N 0.40768 1.11209 0.26881
 C196 C 0.43984 1.09239 0.29065
 C197 C 0.44231 1.08003 0.35454
 N198 N 0.41193 1.08721 0.39303
 H199 H 0.29793 1.14689 0.42428
 H200 H 0.46351 1.08714 0.25887
 C201 C 1.13118 -0.12418 -0.14444
 C202 C 1.10209 -0.11622 -0.18912
 N203 N 1.10721 -0.12795 -0.25005
 C204 C 1.13975 -0.14808 -0.26811
 C205 C 1.16823 -0.15805 -0.22271
 N206 N 1.16318 -0.14528 -0.16198
 N207 N 1.12642 -0.11201 -0.08370
 C208 C 1.09365 -0.09265 -0.06532
 C209 C 1.06382 -0.08590 -0.10933
 N210 N 1.06886 -0.09785 -0.17047
 H211 H 1.14253 -0.15762 -0.31689
 H212 H 1.09037 -0.08399 -0.01624
 C213 C 0.62217 0.38648 0.30131
 C214 C 0.62303 0.40238 0.36298
 N215 N 0.65435 0.39567 0.39996
 C216 C 0.68454 0.37288 0.37868
 C217 C 0.68326 0.35557 0.31775
 N218 N 0.65218 0.36340 0.28018
 N219 N 0.59036 0.39215 0.26505
 C220 C 0.55894 0.41195 0.28827
 C221 C 0.55909 0.42637 0.35102
 N222 N 0.59156 0.42179 0.38637
 H223 H 0.70877 0.36727 0.40980
 H224 H 0.53376 0.41542 0.25862
 C225 C 0.85945 -0.14605 -0.12273
 C226 C 0.88672 -0.13641 -0.16870
 N227 N 0.88223 -0.15051 -0.22855
 C228 C 0.85190 -0.17435 -0.24452
 C229 C 0.82487 -0.18519 -0.19819
 N230 N 0.82936 -0.17033 -0.13832
 N231 N 0.86406 -0.13190 -0.06284
 C232 C 0.89486 -0.10873 -0.04670
 C233 C 0.92270 -0.09959 -0.09242
 N234 N 0.91770 -0.11378 -0.15247
 H235 H 0.84951 -0.18540 -0.29261
 H236 H 0.89809 -0.09873 0.00177
 C237 C 0.35816 0.35836 0.37177
 C238 C 0.38313 0.36899 0.32280
 N239 N 0.37684 0.35449 0.26362
 C240 C 0.34689 0.32931 0.25121
 C241 C 0.32218 0.31773 0.30039
 N242 N 0.32837 0.33286 0.35962
 N243 N 0.36484 0.37263 0.43107
 C244 C 0.39557 0.39682 0.44374
 C245 C 0.42112 0.40694 0.39489
 N246 N 0.41393 0.39270 0.33551
 H247 H 0.34291 0.31785 0.20364
 H248 H 0.40058 0.40673 0.49183
 C249 C 0.14235 0.63689 -0.15309
 C250 C 0.11694 0.62479 -0.20086
 N251 N 0.12186 0.63881 -0.26094
 C252 C 0.15079 0.66499 -0.27535
 C253 C 0.17572 0.67820 -0.22728
 N254 N 0.17096 0.66345 -0.16723
 N255 N 0.13705 0.62321 -0.09288
 C256 C 0.10717 0.59835 -0.07805
 C257 C 0.08098 0.58702 -0.12557
 N258 N 0.08688 0.60052 -0.18598
 H259 H 0.15364 0.67613 -0.32352
 H260 H 0.10315 0.58909 -0.02928
 C261 C 0.64350 1.14668 0.36938
 C262 C 0.61784 1.13640 0.32091
 N263 N 0.62311 1.15155 0.26163
 C264 C 0.65273 1.17702 0.24859
 C265 C 0.67816 1.18827 0.29721
 N266 N 0.67298 1.17252 0.35661
 N267 N 0.63781 1.13161 0.42876
 C268 C 0.60743 1.10701 0.44197
 C269 C 0.58117 1.09733 0.39361
 N270 N 0.58739 1.11234 0.33418
 H271 H 0.65591 1.18891 0.20089
 H272 H 0.60321 1.09645 0.49009
 C273 C 0.13512 0.35571 0.13336
 C274 C 0.10810 0.37098 0.17631
 N275 N 0.11118 0.36066 0.23849
 C276 C 0.13987 0.33524 0.25972
 C277 C 0.16651 0.31887 0.21667
 N278 N 0.16354 0.32980 0.15434
 N279 N 0.13179 0.36603 0.07110
 C280 C 0.10239 0.39061 0.04974
 C281 C 0.07468 0.40513 0.09253
 N282 N 0.07853 0.39492 0.15493
 H283 H 0.14128 0.32717 0.30950
 H284 H 0.10001 0.39742 -0.00034
 C285 C 0.63618 0.85921 0.63448
 C286 C 0.60833 0.87204 0.67786
 N287 N 0.61150 0.86015 0.73939
 C288 C 0.64103 0.83547 0.75952
 C289 C 0.66849 0.82147 0.71594
 N290 N 0.66541 0.83398 0.65430
 N291 N 0.63287 0.87119 0.57290
 C292 C 0.60281 0.89518 0.55262
 C293 C 0.57434 0.90732 0.59575
 N294 N 0.57805 0.89537 0.65749
 H295 H 0.64241 0.82602 0.80875
 H296 H 0.60058 0.90349 0.50303
 C297 C 0.86424 0.14341 0.13899
 C298 C 0.89079 0.12915 0.18444
 N299 N 0.88758 0.14156 0.24530
 C300 C 0.85924 0.16815 0.26288
 C301 C 0.83309 0.18363 0.21735
 N302 N 0.83612 0.17059 0.15626
 N303 N 0.86779 0.13080 0.07803
 C304 C 0.89700 0.10501 0.06041
 C305 C 0.92432 0.09175 0.10567
 N306 N 0.92015 0.10413 0.16670
 H307 H 0.85778 0.17780 0.31176
 H308 H 0.89963 0.09633 0.01126
 C309 C 0.36543 0.64493 0.62278
 C310 C 0.39278 0.63287 0.66831
 N311 N 0.38898 0.64588 0.72891
 C312 C 0.35918 0.67083 0.74600
 C313 C 0.33212 0.68377 0.70020
 N314 N 0.33593 0.67023 0.63960
 N315 N 0.36934 0.63203 0.56215
 C316 C 0.39955 0.60775 0.54480
 C317 C 0.42746 0.59611 0.59008
 N318 N 0.42316 0.60909 0.65090
 H319 H 0.35714 0.68110 0.79451
 H320 H 0.40228 0.59881 0.49579
   
