data_POSCAR
  _audit_creation_date              2014-09-24
  _audit_creation_method            'ToBaCCo'
  _symmetry_space_group_name_H-M    'P1'
  _symmetry_Int_Tables_number       1
  _symmetry_cell_setting            triclinic
  loop_
  _symmetry_equiv_pos_as_xyz
 x,y,z
_cell_length_a 57.2219
_cell_length_b 57.1788
_cell_length_c 20.3814
_cell_angle_alpha 89.963500
_cell_angle_beta 90.031500
_cell_angle_gamma 119.979800
loop_
  _atom_site_label
  _atom_site_type_symbol
  _atom_site_fract_x
  _atom_site_fract_y
  _atom_site_fract_z
O1 O 0.26066 0.47555 0.56133
 O2 O 0.21453 0.47504 0.43458
 O3 O 0.26041 0.47558 0.43419
 O4 O 0.21480 0.47503 0.56216
 O5 O 0.23660 0.51955 0.56218
 O6 O 0.28225 0.52011 0.43414
 O7 O 0.23630 0.51952 0.43452
 O8 O 0.28251 0.52008 0.56135
 Cu9 Cu 0.23539 0.47086 0.49806
 Cu10 Cu 0.26157 0.52428 0.49804
 C11 C 0.27968 0.49790 0.58254
 C12 C 0.21734 0.49717 0.41298
 C13 C 0.27935 0.49794 0.41278
 C14 C 0.21778 0.49718 0.58386
 O15 O 0.52457 -0.26156 0.43634
 O16 O 0.52494 -0.21544 0.56293
 O17 O 0.52451 -0.26131 0.56348
 O18 O 0.52503 -0.21569 0.43536
 O19 O 0.48054 -0.23759 0.43513
 O20 O 0.48006 -0.28326 0.56331
 O21 O 0.48045 -0.23736 0.56279
 O22 O 0.48012 -0.28348 0.43611
 Cu23 Cu 0.52920 -0.23627 0.49956
 Cu24 Cu 0.47584 -0.26258 0.49932
 C25 C 0.50229 -0.28066 0.41495
 C26 C 0.50277 -0.21839 0.58431
 C27 C 0.50221 -0.28036 0.58488
 C28 C 0.50288 -0.21871 0.41354
 O29 O 1.21413 0.74066 0.56216
 O30 O 1.26008 0.78649 0.43543
 O31 O 1.21449 0.74091 0.43467
 O32 O 1.25970 0.78619 0.56295
 O33 O 1.28195 0.76391 0.56327
 O34 O 1.23670 0.71859 0.43494
 O35 O 1.28230 0.76422 0.43570
 O36 O 1.23635 0.71835 0.56248
 Cu37 Cu 1.23488 0.76580 0.49875
 Cu38 Cu 1.26155 0.73904 0.49910
 C39 C 1.21727 0.72156 0.58379
 C40 C 1.27922 0.78337 0.41403
 C41 C 1.21772 0.72187 0.41314
 C42 C 1.27865 0.78291 0.58486
 O43 O 0.73949 0.52520 0.56393
 O44 O 0.78525 0.52470 0.43762
 O45 O 0.74000 0.52535 0.43636
 O46 O 0.78485 0.52467 0.56478
 O47 O 0.76226 0.48014 0.56466
 O48 O 0.71733 0.48083 0.43621
 O49 O 0.76262 0.48017 0.43747
 O50 O 0.71688 0.48072 0.56387
 Cu51 Cu 0.76463 0.52943 0.50071
 Cu52 Cu 0.73746 0.47601 0.50057
 C53 C 0.72019 0.50305 0.58538
 C54 C 0.78195 0.50235 0.41640
 C55 C 0.72089 0.50321 0.41449
 C56 C 0.78146 0.50230 0.58615
 O57 O 0.47500 0.26001 0.43806
 O58 O 0.47545 0.21413 0.56433
 O59 O 0.47485 0.25947 0.56561
 O60 O 0.47548 0.21462 0.43718
 O61 O 0.51998 0.23718 0.43740
 O62 O 0.51935 0.28210 0.56587
 O63 O 0.51990 0.23670 0.56460
 O64 O 0.51949 0.28260 0.43823
 Cu65 Cu 0.47075 0.23483 0.50128
 Cu66 Cu 0.52414 0.26195 0.50156
 C67 C 0.49717 0.27926 0.41673
 C68 C 0.49774 0.21730 0.58566
 C69 C 0.49699 0.27857 0.58748
 C70 C 0.49781 0.21801 0.41579
 O71 O 0.73887 0.21567 0.43835
 O72 O 0.78488 0.26172 0.56465
 O73 O 0.73925 0.21606 0.56560
 O74 O 0.78452 0.26131 0.43742
 O75 O 0.76233 0.28364 0.43726
 O76 O 0.71699 0.23832 0.56551
 O77 O 0.76269 0.28401 0.56459
 O78 O 0.71662 0.23794 0.43819
 Cu79 Cu 0.76410 0.23646 0.50152
 Cu80 Cu 0.73743 0.26321 0.50138
 C81 C 0.71968 0.21873 0.41712
 C82 C 0.78191 0.28099 0.58587
 C83 C 0.72018 0.21924 0.58701
 C84 C 0.78138 0.28041 0.41588
 O85 O 0.96296 0.44087 0.12076
 O86 O 0.93303 0.44679 0.05769
 C87 C 0.93875 0.43486 0.10379
 O88 O 1.03845 0.56138 0.11497
 O89 O 1.06823 0.55408 0.05495
 C90 C 1.06264 0.56722 0.09803
 O91 O 0.96287 0.52161 0.12156
 O92 O 0.93298 0.48588 0.05822
 C93 C 0.93866 0.50343 0.10451
 O94 O 1.03841 0.47652 0.11427
 O95 O 1.06813 0.51384 0.05499
 C96 C 1.06257 0.49495 0.09764
 Zr97 Zr 1.00057 0.47038 0.08163
 O98 O 1.00355 0.47019 0.18508
 O99 O 0.99746 0.43193 0.07630
 Zr100 Zr 1.00051 0.52954 0.08299
 O101 O 1.00362 0.53127 0.18662
 O102 O 0.99751 0.56498 0.08169
 O103 O 0.97653 0.48792 0.09539
 O104 O 1.02388 0.51162 0.09439
 O105 O 1.03807 0.47670 -0.11627
 O106 O 1.06786 0.51373 -0.05651
 C107 C 1.06225 0.49502 -0.09953
 O108 O 0.96279 0.52178 -0.12121
 O109 O 0.93294 0.48609 -0.05762
 C110 C 0.93860 0.50366 -0.10388
 O111 O 1.03826 0.56172 -0.11483
 O112 O 1.06812 0.55434 -0.05536
 C113 C 1.06247 0.56755 -0.09820
 O114 O 0.96267 0.44101 -0.12156
 O115 O 0.93288 0.44694 -0.05811
 C116 C 0.93849 0.43502 -0.10439
 Zr117 Zr 1.00039 0.47082 -0.08348
 O118 O 1.00330 0.47222 -0.18713
 O119 O 0.99739 0.43237 -0.08202
 Zr120 Zr 1.00043 0.53009 -0.08190
 O121 O 1.00324 0.53360 -0.18533
 O122 O 0.99724 0.56535 -0.07582
 Zr123 Zr 0.96002 0.47996 -0.00007
 Zr124 Zr 1.04076 0.52032 -0.00045
 O125 O 1.02373 0.51213 -0.09504
 O126 O 0.97641 0.48847 -0.09564
 O127 O 1.02473 0.47817 -0.00110
 O128 O 0.97679 0.52216 0.00065
 O129 O 0.97682 0.45455 -0.00085
 O130 O 1.02472 0.54649 0.00051
 H131 H 1.03587 0.51755 0.13330
 H132 H 0.96443 0.52960 0.00086
 H133 H 1.03567 0.51820 -0.13401
 H134 H 0.96449 0.43475 -0.00090
 H135 H 1.01319 0.57892 0.05701
 H136 H 1.01419 0.57983 -0.05650
 H137 H 0.99158 0.51533 -0.20346
 H138 H 0.98827 0.47429 -0.20440
 H139 H 1.01308 0.43412 -0.05737
 H140 H 1.01420 0.43431 0.05590
 H141 H 0.99083 0.47548 0.20308
 H142 H 0.98891 0.51401 0.20404
 O143 O 0.44141 0.47878 0.12084
 O144 O 0.44720 0.51441 0.05706
 C145 C 0.43534 0.49690 0.10342
 O146 O 0.56215 0.52387 0.11300
 O147 O 0.55461 0.48650 0.05397
 C148 C 0.56792 0.50543 0.09643
 O149 O 0.52224 0.55953 0.11959
 O150 O 0.48634 0.55352 0.05665
 C151 C 0.50400 0.56551 0.10265
 O152 O 0.47715 0.43904 0.11574
 O153 O 0.51410 0.44616 0.05571
 C154 C 0.49545 0.43313 0.09901
 Zr155 Zr 0.47118 0.47083 0.08275
 O156 O 0.47276 0.46949 0.18641
 O157 O 0.43279 0.43539 0.08187
 Zr158 Zr 0.53033 0.52994 0.08078
 O159 O 0.53350 0.53013 0.18424
 O160 O 0.56564 0.56839 0.07552
 O161 O 0.48879 0.51246 0.09466
 O162 O 0.51247 0.48873 0.09402
 O163 O 0.47658 0.43817 -0.11418
 O164 O 0.51392 0.44575 -0.05500
 C165 C 0.49500 0.43240 -0.09744
 O166 O 0.52167 0.55901 -0.12272
 O167 O 0.48605 0.55324 -0.05912
 C168 C 0.50355 0.56509 -0.10547
 O169 O 0.56139 0.52326 -0.11701
 O170 O 0.55426 0.48631 -0.05672
 C171 C 0.56730 0.50496 -0.10008
 O172 O 0.44093 0.47811 -0.12128
 O173 O 0.44696 0.51409 -0.05860
 C174 C 0.43496 0.49638 -0.10451
 Zr175 Zr 0.47054 0.47007 -0.08235
 O176 O 0.47056 0.46700 -0.18582
 O177 O 0.43211 0.43473 -0.07742
 Zr178 Zr 0.52962 0.52925 -0.08430
 O179 O 0.53103 0.52767 -0.18793
 O180 O 0.56502 0.56768 -0.08338
 Zr181 Zr 0.48018 0.52027 -0.00091
 Zr182 Zr 0.52058 0.47984 -0.00062
 O183 O 0.51173 0.48792 -0.09538
 O184 O 0.48801 0.51164 -0.09638
 O185 O 0.47842 0.45375 0.00046
 O186 O 0.52236 0.54566 -0.00189
 O187 O 0.45481 0.47806 0.00017
 O188 O 0.54666 0.52203 -0.00184
 H189 H 0.51860 0.48288 0.13296
 H190 H 0.52984 0.56548 -0.00218
 H191 H 0.51759 0.48176 -0.13420
 H192 H 0.43502 0.47056 0.00035
 H193 H 0.57988 0.56605 0.05430
 H194 H 0.57898 0.56594 -0.05879
 H195 H 0.51374 0.52514 -0.20507
 H196 H 0.47498 0.48479 -0.20395
 H197 H 0.43439 0.42052 -0.05569
 H198 H 0.43453 0.42142 0.05731
 H199 H 0.47514 0.48674 0.20344
 H200 H 0.51562 0.52530 0.20231
 O201 O 0.47830 0.03705 0.12172
 O202 O 0.51402 0.06695 0.05836
 C203 C 0.49645 0.06126 0.10453
 O204 O 0.52344 -0.03862 0.11431
 O205 O 0.48615 -0.06841 0.05493
 C206 C 0.50504 -0.06282 0.09756
 O207 O 0.55912 0.03695 0.12115
 O208 O 0.55312 0.06690 0.05828
 C209 C 0.56509 0.06119 0.10431
 O210 O 0.43857 -0.03840 0.11601
 O211 O 0.44582 -0.06817 0.05606
 C212 C 0.43270 -0.06259 0.09916
 Zr213 Zr 0.47037 -0.00065 0.08343
 O214 O 0.46877 -0.00364 0.18705
 O215 O 0.43500 0.00242 0.08185
 Zr216 Zr 0.52947 -0.00068 0.08232
 O217 O 0.52909 -0.00381 0.18585
 O218 O 0.56791 0.00241 0.07827
 O219 O 0.51197 0.02338 0.09590
 O220 O 0.48827 -0.02406 0.09494
 O221 O 0.43813 -0.03827 -0.11418
 O222 O 0.44565 -0.06810 -0.05511
 C223 C 0.43236 -0.06247 -0.09763
 O224 O 0.55885 0.03714 -0.12105
 O225 O 0.55301 0.06699 -0.05747
 C226 C 0.56491 0.06135 -0.10371
 O227 O 0.52297 -0.03850 -0.11525
 O228 O 0.48592 -0.06838 -0.05534
 C229 C 0.50463 -0.06273 -0.09852
 O230 O 0.47796 0.03716 -0.12013
 O231 O 0.51388 0.06700 -0.05726
 C232 C 0.49621 0.06136 -0.10322
 Zr233 Zr 0.47001 -0.00055 -0.08177
 O234 O 0.46760 -0.00345 -0.18534
 O235 O 0.43468 0.00257 -0.07804
 Zr236 Zr 0.52912 -0.00058 -0.08279
 O237 O 0.52793 -0.00350 -0.18643
 O238 O 0.56752 0.00239 -0.08116
 Zr239 Zr 0.51998 0.03987 0.00041
 Zr240 Zr 0.47964 -0.04094 0.00018
 O241 O 0.48786 -0.02394 -0.09449
 O242 O 0.51157 0.02350 -0.09517
 O243 O 0.45353 -0.02485 0.00085
 O244 O 0.54534 0.02303 -0.00021
 O245 O 0.47780 0.02305 0.00094
 O246 O 0.52177 -0.02487 -0.00039
 H247 H 0.48236 -0.03609 0.13380
 H248 H 0.56514 0.03534 -0.00031
 H249 H 0.48177 -0.03594 -0.13336
 H250 H 0.47028 0.03535 0.00108
 H251 H 0.56575 -0.01388 0.05573
 H252 H 0.56565 -0.01350 -0.05715
 H253 H 0.52490 0.01094 -0.20367
 H254 H 0.48512 0.01066 -0.20303
 H255 H 0.42063 -0.01357 -0.05493
 H256 H 0.42097 -0.01343 0.05782
 H257 H 0.48615 0.01094 0.20424
 H258 H 0.52522 0.00996 0.20377
 C259 C 1.15901 0.47199 0.29798
 C260 C 1.16138 0.49626 0.27597
 C261 C 1.18280 0.52084 0.29789
 C262 C 1.20160 0.52121 0.34240
 C263 C 1.19919 0.49689 0.36595
 C264 C 1.17775 0.47226 0.34248
 C265 C 1.14109 0.49590 0.23347
 C266 C 1.12369 0.49558 0.19944
 C267 C 1.10285 0.49525 0.16158
 C268 C 1.08466 0.49504 0.13119
 H269 H 1.14244 0.45283 0.28153
 H270 H 1.18476 0.53975 0.28129
 H271 H 1.21777 0.54059 0.35894
 H272 H 1.17513 0.45309 0.35907
 C273 C 0.47763 0.66016 0.30273
 C274 C 0.50200 0.66261 0.28154
 C275 C 0.52645 0.68438 0.30291
 C276 C 0.52659 0.70344 0.34607
 C277 C 0.50218 0.70099 0.36882
 C278 C 0.47767 0.67919 0.34590
 C279 C 0.50200 0.64223 0.24007
 C280 C 0.50223 0.62496 0.20661
 C281 C 0.50271 0.60450 0.16890
 C282 C 0.50325 0.58682 0.13796
 H283 H 0.45857 0.64333 0.28665
 H284 H 0.54544 0.68642 0.28695
 H285 H 0.54588 0.71985 0.36231
 H286 H 0.45844 0.67651 0.36204
 C287 C 0.33759 -0.18269 0.29944
 C288 C 0.33483 -0.16102 0.27742
 C289 C 0.31313 -0.15830 0.29916
 C290 C 0.29446 -0.17693 0.34350
 C291 C 0.29726 -0.19861 0.36708
 C292 C 0.31897 -0.20137 0.34378
 C293 C 0.35493 -0.14088 0.23500
 C294 C 0.37212 -0.12357 0.20101
 C295 C 0.39269 -0.10281 0.16316
 C296 C 0.41070 -0.08467 0.13274
 H297 H 0.35438 -0.18494 0.28306
 H298 H 0.31085 -0.14154 0.28257
 H299 H 0.27807 -0.17404 0.35992
 H300 H 0.32187 -0.21774 0.36043
 C301 C 0.84201 0.52644 0.30238
 C302 C 0.83947 0.50195 0.28167
 C303 C 0.81759 0.47756 0.30314
 C304 C 0.79853 0.47764 0.34595
 C305 C 0.80116 0.50218 0.36796
 C306 C 0.82300 0.52659 0.34519
 C307 C 0.85993 0.50190 0.24068
 C308 C 0.87746 0.50202 0.20763
 C309 C 0.89840 0.50233 0.17035
 C310 C 0.91662 0.50275 0.13968
 H311 H 0.85891 0.54544 0.28622
 H312 H 0.81547 0.45848 0.28759
 H313 H 0.78201 0.45851 0.36263
 H314 H 0.82566 0.54582 0.36123
 C315 C 0.47226 0.31369 0.29971
 C316 C 0.49657 0.33560 0.27801
 C317 C 0.52110 0.33865 0.30018
 C318 C 0.52133 0.32007 0.34448
 C319 C 0.49698 0.29820 0.36735
 C320 C 0.47243 0.29509 0.34401
 C321 C 0.49630 0.35558 0.23546
 C322 C 0.49604 0.37269 0.20136
 C323 C 0.49575 0.39321 0.16339
 C324 C 0.49556 0.41118 0.13285
 H325 H 0.45316 0.31121 0.28309
 H326 H 0.54005 0.35560 0.28396
 H327 H 0.54056 0.32306 0.36153
 H328 H 0.45334 0.27851 0.36066
 C329 C 0.68410 0.15846 0.30343
 C330 C 0.66203 0.16075 0.28256
 C331 C 0.65929 0.18252 0.30389
 C332 C 0.67834 0.20173 0.34663
 C333 C 0.70038 0.19936 0.36873
 C334 C 0.70316 0.17762 0.34616
 C335 C 0.64167 0.14016 0.24146
 C336 C 0.62443 0.12254 0.20823
 C337 C 0.60401 0.10150 0.17066
 C338 C 0.58636 0.08324 0.13973
 H339 H 0.68635 0.14162 0.28743
 H340 H 0.64222 0.18444 0.28826
 H341 H 0.67556 0.21817 0.36318
 H342 H 0.71984 0.17515 0.36230
 C343 C 0.52238 0.18256 -0.30267
 C344 C 0.49801 0.16058 -0.28163
 C345 C 0.47357 0.15794 -0.30293
 C346 C 0.47343 0.17695 -0.34584
 C347 C 0.49785 0.19897 -0.36843
 C348 C 0.52236 0.20165 -0.34559
 C349 C 0.49803 0.14014 -0.24031
 C350 C 0.49785 0.12263 -0.20695
 C351 C 0.49743 0.10168 -0.16932
 C352 C 0.49693 0.08344 -0.13844
 H353 H 0.54143 0.18475 -0.28663
 H354 H 0.45457 0.14095 -0.28709
 H355 H 0.45414 0.17410 -0.36202
 H356 H 0.54158 0.21823 -0.36159
 C357 C 0.68670 0.52804 -0.30014
 C358 C 0.66484 0.50374 -0.27831
 C359 C 0.66181 0.47919 -0.30020
 C360 C 0.68034 0.47890 -0.34446
 C361 C 0.70223 0.50327 -0.36780
 C362 C 0.70527 0.52786 -0.34439
 C363 C 0.64484 0.50402 -0.23595
 C364 C 0.62771 0.50428 -0.20200
 C365 C 0.60720 0.50459 -0.16418
 C366 C 0.58924 0.50482 -0.13376
 H367 H 0.68917 0.54716 -0.28369
 H368 H 0.64489 0.46025 -0.28381
 H369 H 0.67722 0.45955 -0.36102
 H370 H 0.72178 0.54705 -0.36089
 C371 C 0.81697 0.34031 -0.30256
 C372 C 0.83880 0.33767 -0.28143
 C373 C 0.84118 0.31568 -0.30245
 C374 C 0.82210 0.29662 -0.34532
 C375 C 0.80026 0.29930 -0.36812
 C376 C 0.79781 0.32129 -0.34543
 C377 C 0.85938 0.35810 -0.24048
 C378 C 0.87702 0.37543 -0.20745
 C379 C 0.89809 0.39596 -0.17017
 C380 C 0.91639 0.41368 -0.13952
 H381 H 0.81496 0.35730 -0.28667
 H382 H 0.85805 0.31348 -0.28648
 H383 H 0.82478 0.28005 -0.36134
 H384 H 0.78137 0.32414 -0.36158
 C385 C 0.52771 -0.15906 -0.29880
 C386 C 0.50341 -0.16144 -0.27713
 C387 C 0.47887 -0.18290 -0.29931
 C388 C 0.47862 -0.20172 -0.34354
 C389 C 0.50296 -0.19929 -0.36630
 C390 C 0.52752 -0.17784 -0.34302
 C391 C 0.50369 -0.14120 -0.23463
 C392 C 0.50397 -0.12381 -0.20059
 C393 C 0.50430 -0.10298 -0.16274
 C394 C 0.50452 -0.08480 -0.13228
 H395 H 0.54683 -0.14244 -0.28226
 H396 H 0.45993 -0.18486 -0.28316
 H397 H 0.45938 -0.21792 -0.36066
 H398 H 0.54660 -0.17533 -0.35973
 C399 C 0.34012 0.52270 -0.30420
 C400 C 0.33762 0.49830 -0.28262
 C401 C 0.31569 0.47381 -0.30332
 C402 C 0.29652 0.47367 -0.34615
 C403 C 0.29907 0.49807 -0.36896
 C404 C 0.32097 0.52261 -0.34704
 C405 C 0.35809 0.49832 -0.24144
 C406 C 0.37542 0.49810 -0.20820
 C407 C 0.39594 0.49764 -0.17070
 C408 C 0.41365 0.49710 -0.13986
 H409 H 0.35708 0.54178 -0.28869
 H410 H 0.31360 0.45481 -0.28711
 H411 H 0.27996 0.45444 -0.36218
 H412 H 0.32356 0.54174 -0.36382
 C413 C 1.18227 0.66233 -0.29913
 C414 C 1.16075 0.66529 -0.27694
 C415 C 1.15817 0.68710 -0.29880
 C416 C 1.17680 0.70568 -0.34329
 C417 C 1.19829 0.70265 -0.36665
 C418 C 1.20094 0.68088 -0.34362
 C419 C 1.14061 0.64527 -0.23435
 C420 C 1.12332 0.62813 -0.20024
 C421 C 1.10259 0.60758 -0.16229
 C422 C 1.08449 0.58957 -0.13182
 H423 H 1.18442 0.64546 -0.28279
 H424 H 1.14153 0.68954 -0.28216
 H425 H 1.17418 0.72220 -0.36004
 H426 H 1.21722 0.67796 -0.36066
 C427 C 0.84128 0.52637 -0.29923
 C428 C 0.83884 0.50188 -0.27887
 C429 C 0.81700 0.47748 -0.30040
 C430 C 0.79791 0.47757 -0.34311
 C431 C 0.80050 0.50211 -0.36495
 C432 C 0.82224 0.52652 -0.34194
 C433 C 0.85943 0.50186 -0.23840
 C434 C 0.87710 0.50206 -0.20583
 C435 C 0.89821 0.50248 -0.16911
 C436 C 0.91652 0.50297 -0.13881
 H437 H 0.85817 0.54537 -0.28300
 H438 H 0.81499 0.45841 -0.28510
 H439 H 0.78145 0.45843 -0.35999
 H440 H 0.82484 0.54575 -0.35786
 C441 C 0.47181 0.31234 -0.29464
 C442 C 0.49607 0.33426 -0.27280
 C443 C 0.52066 0.33744 -0.29479
 C444 C 0.52100 0.31902 -0.33929
 C445 C 0.49670 0.29718 -0.36249
 C446 C 0.47209 0.29389 -0.33913
 C447 C 0.49571 0.35426 -0.23071
 C448 C 0.49540 0.37145 -0.19718
 C449 C 0.49510 0.39211 -0.16008
 C450 C 0.49495 0.41023 -0.13033
 H451 H 0.45267 0.30978 -0.27815
 H452 H 0.53956 0.35442 -0.27842
 H453 H 0.54027 0.32214 -0.35634
 H454 H 0.45303 0.27733 -0.35604
 C455 C 0.66004 0.18333 -0.29926
 C456 C 0.66276 0.16154 -0.27793
 C457 C 0.68487 0.15927 -0.29846
 C458 C 0.70394 0.17842 -0.34118
 C459 C 0.70109 0.20010 -0.36404
 C460 C 0.67909 0.20252 -0.34199
 C461 C 0.64225 0.14081 -0.23755
 C462 C 0.62482 0.12304 -0.20510
 C463 C 0.60417 0.10183 -0.16856
 C464 C 0.58634 0.08346 -0.13843
 H465 H 0.64295 0.18522 -0.28380
 H466 H 0.68712 0.14244 -0.28236
 H467 H 0.72061 0.17595 -0.35724
 H468 H 0.67629 0.21893 -0.35872
 C469 C 1.15881 0.47198 -0.29834
 C470 C 1.16114 0.49625 -0.27652
 C471 C 1.18254 0.52086 -0.29854
 C472 C 1.20130 0.52121 -0.34304
 C473 C 1.19885 0.49690 -0.36621
 C474 C 1.17754 0.47227 -0.34282
 C475 C 1.14083 0.49590 -0.23427
 C476 C 1.12339 0.49557 -0.20052
 C477 C 1.10249 0.49522 -0.16305
 C478 C 1.08430 0.49504 -0.13293
 H479 H 1.14226 0.45280 -0.28185
 H480 H 1.18446 0.53977 -0.28214
 H481 H 1.21747 0.54049 -0.36005
 H482 H 1.17507 0.45320 -0.35966
 C483 C 0.52628 0.68483 -0.30230
 C484 C 0.50181 0.66300 -0.28130
 C485 C 0.47745 0.66056 -0.30262
 C486 C 0.47752 0.67960 -0.34581
 C487 C 0.50206 0.70140 -0.36860
 C488 C 0.52646 0.70391 -0.34548
 C489 C 0.50176 0.64244 -0.24046
 C490 C 0.50194 0.62499 -0.20766
 C491 C 0.50236 0.60433 -0.17076
 C492 C 0.50286 0.58650 -0.14040
 H493 H 0.54526 0.68686 -0.28619
 H494 H 0.45839 0.64367 -0.28678
 H495 H 0.45832 0.67689 -0.36222
 H496 H 0.54576 0.72034 -0.36160
 C497 C 0.31263 -0.15837 -0.29665
 C498 C 0.33439 -0.16098 -0.27473
 C499 C 0.33741 -0.18247 -0.29693
 C500 C 0.31899 -0.20107 -0.34170
 C501 C 0.29731 -0.19833 -0.36498
 C502 C 0.29418 -0.17693 -0.34142
 C503 C 0.35439 -0.14083 -0.23224
 C504 C 0.37157 -0.12351 -0.19834
 C505 C 0.39220 -0.10272 -0.16083
 C506 C 0.41028 -0.08454 -0.13081
 H507 H 0.31017 -0.14174 -0.27998
 H508 H 0.35426 -0.18461 -0.28048
 H509 H 0.32197 -0.21731 -0.35887
 H510 H 0.27773 -0.17425 -0.35834
 C511 C 0.47923 -0.18341 0.29584
 C512 C 0.50383 -0.16202 0.27380
 C513 C 0.52808 -0.15968 0.29572
 C514 C 0.52778 -0.17842 0.34027
 C515 C 0.50316 -0.19975 0.36361
 C516 C 0.47887 -0.20219 0.34041
 C517 C 0.50422 -0.14165 0.23159
 C518 C 0.50457 -0.12414 0.19792
 C519 C 0.50492 -0.10318 0.16059
 C520 C 0.50508 -0.08492 0.13065
 H521 H 0.46035 -0.18530 0.27945
 H522 H 0.54723 -0.14310 0.27925
 H523 H 0.54683 -0.17594 0.35720
 H524 H 0.45959 -0.21834 0.35746
 C525 C 0.31520 0.47395 0.29824
 C526 C 0.33714 0.49847 0.27774
 C527 C 0.33960 0.52284 0.29921
 C528 C 0.32044 0.52271 0.34197
 C529 C 0.29858 0.49815 0.36393
 C530 C 0.29602 0.47376 0.34100
 C531 C 0.35777 0.49854 0.23728
 C532 C 0.37529 0.49840 0.20478
 C533 C 0.39602 0.49803 0.16823
 C534 C 0.41390 0.49757 0.13811
 H535 H 0.31316 0.45497 0.28206
 H536 H 0.35657 0.54194 0.28382
 H537 H 0.32302 0.54182 0.35879
 H538 H 0.27946 0.45452 0.35701
 C539 C 1.18292 0.66266 0.29622
 C540 C 1.16139 0.66559 0.27394
 C541 C 1.15880 0.68742 0.29539
 C542 C 1.17744 0.70606 0.33972
 C543 C 1.19890 0.70305 0.36331
 C544 C 1.20160 0.68128 0.34055
 C545 C 1.14116 0.64544 0.23187
 C546 C 1.12378 0.62815 0.19831
 C547 C 1.10293 0.60744 0.16110
 C548 C 1.08472 0.58931 0.13121
 H549 H 1.18505 0.64575 0.28019
 H550 H 1.14213 0.68981 0.27870
 H551 H 1.17478 0.72258 0.35628
 H552 H 1.21787 0.67838 0.35780
 C553 C 0.52254 0.18267 0.30158
 C554 C 0.49815 0.16088 0.27988
 C555 C 0.47369 0.15841 0.30038
 C556 C 0.47357 0.17736 0.34344
 C557 C 0.49797 0.19904 0.36665
 C558 C 0.52248 0.20167 0.34464
 C559 C 0.49814 0.14034 0.23918
 C560 C 0.49795 0.12270 0.20647
 C561 C 0.49755 0.10164 0.16967
 C562 C 0.49709 0.08333 0.13937
 H563 H 0.54160 0.18472 0.28613
 H564 H 0.45470 0.14157 0.28400
 H565 H 0.45436 0.17474 0.35943
 H566 H 0.54161 0.21810 0.36164
 C567 C 0.66223 0.47958 0.29612
 C568 C 0.66552 0.50420 0.27381
 C569 C 0.68740 0.52847 0.29577
 C570 C 0.70572 0.52816 0.34065
 C571 C 0.70235 0.50352 0.36426
 C572 C 0.68053 0.47922 0.34100
 C573 C 0.64566 0.50459 0.23122
 C574 C 0.62859 0.50493 0.19725
 C575 C 0.60805 0.50526 0.15967
 C576 C 0.59001 0.50544 0.12960
 H577 H 0.64529 0.46068 0.27966
 H578 H 0.69005 0.54763 0.27903
 H579 H 0.72227 0.54722 0.35760
 H580 H 0.67734 0.45992 0.35824
 C581 C 0.84124 0.31554 0.30121
 C582 C 0.83900 0.33766 0.28042
 C583 C 0.81730 0.34049 0.30178
 C584 C 0.79814 0.32151 0.34468
 C585 C 0.80052 0.29947 0.36689
 C586 C 0.82213 0.29654 0.34409
 C587 C 0.85963 0.35805 0.23961
 C588 C 0.87732 0.37535 0.20672
 C589 C 0.89842 0.39585 0.16963
 C590 C 0.91672 0.41356 0.13901
 H591 H 0.85801 0.31322 0.28513
 H592 H 0.81544 0.35760 0.28615
 H593 H 0.78178 0.32438 0.36136
 H594 H 0.82457 0.27985 0.36028
   
