data_POSCAR
  _audit_creation_date              2014-09-24
  _audit_creation_method            'ToBaCCo'
  _symmetry_space_group_name_H-M    'P1'
  _symmetry_Int_Tables_number       1
  _symmetry_cell_setting            triclinic
  loop_
  _symmetry_equiv_pos_as_xyz
 x,y,z
_cell_length_a 17.7959
_cell_length_b 16.6130
_cell_length_c 44.8073
_cell_angle_alpha 83.903900
_cell_angle_beta 92.333500
_cell_angle_gamma 118.294600
loop_
  _atom_site_label
  _atom_site_type_symbol
  _atom_site_fract_x
  _atom_site_fract_y
  _atom_site_fract_z
C1 C -0.00876 0.18965 0.51519
 H2 H 0.03970 0.22735 0.49809
 C3 C -0.01483 0.23592 0.53841
 H4 H 0.02767 0.30889 0.53860
 C5 C -0.11637 0.04780 0.53791
 H6 H -0.15237 -0.02617 0.53833
 C7 C -0.12404 0.09154 0.56175
 H8 H -0.16722 0.05134 0.58027
 N9 N -0.05744 0.09684 0.51575
 C10 C -0.04757 -0.13983 0.51762
 H11 H -0.09098 -0.16672 0.49938
 C12 C -0.04707 -0.20074 0.54145
 H13 H -0.08865 -0.27383 0.54103
 C14 C 0.05308 -0.01245 0.54209
 H15 H 0.08883 0.06119 0.54273
 C16 C 0.05507 -0.07124 0.56655
 H17 H 0.09362 -0.04285 0.58586
 Zn18 Zn -0.02376 0.03254 0.49154
 N19 N 0.00066 -0.04745 0.51859
 C20 C 0.15018 0.12708 0.46913
 N21 N 0.07011 0.11820 0.46726
 C22 C 0.04966 0.16851 0.44573
 C23 C 0.11058 0.23083 0.42488
 C24 C 0.21343 0.18881 0.44843
 C25 C -0.18984 -0.05400 0.46328
 C26 C -0.24495 -0.10818 0.44176
 C27 C -0.12892 -0.12766 0.42358
 C28 C -0.07661 -0.07354 0.44517
 N29 N -0.10751 -0.03843 0.46456
 H30 H 0.16440 0.08521 0.48617
 H31 H -0.01485 0.15901 0.44460
 H32 H 0.09297 0.26929 0.40755
 H33 H 0.27667 0.19451 0.44945
 H34 H -0.21257 -0.02458 0.47882
 H35 H -0.31037 -0.12020 0.44066
 H36 H -0.10278 -0.15477 0.40831
 H37 H -0.01075 -0.05952 0.44667
 C38 C 0.00282 -0.16612 0.56647
 C39 C -0.07079 0.18605 0.56239
 C40 C -0.21386 -0.14541 0.42177
 C41 C 0.19295 0.24069 0.42603
 C42 C 1.19939 0.08951 0.12807
 H43 H 1.21128 0.15820 0.13121
 C44 C 1.25088 0.07729 0.10842
 H45 H 1.30266 0.13667 0.09649
 C46 C 1.11408 -0.07173 0.13841
 H47 H 1.05957 -0.12921 0.14973
 C48 C 1.16402 -0.08706 0.11866
 H49 H 1.14792 -0.15659 0.11471
 N50 N 1.13183 0.01568 0.14226
 C51 C 0.91494 0.06333 0.14806
 H52 H 0.90365 0.05574 0.17199
 C53 C 0.84988 0.05603 0.12806
 H54 H 0.78906 0.04434 0.13656
 C55 C 1.00418 0.07814 0.10770
 H56 H 1.06250 0.08270 0.09969
 C57 C 0.94154 0.07220 0.08705
 H58 H 0.95280 0.07343 0.06337
 Zn59 Zn 1.06085 0.04353 0.16477
 N60 N 0.98918 0.07091 0.13766
 C61 C 1.10746 0.20239 0.19580
 N62 N 1.13240 0.14256 0.18707
 C63 C 1.20577 0.14333 0.19737
 C64 C 1.25676 0.20489 0.21755
 C65 C 1.15668 0.26507 0.21624
 C66 C 0.91358 -0.12368 0.18248
 C67 C 0.84904 -0.18293 0.20310
 C68 C 0.94194 -0.10682 0.24331
 C69 C 1.00417 -0.04876 0.22206
 N70 N 0.98825 -0.05627 0.19224
 H71 H 1.04785 0.19889 0.18790
 H72 H 1.22273 0.09299 0.19100
 H73 H 1.31340 0.20257 0.22636
 H74 H 1.13507 0.31022 0.22405
 H75 H 0.90179 -0.12718 0.15866
 H76 H 0.78802 -0.23304 0.19517
 H77 H 0.95393 -0.09732 0.26692
 H78 H 1.06323 0.00557 0.22946
 C79 C 0.86268 0.05780 0.09733
 C80 C 1.23232 -0.01159 0.10327
 C81 C 0.86276 -0.17249 0.23375
 C82 C 1.23139 0.26521 0.22748
 C83 C 0.05005 0.86991 0.88857
 H84 H -0.01448 0.81379 0.89024
 C85 C 0.11093 0.86997 0.90906
 H86 H 0.09325 0.81393 0.92666
 C87 C 0.15060 1.01338 0.86426
 H88 H 0.16485 1.06955 0.84703
 C89 C 0.21377 1.01639 0.88456
 H90 H 0.27692 1.07519 0.88305
 N91 N 0.07053 0.94080 0.86680
 C92 C -0.19034 0.85324 0.87159
 H93 H -0.21383 0.80160 0.85590
 C94 C -0.24589 0.85376 0.89288
 H95 H -0.31238 0.80195 0.89371
 C96 C -0.07513 0.98413 0.89005
 H97 H -0.00848 1.03509 0.88866
 C98 C -0.12782 0.98721 0.91142
 H99 H -0.10132 1.04030 0.92669
 Zn100 Zn -0.02297 0.93164 0.84314
 N101 N -0.10683 0.91856 0.87054
 C102 C -0.11549 0.82284 0.79730
 N103 N -0.05719 0.83297 0.81918
 C104 C -0.00934 0.78870 0.81956
 C105 C -0.01554 0.73607 0.79643
 C106 C -0.12330 0.77109 0.77356
 C107 C -0.04409 1.08169 0.81745
 C108 C -0.04306 1.14350 0.79366
 C109 C 0.05690 1.11538 0.76744
 C110 C 0.05443 1.05422 0.79188
 N111 N 0.00269 1.03686 0.81591
 H112 H -0.15082 0.86093 0.79699
 H113 H 0.03862 0.79962 0.83644
 H114 H 0.02637 0.70557 0.79607
 H115 H -0.16592 0.76799 0.75523
 H116 H -0.08687 1.06537 0.83615
 H117 H -0.08362 1.17544 0.79455
 H118 H 0.09474 1.12537 0.74772
 H119 H 0.08910 1.01586 0.79082
 C120 C -0.21398 0.92194 0.91287
 C121 C 0.19326 0.94406 0.90725
 C122 C 0.00585 1.15843 0.76810
 C123 C -0.07083 0.72975 0.77272
 C124 C 0.35508 -0.03503 0.03242
 C125 C 0.31118 -0.04263 0.00547
 C126 C 0.34516 -0.04810 -0.02131
 C127 C 0.42379 -0.04968 -0.02121
 C128 C 0.47030 -0.03910 0.00588
 C129 C 0.43653 -0.03009 0.03275
 C130 C 0.48534 -0.01564 0.05903
 C131 C 0.56643 -0.00889 0.05884
 C132 C 0.60031 -0.01938 0.03262
 C133 C 0.55105 -0.03661 0.00605
 C134 C 0.45720 -0.06130 -0.04735
 C135 C 0.53479 -0.06303 -0.04687
 C136 C 0.58287 -0.05029 -0.02045
 C137 C 0.66246 -0.04980 -0.01977
 C138 C 0.71144 -0.02988 0.00621
 C139 C 0.68227 -0.01287 0.03208
 H140 H 0.46166 -0.00806 0.07987
 H141 H 0.60207 0.00355 0.07953
 H142 H 0.42305 -0.07018 -0.06833
 H143 H 0.55748 -0.07307 -0.06750
 H144 H 0.24980 -0.04340 0.00528
 H145 H 0.77398 -0.02629 0.00617
 C146 C -0.04540 0.63104 0.69608
 C147 C -0.03764 0.68568 0.66923
 C148 C -0.03005 0.65761 0.64169
 C149 C -0.03447 0.57077 0.64063
 C150 C -0.03797 0.51697 0.66782
 C151 C -0.04139 0.54821 0.69574
 C152 C -0.04023 0.49609 0.72246
 C153 C -0.03453 0.41551 0.72172
 C154 C -0.03359 0.38204 0.69426
 C155 C -0.03775 0.43193 0.66711
 C156 C -0.03553 0.53628 0.61318
 C157 C -0.04076 0.45010 0.61250
 C158 C -0.04135 0.39710 0.63923
 C159 C -0.04495 0.31037 0.63892
 C160 C -0.03648 0.26403 0.66569
 C161 C -0.02863 0.30002 0.69315
 H162 H -0.04201 0.51820 0.74417
 H163 H -0.03238 0.37873 0.74291
 H164 H -0.03381 0.57503 0.59197
 H165 H -0.04267 0.42610 0.59080
 H166 H -0.03725 0.75105 0.66976
 H167 H -0.03572 0.19925 0.66515
 C168 C 0.35492 0.39931 0.29994
 C169 C 0.31110 0.35828 0.32708
 C170 C 0.34540 0.39392 0.35419
 C171 C 0.42439 0.47483 0.35433
 C172 C 0.47093 0.51536 0.32702
 C173 C 0.43674 0.47659 0.29974
 C174 C 0.48546 0.51563 0.27316
 C175 C 0.56689 0.59066 0.27344
 C176 C 0.60127 0.63102 0.30012
 C177 C 0.55210 0.59428 0.32705
 C178 C 0.45813 0.51611 0.38093
 C179 C 0.53622 0.59595 0.38073
 C180 C 0.58440 0.63572 0.35407
 C181 C 0.66452 0.71536 0.35365
 C182 C 0.71338 0.74905 0.32726
 C183 C 0.68364 0.70702 0.30078
 H184 H 0.46146 0.48752 0.25198
 H185 H 0.60242 0.61752 0.25248
 H186 H 0.42388 0.48743 0.40208
 H187 H 0.55919 0.62557 0.40174
 H188 H 0.24945 0.29709 0.32712
 H189 H 0.77626 0.80842 0.32743
 C190 C -0.06514 0.22999 0.58901
 C191 C -0.05662 0.26704 0.61156
 C192 C 0.79470 0.77845 0.25552
 C193 C 0.74152 0.74331 0.27528
 C194 C 0.25263 -0.05177 -0.06943
 C195 C 0.29720 -0.05020 -0.04828
 C196 C -0.00630 0.77243 0.59288
 C197 C -0.01687 0.72005 0.61502
 C198 C 0.27706 0.31857 0.25165
 C199 C 0.31400 0.35785 0.27305
 C200 C 0.73611 -0.07432 -0.06564
 C201 C 0.69889 -0.06531 -0.04541
 C202 C 0.27805 -0.02352 0.07988
 C203 C 0.31472 -0.02972 0.05892
 C204 C 0.73885 0.80632 0.40059
 C205 C 0.70146 0.76324 0.37989
 C206 C -0.00359 0.21029 0.74175
 C207 C -0.01467 0.25151 0.71969
 C208 C 0.79386 0.03510 0.07629
 C209 C 0.74033 0.01347 0.05704
 C210 C 0.25256 0.29834 0.40249
 C211 C 0.29723 0.34401 0.38121
 C212 C -0.06526 0.69122 0.74613
 C213 C -0.05686 0.66262 0.72354
   
