data_POSCAR
  _audit_creation_date              2014-09-24
  _audit_creation_method            'ToBaCCo'
  _symmetry_space_group_name_H-M    'P1'
  _symmetry_Int_Tables_number       1
  _symmetry_cell_setting            triclinic
  loop_
  _symmetry_equiv_pos_as_xyz
 x,y,z
_cell_length_a 18.2585
_cell_length_b 18.2050
_cell_length_c 18.1187
_cell_angle_alpha 92.110000
_cell_angle_beta 93.157400
_cell_angle_gamma 93.094300
loop_
  _atom_site_label
  _atom_site_type_symbol
  _atom_site_fract_x
  _atom_site_fract_y
  _atom_site_fract_z
N1 N 0.16584 1.31161 0.11381
 N2 N 0.12289 1.31645 0.16942
 C3 C 0.07460 1.36836 0.15616
 C4 C 0.08882 1.39854 0.08886
 C5 C 0.14642 1.36019 0.06320
 H6 H 0.03066 1.38084 0.19142
 H7 H 0.17074 1.36572 0.01044
 Cu8 Cu 0.13047 1.25129 0.25149
 Cu9 Cu 0.24079 1.24003 0.10896
 Cu10 Cu 0.23879 1.10772 0.24073
 N11 N 0.12093 1.16939 0.31645
 N12 N 0.16293 1.11326 0.31155
 C13 C 0.14247 1.06303 0.36002
 C14 C 0.08519 1.08946 0.39840
 C15 C 0.07228 1.15691 0.36839
 H16 H 0.16614 1.01019 0.36576
 H17 H 0.02913 1.19295 0.38107
 N18 N 0.31119 1.11223 0.16436
 N19 N 0.31196 1.16282 0.11408
 C20 C 0.36462 1.14893 0.06721
 C21 C 0.39944 1.08727 0.08966
 C22 C 0.36336 1.06485 0.15078
 H23 H 0.37475 1.17925 0.01826
 H24 H 0.37234 1.01566 0.18091
 H25 H 0.17801 1.16425 0.16417
 H26 H 0.25301 1.21856 0.22028
 N27 N 0.84699 0.69596 0.11216
 N28 N 0.87717 0.67834 0.17617
 C29 C 0.92017 0.62185 0.16589
 C30 C 0.91769 0.60289 0.09110
 C31 C 0.87068 0.65127 0.05844
 H32 H 0.95318 0.59858 0.20952
 H33 H 0.85566 0.65461 0.00015
 Cu34 Cu 0.86457 0.73503 0.26641
 Cu35 Cu 0.78260 0.77845 0.10496
 Cu36 Cu 0.73128 0.85201 0.27302
 N37 N 0.86502 0.81034 0.34513
 N38 N 0.81148 0.85527 0.34931
 C39 C 0.83044 0.90777 0.40226
 C40 C 0.89957 0.89528 0.43342
 C41 C 0.91994 0.83346 0.39430
 H42 H 0.80091 0.95716 0.41035
 H43 H 0.97427 0.81234 0.39546
 N44 N 0.67925 0.86908 0.17812
 N45 N 0.70012 0.84434 0.11359
 C46 C 0.65667 0.87118 0.05941
 C47 C 0.60641 0.91491 0.09175
 C48 C 0.62241 0.91188 0.16705
 H49 H 0.66181 0.86030 0.00093
 H50 H 0.59667 0.94083 0.21091
 H51 H 0.81269 0.83738 0.20328
 H52 H 0.74553 0.75669 0.20543
 N53 N 0.80798 1.34674 -0.14603
 N54 N 0.85941 1.34428 -0.19380
 C55 C 0.91488 1.39312 -0.17160
 C56 C 0.89725 1.42863 -0.10666
 C57 C 0.82889 1.39773 -0.09219
 H58 H 0.96807 1.39553 -0.19523
 H59 H 0.80154 1.40434 -0.04107
 Cu60 Cu 0.85702 1.26637 -0.27041
 Cu61 Cu 0.72843 1.27044 -0.14780
 Cu62 Cu 0.78185 1.10422 -0.22134
 N63 N 0.87065 1.17605 -0.32631
 N64 N 0.84461 1.11181 -0.30551
 C65 C 0.87056 1.05828 -0.34873
 C66 C 0.91468 1.09117 -0.39978
 C67 C 0.91265 1.16614 -0.38391
 H68 H 0.85891 1.00007 -0.34247
 H69 H 0.94265 1.21040 -0.40922
 N70 N 0.70000 1.11169 -0.15399
 N71 N 0.67836 1.17566 -0.12932
 C72 C 0.62202 1.16428 -0.08592
 C73 C 0.60704 1.08927 -0.08231
 C74 C 0.65745 1.05743 -0.12640
 H75 H 0.59574 1.20783 -0.05723
 H76 H 0.66312 0.99929 -0.13723
 H77 H 0.81122 1.20326 -0.16487
 H78 H 0.74113 1.20257 -0.24384
 N79 N 0.17469 0.67959 -0.12689
 N80 N 0.11049 0.70215 -0.15107
 C81 C 0.05683 0.65886 -0.12376
 C82 C 0.08928 0.60700 -0.08031
 C83 C 0.16402 0.62193 -0.08403
 H84 H -0.00132 0.66502 -0.13428
 H85 H 0.20792 0.59455 -0.05592
 Cu86 Cu 0.10191 0.78617 -0.21740
 Cu87 Cu 0.26904 0.72965 -0.14571
 Cu88 Cu 0.26285 0.86179 -0.26712
 N89 N 0.10768 0.85237 -0.30014
 N90 N 0.17136 0.87919 -0.32061
 C91 C 0.16051 0.92333 -0.37730
 C92 C 0.08555 0.92556 -0.39336
 C93 C 0.05355 0.87963 -0.34305
 H94 H 0.20435 0.95356 -0.40270
 H95 H -0.00440 0.86716 -0.33747
 N96 N 0.34330 0.86069 -0.19247
 N97 N 0.34626 0.80829 -0.14470
 C98 C 0.39892 0.82762 -0.09151
 C99 C 0.43044 0.89594 -0.10645
 C100 C 0.39359 0.91507 -0.17108
 H101 H 0.40629 0.79944 -0.04030
 H102 H 0.39589 0.96889 -0.19458
 H103 H 0.20228 0.81373 -0.16147
 H104 H 0.19917 0.74527 -0.24095
 C105 C 0.45262 1.04457 0.04707
 C106 C 0.50362 0.99911 0.09450
 C107 C 0.55045 0.95929 0.05517
 C108 C 0.54159 0.96882 -0.02910
 C109 C 0.50445 1.09185 0.00243
 C110 C 0.55120 1.05274 -0.03772
 C111 C 0.41361 0.98955 -0.00922
 C112 C 0.45965 0.95000 -0.04899
 H113 H 0.50350 1.00031 0.15420
 H114 H 0.57854 0.93610 -0.06209
 H115 H 0.50470 1.15129 0.00418
 H116 H 0.35432 0.98284 -0.01738
 C117 C 0.04674 0.44925 1.04847
 C118 C 0.09321 0.50278 1.00455
 C119 C 0.05355 0.54985 0.96375
 C120 C -0.03006 0.53912 0.97112
 C121 C 0.00089 0.49924 1.09515
 C122 C -0.03928 0.54653 1.05513
 C123 C -0.00803 0.41062 0.99126
 C124 C -0.04807 0.45717 0.95095
 H125 H 0.15259 0.50385 1.00722
 H126 H -0.06322 0.57646 0.93773
 H127 H 0.00266 0.49918 1.15487
 H128 H -0.01464 0.35126 0.98319
 C129 C 1.04318 0.04998 0.44990
 C130 C 0.99651 0.09659 0.49909
 C131 C 0.95665 0.05720 0.54735
 C132 C 0.96714 -0.02647 0.54108
 C133 C 1.09016 0.00804 0.50474
 C134 C 1.05110 -0.03269 0.55249
 C135 C 0.98952 -0.00838 0.41173
 C136 C 0.94965 -0.04809 0.45899
 H137 H 0.99761 0.15590 0.49753
 H138 H 0.93428 -0.05979 0.57868
 H139 H 1.14950 0.01123 0.50510
 H140 H 0.98379 -0.01774 0.35217
   
