data_POSCAR
  _audit_creation_date              2014-09-24
  _audit_creation_method            'ToBaCCo'
  _symmetry_space_group_name_H-M    'P1'
  _symmetry_Int_Tables_number       1
  _symmetry_cell_setting            triclinic
  loop_
  _symmetry_equiv_pos_as_xyz
 x,y,z
_cell_length_a 64.9488
_cell_length_b 64.9481
_cell_length_c 22.9627
_cell_angle_alpha 90.000000
_cell_angle_beta 90.000000
_cell_angle_gamma 120.000000
loop_
  _atom_site_label
  _atom_site_type_symbol
  _atom_site_fract_x
  _atom_site_fract_y
  _atom_site_fract_z
C1 C 0.24850 0.49704 0.52832
 C2 C 0.24846 0.49740 0.46401
 C3 C 0.22639 0.49632 0.42767
 C4 C 0.26961 0.49792 0.42467
 C5 C 0.26960 0.49735 0.56719
 C6 C 0.22716 0.49641 0.56668
 C7 C 0.20204 0.48041 0.44073
 C8 C 0.18227 0.47877 0.40746
 C9 C 0.18428 0.49279 0.35628
 C10 C 0.20893 0.50898 0.34335
 C11 C 0.22887 0.51043 0.37689
 C12 C 0.26512 0.48658 0.36889
 C13 C 0.28333 0.48690 0.33151
 C14 C 0.30804 0.49813 0.34623
 C15 C 0.31280 0.50962 0.40186
 C16 C 0.29456 0.50989 0.43873
 C17 C 0.27800 0.51124 0.61902
 C18 C 0.29641 0.51213 0.65635
 C19 C 0.30879 0.49927 0.64636
 C20 C 0.29992 0.48460 0.59528
 C21 C 0.28110 0.48355 0.55778
 C22 C 0.21756 0.51203 0.56040
 C23 C 0.19889 0.51125 0.59783
 C24 C 0.18787 0.49458 0.64457
 C25 C 0.19767 0.47921 0.65053
 C26 C 0.21648 0.48030 0.61421
 H27 H 0.19790 0.46849 0.47735
 H28 H 0.16516 0.46604 0.42465
 H29 H 0.21325 0.52063 0.30613
 H30 H 0.24668 0.52308 0.36258
 H31 H 0.24699 0.47715 0.35318
 H32 H 0.27778 0.47803 0.28980
 H33 H 0.30044 0.52020 0.47838
 H34 H 0.27020 0.52194 0.63139
 H35 H 0.30057 0.52315 0.69463
 H36 H 0.30767 0.47382 0.58349
 H37 H 0.27554 0.47162 0.52084
 H38 H 0.22465 0.52527 0.52625
 H39 H 0.19271 0.52362 0.58892
 H40 H 0.19079 0.46593 0.68462
 H41 H 0.22256 0.46786 0.62336
 H42 H 0.33108 0.51941 0.41646
 C43 C 0.50009 -0.24960 0.53280
 C44 C 0.49994 -0.24921 0.46859
 C45 C 0.50040 -0.26976 0.42898
 C46 C 0.50054 -0.22746 0.43247
 C47 C 0.50058 -0.22857 0.57245
 C48 C 0.50132 -0.27046 0.56892
 C49 C 0.51611 -0.26416 0.38046
 C50 C 0.51744 -0.28174 0.34400
 C51 C 0.50272 -0.30699 0.35074
 C52 C 0.48640 -0.31282 0.39841
 C53 C 0.48540 -0.29506 0.43597
 C54 C 0.51576 -0.20298 0.44602
 C55 C 0.51665 -0.18357 0.41268
 C56 C 0.50235 -0.18637 0.36203
 C57 C 0.48745 -0.21097 0.34749
 C58 C 0.48673 -0.23052 0.38086
 C59 C 0.48563 -0.21814 0.56628
 C60 C 0.48669 -0.19949 0.60465
 C61 C 0.50322 -0.18899 0.65214
 C62 C 0.51768 -0.20001 0.65798
 C63 C 0.51627 -0.21872 0.62082
 C64 C 0.48805 -0.28124 0.62124
 C65 C 0.48958 -0.29963 0.65474
 C66 C 0.50508 -0.30868 0.64015
 C67 C 0.51827 -0.29761 0.58756
 C68 C 0.51659 -0.27953 0.55428
 H69 H 0.52814 -0.24559 0.37075
 H70 H 0.53043 -0.27518 0.30924
 H71 H 0.47453 -0.33142 0.40805
 H72 H 0.47253 -0.30140 0.47098
 H73 H 0.52772 -0.19848 0.48267
 H74 H 0.52946 -0.16595 0.42735
 H75 H 0.47482 -0.24846 0.36601
 H76 H 0.47264 -0.22458 0.53153
 H77 H 0.47463 -0.19295 0.59567
 H78 H 0.53019 -0.19496 0.69340
 H79 H 0.52809 -0.22552 0.63038
 H80 H 0.47604 -0.27545 0.63680
 H81 H 0.47867 -0.30639 0.69336
 H82 H 0.53021 -0.30292 0.56949
 H83 H 0.52791 -0.27234 0.51644
 H84 H 0.47595 -0.21539 0.30993
 C85 C 1.24741 0.75054 0.52950
 C86 C 1.24731 0.75039 0.46548
 C87 C 1.26806 0.77188 0.42785
 C88 C 1.22663 0.72881 0.42832
 C89 C 1.22672 0.72952 0.56862
 C90 C 1.26902 0.77161 0.56606
 C91 C 1.27870 0.79645 0.44274
 C92 C 1.29705 0.81558 0.40850
 C93 C 1.30660 0.81238 0.35497
 C94 C 1.29601 0.78777 0.33977
 C95 C 1.27749 0.76849 0.37433
 C96 C 1.21280 0.73206 0.38430
 C97 C 1.19446 0.71279 0.34954
 C98 C 1.18873 0.68853 0.35431
 C99 C 1.20279 0.68544 0.39798
 C100 C 1.22064 0.70454 0.43361
 C101 C 1.23183 0.72319 0.62408
 C102 C 1.21429 0.70477 0.66130
 C103 C 1.18949 0.69044 0.64751
 C104 C 1.18400 0.69709 0.59261
 C105 C 1.20175 0.71579 0.55504
 C106 C 1.29337 0.77783 0.56051
 C107 C 1.31246 0.79582 0.59594
 C108 C 1.30932 0.80985 0.63963
 C109 C 1.28500 0.80392 0.64460
 C110 C 1.26574 0.78543 0.61007
 H111 H 1.27252 0.80132 0.48122
 H112 H 1.30386 0.83336 0.42527
 H113 H 1.30169 0.78319 0.29993
 H114 H 1.27052 0.75050 0.35863
 H115 H 1.21613 0.74990 0.37647
 H116 H 1.18519 0.71722 0.31716
 H117 H 1.23021 0.70015 0.46522
 H118 H 1.25001 0.73257 0.63949
 H119 H 1.22068 0.70213 0.70248
 H120 H 1.16574 0.68763 0.57779
 H121 H 1.19548 0.71961 0.51515
 H122 H 1.29781 0.76829 0.52895
 H123 H 1.33019 0.79873 0.58874
 H124 H 1.28051 0.81312 0.67704
 H125 H 1.24786 0.78193 0.61818
 H126 H 1.20001 0.66775 0.40508
 C127 C 0.75164 0.50265 0.53237
 C128 C 0.75168 0.50306 0.46823
 C129 C 0.77323 0.50424 0.42991
 C130 C 0.73003 0.50237 0.43141
 C131 C 0.72989 0.50142 0.57035
 C132 C 0.77299 0.50315 0.57137
 C133 C 0.79783 0.52019 0.44101
 C134 C 0.81701 0.52104 0.40666
 C135 C 0.81380 0.50646 0.35641
 C136 C 0.78910 0.49056 0.34482
 C137 C 0.76979 0.48966 0.37961
 C138 C 0.73336 0.51921 0.38659
 C139 C 0.71411 0.51851 0.35212
 C140 C 0.68969 0.50043 0.35788
 C141 C 0.68648 0.48348 0.40227
 C142 C 0.70559 0.48455 0.43771
 C143 C 0.72106 0.48676 0.62068
 C144 C 0.70264 0.48555 0.65835
 C145 C 0.69051 0.49890 0.65058
 C146 C 0.69944 0.51388 0.59982
 C147 C 0.71817 0.51506 0.56160
 C148 C 0.78726 0.49245 0.55765
 C149 C 0.80601 0.49348 0.59550
 C150 C 0.81145 0.50410 0.65248
 C151 C 0.79693 0.51451 0.66565
 C152 C 0.77906 0.51424 0.62733
 H153 H 0.80255 0.53239 0.47725
 H154 H 0.83482 0.53351 0.42099
 H155 H 0.78444 0.47879 0.30771
 H156 H 0.75173 0.47706 0.36685
 H157 H 0.75129 0.53337 0.37787
 H158 H 0.71867 0.53201 0.31911
 H159 H 0.70105 0.47074 0.46983
 H160 H 0.72867 0.47577 0.63185
 H161 H 0.69863 0.47378 0.69485
 H162 H 0.69198 0.52501 0.58893
 H163 H 0.72376 0.52726 0.52522
 H164 H 0.78378 0.48263 0.51740
 H165 H 0.81555 0.48479 0.58048
 H166 H 0.79970 0.52410 0.70596
 H167 H 0.76979 0.52318 0.64248
 H168 H 0.66870 0.46887 0.41005
 C169 C 0.49567 0.24836 0.53094
 C170 C 0.49563 0.24848 0.46683
 C171 C 0.49616 0.26981 0.42856
 C172 C 0.49504 0.22717 0.42837
 C173 C 0.49444 0.22645 0.56800
 C174 C 0.49670 0.26998 0.56846
 C175 C 0.48506 0.28364 0.44256
 C176 C 0.48601 0.30240 0.40520
 C177 C 0.49789 0.30894 0.34991
 C178 C 0.50817 0.29446 0.33578
 C179 C 0.50746 0.27614 0.37296
 C180 C 0.47879 0.21637 0.38116
 C181 C 0.47788 0.19778 0.34437
 C182 C 0.49347 0.18820 0.34969
 C183 C 0.51024 0.19931 0.39623
 C184 C 0.51090 0.21784 0.43400
 C185 C 0.50774 0.22915 0.62042
 C186 C 0.50658 0.20936 0.65388
 C187 C 0.49148 0.18474 0.63912
 C188 C 0.47822 0.18243 0.58653
 C189 C 0.47953 0.20205 0.55334
 C190 C 0.51509 0.29426 0.56346
 C191 C 0.51623 0.31345 0.59859
 C192 C 0.49886 0.31053 0.64149
 C193 C 0.48024 0.28626 0.64604
 C194 C 0.47941 0.26690 0.61178
 H195 H 0.47502 0.27981 0.48254
 H196 H 0.47731 0.31191 0.42033
 H197 H 0.51688 0.29677 0.29431
 H198 H 0.51617 0.26672 0.35721
 H199 H 0.46618 0.22228 0.37245
 H200 H 0.46458 0.19093 0.31035
 H201 H 0.52425 0.22505 0.46790
 H202 H 0.51957 0.24701 0.63593
 H203 H 0.51751 0.21367 0.69250
 H204 H 0.46652 0.16516 0.56833
 H205 H 0.46820 0.19772 0.51548
 H206 H 0.52918 0.29858 0.53231
 H207 H 0.53122 0.33109 0.59164
 H208 H 0.46635 0.28191 0.67783
 H209 H 0.46477 0.24910 0.61932
 H210 H 0.52280 0.19333 0.40465
 C211 C 0.74781 0.25112 0.53107
 C212 C 0.74730 0.25075 0.46688
 C213 C 0.72629 0.22913 0.42989
 C214 C 0.76828 0.27139 0.42784
 C215 C 0.76979 0.27198 0.56751
 C216 C 0.72717 0.23016 0.57021
 C217 C 0.71612 0.20451 0.44385
 C218 C 0.69805 0.18535 0.40886
 C219 C 0.68830 0.18860 0.35566
 C220 C 0.69836 0.21326 0.34165
 C221 C 0.71661 0.23253 0.37675
 C222 C 0.77873 0.26592 0.37993
 C223 C 0.79764 0.28362 0.34390
 C224 C 0.80780 0.30880 0.35072
 C225 C 0.79695 0.31449 0.39774
 C226 C 0.77815 0.29661 0.43480
 C227 C 0.76719 0.28234 0.62047
 C228 C 0.78702 0.30081 0.65408
 C229 C 0.81161 0.31046 0.63881
 C230 C 0.81381 0.29971 0.58568
 C231 C 0.79414 0.28150 0.55247
 C232 C 0.70195 0.22040 0.56354
 C233 C 0.68406 0.20158 0.60057
 C234 C 0.68973 0.19056 0.64724
 C235 C 0.71491 0.20059 0.65376
 C236 C 0.73263 0.21955 0.61781
 H237 H 0.72249 0.19968 0.48206
 H238 H 0.69166 0.16749 0.42463
 H239 H 0.69253 0.21790 0.30214
 H240 H 0.72328 0.25055 0.36163
 H241 H 0.77246 0.24739 0.37040
 H242 H 0.80436 0.27722 0.30946
 H243 H 0.77126 0.30277 0.46941
 H244 H 0.74936 0.27619 0.63642
 H245 H 0.78278 0.30724 0.69314
 H246 H 0.83102 0.30526 0.56717
 H247 H 0.79839 0.27457 0.51433
 H248 H 0.69579 0.22740 0.52917
 H249 H 0.66551 0.19523 0.59130
 H250 H 0.72130 0.19372 0.68789
 H251 H 0.75115 0.22571 0.62713
 H252 H 0.80341 0.33305 0.40722
 O253 O 0.96481 0.44586 0.10970
 O254 O 0.93754 0.45098 0.05731
 C255 C 0.94253 0.43984 0.09883
 O256 O 1.03548 0.55321 0.10667
 O257 O 1.06137 0.54627 0.05346
 C258 C 1.05745 0.55814 0.09486
 O259 O 0.96726 0.51956 0.10875
 O260 O 0.93865 0.48760 0.05764
 C261 C 0.94463 0.50404 0.09892
 O262 O 1.03219 0.47759 0.10798
 O263 O 1.06058 0.50916 0.05557
 C264 C 1.05482 0.49300 0.09762
 Zr265 Zr 0.99876 0.47242 0.07207
 O266 O 0.99948 0.47157 0.16406
 O267 O 0.99759 0.43952 0.06232
 Zr268 Zr 1.00072 0.52547 0.07131
 O269 O 1.00139 0.52505 0.16337
 O270 O 1.00012 0.55770 0.06592
 O271 O 0.97813 0.48873 0.08277
 O272 O 1.02071 0.50888 0.08137
 O273 O 1.03231 0.47697 -0.10901
 O274 O 1.06056 0.50949 -0.05875
 C275 C 1.05489 0.49278 -0.09904
 O276 O 0.96589 0.51752 -0.11503
 O277 O 0.93858 0.48788 -0.05574
 C278 C 0.94348 0.50266 -0.10015
 O279 O 1.03476 0.55216 -0.11230
 O280 O 1.06095 0.54636 -0.05694
 C281 C 1.05686 0.55779 -0.09920
 O282 O 0.96488 0.44599 -0.11149
 O283 O 0.93742 0.45077 -0.05935
 C284 C 0.94258 0.43997 -0.10165
 Zr285 Zr 0.99869 0.47203 -0.07367
 O286 O 1.00011 0.47126 -0.16564
 O287 O 0.99585 0.43821 -0.06573
 Zr288 Zr 1.00007 0.52494 -0.07511
 O289 O 1.00014 0.52815 -0.16673
 O290 O 0.99912 0.55682 -0.06405
 Zr291 Zr 0.96195 0.48067 -0.00076
 Zr292 Zr 1.03695 0.51630 -0.00171
 O293 O 1.02031 0.50840 -0.08456
 O294 O 0.97778 0.48808 -0.08495
 O295 O 1.02069 0.47867 -0.00080
 O296 O 0.97888 0.51834 -0.00148
 O297 O 0.97695 0.45831 -0.00059
 O298 O 1.02263 0.53951 -0.00239
 H299 H 1.03076 0.51375 0.11672
 H300 H 0.96821 0.52515 -0.00135
 H301 H 1.03040 0.51304 -0.11979
 H302 H 0.96560 0.44097 -0.00044
 H303 H 1.01546 0.56978 0.04886
 H304 H 1.01562 0.56974 -0.05704
 H305 H 1.00549 0.51754 -0.18306
 H306 H 0.99012 0.47763 -0.18068
 H307 H 1.01105 0.44069 -0.04951
 H308 H 0.99731 0.43370 0.10236
 H309 H 0.99368 0.48218 0.17800
 H310 H 1.00169 0.53974 0.17659
 O311 O 0.55419 0.51917 0.11032
 O312 O 0.54774 0.48671 0.05621
 C313 C 0.55917 0.50213 0.09868
 O314 O 0.44697 0.48281 0.10791
 O315 O 0.45283 0.51462 0.05163
 C316 C 0.44115 0.49904 0.09368
 O317 O 0.48158 0.44821 0.11123
 O318 O 0.51251 0.45226 0.05449
 C319 C 0.49740 0.44170 0.09780
 O320 O 0.52249 0.55583 0.10567
 O321 O 0.49002 0.55126 0.05443
 C322 C 0.50657 0.56243 0.09507
 Zr323 Zr 0.52771 0.52717 0.07137
 O324 O 0.52872 0.52925 0.16327
 O325 O 0.56071 0.55869 0.06065
 Zr326 Zr 0.47451 0.47560 0.07259
 O327 O 0.47507 0.47658 0.16463
 O328 O 0.44085 0.44429 0.06652
 O329 O 0.51133 0.49022 0.08267
 O330 O 0.49112 0.51240 0.08116
 O331 O 0.52219 0.55472 -0.11139
 O332 O 0.49033 0.55129 -0.05975
 C333 C 0.50662 0.56177 -0.10134
 O334 O 0.48151 0.44796 -0.11396
 O335 O 0.51285 0.45246 -0.05816
 C336 C 0.49774 0.44189 -0.10154
 O337 O 0.44684 0.48226 -0.11156
 O338 O 0.45322 0.51470 -0.05739
 C339 C 0.44150 0.49899 -0.09911
 O340 O 0.55429 0.51859 -0.11339
 O341 O 0.54826 0.48691 -0.05692
 C342 C 0.55969 0.50203 -0.09986
 Zr343 Zr 0.52768 0.52663 -0.07550
 O344 O 0.52815 0.52836 -0.16753
 O345 O 0.56144 0.55770 -0.06833
 Zr346 Zr 0.47417 0.47494 -0.07459
 O347 O 0.47035 0.47151 -0.16603
 O348 O 0.44227 0.44226 -0.06206
 Zr349 Zr 0.51863 0.48195 -0.00134
 Zr350 Zr 0.48342 0.52077 -0.00232
 O351 O 0.49104 0.51172 -0.08518
 O352 O 0.51105 0.48962 -0.08576
 O353 O 0.52112 0.54225 -0.00250
 O354 O 0.48113 0.46067 -0.00074
 O355 O 0.54143 0.51915 -0.00168
 O356 O 0.46021 0.48325 -0.00129
 H357 H 0.48623 0.51776 0.11618
 H358 H 0.47482 0.44328 -0.00074
 H359 H 0.48615 0.51693 -0.12042
 H360 H 0.55872 0.52488 -0.00150
 H361 H 0.44345 0.43057 0.06329
 H362 H 0.42984 0.44605 -0.05065
 H363 H 0.48256 0.48680 -0.18273
 H364 H 0.52241 0.51204 -0.18208
 H365 H 0.55890 0.57044 -0.05253
 H366 H 0.56662 0.56435 0.10055
 H367 H 0.51774 0.51300 0.17762
 H368 H 0.46038 0.46218 0.17773
 O369 O 0.51698 -0.03261 0.11246
 O370 O 0.48602 -0.06129 0.05906
 C371 C 0.50151 -0.05524 0.10261
 O372 O 0.47683 0.03379 0.10207
 O373 O 0.50969 0.06147 0.05166
 C374 C 0.49290 0.05620 0.09166
 O375 O 0.44499 -0.03355 0.10715
 O376 O 0.44950 -0.06168 0.05721
 C377 C 0.43858 -0.05602 0.09796
 O378 O 0.55180 0.03441 0.10537
 O379 O 0.54724 0.06185 0.05221
 C380 C 0.55834 0.05674 0.09389
 Zr381 Zr 0.52407 0.00060 0.07111
 O382 O 0.52607 0.00248 0.16302
 O383 O 0.55627 0.00026 0.06236
 Zr384 Zr 0.47185 -0.00004 0.06897
 O385 O 0.47279 0.00102 0.16113
 O386 O 0.43908 -0.00090 0.05872
 O387 O 0.48734 -0.02126 0.08211
 O388 O 0.50829 0.02149 0.07897
 O389 O 0.55220 0.03345 -0.11049
 O390 O 0.54688 0.06130 -0.06129
 C391 C 0.55836 0.05591 -0.10094
 O392 O 0.44489 -0.03626 -0.11397
 O393 O 0.45064 -0.06230 -0.05791
 C394 C 0.43958 -0.05828 -0.10121
 O395 O 0.47719 0.03182 -0.11355
 O396 O 0.50903 0.06059 -0.06230
 C397 C 0.49263 0.05451 -0.10380
 O398 O 0.51782 -0.03454 -0.11122
 O399 O 0.48611 -0.06200 -0.05711
 C400 C 0.50204 -0.05693 -0.09918
 Zr401 Zr 0.52451 -0.00052 -0.07418
 O402 O 0.52767 -0.00111 -0.16574
 O403 O 0.55628 -0.00164 -0.06240
 Zr404 Zr 0.47180 -0.00162 -0.07674
 O405 O 0.47189 -0.00082 -0.16886
 O406 O 0.43816 -0.00395 -0.07090
 Zr407 Zr 0.47978 -0.03795 -0.00062
 Zr408 Zr 0.51650 0.03748 -0.00444
 O409 O 0.50842 0.01998 -0.08640
 O410 O 0.48773 -0.02268 -0.08530
 O411 O 0.53901 0.02235 -0.00235
 O412 O 0.45778 -0.02253 -0.00272
 O413 O 0.51728 -0.02163 -0.00018
 O414 O 0.47878 0.02130 -0.00525
 H415 H 0.51317 0.03173 0.11399
 H416 H 0.44040 -0.03368 -0.00278
 H417 H 0.51338 0.02993 -0.12191
 H418 H 0.52380 -0.03254 0.00107
 H419 H 0.43303 -0.00115 0.09844
 H420 H 0.44069 0.01115 -0.05393
 H421 H 0.47719 -0.01188 -0.18242
 H422 H 0.51739 0.00451 -0.18276
 H423 H 0.56878 0.01435 -0.04968
 H424 H 0.56163 -0.00006 0.10256
 H425 H 0.50970 -0.00334 0.17721
 H426 H 0.45821 0.00089 0.17450
 C427 C 1.14157 0.50050 0.24353
 C428 C 1.12011 0.48221 0.26177
 C429 C 1.11895 0.46774 0.30821
 C430 C 1.14001 0.47171 0.33764
 C431 C 1.16377 0.49027 0.32315
 C432 C 1.16379 0.50489 0.27316
 O433 O 1.13812 0.51212 0.19787
 C434 C 1.11407 0.50079 0.18749
 C435 C 1.10255 0.48231 0.22589
 C436 C 1.07778 0.46785 0.22396
 C437 C 1.06405 0.47211 0.18216
 C438 C 1.07385 0.49090 0.13991
 C439 C 1.10011 0.50564 0.14373
 H440 H 1.10185 0.45327 0.32193
 H441 H 1.13679 0.45910 0.37170
 H442 H 1.18048 0.51945 0.25779
 H443 H 1.06892 0.45330 0.25447
 H444 H 1.04504 0.46018 0.18354
 H445 H 1.10937 0.52041 0.11403
 C446 C 0.49508 0.63674 0.24971
 C447 C 0.51858 0.64420 0.23912
 C448 C 0.53644 0.66585 0.26240
 C449 C 0.53045 0.68046 0.29714
 C450 C 0.50660 0.67437 0.31152
 C451 C 0.48854 0.65136 0.28651
 O452 O 0.48092 0.61553 0.22211
 C453 C 0.49578 0.60953 0.19392
 C454 C 0.51904 0.62659 0.20367
 C455 C 0.53755 0.62393 0.18010
 C456 C 0.53249 0.60345 0.14592
 C457 C 0.50899 0.58480 0.13213
 C458 C 0.49017 0.58848 0.15758
 H459 H 0.55492 0.67163 0.25375
 H460 H 0.54500 0.69689 0.31384
 H461 H 0.46993 0.64517 0.29452
 H462 H 0.55584 0.63735 0.18836
 H463 H 0.54749 0.60224 0.12953
 H464 H 0.47176 0.57516 0.15055
 C465 C 0.36028 -0.14254 0.24341
 C466 C 0.35952 -0.12209 0.25281
 C467 C 0.34288 -0.12192 0.29143
 C468 C 0.32654 -0.14302 0.32199
 C469 C 0.32583 -0.16534 0.31635
 C470 C 0.34348 -0.16460 0.27452
 O471 O 0.37784 -0.13838 0.20415
 C472 C 0.38822 -0.11490 0.18872
 C473 C 0.37741 -0.10439 0.21777
 C474 C 0.38499 -0.08029 0.20940
 C475 C 0.40415 -0.06624 0.17071
 C476 C 0.41687 -0.07513 0.13804
 C477 C 0.40812 -0.10066 0.14812
 H478 H 0.34233 -0.10570 0.29801
 H479 H 0.31388 -0.14170 0.34999
 H480 H 0.34436 -0.18058 0.26689
 H481 H 0.37630 -0.07222 0.23256
 H482 H 0.40905 -0.04775 0.16644
 H483 H 0.41660 -0.10911 0.12578
 C484 C 0.85872 0.49691 0.24566
 C485 C 0.87900 0.51851 0.25251
 C486 C 0.87909 0.53584 0.28914
 C487 C 0.85814 0.53125 0.32026
 C488 C 0.83601 0.50927 0.31740
 C489 C 0.83682 0.49179 0.27755
 O490 O 0.86287 0.48305 0.20784
 C491 C 0.88615 0.49621 0.19076
 C492 C 0.89659 0.51806 0.21739
 C493 C 0.92054 0.53472 0.20707
 C494 C 0.93450 0.52921 0.16893
 C495 C 0.92565 0.50707 0.13863
 C496 C 0.90029 0.49018 0.15066
 H497 H 0.89514 0.55291 0.29367
 H498 H 0.85947 0.54568 0.34641
 H499 H 0.82101 0.47462 0.27190
 H500 H 0.92858 0.55187 0.22835
 H501 H 0.95286 0.54290 0.16306
 H502 H 0.89189 0.47285 0.13028
 C503 C 0.49071 0.36094 0.26358
 C504 C 0.50852 0.36773 0.22325
 C505 C 0.52288 0.35730 0.22291
 C506 C 0.51906 0.33925 0.26415
 C507 C 0.50061 0.33019 0.30735
 C508 C 0.48630 0.34212 0.30638
 O509 O 0.47942 0.37380 0.25602
 C510 C 0.49035 0.38882 0.21007
 C511 C 0.50822 0.38553 0.18875
 C512 C 0.52182 0.39872 0.14087
 C513 C 0.51730 0.41585 0.11362
 C514 C 0.49947 0.42116 0.13268
 C515 C 0.48559 0.40672 0.18298
 H516 H 0.53714 0.36310 0.19147
 H517 H 0.53138 0.33270 0.26212
 H518 H 0.47203 0.33680 0.33751
 H519 H 0.53575 0.39583 0.12417
 H520 H 0.52822 0.42518 0.07643
 H521 H 0.47159 0.40929 0.20054
 C522 C 0.63519 0.14341 0.24252
 C523 C 0.63704 0.12343 0.24938
 C524 C 0.65415 0.12359 0.28702
 C525 C 0.66987 0.14454 0.31910
 C526 C 0.66953 0.16640 0.31587
 C527 C 0.65139 0.16533 0.27507
 O528 O 0.61728 0.13897 0.20405
 C529 C 0.60779 0.11580 0.18647
 C530 C 0.61952 0.10576 0.21339
 C531 C 0.61298 0.08205 0.20249
 C532 C 0.59391 0.06789 0.16359
 C533 C 0.58020 0.07625 0.13319
 C534 C 0.58793 0.10142 0.14575
 H535 H 0.65552 0.10774 0.29174
 H536 H 0.68288 0.14351 0.34637
 H537 H 0.64970 0.18094 0.26933
 H538 H 0.62238 0.07434 0.22390
 H539 H 0.58983 0.04972 0.15740
 H540 H 0.57863 0.10946 0.12545
 C541 C 0.49939 0.14111 -0.24778
 C542 C 0.48106 0.11968 -0.26612
 C543 C 0.46642 0.11859 -0.31210
 C544 C 0.47032 0.13973 -0.34096
 C545 C 0.48899 0.16334 -0.32635
 C546 C 0.50372 0.16335 -0.27687
 O547 O 0.51114 0.13762 -0.20257
 C548 C 0.49988 0.11357 -0.19256
 C549 C 0.48130 0.10207 -0.23074
 C550 C 0.46692 0.07728 -0.22909
 C551 C 0.47138 0.06354 -0.18779
 C552 C 0.49027 0.07338 -0.14584
 C553 C 0.50490 0.09961 -0.14932
 H554 H 0.45187 0.10153 -0.32578
 H555 H 0.45762 0.13689 -0.37455
 H556 H 0.51830 0.18007 -0.26169
 H557 H 0.45230 0.06845 -0.25943
 H558 H 0.45953 0.04451 -0.18925
 H559 H 0.51970 0.10886 -0.11972
 C560 C 0.63984 0.50684 -0.26554
 C561 C 0.63378 0.49005 -0.22280
 C562 C 0.64486 0.47635 -0.22004
 C563 C 0.66271 0.47964 -0.26133
 C564 C 0.67093 0.49681 -0.30801
 C565 C 0.65837 0.51061 -0.30896
 O566 O 0.62661 0.51783 -0.25954
 C567 C 0.61209 0.50770 -0.21224
 C568 C 0.61600 0.49057 -0.18858
 C569 C 0.60319 0.47769 -0.13939
 C570 C 0.58586 0.48219 -0.11310
 C571 C 0.58014 0.49949 -0.13409
 C572 C 0.59415 0.51257 -0.18580
 H573 H 0.63977 0.46300 -0.18636
 H574 H 0.66962 0.46781 -0.25549
 H575 H 0.66286 0.52401 -0.34214
 H576 H 0.60648 0.46425 -0.12107
 H577 H 0.57671 0.47176 -0.07510
 H578 H 0.59116 0.52606 -0.20503
 C579 C 0.85530 0.36120 -0.24651
 C580 C 0.87675 0.36504 -0.26683
 C581 C 0.87787 0.35225 -0.31453
 C582 C 0.85671 0.33500 -0.34318
 C583 C 0.83304 0.32931 -0.32668
 C584 C 0.83302 0.34328 -0.27547
 O585 O 0.85884 0.37577 -0.19970
 C586 C 0.88294 0.38889 -0.19076
 C587 C 0.89440 0.38267 -0.23122
 C588 C 0.91919 0.39350 -0.23124
 C589 C 0.93303 0.41124 -0.18918
 C590 C 0.92332 0.41942 -0.14463
 C591 C 0.89702 0.40742 -0.14655
 H592 H 0.89497 0.35538 -0.32974
 H593 H 0.85964 0.32585 -0.37836
 H594 H 0.81627 0.34054 -0.25877
 H595 H 0.92797 0.38839 -0.26345
 H596 H 0.95207 0.41875 -0.19226
 H597 H 0.88782 0.41224 -0.11494
 C598 C 0.49438 -0.13994 -0.25864
 C599 C 0.51526 -0.12920 -0.22778
 C600 C 0.53185 -0.13681 -0.23471
 C601 C 0.52727 -0.15592 -0.27341
 C602 C 0.50608 -0.16868 -0.30812
 C603 C 0.48943 -0.15953 -0.29985
 O604 O 0.48098 -0.12972 -0.24453
 C605 C 0.49374 -0.11229 -0.20435
 C606 C 0.51497 -0.11130 -0.19325
 C607 C 0.53137 -0.09430 -0.15420
 C608 C 0.52622 -0.07777 -0.12554
 C609 C 0.50454 -0.07745 -0.13298
 C610 C 0.48792 -0.09563 -0.17433
 H611 H 0.54839 -0.12807 -0.21064
 H612 H 0.54147 -0.15990 -0.27700
 H613 H 0.47287 -0.16766 -0.32375
 H614 H 0.54815 -0.09353 -0.14613
 H615 H 0.53958 -0.06487 -0.09651
 H616 H 0.47119 -0.09651 -0.18385
 C617 C 0.35971 0.49136 -0.26317
 C618 C 0.36926 0.51159 -0.22984
 C619 C 0.36087 0.52763 -0.23545
 C620 C 0.34217 0.52310 -0.27544
 C621 C 0.33040 0.50233 -0.31160
 C622 C 0.34021 0.48624 -0.30462
 O623 O 0.37084 0.47866 -0.25086
 C624 C 0.38757 0.49115 -0.20908
 C625 C 0.38709 0.51143 -0.19494
 C626 C 0.40265 0.52707 -0.15255
 C627 C 0.41922 0.52214 -0.12349
 C628 C 0.42143 0.50165 -0.13492
 C629 C 0.40472 0.48582 -0.17987
 H630 H 0.36877 0.54372 -0.20959
 H631 H 0.33726 0.53667 -0.27827
 H632 H 0.33279 0.47010 -0.33017
 H633 H 0.40210 0.54300 -0.14169
 H634 H 0.43074 0.53492 -0.09141
 H635 H 0.40498 0.46984 -0.19175
 C636 C 1.13078 0.63905 -0.26379
 C637 C 1.14174 0.63059 -0.22780
 C638 C 1.16638 0.63988 -0.23101
 C639 C 1.18049 0.65842 -0.27138
 C640 C 1.17111 0.66897 -0.31035
 C641 C 1.14505 0.65826 -0.30582
 O642 O 1.10683 0.62728 -0.25322
 C643 C 1.10275 0.61121 -0.20986
 C644 C 1.12374 0.61273 -0.19308
 C645 C 1.12402 0.59795 -0.14885
 C646 C 1.10246 0.58110 -0.12058
 C647 C 1.07956 0.57792 -0.13459
 C648 C 1.08024 0.59383 -0.18139
 H649 H 1.17480 0.63287 -0.20291
 H650 H 1.19924 0.66424 -0.27233
 H651 H 1.13614 0.66482 -0.33358
 H652 H 1.14068 0.59929 -0.13598
 H653 H 1.10386 0.57019 -0.08696
 H654 H 1.06382 0.59276 -0.19527
 C655 C 0.86636 0.50200 -0.26939
 C656 C 0.86200 0.50507 -0.21250
 C657 C 0.84247 0.50777 -0.19855
 C658 C 0.82693 0.50753 -0.24311
 C659 C 0.82942 0.50415 -0.30411
 C660 C 0.85005 0.50093 -0.31610
 O661 O 0.88658 0.50039 -0.27265
 C662 C 0.89487 0.50231 -0.21688
 C663 C 0.88011 0.50490 -0.17859
 C664 C 0.88468 0.50646 -0.11836
 C665 C 0.90476 0.50540 -0.09607
 C666 C 0.92166 0.50344 -0.13203
 C667 C 0.91611 0.50192 -0.19484
 H668 H 0.83912 0.51011 -0.15354
 H669 H 0.81203 0.50910 -0.22803
 H670 H 0.85375 0.49831 -0.36055
 H671 H 0.87279 0.50825 -0.08846
 H672 H 0.90734 0.50649 -0.04934
 H673 H 0.92770 0.50006 -0.22558
 C674 C 0.48959 0.35856 -0.26022
 C675 C 0.51249 0.37291 -0.24127
 C676 C 0.53053 0.36818 -0.25821
 C677 C 0.52533 0.34843 -0.29544
 C678 C 0.50206 0.33212 -0.31691
 C679 C 0.48376 0.33776 -0.29751
 O680 O 0.47523 0.36676 -0.23958
 C681 C 0.48931 0.38651 -0.20684
 C682 C 0.51225 0.39075 -0.20636
 C683 C 0.52984 0.40990 -0.17425
 C684 C 0.52411 0.42519 -0.14167
 C685 C 0.50095 0.42274 -0.13997
 C686 C 0.48317 0.40247 -0.17460
 H687 H 0.54855 0.37965 -0.24327
 H688 H 0.53993 0.34567 -0.30695
 H689 H 0.46560 0.32655 -0.31174
 H690 H 0.54785 0.41306 -0.17379
 H691 H 0.53837 0.43955 -0.11763
 H692 H 0.46505 0.39898 -0.17586
 C693 C 0.63321 0.14196 -0.25316
 C694 C 0.64033 0.12559 -0.24364
 C695 C 0.66182 0.12913 -0.26730
 C696 C 0.67664 0.14985 -0.30131
 C697 C 0.67091 0.16795 -0.31441
 C698 C 0.64806 0.16326 -0.28912
 O699 O 0.61208 0.13505 -0.22543
 C700 C 0.60579 0.11395 -0.19824
 C701 C 0.62259 0.10747 -0.20872
 C702 C 0.61967 0.08607 -0.18613
 C703 C 0.59915 0.07069 -0.15218
 C704 C 0.58072 0.07579 -0.13784
 C705 C 0.58468 0.09852 -0.16221
 H706 H 0.66729 0.11612 -0.25953
 H707 H 0.69294 0.15154 -0.31847
 H708 H 0.64218 0.17597 -0.29628
 H709 H 0.63294 0.08105 -0.19490
 H710 H 0.59776 0.05434 -0.13639
 H711 H 0.57155 0.10382 -0.15454
 C712 C 1.14003 0.50309 -0.25387
 C713 C 1.12350 0.47965 -0.24427
 C714 C 1.12671 0.46157 -0.26848
 C715 C 1.14724 0.46727 -0.30312
 C716 C 1.16548 0.49104 -0.31637
 C717 C 1.16114 0.50935 -0.29047
 O718 O 1.13344 0.51746 -0.22555
 C719 C 1.11240 0.50280 -0.19791
 C720 C 1.10563 0.47946 -0.20869
 C721 C 1.08421 0.46112 -0.18575
 C722 C 1.06911 0.46645 -0.15116
 C723 C 1.07453 0.49005 -0.13644
 C724 C 1.09727 0.50868 -0.16121
 H725 H 1.11360 0.44313 -0.26065
 H726 H 1.14867 0.45257 -0.32064
 H727 H 1.17397 0.52790 -0.29765
 H728 H 1.07895 0.44278 -0.19477
 H729 H 1.05272 0.45159 -0.13519
 H730 H 1.10278 0.52715 -0.15337
 C731 C 0.49809 0.64029 -0.24642
 C732 C 0.51690 0.63785 -0.26400
 C733 C 0.53159 0.65168 -0.30963
 C734 C 0.52722 0.66853 -0.33891
 C735 C 0.50803 0.67277 -0.32504
 C736 C 0.49329 0.65781 -0.27591
 O737 O 0.48639 0.62488 -0.20146
 C738 C 0.49819 0.61267 -0.19082
 C739 C 0.51704 0.62026 -0.22835
 C740 C 0.53198 0.61051 -0.22594
 C741 C 0.52782 0.59244 -0.18454
 C742 C 0.50867 0.58287 -0.14329
 C743 C 0.49345 0.59380 -0.14753
 H744 H 0.54651 0.64969 -0.32270
 H745 H 0.53998 0.67870 -0.37214
 H746 H 0.47834 0.65943 -0.26132
 H747 H 0.54682 0.61671 -0.25576
 H748 H 0.54009 0.58576 -0.18537
 H749 H 0.47841 0.58780 -0.11852
 C750 C 0.35696 -0.13327 -0.26089
 C751 C 0.37119 -0.14191 -0.24156
 C752 C 0.36651 -0.16464 -0.25872
 C753 C 0.34693 -0.17904 -0.29653
 C754 C 0.33075 -0.17196 -0.31828
 C755 C 0.33633 -0.14809 -0.29869
 O756 O 0.36510 -0.11076 -0.24012
 C757 C 0.38468 -0.10521 -0.20687
 C758 C 0.38888 -0.12394 -0.20616
 C759 C 0.40788 -0.12245 -0.17343
 C760 C 0.42304 -0.10149 -0.14048
 C761 C 0.42058 -0.08079 -0.13921
 C762 C 0.40050 -0.08320 -0.17440
 H763 H 0.37788 -0.17127 -0.24355
 H764 H 0.34417 -0.19638 -0.30829
 H765 H 0.32521 -0.14106 -0.31316
 H766 H 0.41101 -0.13733 -0.17280
 H767 H 0.43731 -0.10141 -0.11596
 H768 H 0.39708 -0.06853 -0.17601
 C769 C 0.49644 -0.14142 0.24364
 C770 C 0.50797 -0.12051 0.27413
 C771 C 0.51701 -0.11994 0.32988
 C772 C 0.51453 -0.14108 0.35577
 C773 C 0.50333 -0.16390 0.32780
 C774 C 0.49385 -0.16351 0.26946
 O775 O 0.48896 -0.13764 0.19095
 C776 C 0.49599 -0.11393 0.18848
 C777 C 0.50777 -0.10288 0.23873
 C778 C 0.51697 -0.07841 0.24631
 C779 C 0.51430 -0.06457 0.20180
 C780 C 0.50228 -0.07406 0.14766
 C781 C 0.49276 -0.09994 0.14198
 H782 H 0.52579 -0.10337 0.35380
 H783 H 0.52139 -0.13917 0.39940
 H784 H 0.48486 -0.17981 0.24461
 H785 H 0.52626 -0.06990 0.28611
 H786 H 0.52184 -0.04578 0.21055
 H787 H 0.48344 -0.10886 0.10258
 C788 C 0.36326 0.49603 0.26319
 C789 C 0.36151 0.50397 0.20898
 C790 C 0.34376 0.50982 0.19772
 C791 C 0.32729 0.50756 0.24236
 C792 C 0.32786 0.49996 0.30051
 C793 C 0.34686 0.49418 0.31018
 O794 O 0.38122 0.49081 0.26391
 C795 C 0.39102 0.49567 0.20939
 C796 C 0.37961 0.50400 0.17447
 C797 C 0.38714 0.51071 0.11663
 C798 C 0.40673 0.50897 0.09342
 C799 C 0.41948 0.50005 0.12561
 C800 C 0.41085 0.49318 0.18583
 H801 H 0.34237 0.51589 0.15478
 H802 H 0.31390 0.51217 0.23123
 H803 H 0.34858 0.48801 0.35267
 H804 H 0.37819 0.51743 0.08947
 H805 H 0.41182 0.51449 0.04873
 H806 H 0.41952 0.48645 0.21390
 C807 C 1.13216 0.64100 0.25410
 C808 C 1.14075 0.62664 0.23553
 C809 C 1.16336 0.63120 0.25337
 C810 C 1.17770 0.65081 0.29111
 C811 C 1.17065 0.66710 0.31217
 C812 C 1.14691 0.66165 0.29187
 O813 O 1.10976 0.63296 0.23271
 C814 C 1.10424 0.61330 0.19986
 C815 C 1.12287 0.60894 0.20003
 C816 C 1.12138 0.58979 0.16804
 C817 C 1.10049 0.57460 0.13494
 C818 C 1.07992 0.57727 0.13260
 C819 C 1.08232 0.59750 0.16708
 H820 H 1.16995 0.61972 0.23874
 H821 H 1.19496 0.65348 0.30337
 H822 H 1.13993 0.67287 0.30578
 H823 H 1.13617 0.58653 0.16822
 H824 H 1.10035 0.56011 0.11130
 H825 H 1.06771 0.60102 0.16802
 C826 C 0.50259 0.14075 0.24791
 C827 C 0.47923 0.12468 0.23589
 C828 C 0.46102 0.12801 0.25866
 C829 C 0.46651 0.14822 0.29430
 C830 C 0.49017 0.16607 0.30986
 C831 C 0.50861 0.16157 0.28544
 O832 O 0.51711 0.13405 0.22081
 C833 C 0.50263 0.11340 0.19145
 C834 C 0.47925 0.10701 0.19994
 C835 C 0.46102 0.08605 0.17490
 C836 C 0.46651 0.07101 0.14057
 C837 C 0.49017 0.07602 0.12823
 C838 C 0.50869 0.09831 0.15515
 H839 H 0.44266 0.11522 0.24902
 H840 H 0.45168 0.14968 0.31074
 H841 H 0.52711 0.17408 0.29447
 H842 H 0.44264 0.08107 0.18213
 H843 H 0.45171 0.05494 0.12302
 H844 H 0.52718 0.10346 0.14933
 C845 C 0.64200 0.50979 0.25841
 C846 C 0.62768 0.48691 0.23929
 C847 C 0.63230 0.46883 0.25663
 C848 C 0.65190 0.47398 0.29437
 C849 C 0.66821 0.49724 0.31587
 C850 C 0.66268 0.51557 0.29611
 O851 O 0.63390 0.52420 0.23753
 C852 C 0.61425 0.51017 0.20443
 C853 C 0.60997 0.48721 0.20392
 C854 C 0.59093 0.46971 0.17132
 C855 C 0.57578 0.47553 0.13837
 C856 C 0.57823 0.49868 0.13688
 C857 C 0.59842 0.51638 0.17191
 H858 H 0.62084 0.45080 0.24166
 H859 H 0.65458 0.45936 0.30630
 H860 H 0.67388 0.53373 0.31038
 H861 H 0.58776 0.45169 0.17073
 H862 H 0.56154 0.46137 0.11390
 H863 H 0.60190 0.53449 0.17336
 C864 C 0.85641 0.36534 0.25134
 C865 C 0.87254 0.35799 0.24093
 C866 C 0.86886 0.33636 0.26395
 C867 C 0.84822 0.32162 0.29824
 C868 C 0.83035 0.32757 0.31222
 C869 C 0.83519 0.35057 0.28758
 O870 O 0.86345 0.38660 0.22410
 C871 C 0.88440 0.39272 0.19631
 C872 C 0.89063 0.37568 0.20597
 C873 C 0.91182 0.37836 0.18272
 C874 C 0.92727 0.39888 0.14896
 C875 C 0.92244 0.41757 0.13544
 C876 C 0.89990 0.41387 0.16046
 H877 H 0.88169 0.33073 0.25546
 H878 H 0.84642 0.30521 0.31491
 H879 H 0.82265 0.35662 0.29545
 H880 H 0.91665 0.36490 0.19087
 H881 H 0.94348 0.40009 0.13264
 H882 H 0.89483 0.42721 0.15347
   
