data_POSCAR
  _audit_creation_date              2014-09-24
  _audit_creation_method            'ToBaCCo'
  _symmetry_space_group_name_H-M    'P1'
  _symmetry_Int_Tables_number       1
  _symmetry_cell_setting            triclinic
  loop_
  _symmetry_equiv_pos_as_xyz
 x,y,z
_cell_length_a 30.5858
_cell_length_b 30.5762
_cell_length_c 33.5018
_cell_angle_alpha 90.102500
_cell_angle_beta 89.947600
_cell_angle_gamma 120.073000
loop_
  _atom_site_label
  _atom_site_type_symbol
  _atom_site_fract_x
  _atom_site_fract_y
  _atom_site_fract_z
O1 O 0.04807 0.55926 1.28861
 O2 O -0.05016 0.51003 1.21059
 O3 O -0.05022 0.50967 1.28837
 O4 O 0.04815 0.56025 1.21085
 O5 O 0.04879 0.48823 1.21021
 O6 O -0.04964 0.43763 1.28779
 O7 O -0.04952 0.43804 1.21001
 O8 O 0.04865 0.48722 1.28796
 Cu9 Cu -0.00111 0.54207 1.24966
 Cu10 Cu -0.00038 0.45550 1.24892
 C11 C 0.06487 0.53148 1.30150
 C12 C -0.06636 0.46574 1.19708
 C13 C -0.06644 0.46518 1.30123
 C14 C 0.06501 0.53277 1.19741
 O15 O 0.43996 0.49000 1.28998
 O16 O 0.48938 0.44096 1.21197
 O17 O 0.48934 0.44108 1.28975
 O18 O 0.43912 0.48896 1.21216
 O19 O 0.51116 0.56172 1.21179
 O20 O 0.56142 0.51380 1.28948
 O21 O 0.56140 0.51372 1.21170
 O22 O 0.51202 0.56270 1.28961
 Cu23 Cu 0.45718 0.45792 1.25101
 Cu24 Cu 0.54376 0.54532 1.25062
 C25 C 0.46771 0.53463 1.30301
 C26 C 0.53373 0.46912 1.19864
 C27 C 0.53382 0.46933 1.30273
 C28 C 0.46668 0.53335 1.19881
 O29 O 0.51006 0.95088 1.29064
 O30 O 0.55955 1.04924 1.21273
 O31 O 0.55913 1.04932 1.29053
 O32 O 0.51111 0.95090 1.21282
 O33 O 0.43853 0.95034 1.21228
 O34 O 0.48658 1.04881 1.29006
 O35 O 0.48697 1.04868 1.21225
 O36 O 0.43752 0.95039 1.29010
 Cu37 Cu 0.54227 1.00013 1.25175
 Cu38 Cu 0.45508 0.99950 1.25114
 C39 C 0.46544 0.93407 1.30357
 C40 C 0.53154 1.06548 1.19927
 C41 C 0.53097 1.06565 1.30345
 C42 C 0.46679 0.93412 1.19935
 O43 O 0.95194 0.51346 0.71062
 O44 O 1.05045 0.56151 0.78825
 O45 O 1.05033 0.56252 0.71043
 O46 O 0.95212 0.51325 0.78844
 O47 O 0.95144 0.44060 0.78785
 O48 O 1.04975 0.48992 0.70975
 O49 O 1.04979 0.48885 0.78757
 O50 O 0.95134 0.44084 0.71002
 Cu51 Cu 1.00128 0.54501 0.74949
 Cu52 Cu 1.00052 0.45773 0.74872
 C53 C 0.93507 0.46904 0.69718
 C54 C 1.06665 0.53322 0.80107
 C55 C 1.06659 0.53455 0.69686
 C56 C 0.93526 0.46867 0.80138
 O57 O 0.48664 0.43773 0.71138
 O58 O 0.43917 0.48856 0.78913
 O59 O 0.43811 0.48742 0.71135
 O60 O 0.48704 0.43822 0.78915
 O61 O 0.55987 0.51017 0.78866
 O62 O 0.51091 0.55941 0.71078
 O63 O 0.51200 0.56052 0.78856
 O64 O 0.55945 0.50972 0.71088
 Cu65 Cu 0.45539 0.45572 0.75031
 Cu66 Cu 0.54291 0.54222 0.74967
 C67 C 0.53104 0.46521 0.69797
 C68 C 0.46763 0.53309 0.80201
 C69 C 0.46625 0.53167 0.69788
 C70 C 0.53166 0.46589 0.80210
 O71 O 0.56188 0.04813 0.71068
 O72 O 0.51185 -0.05010 0.78836
 O73 O 0.51254 -0.05022 0.71055
 O74 O 0.56178 0.04820 0.78846
 O75 O 0.48968 0.04861 0.78822
 O76 O 0.44042 -0.04989 0.71022
 O77 O 0.43974 -0.04970 0.78803
 O78 O 0.48974 0.04847 0.71043
 Cu79 Cu 0.54429 -0.00104 0.74953
 Cu80 Cu 0.45761 -0.00060 0.74919
 C81 C 0.53420 0.06481 0.69741
 C82 C 0.46739 -0.06636 0.80138
 C83 C 0.46823 -0.06661 0.69716
 C84 C 0.53403 0.06494 0.80157
 O85 O 0.40794 0.66948 0.95460
 O86 O 0.41007 0.75474 0.96680
 C87 C 0.37853 0.76154 0.94711
 O88 O 0.33164 0.73868 0.95430
 O89 O 0.24624 0.65552 0.96621
 C90 C 0.23943 0.61701 0.94663
 O91 O 0.26223 0.59302 0.95402
 O92 O 0.34527 0.59092 0.96655
 C93 C 0.38392 0.62261 0.94716
 O94 O 0.40961 0.65558 1.03399
 O95 O 0.40743 0.73869 1.04620
 C96 C 0.38340 0.76151 1.05346
 O97 O 0.34503 0.75465 1.03375
 O98 O 0.26180 0.66928 1.04565
 C99 C 0.23887 0.62239 1.05287
 O100 O 0.24583 0.59077 1.03335
 O101 O 0.33102 0.59295 1.04589
 C102 C 0.37785 0.61700 1.05340
 Cr103 Cr 0.40596 0.70322 1.00039
 Cr104 Cr 0.29758 0.70314 0.99999
 Cr105 Cr 0.29750 0.59472 0.99996
 O106 O 0.33368 0.66702 1.00012
 O107 O 0.59280 0.33108 0.95488
 O108 O 0.59072 0.24572 0.96659
 C109 C 0.62225 0.23844 0.94725
 O110 O 0.66908 0.26109 0.95476
 O111 O 0.75454 0.34450 0.96633
 C112 C 0.76185 0.38334 0.94707
 O113 O 0.73929 0.40756 0.95468
 O114 O 0.65597 0.40955 0.96646
 C115 C 0.61704 0.37789 0.94727
 O116 O 0.59090 0.34455 1.03444
 O117 O 0.59296 0.26127 1.04615
 C118 C 0.61717 0.23871 1.05369
 O119 O 0.65599 0.24598 1.03436
 O120 O 0.73938 0.33148 1.04592
 C121 C 0.76199 0.37834 1.05347
 O122 O 0.75467 0.40985 1.03424
 O123 O 0.66931 0.40778 1.04602
 C124 C 0.62249 0.38355 1.05363
 Cr125 Cr 0.59473 0.29710 1.00051
 Cr126 Cr 0.70330 0.29720 1.00035
 Cr127 Cr 0.70337 0.40580 1.00035
 O128 O 0.66714 0.33337 1.00041
 O129 O 0.65472 0.40876 0.53339
 O130 O 0.73785 0.40670 0.54549
 C131 C 0.76086 0.38287 0.55266
 O132 O 0.75394 0.34433 0.53305
 O133 O 0.66859 0.26117 0.54530
 C134 C 0.62171 0.23814 0.55257
 O135 O 0.59004 0.24491 0.53303
 O136 O 0.59219 0.33016 0.54544
 C137 C 0.61615 0.37703 0.55285
 O138 O 0.66860 0.40674 0.45399
 O139 O 0.75384 0.40888 0.46608
 C140 C 0.76061 0.37719 0.44645
 O141 O 0.73767 0.33031 0.45370
 O142 O 0.65455 0.24494 0.46594
 C143 C 0.61603 0.23803 0.44640
 O144 O 0.59220 0.26104 0.45367
 O145 O 0.59006 0.34416 0.46612
 C146 C 0.62173 0.38283 0.44671
 Cr147 Cr 0.70235 0.40497 0.49973
 Cr148 Cr 0.70229 0.29659 0.49950
 Cr149 Cr 0.59392 0.29647 0.49956
 O150 O 0.66619 0.33268 0.49960
 O151 O 0.33123 0.59284 0.54539
 O152 O 0.24579 0.59066 0.53389
 C153 C 0.23851 0.62220 0.55324
 O154 O 0.26117 0.66904 0.54574
 O155 O 0.34456 0.75448 0.53407
 C156 C 0.38352 0.76184 0.55317
 O157 O 0.40773 0.73931 0.54541
 O158 O 0.40962 0.65592 0.53355
 C159 C 0.37808 0.61708 0.55285
 O160 O 0.34427 0.59066 0.46580
 O161 O 0.26095 0.59271 0.45431
 C162 C 0.23841 0.61696 0.44684
 O163 O 0.24578 0.65585 0.46616
 O164 O 0.33118 0.73930 0.45448
 C165 C 0.37797 0.76190 0.44680
 O166 O 0.40955 0.75452 0.46588
 O167 O 0.40734 0.66906 0.45401
 C168 C 0.38310 0.62219 0.44648
 Cr169 Cr 0.29701 0.59461 0.49985
 Cr170 Cr 0.29711 0.70322 0.50010
 Cr171 Cr 0.40567 0.70326 0.49972
 O172 O 0.33326 0.66704 0.49989
 C173 C 0.44980 0.55265 0.33200
 C174 C 0.43419 0.56871 0.35793
 C175 C 0.41620 0.58751 0.38853
 C176 C 0.40103 0.60345 0.41486
 C177 C 0.44730 0.89816 0.33253
 C178 C 0.43121 0.86651 0.35842
 C179 C 0.41245 0.82973 0.38897
 C180 C 0.39659 0.79861 0.41525
 C181 C 0.10270 0.55033 0.33220
 C182 C 0.13421 0.56589 0.35819
 C183 C 0.17082 0.58384 0.38885
 C184 C 0.20182 0.59901 0.41523
 C185 C 0.55314 0.45068 0.33315
 C186 C 0.56911 0.43496 0.35889
 C187 C 0.58757 0.41659 0.38924
 C188 C 0.60320 0.40105 0.41536
 C189 C 0.54859 0.10162 0.33233
 C190 C 0.56423 0.13333 0.35817
 C191 C 0.58246 0.17015 0.38865
 C192 C 0.59790 0.20131 0.41490
 C193 C 0.89577 0.44583 0.33181
 C194 C 0.86433 0.42983 0.35778
 C195 C 0.82788 0.41136 0.38844
 C196 C 0.79702 0.39571 0.41483
 C197 C 0.55292 0.45031 1.16801
 C198 C 0.56907 0.43479 1.14210
 C199 C 0.58793 0.41683 1.11153
 C200 C 0.60385 0.40162 1.08522
 C201 C 0.89783 0.44771 1.16804
 C202 C 0.86628 0.43169 1.14207
 C203 C 0.82964 0.41297 1.11143
 C204 C 0.79861 0.39707 1.08507
 C205 C 0.55047 0.10329 1.16856
 C206 C 0.56608 0.13475 1.14253
 C207 C 0.58408 0.17128 1.11180
 C208 C 0.59926 0.20220 1.08537
 C209 C 0.44727 0.55165 1.16819
 C210 C 0.43101 0.56677 1.14221
 C211 C 0.41216 0.58429 1.11153
 C212 C 0.39630 0.59920 1.08510
 C213 C 0.10294 0.55234 1.16693
 C214 C 0.13454 0.56871 1.14109
 C215 C 0.17121 0.58770 1.11060
 C216 C 0.20226 0.60370 1.08434
 C217 C 0.44846 0.89637 1.16863
 C218 C 0.43332 0.86500 1.14254
 C219 C 0.41583 0.82863 1.11174
 C220 C 0.40100 0.79785 1.08522
 C221 C 0.54941 0.44574 0.66738
 C222 C 0.56484 0.42967 0.64144
 C223 C 0.58286 0.41114 0.61082
 C224 C 0.59814 0.39549 0.58446
 C225 C 0.55337 0.10262 0.66686
 C226 C 0.56925 0.13412 0.64096
 C227 C 0.58761 0.17066 0.61039
 C228 C 0.60321 0.20162 0.58408
 C229 C 0.89709 0.45041 0.66669
 C230 C 0.86543 0.43475 0.64085
 C231 C 0.82868 0.41648 0.61037
 C232 C 0.79756 0.40102 0.58413
 C233 C 0.44728 0.55053 0.66725
 C234 C 0.43131 0.56608 0.64131
 C235 C 0.41263 0.58402 0.61072
 C236 C 0.39677 0.59918 0.58440
 C237 C 0.45039 0.89756 0.66808
 C238 C 0.43480 0.86601 0.64205
 C239 C 0.41680 0.82939 0.61132
 C240 C 0.40157 0.79841 0.58488
 C241 C 0.10246 0.55264 0.66782
 C242 C 0.13407 0.56875 0.64186
 C243 C 0.17079 0.58756 0.61123
 C244 C 0.20187 0.60349 0.58487
 C245 C 0.44944 0.55271 0.83261
 C246 C 0.43434 0.56910 0.85856
 C247 C 0.41680 0.58808 0.88919
 C248 C 0.40182 0.60403 0.91556
 C249 C 0.10446 0.55157 0.83170
 C250 C 0.13590 0.56673 0.85769
 C251 C 0.17233 0.58429 0.88841
 C252 C 0.20313 0.59922 0.91488
 C253 C 0.44813 0.89602 0.83207
 C254 C 0.43199 0.86475 0.85814
 C255 C 0.41320 0.82851 0.88893
 C256 C 0.39728 0.79780 0.91542
 C257 C 0.55043 0.44684 0.83274
 C258 C 0.56594 0.43084 0.85868
 C259 C 0.58387 0.41219 0.88931
 C260 C 0.59905 0.39641 0.91566
 C261 C 0.89743 0.44980 0.83214
 C262 C 0.86594 0.43428 0.85818
 C263 C 0.82936 0.41636 0.88893
 C264 C 0.79840 0.40123 0.91536
 C265 C 0.55306 0.10280 0.83231
 C266 C 0.56904 0.13430 0.85837
 C267 C 0.58771 0.17088 0.88912
 C268 C 0.60356 0.20185 0.91557
   
