data_POSCAR
  _audit_creation_date              2014-09-24
  _audit_creation_method            'ToBaCCo'
  _symmetry_space_group_name_H-M    'P1'
  _symmetry_Int_Tables_number       1
  _symmetry_cell_setting            triclinic
  loop_
  _symmetry_equiv_pos_as_xyz
 x,y,z
_cell_length_a 38.3296
_cell_length_b 39.6626
_cell_length_c 34.2557
_cell_angle_alpha 88.797000
_cell_angle_beta 89.237200
_cell_angle_gamma 89.641900
loop_
  _atom_site_label
  _atom_site_type_symbol
  _atom_site_fract_x
  _atom_site_fract_y
  _atom_site_fract_z
N1 N 0.18748 0.22464 0.28341
 N2 N 0.21805 0.21018 0.28857
 C3 C 0.21619 0.18898 0.31963
 C4 C 0.18218 0.18921 0.33402
 C5 C 0.16480 0.21257 0.31056
 H6 H 0.23705 0.17192 0.32794
 H7 H 0.13724 0.21864 0.31150
 Cu8 Cu 0.25453 0.21277 0.24855
 Cu9 Cu 0.17957 0.25451 0.23844
 Cu10 Cu 0.22301 0.22365 0.15771
 N11 N 0.28155 0.20012 0.20296
 N12 N 0.26804 0.20106 0.16784
 C13 C 0.28897 0.18332 0.14368
 C14 C 0.31727 0.17108 0.16483
 C15 C 0.31184 0.18287 0.20223
 H16 H 0.28340 0.17866 0.11339
 H17 H 0.32659 0.17641 0.22803
 N18 N 0.18307 0.25615 0.15397
 N19 N 0.16801 0.26893 0.18531
 C20 C 0.14388 0.29183 0.17450
 C21 C 0.14309 0.29342 0.13429
 C22 C 0.16821 0.27040 0.12203
 H23 H 0.12767 0.30595 0.19450
 H24 H 0.17570 0.26515 0.09221
 H25 H 0.20100 0.21407 0.21146
 H26 H 0.22710 0.25355 0.20480
 N27 N -0.13505 0.80674 0.25858
 N28 N -0.15759 0.83092 0.26604
 C29 C -0.14594 0.84901 0.29593
 C30 C -0.11404 0.83591 0.30721
 C31 C -0.10778 0.80913 0.28277
 H32 H -0.15848 0.87143 0.30701
 H33 H -0.08486 0.79309 0.28199
 Cu34 Cu -0.19656 0.83978 0.23150
 Cu35 Cu -0.14222 0.77571 0.21620
 Cu36 Cu -0.22630 0.77665 0.17801
 N37 N -0.23507 0.84662 0.19591
 N38 N -0.24843 0.82153 0.17670
 C39 C -0.27674 0.83291 0.15724
 C40 C -0.28045 0.86727 0.16363
 C41 C -0.25334 0.87495 0.18823
 H42 H -0.29280 0.81758 0.13898
 H43 H -0.24792 0.89909 0.20081
 N44 N -0.19262 0.73894 0.17046
 N45 N -0.16097 0.73892 0.18527
 C46 C -0.14423 0.71043 0.17538
 C47 C -0.16591 0.69169 0.15259
 C48 C -0.19646 0.71053 0.14986
 H49 H -0.11776 0.70407 0.18339
 H50 H -0.21956 0.70423 0.13384
 H51 H -0.17990 0.80002 0.18109
 H52 H -0.19443 0.77848 0.22734
 N53 N -0.16426 0.17368 -0.26984
 N54 N -0.18137 0.14646 -0.25854
 C55 C -0.16426 0.11907 -0.27154
 C56 C -0.13499 0.12981 -0.29238
 C57 C -0.13607 0.16461 -0.29109
 H58 H -0.17271 0.09336 -0.26656
 H59 H -0.11719 0.18202 -0.30365
 Cu60 Cu -0.22497 0.14964 -0.22882
 Cu61 Cu -0.17857 0.21846 -0.25302
 Cu62 Cu -0.22775 0.21394 -0.16756
 N63 N -0.26343 0.15463 -0.19159
 N64 N -0.26408 0.17995 -0.16747
 C65 C -0.29171 0.17680 -0.14314
 C66 C -0.30968 0.14789 -0.15258
 C67 C -0.29095 0.13451 -0.18366
 H68 H -0.29762 0.19411 -0.11999
 H69 H -0.29633 0.11135 -0.19853
 N70 N -0.19966 0.25342 -0.18303
 N71 N -0.18302 0.25627 -0.21692
 C72 C -0.16570 0.28574 -0.21834
 C73 C -0.17144 0.30184 -0.18337
 C74 C -0.19307 0.28069 -0.16177
 H75 H -0.14771 0.29332 -0.24144
 H76 H -0.20209 0.28427 -0.13209
 H77 H -0.18850 0.19352 -0.20241
 H78 H -0.22813 0.21134 -0.22639
 N79 N 0.19465 0.77106 -0.27028
 N80 N 0.21611 0.79669 -0.26870
 C81 C 0.21029 0.81771 -0.29931
 C82 C 0.18332 0.80478 -0.32085
 C83 C 0.17442 0.77487 -0.30188
 H84 H 0.22224 0.84221 -0.30330
 H85 H 0.15285 0.75858 -0.30844
 Cu86 Cu 0.24454 0.80344 -0.22280
 Cu87 Cu 0.18917 0.73923 -0.22658
 Cu88 Cu 0.20332 0.77938 -0.13970
 N89 N 0.26133 0.81668 -0.17226
 N90 N 0.24414 0.80861 -0.13996
 C91 C 0.25893 0.82395 -0.10974
 C92 C 0.28733 0.84227 -0.12385
 C93 C 0.28818 0.83678 -0.16367
 H94 H 0.24959 0.82171 -0.07989
 H95 H 0.30600 0.84782 -0.18503
 N96 N 0.17328 0.73920 -0.14381
 N97 N 0.17019 0.72275 -0.17666
 C98 C 0.14890 0.69639 -0.17072
 C99 C 0.13748 0.69635 -0.13236
 C100 C 0.15358 0.72375 -0.11592
 H101 H 0.14083 0.67953 -0.19329
 H102 H 0.15092 0.73204 -0.08616
 H103 H 0.18878 0.78299 -0.19724
 H104 H 0.22578 0.75434 -0.18408
 N105 N 0.19798 1.16959 0.76469
 N106 N 0.16856 1.18623 0.77000
 C107 C 0.14346 1.17237 0.74852
 C108 C 0.15810 1.14589 0.72819
 C109 C 0.19282 1.14506 0.73880
 H110 H 0.11672 1.18117 0.74737
 H111 H 0.21256 1.12728 0.72938
 Cu112 Cu 0.16628 1.22540 0.80319
 Cu113 Cu 0.23981 1.17999 0.79423
 Cu114 Cu 0.21862 1.22072 0.88011
 N115 N 0.16414 1.25892 0.84376
 N116 N 0.18402 1.25610 0.87462
 C117 C 0.17591 1.28064 0.89968
 C118 C 0.14993 1.30031 0.88326
 C119 C 0.14307 1.28592 0.84771
 H120 H 0.18827 1.28398 0.92752
 H121 H 0.12354 1.29392 0.82693
 N122 N 0.26220 1.19571 0.87240
 N123 N 0.27123 1.18127 0.83939
 C124 C 0.30235 1.16584 0.84415
 C125 C 0.31319 1.17089 0.88202
 C126 C 0.28715 1.19012 0.89889
 H127 H 0.31513 1.15042 0.82248
 H128 H 0.28576 1.19871 0.92859
 H129 H 0.20513 1.18633 0.83749
 H130 H 0.22769 1.22591 0.82147
 N131 N 0.79582 0.83890 0.72106
 N132 N 0.82121 0.81626 0.71936
 C133 C 0.84298 0.82466 0.68959
 C134 C 0.83094 0.85417 0.67186
 C135 C 0.80080 0.86224 0.69245
 H136 H 0.86751 0.81205 0.68355
 H137 H 0.78551 0.88512 0.68950
 Cu138 Cu 0.82880 0.78199 0.76125
 Cu139 Cu 0.76347 0.84268 0.76630
 Cu140 Cu 0.78988 0.80045 0.84612
 N141 N 0.82190 0.74753 0.80271
 N142 N 0.80636 0.75555 0.83567
 C143 C 0.80538 0.72865 0.85991
 C144 C 0.82146 0.70195 0.84160
 C145 C 0.83182 0.71483 0.80519
 H146 H 0.79472 0.72916 0.88925
 H147 H 0.84635 0.70173 0.78280
 N148 N 0.75805 0.83788 0.84959
 N149 N 0.74486 0.85232 0.81817
 C150 C 0.71835 0.87268 0.82894
 C151 C 0.71574 0.87126 0.86927
 C152 C 0.74136 0.84917 0.88146
 H153 H 0.70205 0.88702 0.80903
 H154 H 0.74566 0.83995 0.91097
 H155 H 0.81188 0.82758 0.78727
 H156 H 0.77989 0.79337 0.77688
 N157 N 0.17846 0.82607 1.21108
 N158 N 0.14839 0.82405 1.19297
 C159 C 0.12427 0.84226 1.21241
 C160 C 0.13999 0.85633 1.24438
 C161 C 0.17429 0.84534 1.24270
 H162 H 0.09721 0.84462 1.20418
 H163 H 0.19499 0.85182 1.26230
 Cu164 Cu 0.14198 0.79596 1.14668
 Cu165 Cu 0.22204 0.80697 1.18986
 Cu166 Cu 0.21415 0.75918 1.11110
 N167 N 0.14014 0.75535 1.11548
 N168 N 0.16850 0.73960 1.10352
 C169 C 0.15941 0.71141 1.08496
 C170 C 0.12338 0.70991 1.08462
 C171 C 0.11202 0.73824 1.10412
 H172 H 0.17755 0.69372 1.07204
 H173 H 0.08532 0.74537 1.11064
 N174 N 0.25640 0.78456 1.11994
 N175 N 0.26022 0.80165 1.15206
 C176 C 0.29074 0.81818 1.15005
 C177 C 0.30644 0.81190 1.11433
 C178 C 0.28396 0.79028 1.09596
 H179 H 0.29929 0.83596 1.17141
 H180 H 0.28646 0.78081 1.06667
 H181 H 0.19364 0.81133 1.14076
 H182 H 0.18336 0.77332 1.17162
 N183 N 0.80134 1.16946 1.26940
 N184 N 0.82614 1.19217 1.27096
 C185 C 0.85367 1.17864 1.28984
 C186 C 0.84574 1.14561 1.30009
 C187 C 0.81229 1.14066 1.28684
 H188 H 0.87821 1.19123 1.29426
 H189 H 0.79712 1.11779 1.28941
 Cu190 Cu 0.82051 1.23525 1.24334
 Cu191 Cu 0.75667 1.17900 1.24452
 Cu192 Cu 0.76027 1.24424 1.17512
 N193 N 0.81461 1.27839 1.21589
 N194 N 0.79105 1.28132 1.18840
 C195 C 0.79555 1.31081 1.16897
 C196 C 0.82331 1.32742 1.18512
 C197 C 0.83474 1.30615 1.21502
 H198 H 0.78135 1.31846 1.14315
 H199 H 0.85790 1.30920 1.23222
 N200 N 0.72300 1.21004 1.17697
 N201 N 0.72090 1.18625 1.20444
 C202 C 0.69338 1.16651 1.19742
 C203 C 0.67757 1.17815 1.16368
 C204 C 0.69694 1.20590 1.15154
 H205 H 0.68665 1.14402 1.21420
 H206 H 0.69297 1.22136 1.12561
 H207 H 0.78422 1.20209 1.20108
 H208 H 0.75818 1.23116 1.23222
 O209 O 0.52255 0.94988 0.96411
 O210 O 0.46325 0.96403 1.08613
 O211 O 0.57073 0.98826 1.05290
 O212 O 0.41188 0.98330 0.98250
 O213 O 0.52991 0.96304 1.08925
 O214 O 0.45868 0.95825 0.95852
 O215 O 0.44959 0.95106 1.02755
 O216 O 0.56678 0.97991 0.98263
 C217 C 0.55469 0.95305 0.96888
 C218 C 0.44948 0.94401 1.06309
 C219 C 0.56125 0.96570 1.07776
 C220 C 0.42576 0.96319 0.95654
 O221 O 0.47094 1.02394 0.93954
 O222 O 0.52994 1.02764 1.09493
 O223 O 0.54068 1.04589 0.97552
 O224 O 0.42558 1.00855 1.05251
 O225 O 0.46546 1.03175 1.08612
 O226 O 0.53393 1.00947 0.93353
 O227 O 0.44417 1.03802 0.99195
 O228 O 0.54842 1.05278 1.04264
 Co229 Co 0.49657 0.98717 0.95576
 Co230 Co 0.49691 0.99675 1.08247
 Co231 Co 0.55232 1.01538 1.01312
 Co232 Co 0.44958 0.99500 1.00938
 O233 O 0.50066 0.99990 1.01834
 C234 C 0.45192 1.04442 0.95739
 C235 C 0.54561 1.05171 1.07863
 C236 C 0.54506 1.03760 0.94162
 C237 C 0.43459 1.03128 1.07491
 O238 O 0.01643 0.45781 0.04227
 O239 O 0.00423 0.52566 -0.09005
 O240 O 0.02008 0.44790 -0.02621
 O241 O -0.01135 0.56195 0.01677
 O242 O 0.00425 0.46132 -0.08454
 O243 O 0.02281 0.52020 0.03389
 O244 O -0.01991 0.56502 -0.05309
 O245 O -0.01010 0.41208 0.02260
 C246 C 0.01221 0.42591 0.04620
 C247 C 0.00231 0.55574 -0.07880
 C248 C 0.02564 0.44743 -0.06201
 C249 C 0.01827 0.55111 0.02696
 O250 O -0.03885 0.52912 0.06678
 O251 O -0.06510 0.46337 -0.08237
 O252 O -0.06825 0.44296 0.01393
 O253 O -0.08675 0.54318 -0.04191
 O254 O -0.06163 0.52585 -0.09381
 O255 O -0.05090 0.46784 0.06475
 O256 O -0.07834 0.53595 0.02583
 O257 O -0.04024 0.42472 -0.04685
 Co258 Co -0.01469 0.49383 0.04533
 Co259 Co -0.02957 0.49384 -0.08085
 Co260 Co -0.02453 0.44817 -0.00564
 Co261 Co -0.04772 0.54729 -0.01281
 O262 O -0.03076 0.49745 -0.01663
 C263 C -0.06855 0.53983 0.05935
 C264 C -0.06301 0.43333 -0.07099
 C265 C -0.07300 0.44977 0.04866
 C266 C -0.08544 0.54218 -0.07791
 O267 O 1.09531 0.03139 0.45650
 O268 O 0.99076 0.04521 0.53096
 O269 O 0.99740 0.01689 0.40548
 O270 O 1.07022 0.00543 0.57792
 O271 O 0.98322 0.04122 0.46045
 O272 O 1.10286 0.02815 0.53030
 O273 O 1.00625 0.01195 0.57875
 O274 O 1.04252 0.04596 0.44345
 C275 C 1.07416 0.05266 0.44322
 C276 C 0.99444 0.04002 0.56665
 C277 C 0.97678 0.03771 0.42433
 C278 C 1.09392 0.02568 0.56587
 O279 O 1.10735 -0.03549 0.52729
 O280 O 0.96486 -0.02412 0.47094
 O281 O 1.06231 -0.01095 0.41357
 O282 O 1.00238 -0.05251 0.54812
 O283 O 0.96331 -0.01577 0.54177
 O284 O 1.09470 -0.03587 0.45644
 O285 O 1.06254 -0.05894 0.55374
 O286 O 1.00986 -0.04030 0.43904
 Co287 Co 1.09390 -0.00296 0.49280
 Co288 Co 0.98131 0.00991 0.50082
 Co289 Co 1.02572 0.00238 0.44440
 Co290 Co 1.03501 -0.02185 0.55956
 O291 O 1.03700 -0.00470 0.50123
 C292 C 1.09428 -0.05883 0.54710
 C293 C 0.97910 -0.04516 0.44905
 C294 C 1.08501 -0.03266 0.42194
 C295 C 0.97135 -0.04526 0.55069
 C296 C 1.11661 0.13849 0.38564
 C297 C 1.13775 0.11531 0.40594
 N298 N 1.17289 0.11866 0.40458
 C299 C 1.18812 0.14363 0.38286
 C300 C 1.16725 0.16626 0.36093
 N301 N 1.13179 0.16345 0.36366
 N302 N 1.08139 0.13441 0.38641
 C303 C 1.06648 0.10778 0.40600
 C304 C 1.08784 0.08399 0.42534
 N305 N 1.12296 0.08874 0.42508
 H306 H 1.21626 0.14519 0.38235
 H307 H 1.03845 0.10472 0.40550
 C308 C 0.91624 -0.11288 0.38898
 C309 C 0.95253 -0.11289 0.38285
 N310 N 0.96664 -0.13207 0.35421
 C311 C 0.94601 -0.15060 0.33083
 C312 C 0.90952 -0.14905 0.33554
 N313 N 0.89564 -0.13044 0.36489
 N314 N 0.90198 -0.09387 0.41755
 C315 C 0.92223 -0.07393 0.43954
 C316 C 0.95835 -0.07209 0.43188
 N317 N 0.97273 -0.09213 0.40399
 H318 H 0.95788 -0.16498 0.30762
 H319 H 0.90992 -0.05834 0.46139
 C320 C 0.93474 0.10400 0.63796
 C321 C 0.93904 0.06972 0.64786
 N322 N 0.91991 0.05593 0.67767
 C323 C 0.89628 0.07475 0.69780
 C324 C 0.89153 0.10900 0.68770
 N325 N 0.91129 0.12287 0.65820
 N326 N 0.95267 0.11737 0.60693
 C327 C 0.97410 0.09782 0.58477
 C328 C 0.97790 0.06333 0.59414
 N329 N 0.96049 0.05026 0.62584
 H330 H 0.88132 0.06300 0.72131
 H331 H 0.98711 0.10880 0.55935
 C332 C 1.15828 -0.12894 0.60697
 C333 C 1.12251 -0.13511 0.60275
 N334 N 1.10801 -0.16249 0.62078
 C335 C 1.12748 -0.18358 0.64361
 C336 C 1.16295 -0.17647 0.64956
 N337 N 1.17750 -0.14940 0.63065
 N338 N 1.17285 -0.10165 0.58886
 C339 C 1.15310 -0.07976 0.56741
 C340 C 1.11691 -0.08488 0.56478
 N341 N 1.10255 -0.11275 0.58228
 H342 H 1.11487 -0.20464 0.65838
 H343 H 1.16533 -0.05779 0.55403
 C344 C 0.36260 1.10756 1.10716
 C345 C 0.39126 1.09960 1.13084
 N346 N 0.39541 1.11617 1.16467
 C347 C 0.37204 1.14001 1.17624
 C348 C 0.34309 1.14813 1.15267
 N349 N 0.33948 1.13176 1.11835
 N350 N 0.35782 1.09028 1.07392
 C351 C 0.38031 1.06534 1.06331
 C352 C 0.40925 1.05744 1.08677
 N353 N 0.41413 1.07507 1.11995
 H354 H 0.37635 1.15252 1.20347
 H355 H 0.37591 1.05221 1.03647
 C356 C 0.36033 0.89722 0.89678
 C357 C 0.35295 0.90608 0.93545
 N358 N 0.32469 0.89280 0.95423
 C359 C 0.30317 0.87122 0.93602
 C360 C 0.30971 0.86307 0.89670
 N361 N 0.33837 0.87637 0.87820
 N362 N 0.38940 0.90954 0.87852
 C363 C 0.41132 0.93052 0.89719
 C364 C 0.40332 0.94024 0.93545
 N365 N 0.37428 0.92768 0.95368
 H366 H 0.28082 0.86137 0.95198
 H367 H 0.43434 0.94001 0.88211
 C368 C 0.63874 0.89827 1.11948
 C369 C 0.64322 0.93331 1.12123
 N370 N 0.67255 0.94571 1.13707
 C371 C 0.69769 0.92477 1.15141
 C372 C 0.69390 0.88948 1.14903
 N373 N 0.66436 0.87719 1.13277
 N374 N 0.60857 0.88597 1.10521
 C375 C 0.58278 0.90713 1.09250
 C376 C 0.58769 0.94220 1.09324
 N377 N 0.61796 0.95442 1.10750
 H378 H 0.72072 0.93584 1.16359
 H379 H 0.55904 0.89675 1.08108
 C380 C 0.61995 1.08942 0.87237
 C381 C 0.60621 1.10360 0.90648
 N382 N 0.61935 1.13295 0.91930
 C383 C 0.64608 1.14860 0.89997
 C384 C 0.66100 1.13389 0.86645
 N385 N 0.64709 1.10469 0.85334
 N386 N 0.60679 1.05993 0.85969
 C387 C 0.58101 1.04362 0.88010
 C388 C 0.56822 1.05712 0.91519
 N389 N 0.58102 1.08705 0.92723
 H390 H 0.65587 1.17180 0.91148
 H391 H 0.57166 1.01971 0.86990
 C392 C 0.08485 0.36493 0.10730
 C393 C 0.07304 0.35560 0.07051
 N394 N 0.08556 0.32689 0.05428
 C395 C 0.10907 0.30686 0.07341
 C396 C 0.11999 0.31555 0.11089
 N397 N 0.10756 0.34453 0.12678
 N398 N 0.07332 0.39416 0.12305
 C399 C 0.05027 0.41447 0.10375
 C400 C 0.03750 0.40472 0.06750
 N401 N 0.04931 0.37544 0.05166
 H402 H 0.11830 0.28395 0.06002
 H403 H 0.04152 0.43765 0.11690
 C404 C -0.12727 0.35753 -0.11470
 C405 C -0.11460 0.38336 -0.13960
 N406 N -0.12134 0.38251 -0.17841
 C407 C -0.13998 0.35683 -0.19347
 C408 C -0.15280 0.33107 -0.16850
 N409 N -0.14624 0.33227 -0.12963
 N410 N -0.11934 0.35738 -0.07624
 C411 C -0.09899 0.38181 -0.06149
 C412 C -0.08638 0.40781 -0.08621
 N413 N -0.09469 0.40814 -0.12476
 H414 H -0.14473 0.35652 -0.22453
 H415 H -0.09276 0.38099 -0.03075
 C416 C 0.07728 0.62421 -0.12308
 C417 C 0.06109 0.62944 -0.08672
 N418 N 0.07076 0.65610 -0.06513
 C419 C 0.09576 0.67791 -0.07843
 C420 C 0.11162 0.67292 -0.11516
 N421 N 0.10185 0.64606 -0.13642
 N422 N 0.06828 0.59734 -0.14450
 C423 C 0.04381 0.57522 -0.13114
 C424 C 0.02731 0.58038 -0.09486
 N425 N 0.03634 0.60751 -0.07347
 H426 H 0.10273 0.69906 -0.06077
 H427 H 0.03732 0.55382 -0.14869
 C428 C -0.11544 0.61474 0.12839
 C429 C -0.13151 0.60436 0.09417
 N430 N -0.16021 0.62123 0.08112
 C431 C -0.17315 0.64844 0.10034
 C432 C -0.15609 0.65983 0.13364
 N433 N -0.12780 0.64231 0.14696
 N434 N -0.08665 0.59817 0.14142
 C435 C -0.07253 0.57220 0.12118
 C436 C -0.08741 0.56277 0.08575
 N437 N -0.11694 0.57891 0.07338
 H438 H -0.19556 0.66179 0.08878
 H439 H -0.04896 0.56014 0.13173
 C440 C 1.14378 0.08872 0.64563
 C441 C 1.10832 0.08069 0.65047
 N442 N 1.08973 0.09433 0.68030
 C443 C 1.10498 0.11563 0.70552
 C444 C 1.14063 0.12325 0.70116
 N445 N 1.15918 0.10942 0.67127
 N446 N 1.16209 0.07614 0.61499
 C447 C 1.14656 0.05590 0.58890
 C448 C 1.11123 0.04731 0.59399
 N449 N 1.09294 0.05988 0.62486
 H450 H 1.08955 0.12609 0.72908
 H451 H 1.16174 0.04628 0.56464
 C452 C 0.90338 -0.11384 0.60868
 C453 C 0.89178 -0.08120 0.59856
 N454 N 0.85948 -0.07106 0.61028
 C455 C 0.83856 -0.09179 0.63233
 C456 C 0.85066 -0.12408 0.64380
 N457 N 0.88276 -0.13432 0.63113
 N458 N 0.93572 -0.12403 0.59741
 C459 C 0.95735 -0.10285 0.57715
 C460 C 0.94642 -0.06966 0.56811
 N461 N 0.91357 -0.05974 0.57871
 H462 H 0.81321 -0.08266 0.64157
 H463 H 0.98323 -0.11159 0.56915
 C464 C 1.12830 -0.09592 0.33574
 C465 C 1.09652 -0.07904 0.32939
 N466 N 1.07923 -0.08383 0.29562
 C467 C 1.09230 -0.10469 0.26787
 C468 C 1.12436 -0.12136 0.27395
 N469 N 1.14155 -0.11640 0.30788
 N470 N 1.14529 -0.09178 0.36977
 C471 C 1.13194 -0.07153 0.39787
 C472 C 1.10027 -0.05426 0.39157
 N473 N 1.08332 -0.05844 0.35727
 H474 H 1.07799 -0.10781 0.24121
 H475 H 1.14604 -0.06880 0.42479
 C476 C 0.91270 0.10865 0.36562
 C477 C 0.91189 0.07441 0.35594
 N478 N 0.88925 0.06404 0.32857
 C479 C 0.86739 0.08635 0.31045
 C480 C 0.86865 0.12073 0.31955
 N481 N 0.89147 0.13104 0.34690
 N482 N 0.93422 0.11887 0.39413
 C483 C 0.95496 0.09639 0.41347
 C484 C 0.95474 0.06224 0.40336
 N485 N 0.93323 0.05202 0.37464
 H486 H 0.84962 0.07743 0.28871
 H487 H 0.97179 0.10516 0.43623
 C488 C 0.09664 0.37787 -0.10917
 C489 C 0.09379 0.38154 -0.06856
 N490 N 0.11098 0.35972 -0.04445
 C491 C 0.13043 0.33403 -0.05914
 C492 C 0.13205 0.32949 -0.09976
 N493 N 0.11531 0.35180 -0.12375
 N494 N 0.07940 0.39950 -0.13334
 C495 C 0.05849 0.42407 -0.11876
 C496 C 0.05395 0.42665 -0.07809
 N497 N 0.07222 0.40555 -0.05392
 H498 H 0.14334 0.31666 -0.03922
 H499 H 0.04422 0.44031 -0.13878
 C500 C -0.14574 0.39000 0.11095
 C501 C -0.11832 0.40552 0.13037
 N502 N -0.11218 0.39711 0.16831
 C503 C -0.13165 0.37326 0.18745
 C504 C -0.15831 0.35675 0.16763
 N505 N -0.16499 0.36606 0.12996
 N506 N -0.15101 0.39727 0.07259
 C507 C -0.12945 0.41861 0.05238
 C508 C -0.10111 0.43320 0.07132
 N509 N -0.09660 0.42666 0.11014
 H510 H -0.12574 0.36668 0.21746
 H511 H -0.13349 0.42300 0.02147
 C512 C -0.13781 0.61774 -0.14203
 C513 C -0.14655 0.61120 -0.10265
 N514 N -0.16818 0.63257 -0.08359
 C515 C -0.18060 0.66086 -0.10165
 C516 C -0.17012 0.66878 -0.14037
 N517 N -0.14945 0.64652 -0.15988
 N518 N -0.11587 0.59642 -0.16090
 C519 C -0.10122 0.56960 -0.14176
 C520 C -0.10801 0.56442 -0.10156
 N521 N -0.13113 0.58510 -0.08325
 H522 H -0.19745 0.67741 -0.08521
 H523 H -0.08273 0.55383 -0.15720
 C524 C 0.09122 0.62590 0.05553
 C525 C 0.05753 0.63421 0.04293
 N526 N 0.04665 0.66678 0.04258
 C527 C 0.06776 0.69160 0.05494
 C528 C 0.10137 0.68355 0.06823
 N529 N 0.11253 0.65079 0.06777
 N530 N 0.10135 0.59294 0.05696
 C531 C 0.07909 0.56793 0.04689
 C532 C 0.04513 0.57633 0.03492
 N533 N 0.03554 0.60940 0.03296
 H534 H 0.05826 0.71735 0.05462
 H535 H 0.08757 0.54188 0.04889
 C536 C 0.39107 1.11700 0.89877
 C537 C 0.39247 1.11606 0.93970
 N538 N 0.37020 1.13540 0.96074
 C539 C 0.34580 1.15496 0.94278
 C540 C 0.34286 1.15448 0.90185
 N541 N 0.36608 1.13584 0.88081
 N542 N 0.41313 1.09724 0.87782
 C543 C 0.43565 1.07565 0.89604
 C544 C 0.43534 1.07305 0.93707
 N545 N 0.41413 1.09386 0.95783
 H546 H 0.32802 1.16944 0.96063
 H547 H 0.45198 1.05924 0.87866
 C548 C 0.38308 0.86801 1.10803
 C549 C 0.38734 0.87280 1.06755
 N550 N 0.36705 0.85531 1.04295
 C551 C 0.34211 0.83381 1.05704
 C552 C 0.33664 0.83026 1.09764
 N553 N 0.35768 0.84726 1.12205
 N554 N 0.40301 0.88567 1.13272
 C555 C 0.42642 0.90867 1.11884
 C556 C 0.42954 0.91489 1.07835
 N557 N 0.41017 0.89635 1.05362
 H558 H 0.32574 0.82095 1.03671
 H559 H 0.44129 0.92299 1.13932
 C560 C 0.60726 1.11770 1.14300
 C561 C 0.60218 1.12338 1.10291
 N562 N 0.61992 1.14846 1.08398
 C563 C 0.64310 1.16773 1.10317
 C564 C 0.64943 1.16112 1.14297
 N565 N 0.63096 1.13638 1.16194
 N566 N 0.58968 1.09251 1.16191
 C567 C 0.56783 1.07215 1.14235
 C568 C 0.56395 1.07672 1.10180
 N569 N 0.58101 1.10259 1.08318
 H570 H 0.65736 1.18703 1.08704
 H571 H 0.55485 1.05173 1.15802
 C572 C 0.62931 0.89688 0.90770
 C573 C 0.63857 0.91462 0.94102
 N574 N 0.67264 0.91700 0.95079
 C575 C 0.69798 0.90274 0.92839
 C576 C 0.68889 0.88638 0.89408
 N577 N 0.65469 0.88355 0.88466
 N578 N 0.59517 0.89411 0.89836
 C579 C 0.56988 0.90925 0.92014
 C580 C 0.57933 0.92890 0.95198
 N581 N 0.61351 0.93069 0.96188
 H582 H 0.72502 0.90487 0.93670
 H583 H 0.54300 0.90782 0.91108
   
