data_POSCAR
  _audit_creation_date              2014-09-24
  _audit_creation_method            'ToBaCCo'
  _symmetry_space_group_name_H-M    'P1'
  _symmetry_Int_Tables_number       1
  _symmetry_cell_setting            triclinic
  loop_
  _symmetry_equiv_pos_as_xyz
 x,y,z
_cell_length_a 47.5795
_cell_length_b 47.8407
_cell_length_c 47.3675
_cell_angle_alpha 89.808900
_cell_angle_beta 90.072500
_cell_angle_gamma 89.858500
loop_
  _atom_site_label
  _atom_site_type_symbol
  _atom_site_fract_x
  _atom_site_fract_y
  _atom_site_fract_z
N1 N 0.16220 1.22295 0.14401
 N2 N 0.14275 1.22225 0.16362
 C3 C 0.12492 1.24378 0.15965
 C4 C 0.13364 1.25905 0.13623
 C5 C 0.15752 1.24501 0.12695
 H6 H 0.10709 1.24802 0.17304
 H7 H 0.17074 1.25027 0.10922
 Cu8 Cu 0.14303 1.19331 0.19247
 Cu9 Cu 0.19227 1.19538 0.14201
 Cu10 Cu 0.19262 1.14333 0.19343
 N11 N 0.14344 1.16445 0.22134
 N12 N 0.16272 1.14476 0.22155
 C13 C 0.15810 1.12754 0.24361
 C14 C 0.13451 1.13695 0.25814
 C15 C 0.12593 1.16051 0.24320
 H16 H 0.17127 1.10982 0.24876
 H17 H 0.10827 1.17394 0.24775
 N18 N 0.22088 1.14570 0.16305
 N19 N 0.22078 1.16551 0.14361
 C20 C 0.24262 1.16144 0.12606
 C21 C 0.25732 1.13787 0.13477
 C22 C 0.24281 1.12852 0.15835
 H23 H 0.24745 1.17479 0.10830
 H24 H 0.24780 1.11054 0.17126
 H25 H 0.17067 1.16334 0.16168
 H26 H 0.19308 1.18568 0.18471
 N27 N 0.83747 0.77801 0.14397
 N28 N 0.85731 0.77909 0.16321
 C29 C 0.87523 0.75766 0.15934
 C30 C 0.86619 0.74220 0.13635
 C31 C 0.84208 0.75585 0.12717
 H32 H 0.89340 0.75361 0.17241
 H33 H 0.82863 0.75005 0.10977
 Cu34 Cu 0.85689 0.80778 0.19196
 Cu35 Cu 0.80714 0.80543 0.14206
 Cu36 Cu 0.81048 0.86032 0.18993
 N37 N 0.85642 0.83620 0.22099
 N38 N 0.83813 0.85678 0.22022
 C39 C 0.84266 0.87377 0.24234
 C40 C 0.86509 0.86321 0.25802
 C41 C 0.87308 0.83919 0.24369
 H42 H 0.83040 0.89234 0.24650
 H43 H 0.88992 0.82497 0.24906
 N44 N 0.78022 0.85661 0.16161
 N45 N 0.77893 0.83559 0.14369
 C46 C 0.75616 0.83885 0.12718
 C47 C 0.74228 0.86315 0.13490
 C48 C 0.75819 0.87377 0.15696
 H49 H 0.75029 0.82450 0.11066
 H50 H 0.75411 0.89257 0.16885
 H51 H 0.83051 0.83712 0.15899
 H52 H 0.80749 0.81790 0.18426
 N53 N 0.83634 1.22171 -0.14455
 N54 N 0.85588 1.22135 -0.16410
 C55 C 0.87344 1.24295 -0.16000
 C56 C 0.86454 1.25775 -0.13650
 C57 C 0.84082 1.24355 -0.12730
 H58 H 0.89119 1.24764 -0.17336
 H59 H 0.82777 1.24850 -0.10935
 Cu60 Cu 0.85587 1.19304 -0.19328
 Cu61 Cu 0.80671 1.19363 -0.14263
 Cu62 Cu 0.81230 1.13852 -0.18997
 N63 N 0.85585 1.16471 -0.22246
 N64 N 0.83911 1.14301 -0.22066
 C65 C 0.84412 1.12579 -0.24245
 C66 C 0.86513 1.13740 -0.25911
 C67 C 0.87181 1.16233 -0.24576
 H68 H 0.83288 1.10650 -0.24594
 H69 H 0.88759 1.17730 -0.25199
 N70 N 0.78193 1.14147 -0.16187
 N71 N 0.77955 1.16262 -0.14423
 C72 C 0.75648 1.15889 -0.12826
 C73 C 0.74356 1.13416 -0.13619
 C74 C 0.76036 1.12380 -0.15767
 H75 H 0.74960 1.17326 -0.11215
 H76 H 0.75715 1.10485 -0.16956
 H77 H 0.83142 1.16331 -0.15945
 H78 H 0.80711 1.18110 -0.18480
 N79 N 0.16458 0.77851 -0.14317
 N80 N 0.14422 0.77939 -0.16190
 C81 C 0.12691 0.75757 -0.15751
 C82 C 0.13715 0.74216 -0.13488
 C83 C 0.16109 0.75611 -0.12636
 H84 H 0.10862 0.75286 -0.17018
 H85 H 0.17484 0.75056 -0.10904
 Cu86 Cu 0.14351 0.80841 -0.19073
 Cu87 Cu 0.19423 0.80627 -0.14167
 Cu88 Cu 0.19294 0.85825 -0.19294
 N89 N 0.14280 0.83740 -0.21957
 N90 N 0.16241 0.85663 -0.22041
 C91 C 0.15771 0.87363 -0.24259
 C92 C 0.13373 0.86464 -0.25665
 C93 C 0.12489 0.84148 -0.24122
 H94 H 0.17100 0.89113 -0.24793
 H95 H 0.10703 0.82827 -0.24550
 N96 N 0.22187 0.85606 -0.16310
 N97 N 0.22225 0.83627 -0.14365
 C98 C 0.24418 0.84051 -0.12628
 C99 C 0.25848 0.86417 -0.13509
 C100 C 0.24363 0.87343 -0.15857
 H101 H 0.24926 0.82724 -0.10850
 H102 H 0.24820 0.89152 -0.17145
 H103 H 0.17186 0.83846 -0.16074
 H104 H 0.19369 0.81605 -0.18435
 C105 C 0.54380 1.03897 -0.00545
 H106 H 0.54324 1.03820 0.01737
 C107 C 0.56563 1.05287 -0.01914
 H108 H 0.58180 1.06278 -0.00661
 C109 C 0.52449 1.02480 -0.04927
 H110 H 0.50886 1.01310 -0.06082
 C111 C 0.54598 1.03854 -0.06387
 H112 H 0.54628 1.03788 -0.08672
 N113 N 0.52407 1.02500 -0.02057
 C114 C 0.45692 1.00711 0.03896
 H115 H 0.45752 0.98451 0.03815
 C116 C 0.43514 1.02058 0.05319
 H117 H 0.41909 1.00808 0.06331
 C118 C 0.47588 1.05057 0.02436
 H119 H 0.49129 1.06209 0.01229
 C120 C 0.45448 1.06494 0.03844
 H121 H 0.45407 1.08756 0.03768
 Zn122 Zn 0.50012 1.00154 0.00043
 N123 N 0.47641 1.02216 0.02454
 C124 C 0.52557 0.97781 0.04954
 N125 N 0.52429 0.97767 0.02085
 C126 C 0.54328 0.96324 0.00518
 C127 C 0.56490 0.94837 0.01827
 C128 C 0.54699 0.96324 0.06355
 C129 C 0.45601 0.99618 -0.03731
 C130 C 0.43423 0.98270 -0.05148
 C131 C 0.45414 0.93833 -0.03717
 C132 C 0.47552 0.95271 -0.02314
 N133 N 0.47583 0.98112 -0.02322
 H134 H 0.51072 0.99012 0.06149
 H135 H 0.54227 0.96433 -0.01763
 H136 H 0.58039 0.93786 0.00533
 H137 H 0.54806 0.96382 0.08637
 H138 H 0.45643 1.01878 -0.03638
 H139 H 0.41796 0.99517 -0.06141
 H140 H 0.45398 0.91571 -0.03654
 H141 H 0.49114 0.94118 -0.01128
 C142 C 0.43332 1.04988 0.05254
 C143 C 0.56726 1.05232 -0.04873
 C144 C 0.43277 0.95338 -0.05111
 C145 C 0.56719 0.94854 0.04782
 C146 C -0.00556 0.54268 1.03816
 H147 H 0.01712 0.54109 1.03797
 C148 C -0.01851 0.56413 1.05319
 H149 H -0.00552 0.57898 1.06440
 C150 C -0.04964 0.52638 1.02183
 H151 H -0.06157 0.51210 1.00889
 C152 C -0.06353 0.54762 1.03662
 H153 H -0.08620 0.54910 1.03543
 N154 N -0.02112 0.52451 1.02270
 C155 C 0.03793 0.45727 1.00567
 H156 H 0.03787 0.45834 0.98285
 C157 C 0.05201 0.43551 1.01937
 H158 H 0.06271 0.41992 1.00680
 C159 C 0.02176 0.47512 1.04936
 H160 H 0.00918 0.49009 1.06083
 C161 C 0.03575 0.45378 1.06398
 H162 H 0.03440 0.45305 1.08679
 Zn163 Zn -0.00027 0.50020 0.99924
 N164 N 0.02284 0.47619 1.02070
 C165 C 0.04807 0.53086 0.98488
 N166 N 0.02182 0.52380 0.97612
 C167 C 0.00931 0.53736 0.95420
 C168 C 0.02342 0.55852 0.93976
 C169 C 0.06255 0.55272 0.97174
 C170 C -0.04022 0.45839 0.99333
 C171 C -0.05424 0.43633 0.98021
 C172 C -0.03432 0.45099 0.93573
 C173 C -0.02047 0.47259 0.94975
 N174 N -0.02357 0.47588 0.97810
 H175 H 0.05708 0.52069 1.00323
 H176 H -0.01209 0.53240 0.94845
 H177 H 0.01303 0.56831 0.92198
 H178 H 0.08268 0.55886 0.98032
 H179 H -0.04148 0.46079 1.01601
 H180 H -0.06634 0.42203 0.99307
 H181 H -0.03131 0.44874 0.91320
 H182 H -0.00612 0.48567 0.93810
 C183 C 0.05062 0.43320 1.04891
 C184 C -0.04786 0.56709 1.05228
 C185 C -0.05097 0.43201 0.95106
 C186 C 0.05010 0.56728 0.94899
 C187 C 1.03912 -0.00653 0.54241
 H188 H 1.03986 0.01602 0.54089
 C189 C 1.05321 -0.02014 0.56433
 H190 H 1.06462 -0.00774 0.57958
 C191 C 1.02146 -0.04958 0.52542
 H192 H 1.00833 -0.06086 0.51075
 C193 C 1.03542 -0.06411 0.54697
 H194 H 1.03351 -0.08663 0.54808
 N195 N 1.02326 -0.02125 0.52381
 C196 C 1.00593 0.03928 0.45747
 H197 H 0.98325 0.03939 0.45917
 C198 C 1.01899 0.05414 0.43584
 H199 H 1.00609 0.06562 0.42091
 C200 C 1.04985 0.02217 0.47378
 H201 H 1.06163 0.00905 0.48819
 C202 C 1.06386 0.03684 0.45241
 H203 H 1.08652 0.03537 0.45098
 Zn204 Zn 1.00013 0.00011 0.49948
 N205 N 1.02136 0.02342 0.47560
 C206 C 0.98695 0.04739 0.53155
 N207 N 0.97725 0.02195 0.52346
 C208 C 0.95465 0.01015 0.53627
 C209 C 0.94032 0.02438 0.55752
 C210 C 0.97398 0.06185 0.55359
 C211 C 0.99444 -0.03978 0.45767
 C212 C 0.98157 -0.05443 0.43578
 C213 C 0.93715 -0.03391 0.44920
 C214 C 0.95093 -0.01949 0.47074
 N215 N 0.97909 -0.02275 0.47467
 H216 H 1.00583 0.05572 0.52204
 H217 H 0.94823 -0.01076 0.53068
 H218 H 0.92196 0.01461 0.56660
 H219 H 0.98331 0.08123 0.56059
 H220 H 1.01697 -0.04117 0.46055
 H221 H 0.99445 -0.06707 0.42195
 H222 H 0.91476 -0.03093 0.44642
 H223 H 0.93923 -0.00479 0.48336
 C224 C 1.04832 0.05277 0.43280
 C225 C 1.05100 -0.04928 0.56725
 C226 C 0.95255 -0.05144 0.43112
 C227 C 0.95037 0.05031 0.56722
 C228 C 0.09653 0.33293 1.10203
 C229 C 0.12120 0.32153 1.08999
 C230 C 0.13311 0.29694 1.10110
 C231 C 0.12124 0.28343 1.12470
 C232 C 0.09680 0.29507 1.13664
 C233 C 0.08464 0.31934 1.12553
 C234 C 0.08439 0.35913 1.08930
 C235 C 0.05913 0.37139 1.09873
 C236 C 0.04860 0.39561 1.08594
 C237 C 0.06296 0.40844 1.06353
 C238 C 0.08824 0.39645 1.05412
 C239 C 0.09879 0.37184 1.06652
 C240 C 0.13412 0.33490 1.06711
 C241 C 0.12338 0.35968 1.05587
 H242 H 0.15302 0.32617 1.05788
 H243 H 0.13434 0.36932 1.03834
 H244 H 0.15187 0.28869 1.09127
 H245 H 0.08678 0.28562 1.15476
 H246 H 0.02868 0.40390 1.09315
 H247 H 0.09971 0.40619 1.03696
 H248 H 0.06608 0.32722 1.13587
 H249 H 0.04688 0.36237 1.11558
 C250 C -0.09640 0.66655 1.10346
 C251 C -0.11851 0.68001 1.08867
 C252 C -0.13060 0.70463 1.09940
 C253 C -0.12081 0.71642 1.12470
 C254 C -0.09842 0.70333 1.13888
 C255 C -0.08634 0.67885 1.12846
 C256 C -0.08439 0.64005 1.09155
 C257 C -0.06321 0.62444 1.10527
 C258 C -0.05205 0.60043 1.09285
 C259 C -0.06161 0.59125 1.06643
 C260 C -0.08336 0.60615 1.05301
 C261 C -0.09483 0.63031 1.06538
 C262 C -0.12825 0.66897 1.06312
 C263 C -0.11649 0.64483 1.05160
 H264 H -0.14508 0.67934 1.05170
 H265 H -0.12453 0.63737 1.03160
 H266 H -0.14753 0.71461 1.08784
 H267 H -0.09017 0.71180 1.15832
 H268 H -0.03575 0.58900 1.10396
 H269 H -0.09085 0.59943 1.03251
 H270 H -0.06909 0.67002 1.14028
 H271 H -0.05489 0.63040 1.12555
 C272 C -0.09725 0.33185 0.89882
 C273 C -0.12277 0.32144 0.90992
 C274 C -0.13493 0.29715 0.89863
 C275 C -0.12237 0.28316 0.87583
 C276 C -0.09718 0.29376 0.86475
 C277 C -0.08479 0.31769 0.87600
 C278 C -0.08487 0.35773 0.91165
 C279 C -0.05877 0.36884 0.90326
 C280 C -0.04810 0.39290 0.91592
 C281 C -0.06315 0.40684 0.93715
 C282 C -0.08917 0.39582 0.94573
 C283 C -0.09989 0.37132 0.93345
 C284 C -0.13626 0.33553 0.93196
 C285 C -0.12529 0.36013 0.94318
 H286 H -0.15580 0.32755 0.94049
 H287 H -0.13674 0.37038 0.96000
 H288 H -0.15434 0.28938 0.90757
 H289 H -0.08677 0.28361 0.84729
 H290 H -0.02758 0.40022 0.90945
 H291 H -0.10115 0.40628 0.96205
 H292 H -0.06562 0.32486 0.86629
 H293 H -0.04601 0.35903 0.88730
 C294 C 0.10313 0.66666 0.90117
 C295 C 0.08547 0.68575 0.88662
 C296 C 0.09677 0.71004 0.87444
 C297 C 0.12538 0.71630 0.87749
 C298 C 0.14263 0.69794 0.89289
 C299 C 0.13173 0.67341 0.90453
 C300 C 0.09036 0.64050 0.91302
 C301 C 0.10644 0.61869 0.92494
 C302 C 0.09346 0.59485 0.93595
 C303 C 0.06403 0.59223 0.93599
 C304 C 0.04795 0.61391 0.92378
 C305 C 0.06086 0.63740 0.91163
 C306 C 0.05654 0.68085 0.88493
 C307 C 0.04441 0.65757 0.89779
 H308 H 0.04298 0.69556 0.87398
 H309 H 0.02183 0.65505 0.89639
 H310 H 0.08310 0.72443 0.86320
 H311 H 0.16475 0.70234 0.89570
 H312 H 0.10667 0.57834 0.94427
 H313 H 0.02523 0.61289 0.92387
 H314 H 0.14591 0.66022 0.91639
 H315 H 0.12909 0.61944 0.92558
 C316 C 1.09738 0.10389 0.33277
 C317 C 1.11990 0.08965 0.31963
 C318 C 1.13225 0.10066 0.29502
 C319 C 1.12209 0.12558 0.28269
 C320 C 1.09902 0.13895 0.29547
 C321 C 1.08689 0.12834 0.32000
 C322 C 1.08522 0.09194 0.35940
 C323 C 1.06410 0.10556 0.37505
 C324 C 1.05280 0.09315 0.39920
 C325 C 1.06216 0.06683 0.40846
 C326 C 1.08390 0.05353 0.39354
 C327 C 1.09559 0.06595 0.36931
 C328 C 1.12966 0.06430 0.33090
 C329 C 1.11750 0.05251 0.35495
 H330 H 1.14672 0.05318 0.32071
 H331 H 1.12550 0.03264 0.36256
 H332 H 1.14959 0.08947 0.28548
 H333 H 1.09011 0.15794 0.28688
 H334 H 1.03659 0.10422 0.41070
 H335 H 1.09128 0.03315 0.40037
 H336 H 1.06916 0.13959 0.32845
 H337 H 1.05603 0.12582 0.36910
 C338 C 1.09678 -0.10143 0.66877
 C339 C 1.12170 -0.08981 0.67998
 C340 C 1.13355 -0.10079 0.70486
 C341 C 1.12139 -0.12388 0.71875
 C342 C 1.09675 -0.13543 0.70723
 C343 C 1.08465 -0.12442 0.68273
 C344 C 1.08467 -0.08893 0.64227
 C345 C 1.05906 -0.09783 0.63035
 C346 C 1.04854 -0.08529 0.60584
 C347 C 1.06329 -0.06369 0.59233
 C348 C 1.08891 -0.05480 0.60399
 C349 C 1.09943 -0.06690 0.62895
 C350 C 1.13495 -0.06758 0.66605
 C351 C 1.12428 -0.05666 0.64089
 H352 H 1.15408 -0.05868 0.67459
 H353 H 1.13550 -0.03968 0.63076
 H354 H 1.15251 -0.09131 0.71300
 H355 H 1.08650 -0.15314 0.71694
 H356 H 1.02832 -0.09202 0.59789
 H357 H 1.10064 -0.03824 0.59375
 H358 H 1.06596 -0.13450 0.67494
 H359 H 1.04650 -0.11401 0.63993
 C360 C 0.90242 -0.10369 0.33238
 C361 C 0.88070 -0.08888 0.31838
 C362 C 0.86814 -0.10005 0.29402
 C363 C 0.87737 -0.12566 0.28267
 C364 C 0.89953 -0.13979 0.29639
 C365 C 0.91181 -0.12905 0.32076
 C366 C 0.91499 -0.09133 0.35857
 C367 C 0.93531 -0.10532 0.37508
 C368 C 0.94698 -0.09257 0.39883
 C369 C 0.93883 -0.06551 0.40676
 C370 C 0.91801 -0.05172 0.39085
 C371 C 0.90586 -0.06451 0.36713
 C372 C 0.87204 -0.06274 0.32845
 C373 C 0.88466 -0.05063 0.35202
 H374 H 0.85555 -0.05125 0.31763
 H375 H 0.87756 -0.03014 0.35865
 H376 H 0.85148 -0.08835 0.28380
 H377 H 0.90765 -0.15941 0.28860
 H378 H 0.96240 -0.10403 0.41112
 H379 H 0.91159 -0.03074 0.39659
 H380 H 0.92886 -0.14085 0.32995
 H381 H 0.94238 -0.12618 0.37016
 C382 C 0.90206 0.10359 0.66680
 C383 C 0.88501 0.08680 0.68440
 C384 C 0.87225 0.09832 0.70842
 C385 C 0.87746 0.12615 0.71637
 C386 C 0.89585 0.14219 0.69965
 C387 C 0.90780 0.13119 0.67515
 C388 C 0.91409 0.09084 0.64057
 C389 C 0.92758 0.10661 0.61943
 C390 C 0.93869 0.09360 0.59549
 C391 C 0.93727 0.06441 0.59219
 C392 C 0.92334 0.04873 0.61313
 C393 C 0.91096 0.06177 0.63654
 C394 C 0.88157 0.05836 0.67849
 C395 C 0.89500 0.04594 0.65557
 H396 H 0.86891 0.04534 0.69224
 H397 H 0.89229 0.02370 0.65231
 H398 H 0.85916 0.08503 0.72143
 H399 H 0.90083 0.16356 0.70505
 H400 H 0.94816 0.10662 0.57942
 H401 H 0.92214 0.02621 0.61154
 H402 H 0.92184 0.14443 0.66327
 H403 H 0.92918 0.12908 0.62073
 C404 C 0.33255 1.10278 0.09754
 C405 C 0.32078 1.09079 0.12216
 C406 C 0.29616 1.10206 0.13395
 C407 C 0.28306 1.12561 0.12188
 C408 C 0.29495 1.13752 0.09754
 C409 C 0.31928 1.12634 0.08553
 C410 C 0.35882 1.09000 0.08559
 C411 C 0.37150 1.09950 0.06045
 C412 C 0.39585 1.08677 0.05016
 C413 C 0.40840 1.06434 0.06465
 C414 C 0.39594 1.05476 0.08974
 C415 C 0.37121 1.06714 0.10007
 C416 C 0.33382 1.06782 0.13515
 C417 C 0.35864 1.05647 0.12454
 H418 H 0.32481 1.05863 0.15401
 H419 H 0.36803 1.03888 0.13556
 H420 H 0.28748 1.09248 0.15272
 H421 H 0.28556 1.15564 0.08758
 H422 H 0.40447 1.09406 0.03032
 H423 H 0.40543 1.03751 0.10123
 H424 H 0.32745 1.13663 0.06701
 H425 H 0.36272 1.11639 0.04813
 C426 C 0.66778 1.09747 -0.10188
 C427 C 0.67919 1.12205 -0.08997
 C428 C 0.70391 1.13373 -0.10106
 C429 C 0.71749 1.12161 -0.12435
 C430 C 0.70589 1.09740 -0.13629
 C431 C 0.68147 1.08545 -0.12525
 C432 C 0.64149 1.08551 -0.08915
 C433 C 0.62914 1.06042 -0.09852
 C434 C 0.60481 1.05009 -0.08574
 C435 C 0.59203 1.06447 -0.06338
 C436 C 0.60410 1.08954 -0.05401
 C437 C 0.62876 1.09993 -0.06643
 C438 C 0.66577 1.13502 -0.06719
 C439 C 0.64095 1.12439 -0.05591
 H440 H 0.67451 1.15384 -0.05806
 H441 H 0.63127 1.13538 -0.03846
 H442 H 0.71244 1.15234 -0.09138
 H443 H 0.71556 1.08754 -0.15434
 H444 H 0.59640 1.03032 -0.09288
 H445 H 0.59436 1.10094 -0.03685
 H446 H 0.67362 1.06693 -0.13545
 H447 H 0.63815 1.04818 -0.11531
 C448 C 0.33313 0.89976 -0.09739
 C449 C 0.32128 0.91178 -0.12203
 C450 C 0.29686 0.90032 -0.13404
 C451 C 0.28407 0.87661 -0.12215
 C452 C 0.29609 0.86465 -0.09784
 C453 C 0.32021 0.87598 -0.08564
 C454 C 0.35910 0.91275 -0.08511
 C455 C 0.37179 0.90319 -0.05994
 C456 C 0.39585 0.91611 -0.04933
 C457 C 0.40807 0.93883 -0.06350
 C458 C 0.39560 0.94849 -0.08861
 C459 C 0.37117 0.93587 -0.09929
 C460 C 0.33403 0.93496 -0.13476
 C461 C 0.35858 0.94655 -0.12381
 H462 H 0.32500 0.94416 -0.15365
 H463 H 0.36775 0.96432 -0.13461
 H464 H 0.28806 0.90990 -0.15282
 H465 H 0.28699 0.84639 -0.08802
 H466 H 0.40450 0.90874 -0.02949
 H467 H 0.40486 0.96596 -0.09985
 H468 H 0.32847 0.86562 -0.06715
 H469 H 0.36325 0.88608 -0.04784
 C470 C 0.66641 0.89685 0.09737
 C471 C 0.68014 0.91144 0.11935
 C472 C 0.70476 0.90041 0.13161
 C473 C 0.71627 0.87503 0.12207
 C474 C 0.70283 0.86107 0.09981
 C475 C 0.67838 0.87177 0.08762
 C476 C 0.63999 0.90904 0.08508
 C477 C 0.62422 0.89553 0.06395
 C478 C 0.60030 0.90813 0.05250
 C479 C 0.59134 0.93445 0.06179
 C480 C 0.60634 0.94773 0.08348
 C481 C 0.63050 0.93522 0.09518
 C482 C 0.66940 0.93708 0.12871
 C483 C 0.64528 0.94883 0.11672
 H484 H 0.67999 0.94840 0.14539
 H485 H 0.63804 0.96888 0.12447
 H486 H 0.71492 0.91178 0.14849
 H487 H 0.71111 0.84172 0.09154
 H488 H 0.58874 0.89723 0.03621
 H489 H 0.59967 0.96816 0.09074
 H490 H 0.66937 0.86012 0.07042
 H491 H 0.62995 0.87527 0.05587
   
