data_POSCAR
  _audit_creation_date              2014-09-24
  _audit_creation_method            'ToBaCCo'
  _symmetry_space_group_name_H-M    'P1'
  _symmetry_Int_Tables_number       1
  _symmetry_cell_setting            triclinic
  loop_
  _symmetry_equiv_pos_as_xyz
 x,y,z
_cell_length_a 30.4221
_cell_length_b 23.7284
_cell_length_c 37.6787
_cell_angle_alpha 88.671400
_cell_angle_beta 90.885400
_cell_angle_gamma 125.400700
loop_
  _atom_site_label
  _atom_site_type_symbol
  _atom_site_fract_x
  _atom_site_fract_y
  _atom_site_fract_z
C1 C -0.03865 0.44875 1.24411
 C2 C -0.00096 0.43643 1.25032
 C3 C 0.01817 0.43486 1.28627
 C4 C 0.02780 0.43177 1.22079
 C5 C -0.05124 0.45848 1.20747
 C6 C -0.06649 0.45663 1.27330
 C7 C 0.04479 0.49404 1.30717
 C8 C 0.06931 0.49526 1.33907
 C9 C 0.06790 0.43713 1.35054
 C10 C 0.03872 0.37685 1.32999
 C11 C 0.01465 0.37609 1.29809
 C12 C 0.07707 0.49116 1.20945
 C13 C 0.10428 0.48798 1.18106
 C14 C 0.08320 0.42487 1.16435
 C15 C 0.03439 0.36505 1.17628
 C16 C 0.00643 0.36867 1.20415
 C17 C -0.09885 0.40562 1.19104
 C18 C -0.11013 0.41428 1.15606
 C19 C -0.07393 0.47625 1.13718
 C20 C -0.02613 0.52891 1.15387
 C21 C -0.01499 0.52016 1.18878
 C22 C -0.09443 0.40480 1.29950
 C23 C -0.11814 0.41452 1.32793
 C24 C -0.11439 0.47622 1.33050
 C25 C -0.08750 0.52719 1.30373
 C26 C -0.06398 0.51733 1.27530
 H27 H 0.04826 0.54013 1.29813
 H28 H 0.09041 0.54256 1.35393
 H29 H 0.03585 0.33058 1.33779
 H30 H -0.00579 0.32999 1.28218
 H31 H 0.09401 0.54003 1.22238
 H32 H 0.14220 0.53457 1.17259
 H33 H -0.03162 0.32251 1.21284
 H34 H -0.12703 0.35763 1.20526
 H35 H -0.14730 0.37264 1.14409
 H36 H 0.00244 0.57729 1.14011
 H37 H 0.02185 0.56153 1.20131
 H38 H -0.09737 0.35719 1.29808
 H39 H -0.13862 0.37411 1.34801
 H40 H -0.08415 0.57510 1.30491
 H41 H -0.04262 0.55791 1.25532
 H42 H 0.01753 0.31593 1.16366
 C43 C 0.55351 0.53504 1.25608
 C44 C 0.50720 0.53089 1.25190
 C45 C 0.48551 0.54842 1.28143
 C46 C 0.48114 0.51860 1.21656
 C47 C 0.58418 0.53844 1.22490
 C48 C 0.57791 0.54252 1.29175
 C49 C 0.43336 0.50049 1.29492
 C50 C 0.41400 0.51843 1.32301
 C51 C 0.44629 0.58503 1.33734
 C52 C 0.49807 0.63280 1.32319
 C53 C 0.51743 0.61470 1.29569
 C54 C 0.46022 0.45632 1.19905
 C55 C 0.43602 0.44500 1.16564
 C56 C 0.43233 0.49582 1.14904
 C57 C 0.45332 0.55823 1.16671
 C58 C 0.47721 0.56928 1.20024
 C59 C 0.61960 0.60189 1.20724
 C60 C 0.65116 0.60671 1.17913
 C61 C 0.64653 0.54770 1.16751
 C62 C 0.61003 0.48378 1.18467
 C63 C 0.57975 0.47944 1.21360
 C64 C 0.63105 0.59886 1.29885
 C65 C 0.65408 0.60571 1.33230
 C66 C 0.62478 0.55579 1.35920
 C67 C 0.57144 0.49954 1.35213
 C68 C 0.54823 0.49310 1.31876
 H69 H 0.40803 0.44918 1.28399
 H70 H 0.37385 0.48073 1.33317
 H71 H 0.52408 0.68455 1.33353
 H72 H 0.55744 0.65268 1.28532
 H73 H 0.46228 0.41624 1.21141
 H74 H 0.42005 0.39630 1.15284
 H75 H 0.49309 0.61769 1.21337
 H76 H 0.62346 0.64790 1.21569
 H77 H 0.67882 0.65644 1.16621
 H78 H 0.60601 0.43764 1.17630
 H79 H 0.55281 0.43019 1.22712
 H80 H 0.65470 0.63797 1.27861
 H81 H 0.69525 0.64953 1.33689
 H82 H 0.54758 0.46037 1.37229
 H83 H 0.50723 0.44910 1.31383
 H84 H 0.45081 0.59830 1.15496
 C85 C 0.48565 1.03939 1.24497
 C86 C 0.44823 0.96994 1.24826
 C87 C 0.42232 0.93745 1.28273
 C88 C 0.43427 0.92240 1.21863
 C89 C 0.51545 1.07267 1.21142
 C90 C 0.50100 1.08484 1.27592
 C91 C 0.44984 0.92654 1.30902
 C92 C 0.42470 0.89441 1.34130
 C93 C 0.37177 0.87369 1.34805
 C94 C 0.34503 0.88644 1.32167
 C95 C 0.36981 0.91705 1.28916
 C96 C 0.45127 0.87872 1.22005
 C97 C 0.44052 0.83536 1.19188
 C98 C 0.41117 0.83330 1.16223
 C99 C 0.39229 0.87514 1.16132
 C100 C 0.40431 0.92008 1.18927
 C101 C 0.51541 1.12700 1.19603
 C102 C 0.54490 1.16067 1.16514
 C103 C 0.57545 1.14088 1.14906
 C104 C 0.57556 1.08654 1.16488
 C105 C 0.54627 1.05326 1.19583
 C106 C 0.46336 1.09185 1.29220
 C107 C 0.47705 1.13037 1.32304
 C108 C 0.52884 1.16297 1.33820
 C109 C 0.56707 1.15777 1.32086
 C110 C 0.55321 1.11919 1.29001
 H111 H 0.49061 0.94240 1.30437
 H112 H 0.44709 0.88643 1.36085
 H113 H 0.30436 0.87138 1.32573
 H114 H 0.34820 0.92536 1.26904
 H115 H 0.47428 0.87972 1.24255
 H116 H 0.45549 0.80358 1.19317
 H117 H 0.39063 0.95327 1.18796
 H118 H 0.49240 1.14331 1.20796
 H119 H 0.54355 1.20214 1.15414
 H120 H 0.59879 1.06998 1.15360
 H121 H 0.54836 1.01304 1.20790
 H122 H 0.42310 1.06657 1.28131
 H123 H 0.44658 1.13357 1.33527
 H124 H 0.60748 1.18232 1.33119
 H125 H 0.58283 1.11451 1.27763
 H126 H 0.37003 0.87487 1.13854
 C127 C 1.02587 0.47172 0.74959
 C128 C 0.98067 0.47002 0.74385
 C129 C 0.95413 0.45483 0.70837
 C130 C 0.95502 0.48138 0.77342
 C131 C 1.04328 0.46994 0.78647
 C132 C 1.05696 0.47009 0.71972
 C133 C 0.94145 0.49833 0.69301
 C134 C 0.91760 0.48464 0.65924
 C135 C 0.90572 0.42688 0.64035
 C136 C 0.91769 0.38295 0.65614
 C137 C 0.94112 0.39638 0.68983
 C138 C 0.97995 0.54766 0.78727
 C139 C 0.95567 0.55893 0.81478
 C140 C 0.90662 0.50380 0.82952
 C141 C 0.88202 0.43719 0.81589
 C142 C 0.90570 0.42628 0.78771
 C143 C 1.01058 0.41097 0.80794
 C144 C 1.02670 0.40764 0.84237
 C145 C 1.07592 0.46353 0.85640
 C146 C 1.10839 0.52318 0.83480
 C147 C 1.09239 0.52594 0.80002
 C148 C 1.07109 0.42324 0.72056
 C149 C 1.09731 0.41862 0.69168
 C150 C 1.11007 0.46074 0.66111
 C151 C 1.09711 0.50902 0.66086
 C152 C 1.07151 0.51408 0.68990
 H153 H 0.95079 0.54349 0.70693
 H154 H 0.90877 0.51942 0.64798
 H155 H 0.90860 0.33761 0.64255
 H156 H 0.94933 0.36116 0.70142
 H157 H 1.01797 0.59075 0.77649
 H158 H 0.97555 0.61074 0.82481
 H159 H 0.88594 0.37478 0.77728
 H160 H 0.97271 0.36701 0.79781
 H161 H 1.00039 0.36081 0.85793
 H162 H 1.14658 0.56732 0.84429
 H163 H 1.11817 0.57185 0.78372
 H164 H 1.06067 0.38890 0.74327
 H165 H 1.10684 0.38115 0.69319
 H166 H 1.10667 0.54342 0.63839
 H167 H 1.06236 0.55192 0.68887
 H168 H 0.84401 0.39387 0.82653
 C169 C 0.51379 0.55654 0.74811
 C170 C 0.55976 0.56057 0.75274
 C171 C 0.58882 0.55695 0.72269
 C172 C 0.57992 0.56196 0.78887
 C173 C 0.47790 0.54037 0.77832
 C174 C 0.49308 0.55719 0.71264
 C175 C 0.56211 0.50036 0.69986
 C176 C 0.59033 0.49430 0.67316
 C177 C 0.64610 0.54396 0.66933
 C178 C 0.67292 0.60018 0.69245
 C179 C 0.64449 0.60658 0.71893
 C180 C 0.57974 0.50593 0.80161
 C181 C 0.59721 0.50605 0.83610
 C182 C 0.61579 0.56276 0.85817
 C183 C 0.61620 0.61902 0.84515
 C184 C 0.59817 0.61849 0.81079
 C185 C 0.47611 0.59214 0.79371
 C186 C 0.44177 0.57587 0.82233
 C187 C 0.40800 0.50733 0.83512
 C188 C 0.40963 0.45564 0.81933
 C189 C 0.44485 0.47224 0.79138
 C190 C 0.51728 0.61871 0.69250
 C191 C 0.49655 0.61840 0.65900
 C192 C 0.45252 0.55615 0.64521
 C193 C 0.42853 0.49494 0.66551
 C194 C 0.44801 0.49569 0.69923
 H195 H 0.51970 0.45967 0.70338
 H196 H 0.56866 0.44965 0.65629
 H197 H 0.71595 0.63906 0.69018
 H198 H 0.66598 0.64989 0.73673
 H199 H 0.56558 0.46186 0.78494
 H200 H 0.59701 0.46229 0.84510
 H201 H 0.59862 0.66220 0.80118
 H202 H 0.50147 0.64491 0.78370
 H203 H 0.44080 0.61644 0.83395
 H204 H 0.38409 0.40257 0.82889
 H205 H 0.44612 0.43192 0.77968
 H206 H 0.55186 0.66666 0.70280
 H207 H 0.51558 0.66603 0.64356
 H208 H 0.39432 0.44647 0.65535
 H209 H 0.42876 0.44788 0.71453
 H210 H 0.63048 0.66344 0.86155
 C211 C 0.46023 -0.03972 0.75567
 C212 C 0.50219 0.02801 0.75389
 C213 C 0.52706 0.06209 0.71945
 C214 C 0.51935 0.07200 0.78542
 C215 C 0.43668 -0.07565 0.78993
 C216 C 0.43070 -0.07768 0.72339
 C217 C 0.55380 0.04098 0.69992
 C218 C 0.57321 0.06842 0.66603
 C219 C 0.56703 0.11838 0.65128
 C220 C 0.54193 0.14137 0.67144
 C221 C 0.52207 0.11334 0.70533
 C222 C 0.56952 0.09916 0.80158
 C223 C 0.58440 0.13979 0.83187
 C224 C 0.54916 0.15367 0.84612
 C225 C 0.49959 0.12752 0.82915
 C226 C 0.48507 0.08761 0.79897
 C227 C 0.39217 -0.08038 0.80368
 C228 C 0.36908 -0.11571 0.83562
 C229 C 0.38903 -0.14891 0.85402
 C230 C 0.43365 -0.14433 0.83987
 C231 C 0.45746 -0.10751 0.80819
 C232 C 0.38780 -0.07587 0.71131
 C233 C 0.35833 -0.11268 0.68143
 C234 C 0.37227 -0.15042 0.66230
 C235 C 0.41613 -0.15109 0.67429
 C236 C 0.44440 -0.11606 0.70502
 H237 H 0.55889 0.00244 0.71077
 H238 H 0.59291 0.05027 0.65131
 H239 H 0.53650 0.17971 0.66083
 H240 H 0.50149 0.13019 0.72011
 H241 H 0.59664 0.08808 0.79107
 H242 H 0.62287 0.15925 0.84433
 H243 H 0.44688 0.06863 0.78615
 H244 H 0.37533 -0.05654 0.78977
 H245 H 0.33480 -0.11801 0.84547
 H246 H 0.45057 -0.16861 0.85315
 H247 H 0.49170 -0.10453 0.79765
 H248 H 0.37695 -0.04609 0.72516
 H249 H 0.32509 -0.11054 0.67304
 H250 H 0.42788 -0.18008 0.66070
 H251 H 0.47706 -0.11858 0.71439
 H252 H 0.47183 0.13791 0.83920
 O253 O 0.35919 0.56364 0.96059
 O254 O 0.35516 0.67073 0.95855
 C255 C 0.32962 0.69802 0.95958
 O256 O 0.29607 0.68400 0.98389
 O257 O 0.20525 0.56338 0.97471
 C258 C 0.17889 0.50023 0.96619
 O259 O 0.18745 0.45809 0.98027
 O260 O 0.27338 0.47343 0.95586
 C261 C 0.32116 0.51082 0.94439
 O262 O 0.37361 0.57717 1.03196
 O263 O 0.37514 0.68750 1.02904
 C264 C 0.34752 0.68761 1.05396
 O265 O 0.29636 0.65242 1.05308
 O266 O 0.20197 0.53394 1.04513
 C267 C 0.19761 0.48146 1.05889
 O268 O 0.22110 0.45643 1.04658
 O269 O 0.30533 0.46745 1.02231
 C270 C 0.34856 0.51287 1.03839
 Cr271 Cr 0.36311 0.62267 0.99526
 Cr272 Cr 0.25111 0.60689 1.01387
 Cr273 Cr 0.24834 0.46758 1.00131
 O274 O 0.28752 0.56564 1.00352
 O275 O 0.64573 0.44317 0.97288
 O276 O 0.61991 0.31787 0.97694
 C277 C 0.63871 0.30304 0.95184
 O278 O 0.68798 0.32561 0.95003
 O279 O 0.79082 0.42720 0.95169
 C280 C 0.80449 0.48427 0.93731
 O281 O 0.79318 0.52296 0.95076
 O282 O 0.72592 0.54366 0.97977
 C283 C 0.67911 0.50721 0.96612
 O284 O 0.66824 0.45852 1.04329
 O285 O 0.64767 0.33544 1.04598
 C286 C 0.66191 0.29477 1.04462
 O287 O 0.69093 0.29748 1.01973
 O288 O 0.79192 0.40273 1.02233
 C289 C 0.82808 0.46574 1.02883
 O290 O 0.82810 0.51523 1.01529
 O291 O 0.75793 0.53051 1.04446
 C292 C 0.71205 0.50592 1.05790
 Cr293 Cr 0.64809 0.39021 1.00936
 Cr294 Cr 0.73979 0.36556 0.98634
 Cr295 Cr 0.77422 0.52431 0.99757
 O296 O 0.72075 0.42670 0.99777
 O297 O 0.74468 0.49254 0.55183
 O298 O 0.80705 0.46358 0.52576
 C299 C 0.79943 0.40561 0.53280
 O300 O 0.76153 0.34906 0.51932
 O301 O 0.65738 0.26027 0.51314
 C302 C 0.63260 0.26081 0.53994
 O303 O 0.62421 0.30683 0.54428
 O304 O 0.65611 0.43596 0.54693
 C305 C 0.70001 0.47588 0.56349
 O306 O 0.72571 0.52524 0.48608
 O307 O 0.78809 0.49595 0.45987
 C308 C 0.79132 0.45396 0.44222
 O309 O 0.76860 0.39127 0.45161
 O310 O 0.66441 0.30735 0.44573
 C311 C 0.61679 0.29063 0.44778
 O312 O 0.59979 0.30328 0.47487
 O313 O 0.64037 0.43465 0.47638
 C314 C 0.68021 0.49674 0.47025
 Cr315 Cr 0.76413 0.49082 0.50566
 Cr316 Cr 0.71260 0.32951 0.48310
 Cr317 Cr 0.63273 0.37120 0.51032
 O318 O 0.70360 0.39749 0.49981
 O319 O 0.33495 0.53831 0.51757
 O320 O 0.23537 0.48844 0.53646
 C321 C 0.20118 0.49910 0.54724
 O322 O 0.19009 0.53633 0.52994
 O323 O 0.25823 0.66656 0.54375
 C324 C 0.30565 0.71280 0.55386
 O325 O 0.34749 0.72712 0.53790
 O326 O 0.37556 0.64236 0.54041
 C327 C 0.36700 0.58349 0.53956
 O328 O 0.31222 0.54685 0.44996
 O329 O 0.20936 0.48380 0.46779
 C330 C 0.18906 0.51106 0.45187
 O331 O 0.20166 0.57025 0.45940
 O332 O 0.26890 0.69971 0.47411
 C333 C 0.31413 0.73515 0.45834
 O334 O 0.35298 0.73104 0.46607
 O335 O 0.38383 0.64929 0.46843
 C336 C 0.35982 0.60175 0.44543
 Cr337 Cr 0.27336 0.51746 0.49315
 Cr338 Cr 0.23182 0.61769 0.50171
 Cr339 Cr 0.36234 0.68472 0.50308
 O340 O 0.28924 0.60724 0.49926
 N341 N 0.43086 0.67625 0.40414
 N342 N 0.45476 0.67418 0.37579
 C343 C 0.42779 0.60742 0.36654
 C344 C 0.38545 0.56804 0.39043
 N345 N 0.38934 0.61347 0.41353
 H346 H 0.35683 0.51240 0.39199
 N347 N 0.28162 0.78561 0.41861
 N348 N 0.29556 0.82172 0.38847
 C349 C 0.34504 0.83940 0.37985
 C350 C 0.36118 0.81322 0.40621
 N351 N 0.32039 0.77990 0.42967
 H352 H 0.39711 0.81402 0.40723
 N353 N 0.13011 0.40711 0.41810
 N354 N 0.09674 0.38548 0.39070
 C355 C 0.09529 0.43894 0.37953
 C356 C 0.12894 0.49432 0.40154
 N357 N 0.14986 0.47217 0.42489
 H358 H 0.13902 0.54617 0.40026
 N359 N 0.71226 0.60045 0.43424
 N360 N 0.69900 0.61773 0.40430
 C361 C 0.65087 0.56144 0.39381
 C362 C 0.63494 0.50920 0.41862
 N363 N 0.67424 0.53553 0.44331
 H364 H 0.60046 0.45572 0.41739
 N365 N 0.53027 0.23767 0.41788
 N366 N 0.50560 0.20345 0.38856
 C367 C 0.54102 0.19833 0.37033
 C368 C 0.58865 0.23113 0.38970
 N369 N 0.58003 0.25458 0.41906
 H370 H 0.62563 0.23668 0.38365
 N371 N 0.84504 0.54205 0.39703
 N372 N 0.87022 0.54969 0.36706
 C373 C 0.86290 0.48889 0.36111
 C374 C 0.83227 0.44357 0.38852
 N375 N 0.82213 0.47881 0.41026
 H376 H 0.81851 0.39039 0.39245
 N377 N 0.74737 0.59598 1.10220
 N378 N 0.73091 0.60937 1.13115
 C379 C 0.68032 0.55352 1.13789
 C380 C 0.66620 0.50550 1.11202
 N381 N 0.70905 0.53399 1.09030
 H382 H 0.62810 0.45562 1.10876
 N383 N 0.91733 0.54408 1.05397
 N384 N 0.94457 0.54879 1.08282
 C385 C 0.91351 0.48831 1.10095
 C386 C 0.86646 0.44585 1.08187
 N387 N 0.87055 0.48265 1.05292
 H388 H 0.83097 0.39561 1.08944
 N389 N 0.65780 0.19904 1.07350
 N390 N 0.63511 0.15690 1.10138
 C391 C 0.60567 0.17428 1.11809
 C392 C 0.61133 0.22908 1.09927
 N393 N 0.64404 0.24268 1.07179
 H394 H 0.59371 0.25659 1.10472
 N395 N 0.35352 0.42561 1.06969
 N396 N 0.37497 0.41924 1.09905
 C397 C 0.40500 0.48210 1.11408
 C398 C 0.40162 0.52753 1.09253
 N399 N 0.36923 0.49025 1.06524
 H400 H 0.41889 0.58151 1.09689
 N401 N 0.14322 0.38327 1.09912
 N402 N 0.11155 0.36570 1.12704
 C403 C 0.11225 0.42145 1.13470
 C404 C 0.14498 0.47360 1.11057
 N405 N 0.16345 0.44768 1.08892
 H406 H 0.15419 0.52501 1.10870
 N407 N 0.42399 0.74288 1.09371
 N408 N 0.44194 0.78071 1.12258
 C409 C 0.40460 0.79129 1.13166
 C410 C 0.36259 0.75806 1.10736
 N411 N 0.37651 0.72852 1.08420
 H412 H 0.32601 0.75578 1.10651
 N413 N 0.74373 0.55211 0.61366
 N414 N 0.73103 0.57219 0.64184
 C415 C 0.67680 0.53657 0.64212
 C416 C 0.65661 0.49382 0.61309
 N417 N 0.69965 0.50514 0.59614
 H418 H 0.61507 0.45901 0.60463
 N419 N 0.61906 0.15561 0.56304
 N420 N 0.60262 0.11702 0.59238
 C421 C 0.58637 0.14497 0.61486
 C422 C 0.59315 0.20205 0.59817
 N423 N 0.61362 0.20673 0.56598
 H424 H 0.58605 0.23816 0.60870
 N425 N 0.84125 0.35222 0.55742
 N426 N 0.86883 0.35581 0.58581
 C427 C 0.87986 0.41020 0.60474
 C428 C 0.85840 0.44062 0.58647
 N429 N 0.83472 0.40270 0.55717
 H430 H 0.85684 0.48282 0.59470
 N431 N 0.39029 0.50736 0.56060
 N432 N 0.41267 0.49802 0.58827
 C433 C 0.43175 0.55269 0.60937
 C434 C 0.42049 0.59636 0.59373
 N435 N 0.39425 0.56564 0.56339
 H436 H 0.42689 0.64247 0.60452
 N437 N 0.27719 0.76416 0.59421
 N438 N 0.29451 0.80191 0.62318
 C439 C 0.34198 0.81281 0.63231
 C440 C 0.35342 0.78079 0.60757
 N441 N 0.31210 0.75134 0.58443
 H442 H 0.38806 0.77892 0.60619
 N443 N 0.17627 0.42372 0.59990
 N444 N 0.15243 0.41313 0.63100
 C445 C 0.13547 0.45471 0.63180
 C446 C 0.14932 0.49047 0.59965
 N447 N 0.17446 0.46966 0.58062
 H448 H 0.14355 0.52961 0.59109
 N449 N 0.30120 0.42946 0.89814
 N450 N 0.32333 0.42633 0.86896
 C451 C 0.37048 0.48894 0.86448
 C452 C 0.37682 0.53053 0.89189
 N453 N 0.33280 0.49141 0.91224
 H454 H 0.41022 0.58350 0.89684
 N455 N 0.09355 0.40993 0.93979
 N456 N 0.06513 0.39854 0.91049
 C457 C 0.09206 0.45761 0.89079
 C458 C 0.13804 0.50639 0.90966
 N459 N 0.13720 0.47434 0.93992
 H460 H 0.17014 0.55871 0.90175
 N461 N 0.30894 0.77143 0.92962
 N462 N 0.32358 0.81237 0.90128
 C463 C 0.36390 0.81400 0.88556
 C464 C 0.37351 0.77223 0.90550
 N465 N 0.33828 0.74679 0.93258
 H466 H 0.40199 0.75993 0.90057
 N467 N 0.68668 0.60750 0.94064
 N468 N 0.67060 0.62421 0.91195
 C469 C 0.63727 0.56532 0.89394
 C470 C 0.63278 0.51168 0.91288
 N471 N 0.66418 0.54023 0.94168
 H472 H 0.61156 0.45802 0.90559
 N473 N 0.86173 0.57120 0.89230
 N474 N 0.88990 0.57858 0.86390
 C475 C 0.88129 0.51689 0.85846
 C476 C 0.84678 0.47125 0.88471
 N477 N 0.83565 0.50727 0.90525
 H478 H 0.83228 0.41784 0.88898
 N479 N 0.55072 0.23709 0.92416
 N480 N 0.52572 0.19764 0.89639
 C481 C 0.56216 0.19370 0.87886
 C482 C 0.61079 0.23245 0.89695
 N483 N 0.60168 0.25850 0.92499
 H484 H 0.64888 0.24134 0.89041
   
