data_POSCAR
  _audit_creation_date              2014-09-24
  _audit_creation_method            'ToBaCCo'
  _symmetry_space_group_name_H-M    'P1'
  _symmetry_Int_Tables_number       1
  _symmetry_cell_setting            triclinic
  loop_
  _symmetry_equiv_pos_as_xyz
 x,y,z
_cell_length_a 30.8235
_cell_length_b 35.2850
_cell_length_c 37.3503
_cell_angle_alpha 88.541000
_cell_angle_beta 87.995000
_cell_angle_gamma 90.539600
loop_
  _atom_site_label
  _atom_site_type_symbol
  _atom_site_fract_x
  _atom_site_fract_y
  _atom_site_fract_z
C1 C 0.22588 0.23108 0.26039
 C2 C 0.72764 0.75152 0.24595
 C3 C 0.75916 0.25603 0.75566
 C4 C 0.26343 0.73845 0.74636
 C5 C 0.08387 0.03011 0.01159
 H6 H 0.09433 0.02604 -0.01598
 C7 C 0.11040 0.04995 0.03434
 H8 H 0.14145 0.06104 0.02418
 C9 C 0.03036 0.02098 0.05826
 H10 H -0.00098 0.00974 0.06733
 C11 C 0.05572 0.04088 0.08184
 H12 H 0.04386 0.04394 0.10920
 N13 N 0.04465 0.01622 0.02383
 C14 C 0.04112 -0.04153 -0.07337
 H15 H 0.01693 -0.02479 -0.08645
 C16 C 0.06891 -0.06400 -0.09403
 H17 H 0.06567 -0.06392 -0.12278
 C18 C 0.07632 -0.06030 -0.02054
 H19 H 0.07980 -0.05806 0.00802
 C20 C 0.10507 -0.08274 -0.04020
 H21 H 0.13008 -0.09814 -0.02648
 Zn22 Zn 0.00894 -0.00886 -0.00836
 N23 N 0.04494 -0.04034 -0.03721
 C24 C -0.04861 0.01795 -0.06120
 N25 N -0.01908 0.02843 -0.03701
 C26 C -0.00948 0.06563 -0.03229
 C27 C -0.02959 0.09387 -0.05238
 C28 C -0.06964 0.04529 -0.08187
 C29 C -0.01845 -0.06792 0.03963
 C30 C -0.04758 -0.09006 0.06089
 C31 C -0.10618 -0.05245 0.03838
 C32 C -0.07585 -0.03093 0.01772
 N33 N -0.03284 -0.03902 0.01854
 H34 H -0.05617 -0.01178 -0.06421
 H35 H 0.01373 0.07364 -0.01279
 H36 H -0.02123 0.12326 -0.04799
 H37 H -0.09277 0.03543 -0.10065
 H38 H 0.01585 -0.07359 0.04037
 H39 H -0.03435 -0.11267 0.07699
 H40 H -0.14022 -0.04525 0.03728
 H41 H -0.08680 -0.00735 0.00154
 C42 C 0.10131 -0.08510 -0.07734
 C43 C 0.09611 0.05607 0.06974
 C44 C -0.09241 -0.08240 0.06065
 C45 C -0.06026 0.08413 -0.07763
 C46 C 0.02984 0.58859 0.51393
 H47 H 0.00927 0.60011 0.49365
 C48 C 0.05296 0.61328 0.53508
 H49 H 0.04953 0.64359 0.53096
 C50 C 0.05997 0.53553 0.54362
 H51 H 0.06340 0.50523 0.54644
 C52 C 0.08381 0.55914 0.56522
 H53 H 0.10498 0.54606 0.58423
 N54 N 0.03314 0.55040 0.51887
 C55 C 0.01941 0.45296 0.45143
 H56 H -0.01522 0.44810 0.45476
 C57 C 0.04471 0.42830 0.43115
 H58 H 0.02868 0.40492 0.41877
 C59 C 0.08106 0.49105 0.46230
 H60 H 0.09484 0.51595 0.47400
 C61 C 0.10766 0.46703 0.44228
 H62 H 0.14201 0.47348 0.43896
 Zn63 Zn 0.00019 0.51653 0.49129
 N64 N 0.03778 0.48368 0.46633
 C65 C -0.02448 0.53824 0.42174
 N66 N -0.03283 0.54401 0.45717
 C67 C -0.06372 0.56895 0.46800
 C68 C -0.08834 0.58848 0.44287
 C69 C -0.04812 0.55716 0.39575
 C70 C -0.01723 0.45935 0.54346
 C71 C -0.04198 0.43575 0.56694
 C72 C -0.10654 0.46598 0.54586
 C73 C -0.08047 0.48894 0.52276
 N74 N -0.03652 0.48579 0.52239
 H75 H 0.00067 0.51898 0.41337
 H76 H -0.06932 0.57368 0.49628
 H77 H -0.11249 0.60788 0.45283
 H78 H -0.04078 0.55179 0.36776
 H79 H 0.01753 0.45595 0.54160
 H80 H -0.02493 0.41534 0.58305
 H81 H -0.14145 0.46933 0.54579
 H82 H -0.09563 0.50908 0.50512
 C83 C 0.08960 0.43518 0.42640
 C84 C 0.08001 0.59872 0.56146
 C85 C -0.08754 0.43901 0.56865
 C86 C -0.08086 0.58254 0.40594
 C87 C 0.59186 0.04844 0.52250
 H88 H 0.60448 0.03614 0.49812
 C89 C 0.61916 0.07041 0.54281
 H90 H 0.65282 0.07441 0.53410
 C91 C 0.53269 0.05903 0.56305
 H92 H 0.49897 0.05460 0.57086
 C93 C 0.55883 0.08124 0.58416
 H94 H 0.54468 0.09280 0.60835
 N95 N 0.54953 0.04291 0.53300
 C96 C 0.54198 -0.01328 0.43686
 H97 H 0.51765 0.00534 0.42633
 C98 C 0.56759 -0.03434 0.41323
 H99 H 0.56267 -0.03131 0.38477
 C100 C 0.57928 -0.03828 0.48642
 H101 H 0.58392 -0.03932 0.51501
 C102 C 0.60585 -0.05958 0.46373
 H103 H 0.63071 -0.07728 0.47503
 Zn104 Zn 0.51306 0.01324 0.50465
 N105 N 0.54783 -0.01590 0.47278
 C106 C 0.48479 0.08367 0.47723
 N107 N 0.47715 0.04568 0.47823
 C108 C 0.44370 0.03025 0.46068
 C109 C 0.41668 0.05324 0.44045
 C110 C 0.45855 0.10777 0.45746
 C111 C 0.48415 -0.05653 0.53807
 C112 C 0.45716 -0.07953 0.56042
 C113 C 0.41434 -0.02453 0.57434
 C114 C 0.44223 -0.00265 0.55181
 N115 N 0.47674 -0.01872 0.53462
 H116 H 0.51153 0.09533 0.49150
 H117 H 0.43822 -0.00009 0.46226
 H118 H 0.39063 0.03959 0.42696
 H119 H 0.46552 0.13794 0.45685
 H120 H 0.51100 -0.06909 0.52357
 H121 H 0.46458 -0.10931 0.56226
 H122 H 0.38726 -0.01088 0.58787
 H123 H 0.43611 0.02725 0.54781
 C124 C 0.59977 -0.05816 0.42671
 C125 C 0.60274 0.08729 0.57398
 C126 C 0.42166 -0.06353 0.57932
 C127 C 0.42409 0.09278 0.43837
 C128 C 0.56907 0.51418 0.03235
 H129 H 0.58296 0.49368 0.01439
 C130 C 0.59644 0.53712 0.05174
 H131 H 0.63126 0.53377 0.04873
 C132 C 0.50710 0.54423 0.05738
 H133 H 0.47218 0.54708 0.05900
 C134 C 0.53327 0.56777 0.07727
 H135 H 0.51779 0.58886 0.09368
 N136 N 0.52525 0.51788 0.03572
 C137 C 0.52107 0.45715 -0.05687
 H138 H 0.50284 0.47895 -0.07023
 C139 C 0.54474 0.43132 -0.07728
 H140 H 0.54426 0.43363 -0.10620
 C141 C 0.54182 0.42630 -0.00312
 H142 H 0.54020 0.42444 0.02585
 C143 C 0.56540 0.39961 -0.02248
 H144 H 0.58212 0.37728 -0.00827
 Zn145 Zn 0.48780 0.48780 0.00869
 N146 N 0.52051 0.45451 -0.02045
 C147 C 0.47396 0.54519 -0.04351
 N148 N 0.45364 0.52088 -0.01943
 C149 C 0.40969 0.52067 -0.01478
 C150 C 0.38433 0.54415 -0.03595
 C151 C 0.44986 0.56923 -0.06536
 C152 C 0.45439 0.45652 0.07539
 C153 C 0.42755 0.43261 0.09703
 C154 C 0.39509 0.40972 0.04360
 C155 C 0.42309 0.43348 0.02308
 N156 N 0.45140 0.45676 0.03916
 H157 H 0.50904 0.54554 -0.04606
 H158 H 0.39401 0.50234 0.00540
 H159 H 0.34934 0.54295 -0.03196
 H160 H 0.46750 0.58753 -0.08444
 H161 H 0.47772 0.47473 0.08760
 H162 H 0.43041 0.43382 0.12571
 H163 H 0.37239 0.39185 0.03009
 H164 H 0.42197 0.43375 -0.00585
 C165 C 0.56749 0.40221 -0.05998
 C166 C 0.57871 0.56415 0.07479
 C167 C 0.39711 0.40873 0.08113
 C168 C 0.40408 0.56861 -0.06209
 C169 C 0.23256 -0.23906 -0.23327
 C170 C 0.24494 -0.21353 -0.20725
 C171 C 0.21318 -0.19042 -0.18741
 N172 N 0.22580 -0.17027 -0.15905
 N173 N 0.19739 -0.14931 -0.14077
 C174 C 0.15530 -0.14758 -0.15030
 N175 N 0.14275 -0.16751 -0.17882
 N176 N 0.17111 -0.18862 -0.19698
 C177 C 0.12352 -0.12440 -0.13054
 C178 C 0.13269 -0.10836 -0.09785
 H179 H 0.27887 -0.21083 -0.20095
 H180 H 0.09166 -0.12119 -0.14147
 H181 H 0.19828 -0.24103 -0.23876
 H182 H 0.16341 -0.11461 -0.08586
 C183 C 0.19745 0.25575 0.28411
 C184 C 0.21079 0.29071 0.29698
 C185 C 0.18349 0.31247 0.32194
 N186 N 0.19762 0.34655 0.33318
 N187 N 0.17324 0.36662 0.35578
 C188 C 0.13386 0.35325 0.36806
 N189 N 0.11979 0.31914 0.35687
 N190 N 0.14414 0.29910 0.33424
 C191 C 0.10608 0.37521 0.39250
 C192 C 0.11809 0.41107 0.40392
 H193 H 0.24238 0.30238 0.28905
 H194 H 0.07543 0.36246 0.40137
 H195 H 0.16650 0.24401 0.29388
 H196 H 0.15003 0.42213 0.39605
 C197 C 0.70119 -0.21704 0.26286
 C198 C 0.71903 -0.19220 0.28705
 C199 C 0.69241 -0.16523 0.30734
 N200 N 0.70932 -0.14744 0.33553
 N201 N 0.68502 -0.12438 0.35535
 C202 C 0.64290 -0.11817 0.34762
 N203 N 0.62615 -0.13557 0.31914
 N204 N 0.65039 -0.15879 0.29943
 C205 C 0.61525 -0.09365 0.36982
 C206 C 0.62800 -0.08105 0.40301
 H207 H 0.75296 -0.19474 0.29328
 H208 H 0.58314 -0.08735 0.36062
 H209 H 0.66726 -0.21419 0.25667
 H210 H 0.65877 -0.09035 0.41311
 C211 C 0.73733 0.28405 -0.21954
 C212 C 0.70718 0.27318 -0.19236
 C213 C 0.68306 0.30144 -0.17146
 N214 N 0.65835 0.29043 -0.14217
 N215 N 0.63590 0.31582 -0.12349
 C216 C 0.63714 0.35311 -0.13358
 N217 N 0.66163 0.36404 -0.16296
 N218 N 0.68424 0.33872 -0.18149
 C219 C 0.61210 0.38155 -0.11374
 C220 C 0.59234 0.37362 -0.08020
 H221 H 0.70085 0.24335 -0.18664
 H222 H 0.61070 0.40990 -0.12539
 H223 H 0.74353 0.31407 -0.22440
 H224 H 0.59733 0.34620 -0.06737
 C225 C -0.21992 0.22454 -0.22274
 C226 C -0.18751 0.23082 -0.19833
 C227 C -0.16783 0.19910 -0.17844
 N228 N -0.13664 0.20582 -0.15457
 N229 N -0.11860 0.17718 -0.13667
 C230 C -0.13108 0.14076 -0.14202
 N231 N -0.16223 0.13409 -0.16589
 N232 N -0.18024 0.16268 -0.18374
 C233 C -0.11165 0.10858 -0.12267
 C234 C -0.08002 0.11358 -0.09718
 H235 H -0.17633 0.25947 -0.19396
 H236 H -0.12331 0.08069 -0.12899
 H237 H -0.23101 0.19566 -0.22623
 H238 H -0.07015 0.14244 -0.09197
 C239 C -0.25326 0.72752 0.27573
 C240 C -0.22130 0.70040 0.26977
 C241 C -0.20085 0.68008 0.29961
 N242 N -0.16829 0.65538 0.29282
 N243 N -0.14849 0.63788 0.31965
 C244 C -0.16046 0.64446 0.35429
 N245 N -0.19314 0.66903 0.36105
 N246 N -0.21293 0.68653 0.33424
 C247 C -0.13836 0.62600 0.38434
 C248 C -0.10417 0.60076 0.37876
 H249 H -0.20957 0.69525 0.24268
 H250 H -0.14972 0.63297 0.41101
 H251 H -0.26579 0.73098 0.30294
 H252 H -0.09501 0.59464 0.35123
 C253 C 0.24819 0.20253 0.28433
 C254 C 0.27733 0.21344 0.31002
 C255 C 0.29948 0.18572 0.33279
 N256 N 0.32953 0.19769 0.35575
 N257 N 0.35042 0.17286 0.37615
 C258 C 0.34194 0.13512 0.37437
 N259 N 0.31170 0.12316 0.35154
 N260 N 0.29088 0.14800 0.33110
 C261 C 0.36525 0.10721 0.39618
 C262 C 0.39906 0.11791 0.41798
 H263 H 0.28476 0.24322 0.31303
 H264 H 0.35584 0.07789 0.39371
 H265 H 0.24095 0.17261 0.28176
 H266 H 0.40718 0.14785 0.41860
 C267 C 0.29172 0.71883 -0.22925
 C268 C 0.27661 0.69384 -0.20173
 C269 C 0.30655 0.67407 -0.17785
 N270 N 0.29074 0.65006 -0.15148
 N271 N 0.31760 0.63168 -0.13004
 C272 C 0.36129 0.63664 -0.13418
 N273 N 0.37706 0.66069 -0.16049
 N274 N 0.35022 0.67906 -0.18190
 C275 C 0.39163 0.61603 -0.11127
 C276 C 0.37714 0.59081 -0.08379
 H277 H 0.24207 0.68851 -0.19786
 H278 H 0.42580 0.62092 -0.11707
 H279 H 0.32658 0.72366 -0.23181
 H280 H 0.34234 0.58772 -0.07923
 C281 C -0.23678 -0.23026 0.22187
 C282 C -0.24610 -0.20689 0.19244
 C283 C -0.21186 -0.18773 0.17001
 N284 N -0.22272 -0.16273 0.14368
 N285 N -0.19207 -0.14486 0.12342
 C286 C -0.14937 -0.15143 0.12869
 N287 N -0.13854 -0.17659 0.15489
 N288 N -0.16918 -0.19437 0.17520
 C289 C -0.11490 -0.13177 0.10683
 C290 C -0.12386 -0.10295 0.08173
 H291 H -0.27966 -0.20197 0.18616
 H292 H -0.08200 -0.13998 0.11190
 H293 H -0.20319 -0.23406 0.22868
 H294 H -0.15760 -0.09537 0.07887
 C295 C -0.20697 0.27702 0.73191
 C296 C -0.21907 0.30526 0.70740
 C297 C -0.18791 0.32657 0.68384
 N298 N -0.20265 0.35332 0.66067
 N299 N -0.17512 0.37312 0.63906
 C300 C -0.13175 0.36693 0.63980
 N301 N -0.11697 0.34015 0.66298
 N302 N -0.14454 0.32031 0.68462
 C303 C -0.10091 0.38878 0.61616
 C304 C -0.11486 0.41659 0.59182
 H305 H -0.25315 0.31197 0.70543
 H306 H -0.06696 0.38242 0.61862
 H307 H -0.17293 0.27021 0.73408
 H308 H -0.14950 0.42139 0.59087
 C309 C 0.29049 -0.23887 0.72133
 C310 C 0.28336 -0.20107 0.71070
 C311 C 0.31283 -0.18091 0.68465
 N312 N 0.30580 -0.14401 0.67574
 N313 N 0.33251 -0.12543 0.65241
 C314 C 0.36720 -0.14311 0.63712
 N315 N 0.37412 -0.18002 0.64596
 N316 N 0.34747 -0.19856 0.66929
 C317 C 0.39739 -0.12313 0.61155
 C318 C 0.39330 -0.08455 0.60282
 H319 H 0.25572 -0.18575 0.72131
 H320 H 0.42356 -0.13966 0.60035
 H321 H 0.31766 -0.25312 0.70834
 H322 H 0.36662 -0.06960 0.61558
 C323 C 0.25946 0.25452 0.23850
 C324 C 0.24807 0.27915 0.21064
 C325 C 0.28020 0.30406 0.19166
 N326 N 0.27068 0.32069 0.15978
 N327 N 0.29948 0.34345 0.14239
 C328 C 0.33870 0.35069 0.15640
 N329 N 0.34800 0.33442 0.18848
 N330 N 0.31935 0.31139 0.20573
 C331 C 0.37066 0.37599 0.13762
 C332 C 0.36836 0.38438 0.10095
 H333 H 0.21477 0.27981 0.20230
 H334 H 0.39741 0.38605 0.15285
 H335 H 0.29308 0.25378 0.24606
 H336 H 0.34338 0.36998 0.08654
 C337 C 0.19714 0.20972 0.23537
 C338 C 0.21419 0.18530 0.20973
 C339 C 0.18633 0.16305 0.18679
 N340 N 0.20448 0.14106 0.16114
 N341 N 0.17962 0.12045 0.14040
 C342 C 0.13568 0.12102 0.14463
 N343 N 0.11755 0.14294 0.17033
 N344 N 0.14240 0.16360 0.19100
 C345 C 0.10765 0.09838 0.12214
 C346 C 0.12409 0.07798 0.09326
 H347 H 0.24906 0.18226 0.20670
 H348 H 0.07302 0.09906 0.12787
 H349 H 0.16220 0.21267 0.23805
 H350 H 0.15846 0.07996 0.08626
 C351 C 0.24054 0.71091 0.72578
 C352 C 0.21259 0.72142 0.69846
 C353 C 0.19039 0.69355 0.67667
 N354 N 0.16626 0.70561 0.64899
 N355 N 0.14610 0.68079 0.62884
 C356 C 0.14928 0.64295 0.63568
 N357 N 0.17332 0.63089 0.66344
 N358 N 0.19356 0.65571 0.68354
 C359 C 0.12711 0.61505 0.61385
 C360 C 0.10359 0.62568 0.58393
 H361 H 0.20742 0.75121 0.69247
 H362 H 0.12940 0.58565 0.62219
 H363 H 0.24541 0.68082 0.73079
 H364 H 0.10152 0.65559 0.57694
 C365 C 0.72561 0.23840 0.73213
 C366 C 0.73791 0.21355 0.70517
 C367 C 0.70659 0.19404 0.68316
 N368 N 0.72115 0.16964 0.65808
 N369 N 0.69336 0.15108 0.63821
 C370 C 0.64993 0.15625 0.64267
 N371 N 0.63534 0.18074 0.66770
 N372 N 0.66316 0.19932 0.68761
 C373 C 0.61887 0.13541 0.62131
 C374 C 0.63259 0.10988 0.59539
 H375 H 0.77205 0.20763 0.70054
 H376 H 0.58472 0.14074 0.62615
 H377 H 0.69146 0.24408 0.73712
 H378 H 0.66711 0.10678 0.58988
 C379 C 0.69758 0.72640 0.22529
 C380 C 0.71145 0.70429 0.19663
 C381 C 0.68134 0.67952 0.17798
 N382 N 0.69593 0.65916 0.14974
 N383 N 0.66891 0.63690 0.13247
 C384 C 0.62626 0.63415 0.14284
 N385 N 0.61172 0.65448 0.17109
 N386 N 0.63871 0.67674 0.18832
 C387 C 0.59572 0.60995 0.12402
 C388 C 0.60862 0.58849 0.09466
 H389 H 0.74514 0.70537 0.18739
 H390 H 0.56246 0.60890 0.13417
 H391 H 0.66419 0.72331 0.23514
 H392 H 0.64263 0.58874 0.08628
   
