data_POSCAR
  _audit_creation_date              2014-09-24
  _audit_creation_method            'ToBaCCo'
  _symmetry_space_group_name_H-M    'P1'
  _symmetry_Int_Tables_number       1
  _symmetry_cell_setting            triclinic
  loop_
  _symmetry_equiv_pos_as_xyz
 x,y,z
_cell_length_a 44.4358
_cell_length_b 44.4459
_cell_length_c 26.2427
_cell_angle_alpha 90.631300
_cell_angle_beta 89.991800
_cell_angle_gamma 119.832000
loop_
  _atom_site_label
  _atom_site_type_symbol
  _atom_site_fract_x
  _atom_site_fract_y
  _atom_site_fract_z
O1 O -0.00466 0.55315 -0.07690
 O2 O 0.04102 0.51799 -0.00325
 O3 O -0.00724 0.49328 -0.07298
 O4 O 0.04212 0.57653 -0.00359
 O5 O 0.00092 0.55860 0.05442
 O6 O -0.04788 0.47547 -0.01420
 O7 O 0.00010 0.49930 0.05529
 O8 O -0.04557 0.53493 -0.01846
 Cu9 Cu 0.02185 0.53718 -0.04517
 Cu10 Cu -0.02717 0.51541 0.02517
 C11 C -0.03306 0.54972 -0.06062
 C12 C 0.02843 0.50267 0.03846
 C13 C -0.03599 0.47004 -0.05516
 C14 C 0.03011 0.58145 0.03768
 O15 O 0.45728 0.45234 0.07354
 O16 O 0.54374 0.48216 0.01989
 O17 O 0.51750 0.50830 0.08409
 O18 O 0.48374 0.42793 0.00687
 O19 O 0.47102 0.45277 -0.05543
 O20 O 0.50545 0.53317 0.02105
 O21 O 0.53183 0.50715 -0.04321
 O22 O 0.44529 0.47779 0.01123
 Cu23 Cu 0.50173 0.46522 0.05252
 Cu24 Cu 0.48720 0.49528 -0.02284
 C25 C 0.43670 0.46027 0.05194
 C26 C 0.55225 0.49903 -0.02126
 C27 C 0.51690 0.53435 0.06580
 C28 C 0.47214 0.42685 -0.03785
 O29 O 0.55495 1.02881 -0.00698
 O30 O 0.46538 0.96402 0.02013
 O31 O 0.49660 1.02426 -0.01775
 O32 O 0.52589 0.97007 0.04813
 O33 O 0.52958 0.99774 0.12019
 O34 O 0.49894 1.05006 0.05575
 O35 O 0.46860 0.98872 0.09503
 O36 O 0.55944 1.05535 0.06663
 Cu37 Cu 0.51097 0.99356 0.00506
 Cu38 Cu 0.51462 1.02547 0.09187
 C39 C 0.57210 1.05389 0.02370
 C40 C 0.45146 0.96526 0.06161
 C41 C 0.49280 1.04653 0.00829
 C42 C 0.53214 0.97443 0.09580
 O43 O 1.03276 0.55037 0.48662
 O44 O 0.97642 0.46507 0.54509
 O45 O 1.03747 0.49532 0.50202
 O46 O 0.97258 0.52069 0.53348
 O47 O 0.94618 0.49954 0.45964
 O48 O 1.01220 0.47535 0.42721
 O49 O 0.95158 0.44420 0.47022
 O50 O 1.00574 0.52968 0.41304
 Cu51 Cu 1.00741 0.51002 0.52423
 Cu52 Cu 0.97635 0.48515 0.43509
 C53 C 1.02889 0.55435 0.43960
 C54 C 0.95432 0.44015 0.51741
 C55 C 1.03622 0.48139 0.45906
 C56 C 0.94796 0.51384 0.50256
 O57 O 0.47060 0.42226 0.49589
 O58 O 0.50462 0.50385 0.42564
 O59 O 0.52810 0.48065 0.49621
 O60 O 0.44588 0.44506 0.42395
 O61 O 0.42540 0.46643 0.48197
 O62 O 0.50680 0.50054 0.55524
 O63 O 0.48332 0.52400 0.48434
 O64 O 0.44812 0.44180 0.55358
 Cu65 Cu 0.48914 0.46069 0.45439
 Cu66 Cu 0.46368 0.48503 0.52481
 C67 C 0.45415 0.41837 0.53712
 C68 C 0.49984 0.52786 0.44316
 C69 C 0.53141 0.49668 0.53809
 C70 C 0.42202 0.45052 0.44000
 O71 O 0.57907 0.05886 0.45230
 O72 O 0.48904 -0.00996 0.42233
 O73 O 0.52058 0.05605 0.45318
 O74 O 0.55272 0.00064 0.40287
 O75 O 0.54356 -0.02554 0.47684
 O76 O 0.51457 0.03361 0.52978
 O77 O 0.48356 -0.02936 0.50085
 O78 O 0.57339 0.03564 0.52811
 Cu79 Cu 0.53501 0.02760 0.42521
 Cu80 Cu 0.52892 0.00094 0.51551
 C81 C 0.59125 0.05907 0.49632
 C82 C 0.47080 -0.03091 0.45721
 C83 C 0.51254 0.05491 0.49967
 C84 C 0.55301 -0.02242 0.43033
 C85 C 0.21699 0.45333 0.24799
 C86 C 0.21963 0.46047 0.19740
 C87 C 0.19612 0.47081 0.17301
 C88 C 0.24816 0.46204 0.16594
 C89 C 0.24688 0.45614 0.27721
 C90 C 0.18615 0.44806 0.27709
 C91 C 0.17036 0.44857 0.13842
 C92 C 0.14887 0.45909 0.11497
 C93 C 0.15370 0.49239 0.12473
 C94 C 0.17980 0.51468 0.15881
 C95 C 0.20049 0.50376 0.18343
 C96 C 0.25583 0.43499 0.16702
 C97 C 0.28287 0.43665 0.13775
 C98 C 0.30273 0.46547 0.10670
 C99 C 0.29426 0.49191 0.10443
 C100 C 0.26730 0.49028 0.13380
 C101 C 0.27758 0.48825 0.28088
 C102 C 0.30505 0.49206 0.31128
 C103 C 0.30269 0.46368 0.33761
 C104 C 0.27214 0.43130 0.33329
 C105 C 0.24422 0.42770 0.30377
 C106 C 0.18988 0.47011 0.31816
 C107 C 0.16063 0.46805 0.34143
 C108 C 0.12708 0.44359 0.32419
 C109 C 0.12352 0.42069 0.28439
 C110 C 0.15276 0.42267 0.26138
 H111 H 0.16691 0.42316 0.12979
 H112 H 0.12928 0.44173 0.08803
 H113 H 0.18411 0.54053 0.16644
 H114 H 0.22048 0.52127 0.20978
 H115 H 0.24072 0.41245 0.19033
 H116 H 0.28772 0.41512 0.13911
 H117 H 0.26180 0.51139 0.13196
 H118 H 0.27986 0.51059 0.26122
 H119 H 0.32820 0.51731 0.31447
 H120 H 0.26940 0.40918 0.35409
 H121 H 0.22052 0.40285 0.30176
 H122 H 0.21542 0.49005 0.33061
 H123 H 0.16458 0.48678 0.37106
 H124 H 0.09802 0.40171 0.27033
 H125 H 0.14938 0.40511 0.23013
 H126 H 0.30895 0.51423 0.08050
 C127 C 0.54078 0.75863 0.28376
 C128 C 0.54297 0.76131 0.23196
 C129 C 0.53916 0.73190 0.19940
 C130 C 0.54624 0.79203 0.20479
 C131 C 0.54569 0.78760 0.31842
 C132 C 0.52987 0.72488 0.30814
 C133 C 0.56066 0.71743 0.20643
 C134 C 0.55636 0.68943 0.17612
 C135 C 0.53062 0.67561 0.13784
 C136 C 0.50990 0.69084 0.13000
 C137 C 0.51402 0.71859 0.16053
 C138 C 0.56974 0.80634 0.16435
 C139 C 0.57120 0.83343 0.13588
 C140 C 0.54961 0.84710 0.14784
 C141 C 0.52592 0.83269 0.18811
 C142 C 0.52397 0.80515 0.21586
 C143 C 0.52175 0.78109 0.35769
 C144 C 0.52527 0.80781 0.38998
 C145 C 0.55251 0.84179 0.38348
 C146 C 0.57725 0.84830 0.34533
 C147 C 0.57401 0.82135 0.31339
 C148 C 0.49566 0.69759 0.30223
 C149 C 0.48460 0.66645 0.32770
 C150 C 0.50781 0.66186 0.35837
 C151 C 0.54219 0.68912 0.36388
 C152 C 0.55301 0.72060 0.33937
 H153 H 0.58087 0.72793 0.23526
 H154 H 0.57361 0.67919 0.18224
 H155 H 0.49011 0.68093 0.10050
 H156 H 0.49731 0.72948 0.15417
 H157 H 0.58672 0.79622 0.15446
 H158 H 0.58927 0.84381 0.10455
 H159 H 0.50455 0.79363 0.24530
 H160 H 0.49978 0.75535 0.36284
 H161 H 0.50602 0.80207 0.41924
 H162 H 0.59919 0.87405 0.34032
 H163 H 0.59345 0.82690 0.28455
 H164 H 0.47741 0.70077 0.27874
 H165 H 0.45793 0.64586 0.32338
 H166 H 0.56036 0.68645 0.38826
 H167 H 0.57937 0.74165 0.34470
 H168 H 0.50804 0.84186 0.19704
 C169 C 0.23853 0.77658 0.29469
 C170 C 0.23199 0.78041 0.24509
 C171 C 0.25623 0.81225 0.21698
 C172 C 0.20532 0.75089 0.21467
 C173 C 0.21271 0.74778 0.32669
 C174 C 0.27329 0.80056 0.31675
 C175 C 0.26426 0.84509 0.23595
 C176 C 0.29249 0.87501 0.21672
 C177 C 0.31280 0.87273 0.17755
 C178 C 0.30320 0.83986 0.15630
 C179 C 0.27503 0.80997 0.17568
 C180 C 0.18113 0.75472 0.18522
 C181 C 0.15834 0.72789 0.15256
 C182 C 0.16007 0.69722 0.14816
 C183 C 0.18436 0.69357 0.17757
 C184 C 0.20659 0.72002 0.21088
 C185 C 0.17743 0.73822 0.32512
 C186 C 0.15315 0.71086 0.35454
 C187 C 0.16369 0.69257 0.38658
 C188 C 0.19910 0.70299 0.38960
 C189 C 0.22335 0.73022 0.35989
 C190 C 0.30278 0.80240 0.29416
 C191 C 0.33579 0.82944 0.30667
 C192 C 0.34005 0.85462 0.34300
 C193 C 0.31059 0.85155 0.36802
 C194 C 0.27739 0.82457 0.35501
 H195 H 0.24991 0.84736 0.26770
 H196 H 0.29928 0.89990 0.23382
 H197 H 0.31848 0.83667 0.12695
 H198 H 0.26950 0.78487 0.16084
 H199 H 0.18029 0.77865 0.18702
 H200 H 0.14034 0.73168 0.12945
 H201 H 0.22567 0.71695 0.23241
 H202 H 0.16864 0.75211 0.30130
 H203 H 0.12630 0.70450 0.35264
 H204 H 0.20796 0.68960 0.41437
 H205 H 0.25039 0.73721 0.36229
 H206 H 0.30002 0.78393 0.26467
 H207 H 0.35803 0.83116 0.28702
 H208 H 0.31288 0.87085 0.39563
 H209 H 0.25486 0.82364 0.37247
 H210 H 0.18632 0.67028 0.17442
 C211 C 0.76245 0.55327 0.75678
 C212 C 0.76344 0.54507 0.70675
 C213 C 0.79191 0.54018 0.68624
 C214 C 0.73446 0.53766 0.67093
 C215 C 0.73157 0.55323 0.77800
 C216 C 0.78958 0.55791 0.79443
 C217 C 0.81040 0.55882 0.64340
 C218 C 0.83751 0.55481 0.62400
 C219 C 0.84645 0.53191 0.64713
 C220 C 0.82762 0.51296 0.68955
 C221 C 0.80017 0.51656 0.70839
 C222 C 0.72214 0.56107 0.66497
 C223 C 0.69324 0.55238 0.63402
 C224 C 0.67656 0.52036 0.60769
 C225 C 0.69006 0.49788 0.61159
 C226 C 0.71856 0.50632 0.64312
 C227 C 0.70030 0.52191 0.78294
 C228 C 0.67192 0.52147 0.80640
 C229 C 0.67432 0.55244 0.82470
 C230 C 0.70521 0.58391 0.81810
 C231 C 0.73392 0.58422 0.79571
 C232 C 0.77957 0.53819 0.83905
 C233 C 0.80438 0.53997 0.87329
 C234 C 0.83985 0.56120 0.86363
 C235 C 0.85005 0.58222 0.82010
 C236 C 0.82506 0.58076 0.78599
 H237 H 0.80419 0.57694 0.62555
 H238 H 0.85195 0.57028 0.59183
 H239 H 0.83400 0.49511 0.70790
 H240 H 0.78560 0.50118 0.74058
 H241 H 0.73470 0.58591 0.68465
 H242 H 0.68424 0.57085 0.63038
 H243 H 0.72773 0.48797 0.64672
 H244 H 0.69821 0.49778 0.76963
 H245 H 0.64812 0.49696 0.81044
 H246 H 0.70743 0.60801 0.83183
 H247 H 0.75799 0.60855 0.79221
 H248 H 0.75246 0.52048 0.84676
 H249 H 0.79580 0.52376 0.90671
 H250 H 0.87715 0.59976 0.81225
 H251 H 0.83340 0.59692 0.75254
 H252 H 0.67793 0.47327 0.59120
 C253 C 0.46056 0.21389 0.77780
 C254 C 0.45627 0.21395 0.72634
 C255 C 0.45968 0.24480 0.70010
 C256 C 0.45399 0.18541 0.69336
 C257 C 0.46553 0.18655 0.80184
 C258 C 0.46246 0.24172 0.81214
 C259 C 0.43252 0.24211 0.66961
 C260 C 0.43685 0.27052 0.64142
 C261 C 0.46877 0.30172 0.64250
 C262 C 0.49589 0.30424 0.67296
 C263 C 0.49129 0.27614 0.70196
 C264 C 0.42945 0.15060 0.70292
 C265 C 0.43210 0.12381 0.67876
 C266 C 0.45868 0.13129 0.64366
 C267 C 0.48189 0.16618 0.63183
 C268 C 0.47940 0.19291 0.65626
 C269 C 0.49289 0.18127 0.78661
 C270 C 0.49624 0.15421 0.80694
 C271 C 0.47311 0.13276 0.84414
 C272 C 0.44621 0.13860 0.86035
 C273 C 0.44254 0.16537 0.83939
 C274 C 0.48837 0.25619 0.84992
 C275 C 0.48996 0.28141 0.88370
 C276 C 0.46594 0.29305 0.88025
 C277 C 0.43970 0.27839 0.84276
 C278 C 0.43788 0.25280 0.80923
 H279 H 0.40816 0.21789 0.66723
 H280 H 0.41578 0.26763 0.61732
 H281 H 0.52079 0.32793 0.67391
 H282 H 0.51273 0.27840 0.72458
 H283 H 0.40946 0.14426 0.73114
 H284 H 0.41394 0.09720 0.68857
 H285 H 0.49879 0.21952 0.64857
 H286 H 0.51131 0.19782 0.75837
 H287 H 0.51721 0.15028 0.79408
 H288 H 0.42759 0.12208 0.88836
 H289 H 0.42136 0.16915 0.85162
 H290 H 0.50753 0.24801 0.85325
 H291 H 0.51027 0.29211 0.91241
 H292 H 0.42010 0.28598 0.83998
 H293 H 0.41696 0.24126 0.78156
 H294 H 0.50328 0.17316 0.60602
 C295 C 0.77168 0.23756 0.79675
 C296 C 0.77691 0.23906 0.74522
 C297 C 0.75540 0.20896 0.71091
 C298 C 0.80365 0.27146 0.72058
 C299 C 0.79561 0.26647 0.83118
 C300 C 0.74089 0.20814 0.82104
 C301 C 0.75017 0.17580 0.72147
 C302 C 0.72745 0.14724 0.69148
 C303 C 0.71010 0.15132 0.64970
 C304 C 0.71659 0.18484 0.63781
 C305 C 0.73915 0.21335 0.66803
 C306 C 0.82803 0.27056 0.68751
 C307 C 0.85388 0.30107 0.66553
 C308 C 0.85568 0.33303 0.67620
 C309 C 0.83102 0.33379 0.70873
 C310 C 0.80488 0.30325 0.72998
 C311 C 0.78224 0.28163 0.86477
 C312 C 0.80456 0.31044 0.89452
 C313 C 0.84062 0.32484 0.89092
 C314 C 0.85399 0.30867 0.85905
 C315 C 0.83162 0.27957 0.82972
 C316 C 0.70727 0.19640 0.80194
 C317 C 0.67860 0.16901 0.82515
 C318 C 0.68270 0.15364 0.86905
 C319 C 0.71620 0.16590 0.88908
 C320 C 0.74502 0.19290 0.86520
 H321 H 0.76295 0.17190 0.75377
 H322 H 0.72286 0.12173 0.70156
 H323 H 0.70319 0.18907 0.60676
 H324 H 0.74283 0.23871 0.65914
 H325 H 0.82747 0.24632 0.67958
 H326 H 0.87289 0.29968 0.64135
 H327 H 0.78583 0.30447 0.75432
 H328 H 0.75455 0.27177 0.86685
 H329 H 0.79365 0.32217 0.91930
 H330 H 0.88161 0.31833 0.85680
 H331 H 0.84239 0.26764 0.80510
 H332 H 0.70318 0.20845 0.76904
 H333 H 0.65302 0.16004 0.80909
 H334 H 0.72027 0.15416 0.92234
 H335 H 0.77064 0.20172 0.88093
 H336 H 0.83180 0.35806 0.71736
 C337 C 0.04674 0.48850 0.06767
 C338 C 0.08075 0.50070 0.06195
 C339 C 0.09925 0.48646 0.09052
 C340 C 0.13357 0.50534 0.09722
 H341 H 0.09550 0.52218 0.03655
 H342 H 0.08478 0.46086 0.10687
 H343 H 0.03233 0.46852 0.09536
 H344 H 0.14729 0.53192 0.08418
 C345 C 0.52883 0.56583 0.09768
 C346 C 0.52447 0.59220 0.08329
 C347 C 0.53348 0.62215 0.11735
 C348 C 0.52489 0.64601 0.10455
 H349 H 0.51278 0.59112 0.04655
 H350 H 0.54559 0.62360 0.15377
 H351 H 0.53985 0.56657 0.13485
 H352 H 0.51116 0.64266 0.06889
 C353 C 0.41524 0.93845 0.07035
 C354 C 0.39779 0.93715 0.11246
 C355 C 0.36286 0.90737 0.12075
 C356 C 0.34555 0.90440 0.16380
 H357 H 0.40982 0.95709 0.14174
 H358 H 0.35189 0.88722 0.09173
 H359 H 0.40283 0.91826 0.04147
 H360 H 0.35645 0.92573 0.19116
 C361 C 0.92055 0.52168 0.51691
 C362 C 0.91501 0.52645 0.56563
 C363 C 0.88593 0.53154 0.58062
 C364 C 0.87598 0.52812 0.62933
 H365 H 0.93126 0.52508 0.59530
 H366 H 0.87189 0.53673 0.55150
 H367 H 0.90327 0.52128 0.48743
 H368 H 0.88897 0.52055 0.65711
 C369 C 0.44284 0.38684 0.56717
 C370 C 0.46040 0.36967 0.56560
 C371 C 0.45154 0.33997 0.59876
 C372 C 0.47545 0.33106 0.60949
 H373 H 0.48302 0.37886 0.54141
 H374 H 0.42602 0.32627 0.61575
 H375 H 0.42178 0.37934 0.59394
 H376 H 0.50160 0.34686 0.59524
 C377 C 0.62571 0.08778 0.51140
 C378 C 0.63969 0.08846 0.55688
 C379 C 0.67062 0.11977 0.57646
 C380 C 0.68305 0.11985 0.62299
 H381 H 0.62677 0.06633 0.58177
 H382 H 0.68196 0.14301 0.55376
 H383 H 0.63867 0.10973 0.48623
 H384 H 0.67198 0.09565 0.64360
 C385 C 0.48240 0.06801 0.98541
 C386 C 0.47918 0.06950 0.93501
 C387 C 0.47090 0.09501 0.91374
 C388 C 0.47771 0.10462 0.86518
 H389 H 0.48457 0.05348 0.90936
 H390 H 0.46141 0.10781 0.93911
 H391 H 0.47835 0.08549 1.00993
 H392 H 0.48975 0.09355 0.84129
 C393 C 0.58553 0.50731 0.95557
 C394 C 0.59779 0.52650 0.91382
 C395 C 0.62823 0.52885 0.88804
 C396 C 0.64497 0.55193 0.85161
 H397 H 0.58465 0.53919 0.89753
 H398 H 0.63705 0.51101 0.89885
 H399 H 0.59957 0.49558 0.97205
 H400 H 0.63806 0.57154 0.84301
 C401 C 0.94545 0.43846 0.91870
 C402 C 0.91492 0.41295 0.93523
 C403 C 0.89507 0.38044 0.90595
 C404 C 0.86326 0.35663 0.92082
 H405 H 0.90387 0.41623 0.97030
 H406 H 0.90590 0.37683 0.87098
 H407 H 0.95613 0.43481 0.88352
 H408 H 0.85234 0.36187 0.95446
 C409 C 0.56283 0.95526 0.40764
 C410 C 0.55991 0.92709 0.43018
 C411 C 0.56552 0.90202 0.40025
 C412 C 0.55356 0.86962 0.41639
 H413 H 0.55062 0.92100 0.46900
 H414 H 0.57647 0.90919 0.36247
 H415 H 0.57101 0.95993 0.36816
 H416 H 0.54049 0.86229 0.45283
 C417 C 0.39054 0.43915 0.40871
 C418 C 0.37171 0.45497 0.41274
 C419 C 0.34208 0.44639 0.37863
 C420 C 0.33147 0.46948 0.37201
 H421 H 0.37946 0.47615 0.43993
 H422 H 0.32997 0.42205 0.35753
 H423 H 0.38434 0.41953 0.37938
 H424 H 0.34577 0.49470 0.39055
 C425 C 0.05155 0.58748 0.41434
 C426 C 0.08223 0.61132 0.43360
 C427 C 0.10548 0.64227 0.40390
 C428 C 0.13868 0.66288 0.41758
 H429 H 0.09095 0.60716 0.47006
 H430 H 0.09568 0.64696 0.36886
 H431 H 0.04380 0.59123 0.37684
 H432 H 0.14850 0.65637 0.45103
 C433 C 0.94806 0.56218 0.90773
 C434 C 0.91763 0.55879 0.92181
 C435 C 0.89680 0.56676 0.88650
 C436 C 0.86486 0.55978 0.89949
 H437 H 0.90697 0.54812 0.95876
 H438 H 0.90662 0.57574 0.84864
 H439 H 0.95862 0.57275 0.87071
 H440 H 0.85535 0.54927 0.93696
 C441 C 0.46147 0.39761 0.93087
 C442 C 0.46523 0.37066 0.94418
 C443 C 0.45800 0.34244 0.90752
 C444 C 0.46885 0.31986 0.91716
 H445 H 0.47583 0.37034 0.98128
 H446 H 0.44591 0.34166 0.87134
 H447 H 0.45166 0.39785 0.89311
 H448 H 0.48279 0.32269 0.95244
 C449 C 0.60639 0.08231 1.00824
 C450 C 0.61552 0.08666 0.95905
 C451 C 0.64795 0.11646 0.94095
 C452 C 0.65170 0.12392 0.89122
 H453 H 0.59778 0.06859 0.93071
 H454 H 0.66792 0.13280 0.96818
 H455 H 0.62311 0.10111 1.03663
 H456 H 0.63021 0.10839 0.86552
 C457 C 0.06226 0.47375 0.44693
 C458 C 0.06352 0.45972 0.40218
 C459 C 0.09389 0.45642 0.38862
 C460 C 0.09559 0.44333 0.34330
 H461 H 0.04296 0.45226 0.37420
 H462 H 0.11535 0.46587 0.41532
 H463 H 0.08296 0.48074 0.47450
 H464 H 0.07305 0.43255 0.31837
 C465 C 0.51368 0.56048 0.41515
 C466 C 0.50035 0.58139 0.42080
 C467 C 0.51414 0.61386 0.39237
 C468 C 0.49508 0.62917 0.38625
 H469 H 0.47836 0.57407 0.44572
 H470 H 0.53961 0.62480 0.37530
 H471 H 0.53426 0.56674 0.38792
 H472 H 0.46863 0.61651 0.40009
 C473 C 0.43448 0.94250 0.44808
 C474 C 0.42150 0.93109 0.40155
 C475 C 0.38563 0.90242 0.39513
 C476 C 0.37525 0.88460 0.35127
 H477 H 0.43783 0.94173 0.36837
 H478 H 0.36826 0.89482 0.42739
 H479 H 0.41845 0.93036 0.48109
 H480 H 0.39387 0.89124 0.32072
 C481 C 0.54076 0.95151 0.12462
 C482 C 0.54310 0.92535 0.10328
 C483 C 0.54566 0.89990 0.13578
 C484 C 0.55062 0.87488 0.11609
 H485 H 0.54122 0.92160 0.06227
 H486 H 0.54257 0.90119 0.17660
 H487 H 0.54306 0.95502 0.16568
 H488 H 0.55591 0.87489 0.07576
 C489 C 0.40300 0.44969 0.07577
 C490 C 0.38211 0.46124 0.05967
 C491 C 0.35067 0.45366 0.08824
 C492 C 0.33235 0.46903 0.07622
 H493 H 0.38913 0.47790 0.02676
 H494 H 0.34396 0.43712 0.12116
 H495 H 0.39620 0.43366 0.10937
 H496 H 0.34093 0.48697 0.04471
 C497 C 0.05048 0.61351 0.06760
 C498 C 0.08506 0.63110 0.06554
 C499 C 0.10564 0.66047 0.10036
 C500 C 0.13843 0.66945 0.11129
 H501 H 0.09849 0.62219 0.04042
 H502 H 0.09338 0.67334 0.11931
 H503 H 0.03713 0.62091 0.09525
 H504 H 0.14923 0.65435 0.09498
 C505 C 0.50171 0.07944 0.51788
 C506 C 0.48766 0.07757 0.56352
 C507 C 0.47967 0.10466 0.57973
 C508 C 0.46352 0.10266 0.62360
 H509 H 0.48279 0.05666 0.58912
 H510 H 0.48765 0.12685 0.55537
 H511 H 0.50558 0.10007 0.49231
 H512 H 0.45384 0.07935 0.64608
 C513 C 0.56394 0.51095 0.56767
 C514 C 0.58990 0.50551 0.55418
 C515 C 0.62168 0.51909 0.58544
 C516 C 0.64538 0.50965 0.57554
 H517 H 0.58741 0.49019 0.52035
 H518 H 0.62488 0.53567 0.61797
 H519 H 0.56631 0.52575 0.60204
 H520 H 0.64055 0.49133 0.54467
 C521 C 0.93098 0.40612 0.53969
 C522 C 0.92355 0.40228 0.58934
 C523 C 0.89759 0.36837 0.60955
 C524 C 0.88335 0.36608 0.65526
 H525 H 0.93532 0.42464 0.61480
 H526 H 0.88882 0.34544 0.58566
 H527 H 0.91767 0.38405 0.51398
 H528 H 0.89071 0.38969 0.67693
   
