data_POSCAR
  _audit_creation_date              2014-09-24
  _audit_creation_method            'ToBaCCo'
  _symmetry_space_group_name_H-M    'P1'
  _symmetry_Int_Tables_number       1
  _symmetry_cell_setting            triclinic
  loop_
  _symmetry_equiv_pos_as_xyz
 x,y,z
_cell_length_a 31.8364
_cell_length_b 31.8354
_cell_length_c 31.8820
_cell_angle_alpha 97.499800
_cell_angle_beta 82.449700
_cell_angle_gamma 99.872100
loop_
  _atom_site_label
  _atom_site_type_symbol
  _atom_site_fract_x
  _atom_site_fract_y
  _atom_site_fract_z
O1 O 0.56871 0.52977 0.03939
 O2 O 0.45306 0.51916 0.03183
 O3 O 0.50553 0.46621 0.03885
 O4 O 0.51686 0.58209 0.03000
 O5 O 0.52901 0.56905 -0.04002
 O6 O 0.51745 0.45361 -0.03122
 O7 O 0.46490 0.50648 -0.03822
 O8 O 0.58097 0.51685 -0.03064
 Cu9 Cu 0.50979 0.52555 0.04209
 Cu10 Cu 0.52424 0.51017 -0.04209
 C11 C 0.59434 0.52491 0.00580
 C12 C 0.43944 0.51146 -0.00444
 C13 C 0.50997 0.44042 0.00526
 C14 C 0.52468 0.59503 -0.00665
 O15 O -0.04838 0.53981 0.52401
 O16 O -0.03941 0.42523 0.51515
 O17 O -0.03887 0.48673 0.57696
 O18 O -0.04668 0.47826 0.46161
 O19 O 0.02392 0.49439 0.44970
 O20 O 0.03168 0.50310 0.56455
 O21 O 0.03120 0.44128 0.50313
 O22 O 0.02216 0.55617 0.51175
 Cu23 Cu -0.05047 0.48100 0.52062
 Cu24 Cu 0.03434 0.50045 0.50604
 C25 C -0.01476 0.56734 0.51915
 C26 C -0.00260 0.41392 0.50809
 C27 C -0.00209 0.49580 0.59009
 C28 C -0.01261 0.48496 0.43622
 O29 O 0.49500 0.02473 0.55041
 O30 O 0.50293 0.03115 0.43527
 O31 O 0.44165 0.03199 0.49725
 O32 O 0.55625 0.02173 0.48786
 O33 O 0.53910 -0.04880 0.47653
 O34 O 0.42483 -0.03861 0.48615
 O35 O 0.48579 -0.03939 0.42381
 O36 O 0.47810 -0.04584 0.53942
 Cu37 Cu 0.50076 0.03450 0.49384
 Cu38 Cu 0.48036 -0.05029 0.48038
 C39 C 0.48529 -0.01158 0.56441
 C40 C 0.49511 -0.00283 0.41016
 C41 C 0.41396 -0.00161 0.49289
 C42 C 0.56695 -0.01538 0.48082
 C43 C 0.50664 -0.07244 -0.09764
 C44 C 0.49691 -0.03304 -0.10482
 C45 C 0.49409 -0.00022 -0.07111
 C46 C 0.50293 -0.00587 -0.03001
 C47 C 0.51417 -0.04558 -0.02403
 C48 C 0.51480 -0.07887 -0.05725
 C49 C 0.50032 0.02898 0.00647
 C50 C 0.49365 0.01905 0.04906
 C51 C 0.49341 0.05149 0.08316
 C52 C 0.49726 0.09420 0.07551
 C53 C 0.50238 0.10474 0.03379
 C54 C 0.50489 0.07257 -0.00055
 H55 H 0.50774 -0.09817 -0.12350
 H56 H 0.48467 0.02923 -0.07732
 H57 H 0.52256 -0.05125 0.00629
 H58 H 0.48857 -0.01378 0.05635
 H59 H 0.49646 0.11927 0.10202
 H60 H 0.51088 0.08206 -0.03242
 C61 C -0.07322 0.50668 1.09551
 C62 C -0.07902 0.51508 1.05500
 C63 C -0.04512 0.51507 1.02231
 C64 C -0.00542 0.50420 1.02894
 C65 C -0.00045 0.49512 1.07013
 C66 C -0.03388 0.49731 1.10330
 C67 C 0.03011 0.50209 0.99305
 C68 C 0.07353 0.50693 1.00081
 C69 C 0.10626 0.50468 0.96692
 C70 C 0.09643 0.49957 0.92496
 C71 C 0.05391 0.49545 0.91664
 C72 C 0.02095 0.49544 0.95026
 H73 H -0.09938 0.50734 1.12099
 H74 H -0.05031 0.52362 0.99189
 H75 H 0.02895 0.48596 1.07681
 H76 H 0.08243 0.51287 1.03288
 H77 H 0.12188 0.49893 0.89878
 H78 H -0.01171 0.49012 0.94243
 C79 C -0.10019 -0.10209 0.50014
 C80 C -0.05977 -0.10811 0.50845
 C81 C -0.02610 -0.07344 0.50986
 C82 C -0.03171 -0.03257 0.50073
 C83 C -0.07263 -0.02759 0.49128
 C84 C -0.10678 -0.06177 0.49211
 C85 C 0.00471 0.00444 0.50097
 C86 C -0.00311 0.04739 0.50669
 C87 C 0.03094 0.08168 0.50568
 C88 C 0.07317 0.07389 0.50122
 C89 C 0.08166 0.03190 0.49664
 C90 C 0.04787 -0.00262 0.49539
 H91 H -0.12647 -0.12875 0.49992
 H92 H 0.00415 -0.07889 0.51831
 H93 H -0.07852 0.00258 0.48303
 H94 H -0.03539 0.05480 0.51219
 H95 H 0.09948 0.10054 0.50129
 H96 H 0.05585 -0.03469 0.48977
 C97 C -0.27895 0.52816 1.02020
 C98 C -0.27275 0.52824 1.06714
 C99 C -0.23151 0.52733 1.07363
 C100 C -0.20044 0.52645 1.03255
 C101 C -0.20574 0.56573 1.01160
 C102 C -0.24710 0.56663 1.00509
 C103 C -0.26112 0.48847 0.99710
 C104 C -0.21987 0.48757 1.00359
 C105 C -0.32364 0.52847 1.01369
 C106 C -0.36087 0.52745 1.00945
 C107 C -0.15630 0.52464 1.03989
 C108 C -0.12068 0.52132 1.04653
 H109 H -0.29850 0.52901 1.09305
 H110 H -0.22194 0.52734 1.10509
 H111 H -0.17941 0.59058 1.00267
 H112 H -0.25620 0.59226 0.99059
 H113 H -0.27927 0.46332 0.97730
 H114 H -0.20269 0.46163 0.98934
 C115 C 0.31354 0.50831 0.98795
 C116 C 0.29527 0.47540 0.95272
 C117 C 0.25291 0.47533 0.94998
 C118 C 0.23291 0.50818 0.98275
 C119 C 0.26122 0.55140 0.97588
 C120 C 0.30359 0.55148 0.97862
 C121 C 0.28438 0.49797 1.02885
 C122 C 0.24197 0.49789 1.02611
 C123 C 0.35924 0.50857 0.99069
 C124 C 0.39693 0.50946 0.99287
 C125 C 0.18737 0.50790 0.97918
 C126 C 0.15020 0.50696 0.97462
 H127 H 0.31394 0.45401 0.93177
 H128 H 0.23532 0.45385 0.92667
 H129 H 0.24905 0.57950 0.96949
 H130 H 0.32771 0.57965 0.97456
 H131 H 0.29601 0.49130 1.05742
 H132 H 0.21728 0.49118 1.05233
 C133 C -0.02881 -0.30897 0.52086
 C134 C -0.06219 -0.30477 0.49166
 C135 C -0.06811 -0.26360 0.49056
 C136 C -0.04008 -0.23052 0.51876
 C137 C 0.00610 -0.23830 0.50389
 C138 C 0.01202 -0.27954 0.50500
 C139 C -0.04426 -0.28675 0.56449
 C140 C -0.05018 -0.24548 0.56338
 C141 C -0.02277 -0.35358 0.52149
 C142 C -0.01859 -0.39062 0.52089
 C143 C -0.04668 -0.18631 0.51690
 C144 C -0.05249 -0.15041 0.51389
 H145 H -0.07970 -0.33181 0.47344
 H146 H -0.09068 -0.25540 0.47140
 H147 H 0.03189 -0.21358 0.49349
 H148 H 0.04287 -0.29012 0.49554
 H149 H -0.04997 -0.30205 0.59366
 H150 H -0.06098 -0.22544 0.59159
 C151 C 0.00713 0.28685 0.50702
 C152 C 0.03718 0.26938 0.46967
 C153 C 0.04066 0.22742 0.47026
 C154 C 0.01375 0.20699 0.50815
 C155 C -0.03223 0.21434 0.50568
 C156 C -0.03572 0.25635 0.50509
 C157 C 0.02459 0.27800 0.54712
 C158 C 0.02807 0.23602 0.54771
 C159 C 0.00359 0.33211 0.50652
 C160 C 0.00083 0.36943 0.50672
 C161 C 0.01806 0.16191 0.50851
 C162 C 0.02304 0.12513 0.50788
 H163 H 0.05421 0.28828 0.44491
 H164 H 0.06070 0.21038 0.44599
 H165 H -0.05961 0.18883 0.50452
 H166 H -0.06610 0.26684 0.50341
 H167 H 0.03342 0.30254 0.57282
 H168 H 0.03986 0.22461 0.57391
 C169 C 0.48344 -0.01711 -0.30977
 C170 C 0.50521 -0.05380 -0.30052
 C171 C 0.50640 -0.05559 -0.25828
 C172 C 0.48571 -0.02052 -0.22929
 C173 C 0.44005 -0.02538 -0.24189
 C174 C 0.43885 -0.02358 -0.28424
 C175 C 0.50781 0.02365 -0.28727
 C176 C 0.50900 0.02186 -0.24497
 C177 C 0.48277 -0.01531 -0.35545
 C178 C 0.48342 -0.01375 -0.39313
 C179 C 0.48773 -0.02302 -0.18398
 C180 C 0.49101 -0.02660 -0.14741
 H181 H 0.51849 -0.07644 -0.32501
 H182 H 0.52072 -0.07978 -0.24662
 H183 H 0.41124 -0.02978 -0.21954
 H184 H 0.40902 -0.02646 -0.29818
 H185 H 0.52274 0.05151 -0.30315
 H186 H 0.52494 0.04817 -0.22463
 C187 C 0.49397 0.01191 0.28437
 C188 C 0.50992 0.05863 0.27582
 C189 C 0.50875 0.06570 0.23483
 C190 C 0.49174 0.02537 0.20630
 C191 C 0.44765 0.00845 0.22886
 C192 C 0.44881 0.00137 0.26993
 C193 C 0.52157 -0.01474 0.25181
 C194 C 0.52040 -0.00765 0.21074
 C195 C 0.49515 0.00492 0.32876
 C196 C 0.49560 0.00059 0.36569
 C197 C 0.49086 0.03353 0.16222
 C198 C 0.49125 0.04124 0.12613
 H199 H 0.52117 0.08397 0.29988
 H200 H 0.51899 0.09709 0.22378
 H201 H 0.41814 0.00249 0.21391
 H202 H 0.42028 -0.01067 0.29015
 H203 H 0.54031 -0.03720 0.26024
 H204 H 0.53815 -0.02407 0.18397
 C205 C 0.52836 -0.27856 -0.02228
 C206 C 0.49206 -0.27406 -0.04783
 C207 C 0.49114 -0.23295 -0.05462
 C208 C 0.52661 -0.20025 -0.03523
 C209 C 0.56866 -0.21636 -0.05392
 C210 C 0.56958 -0.25759 -0.04710
 C211 C 0.52225 -0.24831 0.01890
 C212 C 0.52133 -0.20709 0.01209
 C213 C 0.52863 -0.32313 -0.01539
 C214 C 0.52749 -0.36028 -0.01077
 C215 C 0.52475 -0.15622 -0.04278
 C216 C 0.52128 -0.12061 -0.04930
 H217 H 0.46906 -0.30087 -0.05958
 H218 H 0.46736 -0.22454 -0.07220
 H219 H 0.59535 -0.19709 -0.07091
 H220 H 0.59707 -0.27367 -0.05825
 H221 H 0.51903 -0.25834 0.05059
 H222 H 0.51733 -0.18179 0.03794
 C223 C 0.50611 0.31221 0.01372
 C224 C 0.52484 0.28810 -0.02751
 C225 C 0.52467 0.24569 -0.02476
 C226 C 0.50580 0.23159 0.01895
 C227 C 0.46095 0.24467 0.02684
 C228 C 0.46111 0.28706 0.02409
 C229 C 0.53217 0.30411 0.04826
 C230 C 0.53201 0.26174 0.05101
 C231 C 0.50649 0.35790 0.01089
 C232 C 0.50753 0.39555 0.00851
 C233 C 0.50546 0.18604 0.02243
 C234 C 0.50455 0.14882 0.02671
 H235 H 0.53712 0.30303 -0.05633
 H236 H 0.53681 0.22428 -0.05119
 H237 H 0.43162 0.22256 0.03393
 H238 H 0.43195 0.30126 0.02883
 H239 H 0.54927 0.32943 0.06876
 H240 H 0.54898 0.25078 0.07386
 C241 C -0.30737 -0.03083 0.47889
 C242 C -0.29739 -0.03629 0.52348
 C243 C -0.25633 -0.04246 0.52472
 C244 C -0.22915 -0.04257 0.48124
 C245 C -0.23236 0.00019 0.46543
 C246 C -0.27352 0.00637 0.46419
 C247 C -0.29551 -0.07090 0.45061
 C248 C -0.25438 -0.07708 0.45185
 C249 C -0.35183 -0.02445 0.47816
 C250 C -0.38873 -0.01989 0.47877
 C251 C -0.18504 -0.04934 0.48326
 C252 C -0.14916 -0.05502 0.48644
 H253 H -0.32057 -0.03537 0.55167
 H254 H -0.24436 -0.04683 0.55396
 H255 H -0.20477 0.02351 0.45600
 H256 H -0.28118 0.03498 0.45370
 H257 H -0.31746 -0.09248 0.43127
 H258 H -0.24110 -0.10394 0.43358
 C259 C 0.28707 0.00892 0.49469
 C260 C 0.26417 -0.02413 0.46224
 C261 C 0.22216 -0.02059 0.46183
 C262 C 0.20722 0.01564 0.49390
 C263 C 0.23847 0.05621 0.48331
 C264 C 0.28044 0.05267 0.48372
 C265 C 0.25981 0.00296 0.53753
 C266 C 0.21782 0.00650 0.53712
 C267 C 0.33230 0.00524 0.49497
 C268 C 0.36957 0.00224 0.49455
 C269 C 0.16214 0.01991 0.49371
 C270 C 0.12529 0.02462 0.49442
 H271 H 0.27959 -0.04820 0.44143
 H272 H 0.20158 -0.04160 0.44069
 H273 H 0.22850 0.08517 0.47609
 H274 H 0.30642 0.07860 0.47687
 H275 H 0.27237 -0.00350 0.56569
 H276 H 0.19439 0.00306 0.56494
 C277 C -0.01895 0.48296 1.30820
 C278 C -0.01286 0.52864 1.29547
 C279 C -0.01464 0.53000 1.25326
 C280 C -0.02234 0.48554 1.22781
 C281 C -0.06358 0.46216 1.25053
 C282 C -0.06180 0.46080 1.29280
 C283 C 0.01541 0.46122 1.27913
 C284 C 0.01363 0.46258 1.23681
 C285 C -0.01709 0.48215 1.35381
 C286 C -0.01534 0.48278 1.39143
 C287 C -0.02474 0.48776 1.18254
 C288 C -0.02804 0.49121 1.14597
 H289 H -0.00757 0.55744 1.31768
 H290 H -0.01086 0.55996 1.23933
 H291 H -0.09168 0.44785 1.23477
 H292 H -0.08836 0.44534 1.31325
 H293 H 0.03901 0.44607 1.29076
 H294 H 0.03568 0.44862 1.21218
 C295 C 0.01402 0.49532 0.71554
 C296 C 0.02892 0.45379 0.72307
 C297 C 0.03637 0.45279 0.76402
 C298 C 0.02820 0.49342 0.79340
 C299 C -0.01814 0.49826 0.78899
 C300 C -0.02561 0.49926 0.74800
 C301 C 0.04881 0.53155 0.73093
 C302 C 0.05626 0.53055 0.77185
 C303 C 0.00659 0.49631 0.67129
 C304 C 0.00184 0.49656 0.63445
 C305 C 0.03663 0.49270 0.83739
 C306 C 0.04423 0.49320 0.87351
 H307 H 0.03317 0.42744 0.69841
 H308 H 0.04701 0.42562 0.77444
 H309 H -0.04290 0.50066 0.81568
 H310 H -0.05674 0.50253 0.73956
 H311 H 0.06604 0.55589 0.71141
 H312 H 0.07990 0.55403 0.78738
   
