data_POSCAR
  _audit_creation_date              2014-09-24
  _audit_creation_method            'ToBaCCo'
  _symmetry_space_group_name_H-M    'P1'
  _symmetry_Int_Tables_number       1
  _symmetry_cell_setting            triclinic
  loop_
  _symmetry_equiv_pos_as_xyz
 x,y,z
_cell_length_a 51.9401
_cell_length_b 51.9840
_cell_length_c 28.5049
_cell_angle_alpha 89.955900
_cell_angle_beta 90.044600
_cell_angle_gamma 90.008500
loop_
  _atom_site_label
  _atom_site_type_symbol
  _atom_site_fract_x
  _atom_site_fract_y
  _atom_site_fract_z
C1 C -0.02383 0.26696 0.02384
 C2 C -0.02375 0.26696 -0.02576
 C3 C -0.00026 0.26703 -0.05002
 C4 C 0.02315 0.26698 -0.02553
 C5 C 0.02305 0.26704 0.02397
 C6 C -0.00039 0.26708 0.04826
 H7 H -0.00034 0.26697 0.08634
 H8 H -0.00021 0.26688 -0.08813
 C9 C 0.47663 0.76918 0.52477
 C10 C 0.47649 0.76917 0.47533
 C11 C 0.49985 0.76923 0.45083
 C12 C 0.52330 0.76911 0.47512
 C13 C 0.52345 0.76905 0.52455
 C14 C 0.50009 0.76918 0.54906
 H15 H 0.50016 0.76900 0.58712
 H16 H 0.49977 0.76909 0.41277
 C17 C 1.02348 0.73156 0.02464
 C18 C 1.02335 0.73147 -0.02486
 C19 C 0.99990 0.73139 -0.04917
 C20 C 0.97650 0.73155 -0.02471
 C21 C 0.97663 0.73159 0.02479
 C22 C 1.00009 0.73153 0.04910
 H23 H 1.00008 0.73173 0.08718
 H24 H 0.99990 0.73149 -0.08725
 C25 C 0.52338 0.23227 0.52545
 C26 C 0.52351 0.23228 0.47601
 C27 C 0.50015 0.23213 0.45146
 C28 C 0.47668 0.23214 0.47570
 C29 C 0.47655 0.23220 0.52514
 C30 C 0.49992 0.23217 0.54969
 H31 H 0.49986 0.23233 0.58775
 H32 H 0.50021 0.23226 0.41340
 C33 C 0.73178 -0.02380 0.02583
 C34 C 0.73180 -0.02375 -0.02369
 C35 C 0.73172 -0.00033 -0.04804
 C36 C 0.73176 0.02304 -0.02362
 C37 C 0.73171 0.02300 0.02580
 C38 C 0.73165 -0.00039 0.05022
 H39 H 0.73178 -0.00033 0.08830
 H40 H 0.73190 -0.00029 -0.08609
 C41 C 0.23210 0.47656 0.52464
 C42 C 0.23213 0.47649 0.47521
 C43 C 0.23210 0.49986 0.45068
 C44 C 0.23220 0.52328 0.47496
 C45 C 0.23222 0.52335 0.52440
 C46 C 0.23209 0.49999 0.54892
 H47 H 0.23223 0.50003 0.58698
 H48 H 0.23224 0.49981 0.41263
 C49 C 0.26681 1.02420 0.02462
 C50 C 0.26681 1.02418 -0.02499
 C51 C 0.26687 1.00073 -0.04928
 C52 C 0.26679 0.97735 -0.02481
 C53 C 0.26680 0.97737 0.02460
 C54 C 0.26688 1.00076 0.04899
 H55 H 0.26675 1.00066 0.08707
 H56 H 0.26673 1.00062 -0.08736
 C57 C 0.76923 0.52335 0.52452
 C58 C 0.76916 0.52345 0.47509
 C59 C 0.76929 0.50011 0.45057
 C60 C 0.76929 0.47667 0.47487
 C61 C 0.76932 0.47657 0.52430
 C62 C 0.76938 0.49991 0.54881
 H63 H 0.76925 0.49984 0.58687
 H64 H 0.76909 0.50018 0.41252
 O65 O 0.22796 0.26319 0.19120
 O66 O 0.29076 0.25495 0.24908
 O67 O 0.26325 0.22773 0.19093
 O68 O 0.25544 0.29042 0.24934
 O69 O 0.23639 0.27129 0.30904
 O70 O 0.24420 0.20860 0.25062
 O71 O 0.27170 0.23583 0.30878
 O72 O 0.20889 0.24407 0.25090
 Cu73 Cu 0.26127 0.26099 0.21416
 Cu74 Cu 0.23838 0.23803 0.28582
 C75 C 0.20767 0.25497 0.21106
 C76 C 0.29198 0.24405 0.28893
 C77 C 0.25499 0.20743 0.21069
 C78 C 0.24464 0.29159 0.28926
 O79 O 0.77181 0.73686 0.19139
 O80 O 0.70910 0.74513 0.24932
 O81 O 0.73653 0.77234 0.19110
 O82 O 0.74441 0.70966 0.24962
 O83 O 0.76355 0.72877 0.30924
 O84 O 0.75567 0.79146 0.25073
 O85 O 0.72825 0.76424 0.30895
 O86 O 0.79097 0.75597 0.25101
 Cu87 Cu 0.73854 0.73908 0.21438
 Cu88 Cu 0.76153 0.76203 0.28596
 C89 C 0.79213 0.74505 0.21122
 C90 C 0.70794 0.75604 0.28912
 C91 C 0.74481 0.79264 0.21083
 C92 C 0.75528 0.70847 0.28951
 O93 O 0.79162 0.24419 0.25034
 O94 O 0.72893 0.23659 0.30923
 O95 O 0.75598 0.20901 0.25100
 O96 O 0.76456 0.27177 0.30861
 O97 O 0.74537 0.29086 0.24897
 O98 O 0.73679 0.22809 0.19135
 O99 O 0.70973 0.25567 0.24959
 O100 O 0.77242 0.26327 0.19070
 Cu101 Cu 0.76219 0.23848 0.28577
 Cu102 Cu 0.73916 0.26139 0.21418
 C103 C 0.79275 0.25496 0.21036
 C104 C 0.70859 0.24489 0.28956
 C105 C 0.74498 0.20780 0.21123
 C106 C 0.75635 0.29206 0.28875
 O107 O 0.27103 0.76383 0.30861
 O108 O 0.20831 0.75563 0.24999
 O109 O 0.23573 0.72832 0.30828
 O110 O 0.24363 0.79114 0.25032
 O111 O 0.26287 0.77218 0.19070
 O112 O 0.25498 0.70937 0.24866
 O113 O 0.22757 0.73668 0.19037
 O114 O 0.29028 0.74488 0.24898
 Cu115 Cu 0.23774 0.76162 0.28526
 Cu116 Cu 0.26085 0.73888 0.21371
 C117 C 0.29140 0.75569 0.28890
 C118 C 0.20720 0.74482 0.21006
 C119 C 0.24408 0.70809 0.28848
 C120 C 0.25454 0.79242 0.21051
 O121 O 0.70964 0.25542 0.75113
 O122 O 0.77252 0.26334 0.80887
 O123 O 0.74516 0.29068 0.75068
 O124 O 0.73701 0.22807 0.80932
 O125 O 0.75593 0.20882 0.74966
 O126 O 0.76409 0.27144 0.69102
 O127 O 0.79145 0.24409 0.74922
 O128 O 0.72857 0.23617 0.69147
 Cu129 Cu 0.73919 0.26131 0.78598
 Cu130 Cu 0.76191 0.23820 0.71436
 C131 C 0.70834 0.24450 0.71134
 C132 C 0.79275 0.25501 0.78901
 C133 C 0.75596 0.29178 0.71074
 C134 C 0.74514 0.20772 0.78960
 O135 O 0.22812 0.73654 0.80833
 O136 O 0.29085 0.74517 0.75060
 O137 O 0.26322 0.77221 0.80871
 O138 O 0.25572 0.70951 0.75018
 O139 O 0.23654 0.72856 0.69048
 O140 O 0.24405 0.79126 0.74900
 O141 O 0.27167 0.76421 0.69089
 O142 O 0.20893 0.75559 0.74862
 Cu143 Cu 0.26140 0.73895 0.78544
 Cu144 Cu 0.23838 0.76182 0.71376
 C145 C 0.20778 0.74465 0.78843
 C146 C 0.29200 0.75610 0.71079
 C147 C 0.25485 0.79248 0.78895
 C148 C 0.24490 0.70829 0.71025
 O149 O 0.25464 0.29059 0.75125
 O150 O 0.26282 0.22779 0.80916
 O151 O 0.29013 0.25527 0.75103
 O152 O 0.22732 0.26309 0.80937
 O153 O 0.20821 0.24406 0.74963
 O154 O 0.27101 0.23625 0.69129
 O155 O 0.24371 0.20875 0.74943
 O156 O 0.23553 0.27156 0.69150
 Cu157 Cu 0.26064 0.26109 0.78618
 Cu158 Cu 0.23770 0.23825 0.71449
 C159 C 0.24376 0.29182 0.71137
 C160 C 0.25460 0.20752 0.78929
 C161 C 0.29133 0.24450 0.71109
 C162 C 0.20701 0.25484 0.78957
 O163 O 0.72892 0.76342 0.69118
 O164 O 0.79163 0.75545 0.74993
 O165 O 0.76442 0.72811 0.69146
 O166 O 0.75612 0.79075 0.74965
 O167 O 0.73692 0.77155 0.80913
 O168 O 0.74523 0.70892 0.75095
 O169 O 0.77243 0.73627 0.80942
 O170 O 0.70972 0.74423 0.75066
 Cu171 Cu 0.76220 0.76135 0.71460
 Cu172 Cu 0.73915 0.73832 0.78600
 C173 C 0.70858 0.75514 0.71079
 C174 C 0.79277 0.74456 0.78981
 C175 C 0.75618 0.70779 0.71117
 C176 C 0.74516 0.79188 0.78943
 C177 C 0.25062 0.13596 0.18498
 C178 C 0.26194 0.13462 0.14052
 C179 C 0.27133 0.15702 0.11928
 C180 C 0.26927 0.18069 0.14224
 C181 C 0.26628 0.04667 0.04959
 C182 C 0.24853 0.15961 0.20803
 C183 C 0.26349 0.11038 0.11629
 C184 C 0.26458 0.09017 0.09567
 C185 C 0.26561 0.06663 0.07108
 C186 C 0.25774 0.18227 0.18682
 H187 H 0.24325 0.11875 0.20172
 H188 H 0.28009 0.15621 0.08483
 H189 H 0.27655 0.19775 0.12494
 H190 H 0.23956 0.16016 0.24229
 C191 C 0.77312 0.65742 0.62015
 C192 C 0.76376 0.63501 0.64134
 C193 C 0.75226 0.63632 0.68565
 C194 C 0.74997 0.65996 0.70859
 C195 C 0.76860 0.54706 0.55079
 C196 C 0.77086 0.68109 0.64301
 C197 C 0.76548 0.61078 0.61721
 C198 C 0.76669 0.59057 0.59666
 C199 C 0.76784 0.56703 0.57217
 C200 C 0.75915 0.68265 0.68743
 H201 H 0.78202 0.65663 0.58581
 H202 H 0.74491 0.61908 0.70234
 H203 H 0.74086 0.66050 0.74274
 H204 H 0.77812 0.69818 0.62575
 C205 C 0.72810 0.84312 0.11962
 C206 C 0.73743 0.86552 0.14090
 C207 C 0.74888 0.86415 0.18528
 C208 C 0.75113 0.84047 0.20823
 C209 C 0.73243 0.95367 0.05058
 C210 C 0.73032 0.81942 0.14248
 C211 C 0.73567 0.88980 0.11681
 C212 C 0.73442 0.91006 0.09632
 C213 C 0.73322 0.93365 0.07191
 C214 C 0.74196 0.81781 0.18700
 H215 H 0.71924 0.84396 0.08522
 H216 H 0.75620 0.88136 0.20204
 H217 H 0.76018 0.83990 0.24244
 H218 H 0.72307 0.80236 0.12517
 C219 C 0.24802 0.36333 0.68603
 C220 C 0.23666 0.36474 0.64157
 C221 C 0.22725 0.34240 0.62025
 C222 C 0.22933 0.31869 0.64312
 C223 C 0.23257 0.45281 0.55093
 C224 C 0.25013 0.33964 0.70898
 C225 C 0.23515 0.38901 0.61741
 C226 C 0.23412 0.40925 0.59684
 C227 C 0.23317 0.43282 0.57233
 C228 C 0.24091 0.31702 0.68767
 H229 H 0.25541 0.38051 0.70282
 H230 H 0.21846 0.34328 0.58580
 H231 H 0.22205 0.30166 0.62574
 H232 H 0.25914 0.33903 0.74323
 C233 C 0.86426 0.25047 0.18426
 C234 C 0.86557 0.26181 0.13977
 C235 C 0.84313 0.27122 0.11863
 C236 C 0.81946 0.26918 0.14171
 C237 C 0.95364 0.26636 0.04877
 C238 C 0.84061 0.24840 0.20741
 C239 C 0.88984 0.26340 0.11547
 C240 C 0.91007 0.26454 0.09482
 C241 C 0.93364 0.26563 0.07023
 C242 C 0.81791 0.25765 0.18632
 H243 H 0.88150 0.24309 0.20094
 H244 H 0.84391 0.28000 0.08417
 H245 H 0.80237 0.27648 0.12447
 H246 H 0.84010 0.23943 0.24169
 C247 C 0.34248 0.77319 0.62003
 C248 C 0.36490 0.76394 0.64142
 C249 C 0.36357 0.75250 0.68580
 C250 C 0.33988 0.75014 0.70861
 C251 C 0.45291 0.76863 0.55104
 C252 C 0.31877 0.77086 0.64276
 C253 C 0.38916 0.76566 0.61738
 C254 C 0.40939 0.76685 0.59688
 C255 C 0.43294 0.76794 0.57242
 C256 C 0.31719 0.75919 0.68723
 H257 H 0.34331 0.78203 0.58562
 H258 H 0.38082 0.74524 0.70262
 H259 H 0.33932 0.74107 0.74281
 H260 H 0.30167 0.77802 0.62535
 C261 C 0.15679 0.72809 0.11861
 C262 C 0.13432 0.73730 0.13981
 C263 C 0.13561 0.74866 0.18425
 C264 C 0.15928 0.75094 0.20731
 C265 C 0.04607 0.73222 0.04932
 C266 C 0.18048 0.73034 0.14158
 C267 C 0.11002 0.73553 0.11561
 C268 C 0.08976 0.73426 0.09507
 C269 C 0.06613 0.73304 0.07063
 C270 C 0.18202 0.74189 0.18615
 H271 H 0.15602 0.71930 0.08418
 H272 H 0.11835 0.75589 0.20098
 H273 H 0.15979 0.75993 0.24155
 H274 H 0.19760 0.72318 0.12431
 C275 C 0.65759 0.22785 0.62066
 C276 C 0.63528 0.23730 0.64203
 C277 C 0.63677 0.24877 0.68634
 C278 C 0.66051 0.25094 0.70912
 C279 C 0.54711 0.23285 0.55177
 C280 C 0.68136 0.22998 0.64336
 C281 C 0.61097 0.23571 0.61805
 C282 C 0.59070 0.23459 0.59759
 C283 C 0.56711 0.23354 0.57316
 C284 C 0.68310 0.24166 0.68778
 H285 H 0.65665 0.21898 0.58632
 H286 H 0.61960 0.25619 0.70315
 H287 H 0.66119 0.26002 0.74327
 H288 H 0.69837 0.22266 0.62598
 C289 C 0.72837 0.15739 0.88102
 C290 C 0.73755 0.13494 0.85977
 C291 C 0.74890 0.13622 0.81533
 C292 C 0.75121 0.15986 0.79230
 C293 C 0.73244 0.04684 0.95023
 C294 C 0.73065 0.18106 0.85807
 C295 C 0.73575 0.11069 0.88395
 C296 C 0.73448 0.09045 0.90449
 C297 C 0.73325 0.06686 0.92893
 C298 C 0.74219 0.18258 0.81350
 H299 H 0.71958 0.15663 0.91546
 H300 H 0.75611 0.11896 0.79858
 H301 H 0.76019 0.16036 0.75804
 H302 H 0.72352 0.19817 0.87537
 C303 C 0.24852 0.63659 0.31384
 C304 C 0.23709 0.63513 0.35819
 C305 C 0.22759 0.65745 0.37946
 C306 C 0.22965 0.68117 0.35664
 C307 C 0.23277 0.54703 0.44868
 C308 C 0.25062 0.66029 0.29093
 C309 C 0.23554 0.61085 0.38229
 C310 C 0.23447 0.59060 0.40282
 C311 C 0.23345 0.56703 0.42730
 C312 C 0.24130 0.68288 0.31217
 H313 H 0.25597 0.61944 0.29709
 H314 H 0.21873 0.65654 0.41383
 H315 H 0.22229 0.69818 0.37396
 H316 H 0.25968 0.66094 0.25676
 C317 C 0.27112 0.84300 0.88026
 C318 C 0.26168 0.86535 0.85895
 C319 C 0.25031 0.86395 0.81450
 C320 C 0.24824 0.84027 0.79153
 C321 C 0.26618 0.95354 0.94909
 C322 C 0.26908 0.81930 0.85738
 C323 C 0.26327 0.88964 0.88304
 C324 C 0.26439 0.90990 0.90350
 C325 C 0.26547 0.93351 0.92785
 C326 C 0.25753 0.81765 0.81280
 H327 H 0.27992 0.84386 0.91470
 H328 H 0.24291 0.88113 0.79770
 H329 H 0.23925 0.83968 0.75727
 H330 H 0.27641 0.80227 0.87472
 C331 C 0.77341 0.34257 0.37949
 C332 C 0.76403 0.36495 0.35818
 C333 C 0.75253 0.36358 0.31385
 C334 C 0.75022 0.33990 0.29102
 C335 C 0.76872 0.45295 0.44860
 C336 C 0.77113 0.31887 0.35674
 C337 C 0.76573 0.38921 0.38224
 C338 C 0.76691 0.40943 0.40275
 C339 C 0.76801 0.43298 0.42722
 C340 C 0.75940 0.31725 0.31231
 H341 H 0.78231 0.34342 0.41385
 H342 H 0.74517 0.38079 0.29707
 H343 H 0.74110 0.33932 0.25686
 H344 H 0.77838 0.30181 0.37410
 C345 C 0.13542 0.25052 0.81511
 C346 C 0.13404 0.26183 0.85957
 C347 C 0.15645 0.27118 0.88088
 C348 C 0.18017 0.26910 0.85799
 C349 C 0.04573 0.26640 0.94981
 C350 C 0.15912 0.24841 0.79214
 C351 C 0.10972 0.26344 0.88369
 C352 C 0.08944 0.26458 0.90417
 C353 C 0.06580 0.26568 0.92855
 C354 C 0.18180 0.25760 0.81340
 H355 H 0.11821 0.24318 0.79830
 H356 H 0.15562 0.27994 0.91532
 H357 H 0.19724 0.27636 0.87535
 H358 H 0.15969 0.23945 0.75787
 C359 C 0.63639 0.75224 0.31422
 C360 C 0.63505 0.76369 0.35855
 C361 C 0.65745 0.77299 0.37990
 C362 C 0.68117 0.77071 0.35716
 C363 C 0.54702 0.76850 0.44885
 C364 C 0.66008 0.74992 0.29141
 C365 C 0.61078 0.76542 0.38257
 C366 C 0.59055 0.76662 0.40305
 C367 C 0.56700 0.76776 0.42748
 C368 C 0.68276 0.75904 0.31273
 H369 H 0.61915 0.74494 0.29744
 H370 H 0.65661 0.78185 0.41426
 H371 H 0.69825 0.77791 0.37453
 H372 H 0.66065 0.74085 0.25724
 C373 C 0.86433 0.74867 0.81574
 C374 C 0.86566 0.73721 0.86012
 C375 C 0.84322 0.72785 0.88126
 C376 C 0.81952 0.73006 0.85827
 C377 C 0.95392 0.73220 0.95060
 C378 C 0.84066 0.75091 0.79268
 C379 C 0.88995 0.73546 0.88432
 C380 C 0.91022 0.73421 0.90486
 C381 C 0.93386 0.73300 0.92930
 C382 C 0.81795 0.74170 0.81376
 H383 H 0.88157 0.75602 0.79907
 H384 H 0.84401 0.71897 0.91564
 H385 H 0.80242 0.72278 0.87549
 H386 H 0.84013 0.75997 0.75848
 C387 C 0.36353 0.24816 0.31421
 C388 C 0.36492 0.23677 0.35862
 C389 C 0.34256 0.22738 0.37994
 C390 C 0.31883 0.22952 0.35710
 C391 C 0.45296 0.23261 0.44936
 C392 C 0.33983 0.25034 0.29129
 C393 C 0.38919 0.23522 0.38277
 C394 C 0.40942 0.23417 0.40336
 C395 C 0.43298 0.23321 0.42791
 C396 C 0.31719 0.24114 0.31259
 H397 H 0.38074 0.25553 0.29744
 H398 H 0.34343 0.21857 0.41436
 H399 H 0.30178 0.22226 0.37446
 H400 H 0.33922 0.25938 0.25707
 C401 C 0.72813 0.84223 0.88041
 C402 C 0.73748 0.86465 0.85922
 C403 C 0.74900 0.86336 0.81494
 C404 C 0.75133 0.83971 0.79201
 C405 C 0.73247 0.95255 0.94991
 C406 C 0.73043 0.81856 0.85756
 C407 C 0.73571 0.88888 0.88335
 C408 C 0.73446 0.90908 0.90392
 C409 C 0.73326 0.93260 0.92846
 C410 C 0.74216 0.81702 0.81316
 H411 H 0.71921 0.84302 0.91473
 H412 H 0.75634 0.88060 0.79826
 H413 H 0.76046 0.83918 0.75788
 H414 H 0.72318 0.80147 0.87481
 C415 C 0.22813 0.34206 0.38047
 C416 C 0.23746 0.36446 0.35915
 C417 C 0.24882 0.36310 0.31472
 C418 C 0.25100 0.33942 0.29179
 C419 C 0.23273 0.45266 0.44917
 C420 C 0.23028 0.31837 0.35762
 C421 C 0.23578 0.38874 0.38321
 C422 C 0.23460 0.40900 0.40365
 C423 C 0.23347 0.43262 0.42797
 C424 C 0.24183 0.31676 0.31306
 H425 H 0.21934 0.34289 0.41489
 H426 H 0.25613 0.38031 0.29791
 H427 H 0.25999 0.33886 0.25754
 H428 H 0.22304 0.30130 0.37497
 C429 C 0.27128 0.15695 0.88033
 C430 C 0.26189 0.13460 0.85902
 C431 C 0.25048 0.13600 0.81461
 C432 C 0.24830 0.15969 0.79168
 C433 C 0.26629 0.04663 0.94995
 C434 C 0.26913 0.18067 0.85749
 C435 C 0.26348 0.11033 0.88317
 C436 C 0.26459 0.09011 0.90378
 C437 C 0.26562 0.06658 0.92840
 C438 C 0.25750 0.18232 0.81298
 H439 H 0.28011 0.15609 0.91475
 H440 H 0.24311 0.11881 0.79783
 H441 H 0.23925 0.16029 0.75746
 H442 H 0.27640 0.19771 0.87485
 C443 C 0.77218 0.65797 0.38057
 C444 C 0.76290 0.63557 0.35925
 C445 C 0.75139 0.63694 0.31491
 C446 C 0.74905 0.66063 0.29204
 C447 C 0.76838 0.54729 0.44906
 C448 C 0.76987 0.68168 0.35777
 C449 C 0.76477 0.61126 0.38323
 C450 C 0.76613 0.59098 0.40361
 C451 C 0.76747 0.56735 0.42788
 C452 C 0.75819 0.68330 0.31329
 H453 H 0.78108 0.65713 0.41492
 H454 H 0.74411 0.61972 0.29812
 H455 H 0.73997 0.66120 0.25785
 H456 H 0.77709 0.69875 0.37511
 C457 C 0.15734 0.72749 0.87922
 C458 C 0.13492 0.73676 0.85788
 C459 C 0.13622 0.74823 0.81353
 C460 C 0.15990 0.75060 0.79068
 C461 C 0.04704 0.73201 0.94866
 C462 C 0.18105 0.72984 0.85646
 C463 C 0.11068 0.73502 0.88198
 C464 C 0.09047 0.73382 0.90256
 C465 C 0.06697 0.73271 0.92715
 C466 C 0.18261 0.74154 0.81201
 H467 H 0.15654 0.71863 0.91360
 H468 H 0.11897 0.75550 0.79675
 H469 H 0.16045 0.75970 0.75651
 H470 H 0.19816 0.72267 0.87382
 C471 C 0.63705 0.24923 0.31543
 C472 C 0.63572 0.23787 0.35989
 C473 C 0.65815 0.22852 0.38112
 C474 C 0.68185 0.23063 0.35814
 C475 C 0.54740 0.23297 0.45002
 C476 C 0.66072 0.25137 0.29237
 C477 C 0.61141 0.23618 0.38404
 C478 C 0.59113 0.23496 0.40452
 C479 C 0.56748 0.23378 0.42884
 C480 C 0.68342 0.24217 0.31354
 H481 H 0.61982 0.25656 0.29867
 H482 H 0.65736 0.21973 0.41556
 H483 H 0.69893 0.22336 0.37543
 H484 H 0.66125 0.26035 0.25810
 C485 C 0.86431 0.25069 0.81410
 C486 C 0.86579 0.26215 0.85841
 C487 C 0.84347 0.27163 0.87974
 C488 C 0.81972 0.26952 0.85700
 C489 C 0.95382 0.26644 0.94915
 C490 C 0.84058 0.24854 0.79128
 C491 C 0.89008 0.26371 0.88246
 C492 C 0.91033 0.26479 0.90301
 C493 C 0.93387 0.26579 0.92760
 C494 C 0.81799 0.25784 0.81259
 H495 H 0.88148 0.24325 0.79732
 H496 H 0.84441 0.28050 0.91408
 H497 H 0.80270 0.27686 0.87436
 H498 H 0.83991 0.23945 0.75713
 C499 C 0.36299 0.75193 0.31464
 C500 C 0.36429 0.76330 0.35906
 C501 C 0.34182 0.77249 0.38029
 C502 C 0.31812 0.77021 0.35735
 C503 C 0.45261 0.76849 0.44930
 C504 C 0.33932 0.74961 0.29162
 C505 C 0.38860 0.76512 0.38322
 C506 C 0.40888 0.76642 0.40372
 C507 C 0.43253 0.76767 0.42808
 C508 C 0.31658 0.75865 0.31280
 H509 H 0.38026 0.74471 0.29790
 H510 H 0.34259 0.78130 0.41471
 H511 H 0.30100 0.77735 0.37464
 H512 H 0.33881 0.74062 0.25738
 C513 C 0.25023 0.86393 0.18529
 C514 C 0.26170 0.86540 0.14096
 C515 C 0.27115 0.84308 0.11965
 C516 C 0.26902 0.81935 0.14241
 C517 C 0.26622 0.95359 0.05079
 C518 C 0.24807 0.84022 0.20813
 C519 C 0.26331 0.88970 0.11694
 C520 C 0.26444 0.90997 0.09648
 C521 C 0.26552 0.93357 0.07209
 C522 C 0.25736 0.81763 0.18685
 H523 H 0.24281 0.88109 0.20207
 H524 H 0.28003 0.84400 0.08529
 H525 H 0.27636 0.80234 0.12507
 H526 H 0.23899 0.83957 0.24230
 C527 C 0.75222 0.36330 0.68506
 C528 C 0.76358 0.36458 0.64062
 C529 C 0.77276 0.34213 0.61935
 C530 C 0.77047 0.31845 0.64229
 C531 C 0.76868 0.45274 0.55034
 C532 C 0.74990 0.33964 0.70807
 C533 C 0.76539 0.38884 0.61647
 C534 C 0.76667 0.40909 0.59596
 C535 C 0.76788 0.43269 0.57158
 C536 C 0.75892 0.31693 0.68686
 H537 H 0.74502 0.38055 0.70181
 H538 H 0.78155 0.34290 0.58492
 H539 H 0.77759 0.30134 0.62498
 H540 H 0.74092 0.33914 0.74232
 C541 C 0.72785 0.15725 0.12060
 C542 C 0.73718 0.13488 0.14198
 C543 C 0.74869 0.13626 0.18629
 C544 C 0.75105 0.15995 0.20905
 C545 C 0.73231 0.04676 0.05194
 C546 C 0.73017 0.18097 0.14329
 C547 C 0.73541 0.11060 0.11800
 C548 C 0.73419 0.09035 0.09757
 C549 C 0.73304 0.06677 0.07322
 C550 C 0.74191 0.18261 0.18770
 H551 H 0.71894 0.15640 0.08625
 H552 H 0.75602 0.11905 0.20311
 H553 H 0.76018 0.16055 0.24320
 H554 H 0.72295 0.19804 0.12589
 C555 C 0.24927 0.63680 0.68477
 C556 C 0.23784 0.63540 0.64037
 C557 C 0.22844 0.65777 0.61905
 C558 C 0.23057 0.68148 0.64189
 C559 C 0.23292 0.54717 0.55043
 C560 C 0.25142 0.66048 0.70769
 C561 C 0.23614 0.61111 0.61635
 C562 C 0.23491 0.59084 0.59593
 C563 C 0.23372 0.56722 0.57163
 C564 C 0.24217 0.68312 0.68643
 H565 H 0.25664 0.61961 0.70158
 H566 H 0.21959 0.65692 0.58465
 H567 H 0.22325 0.69852 0.62454
 H568 H 0.26046 0.66107 0.74192
 C569 C 0.86369 0.74878 0.18609
 C570 C 0.86501 0.73728 0.14180
 C571 C 0.84260 0.72798 0.12048
 C572 C 0.81889 0.73032 0.14321
 C573 C 0.95294 0.73226 0.05125
 C574 C 0.84000 0.75114 0.20890
 C575 C 0.88927 0.73549 0.11778
 C576 C 0.90949 0.73424 0.09725
 C577 C 0.93300 0.73304 0.07272
 C578 C 0.81731 0.74203 0.18761
 H579 H 0.88093 0.75608 0.20285
 H580 H 0.84342 0.71909 0.08615
 H581 H 0.80179 0.72311 0.12588
 H582 H 0.83944 0.76025 0.24304
 C583 C 0.36292 0.24878 0.68559
 C584 C 0.36430 0.23746 0.64113
 C585 C 0.34189 0.22812 0.61981
 C586 C 0.31817 0.23022 0.64269
 C587 C 0.45267 0.23280 0.55112
 C588 C 0.33922 0.25091 0.70854
 C589 C 0.38863 0.23582 0.61704
 C590 C 0.40892 0.23466 0.59660
 C591 C 0.43258 0.23354 0.57229
 C592 C 0.31654 0.24173 0.68727
 H593 H 0.38013 0.25611 0.70241
 H594 H 0.34272 0.21935 0.58538
 H595 H 0.30110 0.22297 0.62533
 H596 H 0.33865 0.25987 0.74280
 C597 C 0.13612 0.25089 0.18578
 C598 C 0.13473 0.26230 0.14138
 C599 C 0.15710 0.27170 0.12007
 C600 C 0.18082 0.26953 0.14291
 C601 C 0.04676 0.26655 0.05046
 C602 C 0.15982 0.24870 0.20870
 C603 C 0.11047 0.26388 0.11722
 C604 C 0.09024 0.26495 0.09661
 C605 C 0.06671 0.26593 0.07199
 C606 C 0.18246 0.25790 0.18740
 H607 H 0.11891 0.24352 0.20254
 H608 H 0.15623 0.28052 0.08566
 H609 H 0.19788 0.27680 0.12556
 H610 H 0.16042 0.23964 0.24290
 C611 C 0.63700 0.75121 0.68500
 C612 C 0.63567 0.76273 0.64067
 C613 C 0.65812 0.77204 0.61950
 C614 C 0.68183 0.76974 0.64242
 C615 C 0.54732 0.76825 0.55058
 C616 C 0.66068 0.74888 0.70799
 C617 C 0.61135 0.76461 0.61657
 C618 C 0.59107 0.76598 0.59611
 C619 C 0.56741 0.76733 0.57178
 C620 C 0.68340 0.75805 0.68688
 H621 H 0.61975 0.74390 0.70169
 H622 H 0.65733 0.78096 0.58516
 H623 H 0.69893 0.77699 0.62518
 H624 H 0.66121 0.73978 0.74216
   
