data_POSCAR
  _audit_creation_date              2014-09-24
  _audit_creation_method            'ToBaCCo'
  _symmetry_space_group_name_H-M    'P1'
  _symmetry_Int_Tables_number       1
  _symmetry_cell_setting            triclinic
  loop_
  _symmetry_equiv_pos_as_xyz
 x,y,z
_cell_length_a 25.8049
_cell_length_b 26.1114
_cell_length_c 31.4450
_cell_angle_alpha 88.121900
_cell_angle_beta 91.955000
_cell_angle_gamma 88.182400
loop_
  _atom_site_label
  _atom_site_type_symbol
  _atom_site_fract_x
  _atom_site_fract_y
  _atom_site_fract_z
Zr1 Zr 0.22942 0.27132 0.31941
 O2 O 0.25894 0.32492 0.36237
 O3 O 0.16903 0.23949 0.35302
 O4 O 0.17314 0.32928 0.33017
 O5 O 0.32440 0.18004 0.34531
 O6 O 0.14158 0.35381 0.26364
 O7 O 0.26531 0.23464 0.37414
 O8 O 0.13892 0.17880 0.30853
 O9 O 0.17187 0.26089 0.27220
 O10 O 0.23737 0.19507 0.30136
 O11 O 0.24354 0.32556 0.27062
 O12 O 0.30655 0.26214 0.29977
 Zr13 Zr 0.27097 0.22719 0.18170
 Zr14 Zr 0.18837 0.31206 0.22229
 Zr15 Zr 0.31201 0.18663 0.27891
 Zr16 Zr 0.18220 0.18568 0.25297
 O17 O 0.39203 0.19233 0.29444
 O18 O 0.10323 0.19915 0.23385
 O19 O 0.25706 0.17221 0.23029
 O20 O 0.19440 0.23662 0.20178
 O21 O 0.26304 0.30383 0.19900
 O22 O 0.32771 0.23797 0.22939
 C23 C 0.13891 0.20311 0.34349
 C24 C 0.30232 0.20033 0.37711
 C25 C 0.14218 0.35594 0.30452
 O26 O 0.10979 0.30528 0.20239
 O27 O 0.18188 0.32466 0.15596
 O28 O 0.23799 0.26708 0.12717
 C29 C 0.20369 0.30407 0.12419
 O30 O 0.33894 0.35725 0.30104
 Zr31 Zr 0.31797 0.31309 0.24790
 O32 O 0.33090 0.25904 0.14772
 O33 O 0.19538 0.39146 0.20898
 O34 O 0.30720 0.39133 0.22839
 O35 O 0.39857 0.30316 0.26261
 O36 O 0.35629 0.32370 0.19015
 C37 C 0.35795 0.29812 0.15588
 O38 O 0.23978 0.17563 0.13777
 O39 O 0.30335 0.10856 0.29658
 O40 O 0.32457 0.16661 0.17120
 O41 O 0.35433 0.14008 0.23782
 O42 O 0.18857 0.10802 0.27504
 O43 O 0.16665 0.13587 0.20228
 C44 C 0.35397 0.13828 0.19691
 H45 H 0.23221 0.16978 0.32484
 H46 H 0.16908 0.23079 0.17820
 H47 H 0.36356 0.23195 0.22005
 H48 H 0.24012 0.36096 0.28076
 H49 H 0.08351 0.17028 0.24557
 H50 H 0.09704 0.33988 0.19223
 H51 H 0.16153 0.40430 0.19635
 H52 H 0.34196 0.40500 0.22345
 H53 H 0.15291 0.09578 0.27837
 H54 H 0.33724 0.09584 0.30921
 H55 H 0.40469 0.15794 0.30524
 H56 H 0.41577 0.33351 0.25056
 H57 H 0.13471 0.11712 0.20793
 H58 H 0.26070 0.17794 0.11192
 H59 H 0.23820 0.32266 0.38832
 H60 H 0.36408 0.38315 0.29233
 Zr61 Zr 0.72609 0.76346 0.31964
 O62 O 0.66724 0.73372 0.35770
 O63 O 0.76430 0.81052 0.36179
 O64 O 0.75980 0.71834 0.37102
 O65 O 0.65017 0.85982 0.26940
 O66 O 0.82028 0.66708 0.34029
 O67 O 0.67159 0.82206 0.33442
 O68 O 0.83126 0.84107 0.32379
 O69 O 0.80391 0.75172 0.30470
 O70 O 0.74475 0.82411 0.27845
 O71 O 0.73028 0.69094 0.29256
 O72 O 0.67207 0.76122 0.26788
 Zr73 Zr 0.77513 0.73863 0.18057
 Zr74 Zr 0.80735 0.68164 0.27451
 Zr75 Zr 0.69414 0.82000 0.22568
 Zr76 Zr 0.82109 0.81097 0.26217
 O77 O 0.61452 0.82094 0.20701
 O78 O 0.89771 0.79030 0.28425
 O79 O 0.77141 0.81158 0.20736
 O80 O 0.82862 0.74054 0.23242
 O81 O 0.75709 0.67717 0.22130
 O82 O 0.69767 0.74978 0.19643
 C83 C 0.80509 0.83687 0.35792
 C84 C 0.64712 0.85619 0.31010
 C85 C 0.79719 0.68425 0.37278
 O86 O 0.88835 0.67868 0.28792
 O87 O 0.84305 0.63606 0.22933
 O88 O 0.82621 0.67766 0.16512
 C89 C 0.84662 0.64050 0.18865
 O90 O 0.62569 0.67320 0.28507
 Zr91 Zr 0.68076 0.69025 0.23834
 O92 O 0.73803 0.69032 0.13885
 O93 O 0.79261 0.60389 0.28936
 O94 O 0.68738 0.60996 0.25067
 O95 O 0.60415 0.70494 0.21334
 O96 O 0.67477 0.65514 0.17847
 C97 C 0.70013 0.66038 0.14401
 O98 O 0.83539 0.76686 0.14325
 O99 O 0.70885 0.89878 0.21650
 O100 O 0.74383 0.78574 0.12937
 O101 O 0.68645 0.84015 0.16039
 O102 O 0.81913 0.89204 0.25465
 O103 O 0.87102 0.83404 0.21321
 C104 C 0.70857 0.82201 0.12784
 H105 H 0.74178 0.85815 0.29125
 H106 H 0.86451 0.73500 0.22294
 H107 H 0.67270 0.74976 0.17185
 H108 H 0.72099 0.66377 0.31339
 H109 H 0.91441 0.82210 0.29310
 H110 H 0.89786 0.64285 0.29710
 H111 H 0.82645 0.58680 0.29766
 H112 H 0.65738 0.59451 0.23602
 H113 H 0.85089 0.90443 0.26905
 H114 H 0.67533 0.91611 0.20751
 H115 H 0.60453 0.85678 0.19813
 H116 H 0.58955 0.67149 0.20622
 H117 H 0.89943 0.85409 0.22557
 H118 H 0.83142 0.75167 0.11487
 H119 H 0.67135 0.74893 0.38607
 H120 H 0.60502 0.64394 0.27592
 Zr121 Zr 0.77752 0.23318 -0.31743
 O122 O 0.75348 0.26051 -0.37937
 O123 O 0.83784 0.18122 -0.33079
 O124 O 0.83585 0.27483 -0.34690
 O125 O 0.68069 0.14429 -0.30915
 O126 O 0.86302 0.32921 -0.29582
 O127 O 0.74167 0.17607 -0.35289
 O128 O 0.87219 0.15829 -0.26479
 O129 O 0.83159 0.24522 -0.26791
 O130 O 0.76770 0.17497 -0.27148
 O131 O 0.76107 0.30777 -0.29704
 O132 O 0.69911 0.24017 -0.30121
 Zr133 Zr 0.72590 0.26886 -0.18081
 Zr134 Zr 0.81274 0.31765 -0.24525
 Zr135 Zr 0.69132 0.18401 -0.25261
 Zr136 Zr 0.81937 0.18877 -0.22139
 O137 O 0.61224 0.18506 -0.27308
 O138 O 0.89563 0.20539 -0.19994
 O139 O 0.74268 0.19360 -0.20042
 O140 O 0.80397 0.26126 -0.19737
 O141 O 0.73601 0.32776 -0.22626
 O142 O 0.67296 0.25654 -0.23091
 C143 C 0.87216 0.15831 -0.30579
 C144 C 0.70410 0.14638 -0.34454
 C145 C 0.86548 0.30960 -0.33273
 O146 O 0.89048 0.31624 -0.22131
 O147 O 0.81971 0.36102 -0.19011
 O148 O 0.75907 0.32843 -0.14645
 C149 C 0.79586 0.35905 -0.15486
 O150 O 0.67146 0.32944 -0.34318
 Zr151 Zr 0.68468 0.31324 -0.27694
 O152 O 0.66565 0.32142 -0.16799
 O153 O 0.80502 0.39573 -0.26527
 O154 O 0.69442 0.39312 -0.28595
 O155 O 0.60670 0.29974 -0.29571
 O156 O 0.63526 0.34945 -0.23403
 C157 C 0.63384 0.34765 -0.19312
 O158 O 0.75093 0.24348 -0.11858
 O159 O 0.70179 0.10525 -0.23546
 O160 O 0.66943 0.22547 -0.15047
 O161 O 0.64527 0.16789 -0.20008
 O162 O 0.81611 0.10788 -0.21442
 O163 O 0.82661 0.16694 -0.15569
 C164 C 0.64181 0.18860 -0.16368
 H165 H 0.77440 0.14026 -0.28225
 H166 H 0.82755 0.26609 -0.17244
 H167 H 0.63625 0.25789 -0.22281
 H168 H 0.76593 0.33379 -0.32006
 H169 H 0.91584 0.17247 -0.19710
 H170 H 0.90372 0.35109 -0.22625
 H171 H 0.83873 0.41124 -0.25848
 H172 H 0.65936 0.40954 -0.28982
 H173 H 0.85228 0.09428 -0.21024
 H174 H 0.66846 0.08907 -0.24239
 H175 H 0.59977 0.14987 -0.26836
 H176 H 0.58814 0.33350 -0.29948
 H177 H 0.85717 0.14335 -0.15070
 H178 H 0.72882 0.26169 -0.09833
 H179 H 0.77526 0.24224 -0.39984
 H180 H 0.64780 0.35994 -0.34731
 Zr181 Zr 0.25848 0.72885 -0.31891
 O182 O 0.30692 0.67535 -0.34934
 O183 O 0.21479 0.76136 -0.37095
 O184 O 0.21635 0.66902 -0.34433
 O185 O 0.34819 0.82604 -0.31993
 O186 O 0.16748 0.63980 -0.28983
 O187 O 0.30929 0.76568 -0.35966
 O188 O 0.15799 0.81458 -0.33854
 O189 O 0.18535 0.73569 -0.29212
 O190 O 0.25054 0.80534 -0.30211
 O191 O 0.26042 0.67569 -0.26717
 O192 O 0.32357 0.74181 -0.27882
 Zr193 Zr 0.24297 0.77451 -0.17904
 Zr194 Zr 0.18877 0.68575 -0.23811
 Zr195 Zr 0.31256 0.81773 -0.25984
 Zr196 Zr 0.17965 0.81126 -0.27310
 O197 O 0.39411 0.81489 -0.25005
 O198 O 0.09959 0.79605 -0.27764
 O199 O 0.24086 0.82856 -0.23044
 O200 O 0.17869 0.76169 -0.21948
 O201 O 0.25087 0.69785 -0.19530
 O202 O 0.31530 0.76731 -0.20667
 C203 C 0.17727 0.79498 -0.37186
 C204 C 0.34075 0.80265 -0.35519
 C205 C 0.18354 0.63859 -0.32819
 O206 O 0.10688 0.68965 -0.24446
 O207 O 0.15750 0.67339 -0.17674
 O208 O 0.19713 0.73314 -0.13693
 C209 C 0.16662 0.69532 -0.14106
 O210 O 0.36495 0.64880 -0.26870
 Zr211 Zr 0.32172 0.69186 -0.22505
 O212 O 0.28767 0.74256 -0.12738
 O213 O 0.20025 0.60743 -0.21973
 O214 O 0.31556 0.61324 -0.20743
 O215 O 0.40173 0.70603 -0.21586
 O216 O 0.33915 0.68352 -0.15919
 C217 C 0.32187 0.70572 -0.12635
 O218 O 0.19221 0.82446 -0.14719
 O219 O 0.30168 0.89507 -0.28139
 O220 O 0.28125 0.83759 -0.15493
 O221 O 0.32994 0.86703 -0.20948
 O222 O 0.18408 0.88912 -0.29341
 O223 O 0.13447 0.85982 -0.23512
 C224 C 0.31323 0.86871 -0.17135
 H225 H 0.25134 0.83028 -0.32644
 H226 H 0.14579 0.76682 -0.20464
 H227 H 0.34445 0.77501 -0.18687
 H228 H 0.26549 0.64021 -0.27677
 H229 H 0.08226 0.82497 -0.29438
 H230 H 0.09502 0.65453 -0.23837
 H231 H 0.16537 0.59276 -0.21839
 H232 H 0.34873 0.60177 -0.19278
 H233 H 0.14988 0.89945 -0.30689
 H234 H 0.33664 0.90956 -0.28272
 H235 H 0.40600 0.84987 -0.25669
 H236 H 0.41768 0.67635 -0.19921
 H237 H 0.15904 0.87728 -0.21603
 H238 H 0.20246 0.82203 -0.11646
 H239 H 0.29765 0.67780 -0.38025
 H240 H 0.38996 0.62514 -0.25281
 Zr241 Zr 1.22578 1.26538 0.81894
 O242 O 1.16718 1.23732 0.85807
 O243 O 1.26407 1.31323 0.86070
 O244 O 1.26038 1.22224 0.87135
 O245 O 1.15462 1.36453 0.76650
 O246 O 1.31422 1.16372 0.84126
 O247 O 1.17153 1.32489 0.83161
 O248 O 1.33281 1.34160 0.82382
 O249 O 1.30332 1.25051 0.80511
 O250 O 1.24704 1.32471 0.77748
 O251 O 1.22717 1.19246 0.79252
 O252 O 1.17260 1.26398 0.76640
 Zr253 Zr 1.27605 1.23668 0.68075
 Zr254 Zr 1.30420 1.17981 0.77552
 Zr255 Zr 1.19735 1.32149 0.72391
 Zr256 Zr 1.32332 1.30881 0.76265
 O257 O 1.11796 1.32492 0.70440
 O258 O 1.39832 1.28568 0.78713
 O259 O 1.27478 1.31008 0.70693
 O260 O 1.32846 1.23760 0.73352
 O261 O 1.25515 1.17616 0.72143
 O262 O 1.19855 1.25063 0.69529
 C263 C 1.30568 1.33865 0.85761
 C264 C 1.15009 1.36059 0.80703
 C265 C 1.29477 1.18510 0.87357
 O266 O 1.38481 1.17425 0.79055
 O267 O 1.33905 1.13216 0.73145
 O268 O 1.32704 1.17497 0.66720
 C269 C 1.34460 1.13683 0.69105
 O270 O 1.12168 1.17034 0.78040
 Zr271 Zr 1.17903 1.19222 0.73732
 O272 O 1.23887 1.18803 0.63918
 O273 O 1.28576 1.10293 0.79020
 O274 O 1.18119 1.11222 0.75089
 O275 O 1.10325 1.21086 0.71227
 O276 O 1.17340 1.15545 0.67764
 C277 C 1.19979 1.15932 0.64353
 O278 O 1.33691 1.26378 0.64356
 O279 O 1.21524 1.39943 0.71404
 O280 O 1.24482 1.28174 0.62818
 O281 O 1.19245 1.34156 0.65832
 O282 O 1.32408 1.38954 0.75289
 O283 O 1.37633 1.32807 0.71487
 C284 C 1.21180 1.32006 0.62593
 H285 H 1.24497 1.35904 0.78983
 H286 H 1.36442 1.23062 0.72473
 H287 H 1.17387 1.25083 0.67052
 H288 H 1.21649 1.16616 0.81357
 H289 H 1.41606 1.31699 0.79579
 H290 H 1.39287 1.13821 0.79997
 H291 H 1.31875 1.08425 0.79860
 H292 H 1.15003 1.09824 0.73671
 H293 H 1.35575 1.40158 0.76766
 H294 H 1.18254 1.41790 0.70447
 H295 H 1.10961 1.36075 0.69446
 H296 H 1.08728 1.17810 0.70498
 H297 H 1.40478 1.34779 0.72757
 H298 H 1.33332 1.24773 0.61550
 H299 H 1.17149 1.25385 0.88587
 H300 H 1.10980 1.20192 0.79424
 Zr301 Zr 0.73182 0.77075 0.82060
 O302 O 0.76245 0.82108 0.86583
 O303 O 0.67170 0.73879 0.85485
 O304 O 0.67915 0.83230 0.83218
 O305 O 0.81979 0.67009 0.84216
 O306 O 0.65735 0.86747 0.76635
 O307 O 0.77050 0.73182 0.87315
 O308 O 0.63344 0.68495 0.80839
 O309 O 0.67289 0.76836 0.77342
 O310 O 0.73221 0.69524 0.80024
 O311 O 0.75200 0.82470 0.77341
 O312 O 0.80767 0.75464 0.80002
 Zr313 Zr 0.76832 0.72889 0.68096
 Zr314 Zr 0.69533 0.81907 0.72477
 Zr315 Zr 0.80523 0.68036 0.77652
 Zr316 Zr 0.67540 0.69346 0.75203
 O317 O 0.88634 0.67687 0.78937
 O318 O 0.59758 0.71672 0.73575
 O319 O 0.74837 0.67402 0.72790
 O320 O 0.69309 0.74455 0.70227
 O321 O 0.76866 0.80464 0.70080
 O322 O 0.82663 0.73153 0.72850
 C323 C 0.63841 0.70506 0.84509
 C324 C 0.80352 0.69364 0.87460
 C325 C 0.65556 0.86627 0.80708
 O326 O 0.61529 0.82157 0.70748
 O327 O 0.68686 0.83420 0.65903
 O328 O 0.73383 0.77085 0.62812
 C329 C 0.70320 0.81087 0.62652
 O330 O 0.85074 0.84330 0.80553
 Zr331 Zr 0.82485 0.80597 0.75001
 O332 O 0.82849 0.76123 0.64700
 O333 O 0.71244 0.89660 0.71146
 O334 O 0.82284 0.88581 0.73493
 O335 O 0.90421 0.78609 0.76338
 O336 O 0.86345 0.81800 0.69269
 C337 C 0.85971 0.79696 0.65636
 O338 O 0.73496 0.68075 0.63528
 O339 O 0.78866 0.60377 0.79406
 O340 O 0.81771 0.66533 0.66856
 O341 O 0.83746 0.62861 0.73421
 O342 O 0.67613 0.61427 0.76948
 O343 O 0.65163 0.64972 0.69938
 C344 C 0.83942 0.63009 0.69344
 H345 H 0.72593 0.66960 0.82320
 H346 H 0.66660 0.74213 0.67897
 H347 H 0.86147 0.72235 0.71828
 H348 H 0.75260 0.85962 0.78473
 H349 H 0.57501 0.68954 0.74653
 H350 H 0.60621 0.85732 0.69776
 H351 H 0.68011 0.91393 0.69962
 H352 H 0.85911 0.89622 0.73150
 H353 H 0.63972 0.60454 0.77336
 H354 H 0.82154 0.58706 0.80536
 H355 H 0.89561 0.64108 0.79883
 H356 H 0.92472 0.81517 0.75311
 H357 H 0.61829 0.63370 0.70548
 H358 H 0.75586 0.68339 0.60942
 H359 H 0.74151 0.81776 0.89162
 H360 H 0.87948 0.86594 0.79839
 Zr361 Zr 1.27530 0.72755 0.18382
 O362 O 1.24678 0.74993 0.12184
 O363 O 1.33582 0.67598 0.17045
 O364 O 1.33345 0.76501 0.15118
 O365 O 1.18108 0.63920 0.19989
 O366 O 1.35536 0.83170 0.19270
 O367 O 1.24193 0.66561 0.15354
 O368 O 1.37275 0.65786 0.23636
 O369 O 1.33153 0.74613 0.22962
 O370 O 1.26953 0.67350 0.23375
 O371 O 1.25725 0.80370 0.19907
 O372 O 1.19765 0.73379 0.20245
 Zr373 Zr 1.22988 0.77528 0.31839
 Zr374 Zr 1.31127 0.82049 0.24755
 Zr375 Zr 1.19404 0.68210 0.25491
 Zr376 Zr 1.32351 0.69375 0.28009
 O377 O 1.11362 0.67911 0.23994
 O378 O 1.40055 0.71453 0.29533
 O379 O 1.24802 0.69850 0.30377
 O380 O 1.30705 0.76841 0.29937
 O381 O 1.23553 0.83000 0.26884
 O382 O 1.17452 0.75645 0.27201
 C383 C 1.37097 0.65452 0.19544
 C384 C 1.20454 0.63720 0.16441
 C385 C 1.35956 0.80489 0.15924
 O386 O 1.39058 0.82316 0.26650
 O387 O 1.31967 0.86802 0.30027
 O388 O 1.25998 0.84009 0.34701
 C389 C 1.29583 0.87010 0.33554
 O390 O 1.16350 0.81668 0.15557
 Zr391 Zr 1.18201 0.80895 0.22191
 O392 O 1.16894 0.82690 0.33124
 O393 O 1.29899 0.89706 0.22451
 O394 O 1.18848 0.88772 0.20512
 O395 O 1.10318 0.79242 0.20905
 O396 O 1.13636 0.85012 0.26481
 C397 C 1.13659 0.85185 0.30577
 O398 O 1.26035 0.75552 0.38034
 O399 O 1.20782 0.60444 0.27447
 O400 O 1.17549 0.73521 0.35310
 O401 O 1.15439 0.66787 0.31198
 O402 O 1.32274 0.61384 0.29436
 O403 O 1.33667 0.67977 0.34661
 C404 C 1.15059 0.69440 0.34572
 H405 H 1.27671 0.63790 0.22517
 H406 H 1.33164 0.77642 0.32289
 H407 H 1.13845 0.75788 0.28171
 H408 H 1.25985 0.82728 0.17398
 H409 H 1.42196 0.68241 0.29904
 H410 H 1.40162 0.85840 0.25967
 H411 H 1.33213 0.91446 0.22937
 H412 H 1.15280 0.90288 0.20206
 H413 H 1.35935 0.60128 0.29763
 H414 H 1.17468 0.58704 0.26962
 H415 H 1.10340 0.64353 0.24654
 H416 H 1.08374 0.82558 0.20422
 H417 H 1.36862 0.65810 0.35169
 H418 H 1.23900 0.77443 0.40068
 H419 H 1.26840 0.73137 0.10147
 H420 H 1.13820 0.84568 0.15018
 Zr421 Zr 0.75892 1.22480 0.18088
 O422 O 0.80837 1.17138 0.15148
 O423 O 0.71247 1.25237 0.12864
 O424 O 0.71525 1.16476 0.15683
 O425 O 0.84232 1.32672 0.17791
 O426 O 0.67523 1.13173 0.21482
 O427 O 0.80827 1.26251 0.13916
 O428 O 0.65485 1.30601 0.16008
 O429 O 0.68668 1.22912 0.20900
 O430 O 0.74694 1.30152 0.19601
 O431 O 0.76535 1.17344 0.23382
 O432 O 0.82325 1.24284 0.22028
 Zr433 Zr 0.74320 1.27521 0.32031
 Zr434 Zr 0.69443 1.18122 0.26386
 Zr435 Zr 0.80790 1.31877 0.23759
 Zr436 Zr 0.67649 1.30515 0.22574
 O437 O 0.88936 1.32186 0.24665
 O438 O 0.59824 1.28285 0.22188
 O439 O 0.73673 1.32736 0.26755
 O440 O 0.67963 1.25719 0.28058
 O441 O 0.75538 1.19820 0.30599
 O442 O 0.81500 1.27028 0.29162
 C443 C 0.67378 1.28455 0.12735
 C444 C 0.83729 1.30135 0.14366
 C445 C 0.68605 1.13240 0.17524
 O446 O 0.61257 1.17923 0.25870
 O447 O 0.66549 1.16905 0.32511
 O448 O 0.69844 1.23398 0.36353
 C449 C 0.67141 1.19364 0.35963
 O450 O 0.87173 1.15295 0.23270
 Zr451 Zr 0.82554 1.19455 0.27531
 O452 O 0.78957 1.24776 0.37248
 O453 O 0.71138 1.10429 0.28429
 O454 O 0.82353 1.11600 0.29437
 O455 O 0.90459 1.21301 0.28392
 O456 O 0.84267 1.18923 0.34163
 C457 C 0.82516 1.21229 0.37412
 O458 O 0.69116 1.32640 0.34942
 O459 O 0.79209 1.39457 0.21364
 O460 O 0.78336 1.33758 0.34406
 O461 O 0.82213 1.37139 0.28570
 O462 O 0.67574 1.38250 0.20285
 O463 O 0.63446 1.35332 0.26654
 C464 C 0.81129 1.37081 0.32536
 H465 H 0.74624 1.32562 0.17104
 H466 H 0.64660 1.26076 0.29550
 H467 H 0.84436 1.27986 0.31048
 H468 H 0.77199 1.13790 0.22485
 H469 H 0.57876 1.30868 0.20329
 H470 H 0.60320 1.14363 0.26622
 H471 H 0.67773 1.08732 0.28669
 H472 H 0.85686 1.10684 0.30976
 H473 H 0.64147 1.39014 0.18844
 H474 H 0.82594 1.41127 0.21176
 H475 H 0.89874 1.35747 0.23918
 H476 H 0.92177 1.18502 0.30179
 H477 H 0.60306 1.36794 0.25105
 H478 H 0.70086 1.32551 0.38024
 H479 H 0.79811 1.17229 0.12077
 H480 H 0.89716 1.13027 0.24914
 O481 O 0.49448 1.06231 0.07645
 O482 O 0.55311 0.90271 0.02241
 O483 O 0.43535 0.95070 0.05965
 O484 O 0.60566 1.01289 0.03787
 O485 O 0.46011 0.89551 0.01540
 O486 O 0.57018 1.08675 0.04048
 O487 O 0.61026 0.94430 -0.00921
 O488 O 0.41746 1.04144 0.06096
 C489 C 0.45027 1.05437 0.08823
 C490 C 0.59958 0.91057 0.01752
 C491 C 0.44551 0.90545 0.05171
 C492 C 0.59928 1.05239 0.05740
 O493 O 0.50913 1.10755 -0.03215
 O494 O 0.46061 0.93622 -0.06503
 O495 O 0.39955 1.04388 -0.02537
 O496 O 0.56949 1.00612 -0.07354
 O497 O 0.55236 0.92741 -0.06339
 O498 O 0.43442 1.10291 0.00926
 O499 O 0.58643 1.07880 -0.03049
 O500 O 0.40055 0.95164 -0.02228
 Co501 Co 0.50243 1.08171 0.02126
 Co502 Co 0.50638 0.92392 -0.02027
 Co503 Co 0.42202 0.99770 0.01637
 Co504 Co 0.58430 1.01015 -0.01701
 O505 O 0.50365 1.00333 0.00004
 C506 C 0.55174 1.10642 -0.04851
 C507 C 0.41395 0.94402 -0.05926
 C508 C 0.40217 1.08999 -0.01855
 C509 C 0.56610 0.96273 -0.08774
 O510 O 0.94711 0.57264 0.56427
 O511 O 1.06686 0.39731 0.49130
 O512 O 0.91509 0.42078 0.53195
 O513 O 1.09999 0.54812 0.52401
 O514 O 0.99257 0.39264 0.53306
 O515 O 1.03914 0.56415 0.56623
 O516 O 1.10098 0.45644 0.52614
 O517 O 0.93119 0.49374 0.57422
 C518 C 0.93335 0.53710 0.58847
 C519 C 1.09924 0.41047 0.51898
 C520 C 0.95034 0.39361 0.54991
 C521 C 1.08594 0.55713 0.56067
 O522 O 1.04063 0.60483 0.48613
 O523 O 0.93040 0.41293 0.46066
 O524 O 0.89014 0.55557 0.50932
 O525 O 1.08274 0.45922 0.43944
 O526 O 1.00564 0.43786 0.42466
 O527 O 0.94787 0.59734 0.47844
 O528 O 1.06553 0.54990 0.44169
 O529 O 0.89533 0.48684 0.46307
 Co530 Co 0.99384 0.57618 0.52137
 Co531 Co 0.99843 0.41836 0.47969
 Co532 Co 0.91647 0.48962 0.51784
 Co533 Co 1.07850 0.50259 0.48464
 O534 O 0.99695 0.49676 0.50092
 C535 C 1.05683 0.59515 0.45020
 C536 C 0.90141 0.44737 0.44358
 C537 C 0.90137 0.58969 0.48297
 C538 C 1.04967 0.44552 0.41255
 O539 O 1.06019 0.40989 0.05483
 O540 O 1.02252 0.58764 -0.06394
 O541 O 1.02374 0.42777 -0.07632
 O542 O 1.05293 0.56856 0.06980
 O543 O 1.04724 0.50428 -0.08312
 O544 O 1.08653 0.49373 0.06716
 O545 O 1.06404 0.59145 -0.00429
 O546 O 1.07456 0.40822 -0.01123
 C547 C 1.08970 0.39824 0.02601
 C548 C 1.06124 0.60211 -0.04303
 C549 C 1.05168 0.45957 -0.09361
 C550 C 1.09146 0.53904 0.07553
 O551 O 0.99038 0.51576 0.09694
 O552 O 0.94532 0.47614 -0.08363
 O553 O 0.98389 0.38327 0.02557
 O554 O 0.96104 0.61027 -0.01326
 O555 O 0.92427 0.55409 -0.04970
 O556 O 0.95994 0.43764 0.06996
 O557 O 0.94880 0.56955 0.05530
 O558 O 0.93589 0.42308 -0.03202
 Co559 Co 1.02240 0.46751 0.06541
 Co560 Co 0.98668 0.52731 -0.06319
 Co561 Co 1.00478 0.41941 -0.02109
 Co562 Co 1.00655 0.57624 0.02434
 O563 O 1.00507 0.49771 0.00132
 C564 C 0.95257 0.54611 0.09011
 C565 C 0.91753 0.44522 -0.06449
 C566 C 0.95345 0.39598 0.05342
 C567 C 0.92183 0.59610 -0.03309
 O568 O 0.58010 0.94883 0.55236
 O569 O 0.54326 1.06044 0.43105
 O570 O 0.55111 0.93180 0.44437
 O571 O 0.56673 1.07555 0.53491
 O572 O 0.50632 0.98373 0.40398
 O573 O 0.55516 1.02577 0.58756
 O574 O 0.52332 1.11499 0.47704
 O575 O 0.54568 0.89262 0.51353
 C576 C 0.58405 0.90758 0.53447
 C577 C 0.55288 1.10082 0.44883
 C578 C 0.54415 0.95336 0.40913
 C579 C 0.58404 1.05511 0.56816
 O580 O 0.45534 0.99372 0.58517
 O581 O 0.41441 1.00986 0.43585
 O582 O 0.44052 0.90820 0.50902
 O583 O 0.42901 1.09267 0.51210
 O584 O 0.44594 1.09355 0.44690
 O585 O 0.48535 0.91069 0.56672
 O586 O 0.47567 1.07147 0.57759
 O587 O 0.44481 0.93273 0.43557
 Co588 Co 0.51689 0.97321 0.56580
 Co589 Co 0.47955 1.03356 0.43660
 Co590 Co 0.49573 0.92471 0.47809
 Co591 Co 0.49834 1.08037 0.52319
 O592 O 0.49758 1.00281 0.50095
 C593 C 0.44812 1.03867 0.59437
 C594 C 0.40783 0.96432 0.42839
 C595 C 0.44596 0.89589 0.54719
 C596 C 0.41562 1.10500 0.47503
 O597 O 1.07027 1.05037 0.43450
 O598 O 0.93097 1.03136 0.57727
 O599 O 0.90795 1.05789 0.44737
 O600 O 1.09314 1.00972 0.56465
 O601 O 0.91226 1.07676 0.51157
 O602 O 1.09844 1.05138 0.50609
 O603 O 1.01132 1.04604 0.58491
 O604 O 0.99438 1.08540 0.43635
 C605 C 1.04102 1.08950 0.43009
 C606 C 0.96635 1.05567 0.59465
 C607 C 0.90176 1.09050 0.47439
 C608 C 1.10985 1.04715 0.54438
 O609 O 1.10517 0.94666 0.51107
 O610 O 0.88310 0.98306 0.47763
 O611 O 1.01503 0.99453 0.40219
 O612 O 0.97222 0.95046 0.58795
 O613 O 0.92012 0.94042 0.53616
 O614 O 1.06272 0.94481 0.44191
 O615 O 1.04766 0.91973 0.55317
 O616 O 0.93718 0.96153 0.43100
 Co617 Co 1.07596 0.99853 0.47590
 Co618 Co 0.91972 1.00781 0.52327
 Co619 Co 0.96699 1.02273 0.43631
 Co620 Co 1.02768 0.98370 0.56555
 O621 O 0.99782 1.00310 0.50037
 C622 C 1.08830 0.91182 0.53468
 C623 C 0.89612 0.95378 0.44890
 C624 C 1.04223 0.95458 0.40645
 C625 C 0.94177 0.92249 0.56879
 O626 O 0.58316 0.55962 -0.03290
 O627 O 0.43899 0.55589 0.05969
 O628 O 0.45351 0.57948 -0.04942
 O629 O 0.56706 0.53748 0.07120
 O630 O 0.39565 0.55045 -0.00913
 O631 O 0.62076 0.51380 0.02526
 O632 O 0.48845 0.50808 0.10003
 O633 O 0.52937 0.55097 -0.08419
 C634 C 0.56064 0.57828 -0.06509
 C635 C 0.46123 0.54806 0.09485
 C636 C 0.41247 0.58636 -0.03133
 C637 C 0.60867 0.54354 0.05377
 O638 O 0.59010 0.42250 -0.00985
 O639 O 0.40480 0.44673 -0.00235
 O640 O 0.49238 0.45412 -0.08231
 O641 O 0.50675 0.41490 0.06696
 O642 O 0.43230 0.45156 0.06996
 O643 O 0.57212 0.47068 -0.07514
 O644 O 0.59308 0.43972 0.05499
 O645 O 0.41024 0.48750 -0.06152
 Co646 Co 0.58315 0.49181 -0.02066
 Co647 Co 0.42628 0.50088 0.02698
 Co648 Co 0.47469 0.51591 -0.06235
 Co649 Co 0.53548 0.47705 0.06643
 O650 O 0.50473 0.49655 0.00252
 C651 C 0.59889 0.40760 0.02742
 C652 C 0.39440 0.44977 -0.04096
 C653 C 0.53735 0.44597 -0.09264
 C654 C 0.46017 0.41167 0.07334
 C655 C 0.39200 1.10363 0.17777
 C656 C 0.43696 1.08430 0.19830
 C657 C 0.46499 1.06190 0.16741
 C658 C 0.43449 1.06843 0.13069
 O659 O 0.39042 1.09390 0.13677
 H660 H 0.44910 1.08862 0.23124
 H661 H 0.50344 1.04413 0.17091
 C662 C 0.86929 0.58884 0.67395
 C663 C 0.88002 0.54084 0.69254
 C664 C 0.90653 0.51439 0.66296
 C665 C 0.91082 0.54877 0.62917
 O666 O 0.88807 0.59375 0.63561
 H667 H 0.86863 0.52652 0.72342
 H668 H 0.92054 0.47485 0.66546
 C669 C 0.68983 0.84267 0.08593
 C670 C 0.71668 0.83869 0.04899
 C671 C 0.68559 0.86305 0.01824
 C672 C 0.64159 0.87887 0.03854
 O673 O 0.64408 0.86683 0.07971
 H674 H 0.75469 0.82105 0.04517
 H675 H 0.69399 0.86896 -0.01502
 C676 C 1.18995 0.33716 0.58368
 C677 C 1.19196 0.30786 0.54796
 C678 C 1.15794 0.33147 0.51881
 C679 C 1.13815 0.37375 0.53866
 O680 O 1.15736 0.37731 0.57801
 H681 H 1.21327 0.27195 0.54450
 H682 H 1.14821 0.31909 0.48709
 C683 C 0.60052 1.17134 -0.13669
 C684 C 0.54862 1.18079 -0.14662
 C685 C 0.52314 1.15900 -0.11378
 C686 C 0.56162 1.13747 -0.08672
 O687 O 0.60875 1.14495 -0.10044
 H688 H 0.53160 1.20121 -0.17446
 H689 H 0.48158 1.15776 -0.11043
 C690 C 1.11333 0.67982 0.37783
 C691 C 1.08801 0.71560 0.40167
 C692 C 1.06103 0.68808 0.43020
 C693 C 1.07204 0.63744 0.42192
 O694 O 1.10365 0.63207 0.38985
 H695 H 1.09021 0.75693 0.39919
 H696 H 1.03792 0.70304 0.45535
 C697 C 0.33168 0.90846 -0.14346
 C698 C 0.29829 0.94317 -0.12557
 C699 C 0.32615 0.96342 -0.09309
 C700 C 0.37441 0.93929 -0.09340
 O701 O 0.37799 0.90571 -0.12387
 H702 H 0.25744 0.95007 -0.13341
 H703 H 0.31218 0.99039 -0.07034
 C704 C 0.83478 0.40921 0.35181
 C705 C 0.83921 0.46001 0.33969
 C706 C 0.86395 0.48141 0.37336
 C707 C 0.87380 0.44159 0.40276
 O708 O 0.85605 0.39770 0.38990
 H709 H 0.82569 0.47903 0.31008
 H710 H 0.87455 0.52100 0.37594
 C711 C 1.18559 0.32517 0.08220
 C712 C 1.20174 0.31188 0.04243
 C713 C 1.16937 0.33978 0.01387
 C714 C 1.13642 0.36751 0.03881
 O715 O 1.14659 0.35875 0.07971
 H716 H 1.23206 0.28428 0.03515
 H717 H 1.16849 0.33832 -0.02050
 C718 C 0.68161 0.83092 0.58540
 C719 C 0.68011 0.80481 0.54794
 C720 C 0.64491 0.83207 0.52179
 C721 C 0.62853 0.87292 0.54525
 O722 O 0.65079 0.87226 0.58354
 H723 H 0.69885 0.76826 0.54179
 H724 H 0.63064 0.82183 0.49055
 C725 C 1.14406 0.67822 -0.10522
 C726 C 1.15590 0.69672 -0.06535
 C727 C 1.12746 0.66961 -0.03754
 C728 C 1.09915 0.63693 -0.06193
 O729 O 1.10909 0.64173 -0.10325
 H730 H 1.18277 0.72620 -0.05726
 H731 H 1.12669 0.67377 -0.00343
 C732 C 0.64477 1.17477 0.39729
 C733 C 0.64809 1.19698 0.43643
 C734 C 0.61504 1.17080 0.46120
 C735 C 0.59432 1.13432 0.43545
 O736 O 0.61234 1.13641 0.39658
 H737 H 0.67085 1.22926 0.44545
 H738 H 0.60619 1.17803 0.49391
 C739 C 0.87535 0.59899 0.16831
 C740 C 0.88856 0.55279 0.18902
 C741 C 0.91681 0.52609 0.16111
 C742 C 0.91875 0.55780 0.12531
 O743 O 0.89337 0.60221 0.12935
 H744 H 0.87960 0.54052 0.22108
 H745 H 0.93547 0.48864 0.16669
 C746 C 0.37101 1.09408 0.67094
 C747 C 0.36977 1.04398 0.68612
 C748 C 0.39714 1.01619 0.65823
 C749 C 0.41360 1.05161 0.62857
 O750 O 0.39761 1.09899 0.63596
 H751 H 0.35068 1.02952 0.71398
 H752 H 0.40526 0.97522 0.65983
 C753 C 0.81435 0.39176 -0.12066
 C754 C 0.79119 0.39538 -0.08192
 C755 C 0.82575 0.41972 -0.05659
 C756 C 0.86712 0.42977 -0.08183
 O757 O 0.86045 0.41276 -0.12073
 H758 H 0.75517 0.37899 -0.07242
 H759 H 0.82274 0.42647 -0.02296
 C760 C 0.31235 0.90818 0.36573
 C761 C 0.27975 0.94237 0.38518
 C762 C 0.31154 0.96955 0.41108
 C763 C 0.36061 0.94862 0.40613
 O764 O 0.36125 0.91163 0.37855
 H765 H 0.23807 0.94704 0.38071
 H766 H 0.30031 1.00009 0.43169
 C767 C 1.10301 1.18627 0.37530
 C768 C 1.07392 1.21797 0.40014
 C769 C 1.04517 1.18561 0.42406
 C770 C 1.06033 1.13706 0.41246
 O771 O 1.09509 1.13733 0.38284
 H772 H 1.07314 1.25944 0.40015
 H773 H 1.01722 1.19592 0.44748
 C774 C 0.60732 0.68467 -0.12037
 C775 C 0.60619 0.70530 -0.08054
 C776 C 0.58511 0.66890 -0.05512
 C777 C 0.57445 0.62904 -0.08135
 O778 O 0.58781 0.63836 -0.12100
 H779 H 0.62248 0.74085 -0.07056
 H780 H 0.58088 0.66987 -0.02102
 C781 C 0.91466 1.13065 0.67429
 C782 C 0.96505 1.12728 0.69040
 C783 C 0.99195 1.10044 0.66140
 C784 C 0.95565 1.08888 0.63021
 O785 O 0.90874 1.10738 0.63782
 H786 H 0.98032 1.14304 0.71949
 H787 H 1.03276 1.08933 0.66330
 C788 C 0.41177 0.62354 0.17583
 C789 C 0.45590 0.60439 0.19747
 C790 C 0.48143 0.57583 0.16890
 C791 C 0.45116 0.57968 0.13181
 O792 O 0.40877 0.60883 0.13581
 H793 H 0.46740 0.60966 0.23042
 H794 H 0.51704 0.55330 0.17477
 C795 C 1.15879 0.81412 0.59049
 C796 C 1.17972 0.80536 0.55128
 C797 C 1.15501 0.84054 0.52361
 C798 C 1.12015 0.86661 0.54792
 O799 O 1.12220 0.85056 0.58809
 H800 H 1.21162 0.77938 0.54432
 H801 H 1.16258 0.84744 0.49031
 C802 C 0.65210 0.30266 0.08564
 C803 C 0.66537 0.28518 0.04627
 C804 C 0.64383 0.32073 0.01708
 C805 C 0.61982 0.35697 0.04126
 O806 O 0.62449 0.34575 0.08236
 H807 H 0.69032 0.25245 0.03982
 H808 H 0.64824 0.32193 -0.01703
 C809 C 0.82175 0.86479 0.39542
 C810 C 0.79555 0.86435 0.43300
 C811 C 0.82090 0.89717 0.45836
 C812 C 0.86080 0.91486 0.43447
 O813 O 0.86167 0.89529 0.39623
 H814 H 0.76131 0.84344 0.44061
 H815 H 0.81116 0.90758 0.49023
 C816 C 0.32238 0.36495 -0.10341
 C817 C 0.30241 0.35327 -0.06419
 C818 C 0.32701 0.38347 -0.03622
 C819 C 0.35979 0.41229 -0.06019
 O820 O 0.35739 0.40116 -0.10123
 H821 H 0.27351 0.32550 -0.05678
 H822 H 0.32157 0.38459 -0.00227
 C823 C 1.12191 0.40273 -0.17353
 C824 C 1.11966 0.45218 -0.19057
 C825 C 1.09447 0.48054 -0.16177
 C826 C 1.08268 0.44605 -0.12973
 O827 O 1.09945 0.39875 -0.13652
 H828 H 1.13564 0.46601 -0.22003
 H829 H 1.08488 0.52122 -0.16416
 C830 C 0.61518 0.89628 0.32919
 C831 C 0.59578 0.93894 0.30610
 C832 C 0.56878 0.96674 0.33396
 C833 C 0.57363 0.93919 0.37210
 O834 O 0.60205 0.89628 0.36957
 H835 H 0.60047 0.94843 0.27270
 H836 H 0.54685 1.00226 0.32709
 C837 C 0.82649 0.67478 -0.08450
 C838 C 0.82887 0.70144 -0.04737
 C839 C 0.86356 0.67367 -0.02113
 C840 C 0.87862 0.63203 -0.04424
 O841 O 0.85619 0.63270 -0.08241
 H842 H 0.81076 0.73834 -0.04140
 H843 H 0.87816 0.68385 0.01004
 C844 C 0.32180 1.18060 0.41901
 C845 C 0.30332 1.19097 0.45870
 C846 C 0.33528 1.16246 0.48713
 C847 C 0.37021 1.13733 0.46212
 O848 O 0.36179 1.14827 0.42136
 H849 H 0.27097 1.21618 0.46601
 H850 H 0.33393 1.16104 0.52150
 C851 C 1.18749 0.59954 0.13409
 C852 C 1.22024 0.56760 0.11249
 C853 C 1.18827 0.53887 0.08813
 C854 C 1.13882 0.55663 0.09615
 O855 O 1.13815 0.59320 0.12412
 H856 H 1.26221 0.56531 0.11464
 H857 H 1.19953 0.50950 0.06643
 C858 C 0.68555 1.11311 0.62191
 C859 C 0.70912 1.10746 0.58358
 C860 C 0.67544 1.08045 0.55958
 C861 C 0.63420 1.07110 0.58521
 O862 O 0.64012 1.09097 0.62308
 H863 H 0.74493 1.12377 0.57351
 H864 H 0.67873 1.07166 0.52635
 C865 C 0.86608 0.31834 0.10660
 C866 C 0.86631 0.29315 0.06874
 C867 C 0.89837 0.31998 0.04359
 C868 C 0.91493 0.35980 0.06781
 O869 O 0.89539 0.35910 0.10615
 H870 H 0.84614 0.25885 0.06073
 H871 H 0.90902 0.31130 0.01155
 C872 C 0.36537 0.81796 0.60952
 C873 C 0.35560 0.79764 0.56996
 C874 C 0.38419 0.82463 0.54224
 C875 C 0.41042 0.85908 0.56641
 O876 O 0.39925 0.85539 0.60749
 H877 H 0.32947 0.76749 0.56191
 H878 H 0.38590 0.81974 0.50826
 C879 C 0.31614 1.16737 -0.08424
 C880 C 0.31297 1.19535 -0.04791
 C881 C 0.34492 1.16983 -0.01831
 C882 C 0.36454 1.12774 -0.03854
 O883 O 0.34731 1.12614 -0.07859
 H884 H 0.29191 1.23129 -0.04409
 H885 H 0.35337 1.18078 0.01404
 C886 C 0.81517 0.66307 0.41479
 C887 C 0.78670 0.66524 0.45103
 C888 C 0.81580 0.63822 0.48160
 C889 C 0.86027 0.62256 0.46194
 O890 O 0.86003 0.63737 0.42131
 H891 H 0.74867 0.68305 0.45437
 H892 H 0.80577 0.63049 0.51428
 C893 C 0.66320 1.09340 0.14910
 C894 C 0.66047 1.04248 0.16154
 C895 C 0.63732 1.01979 0.12779
 C896 C 0.62677 1.05901 0.09801
 O897 O 0.64252 1.10373 0.11070
 H898 H 0.67426 1.02420 0.19137
 H899 H 0.62809 0.97980 0.12544
 C900 C 1.16595 0.59822 0.64415
 C901 C 1.20014 0.56288 0.62799
 C902 C 1.17334 0.54076 0.59589
 C903 C 1.12482 0.56443 0.59475
 O904 O 1.12008 0.59958 0.62392
 H905 H 1.24081 0.55651 0.63682
 H906 H 1.18807 0.51261 0.57444
 C907 C 0.62551 0.90772 -0.17387
 C908 C 0.61453 0.95532 -0.19321
 C909 C 0.58998 0.98320 -0.16341
 C910 C 0.58706 0.95000 -0.12870
 O911 O 0.60878 0.90443 -0.13481
 H912 H 0.62482 0.96856 -0.22470
 H913 H 0.57634 1.02283 -0.16638
 C914 C 1.10429 0.39065 0.32372
 C915 C 1.05913 0.40987 0.30350
 C916 C 1.03283 0.43475 0.33408
 C917 C 1.06452 0.42978 0.37026
 O918 O 1.10769 0.40280 0.36419
 H919 H 1.04591 0.40425 0.27100
 H920 H 0.99462 0.45309 0.33081
 C921 C 0.39691 0.81984 0.12747
 C922 C 0.42365 0.78462 0.10412
 C923 C 0.44808 0.81280 0.07430
 C924 C 0.43410 0.86314 0.08142
 O925 O 0.40316 0.86773 0.11392
 H926 H 0.42358 0.74322 0.10749
 H927 H 0.47121 0.79831 0.04897
 C928 C 0.90578 0.32786 0.63965
 C929 C 0.95805 0.32229 0.64971
 C930 C 0.98189 0.34477 0.61628
 C931 C 0.94217 0.36301 0.58883
 O932 O 0.89579 0.35275 0.60287
 H933 H 0.97638 0.30404 0.67800
 H934 H 1.02319 0.34874 0.61281
 C935 C 1.18447 1.13079 0.60548
 C936 C 1.20557 1.14026 0.56632
 C937 C 1.18064 1.10959 0.53896
 C938 C 1.14644 1.08289 0.56324
 O939 O 1.14836 1.09565 0.60385
 H940 H 1.23494 1.16737 0.55842
 H941 H 1.18631 1.10722 0.50511
 C942 C 0.68505 0.63047 0.10737
 C943 C 0.71277 0.62865 0.07063
 C944 C 0.68706 0.59601 0.04536
 C945 C 0.64549 0.58082 0.06848
 O946 O 0.64397 0.60159 0.10617
 H947 H 0.74794 0.64824 0.06344
 H948 H 0.69744 0.58434 0.01396
 C949 C 1.09614 0.88384 0.32467
 C950 C 1.05439 0.90603 0.30167
 C951 C 1.02744 0.93327 0.33017
 C952 C 1.05459 0.92567 0.36855
 O953 O 1.09639 0.89546 0.36544
 H954 H 1.04522 0.90332 0.26799
 H955 H 0.99295 0.95728 0.32355
 C956 C 0.59124 0.37549 -0.17365
 C957 C 0.54135 0.37987 -0.19083
 C958 C 0.51347 0.40499 -0.16144
 C959 C 0.54879 0.41454 -0.12898
 O960 O 0.59596 0.39645 -0.13614
 H961 H 0.52698 0.36561 -0.22080
 H962 H 0.47273 0.41632 -0.16386
 C963 C 0.84606 1.19373 0.41583
 C964 C 0.83434 1.21236 0.45516
 C965 C 0.85655 1.17729 0.48442
 C966 C 0.87936 1.14029 0.46024
 O967 O 0.87328 1.15048 0.41913
 H968 H 0.81048 1.24585 0.46163
 H969 H 0.85383 1.17717 0.51869
 C970 C 0.34154 0.68482 -0.08506
 C971 C 0.31616 0.68812 -0.04724
 C972 C 0.34111 0.65262 -0.02012
 C973 C 0.38008 0.63145 -0.04353
 O974 O 0.38034 0.65084 -0.08265
 H975 H 0.28127 0.71045 -0.04129
 H976 H 0.33063 0.64167 0.01187
 C977 C 0.89145 0.81728 0.62239
 C978 C 0.89461 0.79621 0.58288
 C979 C 0.91797 0.83197 0.55838
 C980 C 0.92776 0.87185 0.58487
 O981 O 0.91172 0.86316 0.62377
 H982 H 0.87852 0.76076 0.57246
 H983 H 0.92408 0.83073 0.52453
 C984 C 0.39376 0.31521 0.12413
 C985 C 0.42260 0.28361 0.09899
 C986 C 0.45309 0.31584 0.07658
 C987 C 0.43924 0.36421 0.08941
 O988 O 0.40357 0.36397 0.11825
 H989 H 0.42233 0.24222 0.09802
 H990 H 0.48139 0.30558 0.05343
   
