data_POSCAR
  _audit_creation_date              2014-09-24
  _audit_creation_method            'ToBaCCo'
  _symmetry_space_group_name_H-M    'P1'
  _symmetry_Int_Tables_number       1
  _symmetry_cell_setting            triclinic
  loop_
  _symmetry_equiv_pos_as_xyz
 x,y,z
_cell_length_a 19.5211
_cell_length_b 21.4901
_cell_length_c 17.6221
_cell_angle_alpha 89.903400
_cell_angle_beta 92.565900
_cell_angle_gamma 91.887700
loop_
  _atom_site_label
  _atom_site_type_symbol
  _atom_site_fract_x
  _atom_site_fract_y
  _atom_site_fract_z
N1 N 0.14457 1.30486 0.07943
 N2 N 0.08334 1.28308 0.09743
 C3 C 0.03728 1.32735 0.08353
 C4 C 0.07130 1.37901 0.05563
 C5 C 0.13933 1.36383 0.05431
 H6 H -0.01486 1.32518 0.10204
 H7 H 0.18243 1.39507 0.04367
 Cu8 Cu 0.06936 1.20757 0.15938
 Cu9 Cu 0.22816 1.25851 0.10108
 Cu10 Cu 0.21234 1.13796 0.22087
 N11 N 0.07073 1.15355 0.24795
 N12 N 0.12701 1.12670 0.27333
 C13 C 0.11266 1.09139 0.33433
 C14 C 0.04404 1.09755 0.34689
 C15 C 0.01832 1.13626 0.29126
 H16 H 0.14867 1.06268 0.36555
 H17 H -0.03414 1.15027 0.28218
 N18 N 0.28653 1.14362 0.15052
 N19 N 0.29180 1.19034 0.10241
 C20 C 0.34379 1.18059 0.05661
 C21 C 0.37264 1.12530 0.07809
 C22 C 0.33542 1.10262 0.13759
 H23 H 0.35775 1.21028 0.00974
 H24 H 0.34084 1.05835 0.16616
 H25 H 0.15991 1.18731 0.10822
 H26 H 0.16485 1.23936 0.19315
 N27 N 0.84175 0.70656 0.14176
 N28 N 0.89013 0.71358 0.19589
 C29 C 0.94157 0.67569 0.18231
 C30 C 0.92388 0.64285 0.11733
 C31 C 0.86025 0.66284 0.09227
 H32 H 0.98840 0.67202 0.21692
 H33 H 0.83056 0.64794 0.04187
 Cu34 Cu 0.88247 0.77159 0.27910
 Cu35 Cu 0.76022 0.75686 0.13965
 Cu36 Cu 0.75395 0.87084 0.27900
 N37 N 0.87419 0.82980 0.36202
 N38 N 0.82358 0.86881 0.36165
 C39 C 0.83457 0.90941 0.41939
 C40 C 0.89453 0.89403 0.45795
 C41 C 0.91928 0.84428 0.41996
 H42 H 0.80471 0.95004 0.42844
 H43 H 0.96893 0.82407 0.42967
 N44 N 0.68829 0.86488 0.19097
 N45 N 0.69153 0.82243 0.13708
 C46 C 0.64622 0.83581 0.07986
 C47 C 0.61271 0.88834 0.09972
 C48 C 0.64022 0.90586 0.17009
 H49 H 0.64103 0.81156 0.02609
 H50 H 0.62982 0.94784 0.20067
 H51 H 0.80988 0.83190 0.19369
 H52 H 0.75886 0.77829 0.25459
 N53 N 0.82465 1.30276 -0.11032
 N54 N 0.88047 1.30624 -0.14964
 C55 C 0.91802 1.35743 -0.12828
 C56 C 0.88349 1.38723 -0.07290
 C57 C 0.82479 1.35150 -0.06223
 H58 H 0.96842 1.36984 -0.14773
 H59 H 0.78674 1.35873 -0.02062
 Cu60 Cu 0.90297 1.23978 -0.21825
 Cu61 Cu 0.75796 1.23337 -0.12224
 Cu62 Cu 0.82299 1.10100 -0.20071
 N63 N 0.92185 1.17083 -0.28509
 N64 N 0.88988 1.11640 -0.27737
 C65 C 0.91575 1.07486 -0.32437
 C66 C 0.96586 1.10542 -0.36367
 C67 C 0.96966 1.16592 -0.33763
 H68 H 0.90125 1.02587 -0.32705
 H69 H 1.00608 1.20233 -0.35288
 N70 N 0.73768 1.10010 -0.14574
 N71 N 0.71175 1.15056 -0.11712
 C72 C 0.65386 1.13423 -0.08195
 C73 C 0.64348 1.07065 -0.09004
 C74 C 0.69704 1.05032 -0.13030
 H75 H 0.62335 1.16564 -0.05074
 H76 H 0.70662 1.00276 -0.14546
 H77 H 0.83866 1.17772 -0.12759
 H78 H 0.78961 1.18820 -0.21983
 N79 N 0.15660 0.69743 -0.14010
 N80 N 0.12168 0.69331 -0.20561
 C81 C 0.07531 0.64555 -0.20266
 C82 C 0.08290 0.61815 -0.13207
 C83 C 0.13464 0.65205 -0.09356
 H84 H 0.03578 0.63469 -0.24601
 H85 H 0.15016 0.64801 -0.03411
 Cu86 Cu 0.13323 0.75627 -0.28405
 Cu87 Cu 0.21601 0.76911 -0.11389
 Cu88 Cu 0.26462 0.86120 -0.26502
 N89 N 0.14097 0.82765 -0.35163
 N90 N 0.19293 0.86828 -0.34476
 C91 C 0.18482 0.91344 -0.39725
 C92 C 0.12487 0.89950 -0.43862
 C93 C 0.09751 0.84560 -0.40846
 H94 H 0.21833 0.95419 -0.40249
 H95 H 0.04894 0.82254 -0.42458
 N96 N 0.31188 0.86548 -0.16400
 N97 N 0.29168 0.83165 -0.10589
 C98 C 0.32895 0.84906 -0.04297
 C99 C 0.37431 0.89585 -0.06281
 C100 C 0.36271 0.90563 -0.13968
 H101 H 0.32208 0.83067 0.01342
 H102 H 0.38651 0.94117 -0.17421
 H103 H 0.18801 0.83332 -0.19795
 H104 H 0.24760 0.77075 -0.22146
 C105 C 0.49975 1.01127 0.02334
 C106 C -0.00443 0.51650 1.00580
 C107 C 1.01283 0.00695 0.50129
 N108 N 0.04958 0.43545 1.06199
 N109 N 0.02794 0.48725 1.07219
 N110 N -0.03387 0.59827 1.08454
 N111 N -0.05400 0.56020 1.03231
 N112 N -0.09000 0.43703 0.97453
 N113 N -0.03839 0.46999 0.95499
 N114 N 0.03402 0.57711 0.90171
 N115 N 0.04787 0.55155 0.96551
 N116 N 1.00822 0.06759 0.39693
 N117 N 0.97332 0.03955 0.44240
 N118 N 1.09395 -0.06431 0.51212
 N119 N 1.06386 -0.03073 0.46669
 N120 N 0.93128 -0.06880 0.50319
 N121 N 0.96620 -0.03311 0.54380
 N122 N 1.00857 0.07898 0.59248
 N123 N 1.04764 0.05233 0.55226
 N124 N 0.42234 1.09314 0.03761
 N125 N 0.45371 1.04754 0.06729
 N126 N 0.59332 1.03139 -0.05567
 N127 N 0.54769 1.05309 -0.01475
 N128 N 0.41716 0.93192 -0.01078
 N129 N 0.45894 0.97417 -0.03272
 N130 N 0.57029 0.92469 0.05015
 N131 N 0.53850 0.97073 0.07492
   
