data_POSCAR
  _audit_creation_date              2014-09-24
  _audit_creation_method            'ToBaCCo'
  _symmetry_space_group_name_H-M    'P1'
  _symmetry_Int_Tables_number       1
  _symmetry_cell_setting            triclinic
  loop_
  _symmetry_equiv_pos_as_xyz
 x,y,z
_cell_length_a 41.0052
_cell_length_b 40.9505
_cell_length_c 13.8443
_cell_angle_alpha 89.653700
_cell_angle_beta 89.950300
_cell_angle_gamma 119.983200
loop_
  _atom_site_label
  _atom_site_type_symbol
  _atom_site_fract_x
  _atom_site_fract_y
  _atom_site_fract_z
O1 O 0.19518 0.45809 0.40515
 O2 O 0.25829 0.45766 0.59245
 O3 O 0.19626 0.46124 0.59111
 O4 O 0.25747 0.45577 0.40511
 O5 O 0.28983 0.51757 0.39726
 O6 O 0.22900 0.52332 0.58346
 O7 O 0.29103 0.51939 0.58713
 O8 O 0.22834 0.51999 0.39595
 Cu9 Cu 0.22361 0.45204 0.49953
 Cu10 Cu 0.26305 0.52634 0.49098
 C11 C 0.20104 0.48885 0.36718
 C12 C 0.28550 0.48828 0.62303
 C13 C 0.20186 0.49320 0.61824
 C14 C 0.28373 0.48573 0.36739
 O15 O 0.53837 -0.26507 0.40544
 O16 O 0.53907 -0.19910 0.58685
 O17 O 0.53997 -0.26235 0.59379
 O18 O 0.54234 -0.19971 0.40033
 O19 O 0.48053 -0.23046 0.39561
 O20 O 0.47810 -0.29359 0.58947
 O21 O 0.47708 -0.22981 0.58570
 O22 O 0.47653 -0.29529 0.40417
 Cu23 Cu 0.54608 -0.22861 0.49706
 Cu24 Cu 0.47182 -0.26502 0.49434
 C25 C 0.50740 -0.29137 0.37265
 C26 C 0.50802 -0.20333 0.61778
 C27 C 0.50878 -0.28905 0.62444
 C28 C 0.51205 -0.20453 0.36331
 O29 O 1.19832 0.74119 0.58962
 O30 O 1.26057 0.80137 0.39496
 O31 O 1.19865 0.73641 0.40337
 O32 O 1.26252 0.80452 0.58222
 O33 O 1.29406 0.77384 0.58974
 O34 O 1.22973 0.70536 0.41391
 O35 O 1.29218 0.77117 0.40235
 O36 O 1.23050 0.71155 0.60094
 Cu37 Cu 1.22685 0.77392 0.49173
 Cu38 Cu 1.26479 0.73741 0.50189
 C39 C 1.20370 0.71634 0.62958
 C40 C 1.28721 0.79684 0.36471
 C41 C 1.20312 0.70902 0.37914
 C42 C 1.28910 0.80059 0.61656
 O43 O 0.79513 0.53365 0.40045
 O44 O 0.73756 0.53916 0.59826
 O45 O 0.79973 0.53572 0.58684
 O46 O 0.73063 0.53266 0.41116
 O47 O 0.69868 0.47056 0.42517
 O48 O 0.76755 0.47351 0.59816
 O49 O 0.70655 0.47752 0.61170
 O50 O 0.76361 0.47205 0.41444
 Cu51 Cu 0.76879 0.54153 0.49798
 Cu52 Cu 0.73068 0.46723 0.51282
 C53 C 0.79004 0.50163 0.37557
 C54 C 0.71220 0.50950 0.63955
 C55 C 0.79590 0.50492 0.61962
 C56 C 0.70239 0.50094 0.39038
 O57 O 0.46051 0.19785 0.59796
 O58 O 0.45898 0.25986 0.40792
 O59 O 0.45982 0.19637 0.41063
 O60 O 0.46192 0.26213 0.59385
 O61 O 0.52398 0.29284 0.58966
 O62 O 0.52166 0.22774 0.40449
 O63 O 0.52089 0.29072 0.40187
 O64 O 0.52223 0.22820 0.59413
 Cu65 Cu 0.45415 0.22590 0.50297
 Cu66 Cu 0.52843 0.26285 0.49719
 C67 C 0.49139 0.20235 0.63025
 C68 C 0.48946 0.28590 0.37193
 C69 C 0.49039 0.20099 0.37497
 C70 C 0.49331 0.28876 0.62307
 O71 O 0.73788 0.19940 0.40950
 O72 O 0.80104 0.26638 0.59202
 O73 O 0.73713 0.20225 0.59509
 O74 O 0.80148 0.26341 0.40621
 O75 O 0.76971 0.29385 0.39608
 O76 O 0.70538 0.23257 0.58706
 O77 O 0.76913 0.29631 0.58357
 O78 O 0.70652 0.23011 0.40078
 Cu79 Cu 0.77255 0.22977 0.50154
 Cu80 Cu 0.73461 0.26640 0.49115
 C81 C 0.71126 0.20311 0.37454
 C82 C 0.79591 0.29309 0.61933
 C83 C 0.71002 0.20655 0.62277
 C84 C 0.79679 0.28924 0.36982
 O85 O 0.94737 0.41238 0.15496
 O86 O 0.90557 0.42446 0.07499
 C87 C 0.91344 0.40448 0.13350
 O88 O 1.05227 0.58285 0.18022
 O89 O 1.09392 0.57501 0.08550
 C90 C 1.08606 0.59174 0.15323
 O91 O 0.94686 0.52774 0.18890
 O92 O 0.90562 0.47997 0.09076
 C93 C 0.91302 0.50281 0.16267
 O94 O 1.05218 0.46350 0.14970
 O95 O 1.09403 0.51864 0.07278
 C96 C 1.08611 0.49007 0.12887
 Zr97 Zr 0.99972 0.45759 0.10972
 O98 O 1.00301 0.45794 0.26250
 O99 O 0.99685 0.40464 0.10775
 Zr100 Zr 0.99960 0.53963 0.12955
 O101 O 1.00294 0.53764 0.28186
 O102 O 0.99805 0.59042 0.13290
 O103 O 0.96587 0.48105 0.13907
 O104 O 1.03246 0.51444 0.13699
 O105 O 1.05215 0.47322 -0.18340
 O106 O 1.09395 0.52285 -0.09039
 C107 C 1.08598 0.49783 -0.15691
 O108 O 0.94806 0.53708 -0.16815
 O109 O 0.90611 0.48490 -0.08072
 C110 C 0.91430 0.51071 -0.14613
 O111 O 1.05272 0.59350 -0.15420
 O112 O 1.09409 0.57991 -0.07712
 C113 C 1.08655 0.60083 -0.13303
 O114 O 0.94616 0.42433 -0.19061
 O115 O 0.90519 0.43009 -0.08984
 C116 C 0.91217 0.41482 -0.16255
 Zr117 Zr 0.99961 0.46478 -0.13377
 O118 O 1.00431 0.47305 -0.28548
 O119 O 0.99474 0.41115 -0.15059
 Zr120 Zr 1.00012 0.54709 -0.11258
 O121 O 1.00502 0.55506 -0.26422
 O122 O 0.99571 0.59610 -0.09718
 Zr123 Zr 0.94347 0.47398 -0.00109
 Zr124 Zr 1.05609 0.53013 -0.00228
 O125 O 1.03272 0.52279 -0.14114
 O126 O 0.96633 0.48973 -0.14156
 O127 O 1.03320 0.47131 -0.01393
 O128 O 0.96673 0.53269 0.00988
 O129 O 0.96715 0.43887 -0.01334
 O130 O 1.03369 0.56642 0.00994
 H131 H 1.04936 0.52119 0.19355
 H132 H 0.94949 0.54304 0.01383
 H133 H 1.04984 0.53302 -0.19767
 H134 H 0.95055 0.41123 -0.01898
 H135 H 0.99840 0.59671 0.20204
 H136 H 1.01220 0.61058 -0.04299
 H137 H 0.98724 0.53066 -0.29393
 H138 H 0.98120 0.47248 -0.30848
 H139 H 1.01536 0.41113 -0.11369
 H140 H 1.00828 0.40337 0.04612
 H141 H 0.97863 0.45344 0.28870
 H142 H 0.98348 0.51213 0.30317
 O143 O 0.40902 0.46298 0.15650
 O144 O 0.42036 0.51579 0.07058
 C145 C 0.40065 0.48845 0.13084
 O146 O 0.57847 0.52804 0.17875
 O147 O 0.57109 0.47792 0.08807
 C148 C 0.58706 0.50253 0.15625
 O149 O 0.52581 0.58024 0.17396
 O150 O 0.47589 0.57172 0.08028
 C151 C 0.50115 0.58933 0.14653
 O152 O 0.46068 0.40930 0.15706
 O153 O 0.51509 0.42176 0.07858
 C154 C 0.48718 0.40182 0.13670
 Zr155 Zr 0.45440 0.45549 0.11304
 O156 O 0.45716 0.45614 0.26598
 O157 O 0.40268 0.40428 0.12141
 Zr158 Zr 0.53621 0.53785 0.12227
 O159 O 0.53572 0.53654 0.27514
 O160 O 0.58779 0.58934 0.11766
 O161 O 0.47782 0.51325 0.13534
 O162 O 0.51125 0.48005 0.13646
 O163 O 0.46816 0.41447 -0.17669
 O164 O 0.51894 0.42430 -0.08492
 C165 C 0.49353 0.40623 -0.14986
 O166 O 0.53200 0.58440 -0.17428
 O167 O 0.47896 0.57348 -0.09061
 C168 C 0.50595 0.59230 -0.15236
 O169 O 0.58776 0.53532 -0.15906
 O170 O 0.57560 0.48180 -0.07564
 C171 C 0.59601 0.50971 -0.13369
 O172 O 0.41541 0.46765 -0.18445
 O173 O 0.42321 0.51775 -0.09332
 C174 C 0.40562 0.49203 -0.15807
 Zr175 Zr 0.45902 0.45860 -0.13136
 O176 O 0.46625 0.46246 -0.28332
 O177 O 0.40703 0.40791 -0.14573
 Zr178 Zr 0.54058 0.54077 -0.12119
 O179 O 0.53905 0.53677 -0.27340
 O180 O 0.59073 0.59362 -0.12571
 Zr181 Zr 0.46908 0.52617 -0.00649
 Zr182 Zr 0.52597 0.47017 -0.00116
 O183 O 0.51697 0.48356 -0.14200
 O184 O 0.48299 0.51685 -0.14636
 O185 O 0.46710 0.43384 -0.00828
 O186 O 0.52779 0.56155 -0.00029
 O187 O 0.43437 0.46703 -0.01134
 O188 O 0.56181 0.52907 0.00330
 H189 H 0.51788 0.47026 0.19383
 H190 H 0.53867 0.58921 0.00065
 H191 H 0.52705 0.47606 -0.19739
 H192 H 0.40664 0.45516 -0.01431
 H193 H 0.59451 0.59724 0.18566
 H194 H 0.60166 0.59790 -0.06028
 H195 H 0.56228 0.55923 -0.29714
 H196 H 0.46639 0.48560 -0.30517
 H197 H 0.40695 0.38948 -0.09911
 H198 H 0.39485 0.39611 0.05435
 H199 H 0.45088 0.47512 0.28948
 H200 H 0.51000 0.52953 0.29644
 O201 O 0.58392 0.05269 -0.17990
 O202 O 0.57554 0.09396 -0.08544
 C203 C 0.59254 0.08638 -0.15341
 O204 O 0.41431 -0.05158 -0.16525
 O205 O 0.42506 -0.09419 -0.08494
 C206 C 0.40565 -0.08592 -0.14382
 O207 O 0.46983 0.05406 -0.16906
 O208 O 0.52100 0.09482 -0.07882
 C209 C 0.49502 0.08775 -0.14218
 O210 O 0.53334 -0.05294 -0.17356
 O211 O 0.48087 -0.09500 -0.08756
 C212 C 0.50741 -0.08692 -0.15009
 Zr213 Zr 0.54166 -0.00013 -0.12586
 O214 O 0.53842 -0.00243 -0.27851
 O215 O 0.59494 0.00345 -0.13095
 Zr216 Zr 0.45996 0.00062 -0.12044
 O217 O 0.46281 0.00066 -0.27282
 O218 O 0.40978 0.00338 -0.12399
 O219 O 0.51779 0.03426 -0.14068
 O220 O 0.48405 -0.03257 -0.14210
 O221 O 0.53682 -0.05476 0.15448
 O222 O 0.48329 -0.09564 0.07256
 C223 C 0.51112 -0.08845 0.12975
 O224 O 0.46907 0.05101 0.17376
 O225 O 0.52086 0.09320 0.08593
 C226 C 0.49435 0.08509 0.14877
 O227 O 0.41401 -0.05453 0.16316
 O228 O 0.42578 -0.09582 0.07927
 C229 C 0.40602 -0.08833 0.13901
 O230 O 0.58617 0.04978 0.17073
 O231 O 0.57623 0.09252 0.08645
 C232 C 0.59429 0.08387 0.14930
 Zr233 Zr 0.54223 -0.00204 0.11858
 O234 O 0.53612 -0.00760 0.27080
 O235 O 0.59453 -0.00010 0.13058
 Zr236 Zr 0.46066 -0.00163 0.12416
 O237 O 0.46422 -0.00629 0.27579
 O238 O 0.41025 -0.00035 0.14420
 Zr239 Zr 0.52958 0.05567 0.00089
 Zr240 Zr 0.47267 -0.05710 -0.00331
 O241 O 0.48473 -0.03531 0.13760
 O242 O 0.51866 0.03217 0.14138
 O243 O 0.53157 -0.03451 -0.00539
 O244 O 0.47064 0.03195 0.00314
 O245 O 0.56445 0.03163 -0.00304
 O246 O 0.43692 -0.03390 0.00090
 H247 H 0.47522 -0.04915 -0.19938
 H248 H 0.45923 0.04827 0.00367
 H249 H 0.47614 -0.05348 0.19234
 H250 H 0.59207 0.04845 -0.00413
 H251 H 0.39192 -0.01556 -0.07741
 H252 H 0.40105 0.00073 0.07904
 H253 H 0.48292 0.01888 0.30023
 H254 H 0.54039 0.01670 0.29671
 H255 H 0.60455 0.00256 0.06437
 H256 H 0.59336 -0.01724 -0.09032
 H257 H 0.53235 0.01700 -0.30016
 H258 H 0.44006 0.00083 -0.29620
 C259 C 1.14433 0.52159 0.22444
 C260 C 1.17202 0.52135 0.28200
 C261 C 1.17483 0.48872 0.29240
 C262 C 1.15058 0.45642 0.23670
 C263 C 1.12097 0.45607 0.18237
 C264 C 1.11769 0.48894 0.17736
 C265 C 1.09614 0.42295 0.13284
 N266 N 1.10157 0.39293 0.13413
 N267 N 1.13034 0.39386 0.18085
 C268 C 1.15517 0.42457 0.23121
 H269 H 1.14243 0.54703 0.22102
 H270 H 1.19044 0.54664 0.32187
 H271 H 1.07295 0.42076 0.09122
 H272 H 1.17881 0.42393 0.26316
 C273 C 0.47191 0.61805 0.24461
 C274 C 0.47332 0.64734 0.29807
 C275 C 0.50666 0.68255 0.30466
 C276 C 0.53812 0.68890 0.24619
 C277 C 0.53641 0.65857 0.19210
 C278 C 0.50317 0.62271 0.19327
 C279 C 0.56791 0.66541 0.13617
 N280 N 0.59858 0.70034 0.13228
 N281 N 0.59977 0.72908 0.17952
 C282 C 0.57064 0.72475 0.23517
 H283 H 0.44680 0.59084 0.24818
 H284 H 0.44850 0.64124 0.33975
 H285 H 0.56827 0.64360 0.09385
 H286 H 0.57304 0.74989 0.26628
 C287 C 0.37756 -0.14707 0.23496
 C288 C 0.34831 -0.17576 0.28764
 C289 C 0.31278 -0.17840 0.29393
 C290 C 0.30603 -0.15363 0.23439
 C291 C 0.33635 -0.12419 0.18112
 C292 C 0.37259 -0.12033 0.18451
 C293 C 0.32919 -0.10007 0.12346
 N294 N 0.29388 -0.10544 0.11782
 N295 N 0.26521 -0.13356 0.16487
 C296 C 0.26990 -0.15794 0.22183
 H297 H 0.40500 -0.14445 0.23837
 H298 H 0.35470 -0.19429 0.32947
 H299 H 0.35108 -0.07752 0.08095
 H300 H 0.24489 -0.18114 0.25278
 C301 C 0.87967 0.53405 0.23160
 C302 C 0.84905 0.53340 0.27768
 C303 C 0.81744 0.49930 0.30787
 C304 C 0.81669 0.46489 0.28604
 C305 C 0.84948 0.46614 0.24765
 C306 C 0.88060 0.50078 0.21656
 C307 C 0.85065 0.43254 0.24496
 N308 N 0.81969 0.39928 0.26762
 N309 N 0.78754 0.39745 0.29288
 C310 C 0.78483 0.42894 0.30198
 H311 H 0.90305 0.56089 0.20817
 H312 H 0.85066 0.56015 0.29169
 H313 H 0.87630 0.43279 0.22794
 H314 H 0.75741 0.42494 0.31826
 C315 C 0.51933 0.37677 0.23694
 C316 C 0.52005 0.34878 0.29281
 C317 C 0.48860 0.31232 0.29876
 C318 C 0.45649 0.30363 0.24112
 C319 C 0.45510 0.33284 0.18834
 C320 C 0.48679 0.36971 0.18709
 C321 C 0.42222 0.32383 0.13643
 N322 N 0.39336 0.28779 0.13426
 N323 N 0.39529 0.26009 0.17971
 C324 C 0.42585 0.26665 0.23214
 H325 H 0.54391 0.40477 0.23631
 H326 H 0.54509 0.35628 0.33475
 H327 H 0.41931 0.34485 0.09611
 H328 H 0.42610 0.24256 0.26314
 C329 C 0.61757 0.13525 0.26697
 C330 C 0.64585 0.16466 0.31901
 C331 C 0.68367 0.17437 0.30800
 C332 C 0.69296 0.15420 0.24067
 C333 C 0.66379 0.12356 0.18935
 C334 C 0.62594 0.11479 0.20124
 C335 C 0.67358 0.10269 0.12766
 N336 N 0.71023 0.11276 0.11546
 N337 N 0.73773 0.14251 0.15989
 C338 C 0.73042 0.16374 0.22131
 H339 H 0.58865 0.12714 0.28159
 H340 H 0.63783 0.17897 0.37135
 H341 H 0.65249 0.07850 0.08911
 H342 H 0.75406 0.18813 0.25275
 C343 C 0.52650 0.14990 -0.22480
 C344 C 0.52562 0.17792 -0.28030
 C345 C 0.49163 0.17771 -0.29742
 C346 C 0.45887 0.15102 -0.24444
 C347 C 0.45981 0.12166 -0.19093
 C348 C 0.49350 0.12007 -0.18616
 C349 C 0.42735 0.09573 -0.13955
 N350 N 0.39621 0.09918 -0.14023
 N351 N 0.39549 0.12715 -0.18750
 C352 C 0.42564 0.15331 -0.23833
 H353 H 0.55301 0.15067 -0.21557
 H354 H 0.55171 0.19876 -0.31414
 H355 H 0.42675 0.07354 -0.09588
 H356 H 0.42343 0.17638 -0.26865
 C357 C 0.62658 0.47764 -0.21042
 C358 C 0.65508 0.47752 -0.26455
 C359 C 0.68838 0.51124 -0.28842
 C360 C 0.69446 0.54528 -0.24362
 C361 C 0.66478 0.54521 -0.18941
 C362 C 0.62990 0.51131 -0.17733
 C363 C 0.67156 0.57889 -0.14524
 N364 N 0.70567 0.61045 -0.15401
 N365 N 0.73370 0.61050 -0.20251
 C366 C 0.72949 0.57914 -0.24640
 H367 H 0.60081 0.45117 -0.19853
 H368 H 0.64959 0.45065 -0.29297
 H369 H 0.65064 0.58024 -0.10087
 H370 H 0.75431 0.58103 -0.27843
 C371 C 0.88612 0.35634 -0.25901
 C372 C 0.85776 0.32567 -0.30775
 C373 C 0.82126 0.32038 -0.31504
 C374 C 0.81278 0.34512 -0.26269
 C375 C 0.84219 0.37762 -0.21680
 C376 C 0.87961 0.38330 -0.21458
 C377 C 0.83263 0.40317 -0.17574
 N378 N 0.79634 0.39504 -0.17192
 N379 N 0.76857 0.36298 -0.20646
 C380 C 0.77544 0.33768 -0.25074
 H381 H 0.91377 0.35904 -0.25686
 H382 H 0.86526 0.30700 -0.34427
 H383 H 0.85313 0.42981 -0.14782
 H384 H 0.75139 0.31150 -0.27285
 C385 C 0.47800 -0.13992 -0.26344
 C386 C 0.47815 -0.16812 -0.31885
 C387 C 0.50762 -0.17615 -0.31198
 C388 C 0.53636 -0.15660 -0.24225
 C389 C 0.53658 -0.12720 -0.18769
 C390 C 0.50754 -0.11848 -0.20021
 C391 C 0.56551 -0.10796 -0.12028
 N392 N 0.59203 -0.11805 -0.10694
 N393 N 0.59138 -0.14620 -0.15606
 C394 C 0.56446 -0.16590 -0.22262
 H395 H 0.45531 -0.13385 -0.27262
 H396 H 0.45558 -0.18287 -0.37018
 H397 H 0.56692 -0.08543 -0.07706
 H398 H 0.56490 -0.18919 -0.25707
 C399 C 0.37357 0.52282 -0.23665
 C400 C 0.34435 0.52207 -0.28942
 C401 C 0.31082 0.48802 -0.30715
 C402 C 0.30554 0.45484 -0.25753
 C403 C 0.33645 0.45561 -0.20803
 C404 C 0.37149 0.48968 -0.20262
 C405 C 0.33061 0.42264 -0.16037
 N406 N 0.29618 0.39127 -0.16046
 N407 N 0.26696 0.39075 -0.20347
 C408 C 0.27024 0.42135 -0.25062
 H409 H 0.39855 0.54954 -0.22491
 H410 H 0.34900 0.54852 -0.31977
 H411 H 0.35257 0.42176 -0.11984
 H412 H 0.24460 0.41929 -0.27702
 C413 C 1.14662 0.62824 -0.22203
 C414 C 1.17493 0.65599 -0.27914
 C415 C 1.17723 0.69102 -0.29418
 C416 C 1.15194 0.69898 -0.24257
 C417 C 1.12159 0.66974 -0.18915
 C418 C 1.11863 0.63378 -0.18061
 C419 C 1.09591 0.67801 -0.14354
 N420 N 1.10122 0.71340 -0.14744
 N421 N 1.13056 0.74118 -0.19339
 C422 C 1.15621 0.73532 -0.24019
 H423 H 1.14541 0.60135 -0.21452
 H424 H 1.19422 0.64920 -0.31524
 H425 H 1.07240 0.65719 -0.10197
 H426 H 1.18026 0.75957 -0.27155
 C427 C 0.86379 0.52575 -0.17604
 C428 C 0.83541 0.52472 -0.23372
 C429 C 0.82585 0.50527 -0.32144
 C430 C 0.84567 0.48709 -0.35290
 C431 C 0.87503 0.48897 -0.29546
 C432 C 0.88367 0.50807 -0.20610
 C433 C 0.89502 0.47164 -0.32968
 N434 N 0.88574 0.45336 -0.41528
 N435 N 0.85808 0.45152 -0.46938
 C436 C 0.83787 0.46782 -0.44144
 H437 H 0.87056 0.54075 -0.10818
 H438 H 0.82054 0.53885 -0.20942
 H439 H 0.91785 0.47239 -0.28922
 H440 H 0.81615 0.46566 -0.48912
 C441 C 0.52217 0.38304 -0.26715
 C442 C 0.52233 0.35452 -0.32090
 C443 C 0.49428 0.31669 -0.30769
 C444 C 0.46669 0.30742 -0.23427
 C445 C 0.46612 0.33670 -0.18131
 C446 C 0.49393 0.37467 -0.19880
 C447 C 0.43782 0.32697 -0.11145
 N448 N 0.41249 0.29021 -0.09374
 N449 N 0.41372 0.26261 -0.14092
 C450 C 0.43998 0.26989 -0.21007
 H451 H 0.54338 0.41203 -0.28186
 H452 H 0.54375 0.36233 -0.37617
 H453 H 0.43586 0.34825 -0.07029
 H454 H 0.44012 0.24620 -0.24336
 C455 C 0.61549 0.13780 -0.27311
 C456 C 0.64399 0.16790 -0.32425
 C457 C 0.68195 0.17914 -0.30833
 C458 C 0.69122 0.16047 -0.23588
 C459 C 0.66201 0.12908 -0.18602
 C460 C 0.62397 0.11821 -0.20411
 C461 C 0.67193 0.10943 -0.11984
 N462 N 0.70870 0.12152 -0.10178
 N463 N 0.73616 0.15211 -0.14476
 C464 C 0.72872 0.17215 -0.21053
 H465 H 0.58650 0.12864 -0.29063
 H466 H 0.63615 0.18132 -0.38007
 H467 H 0.65085 0.08452 -0.08274
 H468 H 0.75221 0.19731 -0.24069
 C469 C 1.13677 0.52395 -0.27855
 C470 C 1.16526 0.52315 -0.33143
 C471 C 1.17521 0.49546 -0.31361
 C472 C 1.15711 0.46916 -0.23713
 C473 C 1.12754 0.46959 -0.18485
 C474 C 1.11738 0.49714 -0.20632
 C475 C 1.10909 0.44238 -0.11208
 N476 N 1.12038 0.41718 -0.09112
 N477 N 1.14897 0.41753 -0.13771
 C478 C 1.16783 0.44272 -0.20950
 H479 H 1.12883 0.54478 -0.29669
 H480 H 1.17854 0.54342 -0.38963
 H481 H 1.08597 0.44110 -0.07150
 H482 H 1.19143 0.44219 -0.24250
 C483 C 0.47703 0.61868 -0.25919
 C484 C 0.47681 0.64792 -0.30978
 C485 C 0.50795 0.68471 -0.30765
 C486 C 0.53828 0.69233 -0.24369
 C487 C 0.53800 0.66216 -0.19142
 C488 C 0.50729 0.62506 -0.20096
 C489 C 0.56820 0.67027 -0.12929
 N490 N 0.59628 0.70632 -0.11800
 N491 N 0.59602 0.73480 -0.16395
 C492 C 0.56799 0.72916 -0.22548
 H493 H 0.45429 0.59038 -0.26993
 H494 H 0.45313 0.64080 -0.35697
 H495 H 0.56953 0.64844 -0.08844
 H496 H 0.56879 0.75377 -0.25616
 C497 C 0.36252 -0.10709 -0.28338
 C498 C 0.33430 -0.13401 -0.34091
 C499 C 0.31546 -0.17191 -0.31371
 C500 C 0.32358 -0.18275 -0.22365
 C501 C 0.35190 -0.15518 -0.16307
 C502 C 0.37271 -0.11682 -0.19524
 C503 C 0.35722 -0.16728 -0.07188
 N504 N 0.33677 -0.20409 -0.04548
 N505 N 0.31081 -0.22979 -0.10306
 C506 C 0.30334 -0.22038 -0.19082
 H507 H 0.37729 -0.07834 -0.31028
 H508 H 0.32822 -0.12534 -0.40950
 H509 H 0.37635 -0.14823 -0.01947
 H510 H 0.28111 -0.24230 -0.23307
 C511 C 0.47929 -0.15047 0.21024
 C512 C 0.47944 -0.17839 0.26724
 C513 C 0.51299 -0.17853 0.28597
 C514 C 0.54637 -0.15192 0.23601
 C515 C 0.54643 -0.12212 0.18229
 C516 C 0.51270 -0.12075 0.17306
 C517 C 0.58006 -0.09541 0.13667
 N518 N 0.61113 -0.09894 0.14195
 N519 N 0.61079 -0.12754 0.18896
 C520 C 0.57956 -0.15422 0.23529
 H521 H 0.45304 -0.15096 0.19966
 H522 H 0.45313 -0.19905 0.30046
 H523 H 0.58179 -0.07237 0.09445
 H524 H 0.58093 -0.17758 0.26707
 C525 C 0.36940 0.51939 0.20898
 C526 C 0.34158 0.51852 0.26781
 C527 C 0.30886 0.48439 0.29110
 C528 C 0.30271 0.45092 0.24343
 C529 C 0.33215 0.45191 0.18638
 C530 C 0.36661 0.48623 0.17441
 C531 C 0.32551 0.41879 0.13932
 N532 N 0.29176 0.38683 0.14867
 N533 N 0.26400 0.38587 0.20067
 C534 C 0.26812 0.41669 0.24742
 H535 H 0.39417 0.54610 0.19397
 H536 H 0.34661 0.54496 0.29810
 H537 H 0.34624 0.41826 0.09228
 H538 H 0.24356 0.41400 0.28299
 C539 C 1.13023 0.61392 0.28945
 C540 C 1.15912 0.64229 0.34298
 C541 C 1.17594 0.68009 0.31332
 C542 C 1.16462 0.68925 0.22539
 C543 C 1.13514 0.66033 0.17119
 C544 C 1.11767 0.62258 0.20448
 C545 C 1.12400 0.67021 0.08521
 N546 N 1.14194 0.70662 0.05462
 N547 N 1.17020 0.73372 0.10432
 C548 C 1.18221 0.72630 0.18850
 H549 H 1.11713 0.58505 0.31536
 H550 H 1.16752 0.63481 0.40997
 H551 H 1.10131 0.64924 0.04217
 H552 H 1.20570 0.74929 0.22477
 C553 C 0.52496 0.14565 0.23492
 C554 C 0.52387 0.17330 0.29003
 C555 C 0.49026 0.17411 0.30245
 C556 C 0.45797 0.14819 0.24889
 C557 C 0.45889 0.11888 0.19625
 C558 C 0.49234 0.11672 0.19373
 C559 C 0.42674 0.09368 0.14389
 N560 N 0.39594 0.09776 0.14340
 N561 N 0.39526 0.12559 0.19071
 C562 C 0.42516 0.15104 0.24255
 H563 H 0.55133 0.14614 0.22729
 H564 H 0.54952 0.19353 0.32582
 H565 H 0.42610 0.07152 0.10082
 H566 H 0.42317 0.17394 0.27420
 C567 C 0.65015 0.50933 0.17668
 C568 C 0.67837 0.50958 0.23362
 C569 C 0.67186 0.49946 0.33150
 C570 C 0.63642 0.48909 0.37330
 C571 C 0.60818 0.48990 0.31641
 C572 C 0.61523 0.50011 0.21717
 C573 C 0.57364 0.48024 0.36127
 N574 N 0.56797 0.47039 0.45601
 N575 N 0.59451 0.46958 0.50935
 C576 C 0.62848 0.47864 0.47139
 H577 H 0.65589 0.51731 0.10113
 H578 H 0.70544 0.51763 0.20116
 H579 H 0.55110 0.48050 0.32268
 H580 H 0.64884 0.47755 0.51836
 C581 C 0.88973 0.36503 0.27939
 C582 C 0.86165 0.33751 0.33671
 C583 C 0.82507 0.31597 0.30187
 C584 C 0.81684 0.32090 0.20555
 C585 C 0.84582 0.34836 0.14548
 C586 C 0.88242 0.37163 0.18437
 C587 C 0.83711 0.35069 0.04838
 N588 N 0.80163 0.32820 0.01543
 N589 N 0.77431 0.30319 0.07263
 C590 C 0.78071 0.29866 0.16646
 H591 H 0.91724 0.38221 0.31129
 H592 H 0.86827 0.33385 0.41039
 H593 H 0.85817 0.36921 -0.00252
 H594 H 0.75769 0.27740 0.20917
   
