data_POSCAR
  _audit_creation_date              2014-09-24
  _audit_creation_method            'ToBaCCo'
  _symmetry_space_group_name_H-M    'P1'
  _symmetry_Int_Tables_number       1
  _symmetry_cell_setting            triclinic
  loop_
  _symmetry_equiv_pos_as_xyz
 x,y,z
_cell_length_a 45.1682
_cell_length_b 11.7864
_cell_length_c 11.5849
_cell_angle_alpha 78.090800
_cell_angle_beta 91.598600
_cell_angle_gamma 90.143800
loop_
  _atom_site_label
  _atom_site_type_symbol
  _atom_site_fract_x
  _atom_site_fract_y
  _atom_site_fract_z
C1 C 0.74390 0.24941 0.46993
 C2 C 0.74842 0.25246 0.58707
 C3 C 0.72452 0.25923 0.67226
 C4 C 0.77898 0.24797 0.63917
 C5 C 0.76941 0.25220 0.39041
 C6 C 0.71454 0.22968 0.41649
 C7 C 0.72990 0.32558 0.75868
 C8 C 0.70751 0.34824 0.83047
 C9 C 0.67853 0.30942 0.81396
 C10 C 0.67437 0.22679 0.74234
 C11 C 0.69735 0.20076 0.67328
 C12 C 0.80046 0.33145 0.59643
 C13 C 0.83004 0.31432 0.63543
 C14 C 0.83818 0.21447 0.71899
 C15 C 0.81598 0.13785 0.77017
 C16 C 0.78673 0.15408 0.73004
 C17 C 0.79252 0.17154 0.41970
 C18 C 0.81839 0.18449 0.35583
 C19 C 0.82109 0.27316 0.25590
 C20 C 0.79723 0.35094 0.22207
 C21 C 0.77166 0.34082 0.28940
 C22 C 0.71014 0.12612 0.37699
 C23 C 0.68308 0.10300 0.32574
 C24 C 0.65973 0.18390 0.31068
 C25 C 0.66414 0.28840 0.34969
 C26 C 0.69150 0.31162 0.40102
 H27 H 0.75105 0.36742 0.76590
 H28 H 0.71277 0.40542 0.88995
 H29 H 0.65284 0.18852 0.73255
 H30 H 0.69329 0.13844 0.61820
 H31 H 0.79461 0.40493 0.52732
 H32 H 0.84667 0.37516 0.59545
 H33 H 0.77033 0.09017 0.76595
 H34 H 0.79130 0.10317 0.49739
 H35 H 0.83678 0.12742 0.38703
 H36 H 0.79840 0.42101 0.14569
 H37 H 0.75406 0.40418 0.26489
 H38 H 0.72774 0.06223 0.38682
 H39 H 0.68056 0.02109 0.29846
 H40 H 0.64672 0.35304 0.33800
 H41 H 0.69487 0.39329 0.42765
 H42 H 0.82125 0.06240 0.83819
 C43 C 0.24400 0.74668 0.44027
 C44 C 0.25197 0.76933 0.54876
 C45 C 0.22985 0.76506 0.64163
 C46 C 0.28179 0.80782 0.58100
 C47 C 0.26535 0.75532 0.34173
 C48 C 0.21331 0.70335 0.41940
 C49 C 0.20592 0.84169 0.62169
 C50 C 0.18305 0.83048 0.70068
 C51 C 0.18365 0.74153 0.80203
 C52 C 0.20878 0.66935 0.82711
 C53 C 0.23191 0.68174 0.74740
 C54 C 0.28463 0.91699 0.61052
 C55 C 0.31163 0.95219 0.65231
 C56 C 0.33652 0.87887 0.66615
 C57 C 0.33388 0.77025 0.63433
 C58 C 0.30665 0.73464 0.59243
 C59 C 0.26368 0.67378 0.26874
 C60 C 0.28609 0.66548 0.19049
 C61 C 0.31123 0.73661 0.18565
 C62 C 0.31130 0.82729 0.24736
 C63 C 0.28800 0.83914 0.32138
 C64 C 0.20118 0.60987 0.49907
 C65 C 0.17165 0.57760 0.48781
 C66 C 0.15340 0.63741 0.39497
 C67 C 0.16599 0.72565 0.31005
 C68 C 0.19585 0.75652 0.32090
 H69 H 0.20456 0.90748 0.54265
 H70 H 0.16431 0.88895 0.67966
 H71 H 0.21010 0.60065 0.90501
 H72 H 0.25058 0.62258 0.76489
 H73 H 0.26573 0.97484 0.60212
 H74 H 0.31285 1.03687 0.67432
 H75 H 0.30473 0.64934 0.57193
 H76 H 0.24604 0.61047 0.27764
 H77 H 0.28496 0.59528 0.14339
 H78 H 0.32992 0.88606 0.24208
 H79 H 0.28859 0.91085 0.36631
 H80 H 0.21435 0.56472 0.57298
 H81 H 0.16297 0.50859 0.55466
 H82 H 0.15264 0.77178 0.23614
 H83 H 0.20495 0.82579 0.25527
 H84 H 0.35257 0.71138 0.64605
 C85 C 0.25605 0.26861 -0.49125
 C86 C 0.24944 0.22865 -0.59216
 C87 C 0.27279 0.21134 -0.67621
 C88 C 0.21879 0.19835 -0.62216
 C89 C 0.23459 0.26131 -0.39294
 C90 C 0.28424 0.33220 -0.48235
 C91 C 0.26713 0.23957 -0.79879
 C92 C 0.28962 0.23194 -0.87752
 C93 C 0.31854 0.19965 -0.83490
 C94 C 0.32364 0.16516 -0.71245
 C95 C 0.30086 0.16762 -0.63453
 C96 C 0.19508 0.27634 -0.62522
 C97 C 0.16583 0.23788 -0.63228
 C98 C 0.16029 0.12045 -0.63213
 C99 C 0.18414 0.04802 -0.64335
 C100 C 0.21313 0.08663 -0.63980
 C101 C 0.21510 0.16717 -0.36264
 C102 C 0.19169 0.17212 -0.28748
 C103 C 0.18853 0.26723 -0.23282
 C104 C 0.21061 0.35328 -0.24977
 C105 C 0.23315 0.35068 -0.32955
 C106 C 0.30302 0.30422 -0.38196
 C107 C 0.33032 0.36010 -0.37903
 C108 C 0.33902 0.44509 -0.47566
 C109 C 0.31998 0.47384 -0.57469
 C110 C 0.29274 0.41922 -0.57735
 H111 H 0.24555 0.27151 -0.83387
 H112 H 0.28461 0.25893 -0.97103
 H113 H 0.34539 0.13656 -0.67629
 H114 H 0.30557 0.13971 -0.54108
 H115 H 0.19922 0.36456 -0.61564
 H116 H 0.14781 0.29711 -0.62765
 H117 H 0.23112 0.02635 -0.64146
 H118 H 0.21716 0.09146 -0.40067
 H119 H 0.17596 0.10139 -0.27286
 H120 H 0.20968 0.42697 -0.20795
 H121 H 0.24870 0.42187 -0.34529
 H122 H 0.29681 0.23789 -0.30726
 H123 H 0.34458 0.33736 -0.30148
 H124 H 0.32653 0.53625 -0.65139
 H125 H 0.27863 0.44147 -0.65561
 H126 H 0.18035 -0.04008 -0.65130
 C127 C -0.24848 0.77704 -0.42519
 C128 C -0.25606 0.71659 -0.51105
 C129 C -0.23386 0.68113 -0.59098
 C130 C -0.28669 0.67593 -0.52160
 C131 C -0.27097 0.79911 -0.33969
 C132 C -0.21803 0.82583 -0.41953
 C133 C -0.23929 0.70135 -0.71361
 C134 C -0.21643 0.69102 -0.78999
 C135 C -0.18735 0.66461 -0.74525
 C136 C -0.18274 0.63306 -0.62234
 C137 C -0.20603 0.63660 -0.54638
 C138 C -0.30708 0.73729 -0.60497
 C139 C -0.33645 0.69969 -0.60834
 C140 C -0.34570 0.59975 -0.52877
 C141 C -0.32504 0.54153 -0.44400
 C142 C -0.29594 0.57910 -0.44080
 C143 C -0.26945 0.74112 -0.22084
 C144 C -0.29207 0.75335 -0.14402
 C145 C -0.31794 0.81695 -0.18630
 C146 C -0.31960 0.87361 -0.30573
 C147 C -0.29605 0.86753 -0.38028
 C148 C -0.19966 0.79602 -0.31760
 C149 C -0.16917 0.81730 -0.32326
 C150 C -0.15639 0.86691 -0.43088
 C151 C -0.17492 0.90012 -0.53139
 C152 C -0.20546 0.88525 -0.52432
 H153 H -0.26063 0.73226 -0.75157
 H154 H -0.22121 0.71404 -0.88394
 H155 H -0.16095 0.60770 -0.58446
 H156 H -0.20162 0.61344 -0.45211
 H157 H -0.30039 0.81505 -0.66578
 H158 H -0.35173 0.74825 -0.67379
 H159 H -0.28053 0.53397 -0.37425
 H160 H -0.25166 0.68111 -0.18798
 H161 H -0.29015 0.70514 -0.05389
 H162 H -0.33905 0.92363 -0.34167
 H163 H -0.29806 0.91158 -0.47161
 H164 H -0.20812 0.75048 -0.23495
 H165 H -0.15547 0.79174 -0.24413
 H166 H -0.16594 0.93433 -0.61700
 H167 H -0.21904 0.91085 -0.60401
 H168 H -0.33102 0.46647 -0.37989
 N169 N 0.04468 1.18237 -0.05004
 N170 N 0.06869 1.23931 -0.02746
 N171 N -0.00926 1.16234 -0.21812
 N172 N -0.03256 1.16673 -0.29016
 N173 N -0.01501 1.21986 -0.13497
 N174 N -0.04234 1.26140 -0.15038
 N175 N 0.04988 1.12205 -0.13059
 N176 N 0.07752 1.13564 -0.16479
 C177 C 0.08896 1.20890 -0.09969
 C178 C -0.05326 1.22809 -0.24762
 N179 N -0.02341 0.83043 -0.16481
 N180 N -0.04824 0.79450 -0.20910
 N181 N 0.04465 0.88270 -0.14656
 N182 N 0.07318 0.87724 -0.16584
 N183 N 0.03576 0.78680 -0.07697
 N184 N 0.05822 0.71432 -0.04611
 N185 N -0.01314 0.92194 -0.23680
 N186 N -0.02998 0.94784 -0.33320
 Mn187 Mn 0.01828 1.02286 -0.18383
 C188 C -0.05172 0.86809 -0.31523
 C189 C 0.08121 0.77158 -0.10321
 N190 N -0.03459 1.16416 0.10431
 N191 N -0.05557 1.24378 0.08649
 N192 N 0.01525 1.02880 0.25941
 N193 N 0.03475 0.99706 0.34667
 N194 N 0.02405 1.12381 0.18800
 N195 N 0.04981 1.15803 0.22526
 N196 N -0.04367 1.06867 0.17399
 N197 N -0.07134 1.08126 0.20465
 Mn198 Mn 0.00494 1.17384 0.02667
 C199 C -0.07832 1.19148 0.14917
 C200 C 0.05591 1.07914 0.32548
 N201 N 0.01484 0.72804 0.15880
 N202 N 0.03770 0.65713 0.18672
 N203 N -0.04859 0.82651 0.15820
 N204 N -0.07608 0.81068 0.19440
 N205 N -0.04402 0.77118 0.07286
 N206 N -0.06832 0.71780 0.04734
 N207 N 0.01106 0.78843 0.24092
 N208 N 0.03165 0.76056 0.32567
 Mn209 Mn -0.00438 0.77784 -0.00291
 Mn210 Mn -0.01663 0.92755 0.20962
 Cl211 Cl 0.00062 0.97542 0.01295
 C212 C 0.04767 0.67693 0.29151
 C213 C -0.08801 0.74232 0.12464
 N214 N 0.51630 0.51920 0.24610
 N215 N 0.53537 0.47423 0.33072
 N216 N 0.46110 0.66323 0.14583
 N217 N 0.43584 0.72176 0.13150
 N218 N 0.45593 0.55189 0.18452
 N219 N 0.42720 0.53341 0.19459
 N220 N 0.52249 0.62821 0.20311
 N221 N 0.54655 0.65963 0.25636
 C222 C 0.55395 0.56243 0.33682
 C223 C 0.41498 0.64013 0.16433
 N224 N 0.47885 0.77468 -0.18551
 N225 N 0.45582 0.81299 -0.25569
 N226 N 0.53697 0.76461 -0.02427
 N227 N 0.56215 0.80059 0.01690
 N228 N 0.54021 0.74650 -0.13130
 N229 N 0.56740 0.77254 -0.16652
 N230 N 0.47599 0.80159 -0.08169
 N231 N 0.45146 0.86188 -0.08065
 Mn232 Mn 0.49928 0.71567 0.06166
 C233 C 0.43925 0.86912 -0.18963
 C234 C 0.58078 0.80705 -0.07396
 N235 N 0.45632 0.34275 0.09226
 N236 N 0.42987 0.30814 0.13015
 N237 N 0.52076 0.28851 0.04406
 N238 N 0.54528 0.22803 0.04346
 N239 N 0.51771 0.31522 0.14792
 N240 N 0.54073 0.27679 0.21850
 N241 N 0.46005 0.32278 -0.01359
 N242 N 0.43607 0.27572 -0.05152
 Mn243 Mn 0.48648 0.43173 0.16896
 C244 C 0.41761 0.26611 0.03994
 C245 C 0.55743 0.22076 0.15252
 N246 N 0.53991 0.53730 -0.22346
 N247 N 0.56865 0.55576 -0.23132
 N248 N 0.47383 0.45951 -0.23993
 N249 N 0.44926 0.42647 -0.28788
 N250 N 0.47911 0.56944 -0.28302
 N251 N 0.45857 0.61345 -0.36257
 N252 N 0.53477 0.42602 -0.18468
 N253 N 0.55993 0.36736 -0.16888
 Mn254 Mn 0.50955 0.65760 -0.20728
 Mn255 Mn 0.49727 0.37326 -0.09939
 Cl256 Cl 0.49815 0.54469 -0.01899
 C257 C 0.58073 0.44911 -0.19920
 C258 C 0.44032 0.52316 -0.36532
 C259 C 0.34265 0.20876 0.09000
 C260 C 0.34127 0.22223 -0.03171
 C261 C 0.36992 0.23694 -0.06639
 C262 C 0.38644 0.23337 0.03571
 O263 O 0.37015 0.21536 0.13031
 H264 H 0.32192 0.22242 -0.08891
 H265 H 0.37786 0.25354 -0.15544
 C266 C -0.16293 0.67717 0.18047
 C267 C -0.16409 0.68315 0.05972
 C268 C -0.13562 0.70144 0.02421
 C269 C -0.11935 0.70889 0.12452
 O270 O -0.13566 0.69335 0.21941
 H271 H -0.18316 0.67413 0.00378
 H272 H -0.12774 0.71261 -0.06474
 C273 C 0.62522 0.55840 0.46496
 C274 C 0.61514 0.45322 0.52816
 C275 C 0.58658 0.44532 0.49234
 C276 C 0.58114 0.54515 0.40946
 O277 O 0.60443 0.61406 0.39183
 H278 H 0.62723 0.38586 0.58792
 H279 H 0.57186 0.37264 0.51925
 C280 C 0.13182 1.07423 0.38396
 C281 C 0.12585 0.95926 0.43278
 C282 C 0.09594 0.95028 0.42927
 C283 C 0.08583 1.05928 0.37629
 O284 O 0.10744 1.13535 0.35033
 H285 H 0.14134 0.88974 0.46698
 H286 H 0.08316 0.87160 0.45389
 C287 C 0.65488 0.36299 -0.15180
 C288 C 0.65608 0.45936 -0.09965
 C289 C 0.62814 0.50314 -0.10997
 C290 C 0.61183 0.42992 -0.16453
 O291 O 0.62755 0.34357 -0.18737
 H292 H 0.67501 0.49966 -0.06569
 H293 H 0.62063 0.58065 -0.08335
 C294 C 0.15660 0.72100 -0.12817
 C295 C 0.15269 0.63888 -0.02568
 C296 C 0.12331 0.64497 -0.00179
 C297 C 0.11182 0.73078 -0.09083
 O298 O 0.13183 0.77712 -0.16637
 H299 H 0.16898 0.58083 0.02517
 H300 H 0.11177 0.59404 0.07183
 C301 C 0.36458 0.91300 -0.28058
 C302 C 0.36647 0.99362 -0.20920
 C303 C 0.39516 0.99077 -0.16970
 C304 C 0.40886 0.91017 -0.22075
 O305 O 0.39042 0.86194 -0.28741
 H306 H 0.34881 1.04425 -0.18368
 H307 H 0.40480 1.03853 -0.10768
 C308 C -0.13035 1.18265 -0.25631
 C309 C -0.12103 1.06947 -0.21747
 C310 C -0.09124 1.07445 -0.21272
 C311 C -0.08414 1.18944 -0.24997
 O312 O -0.10786 1.25667 -0.27606
 H313 H -0.13418 0.99147 -0.19713
 H314 H -0.07643 1.00229 -0.18315
 C315 C 0.65751 0.81822 -0.11404
 C316 C 0.65810 0.79142 0.00826
 C317 C 0.62927 0.79487 0.03990
 C318 C 0.61310 0.82106 -0.06476
 O319 O 0.63011 0.83649 -0.15795
 H320 H 0.67709 0.77047 0.06787
 H321 H 0.62087 0.77287 0.12826
 C322 C 0.16309 1.27702 -0.16792
 C323 C 0.15875 1.35679 -0.09726
 C324 C 0.13051 1.33940 -0.05856
 C325 C 0.11955 1.25150 -0.10914
 O326 O 0.13921 1.21283 -0.17432
 H327 H 0.17415 1.41992 -0.07562
 H328 H 0.11906 1.38672 -0.00246
 C329 C 0.36794 0.50293 -0.47385
 C330 C 0.37428 0.61202 -0.53845
 C331 C 0.40283 0.63280 -0.50897
 C332 C 0.41175 0.53485 -0.42887
 O333 O 0.39068 0.45610 -0.40671
 H334 H 0.35943 0.67162 -0.59561
 H335 H 0.41534 0.71121 -0.53926
 C336 C -0.12397 0.88483 -0.43779
 C337 C -0.11036 0.95983 -0.52824
 C338 C -0.08133 0.95921 -0.49523
 C339 C -0.07896 0.88163 -0.38890
 O340 O -0.10484 0.83719 -0.35262
 H341 H -0.12031 1.01345 -0.60639
 H342 H -0.06420 1.01408 -0.54017
 C343 C 0.33884 0.70390 0.13419
 C344 C 0.34006 0.62949 0.05635
 C345 C 0.36907 0.59909 0.05517
 C346 C 0.38352 0.65803 0.13078
 O347 O 0.36543 0.72240 0.17826
 H348 H 0.32188 0.59599 0.01072
 H349 H 0.37848 0.53812 0.00801
 C350 C -0.15074 1.28330 0.19164
 C351 C -0.14363 1.37186 0.09862
 C352 C -0.11546 1.34880 0.07103
 C353 C -0.10746 1.24742 0.14819
 O354 O -0.12876 1.20728 0.22126
 H355 H -0.15707 1.44500 0.05597
 H356 H -0.10231 1.39971 0.00247
 C357 C 0.63150 0.16077 0.25009
 C358 C 0.62886 0.08364 0.17503
 C359 C 0.60044 0.09368 0.13245
 C360 C 0.58750 0.17497 0.18502
 O361 O 0.60626 0.21677 0.25596
 H362 H 0.64585 0.02962 0.14991
 H363 H 0.59049 0.04929 0.06812
 C364 C 0.12128 0.61034 0.38852
 C365 C 0.10847 0.50676 0.44223
 C366 C 0.07893 0.51909 0.41470
 C367 C 0.07576 0.62941 0.34787
 O368 O 0.10134 0.68475 0.33048
 H369 H 0.11931 0.43027 0.49348
 H370 H 0.06179 0.45497 0.43907
   
