data_POSCAR
  _audit_creation_date              2014-09-24
  _audit_creation_method            'ToBaCCo'
  _symmetry_space_group_name_H-M    'P1'
  _symmetry_Int_Tables_number       1
  _symmetry_cell_setting            triclinic
  loop_
  _symmetry_equiv_pos_as_xyz
 x,y,z
_cell_length_a 16.0627
_cell_length_b 16.9797
_cell_length_c 16.8236
_cell_angle_alpha 92.716200
_cell_angle_beta 94.365700
_cell_angle_gamma 86.781000
loop_
  _atom_site_label
  _atom_site_type_symbol
  _atom_site_fract_x
  _atom_site_fract_y
  _atom_site_fract_z
N1 N 0.20093 0.20244 0.24302
 N2 N -0.21802 0.78125 0.21396
 N3 N -0.22765 0.19483 -0.20359
 N4 N 0.20904 0.74222 -0.19983
 N5 N 0.19227 1.22492 0.78105
 N6 N 0.80634 0.80216 0.76479
 N7 N 0.23748 0.80710 1.19063
 N8 N 0.80709 1.23327 1.19870
 O9 O 0.56189 0.87659 0.87871
 O10 O 0.42808 0.99231 1.15332
 O11 O 0.62973 0.91566 1.06004
 O12 O 0.30839 0.96576 0.92509
 O13 O 0.58123 0.98573 1.15550
 O14 O 0.40570 0.88613 0.87993
 O15 O 0.36911 0.93033 1.05422
 O16 O 0.66905 0.94139 0.92488
 C17 C 0.63932 0.88389 0.88493
 C18 C 0.38285 0.93788 1.12674
 C19 C 0.62402 0.92671 1.13279
 C20 C 0.32976 0.90298 0.88897
 O21 O 0.40050 1.03482 0.83077
 O22 O 0.58264 1.12052 1.08041
 O23 O 0.62467 1.08583 0.93491
 O24 O 0.29811 1.06999 1.05953
 O25 O 0.41853 1.12987 1.08057
 O26 O 0.56260 1.02509 0.82945
 O27 O 0.35649 1.10439 0.93530
 O28 O 0.70052 1.04812 1.05749
 Co29 Co 0.48351 0.95915 0.86518
 Co30 Co 0.50196 1.05277 1.10624
 Co31 Co 0.61770 1.00280 1.00064
 Co32 Co 0.37255 1.01836 1.00010
 O33 O 0.49373 0.99829 0.98627
 C34 C 0.35761 1.09300 0.86039
 C35 C 0.66254 1.10843 1.09371
 C36 C 0.61145 1.07701 0.86018
 C37 C 0.34182 1.12542 1.09676
 O38 O 0.11965 0.41465 0.08861
 O39 O 0.00442 0.57330 -0.15013
 O40 O 0.07734 0.36496 -0.06099
 O41 O 0.06704 0.68547 0.08186
 O42 O -0.00085 0.42370 -0.15704
 O43 O 0.12684 0.56516 0.09233
 O44 O 0.08717 0.61713 -0.04894
 O45 O 0.04916 0.30537 0.06506
 C46 C 0.11223 0.34153 0.10112
 C47 C 0.06869 0.60954 -0.12321
 C48 C 0.06305 0.38018 -0.13417
 C49 C 0.12844 0.63892 0.11171
 O50 O -0.01180 0.57867 0.17391
 O51 O -0.15277 0.43789 -0.09557
 O52 O -0.09252 0.37881 0.07437
 O53 O -0.06074 0.67637 -0.05157
 O54 O -0.14623 0.58518 -0.08835
 O55 O -0.01967 0.43564 0.16933
 O56 O -0.08406 0.63338 0.07915
 O57 O -0.07426 0.33435 -0.06405
 Co58 Co 0.04873 0.49846 0.12086
 Co59 Co -0.06993 0.50461 -0.11276
 Co60 Co -0.00554 0.38206 0.01136
 Co61 Co 0.00342 0.61689 0.02022
 O62 O -0.01662 0.50108 0.00463
 C63 C -0.07209 0.62411 0.15108
 C64 C -0.14156 0.36432 -0.09465
 C65 C -0.08021 0.39509 0.14675
 C66 C -0.12850 0.65623 -0.08697
 O67 O 1.18178 0.01585 0.43471
 O68 O 0.92028 0.10663 0.58095
 O69 O 0.93627 0.05320 0.30995
 O70 O 1.06624 0.07275 0.63792
 O71 O 0.92035 0.11639 0.42819
 O72 O 1.18056 0.01570 0.59121
 O73 O 0.93770 0.03456 0.68895
 O74 O 1.06942 0.07841 0.38002
 C75 C 1.14802 0.06902 0.39028
 C76 C 0.90384 0.09690 0.65321
 C77 C 0.91000 0.11616 0.35145
 C78 C 1.14460 0.06818 0.63612
 O79 O 1.13263 -0.13447 0.57175
 O80 O 0.83812 -0.01917 0.41231
 O81 O 1.07522 -0.06228 0.32804
 O82 O 0.94342 -0.10007 0.60825
 O83 O 0.84121 -0.02888 0.55939
 O84 O 1.13300 -0.13208 0.42511
 O85 O 1.08116 -0.07028 0.67219
 O86 O 0.93681 -0.08953 0.36577
 Co87 Co 1.14573 -0.05520 0.50544
 Co88 Co 0.89189 0.03851 0.49530
 Co89 Co 0.99841 -0.00353 0.38234
 Co90 Co 1.00079 -0.01215 0.61479
 O91 O 1.01709 -0.01841 0.49872
 C92 C 1.12743 -0.12547 0.64508
 C93 C 0.86110 -0.07765 0.37011
 C94 C 1.11828 -0.12176 0.35191
 C95 C 0.86720 -0.08730 0.59920
 N96 N 1.16277 0.16811 0.30375
 N97 N 1.19825 0.11252 0.34378
 N98 N 0.83001 -0.17997 0.27622
 N99 N 0.80309 -0.12031 0.31745
 N100 N 0.80735 0.13903 0.74312
 N101 N 0.86166 0.15766 0.69748
 N102 N 1.15388 -0.21987 0.74336
 N103 N 1.18142 -0.17212 0.69714
 N104 N 0.25712 1.15426 1.19983
 N105 N 0.30218 1.18107 1.14940
 N106 N 0.27847 0.78252 0.83221
 N107 N 0.26587 0.85344 0.85753
 N108 N 0.72117 0.82317 1.16530
 N109 N 0.67557 0.88160 1.18959
 N110 N 0.70841 1.17049 0.84008
 N111 N 0.66088 1.11746 0.81047
 N112 N 0.14980 0.25888 0.20223
 N113 N 0.17453 0.29801 0.14710
 N114 N -0.17559 0.25291 -0.17011
 N115 N -0.20250 0.31408 -0.13173
 N116 N 0.17644 0.68839 -0.15170
 N117 N 0.11238 0.65141 -0.17663
 N118 N -0.17939 0.71624 0.17441
 N119 N -0.11704 0.67531 0.20468
 N120 N 1.15758 0.18195 0.71979
 N121 N 1.19223 0.11909 0.68960
 N122 N 0.84856 -0.17048 0.70214
 N123 N 0.81457 -0.12343 0.65073
 N124 N 1.20382 -0.14908 0.24877
 N125 N 1.15438 -0.17567 0.29525
 N126 N 0.83574 0.17727 0.24833
 N127 N 0.88326 0.18671 0.31129
 N128 N 0.15677 0.29265 -0.20172
 N129 N 0.12302 0.35898 -0.19127
 N130 N -0.16130 0.30161 0.20050
 N131 N -0.13142 0.36736 0.20491
 N132 N -0.15038 0.74308 -0.18995
 N133 N -0.18037 0.71188 -0.13176
 N134 N 0.21579 0.73619 0.17315
 N135 N 0.20033 0.66658 0.15811
 N136 N 0.25634 1.19693 0.82880
 N137 N 0.30059 1.13611 0.80783
 N138 N 0.29537 0.83678 1.15017
 N139 N 0.33374 0.89738 1.17703
 N140 N 0.74906 1.21289 1.14213
 N141 N 0.70910 1.15210 1.15330
 N142 N 0.74485 0.85267 0.79888
 N143 N 0.69359 0.82826 0.84512
   
