data_POSCAR
  _audit_creation_date              2014-09-24
  _audit_creation_method            'ToBaCCo'
  _symmetry_space_group_name_H-M    'P1'
  _symmetry_Int_Tables_number       1
  _symmetry_cell_setting            triclinic
  loop_
  _symmetry_equiv_pos_as_xyz
 x,y,z
_cell_length_a 42.6462
_cell_length_b 42.2070
_cell_length_c 43.0133
_cell_angle_alpha 90.888300
_cell_angle_beta 90.403600
_cell_angle_gamma 90.267800
loop_
  _atom_site_label
  _atom_site_type_symbol
  _atom_site_fract_x
  _atom_site_fract_y
  _atom_site_fract_z
C1 C 0.72071 0.66435 0.95882
 H2 H 0.74011 0.65711 0.94434
 C3 C 0.69451 0.67861 0.94532
 H4 H 0.69404 0.68234 0.92047
 C5 C 0.69640 0.66539 1.00819
 H6 H 0.69673 0.65914 1.03245
 C7 C 0.66971 0.67944 0.99564
 H8 H 0.64989 0.68438 1.01053
 N9 N 0.72072 0.65706 0.98953
 C10 C 0.80210 0.62364 1.04130
 H11 H 0.79422 0.59932 1.04272
 C12 C 0.83073 0.63247 1.05445
 H13 H 0.84443 0.61491 1.06656
 C14 C 0.79401 0.67565 1.02286
 H15 H 0.77980 0.69204 1.00986
 C16 C 0.82278 0.68559 1.03584
 H17 H 0.83063 0.70977 1.03283
 Zn18 Zn 0.74944 0.62675 1.00460
 N19 N 0.78468 0.64491 1.02533
 C20 C 0.79596 0.60081 0.96571
 N21 N 0.76446 0.60200 0.97044
 C22 C 0.74413 0.58732 0.95030
 C23 C 0.75538 0.56979 0.92488
 C24 C 0.80815 0.58364 0.94073
 C25 C 0.72911 0.61158 1.06385
 C26 C 0.71343 0.59520 1.08694
 C27 C 0.69471 0.55808 1.04776
 C28 C 0.71123 0.57507 1.02547
 N29 N 0.72803 0.60130 1.03381
 H30 H 0.81191 0.61353 0.98097
 H31 H 0.71914 0.58961 0.95364
 H32 H 0.73889 0.55791 0.90934
 H33 H 0.83329 0.58342 0.93735
 H34 H 0.74172 0.63312 1.06989
 H35 H 0.71410 0.60568 1.11000
 H36 H 0.68281 0.53676 1.03986
 H37 H 0.71057 0.56712 1.00153
 C38 C 0.84184 0.66353 1.05115
 C39 C 0.66804 0.68501 0.96359
 C40 C 0.69553 0.56772 1.07949
 C41 C 0.78785 0.56763 0.92002
 C42 C 0.72220 0.35342 0.52530
 H43 H 0.74486 0.35491 0.53670
 C44 C 0.69675 0.33981 0.54068
 H45 H 0.70008 0.33075 0.56388
 C46 C 0.68957 0.36621 0.48253
 H47 H 0.68641 0.37733 0.46035
 C48 C 0.66369 0.35278 0.49693
 H49 H 0.64110 0.35325 0.48527
 N50 N 0.71795 0.36711 0.49716
 C51 C 0.80187 0.39000 0.44494
 H52 H 0.79696 0.41494 0.44231
 C53 C 0.82853 0.37702 0.43150
 H54 H 0.84374 0.39209 0.41806
 C55 C 0.78781 0.34034 0.46592
 H56 H 0.77198 0.32641 0.47978
 C57 C 0.81450 0.32630 0.45287
 H58 H 0.81917 0.30150 0.45688
 Zn59 Zn 0.74951 0.39418 0.48156
 N60 N 0.78243 0.37180 0.46214
 C61 C 0.79756 0.41617 0.52189
 N62 N 0.76630 0.41802 0.51558
 C63 C 0.74680 0.43480 0.53450
 C64 C 0.75872 0.45110 0.56058
 C65 C 0.81035 0.43172 0.54786
 C66 C 0.72553 0.40730 0.42297
 C67 C 0.70922 0.42384 0.40028
 C68 C 0.70597 0.46855 0.43584
 C69 C 0.72252 0.45113 0.45789
 N70 N 0.73120 0.42078 0.45138
 H71 H 0.81265 0.40217 0.50712
 H72 H 0.72189 0.43509 0.52960
 H73 H 0.74292 0.46417 0.57558
 H74 H 0.83527 0.42997 0.55250
 H75 H 0.73289 0.38320 0.41831
 H76 H 0.70470 0.41247 0.37795
 H77 H 0.69816 0.49221 0.44185
 H78 H 0.72755 0.46164 0.48040
 C79 C 0.83558 0.34496 0.43593
 C80 C 0.66680 0.34049 0.52689
 C81 C 0.69856 0.45463 0.40681
 C82 C 0.79086 0.44942 0.56759
 C83 C 0.23061 -0.14985 0.03810
 H84 H 0.25348 -0.14564 0.04845
 C85 C 0.20775 -0.16644 0.05456
 H86 H 0.21332 -0.17540 0.07738
 C87 C 0.19475 -0.14144 -0.00322
 H88 H 0.18907 -0.13070 -0.02508
 C89 C 0.17147 -0.15821 0.01214
 H90 H 0.14834 -0.16009 0.00170
 N91 N 0.22355 -0.13711 0.01004
 C92 C 0.30292 -0.10660 -0.04569
 H93 H 0.29606 -0.08203 -0.04732
 C94 C 0.32974 -0.11713 -0.06080
 H95 H 0.34308 -0.10056 -0.07447
 C96 C 0.29350 -0.15780 -0.02579
 H97 H 0.27938 -0.17332 -0.01176
 C98 C 0.32044 -0.16940 -0.04054
 H99 H 0.32702 -0.19393 -0.03761
 Zn100 Zn 0.25186 -0.10736 -0.00725
 N101 N 0.28568 -0.12673 -0.02827
 C102 C 0.29959 -0.08308 0.03201
 N103 N 0.26824 -0.08209 0.02600
 C104 C 0.24851 -0.06556 0.04489
 C105 C 0.26027 -0.04881 0.07080
 C106 C 0.31222 -0.06711 0.05783
 C107 C 0.22214 -0.09776 -0.06376
 C108 C 0.20441 -0.08252 -0.08627
 C109 C 0.20561 -0.03516 -0.05411
 C110 C 0.22309 -0.05162 -0.03202
 N111 N 0.23026 -0.08261 -0.03685
 H112 H 0.31488 -0.09691 0.01729
 H113 H 0.22357 -0.06587 0.04013
 H114 H 0.24431 -0.03602 0.08584
 H115 H 0.33720 -0.06834 0.06234
 H116 H 0.22911 -0.12214 -0.06751
 H117 H 0.19957 -0.09574 -0.10748
 H118 H 0.19914 -0.01115 -0.04809
 H119 H 0.23033 -0.03970 -0.01075
 C120 C 0.33924 -0.14874 -0.05789
 C121 C 0.17752 -0.17020 0.04178
 C122 C 0.19499 -0.05063 -0.08179
 C123 C 0.29248 -0.04984 0.07765
 C124 C 0.21790 0.16208 0.46803
 H125 H 0.23879 0.15685 0.45482
 C126 C 0.19148 0.17416 0.45295
 H127 H 0.19230 0.17832 0.42819
 C128 C 0.19033 0.15996 0.51559
 H129 H 0.18944 0.15348 0.53970
 C130 C 0.16344 0.17187 0.50145
 H131 H 0.14234 0.17482 0.51504
 N132 N 0.21651 0.15418 0.49856
 C133 C 0.29966 0.12830 0.55141
 H134 H 0.29308 0.10376 0.55438
 C135 C 0.32783 0.13949 0.56380
 H136 H 0.34258 0.12355 0.57683
 C137 C 0.28873 0.17845 0.52978
 H138 H 0.27363 0.19313 0.51579
 C139 C 0.31695 0.19075 0.54193
 H140 H 0.32353 0.21503 0.53731
 Zn141 Zn 0.24720 0.12633 0.51456
 N142 N 0.28112 0.14751 0.53423
 C143 C 0.29449 0.10346 0.47479
 N144 N 0.26325 0.10187 0.48085
 C145 C 0.24342 0.08489 0.46199
 C146 C 0.25499 0.06812 0.43627
 C147 C 0.30695 0.08738 0.44923
 C148 C 0.22324 0.11389 0.57310
 C149 C 0.20767 0.09732 0.59616
 C150 C 0.20368 0.05229 0.56099
 C151 C 0.21939 0.06978 0.53853
 N152 N 0.22818 0.10027 0.54471
 H153 H 0.30990 0.11762 0.48943
 H154 H 0.21853 0.08480 0.46666
 H155 H 0.23894 0.05487 0.42134
 H156 H 0.33190 0.08885 0.44491
 H157 H 0.23098 0.13798 0.57763
 H158 H 0.20385 0.10873 0.61852
 H159 H 0.19598 0.02839 0.55535
 H160 H 0.22400 0.05907 0.51611
 C161 C 0.33723 0.17079 0.55843
 C162 C 0.16342 0.17781 0.46948
 C163 C 0.19721 0.06626 0.59009
 C164 C 0.28714 0.06947 0.42959
 C165 C 0.16386 0.43842 0.22163
 H166 H 0.15552 0.42563 0.24155
 C167 C 0.17695 0.42174 0.19662
 H168 H 0.17910 0.39625 0.19786
 C169 C 0.16983 0.48687 0.19526
 H170 H 0.16608 0.51208 0.19423
 C171 C 0.18290 0.47115 0.16971
 H172 H 0.18883 0.48469 0.14939
 N173 N 0.15951 0.47027 0.22007
 C174 C 0.13254 0.53176 0.29767
 H175 H 0.10816 0.53388 0.29094
 C176 C 0.14367 0.54794 0.32392
 H177 H 0.12753 0.56232 0.33732
 C178 C 0.18240 0.50874 0.28909
 H179 H 0.19712 0.49304 0.27553
 C180 C 0.19457 0.52449 0.31552
 H181 H 0.21888 0.52111 0.32202
 Zn182 Zn 0.13135 0.48993 0.24833
 N183 N 0.15174 0.51240 0.28105
 C184 C 0.10662 0.45427 0.29736
 N185 N 0.10574 0.45802 0.26599
 C186 C 0.08846 0.43817 0.24734
 C187 C 0.07058 0.41389 0.26024
 C188 C 0.08944 0.43017 0.31113
 C189 C 0.12116 0.54806 0.22076
 C190 C 0.10552 0.57151 0.20441
 C191 C 0.06039 0.53690 0.20030
 C192 C 0.07689 0.51411 0.21697
 N193 N 0.10693 0.51985 0.22639
 H194 H 0.12101 0.46963 0.31185
 H195 H 0.08896 0.44086 0.22238
 H196 H 0.05706 0.39817 0.24514
 H197 H 0.09033 0.42770 0.33615
 H198 H 0.14481 0.55238 0.22909
 H199 H 0.11729 0.59388 0.20058
 H200 H 0.03677 0.53160 0.19237
 H201 H 0.06565 0.49188 0.22209
 C202 C 0.17496 0.54425 0.33341
 C203 C 0.18545 0.43797 0.16963
 C204 C 0.07481 0.56600 0.19365
 C205 C 0.07114 0.40964 0.29253
 C206 C -0.15888 0.01514 0.21707
 H207 H -0.17410 0.00874 0.23599
 C208 C -0.17143 0.02958 0.19056
 H209 H -0.19646 0.03343 0.18973
 C210 C -0.10835 0.01551 0.19490
 H211 H -0.08395 0.00894 0.19597
 C212 C -0.11966 0.02993 0.16834
 H213 H -0.10265 0.03607 0.15092
 N214 N -0.12777 0.00840 0.21868
 C215 C -0.13930 -0.06615 0.27769
 H216 H -0.12641 -0.07963 0.26055
 C217 C -0.15542 -0.08212 0.30084
 H218 H -0.15533 -0.10775 0.30033
 C219 C -0.15520 -0.01665 0.29855
 H220 H -0.15440 0.00895 0.29790
 C221 C -0.17061 -0.03166 0.32294
 H222 H -0.18119 -0.01707 0.34085
 Zn223 Zn -0.10838 -0.01393 0.25168
 N224 N -0.13827 -0.03395 0.27772
 C225 C -0.08516 0.01667 0.30715
 N226 N -0.08251 0.01466 0.27563
 C227 C -0.06256 0.03417 0.26036
 C228 C -0.04647 0.05831 0.27630
 C229 C -0.06959 0.04063 0.32404
 C230 C -0.09465 -0.05927 0.20628
 C231 C -0.07735 -0.08220 0.19051
 C232 C -0.03740 -0.07779 0.23047
 C233 C -0.05525 -0.05427 0.24517
 N234 N -0.08331 -0.04557 0.23287
 H235 H -0.09979 0.00017 0.31935
 H236 H -0.05954 0.03171 0.23564
 H237 H -0.03124 0.07391 0.26347
 H238 H -0.07330 0.04273 0.34886
 H239 H -0.11717 -0.05213 0.19711
 H240 H -0.08659 -0.09178 0.16883
 H241 H -0.01551 -0.08495 0.24106
 H242 H -0.04690 -0.04317 0.26652
 C243 C -0.16971 -0.06493 0.32516
 C244 C -0.15185 0.03684 0.16515
 C245 C -0.04838 -0.09211 0.20264
 C246 C -0.05068 0.06246 0.30842
 C247 C 0.35674 0.54742 0.72609
 H248 H 0.36660 0.56304 0.74378
 C249 C 0.34233 0.56028 0.69989
 H250 H 0.34107 0.58577 0.69767
 C251 C 0.34866 0.49535 0.70604
 H252 H 0.35219 0.47011 0.70819
 C253 C 0.33469 0.50722 0.67921
 H254 H 0.32710 0.49099 0.66088
 N255 N 0.36023 0.51550 0.72832
 C256 C 0.38507 0.46440 0.81216
 H257 H 0.41014 0.46817 0.81109
 C258 C 0.37243 0.44670 0.83607
 H259 H 0.38787 0.43698 0.85358
 C260 C 0.33451 0.47255 0.79045
 H261 H 0.32001 0.48263 0.77243
 C262 C 0.32073 0.45542 0.81451
 H263 H 0.29553 0.45222 0.81500
 Zn264 Zn 0.38769 0.49822 0.75819
 N265 N 0.36621 0.47632 0.78963
 C266 C 0.39586 0.54746 0.80117
 N267 N 0.41100 0.53110 0.77837
 C268 C 0.44129 0.53786 0.77124
 C269 C 0.45717 0.56257 0.78666
 C270 C 0.41109 0.57180 0.81771
 C271 C 0.41194 0.43785 0.74333
 C272 C 0.42933 0.41553 0.72675
 C273 C 0.45061 0.45773 0.69596
 C274 C 0.43232 0.47927 0.71287
 N275 N 0.41400 0.46916 0.73655
 H276 H 0.37189 0.54138 0.80669
 H277 H 0.45322 0.52440 0.75347
 H278 H 0.48085 0.56815 0.77965
 H279 H 0.39862 0.58378 0.83624
 H280 H 0.39606 0.42982 0.76097
 H281 H 0.42644 0.39074 0.73217
 H282 H 0.46556 0.46647 0.67775
 H283 H 0.43248 0.50405 0.70684
 C284 C 0.33996 0.44186 0.83731
 C285 C 0.33219 0.54009 0.67559
 C286 C 0.44929 0.42528 0.70284
 C287 C 0.44214 0.58001 0.81036
 C288 C 0.66328 0.95332 0.71804
 H289 H 0.65619 0.94152 0.73901
 C290 C 0.67601 0.93564 0.69346
 H291 H 0.67919 0.91038 0.69605
 C292 C 0.66623 1.00018 0.68863
 H293 H 0.66143 1.02507 0.68624
 C294 C 0.67899 0.98345 0.66354
 H295 H 0.68366 0.99592 0.64225
 N296 N 0.65777 0.98485 0.71489
 C297 C 0.63587 1.05004 0.79078
 H298 H 0.61293 1.05627 0.78201
 C299 C 0.64707 1.06455 0.81791
 H300 H 0.63181 1.08144 0.82924
 C301 C 0.68069 1.01737 0.78775
 H302 H 0.69325 0.99846 0.77611
 C303 C 0.69278 1.03110 0.81524
 H304 H 0.71536 1.02310 0.82347
 Zn305 Zn 0.63076 1.00542 0.74375
 N306 N 0.65253 1.02685 0.77636
 C307 C 0.60558 0.97136 0.79348
 N308 N 0.60462 0.97430 0.76202
 C309 C 0.58703 0.95420 0.74392
 C310 C 0.56936 0.93011 0.75749
 C311 C 0.58866 0.94747 0.80789
 C312 C 0.62169 1.06380 0.71586
 C313 C 0.60584 1.08810 0.70095
 C314 C 0.55924 1.05536 0.69982
 C315 C 0.57597 1.03171 0.71506
 N316 N 0.60674 1.03620 0.72248
 H317 H 0.61988 0.98718 0.80758
 H318 H 0.58718 0.95651 0.71891
 H319 H 0.55574 0.91404 0.74283
 H320 H 0.58981 0.94551 0.83295
 H321 H 0.64598 1.06709 0.72260
 H322 H 0.61815 1.11004 0.69656
 H323 H 0.53494 1.05107 0.69358
 H324 H 0.56430 1.00987 0.72086
 C325 C 0.67574 1.05492 0.83127
 C326 C 0.68303 0.95051 0.66531
 C327 C 0.57418 1.08407 0.69258
 C328 C 0.57041 0.92638 0.78986
 C329 C 0.03207 0.22782 -0.15407
 H330 H 0.04608 0.24897 -0.15021
 C331 C 0.04575 0.20073 -0.16721
 H332 H 0.07029 0.20126 -0.17350
 C333 C -0.01611 0.20047 -0.14796
 H334 H -0.03996 0.20022 -0.13960
 C335 C -0.00336 0.17290 -0.16076
 H336 H -0.01769 0.15168 -0.16254
 N337 N 0.00196 0.22686 -0.14389
 C338 C -0.04973 0.31288 -0.12053
 H339 H -0.04907 0.31096 -0.09548
 C340 C -0.06677 0.33709 -0.13415
 H341 H -0.07895 0.35397 -0.11942
 C342 C -0.03444 0.29316 -0.17003
 H343 H -0.02189 0.27577 -0.18378
 C344 C -0.05088 0.31752 -0.18471
 H345 H -0.05100 0.31883 -0.20983
 Zn346 Zn -0.01324 0.25881 -0.11671
 N347 N -0.03425 0.29134 -0.13846
 C348 C 0.02572 0.30845 -0.09237
 N349 N 0.02126 0.27649 -0.09385
 C350 C 0.04209 0.25652 -0.08036
 C351 C 0.06803 0.26845 -0.06394
 C352 C 0.05138 0.32140 -0.07624
 C353 C -0.07345 0.24366 -0.09399
 C354 C -0.09551 0.22752 -0.07635
 C355 C -0.05312 0.20143 -0.04983
 C356 C -0.03194 0.21833 -0.06790
 N357 N -0.04227 0.23905 -0.08948
 H358 H 0.00969 0.32408 -0.10401
 H359 H 0.03907 0.23120 -0.08295
 H360 H 0.08402 0.25206 -0.05308
 H361 H 0.05466 0.34685 -0.07576
 H362 H -0.08151 0.25886 -0.11232
 H363 H -0.11981 0.23108 -0.08251
 H364 H -0.04324 0.18631 -0.03231
 H365 H -0.00718 0.21443 -0.06480
 C366 C -0.06760 0.33958 -0.16660
 C367 C 0.02827 0.17249 -0.16950
 C368 C -0.08589 0.20541 -0.05377
 C369 C 0.07295 0.30133 -0.06169
 C370 C 0.45484 0.22282 0.15977
 H371 H 0.44538 0.24604 0.15523
 C372 C 0.43643 0.20020 0.17469
 H373 H 0.41298 0.20634 0.18207
 C374 C 0.49605 0.18581 0.15377
 H375 H 0.51875 0.17977 0.14458
 C376 C 0.47866 0.16269 0.16887
 H377 H 0.48835 0.13915 0.17105
 N378 N 0.48376 0.21503 0.14898
 C379 C 0.54517 0.29301 0.12352
 H380 H 0.54922 0.28512 0.09985
 C381 C 0.55978 0.32044 0.13477
 H382 H 0.57493 0.33352 0.11942
 C383 C 0.51869 0.28634 0.17127
 H384 H 0.50224 0.27312 0.18509
 C385 C 0.53284 0.31391 0.18352
 H386 H 0.52749 0.32155 0.20702
 Zn387 Zn 0.50398 0.24272 0.12112
 N388 N 0.52478 0.27682 0.14158
 C389 C 0.46986 0.29165 0.09298
 N390 N 0.47294 0.25964 0.09436
 C391 C 0.45294 0.23992 0.07854
 C392 C 0.42893 0.25233 0.06010
 C393 C 0.44628 0.30501 0.07494
 C394 C 0.56184 0.21352 0.11362
 C395 C 0.58598 0.19748 0.09851
 C396 C 0.55384 0.19491 0.05204
 C397 C 0.53035 0.21131 0.06800
 N398 N 0.53466 0.22002 0.09833
 H399 H 0.48527 0.30705 0.10633
 H400 H 0.45543 0.21453 0.08053
 H401 H 0.41338 0.23630 0.04749
 H402 H 0.44394 0.33054 0.07480
 H403 H 0.56474 0.22092 0.13767
 H404 H 0.60737 0.19236 0.11115
 H405 H 0.55020 0.18831 0.02785
 H406 H 0.50884 0.21713 0.05607
 C407 C 0.55346 0.33152 0.16500
 C408 C 0.44808 0.16944 0.17873
 C409 C 0.58212 0.18795 0.06733
 C410 C 0.42539 0.28534 0.05818
 C411 C 0.95144 0.72335 0.65325
 H412 H 0.94185 0.74662 0.64922
 C413 C 0.93308 0.70018 0.66743
 H414 H 0.90950 0.70593 0.67471
 C415 C 0.99309 0.68690 0.64692
 H416 H 1.01601 0.68133 0.63798
 C417 C 0.97575 0.66325 0.66127
 H418 H 0.98566 0.63977 0.66309
 N419 N 0.98060 0.71613 0.64270
 C420 C 1.04256 0.79513 0.62207
 H421 H 1.04666 0.78891 0.59795
 C422 C 1.05765 0.82135 0.63536
 H423 H 1.07315 0.83530 0.62111
 C424 C 1.01587 0.78521 0.66912
 H425 H 0.99929 0.77111 0.68193
 C426 C 1.03047 0.81151 0.68340
 H427 H 1.02525 0.81737 0.70740
 Zn428 Zn 1.00136 0.74497 0.61636
 N429 N 1.02189 0.77790 0.63884
 C430 C 0.96808 0.79532 0.58931
 N431 N 0.97085 0.76322 0.58978
 C432 C 0.95067 0.74418 0.57337
 C433 C 0.92665 0.75738 0.55550
 C434 C 0.94454 0.80946 0.57176
 C435 C 1.05947 0.71621 0.60882
 C436 C 1.08357 0.69994 0.59387
 C437 C 1.05195 0.69822 0.54706
 C438 C 1.02846 0.71475 0.56291
 N439 N 1.03248 0.72305 0.59336
 H440 H 0.98367 0.81016 0.60308
 H441 H 0.95292 0.71871 0.57461
 H442 H 0.91084 0.74188 0.54256
 H443 H 0.94242 0.83501 0.57234
 H444 H 1.06221 0.72340 0.63294
 H445 H 1.10497 0.69517 0.60661
 H446 H 1.04801 0.69119 0.52303
 H447 H 1.00700 0.72066 0.55091
 C448 C 1.05152 0.83009 0.66633
 C449 C 0.94501 0.66946 0.67097
 C450 C 1.07995 0.69048 0.56260
 C451 C 0.92332 0.79048 0.55465
 C452 C 0.53236 0.73343 0.34755
 H453 H 0.54408 0.75559 0.35317
 C454 C 0.54846 0.70956 0.33146
 H455 H 0.57242 0.71375 0.32437
 C456 C 0.48754 0.70041 0.35140
 H457 H 0.46420 0.69639 0.35997
 C458 C 0.50266 0.67604 0.33530
 H459 H 0.49064 0.65358 0.33198
 N460 N 0.50275 0.72815 0.35791
 C461 C 0.44023 0.80420 0.38474
 H462 H 0.43603 0.79677 0.40831
 C463 C 0.42307 0.82915 0.37254
 H464 H 0.40640 0.84075 0.38768
 C465 C 0.46915 0.79896 0.33823
 H466 H 0.48721 0.78698 0.32507
 C467 C 0.45289 0.82433 0.32519
 H468 H 0.45837 0.83076 0.30160
 Zn469 Zn 0.48522 0.75695 0.38725
 N470 N 0.46262 0.78956 0.36756
 C471 C 0.52155 0.80727 0.41289
 N472 N 0.51848 0.77520 0.41103
 C473 C 0.54001 0.75587 0.42431
 C474 C 0.56582 0.76866 0.44035
 C475 C 0.54708 0.82107 0.42855
 C476 C 0.42853 0.72696 0.40070
 C477 C 0.40721 0.70885 0.41732
 C478 C 0.44462 0.70688 0.45964
 C479 C 0.46524 0.72523 0.44220
 N480 N 0.45712 0.73437 0.41304
 H481 H 0.50449 0.82225 0.40175
 H482 H 0.53734 0.73043 0.42205
 H483 H 0.58249 0.75281 0.45098
 H484 H 0.54942 0.84662 0.42905
 H485 H 0.42245 0.73482 0.37761
 H486 H 0.38457 0.70338 0.40698
 H487 H 0.45187 0.69905 0.48242
 H488 H 0.48787 0.73160 0.45184
 C489 C 0.42923 0.84004 0.34230
 C490 C 0.53388 0.68006 0.32596
 C491 C 0.41530 0.69811 0.44704
 C492 C 0.56977 0.80172 0.44245
 C493 C 0.34702 -0.00137 0.21472
 C494 C 0.36050 0.01404 0.24067
 C495 C 0.37449 0.04396 0.23729
 C496 C 0.37504 0.05857 0.20817
 C497 C 0.36061 0.04321 0.18256
 C498 C 0.34665 0.01324 0.18564
 C499 C 0.35890 -0.00060 0.27159
 C500 C 0.37055 -0.03125 0.27636
 C501 C 0.36870 -0.04514 0.30583
 C502 C 0.35433 -0.02816 0.33021
 C503 C 0.34233 0.00230 0.32561
 C504 C 0.34507 0.01609 0.29632
 H505 H 0.33594 -0.02433 0.21740
 H506 H 0.38506 0.05576 0.25734
 H507 H 0.38116 -0.04412 0.25718
 H508 H 0.33565 0.03953 0.29248
 H509 H 0.36133 0.05398 0.15986
 H510 H 0.35339 -0.03817 0.35323
 C511 C 0.12466 1.01392 0.71410
 C512 C 0.11017 0.99747 0.73815
 C513 C 0.09923 0.96642 0.73279
 C514 C 0.10285 0.95173 0.70355
 C515 C 0.11784 0.96836 0.67977
 C516 C 0.12896 0.99938 0.68488
 C517 C 0.10857 1.01194 0.76952
 C518 C 0.09361 1.04109 0.77445
 C519 C 0.09234 1.05466 0.80443
 C520 C 0.10709 1.03923 0.82929
 C521 C 0.12289 1.01045 0.82446
 C522 C 0.12313 0.99684 0.79447
 H523 H 0.13383 1.03755 0.71864
 H524 H 0.08829 0.95361 0.75151
 H525 H 0.08229 1.05273 0.75512
 H526 H 0.13567 0.97496 0.79013
 H527 H 0.12033 0.95734 0.65701
 H528 H 0.10632 1.04975 0.85241
 C529 C 0.62309 0.51929 0.20292
 C530 C 0.60892 0.50349 0.22755
 C531 C 0.59812 0.47229 0.22310
 C532 C 0.60175 0.45673 0.19428
 C533 C 0.61675 0.47263 0.16998
 C534 C 0.62776 0.50386 0.17416
 C535 C 0.60850 0.51861 0.25872
 C536 C 0.59570 0.54889 0.26328
 C537 C 0.59751 0.56405 0.29259
 C538 C 0.61292 0.54872 0.31715
 C539 C 0.62595 0.51853 0.31275
 C540 C 0.62329 0.50352 0.28354
 H541 H 0.63143 0.54335 0.20660
 H542 H 0.58752 0.45993 0.24230
 H543 H 0.58459 0.56068 0.24393
 H544 H 0.63404 0.48058 0.27966
 H545 H 0.62023 0.46046 0.14793
 H546 H 0.61415 0.55993 0.33996
 C547 C 0.84550 0.49718 0.70470
 C548 C 0.85882 0.51239 0.73082
 C549 C 0.87253 0.54249 0.72780
 C550 C 0.87296 0.55747 0.69885
 C551 C 0.85872 0.54226 0.67306
 C552 C 0.84503 0.51212 0.67578
 C553 C 0.85758 0.49719 0.76148
 C554 C 0.86979 0.46665 0.76563
 C555 C 0.86849 0.45229 0.79486
 C556 C 0.85437 0.46872 0.81972
 C557 C 0.84194 0.49915 0.81586
 C558 C 0.84382 0.51329 0.78663
 H559 H 0.83464 0.47408 0.70712
 H560 H 0.88301 0.55413 0.74799
 H561 H 0.88043 0.45426 0.74617
 H562 H 0.83466 0.53693 0.78339
 H563 H 0.85937 0.55330 0.65049
 H564 H 0.85335 0.45791 0.84236
 C565 C 0.21129 0.35252 -0.01103
 C566 C 0.23807 0.36350 0.00489
 C567 C 0.23532 0.37553 0.03534
 C568 C 0.20596 0.37698 0.04990
 C569 C 0.17934 0.36550 0.03370
 C570 C 0.18182 0.35297 0.00333
 C571 C 0.26909 0.36174 -0.01010
 C572 C 0.27383 0.37496 -0.03947
 C573 C 0.30347 0.37377 -0.05353
 C574 C 0.32815 0.35847 -0.03799
 C575 C 0.32361 0.34472 -0.00882
 C576 C 0.29401 0.34675 0.00506
 H577 H 0.21355 0.34333 -0.03456
 H578 H 0.25613 0.38378 0.04764
 H579 H 0.25446 0.38640 -0.05116
 H580 H 0.29028 0.33674 0.02779
 H581 H 0.15662 0.36628 0.04474
 H582 H 0.35114 0.35749 -0.04846
 C583 C 0.71283 0.12156 1.01652
 C584 C 0.73817 0.10948 0.99963
 C585 C 0.73357 0.09884 0.96886
 C586 C 0.70387 0.10057 0.95477
 C587 C 0.67878 0.11340 0.97178
 C588 C 0.68307 0.12425 1.00261
 C589 C 0.77004 0.11106 1.01309
 C590 C 0.77715 0.09637 1.04131
 C591 C 0.80767 0.09816 1.05371
 C592 C 0.83062 0.11595 1.03830
 C593 C 0.82353 0.13145 1.01051
 C594 C 0.79326 0.12837 0.99782
 H595 H 0.71666 0.12984 1.04022
 H596 H 0.75333 0.08997 0.95568
 H597 H 0.75927 0.08276 1.05301
 H598 H 0.78755 0.13972 0.97609
 H599 H 0.65599 0.11548 0.96075
 H600 H 0.85389 0.11820 1.04840
 C601 C 0.21059 0.62210 0.51565
 C602 C 0.23625 0.60868 0.50017
 C603 C 0.23244 0.59686 0.46967
 C604 C 0.20331 0.59871 0.45444
 C605 C 0.17797 0.61280 0.47004
 C606 C 0.18142 0.62466 0.50056
 C607 C 0.26766 0.60924 0.51489
 C608 C 0.27266 0.59646 0.54445
 C609 C 0.30281 0.59680 0.55780
 C610 C 0.32769 0.61119 0.54198
 C611 C 0.32273 0.62482 0.51280
 C612 C 0.29274 0.62328 0.49926
 H613 H 0.21378 0.63194 0.53889
 H614 H 0.25233 0.58671 0.45762
 H615 H 0.25339 0.58539 0.55656
 H616 H 0.28857 0.63405 0.47690
 H617 H 0.15531 0.61406 0.45858
 H618 H 0.35090 0.61173 0.55240
 C619 C 0.70848 0.85723 0.48829
 C620 C 0.73532 0.86945 0.50326
 C621 C 0.73283 0.88278 0.53325
 C622 C 0.70372 0.88416 0.54831
 C623 C 0.67711 0.87135 0.53312
 C624 C 0.67925 0.85766 0.50319
 C625 C 0.76622 0.86743 0.48794
 C626 C 0.77046 0.87899 0.45778
 C627 C 0.80003 0.87755 0.44346
 C628 C 0.82514 0.86372 0.45976
 C629 C 0.82097 0.85117 0.48950
 C630 C 0.79149 0.85352 0.50356
 H631 H 0.71051 0.84708 0.46510
 H632 H 0.75365 0.89205 0.54482
 H633 H 0.75068 0.88915 0.44563
 H634 H 0.78810 0.84442 0.52672
 H635 H 0.65462 0.87206 0.54463
 H636 H 0.84812 0.86258 0.44932
 C637 C -0.00920 0.20199 0.36880
 C638 C 0.00611 0.22891 0.38097
 C639 C 0.03459 0.22566 0.39705
 C640 C 0.04753 0.19558 0.40157
 C641 C 0.03219 0.16876 0.38890
 C642 C 0.00405 0.17176 0.37202
 C643 C -0.00690 0.26066 0.37566
 C644 C -0.03656 0.26893 0.38714
 C645 C -0.04826 0.29965 0.38293
 C646 C -0.03061 0.32143 0.36580
 C647 C -0.00111 0.31329 0.35401
 C648 C 0.01077 0.28294 0.35939
 H649 H -0.03110 0.20476 0.35621
 H650 H 0.04631 0.24652 0.40658
 H651 H -0.04979 0.25192 0.40043
 H652 H 0.03358 0.27640 0.35043
 H653 H 0.04288 0.14567 0.39123
 H654 H -0.03957 0.34509 0.36221
 C655 C 1.02548 0.69662 0.12905
 C656 C 1.00974 0.72265 0.11671
 C657 C 0.97967 0.71859 0.10368
 C658 C 0.96535 0.68855 0.10274
 C659 C 0.98113 0.66280 0.11598
 C660 C 1.01110 0.66667 0.12925
 C661 C 1.02404 0.75447 0.11899
 C662 C 1.05328 0.76065 0.10566
 C663 C 1.06662 0.79112 0.10777
 C664 C 1.05041 0.81529 0.12375
 C665 C 1.02121 0.80927 0.13760
 C666 C 1.00839 0.77860 0.13511
 H667 H 1.04834 0.70004 0.13977
 H668 H 0.96778 0.73875 0.09379
 H669 H 1.06547 0.74177 0.09348
 H670 H 0.98640 0.77304 0.14627
 H671 H 0.97004 0.63966 0.11611
 H672 H 1.06008 0.83906 0.12439
 C673 C 0.52060 0.21593 0.63038
 C674 C 0.50353 0.24075 0.61726
 C675 C 0.47323 0.23504 0.60540
 C676 C 0.46003 0.20454 0.60631
 C677 C 0.47704 0.18013 0.62040
 C678 C 0.50722 0.18561 0.63253
 C679 C 0.51701 0.27292 0.61667
 C680 C 0.54444 0.27906 0.59993
 C681 C 0.55651 0.31005 0.59846
 C682 C 0.54120 0.33468 0.61461
 C683 C 0.51434 0.32850 0.63214
 C684 C 0.50219 0.29763 0.63283
 H685 H 0.54379 0.22055 0.63991
 H686 H 0.46038 0.25418 0.59476
 H687 H 0.55571 0.25991 0.58727
 H688 H 0.48118 0.29278 0.64604
 H689 H 0.46680 0.15666 0.62184
 H690 H 0.55063 0.35856 0.61424
 C691 C 0.49466 0.71725 0.86676
 C692 C 0.51081 0.74377 0.87870
 C693 C 0.53931 0.73978 0.89458
 C694 C 0.55104 0.70929 0.89971
 C695 C 0.53431 0.68281 0.88810
 C696 C 0.50632 0.68648 0.87099
 C697 C 0.49765 0.77567 0.87454
 C698 C 0.46812 0.78315 0.88680
 C699 C 0.45555 0.81360 0.88333
 C700 C 0.47236 0.83609 0.86622
 C701 C 0.50181 0.82879 0.85367
 C702 C 0.51452 0.79861 0.85833
 H703 H 0.47343 0.72094 0.85337
 H704 H 0.55180 0.76034 0.90376
 H705 H 0.45556 0.76557 0.90002
 H706 H 0.53721 0.79267 0.84872
 H707 H 0.54337 0.65933 0.89228
 H708 H 0.46274 0.85955 0.86309
 C709 C 0.42670 -0.11321 0.30832
 C710 C 0.41288 -0.13343 0.33033
 C711 C 0.38268 -0.12553 0.34120
 C712 C 0.36787 -0.09775 0.33207
 C713 C 0.38270 -0.07670 0.31191
 C714 C 0.41190 -0.08516 0.29946
 H715 H 0.44997 -0.11756 0.29945
 H716 H 0.36994 -0.14095 0.35655
 H717 H 0.34483 -0.09252 0.34120
 H718 H 0.42410 -0.06933 0.28404
 C719 C 0.92827 0.38595 0.79777
 C720 C 0.91431 0.36555 0.81919
 C721 C 0.88378 0.37190 0.82943
 C722 C 0.86819 0.39912 0.81998
 C723 C 0.88292 0.42084 0.80033
 C724 C 0.91273 0.41346 0.78848
 H725 H 0.95186 0.38158 0.78965
 H726 H 0.87233 0.35623 0.84557
 H727 H 0.84493 0.40372 0.82889
 H728 H 0.92476 0.42979 0.77343
 C729 C 0.03847 1.11542 0.84092
 C730 C 0.04367 1.14206 0.82241
 C731 C 0.06462 1.13964 0.79743
 C732 C 0.08006 1.11105 0.79113
 C733 C 0.07523 1.08465 0.81007
 C734 C 0.05418 1.08709 0.83490
 H735 H 0.02280 1.11673 0.86060
 H736 H 0.06902 1.15984 0.78283
 H737 H 0.09631 1.10975 0.77191
 H738 H 0.04987 1.06701 0.84968
 C739 C 0.58239 0.64679 0.32453
 C740 C 0.55179 0.65251 0.31371
 C741 C 0.53744 0.63004 0.29369
 C742 C 0.55275 0.60182 0.28588
 C743 C 0.58273 0.59544 0.29798
 C744 C 0.59768 0.61859 0.31675
 H745 H 0.59400 0.66344 0.34023
 H746 H 0.51400 0.63391 0.28472
 H747 H 0.54057 0.58442 0.27146
 H748 H 0.62098 0.61457 0.32601
 C749 C 0.54874 0.38426 0.19256
 C750 C 0.56706 0.36224 0.17596
 C751 C 0.59772 0.37088 0.16757
 C752 C 0.60920 0.40129 0.17418
 C753 C 0.59041 0.42371 0.18956
 C754 C 0.56034 0.41468 0.19936
 H755 H 0.52493 0.37848 0.19905
 H756 H 0.61268 0.35426 0.15537
 H757 H 0.63272 0.40740 0.16699
 H758 H 0.54533 0.43157 0.21116
 C759 C 0.09695 0.86766 0.67220
 C760 C 0.06596 0.85942 0.67969
 C761 C 0.04815 0.88074 0.69767
 C762 C 0.06055 0.91032 0.70653
 C763 C 0.09091 0.91915 0.69745
 C764 C 0.10924 0.89722 0.68087
 H765 H 0.11151 0.85148 0.65896
 H766 H 0.02412 0.87522 0.70358
 H767 H 0.04589 0.92686 0.71921
 H768 H 0.13294 0.90318 0.67415
 C769 C 0.93711 0.61991 0.70155
 C770 C 0.92488 0.64310 0.68181
 C771 C 0.89430 0.63920 0.66994
 C772 C 0.87694 0.61191 0.67637
 C773 C 0.88973 0.58806 0.69499
 C774 C 0.91968 0.59273 0.70815
 H775 H 0.96053 0.62241 0.71120
 H776 H 0.88435 0.65651 0.65443
 H777 H 0.85378 0.60910 0.66619
 H778 H 0.93024 0.57469 0.72242
 C779 C 0.43978 0.12041 0.21002
 C780 C 0.42772 0.14348 0.19004
 C781 C 0.39706 0.13974 0.17831
 C782 C 0.37946 0.11271 0.18510
 C783 C 0.39208 0.08896 0.20394
 C784 C 0.42211 0.09349 0.21698
 H785 H 0.46326 0.12279 0.21956
 H786 H 0.38724 0.15695 0.16261
 H787 H 0.35625 0.11000 0.17502
 H788 H 0.43252 0.07552 0.23143
 C789 C 0.30450 0.43550 -0.11702
 C790 C 0.32686 0.42274 -0.13736
 C791 C 0.33908 0.39257 -0.13165
 C792 C 0.33020 0.37599 -0.10530
 C793 C 0.30933 0.38948 -0.08372
 C794 C 0.29593 0.41910 -0.09030
 H795 H 0.29497 0.45886 -0.12093
 H796 H 0.35613 0.38217 -0.14727
 H797 H 0.34030 0.35288 -0.10146
 H798 H 0.28000 0.43033 -0.07409
 C799 C 0.79639 0.93174 0.37331
 C800 C 0.81960 0.91865 0.35389
 C801 C 0.83445 0.89065 0.36344
 C802 C 0.82698 0.87668 0.39163
 C803 C 0.80513 0.89071 0.41183
 C804 C 0.78946 0.91813 0.40201
 H805 H 0.78386 0.95285 0.36672
 H806 H 0.85287 0.87987 0.34982
 H807 H 0.83891 0.85507 0.39779
 H808 H 0.77255 0.92977 0.41689
 C809 C 0.85315 0.04712 1.10906
 C810 C 0.83645 0.05043 1.13725
 C811 C 0.80830 0.06807 1.13653
 C812 C 0.79839 0.08299 1.10927
 C813 C 0.81631 0.08077 1.08211
 C814 C 0.84340 0.06225 1.08218
 H815 H 0.87356 0.03217 1.10706
 H816 H 0.79454 0.07197 1.15723
 H817 H 0.77733 0.09722 1.10971
 H818 H 0.85708 0.05934 1.06120
 C819 C 0.29993 0.57718 0.64343
 C820 C 0.32268 0.55330 0.64531
 C821 C 0.33803 0.54327 0.61813
 C822 C 0.33136 0.55737 0.58971
 C823 C 0.30877 0.58132 0.58783
 C824 C 0.29272 0.59082 0.61477
 H825 H 0.28790 0.58532 0.66414
 H826 H 0.35593 0.52518 0.61908
 H827 H 0.34391 0.54968 0.56915
 H828 H 0.27527 0.60934 0.61374
 C829 C 0.20436 0.54306 0.38426
 C830 C 0.18598 0.55972 0.36280
 C831 C 0.17568 0.59035 0.37087
 C832 C 0.18210 0.60331 0.40029
 C833 C 0.19915 0.58606 0.42228
 C834 C 0.21093 0.55614 0.41372
 H835 H 0.21238 0.51932 0.37886
 H836 H 0.16202 0.60405 0.35461
 H837 H 0.17333 0.62671 0.40601
 H838 H 0.22405 0.54229 0.43028
 C839 C 0.67489 0.09740 0.87142
 C840 C 0.68568 0.06757 0.86064
 C841 C 0.70512 0.05014 0.88087
 C842 C 0.71164 0.06116 0.91112
 C843 C 0.69912 0.08991 0.92202
 C844 C 0.68136 0.10823 0.90159
 H845 H 0.66168 0.11297 0.85656
 H846 H 0.71379 0.02694 0.87444
 H847 H 0.72543 0.04651 0.92645
 H848 H 0.67238 0.13108 0.90899
 C849 C 0.71237 0.94375 0.61502
 C850 C 0.69136 0.93169 0.63700
 C851 C 0.67614 0.90269 0.63039
 C852 C 0.68088 0.88681 0.60206
 C853 C 0.70086 0.89955 0.57955
 C854 C 0.71704 0.92789 0.58663
 H855 H 0.72475 0.96582 0.61949
 H856 H 0.65952 0.89286 0.64656
 H857 H 0.66847 0.86475 0.59758
 H858 H 0.73248 0.93846 0.56978
 C859 C 0.17739 0.39240 0.13216
 C860 C 0.19357 0.42042 0.14051
 C861 C 0.21539 0.43285 0.11952
 C862 C 0.21996 0.41835 0.09045
 C863 C 0.20292 0.39098 0.08171
 C864 C 0.18208 0.37783 0.10318
 H865 H 0.16011 0.38234 0.14751
 H866 H 0.22850 0.45419 0.12531
 H867 H 0.23607 0.42923 0.07442
 H868 H 0.16900 0.35646 0.09743
 C869 C -0.13313 0.30176 0.40955
 C870 C -0.13452 0.33192 0.42385
 C871 C -0.10704 0.35034 0.42593
 C872 C -0.07914 0.33953 0.41302
 C873 C -0.07789 0.30992 0.39777
 C874 C -0.10500 0.29083 0.39663
 H875 H -0.15395 0.28708 0.40756
 H876 H -0.10710 0.37328 0.43756
 H877 H -0.05842 0.35438 0.41500
 H878 H -0.10463 0.26789 0.38501
 C879 C 0.37170 0.81086 0.91302
 C880 C 0.36915 0.84066 0.92783
 C881 C 0.39543 0.86091 0.92849
 C882 C 0.42329 0.85201 0.91410
 C883 C 0.42573 0.82254 0.89874
 C884 C 0.39975 0.80187 0.89862
 H885 H 0.35182 0.79482 0.91195
 H886 H 0.39454 0.88369 0.94039
 H887 H 0.44313 0.86811 0.91530
 H888 H 0.40094 0.77904 0.88687
 C889 C 1.14672 0.82625 0.09102
 C890 C 1.15140 0.81634 0.06007
 C891 C 1.12912 0.79615 0.04577
 C892 C 1.10212 0.78709 0.06165
 C893 C 1.09672 0.79820 0.09210
 C894 C 1.11959 0.81737 0.10683
 H895 H 1.16332 0.84208 0.10252
 H896 H 1.13221 0.78803 0.02198
 H897 H 1.08485 0.77244 0.04962
 H898 H 1.11619 0.82598 0.13042
 C899 C 0.63793 0.30469 0.56343
 C900 C 0.63843 0.33160 0.54460
 C901 C 0.61174 0.35097 0.54343
 C902 C 0.58521 0.34377 0.56074
 C903 C 0.58466 0.31699 0.57966
 C904 C 0.61119 0.29734 0.58068
 H905 H 0.65815 0.28933 0.56473
 H906 H 0.61157 0.37217 0.52956
 H907 H 0.56502 0.35915 0.55926
 H908 H 0.61143 0.27664 0.59525
 C909 C 0.37364 0.21033 0.58447
 C910 C 0.36889 0.18134 0.56862
 C911 C 0.39461 0.16132 0.56351
 C912 C 0.42419 0.16938 0.57509
 C913 C 0.42884 0.19763 0.59218
 C914 C 0.40342 0.21841 0.59623
 H915 H 0.35415 0.22614 0.58869
 H916 H 0.39174 0.13918 0.55071
 H917 H 0.44348 0.15332 0.57083
 H918 H 0.40633 0.24033 0.60936
 C919 C 0.87977 0.69973 0.07972
 C920 C 0.87382 0.67177 0.06249
 C921 C 0.89857 0.65057 0.05708
 C922 C 0.92829 0.65647 0.06961
 C923 C 0.93407 0.68372 0.08792
 C924 C 0.90965 0.70563 0.09240
 H925 H 0.86108 0.71641 0.08428
 H926 H 0.89485 0.62920 0.04326
 H927 H 0.94678 0.63957 0.06503
 H928 H 0.91338 0.72680 0.10651
 C929 C 0.63625 0.71614 0.92520
 C930 C 0.63775 0.69351 0.94879
 C931 C 0.61028 0.67713 0.95686
 C932 C 0.58210 0.68263 0.94119
 C933 C 0.58066 0.70486 0.91731
 C934 C 0.60785 0.72198 0.90979
 H935 H 0.65707 0.72907 0.91854
 H936 H 0.61082 0.65922 0.97461
 H937 H 0.56142 0.66931 0.94758
 H938 H 0.60732 0.73916 0.89135
 C939 C 0.13135 0.20712 0.42999
 C940 C 0.13350 0.18390 0.45295
 C941 C 0.10710 0.16501 0.45911
 C942 C 0.07925 0.16894 0.44245
 C943 C 0.07706 0.19204 0.41946
 C944 C 0.10325 0.21135 0.41356
 H945 H 0.15139 0.22192 0.42479
 H946 H 0.10823 0.14659 0.47633
 H947 H 0.05933 0.15393 0.44757
 H948 H 0.10216 0.22922 0.39579
 C949 C 0.57200 0.12913 0.65504
 C950 C 0.55690 0.10988 0.67685
 C951 C 0.52530 0.11585 0.68387
 C952 C 0.50922 0.14039 0.66942
 C953 C 0.52442 0.15967 0.64782
 C954 C 0.55598 0.15388 0.64083
 H955 H 0.59614 0.12487 0.64867
 H956 H 0.51311 0.10193 0.70096
 H957 H 0.48499 0.14465 0.67550
 H958 H 0.56809 0.16818 0.62396
 C959 C 1.02586 0.59614 0.18064
 C960 C 1.05799 0.59072 0.17594
 C961 C 1.07421 0.60972 0.15473
 C962 C 1.05889 0.63408 0.13926
 C963 C 1.02694 0.63979 0.14440
 C964 C 1.01047 0.62037 0.16496
 H965 H 1.01277 0.58226 0.19712
 H966 H 1.09881 0.60575 0.15006
 H967 H 1.07199 0.64846 0.12320
 H968 H 0.98590 0.62455 0.16962
 C969 C 1.00280 0.88257 0.18689
 C970 C 0.96979 0.88260 0.18636
 C971 C 0.95408 0.85834 0.16965
 C972 C 0.97075 0.83515 0.15346
 C973 C 1.00371 0.83484 0.15420
 C974 C 1.01954 0.85884 0.17120
 H975 H 1.01579 0.90104 0.19912
 H976 H 0.92874 0.85699 0.16915
 H977 H 0.95761 0.81756 0.14015
 H978 H 1.04489 0.85919 0.17269
 C979 C 0.47881 0.37394 0.69931
 C980 C 0.46768 0.40143 0.68483
 C981 C 0.47335 0.40523 0.65287
 C982 C 0.48921 0.38187 0.63582
 C983 C 0.49917 0.35406 0.65026
 C984 C 0.49405 0.35039 0.68214
 H985 H 0.47573 0.37051 0.72399
 H986 H 0.46479 0.42578 0.64077
 H987 H 0.49287 0.38504 0.61117
 H988 H 0.50198 0.32927 0.69377
 C989 C 0.49125 0.60652 0.83134
 C990 C 0.45851 0.60673 0.82697
 C991 C 0.44160 0.63300 0.83825
 C992 C 0.45693 0.65828 0.85330
 C993 C 0.48975 0.65851 0.85683
 C994 C 0.50667 0.63217 0.84572
 H995 H 0.50515 0.58654 0.82365
 H996 H 0.41647 0.63447 0.83502
 H997 H 0.44291 0.67773 0.86206
 H998 H 0.53198 0.63152 0.84750
 C999 C -0.02432 0.08760 0.35533
 C1000 C -0.03659 0.09023 0.32506
 C1001 C -0.03586 0.11993 0.31073
 C1002 C -0.02292 0.14628 0.32610
 C1003 C -0.01052 0.14371 0.35629
 C1004 C -0.01138 0.11407 0.37078
 H1005 H -0.02437 0.06503 0.36694
 H1006 H -0.04559 0.12292 0.28765
 H1007 H -0.02221 0.16863 0.31409
 H1008 H -0.00221 0.11138 0.39412
 C1009 C 0.02145 0.37856 0.29880
 C1010 C 0.05299 0.38386 0.30699
 C1011 C 0.06689 0.36504 0.32990
 C1012 C 0.04947 0.34169 0.34470
 C1013 C 0.01771 0.33691 0.33710
 C1014 C 0.00389 0.35542 0.31389
 H1015 H 0.01018 0.39287 0.28133
 H1016 H 0.09126 0.36849 0.33642
 H1017 H 0.06060 0.32788 0.36266
 H1018 H -0.02050 0.35200 0.30747
 C1019 C 0.52142 0.89447 0.79772
 C1020 C 0.55307 0.90044 0.80502
 C1021 C 0.56794 0.88208 0.82771
 C1022 C 0.55141 0.85846 0.84310
 C1023 C 0.51958 0.85297 0.83636
 C1024 C 0.50475 0.87108 0.81343
 H1025 H 0.50942 0.90841 0.78042
 H1026 H 0.59240 0.88605 0.83356
 H1027 H 0.56333 0.84495 0.86079
 H1028 H 0.48027 0.86710 0.80766
 C1029 C 0.65378 0.53145 0.09458
 C1030 C 0.67959 0.55162 0.10196
 C1031 C 0.68810 0.55463 0.13380
 C1032 C 0.67149 0.53899 0.15680
 C1033 C 0.64550 0.51991 0.14922
 C1034 C 0.63698 0.51612 0.11784
 H1035 H 0.64487 0.52866 0.07113
 H1036 H 0.70866 0.56769 0.14145
 H1037 H 0.67952 0.54144 0.18066
 H1038 H 0.61675 0.50188 0.11123
 C1039 C 0.18466 1.01649 0.61882
 C1040 C 0.17932 1.04885 0.61391
 C1041 C 0.15679 1.06463 0.63207
 C1042 C 0.14027 1.04853 0.65489
 C1043 C 0.14583 1.01626 0.66002
 C1044 C 0.16809 1.00036 0.64164
 H1045 H 0.20214 1.00379 0.60547
 H1046 H 0.15170 1.08941 0.62842
 H1047 H 0.12291 1.06126 0.66838
 H1048 H 0.17320 0.97560 0.64539
 C1049 C 0.15801 0.94679 0.87492
 C1050 C 0.17658 0.96433 0.89668
 C1051 C 0.17516 0.99784 0.89503
 C1052 C 0.15735 1.01273 0.87210
 C1053 C 0.13995 0.99486 0.85025
 C1054 C 0.14006 0.96179 0.85233
 H1055 H 0.15582 0.92131 0.87574
 H1056 H 0.18929 1.01314 0.90989
 H1057 H 0.15819 1.03832 0.87081
 H1058 H 0.12602 0.94733 0.83649
 C1059 C 0.68303 0.50423 0.37900
 C1060 C 0.67909 0.47157 0.38371
 C1061 C 0.65641 0.45494 0.36596
 C1062 C 0.63873 0.47036 0.34343
 C1063 C 0.64317 0.50281 0.33822
 C1064 C 0.66519 0.51972 0.35649
 H1065 H 0.70047 0.51764 0.39211
 H1066 H 0.65223 0.42994 0.36956
 H1067 H 0.62156 0.45688 0.33001
 H1068 H 0.66930 0.54470 0.35270
 C1069 C 0.82470 0.44911 0.61530
 C1070 C 0.80408 0.46540 0.59565
 C1071 C 0.79666 0.49707 0.60271
 C1072 C 0.81005 0.51233 0.62870
 C1073 C 0.83070 0.49601 0.64832
 C1074 C 0.83773 0.46421 0.64149
 H1075 H 0.83059 0.42460 0.61048
 H1076 H 0.78095 0.51015 0.58781
 H1077 H 0.80412 0.53681 0.63364
 H1078 H 0.85372 0.45119 0.65616
 C1079 C 0.29803 -0.00213 0.11276
 C1080 C 0.30555 -0.03379 0.10574
 C1081 C 0.32619 -0.05000 0.12544
 C1082 C 0.33919 -0.03482 0.15160
 C1083 C 0.33215 -0.00301 0.15834
 C1084 C 0.31144 0.01322 0.13870
 H1085 H 0.28228 0.01087 0.09783
 H1086 H 0.33214 -0.07450 0.12064
 H1087 H 0.35522 -0.04777 0.16630
 H1088 H 0.30550 0.03771 0.14357
 C1089 C 0.32176 0.06785 0.38287
 C1090 C 0.30017 0.05260 0.40219
 C1091 C 0.29187 0.02095 0.39567
 C1092 C 0.30548 0.00463 0.37071
 C1093 C 0.32733 0.01980 0.35159
 C1094 C 0.33510 0.05166 0.35772
 H1095 H 0.32833 0.09234 0.38724
 H1096 H 0.27541 0.00863 0.41032
 H1097 H 0.29891 -0.01985 0.36627
 H1098 H 0.35199 0.06383 0.34344
 C1099 C 0.82823 0.53129 0.89733
 C1100 C 0.80082 0.54922 0.89344
 C1101 C 0.78668 0.55016 0.86386
 C1102 C 0.79994 0.53388 0.83865
 C1103 C 0.82757 0.51627 0.84254
 C1104 C 0.84148 0.51510 0.87219
 H1105 H 0.83948 0.52977 0.91991
 H1106 H 0.76572 0.56400 0.86006
 H1107 H 0.78850 0.53493 0.81614
 H1108 H 0.86295 0.50205 0.87590
 C1109 C 0.12344 0.65043 0.56230
 C1110 C 0.10538 0.67291 0.54639
 C1111 C 0.11219 0.67882 0.51507
 C1112 C 0.13660 0.66286 0.50013
 C1113 C 0.15488 0.64077 0.51621
 C1114 C 0.14801 0.63466 0.54742
 H1115 H 0.11847 0.64483 0.58625
 H1116 H 0.09913 0.69633 0.50227
 H1117 H 0.14168 0.66836 0.47617
 H1118 H 0.16148 0.61745 0.56023
 C1119 C 0.60156 0.14475 1.03177
 C1120 C 0.60779 0.17141 1.05079
 C1121 C 0.63882 0.18227 1.05405
 C1122 C 0.66314 0.16688 1.03852
 C1123 C 0.65707 0.14005 1.01958
 C1124 C 0.62598 0.12913 1.01642
 H1125 H 0.57787 0.13571 1.02914
 H1126 H 0.64419 0.20307 1.06818
 H1127 H 0.68666 0.17642 1.04088
 H1128 H 0.62054 0.10833 1.00232
 C1129 C 0.90096 0.15939 0.97733
 C1130 C 0.89271 0.18819 0.96279
 C1131 C 0.86110 0.19807 0.96569
 C1132 C 0.83905 0.17990 0.98137
 C1133 C 0.84746 0.15111 0.99480
 C1134 C 0.87870 0.14122 0.99287
 H1135 H 0.92406 0.14923 0.97535
 H1136 H 0.85306 0.22059 0.95720
 H1137 H 0.81532 0.18871 0.98337
 H1138 H 0.88582 0.11883 1.00260
 C1139 C 0.37489 0.65479 0.44871
 C1140 C 0.39318 0.67780 0.46450
 C1141 C 0.38954 0.68169 0.49681
 C1142 C 0.36740 0.66368 0.51274
 C1143 C 0.34836 0.64157 0.49666
 C1144 C 0.35266 0.63699 0.46458
 H1145 H 0.37764 0.65061 0.42399
 H1146 H 0.40305 0.69938 0.50962
 H1147 H 0.36432 0.66789 0.53743
 H1148 H 0.33862 0.61974 0.45172
 C1149 C 0.59521 0.84423 0.47581
 C1150 C 0.59771 0.81593 0.45833
 C1151 C 0.62726 0.80152 0.45577
 C1152 C 0.65360 0.81502 0.47033
 C1153 C 0.65113 0.84340 0.48768
 C1154 C 0.62160 0.85784 0.49025
 H1155 H 0.57277 0.85579 0.47857
 H1156 H 0.63016 0.77996 0.44215
 H1157 H 0.67589 0.80303 0.46822
 H1158 H 0.61892 0.87987 0.50314
 C1159 C 0.09839 0.34253 -0.02684
 C1160 C 0.10075 0.31457 -0.04487
 C1161 C 0.12997 0.29943 -0.04688
 C1162 C 0.15615 0.31188 -0.03122
 C1163 C 0.15383 0.33987 -0.01326
 C1164 C 0.12464 0.35505 -0.01123
 H1165 H 0.07617 0.35461 -0.02455
 H1166 H 0.13272 0.27810 -0.06089
 H1167 H 0.17820 0.29937 -0.03294
 H1168 H 0.12214 0.37681 0.00217
 C1169 C 0.40482 0.32738 0.02295
 C1170 C 0.39965 0.29947 0.03964
 C1171 C 0.36943 0.28603 0.03951
 C1172 C 0.34483 0.30053 0.02354
 C1173 C 0.34991 0.32878 0.00738
 C1174 C 0.38024 0.34190 0.00709
 H1175 H 0.42791 0.33811 0.02226
 H1176 H 0.36461 0.26473 0.05237
 H1177 H 0.32181 0.28961 0.02386
 H1178 H 0.38488 0.36379 -0.00487
 C1179 C 0.90244 0.83346 0.52061
 C1180 C 0.89734 0.80533 0.53697
 C1181 C 0.86701 0.79219 0.53724
 C1182 C 0.84228 0.80706 0.52184
 C1183 C 0.84733 0.83537 0.50576
 C1184 C 0.87773 0.84830 0.50519
 H1185 H 0.92560 0.84401 0.51971
 H1186 H 0.86224 0.77075 0.54991
 H1187 H 0.81919 0.79631 0.52236
 H1188 H 0.88233 0.87020 0.49321
   
