data_POSCAR
  _audit_creation_date              2014-09-24
  _audit_creation_method            'ToBaCCo'
  _symmetry_space_group_name_H-M    'P1'
  _symmetry_Int_Tables_number       1
  _symmetry_cell_setting            triclinic
  loop_
  _symmetry_equiv_pos_as_xyz
 x,y,z
_cell_length_a 17.1448
_cell_length_b 16.9808
_cell_length_c 21.7131
_cell_angle_alpha 89.966700
_cell_angle_beta 87.962600
_cell_angle_gamma 89.826500
loop_
  _atom_site_label
  _atom_site_type_symbol
  _atom_site_fract_x
  _atom_site_fract_y
  _atom_site_fract_z
C1 C 0.00239 0.57388 1.03372
 C2 C -0.00338 0.57362 0.96898
 C3 C -0.00705 0.50172 0.93753
 C4 C -0.00431 0.43018 0.96952
 C5 C 0.00301 0.43034 1.03400
 C6 C 0.00589 0.50219 1.06563
 H7 H 0.01087 0.50232 1.11537
 H8 H -0.01200 0.50129 0.88782
 C9 C 0.42906 -0.00610 0.53104
 C10 C 0.43170 -0.00508 0.46617
 C11 C 0.50396 -0.00526 0.43393
 C12 C 0.57371 -0.00556 0.46577
 C13 C 0.57096 -0.00536 0.53077
 C14 C 0.49866 -0.00608 0.56290
 H15 H 0.49655 -0.00611 0.61290
 H16 H 0.50577 -0.00465 0.38390
 C17 C 0.16950 0.00884 0.27108
 H18 H 0.17291 0.01272 0.22132
 C19 C 0.23775 0.00795 0.30425
 H20 H 0.29401 0.01119 0.28006
 C21 C 0.09202 -0.00019 0.36353
 H22 H 0.03518 -0.00261 0.38649
 C23 C 0.15893 -0.00124 0.39850
 H24 H 0.15346 -0.00505 0.44829
 N25 N 0.09855 0.00346 0.30090
 C26 C -0.04985 -0.10260 0.16466
 H27 H -0.09634 -0.05951 0.16299
 C28 C -0.05245 -0.17056 0.12851
 H29 H -0.10095 -0.17988 0.09873
 C30 C 0.06953 -0.14417 0.20630
 H31 H 0.11625 -0.13460 0.23744
 C32 C 0.06911 -0.21287 0.17102
 H33 H 0.11588 -0.25548 0.17472
 Zn34 Zn 0.01009 0.00214 0.25109
 N35 N 0.01098 -0.09027 0.20208
 C36 C 0.01490 0.08859 0.13837
 N37 N 0.01454 0.09348 0.20096
 C38 C 0.01738 0.16437 0.23001
 C39 C 0.01704 0.23420 0.19603
 C40 C 0.01483 0.15705 0.10266
 C41 C -0.09868 -0.06000 0.33823
 C42 C -0.16827 -0.06313 0.37371
 C43 C -0.20708 0.06039 0.32856
 C44 C -0.13685 0.06131 0.29406
 N45 N -0.08389 0.00208 0.29990
 H46 H 0.01467 0.03184 0.11600
 H47 H 0.01819 0.16649 0.27979
 H48 H 0.01759 0.29040 0.21960
 H49 H 0.01412 0.15278 0.05299
 H50 H -0.05636 -0.10715 0.34107
 H51 H -0.17955 -0.11256 0.40427
 H52 H -0.24888 0.10774 0.32355
 H53 H -0.12546 0.10889 0.26207
 C54 C 0.00768 -0.22609 0.13173
 C55 C 0.23240 0.00225 0.36847
 C56 C -0.22288 -0.00228 0.36876
 C57 C 0.01488 0.23045 0.13180
 C58 C -0.01788 0.16208 0.77061
 H59 H -0.01821 0.16472 0.72084
 C60 C -0.01787 0.23155 0.80500
 H61 H -0.01818 0.28800 0.78173
 C62 C -0.01629 0.08536 0.86189
 H63 H -0.01633 0.02839 0.88398
 C64 C -0.01658 0.15342 0.89799
 H65 H -0.01637 0.14860 0.94764
 N66 N -0.01525 0.09088 0.79932
 C67 C 0.09908 -0.06223 0.66202
 H68 H 0.05709 -0.10942 0.65931
 C69 C 0.16841 -0.06510 0.62619
 H70 H 0.17986 -0.11443 0.59554
 C71 C 0.13654 0.05913 0.70602
 H72 H 0.12493 0.10668 0.73802
 C73 C 0.20650 0.05847 0.67117
 H74 H 0.24791 0.10596 0.67595
 Zn75 Zn -0.01011 -0.00012 0.74892
 N76 N 0.08401 -0.00019 0.70036
 C77 C -0.09077 -0.00136 0.63604
 N78 N -0.09811 0.00162 0.69865
 C79 C -0.16944 0.00672 0.72796
 C80 C -0.23722 0.00613 0.69423
 C81 C -0.15718 -0.00207 0.60052
 C82 C 0.04987 -0.10500 0.83541
 C83 C 0.05231 -0.17257 0.87206
 C84 C -0.06916 -0.21452 0.82961
 C85 C -0.06941 -0.14618 0.79384
 N86 N -0.01089 -0.09260 0.79786
 H87 H -0.03368 -0.00345 0.61348
 H88 H -0.17349 0.01012 0.77772
 H89 H -0.29380 0.00912 0.71800
 H90 H -0.15106 -0.00534 0.55075
 H91 H 0.09632 -0.06213 0.83694
 H92 H 0.10067 -0.18188 0.90203
 H93 H -0.11597 -0.25683 0.82617
 H94 H -0.11608 -0.13655 0.76259
 C95 C 0.22246 -0.00405 0.63082
 C96 C -0.01631 0.22710 0.86924
 C97 C -0.00791 -0.22767 0.86918
 C98 C -0.23100 0.00108 0.63000
 C99 C 0.00427 -0.35745 0.06652
 C100 C 0.00574 -0.29728 0.09592
 C101 C 0.00741 0.36180 0.06672
 C102 C 0.01119 0.30171 0.09611
 C103 C 0.35574 -0.00618 0.56580
 C104 C 0.29474 -0.00571 0.59514
 C105 C -0.35875 -0.00332 0.56547
 C106 C -0.30030 -0.00127 0.59465
 C107 C -0.00503 -0.35807 0.93566
 C108 C -0.00628 -0.29832 0.90570
 C109 C -0.00901 0.35777 0.93493
 C110 C -0.01276 0.29795 0.90532
 C111 C -0.35679 -0.00514 0.43298
 C112 C -0.29554 -0.00432 0.40394
 C113 C 0.36110 -0.00273 0.43192
 C114 C 0.30224 -0.00042 0.40322
   
