data_POSCAR
  _audit_creation_date              2014-09-24
  _audit_creation_method            'ToBaCCo'
  _symmetry_space_group_name_H-M    'P1'
  _symmetry_Int_Tables_number       1
  _symmetry_cell_setting            triclinic
  loop_
  _symmetry_equiv_pos_as_xyz
 x,y,z
_cell_length_a 40.2668
_cell_length_b 38.4674
_cell_length_c 43.2395
_cell_angle_alpha 91.942900
_cell_angle_beta 89.621100
_cell_angle_gamma 91.308300
loop_
  _atom_site_label
  _atom_site_type_symbol
  _atom_site_fract_x
  _atom_site_fract_y
  _atom_site_fract_z
C1 C 0.31148 0.38220 1.35212
 C2 C 0.33745 0.38820 1.33127
 C3 C 0.36286 0.36503 1.32845
 C4 C 0.36258 0.33544 1.34638
 C5 C 0.33746 0.32978 1.36778
 C6 C 0.31135 0.35361 1.37070
 C7 C 0.28233 0.39899 1.35696
 N8 N 0.26375 0.38176 1.37819
 C9 C 0.28169 0.35413 1.38717
 C10 C 0.34337 0.29797 1.38044
 N11 N 0.37081 0.28399 1.36652
 C12 C 0.38253 0.30710 1.34573
 C13 C 0.38351 0.37617 1.30520
 N14 N 0.37111 0.40565 1.29366
 C15 C 0.34277 0.41307 1.30957
 H16 H 0.27550 0.42244 1.34567
 H17 H 0.27308 0.33454 1.40291
 H18 H 0.32760 0.28518 1.39716
 H19 H 0.40430 0.30397 1.33120
 H20 H 0.40581 0.36340 1.29724
 H21 H 0.32642 0.43421 1.30501
 C22 C 1.16072 0.57817 0.87338
 C23 C 1.13526 0.57763 0.85141
 C24 C 1.11432 0.60564 0.84965
 C25 C 1.11827 0.63440 0.87051
 C26 C 1.14335 0.63448 0.89215
 C27 C 1.16458 0.60625 0.89367
 C28 C 1.18674 0.55641 0.87812
 N29 N 1.20659 0.57053 0.90099
 C30 C 1.19268 0.60108 0.91068
 C31 C 1.14331 0.66603 0.90780
 N32 N 1.11869 0.68579 0.89661
 C33 C 1.10304 0.66625 0.87380
 C34 C 1.09432 0.59910 0.82418
 N35 N 1.10247 0.56781 0.81090
 C36 C 1.12741 0.55456 0.82747
 H37 H 1.19070 0.53226 0.86527
 H38 H 1.20310 0.61975 0.92739
 H39 H 1.16010 0.67341 0.92641
 H40 H 1.08310 0.67487 0.85949
 H41 H 1.07584 0.61620 0.81547
 H42 H 1.14004 0.53066 0.82159
 C43 C 0.65605 -0.06169 0.11950
 C44 C 0.63772 -0.06439 0.14725
 C45 C 0.61214 -0.08908 0.14921
 C46 C 0.60410 -0.11080 0.12345
 C47 C 0.62117 -0.10684 0.09609
 C48 C 0.64709 -0.08231 0.09406
 C49 C 0.68520 -0.04431 0.11160
 N50 N 0.69374 -0.05384 0.08188
 C51 C 0.66995 -0.07671 0.07110
 C52 C 0.61057 -0.13272 0.07579
 N53 N 0.58746 -0.15322 0.08998
 C54 C 0.58320 -0.13952 0.11930
 C55 C 0.59926 -0.08656 0.17873
 N56 N 0.61571 -0.06046 0.19452
 C57 C 0.63940 -0.04685 0.17560
 H58 H 0.69946 -0.02689 0.12684
 H59 H 0.67069 -0.09111 0.04918
 H60 H 0.62144 -0.13755 0.05317
 H61 H 0.56701 -0.14993 0.13692
 H62 H 0.57851 -0.10160 0.18771
 H63 H 0.65613 -0.02537 0.18186
 C64 C -0.16431 1.07896 -0.36037
 C65 C -0.14003 1.07571 -0.33765
 C66 C -0.11527 1.10080 -0.33423
 C67 C -0.11453 1.12964 -0.35314
 C68 C -0.13899 1.13359 -0.37489
 C69 C -0.16427 1.10785 -0.37860
 C70 C -0.19092 1.05810 -0.36900
 N71 N -0.20765 1.07337 -0.39203
 C72 C -0.19161 1.10421 -0.39769
 C73 C -0.13239 1.16495 -0.38860
 N74 N -0.10430 1.17996 -0.37586
 C75 C -0.09354 1.15814 -0.35404
 C76 C -0.09643 1.09232 -0.30937
 N77 N -0.10952 1.06292 -0.29699
 C78 C -0.13606 1.05237 -0.31453
 H79 H -0.19794 1.03393 -0.35837
 H80 H -0.19839 1.12219 -0.41517
 H81 H -0.14687 1.17537 -0.40696
 H82 H -0.07265 1.16286 -0.33877
 H83 H -0.07531 1.10731 -0.30052
 H84 H -0.15259 1.03060 -0.30979
 C85 C 0.67751 0.64861 0.69451
 C86 C 0.65267 0.65557 0.71662
 C87 C 0.63286 0.68444 0.71412
 C88 C 0.63746 0.70651 0.68900
 C89 C 0.66259 0.69989 0.66794
 C90 C 0.68239 0.67094 0.67057
 C91 C 0.70042 0.62259 0.69063
 N92 N 0.71888 0.62907 0.66491
 C93 C 0.70782 0.65857 0.65257
 C94 C 0.66227 0.72491 0.64629
 N95 N 0.63686 0.74667 0.65278
 C96 C 0.62140 0.73548 0.67899
 C97 C 0.61227 0.68542 0.73977
 N98 N 0.61906 0.65786 0.75740
 C99 C 0.64351 0.63940 0.74327
 H100 H 0.70359 0.60084 0.70549
 H101 H 0.71723 0.66995 0.63159
 H102 H 0.67834 0.72567 0.62615
 H103 H 0.60029 0.74754 0.69023
 H104 H 0.59415 0.70502 0.74549
 H105 H 0.65477 0.61664 0.75242
 C106 C 0.83583 0.38397 0.16355
 C107 C 0.85977 0.39005 0.18688
 C108 C 0.88587 0.36738 0.18926
 C109 C 0.88818 0.33828 0.16912
 C110 C 0.86472 0.33229 0.14649
 C111 C 0.83824 0.35500 0.14389
 C112 C 0.80773 0.40121 0.15498
 N113 N 0.79270 0.38288 0.13112
 C114 C 0.81151 0.35458 0.12442
 C115 C 0.87327 0.30242 0.13028
 N116 N 0.90141 0.28969 0.14271
 C117 C 0.91045 0.31171 0.16673
 C118 C 0.90530 0.37907 0.21352
 N119 N 0.89160 0.40800 0.22638
 C120 C 0.86363 0.41498 0.21049
 H121 H 0.79842 0.42463 0.16621
 H122 H 0.80688 0.33531 0.10605
 H123 H 0.85910 0.29051 0.11142
 H124 H 0.93216 0.30951 0.18106
 H125 H 0.92747 0.36700 0.22174
 H126 H 0.84742 0.43648 0.21575
 C127 C 0.33929 0.12715 0.82971
 C128 C 0.35932 0.13333 0.80373
 C129 C 0.38009 0.16231 0.80353
 C130 C 0.38121 0.18549 0.82906
 C131 C 0.36153 0.17954 0.85479
 C132 C 0.34007 0.15024 0.85492
 C133 C 0.31547 0.10210 0.83560
 N134 N 0.30102 0.10955 0.86359
 C135 C 0.31618 0.13913 0.87547
 C136 C 0.36695 0.20724 0.87538
 N137 N 0.38903 0.22965 0.86233
 C138 C 0.39780 0.21664 0.83404
 C139 C 0.39558 0.16273 0.77522
 N140 N 0.38462 0.13473 0.75787
 C141 C 0.36236 0.11656 0.77524
 H142 H 0.30800 0.08127 0.81951
 H143 H 0.31061 0.15187 0.89752
 H144 H 0.35500 0.21141 0.89766
 H145 H 0.41468 0.22927 0.81813
 H146 H 0.41367 0.18208 0.76798
 H147 H 0.34864 0.09337 0.76757
 C148 C 0.18191 0.84066 0.30144
 C149 C 0.15555 0.83975 0.28052
 C150 C 0.13054 0.81478 0.28266
 C151 C 0.13184 0.79006 0.30567
 C152 C 0.15772 0.79121 0.32670
 C153 C 0.18299 0.81688 0.32454
 C154 C 0.20923 0.86235 0.30456
 N155 N 0.22738 0.85272 0.32923
 C156 C 0.21116 0.82475 0.34157
 C157 C 0.15223 0.76427 0.34648
 N158 N 0.12404 0.74669 0.33758
 C159 C 0.11141 0.76231 0.31271
 C160 C 0.10774 0.82101 0.26000
 N161 N 0.11857 0.84907 0.24419
 C162 C 0.14786 0.86057 0.25654
 H163 H 0.21445 0.88429 0.29019
 H164 H 0.21925 0.81036 0.36109
 H165 H 0.16788 0.75750 0.36553
 H166 H 0.08891 0.75410 0.30069
 H167 H 0.08492 0.80635 0.25543
 H168 H 0.16206 0.88309 0.24920
 Zn169 Zn 0.00111 1.01163 0.02868
 Zn170 Zn 0.04975 0.98004 -0.01480
 Zn171 Zn -0.02204 0.97805 -0.03199
 Zn172 Zn 0.01699 1.04232 -0.02730
 O173 O 0.01104 1.00141 -0.01111
 O174 O 0.02841 0.99152 0.05481
 O175 O 0.04501 0.93915 -0.03501
 O176 O -0.05900 0.97397 -0.00757
 O177 O 0.06610 0.97002 0.02219
 O178 O -0.03968 0.99649 0.03699
 O179 O -0.00907 0.93478 -0.04471
 O180 O 0.00694 1.04082 -0.06692
 O181 O 0.08086 1.00611 -0.03394
 O182 O -0.03283 1.00000 -0.06721
 O183 O 0.05920 1.05755 -0.02381
 O184 O -0.00950 1.07345 -0.00951
 O185 O 0.00026 1.05801 0.03803
 C186 C 0.05486 0.97487 0.04950
 C187 C 0.01990 0.92193 -0.04543
 C188 C -0.06305 0.98247 0.02103
 C189 C -0.01743 1.02508 -0.08007
 C190 C 0.08368 1.03914 -0.03222
 C191 C -0.01100 1.07972 0.01941
 Zn192 Zn 0.47580 -0.00282 0.44726
 Zn193 Zn 0.46429 -0.03654 0.50764
 Zn194 Zn 0.53263 -0.03002 0.48243
 Zn195 Zn 0.49750 0.03272 0.50616
 O196 O 0.49261 -0.00914 0.48578
 O197 O 0.43956 -0.03020 0.43981
 O198 O 0.48412 -0.07231 0.52385
 O199 O 0.54256 -0.04249 0.44304
 O200 O 0.43104 -0.05442 0.48495
 O201 O 0.50499 -0.01405 0.41695
 O202 O 0.53533 -0.06785 0.50566
 O203 O 0.54019 0.04566 0.51233
 O204 O 0.44673 -0.01471 0.54061
 O205 O 0.56595 -0.00180 0.49577
 O206 O 0.47749 0.03365 0.54316
 O207 O 0.47797 0.06651 0.48657
 O208 O 0.46233 0.04114 0.44209
 C209 C 0.42306 -0.05064 0.45696
 C210 C 0.51375 -0.08261 0.52265
 C211 C 0.53060 -0.03280 0.41764
 C212 C 0.56668 0.02888 0.50763
 C213 C 0.45555 0.01351 0.55452
 C214 C 0.46337 0.06742 0.46074
 Zn215 Zn 0.99039 0.54104 0.53477
 Zn216 Zn 1.00661 0.49689 0.48021
 Zn217 Zn 1.00899 0.46703 0.54391
 Zn218 Zn 0.94397 0.48400 0.51468
 O219 O 0.98761 0.49703 0.51849
 O220 O 1.01141 0.57141 0.51074
 O221 O 1.04043 0.46811 0.47768
 O222 O 1.02432 0.48869 0.57954
 O223 O 1.02362 0.53841 0.46972
 O224 O 1.01201 0.54306 0.57008
 O225 O 1.04452 0.44755 0.52474
 O226 O 0.93512 0.44372 0.53218
 O227 O 0.97825 0.48466 0.44983
 O228 O 0.98225 0.43067 0.55465
 O229 O 0.93091 0.47775 0.47521
 O230 O 0.91641 0.51464 0.53255
 O231 O 0.95099 0.55855 0.54429
 C232 C 1.02445 0.56768 0.48412
 C233 C 1.05496 0.44956 0.49698
 C234 C 1.02458 0.52096 0.58735
 C235 C 0.95210 0.42332 0.54784
 C236 C 0.94721 0.47808 0.44998
 C237 C 0.92197 0.54509 0.54380
 Zn238 Zn 0.48749 0.50288 0.98648
 Zn239 Zn 0.54391 0.54142 1.01696
 Zn240 Zn 0.47911 0.53229 1.05074
 Zn241 Zn 0.52263 0.47133 1.03793
 O242 O 0.50829 0.51211 1.02310
 O243 O 0.50922 0.52070 0.95446
 O244 O 0.53865 0.58266 1.03631
 O245 O 0.43918 0.53917 1.03386
 O246 O 0.55106 0.55022 0.97667
 O247 O 0.44616 0.51876 0.98587
 O248 O 0.49297 0.57469 1.06434
 O249 O 0.50434 0.46223 1.07421
 O250 O 0.58209 0.52476 1.03172
 O251 O 0.47172 0.50671 1.08432
 O252 O 0.56636 0.47157 1.04450
 O253 O 0.51181 0.43374 1.01417
 O254 O 0.48340 0.45767 0.97730
 C255 C 0.53525 0.53971 0.95266
 C256 C 0.51731 0.59368 1.05581
 C257 C 0.42822 0.53308 1.00668
 C258 C 0.48349 0.47772 1.09154
 C259 C 0.58860 0.49533 1.04248
 C260 C 0.49420 0.43098 0.98997
 C261 C 1.21882 0.38065 0.41615
 C262 C 1.18757 0.39273 0.42616
 C263 C 1.16897 0.41342 0.40647
 C264 C 1.18146 0.42166 0.37741
 C265 C 1.21270 0.41073 0.36812
 C266 C 1.23226 0.39053 0.38734
 C267 C 1.13841 0.42644 0.41626
 C268 C 1.12644 0.42019 0.44599
 C269 C 1.14465 0.39965 0.46603
 C270 C 1.17499 0.38557 0.45583
 C271 C 1.13242 0.39434 0.49607
 C272 C 1.10295 0.40997 0.50626
 C273 C 1.08506 0.43086 0.48645
 C274 C 1.09685 0.43522 0.45615
 H275 H 1.23331 0.36543 0.43152
 H276 H 1.16729 0.43718 0.36198
 H277 H 1.22103 0.41761 0.34527
 H278 H 1.12439 0.44239 0.40101
 H279 H 1.18916 0.36994 0.47119
 H280 H 1.14595 0.37866 0.51185
 H281 H 1.09441 0.40608 0.52972
 H282 H 1.08345 0.45121 0.44049
 C283 C 0.25165 0.57149 0.93819
 C284 C 0.28282 0.55997 0.94739
 C285 C 0.29918 0.53433 0.92925
 C286 C 0.28370 0.51990 0.90279
 C287 C 0.25262 0.53127 0.89384
 C288 C 0.23620 0.55779 0.91095
 C289 C 0.33087 0.52370 0.93770
 C290 C 0.34635 0.53826 0.96422
 C291 C 0.32961 0.56322 0.98291
 C292 C 0.29799 0.57398 0.97435
 C293 C 0.34494 0.57721 1.00973
 C294 C 0.37676 0.56697 1.01774
 C295 C 0.39397 0.54282 0.99892
 C296 C 0.37843 0.52841 0.97225
 H297 H 0.23953 0.59088 0.95268
 H298 H 0.29585 0.50007 0.88869
 H299 H 0.24239 0.51991 0.87271
 H300 H 0.34356 0.50430 0.92351
 H301 H 0.28534 0.59345 0.98849
 H302 H 0.33242 0.59624 1.02440
 H303 H 0.38816 0.57844 1.03840
 H304 H 0.39129 0.50949 0.95770
 C305 C -0.24803 0.96359 0.08261
 C306 C -0.21741 0.96631 0.06693
 C307 C -0.21605 0.96129 0.03440
 C308 C -0.24535 0.95385 0.01808
 C309 C -0.27547 0.94991 0.03385
 C310 C -0.27731 0.95399 0.06642
 C311 C -0.18540 0.96311 0.01877
 C312 C -0.15588 0.96916 0.03533
 C313 C -0.15728 0.97387 0.06792
 C314 C -0.18797 0.97273 0.08344
 C315 C -0.12792 0.97961 0.08458
 C316 C -0.09747 0.98127 0.06917
 C317 C -0.09558 0.97724 0.03670
 C318 C -0.12498 0.97075 0.01990
 H319 H -0.24840 0.96648 0.10759
 H320 H -0.24490 0.95027 -0.00689
 H321 H -0.29745 0.94387 0.02028
 H322 H -0.18448 0.95935 -0.00620
 H323 H -0.18886 0.97633 0.10843
 H324 H -0.12851 0.98310 0.10955
 H325 H -0.07530 0.98619 0.08282
 H326 H -0.12393 0.96778 -0.00511
 C327 C 0.74218 0.08104 0.57825
 C328 C 0.71288 0.06679 0.56486
 C329 C 0.70676 0.03047 0.56505
 C330 C 0.72947 0.00911 0.57903
 C331 C 0.75773 0.02348 0.59332
 C332 C 0.76468 0.05963 0.59329
 C333 C 0.67769 0.01600 0.55187
 C334 C 0.65381 0.03747 0.53961
 C335 C 0.65930 0.07392 0.54005
 C336 C 0.68912 0.08832 0.55212
 C337 C 0.63448 0.09531 0.52906
 C338 C 0.60433 0.08076 0.51832
 C339 C 0.59891 0.04453 0.51753
 C340 C 0.62401 0.02304 0.52781
 H341 H 0.74637 0.10894 0.57835
 H342 H 0.72516 -0.01880 0.57930
 H343 H 0.77464 0.00580 0.60357
 H344 H 0.67322 -0.01193 0.55194
 H345 H 0.69342 0.11626 0.55233
 H346 H 0.63812 0.12332 0.52936
 H347 H 0.58527 0.09779 0.51055
 H348 H 0.61981 -0.00491 0.52777
 C349 C 0.37977 0.23603 0.40015
 C350 C 0.39564 0.20471 0.40591
 C351 C 0.41448 0.18806 0.38225
 C352 C 0.41785 0.20340 0.35353
 C353 C 0.40341 0.23529 0.34843
 C354 C 0.38414 0.25221 0.37157
 C355 C 0.43027 0.15674 0.38785
 C356 C 0.42883 0.14265 0.41731
 C357 C 0.41098 0.16001 0.44132
 C358 C 0.39391 0.19043 0.43530
 C359 C 0.41098 0.14699 0.47116
 C360 C 0.42863 0.11723 0.47725
 C361 C 0.44583 0.09934 0.45347
 C362 C 0.44556 0.11191 0.42339
 H363 H 0.36575 0.24874 0.41858
 H364 H 0.43217 0.19102 0.33510
 H365 H 0.40663 0.24606 0.32580
 H366 H 0.44441 0.14387 0.36953
 H367 H 0.38001 0.20346 0.45370
 H368 H 0.39763 0.16002 0.48988
 H369 H 0.42835 0.10775 0.50056
 H370 H 0.45903 0.09833 0.40504
 C371 C 0.89325 0.23622 0.60033
 C372 C 0.90820 0.26860 0.59383
 C373 C 0.94116 0.27623 0.60328
 C374 C 0.95850 0.25155 0.61934
 C375 C 0.94340 0.21968 0.62620
 C376 C 0.91048 0.21128 0.61691
 C377 C 0.95627 0.30841 0.59658
 C378 C 0.93869 0.33331 0.58075
 C379 C 0.90550 0.32585 0.57175
 C380 C 0.89053 0.29358 0.57823
 C381 C 0.88781 0.35074 0.55621
 C382 C 0.90290 0.38251 0.54918
 C383 C 0.93611 0.39019 0.55746
 C384 C 0.95381 0.36544 0.57356
 H385 H 0.86782 0.23123 0.59330
 H386 H 0.98386 0.25686 0.62665
 H387 H 0.95827 0.20140 0.63811
 H388 H 0.98167 0.31406 0.60368
 H389 H 0.86514 0.28793 0.57111
 H390 H 0.86232 0.34553 0.54924
 H391 H 0.88854 0.40095 0.53681
 H392 H 0.97938 0.37092 0.58010
 C393 C 0.08135 0.73497 -0.10016
 C394 C 0.07459 0.76903 -0.08899
 C395 C 0.09911 0.78812 -0.07193
 C396 C 0.12959 0.77317 -0.06612
 C397 C 0.13590 0.73939 -0.07665
 C398 C 0.11202 0.71939 -0.09372
 C399 C 0.09289 0.82188 -0.06066
 C400 C 0.06219 0.83695 -0.06569
 C401 C 0.03726 0.81812 -0.08238
 C402 C 0.04367 0.78427 -0.09414
 C403 C 0.00639 0.83355 -0.08676
 C404 C 0.00040 0.86721 -0.07471
 C405 C 0.02528 0.88615 -0.05830
 C406 C 0.05612 0.87062 -0.05399
 H407 H 0.06221 0.72041 -0.11278
 H408 H 0.14869 0.78763 -0.05327
 H409 H 0.16022 0.72964 -0.07196
 H410 H 0.11192 0.83637 -0.04768
 H411 H 0.02461 0.76976 -0.10702
 H412 H -0.01314 0.81957 -0.09942
 H413 H -0.02359 0.87850 -0.07841
 H414 H 0.07556 0.88465 -0.04120
 C415 C 0.55882 0.79109 1.09662
 C416 C 0.55003 0.75777 1.08451
 C417 C 0.55604 0.74944 1.05292
 C418 C 0.56894 0.77484 1.03363
 C419 C 0.57777 0.80769 1.04575
 C420 C 0.57429 0.81609 1.07768
 C421 C 0.54981 0.71563 1.04113
 C422 C 0.53763 0.68985 1.06053
 C423 C 0.53010 0.69829 1.09184
 C424 C 0.53640 0.73225 1.10368
 C425 C 0.51690 0.67240 1.11079
 C426 C 0.51195 0.63836 1.09896
 C427 C 0.52078 0.62965 1.06825
 C428 C 0.53329 0.65560 1.04909
 H429 H 0.55527 0.79641 1.12111
 H430 H 0.57288 0.76910 1.00918
 H431 H 0.58754 0.82631 1.02971
 H432 H 0.55511 0.70919 1.01700
 H433 H 0.53137 0.73858 1.12787
 H434 H 0.51069 0.67839 1.13477
 H435 H 0.50208 0.61863 1.11400
 H436 H 0.53957 0.64909 1.02519
 C437 C 0.40512 0.40791 1.24596
 C438 C 0.41752 0.42574 1.22050
 C439 C 0.40902 0.46075 1.21654
 C440 C 0.38872 0.47750 1.23858
 C441 C 0.37666 0.45960 1.26408
 C442 C 0.38448 0.42453 1.26794
 C443 C 0.42076 0.47827 1.19054
 C444 C 0.44098 0.46117 1.16856
 C445 C 0.44991 0.42633 1.17299
 C446 C 0.43807 0.40885 1.19883
 C447 C 0.47037 0.40932 1.15135
 C448 C 0.48159 0.42641 1.12527
 C449 C 0.47246 0.46083 1.12017
 C450 C 0.45225 0.47819 1.14209
 H451 H 0.41105 0.38082 1.24816
 H452 H 0.38212 0.50441 1.23609
 H453 H 0.36132 0.47336 1.28083
 H454 H 0.41401 0.50504 1.18733
 H455 H 0.44473 0.38203 1.20199
 H456 H 0.47751 0.38267 1.15447
 H457 H 0.49709 0.41235 1.10880
 H458 H 0.44515 0.50476 1.13849
 C459 C 0.60192 -0.07023 0.24922
 C460 C 0.59043 -0.05790 0.27825
 C461 C 0.58273 -0.02237 0.28267
 C462 C 0.58828 0.00050 0.25846
 C463 C 0.60051 -0.01186 0.22991
 C464 C 0.60675 -0.04735 0.22488
 C465 C 0.56932 -0.01037 0.31106
 C466 C 0.56432 -0.03326 0.33537
 C467 C 0.57370 -0.06837 0.33144
 C468 C 0.58626 -0.08056 0.30281
 C469 C 0.57020 -0.09078 0.35622
 C470 C 0.55706 -0.07875 0.38449
 C471 C 0.54635 -0.04438 0.38824
 C472 C 0.55009 -0.02167 0.36359
 H473 H 0.60697 -0.09760 0.24537
 H474 H 0.58280 0.02785 0.26149
 H475 H 0.60393 0.00601 0.21128
 H476 H 0.56274 0.01671 0.31419
 H477 H 0.59273 -0.10768 0.29963
 H478 H 0.57754 -0.11766 0.35372
 H479 H 0.55436 -0.09661 0.40323
 H480 H 0.54224 0.00502 0.36653
 C481 C -0.08194 1.06881 -0.24613
 C482 C -0.07278 1.05530 -0.21787
 C483 C -0.08140 1.02058 -0.21107
 C484 C -0.09871 0.99980 -0.23318
 C485 C -0.10753 1.01343 -0.26155
 C486 C -0.09938 1.04816 -0.26832
 C487 C -0.07265 1.00742 -0.18233
 C488 C -0.05506 1.02858 -0.16057
 C489 C -0.04608 1.06314 -0.16793
 C490 C -0.05517 1.07628 -0.19632
 C491 C -0.02803 1.08422 -0.14682
 C492 C -0.01879 1.07135 -0.11857
 C493 C -0.02770 1.03723 -0.11057
 C494 C -0.04608 1.01590 -0.13164
 H495 H -0.07600 1.09579 -0.25041
 H496 H -0.10543 0.97304 -0.22853
 H497 H -0.12063 0.99669 -0.27821
 H498 H -0.07942 0.98085 -0.17695
 H499 H -0.04841 1.10288 -0.20170
 H500 H -0.02096 1.11071 -0.15217
 H501 H -0.00490 1.08845 -0.10271
 H502 H -0.05293 0.98951 -0.12575
 C503 C 1.08449 0.57331 0.75694
 C504 C 1.07453 0.55815 0.72839
 C505 C 1.06871 0.52178 0.72540
 C506 C 1.07335 0.50118 0.75111
 C507 C 1.08402 0.51641 0.77928
 C508 C 1.08961 0.55255 0.78245
 C509 C 1.05863 0.50668 0.69676
 C510 C 1.05463 0.52749 0.67100
 C511 C 1.06106 0.56379 0.67413
 C512 C 1.07081 0.57883 0.70270
 C513 C 1.05739 0.58472 0.64866
 C514 C 1.04659 0.57019 0.62049
 C515 C 1.03920 0.53431 0.61697
 C516 C 1.04387 0.51287 0.64228
 H517 H 1.08936 0.60111 0.75910
 H518 H 1.06913 0.47327 0.74933
 H519 H 1.08789 0.49999 0.79873
 H520 H 1.05393 0.47884 0.69455
 H521 H 1.07552 0.60669 0.70493
 H522 H 1.06244 0.61250 0.65061
 H523 H 1.04358 0.58736 0.60142
 H524 H 1.03820 0.48523 0.63992
 C525 C 0.77169 0.62530 0.63650
 C526 C 0.79595 0.60595 0.62096
 C527 C 0.79433 0.56922 0.62116
 C528 C 0.76866 0.55260 0.63758
 C529 C 0.74436 0.57223 0.65295
 C530 C 0.74539 0.60870 0.65203
 C531 C 0.81824 0.54986 0.60480
 C532 C 0.84381 0.56689 0.58855
 C533 C 0.84556 0.60369 0.58887
 C534 C 0.82154 0.62294 0.60493
 C535 C 0.87154 0.62072 0.57337
 C536 C 0.89604 0.60152 0.55816
 C537 C 0.89455 0.56502 0.55763
 C538 C 0.86810 0.54779 0.57248
 H539 H 0.77304 0.65346 0.63624
 H540 H 0.76707 0.52448 0.63811
 H541 H 0.72418 0.55893 0.66467
 H542 H 0.81701 0.52167 0.60479
 H543 H 0.82279 0.65115 0.60498
 H544 H 0.87323 0.64888 0.57346
 H545 H 0.91631 0.61523 0.54690
 H546 H 0.86715 0.51960 0.57254
 C547 C 0.75214 0.42513 1.11651
 C548 C 0.72291 0.43290 1.10061
 C549 C 0.70409 0.40573 1.08586
 C550 C 0.71526 0.37163 1.08620
 C551 C 0.74483 0.36427 1.10093
 C552 C 0.76373 0.39069 1.11658
 C553 C 0.67437 0.41297 1.07091
 C554 C 0.66351 0.44723 1.06975
 C555 C 0.68295 0.47475 1.08321
 C556 C 0.71235 0.46739 1.09889
 C557 C 0.67240 0.50910 1.08097
 C558 C 0.64243 0.51600 1.06635
 C559 C 0.62226 0.48863 1.05416
 C560 C 0.63325 0.45431 1.05559
 H561 H 0.76644 0.44614 1.12761
 H562 H 0.70113 0.35052 1.07497
 H563 H 0.75205 0.33738 1.10096
 H564 H 0.65971 0.39192 1.06015
 H565 H 0.72697 0.48844 1.10968
 H566 H 0.68707 0.53059 1.09091
 H567 H 0.63439 0.54264 1.06567
 H568 H 0.61800 0.43303 1.04602
 C569 C 0.25424 1.10744 -0.10088
 C570 C 0.22590 1.08994 -0.08963
 C571 C 0.21850 1.05550 -0.10018
 C572 C 0.23942 1.03918 -0.12185
 C573 C 0.26697 1.05706 -0.13367
 C574 C 0.27480 1.09158 -0.12363
 C575 C 0.18990 1.03815 -0.08946
 C576 C 0.16795 1.05524 -0.06910
 C577 C 0.17508 1.08987 -0.05880
 C578 C 0.20427 1.10681 -0.06873
 C579 C 0.15250 1.10723 -0.03925
 C580 C 0.12283 1.09067 -0.03047
 C581 C 0.11556 1.05624 -0.04056
 C582 C 0.13851 1.03852 -0.05956
 H583 H 0.25893 1.13409 -0.09306
 H584 H 0.23420 1.01271 -0.13007
 H585 H 0.28244 1.04330 -0.15029
 H586 H 0.18427 1.01169 -0.09760
 H587 H 0.20972 1.13339 -0.06083
 H588 H 0.15751 1.13379 -0.03118
 H589 H 0.10556 1.10479 -0.01573
 H590 H 0.13298 1.01207 -0.06772
 C591 C 0.26894 -0.13774 0.36932
 C592 C 0.29764 -0.12015 0.38044
 C593 C 0.31451 -0.09600 0.36172
 C594 C 0.30254 -0.08995 0.33218
 C595 C 0.27383 -0.10717 0.32135
 C596 C 0.25622 -0.13121 0.33973
 C597 C 0.34291 -0.07803 0.37289
 C598 C 0.35448 -0.08361 0.40278
 C599 C 0.33760 -0.10777 0.42155
 C600 C 0.30942 -0.12600 0.41024
 C601 C 0.34906 -0.11313 0.45148
 C602 C 0.37682 -0.09457 0.46283
 C603 C 0.39381 -0.07035 0.44445
 C604 C 0.38252 -0.06516 0.41429
 H605 H 0.25611 -0.15547 0.38442
 H606 H 0.31532 -0.07172 0.31740
 H607 H 0.26612 -0.10181 0.29817
 H608 H 0.35578 -0.05947 0.35845
 H609 H 0.29648 -0.14446 0.42472
 H610 H 0.33645 -0.13155 0.46619
 H611 H 0.38497 -0.09923 0.48611
 H612 H 0.39533 -0.04658 0.39986
 C613 C 0.59479 -0.21566 0.63364
 C614 C 0.58511 -0.19150 0.61191
 C615 C 0.60914 -0.17660 0.59203
 C616 C 0.64229 -0.18613 0.59403
 C617 C 0.65149 -0.21110 0.61471
 C618 C 0.62792 -0.22668 0.63456
 C619 C 0.59966 -0.15279 0.57010
 C620 C 0.56625 -0.14418 0.56723
 C621 C 0.54205 -0.15949 0.58668
 C622 C 0.55164 -0.18280 0.60907
 C623 C 0.50862 -0.15109 0.58347
 C624 C 0.49936 -0.12713 0.56176
 C625 C 0.52332 -0.11106 0.54279
 C626 C 0.55675 -0.12018 0.54538
 H627 H 0.57605 -0.22750 0.64824
 H628 H 0.66108 -0.17476 0.57915
 H629 H 0.67742 -0.21775 0.61539
 H630 H 0.61823 -0.14124 0.55507
 H631 H 0.53305 -0.19441 0.62405
 H632 H 0.48969 -0.16268 0.59805
 H633 H 0.47340 -0.12060 0.56034
 H634 H 0.57551 -0.10794 0.53103
 C635 C 1.10770 0.71460 0.38389
 C636 C 1.09263 0.68552 0.39748
 C637 C 1.08069 0.65734 0.37847
 C638 C 1.08358 0.65897 0.34623
 C639 C 1.09782 0.68836 0.33291
 C640 C 1.11004 0.71630 0.35156
 C641 C 1.06570 0.62820 0.39194
 C642 C 1.06170 0.62722 0.42414
 C643 C 1.07301 0.65570 0.44312
 C644 C 1.08876 0.68446 0.42971
 C645 C 1.06807 0.65506 0.47521
 C646 C 1.05201 0.62657 0.48842
 C647 C 1.04107 0.59791 0.46985
 C648 C 1.04618 0.59836 0.43767
 H649 H 1.11675 0.73635 0.39830
 H650 H 1.07449 0.63768 0.33130
 H651 H 1.09961 0.68924 0.30795
 H652 H 1.05674 0.60654 0.37733
 H653 H 1.09757 0.70620 0.44430
 H654 H 1.07646 0.67669 0.49009
 H655 H 1.04849 0.62678 0.51328
 H656 H 1.03759 0.57651 0.42312
 C657 C -0.08801 1.24543 0.10293
 C658 C -0.07130 1.21562 0.09253
 C659 C -0.04901 1.19947 0.11230
 C660 C -0.04325 1.21401 0.14196
 C661 C -0.05940 1.24420 0.15197
 C662 C -0.08235 1.26031 0.13277
 C663 C -0.03276 1.16922 0.10203
 C664 C -0.03805 1.15539 0.07194
 C665 C -0.05971 1.17227 0.05195
 C666 C -0.07639 1.20199 0.06245
 C667 C -0.06439 1.15919 0.02168
 C668 C -0.04797 1.12951 0.01123
 C669 C -0.02687 1.11197 0.03094
 C670 C -0.02201 1.12506 0.06139
 H671 H -0.10450 1.25756 0.08709
 H672 H -0.02620 1.20205 0.15746
 H673 H -0.05453 1.25405 0.17523
 H674 H -0.01590 1.15662 0.11733
 H675 H -0.09322 1.21463 0.04712
 H676 H -0.08079 1.17189 0.00605
 H677 H -0.05231 1.11989 -0.01226
 H678 H -0.00565 1.11184 0.07671
 C679 C 0.41580 0.26490 0.90399
 C680 C 0.42927 0.29684 0.91518
 C681 C 0.42601 0.32692 0.89754
 C682 C 0.40984 0.32449 0.86894
 C683 C 0.39738 0.29247 0.85766
 C684 C 0.40020 0.26262 0.87508
 C685 C 0.43916 0.35890 0.90860
 C686 C 0.45593 0.36123 0.93688
 C687 C 0.45990 0.33116 0.95427
 C688 C 0.44637 0.29913 0.94339
 C689 C 0.47711 0.33379 0.98239
 C690 C 0.48946 0.36607 0.99356
 C691 C 0.48472 0.39623 0.97680
 C692 C 0.46839 0.39341 0.94819
 H693 H 0.41834 0.24160 0.91711
 H694 H 0.40725 0.34724 0.85512
 H695 H 0.38547 0.29083 0.83526
 H696 H 0.43636 0.38198 0.89519
 H697 H 0.44917 0.27606 0.95680
 H698 H 0.48054 0.31100 0.99598
 H699 H 0.50186 0.36757 1.01572
 H700 H 0.46471 0.41643 0.93494
 C701 C 0.59775 0.61582 0.79473
 C702 C 0.58655 0.60786 0.82450
 C703 C 0.58297 0.63479 0.84728
 C704 C 0.58950 0.66941 0.83943
 C705 C 0.60016 0.67715 0.80951
 C706 C 0.60493 0.65039 0.78714
 C707 C 0.57312 0.62663 0.87748
 C708 C 0.56604 0.59195 0.88493
 C709 C 0.56845 0.56527 0.86170
 C710 C 0.57906 0.57334 0.83180
 C711 C 0.55996 0.53088 0.86866
 C712 C 0.54905 0.52291 0.89832
 C713 C 0.54737 0.54894 0.92175
 C714 C 0.55614 0.58346 0.91508
 H715 H 0.60107 0.59516 0.77739
 H716 H 0.58671 0.69043 0.85650
 H717 H 0.60582 0.70392 0.80411
 H718 H 0.57081 0.64721 0.89508
 H719 H 0.58136 0.55276 0.81418
 H720 H 0.56143 0.51020 0.85109
 H721 H 0.54226 0.49621 0.90312
 H722 H 0.55433 0.60368 0.93306
 C723 C 0.39252 0.09167 0.71477
 C724 C 0.40383 0.08311 0.68478
 C725 C 0.41800 0.10933 0.66635
 C726 C 0.41977 0.14375 0.67786
 C727 C 0.40822 0.15209 0.70760
 C728 C 0.39493 0.12615 0.72658
 C729 C 0.43043 0.10072 0.63683
 C730 C 0.42875 0.06621 0.62541
 C731 C 0.41379 0.04010 0.64347
 C732 C 0.40153 0.04869 0.67310
 C733 C 0.41162 0.00575 0.63165
 C734 C 0.42463 -0.00276 0.60243
 C735 C 0.44032 0.02287 0.58468
 C736 C 0.44207 0.05739 0.59626
 H737 H 0.38262 0.07129 0.72908
 H738 H 0.43021 0.16422 0.66391
 H739 H 0.40967 0.17901 0.71562
 H740 H 0.44165 0.12079 0.62286
 H741 H 0.39043 0.02859 0.68711
 H742 H 0.40011 -0.01456 0.64510
 H743 H 0.42304 -0.02957 0.59397
 H744 H 0.45382 0.07740 0.58260
 C745 C 0.11977 0.87950 0.19503
 C746 C 0.10357 0.89644 0.17146
 C747 C 0.06863 0.89940 0.17249
 C748 C 0.05049 0.88464 0.19674
 C749 C 0.06683 0.86740 0.21993
 C750 C 0.10158 0.86504 0.21945
 C751 C 0.05243 0.91693 0.14924
 C752 C 0.07066 0.93085 0.12463
 C753 C 0.10552 0.92717 0.12325
 C754 C 0.12179 0.91034 0.14686
 C755 C 0.12347 0.93997 0.09801
 C756 C 0.10700 0.95581 0.07410
 C757 C 0.07247 0.95991 0.07546
 C758 C 0.05447 0.94776 0.10099
 H759 H 0.14655 0.87730 0.19434
 H760 H 0.02369 0.88654 0.19783
 H761 H 0.05243 0.85667 0.23871
 H762 H 0.02565 0.91939 0.15012
 H763 H 0.14855 0.90775 0.14592
 H764 H 0.15017 0.93722 0.09651
 H765 H 0.12126 0.96495 0.05453
 H766 H 0.02771 0.95034 0.10189
 C767 C 0.88544 0.43045 0.28011
 C768 C 0.90023 0.44272 0.30791
 C769 C 0.93440 0.45230 0.30821
 C770 C 0.95300 0.45002 0.28074
 C771 C 0.93835 0.43680 0.25354
 C772 C 0.90471 0.42654 0.25309
 C773 C 0.94976 0.46275 0.33610
 C774 C 0.93171 0.46290 0.36393
 C775 C 0.89751 0.45372 0.36371
 C776 C 0.88188 0.44406 0.33565
 C777 C 0.87972 0.45361 0.39170
 C778 C 0.89577 0.46183 0.41969
 C779 C 0.92991 0.47045 0.42023
 C780 C 0.94759 0.47132 0.39209
 H781 H 0.85961 0.42191 0.27983
 H782 H 0.97917 0.45723 0.28056
 H783 H 0.95344 0.43368 0.23285
 H784 H 0.97602 0.46974 0.33628
 H785 H 0.85573 0.43663 0.33554
 H786 H 0.85348 0.44671 0.39201
 H787 H 0.88147 0.46109 0.44096
 H788 H 0.97389 0.47803 0.39206
   
