data_POSCAR
  _audit_creation_date              2014-09-24
  _audit_creation_method            'ToBaCCo'
  _symmetry_space_group_name_H-M    'P1'
  _symmetry_Int_Tables_number       1
  _symmetry_cell_setting            triclinic
  loop_
  _symmetry_equiv_pos_as_xyz
 x,y,z
_cell_length_a 44.9908
_cell_length_b 29.5535
_cell_length_c 35.0217
_cell_angle_alpha 89.934700
_cell_angle_beta 90.145700
_cell_angle_gamma 89.955400
loop_
  _atom_site_label
  _atom_site_type_symbol
  _atom_site_fract_x
  _atom_site_fract_y
  _atom_site_fract_z
C1 C 0.21717 0.24776 0.24157
 C2 C 0.21951 0.29580 0.24051
 C3 C 0.24210 0.31734 0.26106
 C4 C 0.26329 0.29301 0.28208
 C5 C 0.26217 0.24472 0.28253
 C6 C 0.23882 0.22332 0.26235
 H7 H 0.23747 0.18679 0.26273
 H8 H 0.24340 0.35399 0.26034
 C9 C 0.77632 0.26479 0.23456
 C10 C 0.77352 0.21698 0.22898
 C11 C 0.75164 0.19273 0.24889
 C12 C 0.73219 0.21427 0.27412
 C13 C 0.73477 0.26134 0.27988
 C14 C 0.75660 0.28582 0.26041
 H15 H 0.75844 0.32169 0.26635
 H16 H 0.74947 0.15658 0.24432
 C17 C 0.73862 0.74405 0.70908
 C18 C 0.73757 0.79162 0.71218
 C19 C 0.75898 0.81394 0.73444
 C20 C 0.78098 0.78991 0.75500
 C21 C 0.78114 0.74173 0.75233
 C22 C 0.76011 0.71975 0.72936
 H23 H 0.76069 0.68316 0.72689
 H24 H 0.75747 0.85042 0.73707
 C25 C 0.26568 0.76160 0.71768
 C26 C 0.26669 0.71374 0.71891
 C27 C 0.24619 0.69034 0.74169
 C28 C 0.22514 0.71305 0.76451
 C29 C 0.22622 0.76130 0.76569
 C30 C 0.24584 0.78465 0.74158
 H31 H 0.24605 0.82134 0.74194
 H32 H 0.24634 0.65375 0.74059
 O33 O 1.03741 -0.05920 -0.00893
 O34 O 0.97981 -0.01396 0.05534
 O35 O 0.97978 -0.06583 -0.00460
 O36 O 1.03780 -0.00959 0.05194
 O37 O 1.03244 0.05232 0.01719
 O38 O 0.97614 -0.00591 -0.04193
 O39 O 0.97473 0.04560 0.01786
 O40 O 1.03368 0.00210 -0.04463
 Cu41 Cu 1.00911 -0.04318 0.02712
 Cu42 Cu 1.00396 0.02966 -0.01651
 C43 C 1.04542 -0.03616 -0.03779
 C44 C 0.96711 0.02331 0.04724
 C45 C 0.96809 -0.04578 -0.03300
 C46 C 1.04490 0.03097 0.04442
 O47 O 0.53442 0.42919 0.50129
 O48 O 0.47820 0.48901 0.55907
 O49 O 0.47610 0.43079 0.50466
 O50 O 0.53565 0.48705 0.55841
 O51 O 0.53800 0.54070 0.51460
 O52 O 0.47437 0.48856 0.46474
 O53 O 0.48078 0.54721 0.51947
 O54 O 0.53163 0.48342 0.45795
 Cu55 Cu 0.50640 0.45313 0.53492
 Cu56 Cu 0.50634 0.52052 0.48491
 C57 C 0.54187 0.44569 0.46918
 C58 C 0.47036 0.52867 0.54926
 C59 C 0.46436 0.45070 0.47623
 C60 C 0.54681 0.52361 0.54596
 O61 O 0.02115 0.49407 -0.06096
 O62 O -0.03175 0.42959 -0.00208
 O63 O -0.03643 0.48649 -0.06029
 O64 O 0.02549 0.43804 -0.00513
 O65 O 0.02309 0.49531 0.03511
 O66 O -0.04030 0.54234 -0.01864
 O67 O -0.03460 0.48685 0.03823
 O68 O 0.01693 0.55218 -0.02168
 Cu69 Cu -0.00541 0.45625 -0.03624
 Cu70 Cu -0.00898 0.52486 0.01238
 C71 C 0.02801 0.53413 -0.05130
 C72 C -0.04185 0.44704 0.02840
 C73 C -0.04872 0.52275 -0.04900
 C74 C 0.03513 0.45861 0.02417
 O75 O 0.52051 1.01811 0.45601
 O76 O 0.46248 0.96177 0.51362
 O77 O 0.46246 1.02182 0.45911
 O78 O 0.52045 0.95649 0.50840
 O79 O 0.52333 1.00873 0.55323
 O80 O 0.46794 1.07728 0.50078
 O81 O 0.46558 1.01671 0.55600
 O82 O 0.52533 1.06983 0.50099
 Cu83 Cu 0.49092 0.98415 0.47996
 Cu84 Cu 0.49562 1.04848 0.53221
 C85 C 0.53337 1.05306 0.46932
 C86 C 0.45409 0.97985 0.54472
 C87 C 0.45579 1.06104 0.47099
 C88 C 0.53208 0.97151 0.53892
 C89 C 1.14294 0.22014 0.19891
 C90 C 1.14918 0.18070 0.17763
 C91 C 1.17765 0.16087 0.18206
 C92 C 1.19978 0.18260 0.20368
 C93 C 1.19406 0.22389 0.22236
 C94 C 1.16479 0.24070 0.22125
 C95 C 1.18409 0.11979 0.16433
 C96 C 1.16272 0.09755 0.14267
 C97 C 1.13432 0.11662 0.13650
 C98 C 1.12802 0.15995 0.15268
 C99 C 1.10133 0.18191 0.14220
 C100 C 1.08108 0.16169 0.11751
 C101 C 1.08601 0.11816 0.10353
 C102 C 1.11231 0.09443 0.11371
 C103 C 1.11519 0.04908 0.10126
 C104 C 1.09319 0.02878 0.07897
 C105 C 1.06801 0.05315 0.06761
 C106 C 1.06459 0.09793 0.07976
 H107 H 1.12110 0.23518 0.19967
 H108 H 1.22194 0.16822 0.20412
 H109 H 1.15853 0.26992 0.23800
 H110 H 1.20584 0.10441 0.16748
 H111 H 1.16959 0.06622 0.12967
 H112 H 1.09603 0.21573 0.15148
 H113 H 1.06111 0.18011 0.10976
 H114 H 1.13369 0.02792 0.10932
 H115 H 1.09597 -0.00613 0.07026
 H116 H 1.04471 0.11649 0.07175
 C117 C 0.70301 0.68675 0.62437
 C118 C 0.67625 0.66970 0.63994
 C119 C 0.67134 0.67573 0.67963
 C120 C 0.69144 0.70082 0.70186
 C121 C 0.71721 0.71853 0.68552
 C122 C 0.72333 0.71015 0.64710
 C123 C 0.64654 0.65643 0.69695
 C124 C 0.62680 0.63019 0.67599
 C125 C 0.63047 0.62375 0.63633
 C126 C 0.65464 0.64597 0.61770
 C127 C 0.65591 0.64486 0.57743
 C128 C 0.63469 0.62185 0.55610
 C129 C 0.61211 0.59756 0.57401
 C130 C 0.61022 0.59697 0.61445
 C131 C 0.58839 0.56897 0.63133
 C132 C 0.56852 0.54436 0.60888
 C133 C 0.56941 0.54727 0.56902
 C134 C 0.59134 0.57379 0.55170
 H135 H 0.70931 0.68127 0.59506
 H136 H 0.68729 0.70617 0.73202
 H137 H 0.74383 0.72227 0.63455
 H138 H 0.64257 0.66107 0.72722
 H139 H 0.60810 0.61673 0.69146
 H140 H 0.67248 0.66309 0.56143
 H141 H 0.63621 0.62262 0.52521
 H142 H 0.58653 0.56458 0.66178
 H143 H 0.55190 0.52369 0.62286
 H144 H 0.59246 0.57544 0.52079
 C145 C -0.19081 0.36210 0.18080
 C146 C -0.16275 0.34518 0.16973
 C147 C -0.15486 0.30113 0.18203
 C148 C -0.17385 0.27636 0.20597
 C149 C -0.20258 0.29209 0.21479
 C150 C -0.21031 0.33596 0.20250
 C151 C -0.12837 0.28149 0.16965
 C152 C -0.11011 0.30390 0.14387
 C153 C -0.11696 0.34796 0.13093
 C154 C -0.14269 0.36996 0.14603
 C155 C -0.14719 0.41617 0.13756
 C156 C -0.12774 0.43975 0.11413
 C157 C -0.10380 0.41786 0.09696
 C158 C -0.09852 0.37130 0.10417
 C159 C -0.07535 0.34988 0.08366
 C160 C -0.05757 0.37428 0.05827
 C161 C -0.06190 0.42076 0.05313
 C162 C -0.08509 0.44234 0.07247
 H163 H -0.19909 0.39445 0.17129
 H164 H -0.16604 0.24451 0.21748
 H165 H -0.23226 0.34962 0.20772
 H166 H -0.12215 0.24780 0.17901
 H167 H -0.09014 0.28640 0.13550
 H168 H -0.16505 0.43559 0.14984
 H169 H -0.13180 0.47539 0.10890
 H170 H -0.07092 0.31412 0.08594
 H171 H -0.03991 0.35692 0.04325
 H172 H -0.08887 0.47820 0.06791
 C173 C 0.30684 0.80074 0.62933
 C174 C 0.32635 0.83409 0.64409
 C175 C 0.32356 0.84549 0.68326
 C176 C 0.30329 0.82256 0.70676
 C177 C 0.28521 0.78827 0.69197
 C178 C 0.28661 0.77845 0.65294
 C179 C 0.34131 0.87927 0.69903
 C180 C 0.36185 0.90231 0.67688
 C181 C 0.36595 0.89188 0.63789
 C182 C 0.34841 0.85645 0.62145
 C183 C 0.35404 0.84379 0.58326
 C184 C 0.37577 0.86518 0.56171
 C185 C 0.39246 0.90058 0.57694
 C186 C 0.38749 0.91503 0.61501
 C187 C 0.40427 0.95228 0.62848
 C188 C 0.42552 0.97316 0.60552
 C189 C 0.43095 0.95785 0.56835
 C190 C 0.41419 0.92158 0.55419
 H191 H 0.30645 0.79122 0.59966
 H192 H 0.30212 0.83053 0.73694
 H193 H 0.27226 0.75278 0.64078
 H194 H 0.33930 0.88804 0.72897
 H195 H 0.37479 0.92746 0.69163
 H196 H 0.34249 0.81651 0.56931
 H197 H 0.37949 0.85389 0.53266
 H198 H 0.40135 0.96663 0.65646
 H199 H 0.43794 1.00137 0.61716
 H200 H 0.41790 0.90978 0.52528
 C201 C -0.14470 0.68937 -0.22199
 C202 C -0.15231 0.66025 -0.19133
 C203 C -0.18249 0.65888 -0.17979
 C204 C -0.20413 0.68393 -0.19950
 C205 C -0.19604 0.71297 -0.22924
 C206 C -0.16630 0.71552 -0.24039
 C207 C -0.19088 0.63322 -0.14818
 C208 C -0.16979 0.61008 -0.12673
 C209 C -0.13948 0.61035 -0.13699
 C210 C -0.13092 0.63353 -0.17111
 C211 C -0.10146 0.62855 -0.18422
 C212 C -0.08074 0.60321 -0.16392
 C213 C -0.08818 0.58339 -0.12909
 C214 C -0.11748 0.58749 -0.11462
 C215 C -0.12327 0.56980 -0.07774
 C216 C -0.10091 0.54852 -0.05658
 C217 C -0.07251 0.54319 -0.07186
 C218 C -0.06625 0.56025 -0.10818
 H219 H -0.12213 0.69397 -0.23144
 H220 H -0.22720 0.68253 -0.19064
 H221 H -0.15977 0.73819 -0.26321
 H222 H -0.21395 0.63180 -0.13941
 H223 H -0.17808 0.59098 -0.10279
 H224 H -0.09397 0.64277 -0.21086
 H225 H -0.05843 0.59998 -0.17523
 H226 H -0.14448 0.57347 -0.06384
 H227 H -0.10578 0.53620 -0.02813
 H228 H -0.04391 0.55706 -0.11946
 C229 C 0.29440 1.15183 0.34267
 C230 C 0.32440 1.16512 0.34663
 C231 C 0.33347 1.20530 0.32800
 C232 C 0.31361 1.22917 0.30444
 C233 C 0.28331 1.21737 0.30239
 C234 C 0.27431 1.17767 0.32140
 C235 C 0.36215 1.22204 0.33358
 C236 C 0.38175 1.20056 0.35841
 C237 C 0.37392 1.15993 0.37706
 C238 C 0.34547 1.14052 0.36915
 C239 C 0.33932 1.09670 0.38310
 C240 C 0.36006 1.07296 0.40469
 C241 C 0.38711 1.09270 0.41474
 C242 C 0.39401 1.13713 0.40228
 C243 C 0.42059 1.15706 0.41604
 C244 C 0.44007 1.13283 0.43959
 C245 C 0.43397 1.08794 0.44940
 C246 C 0.40741 1.06811 0.43712
 H247 H 0.28534 1.12297 0.35746
 H248 H 0.32196 1.25742 0.28797
 H249 H 0.25121 1.16741 0.32172
 H250 H 0.36923 1.25286 0.31947
 H251 H 0.40345 1.21565 0.36131
 H252 H 0.31905 1.07897 0.37632
 H253 H 0.35468 1.03897 0.41406
 H254 H 0.42659 1.19158 0.40972
 H255 H 0.46041 1.14878 0.44926
 H256 H 0.40243 1.03356 0.44541
 C257 C 1.19198 -0.20179 -0.14080
 C258 C 1.17144 -0.16817 -0.15258
 C259 C 1.17200 -0.15458 -0.19144
 C260 C 1.19071 -0.17643 -0.21766
 C261 C 1.20927 -0.21182 -0.20586
 C262 C 1.21059 -0.22303 -0.16706
 C263 C 1.15341 -0.11996 -0.20418
 C264 C 1.13396 -0.09857 -0.17933
 C265 C 1.13175 -0.11178 -0.14067
 C266 C 1.15034 -0.14786 -0.12730
 C267 C 1.14647 -0.16356 -0.08954
 C268 C 1.12534 -0.14467 -0.06556
 C269 C 1.10758 -0.10881 -0.07781
 C270 C 1.11092 -0.09108 -0.11520
 C271 C 1.09316 -0.05333 -0.12546
 C272 C 1.07235 -0.03534 -0.10015
 C273 C 1.06837 -0.05425 -0.06385
 C274 C 1.08629 -0.09079 -0.05278
 H275 H 1.19430 -0.21246 -0.11153
 H276 H 1.18999 -0.16716 -0.24762
 H277 H 1.22552 -0.24939 -0.15723
 H278 H 1.15379 -0.10936 -0.23382
 H279 H 1.12017 -0.07265 -0.19180
 H280 H 1.15882 -0.19159 -0.07788
 H281 H 1.12286 -0.15840 -0.03702
 H282 H 1.09495 -0.03653 -0.15265
 H283 H 1.05902 -0.00677 -0.10932
 H284 H 1.08375 -0.10523 -0.02450
 C285 C 0.70382 0.32055 0.36663
 C286 C 0.67337 0.32540 0.35708
 C287 C 0.66423 0.31205 0.31996
 C288 C 0.68444 0.29168 0.29481
 C289 C 0.71417 0.28588 0.30535
 C290 C 0.72390 0.30144 0.34090
 C291 C 0.63497 0.31892 0.30816
 C292 C 0.61464 0.34013 0.33194
 C293 C 0.62256 0.35378 0.36923
 C294 C 0.65185 0.34380 0.38276
 C295 C 0.65838 0.35143 0.42168
 C296 C 0.63734 0.36976 0.44624
 C297 C 0.60947 0.38300 0.43270
 C298 C 0.60194 0.37623 0.39374
 C299 C 0.57440 0.39355 0.38063
 C300 C 0.55512 0.41593 0.40536
 C301 C 0.56221 0.42078 0.44401
 C302 C 0.58925 0.40385 0.45773
 H303 H 0.71289 0.33202 0.39344
 H304 H 0.67709 0.28008 0.26696
 H305 H 0.74698 0.29752 0.34918
 H306 H 0.62778 0.30840 0.27996
 H307 H 0.59244 0.34392 0.32077
 H308 H 0.67937 0.34210 0.43434
 H309 H 0.64322 0.37458 0.47600
 H310 H 0.56764 0.39195 0.35111
 H311 H 0.53444 0.42946 0.39425
 H312 H 0.59503 0.40862 0.48754
 C313 C 0.83487 -0.12111 -0.21379
 C314 C 0.84483 -0.13763 -0.17799
 C315 C 0.83207 -0.17840 -0.16449
 C316 C 0.81039 -0.20116 -0.18595
 C317 C 0.80162 -0.18564 -0.22222
 C318 C 0.81368 -0.14457 -0.23524
 C319 C 0.84099 -0.19657 -0.12957
 C320 C 0.86287 -0.17578 -0.10789
 C321 C 0.87665 -0.13536 -0.12009
 C322 C 0.86696 -0.11534 -0.15528
 C323 C 0.87960 -0.07363 -0.16640
 C324 C 0.90117 -0.05247 -0.14434
 C325 C 0.91141 -0.07211 -0.11059
 C326 C 0.89957 -0.11404 -0.09808
 C327 C 0.91146 -0.13303 -0.06416
 C328 C 0.93363 -0.11090 -0.04346
 C329 C 0.94481 -0.06910 -0.05559
 C330 C 0.93358 -0.04994 -0.08930
 H331 H 0.84341 -0.09066 -0.22658
 H332 H 0.79969 -0.23044 -0.17357
 H333 H 0.80775 -0.13126 -0.26307
 H334 H 0.83115 -0.22764 -0.11901
 H335 H 0.86821 -0.19218 -0.08129
 H336 H 0.87308 -0.05595 -0.19197
 H337 H 0.91008 -0.02038 -0.15402
 H338 H 0.90448 -0.16521 -0.05294
 H339 H 0.94197 -0.12671 -0.01765
 H340 H 0.94223 -0.01778 -0.09921
 C341 C 0.32576 0.37444 0.30403
 C342 C 0.33174 0.36594 0.34310
 C343 C 0.31353 0.33402 0.36226
 C344 C 0.28994 0.31269 0.34308
 C345 C 0.28537 0.32000 0.30399
 C346 C 0.30309 0.35161 0.28491
 C347 C 0.31947 0.32253 0.40011
 C348 C 0.34374 0.34081 0.41918
 C349 C 0.36267 0.37252 0.40136
 C350 C 0.35567 0.38694 0.36337
 C351 C 0.37265 0.42213 0.34703
 C352 C 0.39633 0.44148 0.36650
 C353 C 0.40451 0.42599 0.40262
 C354 C 0.38812 0.39087 0.42043
 C355 C 0.39828 0.37506 0.45635
 C356 C 0.42310 0.39420 0.47402
 C357 C 0.43860 0.42981 0.45675
 C358 C 0.42916 0.44549 0.42097
 H359 H 0.33899 0.39699 0.28690
 H360 H 0.27610 0.28844 0.35800
 H361 H 0.30001 0.35756 0.25463
 H362 H 0.30558 0.29828 0.41495
 H363 H 0.34670 0.33006 0.44833
 H364 H 0.36776 0.43639 0.31942
 H365 H 0.40860 0.46859 0.35287
 H366 H 0.38794 0.34736 0.47127
 H367 H 0.43004 0.38119 0.50157
 H368 H 0.44123 0.47265 0.40710
 C369 C 0.18976 0.61911 -0.17984
 C370 C 0.16061 0.63548 -0.17397
 C371 C 0.15351 0.67883 -0.18859
 C372 C 0.17427 0.70307 -0.21032
 C373 C 0.20355 0.68722 -0.21523
 C374 C 0.21074 0.64458 -0.19976
 C375 C 0.12579 0.69805 -0.18120
 C376 C 0.10523 0.67576 -0.15843
 C377 C 0.11112 0.63223 -0.14360
 C378 C 0.13853 0.61073 -0.15345
 C379 C 0.14263 0.56488 -0.14337
 C380 C 0.12108 0.54123 -0.12329
 C381 C 0.09520 0.56273 -0.11109
 C382 C 0.09018 0.60892 -0.12010
 C383 C 0.06473 0.63009 -0.10444
 C384 C 0.04481 0.60587 -0.08172
 C385 C 0.04925 0.55979 -0.07468
 C386 C 0.07440 0.53833 -0.08953
 H387 H 0.19747 0.58759 -0.16786
 H388 H 0.16722 0.73424 -0.22384
 H389 H 0.23312 0.63127 -0.20143
 H390 H 0.12018 0.73121 -0.19239
 H391 H 0.08434 0.69285 -0.15406
 H392 H 0.16191 0.54578 -0.15191
 H393 H 0.12497 0.50587 -0.11665
 H394 H 0.06010 0.66560 -0.10824
 H395 H 0.02563 0.62309 -0.07000
 H396 H 0.07820 0.50282 -0.08330
 C397 C 0.66511 1.13974 0.29139
 C398 C 0.66157 1.14245 0.33154
 C399 C 0.68284 1.16791 0.35238
 C400 C 0.70672 1.18869 0.33372
 C401 C 0.70911 1.18724 0.29395
 C402 C 0.68846 1.16203 0.27302
 C403 C 0.67993 1.17334 0.39167
 C404 C 0.65577 1.15535 0.41087
 C405 C 0.63374 1.13017 0.39154
 C406 C 0.63742 1.12176 0.35159
 C407 C 0.61706 1.09259 0.33324
 C408 C 0.59353 1.07311 0.35296
 C409 C 0.58877 1.08291 0.39141
 C410 C 0.60843 1.11236 0.41105
 C411 C 0.60163 1.12339 0.44934
 C412 C 0.57710 1.10458 0.46760
 C413 C 0.55846 1.07403 0.44861
 C414 C 0.56436 1.06346 0.41036
 H415 H 0.64965 1.12214 0.27319
 H416 H 0.72312 1.20729 0.35012
 H417 H 0.68991 1.16065 0.24217
 H418 H 0.69627 1.19248 0.40773
 H419 H 0.65542 1.16090 0.44125
 H420 H 0.61913 1.08313 0.30367
 H421 H 0.57867 1.05052 0.33777
 H422 H 0.61443 1.14717 0.46585
 H423 H 0.57295 1.11374 0.49706
 H424 H 0.54979 1.04039 0.39521
 C425 C 0.16368 0.38446 0.20970
 C426 C 0.15921 0.37414 0.17059
 C427 C 0.17668 0.33902 0.15452
 C428 C 0.19754 0.31556 0.17684
 C429 C 0.20040 0.32467 0.21587
 C430 C 0.18389 0.35995 0.23186
 C431 C 0.17270 0.32651 0.11653
 C432 C 0.15083 0.34668 0.09431
 C433 C 0.13222 0.38088 0.10914
 C434 C 0.13742 0.39634 0.14730
 C435 C 0.12061 0.43331 0.16089
 C436 C 0.09856 0.45321 0.13872
 C437 C 0.09197 0.43672 0.10242
 C438 C 0.10859 0.40022 0.08707
 C439 C 0.10026 0.38383 0.05062
 C440 C 0.07665 0.40303 0.03045
 C441 C 0.06053 0.43932 0.04562
 C442 C 0.06851 0.45625 0.08156
 H443 H 0.15115 0.41002 0.22450
 H444 H 0.21065 0.28859 0.16432
 H445 H 0.18588 0.36751 0.26202
 H446 H 0.18622 0.30004 0.10401
 H447 H 0.14932 0.33490 0.06530
 H448 H 0.12416 0.44819 0.18857
 H449 H 0.08616 0.48141 0.15046
 H450 H 0.11098 0.35546 0.03716
 H451 H 0.07094 0.38914 0.00278
 H452 H 0.05603 0.48409 0.09375
 C453 C 0.66975 0.86654 0.70267
 C454 C 0.66384 0.86550 0.66291
 C455 C 0.68336 0.83998 0.63956
 C456 C 0.70816 0.81803 0.65542
 C457 C 0.71308 0.81836 0.69485
 C458 C 0.69390 0.84313 0.71823
 C459 C 0.67788 0.83594 0.60055
 C460 C 0.65292 0.85562 0.58412
 C461 C 0.63277 0.88141 0.60601
 C462 C 0.63908 0.88820 0.64566
 C463 C 0.62080 0.91814 0.66649
 C464 C 0.59691 0.94013 0.64940
 C465 C 0.58963 0.93213 0.61128
 C466 C 0.60695 0.90171 0.58929
 C467 C 0.59747 0.89252 0.55153
 C468 C 0.57277 0.91432 0.53587
 C469 C 0.55673 0.94616 0.55705
 C470 C 0.56514 0.95460 0.59493
 H471 H 0.65560 0.88381 0.72269
 H472 H 0.72352 0.80020 0.63705
 H473 H 0.69731 0.84362 0.74887
 H474 H 0.69282 0.81667 0.58255
 H475 H 0.65052 0.85108 0.55376
 H476 H 0.62494 0.92649 0.69596
 H477 H 0.58381 0.96340 0.66637
 H478 H 0.60834 0.86812 0.53348
 H479 H 0.56659 0.90679 0.50664
 H480 H 0.55254 0.97862 0.61179
 C481 C 0.81271 0.18259 0.13801
 C482 C 0.83309 0.14949 0.15138
 C483 C 0.83055 0.13532 0.18994
 C484 C 0.81009 0.15609 0.21448
 C485 C 0.79180 0.19113 0.20138
 C486 C 0.79234 0.20287 0.16270
 C487 C 0.84897 0.10133 0.20419
 C488 C 0.87029 0.08122 0.18123
 C489 C 0.87455 0.09508 0.14303
 C490 C 0.85596 0.13033 0.12806
 C491 C 0.86154 0.14635 0.09077
 C492 C 0.88428 0.12853 0.06873
 C493 C 0.90215 0.09359 0.08255
 C494 C 0.89730 0.07571 0.11960
 C495 C 0.91554 0.03916 0.13154
 C496 C 0.93797 0.02217 0.10805
 C497 C 0.94312 0.04095 0.07197
 C498 C 0.92498 0.07657 0.05939
 H499 H 0.81195 0.19374 0.10874
 H500 H 0.80926 0.14642 0.24435
 H501 H 0.77772 0.22912 0.15194
 H502 H 0.84702 0.09030 0.23362
 H503 H 0.88373 0.05570 0.19482
 H504 H 0.84920 0.17371 0.07801
 H505 H 0.88794 0.14237 0.04044
 H506 H 0.91293 0.02249 0.15867
 H507 H 0.95147 -0.00567 0.11835
 H508 H 0.92846 0.09096 0.03126
 C509 C 0.30223 0.62315 0.65735
 C510 C 0.33273 0.63478 0.65865
 C511 C 0.34089 0.67434 0.67896
 C512 C 0.31954 0.69892 0.69943
 C513 C 0.28941 0.68705 0.69777
 C514 C 0.28101 0.64915 0.67634
 C515 C 0.37026 0.68933 0.67859
 C516 C 0.39169 0.66660 0.65754
 C517 C 0.38478 0.62662 0.63737
 C518 C 0.35525 0.60905 0.63987
 C519 C 0.34943 0.56581 0.62449
 C520 C 0.37148 0.54117 0.60618
 C521 C 0.39976 0.55939 0.60100
 C522 C 0.40661 0.60295 0.61557
 C523 C 0.43479 0.62151 0.60678
 C524 C 0.45536 0.59727 0.58512
 C525 C 0.44882 0.55357 0.57253
 C526 C 0.42114 0.53457 0.58072
 H527 H 0.29398 0.59508 0.64082
 H528 H 0.32639 0.72773 0.71642
 H529 H 0.25781 0.63973 0.67404
 H530 H 0.37664 0.71952 0.69413
 H531 H 0.41388 0.68024 0.65880
 H532 H 0.32819 0.54933 0.62745
 H533 H 0.36613 0.50783 0.59526
 H534 H 0.44116 0.65529 0.61500
 H535 H 0.47658 0.61261 0.57837
 H536 H 0.41589 0.50107 0.57002
   
