data_POSCAR
  _audit_creation_date              2014-09-24
  _audit_creation_method            'ToBaCCo'
  _symmetry_space_group_name_H-M    'P1'
  _symmetry_Int_Tables_number       1
  _symmetry_cell_setting            triclinic
  loop_
  _symmetry_equiv_pos_as_xyz
 x,y,z
_cell_length_a 25.2743
_cell_length_b 25.2143
_cell_length_c 24.4947
_cell_angle_alpha 89.954500
_cell_angle_beta 89.468100
_cell_angle_gamma 89.740700
loop_
  _atom_site_label
  _atom_site_type_symbol
  _atom_site_fract_x
  _atom_site_fract_y
  _atom_site_fract_z
C1 C 0.32741 0.31663 0.22580
 H2 H 0.32993 0.31728 0.26986
 C3 C 0.36177 0.34753 0.19434
 H4 H 0.39063 0.37233 0.21429
 C5 C 0.28652 0.28363 0.14606
 H6 H 0.25803 0.25789 0.12724
 C7 C 0.31938 0.31474 0.11310
 H8 H 0.31549 0.31320 0.06913
 N9 N 0.29038 0.28594 0.20140
 C10 C 0.17292 0.27218 0.33140
 H11 H 0.17474 0.23008 0.33979
 C12 C 0.14103 0.30504 0.36370
 H13 H 0.12010 0.28750 0.39785
 C14 C 0.20015 0.34530 0.27760
 H15 H 0.22279 0.36064 0.24348
 C16 C 0.16720 0.37934 0.30755
 H17 H 0.16480 0.42046 0.29524
 Zn18 Zn 0.24569 0.24638 0.24839
 N19 N 0.20285 0.29290 0.29036
 C20 C 0.29191 0.21269 0.34852
 N21 N 0.29028 0.20487 0.29361
 C22 C 0.32243 0.16861 0.26882
 C23 C 0.35659 0.13713 0.29967
 C24 C 0.32531 0.18198 0.38092
 C25 C 0.16646 0.22719 0.17211
 C26 C 0.13240 0.19726 0.14003
 C27 C 0.16378 0.11815 0.18539
 C28 C 0.19802 0.14950 0.21587
 N29 N 0.19945 0.20291 0.20801
 H30 H 0.26779 0.24304 0.36745
 H31 H 0.32138 0.16412 0.22492
 H32 H 0.38201 0.10870 0.27906
 H33 H 0.32501 0.18811 0.42466
 H34 H 0.16731 0.26988 0.16781
 H35 H 0.10709 0.21699 0.11084
 H36 H 0.16356 0.07560 0.19142
 H37 H 0.22325 0.13110 0.24583
 C38 C 0.13749 0.35966 0.35205
 C39 C 0.35739 0.34723 0.13735
 C40 C 0.13108 0.14204 0.14639
 C41 C 0.35814 0.14342 0.35662
 C42 C 0.83588 0.80832 0.22171
 H43 H 0.84443 0.80235 0.26447
 C44 C 0.87006 0.83857 0.18934
 H45 H 0.90396 0.85639 0.20862
 C46 C 0.77984 0.79352 0.14650
 H47 H 0.74551 0.77494 0.12931
 C48 C 0.81196 0.82482 0.11300
 H49 H 0.80152 0.82873 0.07045
 N50 N 0.79161 0.78673 0.20009
 C51 C 0.66963 0.77138 0.32572
 H52 H 0.66480 0.72878 0.32659
 C53 C 0.63759 0.80360 0.35866
 H54 H 0.60849 0.78540 0.38534
 C55 C 0.71396 0.84664 0.29005
 H56 H 0.74345 0.86322 0.26283
 C57 C 0.68289 0.88034 0.32246
 H58 H 0.68860 0.92279 0.31961
 Zn59 Zn 0.74777 0.74698 0.24814
 N60 N 0.70700 0.79324 0.29249
 C61 C 0.79415 0.71241 0.34707
 N62 N 0.79283 0.70490 0.29210
 C63 C 0.82542 0.66916 0.26708
 C64 C 0.85981 0.63784 0.29781
 C65 C 0.82858 0.68259 0.37922
 C66 C 0.66383 0.72762 0.17623
 C67 C 0.62971 0.69725 0.14457
 C68 C 0.66750 0.61813 0.18428
 C69 C 0.70158 0.64996 0.21435
 N70 N 0.70013 0.70366 0.20883
 H71 H 0.76890 0.74188 0.36606
 H72 H 0.82443 0.66485 0.22316
 H73 H 0.88526 0.60927 0.27741
 H74 H 0.82892 0.68871 0.42298
 H75 H 0.66194 0.77045 0.17422
 H76 H 0.60184 0.71679 0.11782
 H77 H 0.66983 0.57540 0.18827
 H78 H 0.72916 0.63154 0.24196
 C79 C 0.64403 0.85889 0.35730
 C80 C 0.85804 0.84824 0.13407
 C81 C 0.63173 0.64180 0.14815
 C82 C 0.86164 0.64451 0.35461
 C83 C 0.83679 0.32193 0.72925
 H84 H 0.84107 0.31921 0.77307
 C85 C 0.86992 0.35531 0.69902
 H86 H 0.89961 0.37841 0.71979
 C87 C 0.79254 0.29546 0.64895
 H88 H 0.76311 0.27148 0.62927
 C89 C 0.82428 0.32890 0.61729
 H90 H 0.81874 0.33047 0.57352
 N91 N 0.79840 0.29353 0.70409
 C92 C 0.67213 0.27214 0.82427
 H93 H 0.66802 0.22946 0.82319
 C94 C 0.63856 0.30250 0.85748
 H95 H 0.60880 0.28294 0.88228
 C96 C 0.71617 0.34949 0.79330
 H97 H 0.74588 0.36777 0.76765
 C98 C 0.68385 0.38129 0.82637
 H99 H 0.68902 0.42390 0.82585
 Zn100 Zn 0.75357 0.25167 0.74925
 N101 N 0.71019 0.29589 0.79332
 C102 C 0.79646 0.21494 0.84896
 N103 N 0.79735 0.20905 0.79395
 C104 C 0.83048 0.17368 0.76960
 C105 C 0.86280 0.14069 0.80087
 C106 C 0.82864 0.18347 0.88194
 C107 C 0.67411 0.23226 0.67187
 C108 C 0.64061 0.20180 0.63956
 C109 C 0.67459 0.12296 0.68327
 C110 C 0.70810 0.15483 0.71402
 N111 N 0.70806 0.20840 0.70712
 H112 H 0.77125 0.24471 0.86754
 H113 H 0.83081 0.17015 0.72557
 H114 H 0.88536 0.11137 0.77854
 H115 H 0.82744 0.19233 0.92498
 H116 H 0.67349 0.27504 0.66846
 H117 H 0.61438 0.22127 0.61106
 H118 H 0.67563 0.08034 0.68870
 H119 H 0.73379 0.13658 0.74362
 C120 C 0.64447 0.35779 0.85898
 C121 C 0.86324 0.35964 0.64241
 C122 C 0.64084 0.14641 0.64499
 C123 C 0.86266 0.14433 0.85877
 C124 C 0.33934 0.81952 0.72763
 H125 H 0.34689 0.81522 0.77081
 C126 C 0.37249 0.85111 0.69550
 H127 H 0.40537 0.87138 0.71421
 C128 C 0.28709 0.79860 0.65080
 H129 H 0.25401 0.77780 0.63344
 C130 C 0.31871 0.83060 0.61735
 H131 H 0.30976 0.83414 0.57434
 N132 N 0.29758 0.79401 0.70499
 C133 C 0.16670 0.77381 0.81877
 H134 H 0.15760 0.73251 0.81176
 C135 C 0.13289 0.80476 0.85111
 H136 H 0.09826 0.78676 0.86956
 C137 C 0.22277 0.84741 0.80300
 H138 H 0.25746 0.86413 0.78375
 C139 C 0.19022 0.87972 0.83531
 H140 H 0.20017 0.92114 0.84034
 Zn141 Zn 0.25419 0.75145 0.75103
 N142 N 0.21079 0.79536 0.79568
 C143 C 0.27786 0.68826 0.84295
 N144 N 0.29767 0.70804 0.79536
 C145 C 0.34758 0.69583 0.77815
 C146 C 0.38003 0.66335 0.80977
 C147 C 0.30886 0.65543 0.87572
 C148 C 0.16754 0.72905 0.68317
 C149 C 0.13375 0.69703 0.65283
 C150 C 0.18778 0.62117 0.67614
 C151 C 0.22036 0.65456 0.70621
 N152 N 0.20996 0.70746 0.70890
 H153 H 0.23784 0.69762 0.85546
 H154 H 0.36218 0.71098 0.73959
 H155 H 0.41992 0.65490 0.79573
 H156 H 0.29201 0.63952 0.91305
 H157 H 0.16000 0.77122 0.68630
 H158 H 0.10061 0.71498 0.63194
 H159 H 0.19659 0.57912 0.67466
 H160 H 0.25407 0.63816 0.72728
 C161 C 0.14458 0.85845 0.85981
 C162 C 0.36206 0.85719 0.63972
 C163 C 0.14386 0.64233 0.64885
 C164 C 0.36079 0.64266 0.85935
 Si165 Si -0.00321 -0.00150 0.00019
 Si166 Si 0.00261 0.50593 0.50112
 Si167 Si 0.50264 0.00416 0.50015
 Si168 Si 0.49846 0.49683 0.00224
 C169 C 0.05397 -0.11148 -0.11072
 C170 C 0.10923 -0.10780 -0.10610
 C171 C 0.13048 -0.07160 -0.06868
 C172 C 0.09719 -0.03972 -0.03664
 C173 C 0.04215 -0.04310 -0.04194
 C174 C 0.02076 -0.07938 -0.07886
 H175 H 0.03647 -0.13866 -0.13952
 H176 H 0.17288 -0.06853 -0.06362
 H177 H 0.11467 -0.01282 -0.00766
 H178 H -0.02171 -0.08270 -0.08322
 C179 C 0.11535 0.44999 0.39136
 C180 C 0.10355 0.39559 0.38628
 C181 C 0.05923 0.37579 0.41499
 C182 C 0.02947 0.40856 0.44957
 C183 C 0.04231 0.46219 0.45518
 C184 C 0.08418 0.48309 0.42434
 H185 H 0.14922 0.46719 0.37085
 H186 H 0.04698 0.33499 0.41075
 H187 H -0.00401 0.39186 0.47126
 H188 H 0.09379 0.52482 0.42700
 C189 C 0.55592 -0.11627 0.39831
 C190 C 0.61025 -0.10605 0.39180
 C191 C 0.63209 -0.06220 0.41874
 C192 C 0.60029 -0.02923 0.45125
 C193 C 0.54595 -0.03907 0.45692
 C194 C 0.52416 -0.08313 0.43064
 H195 H 0.53784 -0.14958 0.37792
 H196 H 0.67398 -0.05386 0.41534
 H197 H 0.61856 0.00370 0.47183
 H198 H 0.48259 -0.09233 0.43546
 C199 C 0.63097 0.43161 -0.07383
 C200 C 0.60962 0.39088 -0.10584
 C201 C 0.55477 0.38215 -0.10419
 C202 C 0.52188 0.41404 -0.07174
 C203 C 0.54329 0.45485 -0.04017
 C204 C 0.59809 0.46308 -0.04092
 H205 H 0.67321 0.43868 -0.07382
 H206 H 0.53726 0.35126 -0.12874
 H207 H 0.47963 0.40702 -0.07149
 H208 H 0.61570 0.49380 -0.01639
 C209 C -0.11518 0.10667 -0.05211
 C210 C -0.10645 0.11164 -0.10935
 C211 C -0.06431 0.08085 -0.13189
 C212 C -0.03394 0.04687 -0.09959
 C213 C -0.04395 0.04253 -0.04367
 C214 C -0.08403 0.07326 -0.02006
 H215 H -0.14732 0.12631 -0.03098
 H216 H -0.05218 0.08373 -0.17410
 H217 H -0.00188 0.02481 -0.11852
 H218 H -0.09208 0.07061 0.02338
 C219 C -0.07043 0.63545 0.42780
 C220 C -0.10243 0.61175 0.38820
 C221 C -0.10061 0.55646 0.38158
 C222 C -0.06855 0.52534 0.41513
 C223 C -0.03758 0.54898 0.45552
 C224 C -0.03776 0.60435 0.46075
 H225 H -0.07051 0.67811 0.43300
 H226 H -0.12498 0.53725 0.35137
 H227 H -0.06853 0.48267 0.41007
 H228 H -0.01314 0.62387 0.49029
 C229 C 0.40159 0.05614 0.37839
 C230 C 0.39380 0.11014 0.39048
 C231 C 0.41970 0.13189 0.43577
 C232 C 0.45230 0.10036 0.46829
 C233 C 0.46027 0.04663 0.45585
 C234 C 0.43444 0.02472 0.41084
 H235 H 0.38146 0.03787 0.34446
 H236 H 0.41498 0.17341 0.44601
 H237 H 0.47062 0.11812 0.50349
 H238 H 0.43902 -0.01678 0.40092
 C239 C 0.42856 0.57011 -0.13079
 C240 C 0.39441 0.60764 -0.10647
 C241 C 0.39254 0.61132 -0.04917
 C242 C 0.42375 0.57799 -0.01708
 C243 C 0.45733 0.54045 -0.04158
 C244 C 0.45993 0.53699 -0.09861
 H245 H 0.43052 0.56579 -0.17474
 H246 H 0.36741 0.64038 -0.02913
 H247 H 0.42170 0.58153 0.02696
 H248 H 0.48589 0.50868 -0.11854
 C249 C -0.05450 -0.11483 0.11068
 C250 C -0.10938 -0.11881 0.10118
 C251 C -0.13098 -0.08827 0.05835
 C252 C -0.09944 -0.05336 0.02817
 C253 C -0.04545 -0.04870 0.03922
 C254 C -0.02287 -0.08112 0.07917
 H255 H -0.03530 -0.13906 0.14120
 H256 H -0.17285 -0.08890 0.04966
 H257 H -0.11758 -0.03006 -0.00371
 H258 H 0.01926 -0.07968 0.08673
 C259 C -0.12688 0.43039 0.57134
 C260 C -0.10355 0.39622 0.60964
 C261 C -0.04840 0.39705 0.61613
 C262 C -0.01710 0.43055 0.58394
 C263 C -0.04047 0.46412 0.54532
 C264 C -0.09561 0.46444 0.53977
 H265 H -0.16938 0.43099 0.56615
 H266 H -0.02947 0.37095 0.64522
 H267 H 0.02545 0.42983 0.58876
 H268 H -0.11470 0.49043 0.51083
 C269 C 0.37277 -0.06992 0.57120
 C270 C 0.39580 -0.10821 0.60531
 C271 C 0.45119 -0.11264 0.60695
 C272 C 0.48293 -0.07937 0.57495
 C273 C 0.45985 -0.04041 0.54186
 C274 C 0.40456 -0.03605 0.53999
 H275 H 0.33016 -0.06554 0.56954
 H276 H 0.46982 -0.14220 0.63258
 H277 H 0.52555 -0.08370 0.57639
 H278 H 0.38572 -0.00640 0.51476
 C279 C 0.44662 0.38093 0.10969
 C280 C 0.39147 0.38171 0.10346
 C281 C 0.36881 0.41638 0.06534
 C282 C 0.40066 0.45088 0.03503
 C283 C 0.45566 0.45083 0.04206
 C284 C 0.47855 0.41466 0.07846
 H285 H 0.46491 0.35397 0.13841
 H286 H 0.32634 0.41750 0.05986
 H287 H 0.38206 0.47739 0.00622
 H288 H 0.52107 0.41309 0.08333
 C289 C 0.06310 0.07119 0.13549
 C290 C 0.09648 0.10932 0.11185
 C291 C 0.09747 0.11529 0.05486
 C292 C 0.06690 0.08239 0.02200
 C293 C 0.03461 0.04338 0.04559
 C294 C 0.03179 0.03898 0.10263
 H295 H 0.06106 0.06658 0.17943
 H296 H 0.12295 0.14447 0.03575
 H297 H 0.06908 0.08684 -0.02195
 H298 H 0.00583 0.01072 0.12213
 C299 C 0.05429 0.61386 0.61642
 C300 C 0.10961 0.60774 0.61538
 C301 C 0.13218 0.56855 0.58159
 C302 C 0.10034 0.53733 0.54835
 C303 C 0.04539 0.54506 0.54772
 C304 C 0.02245 0.58228 0.58334
 H305 H 0.03567 0.64288 0.64299
 H306 H 0.17464 0.56271 0.58002
 H307 H 0.11906 0.50729 0.52332
 H308 H -0.02008 0.58763 0.58481
 C309 C 0.57556 0.07283 0.63422
 C310 C 0.60646 0.11309 0.61064
 C311 C 0.60507 0.12071 0.55389
 C312 C 0.57413 0.08794 0.52124
 C313 C 0.54353 0.04749 0.54478
 C314 C 0.54390 0.04068 0.60160
 H315 H 0.57555 0.06661 0.67798
 H316 H 0.62874 0.15134 0.53474
 H317 H 0.57405 0.09416 0.47749
 H318 H 0.52005 0.01056 0.62109
 C319 C 0.56783 0.56727 0.13704
 C320 C 0.59748 0.60856 0.11374
 C321 C 0.59547 0.61689 0.05711
 C322 C 0.56553 0.58343 0.02419
 C323 C 0.53675 0.54156 0.04742
 C324 C 0.53713 0.53447 0.10421
 H325 H 0.56826 0.56061 0.18073
 H326 H 0.61816 0.64842 0.03825
 H327 H 0.56525 0.58990 -0.01953
 H328 H 0.51422 0.50357 0.12352
   
