data_POSCAR
  _audit_creation_date              2014-09-24
  _audit_creation_method            'ToBaCCo'
  _symmetry_space_group_name_H-M    'P1'
  _symmetry_Int_Tables_number       1
  _symmetry_cell_setting            triclinic
  loop_
  _symmetry_equiv_pos_as_xyz
 x,y,z
_cell_length_a 32.8041
_cell_length_b 32.8771
_cell_length_c 40.6229
_cell_angle_alpha 89.994500
_cell_angle_beta 89.969400
_cell_angle_gamma 90.037000
loop_
  _atom_site_label
  _atom_site_type_symbol
  _atom_site_fract_x
  _atom_site_fract_y
  _atom_site_fract_z
B1 B 0.27066 0.23775 0.28260
 B2 B 0.22224 0.22535 0.27369
 B3 B 0.23430 0.27372 0.28287
 B4 B 0.28047 0.28409 0.26685
 B5 B 0.29691 0.24110 0.24711
 B6 B 0.26054 0.20437 0.25192
 B7 B 0.22664 0.26702 0.21716
 B8 B 0.27514 0.27942 0.22594
 B9 B 0.26305 0.23113 0.21668
 B10 B 0.21697 0.22062 0.23281
 B11 B 0.20056 0.26362 0.25248
 B12 B 0.23689 0.30032 0.24779
 B13 B 0.73501 0.77065 0.21665
 B14 B 0.72301 0.72226 0.22570
 B15 B 0.77143 0.73477 0.21679
 B16 B 0.78114 0.78106 0.23266
 B17 B 0.73762 0.79711 0.25200
 B18 B 0.70128 0.76036 0.24711
 B19 B 0.76409 0.72760 0.28253
 B20 B 0.77600 0.77602 0.27355
 B21 B 0.72762 0.76347 0.28251
 B22 B 0.71788 0.71724 0.26661
 B23 B 0.76140 0.70123 0.24733
 B24 B 0.79768 0.73794 0.25204
 B25 B 0.72847 0.23381 -0.28412
 B26 B 0.77705 0.22224 -0.27498
 B27 B 0.76416 0.27046 -0.28378
 B28 B 0.71765 0.27971 -0.26799
 B29 B 0.70177 0.23602 -0.24903
 B30 B 0.73886 0.20014 -0.25378
 B31 B 0.77090 0.26271 -0.21791
 B32 B 0.72241 0.27431 -0.22712
 B33 B 0.73520 0.22603 -0.21841
 B34 B 0.78180 0.21688 -0.23408
 B35 B 0.79773 0.26057 -0.25316
 B36 B 0.76060 0.29647 -0.24827
 B37 B 0.26768 0.77056 -0.21581
 B38 B 0.28045 0.72229 -0.22469
 B39 B 0.23192 0.73402 -0.21560
 B40 B 0.22126 0.77997 -0.23167
 B41 B 0.26440 0.79669 -0.25108
 B42 B 0.30136 0.76069 -0.24634
 B43 B 0.23907 0.72665 -0.28147
 B44 B 0.22632 0.77485 -0.27252
 B45 B 0.27491 0.76322 -0.28153
 B46 B 0.28546 0.71717 -0.26561
 B47 B 0.24232 0.70040 -0.24604
 B48 B 0.20535 0.73646 -0.25092
 B49 B 1.23625 1.27146 0.71744
 B50 B 1.22440 1.22304 0.72659
 B51 B 1.27273 1.23560 0.71762
 B52 B 1.28238 1.28189 0.73340
 B53 B 1.23877 1.29793 0.75255
 B54 B 1.20255 1.26115 0.74784
 B55 B 1.26512 1.22872 0.78350
 B56 B 1.27704 1.27700 0.77426
 B57 B 1.22860 1.26451 0.78312
 B58 B 1.21909 1.21814 0.76743
 B59 B 1.26272 1.20207 0.74826
 B60 B 1.29896 1.23886 0.75305
 B61 B 0.76898 0.73690 0.78298
 B62 B 0.72057 0.72456 0.77407
 B63 B 0.73262 0.77287 0.78317
 B64 B 0.77872 0.78318 0.76715
 B65 B 0.79519 0.74006 0.74773
 B66 B 0.75887 0.70341 0.75245
 B67 B 0.72514 0.76567 0.71733
 B68 B 0.77348 0.77814 0.72631
 B69 B 0.76159 0.72975 0.71727
 B70 B 0.71537 0.71947 0.73322
 B71 B 0.69884 0.76264 0.75274
 B72 B 0.73520 0.79932 0.74785
 B73 B 1.23647 0.72461 0.28141
 B74 B 1.22383 0.77278 0.27241
 B75 B 1.27239 0.76113 0.28138
 B76 B 1.28279 0.71505 0.26548
 B77 B 1.23954 0.69835 0.24601
 B78 B 1.20269 0.73447 0.25092
 B79 B 1.26504 0.76847 0.21570
 B80 B 1.27763 0.72020 0.22461
 B81 B 1.22917 0.73203 0.21557
 B82 B 1.21867 0.77797 0.23162
 B83 B 1.26188 0.79459 0.25093
 B84 B 1.29873 0.75852 0.24615
 B85 B 0.77295 1.26484 0.21801
 B86 B 0.72459 1.27666 0.22733
 B87 B 0.73707 1.22832 0.21862
 B88 B 0.78362 1.21901 0.23420
 B89 B 0.79977 1.26270 0.25318
 B90 B 0.76284 1.29875 0.24834
 B91 B 0.73040 1.23631 0.28431
 B92 B 0.77889 1.22455 0.27504
 B93 B 0.76626 1.27279 0.28385
 B94 B 0.71981 1.28221 0.26815
 B95 B 0.70372 1.23855 0.24927
 B96 B 0.74062 1.20252 0.25402
 O97 O 0.44325 1.07909 0.05588
 O98 O 0.39586 1.03881 0.02988
 C99 C 0.40606 1.06891 0.04918
 O100 O 0.55476 1.07249 -0.05836
 O101 O 0.60181 1.03627 -0.02836
 C102 C 0.59184 1.06338 -0.05043
 O103 O 0.44297 1.07770 -0.05400
 O104 O 0.39546 1.03882 -0.02674
 C105 C 0.40575 1.06812 -0.04677
 O106 O 0.55436 1.07386 0.06024
 O107 O 0.60157 1.03696 0.03090
 C108 C 0.59150 1.06454 0.05258
 Zr109 Zr 0.49866 1.05213 0.04228
 O110 O 0.50167 1.11632 0.04469
 O111 O 0.49644 1.04652 0.09407
 Zr112 Zr 0.49885 1.05162 -0.04007
 O113 O 0.50065 1.11596 -0.03950
 O114 O 0.50069 1.04855 -0.09221
 O115 O 0.46222 1.06000 0.00100
 O116 O 0.53472 1.05930 0.00107
 O117 O 0.55384 0.92828 0.06018
 O118 O 0.60130 0.96498 0.03095
 C119 C 0.59102 0.93730 0.05245
 O120 O 0.44258 0.92518 -0.05416
 O121 O 0.39537 0.96474 -0.02736
 C122 C 0.40547 0.93506 -0.04705
 O123 O 0.55377 0.92815 -0.05753
 O124 O 0.60117 0.96455 -0.02796
 C125 C 0.59092 0.93708 -0.04968
 O126 O 0.44268 0.92386 0.05542
 O127 O 0.39544 0.96462 0.02992
 C128 C 0.40552 0.93430 0.04898
 Zr129 Zr 0.49812 0.95148 0.04315
 O130 O 0.49987 0.88784 0.05043
 O131 O 0.49374 0.95888 0.09486
 Zr132 Zr 0.49827 0.95056 -0.03961
 O133 O 0.50157 0.88629 -0.04144
 O134 O 0.49438 0.95392 -0.09160
 Zr135 Zr 0.43594 1.00146 0.00127
 Zr136 Zr 0.56108 1.00099 0.00143
 O137 O 0.53374 0.94300 0.00179
 O138 O 0.46183 0.94271 0.00173
 O139 O 0.53580 1.00170 0.04926
 O140 O 0.46207 1.00123 -0.04604
 O141 O 0.46165 1.00198 0.04876
 O142 O 0.53575 1.00083 -0.04627
 H143 H 0.55231 1.08380 0.00095
 H144 H 0.44337 1.00115 -0.06517
 H145 H 0.55098 0.91828 0.00170
 H146 H 0.44282 1.00216 0.06786
 H147 H 0.47264 1.04490 -0.10065
 H148 H 0.51798 0.96997 -0.09951
 H149 H 0.48333 0.87557 -0.02409
 H150 H 0.50422 0.87536 0.02859
 H151 H 0.52050 0.96863 0.10293
 H152 H 0.49576 1.07464 0.10283
 H153 H 0.49250 1.12659 0.02304
 H154 H 0.50093 1.12501 -0.06279
 O155 O 0.94405 0.57813 0.55667
 O156 O 0.89642 0.53901 0.52984
 C157 C 0.90680 0.56847 0.54969
 O158 O 1.05571 0.57356 0.44226
 O159 O 1.10245 0.53652 0.47194
 C160 C 1.09271 0.56396 0.45007
 O161 O 0.94397 0.57849 0.44617
 O162 O 0.89630 0.53886 0.47246
 C163 C 0.90671 0.56855 0.45284
 O164 O 1.05520 0.57311 0.56084
 O165 O 1.10217 0.53615 0.53128
 C166 C 1.09227 0.56361 0.55311
 Zr167 Zr 0.99946 0.55158 0.54263
 O168 O 1.00258 0.61573 0.54569
 O169 O 0.99737 0.54513 0.59436
 Zr170 Zr 0.99969 0.55243 0.46031
 O171 O 1.00146 0.61674 0.46193
 O172 O 1.00181 0.55058 0.40813
 O173 O 0.96297 0.56030 0.50144
 O174 O 1.03557 0.55928 0.50155
 O175 O 1.05392 0.42819 0.56017
 O176 O 1.10165 0.46430 0.53071
 C177 C 1.09118 0.43690 0.55242
 O178 O 0.94325 0.42412 0.44700
 O179 O 0.89607 0.46525 0.47224
 C180 C 0.90611 0.43492 0.45317
 O181 O 1.05443 0.42871 0.44235
 O182 O 1.10198 0.46486 0.47187
 C183 C 1.09164 0.43753 0.45012
 O184 O 0.94261 0.42538 0.55676
 O185 O 0.89577 0.46511 0.52967
 C186 C 0.90559 0.43544 0.54949
 Zr187 Zr 0.99848 0.45062 0.54222
 O188 O 1.00159 0.38633 0.54388
 O189 O 0.99432 0.45366 0.59422
 Zr190 Zr 0.99871 0.45156 0.45956
 O191 O 1.00038 0.38789 0.45241
 O192 O 0.99454 0.45892 0.40783
 Zr193 Zr 0.93649 0.50182 0.50112
 Zr194 Zr 1.06167 0.50085 0.50135
 O195 O 1.03417 0.44294 0.50093
 O196 O 0.96214 0.44295 0.50083
 O197 O 1.03621 0.50077 0.54906
 O198 O 0.96258 0.50225 0.45377
 O199 O 0.96246 0.50142 0.54851
 O200 O 1.03648 0.50166 0.45356
 H201 H 1.05325 0.58372 0.50168
 H202 H 0.94374 0.50219 0.43473
 H203 H 1.05139 0.41821 0.50096
 H204 H 0.94393 0.50152 0.56779
 H205 H 0.97406 0.54539 0.39959
 H206 H 1.02080 0.47015 0.39995
 H207 H 1.00495 0.37545 0.47422
 H208 H 0.98313 0.37571 0.52665
 H209 H 1.01839 0.46882 0.60232
 H210 H 0.99658 0.57310 0.60342
 H211 H 0.99304 0.62638 0.52426
 H212 H 1.00185 0.62636 0.43879
 O213 O 0.92113 0.55670 -0.05603
 O214 O 0.96169 0.60381 -0.03003
 C215 C 0.93154 0.59377 -0.04938
 O216 O 0.92603 0.44570 0.05836
 O217 O 0.96232 0.39849 0.02858
 C218 C 0.93504 0.40864 0.05051
 O219 O 0.92252 0.55735 0.05402
 O220 O 0.96162 0.60441 0.02651
 C221 C 0.93229 0.59440 0.04667
 O222 O 0.92480 0.44572 -0.06005
 O223 O 0.96164 0.39853 -0.03068
 C224 C 0.93396 0.40865 -0.05230
 Zr225 Zr 0.94735 0.50116 -0.04227
 O226 O 0.88299 0.49887 -0.04467
 O227 O 0.95303 0.50300 -0.09407
 Zr228 Zr 0.94781 0.50124 0.04009
 O229 O 0.88331 0.50027 0.03944
 O230 O 0.95073 0.49938 0.09224
 O231 O 0.93974 0.53773 -0.00105
 O232 O 0.93984 0.46541 -0.00099
 O233 O 1.07069 0.44495 -0.06009
 O234 O 1.03372 0.39795 -0.03066
 C235 C 1.06144 0.40793 -0.05226
 O236 O 1.07519 0.55637 0.05409
 O237 O 1.03580 0.60362 0.02722
 C238 C 1.06549 0.59343 0.04693
 O239 O 1.07073 0.44551 0.05773
 O240 O 1.03417 0.39831 0.02815
 C241 C 1.06164 0.40846 0.04993
 O242 O 1.07668 0.55582 -0.05545
 O243 O 1.03604 0.60332 -0.03014
 C244 C 1.06643 0.59298 -0.04913
 Zr245 Zr 1.04822 0.50087 -0.04315
 O246 O 1.11196 0.49837 -0.05052
 O247 O 1.04086 0.50526 -0.09486
 Zr248 Zr 1.04914 0.50102 0.03960
 O249 O 1.11352 0.49702 0.04117
 O250 O 1.04612 0.50516 0.09159
 Zr251 Zr 0.99865 0.56346 -0.00137
 Zr252 Zr 0.99806 0.43863 -0.00129
 O253 O 1.05643 0.46539 -0.00172
 O254 O 1.05731 0.53716 -0.00180
 O255 O 0.99758 0.46366 -0.04918
 O256 O 0.99864 0.53753 0.04599
 O257 O 0.99792 0.53765 -0.04882
 O258 O 0.99842 0.46406 0.04636
 H259 H 0.91510 0.44812 -0.00084
 H260 H 0.99892 0.55623 0.06509
 H261 H 1.08101 0.44793 -0.00159
 H262 H 0.99795 0.55637 -0.06794
 H263 H 0.95503 0.52728 0.10067
 H264 H 1.02914 0.48229 0.09957
 H265 H 1.12438 0.51527 0.02388
 H266 H 1.12447 0.49395 -0.02870
 H267 H 1.03085 0.47865 -0.10291
 H268 H 0.92487 0.50408 -0.10283
 H269 H 0.87278 0.50832 -0.02307
 H270 H 0.87418 0.50028 0.06273
 O271 O 0.57521 1.05617 0.55431
 O272 O 0.53658 1.10376 0.52701
 C273 C 0.56586 1.09335 0.54706
 O274 O 0.57162 0.94537 0.43974
 O275 O 0.53461 0.89835 0.46919
 C276 C 0.56227 0.90834 0.44750
 O277 O 0.57645 1.05685 0.44448
 O278 O 0.53612 1.10402 0.47055
 C279 C 0.56628 1.09393 0.45126
 O280 O 0.57060 0.94517 0.55827
 O281 O 0.53392 0.89830 0.52842
 C282 C 0.56129 0.90820 0.55036
 Zr283 Zr 0.54888 1.00074 0.54021
 O284 O 0.61316 0.99801 0.54346
 O285 O 0.54222 1.00246 0.59194
 Zr286 Zr 0.55001 1.00105 0.45782
 O287 O 0.61449 0.99941 0.45905
 O288 O 0.54764 0.99955 0.40565
 O289 O 0.55763 1.03733 0.49916
 O290 O 0.55691 0.96507 0.49898
 O291 O 0.42549 0.94565 0.55737
 O292 O 0.46203 0.89844 0.52780
 C293 C 0.43460 0.90857 0.54961
 O294 O 0.42140 1.05691 0.44425
 O295 O 0.46221 1.10389 0.47004
 C296 C 0.43203 1.09395 0.45071
 O297 O 0.42646 0.94598 0.43932
 O298 O 0.46269 0.89851 0.46879
 C299 C 0.43540 0.90883 0.44695
 O300 O 0.42263 1.05681 0.55467
 O301 O 0.46229 1.10387 0.52770
 C302 C 0.43276 1.09385 0.54767
 Zr303 Zr 0.44764 1.00122 0.53952
 O304 O 0.38317 0.99806 0.54016
 O305 O 0.44977 1.00483 0.59156
 Zr306 Zr 0.44897 1.00162 0.45685
 O307 O 0.38509 1.00015 0.44993
 O308 O 0.45646 1.00619 0.40515
 Zr309 Zr 0.49897 1.06354 0.49888
 Zr310 Zr 0.49849 0.93870 0.49855
 O311 O 0.44033 0.96582 0.49807
 O312 O 0.44005 1.03780 0.49828
 O313 O 0.49805 0.96381 0.54634
 O314 O 0.49969 1.03795 0.45137
 O315 O 0.49847 1.03733 0.54614
 O316 O 0.49932 0.96414 0.45084
 H317 H 0.58150 0.94760 0.49914
 H318 H 0.49974 1.05690 0.43241
 H319 H 0.41576 0.94832 0.49805
 H320 H 0.49861 1.05569 0.56549
 H321 H 0.54446 1.02764 0.39731
 H322 H 0.46781 0.98009 0.39718
 H323 H 0.37275 0.99225 0.47117
 H324 H 0.37293 1.01730 0.52334
 H325 H 0.46599 0.98147 0.59961
 H326 H 0.57021 1.00356 0.60105
 H327 H 0.62387 1.00718 0.52193
 H328 H 0.62397 0.99936 0.43585
 O329 O 0.91196 1.04494 0.54629
 O330 O 0.95907 1.02081 0.58327
 C331 C 0.92527 1.03917 0.57592
 O332 O 0.95507 0.90625 0.45429
 O333 O 0.97754 0.95419 0.41732
 C334 C 0.96005 0.91995 0.42467
 O335 O 0.95008 0.90825 0.54519
 O336 O 0.97688 0.95357 0.58240
 C337 C 0.95646 0.92112 0.57483
 O338 O 0.91478 1.05121 0.45556
 O339 O 0.95969 1.02421 0.41809
 C340 C 0.92763 1.04517 0.42586
 Zr341 Zr 0.93847 1.03167 0.50056
 O342 O 0.87883 1.00730 0.49939
 O343 O 0.91493 1.09142 0.50265
 Zr344 Zr 0.96575 0.93418 0.49992
 O345 O 0.90213 0.92400 0.49898
 O346 O 0.97670 0.87078 0.50011
 O347 O 0.94452 0.98067 0.53004
 O348 O 0.94481 0.98120 0.47097
 O349 O 1.04978 1.08677 0.45445
 O350 O 1.02593 1.03976 0.41735
 C351 C 1.04400 1.07363 0.42478
 O352 O 1.09194 0.94855 0.54569
 O353 O 1.04510 0.97286 0.58278
 C354 C 1.07883 0.95450 0.57534
 O355 O 1.08933 0.94427 0.45481
 O356 O 1.04355 0.97060 0.41778
 C357 C 1.07611 0.95030 0.42523
 O358 O 1.05405 1.08451 0.54553
 O359 O 1.02796 1.03873 0.58270
 C360 C 1.04801 1.07141 0.57514
 Zr361 Zr 1.03736 1.05961 0.50010
 O362 O 1.09956 1.07635 0.49637
 O363 O 1.02070 1.12169 0.50348
 Zr364 Zr 1.06465 0.96140 0.50021
 O365 O 1.12663 0.97896 0.49659
 O366 O 1.08199 0.89950 0.50333
 Zr367 Zr 1.00177 0.99676 0.54966
 Zr368 Zr 1.00160 0.99701 0.45075
 O369 O 1.05835 1.01250 0.47135
 O370 O 1.05894 1.01266 0.52967
 O371 O 0.98564 1.05381 0.47114
 O372 O 1.01725 0.94029 0.52873
 O373 O 0.98597 1.05320 0.52893
 O374 O 1.01741 0.93997 0.47077
 H375 H 0.92182 0.97526 0.45588
 H376 H 1.02380 0.91711 0.54335
 H377 H 1.08163 1.01868 0.45660
 H378 H 0.97972 1.07651 0.54352
 H379 H 1.00516 0.86673 0.50729
 H380 H 1.06728 0.88463 0.48579
 H381 H 1.13270 0.99719 0.51533
 H382 H 1.11416 1.06387 0.51512
 H383 H 1.00221 1.12779 0.48489
 H384 H 0.93858 1.10994 0.50147
 H385 H 0.86012 1.03094 0.49883
 H386 H 0.89846 0.89412 0.49770
 O387 O 0.54923 0.40703 0.04540
 O388 O 0.52573 0.45430 0.08245
 C389 C 0.54403 0.42062 0.07499
 O390 O 0.59380 0.54453 -0.04507
 O391 O 0.54640 0.52134 -0.08218
 C392 C 0.58009 0.53970 -0.07466
 O393 O 0.59591 0.53925 0.04605
 O394 O 0.54685 0.51908 0.08303
 C395 C 0.58188 0.53504 0.07568
 O396 O 0.54412 0.40449 -0.04554
 O397 O 0.52412 0.45346 -0.08248
 C398 C 0.53979 0.41841 -0.07516
 Zr399 Zr 0.53300 0.43251 0.00002
 O400 O 0.59271 0.40842 -0.00254
 O401 O 0.50680 0.37378 0.00147
 Zr402 Zr 0.56821 0.52827 0.00030
 O403 O 0.62696 0.50197 -0.00111
 O404 O 0.59320 0.58750 0.00345
 O405 O 0.55820 0.47774 0.02963
 O406 O 0.55788 0.47799 -0.02871
 O407 O 0.41133 0.45128 -0.04496
 O408 O 0.45875 0.47446 -0.08214
 C409 C 0.42493 0.45632 -0.07458
 O410 O 0.45629 0.58922 0.04520
 O411 O 0.47926 0.54189 0.08236
 C412 C 0.46114 0.57562 0.07480
 O413 O 0.46074 0.59107 -0.04569
 O414 O 0.48105 0.54223 -0.08256
 C415 C 0.46515 0.57718 -0.07527
 O416 O 0.40900 0.45634 0.04595
 O417 O 0.45764 0.47738 0.08282
 C418 C 0.42268 0.46130 0.07555
 Zr419 Zr 0.43702 0.46731 0.00036
 O420 O 0.37674 0.48997 -0.00329
 O421 O 0.41465 0.40704 0.00352
 Zr422 Zr 0.47215 0.56338 -0.00009
 O423 O 0.41218 0.58669 -0.00366
 O424 O 0.49565 0.62328 0.00345
 Zr425 Zr 0.50253 0.49804 0.04955
 Zr426 Zr 0.50260 0.49789 -0.04933
 O427 O 0.44730 0.51772 -0.02857
 O428 O 0.44681 0.51819 0.02954
 O429 O 0.48234 0.44232 -0.02933
 O430 O 0.52262 0.55315 0.02883
 O431 O 0.48262 0.44275 0.02909
 O432 O 0.52296 0.55350 -0.02936
 H433 H 0.58075 0.47020 -0.04336
 H434 H 0.53050 0.57596 0.04344
 H435 H 0.42441 0.52544 -0.04319
 H436 H 0.47481 0.42006 0.04387
 H437 H 0.57669 0.60521 -0.01098
 H438 H 0.51192 0.62872 -0.01659
 H439 H 0.39534 0.57230 0.01284
 H440 H 0.37169 0.50749 0.01608
 H441 H 0.43158 0.39011 -0.01127
 H442 H 0.52987 0.35435 0.00163
 H443 H 0.61057 0.42705 0.01002
 H444 H 0.64653 0.52495 -0.00112
 C445 C 0.30928 1.16550 0.13277
 N446 N 0.32549 1.20188 0.14175
 N447 N 0.31035 1.22274 0.16705
 C448 C 0.27805 1.20837 0.18434
 N449 N 0.26150 1.17209 0.17522
 N450 N 0.27683 1.15100 0.14996
 C451 C 0.32962 1.14118 0.10691
 N452 N 0.31874 1.10201 0.10020
 N453 N 0.34118 1.07911 0.07981
 C454 C 0.37521 1.09471 0.06538
 N455 N 0.38522 1.13403 0.07158
 N456 N 0.36289 1.15680 0.09171
 C457 C 0.81030 0.66367 0.63447
 N458 N 0.83112 0.69478 0.64858
 N459 N 0.81539 0.71554 0.67362
 C460 C 0.77775 0.70676 0.68537
 N461 N 0.75673 0.67546 0.67138
 N462 N 0.77272 0.65422 0.64641
 C463 C 0.83048 0.63998 0.60818
 N464 N 0.81788 0.60211 0.59899
 N465 N 0.84046 0.57953 0.57841
 C466 C 0.87623 0.59426 0.56627
 N467 N 0.88784 0.63241 0.57485
 N468 N 0.86550 0.65476 0.59522
 C469 C 0.68799 0.83856 0.13435
 N470 N 0.67138 0.80228 0.14315
 N471 N 0.68683 0.78060 0.16786
 C472 C 0.71988 0.79402 0.18467
 N473 N 0.73683 0.83020 0.17572
 N474 N 0.72119 0.85210 0.15106
 C475 C 0.66736 0.86370 0.10920
 N476 N 0.67869 0.90280 0.10262
 N477 N 0.65617 0.92629 0.08273
 C478 C 0.62159 0.91133 0.06875
 N479 N 0.61109 0.87212 0.07487
 N480 N 0.63349 0.84880 0.09448
 C481 C 1.18764 0.33937 0.63568
 N482 N 1.16708 0.30752 0.64896
 N483 N 1.18286 0.28601 0.67355
 C484 C 1.22033 0.29476 0.68563
 N485 N 1.24112 0.32675 0.67241
 N486 N 1.22508 0.34872 0.64790
 C487 C 1.16723 0.36398 0.61009
 N488 N 1.18026 0.40179 0.60103
 N489 N 1.15769 0.42499 0.58091
 C490 C 1.12143 0.41097 0.56918
 N491 N 1.10934 0.37294 0.57769
 N492 N 1.13168 0.34998 0.59756
 C493 C 0.68741 1.15826 -0.13613
 N494 N 0.66620 1.18927 -0.14996
 N495 N 0.68158 1.21047 -0.17490
 C496 C 0.71927 1.20229 -0.18679
 N497 N 0.74066 1.17105 -0.17310
 N498 N 0.72500 1.14934 -0.14825
 C499 C 0.66772 1.13436 -0.10972
 N500 N 0.67999 1.09616 -0.10114
 N501 N 0.65765 1.07356 -0.08037
 C502 C 0.62248 1.08864 -0.06743
 N503 N 0.61125 1.12708 -0.07542
 N504 N 0.63332 1.14942 -0.09598
 C505 C 1.18971 0.65802 0.36470
 N506 N 1.22262 0.64392 0.34787
 N507 N 1.23811 0.66523 0.32276
 C508 C 1.22125 0.70130 0.31346
 N509 N 1.18838 0.71509 0.33029
 N510 N 1.17312 0.69407 0.35545
 C511 C 1.16946 0.63397 0.39078
 N512 N 1.13691 0.65033 0.40641
 N513 N 1.11456 0.62817 0.42695
 C514 C 1.12382 0.58869 0.43315
 N515 N 1.15711 0.57225 0.41823
 N516 N 1.17961 0.59459 0.39743
 C517 C 0.31240 0.83820 -0.13242
 N518 N 0.27555 0.84742 -0.14576
 N519 N 0.26094 0.82574 -0.17100
 C520 C 0.28270 0.79427 -0.18393
 N521 N 0.31968 0.78574 -0.17084
 N522 N 0.33401 0.80692 -0.14547
 C523 C 0.33094 0.86238 -0.10569
 N524 N 0.36425 0.84725 -0.09036
 N525 N 0.38568 0.87006 -0.06969
 C526 C 0.37482 0.90905 -0.06320
 N527 N 0.34063 0.92415 -0.07770
 N528 N 0.31894 0.90109 -0.09853
 C529 C 0.81151 0.33942 0.36760
 N530 N 0.77828 0.35292 0.35090
 N531 N 0.76345 0.33167 0.32554
 C532 C 0.78135 0.29629 0.31580
 N533 N 0.81460 0.28312 0.33246
 N534 N 0.82919 0.30406 0.35789
 C535 C 0.83083 0.36352 0.39405
 N536 N 0.86313 0.34748 0.41022
 N537 N 0.88488 0.36996 0.43094
 C538 C 0.87523 0.40945 0.43675
 N539 N 0.84211 0.42548 0.42135
 N540 N 0.82020 0.40283 0.40042
 C541 C 1.15810 0.31407 0.13509
 N542 N 1.18931 0.33539 0.14861
 N543 N 1.21083 0.32027 0.17347
 C544 C 1.20277 0.28273 0.18556
 N545 N 1.17133 0.26124 0.17218
 N546 N 1.14931 0.27663 0.14742
 C547 C 1.13380 0.33344 0.10881
 N548 N 1.09543 0.32099 0.10063
 N549 N 1.07245 0.34302 0.07996
 C550 C 1.08732 0.37807 0.06671
 N551 N 1.12592 0.38947 0.07429
 N552 N 1.14863 0.36770 0.09476
 C553 C 0.65751 0.81196 0.63451
 N554 N 0.69375 0.82865 0.64343
 N555 N 0.71517 0.81353 0.66841
 C556 C 0.70160 0.78072 0.68538
 N557 N 0.66539 0.76375 0.67638
 N558 N 0.64369 0.77909 0.65145
 C559 C 0.63290 0.83209 0.60875
 N560 N 0.59344 0.82158 0.60244
 N561 N 0.57056 0.84391 0.58195
 C562 C 0.58652 0.87738 0.56703
 N563 N 0.62608 0.88701 0.57289
 N564 N 0.64879 0.86483 0.59312
 C565 C 1.16513 0.68845 -0.13204
 N566 N 1.15114 0.72102 -0.14922
 N567 N 1.17262 0.73608 -0.17437
 C568 C 1.20880 0.71912 -0.18341
 N569 N 1.22268 0.68669 -0.16614
 N570 N 1.20141 0.67181 -0.14092
 C571 C 1.14028 0.66849 -0.10630
 N572 N 1.15548 0.63533 -0.09082
 N573 N 1.13219 0.61332 -0.07083
 C574 C 1.09274 0.62356 -0.06508
 N575 N 1.07757 0.65749 -0.07979
 N576 N 1.10100 0.67961 -0.10003
 C577 C 0.66345 1.18948 0.36741
 N578 N 0.69593 1.16923 0.35479
 N579 N 0.71707 1.18439 0.32968
 C580 C 0.70727 1.22089 0.31640
 N581 N 0.67465 1.24132 0.32896
 N582 N 0.65306 1.22589 0.35396
 C583 C 0.63912 1.16979 0.39356
 N584 N 0.60046 1.18172 0.40127
 N585 N 0.57738 1.15942 0.42168
 C586 C 0.59236 1.12461 0.43517
 N587 N 0.63126 1.11370 0.42809
 N588 N 0.65413 1.13577 0.40787
 C589 C 0.83763 0.68858 0.13305
 N590 N 0.80683 0.66711 0.14706
 N591 N 0.78618 0.68192 0.17254
 C592 C 0.79475 0.71925 0.18483
 N593 N 0.82578 0.74088 0.17097
 N594 N 0.84695 0.72579 0.14559
 C595 C 0.86110 0.66955 0.10609
 N596 N 0.89948 0.68172 0.09769
 N597 N 0.92195 0.65975 0.07663
 C598 C 0.90659 0.62508 0.06312
 N599 N 0.86792 0.61401 0.07086
 N600 N 0.84568 0.63572 0.09175
 C601 C 0.33856 1.18949 0.63367
 N602 N 0.30287 1.17239 0.64349
 N603 N 0.28215 1.18734 0.66893
 C604 C 0.29590 1.22036 0.68551
 N605 N 0.33159 1.23772 0.67566
 N606 N 0.35260 1.22254 0.65027
 C607 C 0.36238 1.16967 0.60725
 N608 N 0.40164 1.18024 0.60026
 N609 N 0.42396 1.15807 0.57925
 C610 C 0.40762 1.12472 0.56443
 N611 N 0.36821 1.11507 0.57092
 N612 N 0.34605 1.13709 0.59169
 C613 C 0.83726 0.31060 -0.13506
 N614 N 0.85130 0.27740 -0.15144
 N615 N 0.82989 0.26145 -0.17627
 C616 C 0.79372 0.27806 -0.18572
 N617 N 0.77983 0.31110 -0.16924
 N618 N 0.80100 0.32687 -0.14437
 C619 C 0.86184 0.33160 -0.10972
 N620 N 0.84645 0.36550 -0.09548
 N621 N 0.86928 0.38818 -0.07568
 C622 C 0.90844 0.37794 -0.06889
 N623 N 0.92387 0.34336 -0.08241
 N624 N 0.90090 0.32055 -0.10249
 C625 C 0.33967 0.81125 0.36296
 N626 N 0.34899 0.77353 0.35146
 N627 N 0.32729 0.75701 0.32695
 C628 C 0.29561 0.77759 0.31307
 N629 N 0.28694 0.81535 0.32442
 N630 N 0.30817 0.83160 0.34897
 C631 C 0.36381 0.83211 0.38863
 N632 N 0.34961 0.86790 0.40040
 N633 N 0.37212 0.89051 0.42042
 C634 C 0.40988 0.87848 0.42985
 N635 N 0.42409 0.84201 0.41887
 N636 N 0.40134 0.81916 0.39859
 C637 C 1.14048 1.15819 0.33460
 N638 N 1.16678 1.18539 0.34792
 N639 N 1.19333 1.20507 0.32910
 C640 C 1.19446 1.19845 0.29626
 N641 N 1.16858 1.17065 0.28294
 N642 N 1.14214 1.15060 0.30183
 C643 C 1.11108 1.13800 0.35589
 N644 N 1.09135 1.10353 0.34655
 N645 N 1.06765 1.08366 0.36788
 C646 C 1.06268 1.09807 0.39896
 N647 N 1.08149 1.13313 0.40773
 N648 N 1.10520 1.15273 0.38661
 C649 C 0.65772 0.64073 -0.16473
 N650 N 0.68164 0.66997 -0.15138
 N651 N 0.69968 0.69738 -0.17038
 C652 C 0.69456 0.69639 -0.20339
 N653 N 0.66988 0.66760 -0.21674
 N654 N 0.65145 0.64029 -0.19768
 C655 C 0.63987 0.61028 -0.14340
 N656 N 0.60731 0.58765 -0.15291
 N657 N 0.58911 0.56282 -0.13154
 C658 C 0.60344 0.55962 -0.10030
 N659 N 0.63677 0.58127 -0.09137
 N660 N 0.65467 0.60616 -0.11253
 C661 C 0.84383 1.13971 0.66477
 N662 N 0.85123 1.14155 0.69755
 N663 N 0.83152 1.16846 0.71617
 C664 C 0.80426 1.19466 0.70257
 N665 N 0.79797 1.19347 0.66967
 N666 N 0.81733 1.16643 0.65112
 C667 C 0.86311 1.10928 0.64396
 N668 N 0.84758 1.10241 0.61364
 N669 N 0.86635 1.07755 0.59292
 C670 C 0.90133 1.05856 0.60170
 N671 N 0.91646 1.06445 0.63246
 N672 N 0.89740 1.08927 0.65340
 C673 C 0.36139 0.65605 0.16415
 N674 N 0.36048 0.64901 0.19699
 N675 N 0.33324 0.66799 0.21576
 C676 C 0.30585 0.69405 0.20222
 N677 N 0.30616 0.69998 0.16929
 N678 N 0.33353 0.68139 0.15058
 C679 C 0.39170 0.63733 0.14316
 N680 N 0.39736 0.65246 0.11256
 N681 N 0.42194 0.63381 0.09158
 C682 C 0.44173 0.59938 0.10043
 N683 N 0.43702 0.58467 0.13142
 N684 N 0.41249 0.60360 0.15262
 C685 C 1.16078 0.85688 0.66598
 N686 N 1.18694 0.82947 0.65281
 N687 N 1.20595 0.80275 0.67184
 C688 C 1.19965 0.80254 0.70475
 N689 N 1.17286 0.82954 0.71793
 N690 N 1.15347 0.85615 0.69882
 C691 C 1.14145 0.88651 0.64451
 N692 N 1.10757 0.90732 0.65380
 N693 N 1.08836 0.93131 0.63235
 C694 C 1.10289 0.93552 0.60121
 N695 N 1.13740 0.91565 0.59250
 N696 N 1.15634 0.89162 0.61373
 C697 C 0.64117 0.33981 0.16594
 N698 N 0.66938 0.31455 0.15275
 N699 N 0.69651 0.29621 0.17180
 C700 C 0.69628 0.30235 0.20470
 N701 N 0.66849 0.32827 0.21790
 N702 N 0.64146 0.34700 0.19877
 C703 C 0.61142 0.35855 0.14447
 N704 N 0.59042 0.39230 0.15361
 N705 N 0.56664 0.41138 0.13197
 C706 C 0.56295 0.39686 0.10083
 N707 N 0.58293 0.36243 0.09227
 N708 N 0.60674 0.34361 0.11370
 C709 C 0.85957 0.84022 0.33472
 N710 N 0.85894 0.84729 0.30185
 N711 N 0.83175 0.82845 0.28288
 C712 C 0.80404 0.80247 0.29622
 N713 N 0.80408 0.79651 0.32917
 N714 N 0.83140 0.81497 0.34807
 C715 C 0.89004 0.85877 0.35596
 N716 N 0.89554 0.84353 0.38656
 N717 N 0.92037 0.86187 0.40759
 C718 C 0.94068 0.89610 0.39883
 N719 N 0.93607 0.91093 0.36785
 N720 N 0.91131 0.89231 0.34661
 C721 C 0.34208 0.35966 -0.16483
 N722 N 0.31572 0.33254 -0.15151
 N723 N 0.29669 0.30569 -0.17038
 C724 C 0.30319 0.30513 -0.20324
 N725 N 0.33018 0.33183 -0.21656
 N726 N 0.34960 0.35857 -0.19761
 C727 C 0.36159 0.38916 -0.14355
 N728 N 0.39583 0.40936 -0.15284
 N729 N 0.41539 0.43304 -0.13140
 C730 C 0.40087 0.43742 -0.10030
 N731 N 0.36599 0.41819 -0.09159
 N732 N 0.34669 0.39449 -0.11283
 C733 C 1.15939 0.31209 -0.13536
 N734 N 1.15021 0.27488 -0.14796
 N735 N 1.17251 0.25923 -0.17246
 C736 C 1.20463 0.28022 -0.18531
 N737 N 1.21315 0.31750 -0.17292
 N738 N 1.19134 0.33288 -0.14831
 C739 C 1.13460 0.33193 -0.10959
 N740 N 1.14923 0.36638 -0.09571
 N741 N 1.12614 0.38855 -0.07580
 C742 C 1.08735 0.37737 -0.06861
 N743 N 1.07267 0.34215 -0.08167
 N744 N 1.09601 0.31973 -0.10180
 C745 C 0.65953 0.81086 0.36472
 N746 N 0.64572 0.77786 0.34795
 N747 N 0.66761 0.76209 0.32330
 C748 C 0.70406 0.77870 0.31443
 N749 N 0.71768 0.81157 0.33128
 N750 N 0.69603 0.82715 0.35597
 C751 C 0.63462 0.83159 0.39001
 N752 N 0.65010 0.86503 0.40491
 N753 N 0.62715 0.88754 0.42475
 C754 C 0.58775 0.87758 0.43094
 N755 N 0.57218 0.84345 0.41675
 N756 N 0.59529 0.82081 0.39664
 C757 C 0.83589 0.68942 -0.13418
 N758 N 0.80434 0.66861 -0.14770
 N759 N 0.78337 0.68389 -0.17281
 C760 C 0.79238 0.72109 -0.18520
 N761 N 0.82412 0.74208 -0.17180
 N762 N 0.84558 0.72652 -0.14678
 C763 C 0.85979 0.66977 -0.10777
 N764 N 0.89829 0.68174 -0.09960
 N765 N 0.92101 0.65940 -0.07898
 C766 C 0.90579 0.62450 -0.06574
 N767 N 0.86702 0.61358 -0.07328
 N768 N 0.84454 0.63567 -0.09371
 C769 C 0.33678 1.19071 0.36608
 N770 N 0.35136 1.22320 0.34904
 N771 N 0.33025 1.23870 0.32385
 C772 C 0.29387 1.22229 0.31465
 N773 N 0.27951 1.18989 0.33173
 N774 N 0.30037 1.17458 0.35696
 C775 C 0.36086 1.17039 0.39213
 N776 N 0.34471 1.13761 0.40757
 N777 N 0.36711 1.11533 0.42800
 C778 C 0.40660 1.12492 0.43428
 N779 N 0.42274 1.15847 0.41958
 N780 N 0.40020 1.18086 0.39891
 C781 C 1.16282 0.68763 0.13141
 N782 N 1.19886 0.67063 0.14043
 N783 N 1.21989 0.68503 0.16593
 C784 C 1.20602 0.71734 0.18336
 N785 N 1.17004 0.73461 0.17423
 N786 N 1.14877 0.72001 0.14880
 C787 C 1.13834 0.66830 0.10519
 N788 N 1.09897 0.67918 0.09907
 N789 N 1.07584 0.65738 0.07841
 C790 C 1.09146 0.62408 0.06306
 N791 N 1.13100 0.61413 0.06864
 N792 N 1.15397 0.63580 0.08908
 C793 C 0.66233 1.18745 0.63227
 N794 N 0.65300 1.22462 0.64485
 N795 N 0.67430 1.23980 0.67010
 C796 C 0.70552 1.21834 0.68377
 N797 N 0.71419 1.18108 0.67140
 N798 N 0.69337 1.16616 0.64605
 C799 C 0.63843 1.16822 0.60568
 N800 N 0.65319 1.13385 0.59176
 N801 N 0.63051 1.11213 0.57120
 C802 C 0.59205 1.12373 0.56338
 N803 N 0.57736 1.15892 0.57645
 N804 N 0.60027 1.18089 0.59720
 C805 C 0.83897 0.31169 0.13453
 N806 N 0.80309 0.32850 0.14417
 N807 N 0.78209 0.31314 0.16931
 C808 C 0.79575 0.27996 0.18573
 N809 N 0.83157 0.26284 0.17598
 N810 N 0.85284 0.27841 0.15088
 C811 C 0.86335 0.33219 0.10879
 N812 N 0.90243 0.32118 0.10160
 N813 N 0.92528 0.34373 0.08121
 C814 C 0.90966 0.37799 0.06732
 N815 N 0.87045 0.38816 0.07403
 N816 N 0.84777 0.36574 0.09415
 C817 C 0.34082 0.81204 0.63556
 N818 N 0.35010 0.77438 0.64720
 N819 N 0.32893 0.75837 0.67223
 C820 C 0.29788 0.77946 0.68657
 N821 N 0.28933 0.81720 0.67513
 N822 N 0.30999 0.83293 0.65003
 C823 C 0.36425 0.83218 0.60908
 N824 N 0.34918 0.86706 0.59627
 N825 N 0.37123 0.88941 0.57570
 C826 C 0.40938 0.87800 0.56676
 N827 N 0.42443 0.84236 0.57875
 N828 N 0.40214 0.81976 0.59955
 C829 C 0.31059 1.16374 -0.13198
 N830 N 0.27773 1.14957 -0.14881
 N831 N 0.26275 1.17039 -0.17434
 C832 C 0.28010 1.20604 -0.18412
 N833 N 0.31290 1.22001 -0.16726
 N834 N 0.32767 1.19944 -0.14168
 C835 C 0.33033 1.13979 -0.10563
 N836 N 0.36339 1.15554 -0.09026
 N837 N 0.38530 1.13303 -0.06967
 C838 C 0.37505 1.09384 -0.06317
 N839 N 0.34121 1.07813 -0.07777
 N840 N 0.31917 1.10079 -0.09859
 C841 C 0.81170 0.66227 0.36612
 N842 N 0.77405 0.65310 0.35423
 N843 N 0.75849 0.67402 0.32893
 C844 C 0.78005 0.70468 0.31452
 N845 N 0.81780 0.71310 0.32617
 N846 N 0.83309 0.69269 0.35157
 C847 C 0.83126 0.63907 0.39298
 N848 N 0.86583 0.65422 0.40641
 N849 N 0.88777 0.63224 0.42729
 C850 C 0.87621 0.59409 0.43594
 N851 N 0.84084 0.57901 0.42334
 N852 N 0.81865 0.60123 0.40226
 C853 C 0.68820 1.16010 0.13707
 N854 N 0.72584 1.15104 0.14901
 N855 N 0.74189 1.17294 0.17359
 C856 C 0.72087 1.20453 0.18714
 N857 N 0.68315 1.21287 0.17542
 N858 N 0.66738 1.19147 0.15077
 C859 C 0.66799 1.13596 0.11107
 N860 N 0.63311 1.15072 0.09795
 N861 N 0.61074 1.12824 0.07773
 C862 C 0.62213 1.08995 0.06946
 N863 N 0.65776 1.07516 0.08177
 N864 N 0.68039 1.09789 0.10223
 C865 C 1.19095 0.65927 0.63626
 N866 N 1.17493 0.69573 0.64514
 N867 N 1.19075 0.71710 0.66985
 C868 C 1.22363 0.70324 0.68662
 N869 N 1.23997 0.66680 0.67764
 N870 N 1.22394 0.64518 0.65295
 C871 C 1.16989 0.63474 0.61091
 N872 N 1.18037 0.59550 0.60404
 N873 N 1.15742 0.57277 0.58386
 C874 C 1.12327 0.58865 0.56987
 N875 N 1.11361 0.62797 0.57631
 N876 N 1.13642 0.65053 0.59620
 C877 C 0.68662 0.83991 -0.13360
 N878 N 0.66950 0.80405 -0.14284
 N879 N 0.68451 0.78277 -0.16794
 C880 C 0.71763 0.79612 -0.18473
 N881 N 0.73504 0.83192 -0.17539
 N882 N 0.71982 0.85348 -0.15035
 C883 C 0.66659 0.86458 -0.10783
 N884 N 0.67775 0.90371 -0.10124
 N885 N 0.65554 0.92682 -0.08082
 C886 C 0.62152 0.91142 -0.06625
 N887 N 0.61123 0.87216 -0.07236
 N888 N 0.63330 0.84922 -0.09253
 C889 C 1.18692 0.34110 0.36540
 N890 N 1.16585 0.30977 0.35188
 N891 N 1.18117 0.28850 0.32695
 C892 C 1.21867 0.29696 0.31479
 N893 N 1.23994 0.32848 0.32821
 N894 N 1.22436 0.35024 0.35305
 C895 C 1.16716 0.36533 0.39155
 N896 N 1.17988 0.40338 0.40018
 N897 N 1.15761 0.42632 0.42071
 C898 C 1.12201 0.41178 0.43332
 N899 N 1.11029 0.37349 0.42527
 N900 N 1.13232 0.35079 0.40497
 C901 C 0.31098 0.83660 0.13295
 N902 N 0.27411 0.84601 0.14620
 N903 N 0.25904 0.82412 0.17116
 C904 C 0.28033 0.79220 0.18388
 N905 N 0.31732 0.78347 0.17087
 N906 N 0.33211 0.80487 0.14578
 C907 C 0.33011 0.86106 0.10664
 N908 N 0.36382 0.84614 0.09171
 N909 N 0.38564 0.86914 0.07142
 C910 C 0.37478 0.90812 0.06491
 N911 N 0.34022 0.92302 0.07900
 N912 N 0.31816 0.89978 0.09946
 C913 C 0.80956 0.33814 0.63300
 N914 N 0.77780 0.35255 0.65103
 N915 N 0.76281 0.33091 0.67612
 C916 C 0.77904 0.29416 0.68426
 N917 N 0.81070 0.27990 0.66618
 N918 N 0.82550 0.30131 0.64103
 C919 C 0.82945 0.36288 0.60715
 N920 N 0.86165 0.34704 0.59070
 N921 N 0.88373 0.37000 0.57051
 C922 C 0.87449 0.40976 0.56550
 N923 N 0.84151 0.42563 0.58122
 N924 N 0.81931 0.40252 0.60165
 C925 C 1.14400 1.15534 0.66553
 N926 N 1.14520 1.14790 0.69831
 N927 N 1.17121 1.16822 0.71733
 C928 C 1.19701 1.19614 0.70408
 N929 N 1.19630 1.20265 0.67123
 N930 N 1.17020 1.18267 0.65230
 C931 C 1.11513 1.13503 0.64412
 N932 N 1.10987 1.14964 0.61332
 N933 N 1.08644 1.13005 0.59207
 C934 C 1.06738 1.09516 0.60082
 N935 N 1.07174 1.08082 0.63197
 N936 N 1.09520 1.10067 0.65343
 C937 C 0.66047 0.63697 0.16500
 N938 N 0.65392 0.63732 0.19793
 N939 N 0.67216 0.66506 0.21673
 C940 C 0.69695 0.69366 0.20316
 N941 N 0.70232 0.69392 0.17013
 N942 N 0.68449 0.66602 0.15139
 C943 C 0.64259 0.60588 0.14399
 N944 N 0.65796 0.60028 0.11342
 N945 N 0.63997 0.57497 0.09257
 C946 C 0.60595 0.55429 0.10147
 N947 N 0.59106 0.55899 0.13244
 N948 N 0.60936 0.58418 0.15352
 C949 C 1.15752 0.85336 0.33413
 N950 N 1.15018 0.85289 0.30132
 N951 N 1.16997 0.82677 0.28206
 C952 C 1.19722 0.80016 0.29510
 N953 N 1.20361 0.80017 0.32796
 N954 N 1.18416 0.82635 0.34714
 C955 C 1.13795 0.88235 0.35579
 N956 N 1.15261 0.88668 0.38668
 N957 N 1.13365 0.91034 0.40811
 C958 C 1.09937 0.93056 0.39946
 N959 N 1.08500 0.92710 0.36825
 N960 N 1.10422 0.90342 0.34660
 C961 C 0.63775 0.33708 -0.16584
 N962 N 0.63841 0.34429 -0.19869
 N963 N 0.66578 0.32577 -0.21770
 C964 C 0.69368 0.30001 -0.20442
 N965 N 0.69358 0.29389 -0.17148
 N966 N 0.66606 0.31200 -0.15254
 C967 C 0.60745 0.35574 -0.14449
 N968 N 0.60188 0.34049 -0.11388
 N969 N 0.57768 0.35927 -0.09262
 C970 C 0.55813 0.39399 -0.10115
 N971 N 0.56273 0.40878 -0.13215
 N972 N 0.58684 0.38973 -0.15362
 C973 C 0.84672 1.14455 0.33614
 N974 N 0.85304 1.14457 0.30319
 N975 N 0.83276 1.17052 0.28413
 C976 C 0.80598 1.19737 0.29749
 N977 N 0.80064 1.19786 0.33047
 N978 N 0.82059 1.17185 0.34946
 C979 C 0.86641 1.11537 0.35755
 N980 N 0.85231 1.11125 0.38862
 N981 N 0.87108 1.08697 0.40968
 C982 C 0.90462 1.06588 0.40047
 N983 N 0.91846 1.06919 0.36907
 N984 N 0.89940 1.09350 0.34779
 C985 C 0.36536 0.65846 -0.16450
 N986 N 0.33748 0.68372 -0.15079
 N987 N 0.30977 0.70214 -0.16933
 C988 C 0.30908 0.69615 -0.20228
 N989 N 0.33650 0.67016 -0.21594
 N990 N 0.36404 0.65134 -0.19733
 C991 C 0.39609 0.63970 -0.14365
 N992 N 0.41625 0.60552 -0.15301
 N993 N 0.44089 0.58650 -0.13193
 C994 C 0.44650 0.60153 -0.10113
 N995 N 0.42742 0.63645 -0.09242
 N996 N 0.40269 0.65520 -0.11327
 C997 C 0.85624 0.84253 0.66510
 N998 N 0.82782 0.81758 0.65179
 N999 N 0.80077 0.79897 0.67079
 C1000 C 0.80127 0.80455 0.70375
 N1001 N 0.82922 0.83025 0.71707
 N1002 N 0.85619 0.84922 0.69800
 C1003 C 0.88641 0.86088 0.64374
 N1004 N 0.90867 0.89369 0.65320
 N1005 N 0.93332 0.91213 0.63177
 C1006 C 0.93663 0.89782 0.60054
 N1007 N 0.91531 0.86430 0.59166
 N1008 N 0.89066 0.84615 0.61287
 C1009 C 0.33941 0.36389 0.16549
 N1010 N 0.31320 0.33675 0.15198
 N1011 N 0.29457 0.30926 0.17060
 C1012 C 0.30132 0.30799 0.20344
 N1013 N 0.32819 0.33470 0.21692
 N1014 N 0.34721 0.36205 0.19821
 C1015 C 0.35869 0.39416 0.14447
 N1016 N 0.39332 0.41377 0.15367
 N1017 N 0.41285 0.43780 0.13240
 C1018 C 0.39792 0.44331 0.10154
 N1019 N 0.36258 0.42478 0.09298
 N1020 N 0.34331 0.40068 0.11403
   
