data_POSCAR
  _audit_creation_date              2014-09-24
  _audit_creation_method            'ToBaCCo'
  _symmetry_space_group_name_H-M    'P1'
  _symmetry_Int_Tables_number       1
  _symmetry_cell_setting            triclinic
  loop_
  _symmetry_equiv_pos_as_xyz
 x,y,z
_cell_length_a 17.8757
_cell_length_b 17.9360
_cell_length_c 17.9179
_cell_angle_alpha 90.356300
_cell_angle_beta 90.470600
_cell_angle_gamma 89.803900
loop_
  _atom_site_label
  _atom_site_type_symbol
  _atom_site_fract_x
  _atom_site_fract_y
  _atom_site_fract_z
C1 C 0.50577 0.99710 -0.70158
 C2 C 0.43686 0.99137 -0.66495
 C3 C 0.43595 0.99023 -0.58693
 C4 C 0.50186 1.00171 -0.54446
 C5 C 0.56961 1.01179 -0.58297
 C6 C 0.57249 1.00604 -0.66072
 C7 C 0.50011 1.00275 -0.46077
 C8 C 0.56630 0.99274 -0.41826
 C9 C 0.56534 0.99571 -0.34042
 C10 C 0.49679 1.00204 -0.30366
 C11 C 0.43010 1.00945 -0.34436
 C12 C 0.43225 1.01308 -0.42211
 H13 H 0.50821 0.99518 -0.76186
 H14 H 0.38286 0.98040 -0.56056
 H15 H 0.62073 1.02427 -0.55334
 H16 H 0.61959 0.98229 -0.44422
 H17 H 0.49459 1.00130 -0.24338
 H18 H 0.38041 1.02374 -0.45127
 C19 C -0.70278 1.49901 -0.00221
 C20 C -0.66400 1.43106 -0.00750
 C21 C -0.58567 1.43169 -0.00953
 C22 C -0.54514 1.49888 -0.00081
 C23 C -0.58625 1.56584 0.00819
 C24 C -0.66434 1.56675 0.00435
 C25 C -0.46094 1.49957 -0.00074
 C26 C -0.42145 1.56690 -0.01074
 C27 C -0.34354 1.56916 -0.00583
 C28 C -0.30320 1.50270 0.00263
 C29 C -0.34046 1.43429 0.00822
 C30 C -0.41875 1.43343 0.00937
 H31 H -0.76296 1.49921 -0.00262
 H32 H -0.55763 1.37899 -0.01800
 H33 H -0.55887 1.61843 0.01861
 H34 H -0.45004 1.61843 -0.02264
 H35 H -0.24279 1.50492 0.00418
 H36 H -0.44526 1.38034 0.01828
 C37 C -0.00159 0.29883 0.50061
 C38 C -0.00696 0.33675 0.43263
 C39 C -0.01079 0.41469 0.43326
 C40 C -0.00276 0.45583 0.50050
 C41 C 0.00610 0.41559 0.56768
 C42 C 0.00342 0.33785 0.56825
 C43 C -0.00339 0.53970 0.50064
 C44 C -0.01428 0.58047 0.56740
 C45 C -0.01057 0.65841 0.56892
 C46 C -0.00371 0.69703 0.50119
 C47 C 0.00366 0.65792 0.43344
 C48 C 0.00724 0.58008 0.43418
 H49 H -0.00108 0.23886 0.50113
 H50 H -0.02013 0.44188 0.38043
 H51 H 0.01533 0.44316 0.62060
 H52 H -0.02592 0.55243 0.61889
 H53 H -0.00358 0.75747 0.50116
 H54 H 0.01861 0.55205 0.38222
 O55 O -0.10164 0.99758 -0.19201
 O56 O -0.10196 1.00430 0.19103
 O57 O -0.18980 0.89667 -0.00462
 O58 O -0.19131 1.10244 0.00338
 O59 O -0.09878 1.19204 0.00429
 O60 O -0.09654 0.80742 -0.00295
 O61 O -0.19151 1.00206 0.09756
 O62 O -0.19124 0.99785 -0.09992
 Zr63 Zr -0.13010 0.99996 -0.00046
 O64 O -0.06665 1.06790 0.06804
 O65 O -0.06616 0.93258 -0.06799
 C66 C -0.17040 0.99641 -0.16868
 C67 C -0.17095 1.00448 0.16667
 C68 C -0.16574 0.82791 -0.00518
 C69 C -0.16781 1.17112 0.00550
 H70 H -0.09753 0.90124 0.09865
 O71 O -0.06571 0.93296 0.06714
 H72 H -0.09895 1.09965 -0.09854
 O73 O -0.06671 1.06777 -0.06685
 O74 O 0.10489 0.99694 0.19273
 O75 O 0.10381 1.00447 -0.19040
 O76 O 0.00536 0.80964 0.10377
 O77 O -0.00178 1.19262 0.10348
 O78 O 0.00316 1.19258 -0.10005
 O79 O -0.00216 0.80947 -0.10451
 O80 O 0.19401 0.89759 0.00388
 O81 O 0.19373 1.10192 -0.00133
 O82 O 0.10141 0.80814 0.00203
 O83 O 0.10070 1.19156 -0.00111
 O84 O 0.00373 0.90279 0.19324
 O85 O -0.00139 0.90247 -0.19298
 O86 O 0.00240 1.10017 -0.19032
 O87 O -0.00061 1.10027 0.19267
 O88 O 0.19415 0.99697 0.10029
 O89 O 0.19369 1.00242 -0.09733
 Zr90 Zr 0.00156 1.00073 0.13179
 Zr91 Zr 0.00109 1.00064 -0.13063
 Zr92 Zr 0.00192 0.86893 -0.00015
 Zr93 Zr 0.00100 1.13140 0.00136
 Zr94 Zr 0.13278 0.99999 0.00120
 O95 O 0.06888 1.06794 -0.06629
 O96 O 0.06941 0.93271 0.06829
 C97 C 0.17364 0.99520 0.16908
 C98 C 0.17276 1.00500 -0.16634
 C99 C 0.00570 0.83377 0.17280
 C100 C -0.00262 1.16909 0.17196
 C101 C 0.00385 1.16901 -0.16881
 C102 C -0.00355 0.83352 -0.17323
 C103 C 0.17042 0.82899 0.00426
 C104 C 0.16984 1.17052 -0.00279
 H105 H 0.10084 0.90100 -0.09912
 O106 O 0.06895 0.93275 -0.06707
 H107 H 0.10121 1.09955 0.10091
 O108 O 0.06910 1.06777 0.06880
 C109 C 0.24584 0.99013 0.30790
 C110 C 0.30722 0.92894 0.30012
 C111 C 0.36755 0.98982 0.29470
 C112 C 0.30731 1.05093 0.30367
 C113 C 0.35884 0.99198 0.20928
 C114 C 0.29813 0.93117 0.21411
 C115 C 0.23801 0.99232 0.22246
 C116 C 0.29843 1.05302 0.21786
 H117 H 0.19884 0.98947 0.34797
 H118 H 0.31167 0.87743 0.33392
 H119 H 0.31182 1.10068 0.34059
 H120 H 0.40309 0.99259 0.16625
 H121 H 0.29360 0.88142 0.17714
 H122 H 0.29421 1.10463 0.18412
 C123 C -0.31508 0.99585 0.18954
 C124 C -0.33131 0.94132 0.25344
 C125 C -0.35767 1.00768 0.30130
 C126 C -0.34147 1.06220 0.23776
 C127 C -0.27767 1.01805 0.33295
 C128 C -0.25060 0.95160 0.28392
 C129 C -0.23470 1.00623 0.22035
 C130 C -0.26077 1.07262 0.26825
 H131 H -0.33170 0.98635 0.13039
 H132 H -0.36083 0.88726 0.24707
 H133 H -0.37916 1.10766 0.21857
 H134 H -0.26102 1.02745 0.39204
 H135 H -0.21257 0.90624 0.30265
 H136 H -0.23204 1.12702 0.27400
 C137 C -0.29262 1.05780 -0.22091
 C138 C -0.29986 1.05276 -0.30683
 C139 C -0.36190 0.99407 -0.29769
 C140 C -0.35484 0.99922 -0.21225
 C141 C -0.30323 0.93103 -0.30028
 C142 C -0.24007 0.98975 -0.30827
 C143 C -0.23402 0.99484 -0.22279
 C144 C -0.29595 0.93620 -0.21431
 H145 H -0.28755 1.11040 -0.18825
 H146 H -0.30238 1.10111 -0.34515
 H147 H -0.40018 1.00304 -0.17050
 H148 H -0.30852 0.87851 -0.33296
 H149 H -0.19222 0.98596 -0.34721
 H150 H -0.29384 0.88816 -0.17576
 C151 C 0.31669 0.99782 -0.19137
 C152 C 0.33255 0.94391 -0.25660
 C153 C 0.35701 1.01076 -0.30374
 C154 C 0.34113 1.06465 -0.23883
 C155 C 0.27644 1.02060 -0.33376
 C156 C 0.25126 0.95362 -0.28554
 C157 C 0.23575 1.00765 -0.22061
 C158 C 0.25984 1.07458 -0.26775
 H159 H 0.33435 0.98812 -0.13265
 H160 H 0.36313 0.89014 -0.25197
 H161 H 0.37852 1.11031 -0.21962
 H162 H 0.25951 1.03025 -0.39264
 H163 H 0.21362 0.90802 -0.30439
 H164 H 0.23036 1.12885 -0.27176
 C165 C 0.21589 1.29258 -0.06717
 C166 C 0.21087 1.35397 -0.00672
 C167 C 0.29667 1.36165 -0.00841
 C168 C 0.30213 1.30049 -0.06895
 C169 C 0.30527 1.30253 0.05321
 C170 C 0.21918 1.29481 0.05486
 C171 C 0.22372 1.23368 -0.00550
 C172 C 0.30948 1.24018 -0.00724
 H173 H 0.17897 1.28783 -0.11713
 H174 H 0.16683 1.39767 -0.00674
 H175 H 0.33628 1.30353 -0.12030
 H176 H 0.34216 1.30728 0.10314
 H177 H 0.18508 1.29197 0.10630
 H178 H 0.34948 1.19272 -0.00738
 C179 C 0.22156 0.70742 -0.05777
 C180 C 0.30750 0.69845 -0.05223
 C181 C 0.29646 0.63642 0.00586
 C182 C 0.21092 0.64527 0.00019
 C183 C 0.30018 0.69445 0.06956
 C184 C 0.30994 0.75769 0.01144
 C185 C 0.22436 0.76541 0.00578
 C186 C 0.21419 0.70347 0.06382
 H187 H 0.18933 0.71340 -0.11063
 H188 H 0.34603 0.69566 -0.10045
 H189 H 0.16692 0.60200 -0.00445
 H190 H 0.33244 0.68837 0.12238
 H191 H 0.35012 0.80456 0.01601
 H192 H 0.17545 0.70600 0.11177
 C193 C -0.26949 0.73895 -0.07281
 C194 C -0.23964 0.65832 -0.06324
 C195 C -0.30263 0.64233 -0.00788
 C196 C -0.33356 0.72227 -0.01735
 C197 C -0.25322 0.66817 0.05794
 C198 C -0.18990 0.68414 0.00257
 C199 C -0.22007 0.76445 -0.00691
 C200 C -0.28308 0.74878 0.04859
 H201 H -0.27586 0.76781 -0.12700
 H202 H -0.22166 0.62071 -0.10919
 H203 H -0.39295 0.73860 -0.02575
 H204 H -0.24635 0.63849 0.11176
 H205 H -0.13063 0.66724 0.01109
 H206 H -0.30073 0.78662 0.09450
 C207 C -0.21861 1.29468 -0.05268
 C208 C -0.30481 1.30126 -0.05113
 C209 C -0.29758 1.36168 0.01009
 C210 C -0.21175 1.35517 0.00853
 C211 C -0.30180 1.30151 0.07096
 C212 C -0.30792 1.24003 0.00964
 C213 C -0.22209 1.23453 0.00805
 C214 C -0.21542 1.29474 0.06935
 H215 H -0.18440 1.29134 -0.10406
 H216 H -0.34175 1.30468 -0.10110
 H217 H -0.16982 1.40060 0.00824
 H218 H -0.33611 1.30512 0.12221
 H219 H -0.34702 1.19210 0.01003
 H220 H -0.17846 1.29139 0.11936
 C221 C -0.01161 1.30846 0.24177
 C222 C -0.07040 1.29872 0.30445
 C223 C -0.00711 1.29698 0.36327
 C224 C 0.05166 1.30799 0.30180
 C225 C -0.00027 1.21167 0.35556
 C226 C -0.06352 1.21300 0.29660
 C227 C -0.00483 1.22316 0.23526
 C228 C 0.05834 1.22228 0.29395
 H229 H -0.01617 1.34764 0.19424
 H230 H -0.12377 1.33011 0.30950
 H231 H 0.09945 1.34730 0.30469
 H232 H 0.00450 1.16838 0.39929
 H233 H -0.11091 1.17340 0.29407
 H234 H 0.11171 1.19083 0.28897
 C235 C 0.06226 1.21237 -0.29415
 C236 C -0.00211 1.21169 -0.35183
 C237 C 0.00476 1.29689 -0.35863
 C238 C 0.06914 1.29799 -0.30100
 C239 C -0.05274 1.30834 -0.29586
 C240 C -0.05947 1.22270 -0.28897
 C241 C 0.00485 1.22301 -0.23151
 C242 C 0.01165 1.30824 -0.23706
 H243 H 0.10950 1.17226 -0.29322
 H244 H -0.00792 1.16893 -0.39646
 H245 H 0.12241 1.32898 -0.30677
 H246 H -0.10043 1.34811 -0.29742
 H247 H -0.11278 1.19169 -0.28336
 H248 H 0.01724 1.34737 -0.18912
 C249 C 0.05135 0.72004 -0.25832
 C250 C -0.01305 0.66651 -0.28127
 C251 C -0.01107 0.69809 -0.36144
 C252 C 0.05329 0.75055 -0.33899
 C253 C -0.06933 0.75772 -0.34070
 C254 C -0.07135 0.72726 -0.25979
 C255 C -0.00688 0.77970 -0.23776
 C256 C -0.00495 0.81057 -0.31821
 H257 H 0.10091 0.70450 -0.22404
 H258 H -0.01638 0.60723 -0.26433
 H259 H 0.10460 0.76058 -0.37191
 H260 H -0.11889 0.77350 -0.37491
 H261 H -0.12247 0.71772 -0.22642
 H262 H -0.00143 0.87005 -0.33464
 C263 C -0.00108 0.81133 0.31731
 C264 C -0.05837 0.74991 0.33441
 C265 C 0.00628 0.69929 0.36033
 C266 C 0.06357 0.76036 0.34325
 C267 C 0.01405 0.66739 0.28035
 C268 C -0.05071 0.71903 0.25385
 C269 C 0.00671 0.78009 0.23697
 C270 C 0.07147 0.72950 0.26263
 H271 H -0.00759 0.87076 0.33385
 H272 H -0.11179 0.75866 0.36445
 H273 H 0.11047 0.77761 0.38041
 H274 H 0.02047 0.60796 0.26398
 H275 H -0.09761 0.70205 0.21654
 H276 H 0.12521 0.72111 0.23329
   
