data_POSCAR
  _audit_creation_date              2014-09-24
  _audit_creation_method            'ToBaCCo'
  _symmetry_space_group_name_H-M    'P1'
  _symmetry_Int_Tables_number       1
  _symmetry_cell_setting            triclinic
  loop_
  _symmetry_equiv_pos_as_xyz
 x,y,z
_cell_length_a 52.0964
_cell_length_b 52.2910
_cell_length_c 29.9164
_cell_angle_alpha 90.236400
_cell_angle_beta 90.214300
_cell_angle_gamma 90.664200
loop_
  _atom_site_label
  _atom_site_type_symbol
  _atom_site_fract_x
  _atom_site_fract_y
  _atom_site_fract_z
O1 O -0.02394 0.28146 0.01500
 O2 O 0.03232 0.27757 -0.06070
 O3 O -0.01795 0.28057 -0.07173
 O4 O 0.02653 0.28134 0.02454
 O5 O 0.02469 0.23916 0.02665
 O6 O -0.02018 0.23845 -0.06851
 O7 O 0.02873 0.23554 -0.05939
 O8 O -0.02488 0.23931 0.01815
 Cu9 Cu 0.00430 0.28452 -0.02353
 Cu10 Cu 0.00179 0.23398 -0.02039
 C11 C -0.03389 0.26076 0.02956
 C12 C 0.04024 0.25562 -0.07264
 C13 C -0.02666 0.25937 -0.08653
 C14 C 0.03365 0.26031 0.04131
 O15 O 0.52123 0.77730 0.45691
 O16 O 0.47400 0.77778 0.54878
 O17 O 0.52465 0.77857 0.54331
 O18 O 0.47074 0.77533 0.46238
 O19 O 0.47165 0.73320 0.46543
 O20 O 0.52498 0.73638 0.54506
 O21 O 0.47543 0.73563 0.55157
 O22 O 0.52113 0.73508 0.45862
 Cu23 Cu 0.49759 0.78153 0.50265
 Cu24 Cu 0.49840 0.73089 0.50542
 C25 C 0.52928 0.75602 0.44229
 C26 C 0.46651 0.75668 0.56551
 C27 C 0.53420 0.75782 0.55745
 C28 C 0.46177 0.75357 0.45068
 O29 O 1.02154 0.72334 0.05233
 O30 O 0.97570 0.72246 -0.04209
 O31 O 1.02635 0.72476 -0.03323
 O32 O 0.97082 0.72316 0.04416
 O33 O 0.97055 0.76536 0.04405
 O34 O 1.02505 0.76687 -0.03239
 O35 O 0.97575 0.76469 -0.04182
 O36 O 1.01976 0.76542 0.05416
 Cu37 Cu 0.99862 0.71915 0.00521
 Cu38 Cu 0.99777 0.76974 0.00605
 C39 C 1.02871 0.74462 0.06916
 C40 C 0.96779 0.74349 -0.05777
 C41 C 1.03543 0.74633 -0.04549
 C42 C 0.96104 0.74419 0.05672
 O43 O 0.52942 0.21398 0.52066
 O44 O 0.47414 0.21710 0.44231
 O45 O 0.52477 0.21590 0.43473
 O46 O 0.47881 0.21338 0.52835
 O47 O 0.48018 0.25553 0.53280
 O48 O 0.52516 0.25808 0.43887
 O49 O 0.47567 0.25923 0.44687
 O50 O 0.52957 0.25616 0.52496
 Cu51 Cu 0.50166 0.21080 0.48102
 Cu52 Cu 0.50272 0.26141 0.48626
 C53 C 0.53903 0.23480 0.53568
 C54 C 0.46531 0.23888 0.43181
 C55 C 0.53308 0.23747 0.42139
 C56 C 0.47151 0.23412 0.54624
 O57 O 0.70978 -0.02446 -0.01533
 O58 O 0.72271 0.02851 -0.09501
 O59 O 0.72104 -0.02175 -0.09981
 O60 O 0.71176 0.02636 -0.01075
 O61 O 0.75267 0.02329 0.00778
 O62 O 0.76252 -0.02173 -0.08453
 O63 O 0.76335 0.02798 -0.07434
 O64 O 0.75124 -0.02572 -0.00004
 Cu65 Cu 0.71209 0.00218 -0.05685
 Cu66 Cu 0.76157 0.00056 -0.03642
 C67 C 0.72860 -0.03421 0.00550
 C68 C 0.74527 0.03809 -0.09640
 C69 C 0.74348 -0.02993 -0.10727
 C70 C 0.73088 0.03343 0.01303
 O71 O 0.21991 0.46923 0.61083
 O72 O 0.20988 0.52286 0.53227
 O73 O 0.21251 0.47219 0.52515
 O74 O 0.21792 0.51946 0.61723
 O75 O 0.26000 0.52063 0.60838
 O76 O 0.25411 0.47646 0.51322
 O77 O 0.25198 0.52651 0.52515
 O78 O 0.26164 0.47186 0.59888
 Cu79 Cu 0.21080 0.49554 0.57217
 Cu80 Cu 0.26107 0.49894 0.55974
 C81 C 0.24256 0.46134 0.61793
 C82 C 0.22955 0.53469 0.51767
 C83 C 0.23262 0.46598 0.50395
 C84 C 0.23996 0.52828 0.62811
 O85 O 0.28041 1.02604 0.11149
 O86 O 0.29058 0.97432 0.02839
 O87 O 0.28819 1.02511 0.02649
 O88 O 0.28317 0.97545 0.11425
 O89 O 0.24130 0.97332 0.10290
 O90 O 0.24657 1.02111 0.01447
 O91 O 0.24866 0.97206 0.01748
 O92 O 0.23868 1.02250 0.10038
 Cu93 Cu 0.28985 1.00045 0.07133
 Cu94 Cu 0.23969 0.99701 0.05773
 C95 C 0.25767 1.03334 0.11966
 C96 C 0.27111 0.96433 0.00902
 C97 C 0.26800 1.03173 0.00567
 C98 C 0.26125 0.96586 0.12320
 O99 O 0.77849 0.47699 0.40547
 O100 O 0.78404 0.52840 0.49004
 O101 O 0.78353 0.47770 0.49204
 O102 O 0.77762 0.52706 0.40407
 O103 O 0.73554 0.52594 0.41262
 O104 O 0.74144 0.47773 0.50000
 O105 O 0.74195 0.52732 0.49849
 O106 O 0.73638 0.47685 0.41361
 Cu107 Cu 0.78522 0.50256 0.44730
 Cu108 Cu 0.73467 0.50188 0.45720
 C109 C 0.75640 0.46829 0.39498
 C110 C 0.76380 0.53688 0.50812
 C111 C 0.76327 0.46911 0.51060
 C112 C 0.75538 0.53485 0.39345
 C113 C 0.19397 0.20974 0.23211
 C114 C 0.21657 0.20088 0.25187
 C115 C 0.23245 0.21837 0.27487
 C116 C 0.22694 0.24480 0.27571
 C117 C 0.20387 0.25308 0.25564
 C118 C 0.18696 0.23547 0.23501
 C119 C 0.24572 0.26346 0.29623
 C120 C 0.23778 0.28722 0.31387
 C121 C 0.25576 0.30467 0.33213
 C122 C 0.28162 0.29766 0.33495
 C123 C 0.28996 0.27415 0.31828
 C124 C 0.27211 0.25755 0.29794
 H125 H 0.18203 0.19668 0.21276
 H126 H 0.24916 0.21116 0.29198
 H127 H 0.19900 0.27312 0.25551
 H128 H 0.21773 0.29235 0.31350
 H129 H 0.29524 0.31033 0.35157
 H130 H 0.27915 0.24014 0.28302
 C131 C 0.77490 0.79315 0.15292
 C132 C 0.74878 0.79901 0.15530
 C133 C 0.73138 0.78076 0.17198
 C134 C 0.74014 0.75727 0.18921
 C135 C 0.76675 0.75225 0.18748
 C136 C 0.78403 0.76971 0.16829
 C137 C 0.72197 0.73830 0.20998
 C138 C 0.72848 0.71219 0.21258
 C139 C 0.71303 0.69471 0.23587
 C140 C 0.68982 0.70295 0.25398
 C141 C 0.68210 0.72843 0.25012
 C142 C 0.69854 0.74615 0.22915
 H143 H 0.78810 0.80678 0.13795
 H144 H 0.71118 0.78527 0.17185
 H145 H 0.77450 0.73502 0.20177
 H146 H 0.74569 0.70513 0.19698
 H147 H 0.67821 0.68969 0.27322
 H148 H 0.69303 0.76599 0.22855
 C149 C 0.78454 0.21040 0.14763
 C150 C 0.79329 0.23469 0.16079
 C151 C 0.77594 0.25184 0.17997
 C152 C 0.74953 0.24550 0.18397
 C153 C 0.74119 0.22117 0.16854
 C154 C 0.75870 0.20334 0.15202
 C155 C 0.73100 0.26387 0.20492
 C156 C 0.70738 0.25517 0.22302
 C157 C 0.69024 0.27223 0.24309
 C158 C 0.69745 0.29796 0.24767
 C159 C 0.72083 0.30712 0.23093
 C160 C 0.73704 0.29025 0.20832
 H161 H 0.79779 0.19708 0.13260
 H162 H 0.78356 0.26980 0.19237
 H163 H 0.72119 0.21561 0.16954
 H164 H 0.70208 0.23517 0.22223
 H165 H 0.68524 0.31074 0.26637
 H166 H 0.75434 0.29808 0.19378
 C167 C 0.19420 0.79296 0.24802
 C168 C 0.18470 0.76799 0.25404
 C169 C 0.20042 0.74994 0.27521
 C170 C 0.22494 0.75704 0.29181
 C171 C 0.23318 0.78274 0.28739
 C172 C 0.21816 0.80059 0.26485
 C173 C 0.24218 0.73793 0.31334
 C174 C 0.26908 0.74143 0.31153
 C175 C 0.28563 0.72518 0.33458
 C176 C 0.27530 0.70434 0.35780
 C177 C 0.24875 0.69991 0.35920
 C178 C 0.23219 0.71672 0.33707
 H179 H 0.18318 0.80650 0.22876
 H180 H 0.19359 0.73043 0.27838
 H181 H 0.25124 0.78919 0.30167
 H182 H 0.27744 0.75689 0.29236
 H183 H 0.28796 0.69182 0.37615
 H184 H 0.21169 0.71374 0.34013
 C185 C 0.71881 0.29419 0.65653
 C186 C 0.71218 0.26851 0.66357
 C187 C 0.73077 0.25178 0.68014
 C188 C 0.75551 0.26083 0.69252
 C189 C 0.76135 0.28705 0.68606
 C190 C 0.74337 0.30358 0.66705
 C191 C 0.77501 0.24300 0.71191
 C192 C 0.80157 0.24883 0.70992
 C193 C 0.81972 0.23258 0.72909
 C194 C 0.81145 0.20930 0.74717
 C195 C 0.78528 0.20321 0.75127
 C196 C 0.76720 0.22036 0.73408
 H197 H 0.70494 0.30676 0.64122
 H198 H 0.72566 0.23179 0.68335
 H199 H 0.77969 0.29507 0.69611
 H200 H 0.80855 0.26603 0.69395
 H201 H 0.82564 0.19641 0.76041
 H202 H 0.74708 0.21639 0.73965
 C203 C 0.30307 0.70323 0.75025
 C204 C 0.31102 0.72888 0.75272
 C205 C 0.29483 0.74680 0.77297
 C206 C 0.27136 0.73907 0.79264
 C207 C 0.26440 0.71287 0.79098
 C208 C 0.27981 0.69503 0.76891
 C209 C 0.25389 0.75822 0.81380
 C210 C 0.22710 0.75352 0.81561
 C211 C 0.21053 0.77102 0.83594
 C212 C 0.22076 0.79405 0.85262
 C213 C 0.24699 0.79975 0.84960
 C214 C 0.26361 0.78149 0.83169
 H215 H 0.31464 0.68968 0.73194
 H216 H 0.30060 0.76671 0.77289
 H217 H 0.24703 0.70603 0.80682
 H218 H 0.21881 0.73650 0.80055
 H219 H 0.20833 0.80760 0.86907
 H220 H 0.28397 0.78576 0.83150
 C221 C 0.31059 0.28497 0.73245
 C222 C 0.28749 0.29359 0.75044
 C223 C 0.27162 0.27621 0.77308
 C224 C 0.27744 0.24990 0.77483
 C225 C 0.30079 0.24168 0.75600
 C226 C 0.31775 0.25929 0.73593
 C227 C 0.25866 0.23138 0.79512
 C228 C 0.26661 0.20785 0.81354
 C229 C 0.24862 0.19085 0.83251
 C230 C 0.22292 0.19831 0.83567
 C231 C 0.21445 0.22121 0.81709
 C232 C 0.23224 0.23725 0.79589
 H233 H 0.32268 0.29812 0.71387
 H234 H 0.25459 0.28347 0.78904
 H235 H 0.30586 0.22170 0.75637
 H236 H 0.28660 0.20256 0.81316
 H237 H 0.20939 0.18625 0.85347
 H238 H 0.22515 0.25418 0.77958
 C239 C 0.71702 0.71000 0.66300
 C240 C 0.74291 0.70315 0.66465
 C241 C 0.76119 0.72103 0.68028
 C242 C 0.75357 0.74514 0.69688
 C243 C 0.72716 0.75107 0.69615
 C244 C 0.70897 0.73389 0.67833
 C245 C 0.77282 0.76385 0.71583
 C246 C 0.76744 0.79026 0.71708
 C247 C 0.78385 0.80764 0.73919
 C248 C 0.80696 0.79879 0.75708
 C249 C 0.81365 0.77297 0.75401
 C250 C 0.79621 0.75549 0.73453
 H251 H 0.70309 0.69686 0.64836
 H252 H 0.78121 0.71588 0.67959
 H253 H 0.72032 0.76884 0.71003
 H254 H 0.75032 0.79756 0.70140
 H255 H 0.81936 0.81184 0.77557
 H256 H 0.80093 0.73543 0.73473
 C257 C 0.24270 0.09946 0.19525
 C258 C 0.26811 0.09409 0.18320
 C259 C 0.27343 0.07103 0.16094
 C260 C 0.25326 0.05413 0.14847
 C261 C 0.22800 0.05960 0.16228
 C262 C 0.22268 0.08206 0.18592
 C263 C 0.23667 0.12442 0.21562
 C264 C 0.21115 0.12994 0.22656
 C265 C 0.20514 0.15436 0.24241
 C266 C 0.22416 0.17373 0.24513
 C267 C 0.24992 0.16749 0.23601
 C268 C 0.25627 0.14281 0.22132
 C269 C 0.19752 0.08792 0.19878
 C270 C 0.19188 0.11139 0.21911
 C271 C 0.28745 0.11248 0.19164
 C272 C 0.28160 0.13650 0.21002
 H273 H 0.18195 0.07450 0.19216
 H274 H 0.17212 0.11542 0.22755
 H275 H 0.30715 0.10861 0.18258
 H276 H 0.29696 0.15043 0.21453
 H277 H 0.29295 0.06721 0.15062
 H278 H 0.21228 0.04667 0.15380
 H279 H 0.18538 0.15865 0.25048
 H280 H 0.26476 0.18216 0.23765
 C281 C 0.76225 0.60426 0.58856
 C282 C 0.78192 0.60144 0.55700
 C283 C 0.78357 0.57843 0.53281
 C284 C 0.76518 0.55884 0.53913
 C285 C 0.74613 0.56169 0.57192
 C286 C 0.74461 0.58434 0.59682
 C287 C 0.75915 0.62903 0.61154
 C288 C 0.73886 0.63204 0.64176
 C289 C 0.73478 0.65605 0.66101
 C290 C 0.75028 0.67723 0.64931
 C291 C 0.77121 0.67371 0.62032
 C292 C 0.77567 0.64958 0.60115
 C293 C 0.72509 0.58785 0.62842
 C294 C 0.72233 0.61129 0.65068
 C295 C 0.79873 0.62210 0.54878
 C296 C 0.79560 0.64579 0.57037
 H297 H 0.71149 0.57255 0.63526
 H298 H 0.70667 0.61342 0.67409
 H299 H 0.81401 0.62017 0.52458
 H300 H 0.80856 0.66142 0.56218
 H301 H 0.79809 0.57641 0.50721
 H302 H 0.73199 0.54660 0.57695
 H303 H 0.71891 0.65852 0.68393
 H304 H 0.78315 0.68992 0.61098
 C305 C 0.72707 0.89789 0.08317
 C306 C 0.70965 0.90012 0.04743
 C307 C 0.70841 0.92338 0.02401
 C308 C 0.72502 0.94381 0.03560
 C309 C 0.74143 0.94157 0.07278
 C310 C 0.74263 0.91867 0.09657
 C311 C 0.73037 0.87290 0.10504
 C312 C 0.74889 0.87049 0.13893
 C313 C 0.75364 0.84635 0.15685
 C314 C 0.74034 0.82461 0.14078
 C315 C 0.72095 0.82741 0.10828
 C316 C 0.71607 0.85160 0.08987
 C317 C 0.76014 0.91573 0.13191
 C318 C 0.76320 0.89203 0.15279
 C319 C 0.69494 0.87863 0.03437
 C320 C 0.69809 0.85480 0.05522
 H321 H 0.77212 0.93170 0.14264
 H322 H 0.77743 0.89037 0.17910
 H323 H 0.68139 0.88006 0.00695
 H324 H 0.68685 0.83858 0.04328
 H325 H 0.69600 0.92495 -0.00500
 H326 H 0.75421 0.95731 0.08176
 H327 H 0.76841 0.84424 0.18218
 H328 H 0.71077 0.81066 0.09571
 C329 C 0.25842 0.39365 0.69186
 C330 C 0.23350 0.39738 0.67514
 C331 C 0.22781 0.42036 0.65326
 C332 C 0.24708 0.43911 0.64711
 C333 C 0.27169 0.43538 0.66546
 C334 C 0.27748 0.41268 0.68781
 C335 C 0.26509 0.36882 0.71177
 C336 C 0.29031 0.36475 0.72664
 C337 C 0.29712 0.34051 0.74221
 C338 C 0.27909 0.32021 0.74191
 C339 C 0.25357 0.32494 0.72863
 C340 C 0.24650 0.34920 0.71333
 C341 C 0.30224 0.40822 0.70456
 C342 C 0.30854 0.38467 0.72376
 C343 C 0.21514 0.37762 0.67892
 C344 C 0.22155 0.35391 0.69760
 H345 H 0.31705 0.42285 0.70186
 H346 H 0.32803 0.38180 0.73530
 H347 H 0.19584 0.38026 0.66629
 H348 H 0.20700 0.33896 0.69880
 H349 H 0.20890 0.42304 0.63893
 H350 H 0.28657 0.44981 0.66110
 H351 H 0.31668 0.33718 0.75296
 H352 H 0.23960 0.30942 0.72773
 C353 C 0.89621 0.25605 0.10314
 C354 C 0.91476 0.23702 0.10824
 C355 C 0.93827 0.23965 0.08618
 C356 C 0.94329 0.26095 0.05878
 C357 C 0.92504 0.28055 0.05578
 C358 C 0.90124 0.27800 0.07751
 C359 C 0.87051 0.25211 0.12274
 C360 C 0.85137 0.27033 0.11539
 C361 C 0.82634 0.26537 0.13070
 C362 C 0.82042 0.24216 0.15240
 C363 C 0.84016 0.22472 0.16131
 C364 C 0.86516 0.22947 0.14621
 C365 C 0.88189 0.29629 0.07240
 C366 C 0.85739 0.29251 0.09098
 C367 C 0.90901 0.21514 0.13353
 C368 C 0.88462 0.21143 0.15225
 H369 H 0.88549 0.31335 0.05285
 H370 H 0.84284 0.30677 0.08519
 H371 H 0.92326 0.20041 0.13787
 H372 H 0.88074 0.19396 0.17048
 H373 H 0.95230 0.22457 0.08888
 H374 H 0.92871 0.29689 0.03446
 H375 H 0.81118 0.27876 0.12338
 H376 H 0.83577 0.20695 0.17838
 C377 C 0.40442 0.75079 0.65767
 C378 C 0.42429 0.73288 0.65926
 C379 C 0.44521 0.73564 0.63034
 C380 C 0.44644 0.75620 0.60018
 C381 C 0.42697 0.77467 0.60040
 C382 C 0.40565 0.77182 0.62866
 C383 C 0.38134 0.74671 0.68527
 C384 C 0.36073 0.76368 0.68173
 C385 C 0.33802 0.75856 0.70549
 C386 C 0.33593 0.73655 0.73238
 C387 C 0.35730 0.72047 0.73707
 C388 C 0.37986 0.72522 0.71313
 C389 C 0.38503 0.78892 0.62720
 C390 C 0.36293 0.78487 0.65316
 C391 C 0.42240 0.71203 0.68853
 C392 C 0.40059 0.70832 0.71517
 H393 H 0.38573 0.80523 0.60501
 H394 H 0.34723 0.79818 0.65021
 H395 H 0.43768 0.69818 0.69023
 H396 H 0.39967 0.69171 0.73667
 H397 H 0.46019 0.72143 0.63039
 H398 H 0.42769 0.79038 0.57687
 H399 H 0.32166 0.77094 0.70137
 H400 H 0.35604 0.70375 0.75829
 C401 C 0.08901 0.74977 0.16260
 C402 C 0.07223 0.77038 0.15766
 C403 C 0.05173 0.76827 0.12747
 C404 C 0.04737 0.74544 0.10314
 C405 C 0.06339 0.72428 0.11100
 C406 C 0.08476 0.72666 0.13959
 C407 C 0.11223 0.75299 0.19052
 C408 C 0.13035 0.73333 0.19221
 C409 C 0.15371 0.73761 0.21497
 C410 C 0.15870 0.76128 0.23630
 C411 C 0.13931 0.77990 0.23704
 C412 C 0.11647 0.77621 0.21311
 C413 C 0.10265 0.70688 0.14397
 C414 C 0.12519 0.71026 0.16944
 C415 C 0.07680 0.79308 0.18179
 C416 C 0.09842 0.79584 0.20948
 H417 H 0.09963 0.68894 0.12638
 H418 H 0.13888 0.69483 0.17069
 H419 H 0.06381 0.80901 0.17863
 H420 H 0.10151 0.81383 0.22689
 H421 H 0.03938 0.78458 0.12254
 H422 H 0.06043 0.70661 0.09248
 H423 H 0.16837 0.72311 0.21400
 H424 H 0.14248 0.79786 0.25454
 C425 C 0.60999 0.24170 0.60595
 C426 C 0.59002 0.25865 0.61558
 C427 C 0.56617 0.25509 0.59467
 C428 C 0.56220 0.23486 0.56418
 C429 C 0.58192 0.21716 0.55668
 C430 C 0.60608 0.22075 0.57706
 C431 C 0.63585 0.24695 0.62430
 C432 C 0.65629 0.23100 0.61250
 C433 C 0.68125 0.23731 0.62720
 C434 C 0.68571 0.25959 0.65290
 C435 C 0.66479 0.27468 0.66590
 C436 C 0.63990 0.26863 0.65137
 C437 C 0.62678 0.20465 0.56738
 C438 C 0.65145 0.20970 0.58476
 C439 C 0.59463 0.27958 0.64416
 C440 C 0.61916 0.28445 0.66186
 H441 H 0.62405 0.18839 0.54523
 H442 H 0.66699 0.19716 0.57553
 H443 H 0.57931 0.29268 0.65199
 H444 H 0.62207 0.30116 0.68290
 H445 H 0.55101 0.26872 0.60057
 H446 H 0.57903 0.20175 0.53277
 H447 H 0.69728 0.22569 0.61687
 H448 H 0.66806 0.29164 0.68622
 C449 C 0.76057 0.10787 0.83861
 C450 C 0.73803 0.09427 0.82748
 C451 C 0.73269 0.07090 0.84902
 C452 C 0.75045 0.06066 0.87979
 C453 C 0.77341 0.07436 0.88894
 C454 C 0.77815 0.09818 0.86962
 C455 C 0.76592 0.13280 0.81754
 C456 C 0.78778 0.14683 0.83065
 C457 C 0.79285 0.17044 0.81082
 C458 C 0.77736 0.17951 0.77561
 C459 C 0.75518 0.16530 0.76321
 C460 C 0.74917 0.14207 0.78468
 C461 C 0.80000 0.11268 0.88147
 C462 C 0.80454 0.13679 0.86278
 C463 C 0.72136 0.10441 0.79516
 C464 C 0.72700 0.12773 0.77371
 H465 H 0.81356 0.10545 0.90573
 H466 H 0.82154 0.14746 0.87299
 H467 H 0.70394 0.09412 0.78600
 H468 H 0.71381 0.13465 0.74856
 H469 H 0.71500 0.06063 0.84140
 H470 H 0.78718 0.06716 0.91293
 H471 H 0.80920 0.18155 0.82266
 H472 H 0.74297 0.17190 0.73635
 C473 C 0.22785 0.60776 0.45549
 C474 C 0.21534 0.58711 0.43399
 C475 C 0.21467 0.56304 0.45502
 C476 C 0.22710 0.55978 0.49640
 C477 C 0.23899 0.58076 0.51777
 C478 C 0.23938 0.60480 0.49762
 C479 C 0.23011 0.63262 0.43259
 C480 C 0.24358 0.65279 0.45358
 C481 C 0.24771 0.67558 0.43030
 C482 C 0.23902 0.67817 0.38600
 C483 C 0.22438 0.65835 0.36606
 C484 C 0.22005 0.63532 0.38924
 C485 C 0.25185 0.62571 0.51818
 C486 C 0.25387 0.64934 0.49654
 C487 C 0.20463 0.59083 0.39131
 C488 C 0.20701 0.61448 0.36928
 H489 H 0.26061 0.62363 0.55085
 H490 H 0.26421 0.66483 0.51304
 H491 H 0.19487 0.57516 0.37432
 H492 H 0.19907 0.61629 0.33594
 H493 H 0.20560 0.54676 0.43860
 H494 H 0.24839 0.57816 0.54985
 H495 H 0.25891 0.69088 0.44568
 H496 H 0.21787 0.66026 0.33180
 C497 C 0.27082 0.89778 0.92674
 C498 C 0.28879 0.89971 0.96179
 C499 C 0.29053 0.92257 0.98667
 C500 C 0.27383 0.94288 0.97735
 C501 C 0.25674 0.94095 0.94097
 C502 C 0.25513 0.91847 0.91557
 C503 C 0.26711 0.87313 0.90326
 C504 C 0.24815 0.87098 0.86996
 C505 C 0.24302 0.84709 0.85058
 C506 C 0.25625 0.82525 0.86484
 C507 C 0.27610 0.82782 0.89671
 C508 C 0.28146 0.85181 0.91640
 C509 C 0.23713 0.91583 0.88076
 C510 C 0.23374 0.89248 0.85824
 C511 C 0.30357 0.87827 0.97272
 C512 C 0.29995 0.85473 0.95048
 H513 H 0.22505 0.93174 0.87170
 H514 H 0.21915 0.89103 0.83242
 H515 H 0.31754 0.87947 0.99960
 H516 H 0.31124 0.83852 0.96086
 H517 H 0.30346 0.92390 1.01510
 H518 H 0.24388 0.95658 0.93376
 H519 H 0.22789 0.84518 0.82575
 H520 H 0.28622 0.81102 0.90793
 C521 C 0.74587 0.40484 0.30641
 C522 C 0.76969 0.40837 0.32790
 C523 C 0.77365 0.43004 0.35502
 C524 C 0.75369 0.44756 0.36167
 C525 C 0.73024 0.44411 0.33878
 C526 C 0.72623 0.42280 0.31107
 C527 C 0.74082 0.38113 0.28086
 C528 C 0.71657 0.37710 0.26128
 C529 C 0.71096 0.35353 0.24095
 C530 C 0.72905 0.33372 0.24157
 C531 C 0.75381 0.33858 0.25901
 C532 C 0.75975 0.36225 0.27901
 C533 C 0.70258 0.41857 0.28941
 C534 C 0.69786 0.39612 0.26478
 C535 C 0.78859 0.38958 0.32345
 C536 C 0.78367 0.36686 0.29956
 H537 H 0.68737 0.43241 0.29250
 H538 H 0.67911 0.39325 0.24966
 H539 H 0.80707 0.39211 0.33971
 H540 H 0.79847 0.35250 0.29819
 H541 H 0.79169 0.43254 0.37277
 H542 H 0.71489 0.45768 0.34350
 H543 H 0.69199 0.35003 0.22704
 H544 H 0.76778 0.32338 0.26002
 C545 C 0.11020 0.24478 0.86096
 C546 C 0.10414 0.26936 0.87652
 C547 C 0.07989 0.27357 0.89559
 C548 C 0.06239 0.25301 0.90118
 C549 C 0.06858 0.22876 0.88351
 C550 C 0.09232 0.22459 0.86335
 C551 C 0.13627 0.23966 0.84436
 C552 C 0.14246 0.21482 0.83038
 C553 C 0.16773 0.20947 0.81824
 C554 C 0.18707 0.22844 0.82162
 C555 C 0.18033 0.25359 0.83371
 C556 C 0.15489 0.25928 0.84523
 C557 C 0.09893 0.20024 0.84742
 C558 C 0.12356 0.19548 0.83096
 C559 C 0.12293 0.28885 0.87480
 C560 C 0.14791 0.28386 0.85966
 H561 H 0.08516 0.18458 0.84875
 H562 H 0.12810 0.17627 0.82004
 H563 H 0.11855 0.30792 0.88659
 H564 H 0.16203 0.29924 0.86022
 H565 H 0.07551 0.29233 0.90893
 H566 H 0.05523 0.21280 0.88657
 H567 H 0.17261 0.19022 0.80803
 H568 H 0.19505 0.26832 0.83661
 C569 C 0.59003 0.75002 0.34773
 C570 C 0.58923 0.77147 0.37608
 C571 C 0.56836 0.77426 0.40525
 C572 C 0.54898 0.75528 0.40707
 C573 C 0.54982 0.73423 0.37772
 C574 C 0.57022 0.73156 0.34780
 C575 C 0.61264 0.74609 0.31909
 C576 C 0.61369 0.72423 0.29184
 C577 C 0.63589 0.71963 0.26704
 C578 C 0.65737 0.73617 0.27046
 C579 C 0.65566 0.75857 0.29662
 C580 C 0.63329 0.76360 0.32113
 C581 C 0.57167 0.71032 0.31909
 C582 C 0.59299 0.70679 0.29138
 C583 C 0.60981 0.78910 0.37594
 C584 C 0.63151 0.78518 0.34908
 H585 H 0.55641 0.69605 0.31865
 H586 H 0.59359 0.68988 0.27035
 H587 H 0.60943 0.80575 0.39760
 H588 H 0.64722 0.79890 0.35086
 H589 H 0.56792 0.79035 0.42818
 H590 H 0.53487 0.71965 0.37894
 H591 H 0.63686 0.70258 0.24637
 H592 H 0.67212 0.77133 0.29977
 C593 C 0.90665 0.74925 0.84805
 C594 C 0.90710 0.72832 0.87732
 C595 C 0.92824 0.72536 0.90604
 C596 C 0.94824 0.74371 0.90653
 C597 C 0.94784 0.76411 0.87607
 C598 C 0.92714 0.76693 0.84660
 C599 C 0.88368 0.75361 0.82029
 C600 C 0.88295 0.77507 0.79232
 C601 C 0.86045 0.78022 0.76853
 C602 C 0.83841 0.76463 0.77360
 C603 C 0.83974 0.74259 0.80047
 C604 C 0.86238 0.73702 0.82401
 C605 C 0.92601 0.78770 0.81710
 C606 C 0.90432 0.79163 0.79022
 C607 C 0.88585 0.71152 0.87877
 C608 C 0.86383 0.71586 0.85271
 H609 H 0.94178 0.80135 0.81550
 H610 H 0.90398 0.80820 0.76862
 H611 H 0.88595 0.69529 0.90115
 H612 H 0.84761 0.70285 0.85576
 H613 H 0.92835 0.70982 0.92991
 H614 H 0.96326 0.77823 0.87636
 H615 H 0.85974 0.79696 0.74732
 H616 H 0.82286 0.73058 0.80490
 C617 C 0.39383 0.24934 0.36478
 C618 C 0.39900 0.22554 0.38429
 C619 C 0.42328 0.22134 0.40336
 C620 C 0.44196 0.24104 0.40392
 C621 C 0.43677 0.26435 0.38246
 C622 C 0.41273 0.26866 0.36303
 C623 C 0.36772 0.25472 0.34831
 C624 C 0.36231 0.27899 0.33095
 C625 C 0.33705 0.28473 0.31869
 C626 C 0.31715 0.26659 0.32447
 C627 C 0.32310 0.24196 0.34020
 C628 C 0.34836 0.23599 0.35249
 C629 C 0.40683 0.29236 0.34382
 C630 C 0.38204 0.29743 0.32799
 C631 C 0.37935 0.20692 0.38632
 C632 C 0.35447 0.21207 0.37072
 H633 H 0.42132 0.30735 0.34208
 H634 H 0.37812 0.31617 0.31445
 H635 H 0.38306 0.18846 0.40116
 H636 H 0.33973 0.19741 0.37397
 H637 H 0.42705 0.20344 0.42019
 H638 H 0.45109 0.27957 0.38260
 H639 H 0.33269 0.30360 0.30605
 H640 H 0.30788 0.22796 0.34517
 C641 C 0.75725 0.90648 0.80680
 C642 C 0.77695 0.92458 0.81425
 C643 C 0.77196 0.94620 0.84054
 C644 C 0.74747 0.94978 0.85913
 C645 C 0.72756 0.93218 0.84930
 C646 C 0.73247 0.91022 0.82377
 C647 C 0.76314 0.88239 0.78339
 C648 C 0.74401 0.86339 0.77916
 C649 C 0.75045 0.83944 0.76145
 C650 C 0.77587 0.83440 0.74830
 C651 C 0.79434 0.85432 0.74994
 C652 C 0.78822 0.87816 0.76830
 C653 C 0.71349 0.89130 0.81688
 C654 C 0.71919 0.86823 0.79512
 C655 C 0.80155 0.92011 0.79704
 C656 C 0.80706 0.89733 0.77424
 H657 H 0.69428 0.89398 0.82970
 H658 H 0.70421 0.85378 0.79182
 H659 H 0.81685 0.93403 0.80226
 H660 H 0.82646 0.89433 0.76258
 H661 H 0.78734 0.95975 0.84784
 H662 H 0.70873 0.93471 0.86387
 H663 H 0.73610 0.82427 0.76085
 H664 H 0.81383 0.85083 0.73913
 C665 C 0.23531 0.40129 0.41658
 C666 C 0.25311 0.42142 0.41115
 C667 C 0.25117 0.44331 0.43808
 C668 C 0.23161 0.44520 0.47025
 C669 C 0.21312 0.42539 0.47368
 C670 C 0.21513 0.40318 0.44735
 C671 C 0.23877 0.37723 0.39140
 C672 C 0.22200 0.35645 0.39886
 C673 C 0.22669 0.33292 0.37755
 C674 C 0.24814 0.33019 0.34940
 C675 C 0.26394 0.35166 0.34072
 C676 C 0.25958 0.37507 0.36205
 C677 C 0.19814 0.38233 0.45267
 C678 C 0.20156 0.35935 0.42894
 C679 C 0.27317 0.41879 0.38031
 C680 C 0.27630 0.39604 0.35605
 H681 H 0.18247 0.38353 0.47625
 H682 H 0.18840 0.34354 0.43492
 H683 H 0.28693 0.43424 0.37564
 H684 H 0.29238 0.39460 0.33333
 H685 H 0.26544 0.45847 0.43520
 H686 H 0.19819 0.42656 0.49873
 H687 H 0.21452 0.31650 0.38465
 H688 H 0.28024 0.34984 0.31855
 C689 C 0.26627 0.09451 0.91829
 C690 C 0.24652 0.07606 0.91669
 C691 C 0.24770 0.05484 0.94486
 C692 C 0.26879 0.05145 0.97390
 C693 C 0.28939 0.06929 0.97277
 C694 C 0.28780 0.09131 0.94601
 C695 C 0.26364 0.11823 0.89223
 C696 C 0.28218 0.13782 0.89668
 C697 C 0.27814 0.16140 0.87524
 C698 C 0.25577 0.16515 0.84944
 C699 C 0.23849 0.14451 0.84287
 C700 C 0.24191 0.12137 0.86509
 C701 C 0.30664 0.11080 0.94791
 C702 C 0.30376 0.13373 0.92401
 C703 C 0.22543 0.07961 0.88813
 C704 C 0.22329 0.10179 0.86239
 H705 H 0.32335 0.10864 0.96915
 H706 H 0.31833 0.14856 0.92758
 H707 H 0.21020 0.06534 0.88631
 H708 H 0.20646 0.10403 0.84143
 H709 H 0.23192 0.04112 0.94452
 H710 H 0.30571 0.06708 0.99496
 H711 H 0.29160 0.17707 0.88048
 H712 H 0.22162 0.14690 0.82204
 C713 C 0.74223 0.59770 0.30631
 C714 C 0.72331 0.57857 0.31081
 C715 C 0.72839 0.55727 0.33744
 C716 C 0.75212 0.55507 0.35971
 C717 C 0.77142 0.57371 0.35300
 C718 C 0.76641 0.59533 0.32677
 C719 C 0.73597 0.62140 0.28226
 C720 C 0.75421 0.64135 0.28052
 C721 C 0.74721 0.66485 0.26185
 C722 C 0.72205 0.66851 0.24576
 C723 C 0.70455 0.64779 0.24533
 C724 C 0.71128 0.62430 0.26409
 C725 C 0.78458 0.61524 0.32246
 C726 C 0.77856 0.63788 0.29980
 C727 C 0.69922 0.58168 0.29040
 C728 C 0.69332 0.60416 0.26734
 H729 H 0.80333 0.61363 0.33791
 H730 H 0.79284 0.65309 0.29849
 H731 H 0.68456 0.56693 0.29340
 H732 H 0.67426 0.60614 0.25325
 H733 H 0.71353 0.54286 0.34223
 H734 H 0.78965 0.57219 0.37031
 H735 H 0.76072 0.68077 0.26276
 H736 H 0.68526 0.65040 0.23254
 C737 C 0.10547 0.75335 0.88581
 C738 C 0.08918 0.77445 0.88881
 C739 C 0.06545 0.77165 0.91009
 C740 C 0.05765 0.74786 0.92803
 C741 C 0.07359 0.72643 0.92203
 C742 C 0.09783 0.72927 0.90196
 C743 C 0.13157 0.75693 0.86768
 C744 C 0.14869 0.73640 0.86792
 C745 C 0.17429 0.74063 0.85489
 C746 C 0.18269 0.76522 0.84174
 C747 C 0.16469 0.78508 0.83885
 C748 C 0.13932 0.78122 0.85272
 C749 C 0.11511 0.70884 0.89963
 C750 C 0.14015 0.71238 0.88319
 C751 C 0.09733 0.79824 0.87210
 C752 C 0.12194 0.80152 0.85406
 H753 H 0.10950 0.69013 0.91190
 H754 H 0.15309 0.69631 0.88330
 H755 H 0.08480 0.81460 0.87389
 H756 H 0.12770 0.82033 0.84246
 H757 H 0.05334 0.78827 0.91357
 H758 H 0.06799 0.70800 0.93556
 H759 H 0.18792 0.72520 0.85745
 H760 H 0.17071 0.80390 0.82768
 C761 C 0.59570 0.24623 0.33137
 C762 C 0.57560 0.26390 0.33037
 C763 C 0.55442 0.26021 0.35841
 C764 C 0.55315 0.23891 0.38690
 C765 C 0.57281 0.22066 0.38590
 C766 C 0.59442 0.22448 0.35871
 C767 C 0.61912 0.25136 0.30517
 C768 C 0.63999 0.23469 0.30852
 C769 C 0.66301 0.24085 0.28647
 C770 C 0.66513 0.26354 0.26136
 C771 C 0.64350 0.27927 0.25662
 C772 C 0.62064 0.27353 0.27902
 C773 C 0.61529 0.20769 0.35983
 C774 C 0.63773 0.21277 0.33532
 C775 C 0.57756 0.28547 0.30274
 C776 C 0.59965 0.29013 0.27728
 H777 H 0.61455 0.19084 0.38076
 H778 H 0.65362 0.19968 0.33807
 H779 H 0.56210 0.29914 0.30147
 H780 H 0.60061 0.30727 0.25707
 H781 H 0.53929 0.27427 0.35912
 H782 H 0.57205 0.20442 0.40830
 H783 H 0.67955 0.22871 0.29068
 H784 H 0.64477 0.29651 0.23670
 C785 C 0.91543 0.25466 0.81230
 C786 C 0.93294 0.23463 0.81696
 C787 C 0.95261 0.23679 0.84889
 C788 C 0.95488 0.25882 0.87589
 C789 C 0.93803 0.27933 0.86915
 C790 C 0.91793 0.27715 0.83790
 C791 C 0.89295 0.25120 0.78262
 C792 C 0.87411 0.27017 0.78124
 C793 C 0.85100 0.26517 0.75837
 C794 C 0.84657 0.24119 0.73784
 C795 C 0.86670 0.22345 0.73585
 C796 C 0.88968 0.22806 0.75918
 C797 C 0.89949 0.29638 0.83345
 C798 C 0.87788 0.29290 0.80576
 C799 C 0.92971 0.21231 0.79115
 C800 C 0.90849 0.20913 0.76258
 H801 H 0.90125 0.31387 0.85283
 H802 H 0.86357 0.30776 0.80477
 H803 H 0.94325 0.19684 0.79415
 H804 H 0.90622 0.19124 0.74451
 H805 H 0.96567 0.22104 0.85371
 H806 H 0.93960 0.29627 0.89005
 H807 H 0.83560 0.27888 0.76043
 H808 H 0.86356 0.20510 0.71962
 C809 C 0.39093 0.74484 0.37993
 C810 C 0.40779 0.72415 0.38248
 C811 C 0.43175 0.72766 0.40308
 C812 C 0.43878 0.75155 0.42169
 C813 C 0.42221 0.77246 0.41678
 C814 C 0.39808 0.76912 0.39634
 C815 C 0.36472 0.74057 0.36247
 C816 C 0.34728 0.76084 0.36258
 C817 C 0.32167 0.75607 0.35011
 C818 C 0.31344 0.73114 0.33848
 C819 C 0.33150 0.71134 0.33634
 C820 C 0.35711 0.71589 0.34870
 C821 C 0.38044 0.78920 0.39408
 C822 C 0.35546 0.78513 0.37749
 C823 C 0.39987 0.70002 0.36645
 C824 C 0.37494 0.69596 0.34982
 H825 H 0.38573 0.80805 0.40643
 H826 H 0.34222 0.80096 0.37756
 H827 H 0.41279 0.68396 0.36802
 H828 H 0.36933 0.67689 0.33905
 H829 H 0.44443 0.71148 0.40645
 H830 H 0.42740 0.79087 0.43118
 H831 H 0.30783 0.77134 0.35234
 H832 H 0.32532 0.69218 0.32701
 C833 C 0.24861 0.90019 0.20408
 C834 C 0.23010 0.91949 0.20290
 C835 C 0.23520 0.94183 0.17876
 C836 C 0.25854 0.94494 0.15580
 C837 C 0.27754 0.92612 0.15940
 C838 C 0.27248 0.90343 0.18298
 C839 C 0.24215 0.87548 0.22511
 C840 C 0.25986 0.85545 0.22340
 C841 C 0.25259 0.83121 0.23939
 C842 C 0.22768 0.82698 0.25629
 C843 C 0.21075 0.84768 0.26002
 C844 C 0.21773 0.87186 0.24395
 C845 C 0.29016 0.88333 0.18378
 C846 C 0.28394 0.85974 0.20356
 C847 C 0.20631 0.91551 0.22384
 C848 C 0.20026 0.89210 0.24415
 H849 H 0.30866 0.88558 0.16776
 H850 H 0.29783 0.84450 0.20220
 H851 H 0.19197 0.93035 0.22340
 H852 H 0.18142 0.88955 0.25880
 H853 H 0.22056 0.95632 0.17613
 H854 H 0.29541 0.92832 0.14130
 H855 H 0.26565 0.81534 0.23609
 H856 H 0.19167 0.84461 0.27351
 C857 C 0.76163 0.40354 0.59505
 C858 C 0.74220 0.42180 0.59854
 C859 C 0.74379 0.44406 0.57281
 C860 C 0.76449 0.44808 0.54340
 C861 C 0.78454 0.43024 0.54202
 C862 C 0.78301 0.40770 0.56740
 C863 C 0.75869 0.37892 0.61854
 C864 C 0.77723 0.35992 0.61273
 C865 C 0.77305 0.33567 0.63158
 C866 C 0.75030 0.33034 0.65534
 C867 C 0.73263 0.35007 0.66283
 C868 C 0.73657 0.37429 0.64410
 C869 C 0.80173 0.38865 0.56398
 C870 C 0.79887 0.36516 0.58621
 C871 C 0.72091 0.41689 0.62601
 C872 C 0.71816 0.39354 0.64847
 H873 H 0.81836 0.39162 0.54291
 H874 H 0.81338 0.35072 0.58161
 H875 H 0.70588 0.43093 0.62916
 H876 H 0.70108 0.39023 0.66829
 H877 H 0.72835 0.45777 0.57425
 H878 H 0.80043 0.43311 0.51921
 H879 H 0.78663 0.32053 0.62533
 H880 H 0.71523 0.34617 0.68149
 C881 C 0.73377 0.10210 0.08914
 C882 C 0.75031 0.08204 0.10013
 C883 C 0.74760 0.05856 0.07790
 C884 C 0.72882 0.05517 0.04438
 C885 C 0.71128 0.07488 0.03581
 C886 C 0.71393 0.09859 0.05770
 C887 C 0.73849 0.12770 0.10854
 C888 C 0.72303 0.14822 0.09543
 C889 C 0.72894 0.17294 0.11125
 C890 C 0.75039 0.17710 0.13928
 C891 C 0.76505 0.15615 0.15333
 C892 C 0.75932 0.13145 0.13785
 C893 C 0.69821 0.11934 0.04677
 C894 C 0.70268 0.14374 0.06532
 C895 C 0.77025 0.08632 0.13109
 C896 C 0.77466 0.11062 0.14969
 H897 H 0.68280 0.11690 0.02266
 H898 H 0.69053 0.15935 0.05509
 H899 H 0.78303 0.07094 0.13996
 H900 H 0.79068 0.11330 0.17251
 H901 H 0.76113 0.04345 0.08467
 H902 H 0.69697 0.07251 0.00968
 H903 H 0.71768 0.18904 0.10015
 H904 H 0.78137 0.15924 0.17539
 C905 C 0.25176 0.59407 0.71023
 C906 C 0.27092 0.57545 0.70796
 C907 C 0.26618 0.55292 0.68368
 C908 C 0.24255 0.54898 0.66159
 C909 C 0.22297 0.56713 0.66639
 C910 C 0.22764 0.58996 0.69012
 C911 C 0.25772 0.61904 0.73123
 C912 C 0.23926 0.63841 0.73047
 C913 C 0.24598 0.66295 0.74616
 C914 C 0.27106 0.66818 0.76177
 C915 C 0.28880 0.64812 0.76472
 C916 C 0.28236 0.62361 0.74892
 C917 C 0.20924 0.60939 0.69193
 C918 C 0.21498 0.63322 0.71169
 C919 C 0.29495 0.58034 0.72787
 C920 C 0.30055 0.60400 0.74813
 H921 H 0.19054 0.60646 0.67667
 H922 H 0.20052 0.64794 0.71107
 H923 H 0.30982 0.56604 0.72659
 H924 H 0.31958 0.60728 0.76190
 H925 H 0.28131 0.53900 0.68010
 H926 H 0.20486 0.56437 0.64896
 H927 H 0.23229 0.67832 0.74336
 H928 H 0.30804 0.65194 0.77718
 C929 C 0.88902 0.74996 0.12303
 C930 C 0.89516 0.72695 0.10132
 C931 C 0.91966 0.72421 0.08246
 C932 C 0.93757 0.74459 0.08432
 C933 C 0.93143 0.76702 0.10803
 C934 C 0.90717 0.76987 0.12722
 C935 C 0.86263 0.75391 0.13921
 C936 C 0.85622 0.77747 0.15868
 C937 C 0.83068 0.78197 0.17059
 C938 C 0.81151 0.76329 0.16246
 C939 C 0.81845 0.73935 0.14467
 C940 C 0.84400 0.73463 0.13263
 C941 C 0.90029 0.79277 0.14854
 C942 C 0.87524 0.79649 0.16406
 C943 C 0.87624 0.70771 0.09692
 C944 C 0.85109 0.71150 0.11228
 H945 H 0.91421 0.80820 0.15217
 H946 H 0.87055 0.81468 0.17925
 H947 H 0.88071 0.68985 0.08039
 H948 H 0.83693 0.69642 0.10716
 H949 H 0.92417 0.70699 0.06393
 H950 H 0.94515 0.78275 0.10977
 H951 H 0.82553 0.80030 0.18479
 H952 H 0.80378 0.72497 0.13794
 C953 C 0.41058 0.23794 0.64072
 C954 C 0.41116 0.21740 0.61036
 C955 C 0.43217 0.21515 0.58133
 C956 C 0.45192 0.23378 0.58170
 C957 C 0.45137 0.25379 0.61324
 C958 C 0.43079 0.25593 0.64293
 C959 C 0.38773 0.24156 0.66895
 C960 C 0.38684 0.26267 0.69797
 C961 C 0.36440 0.26719 0.72212
 C962 C 0.34259 0.25131 0.71643
 C963 C 0.34413 0.22954 0.68865
 C964 C 0.36670 0.22464 0.66462
 C965 C 0.42952 0.27632 0.67350
 C966 C 0.40795 0.27957 0.70073
 C967 C 0.39020 0.20026 0.60828
 C968 C 0.36831 0.20387 0.63482
 H969 H 0.44507 0.29020 0.67569
 H970 H 0.40747 0.29588 0.72315
 H971 H 0.39041 0.18431 0.58506
 H972 H 0.35230 0.19060 0.63127
 H973 H 0.43238 0.19986 0.55674
 H974 H 0.46658 0.26811 0.61371
 H975 H 0.36349 0.28375 0.74398
 H976 H 0.32740 0.21731 0.68383
 C977 C 0.09463 0.25602 0.13663
 C978 C 0.09399 0.27668 0.10683
 C979 C 0.07305 0.27892 0.07744
 C980 C 0.05340 0.26017 0.07682
 C981 C 0.05407 0.23993 0.10760
 C982 C 0.07457 0.23784 0.13778
 C983 C 0.11732 0.25260 0.16556
 C984 C 0.11819 0.23151 0.19431
 C985 C 0.14045 0.22726 0.21934
 C986 C 0.16220 0.24332 0.21466
 C987 C 0.16068 0.26505 0.18708
 C988 C 0.13822 0.26974 0.16230
 C989 C 0.07586 0.21741 0.16797
 C990 C 0.09725 0.21437 0.19595
 C991 C 0.11481 0.29402 0.10576
 C992 C 0.13660 0.29054 0.13286
 H993 H 0.06043 0.20336 0.16938
 H994 H 0.09773 0.19805 0.21813
 H995 H 0.11456 0.31006 0.08294
 H996 H 0.15249 0.30398 0.13010
 H997 H 0.07276 0.29439 0.05342
 H998 H 0.03894 0.22551 0.10731
 H999 H 0.14129 0.21076 0.24111
 H1000 H 0.17733 0.27743 0.18304
 C1001 C 0.60478 0.75392 0.62937
 C1002 C 0.59918 0.77623 0.60535
 C1003 C 0.57508 0.77842 0.58455
 C1004 C 0.55709 0.75815 0.58670
 C1005 C 0.56263 0.73648 0.61263
 C1006 C 0.58646 0.73420 0.63387
 C1007 C 0.63085 0.75035 0.64750
 C1008 C 0.63679 0.72737 0.66913
 C1009 C 0.66216 0.72295 0.68234
 C1010 C 0.68165 0.74102 0.67308
 C1011 C 0.67516 0.76456 0.65354
 C1012 C 0.64976 0.76923 0.64027
 C1013 C 0.59281 0.71200 0.65752
 C1014 C 0.61756 0.70865 0.67494
 C1015 C 0.61828 0.79521 0.60060
 C1016 C 0.64315 0.79176 0.61771
 H1017 H 0.57876 0.69674 0.66144
 H1018 H 0.62190 0.69090 0.69179
 H1019 H 0.61421 0.81255 0.58230
 H1020 H 0.65752 0.80653 0.61209
 H1021 H 0.57102 0.79505 0.56431
 H1022 H 0.54880 0.72086 0.61459
 H1023 H 0.66700 0.70492 0.69785
 H1024 H 0.69011 0.77847 0.64600
   
