data_POSCAR
  _audit_creation_date              2014-09-24
  _audit_creation_method            'ToBaCCo'
  _symmetry_space_group_name_H-M    'P1'
  _symmetry_Int_Tables_number       1
  _symmetry_cell_setting            triclinic
  loop_
  _symmetry_equiv_pos_as_xyz
 x,y,z
_cell_length_a 25.8249
_cell_length_b 27.0971
_cell_length_c 25.8245
_cell_angle_alpha 90.000000
_cell_angle_beta 90.000400
_cell_angle_gamma 90.000000
loop_
  _atom_site_label
  _atom_site_type_symbol
  _atom_site_fract_x
  _atom_site_fract_y
  _atom_site_fract_z
C1 C 0.25000 0.24987 0.25000
 C2 C 0.75000 0.75001 0.25000
 C3 C 0.75000 0.25014 0.75000
 C4 C 0.25000 0.75000 0.75000
 C5 C 0.07272 0.07417 0.01830
 H6 H 0.07382 0.07631 -0.02352
 C7 C 0.10319 0.10601 0.04797
 H8 H 0.12805 0.13268 0.02903
 C9 C 0.03859 0.03720 0.09425
 H10 H 0.01281 0.01092 0.11220
 C11 C 0.06840 0.06837 0.12535
 H12 H 0.06590 0.06559 0.16713
 N13 N 0.04175 0.04019 0.04171
 C14 C 0.02043 -0.07634 -0.07308
 H15 H -0.02140 -0.07842 -0.07406
 C16 C 0.04995 -0.10810 -0.10381
 H17 H 0.03088 -0.13464 -0.12872
 C18 C 0.09654 -0.03960 -0.03907
 H19 H 0.11462 -0.01340 -0.01328
 C20 C 0.12750 -0.07068 -0.06914
 H21 H 0.16929 -0.06795 -0.06679
 Zn22 Zn 0.00114 -0.00112 -0.00131
 N23 N 0.04399 -0.04251 -0.04206
 C24 C -0.03686 0.03758 -0.09657
 N25 N -0.03947 0.04049 -0.04400
 C26 C -0.07013 0.07448 -0.02020
 C27 C -0.10091 0.10637 -0.04948
 C28 C -0.06701 0.06880 -0.12730
 C29 C -0.01841 -0.07650 0.07018
 C30 C -0.04807 -0.10804 0.10102
 C31 C -0.12546 -0.07017 0.06652
 C32 C -0.09438 -0.03932 0.03634
 N33 N -0.04184 -0.04252 0.03923
 H34 H -0.01135 0.01125 -0.11483
 H35 H -0.07081 0.07653 0.02163
 H36 H -0.12557 0.13300 -0.03022
 H37 H -0.06502 0.06605 -0.16910
 H38 H 0.02340 -0.07879 0.07109
 H39 H -0.02912 -0.13465 0.12594
 H40 H -0.16723 -0.06716 0.06431
 H41 H -0.11235 -0.01302 0.01060
 C42 C 0.10397 -0.10508 -0.10194
 C43 C 0.10111 0.10293 0.10198
 C44 C -0.10207 -0.10464 0.09933
 C45 C -0.09948 0.10333 -0.10350
 C46 C 0.07308 0.57635 0.52043
 H47 H 0.07406 0.57842 0.47860
 C48 C 0.10381 0.60811 0.54995
 H49 H 0.12872 0.63464 0.53088
 C50 C 0.03907 0.53960 0.59654
 H51 H 0.01328 0.51340 0.61462
 C52 C 0.06914 0.57068 0.62750
 H53 H 0.06680 0.56795 0.66929
 N54 N 0.04206 0.54251 0.54399
 C55 C 0.02020 0.42553 0.42987
 H56 H -0.02163 0.42348 0.42919
 C57 C 0.04948 0.39364 0.39909
 H58 H 0.03022 0.36701 0.37443
 C59 C 0.09657 0.46242 0.46314
 H60 H 0.11483 0.48875 0.48865
 C61 C 0.12729 0.43120 0.43299
 H62 H 0.16910 0.43395 0.43498
 Zn63 Zn 0.00131 0.50112 0.50114
 N64 N 0.04400 0.45951 0.46053
 C65 C -0.03634 0.53932 0.40562
 N66 N -0.03923 0.54253 0.45816
 C67 C -0.07018 0.57651 0.48159
 C68 C -0.10102 0.60804 0.45193
 C69 C -0.06653 0.57018 0.37454
 C70 C -0.01830 0.42584 0.57272
 C71 C -0.04797 0.39399 0.60319
 C72 C -0.12535 0.43163 0.56840
 C73 C -0.09425 0.46280 0.53858
 N74 N -0.04171 0.45981 0.54175
 H75 H -0.01060 0.51302 0.38765
 H76 H -0.07109 0.57880 0.52340
 H77 H -0.12594 0.63465 0.47089
 H78 H -0.06432 0.56717 0.33277
 H79 H 0.02352 0.42369 0.57382
 H80 H -0.02904 0.36732 0.62805
 H81 H -0.16713 0.43441 0.56589
 H82 H -0.11220 0.48908 0.51281
 C83 C 0.10350 0.39668 0.40052
 C84 C 0.10194 0.60508 0.60397
 C85 C -0.10198 0.39707 0.60111
 C86 C -0.09933 0.60465 0.39793
 C87 C 0.57013 0.07448 0.52020
 H88 H 0.57081 0.07653 0.47837
 C89 C 0.60091 0.10637 0.54948
 H90 H 0.62557 0.13300 0.53022
 C91 C 0.53686 0.03758 0.59658
 H92 H 0.51135 0.01125 0.61483
 C93 C 0.56701 0.06880 0.62730
 H94 H 0.56502 0.06605 0.66910
 N95 N 0.53947 0.04049 0.54401
 C96 C 0.51842 -0.07650 0.42982
 H97 H 0.47660 -0.07879 0.42891
 C98 C 0.54807 -0.10804 0.39898
 H99 H 0.52912 -0.13465 0.37406
 C100 C 0.59438 -0.03932 0.46366
 H101 H 0.61235 -0.01302 0.48940
 C102 C 0.62546 -0.07017 0.43348
 H103 H 0.66723 -0.06716 0.43569
 Zn104 Zn 0.49886 -0.00112 0.50132
 N105 N 0.54184 -0.04252 0.46077
 C106 C 0.46141 0.03720 0.40575
 N107 N 0.45825 0.04019 0.45829
 C108 C 0.42728 0.07417 0.48170
 C109 C 0.39681 0.10601 0.45203
 C110 C 0.43160 0.06837 0.37465
 C111 C 0.47957 -0.07634 0.57309
 C112 C 0.45005 -0.10810 0.60381
 C113 C 0.37250 -0.07068 0.56914
 C114 C 0.40346 -0.03960 0.53907
 N115 N 0.45601 -0.04251 0.54206
 H116 H 0.48719 0.01092 0.38780
 H117 H 0.42618 0.07631 0.52352
 H118 H 0.37195 0.13268 0.47097
 H119 H 0.43410 0.06559 0.33287
 H120 H 0.52140 -0.07842 0.57407
 H121 H 0.46912 -0.13464 0.62872
 H122 H 0.33071 -0.06795 0.56680
 H123 H 0.38539 -0.01340 0.51328
 C124 C 0.60207 -0.10464 0.40067
 C125 C 0.59948 0.10333 0.60351
 C126 C 0.39603 -0.10508 0.60194
 C127 C 0.39889 0.10293 0.39802
 C128 C 0.57018 0.57651 0.01842
 H129 H 0.57109 0.57880 -0.02340
 C130 C 0.60102 0.60804 0.04807
 H131 H 0.62594 0.63465 0.02912
 C132 C 0.53634 0.53932 0.09438
 H133 H 0.51060 0.51302 0.11235
 C134 C 0.56653 0.57018 0.12546
 H135 H 0.56432 0.56717 0.16724
 N136 N 0.53923 0.54253 0.04184
 C137 C 0.51830 0.42584 -0.07272
 H138 H 0.47648 0.42369 -0.07382
 C139 C 0.54798 0.39399 -0.10319
 H140 H 0.52904 0.36732 -0.12805
 C141 C 0.59425 0.46280 -0.03858
 H142 H 0.61220 0.48908 -0.01281
 C143 C 0.62535 0.43163 -0.06839
 H144 H 0.66713 0.43441 -0.06589
 Zn145 Zn 0.49869 0.50112 -0.00114
 N146 N 0.54172 0.45981 -0.04175
 C147 C 0.46093 0.53960 -0.09654
 N148 N 0.45794 0.54251 -0.04399
 C149 C 0.42692 0.57635 -0.02042
 C150 C 0.39619 0.60811 -0.04995
 C151 C 0.43086 0.57068 -0.12750
 C152 C 0.47980 0.42553 0.07013
 C153 C 0.45052 0.39364 0.10092
 C154 C 0.37271 0.43120 0.06701
 C155 C 0.40343 0.46242 0.03686
 N156 N 0.45600 0.45951 0.03947
 H157 H 0.48672 0.51340 -0.11461
 H158 H 0.42594 0.57842 0.02140
 H159 H 0.37128 0.63464 -0.03088
 H160 H 0.43320 0.56795 -0.16929
 H161 H 0.52164 0.42348 0.07081
 H162 H 0.46978 0.36701 0.12557
 H163 H 0.33090 0.43395 0.06502
 H164 H 0.38517 0.48875 0.01135
 C165 C 0.60198 0.39707 -0.10111
 C166 C 0.59933 0.60465 0.10207
 C167 C 0.39650 0.39668 0.09948
 C168 C 0.39806 0.60508 -0.10397
 C169 C 0.21915 -0.22034 -0.21876
 C170 C 0.19250 -0.19431 -0.19175
 C171 C 0.16151 -0.16357 -0.16034
 C172 C 0.13520 -0.13705 -0.13365
 C173 C 0.21758 0.28117 0.28305
 C174 C 0.19116 0.30723 0.31016
 C175 C 0.16049 0.33805 0.34177
 C176 C 0.13445 0.36464 0.36864
 C177 C 0.71753 -0.21875 0.28305
 C178 C 0.69089 -0.19290 0.31017
 C179 C 0.65984 -0.16246 0.34180
 C180 C 0.63343 -0.13625 0.36871
 C181 C 0.71752 0.28144 -0.21701
 C182 C 0.69087 0.30752 -0.19014
 C183 C 0.65980 0.33836 -0.15896
 C184 C 0.63337 0.36498 -0.13251
 C185 C -0.21695 0.21884 -0.21758
 C186 C -0.18984 0.19278 -0.19116
 C187 C -0.15823 0.16196 -0.16049
 C188 C -0.13136 0.13537 -0.13445
 C189 C -0.21695 0.71876 0.28247
 C190 C -0.18983 0.69291 0.30911
 C191 C -0.15820 0.66247 0.34016
 C192 C -0.13129 0.63625 0.36657
 C193 C 0.28299 0.21856 0.28248
 C194 C 0.30986 0.19249 0.30913
 C195 C 0.34104 0.16164 0.34020
 C196 C 0.36749 0.13502 0.36663
 C197 C 0.28124 0.72034 -0.21915
 C198 C 0.30825 0.69431 -0.19249
 C199 C 0.33965 0.66357 -0.16151
 C200 C 0.36635 0.63705 -0.13520
 C201 C -0.21753 -0.21875 0.21695
 C202 C -0.19089 -0.19290 0.18983
 C203 C -0.15984 -0.16246 0.15820
 C204 C -0.13343 -0.13625 0.13129
 C205 C -0.21752 0.28144 0.71701
 C206 C -0.19087 0.30752 0.69014
 C207 C -0.15980 0.33836 0.65896
 C208 C -0.13337 0.36498 0.63251
 C209 C 0.28085 -0.22034 0.71876
 C210 C 0.30750 -0.19431 0.69175
 C211 C 0.33849 -0.16357 0.66035
 C212 C 0.36480 -0.13705 0.63365
 C213 C 0.28242 0.28117 0.21695
 C214 C 0.30884 0.30723 0.18984
 C215 C 0.33951 0.33805 0.15823
 C216 C 0.36555 0.36464 0.13137
 C217 C 0.21701 0.21856 0.21752
 C218 C 0.19014 0.19249 0.19087
 C219 C 0.15896 0.16164 0.15980
 C220 C 0.13252 0.13502 0.13337
 C221 C 0.21876 0.72034 0.71915
 C222 C 0.19175 0.69431 0.69250
 C223 C 0.16035 0.66357 0.66151
 C224 C 0.13365 0.63705 0.63520
 C225 C 0.71695 0.21884 0.71758
 C226 C 0.68984 0.19278 0.69116
 C227 C 0.65823 0.16196 0.66049
 C228 C 0.63137 0.13537 0.63445
 C229 C 0.71695 0.71876 0.21753
 C230 C 0.68983 0.69291 0.19089
 C231 C 0.65820 0.66247 0.15984
 C232 C 0.63129 0.63625 0.13343
   
