data_POSCAR
  _audit_creation_date              2014-09-24
  _audit_creation_method            'ToBaCCo'
  _symmetry_space_group_name_H-M    'P1'
  _symmetry_Int_Tables_number       1
  _symmetry_cell_setting            triclinic
  loop_
  _symmetry_equiv_pos_as_xyz
 x,y,z
_cell_length_a 37.7645
_cell_length_b 37.8440
_cell_length_c 37.7566
_cell_angle_alpha 90.328100
_cell_angle_beta 76.103200
_cell_angle_gamma 90.424200
loop_
  _atom_site_label
  _atom_site_type_symbol
  _atom_site_fract_x
  _atom_site_fract_y
  _atom_site_fract_z
O1 O 0.53873 0.49296 0.03285
 O2 O 0.44260 0.49522 0.02760
 O3 O 0.48901 0.44534 0.03025
 O4 O 0.49147 0.54256 0.03015
 O5 O 0.50758 0.54217 -0.03013
 O6 O 0.50951 0.44500 -0.02971
 O7 O 0.46000 0.49198 -0.03249
 O8 O 0.55621 0.49531 -0.02730
 Cu9 Cu 0.48878 0.49399 0.03628
 Cu10 Cu 0.50999 0.49353 -0.03598
 C11 C 0.56382 0.49437 0.00365
 C12 C 0.43487 0.49366 -0.00331
 C13 C 0.49922 0.42865 0.00031
 C14 C 0.49957 0.55888 -0.00003
 O15 O -0.02981 0.55620 0.51060
 O16 O -0.03000 0.45880 0.50831
 O17 O -0.02650 0.50623 0.55677
 O18 O -0.03337 0.50847 0.46120
 O19 O 0.02670 0.50608 0.44284
 O20 O 0.03358 0.50931 0.53842
 O21 O 0.03022 0.45916 0.49122
 O22 O 0.02997 0.55655 0.48913
 Cu23 Cu -0.03598 0.50748 0.51098
 Cu24 Cu 0.03618 0.50790 0.48864
 C25 C 0.00008 0.57301 0.49988
 C26 C 0.00011 0.44242 0.49976
 C27 C 0.00468 0.50762 0.56384
 C28 C -0.00448 0.50697 0.43577
 O29 O 0.49691 0.02750 0.55037
 O30 O 0.50343 0.02792 0.45153
 O31 O 0.44999 0.02796 0.50954
 O32 O 0.55032 0.02764 0.49233
 O33 O 0.54908 -0.03059 0.49646
 O34 O 0.45012 -0.03025 0.50455
 O35 O 0.50740 -0.03032 0.45034
 O36 O 0.49166 -0.03065 0.55069
 Cu37 Cu 0.50022 0.03364 0.50099
 Cu38 Cu 0.49953 -0.03634 0.50047
 C39 C 0.49268 -0.00161 0.56751
 C40 C 0.50698 -0.00111 0.43403
 C41 C 0.43314 -0.00112 0.50886
 C42 C 0.56661 -0.00156 0.49254
 O43 O 0.46634 -0.00788 -0.03922
 O44 O 0.47226 -0.00487 0.05677
 O45 O 0.46916 0.04214 0.00832
 O46 O 0.46949 -0.05505 0.01010
 O47 O 0.52939 -0.05461 -0.01081
 O48 O 0.52941 0.04259 -0.00822
 O49 O 0.53237 -0.00714 0.03890
 O50 O 0.52644 -0.00457 -0.05707
 Cu51 Cu 0.46324 -0.00652 0.01070
 Cu52 Cu 0.53548 -0.00597 -0.01101
 C53 C 0.49540 -0.00608 -0.06446
 C54 C 0.50330 -0.00581 0.06416
 C55 C 0.49926 0.05888 0.00012
 C56 C 0.49947 -0.07135 -0.00041
 O57 O -0.04869 0.52882 1.00294
 O58 O 0.05003 0.52876 0.99699
 O59 O 0.00953 0.52904 0.94971
 O60 O -0.00820 0.52869 1.05011
 O61 O -0.00401 0.47047 1.04898
 O62 O 0.00464 0.47082 0.94993
 O63 O 0.05046 0.47057 0.99183
 O64 O -0.04981 0.47059 1.00700
 Cu65 Cu 0.00072 0.53472 0.99997
 Cu66 Cu 0.00029 0.46471 0.99939
 C67 C -0.06613 0.49974 1.00647
 C68 C 0.06712 0.49968 0.99294
 C69 C 0.00898 0.49995 0.93290
 C70 C -0.00803 0.49948 1.06647
 O71 O 0.00865 -0.04209 0.46997
 O72 O 0.01065 0.05532 0.47016
 O73 O 0.05700 0.00551 0.47338
 O74 O -0.03863 0.00740 0.46673
 O75 O -0.05687 0.00515 0.52684
 O76 O 0.03876 0.00815 0.53350
 O77 O -0.01034 0.05551 0.53005
 O78 O -0.00867 -0.04189 0.53019
 Cu79 Cu 0.01116 0.00661 0.46400
 Cu80 Cu -0.01103 0.00685 0.53621
 C81 C -0.00003 -0.05854 0.50007
 C82 C 0.00018 0.07198 0.50010
 C83 C 0.06414 0.00669 0.50454
 C84 C -0.06401 0.00596 0.49568
 C85 C -0.32676 0.49682 1.00848
 N86 N -0.33692 0.50880 0.97860
 N87 N -0.37177 0.50777 0.97704
 C88 C -0.39782 0.49515 1.00550
 N89 N -0.38773 0.48337 1.03552
 N90 N -0.35277 0.48397 1.03689
 C91 C -0.28824 0.49781 1.00984
 N92 N -0.27563 0.47638 1.03276
 N93 N -0.24044 0.47688 1.03326
 C94 C -0.21673 0.49916 1.01121
 N95 N -0.22943 0.52077 0.98855
 N96 N -0.26448 0.51995 0.98770
 C97 C -0.17787 0.49962 1.01127
 N98 N -0.15666 0.52791 0.99792
 N99 N -0.12119 0.52814 0.99705
 C100 C -0.10553 0.49990 1.00908
 N101 N -0.12671 0.47154 1.02238
 N102 N -0.16231 0.47150 1.02368
 C103 C 0.32737 0.49547 0.99196
 N104 N 0.33687 0.50105 1.02400
 N105 N 0.37171 0.50007 1.02553
 C106 C 0.39846 0.49402 0.99496
 N107 N 0.38895 0.48864 0.96283
 N108 N 0.35401 0.48908 0.96141
 C109 C 0.28890 0.49666 0.99056
 N110 N 0.27690 0.47882 0.96434
 N111 N 0.24175 0.47949 0.96371
 C112 C 0.21751 0.49848 0.98893
 N113 N 0.22960 0.51655 1.01491
 N114 N 0.26460 0.51545 1.01587
 C115 C 0.17873 0.49921 0.98864
 N116 N 0.15747 0.52654 1.00433
 N117 N 0.12206 0.52695 1.00500
 C118 C 0.10648 0.49979 0.99048
 N119 N 0.12770 0.47237 0.97487
 N120 N 0.16327 0.47222 0.97372
 C121 C 0.00003 -0.31841 0.49997
 N122 N 0.03104 -0.33649 0.48526
 N123 N 0.03111 -0.37170 0.48544
 C124 C 0.00006 -0.39018 0.49992
 N125 N -0.03100 -0.37203 0.51443
 N126 N -0.03096 -0.33682 0.51466
 C127 C 0.00001 -0.27959 0.49999
 N128 N -0.02667 -0.26142 0.52338
 N129 N -0.02656 -0.22620 0.52355
 C130 C -0.00003 -0.20787 0.50002
 N131 N 0.02652 -0.22604 0.47647
 N132 N 0.02667 -0.26125 0.47662
 C133 C -0.00005 -0.16905 0.50003
 N134 N 0.01898 -0.15082 0.47062
 N135 N 0.01879 -0.11560 0.47054
 C136 C -0.00006 -0.09734 0.50006
 N137 N -0.01890 -0.11556 0.52956
 N138 N -0.01908 -0.15078 0.52946
 C139 C 0.00016 0.33189 0.49985
 N140 N 0.03024 0.35027 0.48234
 N141 N 0.03029 0.38549 0.48247
 C142 C 0.00012 0.40361 0.49977
 N143 N -0.03002 0.38524 0.51711
 N144 N -0.02994 0.35002 0.51732
 C145 C 0.00018 0.29306 0.49990
 N146 N -0.02562 0.27477 0.52430
 N147 N -0.02549 0.23956 0.52448
 C148 C 0.00023 0.22134 0.50001
 N149 N 0.02592 0.23963 0.47548
 N150 N 0.02602 0.27485 0.47556
 C151 C 0.00024 0.18251 0.50005
 N152 N 0.01949 0.16421 0.47075
 N153 N 0.01932 0.12899 0.47070
 C154 C 0.00022 0.11079 0.50010
 N155 N -0.01887 0.12908 0.52947
 N156 N -0.01902 0.16430 0.52937
 C157 C 0.48683 -0.00185 -0.32245
 N158 N 0.49440 0.02840 -0.34202
 N159 N 0.49558 0.02857 -0.37756
 C160 C 0.48979 -0.00163 -0.39502
 N161 N 0.48222 -0.03192 -0.37541
 N162 N 0.48052 -0.03198 -0.33972
 C163 C 0.48676 -0.00212 -0.28356
 N164 N 0.46802 -0.02725 -0.26093
 N165 N 0.46852 -0.02760 -0.22574
 C166 C 0.48824 -0.00316 -0.21209
 N167 N 0.50710 0.02184 -0.23478
 N168 N 0.50616 0.02250 -0.26981
 C169 C 0.48983 -0.00400 -0.17365
 N170 N 0.51883 0.01029 -0.16325
 N171 N 0.52065 0.00935 -0.12848
 C172 C 0.49328 -0.00544 -0.10273
 N173 N 0.46410 -0.01951 -0.11305
 N174 N 0.46254 -0.01905 -0.14796
 C175 C 0.51199 -0.00088 0.32223
 N176 N 0.49873 0.02738 0.34345
 N177 N 0.49783 0.02750 0.37894
 C178 C 0.50972 -0.00081 0.39460
 N179 N 0.52294 -0.02914 0.37341
 N180 N 0.52428 -0.02908 0.33780
 C181 C 0.51187 -0.00125 0.28337
 N182 N 0.53378 -0.02354 0.25963
 N183 N 0.53318 -0.02398 0.22446
 C184 C 0.51029 -0.00249 0.21191
 N185 N 0.48831 0.01966 0.23569
 N186 N 0.48925 0.02043 0.27072
 C187 C 0.50876 -0.00345 0.17342
 N188 N 0.47882 0.00855 0.16342
 N189 N 0.47707 0.00754 0.12861
 C190 C 0.50539 -0.00506 0.10246
 N191 N 0.53548 -0.01686 0.11239
 N192 N 0.53703 -0.01630 0.14731
 C193 C 0.49969 -0.33078 -0.00028
 N194 N 0.51683 -0.34911 -0.03047
 N195 N 0.51664 -0.38431 -0.03046
 C196 C 0.49963 -0.40241 -0.00013
 N197 N 0.48266 -0.38409 0.03013
 N198 N 0.48252 -0.34889 0.02998
 C199 C 0.49968 -0.29205 -0.00036
 N200 N 0.47546 -0.27384 0.02559
 N201 N 0.47531 -0.23865 0.02542
 C202 C 0.49963 -0.22042 -0.00047
 N203 N 0.52399 -0.23862 -0.02630
 N204 N 0.52388 -0.27382 -0.02637
 C205 C 0.49959 -0.18168 -0.00051
 N206 N 0.52884 -0.16333 -0.01984
 N207 N 0.52888 -0.12813 -0.01967
 C208 C 0.49951 -0.11006 -0.00048
 N209 N 0.47019 -0.12841 0.01869
 N210 N 0.47030 -0.16360 0.01883
 C211 C 0.49912 0.31832 0.00047
 N212 N 0.51828 0.33647 -0.02892
 N213 N 0.51815 0.37167 -0.02904
 C214 C 0.49917 0.38994 0.00038
 N215 N 0.48016 0.37180 0.02985
 N216 N 0.47998 0.33660 0.02981
 C217 C 0.49912 0.27958 0.00049
 N218 N 0.47341 0.26131 0.02498
 N219 N 0.47330 0.22610 0.02484
 C220 C 0.49914 0.20795 0.00046
 N221 N 0.52497 0.22623 -0.02389
 N222 N 0.52485 0.26143 -0.02400
 C223 C 0.49916 0.16922 0.00042
 N224 N 0.52932 0.15117 -0.01697
 N225 N 0.52941 0.11597 -0.01689
 C226 C 0.49921 0.09759 0.00025
 N227 N 0.46899 0.11563 0.01748
 N228 N 0.46902 0.15083 0.01773
 C229 C -0.32145 -0.00159 0.48609
 N230 N -0.33720 0.02662 0.47407
 N231 N -0.37288 0.02659 0.47581
 C232 C -0.39392 -0.00183 0.48918
 N233 N -0.37806 -0.03017 0.50077
 N234 N -0.34251 -0.02996 0.49947
 C235 C -0.28261 -0.00101 0.48605
 N236 N -0.26982 -0.02266 0.50861
 N237 N -0.23483 -0.02155 0.50960
 C238 C -0.21125 0.00091 0.48774
 N239 N -0.22393 0.02234 0.46488
 N240 N -0.25907 0.02157 0.46423
 C241 C -0.17291 0.00234 0.48949
 N242 N -0.14681 0.01549 0.46134
 N243 N -0.11198 0.01649 0.46313
 C244 C -0.10217 0.00485 0.49334
 N245 N -0.12831 -0.00806 0.52154
 N246 N -0.16301 -0.00950 0.51955
 C247 C 0.32130 -0.00051 0.51479
 N248 N 0.33749 0.02758 0.52718
 N249 N 0.37313 0.02736 0.52562
 C250 C 0.39370 -0.00115 0.51207
 N251 N 0.37740 -0.02936 0.50011
 N252 N 0.34190 -0.02896 0.50124
 C253 C 0.28253 0.00024 0.51463
 N254 N 0.26953 -0.02136 0.49181
 N255 N 0.23460 -0.02019 0.49068
 C256 C 0.21128 0.00231 0.51265
 N257 N 0.22417 0.02372 0.53575
 N258 N 0.25927 0.02288 0.53655
 C259 C 0.17298 0.00372 0.51081
 N260 N 0.14698 0.01685 0.53901
 N261 N 0.11217 0.01770 0.53719
 C262 C 0.10229 0.00590 0.50688
 N263 N 0.12835 -0.00697 0.47863
 N264 N 0.16302 -0.00825 0.48065
 C265 C -0.01094 0.50338 1.32694
 N266 N -0.03898 0.51658 1.35306
 N267 N -0.03711 0.51758 1.38787
 C268 C -0.00691 0.50588 1.39764
 N269 N 0.02118 0.49292 1.37147
 N270 N 0.01911 0.49148 1.33680
 C271 C -0.01278 0.50194 1.28862
 N272 N 0.00895 0.47944 1.26507
 N273 N 0.00789 0.47833 1.23009
 C274 C -0.01461 0.50000 1.21729
 N275 N -0.03630 0.52263 1.24080
 N276 N -0.03558 0.52341 1.27593
 C277 C -0.01462 0.49942 1.17846
 N278 N -0.02655 0.52764 1.16263
 N279 N -0.02480 0.52761 1.12694
 C280 C -0.01149 0.49919 1.10596
 N281 N 0.00001 0.47085 1.12190
 N282 N -0.00132 0.47105 1.15745
 C283 C 0.01116 0.50465 0.67265
 N284 N 0.03925 0.51801 0.64661
 N285 N 0.03736 0.51885 0.61181
 C286 C 0.00710 0.50682 0.60198
 N287 N -0.02104 0.49372 0.62807
 N288 N -0.01895 0.49245 0.66273
 C289 C 0.01305 0.50325 0.71094
 N290 N -0.00877 0.48058 0.73428
 N291 N -0.00762 0.47943 0.76921
 C292 C 0.01506 0.50122 0.78220
 N293 N 0.03683 0.52402 0.75891
 N294 N 0.03602 0.52485 0.72382
 C295 C 0.01521 0.50050 0.82098
 N296 N 0.02741 0.52869 0.83716
 N297 N 0.02578 0.52849 0.87283
 C298 C 0.01233 0.49990 0.89342
 N299 N 0.00057 0.47159 0.87713
 N300 N 0.00177 0.47197 0.84160
   
