data_POSCAR
  _audit_creation_date              2014-09-24
  _audit_creation_method            'ToBaCCo'
  _symmetry_space_group_name_H-M    'P1'
  _symmetry_Int_Tables_number       1
  _symmetry_cell_setting            triclinic
  loop_
  _symmetry_equiv_pos_as_xyz
 x,y,z
_cell_length_a 26.0668
_cell_length_b 26.0552
_cell_length_c 35.5063
_cell_angle_alpha 89.903700
_cell_angle_beta 90.533300
_cell_angle_gamma 90.114400
loop_
  _atom_site_label
  _atom_site_type_symbol
  _atom_site_fract_x
  _atom_site_fract_y
  _atom_site_fract_z
O1 O 0.04585 0.55122 1.03442
 O2 O 0.04757 0.45236 0.96146
 O3 O 0.03808 0.55028 0.96286
 O4 O 0.03641 0.44899 1.03603
 O5 O -0.04832 0.45199 1.03645
 O6 O -0.04679 0.55105 0.96338
 O7 O -0.03716 0.44884 0.96189
 O8 O -0.03902 0.54994 1.03495
 Cu9 Cu 0.04983 0.49953 0.99958
 Cu10 Cu -0.05067 0.49923 0.99827
 C11 C 0.00362 0.56798 1.04669
 C12 C 0.00577 0.43361 0.94936
 C13 C -0.00460 0.56812 0.95110
 C14 C -0.00647 0.43349 1.04859
 O15 O 0.45054 -0.04448 0.46429
 O16 O 0.55087 -0.04480 0.53744
 O17 O 0.45069 -0.04260 0.53745
 O18 O 0.55070 -0.04251 0.46428
 O19 O 0.55033 0.04237 0.46442
 O20 O 0.45160 0.04227 0.53737
 O21 O 0.55178 0.04007 0.53757
 O22 O 0.45017 0.04040 0.46421
 Cu23 Cu 0.50067 -0.05214 0.50087
 Cu24 Cu 0.50100 0.04982 0.50090
 C25 C 0.43307 -0.00222 0.45207
 C26 C 0.56864 -0.00265 0.54968
 C27 C 0.43410 0.00006 0.54954
 C28 C 0.56753 0.00018 0.45220
 C29 C -0.06848 0.01113 0.26874
 C30 C -0.02225 0.02006 0.24994
 C31 C -0.01438 0.06691 0.23139
 C32 C -0.05273 0.10445 0.23126
 C33 C -0.09870 0.09566 0.25042
 C34 C -0.10644 0.04906 0.26935
 C35 C 0.01790 -0.01952 0.24972
 C36 C 0.00969 -0.06584 0.23054
 C37 C 0.04815 -0.10325 0.22991
 C38 C 0.09458 -0.09488 0.24920
 C39 C 0.10267 -0.04883 0.26874
 C40 C 0.06458 -0.01101 0.26864
 H41 H -0.07443 -0.02491 0.28339
 H42 H 0.02119 0.07370 0.21657
 H43 H -0.02623 -0.07229 0.21561
 H44 H 0.07083 0.02463 0.28375
 H45 H -0.12825 0.12489 0.25061
 H46 H 0.12423 -0.12401 0.24900
 C47 C -0.00976 -0.06665 0.76913
 C48 C -0.01795 -0.02017 0.75008
 C49 C -0.06468 -0.01158 0.73127
 C50 C -0.10283 -0.04948 0.73113
 C51 C -0.09477 -0.09569 0.75055
 C52 C -0.04831 -0.10415 0.76974
 C53 C 0.02229 0.01951 0.74989
 C54 C 0.06871 0.01058 0.73142
 C55 C 0.10675 0.04859 0.73082
 C56 C 0.09889 0.09527 0.74947
 C57 C 0.05274 0.10406 0.76832
 C58 C 0.01431 0.06644 0.76815
 H59 H 0.02618 -0.07317 0.78399
 H60 H -0.07090 0.02418 0.71625
 H61 H 0.07476 -0.02552 0.71698
 H62 H -0.02141 0.07323 0.78273
 H63 H -0.12448 -0.12489 0.75073
 H64 H 0.12850 0.12456 0.74930
 C65 C 0.04769 -0.28621 0.17359
 C66 C -0.00485 -0.30985 0.16220
 C67 C 0.01305 -0.31216 0.12114
 C68 C 0.06544 -0.28924 0.13215
 C69 C 0.02593 -0.23248 0.16565
 C70 C 0.04378 -0.23491 0.12458
 C71 C -0.02650 -0.25534 0.15467
 C72 C -0.00868 -0.25842 0.11322
 C73 C 0.00735 -0.35585 0.09551
 C74 C 0.00450 -0.39106 0.07362
 C75 C 0.03372 -0.18735 0.18959
 C76 C 0.04036 -0.14944 0.20842
 H77 H 0.07098 -0.29712 0.19867
 H78 H -0.02496 -0.34116 0.17736
 H79 H 0.10319 -0.30365 0.12261
 H80 H 0.06390 -0.20365 0.10936
 H81 H -0.06421 -0.24086 0.16423
 H82 H -0.03196 -0.24746 0.08814
 C83 C -0.07337 0.27284 0.15705
 C84 C -0.03598 0.31795 0.16498
 C85 C -0.01751 0.31484 0.12408
 C86 C -0.05481 0.27043 0.11582
 C87 C -0.03085 0.23492 0.16831
 C88 C -0.01240 0.23192 0.12740
 C89 C 0.00649 0.27927 0.17666
 C90 C 0.02503 0.27694 0.13532
 C91 C -0.01141 0.35842 0.09838
 C92 C -0.00809 0.39328 0.07618
 C93 C -0.03873 0.18949 0.19193
 C94 C -0.04526 0.15120 0.21037
 H95 H -0.11392 0.27066 0.16623
 H96 H -0.04554 0.35384 0.18016
 H97 H -0.07994 0.26722 0.09051
 H98 H -0.00283 0.19606 0.11218
 H99 H 0.03158 0.28237 0.20199
 H100 H 0.06556 0.27911 0.12612
 C101 C 0.23894 0.04263 0.62695
 C102 C 0.29370 0.06325 0.63481
 C103 C 0.31548 0.01053 0.62412
 C104 C 0.26130 -0.01017 0.61593
 C105 C 0.23603 0.02448 0.66806
 C106 C 0.25775 -0.02828 0.65741
 C107 C 0.29019 0.04520 0.67629
 C108 C 0.31270 -0.00768 0.66523
 C109 C 0.35892 0.00432 0.59865
 C110 C 0.39377 0.00116 0.57672
 C111 C 0.19095 0.03291 0.69157
 C112 C 0.15302 0.04011 0.70996
 H113 H 0.20818 0.06345 0.61145
 H114 H 0.30894 0.10084 0.62524
 H115 H 0.24988 -0.03304 0.59086
 H116 H 0.24243 -0.06583 0.66700
 H117 H 0.30156 0.06810 0.70136
 H118 H 0.34352 -0.02849 0.68066
 C119 C -0.24654 -0.06018 0.63355
 C120 C -0.30310 -0.06160 0.64640
 C121 C -0.31351 -0.01276 0.62326
 C122 C -0.25755 -0.01128 0.61008
 C123 C -0.23326 -0.02625 0.66762
 C124 C -0.24363 0.02261 0.64449
 C125 C -0.28918 -0.02774 0.68087
 C126 C -0.30033 0.02126 0.65731
 C127 C -0.35740 -0.00677 0.59757
 C128 C -0.39264 -0.00377 0.57547
 C129 C -0.18775 -0.03440 0.69138
 C130 C -0.14948 -0.04134 0.70998
 H131 H -0.22399 -0.09377 0.62403
 H132 H -0.32806 -0.09616 0.64692
 H133 H -0.24498 -0.00439 0.58071
 H134 H -0.21864 0.05714 0.64397
 H135 H -0.30166 -0.03466 0.71026
 H136 H -0.32295 0.05483 0.66677
 C137 C -0.02259 -0.28957 0.81994
 C138 C 0.02371 -0.29808 0.84699
 C139 C -0.01369 -0.31384 0.87815
 C140 C -0.05985 -0.30606 0.85152
 C141 C -0.02632 -0.23385 0.83374
 C142 C -0.06364 -0.24971 0.86492
 C143 C 0.01985 -0.24161 0.86036
 C144 C -0.01743 -0.25809 0.89188
 C145 C -0.00815 -0.35767 0.90375
 C146 C -0.00545 -0.39297 0.92565
 C147 C -0.03399 -0.18855 0.80987
 C148 C -0.04056 -0.15050 0.79112
 H149 H -0.02484 -0.30198 0.79008
 H150 H 0.05971 -0.31847 0.83993
 H151 H -0.09255 -0.33307 0.84815
 H152 H -0.09965 -0.22938 0.87203
 H153 H 0.05253 -0.21457 0.86374
 H154 H -0.01521 -0.24559 0.92172
 C155 C -0.01954 0.26558 0.83278
 C156 C -0.01471 0.26519 0.87632
 C157 C 0.01705 0.31483 0.87434
 C158 C 0.01215 0.31600 0.83119
 C159 C 0.03055 0.23476 0.83052
 C160 C 0.06233 0.28439 0.82852
 C161 C 0.03543 0.23373 0.87367
 C162 C 0.06709 0.28395 0.87203
 C163 C 0.01086 0.35849 0.89983
 C164 C 0.00747 0.39338 0.92189
 C165 C 0.03852 0.18925 0.80716
 C166 C 0.04515 0.15089 0.78894
 H167 H -0.05506 0.25749 0.81635
 H168 H -0.04647 0.25777 0.89623
 H169 H 0.00244 0.35034 0.81402
 H170 H 0.09411 0.29176 0.80862
 H171 H 0.04513 0.19945 0.89091
 H172 H 0.10266 0.29195 0.88844
 C173 C -0.28742 0.05117 0.32761
 C174 C -0.31432 -0.00103 0.33486
 C175 C -0.31424 0.01082 0.37723
 C176 C -0.28806 0.06286 0.37035
 C177 C -0.23515 0.02487 0.33288
 C178 C -0.23520 0.03668 0.37526
 C179 C -0.26126 -0.02722 0.33972
 C180 C -0.26196 -0.01546 0.38249
 C181 C -0.35750 0.00456 0.40290
 C182 C -0.39223 0.00135 0.42494
 C183 C -0.19027 0.03334 0.30913
 C184 C -0.15251 0.04057 0.29051
 H185 H -0.29738 0.07868 0.30480
 H186 H -0.34734 -0.01666 0.31856
 H187 H -0.29954 0.09985 0.38322
 H188 H -0.20224 0.05232 0.39163
 H189 H -0.24970 -0.06416 0.32682
 H190 H -0.25196 -0.04295 0.40530
 C191 C 0.28544 -0.00611 0.31924
 C192 C 0.28760 0.03054 0.35362
 C193 C 0.31314 -0.01224 0.37692
 C194 C 0.31174 -0.04876 0.34298
 C195 C 0.23297 -0.02573 0.33246
 C196 C 0.25857 -0.06844 0.35579
 C197 C 0.23439 0.01078 0.36640
 C198 C 0.26061 -0.03185 0.39004
 C199 C 0.35699 -0.00624 0.40265
 C200 C 0.39223 -0.00322 0.42475
 C201 C 0.18751 -0.03386 0.30864
 C202 C 0.14928 -0.04076 0.28997
 H203 H 0.29512 0.00434 0.28982
 H204 H 0.30003 0.07130 0.35302
 H205 H 0.34407 -0.07315 0.33362
 H206 H 0.24618 -0.10922 0.35643
 H207 H 0.20206 0.03515 0.37578
 H208 H 0.25082 -0.04233 0.41944
   
