data_POSCAR
  _audit_creation_date              2014-09-24
  _audit_creation_method            'ToBaCCo'
  _symmetry_space_group_name_H-M    'P1'
  _symmetry_Int_Tables_number       1
  _symmetry_cell_setting            triclinic
  loop_
  _symmetry_equiv_pos_as_xyz
 x,y,z
_cell_length_a 24.7440
_cell_length_b 24.7571
_cell_length_c 24.7543
_cell_angle_alpha 90.798300
_cell_angle_beta 90.785100
_cell_angle_gamma 89.634800
loop_
  _atom_site_label
  _atom_site_type_symbol
  _atom_site_fract_x
  _atom_site_fract_y
  _atom_site_fract_z
C1 C 0.15925 0.55401 1.04414
 H2 H 0.16246 0.57900 1.00886
 C3 C 0.10931 0.54930 1.06912
 H4 H 0.07561 0.57337 1.05451
 C5 C 0.19864 0.48924 1.10239
 H6 H 0.23201 0.46253 1.11215
 C7 C 0.15024 0.48563 1.13068
 H8 H 0.14827 0.45694 1.16317
 N9 N 0.20170 0.52207 1.05912
 C10 C 0.33480 0.55316 0.95022
 H11 H 0.32718 0.52053 0.92166
 C12 C 0.38538 0.57787 0.95159
 H13 H 0.41542 0.56645 0.92207
 C14 C 0.30690 0.60383 1.02707
 H15 H 0.27787 0.61067 1.05875
 C16 C 0.35658 0.63048 1.02910
 H17 H 0.36436 0.66004 1.06088
 Zn18 Zn 0.25013 0.50801 1.00230
 N19 N 0.29762 0.56507 0.98874
 C20 C 0.19292 0.52965 0.90537
 N21 N 0.20173 0.49286 0.94478
 C22 C 0.16423 0.45476 0.95617
 C23 C 0.11375 0.45516 0.93021
 C24 C 0.14340 0.53064 0.87752
 C25 C 0.33910 0.46386 1.05269
 C26 C 0.38951 0.43820 1.05052
 C27 C 0.35619 0.38430 0.97519
 C28 C 0.30679 0.41182 0.97798
 N29 N 0.29968 0.45157 1.01563
 H30 H 0.22223 0.56100 0.89877
 H31 H 0.17154 0.42743 0.98924
 H32 H 0.08346 0.42602 0.94111
 H33 H 0.13604 0.56117 0.84735
 H34 H 0.33312 0.49717 1.08077
 H35 H 0.42118 0.44967 1.07897
 H36 H 0.36200 0.35374 0.94403
 H37 H 0.27597 0.40452 0.94740
 C38 C 0.39715 0.61602 0.99223
 C39 C 0.10365 0.51394 1.11256
 C40 C 0.39879 0.39877 1.01062
 C41 C 0.10252 0.49428 0.89133
 C42 C 0.83571 0.55106 -0.05336
 H43 H 0.82841 0.58213 -0.02313
 C44 C 0.88611 0.54784 -0.07794
 H45 H 0.91635 0.57821 -0.06893
 C46 C 0.80719 0.47042 -0.09776
 H47 H 0.77802 0.43826 -0.10208
 C48 C 0.85664 0.46649 -0.12437
 H49 H 0.86409 0.43267 -0.15154
 N50 N 0.79830 0.51165 -0.06208
 C51 C 0.66537 0.55258 0.04513
 H52 H 0.67353 0.52258 0.07558
 C53 C 0.61467 0.57761 0.04282
 H54 H 0.58504 0.56924 0.07336
 C55 C 0.69226 0.59630 -0.03474
 H56 H 0.72101 0.60032 -0.06693
 C57 C 0.64248 0.62329 -0.03774
 H58 H 0.63435 0.65054 -0.07076
 Zn59 Zn 0.75105 0.50310 -0.00386
 N60 N 0.70220 0.56092 0.00575
 C61 C 0.81055 0.53572 0.08966
 N62 N 0.80107 0.49488 0.05354
 C63 C 0.83863 0.45547 0.04438
 C64 C 0.88943 0.45793 0.06949
 C65 C 0.86048 0.53887 0.11680
 C66 C 0.66385 0.45338 -0.05110
 C67 C 0.61335 0.42890 -0.04736
 C68 C 0.64552 0.38327 0.03263
 C69 C 0.69503 0.40978 0.02825
 N70 N 0.70268 0.44501 -0.01253
 H71 H 0.78114 0.56788 0.09441
 H72 H 0.83079 0.42469 0.01389
 H73 H 0.91953 0.42721 0.06068
 H74 H 0.86816 0.57187 0.14500
 H75 H 0.67024 0.48325 -0.08181
 H76 H 0.58204 0.43764 -0.07702
 H77 H 0.63914 0.35644 0.06610
 H78 H 0.72539 0.40571 0.05980
 C79 C 0.60242 0.61246 0.00032
 C80 C 0.89744 0.50441 -0.11282
 C81 C 0.60338 0.39447 -0.00433
 C82 C 0.90112 0.50067 0.10519
 C83 C -0.04633 0.33292 0.45601
 H84 H -0.07005 0.32890 0.49208
 C85 C -0.04465 0.38278 0.43053
 H86 H -0.06956 0.41556 0.44580
 C87 C 0.01778 0.29574 0.39563
 H88 H 0.04531 0.26333 0.38498
 C89 C 0.01820 0.34401 0.36679
 H90 H 0.04539 0.34691 0.33308
 N91 N -0.01331 0.29166 0.44011
 C92 C -0.04119 0.15735 0.54828
 H93 H -0.00765 0.16423 0.57596
 C94 C -0.06711 0.10740 0.54758
 H95 H -0.05558 0.07708 0.57674
 C96 C -0.09371 0.18672 0.47323
 H97 H -0.10110 0.21614 0.44206
 C98 C -0.12149 0.13772 0.47188
 H99 H -0.15236 0.13083 0.44115
 Zn100 Zn 0.00277 0.24306 0.49638
 N101 N -0.05367 0.19503 0.51044
 C102 C -0.01923 0.29874 0.59379
 N103 N 0.01768 0.29132 0.55420
 C104 C 0.05431 0.33023 0.54271
 C105 C 0.05190 0.38076 0.56851
 C106 C -0.02226 0.34829 0.62137
 C107 C 0.04672 0.15499 0.44449
 C108 C 0.07135 0.10406 0.44661
 C109 C 0.12544 0.13593 0.52240
 C110 C 0.09894 0.18591 0.51965
 N111 N 0.05944 0.19394 0.48189
 H112 H -0.04947 0.26831 0.60048
 H113 H 0.08172 0.32400 0.50949
 H114 H 0.07969 0.41218 0.55731
 H115 H -0.05327 0.35451 0.65131
 H116 H 0.01354 0.16163 0.41642
 H117 H 0.05927 0.07274 0.41804
 H118 H 0.15551 0.12934 0.55387
 H119 H 0.10650 0.21634 0.55054
 C120 C -0.10695 0.09679 0.50828
 C121 C -0.01136 0.38950 0.38564
 C122 C 0.11024 0.09369 0.48680
 C123 C 0.01229 0.39065 0.60732
 C124 C 0.94869 0.65773 0.54988
 H125 H 0.91678 0.66538 0.52062
 C126 C 0.95241 0.60717 0.57402
 H127 H 0.92160 0.57716 0.56583
 C128 C 1.03065 0.68562 0.59224
 H129 H 1.06299 0.71467 0.59593
 C130 C 1.03512 0.63600 0.61840
 H131 H 1.06945 0.62830 0.64486
 N132 N 0.98842 0.69496 0.55786
 C133 C 0.94501 0.82831 0.45235
 H134 H 0.97412 0.82001 0.42106
 C135 C 0.92084 0.87934 0.45579
 H136 H 0.92898 0.90912 0.42535
 C137 C 0.90319 0.80152 0.53329
 H138 H 0.89977 0.77268 0.56545
 C139 C 0.87699 0.85166 0.53743
 H140 H 0.85098 0.86003 0.57141
 Zn141 Zn 0.99553 0.74260 0.49979
 N142 N 0.93740 0.79143 0.49180
 C143 C 0.96048 0.68272 0.40757
 N144 N 1.00254 0.69281 0.44209
 C145 C 1.04253 0.65563 0.45017
 C146 C 1.03953 0.60459 0.42565
 C147 C 0.95671 0.63253 0.38104
 C148 C 1.04649 0.82960 0.54628
 C149 C 1.07215 0.87951 0.54291
 C150 C 1.11672 0.84704 0.46241
 C151 C 1.08903 0.79815 0.46643
 N152 N 1.05390 0.79088 0.50741
 H153 H 0.92791 0.71181 0.40379
 H154 H 1.07430 0.66392 0.47952
 H155 H 1.07081 0.57483 0.43359
 H156 H 0.92277 0.62438 0.35412
 H157 H 1.01676 0.82354 0.57722
 H158 H 1.06441 0.91067 0.57301
 H159 H 1.14374 0.85304 0.42900
 H160 H 1.09241 0.76791 0.43469
 C161 C 0.88751 0.89187 0.49947
 C162 C 0.99672 0.59549 0.60762
 C163 C 1.10675 0.88901 0.49990
 C164 C 0.99560 0.59227 0.39164
 C165 C 0.45806 -0.04834 0.33676
 H166 H 0.49195 -0.07522 0.32972
 C167 C 0.43245 -0.04869 0.38671
 H168 H 0.44465 -0.07784 0.41680
 C169 C 0.40432 0.02585 0.30809
 H170 H 0.39629 0.05721 0.27903
 C171 C 0.37677 0.02605 0.35705
 H172 H 0.34551 0.05603 0.36420
 N173 N 0.44490 -0.01036 0.29942
 C174 C 0.54814 -0.03365 0.15989
 H175 H 0.57150 0.00291 0.16457
 C176 C 0.54564 -0.05956 0.10950
 H177 H 0.56953 -0.04404 0.07691
 C178 C 0.48586 -0.09518 0.19613
 H179 H 0.45934 -0.10626 0.22847
 C180 C 0.48470 -0.12439 0.14732
 H181 H 0.45798 -0.15875 0.14388
 Zn182 Zn 0.50103 0.00562 0.25156
 N183 N 0.51646 -0.05005 0.20102
 C184 C 0.59729 -0.01861 0.30819
 N185 N 0.55806 0.01929 0.30079
 C186 C 0.54604 0.05624 0.34018
 C187 C 0.57120 0.05352 0.39097
 C188 C 0.62421 -0.02206 0.35806
 C189 C 0.44750 0.05191 0.16623
 C190 C 0.44897 0.07729 0.11619
 C191 C 0.52428 0.13039 0.14950
 C192 C 0.52216 0.10320 0.19855
 N193 N 0.48514 0.06364 0.20527
 H194 H 0.60424 -0.04911 0.27732
 H195 H 0.51302 0.08441 0.33394
 H196 H 0.55969 0.08175 0.42264
 H197 H 0.65392 -0.05378 0.36419
 H198 H 0.42003 0.01869 0.17183
 H199 H 0.42041 0.06581 0.08460
 H200 H 0.55541 0.16024 0.14376
 H201 H 0.55320 0.11004 0.22901
 C202 C 0.51301 -0.10535 0.10212
 C203 C 0.39211 -0.01039 0.39770
 C204 C 0.48870 0.11596 0.10691
 C205 C 0.60981 0.01311 0.40074
 C206 C 0.54837 -0.04366 0.66667
 H207 H 0.51908 -0.07488 0.67399
 C208 C 0.57326 -0.04150 0.61650
 H209 H 0.56548 -0.07275 0.58639
 C210 C 0.59051 0.03790 0.69521
 H211 H 0.59398 0.07062 0.72443
 C212 C 0.61742 0.04079 0.64598
 H213 H 0.64413 0.07432 0.63868
 N214 N 0.55599 -0.00345 0.70405
 C215 C 0.45306 -0.04554 0.83787
 H216 H 0.42111 -0.01643 0.83051
 C217 C 0.45740 -0.06990 0.88826
 H218 H 0.42698 -0.06204 0.91847
 C219 C 0.53443 -0.08754 0.80924
 H220 H 0.56629 -0.09109 0.77991
 C221 C 0.53951 -0.11392 0.85871
 H222 H 0.57376 -0.14041 0.86603
 Zn223 Zn 0.49828 0.00445 0.75227
 N224 N 0.49217 -0.05330 0.80033
 C225 C 0.40565 -0.03125 0.69409
 N226 N 0.43962 0.01093 0.70326
 C227 C 0.44671 0.04955 0.66539
 C228 C 0.42225 0.04453 0.61437
 C229 C 0.37920 -0.03700 0.64399
 C230 C 0.54626 0.05526 0.83870
 C231 C 0.54369 0.07997 0.88967
 C232 C 0.46067 0.12384 0.86156
 C233 C 0.46399 0.09710 0.81148
 N234 N 0.50589 0.06276 0.80153
 H235 H 0.40263 -0.06277 0.72369
 H236 H 0.47566 0.08143 0.67294
 H237 H 0.42996 0.07437 0.58388
 H238 H 0.35339 -0.07153 0.63645
 H239 H 0.57792 0.02605 0.83054
 H240 H 0.57508 0.07221 0.91954
 H241 H 0.42666 0.15035 0.86968
 H242 H 0.43113 0.10044 0.78243
 C243 C 0.50171 -0.10346 0.89947
 C244 C 0.60720 0.00176 0.60538
 C245 C 0.49985 0.11367 0.90191
 C246 C 0.38914 0.00011 0.60282
 C247 C 0.19174 -0.05956 0.49713
 C248 C 0.22034 -0.01140 0.49555
 C249 C 0.19333 0.03797 0.49218
 C250 C 0.13691 0.04001 0.49047
 C251 C 0.10755 -0.00880 0.49263
 C252 C 0.13528 -0.05887 0.49606
 C253 C 0.27901 -0.01222 0.49736
 C254 C 0.30748 -0.01252 0.44927
 C255 C 0.36384 -0.00999 0.45006
 C256 C 0.39163 -0.00648 0.50035
 C257 C 0.36243 -0.00595 0.54916
 C258 C 0.30610 -0.00940 0.54700
 H259 H 0.21353 -0.09758 0.50009
 H260 H 0.21651 0.07493 0.49038
 H261 H 0.28552 -0.01471 0.41108
 H262 H 0.28309 -0.00813 0.58398
 H263 H 0.06377 -0.00785 0.49192
 H264 H 0.43531 -0.00372 0.50149
 C265 C 0.80500 -0.05184 0.50568
 C266 C 0.77864 -0.00199 0.50726
 C267 C 0.80779 0.04584 0.50797
 C268 C 0.86415 0.04464 0.50707
 C269 C 0.89128 -0.00581 0.50483
 C270 C 0.86136 -0.05437 0.50393
 C271 C 0.72008 0.00052 0.50601
 C272 C 0.69172 0.00054 0.55412
 C273 C 0.63542 0.00388 0.55330
 C274 C 0.60753 0.00789 0.50323
 C275 C 0.63667 0.00850 0.45442
 C276 C 0.69301 0.00459 0.45656
 H277 H 0.78147 -0.08866 0.50434
 H278 H 0.78635 0.08418 0.50950
 H279 H 0.71356 -0.00262 0.59226
 H280 H 0.71613 0.00554 0.41967
 H281 H 0.93502 -0.00728 0.50346
 H282 H 0.56378 0.01029 0.50230
 C283 C 0.54880 0.31162 1.00142
 C284 C 0.49961 0.28496 1.00495
 C285 C 0.45135 0.31386 1.00812
 C286 C 0.45144 0.37022 1.00756
 C287 C 0.50123 0.39764 1.00372
 C288 C 0.55024 0.36800 1.00061
 C289 C 0.49825 0.22638 1.00474
 C290 C 0.49454 0.19924 1.05339
 C291 C 0.49222 0.14288 1.05392
 C292 C 0.49370 0.11377 1.00427
 C293 C 0.49718 0.14172 0.95495
 C294 C 0.49928 0.19803 0.95582
 H295 H 0.58595 0.28832 0.99861
 H296 H 0.41356 0.29222 1.01121
 H297 H 0.49295 0.22228 1.09094
 H298 H 0.50213 0.21994 0.91832
 H299 H 0.50183 0.44139 1.00296
 H300 H 0.49241 0.07003 1.00399
 C301 C 0.54971 0.69716 -0.00158
 C302 C 0.50119 0.72586 -0.00211
 C303 C 0.45194 0.69907 -0.00380
 C304 C 0.45054 0.64267 -0.00509
 C305 C 0.49978 0.61319 -0.00404
 C306 C 0.54967 0.64081 -0.00217
 C307 C 0.50225 0.78441 -0.00073
 C308 C 0.50287 0.81243 -0.04894
 C309 C 0.50574 0.86857 -0.04831
 C310 C 0.50985 0.89667 0.00169
 C311 C 0.50902 0.86818 0.05116
 C312 C 0.50438 0.81170 0.04880
 H313 H 0.58764 0.71889 0.00018
 H314 H 0.41463 0.72231 -0.00474
 H315 H 0.50025 0.79039 -0.08707
 H316 H 0.50536 0.78810 0.08536
 H317 H 0.49928 0.56943 -0.00455
 H318 H 0.51162 0.94038 0.00178
 C319 C 0.99787 0.53990 0.30677
 C320 C 1.00015 0.49155 0.27769
 C321 C 0.99831 0.44214 0.30382
 C322 C 0.99233 0.44021 0.36016
 C323 C 0.98985 0.48992 0.38963
 C324 C 0.99354 0.53971 0.36272
 C325 C 1.00174 0.49341 0.21917
 C326 C 1.05108 0.49832 0.19335
 C327 C 1.05297 0.50697 0.13743
 C328 C 1.00326 0.50902 0.10790
 C329 C 0.95355 0.50228 0.13439
 C330 C 0.95337 0.49522 0.19005
 H331 H 1.00010 0.57792 0.28565
 H332 H 0.99854 0.40545 0.27943
 H333 H 1.08767 0.49881 0.21793
 H334 H 0.91538 0.49111 0.21093
 H335 H 0.98705 0.49018 0.43327
 H336 H 1.00298 0.51404 0.06449
 C337 C -0.00076 0.54290 0.69127
 C338 C 0.00162 0.49444 0.71901
 C339 C 0.00612 0.44539 0.69127
 C340 C 0.00791 0.44401 0.63488
 C341 C 0.00503 0.49319 0.60637
 C342 C 0.00073 0.54290 0.63497
 C343 C 0.00073 0.49518 0.77757
 C344 C -0.04840 0.49797 0.80425
 C345 C -0.04945 0.49999 0.86065
 C346 C -0.00011 0.49874 0.89025
 C347 C 0.04961 0.49559 0.86277
 C348 C 0.04933 0.49392 0.80641
 H349 H -0.00422 0.58072 0.71366
 H350 H 0.00874 0.40821 0.71386
 H351 H -0.08582 0.49939 0.78098
 H352 H 0.08710 0.49141 0.78474
 H353 H 0.00591 0.49280 0.56262
 H354 H -0.00041 0.50041 0.93401
   
