data_POSCAR
  _audit_creation_date              2014-09-24
  _audit_creation_method            'ToBaCCo'
  _symmetry_space_group_name_H-M    'P1'
  _symmetry_Int_Tables_number       1
  _symmetry_cell_setting            triclinic
  loop_
  _symmetry_equiv_pos_as_xyz
 x,y,z
_cell_length_a 10.9001
_cell_length_b 32.9714
_cell_length_c 11.2787
_cell_angle_alpha 89.505900
_cell_angle_beta 93.313800
_cell_angle_gamma 89.869200
loop_
  _atom_site_label
  _atom_site_type_symbol
  _atom_site_fract_x
  _atom_site_fract_y
  _atom_site_fract_z
N1 N 0.19719 0.03705 0.17240
 N2 N 0.26225 0.07032 0.18800
 N3 N 0.08317 -0.04665 0.22717
 N4 N 0.06934 -0.08072 0.28695
 N5 N 0.18410 -0.04776 0.16891
 N6 N 0.24197 -0.08257 0.18889
 N7 N 0.09765 0.03849 0.23242
 N8 N 0.09373 0.07300 0.29110
 C9 C 0.19803 0.09225 0.26357
 C10 C 0.16984 -0.10265 0.26356
 N11 N -0.24127 -0.04144 0.06164
 N12 N -0.30347 -0.07537 0.04494
 N13 N -0.16088 0.04363 0.16575
 N14 N -0.15357 0.08004 0.21337
 N15 N -0.23608 0.04393 0.07027
 N16 N -0.28895 0.08256 0.05649
 N17 N -0.17620 -0.04265 0.16337
 N18 N -0.19379 -0.07758 0.21850
 Mn19 Mn -0.03985 -0.00177 0.19855
 C20 C -0.27487 -0.09740 0.14428
 C21 C -0.23272 0.10367 0.14688
 N22 N 0.23658 -0.04618 -0.07900
 N23 N 0.28604 -0.08497 -0.06297
 N24 N 0.17875 0.04155 -0.17487
 N25 N 0.19002 0.07723 -0.22681
 N26 N 0.24740 0.03959 -0.07523
 N27 N 0.30741 0.07408 -0.05812
 N28 N 0.17165 -0.04414 -0.18069
 N29 N 0.17662 -0.07913 -0.23686
 Mn30 Mn 0.21759 -0.00443 0.04691
 C31 C 0.24670 -0.10398 -0.16385
 C32 C 0.27253 0.09686 -0.15473
 N33 N -0.18181 0.04557 -0.17874
 N34 N -0.23710 0.08108 -0.18792
 N35 N -0.08813 -0.03990 -0.24483
 N36 N -0.07695 -0.07430 -0.30210
 N37 N -0.18955 -0.03949 -0.18728
 N38 N -0.25215 -0.07593 -0.20727
 N39 N -0.08138 0.04564 -0.23803
 N40 N -0.06683 0.08150 -0.28885
 Mn41 Mn -0.21329 0.00207 -0.05889
 Mn42 Mn 0.04557 0.00085 -0.21102
 Cl43 Cl 0.00259 -0.00083 -0.00610
 C44 C -0.16565 0.10310 -0.25781
 C45 C -0.17760 -0.09624 -0.27894
 N46 N 0.74032 0.54651 0.58137
 N47 N 0.79641 0.58167 0.56894
 N48 N 0.69123 0.46157 0.68587
 N49 N 0.71288 0.42804 0.74832
 N50 N 0.75212 0.46111 0.58871
 N51 N 0.81574 0.42714 0.58270
 N52 N 0.67557 0.54682 0.67610
 N53 N 0.68503 0.58226 0.72919
 C54 C 0.76222 0.60351 0.66256
 C55 C 0.79189 0.40703 0.68391
 N56 N 0.33052 0.45483 0.66799
 N57 N 0.27761 0.41931 0.68380
 N58 N 0.41830 0.54274 0.72446
 N59 N 0.42448 0.57814 0.77878
 N60 N 0.31532 0.54009 0.65849
 N61 N 0.24993 0.57357 0.66571
 N62 N 0.43470 0.45699 0.73238
 N63 N 0.45582 0.42272 0.79155
 Mn64 Mn 0.55525 0.50212 0.70618
 C65 C 0.35600 0.39983 0.76244
 C66 C 0.31790 0.59678 0.74235
 N67 N 0.68814 0.45810 0.33667
 N68 N 0.75321 0.42466 0.32369
 N69 N 0.57288 0.54204 0.26357
 N70 N 0.55333 0.57655 0.20482
 N71 N 0.67532 0.54408 0.33077
 N72 N 0.72594 0.58019 0.32082
 N73 N 0.58482 0.45652 0.27089
 N74 N 0.57719 0.42212 0.21208
 Mn75 Mn 0.71545 0.50237 0.45890
 C76 C 0.68331 0.40264 0.24451
 C77 C 0.65055 0.59979 0.24013
 N78 N 0.25202 0.53745 0.40750
 N79 N 0.19393 0.57239 0.41791
 N80 N 0.32865 0.45286 0.31871
 N81 N 0.31921 0.41776 0.26370
 N82 N 0.26813 0.45192 0.41614
 N83 N 0.21746 0.41602 0.43016
 N84 N 0.31534 0.53791 0.31175
 N85 N 0.30174 0.57300 0.25590
 Mn86 Mn 0.29009 0.49598 0.53777
 Mn87 Mn 0.45001 0.49735 0.28991
 Cl88 Cl 0.50280 0.49948 0.49829
 C89 C 0.22435 0.59403 0.32164
 C90 C 0.24849 0.39527 0.33346
 C91 C 0.22915 0.22115 0.28712
 C92 C 0.21311 0.19791 0.39135
 C93 C 0.20246 0.15549 0.38465
 C94 C 0.21584 0.13602 0.27646
 C95 C 0.24063 0.15886 0.17559
 C96 C 0.24564 0.20089 0.18015
 C97 C 0.22892 0.26634 0.29519
 C98 C 0.23419 0.29193 0.19487
 C99 C 0.23765 0.33390 0.20731
 C100 C 0.23207 0.35135 0.31946
 C101 C 0.22152 0.32632 0.41952
 C102 C 0.22111 0.28399 0.40825
 C103 C 0.20811 0.21719 0.50094
 C104 C 0.21302 0.25934 0.50913
 H105 H 0.19767 0.19950 0.58117
 H106 H 0.20576 0.27296 0.59514
 H107 H 0.18506 0.13767 0.46314
 H108 H 0.25198 0.14413 0.09160
 H109 H 0.24574 0.35278 0.12900
 H110 H 0.21785 0.33972 0.50675
 H111 H 0.26232 0.21683 0.09911
 H112 H 0.23644 0.28027 0.10615
 C113 C 0.66771 0.77396 0.17059
 C114 C 0.66624 0.79824 0.27356
 C115 C 0.68280 0.84050 0.26531
 C116 C 0.69693 0.85903 0.15477
 C117 C 0.69274 0.83516 0.05267
 C118 C 0.68043 0.79319 0.06044
 C119 C 0.66006 0.72872 0.18388
 C120 C 0.65746 0.70191 0.08672
 C121 C 0.65264 0.65994 0.10469
 C122 C 0.65520 0.64383 0.21978
 C123 C 0.65574 0.67004 0.31693
 C124 C 0.65479 0.71225 0.29954
 C125 C 0.65164 0.78002 0.38422
 C126 C 0.64620 0.73795 0.39677
 H127 H 0.64628 0.79860 0.46233
 H128 H 0.63444 0.72521 0.48375
 H129 H 0.68622 0.85888 0.34467
 H130 H 0.70520 0.84889 -0.03307
 H131 H 0.64886 0.64001 0.02872
 H132 H 0.65348 0.65748 0.40601
 H133 H 0.68451 0.77625 -0.02004
 H134 H 0.65718 0.71265 -0.00370
 C135 C 0.81867 0.23306 0.72752
 C136 C 0.87270 0.21144 0.63597
 C137 C 0.87781 0.16883 0.63968
 C138 C 0.82323 0.14748 0.73044
 C139 C 0.76219 0.16896 0.81601
 C140 C 0.76129 0.21115 0.81594
 C141 C 0.82329 0.27838 0.72528
 C142 C 0.78511 0.30241 0.81917
 C143 C 0.78415 0.34459 0.80921
 C144 C 0.82010 0.36372 0.70535
 C145 C 0.86836 0.34024 0.61595
 C146 C 0.87046 0.29780 0.62546
 C147 C 0.92026 0.23249 0.54118
 C148 C 0.91779 0.27473 0.53517
 H149 H 0.95934 0.21586 0.47044
 H150 H 0.95601 0.28966 0.46012
 H151 H 0.92298 0.15232 0.57170
 H152 H 0.71753 0.15295 0.88525
 H153 H 0.74914 0.36217 0.88065
 H154 H 0.89923 0.35482 0.53650
 H155 H 0.71419 0.22603 0.88478
 H156 H 0.75398 0.28928 0.90002
 C157 C 0.26690 0.77058 0.78741
 C158 C 0.30888 0.78791 0.89659
 C159 C 0.30858 0.83023 0.91029
 C160 C 0.26169 0.85595 0.81786
 C161 C 0.22478 0.83857 0.70827
 C162 C 0.22866 0.79665 0.69267
 C163 C 0.26907 0.72526 0.77655
 C164 C 0.23150 0.70515 0.67109
 C165 C 0.24219 0.66315 0.66317
 C166 C 0.29370 0.64024 0.75867
 C167 C 0.32930 0.65960 0.86501
 C168 C 0.31549 0.70181 0.87525
 C169 C 0.35207 0.76297 0.99121
 C170 C 0.35499 0.72090 0.98082
 H171 H 0.38610 0.77625 1.07398
 H172 H 0.39152 0.70299 1.05554
 H173 H 0.34009 0.84280 0.99525
 H174 H 0.19398 0.85744 0.63326
 H175 H 0.21507 0.64870 0.58002
 H176 H 0.36960 0.64188 0.93887
 H177 H 0.20090 0.78540 0.60580
 H178 H 0.19606 0.72124 0.59291
 C179 C 0.32447 0.22554 0.82021
 C180 C 0.20913 0.20933 0.84677
 C181 C 0.19308 0.16715 0.85279
 C182 C 0.29174 0.14079 0.83718
 C183 C 0.40611 0.15657 0.81205
 C184 C 0.42176 0.19846 0.80080
 C185 C 0.33731 0.27078 0.81277
 C186 C 0.44831 0.28994 0.78793
 C187 C 0.45409 0.33202 0.77615
 C188 C 0.34959 0.35603 0.78751
 C189 C 0.23882 0.33758 0.81431
 C190 C 0.23260 0.29524 0.82923
 C191 C 0.11075 0.23522 0.86755
 C192 C 0.12211 0.27723 0.85829
 H193 H 0.02356 0.22276 0.89122
 H194 H 0.04326 0.29598 0.87440
 H195 H 0.10429 0.15469 0.87180
 H196 H 0.48262 0.13641 0.79869
 H197 H 0.53936 0.34583 0.75283
 H198 H 0.15755 0.35615 0.82273
 H199 H 0.51054 0.20900 0.77776
 H200 H 0.53125 0.27303 0.77614
 C201 C 0.80352 0.77873 0.67224
 C202 C 0.70281 0.80004 0.71570
 C203 C 0.70557 0.84243 0.72457
 C204 C 0.80850 0.86440 0.69160
 C205 C 0.90177 0.84353 0.63567
 C206 C 0.90036 0.80128 0.62787
 C207 C 0.80101 0.73318 0.67414
 C208 C 0.89552 0.70882 0.63225
 C209 C 0.88436 0.66653 0.62960
 C210 C 0.78116 0.64760 0.67360
 C211 C 0.68924 0.67143 0.71997
 C212 C 0.69706 0.71382 0.71789
 C213 C 0.60091 0.77892 0.75272
 C214 C 0.59881 0.73680 0.75464
 H215 H 0.52306 0.79532 0.78351
 H216 H 0.51936 0.72176 0.78567
 H217 H 0.62911 0.85802 0.76179
 H218 H 0.97942 0.85958 0.60267
 H219 H 0.95624 0.64862 0.59288
 H220 H 0.60819 0.65702 0.75242
 H221 H 0.97678 0.78685 0.58892
 H222 H 0.97713 0.72191 0.59898
 C223 C 0.20785 0.76920 0.31603
 C224 C 0.09340 0.78820 0.32996
 C225 C 0.08318 0.83056 0.32075
 C226 C 0.18537 0.85415 0.29453
 C227 C 0.29998 0.83550 0.28712
 C228 C 0.31173 0.79361 0.29998
 C229 C 0.21278 0.72389 0.31600
 C230 C 0.31936 0.70248 0.29043
 C231 C 0.31967 0.66041 0.28815
 C232 C 0.21498 0.63841 0.31433
 C233 C 0.10740 0.65911 0.33985
 C234 C 0.10481 0.70180 0.33753
 C235 C -0.01056 0.76477 0.34965
 C236 C -0.00485 0.72251 0.35441
 H237 H -0.09746 0.77943 0.36202
 H238 H -0.08775 0.70576 0.37017
 H239 H -0.00577 0.84489 0.32761
 H240 H 0.38038 0.85327 0.26892
 H241 H 0.40362 0.64491 0.26882
 H242 H 0.02597 0.64207 0.35966
 H243 H 0.40218 0.78098 0.29368
 H244 H 0.40280 0.71759 0.26984
 C245 C 0.75130 0.23020 0.17516
 C246 C 0.65217 0.20873 0.11906
 C247 C 0.65831 0.16630 0.10771
 C248 C 0.75793 0.14420 0.16051
 C249 C 0.85144 0.16560 0.22463
 C250 C 0.85076 0.20794 0.22732
 C251 C 0.74259 0.27558 0.18247
 C252 C 0.83916 0.30003 0.22975
 C253 C 0.82123 0.34155 0.24730
 C254 C 0.70814 0.35990 0.21402
 C255 C 0.61515 0.33641 0.15728
 C256 C 0.63136 0.29456 0.14184
 C257 C 0.54687 0.22967 0.07600
 C258 C 0.53615 0.27155 0.08806
 H259 H 0.47026 0.21318 0.03530
 H260 H 0.45183 0.28619 0.05512
 H261 H 0.58318 0.15044 0.06098
 H262 H 0.93010 0.14990 0.26668
 H263 H 0.89553 0.35919 0.28847
 H264 H 0.52803 0.35037 0.12906
 H265 H 0.92869 0.22270 0.27094
 H266 H 0.92857 0.28757 0.25471
   
