data_POSCAR
  _audit_creation_date              2014-09-24
  _audit_creation_method            'ToBaCCo'
  _symmetry_space_group_name_H-M    'P1'
  _symmetry_Int_Tables_number       1
  _symmetry_cell_setting            triclinic
  loop_
  _symmetry_equiv_pos_as_xyz
 x,y,z
_cell_length_a 32.4012
_cell_length_b 32.7938
_cell_length_c 43.2194
_cell_angle_alpha 90.000000
_cell_angle_beta 90.000000
_cell_angle_gamma 90.000000
loop_
  _atom_site_label
  _atom_site_type_symbol
  _atom_site_fract_x
  _atom_site_fract_y
  _atom_site_fract_z
B1 B 0.26786 0.23283 0.27955
 B2 B 0.21948 0.21998 0.27079
 B3 B 0.23087 0.26818 0.27945
 B4 B 0.27789 0.27963 0.26510
 B5 B 0.29528 0.23657 0.24683
 B6 B 0.25874 0.19925 0.25086
 B7 B 0.22467 0.26159 0.21800
 B8 B 0.27302 0.27451 0.22661
 B9 B 0.26166 0.22630 0.21816
 B10 B 0.21469 0.21490 0.23239
 B11 B 0.19726 0.25797 0.25069
 B12 B 0.23380 0.29528 0.24665
 B13 B 0.73835 0.77374 0.21816
 B14 B 0.72699 0.72553 0.22661
 B15 B 0.77534 0.73845 0.21800
 B16 B 0.78532 0.78513 0.23239
 B17 B 0.74127 0.80079 0.25086
 B18 B 0.70473 0.76347 0.24683
 B19 B 0.76914 0.73185 0.27945
 B20 B 0.78053 0.78006 0.27079
 B21 B 0.73215 0.76721 0.27955
 B22 B 0.72212 0.72041 0.26510
 B23 B 0.76621 0.70476 0.24665
 B24 B 0.80275 0.74207 0.25069
 B25 B 0.73835 0.22630 -0.21812
 B26 B 0.72699 0.27451 -0.22658
 B27 B 0.77534 0.26159 -0.21796
 B28 B 0.78532 0.21490 -0.23236
 B29 B 0.74127 0.19925 -0.25082
 B30 B 0.70473 0.23657 -0.24680
 B31 B 0.76914 0.26818 -0.27942
 B32 B 0.78053 0.21998 -0.27076
 B33 B 0.73215 0.23283 -0.27952
 B34 B 0.72212 0.27963 -0.26506
 B35 B 0.76621 0.29528 -0.24662
 B36 B 0.80275 0.25797 -0.25065
 B37 B 0.26786 0.76721 -0.27952
 B38 B 0.21948 0.78006 -0.27076
 B39 B 0.23087 0.73185 -0.27942
 B40 B 0.27789 0.72041 -0.26506
 B41 B 0.29528 0.76347 -0.24680
 B42 B 0.25874 0.80079 -0.25082
 B43 B 0.22467 0.73845 -0.21796
 B44 B 0.27302 0.72553 -0.22658
 B45 B 0.26166 0.77374 -0.21812
 B46 B 0.21469 0.78513 -0.23236
 B47 B 0.19726 0.74207 -0.25065
 B48 B 0.23380 0.70476 -0.24662
 B49 B 1.23087 1.26818 0.72058
 B50 B 1.21948 1.21998 0.72924
 B51 B 1.26786 1.23283 0.72048
 B52 B 1.27789 1.27963 0.73494
 B53 B 1.23380 1.29528 0.75338
 B54 B 1.19726 1.25797 0.74935
 B55 B 1.26166 1.22630 0.78188
 B56 B 1.27302 1.27451 0.77342
 B57 B 1.22467 1.26159 0.78204
 B58 B 1.21469 1.21490 0.76764
 B59 B 1.25874 1.19925 0.74918
 B60 B 1.29528 1.23657 0.75320
 B61 B 0.77534 0.73845 0.78204
 B62 B 0.72699 0.72553 0.77342
 B63 B 0.73835 0.77374 0.78188
 B64 B 0.78532 0.78513 0.76764
 B65 B 0.80275 0.74207 0.74935
 B66 B 0.76621 0.70476 0.75338
 B67 B 0.73215 0.76721 0.72048
 B68 B 0.78053 0.78006 0.72924
 B69 B 0.76914 0.73185 0.72058
 B70 B 0.72212 0.72041 0.73494
 B71 B 0.70473 0.76347 0.75320
 B72 B 0.74127 0.80079 0.74918
 B73 B 1.23087 0.73185 0.27945
 B74 B 1.21948 0.78006 0.27079
 B75 B 1.26786 0.76721 0.27955
 B76 B 1.27789 0.72041 0.26510
 B77 B 1.23380 0.70476 0.24665
 B78 B 1.19726 0.74207 0.25069
 B79 B 1.26166 0.77374 0.21816
 B80 B 1.27302 0.72553 0.22661
 B81 B 1.22467 0.73845 0.21800
 B82 B 1.21469 0.78513 0.23239
 B83 B 1.25874 0.80079 0.25086
 B84 B 1.29528 0.76347 0.24683
 B85 B 0.77534 1.26159 0.21800
 B86 B 0.72699 1.27451 0.22661
 B87 B 0.73835 1.22630 0.21816
 B88 B 0.78532 1.21490 0.23239
 B89 B 0.80275 1.25797 0.25069
 B90 B 0.76621 1.29528 0.24665
 B91 B 0.73215 1.23283 0.27955
 B92 B 0.78053 1.21998 0.27079
 B93 B 0.76914 1.26818 0.27945
 B94 B 0.72212 1.27963 0.26510
 B95 B 0.70473 1.23657 0.24683
 B96 B 0.74127 1.19925 0.25086
 N97 N 0.42691 1.04393 0.03243
 N98 N 0.39738 1.05261 0.05238
 N99 N 0.45532 1.07253 -0.03244
 N100 N 0.44578 1.10150 -0.05245
 N101 N 0.42691 1.04393 -0.03240
 N102 N 0.39738 1.05261 -0.05235
 N103 N 0.45532 1.07253 0.03247
 N104 N 0.44578 1.10150 0.05248
 C105 C 0.40995 1.08818 0.06495
 C106 C 0.40995 1.08818 -0.06492
 N107 N 0.57310 1.04393 -0.03240
 N108 N 0.60263 1.05261 -0.05235
 N109 N 0.54469 1.07253 0.03247
 N110 N 0.55423 1.10150 0.05248
 N111 N 0.57310 1.04393 0.03243
 N112 N 0.60263 1.05261 0.05238
 N113 N 0.54469 1.07253 -0.03244
 N114 N 0.55423 1.10150 -0.05245
 Mn115 Mn 0.50001 1.07290 0.00002
 C116 C 0.59006 1.08818 -0.06492
 C117 C 0.59006 1.08818 0.06495
 N118 N 0.42691 0.95611 -0.03240
 N119 N 0.39738 0.94743 -0.05235
 N120 N 0.45532 0.92751 0.03247
 N121 N 0.44578 0.89854 0.05248
 N122 N 0.42691 0.95611 0.03243
 N123 N 0.39738 0.94743 0.05238
 N124 N 0.45532 0.92751 -0.03244
 N125 N 0.44578 0.89854 -0.05245
 Mn126 Mn 0.42667 1.00002 0.00002
 C127 C 0.40995 0.91186 -0.06492
 C128 C 0.40995 0.91186 0.06495
 N129 N 0.57310 0.95611 0.03243
 N130 N 0.60263 0.94743 0.05238
 N131 N 0.54469 0.92751 -0.03244
 N132 N 0.55423 0.89854 -0.05245
 N133 N 0.57310 0.95611 -0.03240
 N134 N 0.60263 0.94743 -0.05235
 N135 N 0.54469 0.92751 0.03247
 N136 N 0.55423 0.89854 0.05248
 Mn137 Mn 0.57334 1.00002 0.00002
 Mn138 Mn 0.50001 0.92713 0.00002
 Cl139 Cl 0.50001 1.00002 0.00002
 C140 C 0.59006 0.91186 0.06495
 C141 C 0.59006 0.91186 -0.06492
 N142 N 1.07350 0.54286 0.53350
 N143 N 1.10332 0.56860 0.54087
 N144 N 1.04463 0.45716 0.55487
 N145 N 1.05407 0.43140 0.57726
 N146 N 1.07350 0.45717 0.53350
 N147 N 1.10332 0.43143 0.54087
 N148 N 1.04463 0.54288 0.55487
 N149 N 1.05407 0.56864 0.57726
 C150 C 1.09026 0.58497 0.56787
 C151 C 1.09026 0.41506 0.56787
 N152 N 0.92652 0.45717 0.53350
 N153 N 0.89670 0.43143 0.54087
 N154 N 0.95538 0.54288 0.55487
 N155 N 0.94594 0.56864 0.57726
 N156 N 0.92652 0.54286 0.53350
 N157 N 0.89670 0.56860 0.54087
 N158 N 0.95538 0.45716 0.55487
 N159 N 0.94594 0.43140 0.57726
 Mn160 Mn 1.00001 0.50002 0.55507
 C161 C 0.90976 0.41506 0.56787
 C162 C 0.90976 0.58497 0.56787
 N163 N 1.07350 0.45717 0.46654
 N164 N 1.10332 0.43143 0.45917
 N165 N 1.04463 0.54288 0.44516
 N166 N 1.05407 0.56864 0.42277
 N167 N 1.07350 0.54286 0.46654
 N168 N 1.10332 0.56860 0.45917
 N169 N 1.04463 0.45716 0.44516
 N170 N 1.05407 0.43140 0.42277
 Mn171 Mn 1.07379 0.50002 0.50002
 C172 C 1.09026 0.41506 0.43217
 C173 C 1.09026 0.58497 0.43217
 N174 N 0.92652 0.54286 0.46654
 N175 N 0.89670 0.56860 0.45917
 N176 N 0.95538 0.45716 0.44516
 N177 N 0.94594 0.43140 0.42277
 N178 N 0.92652 0.45717 0.46654
 N179 N 0.89670 0.43143 0.45917
 N180 N 0.95538 0.54288 0.44516
 N181 N 0.94594 0.56864 0.42277
 Mn182 Mn 0.92623 0.50002 0.50002
 Mn183 Mn 1.00001 0.50002 0.44497
 Cl184 Cl 1.00001 0.50002 0.50002
 C185 C 0.90976 0.58497 0.43217
 C186 C 0.90976 0.41506 0.43217
 N187 N 1.07348 0.54296 0.03350
 N188 N 1.10196 0.57052 0.04005
 N189 N 1.04448 0.45713 0.05475
 N190 N 1.05237 0.42963 0.07624
 N191 N 1.07348 0.45708 0.03350
 N192 N 1.10196 0.42951 0.04005
 N193 N 1.04448 0.54290 0.05475
 N194 N 1.05237 0.57040 0.07624
 C195 C 1.08788 0.58774 0.06649
 C196 C 1.08788 0.41229 0.06649
 N197 N 0.92653 0.45708 0.03350
 N198 N 0.89805 0.42951 0.04005
 N199 N 0.95554 0.54290 0.05475
 N200 N 0.94765 0.57040 0.07624
 N201 N 0.92653 0.54296 0.03350
 N202 N 0.89805 0.57052 0.04005
 N203 N 0.95554 0.45713 0.05475
 N204 N 0.94765 0.42963 0.07624
 Mn205 Mn 1.00001 0.50002 0.05498
 C206 C 0.91213 0.41229 0.06649
 C207 C 0.91213 0.58774 0.06649
 N208 N 1.07348 0.45708 -0.03347
 N209 N 1.10196 0.42951 -0.04002
 N210 N 1.04448 0.54290 -0.05472
 N211 N 1.05237 0.57040 -0.07621
 N212 N 1.07348 0.54296 -0.03347
 N213 N 1.10196 0.57052 -0.04002
 N214 N 1.04448 0.45713 -0.05472
 N215 N 1.05237 0.42963 -0.07621
 Mn216 Mn 1.07392 0.50002 0.00002
 C217 C 1.08788 0.41229 -0.06646
 C218 C 1.08788 0.58774 -0.06646
 N219 N 0.92653 0.54296 -0.03347
 N220 N 0.89805 0.57052 -0.04002
 N221 N 0.95554 0.45713 -0.05472
 N222 N 0.94765 0.42963 -0.07621
 N223 N 0.92653 0.45708 -0.03347
 N224 N 0.89805 0.42951 -0.04002
 N225 N 0.95554 0.54290 -0.05472
 N226 N 0.94765 0.57040 -0.07621
 Mn227 Mn 0.92609 0.50002 0.00002
 Mn228 Mn 1.00001 0.50002 -0.05495
 Cl229 Cl 1.00001 0.50002 0.00002
 C230 C 0.91213 0.58774 -0.06646
 C231 C 0.91213 0.41229 -0.06646
 N232 N 0.45661 0.95582 0.55499
 N233 N 0.43113 0.94597 0.57766
 N234 N 0.54338 0.92735 0.53355
 N235 N 0.56883 0.89748 0.54118
 N236 N 0.54340 0.95582 0.55499
 N237 N 0.56888 0.94597 0.57766
 N238 N 0.45663 0.92735 0.53355
 N239 N 0.43118 0.89748 0.54118
 C240 C 0.41492 0.91001 0.56838
 C241 C 0.58510 0.91001 0.56838
 N242 N 0.54340 0.95582 0.44505
 N243 N 0.56888 0.94597 0.42238
 N244 N 0.45663 0.92735 0.46648
 N245 N 0.43118 0.89748 0.45886
 N246 N 0.45661 0.95582 0.44505
 N247 N 0.43113 0.94597 0.42238
 N248 N 0.54338 0.92735 0.46648
 N249 N 0.56883 0.89748 0.45886
 Mn250 Mn 0.50001 0.92713 0.50002
 C251 C 0.58510 0.91001 0.43166
 C252 C 0.41492 0.91001 0.43166
 N253 N 0.54340 1.04422 0.55499
 N254 N 0.56888 1.05406 0.57766
 N255 N 0.45663 1.07269 0.53355
 N256 N 0.43118 1.10256 0.54118
 N257 N 0.45661 1.04422 0.55499
 N258 N 0.43113 1.05406 0.57766
 N259 N 0.54338 1.07269 0.53355
 N260 N 0.56883 1.10256 0.54118
 Mn261 Mn 0.50001 1.00002 0.55515
 C262 C 0.58510 1.09003 0.56838
 C263 C 0.41492 1.09003 0.56838
 N264 N 0.45661 1.04422 0.44505
 N265 N 0.43113 1.05406 0.42238
 N266 N 0.54338 1.07269 0.46648
 N267 N 0.56883 1.10256 0.45886
 N268 N 0.54340 1.04422 0.44505
 N269 N 0.56888 1.05406 0.42238
 N270 N 0.45663 1.07269 0.46648
 N271 N 0.43118 1.10256 0.45886
 Mn272 Mn 0.50001 1.00002 0.44489
 Mn273 Mn 0.50001 1.07291 0.50002
 Cl274 Cl 0.50001 1.00002 0.50002
 C275 C 0.41492 1.09003 0.43166
 C276 C 0.58510 1.09003 0.43166
 N277 N 1.07296 1.04379 0.46754
 N278 N 1.09850 1.04892 0.44409
 N279 N 1.04430 1.07208 0.53249
 N280 N 1.04946 1.09732 0.55593
 N281 N 1.07296 1.04379 0.53249
 N282 N 1.09850 1.04892 0.55594
 N283 N 1.04430 1.07208 0.46754
 N284 N 1.04946 1.09732 0.44410
 C285 C 1.08326 1.08230 0.42980
 C286 C 1.08326 1.08230 0.57024
 N287 N 0.92705 1.04379 0.53249
 N288 N 0.90151 1.04892 0.55594
 N289 N 0.95571 1.07208 0.46754
 N290 N 0.95055 1.09732 0.44410
 N291 N 0.92705 1.04379 0.46754
 N292 N 0.90151 1.04892 0.44409
 N293 N 0.95571 1.07208 0.53249
 N294 N 0.95055 1.09732 0.55593
 Mn295 Mn 1.00001 1.07260 0.50002
 C296 C 0.91676 1.08230 0.57024
 C297 C 0.91676 1.08230 0.42980
 N298 N 1.07296 0.95625 0.53249
 N299 N 1.09850 0.95112 0.55594
 N300 N 1.04430 0.92795 0.46754
 N301 N 1.04946 0.90271 0.44410
 N302 N 1.07296 0.95625 0.46754
 N303 N 1.09850 0.95112 0.44409
 N304 N 1.04430 0.92795 0.53249
 N305 N 1.04946 0.90271 0.55593
 Mn306 Mn 1.07349 1.00002 0.50002
 C307 C 1.08326 0.91774 0.57024
 C308 C 1.08326 0.91774 0.42980
 N309 N 0.92705 0.95625 0.46754
 N310 N 0.90151 0.95112 0.44409
 N311 N 0.95571 0.92795 0.53249
 N312 N 0.95055 0.90271 0.55593
 N313 N 0.92705 0.95625 0.53249
 N314 N 0.90151 0.95112 0.55594
 N315 N 0.95571 0.92795 0.46754
 N316 N 0.95055 0.90271 0.44410
 Mn317 Mn 0.92652 1.00002 0.50002
 Mn318 Mn 1.00001 0.92743 0.50002
 Cl319 Cl 1.00001 1.00002 0.50002
 C320 C 0.91676 0.91774 0.42980
 C321 C 0.91676 0.91774 0.57024
 N322 N 0.57384 0.54277 0.03365
 N323 N 0.60398 0.56747 0.04236
 N324 N 0.54414 0.45727 0.05436
 N325 N 0.55303 0.43249 0.07737
 N326 N 0.57384 0.45727 0.03365
 N327 N 0.60398 0.43257 0.04236
 N328 N 0.54414 0.54277 0.05436
 N329 N 0.55303 0.56755 0.07737
 C330 C 0.58983 0.58333 0.06928
 C331 C 0.58983 0.41671 0.06928
 N332 N 0.42617 0.45727 0.03365
 N333 N 0.39603 0.43257 0.04236
 N334 N 0.45587 0.54277 0.05436
 N335 N 0.44699 0.56755 0.07737
 N336 N 0.42617 0.54277 0.03365
 N337 N 0.39603 0.56747 0.04236
 N338 N 0.45587 0.45727 0.05436
 N339 N 0.44699 0.43249 0.07737
 Mn340 Mn 0.50001 0.50002 0.05441
 C341 C 0.41018 0.41671 0.06928
 C342 C 0.41018 0.58333 0.06928
 N343 N 0.57384 0.45727 -0.03362
 N344 N 0.60398 0.43257 -0.04232
 N345 N 0.54414 0.54277 -0.05433
 N346 N 0.55303 0.56755 -0.07734
 N347 N 0.57384 0.54277 -0.03362
 N348 N 0.60398 0.56747 -0.04232
 N349 N 0.54414 0.45727 -0.05433
 N350 N 0.55303 0.43249 -0.07734
 Mn351 Mn 0.57429 0.50002 0.00002
 C352 C 0.58983 0.41671 -0.06925
 C353 C 0.58983 0.58333 -0.06925
 N354 N 0.42617 0.54277 -0.03362
 N355 N 0.39603 0.56747 -0.04232
 N356 N 0.45587 0.45727 -0.05433
 N357 N 0.44699 0.43249 -0.07734
 N358 N 0.42617 0.45727 -0.03362
 N359 N 0.39603 0.43257 -0.04232
 N360 N 0.45587 0.54277 -0.05433
 N361 N 0.44699 0.56755 -0.07734
 Mn362 Mn 0.42572 0.50002 0.00002
 Mn363 Mn 0.50001 0.50002 -0.05438
 Cl364 Cl 0.50001 0.50002 0.00002
 C365 C 0.41018 0.58333 -0.06925
 C366 C 0.41018 0.41671 -0.06925
 C367 C 0.27898 1.20590 0.18895
 C368 C 0.29618 1.18917 0.16778
 C369 C 0.31882 1.16896 0.14455
 C370 C 0.33946 1.15119 0.12571
 C371 C 0.36439 1.12983 0.10444
 C372 C 0.38558 1.11108 0.08650
 C373 C 0.78596 0.71150 0.69102
 C374 C 0.80183 0.69458 0.66927
 C375 C 0.82245 0.67376 0.64516
 C376 C 0.84133 0.65507 0.62571
 C377 C 0.86457 0.63200 0.60423
 C378 C 0.88501 0.61121 0.58701
 C379 C 0.72103 0.79413 0.18895
 C380 C 0.70383 0.81087 0.16778
 C381 C 0.68119 0.83108 0.14455
 C382 C 0.66055 0.84884 0.12571
 C383 C 0.63563 0.87021 0.10444
 C384 C 0.61443 0.88895 0.08650
 C385 C 1.21405 0.28854 0.69102
 C386 C 1.19819 0.30545 0.66927
 C387 C 1.17757 0.32627 0.64516
 C388 C 1.15869 0.34497 0.62571
 C389 C 1.13545 0.36804 0.60423
 C390 C 1.11501 0.38882 0.58701
 C391 C 0.72103 1.20590 -0.18892
 C392 C 0.70383 1.18917 -0.16775
 C393 C 0.68119 1.16896 -0.14451
 C394 C 0.66055 1.15119 -0.12567
 C395 C 0.63563 1.12983 -0.10441
 C396 C 0.61443 1.11108 -0.08647
 C397 C 1.21405 0.71150 0.30901
 C398 C 1.19819 0.69458 0.33076
 C399 C 1.17757 0.67376 0.35488
 C400 C 1.15869 0.65507 0.37433
 C401 C 1.13545 0.63200 0.39580
 C402 C 1.11501 0.61121 0.41302
 C403 C 0.27898 0.79413 -0.18892
 C404 C 0.29618 0.81087 -0.16775
 C405 C 0.31882 0.83108 -0.14451
 C406 C 0.33946 0.84884 -0.12567
 C407 C 0.36439 0.87021 -0.10441
 C408 C 0.38558 0.88895 -0.08647
 C409 C 0.78596 0.28854 0.30901
 C410 C 0.80183 0.30545 0.33076
 C411 C 0.82245 0.32627 0.35488
 C412 C 0.84133 0.34497 0.37433
 C413 C 0.86457 0.36804 0.39580
 C414 C 0.88501 0.38882 0.41302
 C415 C 1.20391 0.27755 0.18828
 C416 C 1.18730 0.29337 0.16637
 C417 C 1.16741 0.31460 0.14212
 C418 C 1.14999 0.33464 0.12267
 C419 C 1.12902 0.36007 0.10142
 C420 C 1.11058 0.38320 0.08467
 C421 C 0.71116 0.78362 0.69091
 C422 C 0.69392 0.79971 0.66935
 C423 C 0.67291 0.82087 0.64551
 C424 C 0.65424 0.84027 0.62629
 C425 C 0.63139 0.86411 0.60498
 C426 C 0.61091 0.88495 0.58776
 C427 C 1.20391 0.72249 -0.18824
 C428 C 1.18730 0.70666 -0.16634
 C429 C 1.16741 0.68544 -0.14208
 C430 C 1.14999 0.66540 -0.12264
 C431 C 1.12902 0.63997 -0.10139
 C432 C 1.11058 0.61683 -0.08464
 C433 C 0.71116 1.21641 0.30912
 C434 C 0.69392 1.20033 0.33069
 C435 C 0.67291 1.17917 0.35453
 C436 C 0.65424 1.15976 0.37374
 C437 C 0.63139 1.13592 0.39506
 C438 C 0.61091 1.11508 0.41227
 C439 C 0.79610 0.72249 0.18828
 C440 C 0.81271 0.70666 0.16637
 C441 C 0.83261 0.68544 0.14212
 C442 C 0.85002 0.66540 0.12267
 C443 C 0.87099 0.63997 0.10142
 C444 C 0.88943 0.61684 0.08467
 C445 C 0.28885 1.21641 0.69091
 C446 C 0.30610 1.20033 0.66935
 C447 C 0.32711 1.17917 0.64551
 C448 C 0.34577 1.15976 0.62629
 C449 C 0.36863 1.13592 0.60498
 C450 C 0.38910 1.11508 0.58776
 C451 C 0.79610 0.27755 -0.18824
 C452 C 0.81271 0.29337 -0.16634
 C453 C 0.83261 0.31460 -0.14208
 C454 C 0.85002 0.33464 -0.12264
 C455 C 0.87099 0.36007 -0.10139
 C456 C 0.88943 0.38320 -0.08464
 C457 C 0.28885 0.78362 0.30912
 C458 C 0.30610 0.79971 0.33069
 C459 C 0.32711 0.82087 0.35453
 C460 C 0.34577 0.84027 0.37374
 C461 C 0.36863 0.86411 0.39506
 C462 C 0.38910 0.88495 0.41227
 C463 C 1.19412 1.19414 0.29326
 C464 C 1.17525 1.17492 0.31219
 C465 C 1.15418 1.15348 0.33544
 C466 C 1.13694 1.13600 0.35616
 C467 C 1.11762 1.11653 0.38121
 C468 C 1.10169 1.10058 0.40318
 C469 C 0.70255 0.70036 -0.20291
 C470 C 0.68558 0.68245 -0.18221
 C471 C 0.66697 0.66259 -0.15691
 C472 C 0.65117 0.64579 -0.13517
 C473 C 0.63186 0.62557 -0.11032
 C474 C 0.61382 0.60714 -0.09040
 C475 C 0.80589 1.19414 0.70678
 C476 C 0.82476 1.17492 0.68784
 C477 C 0.84584 1.15348 0.66459
 C478 C 0.86307 1.13600 0.64388
 C479 C 0.88239 1.11653 0.61882
 C480 C 0.89833 1.10058 0.59685
 C481 C 0.29746 0.70036 0.20295
 C482 C 0.31443 0.68245 0.18224
 C483 C 0.33304 0.66259 0.15694
 C484 C 0.34884 0.64579 0.13521
 C485 C 0.36815 0.62557 0.11036
 C486 C 0.38619 0.60714 0.09043
 C487 C 1.19412 0.80589 0.70678
 C488 C 1.17525 0.82512 0.68784
 C489 C 1.15418 0.84656 0.66459
 C490 C 1.13694 0.86403 0.64388
 C491 C 1.11762 0.88351 0.61882
 C492 C 1.10169 0.89946 0.59685
 C493 C 0.70255 0.29968 0.20295
 C494 C 0.68558 0.31758 0.18224
 C495 C 0.66697 0.33744 0.15694
 C496 C 0.65117 0.35424 0.13521
 C497 C 0.63186 0.37447 0.11036
 C498 C 0.61382 0.39290 0.09043
 C499 C 0.80589 0.80589 0.29326
 C500 C 0.82476 0.82512 0.31219
 C501 C 0.84584 0.84656 0.33544
 C502 C 0.86307 0.86403 0.35616
 C503 C 0.88239 0.88351 0.38121
 C504 C 0.89833 0.89946 0.40318
 C505 C 0.29746 0.29968 -0.20291
 C506 C 0.31443 0.31758 -0.18221
 C507 C 0.33304 0.33744 -0.15691
 C508 C 0.34884 0.35424 -0.13517
 C509 C 0.36815 0.37447 -0.11032
 C510 C 0.38619 0.39290 -0.09040
 C511 C 1.20391 0.27755 -0.18824
 C512 C 1.18730 0.29337 -0.16634
 C513 C 1.16741 0.31460 -0.14208
 C514 C 1.14999 0.33464 -0.12264
 C515 C 1.12902 0.36007 -0.10139
 C516 C 1.11058 0.38320 -0.08464
 C517 C 0.71116 0.78362 0.30912
 C518 C 0.69392 0.79971 0.33069
 C519 C 0.67291 0.82087 0.35453
 C520 C 0.65424 0.84027 0.37374
 C521 C 0.63139 0.86411 0.39506
 C522 C 0.61091 0.88495 0.41227
 C523 C 0.79610 0.72249 -0.18824
 C524 C 0.81271 0.70666 -0.16634
 C525 C 0.83261 0.68544 -0.14208
 C526 C 0.85002 0.66540 -0.12264
 C527 C 0.87099 0.63997 -0.10139
 C528 C 0.88943 0.61684 -0.08464
 C529 C 0.28885 1.21641 0.30912
 C530 C 0.30610 1.20033 0.33069
 C531 C 0.32711 1.17917 0.35453
 C532 C 0.34577 1.15976 0.37374
 C533 C 0.36863 1.13592 0.39506
 C534 C 0.38910 1.11508 0.41227
 C535 C 1.20391 0.72249 0.18828
 C536 C 1.18730 0.70666 0.16637
 C537 C 1.16741 0.68544 0.14212
 C538 C 1.14999 0.66540 0.12267
 C539 C 1.12902 0.63997 0.10142
 C540 C 1.11058 0.61684 0.08467
 C541 C 0.71116 1.21641 0.69091
 C542 C 0.69392 1.20033 0.66935
 C543 C 0.67291 1.17917 0.64551
 C544 C 0.65424 1.15976 0.62629
 C545 C 0.63139 1.13592 0.60498
 C546 C 0.61091 1.11508 0.58776
 C547 C 0.79610 0.27755 0.18828
 C548 C 0.81271 0.29337 0.16637
 C549 C 0.83261 0.31460 0.14212
 C550 C 0.85002 0.33464 0.12267
 C551 C 0.87099 0.36007 0.10142
 C552 C 0.88943 0.38320 0.08467
 C553 C 0.28885 0.78362 0.69091
 C554 C 0.30610 0.79971 0.66935
 C555 C 0.32711 0.82087 0.64551
 C556 C 0.34577 0.84027 0.62629
 C557 C 0.36863 0.86411 0.60498
 C558 C 0.38910 0.88495 0.58776
 C559 C 0.27898 1.20590 -0.18892
 C560 C 0.29618 1.18917 -0.16775
 C561 C 0.31882 1.16896 -0.14451
 C562 C 0.33946 1.15119 -0.12567
 C563 C 0.36439 1.12983 -0.10441
 C564 C 0.38558 1.11108 -0.08647
 C565 C 0.78596 0.71150 0.30901
 C566 C 0.80183 0.69458 0.33076
 C567 C 0.82245 0.67376 0.35488
 C568 C 0.84133 0.65507 0.37433
 C569 C 0.86457 0.63200 0.39580
 C570 C 0.88501 0.61121 0.41302
 C571 C 0.72103 1.20590 0.18895
 C572 C 0.70383 1.18917 0.16778
 C573 C 0.68119 1.16896 0.14455
 C574 C 0.66055 1.15119 0.12571
 C575 C 0.63563 1.12983 0.10444
 C576 C 0.61443 1.11108 0.08650
 C577 C 1.21405 0.71150 0.69102
 C578 C 1.19819 0.69458 0.66927
 C579 C 1.17757 0.67376 0.64516
 C580 C 1.15869 0.65507 0.62571
 C581 C 1.13545 0.63200 0.60423
 C582 C 1.11501 0.61121 0.58701
 C583 C 0.72103 0.79413 -0.18892
 C584 C 0.70383 0.81087 -0.16775
 C585 C 0.68119 0.83108 -0.14451
 C586 C 0.66055 0.84884 -0.12567
 C587 C 0.63563 0.87021 -0.10441
 C588 C 0.61443 0.88895 -0.08647
 C589 C 1.21405 0.28854 0.30901
 C590 C 1.19819 0.30545 0.33076
 C591 C 1.17757 0.32627 0.35488
 C592 C 1.15869 0.34497 0.37433
 C593 C 1.13545 0.36804 0.39580
 C594 C 1.11501 0.38882 0.41302
 C595 C 0.27898 0.79413 0.18895
 C596 C 0.29618 0.81087 0.16778
 C597 C 0.31882 0.83108 0.14455
 C598 C 0.33946 0.84884 0.12571
 C599 C 0.36439 0.87021 0.10444
 C600 C 0.38558 0.88895 0.08650
 C601 C 0.78596 0.28854 0.69102
 C602 C 0.80183 0.30545 0.66927
 C603 C 0.82245 0.32627 0.64516
 C604 C 0.84133 0.34497 0.62571
 C605 C 0.86457 0.36804 0.60423
 C606 C 0.88501 0.38882 0.58701
 C607 C 1.19412 1.19414 0.70678
 C608 C 1.17525 1.17492 0.68784
 C609 C 1.15418 1.15348 0.66459
 C610 C 1.13694 1.13600 0.64388
 C611 C 1.11762 1.11653 0.61882
 C612 C 1.10169 1.10058 0.59685
 C613 C 0.70255 0.70036 0.20295
 C614 C 0.68558 0.68245 0.18224
 C615 C 0.66697 0.66259 0.15694
 C616 C 0.65117 0.64579 0.13521
 C617 C 0.63186 0.62557 0.11036
 C618 C 0.61382 0.60714 0.09043
 C619 C 1.19412 0.80589 0.29326
 C620 C 1.17525 0.82512 0.31219
 C621 C 1.15418 0.84656 0.33544
 C622 C 1.13694 0.86403 0.35616
 C623 C 1.11762 0.88351 0.38121
 C624 C 1.10169 0.89946 0.40318
 C625 C 0.70255 0.29968 -0.20291
 C626 C 0.68558 0.31758 -0.18221
 C627 C 0.66697 0.33744 -0.15691
 C628 C 0.65117 0.35424 -0.13517
 C629 C 0.63186 0.37447 -0.11032
 C630 C 0.61382 0.39290 -0.09040
 C631 C 0.80589 1.19414 0.29326
 C632 C 0.82476 1.17492 0.31219
 C633 C 0.84584 1.15348 0.33544
 C634 C 0.86307 1.13600 0.35616
 C635 C 0.88239 1.11653 0.38121
 C636 C 0.89833 1.10058 0.40318
 C637 C 0.29746 0.70036 -0.20291
 C638 C 0.31443 0.68245 -0.18221
 C639 C 0.33304 0.66259 -0.15691
 C640 C 0.34884 0.64579 -0.13517
 C641 C 0.36815 0.62557 -0.11032
 C642 C 0.38619 0.60714 -0.09040
 C643 C 0.80589 0.80589 0.70678
 C644 C 0.82476 0.82512 0.68784
 C645 C 0.84584 0.84656 0.66459
 C646 C 0.86307 0.86403 0.64388
 C647 C 0.88239 0.88351 0.61882
 C648 C 0.89833 0.89946 0.59685
 C649 C 0.29746 0.29968 0.20295
 C650 C 0.31443 0.31758 0.18224
 C651 C 0.33304 0.33744 0.15694
 C652 C 0.34884 0.35424 0.13521
 C653 C 0.36815 0.37447 0.11036
 C654 C 0.38619 0.39290 0.09043
   
