data_POSCAR
  _audit_creation_date              2014-09-24
  _audit_creation_method            'ToBaCCo'
  _symmetry_space_group_name_H-M    'P1'
  _symmetry_Int_Tables_number       1
  _symmetry_cell_setting            triclinic
  loop_
  _symmetry_equiv_pos_as_xyz
 x,y,z
_cell_length_a 42.2908
_cell_length_b 22.3997
_cell_length_c 16.3788
_cell_angle_alpha 90.129200
_cell_angle_beta 89.981100
_cell_angle_gamma 90.096200
loop_
  _atom_site_label
  _atom_site_type_symbol
  _atom_site_fract_x
  _atom_site_fract_y
  _atom_site_fract_z
O1 O 0.73334 0.31609 0.57168
 O2 O 0.78305 0.24927 0.41409
 O3 O 0.72680 0.29960 0.41581
 O4 O 0.78491 0.25358 0.57235
 O5 O 0.75929 0.16828 0.58636
 O6 O 0.70257 0.21303 0.43082
 O7 O 0.75870 0.16286 0.42758
 O8 O 0.70786 0.23080 0.58669
 Cu9 Cu 0.75957 0.28801 0.49147
 Cu10 Cu 0.72961 0.18524 0.50882
 C11 C 0.71210 0.28531 0.60635
 C12 C 0.78026 0.19468 0.39482
 C13 C 0.70415 0.26421 0.39841
 C14 C 0.78166 0.20291 0.60652
 O15 O 0.21716 0.76344 0.42120
 O16 O 0.27376 0.71601 0.57950
 O17 O 0.21739 0.76384 0.57997
 O18 O 0.27436 0.71740 0.42146
 O19 O 0.29558 0.80749 0.42313
 O20 O 0.23926 0.85333 0.58240
 O21 O 0.29558 0.80543 0.57859
 O22 O 0.23862 0.85327 0.42148
 Cu23 Cu 0.24343 0.73131 0.50026
 Cu24 Cu 0.26902 0.83923 0.50143
 C25 C 0.21812 0.81659 0.39452
 C26 C 0.29501 0.75194 0.60446
 C27 C 0.21873 0.81657 0.60853
 C28 C 0.29536 0.75403 0.39725
 O29 O 0.26254 0.31773 -0.57910
 O30 O 0.21086 0.25124 -0.42313
 O31 O 0.26191 0.31524 -0.41999
 O32 O 0.21105 0.25301 -0.58122
 O33 O 0.23990 0.17126 -0.58492
 O34 O 0.29018 0.23254 -0.42187
 O35 O 0.23895 0.16840 -0.42595
 O36 O 0.29157 0.23616 -0.57945
 Cu37 Cu 0.23372 0.29255 -0.50100
 Cu38 Cu 0.26800 0.19379 -0.50358
 C39 C 0.28638 0.28883 -0.60496
 C40 C 0.21593 0.19852 -0.39795
 C41 C 0.28482 0.28433 -0.39337
 C42 C 0.21638 0.20127 -0.61011
 O43 O -0.26250 0.65234 -0.58277
 O44 O -0.20556 0.69871 -0.42486
 O45 O -0.26223 0.65290 -0.42187
 O46 O -0.20551 0.69815 -0.57983
 O47 O -0.22633 0.78849 -0.58093
 O48 O -0.28449 0.74170 -0.42534
 O49 O -0.22696 0.78847 -0.42308
 O50 O -0.28330 0.74258 -0.58353
 Cu51 Cu -0.23229 0.66610 -0.50237
 Cu52 Cu -0.25746 0.77426 -0.50298
 C53 C -0.28255 0.68938 -0.61039
 C54 C -0.20583 0.75219 -0.39900
 C55 C -0.28333 0.68897 -0.39696
 C56 C -0.20545 0.75168 -0.60509
 O57 O -0.04915 0.90148 0.14385
 O58 O -0.08230 0.95897 0.06593
 C59 C -0.07717 0.91908 0.12161
 O60 O 0.04350 1.11047 0.14344
 O61 O 0.07803 1.05065 0.07284
 C62 C 0.07181 1.09321 0.12431
 O63 O -0.04507 1.10955 0.14879
 O64 O -0.08050 1.05710 0.07022
 C65 C -0.07366 1.09513 0.12738
 O66 O 0.03976 0.89087 0.14206
 O67 O 0.07614 0.94661 0.07140
 C68 C 0.06868 0.90571 0.12406
 Zr69 Zr -0.00369 0.92716 0.10077
 O70 O -0.00191 0.92234 0.22970
 O71 O -0.00665 0.83332 0.08965
 Zr72 Zr -0.00093 1.07797 0.10507
 O73 O 0.00197 1.07331 0.23401
 O74 O -0.00285 1.17225 0.11180
 O75 O -0.03056 1.00425 0.11808
 O76 O 0.02511 1.00073 0.11905
 O77 O 0.04096 0.89292 -0.14249
 O78 O 0.07675 0.94797 -0.06846
 C79 C 0.06969 0.90733 -0.12220
 O80 O -0.04223 1.11344 -0.14761
 O81 O -0.07891 1.06099 -0.07366
 C82 C -0.07112 1.10004 -0.12872
 O83 O 0.04551 1.11223 -0.13568
 O84 O 0.07912 1.05077 -0.06516
 C85 C 0.07354 1.09400 -0.11580
 O86 O -0.04769 0.90426 -0.15184
 O87 O -0.08148 0.96159 -0.07517
 C88 C -0.07586 0.92250 -0.13178
 Zr89 Zr -0.00272 0.92970 -0.10467
 O90 O 0.00129 0.93190 -0.23352
 O91 O -0.00742 0.83565 -0.10722
 Zr92 Zr 0.00056 1.08036 -0.10065
 O93 O 0.00494 1.08048 -0.22946
 O94 O -0.00112 1.17485 -0.09918
 Zr95 Zr -0.04873 1.00736 -0.00166
 Zr96 Zr 0.04563 1.00077 0.00196
 O97 O 0.02649 1.00331 -0.11668
 O98 O -0.02918 1.00731 -0.11998
 O99 O 0.02500 0.91504 -0.00116
 O100 O -0.02744 1.09220 0.00137
 O101 O -0.03102 0.91961 -0.00310
 O102 O 0.02827 1.08902 0.00360
 H103 H 0.03907 0.99971 0.16760
 H104 H -0.04098 1.12826 0.00188
 H105 H 0.04094 1.00305 -0.16432
 H106 H -0.04599 0.88555 -0.00465
 H107 H 0.01292 1.18802 0.07282
 H108 H 0.01650 1.18920 -0.06458
 H109 H -0.01331 1.05823 -0.25197
 H110 H -0.01650 0.95595 -0.25466
 H111 H 0.00665 0.81961 -0.06432
 H112 H -0.00752 0.81765 0.14614
 H113 H -0.01723 0.95176 0.25111
 H114 H -0.01770 1.05437 0.25401
 O115 O 0.45854 0.39645 0.15081
 O116 O 0.42135 0.44560 0.07430
 C117 C 0.42952 0.40827 0.13109
 O118 O 0.54030 0.61841 0.13381
 O119 O 0.57630 0.56383 0.06010
 C120 C 0.56910 0.60452 0.11347
 O121 O 0.45139 0.60499 0.14205
 O122 O 0.41790 0.54501 0.06805
 C123 C 0.42330 0.58581 0.12257
 O124 O 0.54712 0.40207 0.13949
 O125 O 0.57956 0.46241 0.06348
 C126 C 0.57492 0.42124 0.11760
 Zr127 Zr 0.50134 0.42978 0.10213
 O128 O 0.50512 0.43167 0.23101
 O129 O 0.50296 0.33550 0.09938
 Zr130 Zr 0.49662 0.58029 0.09626
 O131 O 0.50029 0.58418 0.22506
 O132 O 0.49064 0.67406 0.09115
 O133 O 0.47085 0.50227 0.11654
 O134 O 0.52640 0.50832 0.11299
 O135 O 0.54412 0.39125 -0.13755
 O136 O 0.57831 0.45532 -0.07284
 C137 C 0.57230 0.40985 -0.11990
 O138 O 0.45036 0.59982 -0.15353
 O139 O 0.41754 0.54223 -0.07431
 C140 C 0.42252 0.58123 -0.13143
 O141 O 0.53886 0.61333 -0.15149
 O142 O 0.57552 0.56062 -0.07791
 C143 C 0.56784 0.60010 -0.13214
 O144 O 0.45681 0.38905 -0.14457
 O145 O 0.42042 0.44166 -0.06985
 C146 C 0.42801 0.40165 -0.12395
 Zr147 Zr 0.49985 0.42538 -0.10340
 O148 O 0.50284 0.42707 -0.23250
 O149 O 0.49962 0.33097 -0.10464
 Zr150 Zr 0.49569 0.57558 -0.10951
 O151 O 0.49824 0.57114 -0.23849
 O152 O 0.48980 0.66934 -0.11391
 Zr153 Zr 0.45110 0.49740 -0.00156
 Zr154 Zr 0.54550 0.50765 -0.00577
 O155 O 0.52531 0.50276 -0.12285
 O156 O 0.46935 0.49704 -0.12138
 O157 O 0.52905 0.41896 -0.00135
 O158 O 0.46831 0.58567 -0.00590
 O159 O 0.47337 0.41361 0.00117
 O160 O 0.52413 0.59266 -0.00813
 H161 H 0.54067 0.51062 0.16085
 H162 H 0.45310 0.61927 -0.00656
 H163 H 0.53958 0.50250 -0.17085
 H164 H 0.46037 0.37680 0.00328
 H165 H 0.50871 0.69074 0.06033
 H166 H 0.50645 0.68737 -0.07933
 H167 H 0.48037 0.54622 -0.25755
 H168 H 0.48260 0.44290 -0.25359
 H169 H 0.51032 0.31787 -0.05408
 H170 H 0.50433 0.32242 0.15704
 H171 H 0.48750 0.45631 0.25193
 H172 H 0.48360 0.55808 0.24781
 C173 C 0.30126 0.37261 0.30699
 C174 C 0.30751 0.31567 0.33978
 C175 C 0.33612 0.28721 0.31898
 C176 C 0.35853 0.31596 0.26960
 C177 C 0.35200 0.37315 0.23753
 C178 C 0.32312 0.40073 0.25577
 C179 C 0.37480 0.40238 0.18962
 C180 C 0.40448 0.37610 0.17602
 C181 C 0.41067 0.31919 0.20816
 C182 C 0.38779 0.28909 0.25371
 H183 H 0.34163 0.24355 0.34363
 H184 H 0.31773 0.44463 0.23188
 H185 H 0.36992 0.44629 0.16552
 H186 H 0.39323 0.24530 0.27789
 H187 H 0.27949 0.39583 0.32121
 H188 H 0.43329 0.29783 0.19794
 C189 C -0.14997 0.74388 0.34536
 C190 C -0.17961 0.77198 0.34108
 C191 C -0.18343 0.82185 0.29020
 C192 C -0.15769 0.84410 0.24531
 C193 C -0.12764 0.81707 0.25300
 C194 C -0.12415 0.76648 0.30224
 C195 C -0.10149 0.84147 0.21222
 C196 C -0.10501 0.89186 0.16206
 C197 C -0.13536 0.91631 0.15130
 C198 C -0.16135 0.89330 0.19353
 H199 H -0.20626 0.84357 0.28619
 H200 H -0.10136 0.74491 0.30837
 H201 H -0.07841 0.82121 0.21976
 H202 H -0.18427 0.91405 0.18576
 H203 H -0.14642 0.70565 0.38468
 H204 H -0.13902 0.95381 0.11093
 C205 C 0.69975 0.61808 0.28078
 C206 C 0.69432 0.66998 0.32706
 C207 C 0.66601 0.70183 0.31556
 C208 C 0.64293 0.68088 0.26083
 C209 C 0.64861 0.62845 0.21505
 C210 C 0.67725 0.59782 0.22469
 C211 C 0.62509 0.60621 0.16275
 C212 C 0.59533 0.63399 0.15812
 C213 C 0.59011 0.68668 0.20293
 C214 C 0.61383 0.71031 0.25306
 H215 H 0.66141 0.74163 0.35141
 H216 H 0.68193 0.55740 0.19030
 H217 H 0.62945 0.56560 0.12875
 H218 H 0.60905 0.75057 0.28769
 H219 H 0.72140 0.59291 0.28828
 H220 H 0.56746 0.70907 0.20036
 C221 C 0.20079 1.11925 0.29909
 C222 C 0.19559 1.17665 0.33190
 C223 C 0.16814 1.20787 0.30875
 C224 C 0.14554 1.18116 0.25791
 C225 C 0.15062 1.12296 0.22715
 C226 C 0.17862 1.09292 0.24684
 C227 C 0.12711 1.09514 0.17975
 C228 C 0.09825 1.12426 0.16516
 C229 C 0.09386 1.18267 0.19451
 C230 C 0.11738 1.21106 0.23984
 H231 H 0.16358 1.25219 0.33280
 H232 H 0.18301 1.04846 0.22357
 H233 H 0.13067 1.05003 0.15761
 H234 H 0.11315 1.25578 0.26270
 H235 H 0.22173 1.09400 0.31487
 H236 H 0.07196 1.20627 0.18322
 C237 C 0.69768 0.37295 -0.30619
 C238 C 0.69168 0.31396 -0.33170
 C239 C 0.66510 0.28391 -0.30096
 C240 C 0.64384 0.31339 -0.24909
 C241 C 0.64950 0.37337 -0.22590
 C242 C 0.67688 0.40222 -0.25340
 C243 C 0.62701 0.40414 -0.17872
 C244 C 0.59855 0.37606 -0.15698
 C245 C 0.59383 0.31570 -0.17769
 C246 C 0.61634 0.28453 -0.22277
 H247 H 0.66022 0.23842 -0.31995
 H248 H 0.68178 0.44792 -0.23600
 H249 H 0.63082 0.45060 -0.16309
 H250 H 0.61172 0.23849 -0.23943
 H251 H 0.71817 0.39702 -0.32835
 H252 H 0.57224 0.29285 -0.16053
 C253 C 0.20252 0.88446 -0.27723
 C254 C 0.19573 0.83582 -0.32872
 C255 C 0.16625 0.80716 -0.32217
 C256 C 0.14326 0.82861 -0.26773
 C257 C 0.15012 0.87815 -0.21711
 C258 C 0.18009 0.90486 -0.22105
 C259 C 0.12656 0.90151 -0.16575
 C260 C 0.09582 0.87733 -0.16648
 C261 C 0.08961 0.82694 -0.21540
 C262 C 0.11315 0.80254 -0.26501
 H263 H 0.16071 0.76977 -0.36183
 H264 H 0.18593 0.94232 -0.18193
 H265 H 0.13179 0.94013 -0.12814
 H266 H 0.10751 0.76438 -0.30312
 H267 H 0.22521 0.90684 -0.28058
 H268 H 0.06627 0.80698 -0.21669
 C269 C 0.34509 0.76829 -0.32425
 C270 C 0.31871 0.73189 -0.34194
 C271 C 0.31762 0.67382 -0.30887
 C272 C 0.34278 0.65196 -0.26171
 C273 C 0.36978 0.68793 -0.24839
 C274 C 0.37046 0.74631 -0.27877
 C275 C 0.39577 0.66470 -0.20563
 C276 C 0.39477 0.60646 -0.17396
 C277 C 0.36723 0.57219 -0.18423
 C278 C 0.34161 0.59435 -0.22857
 H279 H 0.29741 0.64518 -0.32053
 H280 H 0.39081 0.77477 -0.26830
 H281 H 0.41670 0.69196 -0.19673
 H282 H 0.32099 0.56628 -0.23734
 H283 H 0.34680 0.81323 -0.34814
 H284 H 0.36582 0.52765 -0.15962
 C285 C -0.20380 1.13644 -0.27739
 C286 C -0.19566 1.18298 -0.33098
 C287 C -0.16520 1.20770 -0.32751
 C288 C -0.14261 1.18424 -0.27390
 C289 C -0.15084 1.13673 -0.22119
 C290 C -0.18167 1.11388 -0.22239
 C291 C -0.12782 1.11142 -0.17038
 C292 C -0.09635 1.13128 -0.17407
 C293 C -0.08866 1.17960 -0.22526
 C294 C -0.11162 1.20612 -0.27420
 H295 H -0.15865 1.24331 -0.36899
 H296 H -0.18840 1.07747 -0.18250
 H297 H -0.13420 1.07500 -0.13028
 H298 H -0.10491 1.24259 -0.31400
 H299 H -0.22726 1.11697 -0.27864
 H300 H -0.06469 1.19649 -0.22861
 C301 C 0.69850 0.61512 -0.29810
 C302 C 0.69420 0.66962 -0.33943
 C303 C 0.66634 0.70261 -0.32467
 C304 C 0.64251 0.67971 -0.27351
 C305 C 0.64732 0.62494 -0.23286
 C306 C 0.67562 0.59376 -0.24419
 C307 C 0.62334 0.60102 -0.18372
 C308 C 0.59388 0.62957 -0.17718
 C309 C 0.58924 0.68417 -0.21757
 C310 C 0.61351 0.70945 -0.26442
 H311 H 0.66235 0.74443 -0.35623
 H312 H 0.67974 0.55203 -0.21281
 H313 H 0.62718 0.55870 -0.15344
 H314 H 0.60930 0.75142 -0.29531
 H315 H 0.71969 0.58880 -0.30703
 H316 H 0.56679 0.70714 -0.21325
 C317 C 0.19850 1.11285 -0.30994
 C318 C 0.19437 1.17193 -0.33674
 C319 C 0.16866 1.20511 -0.30685
 C320 C 0.14670 1.17911 -0.25363
 C321 C 0.15062 1.11926 -0.22835
 C322 C 0.17687 1.08683 -0.25600
 C323 C 0.12760 1.09236 -0.17853
 C324 C 0.10031 1.12415 -0.15613
 C325 C 0.09716 1.18408 -0.17990
 C326 C 0.12027 1.21150 -0.22755
 H327 H 0.16517 1.25077 -0.32671
 H328 H 0.18028 1.04098 -0.23744
 H329 H 0.13004 1.04597 -0.16113
 H330 H 0.11697 1.25747 -0.24612
 H331 H 0.21816 1.08632 -0.33175
 H332 H 0.07638 1.20946 -0.16292
 C333 C 0.29763 0.36026 -0.28536
 C334 C 0.30612 0.30929 -0.33052
 C335 C 0.33598 0.28356 -0.31826
 C336 C 0.35766 0.30980 -0.26457
 C337 C 0.34918 0.36150 -0.22006
 C338 C 0.31888 0.38582 -0.22987
 C339 C 0.37159 0.38923 -0.16920
 C340 C 0.40278 0.36782 -0.16614
 C341 C 0.41053 0.31531 -0.20898
 C342 C 0.38811 0.28624 -0.25700
 H343 H 0.34290 0.24447 -0.35308
 H344 H 0.31196 0.42553 -0.19649
 H345 H 0.36511 0.42862 -0.13486
 H346 H 0.39493 0.24647 -0.29040
 H347 H 0.27466 0.38070 -0.29352
 H348 H 0.43422 0.29709 -0.20662
 C349 C -0.15222 0.73945 -0.33713
 C350 C -0.18016 0.77306 -0.34437
 C351 C -0.18212 0.82866 -0.30471
 C352 C -0.15627 0.85101 -0.26019
 C353 C -0.12791 0.81776 -0.25593
 C354 C -0.12631 0.76169 -0.29372
 C355 C -0.10158 0.84134 -0.21452
 C356 C -0.10344 0.89722 -0.17562
 C357 C -0.13209 0.92895 -0.17820
 C358 C -0.15814 0.90642 -0.22072
 H359 H -0.20354 0.85495 -0.30952
 H360 H -0.10487 0.73537 -0.29070
 H361 H -0.07979 0.81599 -0.21194
 H362 H -0.17971 0.93243 -0.22282
 H363 H -0.14997 0.69663 -0.36739
 H364 H -0.13427 0.97173 -0.14816
 C365 C 0.34993 0.76440 0.34106
 C366 C 0.32093 0.73361 0.34233
 C367 C 0.31761 0.68109 0.29595
 C368 C 0.34320 0.65893 0.25036
 C369 C 0.37263 0.68897 0.25236
 C370 C 0.37560 0.74209 0.29699
 C371 C 0.39870 0.66508 0.21050
 C372 C 0.39562 0.61212 0.16493
 C373 C 0.36584 0.58420 0.16036
 C374 C 0.34000 0.60688 0.20350
 H375 H 0.29530 0.65718 0.29610
 H376 H 0.39790 0.76596 0.29877
 H377 H 0.42132 0.68780 0.21338
 H378 H 0.31754 0.58362 0.20031
 H379 H 0.35315 0.80476 0.37666
 H380 H 0.36252 0.54430 0.12407
 C381 C -0.20085 1.10975 0.31337
 C382 C -0.19810 1.16956 0.33928
 C383 C -0.17200 1.20344 0.31197
 C384 C -0.14845 1.17757 0.26333
 C385 C -0.15139 1.11748 0.23821
 C386 C -0.17788 1.08419 0.26264
 C387 C -0.12734 1.09136 0.19110
 C388 C -0.09995 1.12391 0.17139
 C389 C -0.09724 1.18351 0.19698
 C390 C -0.12147 1.21041 0.24164
 H391 H -0.16915 1.24949 0.33121
 H392 H -0.18046 1.03796 0.24410
 H393 H -0.12927 1.04516 0.17270
 H394 H -0.11880 1.25650 0.26071
 H395 H -0.22059 1.08239 0.33283
 H396 H -0.07633 1.20934 0.18221
 C397 C 0.64940 0.25215 0.34475
 C398 C 0.67837 0.28311 0.34334
 C399 C 0.68157 0.33346 0.29298
 C400 C 0.65586 0.35332 0.24602
 C401 C 0.62653 0.32303 0.25046
 C402 C 0.62370 0.27206 0.29913
 C403 C 0.60034 0.34470 0.20732
 C404 C 0.60306 0.39595 0.15859
 C405 C 0.63272 0.42409 0.15155
 C406 C 0.65879 0.40340 0.19550
 H407 H 0.70384 0.35746 0.29102
 H408 H 0.60147 0.24807 0.30285
 H409 H 0.57779 0.32191 0.21238
 H410 H 0.68113 0.42686 0.19047
 H411 H 0.64623 0.21333 0.38322
 H412 H 0.63572 0.46288 0.11316
 C413 C 0.20110 0.88590 0.28303
 C414 C 0.19474 0.83637 0.33293
 C415 C 0.16538 0.80715 0.32571
 C416 C 0.14220 0.82861 0.27176
 C417 C 0.14877 0.87882 0.22247
 C418 C 0.17850 0.90641 0.22750
 C419 C 0.12519 0.90177 0.17096
 C420 C 0.09468 0.87644 0.16987
 C421 C 0.08866 0.82575 0.21803
 C422 C 0.11225 0.80178 0.26793
 H423 H 0.16012 0.76911 0.36423
 H424 H 0.18408 0.94448 0.18950
 H425 H 0.13025 0.94088 0.13438
 H426 H 0.10680 0.76318 0.30516
 H427 H 0.22362 0.90882 0.28696
 H428 H 0.06549 0.80510 0.21824
   
