data_POSCAR
  _audit_creation_date              2014-09-24
  _audit_creation_method            'ToBaCCo'
  _symmetry_space_group_name_H-M    'P1'
  _symmetry_Int_Tables_number       1
  _symmetry_cell_setting            triclinic
  loop_
  _symmetry_equiv_pos_as_xyz
 x,y,z
_cell_length_a 26.5725
_cell_length_b 16.5492
_cell_length_c 16.5382
_cell_angle_alpha 89.768500
_cell_angle_beta 90.138000
_cell_angle_gamma 89.845100
loop_
  _atom_site_label
  _atom_site_type_symbol
  _atom_site_fract_x
  _atom_site_fract_y
  _atom_site_fract_z
O1 O 0.07220 0.13793 0.14819
 O2 O 0.12740 0.06692 0.06853
 C3 C 0.11721 0.11772 0.12557
 O4 O -0.06923 -0.14962 0.14038
 O5 O -0.12504 -0.06991 0.06941
 C6 C -0.11442 -0.12710 0.12040
 O7 O 0.07159 -0.14176 0.14902
 O8 O 0.12678 -0.06944 0.07064
 C9 C 0.11667 -0.12121 0.12726
 O10 O -0.06895 0.14578 0.14346
 O11 O -0.12476 0.06996 0.06977
 C12 C -0.11415 0.12519 0.12234
 Zr13 Zr 0.00123 0.09958 0.10374
 O14 O -0.00384 0.09608 0.23151
 O15 O 0.00673 0.22721 0.10590
 Zr16 Zr 0.00121 -0.10446 0.10098
 O17 O -0.00239 -0.11504 0.22823
 O18 O 0.00359 -0.23139 0.08801
 O19 O 0.04620 -0.00272 0.11795
 O20 O -0.04247 -0.00243 0.11754
 O21 O -0.07029 0.14924 -0.13872
 O22 O -0.12548 0.07027 -0.06683
 C23 C -0.11528 0.12723 -0.11808
 O24 O 0.07053 -0.13660 -0.15209
 O25 O 0.12639 -0.06900 -0.07079
 C26 C 0.11572 -0.11779 -0.12932
 O27 O -0.06997 -0.14531 -0.14309
 O28 O -0.12521 -0.07007 -0.06758
 C29 C -0.11500 -0.12473 -0.12097
 O30 O 0.07069 0.14247 -0.14605
 O31 O 0.12657 0.06924 -0.06878
 C32 C 0.11591 0.12155 -0.12473
 Zr33 Zr 0.00031 0.10286 -0.10054
 O34 O -0.00514 0.10433 -0.22830
 O35 O 0.00552 0.23049 -0.09883
 Zr36 Zr 0.00056 -0.10159 -0.10228
 O37 O -0.00194 -0.11002 -0.22973
 O38 O 0.00552 -0.22925 -0.09544
 Zr39 Zr 0.07608 -0.00090 -0.00021
 Zr40 Zr -0.07446 -0.00028 0.00092
 O41 O -0.04337 0.00100 -0.11608
 O42 O 0.04518 0.00085 -0.11795
 O43 O -0.04420 0.11738 0.00208
 O44 O 0.04517 -0.11782 -0.00100
 O45 O 0.04439 0.11589 0.00138
 O46 O -0.04439 -0.11829 -0.00048
 H47 H -0.06473 -0.00291 0.16552
 H48 H 0.06828 -0.16493 -0.00148
 H49 H -0.06626 0.00185 -0.16344
 H50 H 0.06673 0.16373 0.00165
 H51 H 0.00446 -0.25380 0.14365
 H52 H -0.02364 -0.24874 -0.06373
 H53 H -0.00835 -0.05512 -0.25103
 H54 H 0.02361 0.07284 -0.24967
 H55 H -0.02242 0.25099 -0.06517
 H56 H -0.02112 0.24903 0.07249
 H57 H 0.02691 0.06943 0.25256
 H58 H 0.01240 -0.06517 0.25054
 O59 O 0.57032 0.64246 0.64604
 O60 O 0.62596 0.57025 0.56825
 C61 C 0.61549 0.62196 0.62440
 O62 O 0.42965 0.35292 0.63901
 O63 O 0.37414 0.43130 0.56623
 C64 C 0.38454 0.37470 0.61803
 O65 O 0.57028 0.36122 0.64787
 O66 O 0.62587 0.43270 0.56918
 C67 C 0.61539 0.38143 0.62603
 O68 O 0.42961 0.65152 0.63703
 O69 O 0.37415 0.57384 0.56449
 C70 C 0.38456 0.63037 0.61574
 Zr71 Zr 0.49983 0.60361 0.60021
 O72 O 0.49464 0.60030 0.72793
 O73 O 0.50505 0.73114 0.60206
 Zr74 Zr 0.49987 0.40047 0.60172
 O75 O 0.49702 0.41145 0.72886
 O76 O 0.50451 0.27305 0.60922
 O77 O 0.54505 0.50186 0.61687
 O78 O 0.45559 0.50218 0.61521
 O79 O 0.42905 0.64795 0.35546
 O80 O 0.37352 0.57018 0.42810
 C81 C 0.38390 0.62638 0.37605
 O82 O 0.57094 0.36051 0.35192
 O83 O 0.62620 0.43232 0.43065
 C84 C 0.61600 0.38073 0.37428
 O85 O 0.43023 0.35298 0.35836
 O86 O 0.37444 0.43040 0.43051
 C87 C 0.38509 0.37411 0.37912
 O88 O 0.57030 0.64085 0.34902
 O89 O 0.62580 0.57009 0.42943
 C90 C 0.61539 0.62083 0.37191
 Zr91 Zr 0.49990 0.60323 0.39560
 O92 O 0.49552 0.60338 0.26783
 O93 O 0.50543 0.73090 0.39675
 Zr94 Zr 0.50042 0.39981 0.39690
 O95 O 0.49828 0.40813 0.26940
 O96 O 0.50575 0.27215 0.39417
 Zr97 Zr 0.57515 0.50150 0.49914
 Zr98 Zr 0.42466 0.50191 0.49796
 O99 O 0.45617 0.50134 0.38129
 O100 O 0.54531 0.50135 0.38103
 O101 O 0.45496 0.61960 0.49741
 O102 O 0.54369 0.38497 0.49980
 O103 O 0.54350 0.61827 0.49806
 O104 O 0.45538 0.38422 0.49898
 H105 H 0.43259 0.50248 0.66228
 H106 H 0.56602 0.33691 0.50029
 H107 H 0.43366 0.50092 0.33344
 H108 H 0.56599 0.66594 0.49787
 H109 H 0.48353 0.25125 0.56502
 H110 H 0.47890 0.25051 0.42938
 H111 H 0.49846 0.35182 0.24927
 H112 H 0.51838 0.56038 0.24846
 H113 H 0.47494 0.75241 0.42332
 H114 H 0.48103 0.75224 0.56134
 H115 H 0.52151 0.56378 0.74798
 H116 H 0.49847 0.35558 0.75063
 C117 C 0.15870 0.15545 0.16582
 C118 C 0.19350 0.18766 0.19940
 C119 C 0.23416 0.22598 0.23831
 C120 C 0.26881 0.25922 0.27126
 C121 C 0.30933 0.29873 0.30940
 C122 C 0.34393 0.33291 0.34153
 C123 C 0.84428 0.83234 0.15829
 C124 C 0.80932 0.79884 0.19013
 C125 C 0.76820 0.76028 0.22754
 C126 C 0.73304 0.72777 0.25982
 C127 C 0.69189 0.69017 0.29814
 C128 C 0.65684 0.65838 0.33145
 C129 C 0.84320 0.16800 0.84423
 C130 C 0.80825 0.20172 0.81203
 C131 C 0.76734 0.24061 0.77372
 C132 C 0.73240 0.27336 0.74055
 C133 C 0.69154 0.31131 0.70117
 C134 C 0.65672 0.34346 0.66706
 C135 C 0.15691 0.84552 0.82879
 C136 C 0.19168 0.81422 0.79432
 C137 C 0.23250 0.77695 0.75487
 C138 C 0.26742 0.74449 0.72191
 C139 C 0.30830 0.70562 0.68416
 C140 C 0.34318 0.67168 0.65257
 C141 C 0.15718 0.15976 0.83450
 C142 C 0.19191 0.19186 0.80041
 C143 C 0.23266 0.22965 0.76075
 C144 C 0.26746 0.26218 0.72723
 C145 C 0.30827 0.30071 0.68849
 C146 C 0.34310 0.33413 0.65597
 C147 C 0.84343 0.83537 0.84080
 C148 C 0.80848 0.80208 0.80844
 C149 C 0.76755 0.76338 0.77026
 C150 C 0.73263 0.73058 0.73737
 C151 C 0.69176 0.69242 0.69842
 C152 C 0.65690 0.66012 0.66483
 C153 C 0.15448 0.84424 0.16415
 C154 C 0.18965 0.81190 0.19750
 C155 C 0.23093 0.77352 0.23578
 C156 C 0.26615 0.74033 0.26806
 C157 C 0.30732 0.70098 0.30566
 C158 C 0.34237 0.66707 0.33772
 C159 C 0.84453 0.16591 0.16056
 C160 C 0.80966 0.19965 0.19271
 C161 C 0.76867 0.23866 0.23052
 C162 C 0.73363 0.27162 0.26299
 C163 C 0.69259 0.30992 0.30136
 C164 C 0.65759 0.34240 0.33444
   
