data_POSCAR
  _audit_creation_date              2014-09-24
  _audit_creation_method            'ToBaCCo'
  _symmetry_space_group_name_H-M    'P1'
  _symmetry_Int_Tables_number       1
  _symmetry_cell_setting            triclinic
  loop_
  _symmetry_equiv_pos_as_xyz
 x,y,z
_cell_length_a 64.1079
_cell_length_b 64.7876
_cell_length_c 42.9601
_cell_angle_alpha 90.474500
_cell_angle_beta 89.674800
_cell_angle_gamma 120.214000
loop_
  _atom_site_label
  _atom_site_type_symbol
  _atom_site_fract_x
  _atom_site_fract_y
  _atom_site_fract_z
C1 C -0.04254 0.48833 -0.07730
 C2 C -0.04251 0.46728 -0.07681
 C3 C -0.03390 0.46591 -0.04783
 N4 N -0.02828 0.48565 -0.03066
 C5 C -0.03399 0.49919 -0.04858
 C6 C -0.03258 0.44600 -0.03707
 C7 C -0.01537 0.44887 -0.01430
 C8 C -0.01528 0.43066 0.00235
 C9 C 0.00502 0.44108 0.02069
 C10 C 0.01652 0.46549 0.01548
 N11 N 0.00404 0.47005 -0.00602
 C12 C 0.03872 0.48267 0.02892
 C13 C 0.04703 0.50749 0.02932
 C14 C 0.06902 0.52482 0.04141
 C15 C 0.06916 0.54601 0.04053
 C16 C 0.04723 0.54109 0.02797
 N17 N 0.03365 0.51747 0.02138
 C18 C 0.03914 0.55775 0.02602
 C19 C 0.01674 0.55220 0.01277
 C20 C 0.00519 0.56523 0.01730
 C21 C -0.01537 0.55461 -0.00055
 C22 C -0.01554 0.53574 -0.01635
 N23 N 0.00405 0.53435 -0.00788
 C24 C -0.03287 0.52064 -0.03868
 H25 H -0.04794 0.49505 -0.09679
 H26 H -0.04790 0.45456 -0.09583
 H27 H 0.00968 0.52332 -0.01802
 H28 H -0.02845 0.41179 0.00184
 H29 H 0.01043 0.43156 0.03617
 H30 H 0.08325 0.52250 0.05101
 H31 H 0.08349 0.56287 0.04938
 H32 H -0.02863 0.56021 -0.00129
 H33 H 0.00967 0.48638 -0.01672
 H34 H 0.01070 0.58069 0.03209
 C35 C 0.45172 0.51223 0.05328
 C36 C 0.47273 0.53377 0.05447
 C37 C 0.49074 0.53010 0.04249
 N38 N 0.48133 0.50683 0.03438
 C39 C 0.45740 0.49589 0.04062
 C40 C 0.51562 0.54762 0.04186
 C41 C 0.53361 0.54346 0.02913
 C42 C 0.55833 0.55820 0.03318
 C43 C 0.56944 0.54863 0.01561
 C44 C 0.55127 0.52854 0.00094
 N45 N 0.52954 0.52556 0.00921
 C46 C 0.55488 0.51443 -0.02117
 C47 C 0.53591 0.49240 -0.03215
 C48 C 0.53675 0.48143 -0.05952
 C49 C 0.51576 0.45994 -0.06086
 C50 C 0.50290 0.45821 -0.03392
 N51 N 0.51515 0.47829 -0.01652
 C52 C 0.48080 0.43782 -0.02507
 C53 C 0.46473 0.43970 -0.00384
 C54 C 0.44537 0.42074 0.01106
 C55 C 0.43409 0.43015 0.02852
 C56 C 0.44716 0.45471 0.02463
 N57 N 0.46569 0.46036 0.00471
 C58 C 0.44104 0.47101 0.03801
 H59 H 0.43445 0.50898 0.06189
 H60 H 0.47448 0.55003 0.06414
 H61 H 0.47691 0.47710 -0.00487
 H62 H 0.56761 0.57435 0.04698
 H63 H 0.58872 0.55591 0.01352
 H64 H 0.55090 0.48836 -0.07694
 H65 H 0.51049 0.44718 -0.07981
 H66 H 0.41820 0.41993 0.04271
 H67 H 0.51313 0.51361 -0.00102
 H68 H 0.43993 0.40201 0.01004
 C69 C 0.52553 1.04633 -0.08175
 C70 C 0.54551 1.04390 -0.08191
 C71 C 0.54451 1.03176 -0.05503
 N72 N 0.52471 1.02713 -0.03809
 C73 C 0.51317 1.03629 -0.05428
 C74 C 0.56275 1.02706 -0.04514
 C75 C 0.55932 1.01145 -0.02047
 C76 C 0.57742 1.01002 -0.00486
 C77 C 0.56617 0.99115 0.01545
 C78 C 0.54152 0.98130 0.01116
 N79 N 0.53758 0.99382 -0.01074
 C80 C 0.52323 0.96053 0.02578
 C81 C 0.49867 0.95400 0.02393
 C82 C 0.47936 0.93157 0.03072
 C83 C 0.45908 0.93354 0.02995
 C84 C 0.46668 0.95709 0.02267
 N85 N 0.49086 0.96954 0.01876
 C86 C 0.45201 0.96755 0.02395
 C87 C 0.45886 0.98964 0.00975
 C88 C 0.44888 1.00380 0.01629
 C89 C 0.46034 1.02343 -0.00270
 C90 C 0.47686 1.02060 -0.02066
 N91 N 0.47585 0.99994 -0.01277
 C92 C 0.49225 1.03667 -0.04382
 H93 H 0.52069 1.05444 -0.10013
 H94 H 0.55912 1.05047 -0.09995
 H95 H 0.48487 0.99231 -0.02387
 H96 H 0.59672 1.02121 -0.00786
 H97 H 0.57522 0.98530 0.03123
 H98 H 0.47987 0.91554 0.03607
 H99 H 0.44085 0.91939 0.03481
 H100 H 0.45720 1.03835 -0.00251
 H101 H 0.52112 0.98903 -0.02116
 H102 H 0.43515 1.00062 0.03340
 C103 C 1.03838 0.53563 0.41314
 C104 C 1.03849 0.51464 0.41507
 C105 C 1.03052 0.50586 0.44474
 N106 N 1.02508 0.52057 0.46091
 C107 C 1.03034 0.53903 0.44170
 C108 C 1.03011 0.48555 0.45737
 C109 C 1.01329 0.47213 0.48102
 C110 C 1.01451 0.45587 0.50067
 C111 C 0.99445 0.44678 0.51960
 C112 C 0.98163 0.45786 0.51121
 N113 N 0.99322 0.47325 0.48772
 C114 C 0.95948 0.45324 0.52450
 C115 C 0.95051 0.46909 0.52127
 C116 C 0.92732 0.46378 0.52902
 C117 C 0.92692 0.48466 0.52688
 C118 C 0.94976 0.50204 0.51730
 N119 N 0.96417 0.49246 0.51387
 C120 C 0.95797 0.52677 0.51572
 C121 C 0.98040 0.54327 0.50234
 C122 C 0.99222 0.56785 0.50639
 C123 C 1.01266 0.57729 0.48818
 C124 C 1.01247 0.55826 0.47279
 N125 N 0.99279 0.53762 0.48173
 C126 C 1.02956 0.55975 0.45047
 H127 H 1.04348 0.54702 0.39291
 H128 H 1.04372 0.50666 0.39663
 H129 H 0.98692 0.52080 0.47201
 H130 H 1.02859 0.45136 0.50201
 H131 H 0.99014 0.43386 0.53790
 H132 H 0.91232 0.44675 0.53613
 H133 H 0.91159 0.48668 0.53252
 H134 H 1.02609 0.59604 0.48699
 H135 H 0.98681 0.48264 0.47522
 H136 H 0.98688 0.57808 0.52098
 C137 C 0.53870 0.47951 0.55870
 C138 C 0.51760 0.45801 0.55872
 C139 C 0.50019 0.46180 0.54531
 N140 N 0.51003 0.48508 0.53750
 C141 C 0.53368 0.49592 0.54527
 C142 C 0.47538 0.44427 0.54282
 C143 C 0.45790 0.44847 0.52891
 C144 C 0.43308 0.43361 0.53149
 C145 C 0.42256 0.44337 0.51356
 C146 C 0.44119 0.46374 0.50009
 N147 N 0.46263 0.46663 0.50943
 C148 C 0.43810 0.47836 0.47853
 C149 C 0.45716 0.50074 0.46865
 C150 C 0.45607 0.51319 0.44320
 C151 C 0.47729 0.53456 0.44275
 C152 C 0.49068 0.53454 0.46796
 N153 N 0.47835 0.51382 0.48376
 C154 C 0.51320 0.55407 0.47703
 C155 C 0.52852 0.55211 0.49886
 C156 C 0.54871 0.57125 0.51214
 C157 C 0.55931 0.56184 0.53054
 C158 C 0.54513 0.53715 0.52838
 N159 N 0.52655 0.53142 0.50874
 C160 C 0.55044 0.52072 0.54269
 H161 H 0.55560 0.48267 0.56840
 H162 H 0.51536 0.44168 0.56846
 H163 H 0.51482 0.51452 0.49987
 H164 H 0.42340 0.41733 0.54473
 H165 H 0.40336 0.43610 0.51057
 H166 H 0.44153 0.50744 0.42657
 H167 H 0.48229 0.54849 0.42569
 H168 H 0.57572 0.57216 0.54376
 H169 H 0.47941 0.47875 0.50032
 H170 H 0.55530 0.59008 0.50877
 C171 C 0.45082 -0.07222 0.48917
 C172 C 0.47172 -0.07305 0.49041
 C173 C 0.49044 -0.05010 0.48453
 N174 N 0.48176 -0.03514 0.48029
 C175 C 0.45747 -0.04878 0.48255
 C176 C 0.51494 -0.04342 0.48009
 C177 C 0.53326 -0.02039 0.49021
 C178 C 0.55786 -0.00922 0.48386
 C179 C 0.56881 0.01172 0.50085
 C180 C 0.55062 0.01330 0.51625
 N181 N 0.52914 -0.00626 0.50970
 C182 C 0.55394 0.03131 0.53771
 C183 C 0.53536 0.03633 0.54498
 C184 C 0.53694 0.05270 0.56725
 C185 C 0.51630 0.05391 0.56492
 C186 C 0.50285 0.03855 0.54100
 N187 N 0.51451 0.02780 0.52882
 C188 C 0.48116 0.03611 0.52919
 C189 C 0.46611 0.01770 0.50836
 C190 C 0.44879 0.01789 0.48949
 C191 C 0.43758 -0.00363 0.47378
 C192 C 0.44803 -0.01666 0.48407
 N193 N 0.46557 -0.00330 0.50494
 C194 C 0.44141 -0.04045 0.47565
 H195 H 0.43279 -0.08716 0.49278
 H196 H 0.47301 -0.08876 0.49511
 H197 H 0.47517 -0.00906 0.51832
 H198 H 0.56741 -0.01497 0.46860
 H199 H 0.58797 0.02436 0.50136
 H200 H 0.55160 0.06323 0.58313
 H201 H 0.51193 0.06513 0.57904
 H202 H 0.42375 -0.00847 0.45641
 H203 H 0.51282 -0.01090 0.52064
 H204 H 0.44491 0.03223 0.48690
 O205 O 0.18776 0.42163 0.22391
 O206 O 0.22828 0.42232 0.28542
 O207 O 0.18822 0.42392 0.28443
 O208 O 0.22796 0.41969 0.22496
 O209 O 0.24897 0.45908 0.22243
 O210 O 0.20959 0.46326 0.28126
 O211 O 0.24916 0.46172 0.28298
 O212 O 0.20975 0.46096 0.22095
 Cu213 Cu 0.20590 0.41788 0.25486
 Cu214 Cu 0.23152 0.46517 0.25169
 C215 C 0.19191 0.44128 0.21210
 C216 C 0.24560 0.44228 0.29467
 C217 C 0.19218 0.44444 0.29278
 C218 C 0.24529 0.43875 0.21372
 O219 O 0.56823 0.80202 0.28452
 O220 O 0.56966 0.76188 0.22380
 O221 O 0.56939 0.80248 0.22359
 O222 O 0.56865 0.76175 0.28422
 O223 O 0.52879 0.74168 0.28243
 O224 O 0.52951 0.78268 0.22376
 O225 O 0.52982 0.74268 0.22183
 O226 O 0.52837 0.78128 0.28356
 Cu227 Cu 0.57305 0.78410 0.25404
 Cu228 Cu 0.52516 0.76001 0.25266
 C229 C 0.54790 0.79833 0.29436
 C230 C 0.54988 0.74537 0.21268
 C231 C 0.54942 0.79970 0.21392
 C232 C 0.54846 0.74473 0.29350
 O233 O 0.23558 0.81469 0.21173
 O234 O 0.19297 0.77228 0.27003
 O235 O 0.23442 0.81247 0.27255
 O236 O 0.19407 0.77379 0.20953
 O237 O 0.21485 0.75505 0.20708
 O238 O 0.25292 0.79147 0.27168
 O239 O 0.21225 0.75207 0.26737
 O240 O 0.25551 0.79508 0.21217
 Cu241 Cu 0.21227 0.79536 0.24095
 Cu242 Cu 0.23575 0.77137 0.23931
 C243 C 0.25322 0.81235 0.20280
 C244 C 0.19540 0.75483 0.27836
 C245 C 0.25053 0.80835 0.28285
 C246 C 0.19764 0.75775 0.19776
 O247 O 0.80819 0.58017 0.72254
 O248 O 0.76724 0.57704 0.78567
 O249 O 0.80829 0.57728 0.78303
 O250 O 0.76689 0.57979 0.72536
 O251 O 0.74744 0.54040 0.72176
 O252 O 0.78827 0.53793 0.77887
 O253 O 0.74776 0.53766 0.78209
 O254 O 0.78773 0.54080 0.71862
 Cu255 Cu 0.78969 0.58258 0.75448
 Cu256 Cu 0.76583 0.53528 0.75005
 C257 C 0.80481 0.56094 0.70984
 C258 C 0.75049 0.55670 0.79452
 C259 C 0.80524 0.55702 0.79062
 C260 C 0.75010 0.56040 0.71385
 O261 O 0.42781 0.23239 0.72210
 O262 O 0.43241 0.19201 0.77869
 O263 O 0.43038 0.23141 0.78238
 O264 O 0.42922 0.19247 0.71813
 O265 O 0.46899 0.21381 0.71507
 O266 O 0.47015 0.25234 0.77882
 O267 O 0.47215 0.21340 0.77520
 O268 O 0.46759 0.25288 0.71849
 Cu269 Cu 0.42591 0.20990 0.75060
 Cu270 Cu 0.47367 0.23521 0.74662
 C271 C 0.44705 0.24955 0.71077
 C272 C 0.45320 0.19595 0.78650
 C273 C 0.45058 0.24861 0.79136
 C274 C 0.44899 0.19655 0.70578
 O275 O 0.81288 0.23566 0.77478
 O276 O 0.77262 0.19666 0.71179
 O277 O 0.81210 0.23891 0.71419
 O278 O 0.77380 0.19330 0.77213
 O279 O 0.75063 0.20948 0.77517
 O280 O 0.79019 0.25621 0.72060
 O281 O 0.75094 0.21435 0.71655
 O282 O 0.78933 0.25122 0.78048
 Cu283 Cu 0.79520 0.21450 0.74266
 Cu284 Cu 0.76820 0.23467 0.74865
 C285 C 0.80773 0.25005 0.78837
 C286 C 0.75454 0.19859 0.70413
 C287 C 0.80785 0.25560 0.70809
 C288 C 0.75522 0.19328 0.78263
 C289 C 0.08222 0.46119 0.07473
 N290 N 0.05961 0.45414 0.08526
 N291 N 0.04564 0.46067 0.07050
 C292 C 0.05368 0.47429 0.04449
 N293 N 0.07619 0.48112 0.03379
 N294 N 0.09024 0.47479 0.04872
 C295 C 0.09831 0.45554 0.09221
 N296 N 0.12248 0.46804 0.08707
 N297 N 0.13737 0.46418 0.10430
 C298 C 0.12863 0.44749 0.12708
 N299 N 0.10442 0.43471 0.13193
 N300 N 0.08953 0.43874 0.11489
 C301 C 0.14531 0.44473 0.14757
 N302 N 0.13744 0.42534 0.16618
 N303 N 0.15246 0.42377 0.18611
 C304 C 0.17578 0.44168 0.18834
 N305 N 0.18362 0.46098 0.16965
 N306 N 0.16871 0.46241 0.14950
 C307 C 0.53459 0.61362 0.08328
 N308 N 0.52022 0.60584 0.05774
 N309 N 0.51470 0.58515 0.04419
 C310 C 0.52314 0.57134 0.05587
 N311 N 0.53757 0.57913 0.08139
 N312 N 0.54329 0.59996 0.09476
 C313 C 0.53934 0.63565 0.09930
 N314 N 0.55691 0.64594 0.12121
 N315 N 0.56018 0.66516 0.13697
 C316 C 0.54585 0.67461 0.13160
 N317 N 0.52838 0.66438 0.10959
 N318 N 0.52528 0.64535 0.09361
 C319 C 0.54791 0.69438 0.15081
 N320 N 0.52914 0.69844 0.15273
 N321 N 0.53005 0.71510 0.17194
 C322 C 0.54990 0.72855 0.18966
 N323 N 0.56887 0.72479 0.18739
 N324 N 0.56784 0.70791 0.16842
 C325 C 0.39039 0.93060 0.07990
 N326 N 0.41241 0.93553 0.09006
 N327 N 0.43194 0.94800 0.07261
 C328 C 0.43028 0.95596 0.04415
 N329 N 0.40830 0.95155 0.03415
 N330 N 0.38866 0.93907 0.05175
 C331 C 0.36897 0.91448 0.09826
 N332 N 0.34665 0.91091 0.09168
 N333 N 0.32741 0.89513 0.10793
 C334 C 0.32987 0.88225 0.13098
 N335 N 0.35217 0.88595 0.13745
 N336 N 0.37132 0.90181 0.12153
 C337 C 0.30910 0.86382 0.14826
 N338 N 0.31147 0.84686 0.16343
 N339 N 0.29335 0.83029 0.18012
 C340 C 0.27218 0.83010 0.18257
 N341 N 0.26966 0.84706 0.16739
 N342 N 0.28780 0.86358 0.15031
 C343 C 0.91474 0.54875 0.56225
 N344 N 0.90661 0.53502 0.53616
 N345 N 0.92067 0.52874 0.52071
 C346 C 0.94328 0.53577 0.53097
 N347 N 0.95149 0.54970 0.55689
 N348 N 0.93752 0.55617 0.57217
 C349 C 0.89846 0.55367 0.58090
 N350 N 0.90714 0.57022 0.60416
 N351 N 0.89210 0.57320 0.62270
 C352 C 0.86785 0.55956 0.61884
 N353 N 0.85920 0.54317 0.59543
 N354 N 0.87423 0.54037 0.57671
 C355 C 0.85115 0.56098 0.64108
 N356 N 0.82824 0.54240 0.64374
 N357 N 0.81343 0.54265 0.66538
 C358 C 0.82086 0.56161 0.68492
 N359 N 0.84366 0.58042 0.68200
 N360 N 0.85861 0.58003 0.66057
 C361 C 0.45623 0.37831 0.58313
 N362 N 0.44715 0.39178 0.59464
 N363 N 0.45273 0.41250 0.58143
 C364 C 0.46742 0.42038 0.55611
 N365 N 0.47619 0.40673 0.54437
 N366 N 0.47077 0.38614 0.55770
 C367 C 0.45205 0.35663 0.59921
 N368 N 0.46626 0.34715 0.59279
 N369 N 0.46390 0.32859 0.60882
 C370 C 0.44707 0.31864 0.63166
 N371 N 0.43256 0.32785 0.63779
 N372 N 0.43508 0.34660 0.62194
 C373 C 0.44602 0.29947 0.65082
 N374 N 0.42673 0.28592 0.66944
 N375 N 0.42665 0.26945 0.68797
 C376 C 0.44597 0.26618 0.68877
 N377 N 0.46517 0.27968 0.67009
 N378 N 0.46513 0.29590 0.65133
 C379 C 0.61954 0.07493 0.58341
 N380 N 0.61855 0.07468 0.55182
 N381 N 0.59790 0.06031 0.53707
 C382 C 0.57760 0.04553 0.55338
 N383 N 0.57884 0.04538 0.58488
 N384 N 0.59935 0.05992 0.59961
 C385 C 0.64108 0.09274 0.60019
 N386 N 0.63856 0.09991 0.62899
 N387 N 0.65753 0.11708 0.64400
 C388 C 0.67984 0.12751 0.63101
 N389 N 0.68254 0.12015 0.60233
 N390 N 0.66342 0.10318 0.58703
 C391 C 0.70015 0.14703 0.64772
 N392 N 0.72285 0.15043 0.64598
 N393 N 0.74058 0.16724 0.66335
 C394 C 0.73624 0.18146 0.68255
 N395 N 0.71366 0.17825 0.68375
 N396 N 0.69594 0.16128 0.66684
 C397 C 0.47762 0.08618 0.91680
 N398 N 0.45934 0.06504 0.92737
 N399 N 0.46400 0.04924 0.94061
 C400 C 0.48710 0.05381 0.94358
 N401 N 0.50526 0.07521 0.93341
 N402 N 0.50065 0.09101 0.92031
 C403 C 0.47293 0.10325 0.90041
 N404 N 0.49173 0.12422 0.89039
 N405 N 0.48795 0.13934 0.87395
 C406 C 0.46520 0.13408 0.86682
 N407 N 0.44630 0.11318 0.87703
 N408 N 0.45010 0.09802 0.89355
 C409 C 0.46155 0.15046 0.84715
 N410 N 0.43911 0.14549 0.83858
 N411 N 0.43627 0.16010 0.81958
 C412 C 0.45579 0.18014 0.80848
 N413 N 0.47815 0.18511 0.81723
 N414 N 0.48098 0.17057 0.83620
 C415 C 0.62222 0.53458 0.93886
 N416 N 0.61415 0.55035 0.94016
 N417 N 0.59312 0.54438 0.95381
 C418 C 0.57947 0.52243 0.96665
 N419 N 0.58781 0.50689 0.96579
 N420 N 0.60876 0.51284 0.95216
 C421 C 0.64399 0.53982 0.92113
 N422 N 0.64958 0.52240 0.91666
 N423 N 0.66801 0.52610 0.89850
 C424 C 0.68164 0.54740 0.88419
 N425 N 0.67632 0.56500 0.88900
 N426 N 0.65777 0.56126 0.90710
 C427 C 0.70064 0.55047 0.86227
 N428 N 0.71597 0.57207 0.84953
 N429 N 0.73228 0.57426 0.82839
 C430 C 0.73367 0.55489 0.81909
 N431 N 0.71842 0.53337 0.83195
 N432 N 0.70227 0.53122 0.85320
 C433 C 0.91859 0.38028 0.92486
 N434 N 0.91289 0.39762 0.92870
 N435 N 0.92860 0.41856 0.94125
 C436 C 0.95072 0.42314 0.95075
 N437 N 0.95626 0.40552 0.94739
 N438 N 0.94057 0.38454 0.93451
 C439 C 0.90137 0.35795 0.90907
 N440 N 0.90796 0.34228 0.89820
 N441 N 0.89252 0.32318 0.88152
 C442 C 0.86997 0.31909 0.87531
 N443 N 0.86337 0.33457 0.88663
 N444 N 0.87877 0.35363 0.90311
 C445 C 0.85331 0.29949 0.85478
 N446 N 0.83142 0.29688 0.84836
 N447 N 0.81677 0.28064 0.82784
 C448 C 0.82338 0.26630 0.81290
 N449 N 0.84516 0.26859 0.81956
 N450 N 0.85990 0.28494 0.84016
 C451 C 0.52890 0.90843 0.43348
 N452 N 0.50660 0.90585 0.43354
 N453 N 0.50237 0.92134 0.44867
 C454 C 0.52011 0.94009 0.46471
 N455 N 0.54247 0.94251 0.46471
 N456 N 0.54685 0.92707 0.44933
 C457 C 0.53304 0.89135 0.41575
 N458 N 0.55562 0.89523 0.41012
 N459 N 0.55882 0.87995 0.39249
 C460 C 0.53953 0.86027 0.38006
 N461 N 0.51705 0.85637 0.38604
 N462 N 0.51388 0.87162 0.40346
 C463 C 0.54241 0.84376 0.35929
 N464 N 0.52247 0.82425 0.34798
 N465 N 0.52443 0.80967 0.32777
 C466 C 0.54642 0.81402 0.31801
 N467 N 0.56648 0.83344 0.32947
 N468 N 0.56451 0.84808 0.34980
 C469 C 0.37125 0.45918 0.43845
 N470 N 0.38408 0.48016 0.45405
 N471 N 0.40485 0.48575 0.46772
 C472 C 0.41366 0.47061 0.46626
 N473 N 0.40063 0.44938 0.45114
 N474 N 0.37977 0.44375 0.43748
 C475 C 0.34980 0.45454 0.42068
 N476 N 0.33643 0.43370 0.40485
 N477 N 0.31821 0.43060 0.38674
 C478 C 0.31287 0.44830 0.38370
 N479 N 0.32610 0.46898 0.39978
 N480 N 0.34417 0.47202 0.41797
 C481 C 0.29432 0.44605 0.36181
 N482 N 0.29318 0.46571 0.35401
 N483 N 0.27743 0.46434 0.33289
 C484 C 0.26207 0.44321 0.31892
 N485 N 0.26297 0.42343 0.32694
 N486 N 0.27891 0.42485 0.34793
 C487 C 0.07958 0.62332 0.40929
 N488 N 0.08420 0.60527 0.41308
 N489 N 0.06809 0.58504 0.42656
 C490 C 0.04661 0.58184 0.43697
 N491 N 0.04215 0.60015 0.43351
 N492 N 0.05827 0.62047 0.41982
 C493 C 0.09731 0.64495 0.39292
 N494 N 0.09255 0.66244 0.38504
 N495 N 0.10851 0.68123 0.36853
 C496 C 0.12975 0.68312 0.35942
 N497 N 0.13451 0.66574 0.36762
 N498 N 0.11861 0.64704 0.38401
 C499 C 0.14707 0.70275 0.33968
 N500 N 0.16722 0.70284 0.32970
 N501 N 0.18265 0.71969 0.31055
 C502 C 0.17859 0.73716 0.30062
 N503 N 0.15852 0.73728 0.31076
 N504 N 0.14298 0.72032 0.32995
 C505 C 0.91777 0.53599 0.92172
 N506 N 0.93939 0.55401 0.93192
 N507 N 0.95526 0.54922 0.94522
 C508 C 0.95022 0.52628 0.94861
 N509 N 0.92841 0.50843 0.93864
 N510 N 0.91256 0.51315 0.92554
 C511 C 0.90043 0.54057 0.90544
 N512 N 0.87900 0.52182 0.89623
 N513 N 0.86352 0.52527 0.87980
 C514 C 0.86885 0.54762 0.87186
 N515 N 0.89022 0.56650 0.88129
 N516 N 0.90577 0.56303 0.89782
 C517 C 0.85203 0.55071 0.85204
 N518 N 0.85667 0.57268 0.84295
 N519 N 0.84162 0.57489 0.82374
 C520 C 0.82149 0.55520 0.81291
 N521 N 0.81687 0.53334 0.82219
 N522 N 0.83182 0.53115 0.84139
 C523 C 0.46645 0.37356 0.93527
 N524 N 0.44800 0.37729 0.94287
 N525 N 0.45242 0.39773 0.95641
 C526 C 0.47546 0.41531 0.96259
 N527 N 0.49370 0.41114 0.95545
 N528 N 0.48932 0.39077 0.94212
 C529 C 0.46244 0.35224 0.91792
 N530 N 0.48164 0.34980 0.91021
 N531 N 0.47887 0.33177 0.89229
 C532 C 0.45678 0.31542 0.88135
 N533 N 0.43742 0.31759 0.88938
 N534 N 0.44021 0.33572 0.90735
 C535 C 0.45455 0.29686 0.85950
 N536 N 0.43277 0.27999 0.84812
 N537 N 0.43133 0.26419 0.82686
 C538 C 0.45163 0.26483 0.81613
 N539 N 0.47333 0.28159 0.82769
 N540 N 0.47475 0.29726 0.84899
 C541 C 0.62791 0.06567 0.90643
 N542 N 0.62683 0.06951 0.93737
 N543 N 0.60636 0.05657 0.95319
 C544 C 0.58634 0.03922 0.93865
 N545 N 0.58771 0.03491 0.90797
 N546 N 0.60805 0.04800 0.89212
 C547 C 0.64884 0.08231 0.88777
 N548 N 0.64574 0.08522 0.85725
 N549 N 0.66371 0.10212 0.84065
 C550 C 0.68558 0.11651 0.85379
 N551 N 0.68893 0.11334 0.88418
 N552 N 0.67077 0.09663 0.90098
 C553 C 0.70420 0.13654 0.83595
 N554 N 0.72803 0.14390 0.83908
 N555 N 0.74454 0.16202 0.82212
 C556 C 0.73774 0.17366 0.80207
 N557 N 0.71398 0.16642 0.79930
 N558 N 0.69751 0.14809 0.81573
 C559 C 0.08042 0.46918 0.42249
 N560 N 0.08490 0.49195 0.42313
 N561 N 0.06876 0.49703 0.43478
 C562 C 0.04739 0.47964 0.44647
 N563 N 0.04313 0.45681 0.44645
 N564 N 0.05927 0.45164 0.43451
 C565 C 0.09797 0.46408 0.40737
 N566 N 0.09270 0.44139 0.40078
 N567 N 0.10827 0.43744 0.38473
 C568 C 0.12964 0.45604 0.37481
 N569 N 0.13494 0.47861 0.38182
 N570 N 0.11941 0.48254 0.39772
 C571 C 0.14635 0.45238 0.35514
 N572 N 0.16679 0.47163 0.34449
 N573 N 0.18150 0.46893 0.32509
 C574 C 0.17636 0.44686 0.31557
 N575 N 0.15602 0.42749 0.32642
 N576 N 0.14123 0.43021 0.34586
 C577 C 0.53119 0.61918 0.43500
 N578 N 0.50990 0.60626 0.45024
 N579 N 0.50460 0.58600 0.46436
 C580 C 0.52035 0.57779 0.46372
 N581 N 0.54186 0.59090 0.44893
 N582 N 0.54719 0.61125 0.43481
 C583 C 0.53571 0.64027 0.41713
 N584 N 0.55690 0.65377 0.40181
 N585 N 0.56003 0.67184 0.38387
 C586 C 0.54203 0.67692 0.38051
 N587 N 0.52098 0.66354 0.39606
 N588 N 0.51791 0.64561 0.41406
 C589 C 0.54439 0.69549 0.35902
 N590 N 0.52460 0.69683 0.35143
 N591 N 0.52608 0.71272 0.33081
 C592 C 0.54746 0.72802 0.31712
 N593 N 0.56739 0.72691 0.32490
 N594 N 0.56586 0.71084 0.34542
 C595 C 0.37909 0.91406 0.42663
 N596 N 0.38113 0.93369 0.44117
 N597 N 0.40102 0.94831 0.45727
 C598 C 0.41971 0.94405 0.45933
 N599 N 0.41737 0.92435 0.44457
 N600 N 0.39756 0.90968 0.42872
 C601 C 0.35775 0.89776 0.40820
 N602 N 0.35581 0.87726 0.39692
 N603 N 0.33735 0.86263 0.37895
 C604 C 0.32006 0.86791 0.37139
 N605 N 0.32181 0.88837 0.38280
 N606 N 0.34034 0.90304 0.40097
 C607 C 0.30071 0.85201 0.34995
 N608 N 0.28405 0.85736 0.33935
 N609 N 0.26759 0.84325 0.31841
 C610 C 0.26727 0.82336 0.30741
 N611 N 0.28378 0.81799 0.31828
 N612 N 0.30015 0.83202 0.33913
 C613 C 0.53832 0.91662 0.08146
 N614 N 0.55032 0.92521 0.05415
 N615 N 0.54595 0.93950 0.03652
 C616 C 0.52957 0.94581 0.04570
 N617 N 0.51802 0.93753 0.07329
 N618 N 0.52221 0.92315 0.09071
 C619 C 0.54134 0.89947 0.10027
 N620 N 0.52447 0.88646 0.12202
 N621 N 0.52639 0.87044 0.13900
 C622 C 0.54539 0.86695 0.13517
 N623 N 0.56247 0.88007 0.11355
 N624 N 0.56040 0.89598 0.09623
 C625 C 0.54685 0.84902 0.15426
 N626 N 0.56793 0.84910 0.15816
 N627 N 0.56891 0.83325 0.17688
 C628 C 0.54879 0.81666 0.19202
 N629 N 0.52777 0.81649 0.18776
 N630 N 0.52684 0.83241 0.16937
 C631 C 0.37367 0.44881 0.07928
 N632 N 0.38858 0.44161 0.09103
 N633 N 0.40970 0.44800 0.07739
 C634 C 0.41654 0.46163 0.05133
 N635 N 0.40142 0.46844 0.03930
 N636 N 0.38043 0.46224 0.05308
 C637 C 0.35172 0.44416 0.09609
 N638 N 0.34124 0.45738 0.08992
 N639 N 0.32265 0.45485 0.10686
 C640 C 0.31365 0.43882 0.13039
 N641 N 0.32384 0.42526 0.13625
 N642 N 0.34264 0.42797 0.11950
 C643 C 0.29459 0.43773 0.15063
 N644 N 0.28149 0.41879 0.16960
 N645 N 0.26519 0.41870 0.18914
 C646 C 0.26168 0.43769 0.19065
 N647 N 0.27475 0.45655 0.17164
 N648 N 0.29077 0.45650 0.15186
 C649 C 0.08424 0.62491 0.06664
 N650 N 0.06174 0.61039 0.07816
 N651 N 0.04723 0.58920 0.06500
 C652 C 0.05459 0.58188 0.03966
 N653 N 0.07698 0.59653 0.02796
 N654 N 0.09157 0.61760 0.04128
 C655 C 0.10097 0.64740 0.08252
 N656 N 0.12502 0.65828 0.07662
 N657 N 0.14051 0.67768 0.09259
 C658 C 0.13253 0.68709 0.11479
 N659 N 0.10844 0.67645 0.12035
 N660 N 0.09294 0.65689 0.10459
 C661 C 0.14986 0.70712 0.13422
 N662 N 0.14266 0.71966 0.15242
 N663 N 0.15815 0.73657 0.17181
 C664 C 0.18130 0.74134 0.17391
 N665 N 0.18849 0.72890 0.15556
 N666 N 0.17311 0.71224 0.13593
 C667 C 0.46332 0.08609 0.56316
 N668 N 0.44681 0.06238 0.56371
 N669 N 0.45212 0.04651 0.55177
 C670 C 0.47415 0.05378 0.53894
 N671 N 0.49039 0.07753 0.53769
 N672 N 0.48509 0.09337 0.54961
 C673 C 0.45885 0.10345 0.57967
 N674 N 0.47673 0.12659 0.58205
 N675 N 0.47387 0.14199 0.59965
 C676 C 0.45299 0.13487 0.61551
 N677 N 0.43491 0.11181 0.61274
 N678 N 0.43780 0.09636 0.59518
 C679 C 0.45105 0.15144 0.63725
 N680 N 0.43018 0.14511 0.65281
 N681 N 0.42923 0.15969 0.67416
 C682 C 0.44917 0.18103 0.68082
 N683 N 0.46992 0.18738 0.66508
 N684 N 0.47083 0.17290 0.64367
 C685 C 0.61791 0.54368 0.58354
 N686 N 0.60321 0.55143 0.59487
 N687 N 0.58196 0.54458 0.58153
 C688 C 0.57475 0.52988 0.55626
 N689 N 0.58961 0.52243 0.54469
 N690 N 0.61075 0.52912 0.55816
 C691 C 0.64025 0.54927 0.59979
 N692 N 0.65120 0.53643 0.59346
 N693 N 0.67033 0.53996 0.60975
 C694 C 0.67940 0.55664 0.63279
 N695 N 0.66872 0.56980 0.63881
 N696 N 0.64940 0.56610 0.62268
 C697 C 0.69908 0.55879 0.65238
 N698 N 0.71175 0.57800 0.67138
 N699 N 0.72860 0.57897 0.69040
 C700 C 0.73312 0.56062 0.69133
 N701 N 0.72050 0.54152 0.67228
 N702 N 0.70391 0.54069 0.65303
 C703 C 0.91852 0.39282 0.58005
 N704 N 0.92282 0.41468 0.58926
 N705 N 0.93628 0.43383 0.57194
 C706 C 0.94579 0.43188 0.54452
 N707 N 0.94179 0.41002 0.53547
 N708 N 0.92843 0.39083 0.55297
 C709 C 0.90243 0.37174 0.59862
 N710 N 0.90071 0.35022 0.59335
 N711 N 0.88563 0.33122 0.61017
 C712 C 0.87158 0.33305 0.63258
 N713 N 0.87331 0.35453 0.63771
 N714 N 0.88850 0.37352 0.62115
 C715 C 0.85464 0.31234 0.65113
 N716 N 0.83749 0.31348 0.66846
 N717 N 0.82235 0.29516 0.68606
 C718 C 0.82388 0.27505 0.68720
 N719 N 0.84103 0.27383 0.66985
 N720 N 0.85608 0.29213 0.65198
   
