data_POSCAR
  _audit_creation_date              2014-09-24
  _audit_creation_method            'ToBaCCo'
  _symmetry_space_group_name_H-M    'P1'
  _symmetry_Int_Tables_number       1
  _symmetry_cell_setting            triclinic
  loop_
  _symmetry_equiv_pos_as_xyz
 x,y,z
_cell_length_a 21.1771
_cell_length_b 21.1401
_cell_length_c 21.4293
_cell_angle_alpha 89.978500
_cell_angle_beta 90.014900
_cell_angle_gamma 89.985000
loop_
  _atom_site_label
  _atom_site_type_symbol
  _atom_site_fract_x
  _atom_site_fract_y
  _atom_site_fract_z
C1 C 1.24823 0.24807 0.25013
 C2 C 0.75201 -0.24943 0.25010
 C3 C 0.75190 0.24930 -0.24999
 C4 C 1.24825 -0.24786 -0.25014
 C5 C 0.25208 0.25097 0.74989
 C6 C 0.74778 0.74876 0.75080
 C7 C 0.74784 0.25116 0.24945
 C8 C 0.25190 0.74867 0.25039
 O9 O 1.10852 0.03417 0.07811
 O10 O 0.89274 -0.03514 0.07764
 O11 O 0.96725 0.10878 0.07875
 O12 O 1.03564 -0.10876 0.07945
 O13 O 0.88104 0.07157 0.04399
 O14 O 1.12179 -0.07200 0.04447
 O15 O 0.92929 -0.12076 0.04149
 O16 O 1.07388 0.11998 0.04095
 C17 C 1.10147 0.09181 0.08367
 C18 C 0.89895 -0.09299 0.08265
 C19 C 0.90941 0.10155 0.08542
 C20 C 1.09344 -0.10155 0.08626
 O21 O 1.10898 -0.03439 -0.07702
 O22 O 0.89301 0.03458 -0.07735
 O23 O 1.03479 0.10780 -0.07850
 O24 O 0.96753 -0.10987 -0.07786
 O25 O 0.88132 -0.07226 -0.04340
 O26 O 1.12115 0.07169 -0.04332
 O27 O 1.07450 -0.12033 -0.04008
 O28 O 0.92873 0.12016 -0.04063
 Co29 Co 1.10380 -0.00014 0.00056
 Co30 Co 0.89844 -0.00029 0.00021
 Co31 Co 1.00124 0.10278 0.00017
 Co32 Co 1.00175 -0.10357 0.00072
 O33 O 1.00127 -0.00032 0.00044
 C34 C 1.10191 -0.09200 -0.08281
 C35 C 0.89878 0.09250 -0.08214
 C36 C 1.09255 0.10073 -0.08526
 C37 C 0.90970 -0.10233 -0.08474
 O38 O 1.11923 0.57214 0.54298
 O39 O 0.88071 0.42840 0.54367
 O40 O 0.92707 0.62107 0.54105
 O41 O 1.07268 0.37972 0.54136
 O42 O 0.89240 0.53496 0.57771
 O43 O 1.10862 0.46570 0.57713
 O44 O 0.96701 0.39225 0.57876
 O45 O 1.03307 0.60928 0.57761
 C46 C 1.09089 0.60331 0.58342
 C47 C 0.90948 0.39947 0.58548
 C48 C 0.89706 0.59301 0.58253
 C49 C 1.10331 0.40772 0.58232
 O50 O 1.11923 0.42904 0.45601
 O51 O 0.88064 0.57195 0.45648
 O52 O 1.07238 0.62137 0.45797
 O53 O 0.92708 0.37933 0.45894
 O54 O 0.89198 0.46536 0.42240
 O55 O 1.10797 0.53555 0.42168
 O56 O 1.03305 0.39100 0.42212
 O57 O 0.96683 0.60798 0.42114
 Co58 Co 1.10248 0.50058 0.49947
 Co59 Co 0.89750 0.50020 0.50004
 Co60 Co 0.99975 0.60331 0.49945
 Co61 Co 0.99985 0.39715 0.50029
 O62 O 0.99991 0.50029 0.49981
 C63 C 1.09082 0.39725 0.41606
 C64 C 0.90936 0.60059 0.41450
 C65 C 1.10324 0.59368 0.41686
 C66 C 0.89685 0.40731 0.41756
 O67 O 0.60763 0.03559 0.57747
 O68 O 0.39169 -0.03463 0.57742
 O69 O 0.46608 0.10800 0.57763
 O70 O 0.53307 -0.10893 0.57846
 O71 O 0.37998 0.07168 0.54229
 O72 O 0.61912 -0.07170 0.54363
 O73 O 0.42661 -0.12068 0.54112
 O74 O 0.57211 0.12111 0.54027
 C75 C 0.60187 0.09370 0.58219
 C76 C 0.39904 -0.09234 0.58381
 C77 C 0.40851 0.10002 0.58452
 C78 C 0.59060 -0.10040 0.58560
 O79 O 0.60814 -0.03608 0.42255
 O80 O 0.39222 0.03422 0.42130
 O81 O 0.53335 0.10781 0.42079
 O82 O 0.46567 -0.10904 0.42133
 O83 O 0.37966 -0.07218 0.45634
 O84 O 0.61937 0.07108 0.45615
 O85 O 0.57189 -0.12164 0.45914
 O86 O 0.42710 0.12015 0.45790
 Co87 Co 0.60233 -0.00026 0.49994
 Co88 Co 0.39707 -0.00023 0.49935
 Co89 Co 0.49961 0.10273 0.49920
 Co90 Co 0.49931 -0.10358 0.49995
 O91 O 0.49961 -0.00036 0.49960
 C92 C 0.60199 -0.09410 0.41757
 C93 C 0.39949 0.09196 0.41516
 C94 C 0.59093 0.09965 0.41401
 C95 C 0.40807 -0.10095 0.41427
 O96 O 0.60729 0.53392 0.07873
 O97 O 0.38991 0.46690 0.07922
 O98 O 0.46316 0.60829 0.07795
 O99 O 0.53333 0.39226 0.07788
 O100 O 0.37749 0.57348 0.04102
 O101 O 0.61887 0.42711 0.04059
 O102 O 0.42688 0.38050 0.04454
 O103 O 0.56914 0.62017 0.04463
 C104 C 0.60053 0.59190 0.08512
 C105 C 0.39748 0.40910 0.08617
 C106 C 0.40554 0.60154 0.08360
 C107 C 0.59103 0.39901 0.08319
 O108 O 0.60695 0.46650 -0.07849
 O109 O 0.38958 0.53367 -0.07826
 O110 O 0.53309 0.60880 -0.07704
 O111 O 0.46366 0.39273 -0.07699
 O112 O 0.37788 0.42716 -0.03999
 O113 O 0.61865 0.57341 -0.04010
 O114 O 0.56942 0.38031 -0.04390
 O115 O 0.42646 0.62013 -0.04368
 Co116 Co 0.60145 0.50023 0.00018
 Co117 Co 0.39509 0.50030 0.00049
 Co118 Co 0.49796 0.60309 0.00043
 Co119 Co 0.49828 0.39773 0.00043
 O120 O 0.49820 0.50035 0.00040
 C121 C 0.60051 0.40845 -0.08470
 C122 C 0.39721 0.59143 -0.08537
 C123 C 0.59074 0.60165 -0.08260
 C124 C 0.40609 0.39944 -0.08262
 C125 C 1.20536 0.20200 0.20493
 C126 C 1.23861 0.18062 0.14362
 C127 C 1.20369 0.14392 0.10532
 C128 C 1.13786 0.12969 0.12981
 C129 C 1.14784 0.10036 0.19397
 C130 C 1.18240 0.13754 0.23312
 C131 C 1.14249 0.23146 0.18114
 C132 C 1.10800 0.19423 0.14276
 H133 H 1.28666 0.19033 0.13069
 H134 H 1.22233 0.12505 0.06192
 H135 H 1.12836 0.05506 0.20809
 H136 H 1.19023 0.12165 0.28022
 H137 H 1.12488 0.27778 0.19293
 H138 H 1.06268 0.20930 0.12424
 C139 C 1.20158 0.70891 0.70510
 C140 C 1.23322 0.68634 0.64373
 C141 C 1.19606 0.65304 0.60481
 C142 C 1.12906 0.64158 0.62910
 C143 C 1.13827 0.61112 0.69316
 C144 C 1.17551 0.64561 0.73259
 C145 C 1.13976 0.74192 0.68195
 C146 C 1.10310 0.70738 0.64263
 H147 H 1.28190 0.69252 0.63108
 H148 H 1.21429 0.63485 0.56097
 H149 H 1.11673 0.56661 0.70679
 H150 H 1.18381 0.62862 0.77932
 H151 H 1.12471 0.78889 0.69464
 H152 H 1.05906 0.72534 0.62367
 C153 C 0.70710 0.20464 0.70465
 C154 C 0.73881 0.14188 0.68197
 C155 C 0.70418 0.10570 0.64265
 C156 C 0.63934 0.13269 0.62818
 C157 C 0.60835 0.14319 0.69192
 C158 C 0.64291 0.18057 0.73141
 C159 C 0.68579 0.23661 0.64290
 C160 C 0.65222 0.19960 0.60366
 H161 H 0.78529 0.12572 0.69449
 H162 H 0.72177 0.06137 0.62388
 H163 H 0.56300 0.12327 0.70491
 H164 H 0.62507 0.19124 0.77739
 H165 H 0.69262 0.28542 0.63058
 H166 H 0.63417 0.21801 0.55983
 C167 C 0.70708 0.70409 0.20623
 C168 C 0.64469 0.67760 0.23493
 C169 C 0.60976 0.63967 0.19610
 C170 C 0.63875 0.63073 0.13112
 C171 C 0.64890 0.69822 0.10707
 C172 C 0.68254 0.73576 0.14551
 C173 C 0.73987 0.64249 0.18202
 C174 C 0.70496 0.60561 0.14328
 H175 H 0.62854 0.68691 0.28183
 H176 H 0.56566 0.61801 0.21050
 H177 H 0.62896 0.71674 0.06409
 H178 H 0.68711 0.78479 0.13324
 H179 H 0.78719 0.62776 0.19343
 H180 H 0.72309 0.56188 0.12369
 C181 C 0.79515 -0.20379 0.20455
 C182 C 0.81759 -0.23591 0.14331
 C183 C 0.85054 -0.19875 0.10411
 C184 C 0.86155 -0.13147 0.12813
 C185 C 0.79590 -0.10568 0.14152
 C186 C 0.76178 -0.14229 0.18095
 C187 C 0.85849 -0.17756 0.23158
 C188 C 0.89237 -0.14011 0.19198
 H189 H 0.81196 -0.28480 0.13100
 H190 H 0.86901 -0.21723 0.06050
 H191 H 0.77747 -0.06205 0.12194
 H192 H 0.71467 -0.12748 0.19296
 H193 H 0.87615 -0.18629 0.27799
 H194 H 0.93691 -0.11851 0.20517
 C195 C 0.79931 0.29257 0.70593
 C196 C 0.82294 0.25974 0.64510
 C197 C 0.85947 0.29558 0.60734
 C198 C 0.87192 0.36188 0.63186
 C199 C 0.80666 0.39029 0.64374
 C200 C 0.76947 0.35507 0.68146
 C201 C 0.86266 0.31637 0.73537
 C202 C 0.89996 0.35212 0.69689
 H203 H 0.81557 0.21119 0.63234
 H204 H 0.88006 0.27702 0.56469
 H205 H 0.79097 0.43536 0.62499
 H206 H 0.72273 0.37194 0.69226
 H207 H 0.87778 0.30728 0.78260
 H208 H 0.94475 0.37196 0.71178
 C209 C 0.29329 -0.20217 0.70556
 C210 C 0.31949 -0.13960 0.73500
 C211 C 0.35476 -0.10253 0.69597
 C212 C 0.36252 -0.13032 0.63066
 C213 C 0.38984 -0.19657 0.64177
 C214 C 0.35460 -0.23339 0.68028
 C215 C 0.26024 -0.17753 0.64516
 C216 C 0.29588 -0.14132 0.60722
 H217 H 0.31329 -0.12526 0.78286
 H218 H 0.37647 -0.05857 0.71094
 H219 H 0.43435 -0.21286 0.62239
 H220 H 0.37053 -0.28053 0.69161
 H221 H 0.21169 -0.18435 0.63255
 H222 H 0.27710 -0.12047 0.56473
 C223 C 0.29189 0.29600 0.20656
 C224 C 0.35497 0.26732 0.18264
 C225 C 0.38968 0.30539 0.14495
 C226 C 0.36028 0.37050 0.13278
 C227 C 0.29445 0.35668 0.10801
 C228 C 0.25922 0.31917 0.14546
 C229 C 0.31472 0.35971 0.23628
 C230 C 0.34967 0.39807 0.19791
 H231 H 0.37260 0.22090 0.19418
 H232 H 0.43524 0.29068 0.12676
 H233 H 0.27587 0.37668 0.06506
 H234 H 0.21115 0.31015 0.13214
 H235 H 0.30601 0.37409 0.28378
 H236 H 0.36883 0.44312 0.21311
 C237 C 0.79504 0.20357 -0.20435
 C238 C 0.81753 0.23566 -0.14311
 C239 C 0.85047 0.19845 -0.10387
 C240 C 0.86140 0.13109 -0.12779
 C241 C 0.79570 0.10546 -0.14123
 C242 C 0.76161 0.14213 -0.18072
 C243 C 0.85834 0.17721 -0.23131
 C244 C 0.89219 0.13967 -0.19167
 H245 H 0.81196 0.28457 -0.13085
 H246 H 0.86901 0.21693 -0.06028
 H247 H 0.77722 0.06186 -0.12166
 H248 H 0.71449 0.12740 -0.19278
 H249 H 0.87601 0.18595 -0.27771
 H250 H 0.93668 0.11798 -0.20485
 C251 C 0.79934 0.70729 0.29413
 C252 C 0.82293 0.74012 0.35497
 C253 C 0.85941 0.70428 0.39273
 C254 C 0.87186 0.63801 0.36817
 C255 C 0.80665 0.60956 0.35626
 C256 C 0.76948 0.64479 0.31854
 C257 C 0.86270 0.68347 0.26470
 C258 C 0.89998 0.64774 0.30320
 H259 H 0.81561 0.78868 0.36773
 H260 H 0.88000 0.72282 0.43540
 H261 H 0.79099 0.56448 0.37501
 H262 H 0.72276 0.62791 0.30773
 H263 H 0.87785 0.69253 0.21749
 H264 H 0.94480 0.62790 0.28838
 C265 C 0.29336 0.20233 0.29428
 C266 C 0.31943 0.13981 0.26458
 C267 C 0.35480 0.10258 0.30334
 C268 C 0.36280 0.13014 0.36866
 C269 C 0.39014 0.19641 0.35772
 C270 C 0.35475 0.23343 0.31951
 C271 C 0.26052 0.17762 0.35473
 C272 C 0.29626 0.14116 0.39240
 H273 H 0.31316 0.12564 0.21668
 H274 H 0.37646 0.05867 0.28813
 H275 H 0.43469 0.21260 0.37707
 H276 H 0.37058 0.28066 0.30846
 H277 H 0.21209 0.18479 0.36766
 H278 H 0.27769 0.12035 0.43498
 C279 C 0.29190 0.70419 -0.20650
 C280 C 0.31475 0.64037 -0.23598
 C281 C 0.34964 0.60211 -0.19739
 C282 C 0.36017 0.62989 -0.13229
 C283 C 0.38961 0.69493 -0.14465
 C284 C 0.35499 0.73286 -0.18259
 C285 C 0.25915 0.68117 -0.14539
 C286 C 0.29432 0.64382 -0.10773
 H287 H 0.30604 0.62585 -0.28345
 H288 H 0.36879 0.55698 -0.21239
 H289 H 0.43518 0.70963 -0.12648
 H290 H 0.37271 0.77917 -0.19443
 H291 H 0.21098 0.68995 -0.13229
 H292 H 0.27560 0.62384 -0.06484
 C293 C 1.20545 -0.20174 -0.20487
 C294 C 1.18239 -0.13722 -0.23284
 C295 C 1.14790 -0.10014 -0.19346
 C296 C 1.13815 -0.12966 -0.12930
 C297 C 1.10830 -0.19416 -0.14238
 C298 C 1.14264 -0.23123 -0.18103
 C299 C 1.23891 -0.18041 -0.14363
 C300 C 1.20408 -0.14392 -0.10508
 H301 H 1.19017 -0.12122 -0.27992
 H302 H 1.12839 -0.05478 -0.20737
 H303 H 1.06301 -0.20925 -0.12385
 H304 H 1.12493 -0.27743 -0.19306
 H305 H 1.28711 -0.18979 -0.13100
 H306 H 1.22294 -0.12499 -0.06179
 C307 C 1.20158 0.29126 0.29490
 C308 C 1.23316 0.31379 0.35633
 C309 C 1.19595 0.34721 0.39512
 C310 C 1.12900 0.35876 0.37065
 C311 C 1.13833 0.38912 0.30660
 C312 C 1.17558 0.35455 0.26731
 C313 C 1.13974 0.25831 0.31803
 C314 C 1.10301 0.29297 0.35717
 H315 H 1.28176 0.30725 0.36919
 H316 H 1.21403 0.36525 0.43909
 H317 H 1.11681 0.43362 0.29286
 H318 H 1.18387 0.37147 0.22057
 H319 H 1.12474 0.21127 0.30554
 H320 H 1.05897 0.27506 0.37615
 C321 C 0.70724 -0.20480 0.29538
 C322 C 0.64305 -0.18074 0.26855
 C323 C 0.60846 -0.14344 0.30802
 C324 C 0.63949 -0.13297 0.37173
 C325 C 0.65242 -0.19983 0.39632
 C326 C 0.68598 -0.23680 0.35710
 C327 C 0.73894 -0.14204 0.31805
 C328 C 0.70429 -0.10589 0.35733
 H329 H 0.62522 -0.19134 0.22255
 H330 H 0.56309 -0.12352 0.29503
 H331 H 0.63442 -0.21823 0.44016
 H332 H 0.69283 -0.28560 0.36946
 H333 H 0.78542 -0.12587 0.30559
 H334 H 0.72184 -0.06157 0.37614
 C335 C 0.70696 0.29590 -0.20607
 C336 C 0.73981 0.35744 -0.18181
 C337 C 0.70496 0.39439 -0.14303
 C338 C 0.63868 0.36946 -0.13085
 C339 C 0.60972 0.36057 -0.19590
 C340 C 0.64460 0.32254 -0.23475
 C341 C 0.68235 0.26429 -0.14536
 C342 C 0.64874 0.30190 -0.10690
 H343 H 0.78713 0.37210 -0.19327
 H344 H 0.72315 0.43810 -0.12346
 H345 H 0.56566 0.38233 -0.21033
 H346 H 0.62844 0.31321 -0.28165
 H347 H 0.68686 0.21523 -0.13314
 H348 H 0.62874 0.28338 -0.06397
 C349 C 1.20446 0.20699 -0.20643
 C350 C 1.14106 0.18346 -0.23600
 C351 C 1.10316 0.14819 -0.19743
 C352 C 1.13079 0.13809 -0.13216
 C353 C 1.19602 0.10920 -0.14422
 C354 C 1.23362 0.14411 -0.18220
 C355 C 1.18099 0.23978 -0.14550
 C356 C 1.14400 0.20429 -0.10780
 H357 H 1.12661 0.19196 -0.28354
 H358 H 1.05847 0.12838 -0.21259
 H359 H 1.21111 0.06376 -0.12583
 H360 H 1.28003 0.12672 -0.19385
 H361 H 1.18919 0.28818 -0.13258
 H362 H 1.12377 0.22299 -0.06503
 C363 C 1.20975 0.70403 0.29425
 C364 C 1.24067 0.64490 0.31671
 C365 C 1.20419 0.60680 0.35841
 C366 C 1.14198 0.63229 0.37094
 C367 C 1.15309 0.69601 0.39393
 C368 C 1.18835 0.73459 0.35275
 C369 C 1.14936 0.67931 0.26825
 C370 C 1.11282 0.64054 0.31008
 H371 H 1.28712 0.62844 0.30450
 H372 H 1.22178 0.56261 0.37757
 H373 H 1.13417 0.71511 0.43712
 H374 H 1.19209 0.78364 0.36482
 H375 H 1.13242 0.68578 0.22135
 H376 H 1.06878 0.61821 0.29638
 C377 C 0.70187 0.20585 0.29333
 C378 C 0.63940 0.18006 0.26342
 C379 C 0.60195 0.14473 0.30204
 C380 C 0.62926 0.13636 0.36744
 C381 C 0.69540 0.10874 0.35650
 C382 C 0.73257 0.14411 0.31840
 C383 C 0.67723 0.23860 0.35386
 C384 C 0.64056 0.20290 0.39132
 H385 H 0.62544 0.18642 0.21548
 H386 H 0.55806 0.12326 0.28666
 H387 H 0.71138 0.06402 0.37578
 H388 H 0.77964 0.12803 0.30728
 H389 H 0.68451 0.28703 0.36698
 H390 H 0.61969 0.22154 0.43382
 C391 C 0.70173 0.70556 -0.20402
 C392 C 0.63738 0.68257 -0.23226
 C393 C 0.60003 0.64814 -0.19309
 C394 C 0.62904 0.63809 -0.12880
 C395 C 0.69358 0.60811 -0.14172
 C396 C 0.73092 0.64253 -0.18025
 C397 C 0.68036 0.73884 -0.14269
 C398 C 0.64345 0.70402 -0.10444
 H399 H 0.62175 0.69010 -0.27947
 H400 H 0.55486 0.62862 -0.20734
 H401 H 0.70850 0.56272 -0.12313
 H402 H 0.77709 0.62481 -0.19233
 H403 H 0.69027 0.78691 -0.12968
 H404 H 0.62455 0.72282 -0.06112
 C405 C 0.79584 -0.20762 -0.20551
 C406 C 0.81922 -0.24071 -0.14467
 C407 C 0.85696 -0.20571 -0.10714
 C408 C 0.87074 -0.13956 -0.13144
 C409 C 0.89785 -0.14978 -0.19682
 C410 C 0.85934 -0.18448 -0.23529
 C411 C 0.76738 -0.14458 -0.18109
 C412 C 0.80557 -0.11009 -0.14322
 H413 H 0.81016 -0.28894 -0.13164
 H414 H 0.87718 -0.22468 -0.06447
 H415 H 0.94275 -0.13049 -0.21212
 H416 H 0.87350 -0.19273 -0.28291
 H417 H 0.72100 -0.12687 -0.19254
 H418 H 0.79091 -0.06463 -0.12464
 C419 C 0.79107 0.29750 0.29471
 C420 C 0.81347 0.26522 0.35595
 C421 C 0.84703 0.30193 0.39517
 C422 C 0.85860 0.36922 0.37154
 C423 C 0.88891 0.36052 0.30735
 C424 C 0.85432 0.32373 0.26752
 C425 C 0.75836 0.35930 0.31829
 C426 C 0.79292 0.39547 0.35810
 H427 H 0.80692 0.21640 0.36825
 H428 H 0.86532 0.28321 0.43878
 H429 H 0.93340 0.38210 0.29392
 H430 H 0.87115 0.31594 0.22068
 H431 H 0.71158 0.37472 0.30550
 H432 H 0.77507 0.43942 0.37746
 C433 C 0.29652 -0.20787 0.29265
 C434 C 0.32184 -0.24007 0.35383
 C435 C 0.35831 -0.20415 0.39127
 C436 C 0.36970 -0.13778 0.36739
 C437 C 0.39696 -0.14634 0.30206
 C438 C 0.35959 -0.18175 0.26331
 C439 C 0.26655 -0.14538 0.31806
 C440 C 0.30379 -0.11017 0.35624
 H441 H 0.31592 -0.28847 0.36759
 H442 H 0.37940 -0.22278 0.43371
 H443 H 0.44074 -0.12473 0.28666
 H444 H 0.37430 -0.18768 0.21559
 H445 H 0.21984 -0.12826 0.30715
 H446 H 0.28801 -0.06524 0.37521
 C447 C 0.29761 0.29434 -0.20472
 C448 C 0.31902 0.26121 -0.14330
 C449 C 0.35497 0.29657 -0.10468
 C450 C 0.36869 0.36268 -0.12903
 C451 C 0.39838 0.35295 -0.19311
 C452 C 0.36187 0.31787 -0.23250
 C453 C 0.26754 0.35712 -0.18115
 C454 C 0.30408 0.39195 -0.14240
 H455 H 0.31011 0.21287 -0.13058
 H456 H 0.37387 0.27798 -0.06124
 H457 H 0.44340 0.37300 -0.20702
 H458 H 0.37805 0.31000 -0.27949
 H459 H 0.22132 0.37446 -0.19344
 H460 H 0.28854 0.43722 -0.12401
 C461 C 1.20629 -0.20865 0.20814
 C462 C 1.18231 -0.24071 0.14645
 C463 C 1.14535 -0.20503 0.10885
 C464 C 1.13204 -0.13903 0.13323
 C465 C 1.10446 -0.14929 0.19833
 C466 C 1.14225 -0.18456 0.23706
 C467 C 1.23485 -0.14511 0.18359
 C468 C 1.19716 -0.11025 0.14549
 H469 H 1.18998 -0.28886 0.13254
 H470 H 1.12522 -0.22356 0.06595
 H471 H 1.05971 -0.12950 0.21339
 H472 H 1.12675 -0.19243 0.28428
 H473 H 1.28107 -0.12703 0.19470
 H474 H 1.21221 -0.06483 0.12706
 C475 C 1.20873 0.29727 0.70474
 C476 C 1.18651 0.26530 0.64334
 C477 C 1.15318 0.30230 0.60417
 C478 C 1.14145 0.36945 0.62818
 C479 C 1.11092 0.36032 0.69221
 C480 C 1.14534 0.32318 0.73187
 C481 C 1.24145 0.35926 0.68151
 C482 C 1.20698 0.39569 0.64189
 H483 H 1.19292 0.21650 0.63092
 H484 H 1.13509 0.28388 0.56036
 H485 H 1.06648 0.38193 0.70567
 H486 H 1.12827 0.31487 0.77856
 H487 H 1.28819 0.37465 0.69437
 H488 H 1.22480 0.43982 0.62288
 C489 C 0.70174 -0.20597 0.70685
 C490 C 0.73231 -0.14425 0.68169
 C491 C 0.69508 -0.10908 0.64339
 C492 C 0.62898 -0.13684 0.63242
 C493 C 0.64044 -0.20342 0.60878
 C494 C 0.67717 -0.23892 0.64637
 C495 C 0.63921 -0.18015 0.73663
 C496 C 0.60166 -0.14504 0.69784
 H497 H 0.77928 -0.12802 0.69298
 H498 H 0.71095 -0.06434 0.62409
 H499 H 0.61960 -0.22225 0.56634
 H500 H 0.68446 -0.28738 0.63340
 H501 H 0.62533 -0.18624 0.78463
 H502 H 0.55777 -0.12353 0.71313
 C503 C 0.70186 0.29445 0.20426
 C504 C 0.68045 0.26136 0.14284
 C505 C 0.64358 0.29639 0.10466
 C506 C 0.62929 0.36229 0.12923
 C507 C 0.60026 0.35211 0.19346
 C508 C 0.63754 0.31746 0.23252
 C509 C 0.73116 0.35747 0.18061
 C510 C 0.69386 0.39209 0.14220
 H511 H 0.69036 0.21332 0.12970
 H512 H 0.62467 0.27777 0.06127
 H513 H 0.55509 0.37162 0.20774
 H514 H 0.62184 0.30969 0.27967
 H515 H 0.77741 0.37501 0.19258
 H516 H 0.70889 0.43745 0.12364
 C517 C 0.79583 0.20748 0.20578
 C518 C 0.76721 0.14449 0.18139
 C519 C 0.80532 0.10980 0.14367
 C520 C 0.87054 0.13904 0.13193
 C521 C 0.85694 0.20521 0.10747
 C522 C 0.81928 0.24041 0.14492
 C523 C 0.85928 0.18425 0.23564
 C524 C 0.89768 0.14932 0.19729
 H525 H 0.72075 0.12696 0.19266
 H526 H 0.79053 0.06439 0.12509
 H527 H 0.87719 0.22401 0.06476
 H528 H 0.81028 0.28866 0.13182
 H529 H 0.87351 0.19270 0.28322
 H530 H 0.94256 0.12999 0.21264
 C531 C 0.79107 0.70241 0.70559
 C532 C 0.75848 0.64060 0.68195
 C533 C 0.79309 0.60457 0.64204
 C534 C 0.85875 0.63094 0.62865
 C535 C 0.84705 0.69823 0.60514
 C536 C 0.81344 0.73481 0.64440
 C537 C 0.85435 0.67617 0.73278
 C538 C 0.88903 0.63954 0.69288
 H539 H 0.71178 0.62506 0.69485
 H540 H 0.77536 0.56058 0.62267
 H541 H 0.86535 0.71708 0.56161
 H542 H 0.80689 0.78365 0.63219
 H543 H 0.87110 0.68377 0.77969
 H544 H 0.93352 0.61793 0.70632
 C545 C 0.29816 0.20601 0.70585
 C546 C 0.36072 0.18019 0.73552
 C547 C 0.39796 0.14480 0.69672
 C548 C 0.37045 0.13667 0.63133
 C549 C 0.30440 0.10908 0.64240
 C550 C 0.26740 0.14435 0.68069
 C551 C 0.32273 0.23901 0.64541
 C552 C 0.35914 0.20333 0.60767
 H553 H 0.37486 0.18668 0.78341
 H554 H 0.44176 0.12311 0.71199
 H555 H 0.28840 0.06433 0.62321
 H556 H 0.22042 0.12816 0.69195
 H557 H 0.31572 0.28758 0.63263
 H558 H 0.37994 0.22210 0.56518
 C559 C 0.29580 0.70694 0.20642
 C560 C 0.36072 0.68304 0.23367
 C561 C 0.39732 0.64813 0.19417
 C562 C 0.36780 0.63832 0.13014
 C563 C 0.30339 0.60893 0.14344
 C564 C 0.26656 0.64350 0.18222
 C565 C 0.31779 0.73962 0.14442
 C566 C 0.35386 0.70426 0.10591
 H567 H 0.37757 0.69022 0.28049
 H568 H 0.44239 0.62814 0.20808
 H569 H 0.28809 0.56362 0.12495
 H570 H 0.22062 0.62515 0.19383
 H571 H 0.30952 0.78778 0.13088
 H572 H 0.37284 0.72289 0.06253
   
