data_POSCAR
  _audit_creation_date              2014-09-24
  _audit_creation_method            'ToBaCCo'
  _symmetry_space_group_name_H-M    'P1'
  _symmetry_Int_Tables_number       1
  _symmetry_cell_setting            triclinic
  loop_
  _symmetry_equiv_pos_as_xyz
 x,y,z
_cell_length_a 53.6166
_cell_length_b 53.7237
_cell_length_c 53.8747
_cell_angle_alpha 89.998400
_cell_angle_beta 90.002600
_cell_angle_gamma 89.998800
loop_
  _atom_site_label
  _atom_site_type_symbol
  _atom_site_fract_x
  _atom_site_fract_y
  _atom_site_fract_z
N1 N 0.28999 0.24001 0.22062
 N2 N 0.27998 0.26024 0.21111
 C3 C 0.29328 0.26722 0.19104
 C4 C 0.31247 0.25044 0.18798
 C5 C 0.30995 0.23342 0.20694
 H6 H 0.28935 0.28322 0.17951
 H7 H 0.32172 0.21746 0.21049
 Cu8 Cu 0.25053 0.27531 0.22589
 Cu9 Cu 0.27642 0.22372 0.24996
 Cu10 Cu 0.22356 0.25011 0.27624
 N11 N 0.22074 0.28981 0.24057
 N12 N 0.21026 0.27980 0.26027
 C13 C 0.19004 0.29326 0.26659
 C14 C 0.18787 0.31262 0.24997
 C15 C 0.20753 0.31002 0.23370
 H16 H 0.17784 0.28927 0.28207
 H17 H 0.21181 0.32193 0.21809
 N18 N 0.23980 0.22006 0.28968
 N19 N 0.25992 0.21002 0.27967
 C20 C 0.26655 0.18989 0.29307
 C21 C 0.24981 0.18730 0.31226
 C22 C 0.23310 0.20659 0.30970
 H23 H 0.28237 0.17801 0.28924
 H24 H 0.21733 0.21049 0.32158
 H25 H 0.24010 0.23543 0.24484
 H26 H 0.26019 0.25506 0.26526
 N27 N 0.70985 -0.24012 0.21988
 N28 N 0.72014 -0.26007 0.21006
 C29 C 0.70691 -0.26697 0.18992
 C30 C 0.68745 -0.25042 0.18718
 C31 C 0.68974 -0.23363 0.20637
 H32 H 0.71104 -0.28276 0.17817
 H33 H 0.67771 -0.21794 0.21023
 Cu34 Cu 0.74967 -0.27507 0.22484
 Cu35 Cu 0.72326 -0.22404 0.24944
 Cu36 Cu 0.77612 -0.25038 0.27573
 N37 N 0.77945 -0.28962 0.23954
 N38 N 0.78964 -0.27988 0.25954
 C39 C 0.80974 -0.29343 0.26601
 C40 C 0.81214 -0.31255 0.24915
 C41 C 0.79276 -0.30974 0.23258
 H42 H 0.82166 -0.28969 0.28178
 H43 H 0.78869 -0.32146 0.21677
 N44 N 0.75970 -0.22052 0.28935
 N45 N 0.73956 -0.21048 0.27934
 C46 C 0.73289 -0.19039 0.29278
 C47 C 0.74961 -0.18780 0.31200
 C48 C 0.76634 -0.20707 0.30941
 H49 H 0.71709 -0.17849 0.28891
 H50 H 0.78215 -0.21093 0.32126
 H51 H 0.75975 -0.23543 0.24442
 H52 H 0.73966 -0.25547 0.26445
 N53 N 0.71072 0.24010 0.77966
 N54 N 0.72124 0.25982 0.78968
 C55 C 0.70804 0.26669 0.80985
 C56 C 0.68835 0.25038 0.81242
 C57 C 0.69050 0.23376 0.79307
 H58 H 0.71230 0.28234 0.82174
 H59 H 0.67826 0.21827 0.78904
 Cu60 Cu 0.75089 0.27460 0.77495
 Cu61 Cu 0.72394 0.22412 0.74995
 Cu62 Cu 0.77684 0.25049 0.72363
 N63 N 0.78055 0.28938 0.76021
 N64 N 0.79052 0.27989 0.73998
 C65 C 0.81049 0.29358 0.73341
 C66 C 0.81304 0.31256 0.75043
 C67 C 0.79386 0.30949 0.76720
 H68 H 0.82221 0.29005 0.71744
 H69 H 0.78991 0.32106 0.78315
 N70 N 0.76026 0.22072 0.70989
 N71 N 0.74013 0.21069 0.71992
 C72 C 0.73340 0.19063 0.70647
 C73 C 0.75008 0.18804 0.68721
 C74 C 0.76685 0.20728 0.68980
 H75 H 0.71762 0.17872 0.71037
 H76 H 0.78268 0.21110 0.67796
 H77 H 0.76052 0.23512 0.75479
 H78 H 0.74045 0.25557 0.73520
 N79 N 0.29002 -0.24052 0.77969
 N80 N 0.28004 -0.26077 0.78919
 C81 C 0.29333 -0.26772 0.80928
 C82 C 0.31251 -0.25090 0.81235
 C83 C 0.30996 -0.23389 0.79337
 H84 H 0.28938 -0.28368 0.82085
 H85 H 0.32169 -0.21790 0.78985
 Cu86 Cu 0.25040 -0.27558 0.77443
 Cu87 Cu 0.27640 -0.22417 0.75035
 Cu88 Cu 0.22351 -0.25057 0.72404
 N89 N 0.22075 -0.29039 0.75969
 N90 N 0.21024 -0.28035 0.74000
 C91 C 0.19002 -0.29380 0.73367
 C92 C 0.18787 -0.31318 0.75029
 C93 C 0.20754 -0.31061 0.76657
 H94 H 0.17779 -0.28976 0.71821
 H95 H 0.21180 -0.32248 0.78222
 N96 N 0.23975 -0.22047 0.71063
 N97 N 0.25988 -0.21043 0.72065
 C98 C 0.26653 -0.19030 0.70725
 C99 C 0.24980 -0.18769 0.68803
 C100 C 0.23308 -0.20698 0.69060
 H101 H 0.28237 -0.17845 0.71107
 H102 H 0.21732 -0.21088 0.67869
 H103 H 0.23999 -0.23574 0.75539
 H104 H 0.26007 -0.25542 0.73506
 N105 N 0.71051 -0.24020 0.77962
 N106 N 0.72080 -0.26015 0.78942
 C107 C 0.70755 -0.26705 0.80954
 C108 C 0.68810 -0.25052 0.81232
 C109 C 0.69041 -0.23373 0.79314
 H110 H 0.71171 -0.28281 0.82132
 H111 H 0.67841 -0.21800 0.78935
 Cu112 Cu 0.75057 -0.27489 0.77492
 Cu113 Cu 0.72393 -0.22406 0.75012
 Cu114 Cu 0.77674 -0.25042 0.72377
 N115 N 0.78002 -0.28973 0.75988
 N116 N 0.79019 -0.27999 0.73987
 C117 C 0.81025 -0.29358 0.73334
 C118 C 0.81263 -0.31272 0.75018
 C119 C 0.79329 -0.30989 0.76678
 H120 H 0.82218 -0.28980 0.71760
 H121 H 0.78926 -0.32158 0.78263
 N122 N 0.76036 -0.22051 0.71023
 N123 N 0.74025 -0.21047 0.72027
 C124 C 0.73354 -0.19039 0.70684
 C125 C 0.75022 -0.18782 0.68758
 C126 C 0.76697 -0.20707 0.69015
 H127 H 0.71773 -0.17851 0.71070
 H128 H 0.78274 -0.21096 0.67825
 H129 H 0.74036 -0.25552 0.73528
 H130 H 0.76048 -0.23530 0.75509
 N131 N 0.28988 0.23983 0.77947
 N132 N 0.27965 0.25983 0.78924
 C133 C 0.29291 0.26672 0.80935
 C134 C 0.31231 0.25014 0.81215
 C135 C 0.30996 0.23332 0.79300
 H136 H 0.28883 0.28253 0.82109
 H137 H 0.32194 0.21757 0.78922
 Cu138 Cu 0.25004 0.27480 0.77469
 Cu139 Cu 0.27647 0.22371 0.75000
 Cu140 Cu 0.22367 0.25008 0.72373
 N141 N 0.22043 0.28940 0.75976
 N142 N 0.21022 0.27961 0.73982
 C143 C 0.19012 0.29317 0.73333
 C144 C 0.18775 0.31235 0.75012
 C145 C 0.20716 0.30955 0.76665
 H146 H 0.17815 0.28937 0.71763
 H147 H 0.21123 0.32131 0.78243
 N148 N 0.24002 0.22020 0.71017
 N149 N 0.26014 0.21015 0.72017
 C150 C 0.26681 0.19006 0.70674
 C151 C 0.25009 0.18751 0.68752
 C152 C 0.23336 0.20677 0.69011
 H153 H 0.28261 0.17817 0.71060
 H154 H 0.21756 0.21065 0.67824
 H155 H 0.26015 0.25521 0.73513
 H156 H 0.24004 0.23512 0.75513
 N157 N 0.29035 -0.24010 0.22073
 N158 N 0.28036 -0.26034 0.21123
 C159 C 0.29366 -0.26734 0.19118
 C160 C 0.31285 -0.25056 0.18814
 C161 C 0.31033 -0.23352 0.20708
 H162 H 0.28969 -0.28330 0.17961
 H163 H 0.32207 -0.21754 0.21060
 Cu164 Cu 0.25071 -0.27508 0.22588
 Cu165 Cu 0.27672 -0.22372 0.25002
 Cu166 Cu 0.22378 -0.25006 0.27624
 N167 N 0.22111 -0.28983 0.24061
 N168 N 0.21058 -0.27979 0.26027
 C169 C 0.19035 -0.29322 0.26656
 C170 C 0.18822 -0.31258 0.24995
 C171 C 0.20791 -0.31003 0.23372
 H172 H 0.17808 -0.28918 0.28198
 H173 H 0.21216 -0.32192 0.21808
 N174 N 0.23999 -0.22001 0.28964
 N175 N 0.26015 -0.20998 0.27967
 C176 C 0.26677 -0.18987 0.29308
 C177 C 0.24999 -0.18729 0.31224
 C178 C 0.23327 -0.20655 0.30965
 H179 H 0.28263 -0.17803 0.28931
 H180 H 0.21749 -0.21045 0.32152
 H181 H 0.26033 -0.25498 0.26527
 H182 H 0.24029 -0.23526 0.24491
 N183 N 0.70985 0.23980 0.22045
 N184 N 0.72012 0.25978 0.21068
 C185 C 0.70686 0.26673 0.19059
 C186 C 0.68742 0.25020 0.18781
 C187 C 0.68974 0.23336 0.20694
 H188 H 0.71100 0.28251 0.17884
 H189 H 0.67775 0.21762 0.21070
 Cu190 Cu 0.74989 0.27448 0.22512
 Cu191 Cu 0.72330 0.22361 0.24989
 Cu192 Cu 0.77614 0.24996 0.27619
 N193 N 0.77932 0.28928 0.24014
 N194 N 0.78953 0.27952 0.26010
 C195 C 0.80960 0.29310 0.26659
 C196 C 0.81195 0.31226 0.24979
 C197 C 0.79257 0.30944 0.23324
 H198 H 0.82157 0.28932 0.28230
 H199 H 0.78853 0.32116 0.21742
 N200 N 0.75981 0.22005 0.28970
 N201 N 0.73969 0.21000 0.27969
 C202 C 0.73303 0.18991 0.29312
 C203 C 0.74977 0.18735 0.31233
 C204 C 0.76648 0.20661 0.30975
 H205 H 0.71723 0.17802 0.28928
 H206 H 0.78227 0.21050 0.32162
 H207 H 0.73973 0.25506 0.26473
 H208 H 0.75983 0.23486 0.24487
 C209 C 0.25001 0.07826 0.51284
 C210 C 0.24997 0.07827 0.48735
 C211 C 0.24996 0.05354 0.47991
 N212 N 0.25000 0.03859 0.50008
 C213 C 0.25003 0.05352 0.52027
 C214 C 0.24993 0.04544 0.45485
 C215 C 0.24996 0.02024 0.44690
 C216 C 0.25011 0.01266 0.42226
 C217 C 0.25012 -0.01296 0.42228
 C218 C 0.24999 -0.02051 0.44693
 N219 N 0.24985 -0.00013 0.46165
 C220 C 0.24998 -0.04571 0.45492
 C221 C 0.25003 -0.05383 0.47997
 C222 C 0.25006 -0.07857 0.48739
 C223 C 0.25012 -0.07859 0.51288
 C224 C 0.25014 -0.05386 0.52033
 N225 N 0.25008 -0.03891 0.50016
 C226 C 0.25018 -0.04577 0.54539
 C227 C 0.25016 -0.02055 0.55333
 C228 C 0.25011 -0.01297 0.57798
 C229 C 0.25006 0.01265 0.57795
 C230 C 0.25009 0.02020 0.55330
 N231 N 0.25017 -0.00018 0.53859
 C232 C 0.25005 0.04540 0.54532
 H233 H 0.25003 0.09464 0.52453
 H234 H 0.24996 0.09466 0.47567
 H235 H 0.25031 -0.00018 0.51957
 H236 H 0.25020 0.02434 0.40589
 H237 H 0.25022 -0.02466 0.40592
 H238 H 0.25004 -0.09495 0.47569
 H239 H 0.25016 -0.09498 0.52456
 H240 H 0.25003 0.02435 0.59431
 H241 H 0.24955 -0.00014 0.48066
 H242 H 0.25010 -0.02465 0.59435
 C243 C 0.74980 0.07822 0.48720
 C244 C 0.74991 0.07824 0.51268
 C245 C 0.74993 0.05351 0.52013
 N246 N 0.74981 0.03856 0.49996
 C247 C 0.74973 0.05349 0.47977
 C248 C 0.74998 0.04541 0.54520
 C249 C 0.74993 0.02020 0.55314
 C250 C 0.74964 0.01261 0.57778
 C251 C 0.74962 -0.01301 0.57776
 C252 C 0.74990 -0.02056 0.55311
 N253 N 0.75018 -0.00018 0.53839
 C254 C 0.74991 -0.04577 0.54513
 C255 C 0.74983 -0.05389 0.52007
 C256 C 0.74977 -0.07862 0.51264
 C257 C 0.74963 -0.07863 0.48715
 C258 C 0.74959 -0.05390 0.47970
 N259 N 0.74972 -0.03896 0.49988
 C260 C 0.74952 -0.04580 0.45464
 C261 C 0.74959 -0.02059 0.44670
 C262 C 0.74990 -0.01300 0.42206
 C263 C 0.74995 0.01262 0.42208
 C264 C 0.74966 0.02017 0.44673
 N265 N 0.74935 -0.00022 0.46145
 C266 C 0.74967 0.04537 0.45471
 H267 H 0.74978 0.09460 0.47550
 H268 H 0.74996 0.09463 0.52436
 H269 H 0.74868 -0.00021 0.48046
 H270 H 0.74947 0.02429 0.59415
 H271 H 0.74943 -0.02470 0.59412
 H272 H 0.74981 -0.09500 0.52433
 H273 H 0.74958 -0.09502 0.47546
 H274 H 0.75016 0.02432 0.40572
 H275 H 0.75083 -0.00018 0.51938
 H276 H 0.75007 -0.02467 0.40568
 C277 C 0.51277 0.25052 0.07803
 C278 C 0.48717 0.25056 0.07805
 C279 C 0.47968 0.25057 0.05339
 N280 N 0.49995 0.25054 0.03848
 C281 C 0.52024 0.25050 0.05337
 C282 C 0.45450 0.25060 0.04531
 C283 C 0.44652 0.25059 0.02018
 C284 C 0.42175 0.25048 0.01262
 C285 C 0.42177 0.25049 -0.01292
 C286 C 0.44654 0.25061 -0.02045
 N287 N 0.46133 0.25071 -0.00013
 C288 C 0.45457 0.25063 -0.04557
 C289 C 0.47974 0.25058 -0.05367
 C290 C 0.48719 0.25057 -0.07834
 C291 C 0.51280 0.25049 -0.07836
 C292 C 0.52029 0.25045 -0.05370
 N293 N 0.50003 0.25050 -0.03879
 C294 C 0.54547 0.25041 -0.04563
 C295 C 0.55346 0.25043 -0.02049
 C296 C 0.57822 0.25063 -0.01293
 C297 C 0.57821 0.25065 0.01261
 C298 C 0.55343 0.25047 0.02014
 N299 N 0.53865 0.25028 -0.00018
 C300 C 0.54541 0.25049 0.04527
 H301 H 0.52452 0.25051 0.09437
 H302 H 0.47543 0.25057 0.09439
 H303 H 0.51954 0.24988 -0.00017
 H304 H 0.40530 0.25040 0.02427
 H305 H 0.40533 0.25043 -0.02458
 H306 H 0.47544 0.25062 -0.09467
 H307 H 0.52454 0.25048 -0.09470
 H308 H 0.59464 0.25079 0.02428
 H309 H 0.48044 0.25100 -0.00013
 H310 H 0.59467 0.25074 -0.02458
 C311 C 0.48767 0.74945 0.07848
 C312 C 0.51328 0.74943 0.07851
 C313 C 0.52077 0.74947 0.05386
 N314 N 0.50050 0.74952 0.03894
 C315 C 0.48021 0.74951 0.05382
 C316 C 0.54596 0.74947 0.04579
 C317 C 0.55395 0.74950 0.02065
 C318 C 0.57871 0.74957 0.01309
 C319 C 0.57870 0.74958 -0.01246
 C320 C 0.55393 0.74950 -0.02000
 N321 N 0.53914 0.74944 0.00033
 C322 C 0.54591 0.74949 -0.04514
 C323 C 0.52073 0.74953 -0.05323
 C324 C 0.51326 0.74957 -0.07790
 C325 C 0.48765 0.74961 -0.07792
 C326 C 0.48016 0.74959 -0.05327
 N327 N 0.50044 0.74955 -0.03835
 C328 C 0.45497 0.74959 -0.04520
 C329 C 0.44699 0.74957 -0.02005
 C330 C 0.42223 0.74949 -0.01250
 C331 C 0.42225 0.74947 0.01305
 C332 C 0.44702 0.74954 0.02058
 N333 N 0.46181 0.74963 0.00026
 C334 C 0.45504 0.74953 0.04571
 H335 H 0.47591 0.74942 0.09482
 H336 H 0.52501 0.74939 0.09486
 H337 H 0.48091 0.74978 0.00027
 H338 H 0.59516 0.74961 0.02474
 H339 H 0.59514 0.74962 -0.02412
 H340 H 0.52502 0.74958 -0.09423
 H341 H 0.47591 0.74964 -0.09426
 H342 H 0.40581 0.74940 0.02471
 H343 H 0.52003 0.74928 0.00032
 H344 H 0.40578 0.74945 -0.02414
 C345 C 0.07799 0.51323 0.24945
 C346 C 0.07802 0.48768 0.24943
 C347 C 0.05325 0.48019 0.24939
 N348 N 0.03826 0.50041 0.24940
 C349 C 0.05319 0.52066 0.24943
 C350 C 0.04516 0.45506 0.24935
 C351 C 0.01990 0.44710 0.24936
 C352 C 0.01231 0.42239 0.24947
 C353 C -0.01336 0.42241 0.24944
 C354 C -0.02092 0.44714 0.24930
 N355 N -0.00050 0.46189 0.24923
 C356 C -0.04616 0.45515 0.24923
 C357 C -0.05432 0.48026 0.24922
 C358 C -0.07911 0.48769 0.24919
 C359 C -0.07915 0.51324 0.24921
 C360 C -0.05438 0.52073 0.24925
 N361 N -0.03938 0.50051 0.24926
 C362 C -0.04629 0.54586 0.24926
 C363 C -0.02103 0.55383 0.24929
 C364 C -0.01344 0.57854 0.24917
 C365 C 0.01223 0.57852 0.24921
 C366 C 0.01980 0.55379 0.24936
 N367 N -0.00062 0.53904 0.24945
 C368 C 0.04504 0.54578 0.24940
 H369 H 0.09439 0.52497 0.24947
 H370 H 0.09446 0.47597 0.24943
 H371 H -0.00060 0.51998 0.24972
 H372 H 0.02400 0.40597 0.24957
 H373 H -0.02508 0.40601 0.24950
 H374 H -0.09551 0.47594 0.24917
 H375 H -0.09559 0.52494 0.24919
 H376 H 0.02396 0.59492 0.24914
 H377 H -0.00052 0.48096 0.24898
 H378 H -0.02514 0.59496 0.24905
 C379 C 0.07834 0.48763 0.75056
 C380 C 0.07837 0.51318 0.75055
 C381 C 0.05360 0.52067 0.75054
 N382 N 0.03861 0.50044 0.75053
 C383 C 0.05355 0.48018 0.75055
 C384 C 0.04550 0.54581 0.75056
 C385 C 0.02022 0.55377 0.75054
 C386 C 0.01261 0.57847 0.75055
 C387 C -0.01306 0.57844 0.75056
 C388 C -0.02062 0.55371 0.75055
 N389 N -0.00019 0.53896 0.75053
 C390 C -0.04588 0.54569 0.75057
 C391 C -0.05401 0.52056 0.75053
 C392 C -0.07880 0.51311 0.75051
 C393 C -0.07883 0.48755 0.75048
 C394 C -0.05406 0.48007 0.75048
 N395 N -0.03907 0.50031 0.75050
 C396 C -0.04596 0.45493 0.75046
 C397 C -0.02068 0.44698 0.75046
 C398 C -0.01307 0.42228 0.75042
 C399 C 0.01260 0.42231 0.75044
 C400 C 0.02016 0.44704 0.75050
 N401 N -0.00027 0.46178 0.75051
 C402 C 0.04541 0.45505 0.75055
 H403 H 0.09475 0.47589 0.75057
 H404 H 0.09480 0.52489 0.75056
 H405 H -0.00026 0.48085 0.75059
 H406 H 0.02431 0.59489 0.75056
 H407 H -0.02479 0.59484 0.75057
 H408 H -0.09521 0.52485 0.75051
 H409 H -0.09526 0.47584 0.75045
 H410 H 0.02433 0.40591 0.75042
 H411 H -0.00020 0.51990 0.75051
 H412 H -0.02476 0.40585 0.75037
 C413 C 0.36610 0.25065 0.13353
 C414 C 0.36560 0.27389 0.11696
 C415 C 0.38349 0.27388 0.09899
 C416 C 0.40012 0.25062 0.09936
 C417 C 0.38199 0.22858 0.09755
 C418 C 0.36410 0.22859 0.11552
 C419 C 0.39278 0.24944 0.14378
 C420 C 0.41067 0.24942 0.12582
 C421 C 0.34689 0.25064 0.15292
 C422 C 0.33116 0.25058 0.16891
 C423 C 0.41941 0.25060 0.08008
 C424 C 0.43533 0.25060 0.06429
 H425 H 0.35233 0.28901 0.11912
 H426 H 0.38555 0.28897 0.08575
 H427 H 0.38309 0.21425 0.08338
 H428 H 0.34986 0.21427 0.11675
 H429 H 0.39724 0.24867 0.16343
 H430 H 0.43045 0.24863 0.13007
 C431 C 0.63442 0.74928 0.13407
 C432 C 0.60801 0.74475 0.14409
 C433 C 0.59008 0.74479 0.12615
 C434 C 0.60033 0.74936 0.09994
 C435 C 0.62035 0.72929 0.09617
 C436 C 0.63827 0.72924 0.11411
 C437 C 0.63272 0.77390 0.11971
 C438 C 0.61480 0.77395 0.10177
 C439 C 0.65374 0.74927 0.15338
 C440 C 0.66960 0.74937 0.16926
 C441 C 0.58103 0.74941 0.08063
 C442 C 0.56513 0.74944 0.06479
 H443 H 0.60375 0.74176 0.16357
 H444 H 0.57048 0.74186 0.13026
 H445 H 0.62044 0.71626 0.08077
 H446 H 0.65371 0.71616 0.11409
 H447 H 0.64455 0.78990 0.12332
 H448 H 0.61128 0.78998 0.09001
 C449 C 0.63412 0.25076 -0.13367
 C450 C 0.62590 0.22454 -0.12581
 C451 C 0.60791 0.22447 -0.10794
 C452 C 0.59990 0.25062 -0.09967
 C453 C 0.59200 0.26392 -0.12363
 C454 C 0.60999 0.26400 -0.14151
 C455 C 0.64210 0.26363 -0.10951
 C456 C 0.62412 0.26356 -0.09163
 C457 C 0.65350 0.25078 -0.15291
 C458 C 0.66942 0.25067 -0.16872
 C459 C 0.58056 0.25053 -0.08043
 C460 C 0.56464 0.25047 -0.06462
 H461 H 0.63351 0.20753 -0.13362
 H462 H 0.60013 0.20740 -0.10043
 H463 H 0.57387 0.27251 -0.12632
 H464 H 0.60726 0.27266 -0.15951
 H465 H 0.66028 0.27208 -0.10669
 H466 H 0.62689 0.27192 -0.07350
 C467 C 0.36628 0.74920 -0.13325
 C468 C 0.37594 0.72314 -0.12657
 C469 C 0.39390 0.72324 -0.10867
 C470 C 0.40045 0.74938 -0.09919
 C471 C 0.37555 0.76057 -0.09063
 C472 C 0.35758 0.76047 -0.10853
 C473 C 0.38963 0.76411 -0.14039
 C474 C 0.40759 0.76420 -0.12249
 C475 C 0.34698 0.74909 -0.15258
 C476 C 0.33121 0.74905 -0.16855
 C477 C 0.41982 0.74947 -0.07996
 C478 C 0.43578 0.74954 -0.06418
 H479 H 0.36924 0.70611 -0.13512
 H480 H 0.40258 0.70629 -0.10189
 H481 H 0.37231 0.76790 -0.07213
 H482 H 0.33896 0.76773 -0.10537
 H483 H 0.39185 0.77377 -0.15795
 H484 H 0.42520 0.77393 -0.12472
 C485 C 0.13369 0.36669 0.24935
 C486 C 0.11534 0.36457 0.27112
 C487 C 0.09734 0.38248 0.27110
 C488 C 0.09945 0.40075 0.24930
 C489 C 0.09929 0.38437 0.22596
 C490 C 0.11730 0.36646 0.22598
 C491 C 0.14405 0.39328 0.25090
 C492 C 0.12605 0.41119 0.25087
 C493 C 0.15306 0.34741 0.24945
 C494 C 0.16897 0.33155 0.24964
 C495 C 0.08010 0.42004 0.24930
 C496 C 0.06423 0.43593 0.24933
 H497 H 0.11637 0.35024 0.28529
 H498 H 0.08295 0.38348 0.28524
 H499 H 0.08618 0.38662 0.21077
 H500 H 0.11962 0.35337 0.21080
 H501 H 0.16380 0.39766 0.25189
 H502 H 0.13037 0.43091 0.25186
 C503 C 0.13445 0.63391 0.75082
 C504 C 0.11569 0.63654 0.77219
 C505 C 0.09759 0.61872 0.77216
 C506 C 0.10002 0.60001 0.75076
 C507 C 0.12654 0.58948 0.75306
 C508 C 0.14463 0.60730 0.75309
 C509 C 0.11851 0.63375 0.72715
 C510 C 0.10041 0.61594 0.72712
 C511 C 0.15394 0.65312 0.75078
 C512 C 0.16992 0.66893 0.75061
 C513 C 0.08055 0.58080 0.75071
 C514 C 0.06460 0.56495 0.75064
 H515 H 0.11656 0.65111 0.78613
 H516 H 0.08295 0.61804 0.78606
 H517 H 0.13073 0.56976 0.75455
 H518 H 0.16433 0.60284 0.75461
 H519 H 0.12119 0.64653 0.71176
 H520 H 0.08760 0.61346 0.71171
 C521 C -0.13487 0.63418 0.24895
 C522 C -0.13014 0.62279 0.27466
 C523 C -0.11214 0.60487 0.27471
 C524 C -0.10066 0.60010 0.24905
 C525 C -0.09130 0.62562 0.24026
 C526 C -0.10929 0.64354 0.24021
 C527 C -0.14086 0.61196 0.23206
 C528 C -0.12287 0.59404 0.23211
 C529 C -0.15421 0.65351 0.24893
 C530 C -0.17005 0.66944 0.24898
 C531 C -0.08129 0.58083 0.24911
 C532 C -0.06538 0.56497 0.24917
 H533 H -0.14005 0.62829 0.29135
 H534 H -0.10665 0.59502 0.29143
 H535 H -0.07222 0.62929 0.23459
 H536 H -0.10562 0.66257 0.23449
 H537 H -0.15775 0.61042 0.22105
 H538 H -0.12434 0.57714 0.22115
 C539 C -0.13424 0.36617 0.75056
 C540 C -0.11749 0.36569 0.72745
 C541 C -0.09960 0.38371 0.72742
 C542 C -0.10019 0.40046 0.75050
 C543 C -0.09832 0.38253 0.77260
 C544 C -0.11621 0.36451 0.77264
 C545 C -0.14479 0.39272 0.75154
 C546 C -0.12689 0.41075 0.75151
 C547 C -0.15349 0.34672 0.75058
 C548 C -0.16924 0.33068 0.75054
 C549 C -0.08091 0.41985 0.75047
 C550 C -0.06504 0.43578 0.75045
 H551 H -0.11952 0.35237 0.71243
 H552 H -0.08629 0.38582 0.71237
 H553 H -0.08418 0.38386 0.78696
 H554 H -0.11740 0.35042 0.78704
 H555 H -0.16457 0.39699 0.75220
 H556 H -0.13134 0.43045 0.75213
 C557 C 0.24992 0.13349 0.36644
 C558 C 0.26145 0.10873 0.35803
 C559 C 0.26144 0.09087 0.37599
 C560 C 0.24992 0.09952 0.40060
 C561 C 0.22375 0.10886 0.39377
 C562 C 0.22375 0.12672 0.37581
 C563 C 0.26457 0.14086 0.38980
 C564 C 0.26457 0.12300 0.40776
 C565 C 0.24990 0.15270 0.34709
 C566 C 0.24986 0.16848 0.33119
 C567 C 0.24992 0.08030 0.41991
 C568 C 0.24992 0.06447 0.43577
 H569 H 0.26895 0.10551 0.33959
 H570 H 0.26894 0.07235 0.37295
 H571 H 0.20672 0.10206 0.40231
 H572 H 0.20671 0.13522 0.36896
 H573 H 0.27408 0.15856 0.39204
 H574 H 0.27407 0.12540 0.42540
 C575 C 0.75002 0.13379 0.63339
 C576 C 0.74308 0.10785 0.64315
 C577 C 0.74305 0.08989 0.62527
 C578 C 0.74997 0.09963 0.59939
 C579 C 0.77536 0.11240 0.60275
 C580 C 0.77539 0.13035 0.62063
 C581 C 0.73156 0.13885 0.61220
 C582 C 0.73154 0.12090 0.59432
 C583 C 0.75005 0.15315 0.65262
 C584 C 0.75007 0.16907 0.66840
 C585 C 0.74996 0.08032 0.58014
 C586 C 0.74996 0.06446 0.56429
 H587 H 0.73858 0.10392 0.66241
 H588 H 0.73854 0.07059 0.62921
 H589 H 0.79187 0.10775 0.59204
 H590 H 0.79192 0.14107 0.62523
 H591 H 0.71957 0.15511 0.61131
 H592 H 0.71953 0.12178 0.57812
 C593 C 0.25008 -0.13383 0.63384
 C594 C 0.25095 -0.10719 0.64410
 C595 C 0.25100 -0.08933 0.62613
 C596 C 0.25017 -0.09986 0.59966
 C597 C 0.22702 -0.11666 0.59906
 C598 C 0.22697 -0.13451 0.61703
 C599 C 0.27238 -0.13562 0.61606
 C600 C 0.27243 -0.11776 0.59809
 C601 C 0.24999 -0.15306 0.65320
 C602 C 0.24990 -0.16886 0.66910
 C603 C 0.25020 -0.08063 0.58034
 C604 C 0.25020 -0.06480 0.56447
 H605 H 0.25150 -0.10273 0.66375
 H606 H 0.25159 -0.06958 0.63039
 H607 H 0.21200 -0.11472 0.58568
 H608 H 0.21190 -0.14787 0.61904
 H609 H 0.28686 -0.14968 0.61746
 H610 H 0.28694 -0.11652 0.58409
 C611 C 0.74958 -0.13380 0.36606
 C612 C 0.76666 -0.13984 0.38812
 C613 C 0.76664 -0.12199 0.40610
 C614 C 0.74953 -0.09984 0.40026
 C615 C 0.72376 -0.11135 0.39553
 C616 C 0.72379 -0.12920 0.37755
 C617 C 0.75826 -0.10818 0.35684
 C618 C 0.75823 -0.09032 0.37482
 C619 C 0.74960 -0.15304 0.34672
 C620 C 0.74961 -0.16889 0.33087
 C621 C 0.74952 -0.08063 0.41962
 C622 C 0.74951 -0.06483 0.43553
 H623 H 0.77780 -0.15666 0.38951
 H624 H 0.77774 -0.12353 0.42288
 H625 H 0.70697 -0.10595 0.40542
 H626 H 0.70702 -0.13908 0.37204
 H627 H 0.76390 -0.10438 0.33787
 H628 H 0.76385 -0.07124 0.37125
 C629 C 0.63429 0.74933 -0.13339
 C630 C 0.62720 0.72320 -0.12428
 C631 C 0.60930 0.72322 -0.10632
 C632 C 0.60025 0.74938 -0.09924
 C633 C 0.59171 0.76121 -0.12375
 C634 C 0.60961 0.76119 -0.14170
 C635 C 0.64183 0.76364 -0.10990
 C636 C 0.62393 0.76367 -0.09194
 C637 C 0.65354 0.74931 -0.15274
 C638 C 0.66933 0.74934 -0.16867
 C639 C 0.58097 0.74942 -0.07995
 C640 C 0.56508 0.74945 -0.06412
 H641 H 0.63552 0.70617 -0.13131
 H642 H 0.60228 0.70622 -0.09796
 H643 H 0.57323 0.76892 -0.12673
 H644 H 0.60647 0.76888 -0.16007
 H645 H 0.65966 0.77293 -0.10757
 H646 H 0.62642 0.77297 -0.07422
 C647 C 0.36615 0.25049 -0.13368
 C648 C 0.35601 0.25590 -0.10758
 C649 C 0.37393 0.25596 -0.08964
 C650 C 0.40021 0.25058 -0.09958
 C651 C 0.40454 0.27005 -0.11998
 C652 C 0.38662 0.27000 -0.13791
 C653 C 0.38004 0.22562 -0.13128
 C654 C 0.39796 0.22567 -0.11334
 C655 C 0.34689 0.25041 -0.15299
 C656 C 0.33109 0.25031 -0.16889
 C657 C 0.41950 0.25062 -0.08033
 C658 C 0.43541 0.25063 -0.06453
 H659 H 0.33648 0.25940 -0.10355
 H660 H 0.36976 0.25949 -0.07024
 H661 H 0.42027 0.28277 -0.12029
 H662 H 0.38700 0.28268 -0.15360
 H663 H 0.37615 0.20939 -0.14265
 H664 H 0.40941 0.20949 -0.10934
 C665 C 0.36650 0.74932 0.13376
 C666 C 0.38971 0.73408 0.14063
 C667 C 0.40765 0.73413 0.12271
 C668 C 0.40061 0.74941 0.09968
 C669 C 0.39431 0.77544 0.10960
 C670 C 0.37638 0.77540 0.12752
 C671 C 0.35766 0.73854 0.10887
 C672 C 0.37560 0.73859 0.09095
 C673 C 0.34726 0.74929 0.15309
 C674 C 0.33152 0.74932 0.16906
 C675 C 0.41993 0.74946 0.08045
 C676 C 0.43586 0.74949 0.06468
 H677 H 0.39186 0.72411 0.15802
 H678 H 0.42517 0.72422 0.12476
 H679 H 0.40314 0.79243 0.10310
 H680 H 0.36983 0.79234 0.13637
 H681 H 0.33896 0.73152 0.10560
 H682 H 0.37227 0.73163 0.07232
 C683 C 0.63368 0.25055 0.13353
 C684 C 0.64398 0.25512 0.10733
 C685 C 0.62609 0.25514 0.08936
 C686 C 0.59968 0.25059 0.09937
 C687 C 0.59576 0.27064 0.11929
 C688 C 0.61365 0.27062 0.13726
 C689 C 0.61924 0.22596 0.13169
 C690 C 0.60135 0.22598 0.11373
 C691 C 0.65291 0.25050 0.15287
 C692 C 0.66867 0.25040 0.16881
 C693 C 0.58043 0.25059 0.08007
 C694 C 0.56455 0.25055 0.06425
 H695 H 0.66359 0.25808 0.10325
 H696 H 0.63036 0.25811 0.06989
 H697 H 0.58030 0.28369 0.11929
 H698 H 0.61352 0.28366 0.15265
 H699 H 0.62275 0.20993 0.14347
 H700 H 0.58953 0.20997 0.11012
 C701 C -0.13432 0.63411 0.75057
 C702 C -0.12960 0.62271 0.77627
 C703 C -0.11163 0.60476 0.77631
 C704 C -0.10016 0.59998 0.75065
 C705 C -0.09076 0.62549 0.74187
 C706 C -0.10873 0.64344 0.74183
 C707 C -0.14034 0.61190 0.73367
 C708 C -0.12238 0.59396 0.73371
 C709 C -0.15366 0.65342 0.75051
 C710 C -0.16952 0.66932 0.75039
 C711 C -0.08084 0.58069 0.75066
 C712 C -0.06495 0.56481 0.75063
 H713 H -0.13949 0.62823 0.79297
 H714 H -0.10613 0.59491 0.79304
 H715 H -0.07168 0.62914 0.73620
 H716 H -0.10503 0.66246 0.73612
 H717 H -0.15723 0.61039 0.72266
 H718 H -0.12388 0.57707 0.72275
 C719 C -0.13418 0.36649 0.24934
 C720 C -0.13359 0.38193 0.22537
 C721 C -0.11572 0.39996 0.22533
 C722 C -0.10021 0.40076 0.24925
 C723 C -0.08971 0.37434 0.25223
 C724 C -0.10758 0.35632 0.25228
 C725 C -0.13718 0.38560 0.27031
 C726 C -0.11932 0.40363 0.27026
 C727 C -0.15341 0.34713 0.24942
 C728 C -0.16922 0.33122 0.24955
 C729 C -0.08100 0.42012 0.24922
 C730 C -0.06519 0.43604 0.24922
 H731 H -0.14611 0.37895 0.20981
 H732 H -0.11292 0.41244 0.20973
 H733 H -0.06999 0.37017 0.25412
 H734 H -0.10318 0.33669 0.25421
 H735 H -0.15204 0.38502 0.28399
 H736 H -0.11886 0.41851 0.28389
 C737 C 0.13378 0.36658 0.75050
 C738 C 0.12034 0.36928 0.77551
 C739 C 0.10239 0.38724 0.77556
 C740 C 0.09965 0.40073 0.75060
 C741 C 0.09501 0.38003 0.73152
 C742 C 0.11296 0.36207 0.73146
 C743 C 0.14377 0.39270 0.74459
 C744 C 0.12582 0.41066 0.74464
 C745 C 0.15308 0.34725 0.75042
 C746 C 0.16892 0.33134 0.75031
 C747 C 0.08035 0.42005 0.75062
 C748 C 0.06448 0.43593 0.75060
 H749 H 0.12455 0.35807 0.79175
 H750 H 0.09122 0.39142 0.79184
 H751 H 0.07902 0.37950 0.71916
 H752 H 0.11235 0.34616 0.71905
 H753 H 0.16323 0.39673 0.74073
 H754 H 0.12990 0.43008 0.74084
 C755 C 0.13385 0.63367 0.24928
 C756 C 0.11562 0.63583 0.27114
 C757 C 0.09752 0.61803 0.27112
 C758 C 0.09944 0.59984 0.24925
 C759 C 0.12598 0.58923 0.25068
 C760 C 0.14408 0.60702 0.25069
 C761 C 0.11738 0.63409 0.22597
 C762 C 0.09927 0.61629 0.22596
 C763 C 0.15331 0.65281 0.24936
 C764 C 0.16927 0.66858 0.24957
 C765 C 0.08002 0.58069 0.24927
 C766 C 0.06410 0.56487 0.24932
 H767 H 0.11680 0.65010 0.28536
 H768 H 0.08319 0.61705 0.28533
 H769 H 0.13019 0.56947 0.25158
 H770 H 0.16381 0.60253 0.25159
 H771 H 0.11973 0.64721 0.21082
 H772 H 0.08610 0.61415 0.21081
 C773 C 0.75001 -0.13388 0.63352
 C774 C 0.73171 -0.11252 0.63865
 C775 C 0.73166 -0.09463 0.62071
 C776 C 0.74992 -0.09986 0.59940
 C777 C 0.74279 -0.12580 0.58978
 C778 C 0.74284 -0.14368 0.60772
 C779 C 0.77543 -0.12122 0.62990
 C780 C 0.77538 -0.10334 0.61196
 C781 C 0.75008 -0.15313 0.65283
 C782 C 0.75014 -0.16896 0.66869
 C783 C 0.74988 -0.08062 0.58009
 C784 C 0.74988 -0.06480 0.56422
 H785 H 0.71984 -0.11152 0.65495
 H786 H 0.71975 -0.07831 0.62164
 H787 H 0.73811 -0.12976 0.57057
 H788 H 0.73820 -0.16297 0.60388
 H789 H 0.79200 -0.12589 0.64050
 H790 H 0.79190 -0.09268 0.60720
 C791 C 0.25005 -0.13360 0.36646
 C792 C 0.26713 -0.13969 0.38851
 C793 C 0.26711 -0.12186 0.40650
 C794 C 0.25001 -0.09971 0.40066
 C795 C 0.22423 -0.11120 0.39594
 C796 C 0.22425 -0.12903 0.37796
 C797 C 0.25873 -0.10799 0.35726
 C798 C 0.25871 -0.09016 0.37525
 C799 C 0.25006 -0.15277 0.34710
 C800 C 0.25004 -0.16851 0.33118
 C801 C 0.24999 -0.08052 0.41998
 C802 C 0.24999 -0.06472 0.43585
 H803 H 0.27825 -0.15652 0.38988
 H804 H 0.27820 -0.12342 0.42329
 H805 H 0.20745 -0.10582 0.40587
 H806 H 0.20749 -0.13893 0.37247
 H807 H 0.26439 -0.10419 0.33829
 H808 H 0.26434 -0.07108 0.37169
 C809 C 0.74979 0.13345 0.36638
 C810 C 0.76131 0.10871 0.35794
 C811 C 0.76130 0.09083 0.37588
 C812 C 0.74977 0.09946 0.40050
 C813 C 0.72360 0.10880 0.39367
 C814 C 0.72361 0.12668 0.37572
 C815 C 0.76443 0.14080 0.38974
 C816 C 0.76442 0.12293 0.40769
 C817 C 0.74978 0.15269 0.34707
 C818 C 0.74977 0.16850 0.33121
 C819 C 0.74975 0.08023 0.41979
 C820 C 0.74972 0.06440 0.43564
 H821 H 0.76882 0.10550 0.33950
 H822 H 0.76879 0.07230 0.37282
 H823 H 0.70657 0.10199 0.40218
 H824 H 0.70658 0.13518 0.36886
 H825 H 0.77396 0.15849 0.39199
 H826 H 0.77393 0.12530 0.42532
 C827 C 0.25006 0.13357 0.63353
 C828 C 0.25698 0.14338 0.60767
 C829 C 0.25695 0.12548 0.58975
 C830 C 0.25001 0.09953 0.59947
 C831 C 0.22464 0.10291 0.61222
 C832 C 0.22466 0.12082 0.63014
 C833 C 0.26849 0.11229 0.63855
 C834 C 0.26846 0.09439 0.62063
 C835 C 0.25008 0.15283 0.65281
 C836 C 0.25009 0.16865 0.66866
 C837 C 0.25000 0.08027 0.58021
 C838 C 0.25002 0.06443 0.56438
 H839 H 0.26148 0.16269 0.60377
 H840 H 0.26142 0.12944 0.57050
 H841 H 0.20811 0.09220 0.60758
 H842 H 0.20815 0.12545 0.64085
 H843 H 0.28051 0.11137 0.65474
 H844 H 0.28045 0.07812 0.62148
   
