data_POSCAR
  _audit_creation_date              2014-09-24
  _audit_creation_method            'ToBaCCo'
  _symmetry_space_group_name_H-M    'P1'
  _symmetry_Int_Tables_number       1
  _symmetry_cell_setting            triclinic
  loop_
  _symmetry_equiv_pos_as_xyz
 x,y,z
_cell_length_a 42.0683
_cell_length_b 41.9893
_cell_length_c 42.0645
_cell_angle_alpha 89.944800
_cell_angle_beta 90.026400
_cell_angle_gamma 90.026300
loop_
  _atom_site_label
  _atom_site_type_symbol
  _atom_site_fract_x
  _atom_site_fract_y
  _atom_site_fract_z
C1 C 0.27337 0.25039 0.22591
 C2 C 0.24980 0.27396 0.22589
 C3 C 0.22626 0.27398 0.24944
 C4 C 0.22630 0.25040 0.27303
 C5 C 0.24985 0.22682 0.27308
 C6 C 0.27338 0.22683 0.24952
 H7 H 0.24978 0.29221 0.20762
 H8 H 0.20808 0.25040 0.29127
 H9 H 0.29162 0.20858 0.24955
 C10 C 0.72599 -0.25064 0.22594
 C11 C 0.72597 -0.22712 0.24958
 C12 C 0.74956 -0.22708 0.27309
 C13 C 0.77321 -0.25056 0.27300
 C14 C 0.77330 -0.27411 0.24939
 C15 C 0.74968 -0.27413 0.22586
 H16 H 0.70768 -0.20890 0.24972
 H17 H 0.79146 -0.25046 0.29125
 H18 H 0.74972 -0.29236 0.20757
 C19 C 0.72729 0.25071 0.77323
 C20 C 0.72735 0.22710 0.74971
 C21 C 0.75092 0.22709 0.72620
 C22 C 0.77446 0.25071 0.72619
 C23 C 0.77444 0.27437 0.74970
 C24 C 0.75082 0.27433 0.77322
 H25 H 0.70914 0.20881 0.74972
 H26 H 0.79269 0.25064 0.70795
 H27 H 0.75071 0.29259 0.79146
 C28 C 0.27324 -0.25099 0.77419
 C29 C 0.24957 -0.27448 0.77427
 C30 C 0.22596 -0.27444 0.75073
 C31 C 0.22607 -0.25084 0.72711
 C32 C 0.24974 -0.22735 0.72703
 C33 C 0.27331 -0.22744 0.75057
 H34 H 0.24958 -0.29269 0.79259
 H35 H 0.20784 -0.25072 0.70885
 H36 H 0.29162 -0.20925 0.75051
 C37 C 0.72666 -0.25097 0.77416
 C38 C 0.75025 -0.27450 0.77420
 C39 C 0.77382 -0.27444 0.75065
 C40 C 0.77375 -0.25082 0.72708
 C41 C 0.75014 -0.22730 0.72706
 C42 C 0.72660 -0.22738 0.75060
 H43 H 0.75021 -0.29274 0.79249
 H44 H 0.79195 -0.25068 0.70881
 H45 H 0.70833 -0.20917 0.75057
 C46 C 0.27324 0.25019 0.77321
 C47 C 0.24968 0.27375 0.77325
 C48 C 0.22606 0.27371 0.74977
 C49 C 0.22600 0.25012 0.72625
 C50 C 0.24956 0.22656 0.72621
 C51 C 0.27318 0.22660 0.74969
 H52 H 0.24972 0.29202 0.79146
 H53 H 0.20771 0.25009 0.70807
 H54 H 0.29143 0.20836 0.74966
 C55 C 0.27479 -0.24994 0.22558
 C56 C 0.25104 -0.27338 0.22546
 C57 C 0.22744 -0.27328 0.24893
 C58 C 0.22755 -0.24977 0.27252
 C59 C 0.25126 -0.22635 0.27267
 C60 C 0.27488 -0.22643 0.24921
 H61 H 0.25088 -0.29163 0.20721
 H62 H 0.20926 -0.24970 0.29070
 H63 H 0.29322 -0.20824 0.24939
 C64 C 0.72629 0.25013 0.22641
 C65 C 0.72631 0.22652 0.24996
 C66 C 0.74983 0.22654 0.27353
 C67 C 0.77335 0.25017 0.27355
 C68 C 0.77334 0.27377 0.25001
 C69 C 0.74981 0.27375 0.22644
 H70 H 0.70809 0.20823 0.24994
 H71 H 0.79157 0.25018 0.29181
 H72 H 0.74980 0.29203 0.20820
 O73 O 0.22397 0.03054 0.46890
 O74 O 0.22401 -0.03155 0.53077
 O75 O 0.22377 0.03044 0.53077
 O76 O 0.22423 -0.03143 0.46888
 O77 O 0.27681 -0.03120 0.46908
 O78 O 0.27635 0.03067 0.53096
 O79 O 0.27658 -0.03132 0.53098
 O80 O 0.27655 0.03078 0.46909
 Cu81 Cu 0.21868 -0.00053 0.49981
 Cu82 Cu 0.28189 -0.00025 0.50005
 C83 C 0.25025 0.04114 0.45855
 C84 C 0.25030 -0.04190 0.54132
 C85 C 0.24999 0.04100 0.54130
 C86 C 0.25059 -0.04174 0.45853
 O87 O 0.77646 0.03046 0.53102
 O88 O 0.77618 -0.03158 0.46920
 O89 O 0.77634 0.03040 0.46915
 O90 O 0.77628 -0.03154 0.53110
 O91 O 0.72371 -0.03142 0.53117
 O92 O 0.72376 0.03051 0.46923
 O93 O 0.72360 -0.03147 0.46928
 O94 O 0.72389 0.03057 0.53110
 Cu95 Cu 0.78163 -0.00058 0.50011
 Cu96 Cu 0.71842 -0.00044 0.50021
 C97 C 0.75023 0.04099 0.54148
 C98 C 0.74984 -0.04198 0.45880
 C99 C 0.75005 0.04091 0.45874
 C100 C 0.74999 -0.04193 0.54158
 O101 O 0.46916 0.22397 0.03031
 O102 O 0.53113 0.22402 -0.03150
 O103 O 0.53103 0.22393 0.03038
 O104 O 0.46925 0.22403 -0.03156
 O105 O 0.46929 0.27671 -0.03155
 O106 O 0.53108 0.27660 0.03040
 O107 O 0.53117 0.27669 -0.03148
 O108 O 0.46921 0.27664 0.03032
 Cu109 Cu 0.50014 0.21866 -0.00060
 Cu110 Cu 0.50019 0.28199 -0.00058
 C111 C 0.45873 0.25029 0.04075
 C112 C 0.54161 0.25037 -0.04192
 C113 C 0.54147 0.25024 0.04085
 C114 C 0.45884 0.25039 -0.04200
 O115 O 0.53127 0.77554 0.03156
 O116 O 0.46933 0.77541 -0.03034
 O117 O 0.46939 0.77559 0.03153
 O118 O 0.53120 0.77539 -0.03032
 O119 O 0.53115 0.72271 -0.03013
 O120 O 0.46933 0.72292 0.03173
 O121 O 0.46927 0.72274 -0.03015
 O122 O 0.53121 0.72286 0.03174
 Cu123 Cu 0.50030 0.78081 0.00059
 Cu124 Cu 0.50023 0.71748 0.00082
 C125 C 0.54169 0.74922 0.04209
 C126 C 0.45884 0.74905 -0.04069
 C127 C 0.45893 0.74929 0.04206
 C128 C 0.54160 0.74901 -0.04066
 O129 O 0.03047 0.47000 0.22296
 O130 O -0.03142 0.53199 0.22293
 O131 O 0.03048 0.53198 0.22281
 O132 O -0.03139 0.47001 0.22307
 O133 O -0.03126 0.47008 0.27565
 O134 O 0.03060 0.53205 0.27539
 O135 O -0.03129 0.53207 0.27550
 O136 O 0.03060 0.47007 0.27554
 Cu137 Cu -0.00048 0.50100 0.21762
 Cu138 Cu -0.00033 0.50108 0.28084
 C139 C 0.04098 0.45957 0.24925
 C140 C -0.04181 0.54248 0.24921
 C141 C 0.04100 0.54245 0.24906
 C142 C -0.04175 0.45958 0.24940
 O143 O 0.03056 0.53145 0.77679
 O144 O -0.03137 0.46944 0.77652
 O145 O 0.03050 0.46947 0.77656
 O146 O -0.03134 0.53143 0.77675
 O147 O -0.03132 0.53167 0.72416
 O148 O 0.03051 0.46971 0.72398
 O149 O -0.03135 0.46967 0.72394
 O150 O 0.03057 0.53169 0.72421
 Cu151 Cu -0.00042 0.50043 0.78197
 Cu152 Cu -0.00040 0.50072 0.71876
 C153 C 0.04103 0.54202 0.75054
 C154 C -0.04180 0.45908 0.75019
 C155 C 0.04093 0.45914 0.75024
 C156 C -0.04177 0.54199 0.75048
 C157 C 0.38992 0.25030 0.10944
 C158 C 0.35755 0.25362 0.10078
 C159 C 0.33365 0.25366 0.12466
 C160 C 0.34224 0.25035 0.15706
 C161 C 0.37461 0.24701 0.16570
 C162 C 0.39852 0.24700 0.14183
 C163 C 0.43072 0.24366 0.15105
 C164 C 0.43906 0.24041 0.18295
 C165 C 0.41569 0.24040 0.20629
 C166 C 0.38380 0.24365 0.19791
 C167 C 0.30146 0.25704 0.11542
 C168 C 0.29313 0.26027 0.08351
 C169 C 0.31650 0.26021 0.06017
 C170 C 0.34838 0.25693 0.06856
 C171 C 0.31781 0.25037 0.18146
 C172 C 0.29754 0.25038 0.20172
 C173 C 0.41434 0.25028 0.08505
 C174 C 0.43462 0.25028 0.06481
 H175 H 0.44976 0.24353 0.13377
 H176 H 0.46380 0.23788 0.18959
 H177 H 0.42229 0.23785 0.23104
 H178 H 0.36648 0.24349 0.21693
 H179 H 0.28242 0.25723 0.13271
 H180 H 0.26840 0.26282 0.07687
 H181 H 0.30991 0.26271 0.03541
 H182 H 0.36569 0.25703 0.04954
 C183 C 0.61055 0.74933 0.11082
 C184 C 0.60200 0.75287 0.14318
 C185 C 0.62594 0.75290 0.16705
 C186 C 0.65829 0.74935 0.15843
 C187 C 0.66683 0.74580 0.12606
 C188 C 0.64289 0.74581 0.10218
 C189 C 0.65201 0.74226 0.06999
 C190 C 0.68387 0.73879 0.06161
 C191 C 0.70726 0.73876 0.08495
 C192 C 0.69898 0.74221 0.11684
 C193 C 0.61681 0.75650 0.19923
 C194 C 0.58495 0.75995 0.20760
 C195 C 0.56154 0.75991 0.18427
 C196 C 0.56983 0.75642 0.15239
 C197 C 0.68274 0.74933 0.18282
 C198 C 0.70305 0.74934 0.20307
 C199 C 0.58609 0.74929 0.08643
 C200 C 0.56580 0.74926 0.06618
 H201 H 0.63468 0.74214 0.05097
 H202 H 0.69042 0.73611 0.03687
 H203 H 0.73197 0.73604 0.07832
 H204 H 0.71804 0.74203 0.13413
 H205 H 0.63415 0.75669 0.21824
 H206 H 0.57839 0.76268 0.23233
 H207 H 0.53682 0.76259 0.19089
 H208 H 0.55077 0.75654 0.13511
 C209 C 0.61051 0.25048 -0.11052
 C210 C 0.64287 0.25379 -0.10181
 C211 C 0.66682 0.25387 -0.12564
 C212 C 0.65828 0.25060 -0.15805
 C213 C 0.62592 0.24727 -0.16675
 C214 C 0.60197 0.24723 -0.14292
 C215 C 0.56979 0.24390 -0.15221
 C216 C 0.56150 0.24069 -0.18412
 C217 C 0.58492 0.24071 -0.20742
 C218 C 0.61679 0.24395 -0.19898
 C219 C 0.69899 0.25724 -0.11634
 C220 C 0.70726 0.26042 -0.08442
 C221 C 0.68385 0.26032 -0.06112
 C222 C 0.65198 0.25705 -0.06957
 C223 C 0.68276 0.25064 -0.18240
 C224 C 0.70307 0.25068 -0.20263
 C225 C 0.58605 0.25042 -0.08617
 C226 C 0.56574 0.25039 -0.06596
 H227 H 0.55072 0.24373 -0.13495
 H228 H 0.53677 0.23817 -0.19080
 H229 H 0.57836 0.23821 -0.23218
 H230 H 0.63414 0.24383 -0.21796
 H231 H 0.71806 0.25745 -0.13360
 H232 H 0.73199 0.26297 -0.07773
 H233 H 0.69040 0.26278 -0.03635
 H234 H 0.63464 0.25712 -0.05058
 C235 C 0.38998 0.74895 -0.10940
 C236 C 0.39854 0.75220 -0.14180
 C237 C 0.37460 0.75221 -0.16567
 C238 C 0.34223 0.74893 -0.15700
 C239 C 0.33368 0.74566 -0.12460
 C240 C 0.35761 0.74568 -0.10073
 C241 C 0.34847 0.74241 -0.06851
 C242 C 0.31660 0.73919 -0.06010
 C243 C 0.29320 0.73915 -0.08343
 C244 C 0.30149 0.74233 -0.11535
 C245 C 0.38376 0.75552 -0.19788
 C246 C 0.41564 0.75871 -0.20628
 C247 C 0.43905 0.75868 -0.18295
 C248 C 0.43074 0.75548 -0.15104
 C249 C 0.31777 0.74894 -0.18139
 C250 C 0.29746 0.74897 -0.20164
 C251 C 0.41443 0.74897 -0.08502
 C252 C 0.43472 0.74900 -0.06477
 H253 H 0.36581 0.74230 -0.04949
 H254 H 0.31003 0.73672 -0.03533
 H255 H 0.26847 0.73663 -0.07678
 H256 H 0.28243 0.74216 -0.13263
 H257 H 0.36642 0.75568 -0.21689
 H258 H 0.42222 0.76122 -0.23103
 H259 H 0.46379 0.76116 -0.18959
 H260 H 0.44980 0.75560 -0.13376
 C261 C 0.10973 0.39069 0.24933
 C262 C 0.10107 0.35822 0.25220
 C263 C 0.12497 0.33429 0.25224
 C264 C 0.15738 0.34296 0.24937
 C265 C 0.16603 0.37543 0.24649
 C266 C 0.14214 0.39937 0.24649
 C267 C 0.15137 0.43167 0.24361
 C268 C 0.18329 0.44010 0.24081
 C269 C 0.20665 0.41670 0.24080
 C270 C 0.19826 0.38470 0.24360
 C271 C 0.11572 0.30199 0.25517
 C272 C 0.08379 0.29359 0.25796
 C273 C 0.06043 0.31698 0.25790
 C274 C 0.06883 0.34897 0.25507
 C275 C 0.18180 0.31850 0.24938
 C276 C 0.20207 0.29819 0.24940
 C277 C 0.08532 0.41514 0.24928
 C278 C 0.06506 0.43544 0.24926
 H279 H 0.13407 0.45074 0.24349
 H280 H 0.18992 0.46492 0.23864
 H281 H 0.23141 0.42336 0.23861
 H282 H 0.21729 0.36737 0.24347
 H283 H 0.13302 0.28293 0.25534
 H284 H 0.07715 0.26878 0.26017
 H285 H 0.03566 0.31033 0.26007
 H286 H 0.04980 0.36629 0.25515
 C287 C 0.11009 0.61066 0.75079
 C288 C 0.14245 0.60182 0.75360
 C289 C 0.16648 0.62565 0.75365
 C290 C 0.15801 0.65817 0.75085
 C291 C 0.12564 0.66700 0.74803
 C292 C 0.10161 0.64318 0.74802
 C293 C 0.06942 0.65259 0.74521
 C294 C 0.06119 0.68462 0.74247
 C295 C 0.08469 0.70791 0.74246
 C296 C 0.11657 0.69935 0.74520
 C297 C 0.19866 0.61622 0.75651
 C298 C 0.20687 0.58418 0.75923
 C299 C 0.18339 0.56089 0.75916
 C300 C 0.15151 0.56947 0.75639
 C301 C 0.18256 0.68251 0.75083
 C302 C 0.20295 0.70273 0.75079
 C303 C 0.08555 0.58632 0.75071
 C304 C 0.06520 0.56610 0.75064
 H305 H 0.05029 0.63536 0.74509
 H306 H 0.03645 0.69140 0.74035
 H307 H 0.07818 0.73276 0.74033
 H308 H 0.13398 0.71833 0.74508
 H309 H 0.21779 0.63346 0.75669
 H310 H 0.23160 0.57740 0.76140
 H311 H 0.18989 0.53603 0.76127
 H312 H 0.13411 0.55049 0.75647
 C313 C -0.11085 0.61108 0.24919
 C314 C -0.10235 0.64361 0.25184
 C315 C -0.12638 0.66741 0.25187
 C316 C -0.15876 0.65855 0.24922
 C317 C -0.16725 0.62602 0.24655
 C318 C -0.14322 0.60221 0.24654
 C319 C -0.15230 0.56985 0.24387
 C320 C -0.18418 0.56125 0.24127
 C321 C -0.20767 0.58452 0.24125
 C322 C -0.19944 0.61657 0.24385
 C323 C -0.11730 0.69976 0.25458
 C324 C -0.08540 0.70836 0.25716
 C325 C -0.06191 0.68509 0.25710
 C326 C -0.07015 0.65305 0.25448
 C327 C -0.18331 0.68287 0.24927
 C328 C -0.20369 0.70307 0.24932
 C329 C -0.08631 0.58676 0.24919
 C330 C -0.06596 0.56655 0.24920
 H331 H -0.13489 0.55088 0.24377
 H332 H -0.19070 0.53638 0.23926
 H333 H -0.23241 0.57771 0.23922
 H334 H -0.21857 0.63379 0.24372
 H335 H -0.13470 0.71873 0.25474
 H336 H -0.07888 0.73321 0.25921
 H337 H -0.03716 0.69189 0.25910
 H338 H -0.05102 0.63583 0.25456
 C339 C -0.11049 0.39007 0.74992
 C340 C -0.14291 0.39865 0.75284
 C341 C -0.16676 0.37465 0.75278
 C342 C -0.15807 0.34221 0.74978
 C343 C -0.12564 0.33364 0.74684
 C344 C -0.10179 0.35763 0.74693
 C345 C -0.06954 0.34847 0.74399
 C346 C -0.06109 0.31653 0.74104
 C347 C -0.08441 0.29307 0.74093
 C348 C -0.11635 0.30139 0.74379
 C349 C -0.19900 0.38382 0.75576
 C350 C -0.20744 0.41578 0.75869
 C351 C -0.18412 0.43924 0.75872
 C352 C -0.15219 0.43091 0.75584
 C353 C -0.18244 0.31769 0.74973
 C354 C -0.20269 0.29734 0.74971
 C355 C -0.08612 0.41458 0.75000
 C356 C -0.06588 0.43491 0.75008
 H357 H -0.05053 0.36585 0.74395
 H358 H -0.03631 0.30995 0.73882
 H359 H -0.07773 0.26829 0.73863
 H360 H -0.13362 0.28228 0.74358
 H361 H -0.21800 0.36644 0.75586
 H362 H -0.23221 0.42236 0.76094
 H363 H -0.19079 0.46403 0.76099
 H364 H -0.13492 0.45002 0.75600
 C365 C 0.25014 0.11008 0.38975
 C366 C 0.25301 0.10142 0.35735
 C367 C 0.25296 0.12537 0.33343
 C368 C 0.25000 0.15783 0.34205
 C369 C 0.24711 0.16648 0.37446
 C370 C 0.24720 0.14253 0.39838
 C371 C 0.24431 0.15176 0.43061
 C372 C 0.24141 0.18373 0.43898
 C373 C 0.24131 0.20714 0.41560
 C374 C 0.24411 0.19875 0.38367
 C375 C 0.25589 0.11612 0.30121
 C376 C 0.25877 0.08415 0.29286
 C377 C 0.25880 0.06073 0.31624
 C378 C 0.25597 0.06913 0.34815
 C379 C 0.24993 0.18230 0.31761
 C380 C 0.24989 0.20260 0.29731
 C381 C 0.25019 0.08561 0.41419
 C382 C 0.25023 0.06530 0.43446
 H383 H 0.24427 0.13443 0.44966
 H384 H 0.23923 0.19036 0.46375
 H385 H 0.23904 0.23194 0.42222
 H386 H 0.24391 0.21782 0.36635
 H387 H 0.25599 0.13346 0.28216
 H388 H 0.26099 0.07750 0.26810
 H389 H 0.26104 0.03592 0.30963
 H390 H 0.25612 0.05006 0.36547
 C391 C 0.75059 0.11005 0.61003
 C392 C 0.74815 0.10145 0.64250
 C393 C 0.74827 0.12546 0.66632
 C394 C 0.75085 0.15793 0.65752
 C395 C 0.75331 0.16652 0.62505
 C396 C 0.75316 0.14251 0.60124
 C397 C 0.75562 0.15169 0.56893
 C398 C 0.75815 0.18366 0.56039
 C399 C 0.75831 0.20713 0.58367
 C400 C 0.75593 0.19880 0.61566
 C401 C 0.74578 0.11628 0.69861
 C402 C 0.74326 0.08429 0.70714
 C403 C 0.74316 0.06082 0.68386
 C404 C 0.74557 0.06916 0.65188
 C405 C 0.75092 0.18246 0.68185
 C406 C 0.75094 0.20282 0.70206
 C407 C 0.75045 0.08553 0.58571
 C408 C 0.75034 0.06518 0.56551
 H409 H 0.75560 0.13430 0.54996
 H410 H 0.76000 0.19025 0.53557
 H411 H 0.76030 0.23193 0.57692
 H412 H 0.75617 0.21791 0.63290
 H413 H 0.74575 0.13366 0.71758
 H414 H 0.74138 0.07769 0.73195
 H415 H 0.74121 0.03601 0.69060
 H416 H 0.74538 0.05005 0.63465
 C417 C 0.25024 -0.11076 0.61021
 C418 C 0.24761 -0.14325 0.60161
 C419 C 0.24750 -0.16716 0.62556
 C420 C 0.25005 -0.15844 0.65798
 C421 C 0.25272 -0.12594 0.66658
 C422 C 0.25280 -0.10203 0.64262
 C423 C 0.25546 -0.06971 0.65180
 C424 C 0.25798 -0.06124 0.68373
 C425 C 0.25792 -0.08462 0.70714
 C426 C 0.25533 -0.11663 0.69881
 C427 C 0.24480 -0.19947 0.61637
 C428 C 0.24231 -0.20792 0.58444
 C429 C 0.24244 -0.18455 0.56102
 C430 C 0.24505 -0.15255 0.56937
 C431 C 0.24992 -0.18287 0.68246
 C432 C 0.24983 -0.20315 0.70279
 C433 C 0.25029 -0.08633 0.58574
 C434 C 0.25031 -0.06604 0.56544
 H435 H 0.25562 -0.05066 0.63445
 H436 H 0.25999 -0.03640 0.69032
 H437 H 0.25988 -0.07792 0.73191
 H438 H 0.25539 -0.13394 0.71788
 H439 H 0.24459 -0.21852 0.63372
 H440 H 0.24028 -0.23275 0.57783
 H441 H 0.24051 -0.19124 0.53624
 H442 H 0.24504 -0.13524 0.55029
 C443 C 0.74958 -0.11072 0.38993
 C444 C 0.75193 -0.14324 0.39853
 C445 C 0.75190 -0.16711 0.37457
 C446 C 0.74949 -0.15830 0.34215
 C447 C 0.74711 -0.12577 0.33355
 C448 C 0.74717 -0.10191 0.35751
 C449 C 0.74480 -0.06955 0.34833
 C450 C 0.74242 -0.06100 0.31640
 C451 C 0.74235 -0.08432 0.29298
 C452 C 0.74466 -0.11637 0.30131
 C453 C 0.75431 -0.19946 0.38376
 C454 C 0.75666 -0.20799 0.41570
 C455 C 0.75667 -0.18467 0.43913
 C456 C 0.75434 -0.15263 0.43078
 C457 C 0.74950 -0.18269 0.31766
 C458 C 0.74952 -0.20293 0.29734
 C459 C 0.74966 -0.08634 0.41440
 C460 C 0.74974 -0.06609 0.43469
 H461 H 0.74475 -0.05053 0.36568
 H462 H 0.74063 -0.03613 0.30981
 H463 H 0.74050 -0.07756 0.26821
 H464 H 0.74450 -0.13364 0.28224
 H465 H 0.75440 -0.21847 0.36641
 H466 H 0.75847 -0.23285 0.42231
 H467 H 0.75849 -0.19142 0.46391
 H468 H 0.75446 -0.13536 0.44986
 C469 C 0.61026 0.74887 -0.10939
 C470 C 0.60160 0.75209 -0.14177
 C471 C 0.62548 0.75212 -0.16566
 C472 C 0.65786 0.74890 -0.15703
 C473 C 0.66651 0.74565 -0.12464
 C474 C 0.64264 0.74565 -0.10075
 C475 C 0.65185 0.74240 -0.06853
 C476 C 0.68374 0.73923 -0.06016
 C477 C 0.70709 0.73921 -0.08353
 C478 C 0.69872 0.74237 -0.11544
 C479 C 0.61625 0.75541 -0.19787
 C480 C 0.58434 0.75855 -0.20622
 C481 C 0.56099 0.75849 -0.18286
 C482 C 0.56938 0.75532 -0.15096
 C483 C 0.68224 0.74893 -0.18143
 C484 C 0.70249 0.74897 -0.20168
 C485 C 0.58589 0.74890 -0.08499
 C486 C 0.56565 0.74894 -0.06474
 H487 H 0.63456 0.74228 -0.04950
 H488 H 0.69037 0.73677 -0.03541
 H489 H 0.73184 0.73673 -0.07691
 H490 H 0.71774 0.74222 -0.13275
 H491 H 0.63355 0.75559 -0.21690
 H492 H 0.57771 0.76103 -0.23097
 H493 H 0.53623 0.76093 -0.18947
 H494 H 0.55036 0.75542 -0.13366
 C495 C 0.39002 0.25043 -0.11063
 C496 C 0.35768 0.25376 -0.10193
 C497 C 0.33373 0.25372 -0.12577
 C498 C 0.34227 0.25033 -0.15815
 C499 C 0.37461 0.24700 -0.16684
 C500 C 0.39857 0.24707 -0.14301
 C501 C 0.43075 0.24373 -0.15226
 C502 C 0.43903 0.24041 -0.18416
 C503 C 0.41560 0.24032 -0.20747
 C504 C 0.38372 0.24357 -0.19905
 C505 C 0.30156 0.25711 -0.11651
 C506 C 0.29329 0.26041 -0.08460
 C507 C 0.31672 0.26042 -0.06128
 C508 C 0.34858 0.25715 -0.06971
 C509 C 0.31780 0.25027 -0.18249
 C510 C 0.29748 0.25022 -0.20269
 C511 C 0.41447 0.25043 -0.08629
 C512 C 0.43475 0.25042 -0.06606
 H513 H 0.44983 0.24366 -0.13500
 H514 H 0.46375 0.23789 -0.19081
 H515 H 0.42214 0.23772 -0.23221
 H516 H 0.36637 0.24335 -0.21804
 H517 H 0.28248 0.25724 -0.13377
 H518 H 0.26858 0.26296 -0.07794
 H519 H 0.31018 0.26299 -0.03653
 H520 H 0.36593 0.25731 -0.05072
 C521 C 0.39016 0.74956 0.11068
 C522 C 0.39874 0.75317 0.14304
 C523 C 0.37481 0.75330 0.16688
 C524 C 0.34246 0.74978 0.15822
 C525 C 0.33390 0.74614 0.12586
 C526 C 0.35782 0.74605 0.10202
 C527 C 0.34869 0.74243 0.06982
 C528 C 0.31683 0.73897 0.06142
 C529 C 0.29344 0.73904 0.08474
 C530 C 0.30173 0.74257 0.11663
 C531 C 0.38395 0.75698 0.19906
 C532 C 0.41582 0.76041 0.20745
 C533 C 0.43922 0.76026 0.18413
 C534 C 0.43092 0.75670 0.15226
 C535 C 0.31803 0.74988 0.18256
 C536 C 0.29773 0.74997 0.20277
 C537 C 0.41458 0.74946 0.08634
 C538 C 0.43485 0.74938 0.06611
 H539 H 0.36603 0.74222 0.05082
 H540 H 0.31027 0.73623 0.03668
 H541 H 0.26872 0.73634 0.07810
 H542 H 0.28267 0.74247 0.13390
 H543 H 0.36661 0.75724 0.21805
 H544 H 0.42239 0.76319 0.23217
 H545 H 0.46395 0.76292 0.19076
 H546 H 0.44997 0.75674 0.13499
 C547 C 0.61004 0.25016 0.10972
 C548 C 0.64243 0.25342 0.10115
 C549 C 0.66627 0.25342 0.12510
 C550 C 0.65757 0.25013 0.15746
 C551 C 0.62518 0.24685 0.16602
 C552 C 0.60134 0.24689 0.14207
 C553 C 0.56911 0.24361 0.15119
 C554 C 0.56068 0.24039 0.18307
 C555 C 0.58400 0.24034 0.20648
 C556 C 0.61591 0.24353 0.19820
 C557 C 0.69849 0.25674 0.11597
 C558 C 0.70691 0.25994 0.08409
 C559 C 0.68359 0.25992 0.06066
 C560 C 0.65168 0.25670 0.06896
 C561 C 0.68192 0.25011 0.18192
 C562 C 0.70215 0.25011 0.20221
 C563 C 0.58570 0.25017 0.08527
 C564 C 0.56549 0.25020 0.06497
 H565 H 0.55011 0.24351 0.13384
 H566 H 0.53591 0.23791 0.18962
 H567 H 0.57733 0.23782 0.23121
 H568 H 0.63318 0.24335 0.21727
 H569 H 0.71749 0.25690 0.13332
 H570 H 0.73166 0.26246 0.07753
 H571 H 0.69025 0.26240 0.03593
 H572 H 0.63442 0.25683 0.04989
 C573 C -0.11065 0.61062 0.75065
 C574 C -0.10210 0.64311 0.74776
 C575 C -0.12608 0.66695 0.74776
 C576 C -0.15844 0.65814 0.75069
 C577 C -0.16698 0.62564 0.75360
 C578 C -0.14301 0.60180 0.75357
 C579 C -0.15211 0.56947 0.75647
 C580 C -0.18400 0.56092 0.75934
 C581 C -0.20744 0.58424 0.75940
 C582 C -0.19917 0.61626 0.75657
 C583 C -0.11696 0.69928 0.74481
 C584 C -0.08507 0.70781 0.74197
 C585 C -0.06162 0.68450 0.74199
 C586 C -0.06990 0.65248 0.74484
 C587 C -0.18292 0.68248 0.75069
 C588 C -0.20325 0.70271 0.75068
 C589 C -0.08618 0.58628 0.75060
 C590 C -0.06587 0.56605 0.75055
 H591 H -0.13474 0.55047 0.75655
 H592 H -0.19053 0.53608 0.76154
 H593 H -0.23217 0.57748 0.76164
 H594 H -0.21827 0.63352 0.75674
 H595 H -0.13434 0.71827 0.74467
 H596 H -0.07852 0.73264 0.73974
 H597 H -0.03688 0.69124 0.73979
 H598 H -0.05081 0.63523 0.74473
 C599 C -0.11039 0.39064 0.24973
 C600 C -0.14281 0.39927 0.24705
 C601 C -0.16666 0.37529 0.24714
 C602 C -0.15794 0.34284 0.24994
 C603 C -0.12550 0.33422 0.25265
 C604 C -0.10165 0.35820 0.25253
 C605 C -0.06938 0.34902 0.25523
 C606 C -0.06092 0.31705 0.25799
 C607 C -0.08425 0.29360 0.25813
 C608 C -0.11621 0.30194 0.25550
 C609 C -0.19892 0.38448 0.24440
 C610 C -0.20737 0.41646 0.24168
 C611 C -0.18404 0.43992 0.24161
 C612 C -0.15210 0.43156 0.24425
 C613 C -0.18229 0.31835 0.24999
 C614 C -0.20252 0.29801 0.25001
 C615 C -0.08603 0.41512 0.24960
 C616 C -0.06581 0.43544 0.24950
 H617 H -0.05037 0.36639 0.25525
 H618 H -0.03613 0.31045 0.26003
 H619 H -0.07756 0.26880 0.26028
 H620 H -0.13348 0.28284 0.25573
 H621 H -0.21793 0.36711 0.24434
 H622 H -0.23215 0.42307 0.23961
 H623 H -0.19072 0.46473 0.23949
 H624 H -0.13482 0.45066 0.24408
 C625 C 0.10962 0.39032 0.75005
 C626 C 0.10093 0.35786 0.74717
 C627 C 0.12481 0.33394 0.74709
 C628 C 0.15723 0.34261 0.74993
 C629 C 0.16590 0.37507 0.75283
 C630 C 0.14202 0.39900 0.75288
 C631 C 0.15126 0.43130 0.75578
 C632 C 0.18318 0.43971 0.75857
 C633 C 0.20654 0.41631 0.75854
 C634 C 0.19814 0.38432 0.75572
 C635 C 0.11557 0.30165 0.74415
 C636 C 0.08363 0.29325 0.74139
 C637 C 0.06027 0.31665 0.74149
 C638 C 0.06868 0.34862 0.74433
 C639 C 0.18162 0.31818 0.74986
 C640 C 0.20188 0.29790 0.74981
 C641 C 0.08523 0.41475 0.75011
 C642 C 0.06499 0.43503 0.75017
 H643 H 0.13396 0.45036 0.75593
 H644 H 0.18982 0.46453 0.76076
 H645 H 0.23130 0.42296 0.76072
 H646 H 0.21716 0.36699 0.75582
 H647 H 0.13286 0.28259 0.74396
 H648 H 0.07698 0.26844 0.73917
 H649 H 0.03549 0.31001 0.73935
 H650 H 0.04965 0.36596 0.74428
 C651 C 0.11010 0.61092 0.24880
 C652 C 0.14243 0.60199 0.24603
 C653 C 0.16650 0.62575 0.24598
 C654 C 0.15809 0.65828 0.24874
 C655 C 0.12575 0.66720 0.25151
 C656 C 0.10168 0.64344 0.25153
 C657 C 0.06950 0.65292 0.25431
 C658 C 0.06135 0.68497 0.25700
 C659 C 0.08489 0.70820 0.25700
 C660 C 0.11676 0.69956 0.25430
 C661 C 0.19866 0.61625 0.24315
 C662 C 0.20680 0.58420 0.24048
 C663 C 0.18326 0.56096 0.24054
 C664 C 0.15141 0.56961 0.24328
 C665 C 0.18268 0.68254 0.24877
 C666 C 0.20309 0.70268 0.24883
 C667 C 0.08553 0.58666 0.24888
 C668 C 0.06516 0.56648 0.24896
 H669 H 0.05034 0.63573 0.25443
 H670 H 0.03662 0.69180 0.25910
 H671 H 0.07844 0.73307 0.25911
 H672 H 0.13421 0.71851 0.25442
 H673 H 0.21783 0.63345 0.24298
 H674 H 0.23152 0.57736 0.23834
 H675 H 0.18971 0.53609 0.23847
 H676 H 0.13396 0.55067 0.24321
 C677 C 0.74998 -0.11071 0.61043
 C678 C 0.75325 -0.14314 0.60185
 C679 C 0.75328 -0.16705 0.62579
 C680 C 0.75001 -0.15838 0.65815
 C681 C 0.74672 -0.12594 0.66672
 C682 C 0.74672 -0.10203 0.64278
 C683 C 0.74343 -0.06975 0.65191
 C684 C 0.74022 -0.06134 0.68379
 C685 C 0.74019 -0.08472 0.70719
 C686 C 0.74340 -0.11669 0.69890
 C687 C 0.75662 -0.19931 0.61664
 C688 C 0.75980 -0.20771 0.58476
 C689 C 0.75974 -0.18433 0.56135
 C690 C 0.75652 -0.15238 0.56965
 C691 C 0.75004 -0.18280 0.68259
 C692 C 0.75008 -0.20309 0.70288
 C693 C 0.74996 -0.08629 0.58599
 C694 C 0.74996 -0.06602 0.56570
 H695 H 0.74331 -0.05070 0.63457
 H696 H 0.73773 -0.03654 0.69035
 H697 H 0.73768 -0.07807 0.73192
 H698 H 0.74324 -0.13401 0.71796
 H699 H 0.75680 -0.21836 0.63399
 H700 H 0.76232 -0.23250 0.57819
 H701 H 0.76221 -0.19097 0.53661
 H702 H 0.75662 -0.13506 0.55059
 C703 C 0.25109 -0.11027 0.38958
 C704 C 0.24856 -0.14280 0.39812
 C705 C 0.24866 -0.16660 0.37412
 C706 C 0.25131 -0.15773 0.34174
 C707 C 0.25388 -0.12519 0.33322
 C708 C 0.25375 -0.10139 0.35721
 C709 C 0.25631 -0.06901 0.34812
 C710 C 0.25894 -0.06040 0.31623
 C711 C 0.25909 -0.08368 0.29276
 C712 C 0.25660 -0.11574 0.30102
 C713 C 0.24607 -0.19897 0.38323
 C714 C 0.24348 -0.20757 0.41513
 C715 C 0.24340 -0.18429 0.43860
 C716 C 0.24590 -0.15224 0.43033
 C717 C 0.25135 -0.18203 0.31724
 C718 C 0.25133 -0.20223 0.29690
 C719 C 0.25092 -0.08596 0.41408
 C720 C 0.25077 -0.06577 0.43440
 H721 H 0.25632 -0.05004 0.36551
 H722 H 0.26088 -0.03553 0.30970
 H723 H 0.26114 -0.07688 0.26802
 H724 H 0.25682 -0.13298 0.28191
 H725 H 0.24602 -0.21794 0.36584
 H726 H 0.24153 -0.23243 0.42167
 H727 H 0.24140 -0.19108 0.46335
 H728 H 0.24573 -0.13501 0.44944
 C729 C 0.75003 0.10977 0.38999
 C730 C 0.74745 0.10109 0.35757
 C731 C 0.74738 0.12504 0.33368
 C732 C 0.74994 0.15752 0.34236
 C733 C 0.75255 0.16620 0.37478
 C734 C 0.75258 0.14224 0.39867
 C735 C 0.75518 0.15148 0.43093
 C736 C 0.75768 0.18347 0.43935
 C737 C 0.75767 0.20689 0.41598
 C738 C 0.75514 0.19850 0.38403
 C739 C 0.74474 0.11580 0.30143
 C740 C 0.74225 0.08379 0.29303
 C741 C 0.74233 0.06037 0.31639
 C742 C 0.74489 0.06877 0.34833
 C743 C 0.74988 0.18199 0.31796
 C744 C 0.74985 0.20231 0.29770
 C745 C 0.75006 0.08531 0.41438
 C746 C 0.75007 0.06502 0.43465
 H747 H 0.75530 0.13412 0.44997
 H748 H 0.75965 0.19011 0.46414
 H749 H 0.75963 0.23172 0.42263
 H750 H 0.75524 0.21758 0.36673
 H751 H 0.74457 0.13315 0.28239
 H752 H 0.74026 0.07715 0.26825
 H753 H 0.74040 0.03554 0.30975
 H754 H 0.74484 0.04969 0.36563
 C755 C 0.24959 0.10984 0.60994
 C756 C 0.25208 0.10115 0.64238
 C757 C 0.25204 0.12510 0.66623
 C758 C 0.24948 0.15758 0.65749
 C759 C 0.24694 0.16625 0.62504
 C760 C 0.24701 0.14230 0.60119
 C761 C 0.24449 0.15154 0.56891
 C762 C 0.24196 0.18353 0.56043
 C763 C 0.24187 0.20695 0.58376
 C764 C 0.24432 0.19855 0.61573
 C765 C 0.25459 0.11585 0.69850
 C766 C 0.25708 0.08385 0.70696
 C767 C 0.25711 0.06043 0.68364
 C768 C 0.25465 0.06884 0.65168
 C769 C 0.24948 0.18204 0.68184
 C770 C 0.24951 0.20235 0.70207
 C771 C 0.24970 0.08539 0.58558
 C772 C 0.24982 0.06510 0.56535
 H773 H 0.24445 0.13419 0.54990
 H774 H 0.24005 0.19017 0.53563
 H775 H 0.23988 0.23177 0.57706
 H776 H 0.24414 0.21763 0.63300
 H777 H 0.25467 0.13320 0.71751
 H778 H 0.25901 0.07720 0.73176
 H779 H 0.25905 0.03560 0.69033
 H780 H 0.25478 0.04976 0.63440
   
