data_POSCAR
  _audit_creation_date              2014-09-24
  _audit_creation_method            'ToBaCCo'
  _symmetry_space_group_name_H-M    'P1'
  _symmetry_Int_Tables_number       1
  _symmetry_cell_setting            triclinic
  loop_
  _symmetry_equiv_pos_as_xyz
 x,y,z
_cell_length_a 18.2250
_cell_length_b 18.2128
_cell_length_c 17.9800
_cell_angle_alpha 90.165100
_cell_angle_beta 91.817000
_cell_angle_gamma 90.345500
loop_
  _atom_site_label
  _atom_site_type_symbol
  _atom_site_fract_x
  _atom_site_fract_y
  _atom_site_fract_z
C1 C 0.03747 0.40422 0.12904
 H2 H 0.06934 0.45096 0.11210
 C3 C 0.04729 0.33655 0.09411
 H4 H 0.08574 0.33310 0.04946
 C5 C -0.04849 0.35142 0.20929
 H6 H -0.08318 0.35659 0.25664
 C7 C -0.04036 0.28262 0.17609
 H8 H -0.07119 0.23742 0.19835
 N9 N -0.00931 0.41044 0.18607
 C10 C -0.05084 0.63674 0.20178
 H11 H -0.09997 0.62437 0.23136
 C12 C -0.04059 0.70755 0.17463
 H13 H -0.08265 0.74782 0.18403
 C14 C 0.06589 0.60103 0.16073
 H15 H 0.10901 0.56067 0.15916
 C16 C 0.07833 0.67124 0.13249
 H17 H 0.12972 0.68323 0.10623
 Zn18 Zn -0.00719 0.49560 0.24790
 N19 N 0.00202 0.58500 0.19463
 C20 C 0.11694 0.54847 0.32985
 N21 N 0.07689 0.48758 0.31085
 C22 C 0.10198 0.41909 0.32650
 C23 C 0.17150 0.40967 0.35916
 C24 C 0.18711 0.54155 0.36248
 C25 C -0.15931 0.49074 0.26593
 C26 C -0.22504 0.49894 0.30277
 C27 C -0.15473 0.52554 0.41601
 C28 C -0.09024 0.51585 0.37719
 N29 N -0.09373 0.49927 0.30338
 H30 H 0.09545 0.60243 0.31749
 H31 H 0.06924 0.37150 0.31105
 H32 H 0.19129 0.35458 0.36979
 H33 H 0.21792 0.59071 0.37711
 H34 H -0.16039 0.47913 0.20686
 H35 H -0.27651 0.49379 0.27141
 H36 H -0.15129 0.54013 0.47446
 H37 H -0.03747 0.52357 0.40542
 C38 C 0.02472 0.72553 0.13906
 C39 C 0.00930 0.27391 0.11813
 C40 C -0.22310 0.51674 0.37886
 C41 C 0.21593 0.47112 0.37521
 C42 C 0.02122 0.58379 0.87734
 H43 H 0.02703 0.53246 0.90698
 C44 C 0.02816 0.65032 0.91585
 H45 H 0.03871 0.64991 0.97544
 C46 C 0.00188 0.64724 0.76348
 H47 H -0.00710 0.64530 0.70373
 C48 C 0.00791 0.71485 0.79977
 H49 H 0.00420 0.76465 0.76723
 N50 N 0.00866 0.58353 0.80244
 C51 C -0.06763 0.39471 0.83837
 H52 H -0.11384 0.43062 0.82804
 C53 C -0.07784 0.32822 0.87505
 H54 H -0.13198 0.31365 0.89363
 C55 C 0.05853 0.36897 0.82464
 H56 H 0.11155 0.38512 0.80470
 C57 C 0.05079 0.30192 0.86115
 H58 H 0.09886 0.26826 0.87040
 Zn59 Zn 0.00421 0.49442 0.74795
 N60 N -0.00073 0.41281 0.81226
 C61 C 0.10574 0.42375 0.65455
 N62 N 0.09070 0.48712 0.69119
 C63 C 0.14028 0.54336 0.69433
 C64 C 0.20770 0.53720 0.66039
 C65 C 0.17304 0.41489 0.62050
 C66 C -0.13871 0.53877 0.70792
 C67 C -0.20833 0.53365 0.67380
 C68 C -0.16499 0.43292 0.59981
 C69 C -0.09608 0.44022 0.63553
 N70 N -0.08403 0.49274 0.68841
 H71 H 0.06700 0.37863 0.65454
 H72 H 0.12875 0.59292 0.72454
 H73 H 0.24463 0.58379 0.66322
 H74 H 0.18439 0.36362 0.59252
 H75 H -0.12965 0.57777 0.75264
 H76 H -0.24930 0.57106 0.69309
 H77 H -0.17281 0.39026 0.55806
 H78 H -0.05297 0.40253 0.62223
 C79 C -0.01887 0.27976 0.88454
 C80 C 0.02110 0.71682 0.87708
 C81 C -0.22300 0.47962 0.61868
 C82 C 0.22560 0.47154 0.62410
 C83 C 0.17095 0.07651 0.39601
 H84 H 0.17121 0.12151 0.43542
 C85 C 0.13998 0.08607 0.32450
 H86 H 0.11491 0.13802 0.30972
 C87 C 0.20601 -0.04477 0.36590
 H88 H 0.23337 -0.09516 0.38135
 C89 C 0.17566 -0.03765 0.29410
 H90 H 0.18068 -0.08287 0.25547
 N91 N 0.20395 0.01207 0.41506
 C92 C 0.22995 -0.00579 0.65651
 H93 H 0.28443 -0.02888 0.65784
 C94 C 0.19279 0.00053 0.72241
 H95 H 0.22120 -0.01443 0.77379
 C96 C 0.12809 0.04095 0.58696
 H97 H 0.10311 0.05625 0.53402
 C98 C 0.08831 0.04761 0.65195
 H99 H 0.03269 0.06823 0.64857
 Zn100 Zn 0.25779 0.00313 0.50720
 N101 N 0.19795 0.01504 0.59060
 C102 C 0.36373 0.09765 0.57944
 N103 N 0.33170 0.07842 0.51263
 C104 C 0.34155 0.12062 0.45134
 C105 C 0.37792 0.18820 0.45747
 C106 C 0.40026 0.16497 0.58813
 C107 C 0.25310 -0.14483 0.54596
 C108 C 0.27630 -0.21736 0.55237
 C109 C 0.38546 -0.18436 0.48712
 C110 C 0.36114 -0.11167 0.48389
 N111 N 0.29614 -0.09331 0.51367
 H112 H 0.35774 0.06326 0.62743
 H113 H 0.31837 0.10361 0.39797
 H114 H 0.38378 0.22089 0.40786
 H115 H 0.42196 0.18104 0.64262
 H116 H 0.20036 -0.12967 0.56693
 H117 H 0.24202 -0.25721 0.57968
 H118 H 0.43762 -0.19764 0.46362
 H119 H 0.39373 -0.07005 0.45731
 C120 C 0.12054 0.02668 0.72063
 C121 C 0.14223 0.02861 0.27252
 C122 C 0.34293 -0.23809 0.52247
 C123 C 0.40410 0.21294 0.52766
 C124 C 0.83422 0.08038 0.59498
 H125 H 0.84056 0.12111 0.55196
 C126 C 0.86591 0.09238 0.66598
 H127 H 0.89868 0.14132 0.67666
 C128 C 0.78160 -0.03151 0.63464
 H129 H 0.74720 -0.07890 0.62327
 C130 C 0.81098 -0.02114 0.70625
 H131 H 0.79757 -0.06083 0.74839
 N132 N 0.79387 0.01855 0.58042
 C133 C 0.77296 -0.03256 0.34297
 H134 H 0.71745 -0.05385 0.34342
 C135 C 0.80994 -0.03058 0.27630
 H136 H 0.78157 -0.05179 0.22712
 C137 C 0.87310 0.02507 0.40738
 H138 H 0.89691 0.04786 0.45817
 C139 C 0.91186 0.02901 0.34179
 H140 H 0.96594 0.05420 0.34352
 Zn141 Zn 0.74218 0.00557 0.48812
 N142 N 0.80435 -0.00408 0.40645
 C143 C 0.69188 0.12799 0.40696
 N144 N 0.68564 0.09094 0.47213
 C145 C 0.64947 0.12035 0.52998
 C146 C 0.62021 0.19092 0.52442
 C147 C 0.66330 0.19835 0.39895
 C148 C 0.72049 -0.14497 0.47943
 C149 C 0.68582 -0.21251 0.48904
 C150 C 0.57945 -0.14820 0.53168
 C151 C 0.61583 -0.08156 0.51999
 N152 N 0.68504 -0.08126 0.49397
 H153 H 0.72153 0.10455 0.36179
 H154 H 0.64624 0.09030 0.58160
 H155 H 0.59165 0.21308 0.57119
 H156 H 0.66999 0.22754 0.34716
 H157 H 0.77672 -0.14334 0.46197
 H158 H 0.71633 -0.26203 0.47858
 H159 H 0.52513 -0.14767 0.55424
 H160 H 0.58966 -0.03038 0.53365
 C161 C 0.88008 0.00219 0.27457
 C162 C 0.85518 0.04075 0.72243
 C163 C 0.61387 -0.21477 0.51481
 C164 C 0.62917 0.23160 0.45881
 C165 C 0.63588 0.19653 0.94773
 H166 H 0.62315 0.22989 0.89973
 C167 C 0.70677 0.16885 0.95755
 H168 H 0.74693 0.18305 0.91699
 C169 C 0.59955 0.14074 1.05949
 H170 H 0.55782 0.12998 1.09930
 C171 C 0.66959 0.11157 1.07133
 H172 H 0.68083 0.07817 1.12010
 N173 N 0.58461 0.18450 0.99979
 C174 C 0.35385 0.20629 1.03752
 H175 H 0.35836 0.25867 1.06572
 C176 C 0.28595 0.17107 1.03216
 H177 H 0.24050 0.19784 1.05783
 C178 C 0.40769 0.11457 0.96357
 H179 H 0.45494 0.09460 0.93490
 C180 C 0.34028 0.07794 0.95560
 H181 H 0.33683 0.02872 0.92170
 Zn182 Zn 0.49601 0.23942 0.99786
 N183 N 0.41289 0.17789 1.00352
 C184 C 0.42397 0.28027 0.86401
 N185 N 0.48483 0.29445 0.90779
 C186 C 0.53645 0.34362 0.88604
 C187 C 0.52952 0.37771 0.81655
 C188 C 0.41453 0.31357 0.79479
 C189 C 0.49026 0.26582 1.14984
 C190 C 0.49514 0.30493 1.21644
 C191 C 0.51794 0.41506 1.14608
 C192 C 0.51198 0.37378 1.08053
 N193 N 0.49915 0.30026 1.08362
 H194 H 0.38256 0.24227 0.88187
 H195 H 0.58404 0.35502 0.92179
 H196 H 0.57130 0.41641 0.80033
 H197 H 0.36611 0.30078 0.76054
 H198 H 0.47869 0.20766 1.15109
 H199 H 0.48988 0.27539 1.26812
 H200 H 0.52968 0.47328 1.14295
 H201 H 0.51863 0.40040 1.02760
 C202 C 0.27786 0.10613 0.98974
 C203 C 0.72475 0.12664 1.02090
 C204 C 0.50898 0.38072 1.21502
 C205 C 0.46836 0.36151 0.76952
 C206 C 0.37456 0.84841 0.95537
 H207 H 0.39960 0.85258 0.90189
 C208 C 0.30380 0.87605 0.96424
 H209 H 0.27554 0.90046 0.91667
 C210 C 0.38336 0.81675 1.08266
 H211 H 0.41371 0.79287 1.12898
 C212 C 0.31527 0.84859 1.09519
 H213 H 0.29457 0.84879 1.15105
 N214 N 0.41078 0.81468 1.01301
 C215 C 0.64548 0.77713 0.97601
 H216 H 0.64547 0.71880 0.98517
 C217 C 0.71177 0.81226 0.96389
 H218 H 0.76092 0.77950 0.96085
 C219 C 0.58147 0.88985 0.97007
 H220 H 0.53044 0.91961 0.97287
 C221 C 0.64737 0.92769 0.95809
 H222 H 0.64686 0.98684 0.95208
 Zn223 Zn 0.49811 0.75757 0.99983
 N224 N 0.58201 0.81575 0.97957
 C225 C 0.53921 0.63426 0.91630
 N226 N 0.48796 0.68818 0.91933
 C227 C 0.44060 0.69972 0.86046
 C228 C 0.44956 0.66306 0.79303
 C229 C 0.55059 0.59675 0.84980
 C230 C 0.57196 0.73391 1.13821
 C231 C 0.58224 0.70322 1.20876
 C232 C 0.48179 0.61955 1.18026
 C233 C 0.47405 0.65117 1.10984
 N234 N 0.51833 0.70781 1.09052
 H235 H 0.57367 0.62233 0.96466
 H236 H 0.39703 0.73879 0.86407
 H237 H 0.41142 0.67449 0.74734
 H238 H 0.59402 0.55652 0.84773
 H239 H 0.60533 0.78028 1.12274
 H240 H 0.62459 0.72507 1.24641
 H241 H 0.44610 0.57430 1.19429
 H242 H 0.43150 0.63189 1.07111
 C243 C 0.71372 0.88872 0.95665
 C244 C 0.27251 0.87505 1.03501
 C245 C 0.53573 0.64664 1.23118
 C246 C 0.50801 0.61376 0.78592
 B247 B 0.99660 1.06979 0.04746
 B248 B 1.00070 1.07308 -0.04655
 B249 B 1.07376 1.04107 0.00430
 B250 B 1.04122 0.99271 0.07687
 B251 B 0.94833 0.99326 0.07012
 B252 B 0.92293 1.04327 -0.00604
 B253 B 0.99793 0.92200 -0.05214
 B254 B 0.99464 0.91903 0.04147
 B255 B 0.92162 0.95068 -0.01015
 B256 B 0.95379 0.99915 -0.08191
 B257 B 1.04608 0.99760 -0.07588
 B258 B 1.07233 0.94831 0.00072
 B259 B 0.57346 0.50088 0.45094
 B260 B 0.49675 0.54557 0.42098
 B261 B 0.49640 0.45336 0.42310
 B262 B 0.54666 0.42723 0.50008
 B263 B 0.57650 0.50453 0.54517
 B264 B 0.54523 0.57774 0.49605
 B265 B 0.42563 0.50170 0.54601
 B266 B 0.50296 0.45763 0.57611
 B267 B 0.50153 0.55056 0.57343
 B268 B 0.45254 0.57614 0.49610
 B269 B 0.42219 0.49943 0.45193
 B270 B 0.45422 0.42489 0.50092
 C271 C 1.02319 1.20613 0.08321
 C272 C 0.98782 1.14260 0.09595
 H273 H 1.06349 1.20680 0.04048
 H274 H 0.94490 1.14046 0.13555
 C275 C 1.03883 0.79950 0.10823
 C276 C 0.98473 0.84452 0.08620
 H277 H 1.09494 0.81392 0.09751
 H278 H 0.92904 0.82914 0.09690
 C279 C 0.96769 1.20783 -0.08015
 C280 C 1.01090 1.14923 -0.08835
 H281 H 0.92049 1.20417 -0.04569
 H282 H 1.05878 1.15385 -0.12179
 C283 C 1.02985 0.78660 -0.08138
 C284 C 0.99600 0.84889 -0.10146
 H285 H 1.06282 0.78472 -0.03081
 H286 H 0.96186 0.84853 -0.15138
 C287 C 1.11093 1.03970 0.19630
 C288 C 1.08188 0.98434 0.15572
 H289 H 1.10697 1.09532 0.17596
 H290 H 1.08126 0.92985 0.17918
 C291 C 1.07813 1.03364 -0.21098
 C292 C 1.09266 0.99460 -0.14920
 H293 H 1.03224 1.07048 -0.21343
 H294 H 1.13567 0.95442 -0.14983
 C295 C 0.91918 1.01133 0.20902
 C296 C 0.89959 0.98428 0.14159
 H297 H 0.96910 1.04299 0.21436
 H298 H 0.85046 0.95160 0.13339
 C299 C 0.89109 1.05201 -0.20319
 C300 C 0.90924 0.99535 -0.15921
 H301 H 0.90744 1.10710 -0.18741
 H302 H 0.89363 0.94100 -0.17712
 C303 C 1.20999 1.06996 -0.02205
 C304 C 1.14888 1.08496 0.01489
 H305 H 1.20831 1.02578 -0.06217
 H306 H 1.15050 1.12432 0.05943
 C307 C 0.79939 1.09738 0.03669
 C308 C 0.84903 1.08833 -0.01573
 H309 H 0.81120 1.07882 0.09253
 H310 H 0.83602 1.10536 -0.07192
 C311 C 1.20200 0.90266 0.04790
 C312 C 1.14796 0.90458 -0.00460
 H313 H 1.19108 0.92050 0.10356
 H314 H 1.15677 0.87770 -0.05713
 C315 C 0.78419 0.92857 -0.04990
 C316 C 0.84665 0.90510 -0.01626
 H317 H 0.78260 0.98024 -0.07897
 H318 H 0.84562 0.85385 0.01329
 C319 C 0.70913 0.52942 0.42000
 C320 C 0.64597 0.49382 0.40416
 H321 H 0.71351 0.56572 0.46751
 H322 H 0.64526 0.45268 0.36087
 C323 C 0.28999 0.45866 0.40811
 C324 C 0.34530 0.50716 0.40711
 H325 H 0.29709 0.40675 0.43411
 H326 H 0.33611 0.55865 0.37894
 C327 C 0.71072 0.47036 0.58331
 C328 C 0.65128 0.51264 0.59263
 H329 H 0.70622 0.42713 0.54211
 H330 H 0.65278 0.55882 0.63011
 C331 C 0.29644 0.46079 0.58714
 C332 C 0.35395 0.50672 0.59397
 H333 H 0.30119 0.41208 0.55379
 H334 H 0.35370 0.54968 0.63514
 C335 C 0.54554 0.61613 0.30696
 C336 C 0.48947 0.58766 0.34372
 H337 H 0.60017 0.61681 0.33192
 H338 H 0.43516 0.59071 0.31843
 C339 C 0.52471 0.57709 0.71461
 C340 C 0.49757 0.59826 0.64785
 H341 H 0.56129 0.53089 0.71819
 H342 H 0.46487 0.64713 0.64415
 C343 C 0.51769 0.42472 0.28390
 C344 C 0.48767 0.40633 0.34844
 H345 H 0.54950 0.47442 0.27992
 H346 H 0.45366 0.35779 0.35068
 C347 C 0.45731 0.39507 0.69535
 C348 C 0.51275 0.41583 0.65317
 H349 H 0.40167 0.39884 0.67382
 H350 H 0.56861 0.40609 0.67265
 C351 C 0.57435 0.71495 0.52654
 C352 C 0.58993 0.65283 0.49016
 H353 H 0.52861 0.71626 0.56305
 H354 H 0.63182 0.65438 0.44945
 C355 C 0.60172 0.30728 0.44958
 C356 C 0.59015 0.35225 0.50682
 H357 H 0.59163 0.32594 0.39342
 H358 H 0.60588 0.33518 0.56255
 C359 C 0.36811 0.68531 0.53255
 C360 C 0.41219 0.65283 0.48482
 H361 H 0.35010 0.65644 0.58083
 H362 H 0.42590 0.68236 0.43503
 C363 C 0.43483 0.28780 0.54008
 C364 C 0.41648 0.34525 0.49692
 H365 H 0.47284 0.29482 0.58667
 H366 H 0.38096 0.33438 0.44963
   
