data_POSCAR
  _audit_creation_date              2014-09-24
  _audit_creation_method            'ToBaCCo'
  _symmetry_space_group_name_H-M    'P1'
  _symmetry_Int_Tables_number       1
  _symmetry_cell_setting            triclinic
  loop_
  _symmetry_equiv_pos_as_xyz
 x,y,z
_cell_length_a 21.0134
_cell_length_b 20.8635
_cell_length_c 36.1649
_cell_angle_alpha 87.357100
_cell_angle_beta 91.228100
_cell_angle_gamma 85.780900
loop_
  _atom_site_label
  _atom_site_type_symbol
  _atom_site_fract_x
  _atom_site_fract_y
  _atom_site_fract_z
C1 C -0.04834 0.31183 0.98045
 C2 C -0.05041 0.30933 1.01831
 C3 C -0.02125 0.36263 1.03015
 N4 N -0.00268 0.39830 1.00074
 C5 C -0.01895 0.36704 0.97039
 C6 C -0.00798 0.37539 1.06756
 C7 C 0.00510 0.43807 1.07791
 C8 C 0.03602 0.45193 1.11055
 C9 C 0.03784 0.51760 1.11040
 C10 C 0.00825 0.54243 1.07761
 N11 N -0.01104 0.49354 1.05774
 C12 C -0.00084 0.60897 1.06708
 C13 C -0.01033 0.63053 1.02942
 C14 C -0.03222 0.69242 1.01708
 C15 C -0.02925 0.69465 0.97925
 C16 C -0.00739 0.63364 0.96954
 N17 N 0.00429 0.59448 1.00021
 C18 C 0.00600 0.61617 0.93310
 C19 C 0.01750 0.55171 0.92349
 C20 C 0.04190 0.53199 0.89017
 C21 C 0.03955 0.46624 0.89046
 C22 C 0.01309 0.44790 0.92374
 N23 N -0.00007 0.50020 0.94369
 C24 C -0.00305 0.38518 0.93389
 H25 H -0.06630 0.27700 0.96238
 H26 H -0.07064 0.27220 1.03524
 H27 H -0.02681 0.50168 0.96756
 H28 H 0.05628 0.41823 1.13203
 H29 H 0.05965 0.54399 1.13177
 H30 H -0.04841 0.73212 1.03358
 H31 H -0.04180 0.73652 0.96107
 H32 H 0.05433 0.43571 0.86834
 H33 H -0.03860 0.49823 1.03333
 H34 H 0.05851 0.56182 0.86764
 C35 C 0.30006 0.03224 0.48319
 C36 C 0.30323 0.03793 0.52081
 C37 C 0.36665 0.02433 0.53165
 N38 N 0.40215 0.00987 0.50203
 C39 C 0.36154 0.01476 0.47236
 C40 C 0.38968 0.01900 0.56867
 C41 C 0.45524 0.01076 0.57859
 C42 C 0.47928 -0.01050 0.61334
 C43 C 0.54449 -0.00936 0.61215
 C44 C 0.55860 0.01415 0.57694
 N45 N 0.50378 0.02594 0.55659
 C46 C 0.62071 0.02522 0.56449
 C47 C 0.63330 0.03253 0.52620
 C48 C 0.68661 0.05895 0.51159
 C49 C 0.68334 0.05221 0.47413
 C50 C 0.62771 0.02283 0.46696
 N51 N 0.59691 0.01106 0.49876
 C52 C 0.60882 0.00270 0.43193
 C53 C 0.54569 -0.01203 0.42372
 C54 C 0.52648 -0.04277 0.39263
 C55 C 0.46108 -0.04321 0.39368
 C56 C 0.44232 -0.01316 0.42551
 N57 N 0.49413 0.00590 0.44357
 C58 C 0.37843 -0.00129 0.43616
 H59 H 0.25716 0.03901 0.46593
 H60 H 0.26316 0.04956 0.53822
 H61 H 0.49373 0.03565 0.46588
 H62 H 0.45275 -0.02577 0.63707
 H63 H 0.57760 -0.02457 0.63472
 H64 H 0.72415 0.08066 0.52641
 H65 H 0.71792 0.06724 0.45438
 H66 H 0.43079 -0.06329 0.37330
 H67 H 0.49920 0.04902 0.53043
 H68 H 0.55632 -0.06233 0.37123
 C69 C 0.12032 -0.00992 0.27028
 H70 H 0.12396 0.00156 0.24098
 C71 C 0.17400 -0.00831 0.29362
 H72 H 0.21905 0.00279 0.28183
 C73 C 0.05687 -0.03654 0.32128
 H74 H 0.01107 -0.04640 0.33221
 C75 C 0.10922 -0.03542 0.34558
 H76 H 0.10268 -0.04416 0.37494
 N77 N 0.06327 -0.02443 0.28431
 C78 C -0.05813 -0.12612 0.21470
 H79 H -0.10313 -0.10857 0.22576
 C80 C -0.05639 -0.17767 0.19132
 H81 H -0.10020 -0.19947 0.18479
 C82 C 0.05258 -0.11635 0.20761
 H83 H 0.09482 -0.09193 0.21360
 C84 C 0.05641 -0.16752 0.18400
 H85 H 0.10196 -0.18241 0.17246
 Zn86 Zn -0.00895 -0.02284 0.25163
 N87 N -0.00410 -0.09655 0.22242
 C88 C -0.01852 0.04618 0.18284
 N89 N -0.00936 0.05183 0.21983
 C90 C 0.00090 0.10954 0.23406
 C91 C 0.00230 0.16468 0.21065
 C92 C -0.01736 0.09987 0.15851
 C93 C -0.09772 -0.07522 0.29934
 C94 C -0.15072 -0.07510 0.32194
 C95 C -0.17658 0.03648 0.30308
 C96 C -0.12350 0.03395 0.28044
 N97 N -0.08463 -0.02100 0.27951
 H98 H -0.02689 -0.00004 0.17212
 H99 H 0.00847 0.11257 0.26359
 H100 H 0.01139 0.21007 0.22234
 H101 H -0.02542 0.09439 0.12919
 H102 H -0.06629 -0.11846 0.29797
 H103 H -0.16013 -0.11897 0.33734
 H104 H -0.20517 0.08156 0.30454
 H105 H -0.11257 0.07650 0.26440
 C106 C 0.00134 -0.19858 0.17535
 C107 C 0.16884 -0.02117 0.33186
 C108 C -0.19042 -0.01834 0.32464
 C109 C -0.00648 0.16009 0.17227
 C110 C 0.00215 0.14546 0.76659
 H111 H 0.00446 0.15426 0.73695
 C112 C 0.00014 0.19708 0.79000
 H113 H 0.00147 0.24564 0.77827
 C114 C -0.00186 0.07143 0.81802
 H115 H -0.00434 0.02274 0.82896
 C116 C -0.00348 0.12134 0.84235
 H117 H -0.00655 0.11029 0.87178
 N118 N 0.00273 0.08396 0.78097
 C119 C 0.09519 -0.03301 0.69755
 H120 H 0.06103 -0.06910 0.69544
 C121 C 0.14792 -0.03445 0.67476
 H122 H 0.15326 -0.07145 0.65481
 C123 C 0.12746 0.06048 0.72521
 H124 H 0.11960 0.09707 0.74512
 C125 C 0.18127 0.06056 0.70315
 H126 H 0.21439 0.09735 0.70648
 Zn127 Zn 0.00889 0.01492 0.74857
 N128 N 0.08496 0.01495 0.72140
 C129 C -0.05470 0.03240 0.67861
 N130 N -0.06304 0.02415 0.71567
 C131 C -0.12245 0.02241 0.72975
 C132 C -0.17618 0.02520 0.70607
 C133 C -0.10692 0.03537 0.65401
 C134 C 0.06007 -0.07717 0.80156
 C135 C 0.06190 -0.13188 0.82535
 C136 C -0.03325 -0.16304 0.79442
 C137 C -0.03378 -0.10713 0.77159
 N138 N 0.01141 -0.06459 0.77630
 H139 H -0.00754 0.03638 0.66792
 H140 H -0.12789 0.01707 0.75939
 H141 H -0.22289 0.02129 0.71767
 H142 H -0.09914 0.04130 0.62459
 H143 H 0.09605 -0.04304 0.80428
 H144 H 0.09911 -0.13869 0.84661
 H145 H -0.06989 -0.19603 0.79030
 H146 H -0.07071 -0.09762 0.75043
 C147 C 0.19152 0.01326 0.67700
 C148 C -0.00151 0.18502 0.82847
 C149 C 0.01412 -0.17527 0.82244
 C150 C -0.16853 0.03045 0.66759
 C151 C 0.03753 -0.29064 0.08943
 C152 C 0.00208 -0.34499 0.09473
 C153 C -0.03098 -0.35212 0.12801
 C154 C -0.03069 -0.30509 0.15436
 C155 C 0.00339 -0.25023 0.14839
 C156 C 0.03809 -0.24397 0.11585
 H157 H 0.06539 -0.28439 0.06483
 H158 H -0.05910 -0.39297 0.13308
 H159 H -0.05734 -0.31153 0.17939
 H160 H 0.06463 -0.20213 0.11036
 C161 C 0.02630 0.26353 0.08705
 C162 C -0.00474 0.32355 0.09465
 C163 C -0.03324 0.33005 0.12936
 C164 C -0.03288 0.27746 0.15491
 C165 C -0.00386 0.21723 0.14644
 C166 C 0.02661 0.21125 0.11249
 H167 H 0.05104 0.25707 0.06135
 H168 H -0.05829 0.37506 0.13615
 H169 H -0.05713 0.28340 0.18078
 H170 H 0.05095 0.16597 0.10559
 C171 C 0.32445 -0.04126 0.61341
 C172 C 0.34236 0.01767 0.59843
 C173 C 0.31292 0.07519 0.61042
 C174 C 0.26486 0.07383 0.63651
 C175 C 0.24575 0.01481 0.65125
 C176 C 0.27690 -0.04272 0.63978
 H177 H 0.34691 -0.08605 0.60436
 H178 H 0.32605 0.12102 0.59881
 H179 H 0.24130 0.11899 0.64420
 H180 H 0.26427 -0.08895 0.65100
 C181 C -0.33412 0.06080 0.62304
 C182 C -0.32788 0.02608 0.59059
 C183 C -0.26890 -0.00800 0.58450
 C184 C -0.21773 -0.00658 0.60953
 C185 C -0.22382 0.02879 0.64152
 C186 C -0.28271 0.06207 0.64819
 H187 H -0.37824 0.08863 0.62842
 H188 H -0.26266 -0.03706 0.56059
 H189 H -0.17345 -0.03404 0.60408
 H190 H -0.28861 0.09023 0.67246
 C191 C -0.04846 -0.30207 0.88816
 C192 C 0.00826 -0.33224 0.90371
 C193 C 0.06702 -0.31263 0.89168
 C194 C 0.06907 -0.26293 0.86456
 C195 C 0.01228 -0.23120 0.84943
 C196 C -0.04654 -0.25170 0.86149
 H197 H -0.09419 -0.31672 0.89730
 H198 H 0.11122 -0.33583 0.90334
 H199 H 0.11518 -0.24942 0.85551
 H200 H -0.09123 -0.22778 0.85109
 C201 C -0.03985 0.34355 0.87349
 C202 C -0.00102 0.33549 0.90570
 C203 C 0.03903 0.27900 0.91166
 C204 C 0.03924 0.23061 0.88631
 C205 C -0.00027 0.23796 0.85433
 C206 C -0.03923 0.29525 0.84787
 H207 H -0.07122 0.38678 0.86851
 H208 H 0.06971 0.27218 0.93620
 H209 H 0.07043 0.18736 0.89167
 H210 H -0.07039 0.30189 0.82354
 C211 C -0.34891 0.02860 0.36882
 C212 C -0.34177 -0.00523 0.40328
 C213 C -0.28604 -0.04522 0.41114
 C214 C -0.23747 -0.04996 0.38549
 C215 C -0.24385 -0.01551 0.35107
 C216 C -0.30058 0.02326 0.34287
 H217 H -0.39156 0.05976 0.36224
 H218 H -0.27964 -0.07179 0.43757
 H219 H -0.19417 -0.07931 0.39315
 H220 H -0.30763 0.04966 0.31646
 C221 C 0.28502 -0.05748 0.41325
 C222 C 0.32662 -0.00838 0.40843
 C223 C 0.31796 0.03496 0.37763
 C224 C 0.26734 0.03025 0.35242
 C225 C 0.22460 -0.01807 0.35754
 C226 C 0.23447 -0.06231 0.38805
 H227 H 0.29144 -0.09163 0.43675
 H228 H 0.34968 0.07318 0.37358
 H229 H 0.26066 0.06550 0.32949
 H230 H 0.20309 -0.10070 0.39244
   
