data_POSCAR
  _audit_creation_date              2014-09-24
  _audit_creation_method            'ToBaCCo'
  _symmetry_space_group_name_H-M    'P1'
  _symmetry_Int_Tables_number       1
  _symmetry_cell_setting            triclinic
  loop_
  _symmetry_equiv_pos_as_xyz
 x,y,z
_cell_length_a 48.5523
_cell_length_b 27.0211
_cell_length_c 20.5734
_cell_angle_alpha 89.916900
_cell_angle_beta 89.866000
_cell_angle_gamma 90.252500
loop_
  _atom_site_label
  _atom_site_type_symbol
  _atom_site_fract_x
  _atom_site_fract_y
  _atom_site_fract_z
C1 C 0.68921 0.27387 0.55473
 C2 C 0.67806 0.28740 0.49436
 C3 C 0.69225 0.28033 0.43599
 C4 C 0.71929 0.26128 0.43734
 C5 C 0.73112 0.24663 0.49728
 C6 C 0.71623 0.25327 0.55629
 C7 C 0.72949 0.24178 0.61506
 C8 C 0.75561 0.22108 0.61586
 C9 C 0.77084 0.21443 0.55831
 C10 C 0.75815 0.22608 0.49815
 C11 C 0.73525 0.25860 0.38054
 C12 C 0.76135 0.23787 0.38137
 C13 C 0.77249 0.21794 0.43877
 C14 C 0.79839 0.19336 0.43918
 C15 C 0.81052 0.18274 0.49960
 C16 C 0.79798 0.19473 0.55909
 H17 H 0.72018 0.24921 0.66168
 H18 H 0.76351 0.20994 0.66267
 H19 H 0.72788 0.27329 0.33485
 H20 H 0.77291 0.23882 0.33645
 H21 H 0.65703 0.30067 0.49209
 H22 H 0.83051 0.16523 0.50046
 C23 C 0.20187 0.80979 0.55564
 C24 C 0.18991 0.82205 0.49592
 C25 C 0.20262 0.81055 0.43675
 C26 C 0.22837 0.78607 0.43702
 C27 C 0.24118 0.77447 0.49709
 C28 C 0.22747 0.78480 0.55645
 C29 C 0.23923 0.76811 0.61476
 C30 C 0.26499 0.74581 0.61539
 C31 C 0.28046 0.74017 0.55793
 C32 C 0.26767 0.75201 0.49778
 C33 C 0.24125 0.77144 0.37898
 C34 C 0.26704 0.74933 0.37959
 C35 C 0.28107 0.74097 0.43825
 C36 C 0.30778 0.72032 0.43893
 C37 C 0.32021 0.70931 0.49844
 C38 C 0.30746 0.71959 0.55833
 H39 H 0.22841 0.77129 0.66057
 H40 H 0.27232 0.73216 0.66158
 H41 H 0.23142 0.77637 0.33234
 H42 H 0.27570 0.73829 0.33338
 H43 H 0.17065 0.84225 0.49547
 H44 H 0.34120 0.69574 0.49770
 C45 C 0.18806 0.23173 -0.43910
 C46 C 0.17431 0.22316 -0.49759
 C47 C 0.18548 0.23743 -0.55794
 C48 C 0.21254 0.25833 -0.55946
 C49 C 0.22681 0.26697 -0.50026
 C50 C 0.21401 0.25552 -0.43999
 C51 C 0.22735 0.26865 -0.38202
 C52 C 0.25362 0.28903 -0.38288
 C53 C 0.26794 0.29595 -0.44165
 C54 C 0.25423 0.28610 -0.50112
 C55 C 0.22641 0.26828 -0.61823
 C56 C 0.25290 0.28797 -0.61900
 C57 C 0.26788 0.29502 -0.56126
 C58 C 0.29560 0.31284 -0.56163
 C59 C 0.30841 0.32275 -0.50181
 C60 C 0.29541 0.31340 -0.44236
 H61 H 0.21747 0.26371 -0.33524
 H62 H 0.26260 0.29926 -0.33672
 H63 H 0.21732 0.26012 -0.66485
 H64 H 0.26137 0.29770 -0.66592
 H65 H 0.15404 0.20616 -0.49551
 H66 H 0.32987 0.33404 -0.50104
 C67 C -0.29822 0.69080 -0.44351
 C68 C -0.31069 0.68122 -0.50384
 C69 C -0.29807 0.69308 -0.56344
 C70 C -0.27062 0.71190 -0.56277
 C71 C -0.25758 0.72248 -0.50259
 C72 C -0.27188 0.71423 -0.44313
 C73 C -0.26023 0.73293 -0.38552
 C74 C -0.23379 0.75259 -0.38470
 C75 C -0.21799 0.75560 -0.44172
 C76 C -0.23022 0.74207 -0.50175
 C77 C -0.25540 0.71866 -0.62040
 C78 C -0.22896 0.73848 -0.61962
 C79 C -0.21540 0.74898 -0.56086
 C80 C -0.18813 0.76895 -0.55935
 C81 C -0.17664 0.78145 -0.49892
 C82 C -0.19073 0.77401 -0.44046
 H83 H -0.27164 0.73374 -0.34038
 H84 H -0.22605 0.76630 -0.33882
 H85 H -0.26359 0.70831 -0.66725
 H86 H -0.21962 0.74603 -0.66625
 H87 H -0.33101 0.66460 -0.50450
 H88 H -0.15547 0.79440 -0.49677
 N89 N -0.02548 0.90881 -0.07041
 N90 N -0.04447 0.87427 -0.07932
 N91 N 0.02986 0.95267 -0.11880
 N92 N 0.05059 0.95072 -0.16023
 N93 N 0.03240 0.91859 -0.07367
 N94 N 0.05506 0.89260 -0.08299
 N95 N -0.02775 0.94370 -0.11454
 N96 N -0.04823 0.93397 -0.15451
 C97 C -0.05856 0.89064 -0.13195
 C98 C 0.06602 0.91308 -0.13733
 N99 N 0.02429 1.09282 -0.07288
 N100 N 0.04504 1.12423 -0.08034
 N101 N -0.03270 1.04981 -0.11426
 N102 N -0.05311 1.05540 -0.15587
 N103 N -0.03352 1.08426 -0.06944
 N104 N -0.05449 1.11421 -0.07926
 N105 N 0.02503 1.05844 -0.11793
 N106 N 0.04626 1.06525 -0.15696
 Mn107 Mn -0.00146 1.00115 -0.11704
 C108 C 0.05831 1.10659 -0.13342
 C109 C -0.06666 1.09556 -0.13311
 N110 N 0.03381 0.91822 0.06663
 N111 N 0.05637 0.89157 0.07414
 N112 N -0.02541 0.94281 0.11459
 N113 N -0.04473 0.93189 0.15755
 N114 N -0.02398 0.90840 0.06974
 N115 N -0.04229 0.87312 0.08100
 N116 N 0.03223 0.95241 0.11178
 N117 N 0.05354 0.95006 0.15121
 Mn118 Mn 0.00425 0.91283 -0.00195
 C119 C 0.06833 0.91200 0.12719
 C120 C -0.05517 0.88839 0.13586
 N121 N -0.03257 1.08337 0.07008
 N122 N -0.05514 1.10967 0.07894
 N123 N 0.02720 1.05831 0.11232
 N124 N 0.04655 1.06963 0.15472
 N125 N 0.02530 1.09280 0.06758
 N126 N 0.04330 1.12862 0.07850
 N127 N -0.03036 1.04921 0.11525
 N128 N -0.05107 1.05180 0.15669
 Mn129 Mn -0.00411 1.08895 -0.00116
 Mn130 Mn 0.00089 1.00066 0.11416
 Cl131 Cl -0.00011 1.00088 -0.00147
 C132 C -0.06631 1.08955 0.13328
 C133 C 0.05656 1.11344 0.13284
 N134 N 0.46934 0.44992 0.11318
 N135 N 0.44906 0.44451 0.15552
 N136 N 0.52598 0.40971 0.06721
 N137 N 0.54559 0.37673 0.07623
 N138 N 0.52722 0.44436 0.11178
 N139 N 0.54774 0.43603 0.15218
 N140 N 0.46816 0.41526 0.06863
 N141 N 0.44709 0.38532 0.07945
 C142 C 0.43528 0.40413 0.13369
 C143 C 0.55906 0.39375 0.12937
 N144 N 0.52624 0.44299 -0.11829
 N145 N 0.54552 0.43272 -0.16148
 N146 N 0.46760 0.41457 -0.07124
 N147 N 0.44653 0.38442 -0.08078
 N148 N 0.46840 0.44903 -0.11624
 N149 N 0.44785 0.44343 -0.15744
 N150 N 0.52534 0.40884 -0.07289
 N151 N 0.54391 0.37432 -0.08409
 Mn152 Mn 0.49677 0.41152 -0.00203
 C153 C 0.55647 0.38988 -0.13935
 C154 C 0.43431 0.40309 -0.13456
 N155 N 0.53080 0.55062 0.11086
 N156 N 0.55104 0.55672 0.15287
 N157 N 0.47408 0.59080 0.06679
 N158 N 0.45501 0.62461 0.07690
 N159 N 0.47292 0.55637 0.11183
 N160 N 0.45296 0.56567 0.15361
 N161 N 0.53187 0.58477 0.06548
 N162 N 0.55281 0.61513 0.07552
 Mn163 Mn 0.50005 0.50031 0.11267
 C164 C 0.56470 0.59700 0.13004
 C165 C 0.44190 0.60829 0.13113
 N166 N 0.47209 0.55527 -0.11768
 N167 N 0.45197 0.56429 -0.15894
 N168 N 0.53158 0.58354 -0.07455
 N169 N 0.55407 0.61056 -0.08294
 N170 N 0.52974 0.54935 -0.11967
 N171 N 0.55065 0.55247 -0.16045
 N172 N 0.47353 0.59008 -0.07338
 N173 N 0.45434 0.62378 -0.08332
 Mn174 Mn 0.49910 0.49918 -0.11866
 Mn175 Mn 0.50280 0.58794 -0.00397
 Cl176 Cl 0.49968 0.49975 -0.00298
 C177 C 0.44099 0.60706 -0.13684
 C178 C 0.56557 0.59073 -0.13690
 C179 C 0.34743 0.36138 0.32053
 C180 C 0.34737 0.32436 0.27483
 C181 C 0.33033 0.28303 0.27958
 C182 C 0.31267 0.27972 0.33364
 C183 C 0.31186 0.31792 0.38130
 C184 C 0.32991 0.35914 0.37414
 O185 O 0.36601 0.39643 0.30879
 C186 C 0.37802 0.38118 0.25447
 C187 C 0.36735 0.33733 0.23151
 C188 C 0.37748 0.31415 0.17611
 C189 C 0.39958 0.33696 0.14338
 C190 C 0.41116 0.38189 0.16668
 C191 C 0.39999 0.40440 0.22284
 H192 H 0.33115 0.25366 0.24391
 H193 H 0.30054 0.24629 0.33967
 H194 H 0.33030 0.38890 0.40935
 H195 H 0.36887 0.27952 0.15908
 H196 H 0.40791 0.31921 0.10052
 H197 H 0.40841 0.43853 0.24206
 C198 C -0.13838 0.82570 0.32459
 C199 C -0.13585 0.78862 0.27937
 C200 C -0.15020 0.74409 0.28433
 C201 C -0.16792 0.73769 0.33790
 C202 C -0.17141 0.77593 0.38477
 C203 C -0.15590 0.82030 0.37775
 O204 O -0.12241 0.86456 0.31242
 C205 C -0.10944 0.85180 0.25827
 C206 C -0.11690 0.80573 0.23582
 C207 C -0.10537 0.78499 0.18022
 C208 C -0.08527 0.81280 0.14679
 C209 C -0.07708 0.86020 0.16958
 C210 C -0.08955 0.87992 0.22599
 H211 H -0.14743 0.71491 0.24896
 H212 H -0.17815 0.70228 0.34398
 H213 H -0.15765 0.85026 0.41243
 H214 H -0.11146 0.74862 0.16345
 H215 H -0.07590 0.79716 0.10370
 H216 H -0.08375 0.91588 0.24479
 C217 C 0.65166 0.64228 0.31700
 C218 C 0.65128 0.67969 0.27173
 C219 C 0.66760 0.72187 0.27719
 C220 C 0.68493 0.72570 0.33162
 C221 C 0.68610 0.68724 0.37903
 C222 C 0.66891 0.64498 0.37088
 O223 O 0.63369 0.60640 0.30472
 C224 C 0.62160 0.62150 0.25050
 C225 C 0.63165 0.66606 0.22806
 C226 C 0.62128 0.68918 0.17287
 C227 C 0.59957 0.66560 0.13989
 C228 C 0.58859 0.61999 0.16279
 C229 C 0.60003 0.59754 0.21865
 H230 H 0.66647 0.75147 0.24180
 H231 H 0.69652 0.75966 0.33813
 H232 H 0.66895 0.61472 0.40545
 H233 H 0.62939 0.72438 0.15625
 H234 H 0.59103 0.68331 0.09727
 H235 H 0.59206 0.56291 0.23760
 C236 C 0.13740 1.17893 0.32422
 C237 C 0.13473 1.21611 0.27906
 C238 C 0.14836 1.26127 0.28477
 C239 C 0.16552 1.26819 0.33903
 C240 C 0.16913 1.22991 0.38591
 C241 C 0.15435 1.18486 0.37809
 O242 O 0.12217 1.13936 0.31117
 C243 C 0.10952 1.15178 0.25657
 C244 C 0.11646 1.19831 0.23463
 C245 C 0.10510 1.21877 0.17869
 C246 C 0.08568 1.19021 0.14445
 C247 C 0.07800 1.14235 0.16680
 C248 C 0.09035 1.12290 0.22346
 H249 H 0.14552 1.29047 0.24939
 H250 H 0.17530 1.30394 0.34551
 H251 H 0.15632 1.15469 0.41247
 H252 H 0.11077 1.25552 0.16234
 H253 H 0.07637 1.20564 0.10119
 H254 H 0.08490 1.08662 0.24199
 C255 C 0.63954 0.32942 -0.32877
 C256 C 0.63676 0.29184 -0.28416
 C257 C 0.65079 0.24729 -0.28980
 C258 C 0.66850 0.24142 -0.34341
 C259 C 0.67235 0.28023 -0.38955
 C260 C 0.65709 0.32458 -0.38191
 O261 O 0.62378 0.36819 -0.31603
 C262 C 0.61071 0.35485 -0.26211
 C263 C 0.61791 0.30852 -0.24036
 C264 C 0.60630 0.28720 -0.18505
 C265 C 0.58635 0.31465 -0.15120
 C266 C 0.57836 0.36226 -0.17335
 C267 C 0.59094 0.38262 -0.22944
 H268 H 0.64780 0.21770 -0.25495
 H269 H 0.67846 0.20600 -0.35005
 H270 H 0.65910 0.35497 -0.41602
 H271 H 0.61221 0.25065 -0.16883
 H272 H 0.57690 0.29852 -0.10837
 H273 H 0.58528 0.41877 -0.24772
 C274 C 0.14585 0.83477 -0.32106
 C275 C 0.15985 0.86341 -0.27673
 C276 C 0.18764 0.87515 -0.28362
 C277 C 0.20149 0.85668 -0.33844
 C278 C 0.18757 0.82634 -0.38426
 C279 C 0.15930 0.81539 -0.37519
 O280 O 0.11918 0.83044 -0.30792
 C281 C 0.11625 0.85685 -0.25407
 C282 C 0.14053 0.87764 -0.23266
 C283 C 0.14187 0.90828 -0.17836
 C284 C 0.11714 0.91823 -0.14531
 C285 C 0.09195 0.89778 -0.16737
 C286 C 0.09149 0.86649 -0.22216
 H287 H 0.19811 0.89866 -0.24894
 H288 H 0.22289 0.86661 -0.34592
 H289 H 0.14801 0.79332 -0.41012
 H290 H 0.16113 0.92468 -0.16280
 H291 H 0.11741 0.94289 -0.10385
 H292 H 0.07232 0.85138 -0.24044
 C293 C 0.35652 0.66365 -0.32407
 C294 C 0.35726 0.69944 -0.27672
 C295 C 0.34151 0.74222 -0.28012
 C296 C 0.32440 0.74835 -0.33458
 C297 C 0.32302 0.71169 -0.38426
 C298 C 0.33965 0.66882 -0.37825
 O299 O 0.37374 0.62663 -0.31320
 C300 C 0.38573 0.63933 -0.25783
 C301 C 0.37644 0.68356 -0.23329
 C302 C 0.38698 0.70430 -0.17659
 C303 C 0.40802 0.67852 -0.14426
 C304 C 0.41806 0.63304 -0.16914
 C305 C 0.40649 0.61315 -0.22653
 H306 H 0.34285 0.77046 -0.24301
 H307 H 0.31322 0.78275 -0.33930
 H308 H 0.33944 0.63993 -0.41470
 H309 H 0.37950 0.73931 -0.15831
 H310 H 0.41668 0.69425 -0.10042
 H311 H 0.41377 0.57872 -0.24709
 C312 C -0.15287 1.14225 -0.32062
 C313 C -0.15220 1.17950 -0.27527
 C314 C -0.16789 1.22217 -0.28103
 C315 C -0.18490 1.22664 -0.33584
 C316 C -0.18642 1.18831 -0.38326
 C317 C -0.16984 1.14557 -0.37486
 O318 O -0.13536 1.10594 -0.30807
 C319 C -0.12330 1.12062 -0.25361
 C320 C -0.13292 1.16530 -0.23128
 C321 C -0.12247 1.18816 -0.17600
 C322 C -0.10107 1.16420 -0.14285
 C323 C -0.09046 1.11852 -0.16572
 C324 C -0.10201 1.09627 -0.22159
 H325 H -0.16648 1.25164 -0.24560
 H326 H -0.19599 1.26094 -0.34258
 H327 H -0.17015 1.11541 -0.40946
 H328 H -0.13025 1.22347 -0.15952
 H329 H -0.09241 1.18175 -0.10021
 H330 H -0.09428 1.06162 -0.24051
 C331 C 0.64500 0.66346 -0.32622
 C332 C 0.65943 0.64309 -0.27552
 C333 C 0.68782 0.63692 -0.27742
 C334 C 0.70187 0.65270 -0.33361
 C335 C 0.68763 0.67576 -0.38607
 C336 C 0.65853 0.68049 -0.38161
 O337 O 0.61798 0.66343 -0.31679
 C338 C 0.61525 0.64268 -0.25873
 C339 C 0.63999 0.62996 -0.23089
 C340 C 0.64169 0.60709 -0.17030
 C341 C 0.61686 0.59634 -0.13773
 C342 C 0.59127 0.60786 -0.16677
 C343 C 0.59044 0.63156 -0.22780
 H344 H 0.69870 0.61933 -0.23782
 H345 H 0.72375 0.64551 -0.33688
 H346 H 0.64657 0.69781 -0.41965
 H347 H 0.66135 0.59725 -0.14935
 H348 H 0.61748 0.57756 -0.09122
 H349 H 0.57103 0.64001 -0.25109
 C350 C 0.13576 1.20311 -0.30782
 C351 C 0.15002 1.16909 -0.27134
 C352 C 0.17689 1.15518 -0.28583
 C353 C 0.18953 1.17710 -0.34022
 C354 C 0.17527 1.21239 -0.37847
 C355 C 0.14800 1.22562 -0.36174
 O356 O 0.10978 1.20839 -0.28892
 C357 C 0.10754 1.17695 -0.23955
 C358 C 0.13160 1.15200 -0.22671
 C359 C 0.13326 1.11451 -0.18044
 C360 C 0.10903 1.10165 -0.14694
 C361 C 0.08405 1.12655 -0.15994
 C362 C 0.08332 1.16514 -0.20617
 H363 H 0.18748 1.12746 -0.25737
 H364 H 0.21014 1.16580 -0.35362
 H365 H 0.13644 1.25151 -0.39107
 H366 H 0.15224 1.09460 -0.17223
 H367 H 0.10942 1.07116 -0.11271
 H368 H 0.06417 1.18322 -0.21854
 C369 C 0.34537 0.36270 -0.31750
 C370 C 0.34775 0.32237 -0.27702
 C371 C 0.33319 0.27860 -0.28686
 C372 C 0.31556 0.27630 -0.34077
 C373 C 0.31237 0.31776 -0.38256
 C374 C 0.32756 0.36155 -0.37052
 O375 O 0.36234 0.39946 -0.30228
 C376 C 0.37573 0.38201 -0.25106
 C377 C 0.36747 0.33513 -0.23331
 C378 C 0.37945 0.30934 -0.18216
 C379 C 0.40099 0.33266 -0.14839
 C380 C 0.41028 0.38054 -0.16688
 C381 C 0.39719 0.40566 -0.21857
 H382 H 0.33589 0.24692 -0.25532
 H383 H 0.30479 0.24198 -0.35082
 H384 H 0.32611 0.39325 -0.40259
 H385 H 0.37273 0.27234 -0.16931
 H386 H 0.41087 0.31293 -0.10905
 H387 H 0.40389 0.44211 -0.23403
 C388 C -0.14445 0.83344 -0.31539
 C389 C -0.14158 0.79533 -0.27149
 C390 C -0.15512 0.75016 -0.27854
 C391 C -0.17202 0.74395 -0.33334
 C392 C -0.17531 0.78282 -0.37916
 C393 C -0.16138 0.82829 -0.36956
 O394 O -0.12861 0.87221 -0.30221
 C395 C -0.11539 0.85833 -0.24893
 C396 C -0.12258 0.81170 -0.22785
 C397 C -0.11025 0.78935 -0.17433
 C398 C -0.08954 0.81603 -0.14168
 C399 C -0.08153 0.86387 -0.16333
 C400 C -0.09495 0.88535 -0.21736
 H401 H -0.15216 0.72031 -0.24416
 H402 H -0.18196 0.70850 -0.34114
 H403 H -0.16301 0.85816 -0.40449
 H404 H -0.11603 0.75242 -0.15891
 H405 H -0.07942 0.79906 -0.10050
 H406 H -0.08921 0.92161 -0.23548
 C407 C 0.35542 0.66335 0.31469
 C408 C 0.35982 0.70287 0.27366
 C409 C 0.34732 0.74856 0.28281
 C410 C 0.32971 0.75374 0.33662
 C411 C 0.32452 0.71324 0.37908
 C412 C 0.33763 0.66741 0.36765
 O413 O 0.37056 0.62418 0.29995
 C414 C 0.38482 0.63923 0.24846
 C415 C 0.37893 0.68699 0.23010
 C416 C 0.39218 0.71049 0.17847
 C417 C 0.41247 0.68378 0.14482
 C418 C 0.41928 0.63483 0.16381
 C419 C 0.40500 0.61221 0.21606
 H420 H 0.35155 0.77949 0.25077
 H421 H 0.32054 0.78947 0.34611
 H422 H 0.33462 0.63628 0.40016
 H423 H 0.38733 0.74821 0.16511
 H424 H 0.42327 0.70163 0.10502
 H425 H 0.40978 0.57500 0.23192
 C426 C -0.14498 1.16324 0.32302
 C427 C -0.15965 1.14432 0.27168
 C428 C -0.18819 1.14024 0.27262
 C429 C -0.20212 1.15652 0.32859
 C430 C -0.18758 1.17809 0.38176
 C431 C -0.15836 1.18088 0.37811
 O432 O -0.11793 1.16143 0.31442
 C433 C -0.11542 1.14101 0.25620
 C434 C -0.14031 1.13028 0.22745
 C435 C -0.14226 1.10850 0.16627
 C436 C -0.11755 1.09691 0.13397
 C437 C -0.09183 1.10637 0.16392
 C438 C -0.09074 1.12885 0.22564
 H439 H -0.19931 1.12378 0.23249
 H440 H -0.22417 1.15073 0.33113
 H441 H -0.14613 1.19712 0.41657
 H442 H -0.16203 1.10035 0.14451
 H443 H -0.11838 1.07926 0.08678
 H444 H -0.07125 1.13599 0.24945
 C445 C 0.64589 0.33971 0.31148
 C446 C 0.64334 0.30197 0.26703
 C447 C 0.65712 0.25721 0.27345
 C448 C 0.67395 0.25097 0.32826
 C449 C 0.67699 0.28949 0.37462
 C450 C 0.66284 0.33461 0.36560
 O451 O 0.62964 0.37786 0.29899
 C452 C 0.61650 0.36393 0.24557
 C453 C 0.62418 0.31789 0.22378
 C454 C 0.61205 0.29537 0.17015
 C455 C 0.59101 0.32121 0.13809
 C456 C 0.58242 0.36836 0.16048
 C457 C 0.59565 0.39013 0.21461
 H458 H 0.65433 0.22761 0.23868
 H459 H 0.68399 0.21571 0.33568
 H460 H 0.66423 0.36414 0.40099
 H461 H 0.61824 0.25891 0.15423
 H462 H 0.58104 0.30402 0.09680
 H463 H 0.58945 0.42586 0.23322
 C464 C 0.14786 0.83285 0.30996
 C465 C 0.16175 0.86336 0.26734
 C466 C 0.18907 0.87741 0.27666
 C467 C 0.20257 0.85925 0.33207
 C468 C 0.18879 0.82703 0.37611
 C469 C 0.16099 0.81384 0.36472
 O470 O 0.12151 0.82670 0.29490
 C471 C 0.11866 0.85385 0.24158
 C472 C 0.14270 0.87690 0.22238
 C473 C 0.14394 0.90914 0.16956
 C474 C 0.11934 0.91856 0.13594
 C475 C 0.09437 0.89584 0.15577
 C476 C 0.09404 0.86272 0.20884
 H477 H 0.19940 0.90242 0.24337
 H478 H 0.22357 0.87082 0.34138
 H479 H 0.14977 0.79037 0.39839
 H480 H 0.16297 0.92742 0.15589
 H481 H 0.11948 0.94476 0.09604
 H482 H 0.07498 0.84614 0.22582
   
