data_POSCAR
  _audit_creation_date              2014-09-24
  _audit_creation_method            'ToBaCCo'
  _symmetry_space_group_name_H-M    'P1'
  _symmetry_Int_Tables_number       1
  _symmetry_cell_setting            triclinic
  loop_
  _symmetry_equiv_pos_as_xyz
 x,y,z
_cell_length_a 18.5349
_cell_length_b 11.8238
_cell_length_c 11.7602
_cell_angle_alpha 89.726600
_cell_angle_beta 90.207600
_cell_angle_gamma 89.793200
loop_
  _atom_site_label
  _atom_site_type_symbol
  _atom_site_fract_x
  _atom_site_fract_y
  _atom_site_fract_z
O1 O 0.10264 0.19236 0.20924
 O2 O 0.18223 0.09146 0.09912
 C3 C 0.16726 0.16356 0.17825
 O4 O -0.09964 -0.20978 0.19680
 O5 O -0.17936 -0.09960 0.09443
 C6 C -0.16439 -0.17899 0.16697
 O7 O 0.10370 -0.19998 0.20870
 O8 O 0.18246 -0.09850 0.09812
 C9 C 0.16831 -0.17136 0.17748
 O10 O -0.10006 0.20386 0.19879
 O11 O -0.17951 0.09637 0.09526
 C12 C -0.16471 0.17437 0.16868
 Zr13 Zr 0.00126 0.14020 0.14458
 O14 O -0.00507 0.13861 0.32426
 O15 O 0.00896 0.31887 0.14417
 Zr16 Zr 0.00201 -0.14492 0.14498
 O17 O -0.00114 -0.13345 0.32417
 O18 O 0.00921 -0.32352 0.15161
 O19 O 0.06623 -0.00264 0.16675
 O20 O -0.06134 -0.00252 0.16542
 O21 O -0.09963 0.20797 -0.19688
 O22 O -0.17858 0.09836 -0.09497
 C23 C -0.16403 0.17764 -0.16746
 O24 O 0.10141 -0.19686 -0.20946
 O25 O 0.18090 -0.09649 -0.09919
 C26 C 0.16596 -0.16797 -0.17878
 O27 O -0.10043 -0.20663 -0.19775
 O28 O -0.17965 -0.09899 -0.09393
 C29 C -0.16501 -0.17670 -0.16773
 O30 O 0.10210 0.19555 -0.20735
 O31 O 0.18173 0.09437 -0.09616
 C32 C 0.16682 0.16676 -0.17592
 Zr33 Zr 0.00109 0.14124 -0.14341
 O34 O -0.00270 0.12909 -0.32259
 O35 O 0.00807 0.31980 -0.14965
 Zr36 Zr 0.00101 -0.14405 -0.14296
 O37 O -0.00626 -0.14330 -0.32261
 O38 O 0.00923 -0.32277 -0.14051
 Zr39 Zr 0.10884 -0.00200 0.00093
 Zr40 Zr -0.10611 -0.00158 0.00078
 O41 O -0.06201 -0.00091 -0.16380
 O42 O 0.06554 -0.00138 -0.16494
 O43 O -0.06307 0.16321 0.00050
 O44 O 0.06417 -0.16538 0.00089
 O45 O 0.06364 0.16152 0.00078
 O46 O -0.06266 -0.16667 0.00104
 H47 H -0.09398 -0.00285 0.23196
 H48 H 0.09670 -0.23206 0.00070
 H49 H -0.09482 -0.00037 -0.23052
 H50 H 0.09589 0.22817 0.00086
 H51 H -0.02591 -0.35328 0.09591
 H52 H -0.03262 -0.35232 -0.09785
 H53 H 0.02656 -0.08361 -0.35063
 H54 H -0.00235 0.20781 -0.35188
 H55 H -0.02655 0.34977 -0.09348
 H56 H -0.03224 0.34891 0.09954
 H57 H 0.02921 0.08030 0.35208
 H58 H -0.00133 -0.21233 0.35299
 O59 O 0.60128 0.69834 0.70467
 O60 O 0.68084 0.59595 0.59620
 C61 C 0.66597 0.66894 0.67462
 O62 O 0.40028 0.29245 0.69658
 O63 O 0.32019 0.40200 0.59474
 C64 C 0.33545 0.32292 0.66759
 O65 O 0.60204 0.30419 0.70763
 O66 O 0.68107 0.40719 0.59869
 C67 C 0.66651 0.33407 0.67750
 O68 O 0.39912 0.70918 0.69384
 O69 O 0.31969 0.60017 0.59199
 C70 C 0.33458 0.67891 0.66434
 Zr71 Zr 0.50007 0.64481 0.63999
 O72 O 0.49336 0.64604 0.81966
 O73 O 0.50772 0.82346 0.63600
 Zr74 Zr 0.50071 0.36003 0.64463
 O75 O 0.49839 0.38033 0.82302
 O76 O 0.50281 0.18202 0.66325
 O77 O 0.56496 0.50244 0.66457
 O78 O 0.43712 0.50233 0.66267
 O79 O 0.39843 0.70714 0.29759
 O80 O 0.31940 0.59868 0.40070
 C81 C 0.33384 0.67714 0.32716
 O82 O 0.60181 0.30279 0.29292
 O83 O 0.68113 0.40511 0.40196
 C84 C 0.66643 0.33196 0.32355
 O85 O 0.39996 0.29167 0.30258
 O86 O 0.32010 0.40041 0.40389
 C87 C 0.33532 0.32142 0.33196
 O88 O 0.60100 0.69516 0.28807
 O89 O 0.68051 0.59367 0.39927
 C90 C 0.66568 0.66591 0.31950
 Zr91 Zr 0.49977 0.64179 0.35236
 O92 O 0.49617 0.62766 0.17334
 O93 O 0.50652 0.82031 0.34410
 Zr94 Zr 0.50057 0.35669 0.35676
 O95 O 0.49387 0.35657 0.17702
 O96 O 0.50808 0.17794 0.35978
 Zr97 Zr 0.60759 0.50061 0.49879
 Zr98 Zr 0.39219 0.50056 0.49806
 O99 O 0.43695 0.49908 0.33382
 O100 O 0.56462 0.49916 0.33284
 O101 O 0.43545 0.66542 0.49569
 O102 O 0.56327 0.33721 0.50112
 O103 O 0.56249 0.66413 0.49610
 O104 O 0.43655 0.33588 0.50073
 H105 H 0.40446 0.50253 0.72921
 H106 H 0.59617 0.27102 0.50163
 H107 H 0.40429 0.49853 0.26693
 H108 H 0.59487 0.73061 0.49529
 H109 H 0.51536 0.15019 0.58840
 H110 H 0.46832 0.14942 0.40790
 H111 H 0.52827 0.41389 0.14869
 H112 H 0.49641 0.70607 0.14322
 H113 H 0.47080 0.85089 0.39821
 H114 H 0.46626 0.85266 0.59139
 H115 H 0.52948 0.59126 0.84893
 H116 H 0.49764 0.30298 0.85574
 C117 C 0.22647 0.21741 0.23393
 C118 C 0.27627 0.26421 0.27933
 C119 C 0.77596 0.76462 0.21928
 C120 C 0.72539 0.71902 0.26400
 C121 C 0.77638 0.23425 0.77942
 C122 C 0.72611 0.28044 0.73363
 C123 C 0.22523 0.77971 0.76431
 C124 C 0.27525 0.73453 0.71790
 C125 C 0.22625 0.22040 0.76782
 C126 C 0.27622 0.26645 0.72155
 C127 C 0.77542 0.76789 0.77802
 C128 C 0.72541 0.72227 0.73132
 C129 C 0.22293 0.77944 0.22795
 C130 C 0.27374 0.73345 0.27348
 C131 C 0.77585 0.23099 0.22208
 C132 C 0.72593 0.27770 0.26791
   
