data_POSCAR
  _audit_creation_date              2014-09-24
  _audit_creation_method            'ToBaCCo'
  _symmetry_space_group_name_H-M    'P1'
  _symmetry_Int_Tables_number       1
  _symmetry_cell_setting            triclinic
  loop_
  _symmetry_equiv_pos_as_xyz
 x,y,z
_cell_length_a 27.0373
_cell_length_b 27.0323
_cell_length_c 72.2207
_cell_angle_alpha 84.437400
_cell_angle_beta 92.810400
_cell_angle_gamma 120.036400
loop_
  _atom_site_label
  _atom_site_type_symbol
  _atom_site_fract_x
  _atom_site_fract_y
  _atom_site_fract_z
C1 C 0.00102 0.11708 0.52232
 H2 H 0.04301 0.12155 0.52180
 C3 C -0.00886 0.14956 0.53390
 H4 H 0.02560 0.17916 0.54236
 C5 C -0.09556 0.07192 0.51227
 H6 H -0.12916 0.04145 0.50386
 C7 C -0.10735 0.10362 0.52376
 H8 H -0.15013 0.09729 0.52426
 N9 N -0.04227 0.07844 0.51207
 C10 C -0.00386 -0.05840 0.50741
 H11 H -0.00101 -0.05800 0.49251
 C12 C 0.00009 -0.10052 0.51922
 H13 H 0.00628 -0.13252 0.51343
 C14 C -0.01794 -0.01891 0.53324
 H15 H -0.02639 0.01189 0.53870
 C16 C -0.01414 -0.06004 0.54548
 H17 H -0.01917 -0.06030 0.56029
 Zn18 Zn -0.02379 0.03408 0.49817
 N19 N -0.01270 -0.01867 0.51458
 C20 C 0.09001 0.07847 0.48485
 N21 N 0.04349 0.08550 0.48458
 C22 C 0.04283 0.13001 0.47426
 C23 C 0.08928 0.16836 0.46302
 C24 C 0.13748 0.11593 0.47374
 C25 C -0.13380 -0.05271 0.48846
 C26 C -0.17610 -0.08894 0.47650
 C27 C -0.11382 -0.03379 0.45046
 C28 C -0.07281 0.00110 0.46288
 N29 N -0.08324 -0.00892 0.48151
 H30 H 0.09002 0.04336 0.49336
 H31 H 0.00547 0.13481 0.47444
 H32 H 0.08772 0.20277 0.45448
 H33 H 0.17381 0.10932 0.47361
 H34 H -0.14055 -0.06050 0.50335
 H35 H -0.21563 -0.12451 0.48222
 H36 H -0.10427 -0.02592 0.43570
 H37 H -0.03203 0.03502 0.45759
 C38 C -0.00541 -0.10140 0.53843
 C39 C -0.06363 0.14231 0.53481
 C40 C -0.16571 -0.07964 0.45730
 C41 C 0.13673 0.16086 0.46259
 C42 C 1.15751 0.06217 0.14278
 H43 H 1.16227 0.10440 0.14261
 C44 C 1.19252 0.05323 0.13164
 H45 H 1.22433 0.08865 0.12281
 C46 C 1.10915 -0.03597 0.15412
 H47 H 1.07649 -0.07056 0.16287
 C48 C 1.14332 -0.04682 0.14312
 H49 H 1.13665 -0.08986 0.14331
 N50 N 1.11607 0.01766 0.15343
 C51 C 0.97831 0.05601 0.15659
 H52 H 0.97474 0.05611 0.17144
 C53 C 0.93869 0.06110 0.14452
 H54 H 0.90464 0.06542 0.15005
 C55 C 1.02500 0.04709 0.13121
 H56 H 1.05753 0.04000 0.12605
 C57 C 0.98651 0.05218 0.11871
 H58 H 0.98998 0.04947 0.10401
 Zn59 Zn 1.06831 0.03443 0.16668
 N60 N 1.02027 0.04894 0.14978
 C61 C 1.10925 0.14573 0.17926
 N62 N 1.11618 0.09904 0.17993
 C63 C 1.15768 0.09603 0.19056
 C64 C 1.19275 0.14001 0.20171
 C65 C 1.14347 0.19078 0.19027
 C66 C 0.97833 -0.07723 0.17681
 C67 C 0.93877 -0.12193 0.18889
 C68 C 0.98676 -0.06504 0.21468
 C69 C 1.02519 -0.02147 0.20217
 N70 N 1.02035 -0.02813 0.18360
 H71 H 1.07652 0.14761 0.17054
 H72 H 1.16245 0.05857 0.19071
 H73 H 1.22461 0.13645 0.21052
 H74 H 1.13678 0.22713 0.19011
 H75 H 0.97467 -0.08096 0.16196
 H76 H 0.90468 -0.16036 0.18337
 H77 H 0.99033 -0.05880 0.22938
 H78 H 1.05776 0.01821 0.20732
 C79 C 0.94267 0.05869 0.12542
 C80 C 1.18490 -0.00186 0.13163
 C81 C 0.94287 -0.11546 0.20799
 C82 C 1.18511 0.18745 0.20175
 C83 C 0.04220 0.91200 0.85896
 H84 H 0.00483 0.86980 0.85875
 C85 C 0.08861 0.92016 0.87024
 H86 H 0.08701 0.88417 0.87879
 C87 C 0.08942 1.01077 0.84839
 H88 H 0.08947 1.04590 0.83987
 C89 C 0.13686 1.02084 0.85953
 H90 H 0.17319 1.06381 0.85968
 N91 N 0.04290 0.95717 0.84862
 C92 C -0.13441 0.91786 0.84458
 H93 H -0.14108 0.91892 0.82969
 C94 C -0.17676 0.91170 0.85651
 H95 H -0.21629 0.90769 0.85079
 C96 C -0.07354 0.92508 0.87022
 H97 H -0.03278 0.93200 0.87555
 C98 C -0.11463 0.91887 0.88260
 H99 H -0.10528 0.92054 0.89737
 Zn100 Zn -0.02433 0.94126 0.83498
 N101 N -0.08387 0.92469 0.85159
 C102 C -0.09601 0.83158 0.82083
 N103 N -0.04273 0.87844 0.82106
 C104 C 0.00060 0.88317 0.81084
 C105 C -0.00923 0.84081 0.79925
 C106 C -0.10775 0.78811 0.80933
 C107 C -0.00434 1.05371 0.82576
 C108 C -0.00034 1.09982 0.81396
 C109 C -0.01449 1.04515 0.78768
 C110 C -0.01834 1.00019 0.79991
 N111 N -0.01317 1.00515 0.81858
 H112 H -0.12964 0.82838 0.82922
 H113 H 0.04258 0.92073 0.81139
 H114 H 0.02526 0.84574 0.79082
 H115 H -0.15052 0.75160 0.80880
 H116 H -0.00155 1.05613 0.84067
 H117 H 0.00585 1.13801 0.81976
 H118 H -0.01946 1.04042 0.77286
 H119 H -0.02678 0.96094 0.79444
 C120 C -0.16646 0.91275 0.87570
 C121 C 0.13606 0.97515 0.87070
 C122 C -0.00577 1.09524 0.79474
 C123 C -0.06399 0.79322 0.79831
 C124 C 0.38979 -0.01572 0.00097
 C125 C 0.41660 -0.00857 -0.01590
 C126 C 0.46876 -0.00775 -0.01606
 C127 C 0.49385 -0.01601 0.00072
 C128 C 0.46553 -0.02413 0.01763
 C129 C 0.41433 -0.02302 0.01772
 C130 C 0.54914 -0.01608 0.00058
 C131 C 0.58722 0.00203 0.01580
 C132 C 0.63851 0.00108 0.01576
 C133 C 0.65335 -0.01607 0.00032
 C134 C 0.61676 -0.03321 -0.01499
 C135 C 0.56453 -0.03418 -0.01478
 H136 H 0.34974 -0.01558 0.00107
 H137 H 0.48959 -0.00024 -0.02928
 H138 H 0.48270 -0.03170 0.03076
 H139 H 0.57762 0.01732 0.02767
 H140 H 0.69348 -0.01605 0.00022
 H141 H 0.53611 -0.04943 -0.02656
 C142 C -0.06114 0.60094 0.66682
 C143 C -0.07372 0.56459 0.68312
 C144 C -0.07552 0.51195 0.68298
 C145 C -0.06272 0.49597 0.66659
 C146 C -0.04917 0.53381 0.65031
 C147 C -0.04930 0.58551 0.65040
 C148 C -0.06272 0.44063 0.66653
 C149 C -0.07552 0.41182 0.65014
 C150 C -0.07374 0.36099 0.64999
 C151 C -0.06118 0.33721 0.66631
 C152 C -0.04935 0.36449 0.68273
 C153 C -0.04920 0.41633 0.68282
 H154 H -0.06015 0.64154 0.66693
 H155 H -0.08696 0.48383 0.69567
 H156 H -0.03776 0.52387 0.63758
 H157 H -0.08695 0.42850 0.63744
 H158 H -0.06020 0.29760 0.66619
 H159 H -0.03779 0.43769 0.69555
 C160 C 0.65437 0.67006 0.33319
 C161 C 0.63938 0.63806 0.31774
 C162 C 0.58802 0.58582 0.31769
 C163 C 0.55002 0.56586 0.33292
 C164 C 0.56556 0.59937 0.34829
 C165 C 0.61786 0.65063 0.34851
 C166 C 0.49465 0.51052 0.33277
 C167 C 0.46959 0.47714 0.34954
 C168 C 0.41737 0.42579 0.34937
 C169 C 0.39047 0.40616 0.33249
 C170 C 0.41498 0.43803 0.31575
 C171 C 0.46625 0.49035 0.31586
 H172 H 0.69455 0.71017 0.33329
 H173 H 0.57831 0.56092 0.30581
 H174 H 0.53721 0.58622 0.36007
 H175 H 0.49048 0.49044 0.36277
 H176 H 0.35038 0.36596 0.33239
 H177 H 0.48340 0.51511 0.30273
 C178 C -0.08866 0.30191 0.58234
 C179 C -0.04014 0.28972 0.57830
 C180 C -0.08526 0.22790 0.57470
 C181 C -0.13386 0.23946 0.57847
 C182 C -0.08748 0.28155 0.60289
 C183 C -0.13262 0.21972 0.59931
 C184 C -0.03902 0.26985 0.59904
 C185 C -0.08407 0.20772 0.59527
 C186 C -0.08110 0.19760 0.55962
 C187 C -0.07470 0.17244 0.54791
 C188 C -0.08585 0.31083 0.61913
 C189 C -0.08174 0.33415 0.63299
 H190 H -0.09056 0.34099 0.57722
 H191 H -0.00207 0.31820 0.56950
 H192 H -0.17282 0.22660 0.56981
 H193 H -0.17065 0.19126 0.60813
 H194 H 0.00002 0.28260 0.60765
 H195 H -0.08213 0.16870 0.60045
 C196 C 0.73490 0.73612 0.25491
 C197 C 0.79033 0.79412 0.25684
 C198 C 0.82315 0.77244 0.24649
 C199 C 0.76831 0.71485 0.24431
 C200 C 0.74910 0.71246 0.27335
 C201 C 0.78181 0.69056 0.26304
 C202 C 0.80399 0.77006 0.27545
 C203 C 0.83735 0.74878 0.26493
 C204 C 0.86514 0.80892 0.23204
 C205 C 0.90033 0.84190 0.22074
 C206 C 0.70877 0.68216 0.28875
 C207 C 0.67658 0.66039 0.30180
 H208 H 0.69233 0.73058 0.25096
 H209 H 0.79423 0.83708 0.25417
 H210 H 0.75415 0.69256 0.23133
 H211 H 0.77780 0.64758 0.26577
 H212 H 0.81829 0.79251 0.28841
 H213 H 0.87994 0.75437 0.26889
 C214 C 0.29409 0.03060 -0.06417
 C215 C 0.31215 0.04948 -0.08485
 C216 C 0.25892 -0.00553 -0.09042
 C217 C 0.24040 -0.02434 -0.06998
 C218 C 0.32751 -0.00182 -0.06279
 C219 C 0.27425 -0.05671 -0.06841
 C220 C 0.34628 0.01706 -0.08321
 C221 C 0.29231 -0.03797 -0.08906
 C222 C 0.21804 -0.00978 -0.10513
 C223 C 0.18189 -0.01550 -0.11654
 C224 C 0.36286 -0.00184 -0.04677
 C225 C 0.38897 -0.00387 -0.03299
 H226 H 0.29520 0.05880 -0.05377
 H227 H 0.32725 0.09310 -0.09180
 H228 H 0.19647 -0.04141 -0.06467
 H229 H 0.25900 -0.10040 -0.06149
 H230 H 0.39027 0.03410 -0.08845
 H231 H 0.29113 -0.06619 -0.09946
 C232 C -0.02637 0.75109 0.60651
 C233 C 0.02740 0.78706 0.59421
 C234 C -0.01118 0.77384 0.57691
 C235 C -0.06484 0.73842 0.58905
 C236 C -0.02217 0.69735 0.60429
 C237 C -0.06077 0.68410 0.58701
 C238 C 0.03159 0.73268 0.59219
 C239 C -0.00694 0.72016 0.57461
 C240 C -0.00688 0.81740 0.56232
 C241 C -0.00521 0.85408 0.55103
 C242 C -0.02996 0.65593 0.62013
 C243 C -0.03797 0.62311 0.63368
 H244 H -0.03444 0.76343 0.61978
 H245 H 0.06371 0.82986 0.59701
 H246 H -0.10447 0.74119 0.58762
 H247 H -0.09710 0.64129 0.58422
 H248 H 0.07116 0.72980 0.59367
 H249 H 0.00113 0.70799 0.56131
 C250 C 0.28473 0.36609 0.25782
 C251 C 0.31166 0.36663 0.23924
 C252 C 0.27687 0.30078 0.24068
 C253 C 0.24948 0.29972 0.25897
 C254 C 0.33337 0.36209 0.26848
 C255 C 0.29851 0.29626 0.26983
 C256 C 0.36086 0.36323 0.25021
 C257 C 0.32552 0.29690 0.25137
 C258 C 0.24472 0.26368 0.22590
 C259 C 0.21774 0.23033 0.21448
 C260 C 0.36386 0.39307 0.28463
 C261 C 0.38783 0.41531 0.29853
 H262 H 0.26834 0.39494 0.26065
 H263 H 0.31666 0.39512 0.22647
 H264 H 0.20335 0.27323 0.26242
 H265 H 0.29339 0.26758 0.28257
 H266 H 0.40701 0.38972 0.24679
 H267 H 0.34196 0.26806 0.24858
 C268 C 0.70285 -0.02647 -0.07724
 C269 C 0.75841 -0.02960 -0.07491
 C270 C 0.73199 -0.08138 -0.08668
 C271 C 0.67675 -0.07841 -0.08925
 C272 C 0.67876 -0.06802 -0.05972
 C273 C 0.65210 -0.11991 -0.07144
 C274 C 0.73399 -0.07101 -0.05722
 C275 C 0.70792 -0.12294 -0.06916
 C276 C 0.76510 -0.08635 -0.10112
 C277 C 0.79572 -0.08796 -0.11234
 C278 C 0.65254 -0.05828 -0.04422
 C279 C 0.63442 -0.04801 -0.03107
 H280 H 0.70049 0.01331 -0.08041
 H281 H 0.80245 0.00752 -0.07647
 H282 H 0.65358 -0.08154 -0.10260
 H283 H 0.60804 -0.15694 -0.06982
 H284 H 0.75732 -0.06786 -0.04391
 H285 H 0.71034 -0.16269 -0.06599
 C286 C 0.30032 -0.07800 0.07986
 C287 C 0.32686 -0.03490 0.09507
 C288 C 0.27651 -0.02355 0.09274
 C289 C 0.24947 -0.06653 0.07782
 C290 C 0.33292 -0.02843 0.06496
 C291 C 0.28256 -0.01710 0.06271
 C292 C 0.35998 0.01455 0.07988
 C293 C 0.30918 0.02587 0.07781
 C294 C 0.24442 -0.01854 0.10751
 C295 C 0.21748 -0.01213 0.11892
 C296 C 0.36335 -0.02900 0.04883
 C297 C 0.38726 -0.02735 0.03494
 H298 H 0.29707 -0.12072 0.08051
 H299 H 0.34468 -0.04220 0.10856
 H300 H 0.20368 -0.09983 0.07714
 H301 H 0.26462 -0.00976 0.04925
 H302 H 0.40576 0.04788 0.08055
 H303 H 0.31250 0.06865 0.07710
 C304 C 0.73800 0.80350 0.39105
 C305 C 0.71385 0.83321 0.40199
 C306 C 0.73391 0.81425 0.42018
 C307 C 0.75841 0.78503 0.40941
 C308 C 0.68033 0.74755 0.39324
 C309 C 0.70039 0.72859 0.41143
 C310 C 0.65561 0.77666 0.40396
 C311 C 0.67623 0.75833 0.42245
 C312 C 0.76722 0.85241 0.43460
 C313 C 0.79801 0.88470 0.44581
 C314 C 0.65393 0.71154 0.37775
 C315 C 0.63567 0.68311 0.36459
 H316 H 0.76318 0.82175 0.37800
 H317 H 0.71972 0.87664 0.39826
 H318 H 0.80101 0.78883 0.41178
 H319 H 0.69458 0.68518 0.41515
 H320 H 0.61298 0.77276 0.40154
 H321 H 0.65121 0.74022 0.43554
 C322 C 0.02290 0.26105 0.72956
 C323 C 0.03550 0.27562 0.75011
 C324 C -0.01141 0.21431 0.75626
 C325 C -0.02383 0.19930 0.73594
 C326 C -0.02229 0.27979 0.72886
 C327 C -0.06907 0.21846 0.73505
 C328 C -0.00986 0.29502 0.74915
 C329 C -0.05662 0.23302 0.75557
 C330 C -0.00715 0.17503 0.77086
 C331 C -0.00551 0.14000 0.78215
 C332 C -0.03005 0.31342 0.71301
 C333 C -0.03804 0.33822 0.69945
 H334 H 0.05552 0.27293 0.71869
 H335 H 0.07856 0.29867 0.75649
 H336 H -0.02955 0.15955 0.73064
 H337 H -0.11215 0.19526 0.72871
 H338 H -0.00419 0.33482 0.75439
 H339 H -0.08925 0.22108 0.76644
 C340 C 0.73655 -0.00534 0.07748
 C341 C 0.79536 -0.00046 0.07499
 C342 C 0.82272 0.05085 0.08696
 C343 C 0.76446 0.04612 0.08969
 C344 C 0.74850 0.03662 0.06012
 C345 C 0.77572 0.08804 0.07205
 C346 C 0.80680 0.04137 0.05746
 C347 C 0.83471 0.09284 0.06960
 C348 C 0.86481 0.05645 0.10139
 C349 C 0.90006 0.05872 0.11268
 C350 C 0.70807 0.02651 0.04473
 C351 C 0.67579 0.01602 0.03169
 H352 H 0.69575 -0.04583 0.08056
 H353 H 0.80383 -0.03682 0.07633
 H354 H 0.74756 0.04818 0.10312
 H355 H 0.76714 0.12431 0.07065
 H356 H 0.82383 0.03929 0.04405
 H357 H 0.87554 0.13329 0.06652
 C358 C 0.26901 0.27722 0.39381
 C359 C 0.28332 0.24319 0.40952
 C360 C 0.25969 0.26466 0.42380
 C361 C 0.24491 0.29820 0.40827
 C362 C 0.32834 0.32979 0.39623
 C363 C 0.30469 0.35125 0.41050
 C364 C 0.34333 0.29633 0.41172
 C365 C 0.31898 0.31720 0.42629
 C366 C 0.21878 0.22794 0.43848
 C367 C 0.18260 0.19743 0.44986
 C368 C 0.36369 0.36524 0.38022
 C369 C 0.38978 0.39344 0.36645
 H370 H 0.24879 0.26113 0.38030
 H371 H 0.27410 0.19836 0.40928
 H372 H 0.20402 0.29861 0.40699
 H373 H 0.31387 0.39607 0.41074
 H374 H 0.38426 0.29602 0.41295
 H375 H 0.33905 0.33317 0.43983
 C376 C -0.13688 0.60901 0.74406
 C377 C -0.09309 0.62551 0.76031
 C378 C -0.08549 0.68604 0.75841
 C379 C -0.12918 0.67014 0.74246
 C380 C -0.08753 0.63023 0.73022
 C381 C -0.07993 0.69075 0.72840
 C382 C -0.04386 0.64615 0.74617
 C383 C -0.03630 0.70702 0.74452
 C384 C -0.08138 0.72048 0.77348
 C385 C -0.07501 0.75204 0.78520
 C386 C -0.08587 0.60260 0.71398
 C387 C -0.08174 0.58339 0.70013
 H388 H -0.17822 0.56833 0.74367
 H389 H -0.09850 0.59906 0.77362
 H390 H -0.16423 0.68036 0.74110
 H391 H -0.07448 0.71735 0.71512
 H392 H -0.00875 0.63600 0.74753
 H393 H 0.00512 0.74767 0.74484
   
