data_POSCAR
  _audit_creation_date              2014-09-24
  _audit_creation_method            'ToBaCCo'
  _symmetry_space_group_name_H-M    'P1'
  _symmetry_Int_Tables_number       1
  _symmetry_cell_setting            triclinic
  loop_
  _symmetry_equiv_pos_as_xyz
 x,y,z
_cell_length_a 57.8103
_cell_length_b 58.0642
_cell_length_c 57.6670
_cell_angle_alpha 89.291700
_cell_angle_beta 89.841800
_cell_angle_gamma 88.586300
loop_
  _atom_site_label
  _atom_site_type_symbol
  _atom_site_fract_x
  _atom_site_fract_y
  _atom_site_fract_z
C1 C 0.60761 0.64245 0.62767
 C2 C 0.60719 0.62459 0.64427
 C3 C 0.62373 0.60627 0.64397
 C4 C 0.64070 0.60635 0.62629
 C5 C 0.64153 0.62431 0.60978
 C6 C 0.62495 0.64232 0.61065
 H7 H 0.59337 0.62480 0.65697
 H8 H 0.65428 0.59319 0.62602
 H9 H 0.62509 0.65593 0.59763
 C10 C 0.89269 0.35888 0.12803
 C11 C 0.89317 0.37719 0.14393
 C12 C 0.87574 0.39448 0.14408
 C13 C 0.85780 0.39380 0.12781
 C14 C 0.85697 0.37602 0.11164
 C15 C 0.87427 0.35862 0.11198
 H16 H 0.90627 0.37744 0.15727
 H17 H 0.84439 0.40717 0.12776
 H18 H 0.87391 0.34563 0.09870
 C19 C 0.39508 0.14335 -0.12724
 C20 C 0.39462 0.12660 -0.14458
 C21 C 0.37739 0.10997 -0.14468
 C22 C 0.36047 0.11023 -0.12716
 C23 C 0.36064 0.12685 -0.10967
 C24 C 0.37800 0.14335 -0.10986
 H25 H 0.40775 0.12648 -0.15803
 H26 H 0.34714 0.09744 -0.12711
 H27 H 0.37826 0.15621 -0.09642
 C28 C 0.10363 0.85606 0.37576
 C29 C 0.12039 0.85683 0.39352
 C30 C 0.13716 0.87393 0.39369
 C31 C 0.13716 0.89068 0.37599
 C32 C 0.12075 0.89044 0.35815
 C33 C 0.10419 0.87314 0.35810
 H34 H 0.12107 0.84376 0.40703
 H35 H 0.15002 0.90394 0.37607
 H36 H 0.09137 0.87360 0.34448
 N37 N 0.09881 0.16105 0.11526
 N38 N 0.08673 0.14835 0.12964
 C39 C 0.06737 0.16012 0.13579
 C40 C 0.06737 0.18144 0.12475
 C41 C 0.08763 0.18142 0.11189
 H42 H 0.05440 0.15374 0.14761
 H43 H 0.09354 0.19501 0.10050
 Cu44 Cu 0.09736 0.11772 0.13927
 Cu45 Cu 0.12742 0.14971 0.10105
 Cu46 Cu 0.15035 0.09847 0.12301
 N47 N 0.11280 0.09181 0.15487
 N48 N 0.13351 0.08442 0.14857
 C49 C 0.14011 0.06663 0.16239
 C50 C 0.12259 0.06260 0.17829
 C51 C 0.10550 0.07897 0.17292
 H52 H 0.15644 0.05730 0.16087
 H53 H 0.08913 0.08166 0.18170
 N54 N 0.16466 0.11545 0.09716
 N55 N 0.15607 0.13516 0.08894
 C56 C 0.16939 0.14228 0.07119
 C57 C 0.18723 0.12625 0.06800
 C58 C 0.18364 0.10949 0.08483
 H59 H 0.16598 0.15769 0.06094
 H60 H 0.19402 0.09402 0.08786
 H61 H 0.12292 0.11470 0.10573
 H62 H 0.13601 0.13057 0.13039
 N63 N 0.40013 0.84046 0.61596
 N64 N 0.41057 0.85118 0.63277
 C65 C 0.43001 0.83922 0.63859
 C66 C 0.43175 0.81990 0.62479
 C67 C 0.41245 0.82128 0.61064
 H68 H 0.44181 0.84395 0.65214
 H69 H 0.40784 0.80936 0.59726
 Cu70 Cu 0.39723 0.87926 0.64583
 Cu71 Cu 0.37163 0.85237 0.60187
 Cu72 Cu 0.34791 0.90278 0.62446
 N73 N 0.38357 0.90732 0.65861
 N74 N 0.36418 0.91630 0.65030
 C75 C 0.35821 0.93512 0.66256
 C76 C 0.37475 0.93816 0.67952
 C77 C 0.39061 0.92017 0.67643
 H78 H 0.34294 0.94578 0.65931
 H79 H 0.40588 0.91642 0.68671
 N80 N 0.33405 0.88648 0.59833
 N81 N 0.34296 0.86717 0.58991
 C82 C 0.32969 0.86034 0.57224
 C83 C 0.31156 0.87612 0.56930
 C84 C 0.31492 0.89246 0.58618
 H85 H 0.33324 0.84522 0.56196
 H86 H 0.30416 0.90756 0.58944
 H87 H 0.37645 0.88658 0.60966
 H88 H 0.35937 0.86937 0.63088
 N89 N 0.90270 0.66191 0.38527
 N90 N 0.91113 0.65344 0.36589
 C91 C 0.92956 0.66573 0.35933
 C92 C 0.93290 0.68276 0.37552
 C93 C 0.91549 0.67976 0.39174
 H94 H 0.93995 0.66237 0.34408
 H95 H 0.91215 0.68999 0.40698
 Cu96 Cu 0.89736 0.62705 0.35123
 Cu97 Cu 0.87559 0.64945 0.40053
 Cu98 Cu 0.85120 0.60191 0.37552
 N99 N 0.88392 0.59976 0.33798
 N100 N 0.86581 0.59016 0.34749
 C101 C 0.85998 0.57182 0.33494
 C102 C 0.87529 0.56968 0.31654
 C103 C 0.89030 0.58774 0.31907
 H104 H 0.84580 0.56071 0.33912
 H105 H 0.90464 0.59193 0.30786
 N106 N 0.83887 0.61627 0.40389
 N107 N 0.84809 0.63444 0.41337
 C108 C 0.83570 0.64029 0.43231
 C109 C 0.81781 0.62503 0.43495
 C110 C 0.82042 0.61003 0.41659
 H111 H 0.83952 0.65451 0.44346
 H112 H 0.80947 0.59581 0.41257
 H113 H 0.88076 0.61628 0.38861
 H114 H 0.86100 0.63572 0.37127
 N115 N 0.60075 0.33353 -0.11566
 N116 N 0.59254 0.34235 -0.13514
 C117 C 0.57486 0.32954 -0.14230
 C118 C 0.57178 0.31176 -0.12642
 C119 C 0.58860 0.31487 -0.10976
 H120 H 0.56461 0.33324 -0.15760
 H121 H 0.59176 0.30444 -0.09439
 Cu122 Cu 0.60503 0.37035 -0.14855
 Cu123 Cu 0.62616 0.34720 -0.09900
 Cu124 Cu 0.64802 0.39765 -0.12205
 N125 N 0.61783 0.39838 -0.16160
 N126 N 0.63407 0.40937 -0.15068
 C127 C 0.63911 0.42860 -0.16272
 C128 C 0.62543 0.42967 -0.18236
 C129 C 0.61216 0.41017 -0.18112
 H130 H 0.65202 0.44075 -0.15773
 H131 H 0.59904 0.40524 -0.19330
 N132 N 0.65993 0.38298 -0.09334
 N133 N 0.65182 0.36363 -0.08472
 C134 C 0.66395 0.35768 -0.06556
 C135 C 0.68051 0.37407 -0.06190
 C136 C 0.67738 0.38986 -0.07988
 H137 H 0.66092 0.34252 -0.05503
 H138 H 0.68744 0.40499 -0.08322
 H139 H 0.61924 0.38052 -0.11032
 H140 H 0.64098 0.36337 -0.12732
 C141 C -0.05491 0.30587 0.12842
 C142 C -0.04996 0.32816 0.13576
 C143 C -0.06715 0.34551 0.13586
 C144 C -0.08983 0.34121 0.12820
 C145 C -0.09456 0.31872 0.12072
 C146 C -0.07742 0.30134 0.12101
 C147 C -0.03671 0.28747 0.12839
 N148 N -0.04240 0.26496 0.12714
 N149 N -0.02604 0.24840 0.12701
 C150 C -0.00330 0.25365 0.12798
 N151 N 0.00239 0.27617 0.12919
 N152 N -0.01397 0.29272 0.12947
 C153 C 0.01487 0.23524 0.12752
 C154 C 0.03788 0.24043 0.12203
 C155 C 0.05491 0.22295 0.12109
 C156 C 0.04938 0.19997 0.12595
 C157 C 0.02645 0.19481 0.13174
 C158 C 0.00934 0.21223 0.13235
 H159 H -0.03273 0.33223 0.14152
 H160 H -0.06218 0.36252 0.14105
 H161 H -0.11175 0.31406 0.11547
 H162 H -0.08183 0.28430 0.11530
 H163 H 0.04269 0.25797 0.11818
 H164 H 0.07247 0.22749 0.11676
 H165 H 0.02160 0.17725 0.13540
 H166 H -0.00821 0.20767 0.13671
 C167 C 0.55497 0.69621 0.62744
 C168 C 0.57848 0.70165 0.62569
 C169 C 0.59559 0.68420 0.62569
 C170 C 0.58954 0.66099 0.62777
 C171 C 0.56609 0.65554 0.62971
 C172 C 0.54897 0.67295 0.62942
 C173 C 0.53677 0.71463 0.62710
 N174 N 0.51427 0.70949 0.62361
 N175 N 0.49789 0.72602 0.62320
 C176 C 0.50330 0.74839 0.62637
 N177 N 0.52580 0.75354 0.62992
 N178 N 0.54221 0.73701 0.63022
 C179 C 0.48504 0.76675 0.62594
 C180 C 0.48946 0.78884 0.63431
 C181 C 0.47213 0.80606 0.63406
 C182 C 0.45009 0.80166 0.62517
 C183 C 0.44571 0.77963 0.61667
 C184 C 0.46294 0.76233 0.61717
 H185 H 0.58368 0.71939 0.62408
 H186 H 0.61358 0.68883 0.62430
 H187 H 0.56097 0.63775 0.63109
 H188 H 0.53103 0.66816 0.63086
 H189 H 0.50628 0.79279 0.64122
 H190 H 0.47610 0.82291 0.64058
 H191 H 0.42886 0.77561 0.60989
 H192 H 0.45897 0.74551 0.61054
 C193 C 1.05302 0.80375 0.37551
 C194 C 1.06265 0.81102 0.39641
 C195 C 1.07929 0.82807 0.39651
 C196 C 1.08675 0.83862 0.37567
 C197 C 1.07683 0.83122 0.35474
 C198 C 1.06034 0.81402 0.35469
 C199 C 1.03540 0.78561 0.37547
 N200 N 1.02813 0.77648 0.35525
 N201 N 1.01227 0.76021 0.35524
 C202 C 1.00296 0.75243 0.37543
 N203 N 1.01023 0.76157 0.39564
 N204 N 1.02613 0.77778 0.39566
 C205 C 0.98518 0.73445 0.37544
 C206 C 0.97331 0.72876 0.39596
 C207 C 0.95637 0.71201 0.39596
 C208 C 0.95099 0.70042 0.37549
 C209 C 0.96296 0.70597 0.35501
 C210 C 0.97980 0.72285 0.35496
 H211 H 1.05731 0.80358 0.41282
 H212 H 1.08544 0.83352 0.41322
 H213 H 1.08237 0.83789 0.33809
 H214 H 1.05337 0.80874 0.33823
 H215 H 0.97700 0.73734 0.41205
 H216 H 0.94767 0.70803 0.41210
 H217 H 0.95914 0.69752 0.33890
 H218 H 0.98862 0.72678 0.33886
 C219 C 0.44858 0.19379 -0.12722
 C220 C 0.44186 0.18282 -0.10648
 C221 C 0.42447 0.16653 -0.10648
 C222 C 0.41344 0.16077 -0.12722
 C223 C 0.42013 0.17171 -0.14796
 C224 C 0.43747 0.18806 -0.14796
 C225 C 0.46704 0.21109 -0.12721
 N226 N 0.47273 0.22263 -0.14697
 N227 N 0.48928 0.23819 -0.14694
 C228 C 0.50088 0.24287 -0.12716
 N229 N 0.49521 0.23130 -0.10741
 N230 N 0.47865 0.21576 -0.10743
 C231 C 0.51923 0.26028 -0.12708
 C232 C 0.53196 0.26424 -0.10685
 C233 C 0.54910 0.28079 -0.10669
 C234 C 0.55388 0.29387 -0.12673
 C235 C 0.54121 0.28986 -0.14699
 C236 C 0.52412 0.27324 -0.14718
 H237 H 0.45005 0.18678 -0.09019
 H238 H 0.41986 0.15818 -0.09028
 H239 H 0.41175 0.16781 -0.16416
 H240 H 0.44216 0.19619 -0.16424
 H241 H 0.52868 0.25458 -0.09105
 H242 H 0.55834 0.28350 -0.09070
 H243 H 0.54454 0.29942 -0.16282
 H244 H 0.51469 0.27064 -0.16309
 C245 C 0.12115 -0.05752 0.30414
 C246 C 0.14193 -0.06821 0.31173
 C247 C 0.14178 -0.08505 0.32926
 C248 C 0.12087 -0.09164 0.33955
 C249 C 0.10011 -0.08099 0.33199
 C250 C 0.10024 -0.06410 0.31450
 C251 C 0.12132 -0.03965 0.28553
 N252 N 0.10140 -0.02872 0.27867
 N253 N 0.10156 -0.01269 0.26195
 C254 C 0.12165 -0.00691 0.25134
 N255 N 0.14157 -0.01785 0.25821
 N256 N 0.14140 -0.03386 0.27494
 C257 C 0.12186 0.01090 0.23268
 C258 C 0.14256 0.01616 0.22116
 C259 C 0.14278 0.03289 0.20353
 C260 C 0.12232 0.04483 0.19702
 C261 C 0.10162 0.03961 0.20858
 C262 C 0.10139 0.02283 0.22618
 H263 H 0.15835 -0.06360 0.30414
 H264 H 0.15803 -0.09314 0.33456
 H265 H 0.08376 -0.08550 0.33982
 H266 H 0.08393 -0.05621 0.30913
 H267 H 0.15867 0.00736 0.22572
 H268 H 0.15909 0.03655 0.19521
 H269 H 0.08549 0.04829 0.20395
 H270 H 0.08512 0.01922 0.23466
 C271 C 0.62321 0.55295 -0.30459
 C272 C 0.63149 0.54845 -0.32701
 C273 C 0.63181 0.56595 -0.34387
 C274 C 0.62342 0.58843 -0.33895
 C275 C 0.61483 0.59263 -0.31639
 C276 C 0.61495 0.57522 -0.29946
 C277 C 0.62335 0.53458 -0.28656
 N278 N 0.62250 0.53998 -0.26372
 N279 N 0.62281 0.52349 -0.24745
 C280 C 0.62381 0.50092 -0.25335
 N281 N 0.62454 0.49550 -0.27619
 N282 N 0.62441 0.51200 -0.29247
 C283 C 0.62418 0.48264 -0.23523
 C284 C 0.61785 0.46008 -0.24047
 C285 C 0.61803 0.44291 -0.22324
 C286 C 0.62496 0.44786 -0.20056
 C287 C 0.63147 0.47036 -0.19536
 C288 C 0.63089 0.48761 -0.21247
 H289 H 0.63792 0.53141 -0.33151
 H290 H 0.63786 0.56141 -0.36103
 H291 H 0.60892 0.60964 -0.31125
 H292 H 0.60849 0.57924 -0.28229
 H293 H 0.61252 0.45575 -0.25783
 H294 H 0.61307 0.42569 -0.22778
 H295 H 0.63670 0.47473 -0.17798
 H296 H 0.63594 0.50481 -0.20790
 C297 C 0.37664 1.05859 0.80200
 C298 C 0.39751 1.06445 0.81263
 C299 C 0.39775 1.08113 0.82989
 C300 C 0.37712 1.09228 0.83696
 C301 C 0.35625 1.08641 0.82639
 C302 C 0.35600 1.06979 0.80908
 C303 C 0.37640 1.04089 0.78367
 N304 N 0.35650 1.03612 0.77241
 N305 N 0.35629 1.02021 0.75597
 C306 C 0.37596 1.00837 0.75009
 N307 N 0.39585 1.01314 0.76135
 N308 N 0.39607 1.02907 0.77777
 C309 C 0.37571 0.99056 0.73187
 C310 C 0.39573 0.97728 0.72690
 C311 C 0.39543 0.96034 0.70990
 C312 C 0.37513 0.95632 0.69739
 C313 C 0.35514 0.96970 0.70225
 C314 C 0.35542 0.98658 0.71931
 H315 H 0.41372 1.05616 0.80765
 H316 H 0.41406 1.08510 0.83792
 H317 H 0.34012 1.09491 0.83131
 H318 H 0.33962 1.06573 0.80126
 H319 H 0.41168 0.97989 0.73620
 H320 H 0.41121 0.95056 0.70650
 H321 H 0.33914 0.96699 0.69312
 H322 H 0.33967 0.99648 0.72267
 C323 C 0.87612 0.44796 0.19529
 C324 C 0.89664 0.44128 0.18377
 C325 C 0.89655 0.42393 0.16717
 C326 C 0.87592 0.41295 0.16164
 C327 C 0.85542 0.41965 0.17310
 C328 C 0.85551 0.43691 0.18975
 C329 C 0.87613 0.46623 0.21304
 N330 N 0.85664 0.47145 0.22529
 N331 N 0.85658 0.48776 0.24131
 C332 C 0.87600 0.49962 0.24577
 N333 N 0.89550 0.49444 0.23350
 N334 N 0.89557 0.47808 0.21749
 C335 C 0.87587 0.51770 0.26372
 C336 C 0.89541 0.53114 0.26732
 C337 C 0.89521 0.54809 0.28435
 C338 C 0.87551 0.55191 0.29826
 C339 C 0.85597 0.53850 0.29462
 C340 C 0.85613 0.52164 0.27755
 H341 H 0.91282 0.44942 0.18759
 H342 H 0.91257 0.41925 0.15845
 H343 H 0.83932 0.41128 0.16943
 H344 H 0.83939 0.44156 0.19828
 H345 H 0.91090 0.52858 0.25699
 H346 H 0.91062 0.55797 0.28676
 H347 H 0.84040 0.54110 0.30479
 H348 H 0.84075 0.51166 0.27526
 C349 C 0.30879 0.12698 -0.05577
 C350 C 0.31539 0.14772 -0.06646
 C351 C 0.33222 0.14767 -0.08392
 C352 C 0.34276 0.12691 -0.09115
 C353 C 0.33614 0.10618 -0.08052
 C354 C 0.31938 0.10622 -0.06301
 C355 C 0.29097 0.12700 -0.03721
 N356 N 0.28556 0.10718 -0.02591
 N357 N 0.26953 0.10716 -0.00928
 C358 C 0.25819 0.12697 -0.00323
 N359 N 0.26359 0.14680 -0.01453
 N360 N 0.27965 0.14681 -0.03115
 C361 C 0.24023 0.12689 0.01519
 C362 C 0.22737 0.14706 0.02035
 C363 C 0.21024 0.14687 0.03751
 C364 C 0.20562 0.12655 0.04999
 C365 C 0.21860 0.10643 0.04494
 C366 C 0.23566 0.10659 0.02773
 H367 H 0.30758 0.16402 -0.06136
 H368 H 0.33679 0.16389 -0.09198
 H369 H 0.34416 0.08994 -0.08555
 H370 H 0.31475 0.08993 -0.05516
 H371 H 0.23044 0.16302 0.01106
 H372 H 0.20076 0.16274 0.04105
 H373 H 0.21542 0.09040 0.05403
 H374 H 0.24522 0.09074 0.02424
 C375 C 0.69482 0.62442 0.55730
 C376 C 0.68855 0.64478 0.56896
 C377 C 0.67124 0.64475 0.58593
 C378 C 0.65986 0.62435 0.59170
 C379 C 0.66613 0.60399 0.58010
 C380 C 0.68338 0.60403 0.56307
 C381 C 0.71316 0.62447 0.53926
 N382 N 0.71827 0.60521 0.52695
 N383 N 0.73470 0.60527 0.51071
 C384 C 0.74676 0.62459 0.50610
 N385 N 0.74166 0.64385 0.51843
 N386 N 0.72521 0.64380 0.53464
 C387 C 0.76503 0.62467 0.48798
 C388 C 0.77845 0.64423 0.48422
 C389 C 0.79562 0.64432 0.46710
 C390 C 0.79972 0.62488 0.45326
 C391 C 0.78632 0.60531 0.45703
 C392 C 0.76921 0.60519 0.47421
 H393 H 0.69700 0.66080 0.56500
 H394 H 0.66696 0.66064 0.59477
 H395 H 0.65749 0.58806 0.58401
 H396 H 0.68774 0.58804 0.55444
 H397 H 0.77572 0.65955 0.49449
 H398 H 0.80545 0.65977 0.46459
 H399 H 0.78911 0.58994 0.44689
 H400 H 0.75924 0.58980 0.47663
 C401 C 0.80269 0.37547 0.06051
 C402 C 0.81363 0.39607 0.06596
 C403 C 0.83115 0.39625 0.08258
 C404 C 0.83820 0.37582 0.09412
 C405 C 0.82730 0.35521 0.08871
 C406 C 0.80971 0.35504 0.07212
 C407 C 0.78420 0.37530 0.04273
 N408 N 0.77298 0.35563 0.03796
 N409 N 0.75649 0.35549 0.02188
 C410 C 0.75052 0.37500 0.00986
 N411 N 0.76172 0.39466 0.01465
 N412 N 0.77819 0.39481 0.03074
 C413 C 0.73234 0.37482 -0.00824
 C414 C 0.72711 0.39476 -0.02147
 C415 C 0.71025 0.39453 -0.03877
 C416 C 0.69813 0.37438 -0.04324
 C417 C 0.70321 0.35449 -0.02988
 C418 C 0.72013 0.35469 -0.01262
 H419 H 0.80871 0.41212 0.05734
 H420 H 0.83944 0.41234 0.08617
 H421 H 0.83221 0.33925 0.09750
 H422 H 0.80166 0.33886 0.06839
 H423 H 0.73612 0.41060 -0.01855
 H424 H 0.70667 0.41026 -0.04850
 H425 H 0.69438 0.33860 -0.03292
 H426 H 0.72369 0.33902 -0.00277
 C427 C 0.18884 0.87450 0.44744
 C428 C 0.18306 0.85378 0.43676
 C429 C 0.16626 0.85359 0.41939
 C430 C 0.15488 0.87412 0.41226
 C431 C 0.16064 0.89485 0.42289
 C432 C 0.17739 0.89503 0.44031
 C433 C 0.20674 0.87469 0.46581
 N434 N 0.21157 0.89445 0.47700
 N435 N 0.22773 0.89463 0.49342
 C436 C 0.23978 0.87506 0.49933
 N437 N 0.23494 0.85530 0.48815
 N438 N 0.21877 0.85512 0.47175
 C439 C 0.25793 0.87528 0.51746
 C440 C 0.27138 0.85534 0.52245
 C441 C 0.28869 0.85560 0.53930
 C442 C 0.29295 0.87579 0.55163
 C443 C 0.27939 0.89568 0.54677
 C444 C 0.26212 0.89544 0.52986
 H445 H 0.19155 0.83765 0.44176
 H446 H 0.16240 0.83741 0.41129
 H447 H 0.15199 0.91089 0.41789
 H448 H 0.18138 0.91130 0.44816
 H449 H 0.26862 0.83948 0.51328
 H450 H 0.29860 0.83989 0.54271
 H451 H 0.28227 0.91159 0.55576
 H452 H 0.25210 0.91112 0.52648
   
