data_POSCAR
  _audit_creation_date              2014-09-24
  _audit_creation_method            'ToBaCCo'
  _symmetry_space_group_name_H-M    'P1'
  _symmetry_Int_Tables_number       1
  _symmetry_cell_setting            triclinic
  loop_
  _symmetry_equiv_pos_as_xyz
 x,y,z
_cell_length_a 60.7054
_cell_length_b 61.0738
_cell_length_c 60.6984
_cell_angle_alpha 91.865100
_cell_angle_beta 90.715700
_cell_angle_gamma 92.999200
loop_
  _atom_site_label
  _atom_site_type_symbol
  _atom_site_fract_x
  _atom_site_fract_y
  _atom_site_fract_z
N1 N 0.25963 0.22061 0.20648
 N2 N 0.25124 0.23789 0.19790
 C3 C 0.26345 0.24400 0.18051
 C4 C 0.28021 0.22962 0.17797
 C5 C 0.27723 0.21502 0.19476
 H6 H 0.26018 0.25760 0.17020
 H7 H 0.28730 0.20145 0.19834
 Cu8 Cu 0.22478 0.25010 0.21000
 Cu9 Cu 0.24742 0.20666 0.23235
 Cu10 Cu 0.20085 0.22861 0.25462
 N11 N 0.19880 0.26249 0.22298
 N12 N 0.18965 0.25395 0.24046
 C13 C 0.17237 0.26560 0.24638
 C14 C 0.17046 0.28240 0.23183
 C15 C 0.18753 0.27989 0.21714
 H16 H 0.16192 0.26203 0.26023
 H17 H 0.19166 0.29021 0.20349
 N18 N 0.21463 0.20302 0.26667
 N19 N 0.23263 0.19489 0.25850
 C20 C 0.23837 0.17807 0.27082
 C21 C 0.22315 0.17540 0.28743
 C22 C 0.20834 0.19149 0.28425
 H23 H 0.25249 0.16836 0.26786
 H24 H 0.19430 0.19486 0.29435
 H25 H 0.21544 0.21524 0.22703
 H26 H 0.23327 0.23421 0.24523
 N27 N 0.74763 -0.22846 0.19794
 N28 N 0.75355 -0.24746 0.18996
 C29 C 0.74112 -0.25330 0.17204
 C30 C 0.72641 -0.23705 0.16842
 C31 C 0.73121 -0.22146 0.18529
 H32 H 0.74276 -0.26835 0.16252
 H33 H 0.72310 -0.20639 0.18857
 Cu34 Cu 0.77646 -0.26327 0.20391
 Cu35 Cu 0.76111 -0.21493 0.22474
 Cu36 Cu 0.80660 -0.23973 0.24595
 N37 N 0.80424 -0.27458 0.21301
 N38 N 0.81578 -0.26583 0.22980
 C39 C 0.83357 -0.27766 0.23308
 C40 C 0.83329 -0.29477 0.21731
 C41 C 0.81435 -0.29206 0.20482
 H42 H 0.84578 -0.27392 0.24594
 H43 H 0.80792 -0.30227 0.19111
 N44 N 0.79453 -0.21322 0.25967
 N45 N 0.77708 -0.20395 0.25172
 C46 C 0.77237 -0.18686 0.26512
 C47 C 0.78765 -0.18519 0.28228
 C48 C 0.80148 -0.20215 0.27824
 H49 H 0.75882 -0.17639 0.26259
 H50 H 0.81523 -0.20645 0.28841
 H51 H 0.79131 -0.22797 0.21844
 H52 H 0.77321 -0.24250 0.23860
 N53 N 0.73476 0.21016 0.80852
 N54 N 0.74646 0.22510 0.82031
 C55 C 0.73487 0.23115 0.83803
 C56 C 0.71470 0.21943 0.83734
 C57 C 0.71526 0.20622 0.81834
 H58 H 0.74043 0.24375 0.85005
 H59 H 0.70237 0.19476 0.81198
 Cu60 Cu 0.77508 0.23643 0.81079
 Cu61 Cu 0.74551 0.19764 0.78094
 Cu62 Cu 0.79206 0.22394 0.75964
 N63 N 0.79829 0.25385 0.79694
 N64 N 0.80476 0.24918 0.77685
 C65 C 0.82042 0.26430 0.77116
 C66 C 0.82399 0.27944 0.78867
 C67 C 0.80953 0.27207 0.80476
 H68 H 0.82837 0.26423 0.75535
 H69 H 0.80689 0.27949 0.82084
 N70 N 0.77675 0.19801 0.74500
 N71 N 0.75920 0.18778 0.75327
 C72 C 0.75294 0.17049 0.73988
 C73 C 0.76717 0.16983 0.72224
 C74 C 0.78204 0.18756 0.72607
 H75 H 0.73894 0.15930 0.74267
 H76 H 0.79596 0.19227 0.71602
 H77 H 0.77899 0.20557 0.78496
 H78 H 0.76153 0.22716 0.77376
 N79 N 0.26219 -0.20657 0.80138
 N80 N 0.24964 -0.22095 0.81175
 C81 C 0.26072 -0.22764 0.82944
 C82 C 0.28132 -0.21673 0.83030
 C83 C 0.28162 -0.20346 0.81221
 H84 H 0.25427 -0.23960 0.84076
 H85 H 0.29520 -0.19281 0.80694
 Cu86 Cu 0.22025 -0.23000 0.80093
 Cu87 Cu 0.25282 -0.19375 0.77406
 Cu88 Cu 0.20397 -0.21557 0.75049
 N89 N 0.19525 -0.24500 0.78567
 N90 N 0.18914 -0.23958 0.76585
 C91 C 0.17227 -0.25327 0.75875
 C92 C 0.16741 -0.26821 0.77505
 C93 C 0.18243 -0.26226 0.79196
 H94 H 0.16437 -0.25240 0.74278
 H95 H 0.18454 -0.27021 0.80743
 N96 N 0.22156 -0.19121 0.73770
 N97 N 0.24037 -0.18312 0.74651
 C98 C 0.24876 -0.16721 0.73371
 C99 C 0.23447 -0.16507 0.71607
 C100 C 0.21739 -0.18052 0.71917
 H101 H 0.26403 -0.15774 0.73708
 H102 H 0.20319 -0.18400 0.70847
 H103 H 0.21900 -0.19861 0.77720
 H104 H 0.23405 -0.22180 0.76462
 N105 N 0.74432 -0.21330 0.79526
 N106 N 0.75128 -0.23052 0.80514
 C107 C 0.73799 -0.23510 0.82218
 C108 C 0.72195 -0.21980 0.82312
 C109 C 0.72654 -0.20618 0.80580
 H110 H 0.73980 -0.24855 0.83308
 H111 H 0.71722 -0.19253 0.80081
 Cu112 Cu 0.77677 -0.24563 0.79469
 Cu113 Cu 0.75796 -0.20226 0.76874
 Cu114 Cu 0.80134 -0.23061 0.74757
 N115 N 0.80102 -0.26135 0.78231
 N116 N 0.81008 -0.25596 0.76359
 C117 C 0.82583 -0.26998 0.75865
 C118 C 0.82692 -0.28498 0.77534
 C119 C 0.81083 -0.27884 0.79006
 H120 H 0.83598 -0.26894 0.74419
 H121 H 0.80621 -0.28671 0.80512
 N122 N 0.79019 -0.20445 0.73384
 N123 N 0.77376 -0.19362 0.74202
 C124 C 0.76993 -0.17672 0.72906
 C125 C 0.78467 -0.17683 0.71186
 C126 C 0.79731 -0.19465 0.71548
 H127 H 0.75738 -0.16511 0.73201
 H128 H 0.81052 -0.20024 0.70531
 H129 H 0.76904 -0.23230 0.75811
 H130 H 0.78907 -0.21359 0.77423
 N131 N 0.24053 0.21977 0.80753
 N132 N 0.23046 0.23528 0.81829
 C133 C 0.24264 0.24184 0.83627
 C134 C 0.26144 0.22991 0.83660
 C135 C 0.25947 0.21606 0.81813
 H136 H 0.23852 0.25484 0.84778
 H137 H 0.27103 0.20418 0.81274
 Cu138 Cu 0.20318 0.24639 0.80701
 Cu139 Cu 0.22874 0.20569 0.78041
 Cu140 Cu 0.18451 0.22934 0.75636
 N141 N 0.18133 0.26217 0.79102
 N142 N 0.17437 0.25553 0.77121
 C143 C 0.16029 0.26983 0.76352
 C144 C 0.15822 0.28639 0.77934
 C145 C 0.17177 0.28094 0.79667
 H146 H 0.15225 0.26834 0.74751
 H147 H 0.17500 0.29028 0.81191
 N148 N 0.19726 0.20276 0.74396
 N149 N 0.21433 0.19384 0.75303
 C150 C 0.21987 0.17658 0.74028
 C151 C 0.20557 0.17452 0.72228
 C152 C 0.19142 0.19139 0.72524
 H153 H 0.23340 0.16637 0.74378
 H154 H 0.17827 0.19553 0.71421
 H155 H 0.21541 0.23444 0.77088
 H156 H 0.19613 0.21353 0.78353
 N157 N 0.26642 -0.21820 0.19485
 N158 N 0.25488 -0.23439 0.18468
 C159 C 0.26637 -0.24174 0.16733
 C160 C 0.28627 -0.22955 0.16674
 C161 C 0.28564 -0.21475 0.18446
 H162 H 0.26091 -0.25528 0.15634
 H163 H 0.29820 -0.20230 0.18940
 Cu164 Cu 0.22643 -0.24496 0.19561
 Cu165 Cu 0.25589 -0.20279 0.22086
 Cu166 Cu 0.20924 -0.22556 0.24483
 N167 N 0.20306 -0.26010 0.21173
 N168 N 0.19667 -0.25263 0.23104
 C169 C 0.18115 -0.26671 0.23891
 C170 C 0.17753 -0.28395 0.22371
 C171 C 0.19171 -0.27916 0.20660
 H172 H 0.17314 -0.26457 0.25459
 H173 H 0.19410 -0.28910 0.19184
 N174 N 0.22450 -0.19820 0.25616
 N175 N 0.24250 -0.18965 0.24716
 C176 C 0.24955 -0.17157 0.25902
 C177 C 0.23527 -0.16855 0.27633
 C178 C 0.21955 -0.18575 0.27394
 H179 H 0.26405 -0.16138 0.25536
 H180 H 0.20588 -0.18930 0.28471
 H181 H 0.23970 -0.23108 0.23151
 H182 H 0.22248 -0.21107 0.21721
 N183 N 0.73088 0.20110 0.19874
 N184 N 0.73939 0.21952 0.19112
 C185 C 0.72621 0.22613 0.17487
 C186 C 0.70843 0.21102 0.17213
 C187 C 0.71204 0.19535 0.18761
 H188 H 0.72934 0.24083 0.16574
 H189 H 0.70156 0.18101 0.19088
 Cu190 Cu 0.76667 0.23321 0.20350
 Cu191 Cu 0.74451 0.18624 0.22292
 Cu192 Cu 0.79351 0.21001 0.24476
 N193 N 0.79398 0.24658 0.21614
 N194 N 0.80463 0.23719 0.23195
 C195 C 0.82273 0.24983 0.23779
 C196 C 0.82342 0.26825 0.22505
 C197 C 0.80488 0.26560 0.21148
 H198 H 0.83418 0.24621 0.25079
 H199 H 0.79974 0.27671 0.19915
 N200 N 0.77955 0.18260 0.25554
 N201 N 0.76079 0.17369 0.24740
 C202 C 0.75486 0.15600 0.25906
 C203 C 0.77063 0.15361 0.27537
 C204 C 0.78607 0.17076 0.27255
 H205 H 0.73996 0.14582 0.25613
 H206 H 0.80052 0.17486 0.28275
 H207 H 0.76058 0.21382 0.23755
 H208 H 0.77641 0.19778 0.21702
 C209 C 0.23930 0.01580 0.50101
 C210 C 0.23780 -0.00655 0.49952
 C211 C 0.23661 -0.02017 0.51940
 C212 C 0.23599 -0.01860 0.47790
 C213 C 0.24109 0.02938 0.48113
 C214 C 0.23797 0.02786 0.52253
 C215 C 0.25237 -0.01732 0.53653
 C216 C 0.25059 -0.02996 0.55530
 C217 C 0.23319 -0.04594 0.55713
 C218 C 0.21783 -0.04911 0.53965
 C219 C 0.21951 -0.03637 0.52103
 C220 C 0.25121 -0.03434 0.47254
 C221 C 0.24916 -0.04650 0.45268
 C222 C 0.23167 -0.04331 0.43794
 C223 C 0.21640 -0.02754 0.44337
 C224 C 0.21852 -0.01530 0.46321
 C225 C 0.22641 0.04607 0.47823
 C226 C 0.22739 0.05867 0.45947
 C227 C 0.24306 0.05483 0.44311
 C228 C 0.25813 0.03845 0.44629
 C229 C 0.25726 0.02595 0.46520
 C230 C 0.21951 0.02472 0.53600
 C231 C 0.21821 0.03654 0.55600
 C232 C 0.23528 0.05180 0.56280
 C233 C 0.25368 0.05498 0.54920
 C234 C 0.25493 0.04320 0.52919
 H235 H 0.26597 -0.00522 0.53544
 H236 H 0.26263 -0.02700 0.56851
 H237 H 0.20453 -0.06159 0.54027
 H238 H 0.20728 -0.03900 0.50794
 H239 H 0.26464 -0.03725 0.48381
 H240 H 0.26096 -0.05878 0.44908
 H241 H 0.20641 -0.00345 0.46725
 H242 H 0.21395 0.04918 0.49040
 H243 H 0.21589 0.07150 0.45784
 H244 H 0.27036 0.03503 0.43399
 H245 H 0.26907 0.01348 0.46732
 H246 H 0.20608 0.01321 0.53095
 H247 H 0.20391 0.03367 0.56620
 H248 H 0.26690 0.06688 0.55385
 H249 H 0.26917 0.04599 0.51888
 H250 H 0.20282 -0.02469 0.43226
 C251 C 0.77802 0.00712 0.49883
 C252 C 0.77568 -0.01514 0.49946
 C253 C 0.77439 -0.02937 0.47905
 C254 C 0.77473 -0.02656 0.52066
 C255 C 0.77820 0.02131 0.51917
 C256 C 0.78021 0.01863 0.47776
 C257 C 0.75894 -0.02614 0.46219
 C258 C 0.75816 -0.03962 0.44309
 C259 C 0.77252 -0.05687 0.44064
 C260 C 0.78756 -0.06037 0.45783
 C261 C 0.78848 -0.04676 0.47678
 C262 C 0.75653 -0.04078 0.52499
 C263 C 0.75582 -0.05248 0.54437
 C264 C 0.77344 -0.05040 0.55965
 C265 C 0.79169 -0.03613 0.55528
 C266 C 0.79232 -0.02429 0.53594
 C267 C 0.79620 0.03617 0.52365
 C268 C 0.79613 0.05060 0.54195
 C269 C 0.77789 0.05072 0.55602
 C270 C 0.75993 0.03563 0.55159
 C271 C 0.76007 0.02107 0.53331
 C272 C 0.79752 0.01462 0.46330
 C273 C 0.79927 0.02571 0.44353
 C274 C 0.78373 0.04097 0.43795
 C275 C 0.76658 0.04507 0.45261
 C276 C 0.76492 0.03410 0.47237
 H277 H 0.74752 -0.01317 0.46380
 H278 H 0.74646 -0.03637 0.43015
 H279 H 0.79848 -0.07380 0.45678
 H280 H 0.80033 -0.04974 0.48969
 H281 H 0.74291 -0.04288 0.51328
 H282 H 0.74171 -0.06359 0.54716
 H283 H 0.80665 -0.01363 0.53271
 H284 H 0.81032 0.03660 0.51290
 H285 H 0.81040 0.06171 0.54508
 H286 H 0.74548 0.03549 0.56188
 H287 H 0.74585 0.00997 0.52989
 H288 H 0.80964 0.00293 0.46734
 H289 H 0.81262 0.02220 0.43250
 H290 H 0.75460 0.05701 0.44891
 H291 H 0.75155 0.03753 0.48341
 H292 H 0.80544 -0.03415 0.56683
 C293 C 0.49197 0.24451 0.01058
 C294 C 0.49071 0.24248 -0.01183
 C295 C 0.51068 0.23964 -0.02532
 C296 C 0.46947 0.24232 -0.02437
 C297 C 0.47212 0.24689 0.02440
 C298 C 0.51329 0.24324 0.02266
 C299 C 0.52823 0.25557 -0.02492
 C300 C 0.54640 0.25297 -0.03855
 C301 C 0.54723 0.23447 -0.05292
 C302 C 0.52968 0.21851 -0.05307
 C303 C 0.51157 0.22113 -0.03950
 C304 C 0.46781 0.25599 -0.04241
 C305 C 0.44887 0.25486 -0.05572
 C306 C 0.43111 0.24014 -0.05118
 C307 C 0.43247 0.22679 -0.03286
 C308 C 0.45164 0.22763 -0.01973
 C309 C 0.46827 0.23242 0.04157
 C310 C 0.44949 0.23372 0.05441
 C311 C 0.43400 0.24949 0.05036
 C312 C 0.43817 0.26444 0.03356
 C313 C 0.45716 0.26325 0.02078
 C314 C 0.52563 0.22448 0.02073
 C315 C 0.54523 0.22320 0.03286
 C316 C 0.55275 0.24060 0.04725
 C317 C 0.54029 0.25932 0.04915
 C318 C 0.52070 0.26057 0.03705
 H319 H 0.52767 0.27014 -0.01433
 H320 H 0.55953 0.26569 -0.03827
 H321 H 0.52998 0.20392 -0.06366
 H322 H 0.49819 0.20868 -0.04003
 H323 H 0.48138 0.26734 -0.04639
 H324 H 0.44813 0.26536 -0.06972
 H325 H 0.45275 0.21650 -0.00629
 H326 H 0.47969 0.21983 0.04484
 H327 H 0.44712 0.22234 0.06759
 H328 H 0.42658 0.27678 0.03001
 H329 H 0.46004 0.27489 0.00792
 H330 H 0.51997 0.21076 0.01002
 H331 H 0.55454 0.20863 0.03095
 H332 H 0.54545 0.27282 0.06036
 H333 H 0.51125 0.27505 0.03893
 H334 H 0.41904 0.21514 -0.02924
 C335 C 0.50541 0.77114 -0.01384
 C336 C 0.50680 0.77191 0.00856
 C337 C 0.48689 0.77217 0.02248
 C338 C 0.52831 0.77316 0.02048
 C339 C 0.52525 0.76930 -0.02781
 C340 C 0.48405 0.77337 -0.02550
 C341 C 0.48501 0.78908 0.03840
 C342 C 0.46708 0.78896 0.05254
 C343 C 0.45076 0.77174 0.05127
 C344 C 0.45249 0.75494 0.03506
 C345 C 0.47043 0.75514 0.02080
 C346 C 0.54366 0.79081 0.01767
 C347 C 0.56337 0.79241 0.02993
 C348 C 0.56805 0.77630 0.04508
 C349 C 0.55270 0.75857 0.04770
 C350 C 0.53293 0.75713 0.03564
 C351 C 0.54029 0.75298 -0.02444
 C352 C 0.55909 0.75182 -0.03742
 C353 C 0.56302 0.76669 -0.05434
 C354 C 0.54756 0.78258 -0.05806
 C355 C 0.52894 0.78390 -0.04492
 C356 C 0.47635 0.75721 -0.04107
 C357 C 0.45693 0.75983 -0.05308
 C358 C 0.44510 0.77883 -0.04996
 C359 C 0.45280 0.79493 -0.03424
 C360 C 0.47211 0.79222 -0.02211
 H361 H 0.49751 0.80239 0.03991
 H362 H 0.46603 0.80236 0.06454
 H363 H 0.44035 0.74131 0.03383
 H364 H 0.47178 0.74177 0.00881
 H365 H 0.54020 0.80349 0.00624
 H366 H 0.57497 0.80618 0.02758
 H367 H 0.52117 0.74351 0.03814
 H368 H 0.53754 0.74117 -0.01170
 H369 H 0.57068 0.73944 -0.03400
 H370 H 0.54973 0.79395 -0.07128
 H371 H 0.51746 0.79647 -0.04801
 H372 H 0.48549 0.74266 -0.04402
 H373 H 0.45151 0.74730 -0.06528
 H374 H 0.44392 0.80967 -0.03144
 H375 H 0.47801 0.80503 -0.01041
 H376 H 0.55578 0.74611 0.05948
 C377 C 0.01061 0.49240 0.22207
 C378 C -0.01172 0.49326 0.22267
 C379 C -0.02659 0.47322 0.22282
 C380 C -0.02261 0.51442 0.22287
 C381 C 0.02534 0.51257 0.22132
 C382 C 0.02161 0.47129 0.22129
 C383 C -0.04273 0.46974 0.20619
 C384 C -0.05755 0.45152 0.20639
 C385 C -0.05674 0.43648 0.22341
 C386 C -0.04040 0.43991 0.24001
 C387 C -0.02547 0.45816 0.23974
 C388 C -0.02088 0.52834 0.20495
 C389 C -0.03141 0.54817 0.20541
 C390 C -0.04370 0.55441 0.22385
 C391 C -0.04539 0.54040 0.24172
 C392 C -0.03508 0.52049 0.24114
 C393 C 0.04051 0.51469 0.20419
 C394 C 0.05425 0.53362 0.20284
 C395 C 0.05312 0.55089 0.21861
 C396 C 0.03820 0.54855 0.23604
 C397 C 0.02457 0.52948 0.23749
 C398 C 0.03728 0.46723 0.23759
 C399 C 0.04902 0.44820 0.23640
 C400 C 0.04548 0.43295 0.21871
 C401 C 0.02965 0.43697 0.20241
 C402 C 0.01779 0.45600 0.20370
 H403 H -0.04381 0.48116 0.19299
 H404 H -0.06963 0.44917 0.19314
 H405 H -0.03952 0.42879 0.25349
 H406 H -0.01332 0.46077 0.25290
 H407 H -0.01146 0.52377 0.19064
 H408 H -0.02986 0.55872 0.19146
 H409 H -0.03667 0.50986 0.25503
 H410 H 0.04154 0.50174 0.19168
 H411 H 0.06589 0.53465 0.18950
 H412 H 0.03681 0.56158 0.24839
 H413 H 0.01333 0.52798 0.25113
 H414 H 0.04060 0.47897 0.25115
 H415 H 0.06135 0.44573 0.24899
 H416 H 0.02653 0.42545 0.18865
 H417 H 0.00600 0.45905 0.19076
 H418 H -0.05502 0.54468 0.25598
 C419 C 0.00815 0.50541 0.77918
 C420 C -0.01418 0.50415 0.77617
 C421 C -0.02707 0.48277 0.77587
 C422 C -0.02705 0.52403 0.77355
 C423 C 0.02092 0.52678 0.78124
 C424 C 0.02111 0.48550 0.78080
 C425 C -0.04062 0.47654 0.75762
 C426 C -0.05297 0.45658 0.75712
 C427 C -0.05217 0.44255 0.77499
 C428 C -0.03876 0.44895 0.79339
 C429 C -0.02637 0.46892 0.79385
 C430 C -0.02122 0.53985 0.75806
 C431 C -0.03337 0.55855 0.75617
 C432 C -0.05196 0.56156 0.76935
 C433 C -0.05815 0.54529 0.78430
 C434 C -0.04579 0.52682 0.78642
 C435 C 0.01680 0.54207 0.79827
 C436 C 0.02928 0.56197 0.80016
 C437 C 0.04600 0.56689 0.78499
 C438 C 0.05010 0.55148 0.76804
 C439 C 0.03778 0.53154 0.76630
 C440 C 0.01957 0.46872 0.76439
 C441 C 0.03182 0.45009 0.76629
 C442 C 0.04614 0.44805 0.78444
 C443 C 0.04794 0.46511 0.80059
 C444 C 0.03556 0.48362 0.79877
 H445 H -0.04153 0.48712 0.74369
 H446 H -0.06342 0.45227 0.74288
 H447 H -0.03773 0.43843 0.80734
 H448 H -0.01626 0.47360 0.80824
 H449 H -0.00721 0.53777 0.74747
 H450 H -0.02803 0.57075 0.74456
 H451 H -0.05082 0.51471 0.79826
 H452 H 0.00401 0.53852 0.81012
 H453 H 0.02576 0.57360 0.81333
 H454 H 0.06309 0.55473 0.75634
 H455 H 0.04129 0.51985 0.75317
 H456 H 0.00887 0.47002 0.75014
 H457 H 0.02990 0.43720 0.75364
 H458 H 0.05912 0.46429 0.81453
 H459 H 0.03718 0.49648 0.81149
 H460 H -0.07269 0.54668 0.79427
 C461 C 0.32382 0.20966 0.13939
 C462 C 0.33148 0.22908 0.12918
 C463 C 0.32183 0.24892 0.13558
 C464 C 0.30475 0.24896 0.15104
 C465 C 0.29749 0.22954 0.16099
 C466 C 0.30721 0.20999 0.15504
 C467 C 0.32950 0.26867 0.12680
 C468 C 0.34705 0.26935 0.11230
 C469 C 0.35734 0.25009 0.10552
 C470 C 0.34873 0.22953 0.11332
 C471 C 0.35752 0.21007 0.10489
 C472 C 0.37489 0.21065 0.09028
 C473 C 0.38445 0.23056 0.08370
 C474 C 0.37590 0.25062 0.09114
 C475 C 0.38670 0.27033 0.08424
 C476 C 0.40523 0.26997 0.07078
 C477 C 0.41360 0.25004 0.06365
 C478 C 0.40279 0.23042 0.06990
 H479 H 0.33068 0.19399 0.13615
 H480 H 0.29757 0.26426 0.15580
 H481 H 0.30191 0.19474 0.16244
 H482 H 0.32211 0.28388 0.13150
 H483 H 0.35196 0.28528 0.10639
 H484 H 0.35109 0.19397 0.10898
 H485 H 0.38116 0.19526 0.08436
 H486 H 0.38169 0.28631 0.08948
 H487 H 0.41340 0.28540 0.06647
 H488 H 0.40881 0.21487 0.06414
 C489 C 0.68887 0.74442 0.12157
 C490 C 0.67495 0.76214 0.11976
 C491 C 0.67956 0.78087 0.13377
 C492 C 0.69663 0.78114 0.14968
 C493 C 0.70983 0.76306 0.15188
 C494 C 0.70589 0.74492 0.13725
 C495 C 0.66702 0.79923 0.13200
 C496 C 0.64984 0.79944 0.11671
 C497 C 0.64414 0.78100 0.10276
 C498 C 0.65665 0.76188 0.10461
 C499 C 0.65005 0.74292 0.09175
 C500 C 0.63186 0.74254 0.07767
 C501 C 0.61971 0.76108 0.07545
 C502 C 0.62592 0.78077 0.08751
 C503 C 0.61347 0.79934 0.08382
 C504 C 0.59511 0.79798 0.06965
 C505 C 0.58852 0.77816 0.05868
 C506 C 0.60112 0.75987 0.06140
 H507 H 0.68725 0.72990 0.11101
 H508 H 0.69948 0.79563 0.16027
 H509 H 0.71569 0.73068 0.13789
 H510 H 0.67049 0.81365 0.14262
 H511 H 0.64091 0.81421 0.11670
 H512 H 0.65819 0.72773 0.09264
 H513 H 0.62720 0.72746 0.06846
 H514 H 0.61744 0.81518 0.09158
 H515 H 0.58566 0.81237 0.06770
 H516 H 0.59635 0.74460 0.05257
 C517 C 0.68255 0.23370 -0.11148
 C518 C 0.66060 0.22681 -0.11758
 C519 C 0.65698 0.21723 -0.13900
 C520 C 0.67465 0.21454 -0.15341
 C521 C 0.69622 0.22156 -0.14711
 C522 C 0.69994 0.23113 -0.12603
 C523 C 0.63573 0.21048 -0.14610
 C524 C 0.61778 0.21326 -0.13256
 C525 C 0.62036 0.22283 -0.11112
 C526 C 0.64218 0.22928 -0.10331
 C527 C 0.64485 0.23782 -0.08147
 C528 C 0.62691 0.24024 -0.06781
 C529 C 0.60553 0.23453 -0.07532
 C530 C 0.60186 0.22593 -0.09713
 C531 C 0.57974 0.22095 -0.10403
 C532 C 0.56226 0.22389 -0.08973
 C533 C 0.56604 0.23191 -0.06806
 C534 C 0.58777 0.23736 -0.06103
 H535 H 0.68691 0.24141 -0.09571
 H536 H 0.67144 0.20736 -0.16976
 H537 H 0.71642 0.23662 -0.12060
 H538 H 0.63288 0.20304 -0.16242
 H539 H 0.60204 0.20741 -0.13941
 H540 H 0.66072 0.24259 -0.07422
 H541 H 0.62983 0.24676 -0.05114
 H542 H 0.57524 0.21500 -0.12044
 H543 H 0.54560 0.22007 -0.09580
 H544 H 0.59092 0.24350 -0.04427
 C545 C 0.31770 0.75900 -0.12663
 C546 C 0.33514 0.77524 -0.12373
 C547 C 0.33383 0.79467 -0.13574
 C548 C 0.31627 0.79717 -0.15057
 C549 C 0.29945 0.78072 -0.15358
 C550 C 0.30022 0.76178 -0.14127
 C551 C 0.35007 0.81154 -0.13303
 C552 C 0.36773 0.80968 -0.11861
 C553 C 0.37007 0.79059 -0.10646
 C554 C 0.35374 0.77290 -0.10938
 C555 C 0.35679 0.75332 -0.09823
 C556 C 0.37506 0.75104 -0.08469
 C557 C 0.39089 0.76822 -0.08136
 C558 C 0.38848 0.78840 -0.09184
 C559 C 0.40468 0.80555 -0.08720
 C560 C 0.42272 0.80244 -0.07340
 C561 C 0.42532 0.78224 -0.06373
 C562 C 0.40923 0.76524 -0.06765
 H563 H 0.31692 0.74401 -0.11776
 H564 H 0.31565 0.81212 -0.15965
 H565 H 0.28743 0.74880 -0.14320
 H566 H 0.34915 0.82642 -0.14218
 H567 H 0.37956 0.82343 -0.11779
 H568 H 0.34556 0.73911 -0.09999
 H569 H 0.37682 0.73558 -0.07672
 H570 H 0.40392 0.82163 -0.09383
 H571 H 0.43496 0.81583 -0.07064
 H572 H 0.41095 0.74967 -0.05988
 C573 C 0.12728 0.32029 0.25257
 C574 C 0.12268 0.33264 0.23386
 C575 C 0.13405 0.32771 0.21418
 C576 C 0.14960 0.31143 0.21361
 C577 C 0.15404 0.29954 0.23237
 C578 C 0.14264 0.30409 0.25175
 C579 C 0.12989 0.33904 0.19514
 C580 C 0.11476 0.35531 0.19509
 C581 C 0.10318 0.36111 0.21428
 C582 C 0.10733 0.34969 0.23404
 C583 C 0.09624 0.35591 0.25340
 C584 C 0.08185 0.37281 0.25362
 C585 C 0.07767 0.38411 0.23458
 C586 C 0.08791 0.37825 0.21451
 C587 C 0.08250 0.39000 0.19559
 C588 C 0.06832 0.40727 0.19689
 C589 C 0.05898 0.41344 0.21697
 C590 C 0.06347 0.40150 0.23567
 H591 H 0.11932 0.32260 0.26815
 H592 H 0.15807 0.30789 0.19840
 H593 H 0.14575 0.29532 0.26658
 H594 H 0.13850 0.33533 0.18004
 H595 H 0.11279 0.36328 0.17970
 H596 H 0.09854 0.34829 0.26893
 H597 H 0.07399 0.37717 0.26897
 H598 H 0.08901 0.38642 0.17953
 H599 H 0.06514 0.41627 0.18219
 H600 H 0.05595 0.40590 0.25120
 C601 C 0.12407 0.69059 0.75374
 C602 C 0.12065 0.67700 0.77196
 C603 C 0.13239 0.68296 0.79174
 C604 C 0.14767 0.70108 0.79271
 C605 C 0.15147 0.71405 0.77426
 C606 C 0.13910 0.70870 0.75493
 C607 C 0.12898 0.67076 0.81052
 C608 C 0.11418 0.65264 0.81018
 C609 C 0.10240 0.64566 0.79078
 C610 C 0.10604 0.65778 0.77122
 C611 C 0.09541 0.64996 0.75146
 C612 C 0.08173 0.63102 0.75075
 C613 C 0.07772 0.61927 0.76970
 C614 C 0.08757 0.62660 0.79012
 C615 C 0.08214 0.61444 0.80898
 C616 C 0.06833 0.59541 0.80734
 C617 C 0.05948 0.58783 0.78693
 C618 C 0.06402 0.60001 0.76823
 H619 H 0.11526 0.68787 0.73831
 H620 H 0.15645 0.70499 0.80807
 H621 H 0.14110 0.71823 0.74033
 H622 H 0.13789 0.67525 0.82574
 H623 H 0.11282 0.64408 0.82537
 H624 H 0.09778 0.65777 0.73596
 H625 H 0.07424 0.62548 0.73510
 H626 H 0.08817 0.61918 0.82529
 H627 H 0.06497 0.58630 0.82205
 H628 H 0.05683 0.59447 0.75245
 C629 C -0.13931 0.65632 0.19450
 C630 C -0.12249 0.65341 0.21029
 C631 C -0.12065 0.66847 0.22856
 C632 C -0.13482 0.68591 0.23049
 C633 C -0.15169 0.68844 0.21482
 C634 C -0.15358 0.67337 0.19680
 C635 C -0.10490 0.66586 0.24506
 C636 C -0.09144 0.64816 0.24431
 C637 C -0.09287 0.63247 0.22666
 C638 C -0.10790 0.63575 0.20886
 C639 C -0.10781 0.62131 0.19022
 C640 C -0.09436 0.60363 0.18940
 C641 C -0.08072 0.59936 0.20721
 C642 C -0.07975 0.61364 0.22615
 C643 C -0.06616 0.60804 0.24404
 C644 C -0.05429 0.58906 0.24309
 C645 C -0.05533 0.57514 0.22429
 C646 C -0.06835 0.58056 0.20629
 H647 H -0.14235 0.64534 0.18042
 H648 H -0.13297 0.69705 0.24471
 H649 H -0.16611 0.67456 0.18415
 H650 H -0.10322 0.67743 0.25899
 H651 H -0.07979 0.64741 0.25775
 H652 H -0.11776 0.62338 0.17570
 H653 H -0.09496 0.59293 0.17477
 H654 H -0.06480 0.61760 0.25927
 H655 H -0.04428 0.58519 0.25720
 H656 H -0.06949 0.56965 0.19181
 C657 C -0.14568 0.33067 0.81008
 C658 C -0.13263 0.33693 0.79196
 C659 C -0.13429 0.32326 0.77263
 C660 C -0.14840 0.30423 0.77170
 C661 C -0.16144 0.29829 0.78978
 C662 C -0.15972 0.31183 0.80896
 C663 C -0.12197 0.32867 0.75417
 C664 C -0.10819 0.34753 0.75426
 C665 C -0.10604 0.36187 0.77298
 C666 C -0.11822 0.35631 0.79227
 C667 C -0.11559 0.37032 0.81121
 C668 C -0.10195 0.38927 0.81126
 C669 C -0.09038 0.39517 0.79251
 C670 C -0.09217 0.38162 0.77307
 C671 C -0.08012 0.38861 0.75448
 C672 C -0.06713 0.40818 0.75525
 C673 C -0.06554 0.42147 0.77449
 C674 C -0.07713 0.41475 0.79311
 H675 H -0.14567 0.34002 0.82542
 H676 H -0.14924 0.29426 0.75662
 H677 H -0.16923 0.30808 0.82342
 H678 H -0.12309 0.31824 0.73936
 H679 H -0.09937 0.35033 0.73926
 H680 H -0.12384 0.36715 0.82646
 H681 H -0.10057 0.39952 0.82619
 H682 H -0.08046 0.37951 0.73899
 H683 H -0.05814 0.41288 0.74069
 H684 H -0.07626 0.42507 0.80801
 C685 C 0.20280 0.13872 0.33275
 C686 C 0.22234 0.12942 0.34017
 C687 C 0.24232 0.13568 0.32966
 C688 C 0.24243 0.15020 0.31215
 C689 C 0.22292 0.15930 0.30516
 C690 C 0.20318 0.15342 0.31563
 C691 C 0.26217 0.12770 0.33687
 C692 C 0.26282 0.11409 0.35474
 C693 C 0.24345 0.10752 0.36594
 C694 C 0.22277 0.11459 0.35794
 C695 C 0.20322 0.10647 0.36786
 C696 C 0.20380 0.09274 0.38558
 C697 C 0.22382 0.08676 0.39438
 C698 C 0.24398 0.09402 0.38479
 C699 C 0.26381 0.08778 0.39483
 C700 C 0.26348 0.07497 0.41351
 C701 C 0.24347 0.06786 0.42283
 C702 C 0.22371 0.07364 0.41293
 H703 H 0.18698 0.13545 0.34013
 H704 H 0.25787 0.15490 0.30440
 H705 H 0.18784 0.16014 0.31055
 H706 H 0.27749 0.13229 0.32881
 H707 H 0.27885 0.10873 0.35918
 H708 H 0.18702 0.11014 0.36209
 H709 H 0.18834 0.08700 0.39268
 H710 H 0.27988 0.09298 0.38905
 H711 H 0.27902 0.07107 0.42098
 H712 H 0.20809 0.06795 0.41973
 C713 C 0.75559 0.11758 0.68758
 C714 C 0.76649 0.12227 0.66763
 C715 C 0.77719 0.14335 0.66598
 C716 C 0.77740 0.15864 0.68379
 C717 C 0.76676 0.15361 0.70348
 C718 C 0.75574 0.13301 0.70510
 C719 C 0.78766 0.14915 0.64657
 C720 C 0.78768 0.13460 0.62855
 C721 C 0.77737 0.11337 0.62925
 C722 C 0.76705 0.10690 0.64929
 C723 C 0.75794 0.08521 0.65042
 C724 C 0.75866 0.07041 0.63261
 C725 C 0.76811 0.07662 0.61281
 C726 C 0.77735 0.09825 0.61069
 C727 C 0.78606 0.10385 0.58996
 C728 C 0.78607 0.08848 0.57244
 C729 C 0.77747 0.06697 0.57481
 C730 C 0.76837 0.06122 0.59508
 H731 H 0.74659 0.10225 0.69018
 H732 H 0.78565 0.17465 0.68213
 H733 H 0.74736 0.12861 0.72008
 H734 H 0.79593 0.16522 0.64526
 H735 H 0.79636 0.14046 0.61437
 H736 H 0.75044 0.07892 0.66506
 H737 H 0.75160 0.05389 0.63436
 H738 H 0.79269 0.12005 0.58651
 H739 H 0.79261 0.09364 0.55681
 H740 H 0.76171 0.04461 0.59719
 C741 C 0.26053 -0.12739 0.67421
 C742 C 0.24209 -0.12133 0.66169
 C743 C 0.22091 -0.12947 0.66816
 C744 C 0.21859 -0.14373 0.68576
 C745 C 0.23706 -0.14985 0.69767
 C746 C 0.25797 -0.14134 0.69188
 C747 C 0.20209 -0.12339 0.65704
 C748 C 0.20368 -0.10924 0.63964
 C749 C 0.22434 -0.10084 0.63232
 C750 C 0.24389 -0.10746 0.64314
 C751 C 0.26457 -0.10040 0.63473
 C752 C 0.26615 -0.08725 0.61653
 C753 C 0.24729 -0.08018 0.60620
 C754 C 0.22611 -0.08648 0.61417
 C755 C 0.20759 -0.07803 0.60364
 C756 C 0.21003 -0.06473 0.58548
 C757 C 0.23094 -0.05932 0.57710
 C758 C 0.24954 -0.06693 0.58777
 H759 H 0.27716 -0.12146 0.67099
 H760 H 0.20226 -0.14984 0.69037
 H761 H 0.27255 -0.14573 0.70083
 H762 H 0.18587 -0.12960 0.66188
 H763 H 0.18830 -0.10568 0.63188
 H764 H 0.27998 -0.10523 0.64151
 H765 H 0.28239 -0.08251 0.61050
 H766 H 0.19095 -0.08107 0.60915
 H767 H 0.19540 -0.05851 0.57807
 H768 H 0.26584 -0.06290 0.58146
 C769 C 0.80929 -0.14953 0.33089
 C770 C 0.79036 -0.13865 0.33774
 C771 C 0.77034 -0.14380 0.32598
 C772 C 0.76965 -0.15867 0.30779
 C773 C 0.78858 -0.16918 0.30120
 C774 C 0.80832 -0.16454 0.31300
 C775 C 0.75101 -0.13424 0.33248
 C776 C 0.75090 -0.11995 0.35073
 C777 C 0.77034 -0.11428 0.36309
 C778 C 0.79054 -0.12318 0.35601
 C779 C 0.81028 -0.11611 0.36726
 C780 C 0.81027 -0.10141 0.38518
 C781 C 0.79062 -0.09343 0.39293
 C782 C 0.77032 -0.09981 0.38217
 C783 C 0.75084 -0.09167 0.39123
 C784 C 0.75162 -0.07775 0.40998
 C785 C 0.77177 -0.07132 0.42037
 C786 C 0.79123 -0.07915 0.41156
 H787 H 0.82505 -0.14718 0.33921
 H788 H 0.75416 -0.16242 0.29907
 H789 H 0.82321 -0.17240 0.30831
 H790 H 0.73567 -0.13802 0.32347
 H791 H 0.73525 -0.11328 0.35448
 H792 H 0.82622 -0.12132 0.36236
 H793 H 0.82586 -0.09645 0.39324
 H794 H 0.73463 -0.09615 0.38460
 H795 H 0.73627 -0.07239 0.41663
 H796 H 0.80699 -0.07411 0.41922
 C797 C 0.67592 0.80227 -0.14255
 C798 C 0.66740 0.78339 -0.13193
 C799 C 0.67721 0.76325 -0.13677
 C800 C 0.69521 0.76241 -0.15103
 C801 C 0.70343 0.78129 -0.16132
 C802 C 0.69355 0.80114 -0.15702
 C803 C 0.66888 0.74397 -0.12755
 C804 C 0.65063 0.74404 -0.11399
 C805 C 0.64018 0.76361 -0.10868
 C806 C 0.64927 0.78373 -0.11707
 C807 C 0.64013 0.80354 -0.11011
 C808 C 0.62227 0.80370 -0.09608
 C809 C 0.61247 0.78416 -0.08874
 C810 C 0.62111 0.76380 -0.09503
 C811 C 0.60998 0.74447 -0.08768
 C812 C 0.59132 0.74546 -0.07452
 C813 C 0.58309 0.76567 -0.06809
 C814 C 0.59394 0.78496 -0.07520
 H815 H 0.66906 0.81810 -0.14047
 H816 H 0.70246 0.74686 -0.15457
 H817 H 0.69954 0.81598 -0.16477
 H818 H 0.67639 0.72855 -0.13108
 H819 H 0.64537 0.72843 -0.10755
 H820 H 0.64671 0.81939 -0.11485
 H821 H 0.61586 0.81933 -0.09115
 H822 H 0.61488 0.72826 -0.09225
 H823 H 0.58304 0.73025 -0.06974
 H824 H 0.58797 0.80075 -0.07015
 C825 C 0.29498 0.24068 -0.11066
 C826 C 0.31636 0.23497 -0.11710
 C827 C 0.31924 0.22839 -0.13945
 C828 C 0.30127 0.22667 -0.15425
 C829 C 0.28019 0.23201 -0.14752
 C830 C 0.27726 0.23931 -0.12571
 C831 C 0.34005 0.22355 -0.14703
 C832 C 0.35832 0.22545 -0.13305
 C833 C 0.35644 0.23185 -0.11062
 C834 C 0.33499 0.23582 -0.10229
 C835 C 0.33286 0.24003 -0.07942
 C836 C 0.35106 0.24079 -0.06523
 C837 C 0.37219 0.23805 -0.07327
 C838 C 0.37527 0.23399 -0.09615
 C839 C 0.39716 0.23259 -0.10364
 C840 C 0.41505 0.23464 -0.08897
 C841 C 0.41183 0.23796 -0.06637
 C842 C 0.39035 0.23956 -0.05856
 H843 H 0.29144 0.24663 -0.09425
 H844 H 0.30384 0.22152 -0.17124
 H845 H 0.26114 0.24369 -0.12015
 H846 H 0.34230 0.21838 -0.16408
 H847 H 0.37368 0.22113 -0.14026
 H848 H 0.31715 0.24224 -0.07183
 H849 H 0.34857 0.24385 -0.04777
 H850 H 0.40115 0.23048 -0.12079
 H851 H 0.43156 0.23348 -0.09533
 H852 H 0.38786 0.24251 -0.04107
 C853 C 0.31793 0.75694 0.11499
 C854 C 0.33963 0.76520 0.12054
 C855 C 0.34336 0.77435 0.14212
 C856 C 0.32596 0.77587 0.15697
 C857 C 0.30453 0.76813 0.15102
 C858 C 0.30075 0.75838 0.13003
 C859 C 0.36443 0.78210 0.14885
 C860 C 0.38208 0.78104 0.13468
 C861 C 0.37934 0.77236 0.11291
 C862 C 0.35769 0.76471 0.10556
 C863 C 0.35476 0.75730 0.08338
 C864 C 0.37228 0.75735 0.06887
 C865 C 0.39352 0.76436 0.07588
 C866 C 0.39747 0.77158 0.09810
 C867 C 0.41949 0.77769 0.10454
 C868 C 0.43654 0.77747 0.08939
 C869 C 0.43242 0.77115 0.06728
 C870 C 0.41085 0.76433 0.06071
 H871 H 0.31365 0.74914 0.09924
 H872 H 0.32924 0.78298 0.17335
 H873 H 0.28437 0.75214 0.12502
 H874 H 0.36734 0.78915 0.16533
 H875 H 0.39765 0.78772 0.14125
 H876 H 0.33893 0.75178 0.07648
 H877 H 0.36915 0.75179 0.05192
 H878 H 0.42427 0.78247 0.12122
 H879 H 0.45315 0.78211 0.09513
 H880 H 0.40744 0.75935 0.04365
 C881 C 0.65676 0.19401 0.13864
 C882 C 0.65245 0.21324 0.12722
 C883 C 0.66736 0.23172 0.13075
 C884 C 0.68556 0.23084 0.14517
 C885 C 0.68944 0.21173 0.15650
 C886 C 0.67487 0.19336 0.15297
 C887 C 0.66401 0.25110 0.12000
 C888 C 0.64603 0.25277 0.10592
 C889 C 0.63051 0.23500 0.10195
 C890 C 0.63387 0.21482 0.11263
 C891 C 0.61849 0.19696 0.10846
 C892 C 0.60031 0.19875 0.09468
 C893 C 0.59662 0.21832 0.08442
 C894 C 0.61165 0.23674 0.08777
 C895 C 0.60695 0.25620 0.07690
 C896 C 0.58808 0.25727 0.06367
 C897 C 0.57323 0.23908 0.06067
 C898 C 0.57774 0.21958 0.07098
 H899 H 0.64647 0.17915 0.13702
 H900 H 0.69652 0.24528 0.14776
 H901 H 0.67743 0.17825 0.16122
 H902 H 0.67539 0.26526 0.12257
 H903 H 0.64481 0.26840 0.09842
 H904 H 0.61991 0.18123 0.11566
 H905 H 0.58892 0.18460 0.09211
 H906 H 0.61739 0.27099 0.07831
 H907 H 0.58516 0.27246 0.05565
 H908 H 0.56621 0.20546 0.06900
 C909 C -0.14390 0.66848 0.79848
 C910 C -0.13015 0.66224 0.78098
 C911 C -0.13156 0.67371 0.76114
 C912 C -0.14541 0.69136 0.75948
 C913 C -0.15888 0.69754 0.77709
 C914 C -0.15798 0.68565 0.79649
 C915 C -0.11930 0.66738 0.74294
 C916 C -0.10609 0.64951 0.74377
 C917 C -0.10407 0.63758 0.76317
 C918 C -0.11548 0.64474 0.78237
 C919 C -0.11155 0.63442 0.80242
 C920 C -0.09771 0.61712 0.80352
 C921 C -0.08764 0.60901 0.78467
 C922 C -0.09079 0.61892 0.76415
 C923 C -0.08086 0.60938 0.74541
 C924 C -0.06828 0.59097 0.74714
 C925 C -0.06495 0.58149 0.76756
 C926 C -0.07454 0.59085 0.78628
 H927 H -0.14463 0.66007 0.81380
 H928 H -0.14599 0.69982 0.74410
 H929 H -0.16797 0.68960 0.81054
 H930 H -0.12019 0.67613 0.72773
 H931 H -0.09717 0.64578 0.72900
 H932 H -0.11852 0.63972 0.81780
 H933 H -0.09516 0.60976 0.81931
 H934 H -0.08306 0.61531 0.72904
 H935 H -0.06157 0.58386 0.73227
 H936 H -0.07187 0.58397 0.80228
 C937 C -0.12350 0.30255 0.23632
 C938 C -0.12856 0.32331 0.22840
 C939 C -0.15011 0.32550 0.21973
 C940 C -0.16550 0.30752 0.21853
 C941 C -0.16013 0.28708 0.22623
 C942 C -0.13906 0.28483 0.23526
 C943 C -0.15629 0.34564 0.21228
 C944 C -0.14167 0.36387 0.21336
 C945 C -0.11998 0.36266 0.22176
 C946 C -0.11312 0.34192 0.22890
 C947 C -0.09099 0.34041 0.23592
 C948 C -0.07610 0.35848 0.23609
 C949 C -0.08266 0.37890 0.22971
 C950 C -0.10478 0.38141 0.22282
 C951 C -0.11074 0.40269 0.21736
 C952 C -0.09523 0.42036 0.21788
 C953 C -0.07321 0.41762 0.22386
 C954 C -0.06712 0.39683 0.23004
 H955 H -0.10778 0.29944 0.24366
 H956 H -0.18188 0.30962 0.21190
 H957 H -0.13443 0.26924 0.24137
 H958 H -0.17271 0.34738 0.20554
 H959 H -0.14783 0.37864 0.20697
 H960 H -0.08443 0.32530 0.24098
 H961 H -0.05923 0.35644 0.24136
 H962 H -0.12732 0.40641 0.21290
 H963 H -0.10060 0.43637 0.21372
 H964 H -0.05014 0.39447 0.23473
 C965 C 0.12674 0.33179 0.75474
 C966 C 0.11961 0.34358 0.77358
 C967 C 0.12523 0.33575 0.79456
 C968 C 0.13805 0.31735 0.79638
 C969 C 0.14504 0.30601 0.77752
 C970 C 0.13917 0.31337 0.75676
 C971 C 0.11793 0.34623 0.81365
 C972 C 0.10487 0.36416 0.81247
 C973 C 0.09885 0.37268 0.79202
 C974 C 0.10692 0.36263 0.77228
 C975 C 0.10235 0.37216 0.75195
 C976 C 0.08998 0.39056 0.75081
 C977 C 0.08132 0.40006 0.76976
 C978 C 0.08535 0.39117 0.79064
 C979 C 0.07551 0.40110 0.80921
 C980 C 0.06276 0.41931 0.80709
 C981 C 0.05933 0.42835 0.78648
 C982 C 0.06865 0.41852 0.76787
 H983 H 0.12274 0.33607 0.73816
 H984 H 0.14220 0.31160 0.81254
 H985 H 0.14436 0.30501 0.74187
 H986 H 0.12223 0.34038 0.82974
 H987 H 0.10011 0.37128 0.82805
 H988 H 0.10850 0.36608 0.73649
 H989 H 0.08705 0.39737 0.73482
 H990 H 0.07697 0.39501 0.82559
 H991 H 0.05531 0.42619 0.82170
 H992 H 0.06630 0.42542 0.75183
 C993 C 0.14135 0.67118 0.24859
 C994 C 0.13360 0.65853 0.22984
 C995 C 0.14027 0.66574 0.20884
 C996 C 0.15469 0.68432 0.20697
 C997 C 0.16238 0.69645 0.22574
 C998 C 0.15543 0.68979 0.24650
 C999 C 0.13252 0.65441 0.18977
 C1000 C 0.11802 0.63617 0.19093
 C1001 C 0.11093 0.62820 0.21139
 C1002 C 0.11936 0.63918 0.23118
 C1003 C 0.11362 0.63020 0.25161
 C1004 C 0.09990 0.61139 0.25276
 C1005 C 0.09097 0.60093 0.23369
 C1006 C 0.09603 0.60933 0.21273
 C1007 C 0.08579 0.59853 0.19400
 C1008 C 0.07182 0.57985 0.19605
 C1009 C 0.06749 0.57120 0.21674
 C1010 C 0.07703 0.58199 0.23553
 H1011 H 0.13666 0.66739 0.26514
 H1012 H 0.15964 0.68954 0.19078
 H1013 H 0.16109 0.69882 0.26132
 H1014 H 0.13763 0.65979 0.17368
 H1015 H 0.11308 0.62835 0.17537
 H1016 H 0.11989 0.63705 0.26716
 H1017 H 0.09616 0.60500 0.26883
 H1018 H 0.08789 0.60423 0.17753
 H1019 H 0.06416 0.57228 0.18129
 H1020 H 0.07391 0.57545 0.25165
 C1021 C 0.80675 -0.14538 0.66322
 C1022 C 0.78919 -0.13194 0.65803
 C1023 C 0.76999 -0.13382 0.67104
 C1024 C 0.76873 -0.14829 0.68855
 C1025 C 0.78628 -0.16142 0.69346
 C1026 C 0.80523 -0.15983 0.68059
 C1027 C 0.75200 -0.12137 0.66649
 C1028 C 0.75237 -0.10726 0.64904
 C1029 C 0.77095 -0.10484 0.63540
 C1030 C 0.78989 -0.11698 0.64030
 C1031 C 0.80888 -0.11369 0.62737
 C1032 C 0.80925 -0.09956 0.60992
 C1033 C 0.79072 -0.08824 0.60444
 C1034 C 0.77126 -0.09068 0.61703
 C1035 C 0.75281 -0.07908 0.61039
 C1036 C 0.75371 -0.06587 0.59206
 C1037 C 0.77297 -0.06360 0.57973
 C1038 C 0.79150 -0.07468 0.58618
 H1039 H 0.82183 -0.14539 0.65408
 H1040 H 0.75379 -0.14953 0.69810
 H1041 H 0.81912 -0.16967 0.68398
 H1042 H 0.73732 -0.12265 0.67647
 H1043 H 0.73775 -0.09829 0.64685
 H1044 H 0.82396 -0.12170 0.63039
 H1045 H 0.82421 -0.09764 0.60044
 H1046 H 0.73725 -0.08008 0.61871
 H1047 H 0.73921 -0.05736 0.58748
 H1048 H 0.80639 -0.07327 0.57652
 C1049 C 0.25908 -0.12425 0.31624
 C1050 C 0.24084 -0.11969 0.32967
 C1051 C 0.22038 -0.13102 0.32438
 C1052 C 0.21864 -0.14668 0.30690
 C1053 C 0.23701 -0.15136 0.29417
 C1054 C 0.25712 -0.13979 0.29886
 C1055 C 0.20172 -0.12685 0.33663
 C1056 C 0.20285 -0.11184 0.35430
 C1057 C 0.22288 -0.10044 0.36066
 C1058 C 0.24223 -0.10448 0.34818
 C1059 C 0.26238 -0.09352 0.35490
 C1060 C 0.26375 -0.07939 0.37327
 C1061 C 0.24513 -0.07535 0.38562
 C1062 C 0.22432 -0.08546 0.37936
 C1063 C 0.20590 -0.08025 0.39227
 C1064 C 0.20829 -0.06629 0.41091
 C1065 C 0.22902 -0.05699 0.41735
 C1066 C 0.24732 -0.06137 0.40444
 H1067 H 0.27516 -0.11618 0.31866
 H1068 H 0.20286 -0.15520 0.30320
 H1069 H 0.27163 -0.14301 0.28934
 H1070 H 0.18602 -0.13541 0.33259
 H1071 H 0.18765 -0.10988 0.36290
 H1072 H 0.27767 -0.09578 0.34654
 H1073 H 0.27967 -0.07161 0.37794
 H1074 H 0.18939 -0.08672 0.38858
 H1075 H 0.19388 -0.06320 0.42066
 H1076 H 0.26337 -0.05389 0.40909
 C1077 C 0.74967 0.11154 0.31573
 C1078 C 0.76866 0.10818 0.32875
 C1079 C 0.78868 0.11942 0.32296
 C1080 C 0.78929 0.13385 0.30539
 C1081 C 0.77018 0.13744 0.29311
 C1082 C 0.75049 0.12590 0.29830
 C1083 C 0.80800 0.11643 0.33487
 C1084 C 0.80795 0.10280 0.35272
 C1085 C 0.78840 0.09162 0.35958
 C1086 C 0.76841 0.09433 0.34737
 C1087 C 0.74878 0.08346 0.35445
 C1088 C 0.74848 0.07078 0.37300
 C1089 C 0.76769 0.06818 0.38519
 C1090 C 0.78804 0.07818 0.37853
 C1091 C 0.80710 0.07444 0.39134
 C1092 C 0.80573 0.06202 0.41025
 C1093 C 0.78542 0.05290 0.41708
 C1094 C 0.76653 0.05578 0.40425
 H1095 H 0.73382 0.10348 0.31856
 H1096 H 0.80476 0.14234 0.30133
 H1097 H 0.73541 0.12827 0.28920
 H1098 H 0.82338 0.12490 0.33045
 H1099 H 0.82360 0.10170 0.36103
 H1100 H 0.73310 0.08465 0.34624
 H1101 H 0.73292 0.06305 0.37795
 H1102 H 0.82333 0.08095 0.38737
 H1103 H 0.82057 0.06003 0.41991
 H1104 H 0.75081 0.04838 0.40918
 C1105 C 0.18826 0.14068 0.67093
 C1106 C 0.20739 0.12920 0.66602
 C1107 C 0.22586 0.13280 0.68045
 C1108 C 0.22502 0.14719 0.69891
 C1109 C 0.20604 0.15859 0.70334
 C1110 C 0.18770 0.15509 0.68922
 C1111 C 0.24525 0.12223 0.67631
 C1112 C 0.24700 0.10847 0.65785
 C1113 C 0.22926 0.10454 0.64272
 C1114 C 0.20893 0.11465 0.64717
 C1115 C 0.19087 0.10990 0.63260
 C1116 C 0.19269 0.09634 0.61401
 C1117 C 0.21255 0.08702 0.60902
 C1118 C 0.23116 0.09089 0.62326
 C1119 C 0.25098 0.08117 0.61713
 C1120 C 0.25217 0.06841 0.59773
 C1121 C 0.23373 0.06476 0.58377
 C1122 C 0.21392 0.07400 0.58964
 H1123 H 0.17351 0.13921 0.66087
 H1124 H 0.23945 0.14988 0.70952
 H1125 H 0.17272 0.16348 0.69227
 H1126 H 0.25937 0.12480 0.68737
 H1127 H 0.26260 0.10106 0.65601
 H1128 H 0.17489 0.11633 0.63510
 H1129 H 0.17837 0.09329 0.60327
 H1130 H 0.26600 0.08329 0.62674
 H1131 H 0.26762 0.06127 0.59365
 H1132 H 0.19963 0.07153 0.57877
   
