data_POSCAR
  _audit_creation_date              2014-09-24
  _audit_creation_method            'ToBaCCo'
  _symmetry_space_group_name_H-M    'P1'
  _symmetry_Int_Tables_number       1
  _symmetry_cell_setting            triclinic
  loop_
  _symmetry_equiv_pos_as_xyz
 x,y,z
_cell_length_a 44.9348
_cell_length_b 24.0345
_cell_length_c 14.0058
_cell_angle_alpha 90.209800
_cell_angle_beta 89.891600
_cell_angle_gamma 90.254600
loop_
  _atom_site_label
  _atom_site_type_symbol
  _atom_site_fract_x
  _atom_site_fract_y
  _atom_site_fract_z
C1 C 0.75020 0.24298 0.55347
 C2 C 0.75101 0.24545 0.45594
 C3 C 0.77615 0.22073 0.40124
 C4 C 0.72724 0.27364 0.40127
 C5 C 0.72333 0.25894 0.60989
 C6 C 0.77675 0.22464 0.60787
 C7 C 0.79259 0.25310 0.33703
 C8 C 0.81875 0.23238 0.29620
 C9 C 0.82967 0.17900 0.32013
 C10 C 0.81133 0.14534 0.37898
 C11 C 0.78499 0.16583 0.41820
 C12 C 0.71988 0.32918 0.42142
 C13 C 0.69486 0.35322 0.37977
 C14 C 0.67661 0.32187 0.31836
 C15 C 0.68509 0.26756 0.29337
 C16 C 0.71037 0.24369 0.33418
 C17 C 0.69460 0.24209 0.58185
 C18 C 0.66956 0.26057 0.63171
 C19 C 0.67276 0.29326 0.71434
 C20 C 0.70153 0.30766 0.74527
 C21 C 0.72651 0.29099 0.69331
 C22 C 0.77478 0.17859 0.66886
 C23 C 0.80039 0.15735 0.71153
 C24 C 0.82820 0.18207 0.69394
 C25 C 0.82994 0.23005 0.63754
 C26 C 0.80436 0.25132 0.59498
 H27 H 0.78565 0.29507 0.32049
 H28 H 0.83002 0.25815 0.24409
 H29 H 0.81812 0.10428 0.40138
 H30 H 0.77219 0.13955 0.46583
 H31 H 0.73295 0.35317 0.47189
 H32 H 0.68912 0.39570 0.39787
 H33 H 0.71586 0.20093 0.31738
 H34 H 0.69143 0.21542 0.52032
 H35 H 0.64766 0.24978 0.60515
 H36 H 0.70463 0.33281 0.80883
 H37 H 0.74835 0.30404 0.71741
 H38 H 0.75364 0.15780 0.68014
 H39 H 0.79872 0.12055 0.75566
 H40 H 0.85123 0.24996 0.62439
 H41 H 0.80619 0.28751 0.54946
 H42 H 0.67156 0.24306 0.24488
 C43 C 0.25255 0.75009 0.45452
 C44 C 0.25043 0.74482 0.55097
 C45 C 0.22385 0.76479 0.60349
 C46 C 0.27446 0.71770 0.60557
 C47 C 0.27900 0.72910 0.40274
 C48 C 0.22886 0.77791 0.39905
 C49 C 0.22566 0.81242 0.66148
 C50 C 0.19992 0.83564 0.70046
 C51 C 0.17200 0.81188 0.68145
 C52 C 0.17020 0.76319 0.62615
 C53 C 0.19598 0.73980 0.58738
 C54 C 0.29496 0.75001 0.65703
 C55 C 0.32010 0.72543 0.69663
 C56 C 0.32569 0.66857 0.68231
 C57 C 0.30454 0.63571 0.63446
 C58 C 0.27898 0.66012 0.59672
 C59 C 0.27846 0.67626 0.35979
 C60 C 0.30437 0.65402 0.32008
 C61 C 0.33112 0.68415 0.32361
 C62 C 0.33169 0.73712 0.36578
 C63 C 0.30573 0.75951 0.40513
 C64 C 0.21167 0.74735 0.33373
 C65 C 0.18630 0.77083 0.29339
 C66 C 0.17748 0.82485 0.31904
 C67 C 0.19571 0.85673 0.37945
 C68 C 0.22134 0.83350 0.41876
 H69 H 0.24667 0.83333 0.67307
 H70 H 0.20166 0.87320 0.74310
 H71 H 0.14880 0.74411 0.61150
 H72 H 0.19415 0.70325 0.54225
 H73 H 0.29239 0.79457 0.66290
 H74 H 0.33595 0.75121 0.73489
 H75 H 0.26338 0.63465 0.55688
 H76 H 0.25832 0.65141 0.36005
 H77 H 0.30376 0.61288 0.28826
 H78 H 0.35228 0.76063 0.36938
 H79 H 0.30658 0.79989 0.43966
 H80 H 0.21693 0.70452 0.31736
 H81 H 0.17281 0.74609 0.24512
 H82 H 0.18950 0.89877 0.39890
 H83 H 0.23460 0.85798 0.46802
 H84 H 0.30835 0.59168 0.62347
 C85 C 0.24977 0.24962 -0.44958
 C86 C 0.25150 0.24824 -0.54690
 C87 C 0.27864 0.26762 -0.59812
 C88 C 0.22565 0.22955 -0.60490
 C89 C 0.22430 0.22372 -0.39869
 C90 C 0.27338 0.27617 -0.39085
 C91 C 0.27645 0.30943 -0.66714
 C92 C 0.30212 0.33444 -0.70410
 C93 C 0.33055 0.31894 -0.67123
 C94 C 0.33261 0.27379 -0.60784
 C95 C 0.30695 0.24812 -0.57236
 C96 C 0.19821 0.25679 -0.59676
 C97 C 0.17305 0.23586 -0.64321
 C98 C 0.17478 0.18750 -0.70017
 C99 C 0.20251 0.16046 -0.70795
 C100 C 0.22775 0.18183 -0.66211
 C101 C 0.21662 0.16800 -0.41612
 C102 C 0.19053 0.14567 -0.37798
 C103 C 0.17156 0.17850 -0.32103
 C104 C 0.18076 0.23301 -0.29728
 C105 C 0.20676 0.25552 -0.33651
 C106 C 0.28845 0.24476 -0.32216
 C107 C 0.31371 0.26648 -0.27732
 C108 C 0.32430 0.31974 -0.30108
 C109 C 0.30795 0.35272 -0.36434
 C110 C 0.28254 0.33119 -0.40857
 H111 H 0.25487 0.32472 -0.68883
 H112 H 0.29957 0.36843 -0.75397
 H113 H 0.35412 0.25840 -0.58544
 H114 H 0.30914 0.21451 -0.52159
 H115 H 0.19612 0.29339 -0.55192
 H116 H 0.15193 0.25636 -0.63138
 H117 H 0.24871 0.16003 -0.66850
 H118 H 0.23051 0.14219 -0.46123
 H119 H 0.18528 0.10245 -0.39264
 H120 H 0.16702 0.25939 -0.25260
 H121 H 0.21256 0.29844 -0.32141
 H122 H 0.28153 0.20250 -0.30680
 H123 H 0.32570 0.24101 -0.22680
 H124 H 0.31551 0.39426 -0.38218
 H125 H 0.27079 0.35646 -0.45997
 H126 H 0.20484 0.12320 -0.75101
 C127 C -0.24951 0.74637 -0.44277
 C128 C -0.24874 0.74667 -0.53991
 C129 C -0.22322 0.77132 -0.59201
 C130 C -0.27337 0.72239 -0.59702
 C131 C -0.27645 0.72775 -0.39124
 C132 C -0.22336 0.76372 -0.38583
 C133 C -0.21582 0.82763 -0.57964
 C134 C -0.18991 0.84934 -0.62047
 C135 C -0.17046 0.81478 -0.67264
 C136 C -0.17899 0.75899 -0.68896
 C137 C -0.20513 0.73757 -0.64916
 C138 C -0.28906 0.75573 -0.66115
 C139 C -0.31378 0.73436 -0.70946
 C140 C -0.32303 0.67877 -0.69590
 C141 C -0.30717 0.64567 -0.63083
 C142 C -0.28227 0.66692 -0.58351
 C143 C -0.27605 0.67754 -0.34111
 C144 C -0.30265 0.65352 -0.31001
 C145 C -0.33014 0.67959 -0.32784
 C146 C -0.32998 0.73268 -0.37018
 C147 C -0.30339 0.75616 -0.40275
 C148 C -0.19591 0.73693 -0.39833
 C149 C -0.17029 0.75836 -0.35545
 C150 C -0.17188 0.80674 -0.29948
 C151 C -0.19960 0.83148 -0.28208
 C152 C -0.22525 0.80999 -0.32498
 H153 H -0.22976 0.85436 -0.53628
 H154 H -0.18432 0.89254 -0.60693
 H155 H -0.16551 0.73193 -0.73324
 H156 H -0.21077 0.69418 -0.66036
 H157 H -0.28274 0.79884 -0.67144
 H158 H -0.32625 0.76197 -0.75526
 H159 H -0.27014 0.64029 -0.53521
 H160 H -0.25535 0.65540 -0.33104
 H161 H -0.30178 0.61413 -0.27280
 H162 H -0.35057 0.75438 -0.38432
 H163 H -0.30393 0.79518 -0.44115
 H164 H -0.19419 0.70068 -0.44415
 H165 H -0.14908 0.73848 -0.36850
 H166 H -0.20114 0.86862 -0.23837
 H167 H -0.24630 0.83098 -0.31448
 H168 H -0.31346 0.60271 -0.61861
 O169 O 0.04224 0.90163 -0.17414
 O170 O 0.07505 0.95113 -0.08140
 C171 C 0.06897 0.91602 -0.14902
 O172 O -0.04131 1.09568 -0.16601
 O173 O -0.07374 1.04355 -0.07591
 C174 C -0.06795 1.08064 -0.14018
 O175 O 0.04258 1.09190 -0.17542
 O176 O 0.07551 1.04397 -0.08155
 C177 C 0.06933 1.07829 -0.14961
 O178 O -0.04114 0.89625 -0.16230
 O179 O -0.07362 0.94891 -0.07339
 C180 C -0.06779 0.91110 -0.13675
 Zr181 Zr 0.00089 0.92632 -0.11529
 O182 O -0.00023 0.91638 -0.26527
 O183 O 0.00197 0.83903 -0.09877
 Zr184 Zr 0.00081 1.06722 -0.11810
 O185 O -0.00212 1.07008 -0.26867
 O186 O 0.00380 1.15519 -0.11481
 O187 O 0.02718 0.99689 -0.13644
 O188 O -0.02484 0.99640 -0.13391
 O189 O -0.04000 0.89658 0.17313
 O190 O -0.07270 0.94756 0.08475
 C191 C -0.06681 0.90913 0.14679
 O192 O 0.04361 1.09892 0.17037
 O193 O 0.07596 1.04627 0.08106
 C194 C 0.07026 1.08439 0.14399
 O195 O -0.04009 1.10236 0.16686
 O196 O -0.07282 1.04703 0.08415
 C197 C -0.06689 1.08716 0.14332
 O198 O 0.04331 0.90439 0.18078
 O199 O 0.07558 0.95168 0.08424
 C200 C 0.07003 0.91662 0.15231
 Zr201 Zr 0.00143 0.92851 0.12527
 O202 O -0.00162 0.92841 0.27609
 O203 O 0.00450 0.84073 0.12270
 Zr204 Zr 0.00139 1.06868 0.12376
 O205 O -0.00123 1.06299 0.27448
 O206 O 0.00332 1.15624 0.13531
 Zr207 Zr 0.04545 0.99821 0.00233
 Zr208 Zr -0.04322 0.99752 0.00451
 O209 O -0.02469 0.99853 0.14231
 O210 O 0.02818 0.99907 0.14246
 O211 O -0.02549 0.91651 0.00564
 O212 O 0.02682 1.07848 0.00153
 O213 O 0.02721 0.91746 0.00424
 O214 O -0.02539 1.07890 0.00317
 H215 H -0.03812 0.99581 -0.19022
 H216 H 0.04011 1.11142 -0.00078
 H217 H -0.03833 0.99879 0.19801
 H218 H 0.04081 0.88510 0.00412
 H219 H -0.01487 1.16950 -0.08648
 H220 H -0.00115 1.17096 0.07124
 H221 H 0.01855 1.05166 0.29829
 H222 H 0.01348 0.95492 0.30043
 H223 H -0.01007 0.82691 0.07530
 H224 H 0.00198 0.82323 -0.16420
 H225 H -0.00336 0.95364 -0.29268
 H226 H 0.01173 1.04187 -0.29417
 O227 O 0.46062 0.41143 0.19466
 O228 O 0.42784 0.45796 0.09869
 C229 C 0.43380 0.42500 0.16895
 O230 O 0.54549 0.60550 0.15781
 O231 O 0.57700 0.55073 0.06927
 C232 C 0.57184 0.59024 0.13011
 O233 O 0.46157 0.60053 0.17277
 O234 O 0.42801 0.54867 0.08589
 C235 C 0.43463 0.58564 0.14996
 O236 O 0.54479 0.40665 0.18158
 O237 O 0.57684 0.45555 0.08494
 C238 C 0.57137 0.42064 0.15312
 Zr239 Zr 0.50251 0.43478 0.13458
 O240 O 0.50497 0.44208 0.28486
 O241 O 0.50411 0.34694 0.14674
 Zr242 Zr 0.50303 0.57532 0.11387
 O243 O 0.50446 0.59230 0.26212
 O244 O 0.50031 0.66203 0.08886
 O245 O 0.47659 0.50612 0.14483
 O246 O 0.52865 0.50566 0.13954
 O247 O 0.54261 0.38662 -0.14358
 O248 O 0.57574 0.44506 -0.06894
 C249 C 0.56957 0.40182 -0.12081
 O250 O 0.45918 0.58414 -0.18305
 O251 O 0.42718 0.54267 -0.07850
 C252 C 0.43260 0.57441 -0.15143
 O253 O 0.54174 0.59040 -0.18385
 O254 O 0.57524 0.54126 -0.09398
 C255 C 0.56854 0.57616 -0.16138
 O256 O 0.45861 0.39494 -0.15523
 O257 O 0.42705 0.44780 -0.06551
 C258 C 0.43207 0.40922 -0.12847
 Zr259 Zr 0.50081 0.42243 -0.10589
 O260 O 0.50403 0.41454 -0.25621
 O261 O 0.49728 0.33505 -0.09366
 Zr262 Zr 0.50105 0.56273 -0.12579
 O263 O 0.50288 0.55917 -0.27661
 O264 O 0.49825 0.65068 -0.12915
 Zr265 Zr 0.45763 0.49906 0.00756
 Zr266 Zr 0.54606 0.49860 0.00031
 O267 O 0.52659 0.49131 -0.13556
 O268 O 0.47429 0.49173 -0.13267
 O269 O 0.52800 0.41790 0.01399
 O270 O 0.47603 0.57931 -0.00510
 O271 O 0.47567 0.41864 0.01775
 O272 O 0.52886 0.57973 -0.00989
 H273 H 0.54244 0.50797 0.19446
 H274 H 0.46232 0.61144 -0.00804
 H275 H 0.53954 0.48732 -0.19238
 H276 H 0.46185 0.38658 0.02268
 H277 H 0.51997 0.67482 0.06548
 H278 H 0.51694 0.66604 -0.10236
 H279 H 0.48944 0.52875 -0.29710
 H280 H 0.48717 0.43507 -0.28434
 H281 H 0.50715 0.32482 -0.03327
 H282 H 0.48477 0.33117 0.12628
 H283 H 0.49235 0.47391 0.30355
 H284 H 0.51371 0.55998 0.29352
 C285 C 0.38408 0.38240 0.15946
 C286 C 0.35883 0.35755 0.19763
 C287 C 0.35633 0.34711 0.29590
 C288 C 0.37966 0.36600 0.35747
 C289 C 0.40545 0.39207 0.31796
 C290 C 0.40786 0.39910 0.21761
 C291 C 0.42717 0.41303 0.38097
 N292 N 0.42341 0.40825 0.47658
 N293 N 0.39919 0.38481 0.51375
 C294 C 0.37712 0.36423 0.45790
 H295 H 0.38521 0.38777 0.08271
 H296 H 0.34160 0.34404 0.14858
 H297 H 0.44665 0.43471 0.35586
 H298 H 0.35747 0.34851 0.49313
 C299 C -0.11996 0.90843 0.19345
 C300 C -0.14470 0.88748 0.24094
 C301 C -0.14368 0.83636 0.28873
 C302 C -0.11615 0.80720 0.29133
 C303 C -0.09111 0.82752 0.23923
 C304 C -0.09269 0.88015 0.19261
 C305 C -0.06567 0.79351 0.23511
 N306 N -0.06413 0.74666 0.28838
 N307 N -0.08640 0.73097 0.34498
 C308 C -0.11220 0.75976 0.34883
 H309 H -0.12244 0.94742 0.15626
 H310 H -0.16528 0.91064 0.23621
 H311 H -0.04722 0.80232 0.18876
 H312 H -0.12916 0.74567 0.39800
 C313 C 0.60410 0.60796 0.26906
 C314 C 0.63046 0.62700 0.31024
 C315 C 0.65162 0.65722 0.25672
 C316 C 0.64610 0.66599 0.15767
 C317 C 0.61889 0.64751 0.11690
 C318 C 0.59802 0.61781 0.17283
 C319 C 0.61350 0.65880 0.02029
 N320 N 0.63478 0.68358 -0.03362
 N321 N 0.66115 0.69745 0.00250
 C322 C 0.66767 0.68896 0.09570
 H323 H 0.58855 0.58434 0.31229
 H324 H 0.63382 0.61946 0.38570
 H325 H 0.59251 0.64810 -0.01255
 H326 H 0.68990 0.69902 0.11937
 C327 C 0.11789 1.08237 0.23055
 C328 C 0.14384 1.10694 0.26511
 C329 C 0.14898 1.16455 0.25650
 C330 C 0.12756 1.19715 0.20661
 C331 C 0.10092 1.17183 0.17234
 C332 C 0.09608 1.11405 0.18542
 C333 C 0.08064 1.20484 0.12141
 N334 N 0.08690 1.25904 0.10408
 N335 N 0.11225 1.28234 0.13296
 C336 C 0.13287 1.25326 0.18233
 H337 H 0.11464 1.03807 0.24017
 H338 H 0.15944 1.08071 0.30272
 H339 H 0.06013 1.18804 0.09348
 H340 H 0.15356 1.27402 0.19909
 C341 C 0.62152 0.39937 -0.17733
 C342 C 0.64607 0.37390 -0.21823
 C343 C 0.64624 0.31663 -0.23631
 C344 C 0.62130 0.28412 -0.20779
 C345 C 0.59571 0.31057 -0.16844
 C346 C 0.59543 0.36943 -0.15704
 C347 C 0.57209 0.27656 -0.13713
 N348 N 0.57377 0.22051 -0.14626
 N349 N 0.59765 0.19589 -0.18314
 C350 C 0.62153 0.22565 -0.21335
 H351 H 0.62288 0.44356 -0.16315
 H352 H 0.66500 0.39962 -0.23740
 H353 H 0.55274 0.29336 -0.10244
 H354 H 0.64069 0.20308 -0.23897
 C355 C 0.11662 0.86644 -0.14052
 C356 C 0.14137 0.84107 -0.18109
 C357 C 0.14482 0.83840 -0.28031
 C358 C 0.12304 0.86280 -0.34001
 C359 C 0.09763 0.88835 -0.29866
 C360 C 0.09441 0.88965 -0.19787
 C361 C 0.07695 0.91365 -0.35988
 N362 N 0.08145 0.91299 -0.45564
 N363 N 0.10532 0.88918 -0.49431
 C364 C 0.12629 0.86430 -0.43991
 H365 H 0.11464 0.86753 -0.06337
 H366 H 0.15801 0.82321 -0.13459
 H367 H 0.05753 0.93481 -0.33288
 H368 H 0.14545 0.84662 -0.47526
 C369 C 0.37823 0.57877 -0.17895
 C370 C 0.35253 0.60020 -0.21928
 C371 C 0.35396 0.64407 -0.28400
 C372 C 0.38208 0.66583 -0.31100
 C373 C 0.40847 0.64616 -0.26644
 C374 C 0.40657 0.60071 -0.20036
 C375 C 0.43530 0.67420 -0.28912
 N376 N 0.43581 0.71445 -0.35662
 N377 N 0.41137 0.72971 -0.40271
 C378 C 0.38458 0.70689 -0.38218
 H379 H 0.37561 0.54495 -0.12886
 H380 H 0.33119 0.58305 -0.19806
 H381 H 0.45594 0.66668 -0.25364
 H382 H 0.36555 0.72078 -0.42253
 C383 C -0.11522 1.13166 -0.12927
 C384 C -0.14030 1.15613 -0.16905
 C385 C -0.14446 1.15647 -0.26805
 C386 C -0.12315 1.13069 -0.32831
 C387 C -0.09767 1.10541 -0.28776
 C388 C -0.09358 1.10680 -0.18736
 C389 C -0.07780 1.07762 -0.34915
 N390 N -0.08287 1.07651 -0.44455
 N391 N -0.10658 1.10081 -0.48271
 C392 C -0.12693 1.12761 -0.42797
 H393 H -0.11259 1.13230 -0.05235
 H394 H -0.15660 1.17512 -0.12222
 H395 H -0.05859 1.05594 -0.32243
 H396 H -0.14600 1.14560 -0.46286
 C397 C 0.59623 0.65938 -0.21366
 C398 C 0.62085 0.68505 -0.25517
 C399 C 0.64285 0.65346 -0.30178
 C400 C 0.63715 0.59585 -0.31871
 C401 C 0.61202 0.57004 -0.27597
 C402 C 0.59286 0.60158 -0.21706
 C403 C 0.60586 0.51416 -0.29822
 N404 N 0.62373 0.48598 -0.35946
 N405 N 0.64711 0.51014 -0.40074
 C406 C 0.65429 0.56406 -0.38321
 H407 H 0.58058 0.68460 -0.17374
 H408 H 0.62378 0.72932 -0.24360
 H409 H 0.58668 0.49293 -0.26909
 H410 H 0.67261 0.58197 -0.42282
 C411 C 0.11344 1.13880 -0.14572
 C412 C 0.13782 1.16476 -0.18793
 C413 C 0.14457 1.15644 -0.28511
 C414 C 0.12459 1.12388 -0.34182
 C415 C 0.09999 1.09684 -0.29791
 C416 C 0.09457 1.10455 -0.19925
 C417 C 0.08161 1.06264 -0.35446
 N418 N 0.08633 1.05888 -0.44984
 N419 N 0.10813 1.08714 -0.49239
 C420 C 0.12717 1.11986 -0.44210
 H421 H 0.10937 1.14521 -0.07015
 H422 H 0.15241 1.18912 -0.14244
 H423 H 0.06353 1.03897 -0.32380
 H424 H 0.14365 1.14326 -0.48153
 C425 C 0.37795 0.40870 -0.16225
 C426 C 0.35217 0.38848 -0.20480
 C427 C 0.35275 0.34051 -0.26102
 C428 C 0.38006 0.31242 -0.27532
 C429 C 0.40629 0.33116 -0.22784
 C430 C 0.40549 0.38154 -0.17296
 C431 C 0.43187 0.29759 -0.23634
 N432 N 0.43181 0.25248 -0.29472
 N433 N 0.40786 0.23774 -0.34451
 C434 C 0.38202 0.26610 -0.33681
 H435 H 0.37609 0.44640 -0.12035
 H436 H 0.33145 0.41045 -0.19325
 H437 H 0.45172 0.30481 -0.19576
 H438 H 0.36333 0.25227 -0.37930
 C439 C -0.11515 0.85987 -0.12434
 C440 C -0.14031 0.83471 -0.16335
 C441 C -0.14446 0.83293 -0.26231
 C442 C -0.12306 0.85789 -0.32341
 C443 C -0.09747 0.88376 -0.28362
 C444 C -0.09341 0.88389 -0.18318
 C445 C -0.07747 0.91064 -0.34585
 N446 N -0.08254 0.91039 -0.44127
 N447 N -0.10639 0.88563 -0.47868
 C448 C -0.12687 0.85964 -0.42316
 H449 H -0.11257 0.86047 -0.04739
 H450 H -0.15669 0.81638 -0.11596
 H451 H -0.05814 0.93267 -0.31981
 H452 H -0.14607 0.84133 -0.45757
 C453 C 0.38996 0.64428 0.14557
 C454 C 0.36489 0.66807 0.18739
 C455 C 0.35858 0.65969 0.28414
 C456 C 0.37791 0.62681 0.34011
 C457 C 0.40362 0.60310 0.29783
 C458 C 0.40958 0.61219 0.19977
 C459 C 0.42198 0.56955 0.35473
 N460 N 0.41499 0.56095 0.44781
 N461 N 0.39088 0.58335 0.48753
 C462 C 0.37208 0.61587 0.43690
 H463 H 0.39404 0.65075 0.07010
 H464 H 0.35008 0.69263 0.14370
 H465 H 0.44164 0.54976 0.32605
 H466 H 0.35270 0.63266 0.47253
 C467 C -0.11646 1.08084 0.21703
 C468 C -0.14138 1.10225 0.26237
 C469 C -0.14384 1.15942 0.28454
 C470 C -0.11847 1.19410 0.26442
 C471 C -0.09385 1.17241 0.21198
 C472 C -0.09267 1.11485 0.18984
 C473 C -0.07113 1.20942 0.18401
 N474 N -0.07100 1.26246 0.21695
 N475 N -0.09204 1.28093 0.27581
 C476 C -0.11539 1.24846 0.30186
 H477 H -0.11592 1.03675 0.20227
 H478 H -0.15959 1.07341 0.27382
 H479 H -0.05353 1.19701 0.13615
 H480 H -0.13087 1.26516 0.35349
 C481 C 0.62008 0.37411 0.14220
 C482 C 0.64529 0.34985 0.18161
 C483 C 0.64862 0.34577 0.28072
 C484 C 0.62568 0.36590 0.34142
 C485 C 0.60040 0.39221 0.30132
 C486 C 0.59738 0.39529 0.20056
 C487 C 0.57941 0.41583 0.36404
 N488 N 0.58258 0.41002 0.45974
 N489 N 0.60541 0.38258 0.49710
 C490 C 0.62700 0.36025 0.44138
 H491 H 0.61827 0.37630 0.06514
 H492 H 0.66257 0.33470 0.13424
 H493 H 0.56078 0.43957 0.33842
 H494 H 0.64484 0.33810 0.47591
 C495 C 0.12397 0.91672 0.18823
 C496 C 0.14974 0.89576 0.22886
 C497 C 0.14895 0.84748 0.28372
 C498 C 0.12134 0.82039 0.30008
 C499 C 0.09503 0.84000 0.25499
 C500 C 0.09622 0.89000 0.19963
 C501 C 0.06899 0.80752 0.26598
 N502 N 0.06886 0.76253 0.32407
 N503 N 0.09303 0.74683 0.37125
 C504 C 0.11923 0.77412 0.36119
 H505 H 0.12602 0.95434 0.14642
 H506 H 0.17066 0.91706 0.21598
 H507 H 0.04881 0.81558 0.22812
 H508 H 0.13807 0.75961 0.40185
   
