data_POSCAR
  _audit_creation_date              2014-09-24
  _audit_creation_method            'ToBaCCo'
  _symmetry_space_group_name_H-M    'P1'
  _symmetry_Int_Tables_number       1
  _symmetry_cell_setting            triclinic
  loop_
  _symmetry_equiv_pos_as_xyz
 x,y,z
_cell_length_a 27.8424
_cell_length_b 26.3307
_cell_length_c 27.1034
_cell_angle_alpha 84.060100
_cell_angle_beta 95.453800
_cell_angle_gamma 95.519300
loop_
  _atom_site_label
  _atom_site_type_symbol
  _atom_site_fract_x
  _atom_site_fract_y
  _atom_site_fract_z
C1 C 0.31044 0.33828 0.22696
 H2 H 0.31528 0.34348 0.26626
 C3 C 0.34012 0.36771 0.19403
 H4 H 0.36756 0.39579 0.20821
 C5 C 0.27075 0.29314 0.16125
 H6 H 0.24461 0.26316 0.14874
 C7 C 0.30029 0.32089 0.12731
 H8 H 0.29598 0.31246 0.08879
 N9 N 0.27652 0.30189 0.21015
 C10 C 0.17707 0.26720 0.32761
 H11 H 0.17590 0.22581 0.33223
 C12 C 0.14907 0.29265 0.35566
 H13 H 0.12666 0.27046 0.38208
 C14 C 0.20722 0.34614 0.28684
 H15 H 0.22906 0.36689 0.25928
 C16 C 0.18010 0.37312 0.31425
 H17 H 0.18196 0.41450 0.30765
 Zn18 Zn 0.24234 0.25743 0.25701
 N19 N 0.20584 0.29417 0.29443
 C20 C 0.29100 0.21621 0.34889
 N21 N 0.28949 0.22201 0.29830
 C22 C 0.32243 0.20188 0.27379
 C23 C 0.35748 0.17287 0.29991
 C24 C 0.32554 0.18714 0.37666
 C25 C 0.16088 0.22721 0.19344
 C26 C 0.13112 0.19410 0.16414
 C27 C 0.18006 0.12552 0.19749
 C28 C 0.20836 0.15965 0.22660
 N29 N 0.19933 0.20982 0.22297
 H30 H 0.26505 0.23328 0.36778
 H31 H 0.32072 0.20751 0.23357
 H32 H 0.38258 0.15646 0.27922
 H33 H 0.32558 0.18193 0.41681
 H34 H 0.15431 0.26723 0.19151
 H35 H 0.10166 0.20895 0.13959
 H36 H 0.18881 0.08610 0.19981
 H37 H 0.23832 0.14614 0.25104
 C38 C 0.15060 0.34641 0.34934
 C39 C 0.33582 0.35835 0.14370
 C40 C 0.14144 0.14283 0.16504
 C41 C 0.35897 0.16442 0.35203
 C42 C 0.80958 0.84209 0.22461
 H43 H 0.81291 0.84944 0.26338
 C44 C 0.83881 0.87162 0.19130
 H45 H 0.86398 0.90197 0.20504
 C46 C 0.77437 0.79176 0.16085
 H47 H 0.75008 0.75985 0.14931
 C48 C 0.80394 0.81911 0.12672
 H49 H 0.80104 0.80811 0.08906
 N50 N 0.77789 0.80328 0.20889
 C51 C 0.67896 0.76853 0.32717
 H52 H 0.67875 0.72721 0.33237
 C53 C 0.65074 0.79364 0.35528
 H54 H 0.62917 0.77129 0.38237
 C55 C 0.70678 0.84753 0.28482
 H56 H 0.72761 0.86841 0.25651
 C57 C 0.67942 0.87419 0.31230
 H58 H 0.68022 0.91547 0.30505
 Zn59 Zn 0.74383 0.75910 0.25614
 N60 N 0.70680 0.79571 0.29326
 C61 C 0.79292 0.71880 0.34828
 N62 N 0.79112 0.72408 0.29766
 C63 C 0.82374 0.70338 0.27320
 C64 C 0.85865 0.67423 0.29939
 C65 C 0.82731 0.68960 0.37612
 C66 C 0.66307 0.72841 0.19214
 C67 C 0.63333 0.69502 0.16312
 C68 C 0.68146 0.62634 0.19817
 C69 C 0.70973 0.66076 0.22700
 N70 N 0.70107 0.71107 0.22242
 H71 H 0.76728 0.73635 0.36714
 H72 H 0.82181 0.70857 0.23296
 H73 H 0.88342 0.65730 0.27873
 H74 H 0.82753 0.68475 0.41629
 H75 H 0.65682 0.76856 0.18944
 H76 H 0.60421 0.70978 0.13802
 H77 H 0.68988 0.58677 0.20125
 H78 H 0.73933 0.64734 0.25201
 C79 C 0.65104 0.84728 0.34826
 C80 C 0.83718 0.85951 0.14172
 C81 C 0.64325 0.64353 0.16506
 C82 C 0.86032 0.66620 0.35154
 C83 C 0.81149 0.33813 0.72769
 H84 H 0.81654 0.34335 0.76698
 C85 C 0.84086 0.36769 0.69456
 H86 H 0.86830 0.39587 0.70857
 C87 C 0.77154 0.29289 0.66218
 H88 H 0.74542 0.26283 0.64980
 C89 C 0.80077 0.32077 0.62803
 H90 H 0.79624 0.31235 0.58951
 N91 N 0.77758 0.30163 0.71107
 C92 C 0.67847 0.26686 0.82887
 H93 H 0.67743 0.22547 0.83364
 C94 C 0.65029 0.29232 0.85673
 H95 H 0.62791 0.27014 0.88319
 C96 C 0.70836 0.34575 0.78781
 H97 H 0.73013 0.36648 0.76018
 C98 C 0.68106 0.37274 0.81503
 H99 H 0.68275 0.41409 0.80823
 Zn100 Zn 0.74367 0.25710 0.75812
 N101 N 0.70717 0.29380 0.79561
 C102 C 0.79249 0.21547 0.84978
 N103 N 0.79101 0.22172 0.79924
 C104 C 0.82402 0.20196 0.77458
 C105 C 0.85905 0.17272 0.80042
 C106 C 0.82695 0.18618 0.87738
 C107 C 0.66204 0.22664 0.69484
 C108 C 0.63236 0.19347 0.66553
 C109 C 0.68169 0.12512 0.69857
 C110 C 0.70992 0.15930 0.72769
 N111 N 0.70066 0.20939 0.72421
 H112 H 0.76650 0.23234 0.86879
 H113 H 0.82236 0.20800 0.73438
 H114 H 0.88400 0.15691 0.77904
 H115 H 0.82653 0.18099 0.91751
 H116 H 0.65530 0.26660 0.69301
 H117 H 0.60277 0.20822 0.64110
 H118 H 0.69064 0.08578 0.70076
 H119 H 0.74001 0.14590 0.75198
 C120 C 0.65157 0.34605 0.85014
 C121 C 0.83627 0.35836 0.64420
 C122 C 0.64292 0.14230 0.66626
 C123 C 0.86057 0.16330 0.85273
 C124 C 0.31063 0.83909 0.72728
 H125 H 0.31538 0.84457 0.76651
 C126 C 0.34033 0.86834 0.69425
 H127 H 0.36769 0.89659 0.70829
 C128 C 0.27118 0.79339 0.66184
 H129 H 0.24515 0.76326 0.64948
 C130 C 0.30076 0.82096 0.62782
 H131 H 0.29655 0.81223 0.58938
 N132 N 0.27682 0.80250 0.71065
 C133 C 0.17717 0.76789 0.82807
 H134 H 0.17620 0.72651 0.83290
 C135 C 0.14875 0.79332 0.85571
 H136 H 0.12625 0.77113 0.88206
 C137 C 0.20713 0.84679 0.78709
 H138 H 0.22902 0.86753 0.75957
 C139 C 0.17959 0.87375 0.81409
 H140 H 0.18122 0.91510 0.80725
 Zn141 Zn 0.24271 0.75811 0.75767
 N142 N 0.20601 0.79485 0.79494
 C143 C 0.29137 0.71675 0.84956
 N144 N 0.28996 0.72282 0.79898
 C145 C 0.32298 0.70288 0.77441
 C146 C 0.35801 0.67377 0.80045
 C147 C 0.32590 0.68758 0.87725
 C148 C 0.16136 0.72752 0.69414
 C149 C 0.13173 0.69425 0.66490
 C150 C 0.18081 0.62588 0.69855
 C151 C 0.20898 0.66017 0.72759
 N152 N 0.19983 0.71031 0.72377
 H153 H 0.26533 0.73363 0.86849
 H154 H 0.32132 0.70868 0.73421
 H155 H 0.38315 0.65749 0.77971
 H156 H 0.32584 0.68212 0.91739
 H157 H 0.15470 0.76753 0.69206
 H158 H 0.10226 0.70895 0.64026
 H159 H 0.18966 0.58649 0.70102
 H160 H 0.23894 0.64681 0.75210
 C161 C 0.14993 0.84705 0.84905
 C162 C 0.33618 0.85860 0.64402
 C163 C 0.14219 0.64301 0.66599
 C164 C 0.35939 0.66502 0.85255
 C165 C 0.03731 -0.04282 -0.04022
 C166 C 0.06873 -0.01376 -0.00104
 C167 C 0.04378 0.01523 0.02459
 C168 C -0.01088 0.01212 0.00906
 C169 C -0.00223 -0.07420 -0.01149
 C170 C -0.02714 -0.04552 0.01457
 C171 C 0.01063 -0.00175 -0.07300
 C172 C -0.01487 0.02693 -0.04753
 H173 H 0.10759 -0.01546 0.00514
 H174 H -0.03150 0.03532 0.03020
 H175 H -0.00895 -0.11547 -0.01052
 H176 H 0.01041 0.00252 -0.11321
 C177 C 0.03908 0.45648 0.46121
 C178 C 0.07037 0.48586 0.50022
 C179 C 0.04522 0.51474 0.52578
 C180 C -0.00947 0.51121 0.51031
 C181 C -0.00018 0.42494 0.49014
 C182 C -0.02540 0.45346 0.51609
 C183 C 0.01209 0.49722 0.42832
 C184 C -0.01354 0.52584 0.45370
 H185 H 0.10926 0.48442 0.50637
 H186 H -0.03017 0.53444 0.53133
 H187 H -0.00661 0.38364 0.49114
 H188 H 0.01201 0.50154 0.38812
 C189 C 0.53948 -0.04371 0.46109
 C190 C 0.57085 -0.01421 0.49996
 C191 C 0.54573 0.01455 0.52568
 C192 C 0.49099 0.01083 0.51046
 C193 C 0.50044 -0.07541 0.49024
 C194 C 0.47524 -0.04697 0.51633
 C195 C 0.51221 -0.00310 0.42834
 C196 C 0.48660 0.02541 0.45386
 H197 H 0.60975 -0.01557 0.50597
 H198 H 0.47033 0.03399 0.53158
 H199 H 0.49407 -0.11671 0.49117
 H200 H 0.51185 0.00114 0.38812
 C201 C 0.53943 0.45615 -0.03863
 C202 C 0.57079 0.48559 0.00030
 C203 C 0.54569 0.51444 0.02592
 C204 C 0.49096 0.51081 0.01063
 C205 C 0.50028 0.42455 -0.00956
 C206 C 0.47510 0.45305 0.01645
 C207 C 0.51229 0.49684 -0.07146
 C208 C 0.48668 0.52541 -0.04598
 H209 H 0.60970 0.48427 0.00629
 H210 H 0.47031 0.53402 0.03173
 H211 H 0.49380 0.38327 -0.00867
 H212 H 0.51202 0.50109 -0.11167
 N213 N 0.08684 -0.15015 -0.09308
 C214 C 0.12045 -0.12480 -0.12202
 N215 N 0.12653 -0.07285 -0.12394
 N216 N 0.10020 -0.04730 -0.09807
 C217 C 0.06650 -0.07261 -0.06933
 N218 N 0.06035 -0.12457 -0.06728
 N219 N 0.08813 0.34922 0.40783
 C220 C 0.12160 0.37457 0.37874
 N221 N 0.12792 0.42649 0.37705
 N222 N 0.10188 0.45203 0.40324
 C223 C 0.06829 0.42672 0.43210
 N224 N 0.06195 0.37478 0.43395
 N225 N 0.58901 -0.15051 0.40742
 C226 C 0.62199 -0.12487 0.37789
 N227 N 0.62782 -0.07292 0.37605
 N228 N 0.60180 -0.04765 0.40249
 C229 C 0.56868 -0.07323 0.43176
 N230 N 0.56283 -0.12520 0.43377
 N231 N 0.58895 0.34886 -0.09151
 C232 C 0.62232 0.37423 -0.12072
 N233 N 0.62833 0.42618 -0.12274
 N234 N 0.60212 0.45173 -0.09674
 C235 C 0.56864 0.42641 -0.06775
 N236 N 0.56260 0.37443 -0.06558
 N237 N -0.10643 0.12122 -0.07179
 C238 C -0.10750 0.13214 -0.12212
 N239 N -0.07649 0.10943 -0.14696
 N240 N -0.04659 0.07687 -0.12305
 C241 C -0.04611 0.06553 -0.07307
 N242 N -0.07639 0.08859 -0.04778
 N243 N -0.10421 0.62110 0.42945
 C244 C -0.10498 0.63196 0.37923
 N245 N -0.07455 0.60881 0.35422
 N246 N -0.04502 0.57586 0.37811
 C247 C -0.04457 0.56460 0.42813
 N248 N -0.07454 0.58808 0.45345
 N249 N 0.42471 0.10781 0.35455
 C250 C 0.39401 0.13051 0.37964
 N251 N 0.39490 0.11957 0.42985
 N252 N 0.42495 0.08689 0.45378
 C253 C 0.45519 0.06386 0.42839
 N254 N 0.45461 0.07521 0.37837
 N255 N 0.42491 0.60813 -0.14515
 C256 C 0.39435 0.63092 -0.11997
 N257 N 0.39528 0.61990 -0.06976
 N258 N 0.42524 0.58708 -0.04593
 C259 C 0.45535 0.56396 -0.07141
 N260 N 0.45472 0.57537 -0.12142
 N261 N -0.10171 -0.07238 0.12093
 C262 C -0.13055 -0.11471 0.10865
 N263 N -0.12602 -0.13288 0.06429
 N264 N -0.09351 -0.11053 0.03414
 C265 C -0.06470 -0.06850 0.04668
 N266 N -0.06968 -0.04950 0.09039
 N267 N -0.11894 0.36152 0.56993
 C268 C -0.12960 0.38481 0.60945
 N269 N -0.10661 0.43153 0.61746
 N270 N -0.07419 0.45397 0.58712
 C271 C -0.06314 0.43024 0.54803
 N272 N -0.08620 0.38367 0.53997
 N273 N 0.38165 -0.13885 0.57025
 C274 C 0.37064 -0.11525 0.60944
 N275 N 0.39352 -0.06844 0.61727
 N276 N 0.42613 -0.04619 0.58705
 C277 C 0.43750 -0.07019 0.54828
 N278 N 0.41458 -0.11688 0.54041
 N279 N 0.39328 0.43134 0.11729
 C280 C 0.37027 0.38465 0.10920
 N281 N 0.38117 0.36126 0.06984
 N282 N 0.41415 0.38330 0.04010
 C283 C 0.43723 0.42986 0.04824
 N284 N 0.42594 0.45367 0.08717
 N285 N 0.13518 0.06749 0.11761
 C286 C 0.11442 0.10831 0.13036
 N287 N 0.06963 0.11779 0.10888
 N288 N 0.04663 0.08761 0.07593
 C289 C 0.06779 0.04720 0.06282
 N290 N 0.11243 0.03767 0.08440
 N291 N 0.13631 0.56758 0.61873
 C292 C 0.11535 0.60832 0.63136
 N293 N 0.07052 0.61756 0.60982
 N294 N 0.04769 0.58723 0.57691
 C295 C 0.06906 0.54690 0.56393
 N296 N 0.11373 0.53762 0.58557
 N297 N 0.63702 0.06719 0.61857
 C298 C 0.61603 0.10776 0.63151
 N299 N 0.57112 0.11698 0.61017
 N300 N 0.54824 0.08678 0.57718
 C301 C 0.56964 0.04661 0.56388
 N302 N 0.61439 0.03736 0.58531
 N303 N 0.57148 0.61796 0.10910
 C304 C 0.61624 0.60861 0.13076
 N305 N 0.63697 0.56754 0.11855
 N306 N 0.61423 0.53737 0.08564
 C307 C 0.56963 0.54677 0.06388
 N308 N 0.54849 0.58742 0.07647
   
