data_POSCAR
  _audit_creation_date              2014-09-24
  _audit_creation_method            'ToBaCCo'
  _symmetry_space_group_name_H-M    'P1'
  _symmetry_Int_Tables_number       1
  _symmetry_cell_setting            triclinic
  loop_
  _symmetry_equiv_pos_as_xyz
 x,y,z
_cell_length_a 45.0234
_cell_length_b 43.2941
_cell_length_c 44.3473
_cell_angle_alpha 90.105100
_cell_angle_beta 90.258500
_cell_angle_gamma 90.159000
loop_
  _atom_site_label
  _atom_site_type_symbol
  _atom_site_fract_x
  _atom_site_fract_y
  _atom_site_fract_z
C1 C 0.29239 0.29621 0.23673
 H2 H 0.29123 0.29980 0.26084
 C3 C 0.31172 0.31405 0.21939
 H4 H 0.32550 0.33131 0.23035
 C5 C 0.27643 0.26868 0.19334
 H6 H 0.26319 0.25052 0.18332
 C7 C 0.29555 0.28588 0.17518
 H8 H 0.29613 0.28131 0.15118
 N9 N 0.27479 0.27448 0.22345
 C10 C 0.20707 0.26440 0.29294
 H11 H 0.20824 0.23974 0.29667
 C12 C 0.18806 0.28247 0.31035
 H13 H 0.17513 0.27148 0.32785
 C14 C 0.22306 0.30844 0.26582
 H15 H 0.23625 0.31837 0.24799
 C16 C 0.20408 0.32734 0.28246
 H17 H 0.20297 0.35170 0.27715
 Zn18 Zn 0.24932 0.25127 0.24873
 N19 N 0.22448 0.27762 0.27155
 C20 C 0.27601 0.23279 0.30435
 N21 N 0.27411 0.22742 0.27415
 C22 C 0.29103 0.20544 0.26067
 C23 C 0.30993 0.18692 0.27783
 C24 C 0.29496 0.21506 0.32233
 C25 C 0.20806 0.23852 0.20294
 C26 C 0.19025 0.22035 0.18410
 C27 C 0.20380 0.17564 0.21362
 C28 C 0.22192 0.19456 0.23147
 N29 N 0.22419 0.22530 0.22546
 H30 H 0.26309 0.25101 0.31451
 H31 H 0.28960 0.20215 0.23652
 H32 H 0.32310 0.16938 0.26676
 H33 H 0.29604 0.21937 0.34637
 H34 H 0.20966 0.26315 0.19916
 H35 H 0.17811 0.23102 0.16575
 H36 H 0.20247 0.15114 0.21831
 H37 H 0.23408 0.18466 0.25013
 C38 C 0.18634 0.31446 0.30527
 C39 C 0.31334 0.30908 0.18815
 C40 C 0.18819 0.18850 0.18929
 C41 C 0.31199 0.19160 0.30908
 C42 C 0.79414 0.79713 0.23924
 H43 H 0.79452 0.80023 0.26345
 C44 C 0.81202 0.81560 0.22099
 H45 H 0.82491 0.83337 0.23211
 C46 C 0.77488 0.77102 0.19656
 H47 H 0.76074 0.75319 0.18718
 C48 C 0.79276 0.78857 0.17743
 H49 H 0.79212 0.78282 0.15374
 N50 N 0.77571 0.77573 0.22681
 C51 C 0.71028 0.76377 0.29816
 H52 H 0.71145 0.73908 0.30172
 C53 C 0.69126 0.78172 0.31572
 H54 H 0.67838 0.77064 0.33320
 C55 C 0.72595 0.80797 0.27112
 H56 H 0.73888 0.81805 0.25319
 C57 C 0.70697 0.82672 0.28786
 H58 H 0.70569 0.85107 0.28252
 Zn59 Zn 0.75226 0.75149 0.25295
 N60 N 0.72756 0.77715 0.27675
 C61 C 0.77958 0.73187 0.30782
 N62 N 0.77872 0.72821 0.27734
 C63 C 0.79761 0.70853 0.26316
 C64 C 0.81713 0.69021 0.27984
 C65 C 0.79913 0.71436 0.32534
 C66 C 0.70471 0.73975 0.21443
 C67 C 0.68530 0.72262 0.19629
 C68 C 0.71199 0.67639 0.21015
 C69 C 0.73046 0.69429 0.22861
 N70 N 0.72690 0.72549 0.22993
 H71 H 0.76524 0.74842 0.31866
 H72 H 0.79722 0.70681 0.23882
 H73 H 0.83167 0.67428 0.26824
 H74 H 0.79921 0.71713 0.34962
 H75 H 0.70226 0.76455 0.21602
 H76 H 0.66787 0.73425 0.18385
 H77 H 0.71528 0.65165 0.20882
 H78 H 0.74768 0.68319 0.24160
 C79 C 0.68941 0.81372 0.31071
 C80 C 0.81181 0.81170 0.18929
 C81 C 0.68918 0.69065 0.19374
 C82 C 0.81788 0.69289 0.31135
 C83 C 0.77119 0.30546 0.73023
 H84 H 0.75524 0.31635 0.74488
 C85 C 0.78979 0.32380 0.71255
 H86 H 0.78790 0.34869 0.71383
 C87 C 0.79384 0.25999 0.71157
 H88 H 0.79527 0.23505 0.71143
 C89 C 0.81295 0.27745 0.69360
 H90 H 0.82881 0.26572 0.67934
 N91 N 0.77323 0.27413 0.72913
 C92 C 0.72636 0.27085 0.80900
 H93 H 0.74259 0.25563 0.81897
 C94 C 0.70756 0.28777 0.82768
 H95 H 0.71005 0.28586 0.85190
 C96 C 0.70314 0.29157 0.76549
 H97 H 0.70132 0.29250 0.74117
 C98 C 0.68390 0.30895 0.78334
 H99 H 0.66722 0.32318 0.77257
 Zn100 Zn 0.74820 0.24886 0.75301
 N101 N 0.72401 0.27320 0.77850
 C102 C 0.79426 0.23596 0.79369
 N103 N 0.77269 0.22273 0.77652
 C104 C 0.76884 0.19164 0.77608
 C105 C 0.78631 0.17263 0.79427
 C106 C 0.81240 0.21790 0.81216
 C107 C 0.72486 0.22478 0.69787
 C108 C 0.70554 0.20686 0.68034
 C109 C 0.68097 0.19039 0.72590
 C110 C 0.70081 0.20853 0.74254
 N111 N 0.72243 0.22496 0.72842
 H112 H 0.79693 0.26081 0.79352
 H113 H 0.75225 0.18138 0.76151
 H114 H 0.78282 0.14806 0.79193
 H115 H 0.82790 0.23015 0.82650
 H116 H 0.74182 0.23841 0.68699
 H117 H 0.70830 0.20647 0.65610
 H118 H 0.66381 0.17768 0.73761
 H119 H 0.69907 0.20951 0.76685
 C120 C 0.68595 0.30712 0.81490
 C121 C 0.81093 0.30981 0.69380
 C122 C 0.68328 0.18922 0.69434
 C123 C 0.80862 0.18537 0.81330
 C124 C 0.27513 0.80542 0.72831
 H125 H 0.26042 0.81618 0.74433
 C126 C 0.29363 0.82390 0.71069
 H127 H 0.29241 0.84878 0.71286
 C128 C 0.29513 0.76010 0.70641
 H129 H 0.29584 0.73515 0.70525
 C130 C 0.31388 0.77771 0.68821
 H131 H 0.32906 0.76614 0.67309
 N132 N 0.27591 0.77412 0.72560
 C133 C 0.22822 0.76984 0.80570
 H134 H 0.24322 0.75349 0.81597
 C135 C 0.20986 0.78770 0.82400
 H136 H 0.21138 0.78536 0.84827
 C137 C 0.20753 0.79243 0.76176
 H138 H 0.20660 0.79383 0.73742
 C139 C 0.18895 0.81094 0.77923
 H140 H 0.17360 0.82652 0.76819
 Zn141 Zn 0.25173 0.74859 0.75005
 N142 N 0.22708 0.77282 0.77518
 C143 C 0.29694 0.73914 0.79225
 N144 N 0.27758 0.72413 0.77370
 C145 C 0.27743 0.69279 0.77160
 C146 C 0.29680 0.67525 0.78928
 C147 C 0.31646 0.72253 0.81054
 C148 C 0.22716 0.72391 0.69561
 C149 C 0.20796 0.70518 0.67875
 C150 C 0.18707 0.68606 0.72521
 C151 C 0.20677 0.70502 0.74116
 N152 N 0.22647 0.72324 0.72626
 H153 H 0.29685 0.76411 0.79314
 H154 H 0.26246 0.68132 0.75609
 H155 H 0.29653 0.65036 0.78701
 H156 H 0.33097 0.73500 0.82585
 H157 H 0.24248 0.73900 0.68411
 H158 H 0.20933 0.70561 0.65439
 H159 H 0.17134 0.67207 0.73757
 H160 H 0.20635 0.70533 0.76555
 C161 C 0.19006 0.80875 0.81079
 C162 C 0.31323 0.81007 0.69020
 C163 C 0.18754 0.68587 0.69352
 C164 C 0.31651 0.69009 0.80933
 C165 C 0.00015 -0.00218 -0.00176
 C166 C -0.00084 0.49701 0.50181
 C167 C 0.49830 0.00060 0.49906
 C168 C 0.50206 0.50121 0.00245
 C169 C 0.13426 -0.13452 -0.13342
 C170 C 0.13786 -0.16608 -0.12709
 C171 C 0.15597 -0.18448 -0.14519
 C172 C 0.17068 -0.17176 -0.17015
 C173 C 0.16695 -0.14024 -0.17660
 C174 C 0.14903 -0.12177 -0.15833
 C175 C 0.11513 -0.11503 -0.11409
 C176 C 0.12459 -0.08552 -0.10488
 C177 C 0.10665 -0.06734 -0.08635
 C178 C 0.07877 -0.07820 -0.07680
 C179 C 0.06928 -0.10766 -0.08626
 C180 C 0.08730 -0.12590 -0.10459
 C181 C 0.05955 -0.05899 -0.05712
 C182 C 0.04274 -0.07270 -0.03415
 C183 C 0.02383 -0.05499 -0.01627
 C184 C 0.02062 -0.02292 -0.02119
 C185 C 0.03909 -0.00910 -0.04304
 C186 C 0.05784 -0.02688 -0.06106
 H187 H 0.12692 -0.17645 -0.10789
 H188 H 0.15826 -0.20876 -0.13985
 H189 H 0.17823 -0.12979 -0.19555
 H190 H 0.14645 -0.09757 -0.16386
 H191 H 0.14611 -0.07675 -0.11158
 H192 H 0.11485 -0.04499 -0.07910
 H193 H 0.04771 -0.11649 -0.07982
 H194 H 0.07927 -0.14837 -0.11173
 H195 H 0.04451 -0.09720 -0.02965
 H196 H 0.01234 -0.06674 0.00171
 H197 H 0.03838 0.01563 -0.04663
 H198 H 0.07059 -0.01547 -0.07845
 C199 C 0.12848 0.37135 0.35950
 C200 C 0.15588 0.38284 0.34922
 C201 C 0.17456 0.36447 0.33166
 C202 C 0.16624 0.33421 0.32362
 C203 C 0.13865 0.32288 0.33353
 C204 C 0.12011 0.34114 0.35136
 C205 C 0.10896 0.39058 0.37899
 C206 C 0.07783 0.38870 0.37643
 C207 C 0.05956 0.40609 0.39535
 C208 C 0.07199 0.42605 0.41700
 C209 C 0.10302 0.42833 0.41933
 C210 C 0.12130 0.41068 0.40068
 C211 C 0.05274 0.44402 0.43757
 C212 C 0.05830 0.47544 0.44284
 C213 C 0.04077 0.49210 0.46300
 C214 C 0.01802 0.47755 0.47965
 C215 C 0.01150 0.44635 0.47273
 C216 C 0.02881 0.42981 0.45223
 H217 H 0.16290 0.40613 0.35464
 H218 H 0.19577 0.37388 0.32479
 H219 H 0.13123 0.29990 0.32741
 H220 H 0.09938 0.33132 0.35914
 H221 H 0.06753 0.37396 0.35961
 H222 H 0.03569 0.40420 0.39286
 H223 H 0.11315 0.44326 0.43612
 H224 H 0.14512 0.41232 0.40375
 H225 H 0.07609 0.48720 0.43112
 H226 H 0.04538 0.51646 0.46618
 H227 H -0.00719 0.43451 0.48268
 H228 H 0.02369 0.40570 0.44812
 C229 C 0.63074 -0.12896 0.36352
 C230 C 0.65827 -0.11757 0.35357
 C231 C 0.67731 -0.13618 0.33669
 C232 C 0.66919 -0.16659 0.32896
 C233 C 0.64156 -0.17792 0.33873
 C234 C 0.62266 -0.15941 0.35592
 C235 C 0.61067 -0.10927 0.38194
 C236 C 0.57962 -0.11132 0.37857
 C237 C 0.56083 -0.09328 0.39634
 C238 C 0.57266 -0.07249 0.41758
 C239 C 0.60361 -0.07007 0.42073
 C240 C 0.62240 -0.08837 0.40326
 C241 C 0.55286 -0.05391 0.43702
 C242 C 0.55807 -0.02226 0.44124
 C243 C 0.54013 -0.00506 0.46059
 C244 C 0.51737 -0.01929 0.47749
 C245 C 0.51116 -0.05075 0.47149
 C246 C 0.52884 -0.06782 0.45178
 H247 H 0.66510 -0.09412 0.35860
 H248 H 0.69856 -0.12677 0.32996
 H249 H 0.63432 -0.20103 0.33287
 H250 H 0.60184 -0.16915 0.36353
 H251 H 0.56979 -0.12667 0.36199
 H252 H 0.53703 -0.09532 0.39328
 H253 H 0.61325 -0.05451 0.43726
 H254 H 0.64612 -0.08657 0.40694
 H255 H 0.57595 -0.01078 0.42940
 H256 H 0.54451 0.01942 0.46307
 H257 H 0.49248 -0.06243 0.48163
 H258 H 0.52400 -0.09211 0.44844
 C259 C 0.62732 0.35949 -0.12802
 C260 C 0.63914 0.37265 -0.15434
 C261 C 0.65802 0.35564 -0.17292
 C262 C 0.66555 0.32508 -0.16559
 C263 C 0.65360 0.31185 -0.13936
 C264 C 0.63471 0.32886 -0.12078
 C265 C 0.60768 0.37780 -0.10802
 C266 C 0.61069 0.37604 -0.07650
 C267 C 0.59286 0.39404 -0.05771
 C268 C 0.57160 0.41417 -0.07001
 C269 C 0.56827 0.41555 -0.10151
 C270 C 0.58612 0.39759 -0.12029
 C271 C 0.55363 0.43451 -0.05025
 C272 C 0.52350 0.43976 -0.05654
 C273 C 0.50718 0.46055 -0.03918
 C274 C 0.52076 0.47775 -0.01576
 C275 C 0.55032 0.47018 -0.00796
 C276 C 0.56664 0.44935 -0.02530
 H277 H 0.63425 0.39636 -0.16026
 H278 H 0.66721 0.36661 -0.19273
 H279 H 0.65858 0.28818 -0.13338
 H280 H 0.62560 0.31792 -0.10092
 H281 H 0.62727 0.36121 -0.06636
 H282 H 0.59573 0.39222 -0.03352
 H283 H 0.55231 0.43106 -0.11169
 H284 H 0.58302 0.39917 -0.14447
 H285 H 0.51251 0.42774 -0.07491
 H286 H 0.48394 0.46391 -0.04457
 H287 H 0.56112 0.48018 0.01156
 H288 H 0.58968 0.44533 -0.01947
 C289 C -0.13921 0.12910 -0.12943
 C290 C -0.16642 0.11843 -0.14088
 C291 C -0.18365 0.13693 -0.15984
 C292 C -0.17440 0.16712 -0.16810
 C293 C -0.14686 0.17754 -0.15608
 C294 C -0.12968 0.15885 -0.13723
 C295 C -0.12065 0.10911 -0.10976
 C296 C -0.10500 0.12166 -0.08510
 C297 C -0.08686 0.10298 -0.06717
 C298 C -0.08397 0.07130 -0.07346
 C299 C -0.10001 0.05865 -0.09782
 C300 C -0.11808 0.07733 -0.11578
 C301 C -0.06355 0.05178 -0.05532
 C302 C -0.04593 0.02934 -0.06934
 C303 C -0.02583 0.01175 -0.05263
 C304 C -0.02190 0.01677 -0.02134
 C305 C -0.04116 0.03800 -0.00721
 C306 C -0.06130 0.05557 -0.02396
 H307 H -0.17478 0.09585 -0.13468
 H308 H -0.20497 0.12758 -0.16643
 H309 H -0.13721 0.19949 -0.16223
 H310 H -0.10841 0.16750 -0.12938
 H311 H -0.10681 0.14596 -0.07962
 H312 H -0.07459 0.11349 -0.04875
 H313 H -0.09857 0.03426 -0.10303
 H314 H -0.12960 0.06698 -0.13476
 H315 H -0.04736 0.02555 -0.09345
 H316 H -0.01385 -0.00596 -0.06461
 H317 H -0.04013 0.04140 0.01698
 H318 H -0.07528 0.07199 -0.01230
 C319 C -0.12522 0.63495 0.36492
 C320 C -0.14303 0.62217 0.34198
 C321 C -0.16116 0.64109 0.32429
 C322 C -0.16219 0.67307 0.32955
 C323 C -0.14442 0.68586 0.35252
 C324 C -0.12589 0.66699 0.36988
 C325 C -0.10635 0.61481 0.38393
 C326 C -0.07645 0.62230 0.38931
 C327 C -0.05871 0.60325 0.40731
 C328 C -0.07064 0.57653 0.42075
 C329 C -0.10069 0.56923 0.41536
 C330 C -0.11826 0.58802 0.39698
 C331 C -0.05207 0.55657 0.44062
 C332 C -0.05634 0.52442 0.44116
 C333 C -0.03984 0.50586 0.46070
 C334 C -0.01871 0.51875 0.48075
 C335 C -0.01315 0.55080 0.47857
 C336 C -0.02999 0.56943 0.45933
 H337 H -0.14275 0.59755 0.33763
 H338 H -0.17481 0.63067 0.30684
 H339 H -0.14473 0.71048 0.35688
 H340 H -0.11248 0.67733 0.38757
 H341 H -0.06670 0.64267 0.37920
 H342 H -0.03556 0.60933 0.41040
 H343 H -0.11087 0.54928 0.42578
 H344 H -0.14138 0.58198 0.39344
 H345 H -0.07233 0.51345 0.42629
 H346 H -0.04383 0.48118 0.46049
 H347 H 0.00433 0.56187 0.49140
 H348 H -0.02582 0.59406 0.45942
 C349 C 0.36968 0.13469 0.36289
 C350 C 0.35057 0.12133 0.34139
 C351 C 0.33197 0.13985 0.32381
 C352 C 0.33183 0.17206 0.32768
 C353 C 0.35080 0.18542 0.34932
 C354 C 0.36971 0.16692 0.36662
 C355 C 0.38933 0.11501 0.38155
 C356 C 0.41939 0.12273 0.38562
 C357 C 0.43788 0.10413 0.40328
 C358 C 0.42661 0.07761 0.41759
 C359 C 0.39645 0.07001 0.41346
 C360 C 0.37808 0.08839 0.39551
 C361 C 0.44596 0.05822 0.43718
 C362 C 0.44223 0.02602 0.43814
 C363 C 0.45926 0.00803 0.45772
 C364 C 0.48024 0.02161 0.47749
 C365 C 0.48540 0.05368 0.47468
 C366 C 0.46811 0.07173 0.45534
 H367 H 0.35026 0.09655 0.33797
 H368 H 0.31741 0.12897 0.30741
 H369 H 0.35125 0.21022 0.35258
 H370 H 0.38410 0.17775 0.38321
 H371 H 0.42866 0.14295 0.37478
 H372 H 0.46108 0.11040 0.40545
 H373 H 0.38683 0.05015 0.42459
 H374 H 0.35489 0.08215 0.39301
 H375 H 0.42618 0.01462 0.42365
 H376 H 0.45564 -0.01671 0.45791
 H377 H 0.50283 0.06522 0.48719
 H378 H 0.47190 0.09642 0.45499
 C379 C 0.37473 0.63778 -0.13244
 C380 C 0.34614 0.62679 -0.13962
 C381 C 0.32735 0.64369 -0.15850
 C382 C 0.33675 0.67189 -0.17095
 C383 C 0.36548 0.68271 -0.16406
 C384 C 0.38418 0.66594 -0.14494
 C385 C 0.39453 0.61993 -0.11196
 C386 C 0.42530 0.61857 -0.11708
 C387 C 0.44375 0.60135 -0.09809
 C388 C 0.43186 0.58484 -0.07366
 C389 C 0.40112 0.58642 -0.06842
 C390 C 0.38274 0.60386 -0.08721
 C391 C 0.45113 0.56528 -0.05419
 C392 C 0.44562 0.56267 -0.02316
 C393 C 0.46230 0.54256 -0.00533
 C394 C 0.48458 0.52377 -0.01801
 C395 C 0.49171 0.52864 -0.04864
 C396 C 0.47482 0.54852 -0.06655
 H397 H 0.33827 0.60496 -0.13081
 H398 H 0.30526 0.63481 -0.16297
 H399 H 0.37364 0.70410 -0.17357
 H400 H 0.40592 0.67529 -0.13966
 H401 H 0.43513 0.63040 -0.13608
 H402 H 0.46736 0.60102 -0.10257
 H403 H 0.39111 0.57369 -0.05008
 H404 H 0.35923 0.60478 -0.08227
 H405 H 0.42834 0.57618 -0.01259
 H406 H 0.45728 0.54107 0.01848
 H407 H 0.51029 0.51714 -0.05909
 H408 H 0.48006 0.55026 -0.09029
 C409 C -0.13339 -0.13295 0.13196
 C410 C -0.12713 -0.13555 0.16288
 C411 C -0.14482 -0.15379 0.18156
 C412 C -0.16992 -0.16983 0.17015
 C413 C -0.17613 -0.16675 0.13897
 C414 C -0.15808 -0.14886 0.12027
 C415 C -0.11420 -0.11375 0.11206
 C416 C -0.12646 -0.09726 0.08767
 C417 C -0.10838 -0.07923 0.06909
 C418 C -0.07780 -0.07687 0.07483
 C419 C -0.06548 -0.09317 0.09913
 C420 C -0.08341 -0.11163 0.11738
 C421 C -0.05867 -0.05736 0.05564
 C422 C -0.03947 -0.03563 0.06879
 C423 C -0.02094 -0.01748 0.05089
 C424 C -0.02014 -0.02150 0.01924
 C425 C -0.04054 -0.04262 0.00626
 C426 C -0.05946 -0.06033 0.02420
 H427 H -0.10851 -0.12334 0.17286
 H428 H -0.13777 -0.15578 0.20477
 H429 H -0.19545 -0.17719 0.12862
 H430 H -0.16350 -0.14770 0.09650
 H431 H -0.15010 -0.09782 0.08318
 H432 H -0.11837 -0.06661 0.05060
 H433 H -0.04186 -0.09195 0.10372
 H434 H -0.07302 -0.12450 0.13544
 H435 H -0.03920 -0.03233 0.09301
 H436 H -0.00771 -0.00015 0.06224
 H437 H -0.04145 -0.04570 -0.01796
 H438 H -0.07433 -0.07680 0.01353
 C439 C -0.13215 0.36508 0.63732
 C440 C -0.16231 0.37254 0.64070
 C441 C -0.18070 0.35470 0.65909
 C442 C -0.16938 0.32889 0.67447
 C443 C -0.13921 0.32142 0.67112
 C444 C -0.12077 0.33937 0.65281
 C445 C -0.11271 0.38401 0.61760
 C446 C -0.08367 0.39177 0.62667
 C447 C -0.06557 0.40994 0.60823
 C448 C -0.07608 0.42070 0.58025
 C449 C -0.10505 0.41270 0.57112
 C450 C -0.12315 0.39463 0.58958
 C451 C -0.05707 0.44030 0.56067
 C452 C -0.06934 0.46526 0.54481
 C453 C -0.05177 0.48347 0.52598
 C454 C -0.02135 0.47681 0.52172
 C455 C -0.00892 0.45273 0.53907
 C456 C -0.02654 0.43447 0.55786
 H457 H -0.17166 0.39240 0.62931
 H458 H -0.20391 0.36087 0.66098
 H459 H -0.12977 0.30186 0.68290
 H460 H -0.09769 0.33289 0.65046
 H461 H -0.07514 0.38427 0.64832
 H462 H -0.04354 0.41606 0.61614
 H463 H -0.11363 0.42012 0.54947
 H464 H -0.14523 0.38860 0.58174
 H465 H -0.09255 0.47116 0.54744
 H466 H -0.06219 0.50313 0.51539
 H467 H 0.01460 0.44776 0.53766
 H468 H -0.01629 0.41554 0.56990
 C469 C 0.36961 -0.13359 0.63441
 C470 C 0.35498 -0.15955 0.62231
 C471 C 0.33689 -0.17797 0.64047
 C472 C 0.33288 -0.17071 0.67108
 C473 C 0.34758 -0.14480 0.68320
 C474 C 0.36584 -0.12650 0.66509
 C475 C 0.38849 -0.11381 0.61503
 C476 C 0.41609 -0.10285 0.62550
 C477 C 0.43381 -0.08416 0.60719
 C478 C 0.42419 -0.07587 0.57813
 C479 C 0.39656 -0.08676 0.56772
 C480 C 0.37894 -0.10560 0.58593
 C481 C 0.44286 -0.05598 0.55864
 C482 C 0.43003 -0.03196 0.54192
 C483 C 0.44737 -0.01359 0.52302
 C484 C 0.47804 -0.01937 0.51944
 C485 C 0.49094 -0.04253 0.53764
 C486 C 0.47359 -0.06077 0.55666
 H487 H 0.35771 -0.16573 0.59882
 H488 H 0.32565 -0.19764 0.63046
 H489 H 0.34514 -0.13883 0.70678
 H490 H 0.37664 -0.10650 0.67496
 H491 H 0.42411 -0.10901 0.64774
 H492 H 0.45490 -0.07589 0.61590
 H493 H 0.38871 -0.08097 0.54532
 H494 H 0.35765 -0.11346 0.57738
 H495 H 0.40655 -0.02701 0.54389
 H496 H 0.43652 0.00541 0.51177
 H497 H 0.51460 -0.04682 0.53670
 H498 H 0.48417 -0.07898 0.56948
 C499 C 0.37054 0.36449 0.13231
 C500 C 0.35409 0.37809 0.15566
 C501 C 0.33575 0.36007 0.17392
 C502 C 0.33335 0.32807 0.16916
 C503 C 0.34990 0.31443 0.14589
 C504 C 0.36836 0.33244 0.12771
 C505 C 0.38971 0.38372 0.11268
 C506 C 0.41813 0.37353 0.10435
 C507 C 0.43622 0.39180 0.08602
 C508 C 0.42619 0.42057 0.07551
 C509 C 0.39770 0.43065 0.08370
 C510 C 0.37969 0.41246 0.10213
 C511 C 0.44542 0.44023 0.05635
 C512 C 0.43349 0.45587 0.03142
 C513 C 0.45131 0.47518 0.01390
 C514 C 0.48145 0.48031 0.02144
 C515 C 0.49358 0.46296 0.04544
 C516 C 0.47577 0.44358 0.06287
 H517 H 0.35557 0.40269 0.15994
 H518 H 0.32306 0.37127 0.19149
 H519 H 0.34873 0.28978 0.14188
 H520 H 0.38059 0.32135 0.10974
 H521 H 0.42653 0.35159 0.11233
 H522 H 0.45796 0.38331 0.07985
 H523 H 0.38950 0.45284 0.07619
 H524 H 0.35777 0.42077 0.10791
 H525 H 0.41040 0.45277 0.02515
 H526 H 0.44131 0.48565 -0.00577
 H527 H 0.51695 0.46490 0.05102
 H528 H 0.48569 0.43161 0.08180
 C529 C 0.13593 0.13084 0.13028
 C530 C 0.13095 0.13083 0.16163
 C531 C 0.14813 0.14932 0.18085
 C532 C 0.17018 0.16873 0.16910
 C533 C 0.17510 0.16908 0.13792
 C534 C 0.15841 0.15011 0.11874
 C535 C 0.11769 0.11103 0.10975
 C536 C 0.11070 0.12085 0.08034
 C537 C 0.09341 0.10241 0.06119
 C538 C 0.08206 0.07389 0.07109
 C539 C 0.08908 0.06406 0.10049
 C540 C 0.10687 0.08220 0.11942
 C541 C 0.06241 0.05483 0.05124
 C542 C 0.06271 0.02243 0.05295
 C543 C 0.04297 0.00472 0.03574
 C544 C 0.02201 0.01868 0.01631
 C545 C 0.02351 0.05110 0.01298
 C546 C 0.04283 0.06885 0.03068
 H547 H 0.11348 0.11691 0.17139
 H548 H 0.14386 0.14893 0.20487
 H549 H 0.19228 0.18368 0.12847
 H550 H 0.16345 0.15031 0.09491
 H551 H 0.11817 0.14305 0.07212
 H552 H 0.08903 0.11060 0.03857
 H553 H 0.08044 0.04251 0.10920
 H554 H 0.11218 0.07349 0.14165
 H555 H 0.07823 0.01062 0.06759
 H556 H 0.04359 -0.02017 0.03804
 H557 H 0.00997 0.06326 -0.00321
 H558 H 0.04198 0.09372 0.02846
 C559 C 0.12775 0.62738 0.64247
 C560 C 0.13505 0.65715 0.63219
 C561 C 0.15424 0.67613 0.64880
 C562 C 0.16681 0.66577 0.67603
 C563 C 0.15948 0.63603 0.68635
 C564 C 0.14014 0.61710 0.66982
 C565 C 0.10768 0.60704 0.62447
 C566 C 0.11317 0.57515 0.62222
 C567 C 0.09495 0.55624 0.60442
 C568 C 0.07089 0.56875 0.58827
 C569 C 0.06511 0.60054 0.59093
 C570 C 0.08322 0.61942 0.60886
 C571 C 0.05255 0.54908 0.56783
 C572 C 0.02183 0.55385 0.56500
 C573 C 0.00505 0.53674 0.54428
 C574 C 0.01854 0.51493 0.52501
 C575 C 0.04896 0.50852 0.52987
 C576 C 0.06575 0.52575 0.55047
 H577 H 0.12625 0.66568 0.61104
 H578 H 0.15906 0.69905 0.64037
 H579 H 0.16900 0.62715 0.70704
 H580 H 0.13475 0.59446 0.67859
 H581 H 0.13196 0.56487 0.63369
 H582 H 0.09979 0.53179 0.60325
 H583 H 0.04698 0.61104 0.57857
 H584 H 0.07806 0.64377 0.61045
 H585 H 0.01070 0.57084 0.57884
 H586 H -0.01857 0.54109 0.54267
 H587 H 0.06014 0.49016 0.51799
 H588 H 0.08930 0.52109 0.55234
 C589 C 0.62432 0.13185 0.64133
 C590 C 0.63303 0.16114 0.63090
 C591 C 0.65197 0.17981 0.64815
 C592 C 0.66274 0.16960 0.67620
 C593 C 0.65391 0.14037 0.68669
 C594 C 0.63490 0.12174 0.66949
 C595 C 0.60472 0.11173 0.62264
 C596 C 0.60979 0.07974 0.62094
 C597 C 0.59200 0.06095 0.60261
 C598 C 0.56877 0.07371 0.58543
 C599 C 0.56341 0.10561 0.58749
 C600 C 0.58115 0.12439 0.60590
 C601 C 0.55082 0.05406 0.56468
 C602 C 0.52016 0.05883 0.56130
 C603 C 0.50369 0.04137 0.54062
 C604 C 0.51745 0.01927 0.52188
 C605 C 0.54785 0.01309 0.52714
 C606 C 0.56433 0.03060 0.54776
 H607 H 0.62559 0.16948 0.60915
 H608 H 0.65803 0.20234 0.63956
 H609 H 0.66205 0.13165 0.70804
 H610 H 0.62836 0.09946 0.67834
 H611 H 0.62793 0.06928 0.63330
 H612 H 0.59648 0.03641 0.60186
 H613 H 0.54589 0.11622 0.57433
 H614 H 0.57639 0.14886 0.60701
 H615 H 0.50885 0.07600 0.57478
 H616 H 0.48005 0.04557 0.53872
 H617 H 0.55923 -0.00542 0.51568
 H618 H 0.58784 0.02598 0.55010
 C619 C 0.63274 0.63756 0.13469
 C620 C 0.66371 0.63853 0.13029
 C621 C 0.68205 0.65542 0.14979
 C622 C 0.66980 0.67231 0.17364
 C623 C 0.63900 0.67188 0.17797
 C624 C 0.62068 0.65439 0.15894
 C625 C 0.61322 0.61896 0.11426
 C626 C 0.58387 0.62830 0.10800
 C627 C 0.56540 0.61038 0.08950
 C628 C 0.57610 0.58321 0.07628
 C629 C 0.60540 0.57403 0.08191
 C630 C 0.62367 0.59149 0.10098
 C631 C 0.55654 0.56386 0.05729
 C632 C 0.56401 0.55760 0.02729
 C633 C 0.54607 0.53820 0.00975
 C634 C 0.52129 0.52292 0.02233
 C635 C 0.51302 0.53111 0.05202
 C636 C 0.53055 0.55115 0.06929
 H637 H 0.67387 0.62659 0.11155
 H638 H 0.70579 0.65579 0.14594
 H639 H 0.62921 0.68467 0.19642
 H640 H 0.59711 0.65376 0.16358
 H641 H 0.57514 0.64958 0.11715
 H642 H 0.54283 0.61786 0.08522
 H643 H 0.61389 0.55289 0.07213
 H644 H 0.64580 0.58305 0.10571
 H645 H 0.58362 0.56793 0.01741
 H646 H 0.55201 0.53440 -0.01359
 H647 H 0.49286 0.52233 0.06206
 H648 H 0.52408 0.55636 0.09223
   
