data_POSCAR
  _audit_creation_date              2014-09-24
  _audit_creation_method            'ToBaCCo'
  _symmetry_space_group_name_H-M    'P1'
  _symmetry_Int_Tables_number       1
  _symmetry_cell_setting            triclinic
  loop_
  _symmetry_equiv_pos_as_xyz
 x,y,z
_cell_length_a 29.9862
_cell_length_b 29.9865
_cell_length_c 30.4036
_cell_angle_alpha 90.000400
_cell_angle_beta 90.000200
_cell_angle_gamma 89.996800
loop_
  _atom_site_label
  _atom_site_type_symbol
  _atom_site_fract_x
  _atom_site_fract_y
  _atom_site_fract_z
N1 N 0.28288 0.27957 0.26793
 N2 N 0.71713 -0.27958 0.26792
 N3 N 0.77959 0.21712 0.76792
 N4 N 0.22041 -0.21715 0.76791
 N5 N 0.77958 -0.21713 0.76792
 N6 N 0.22042 0.21711 0.76793
 N7 N 0.28286 -0.27959 0.26791
 N8 N 0.71714 0.27959 0.26792
 O9 O 0.22277 0.04369 0.44219
 O10 O 0.21314 -0.04313 0.52730
 O11 O 0.21314 0.04311 0.52731
 O12 O 0.22276 -0.04371 0.44218
 O13 O 0.29583 -0.04369 0.45031
 O14 O 0.28624 0.04308 0.53545
 O15 O 0.28624 -0.04312 0.53545
 O16 O 0.29584 0.04365 0.45032
 Cu17 Cu 0.21065 -0.00001 0.48364
 Cu18 Cu 0.29840 -0.00002 0.49339
 C19 C 0.26093 0.05894 0.43205
 C20 C 0.24797 -0.05754 0.54641
 C21 C 0.24797 0.05751 0.54641
 C22 C 0.26093 -0.05896 0.43205
 O23 O 0.71376 0.04310 0.53545
 O24 O 0.70416 -0.04367 0.45031
 O25 O 0.71376 -0.04310 0.53545
 O26 O 0.70417 0.04368 0.45032
 O27 O 0.77724 0.04370 0.44219
 O28 O 0.78686 -0.04312 0.52731
 O29 O 0.77723 -0.04370 0.44218
 O30 O 0.78686 0.04311 0.52731
 Cu31 Cu 0.70160 0.00000 0.49339
 Cu32 Cu 0.78935 -0.00000 0.48364
 C33 C 0.75203 0.05752 0.54641
 C34 C 0.73907 -0.05895 0.43205
 C35 C 0.75203 -0.05752 0.54641
 C36 C 0.73907 0.05895 0.43205
 O37 O 0.45691 0.21375 0.03546
 O38 O 0.54368 0.20415 -0.04968
 O39 O 0.54311 0.21375 0.03546
 O40 O 0.45634 0.20415 -0.04968
 O41 O 0.45630 0.27722 -0.05781
 O42 O 0.54312 0.28685 0.02731
 O43 O 0.54371 0.27722 -0.05781
 O44 O 0.45689 0.28685 0.02731
 Cu45 Cu 0.50001 0.20159 -0.00661
 Cu46 Cu 0.50000 0.28933 -0.01636
 C47 C 0.44248 0.25202 0.04642
 C48 C 0.55896 0.23906 -0.06794
 C49 C 0.55753 0.25202 0.04642
 C50 C 0.44105 0.23905 -0.06794
 O51 O 0.54311 0.71314 0.02730
 O52 O 0.45629 0.72276 -0.05782
 O53 O 0.54370 0.72276 -0.05782
 O54 O 0.45688 0.71313 0.02730
 O55 O 0.45689 0.78623 0.03545
 O56 O 0.54366 0.79584 -0.04969
 O57 O 0.45632 0.79583 -0.04969
 O58 O 0.54309 0.78624 0.03545
 Cu59 Cu 0.50000 0.71065 -0.01637
 Cu60 Cu 0.49999 0.79840 -0.00662
 C61 C 0.55752 0.74797 0.04641
 C62 C 0.44104 0.76093 -0.06796
 C63 C 0.55894 0.76093 -0.06796
 C64 C 0.44247 0.74797 0.04641
 O65 O 0.04369 0.45669 0.22171
 O66 O -0.04369 0.54330 0.22171
 O67 O 0.04368 0.54330 0.22171
 O68 O -0.04368 0.45669 0.22171
 O69 O -0.04346 0.45679 0.29425
 O70 O 0.04346 0.54320 0.29425
 O71 O -0.04346 0.54320 0.29425
 O72 O 0.04346 0.45679 0.29425
 Cu73 Cu 0.00000 0.49999 0.21441
 Cu74 Cu 0.00000 0.50000 0.30149
 C75 C 0.05885 0.44227 0.25807
 C76 C -0.05885 0.55773 0.25806
 C77 C 0.05885 0.55772 0.25806
 C78 C -0.05885 0.44227 0.25807
 O79 O 0.04330 0.54367 0.72171
 O80 O -0.04330 0.45630 0.72171
 O81 O -0.04331 0.54367 0.72171
 O82 O 0.04330 0.45630 0.72171
 O83 O 0.04321 0.45653 0.79425
 O84 O -0.04321 0.54345 0.79425
 O85 O -0.04320 0.45653 0.79425
 O86 O 0.04320 0.54345 0.79425
 Cu87 Cu -0.00000 0.49999 0.71441
 Cu88 Cu -0.00000 0.49999 0.80148
 C89 C 0.05773 0.55884 0.75806
 C90 C -0.05773 0.44114 0.75806
 C91 C -0.05773 0.55884 0.75806
 C92 C 0.05773 0.44113 0.75806
 C93 C 0.35230 0.26468 0.15538
 C94 C 0.36665 0.22245 0.14186
 C95 C 0.39505 0.21815 0.10562
 C96 C 0.30552 0.27395 0.22854
 C97 C 0.39409 0.29837 0.09575
 C98 C 0.36567 0.30256 0.13197
 C99 C 0.32615 0.26946 0.19478
 C100 C 0.40960 0.25615 0.08253
 H101 H 0.35664 0.19291 0.15987
 H102 H 0.40639 0.18519 0.09632
 H103 H 0.40463 0.32828 0.07870
 H104 H 0.35490 0.33543 0.14226
 C105 C 0.64770 0.73531 0.15537
 C106 C 0.63433 0.69743 0.13195
 C107 C 0.60592 0.70162 0.09574
 C108 C 0.69449 0.72605 0.22853
 C109 C 0.60495 0.78183 0.10561
 C110 C 0.63335 0.77755 0.14184
 C111 C 0.67385 0.73053 0.19477
 C112 C 0.59040 0.74383 0.08252
 H113 H 0.64510 0.66456 0.14225
 H114 H 0.59537 0.67171 0.07869
 H115 H 0.59361 0.81480 0.09631
 H116 H 0.64336 0.80708 0.15985
 C117 C 0.66827 0.22830 -0.15858
 C118 C 0.64923 0.18985 -0.14050
 C119 C 0.61304 0.19326 -0.11172
 C120 C 0.74070 0.22142 -0.20777
 C121 C 0.61427 0.27370 -0.11961
 C122 C 0.65050 0.27019 -0.14838
 C123 C 0.70731 0.22478 -0.18588
 C124 C 0.59545 0.23527 -0.10056
 H125 H 0.66281 0.15726 -0.14809
 H126 H 0.59934 0.16304 -0.09766
 H127 H 0.60155 0.30653 -0.11169
 H128 H 0.66509 0.30018 -0.16209
 C129 C 0.33173 0.77168 -0.15859
 C130 C 0.34950 0.72979 -0.14839
 C131 C 0.38573 0.72628 -0.11962
 C132 C 0.25930 0.77856 -0.20778
 C133 C 0.38696 0.80672 -0.11173
 C134 C 0.35077 0.81013 -0.14052
 C135 C 0.29269 0.77519 -0.18589
 C136 C 0.40455 0.76471 -0.10058
 H137 H 0.33491 0.69980 -0.16210
 H138 H 0.39845 0.69345 -0.11170
 H139 H 0.40066 0.83694 -0.09767
 H140 H 0.33719 0.84272 -0.14810
 C141 C 0.16974 0.35170 0.26016
 C142 C 0.15305 0.36712 0.21994
 C143 C 0.11615 0.39569 0.21905
 C144 C 0.24347 0.30348 0.26408
 C145 C 0.11208 0.39276 0.29864
 C146 C 0.14887 0.36420 0.29942
 C147 C 0.20954 0.32494 0.26163
 C148 C 0.09562 0.40929 0.25848
 H149 H 0.16905 0.35775 0.18935
 H150 H 0.10434 0.40787 0.18761
 H151 H 0.09707 0.40253 0.32956
 H152 H 0.16158 0.35254 0.33074
 C153 C 0.14829 0.66971 0.76014
 C154 C 0.13579 0.64885 0.79940
 C155 C 0.10724 0.61206 0.79863
 C156 C 0.19651 0.74345 0.76407
 C157 C 0.10430 0.61613 0.71904
 C158 C 0.13286 0.65303 0.71992
 C159 C 0.17504 0.70952 0.76161
 C160 C 0.09070 0.59560 0.75847
 H161 H 0.14746 0.66156 0.83072
 H162 H 0.09747 0.59705 0.82955
 H163 H 0.09211 0.60432 0.68761
 H164 H 0.14223 0.66902 0.68934
 C165 C -0.16973 0.64829 0.26015
 C166 C -0.14887 0.63580 0.29941
 C167 C -0.11208 0.60724 0.29863
 C168 C -0.24347 0.69652 0.26407
 C169 C -0.11615 0.60430 0.21905
 C170 C -0.15305 0.63287 0.21993
 C171 C -0.20954 0.67505 0.26162
 C172 C -0.09562 0.59070 0.25847
 H173 H -0.16158 0.64746 0.33073
 H174 H -0.09706 0.59747 0.32956
 H175 H -0.10434 0.59211 0.18761
 H176 H -0.16905 0.64223 0.18934
 C177 C -0.14829 0.33026 0.76015
 C178 C -0.13580 0.35113 0.79941
 C179 C -0.10724 0.38792 0.79863
 C180 C -0.19651 0.25653 0.76408
 C181 C -0.10430 0.38385 0.71905
 C182 C -0.13287 0.34695 0.71993
 C183 C -0.17505 0.29046 0.76162
 C184 C -0.09070 0.40437 0.75847
 H185 H -0.14746 0.33842 0.83073
 H186 H -0.09747 0.40293 0.82956
 H187 H -0.09211 0.39565 0.68761
 H188 H -0.14223 0.33095 0.68935
 C189 C 0.27169 0.16825 0.34142
 C190 C 0.22980 0.15049 0.35162
 C191 C 0.22629 0.11426 0.38039
 C192 C 0.27858 0.24068 0.29224
 C193 C 0.30673 0.11301 0.38828
 C194 C 0.31014 0.14920 0.35950
 C195 C 0.27521 0.20729 0.31412
 C196 C 0.26472 0.09543 0.39943
 H197 H 0.19981 0.16508 0.33791
 H198 H 0.19346 0.10154 0.38830
 H199 H 0.33695 0.09931 0.40234
 H200 H 0.34273 0.16278 0.35192
 C201 C 0.76470 0.14770 0.65538
 C202 C 0.80258 0.13432 0.63196
 C203 C 0.79839 0.10591 0.59575
 C204 C 0.77397 0.19449 0.72854
 C205 C 0.71817 0.10496 0.60562
 C206 C 0.72246 0.13336 0.64185
 C207 C 0.76948 0.17385 0.69478
 C208 C 0.75617 0.09041 0.58252
 H209 H 0.83545 0.14509 0.64226
 H210 H 0.82829 0.09535 0.57870
 H211 H 0.68520 0.09363 0.59632
 H212 H 0.69293 0.14337 0.65986
 C213 C 0.23530 -0.14772 0.65537
 C214 C 0.27754 -0.13338 0.64184
 C215 C 0.28183 -0.10498 0.60561
 C216 C 0.22603 -0.19451 0.72853
 C217 C 0.20161 -0.10593 0.59574
 C218 C 0.19742 -0.13434 0.63195
 C219 C 0.23052 -0.17387 0.69477
 C220 C 0.24383 -0.09043 0.58252
 H221 H 0.30707 -0.14340 0.65985
 H222 H 0.31479 -0.09365 0.59631
 H223 H 0.17171 -0.09537 0.57869
 H224 H 0.16455 -0.14511 0.64225
 C225 C 0.72831 -0.16826 0.34141
 C226 C 0.68986 -0.14921 0.35949
 C227 C 0.69327 -0.11302 0.38827
 C228 C 0.72142 -0.24068 0.29222
 C229 C 0.77371 -0.11427 0.38038
 C230 C 0.77020 -0.15049 0.35161
 C231 C 0.72479 -0.20730 0.31411
 C232 C 0.73528 -0.09543 0.39943
 H233 H 0.65727 -0.16279 0.35190
 H234 H 0.66305 -0.09932 0.40233
 H235 H 0.80654 -0.10155 0.38830
 H236 H 0.80019 -0.16509 0.33790
 C237 C 0.66826 0.77169 -0.15859
 C238 C 0.65049 0.72980 -0.14839
 C239 C 0.61426 0.72629 -0.11962
 C240 C 0.74068 0.77857 -0.20777
 C241 C 0.61302 0.80673 -0.11173
 C242 C 0.64920 0.81014 -0.14051
 C243 C 0.70730 0.77521 -0.18589
 C244 C 0.59543 0.76472 -0.10057
 H245 H 0.66508 0.69981 -0.16210
 H246 H 0.60154 0.69346 -0.11170
 H247 H 0.59932 0.83695 -0.09767
 H248 H 0.66279 0.84273 -0.14810
 C249 C 0.33174 0.22829 -0.15858
 C250 C 0.35079 0.18984 -0.14050
 C251 C 0.38698 0.19325 -0.11171
 C252 C 0.25932 0.22141 -0.20776
 C253 C 0.38573 0.27369 -0.11961
 C254 C 0.34951 0.27018 -0.14838
 C255 C 0.29270 0.22477 -0.18588
 C256 C 0.40457 0.23527 -0.10056
 H257 H 0.33721 0.15725 -0.14808
 H258 H 0.40068 0.16303 -0.09765
 H259 H 0.39846 0.30652 -0.11170
 H260 H 0.33491 0.30017 -0.16209
 C261 C 0.35229 0.73530 0.15537
 C262 C 0.36567 0.69742 0.13195
 C263 C 0.39408 0.70161 0.09573
 C264 C 0.30550 0.72603 0.22853
 C265 C 0.39503 0.78183 0.10561
 C266 C 0.36663 0.77753 0.14184
 C267 C 0.32614 0.73052 0.19476
 C268 C 0.40958 0.74383 0.08251
 H269 H 0.35490 0.66455 0.14225
 H270 H 0.40463 0.67171 0.07869
 H271 H 0.40636 0.81479 0.09631
 H272 H 0.35662 0.80706 0.15985
 C273 C 0.64771 0.26469 0.15538
 C274 C 0.63337 0.22246 0.14185
 C275 C 0.60497 0.21816 0.10562
 C276 C 0.69450 0.27396 0.22854
 C277 C 0.60592 0.29838 0.09575
 C278 C 0.63433 0.30257 0.13196
 C279 C 0.67386 0.26948 0.19478
 C280 C 0.59042 0.25616 0.08253
 H281 H 0.64338 0.19293 0.15986
 H282 H 0.59364 0.18520 0.09632
 H283 H 0.59537 0.32828 0.07870
 H284 H 0.64510 0.33545 0.14226
 C285 C -0.14830 0.66972 0.76015
 C286 C -0.13580 0.64886 0.79941
 C287 C -0.10724 0.61207 0.79863
 C288 C -0.19652 0.74346 0.76407
 C289 C -0.10431 0.61613 0.71904
 C290 C -0.13287 0.65304 0.71993
 C291 C -0.17506 0.70953 0.76162
 C292 C -0.09071 0.59561 0.75847
 H293 H -0.14746 0.66157 0.83073
 H294 H -0.09747 0.59705 0.82956
 H295 H -0.09212 0.60433 0.68761
 H296 H -0.14224 0.66904 0.68934
 C297 C -0.16973 0.35171 0.26015
 C298 C -0.14887 0.36421 0.29941
 C299 C -0.11207 0.39276 0.29864
 C300 C -0.24346 0.30349 0.26408
 C301 C -0.11614 0.39569 0.21905
 C302 C -0.15304 0.36713 0.21993
 C303 C -0.20953 0.32495 0.26162
 C304 C -0.09561 0.40930 0.25848
 H305 H -0.16157 0.35255 0.33074
 H306 H -0.09706 0.40253 0.32956
 H307 H -0.10433 0.40788 0.18761
 H308 H -0.16904 0.35776 0.18935
 C309 C 0.14830 0.33025 0.76015
 C310 C 0.13287 0.34694 0.71993
 C311 C 0.10431 0.38384 0.71905
 C312 C 0.19652 0.25651 0.76408
 C313 C 0.10724 0.38791 0.79863
 C314 C 0.13580 0.35112 0.79941
 C315 C 0.17505 0.29044 0.76163
 C316 C 0.09070 0.40437 0.75847
 H317 H 0.14224 0.33094 0.68935
 H318 H 0.09212 0.39565 0.68761
 H319 H 0.09747 0.40293 0.82956
 H320 H 0.14746 0.33841 0.83074
 C321 C 0.16973 0.64828 0.26014
 C322 C 0.14887 0.63579 0.29941
 C323 C 0.11207 0.60723 0.29863
 C324 C 0.24346 0.69650 0.26407
 C325 C 0.11614 0.60430 0.21904
 C326 C 0.15304 0.63286 0.21993
 C327 C 0.20953 0.67504 0.26161
 C328 C 0.09562 0.59070 0.25847
 H329 H 0.16157 0.64745 0.33073
 H330 H 0.09706 0.59747 0.32956
 H331 H 0.10433 0.59211 0.18761
 H332 H 0.16904 0.64223 0.18934
 C333 C 0.76469 -0.14771 0.65537
 C334 C 0.80257 -0.13433 0.63196
 C335 C 0.79838 -0.10592 0.59574
 C336 C 0.77395 -0.19449 0.72853
 C337 C 0.71816 -0.10496 0.60561
 C338 C 0.72245 -0.13336 0.64185
 C339 C 0.76947 -0.17386 0.69477
 C340 C 0.75616 -0.09041 0.58252
 H341 H 0.83544 -0.14511 0.64226
 H342 H 0.82829 -0.09537 0.57870
 H343 H 0.68520 -0.09362 0.59631
 H344 H 0.69292 -0.14337 0.65985
 C345 C 0.27168 -0.16827 0.34141
 C346 C 0.22979 -0.15050 0.35161
 C347 C 0.22628 -0.11428 0.38038
 C348 C 0.27857 -0.24070 0.29222
 C349 C 0.30673 -0.11304 0.38827
 C350 C 0.31013 -0.14923 0.35948
 C351 C 0.27520 -0.20732 0.31411
 C352 C 0.26471 -0.09545 0.39943
 H353 H 0.19980 -0.16509 0.33790
 H354 H 0.19346 -0.10155 0.38830
 H355 H 0.33695 -0.09934 0.40233
 H356 H 0.34272 -0.16282 0.35190
 C357 C 0.72832 0.16827 0.34142
 C358 C 0.68987 0.14922 0.35949
 C359 C 0.69327 0.11304 0.38828
 C360 C 0.72143 0.24069 0.29223
 C361 C 0.77372 0.11427 0.38039
 C362 C 0.77021 0.15050 0.35162
 C363 C 0.72480 0.20731 0.31412
 C364 C 0.73529 0.09544 0.39943
 H365 H 0.65728 0.16281 0.35191
 H366 H 0.66305 0.09934 0.40234
 H367 H 0.80654 0.10154 0.38831
 H368 H 0.80020 0.16509 0.33791
 C369 C 0.23531 0.14768 0.65538
 C370 C 0.27755 0.13334 0.64185
 C371 C 0.28184 0.10494 0.60562
 C372 C 0.22605 0.19447 0.72854
 C373 C 0.20162 0.10590 0.59575
 C374 C 0.19743 0.13431 0.63197
 C375 C 0.23053 0.17383 0.69478
 C376 C 0.24384 0.09039 0.58252
 H377 H 0.30708 0.14334 0.65986
 H378 H 0.31480 0.09360 0.59632
 H379 H 0.17171 0.09536 0.57870
 H380 H 0.16456 0.14509 0.64226
   
