data_POSCAR
  _audit_creation_date              2014-09-24
  _audit_creation_method            'ToBaCCo'
  _symmetry_space_group_name_H-M    'P1'
  _symmetry_Int_Tables_number       1
  _symmetry_cell_setting            triclinic
  loop_
  _symmetry_equiv_pos_as_xyz
 x,y,z
_cell_length_a 21.3762
_cell_length_b 21.2010
_cell_length_c 21.0016
_cell_angle_alpha 88.695700
_cell_angle_beta 89.752600
_cell_angle_gamma 89.947500
loop_
  _atom_site_label
  _atom_site_type_symbol
  _atom_site_fract_x
  _atom_site_fract_y
  _atom_site_fract_z
N1 N 0.32514 0.20280 0.16127
 N2 N 0.30148 0.25192 0.13073
 C3 C 0.33780 0.26590 0.07990
 C4 C 0.38535 0.22169 0.07737
 C5 C 0.37649 0.18311 0.13047
 H6 H 0.33295 0.30800 0.05067
 H7 H 0.40700 0.14558 0.14723
 Cu8 Cu 0.22843 0.29529 0.16362
 Cu9 Cu 0.29399 0.17535 0.24386
 Cu10 Cu 0.13933 0.21648 0.27128
 N11 N 0.14999 0.32985 0.19400
 N12 N 0.11539 0.29978 0.23674
 C13 C 0.06553 0.33596 0.25099
 C14 C 0.06882 0.39140 0.21457
 C15 C 0.12333 0.38574 0.17946
 H16 H 0.03211 0.32401 0.28784
 H17 H 0.14292 0.42089 0.14702
 N18 N 0.18221 0.14593 0.31704
 N19 N 0.24203 0.13321 0.30830
 C20 C 0.25999 0.08788 0.34998
 C21 C 0.20868 0.06899 0.38527
 C22 C 0.16039 0.10796 0.36452
 H23 H 0.30756 0.07148 0.35600
 H24 H 0.11404 0.11090 0.38510
 H25 H 0.20776 0.18939 0.20613
 H26 H 0.22905 0.24550 0.26973
 N27 N 0.67318 -0.19192 0.15915
 N28 N 0.70386 -0.22855 0.12043
 C29 C 0.66811 -0.24044 0.06977
 C30 C 0.61118 -0.20975 0.07665
 C31 C 0.61630 -0.17977 0.13474
 H32 H 0.68059 -0.27479 0.03530
 H33 H 0.58121 -0.15158 0.15808
 Cu34 Cu 0.78359 -0.26488 0.14391
 Cu35 Cu 0.70782 -0.16839 0.24068
 Cu36 Cu 0.86676 -0.19955 0.25949
 N37 N 0.85363 -0.30891 0.18237
 N38 N 0.88961 -0.28180 0.22423
 C39 C 0.93700 -0.32139 0.23930
 C40 C 0.92932 -0.37707 0.20605
 C41 C 0.87523 -0.36712 0.17102
 H42 H 0.97075 -0.31206 0.27582
 H43 H 0.85385 -0.39931 0.13833
 N44 N 0.82081 -0.13629 0.31001
 N45 N 0.75988 -0.12729 0.30460
 C46 C 0.74103 -0.08568 0.34811
 C47 C 0.79258 -0.06586 0.38134
 C48 C 0.84228 -0.10000 0.35712
 H49 H 0.69301 -0.07170 0.35610
 H50 H 0.88981 -0.10056 0.37460
 H51 H 0.79466 -0.16551 0.19963
 H52 H 0.77983 -0.23388 0.25498
 N53 N 0.66818 0.19369 0.83945
 N54 N 0.69051 0.24419 0.86629
 C55 C 0.65510 0.25794 0.91709
 C56 C 0.60873 0.21293 0.92326
 C57 C 0.61784 0.17332 0.87252
 H58 H 0.65930 0.30073 0.94346
 H59 H 0.58792 0.13492 0.85862
 Cu60 Cu 0.75824 0.29229 0.82798
 Cu61 Cu 0.70087 0.16531 0.75856
 Cu62 Cu 0.85563 0.20972 0.73471
 N63 N 0.83882 0.32498 0.80228
 N64 N 0.87845 0.29230 0.76831
 C65 C 0.93094 0.32670 0.75932
 C66 C 0.92327 0.38477 0.78843
 C67 C 0.86379 0.38129 0.81494
 H68 H 0.96872 0.31204 0.72913
 H69 H 0.84049 0.41687 0.84250
 N70 N 0.81496 0.13998 0.68833
 N71 N 0.75535 0.12539 0.69618
 C72 C 0.73908 0.08187 0.65381
 C73 C 0.79123 0.06635 0.61872
 C74 C 0.83827 0.10521 0.64065
 H75 H 0.69199 0.06477 0.64696
 H76 H 0.88478 0.11038 0.62073
 H77 H 0.78433 0.18484 0.79819
 H78 H 0.76440 0.23634 0.72785
 N79 N 0.33133 -0.20849 0.84325
 N80 N 0.31024 -0.26099 0.86985
 C81 C 0.34534 -0.27553 0.92118
 C82 C 0.38916 -0.22821 0.92812
 C83 C 0.37967 -0.18718 0.87713
 H84 H 0.34200 -0.31928 0.94833
 H85 H 0.40823 -0.14690 0.86360
 Cu86 Cu 0.24178 -0.30706 0.83188
 Cu87 Cu 0.30070 -0.17765 0.76171
 Cu88 Cu 0.14532 -0.21669 0.74118
 N89 N 0.16130 -0.33763 0.80378
 N90 N 0.12218 -0.30138 0.77178
 C91 C 0.06934 -0.33391 0.76107
 C92 C 0.07591 -0.39482 0.78653
 C93 C 0.13547 -0.39481 0.81304
 H94 H 0.03254 -0.31531 0.73172
 H95 H 0.15803 -0.43339 0.83853
 N96 N 0.18706 -0.14599 0.69429
 N97 N 0.24726 -0.13392 0.70029
 C98 C 0.26440 -0.08949 0.65717
 C99 C 0.21216 -0.07076 0.62361
 C100 C 0.16410 -0.10856 0.64714
 H101 H 0.31191 -0.07362 0.64908
 H102 H 0.11713 -0.11141 0.62847
 H103 H 0.21765 -0.19751 0.80325
 H104 H 0.23523 -0.24619 0.73222
 N105 N 0.68662 -0.19442 0.86025
 N106 N 0.69958 -0.25317 0.87684
 C107 C 0.65652 -0.27428 0.91909
 C108 C 0.61696 -0.22487 0.93325
 C109 C 0.63638 -0.17533 0.89375
 H110 H 0.65456 -0.32181 0.93884
 H111 H 0.61437 -0.12956 0.88839
 Cu112 Cu 0.77547 -0.29391 0.84727
 Cu113 Cu 0.73451 -0.14959 0.79344
 Cu114 Cu 0.83094 -0.24762 0.70563
 N115 N 0.85241 -0.32928 0.81324
 N116 N 0.87270 -0.31203 0.75644
 C117 C 0.92117 -0.34872 0.74020
 C118 C 0.93511 -0.38880 0.79107
 C119 C 0.88843 -0.37683 0.83552
 H120 H 0.94127 -0.34970 0.69285
 H121 H 0.87931 -0.40367 0.87900
 N122 N 0.80585 -0.16335 0.67596
 N123 N 0.76970 -0.12537 0.70872
 C124 C 0.75934 -0.07257 0.67321
 C125 C 0.79163 -0.07733 0.61584
 C126 C 0.82048 -0.13562 0.61984
 H127 H 0.72740 -0.03597 0.68686
 H128 H 0.84918 -0.15699 0.58368
 H129 H 0.74449 -0.23373 0.75206
 H130 H 0.81721 -0.20245 0.78868
 N131 N 0.30828 0.17758 0.86526
 N132 N 0.28848 0.23183 0.88683
 C133 C 0.33070 0.25420 0.92787
 C134 C 0.37842 0.21045 0.93460
 C135 C 0.36311 0.16284 0.89328
 H136 H 0.32851 0.30062 0.94762
 H137 H 0.39102 0.12177 0.88264
 Cu138 Cu 0.20939 0.26863 0.85938
 Cu139 Cu 0.26358 0.13435 0.79781
 Cu140 Cu 0.17211 0.23893 0.70922
 N141 N 0.13932 0.31083 0.81764
 N142 N 0.12747 0.30100 0.75738
 C143 C 0.08371 0.34188 0.73668
 C144 C 0.06439 0.37701 0.78753
 C145 C 0.10187 0.35739 0.83790
 H146 H 0.06883 0.34727 0.68768
 H147 H 0.10471 0.37860 0.88415
 N148 N 0.19745 0.15622 0.67897
 N149 N 0.23173 0.11573 0.71219
 C150 C 0.24169 0.06436 0.67692
 C151 C 0.21092 0.07263 0.61915
 C152 C 0.18342 0.13144 0.62267
 H153 H 0.27195 0.02612 0.69141
 H154 H 0.15552 0.15494 0.58643
 H155 H 0.25239 0.22192 0.76352
 H156 H 0.17785 0.18357 0.79028
 N157 N 0.31240 -0.17684 0.14122
 N158 N 0.29112 -0.22917 0.11685
 C159 C 0.33252 -0.25015 0.07375
 C160 C 0.38192 -0.20802 0.06958
 C161 C 0.36776 -0.16235 0.11369
 H162 H 0.32873 -0.29491 0.05078
 H163 H 0.39673 -0.12281 0.12645
 Cu164 Cu 0.21237 -0.26675 0.14540
 Cu165 Cu 0.26813 -0.13509 0.21039
 Cu166 Cu 0.17560 -0.24032 0.29727
 N167 N 0.14367 -0.31118 0.18799
 N168 N 0.13186 -0.30246 0.24861
 C169 C 0.08797 -0.34356 0.26896
 C170 C 0.06903 -0.37796 0.21766
 C171 C 0.10628 -0.35739 0.16722
 H172 H 0.07208 -0.34895 0.31775
 H173 H 0.10829 -0.37701 0.12017
 N174 N 0.20090 -0.15812 0.32896
 N175 N 0.23552 -0.11736 0.29622
 C176 C 0.24477 -0.06618 0.33184
 C177 C 0.21321 -0.07476 0.38938
 C178 C 0.18614 -0.13371 0.38546
 H179 H 0.27502 -0.02779 0.31772
 H180 H 0.15790 -0.15741 0.42151
 H181 H 0.25600 -0.22338 0.24223
 H182 H 0.18189 -0.18329 0.21719
 N183 N 0.68675 0.18724 0.13732
 N184 N 0.70363 0.24284 0.11412
 C185 C 0.66056 0.26320 0.07178
 C186 C 0.61542 0.21689 0.06635
 C187 C 0.63303 0.16979 0.10942
 H188 H 0.66068 0.30944 0.04917
 H189 H 0.60755 0.12695 0.12102
 Cu190 Cu 0.78077 0.28319 0.14096
 Cu191 Cu 0.73424 0.14421 0.20500
 Cu192 Cu 0.82847 0.24638 0.28838
 N193 N 0.85172 0.32605 0.17885
 N194 N 0.86895 0.31181 0.23740
 C195 C 0.91366 0.35199 0.25542
 C196 C 0.92725 0.39221 0.20476
 C197 C 0.88594 0.37554 0.15726
 H198 H 0.93169 0.35450 0.30330
 H199 H 0.87916 0.39982 0.11196
 N200 N 0.80423 0.16266 0.32145
 N201 N 0.76912 0.12305 0.28992
 C202 C 0.75984 0.07082 0.32658
 C203 C 0.79162 0.07760 0.38363
 C204 C 0.81907 0.13654 0.37825
 H205 H 0.72920 0.03291 0.31378
 H206 H 0.84729 0.15919 0.41369
 H207 H 0.74491 0.23083 0.23920
 H208 H 0.81853 0.19540 0.20794
 C209 C 0.21256 -0.03345 0.56371
 C210 C 0.21221 0.03320 0.56156
 C211 C 0.21083 0.06439 0.50181
 C212 C 0.21088 0.03132 0.44491
 C213 C 0.21335 -0.03535 0.44700
 C214 C 0.21349 -0.06660 0.50680
 H215 H 0.21519 -0.11770 0.50949
 H216 H 0.21069 0.11551 0.49903
 C217 C 0.79118 -0.03018 0.44080
 C218 C 0.79087 0.03650 0.44206
 C219 C 0.79141 0.06583 0.50156
 C220 C 0.79101 0.03088 0.55909
 C221 C 0.78995 -0.03581 0.55774
 C222 C 0.79047 -0.06508 0.49824
 H223 H 0.78965 -0.11612 0.49620
 H224 H 0.79097 0.11688 0.50352
 C225 C 0.44136 0.22270 0.03620
 C226 C 0.43815 0.21735 -0.03074
 C227 C 0.49388 0.21393 -0.06581
 C228 C 0.55253 0.21629 -0.03609
 C229 C 0.55574 0.22065 0.03090
 C230 C 0.50005 0.22344 0.06606
 H231 H 0.50246 0.22579 0.11754
 H232 H 0.49152 0.20979 -0.11713
 C233 C 0.44479 0.77117 -0.03093
 C234 C 0.44191 0.78441 0.03456
 C235 C 0.49795 0.79211 0.06800
 C236 C 0.55710 0.78519 0.03859
 C237 C 0.55912 0.77250 -0.02774
 C238 C 0.50308 0.76576 -0.06104
 H239 H 0.50483 0.75821 -0.11197
 H240 H 0.49480 0.80086 0.11851
 C241 C 0.03011 0.44951 0.21779
 C242 C -0.03526 0.45036 0.20789
 C243 C -0.06676 0.50841 0.20248
 C244 C -0.03553 0.56639 0.20980
 C245 C 0.03000 0.56498 0.21994
 C246 C 0.06160 0.50708 0.22334
 H247 H 0.11204 0.50702 0.22902
 H248 H -0.11700 0.50782 0.19566
 C249 C 0.02858 0.43611 0.78339
 C250 C -0.03748 0.43868 0.78714
 C251 C -0.06561 0.49858 0.79053
 C252 C -0.03099 0.55499 0.78677
 C253 C 0.03556 0.55214 0.78336
 C254 C 0.06356 0.49198 0.78241
 H255 H 0.11407 0.48784 0.77978
 H256 H -0.11618 0.50212 0.79240
   
