data_POSCAR
  _audit_creation_date              2014-09-24
  _audit_creation_method            'ToBaCCo'
  _symmetry_space_group_name_H-M    'P1'
  _symmetry_Int_Tables_number       1
  _symmetry_cell_setting            triclinic
  loop_
  _symmetry_equiv_pos_as_xyz
 x,y,z
_cell_length_a 35.3936
_cell_length_b 18.9697
_cell_length_c 13.8137
_cell_angle_alpha 90.740100
_cell_angle_beta 89.839600
_cell_angle_gamma 90.089500
loop_
  _atom_site_label
  _atom_site_type_symbol
  _atom_site_fract_x
  _atom_site_fract_y
  _atom_site_fract_z
O1 O 0.72961 0.32780 0.59612
 O2 O 0.79685 0.27577 0.40504
 O3 O 0.72942 0.33293 0.40983
 O4 O 0.79713 0.27099 0.59171
 O5 O 0.77135 0.16482 0.58411
 O6 O 0.70363 0.22677 0.40262
 O7 O 0.77104 0.16959 0.39873
 O8 O 0.70398 0.22144 0.59025
 Cu9 Cu 0.76584 0.31262 0.50133
 Cu10 Cu 0.73477 0.18504 0.49318
 C11 C 0.70501 0.28384 0.62428
 C12 C 0.79600 0.21318 0.37153
 C13 C 0.70459 0.29074 0.37694
 C14 C 0.79628 0.20688 0.61678
 O15 O 0.22811 0.82797 0.60036
 O16 O 0.29555 0.77274 0.41064
 O17 O 0.22847 0.83179 0.41372
 O18 O 0.29546 0.77021 0.59727
 O19 O 0.26932 0.66432 0.59025
 O20 O 0.20175 0.72639 0.40851
 O21 O 0.26865 0.66749 0.40485
 O22 O 0.20210 0.72197 0.59633
 Cu23 Cu 0.26452 0.81139 0.50602
 Cu24 Cu 0.23265 0.68451 0.49949
 C25 C 0.20331 0.78464 0.62942
 C26 C 0.29410 0.71005 0.37759
 C27 C 0.20331 0.79002 0.38155
 C28 C 0.29444 0.70617 0.62253
 O29 O 0.29494 0.22389 -0.40876
 O30 O 0.22759 0.17175 -0.59898
 O31 O 0.29510 0.22909 -0.59525
 O32 O 0.22753 0.16676 -0.41252
 O33 O 0.20166 0.27266 -0.40482
 O34 O 0.26954 0.33530 -0.58659
 O35 O 0.20210 0.27801 -0.59275
 O36 O 0.26908 0.32991 -0.40150
 Cu37 Cu 0.26384 0.18713 -0.50468
 Cu38 Cu 0.23283 0.31456 -0.49571
 C39 C 0.29403 0.28636 -0.37489
 C40 C 0.20304 0.21562 -0.62698
 C41 C 0.29446 0.29335 -0.61959
 C42 C 0.20271 0.20873 -0.37901
 O43 O -0.29708 0.77490 -0.40690
 O44 O -0.22954 0.83749 -0.58963
 O45 O -0.29679 0.77846 -0.59439
 O46 O -0.22983 0.83260 -0.40402
 O47 O -0.20372 0.72676 -0.40981
 O48 O -0.27017 0.67313 -0.60091
 O49 O -0.20303 0.73211 -0.59633
 O50 O -0.27102 0.66912 -0.41448
 Cu51 Cu -0.26606 0.81645 -0.49825
 Cu52 Cu -0.23436 0.68961 -0.50612
 C53 C -0.29595 0.71099 -0.38118
 C54 C -0.20412 0.79616 -0.62170
 C55 C -0.29533 0.71600 -0.62824
 C56 C -0.20488 0.78935 -0.37650
 O57 O -0.05325 0.88692 0.18499
 O58 O -0.09459 0.94604 0.08722
 C59 C -0.08707 0.90424 0.15803
 O60 O 0.05321 1.13313 0.16690
 O61 O 0.09492 1.06427 0.08017
 C62 C 0.08709 1.11309 0.14352
 O63 O -0.05266 1.12726 0.17401
 O64 O -0.09432 1.06262 0.08140
 C65 C -0.08652 1.10841 0.14880
 O66 O 0.05298 0.88013 0.17784
 O67 O 0.09484 0.94286 0.08493
 C68 C 0.08691 0.89794 0.15188
 Zr69 Zr 0.00001 0.91590 0.12673
 O70 O 0.00364 0.91658 0.27963
 O71 O -0.00426 0.80452 0.12547
 Zr72 Zr 0.00032 1.09459 0.11816
 O73 O 0.00381 1.10545 0.27049
 O74 O -0.00356 1.20548 0.10528
 O75 O -0.03330 1.00599 0.14167
 O76 O 0.03269 1.00574 0.14046
 O77 O 0.05330 0.86890 -0.16537
 O78 O 0.09496 0.93752 -0.07841
 C79 C 0.08717 0.88876 -0.14181
 O80 O -0.05233 1.11546 -0.18394
 O81 O -0.09415 1.05658 -0.08637
 C82 C -0.08627 1.09826 -0.15722
 O83 O 0.05381 1.12174 -0.17643
 O84 O 0.09524 1.05887 -0.08337
 C85 C 0.08762 1.10373 -0.15046
 O86 O -0.05256 0.87564 -0.17336
 O87 O -0.09430 0.94021 -0.08060
 C88 C -0.08645 0.89462 -0.14827
 Zr89 Zr 0.00037 0.90759 -0.11677
 O90 O 0.00427 0.89606 -0.26899
 O91 O -0.00396 0.79676 -0.10334
 Zr92 Zr 0.00064 1.08631 -0.12534
 O93 O 0.00470 1.08580 -0.27823
 O94 O -0.00329 1.19772 -0.12390
 Zr95 Zr -0.05579 1.00125 0.00054
 Zr96 Zr 0.05672 1.00098 0.00078
 O97 O 0.03307 0.99629 -0.13897
 O98 O -0.03288 0.99638 -0.14047
 O99 O 0.03421 0.89802 0.00564
 O100 O -0.03257 1.10330 -0.00424
 O101 O -0.03292 0.89906 0.00543
 O102 O 0.03454 1.10404 -0.00412
 H103 H 0.04914 1.00753 0.19835
 H104 H -0.04999 1.14411 -0.00616
 H105 H 0.04965 0.99440 -0.19684
 H106 H -0.05050 0.85838 0.00719
 H107 H 0.02023 1.22224 0.07557
 H108 H 0.02008 1.21654 -0.09403
 H109 H -0.01372 1.05077 -0.30300
 H110 H -0.01222 0.93233 -0.29738
 H111 H 0.01986 0.77982 -0.07447
 H112 H 0.01905 0.78558 0.09527
 H113 H -0.01480 0.95161 0.30425
 H114 H -0.01349 1.07019 0.29857
 O115 O 0.44702 0.38377 0.18298
 O116 O 0.40543 0.44311 0.08615
 C117 C 0.41315 0.40121 0.15659
 O118 O 0.55299 0.63070 0.16563
 O119 O 0.59454 0.56268 0.07714
 C120 C 0.58683 0.61126 0.14077
 O121 O 0.44678 0.62334 0.17470
 O122 O 0.40529 0.55882 0.08145
 C123 C 0.41294 0.60428 0.14930
 O124 O 0.55323 0.37792 0.17510
 O125 O 0.59469 0.44121 0.08188
 C126 C 0.58705 0.39619 0.14884
 Zr127 Zr 0.50012 0.41330 0.12445
 O128 O 0.50396 0.41326 0.27731
 O129 O 0.49615 0.30188 0.12224
 Zr130 Zr 0.49993 0.59207 0.11738
 O131 O 0.50371 0.60292 0.26964
 O132 O 0.49565 0.70295 0.10507
 O133 O 0.46663 0.50304 0.14045
 O134 O 0.53258 0.50341 0.13854
 O135 O 0.55299 0.36762 -0.16802
 O136 O 0.59459 0.43641 -0.08111
 C137 C 0.58682 0.38765 -0.14449
 O138 O 0.44672 0.61412 -0.18359
 O139 O 0.40529 0.55407 -0.08634
 C140 C 0.41289 0.59642 -0.15654
 O141 O 0.55292 0.62093 -0.17760
 O142 O 0.59457 0.55792 -0.08540
 C143 C 0.58680 0.60305 -0.15200
 O144 O 0.44713 0.37337 -0.17513
 O145 O 0.40544 0.43750 -0.08171
 C146 C 0.41325 0.39202 -0.14955
 Zr147 Zr 0.50004 0.40597 -0.11915
 O148 O 0.50380 0.39582 -0.27157
 O149 O 0.49599 0.29500 -0.10730
 Zr150 Zr 0.49988 0.58471 -0.12633
 O151 O 0.50364 0.58432 -0.27927
 O152 O 0.49576 0.69609 -0.12446
 Zr153 Zr 0.44390 0.49865 -0.00049
 Zr154 Zr 0.55634 0.49932 -0.00147
 O155 O 0.53251 0.49501 -0.14101
 O156 O 0.46652 0.49457 -0.14179
 O157 O 0.53411 0.39616 0.00285
 O158 O 0.46683 0.60096 -0.00462
 O159 O 0.46703 0.39664 0.00341
 O160 O 0.53390 0.60224 -0.00529
 H161 H 0.54915 0.50518 0.19622
 H162 H 0.44928 0.64159 -0.00583
 H163 H 0.54907 0.49345 -0.19894
 H164 H 0.44956 0.35579 0.00511
 H165 H 0.51950 0.72013 0.07616
 H166 H 0.51893 0.71494 -0.09361
 H167 H 0.48484 0.54998 -0.30396
 H168 H 0.48666 0.43131 -0.29927
 H169 H 0.51961 0.27818 -0.07728
 H170 H 0.51958 0.28327 0.09227
 H171 H 0.48545 0.44796 0.30245
 H172 H 0.48719 0.56645 0.29783
 C173 C 0.33875 0.38173 0.18926
 C174 C 0.33193 0.30246 0.20965
 C175 C 0.32493 0.32113 0.31674
 C176 C 0.33135 0.39987 0.29723
 C177 C 0.36707 0.31136 0.33989
 C178 C 0.37452 0.29306 0.23197
 C179 C 0.38089 0.37178 0.21253
 C180 C 0.37380 0.39032 0.31964
 H181 H 0.32743 0.41114 0.12676
 H182 H 0.31433 0.26609 0.16513
 H183 H 0.31316 0.44310 0.32528
 H184 H 0.37837 0.28218 0.40264
 H185 H 0.39270 0.24950 0.20457
 H186 H 0.39134 0.42668 0.36437
 C187 C -0.16160 0.88047 0.18761
 C188 C -0.16700 0.80149 0.21244
 C189 C -0.17526 0.82297 0.31799
 C190 C -0.17035 0.90138 0.29412
 C191 C -0.13316 0.81706 0.34400
 C192 C -0.12442 0.79602 0.23757
 C193 C -0.11948 0.87448 0.21369
 C194 C -0.12789 0.89573 0.31932
 H195 H -0.17299 0.90700 0.12276
 H196 H -0.18342 0.76251 0.16908
 H197 H -0.18961 0.94438 0.31807
 H198 H -0.12173 0.79079 0.40904
 H199 H -0.10515 0.75301 0.21381
 H200 H -0.11159 0.93487 0.36272
 C201 C 0.62862 0.61557 0.29687
 C202 C 0.67085 0.61391 0.26854
 C203 C 0.67468 0.69077 0.30408
 C204 C 0.63269 0.69256 0.33292
 C205 C 0.66528 0.71809 0.20267
 C206 C 0.66100 0.64065 0.16628
 C207 C 0.61903 0.64265 0.19545
 C208 C 0.62278 0.71948 0.23079
 H209 H 0.61325 0.57307 0.33512
 H210 H 0.69089 0.57068 0.28441
 H211 H 0.62132 0.71401 0.40224
 H212 H 0.68079 0.76047 0.16464
 H213 H 0.67225 0.61906 0.09691
 H214 H 0.60265 0.76253 0.21460
 C215 C 0.15141 1.19129 0.16267
 C216 C 0.14653 1.23949 0.25374
 C217 C 0.17459 1.19271 0.30829
 C218 C 0.18004 1.14511 0.21843
 C219 C 0.14220 1.14578 0.34456
 C220 C 0.11380 1.19210 0.28944
 C221 C 0.11906 1.14445 0.19945
 C222 C 0.14721 1.09798 0.25415
 H223 H 0.15473 1.20958 0.08710
 H224 H 0.14655 1.29801 0.25401
 H225 H 0.20758 1.12596 0.18993
 H226 H 0.13866 1.12714 0.41995
 H227 H 0.08636 1.21130 0.31851
 H228 H 0.14693 1.03955 0.25333
 C229 C 0.65107 0.30979 -0.16229
 C230 C 0.64660 0.26128 -0.25308
 C231 C 0.67493 0.30795 -0.30751
 C232 C 0.67993 0.35594 -0.21790
 C233 C 0.64269 0.35455 -0.34453
 C234 C 0.61404 0.30827 -0.28962
 C235 C 0.61891 0.35627 -0.19994
 C236 C 0.64729 0.40272 -0.25447
 H237 H 0.65404 0.29180 -0.08653
 H238 H 0.64669 0.20277 -0.25305
 H239 H 0.70735 0.37532 -0.18919
 H240 H 0.63954 0.37285 -0.42014
 H241 H 0.58672 0.28882 -0.31897
 H242 H 0.64697 0.46115 -0.25408
 C243 C 0.15136 0.81039 -0.16038
 C244 C 0.14655 0.76189 -0.25110
 C245 C 0.17488 0.80833 -0.30600
 C246 C 0.18026 0.85624 -0.21646
 C247 C 0.14270 0.85523 -0.34264
 C248 C 0.11405 0.80924 -0.28719
 C249 C 0.11923 0.85720 -0.19754
 C250 C 0.14763 0.90336 -0.25254
 H251 H 0.15446 0.79237 -0.08468
 H252 H 0.14640 0.70337 -0.25091
 H253 H 0.20778 0.87540 -0.18810
 H254 H 0.13939 0.87361 -0.41816
 H255 H 0.08662 0.79001 -0.31615
 H256 H 0.14747 0.96177 -0.25207
 C257 C 0.37272 0.60717 -0.31766
 C258 C 0.33024 0.59960 -0.29319
 C259 C 0.32477 0.67832 -0.31396
 C260 C 0.36692 0.68614 -0.33908
 C261 C 0.33248 0.69775 -0.20751
 C262 C 0.33840 0.61846 -0.18585
 C263 C 0.38055 0.62641 -0.21121
 C264 C 0.37509 0.70518 -0.23185
 H265 H 0.38950 0.56951 -0.36241
 H266 H 0.31136 0.55662 -0.31921
 H267 H 0.37839 0.71443 -0.40259
 H268 H 0.31558 0.73526 -0.16289
 H269 H 0.32698 0.59015 -0.12227
 H270 H 0.39395 0.74828 -0.20611
 C271 C -0.12611 1.10696 -0.31934
 C272 C -0.16868 1.10087 -0.29524
 C273 C -0.17356 1.17929 -0.31883
 C274 C -0.13131 1.18564 -0.34363
 C275 C -0.16593 1.20043 -0.21290
 C276 C -0.16062 1.12146 -0.18842
 C277 C -0.11836 1.12793 -0.21338
 C278 C -0.12322 1.20642 -0.23690
 H279 H -0.10952 1.06808 -0.36255
 H280 H -0.18780 1.05790 -0.32014
 H281 H -0.11957 1.21227 -0.40822
 H282 H -0.18265 1.23914 -0.16981
 H283 H -0.17238 1.09462 -0.12404
 H284 H -0.10414 1.24952 -0.21236
 C285 C 0.62446 0.71190 -0.23074
 C286 C 0.66722 0.70460 -0.20878
 C287 C 0.67417 0.68356 -0.31519
 C288 C 0.63187 0.69125 -0.33791
 C289 C 0.66866 0.60519 -0.29179
 C290 C 0.66126 0.62565 -0.18453
 C291 C 0.61897 0.63353 -0.20750
 C292 C 0.62607 0.61268 -0.31392
 H293 H 0.60592 0.75545 -0.20503
 H294 H 0.68455 0.74264 -0.16621
 H295 H 0.62005 0.71843 -0.40172
 H296 H 0.68715 0.56155 -0.31751
 H297 H 0.67302 0.59835 -0.12073
 H298 H 0.60887 0.57452 -0.35666
 C299 C 0.12666 1.11169 -0.31257
 C300 C 0.13218 1.19002 -0.33842
 C301 C 0.17452 1.18291 -0.31601
 C302 C 0.16932 1.10476 -0.29090
 C303 C 0.16783 1.20515 -0.20998
 C304 C 0.12498 1.21182 -0.23152
 C305 C 0.11976 1.13368 -0.20646
 C306 C 0.16211 1.12642 -0.18392
 H307 H 0.10945 1.07288 -0.35420
 H308 H 0.12013 1.21625 -0.40274
 H309 H 0.18782 1.06091 -0.31590
 H310 H 0.18514 1.24384 -0.16849
 H311 H 0.10639 1.25548 -0.20642
 H312 H 0.17406 1.09996 -0.11968
 C313 C 0.34946 0.40605 -0.24742
 C314 C 0.35369 0.36539 -0.34435
 C315 C 0.32460 0.31112 -0.30888
 C316 C 0.31997 0.35157 -0.21246
 C317 C 0.35625 0.26567 -0.26619
 C318 C 0.38562 0.32030 -0.30117
 C319 C 0.38110 0.36082 -0.20472
 C320 C 0.35213 0.30664 -0.16866
 H321 H 0.34735 0.46389 -0.23780
 H322 H 0.35402 0.38945 -0.41723
 H323 H 0.29263 0.36419 -0.17674
 H324 H 0.35870 0.20757 -0.27433
 H325 H 0.41284 0.30770 -0.33753
 H326 H 0.35197 0.28293 -0.09561
 C327 C -0.15068 0.90883 -0.24461
 C328 C -0.14617 0.87049 -0.34323
 C329 C -0.17461 0.81440 -0.30982
 C330 C -0.17955 0.85252 -0.21175
 C331 C -0.14244 0.76918 -0.26925
 C332 C -0.11372 0.82561 -0.30219
 C333 C -0.11851 0.86379 -0.20408
 C334 C -0.14686 0.80781 -0.17009
 H335 H -0.15342 0.96633 -0.23227
 H336 H -0.14619 0.89618 -0.41503
 H337 H -0.20697 0.86334 -0.17539
 H338 H -0.13938 0.71136 -0.27983
 H339 H -0.08642 0.81477 -0.33925
 H340 H -0.14666 0.78247 -0.09810
 C341 C 0.37005 0.60794 0.30581
 C342 C 0.36623 0.68509 0.34157
 C343 C 0.32445 0.68416 0.31113
 C344 C 0.32800 0.60721 0.27587
 C345 C 0.33486 0.71119 0.21009
 C346 C 0.37710 0.71173 0.23978
 C347 C 0.38060 0.63476 0.20480
 C348 C 0.33885 0.63369 0.17399
 H349 H 0.38481 0.56522 0.34470
 H350 H 0.37722 0.70651 0.41114
 H351 H 0.30722 0.56490 0.29079
 H352 H 0.31998 0.75385 0.17141
 H353 H 0.39770 0.75436 0.22439
 H354 H 0.32798 0.61216 0.10431
 C355 C -0.15027 1.09457 0.24782
 C356 C -0.14591 1.13567 0.34436
 C357 C -0.17497 1.18963 0.30891
 C358 C -0.17979 1.14876 0.21297
 C359 C -0.14338 1.23512 0.26522
 C360 C -0.11401 1.18073 0.30007
 C361 C -0.11866 1.13975 0.20406
 C362 C -0.14764 1.19364 0.16811
 H363 H -0.15238 1.03669 0.23864
 H364 H -0.14546 1.11190 0.41743
 H365 H -0.20717 1.13586 0.17791
 H366 H -0.14086 1.29327 0.27272
 H367 H -0.08674 1.19360 0.33573
 H368 H -0.14785 1.21699 0.09484
 C369 C 0.66155 0.37495 0.18047
 C370 C 0.66888 0.39599 0.28747
 C371 C 0.67464 0.31777 0.31137
 C372 C 0.66774 0.29620 0.20522
 C373 C 0.63236 0.30949 0.33479
 C374 C 0.62632 0.38788 0.31026
 C375 C 0.61929 0.36646 0.20411
 C376 C 0.62500 0.28828 0.22788
 H377 H 0.67321 0.40215 0.11625
 H378 H 0.68718 0.44005 0.31266
 H379 H 0.68517 0.25828 0.16267
 H380 H 0.62065 0.28247 0.39910
 H381 H 0.60899 0.42589 0.35298
 H382 H 0.60659 0.24434 0.20276
 C383 C 0.16126 0.87426 0.18378
 C384 C 0.16877 0.89560 0.29060
 C385 C 0.17366 0.81735 0.31539
 C386 C 0.16660 0.79544 0.20943
 C387 C 0.13130 0.81080 0.33877
 C388 C 0.12612 0.88923 0.31338
 C389 C 0.11891 0.86751 0.20741
 C390 C 0.12377 0.78927 0.23205
 H391 H 0.17324 0.90067 0.11933
 H392 H 0.18757 0.93909 0.31529
 H393 H 0.18363 0.75662 0.16736
 H394 H 0.11927 0.78457 0.40332
 H395 H 0.10920 0.92816 0.35562
 H396 H 0.10490 0.74588 0.20734
   
