data_POSCAR
  _audit_creation_date              2014-09-24
  _audit_creation_method            'ToBaCCo'
  _symmetry_space_group_name_H-M    'P1'
  _symmetry_Int_Tables_number       1
  _symmetry_cell_setting            triclinic
  loop_
  _symmetry_equiv_pos_as_xyz
 x,y,z
_cell_length_a 18.1230
_cell_length_b 18.0972
_cell_length_c 18.0364
_cell_angle_alpha 90.403600
_cell_angle_beta 90.091300
_cell_angle_gamma 90.096300
loop_
  _atom_site_label
  _atom_site_type_symbol
  _atom_site_fract_x
  _atom_site_fract_y
  _atom_site_fract_z
C1 C 0.49924 1.02265 -0.69733
 C2 C 0.43346 1.00350 -0.66029
 C3 C 0.43842 0.97888 -0.58661
 C4 C 0.50485 0.98459 -0.54625
 C5 C 0.56906 1.00534 -0.58473
 C6 C 0.56820 1.02075 -0.66099
 C7 C 0.50589 0.97661 -0.46330
 C8 C 0.57284 0.96691 -0.42433
 C9 C 0.57589 0.97535 -0.34716
 C10 C 0.50986 0.98221 -0.30714
 C11 C 0.44168 0.98807 -0.34387
 C12 C 0.44088 0.98760 -0.42161
 H13 H 0.49675 1.03374 -0.75603
 H14 H 0.38896 0.96014 -0.55935
 H15 H 0.62007 1.01387 -0.55510
 H16 H 0.62403 0.95750 -0.45337
 H17 H 0.51244 0.98466 -0.24724
 H18 H 0.38935 1.00009 -0.44872
 C19 C -0.69360 1.49461 0.00867
 C20 C -0.65153 1.42937 0.01495
 C21 C -0.57475 1.43439 0.00620
 C22 C -0.54022 1.50184 -0.01116
 C23 C -0.58451 1.56510 -0.02031
 C24 C -0.66102 1.56380 -0.00708
 C25 C -0.45776 1.50733 -0.01571
 C26 C -0.42172 1.57513 -0.00253
 C27 C -0.34515 1.58089 -0.00646
 C28 C -0.30263 1.51728 -0.01797
 C29 C -0.33643 1.44766 -0.02751
 C30 C -0.41404 1.44457 -0.03053
 H31 H -0.75295 1.49061 0.01120
 H32 H -0.54183 1.38594 0.01704
 H33 H -0.55838 1.61589 -0.03589
 H34 H -0.45206 1.62431 0.01256
 H35 H -0.24375 1.52325 -0.01890
 H36 H -0.44014 1.39281 -0.04521
 C37 C 0.00796 0.30940 0.49106
 C38 C 0.01025 0.35086 0.42494
 C39 C -0.00559 0.42684 0.42930
 C40 C -0.02680 0.46069 0.49660
 C41 C -0.03472 0.41614 0.55956
 C42 C -0.01447 0.34177 0.55821
 C43 C -0.03311 0.54288 0.50302
 C44 C -0.01983 0.57836 0.57156
 C45 C -0.01617 0.65531 0.57703
 C46 C -0.02568 0.69712 0.51223
 C47 C -0.03633 0.66397 0.44215
 C48 C -0.04470 0.58666 0.43970
 H49 H 0.02217 0.25171 0.49060
 H50 H 0.00371 0.46012 0.38073
 H51 H -0.05555 0.43902 0.61096
 H52 H -0.00633 0.54665 0.62025
 H53 H -0.02690 0.75601 0.51802
 H54 H -0.06075 0.56011 0.38855
 O55 O -0.18327 1.01329 -0.10538
 O56 O 0.19591 0.99484 -0.09295
 O57 O 0.00452 1.09466 -0.19448
 O58 O 0.00831 0.89825 -0.18497
 O59 O -0.00113 0.81048 -0.09346
 O60 O 0.00920 1.19024 -0.10950
 O61 O 0.11013 0.99481 -0.18750
 O62 O -0.09193 1.00044 -0.19364
 Zr63 Zr 0.00702 0.99954 -0.12987
 O64 O 0.06814 0.93207 -0.06229
 O65 O -0.05836 1.07220 -0.07167
 C66 C -0.16036 1.00808 -0.17312
 C67 C 0.17769 0.99522 -0.16231
 C68 C 0.00346 1.16387 -0.17666
 C69 C 0.00624 0.83075 -0.16225
 H70 H 0.10808 1.09708 -0.09864
 O71 O 0.07504 1.06680 -0.06750
 H72 H -0.09715 0.90725 -0.09728
 O73 O -0.06522 0.93921 -0.06613
 O74 O 0.19022 1.00353 0.10408
 O75 O -0.18999 1.02162 0.09249
 O76 O 0.10991 1.19112 0.00107
 O77 O 0.09012 0.81066 0.00886
 O78 O -0.10621 0.82110 0.00868
 O79 O -0.08549 1.20040 -0.01495
 O80 O 0.01053 1.11212 0.18632
 O81 O -0.01262 0.91729 0.19379
 O82 O 0.01545 1.19967 0.09408
 O83 O -0.01344 0.82114 0.10963
 O84 O 0.19674 1.09855 0.01082
 O85 O -0.18093 1.11618 -0.01490
 O86 O -0.19209 0.91479 0.00091
 O87 O 0.18635 0.89411 0.00323
 O88 O 0.09880 1.01122 0.19293
 O89 O -0.10379 1.02050 0.18678
 Zr90 Zr 0.13262 0.99927 0.00372
 Zr91 Zr -0.12680 1.01244 -0.00409
 Zr92 Zr 0.00927 1.13542 -0.00530
 Zr93 Zr -0.00440 0.87590 0.00551
 Zr94 Zr -0.00097 1.01181 0.12981
 O95 O -0.06991 0.94542 0.06784
 O96 O 0.07043 1.07157 0.06559
 C97 C 0.16753 1.01005 0.17171
 C98 C -0.17118 1.02447 0.16166
 C99 C 0.17640 1.16770 0.01163
 C100 C 0.15940 0.82722 0.00521
 C101 C -0.17309 0.84579 0.00728
 C102 C -0.15451 1.18295 -0.01969
 C103 C 0.01861 1.17902 0.16306
 C104 C -0.01715 0.84803 0.17676
 H105 H -0.09188 1.11518 0.09135
 O106 O -0.06222 1.07951 0.06225
 H107 H 0.09301 0.90708 0.10544
 O108 O 0.06419 0.93875 0.07160
 C109 C 0.30160 0.97004 0.32670
 C110 C 0.36359 1.01182 0.30513
 C111 C 0.35190 1.06512 0.24932
 C112 C 0.28451 1.06892 0.21114
 C113 C 0.22665 1.01949 0.22686
 C114 C 0.23486 0.97315 0.28802
 C115 C 0.22358 0.89159 0.29311
 C116 C 0.29583 0.88816 0.33543
 H117 H 0.39494 1.10347 0.23373
 H118 H 0.27941 1.10738 0.16561
 H119 H 0.22557 0.86336 0.23817
 H120 H 0.17586 0.87660 0.32825
 H121 H 0.33992 0.85777 0.30519
 H122 H 0.28866 0.87200 0.39434
 C123 C -0.29683 1.00663 0.32794
 C124 C -0.36449 1.03410 0.30098
 C125 C -0.36140 1.07308 0.23330
 C126 C -0.29650 1.07415 0.19071
 C127 C -0.23253 1.03651 0.21413
 C128 C -0.23252 1.00786 0.28578
 C129 C -0.20928 0.93349 0.31202
 C130 C -0.27931 0.93178 0.35785
 H131 H -0.40913 1.10142 0.21152
 H132 H -0.29778 1.10114 0.13730
 H133 H -0.15919 0.93639 0.34708
 H134 H -0.20801 0.89128 0.26691
 H135 H -0.26854 0.93312 0.41855
 H136 H -0.31926 0.88878 0.33916
 C137 C -0.28746 0.95088 -0.32907
 C138 C -0.35216 0.98913 -0.30994
 C139 C -0.34546 1.04716 -0.25778
 C140 C -0.27966 1.05782 -0.21805
 C141 C -0.21864 1.01110 -0.22977
 C142 C -0.22208 0.96134 -0.28946
 C143 C -0.20316 0.88118 -0.29294
 C144 C -0.27445 0.86970 -0.33625
 H145 H -0.39216 1.08227 -0.24510
 H146 H -0.27833 1.09921 -0.17435
 H147 H -0.20352 0.85465 -0.23748
 H148 H -0.15285 0.87063 -0.32655
 H149 H -0.31617 0.83642 -0.30598
 H150 H -0.26509 0.85258 -0.39479
 C151 C 0.30298 0.97763 -0.33074
 C152 C 0.37169 1.00003 -0.30203
 C153 C 0.37114 1.03475 -0.23186
 C154 C 0.30688 1.03522 -0.18849
 C155 C 0.24058 1.00263 -0.21419
 C156 C 0.23877 0.97951 -0.28837
 C157 C 0.21126 0.90938 -0.32254
 C158 C 0.28134 0.90746 -0.36865
 H159 H 0.42077 1.05886 -0.20863
 H160 H 0.31022 1.05812 -0.13307
 H161 H 0.16120 0.91863 -0.35685
 H162 H 0.20769 0.86349 -0.28199
 H163 H 0.27108 0.91534 -0.42887
 H164 H 0.31848 0.86072 -0.35467
 C165 C 0.34477 1.29248 0.00606
 C166 C 0.31429 1.36038 0.02987
 C167 C 0.24589 1.35619 0.06719
 C168 C 0.20483 1.29044 0.06726
 C169 C 0.23017 1.22677 0.02958
 C170 C 0.30348 1.22722 0.00553
 C171 C 0.33625 1.20166 -0.06582
 C172 C 0.38124 1.27261 -0.06566
 H173 H 0.22204 1.40422 0.09395
 H174 H 0.15037 1.29134 0.09197
 H175 H 0.29511 1.19858 -0.11156
 H176 H 0.37080 1.15157 -0.05851
 H177 H 0.36620 1.31076 -0.11131
 H178 H 0.44142 1.26294 -0.05882
 C179 C 0.22374 0.63033 0.02099
 C180 C 0.29539 0.62958 -0.00880
 C181 C 0.32015 0.69777 -0.03966
 C182 C 0.27764 0.76313 -0.03395
 C183 C 0.20896 0.76254 0.00209
 C184 C 0.18219 0.69424 0.02568
 C185 C 0.14992 0.67405 0.09873
 C186 C 0.19575 0.60410 0.09447
 H187 H 0.37176 0.70222 -0.06898
 H188 H 0.29842 0.81377 -0.05789
 H189 H 0.08960 0.66351 0.09481
 H190 H 0.16708 0.71226 0.14417
 H191 H 0.16122 0.55348 0.08945
 H192 H 0.23988 0.60162 0.13729
 C193 C -0.26900 0.67211 0.06544
 C194 C -0.31059 0.65425 0.00266
 C195 C -0.32220 0.71076 -0.04980
 C196 C -0.28237 0.77795 -0.04494
 C197 C -0.23111 0.78942 0.01287
 C198 C -0.23005 0.73759 0.07014
 C199 C -0.16942 0.70303 0.11383
 C200 C -0.21234 0.63075 0.10851
 H201 H -0.35767 0.70084 -0.09722
 H202 H -0.28657 0.81739 -0.08963
 H203 H -0.16678 0.72568 0.17118
 H204 H -0.11607 0.70093 0.08364
 H205 H -0.23373 0.61183 0.16290
 H206 H -0.18321 0.58795 0.07530
 C207 C -0.22335 1.37373 -0.06751
 C208 C -0.29275 1.37758 -0.03317
 C209 C -0.32142 1.30989 -0.00570
 C210 C -0.27868 1.24459 -0.00546
 C211 C -0.20572 1.24517 -0.03199
 C212 C -0.18190 1.30956 -0.06754
 C213 C -0.11029 1.35020 -0.06669
 C214 C -0.15527 1.42089 -0.06493
 H215 H -0.37512 1.30800 0.02034
 H216 H -0.30082 1.19555 0.02047
 H217 H -0.07906 1.34248 -0.11913
 H218 H -0.07794 1.34179 -0.01500
 H219 H -0.14853 1.45481 -0.11563
 H220 H -0.14761 1.45081 -0.01144
 C221 C 0.00307 1.34645 0.28777
 C222 C 0.02855 1.31771 0.35583
 C223 C 0.07049 1.25201 0.35141
 C224 C 0.07362 1.21087 0.28531
 C225 C 0.03472 1.23372 0.22174
 C226 C 0.00579 1.30516 0.22226
 C227 C -0.06728 1.33244 0.19637
 C228 C -0.07073 1.37765 0.26763
 H229 H 0.09858 1.23004 0.39937
 H230 H 0.10148 1.15792 0.28589
 H231 H -0.10962 1.28796 0.19326
 H232 H -0.06244 1.36694 0.14585
 H233 H -0.11524 1.35955 0.30583
 H234 H -0.06822 1.43820 0.25793
 C235 C -0.05379 1.23345 -0.36433
 C236 C -0.01515 1.29983 -0.37153
 C237 C 0.01866 1.32870 -0.30649
 C238 C 0.02218 1.28657 -0.24069
 C239 C -0.00825 1.21491 -0.23889
 C240 C -0.05066 1.19277 -0.30024
 C241 C -0.06127 1.12126 -0.34069
 C242 C -0.06430 1.16619 -0.41179
 H243 H 0.04592 1.38197 -0.30773
 H244 H 0.05250 1.30803 -0.19343
 H245 H -0.11475 1.09461 -0.32700
 H246 H -0.01220 1.08458 -0.33790
 H247 H -0.11938 1.16488 -0.43894
 H248 H -0.01690 1.15367 -0.44862
 C249 C -0.02003 0.66153 -0.28546
 C250 C 0.00155 0.69011 -0.35481
 C251 C 0.04215 0.75659 -0.35355
 C252 C 0.04875 0.79805 -0.28842
 C253 C 0.01511 0.77531 -0.22203
 C254 C -0.01411 0.70372 -0.22043
 C255 C -0.08628 0.67693 -0.19154
 C256 C -0.09295 0.63077 -0.26205
 H257 H 0.06669 0.77867 -0.40344
 H258 H 0.07477 0.85151 -0.29182
 H259 H -0.12819 0.72161 -0.18741
 H260 H -0.07966 0.64305 -0.14081
 H261 H -0.13895 0.64846 -0.29871
 H262 H -0.09021 0.57033 -0.25178
 C263 C -0.04581 0.78692 0.37452
 C264 C -0.03791 0.70952 0.37227
 C265 C -0.03008 0.67721 0.30041
 C266 C -0.02544 0.72094 0.23591
 C267 C -0.02839 0.79840 0.24082
 C268 C -0.04170 0.82935 0.31086
 C269 C -0.00202 0.89119 0.34874
 C270 C -0.00517 0.84535 0.41814
 H271 H -0.02289 0.61844 0.29303
 H272 H -0.01610 0.69415 0.18293
 H273 H -0.03498 0.94267 0.35234
 H274 H 0.05461 0.89928 0.32728
 H275 H -0.04014 0.87121 0.46176
 H276 H 0.05030 0.82696 0.43699
   
