data_POSCAR
  _audit_creation_date              2014-09-24
  _audit_creation_method            'ToBaCCo'
  _symmetry_space_group_name_H-M    'P1'
  _symmetry_Int_Tables_number       1
  _symmetry_cell_setting            triclinic
  loop_
  _symmetry_equiv_pos_as_xyz
 x,y,z
_cell_length_a 33.3573
_cell_length_b 42.6460
_cell_length_c 30.0577
_cell_angle_alpha 89.993000
_cell_angle_beta 89.999800
_cell_angle_gamma 89.999700
loop_
  _atom_site_label
  _atom_site_type_symbol
  _atom_site_fract_x
  _atom_site_fract_y
  _atom_site_fract_z
O1 O 0.25596 0.27962 0.30522
 O2 O 0.20004 0.21934 0.24313
 O3 O 0.25553 0.21847 0.30408
 O4 O 0.20011 0.28033 0.24494
 O5 O 0.24640 0.28086 0.19256
 O6 O 0.30186 0.21890 0.25185
 O7 O 0.24640 0.21984 0.19083
 O8 O 0.30228 0.28007 0.25286
 Cu9 Cu 0.22331 0.24936 0.27962
 Cu10 Cu 0.27890 0.24994 0.21682
 C11 C 0.28861 0.29029 0.28954
 C12 C 0.21361 0.20932 0.20628
 C13 C 0.28819 0.20797 0.28818
 C14 C 0.21376 0.29123 0.20865
 O15 O 0.80163 0.27950 0.24617
 O16 O 0.74638 0.21941 0.30941
 O17 O 0.80141 0.21841 0.24804
 O18 O 0.74702 0.28035 0.30824
 O19 O 0.69991 0.27995 0.25676
 O20 O 0.75435 0.21797 0.19650
 O21 O 0.69939 0.21904 0.25789
 O22 O 0.75451 0.27904 0.19471
 Cu23 Cu 0.77886 0.24949 0.28308
 Cu24 Cu 0.72236 0.24898 0.22127
 C25 C 0.78752 0.28956 0.20957
 C26 C 0.71330 0.20891 0.29455
 C27 C 0.78718 0.20751 0.21202
 C28 C 0.71405 0.29066 0.29296
 O29 O 0.74700 0.78058 0.69094
 O30 O 0.80204 0.72040 0.75426
 O31 O 0.74744 0.71963 0.69219
 O32 O 0.80198 0.78149 0.75238
 O33 O 0.75496 0.78203 0.80385
 O34 O 0.70032 0.72013 0.74365
 O35 O 0.75491 0.72096 0.80571
 O36 O 0.69996 0.78105 0.74250
 Cu37 Cu 0.77936 0.75044 0.71732
 Cu38 Cu 0.72286 0.75107 0.77912
 C39 C 0.71399 0.79108 0.70588
 C40 C 0.78790 0.71038 0.79087
 C41 C 0.71444 0.70938 0.70747
 C42 C 0.78785 0.79248 0.78843
 O43 O 0.30137 0.78119 0.74866
 O44 O 0.24603 0.71914 0.80791
 O45 O 0.30191 0.72002 0.74762
 O46 O 0.24585 0.78015 0.80962
 O47 O 0.19954 0.78058 0.75735
 O48 O 0.25561 0.72039 0.69526
 O49 O 0.19974 0.71960 0.75552
 O50 O 0.25501 0.78155 0.69637
 Cu51 Cu 0.27846 0.75011 0.78366
 Cu52 Cu 0.22288 0.75061 0.72085
 C53 C 0.28760 0.79203 0.71237
 C54 C 0.21341 0.70872 0.79182
 C55 C 0.28827 0.70977 0.71094
 C56 C 0.21300 0.79069 0.79425
 C57 C 0.97895 -0.00068 -0.00035
 C58 C 1.01983 -0.00066 -0.00037
 C59 C 1.04321 0.02447 0.02197
 C60 C 1.04323 -0.02578 -0.02271
 C61 C 0.95555 -0.02390 -0.02649
 C62 C 0.95555 0.02254 0.02580
 C63 C 1.03694 0.05621 0.01142
 C64 C 1.05852 0.07963 0.03347
 C65 C 1.08683 0.07155 0.06590
 C66 C 1.09380 0.03995 0.07586
 C67 C 1.07222 0.01652 0.05389
 C68 C 1.07224 -0.01781 -0.05463
 C69 C 1.09384 -0.04122 -0.07660
 C70 C 1.08692 -0.07283 -0.06664
 C71 C 1.05860 -0.08093 -0.03421
 C72 C 1.03700 -0.05753 -0.01217
 C73 C 0.92653 -0.04243 -0.00519
 C74 C 0.90490 -0.06482 -0.02919
 C75 C 0.91182 -0.06873 -0.07478
 C76 C 0.94016 -0.04991 -0.09643
 C77 C 0.96179 -0.02748 -0.07247
 C78 C 0.96180 0.02612 0.07177
 C79 C 0.94018 0.04856 0.09574
 C80 C 0.91184 0.06739 0.07409
 C81 C 0.90489 0.06346 0.02851
 C82 C 0.92651 0.04107 0.00451
 H83 H 1.01525 0.06280 -0.01371
 H84 H 1.05304 0.10401 0.02534
 H85 H 1.11571 0.03343 0.10081
 H86 H 1.07765 -0.00781 0.06228
 H87 H 1.07764 0.00653 -0.06302
 H88 H 1.11576 -0.03469 -0.10154
 H89 H 1.01531 -0.06413 0.01295
 H90 H 0.92112 -0.03989 0.03016
 H91 H 0.88297 -0.07921 -0.01214
 H92 H 0.94561 -0.05265 -0.13175
 H93 H 0.98349 -0.01300 -0.08968
 H94 H 0.98351 0.01164 0.08897
 H95 H 0.94565 0.05131 0.13105
 H96 H 0.88297 0.07785 0.01146
 H97 H 0.92109 0.03852 -0.03084
 H98 H 1.05316 -0.10531 -0.02609
 C99 C 0.47908 0.50010 0.50028
 C100 C 0.51996 0.50009 0.50029
 C101 C 0.54340 0.52505 0.52292
 C102 C 0.54338 0.47513 0.47766
 C103 C 0.45569 0.47671 0.47444
 C104 C 0.45570 0.52350 0.52610
 C105 C 0.53748 0.55685 0.51251
 C106 C 0.55920 0.58008 0.53480
 C107 C 0.58730 0.57173 0.56733
 C108 C 0.59388 0.54006 0.57717
 C109 C 0.57217 0.51683 0.55497
 C110 C 0.57215 0.48333 0.44560
 C111 C 0.59384 0.46009 0.42338
 C112 C 0.58723 0.42842 0.43323
 C113 C 0.55914 0.42009 0.46578
 C114 C 0.53745 0.44333 0.48808
 C115 C 0.42703 0.45804 0.49611
 C116 C 0.40567 0.43530 0.47251
 C117 C 0.41250 0.43114 0.42693
 C118 C 0.44041 0.45014 0.40490
 C119 C 0.46176 0.47294 0.42847
 C120 C 0.46175 0.52727 0.57208
 C121 C 0.44038 0.55007 0.59564
 C122 C 0.41247 0.56905 0.57360
 C123 C 0.40565 0.56490 0.52803
 C124 C 0.42703 0.54216 0.50443
 H125 H 0.51597 0.56363 0.48729
 H126 H 0.55402 0.60451 0.52677
 H127 H 0.61563 0.53335 0.60220
 H128 H 0.57732 0.49245 0.56325
 H129 H 0.57732 0.50771 0.43731
 H130 H 0.61558 0.46679 0.39835
 H131 H 0.51594 0.43656 0.51330
 H132 H 0.42177 0.46073 0.53147
 H133 H 0.38407 0.42079 0.48985
 H134 H 0.44577 0.44723 0.36959
 H135 H 0.48320 0.48750 0.41099
 H136 H 0.48319 0.51271 0.58956
 H137 H 0.44573 0.55297 0.63095
 H138 H 0.38405 0.57941 0.51068
 H139 H 0.42178 0.53948 0.46907
 H140 H 0.55394 0.39566 0.47381
 C141 C 0.01927 0.49990 0.00027
 C142 C -0.02162 0.49991 0.00029
 C143 C -0.04499 0.47474 0.02257
 C144 C -0.04499 0.52508 -0.02196
 C145 C 0.04269 0.52334 -0.02543
 C146 C 0.04270 0.47645 0.02596
 C147 C -0.03882 0.44302 0.01185
 C148 C -0.06014 0.41955 0.03411
 C149 C -0.08812 0.42758 0.06693
 C150 C -0.09506 0.45917 0.07699
 C151 C -0.07373 0.48264 0.05481
 C152 C -0.07374 0.51720 -0.05420
 C153 C -0.09505 0.54068 -0.07639
 C154 C -0.08808 0.57227 -0.06633
 C155 C -0.06010 0.58028 -0.03351
 C156 C -0.03879 0.55680 -0.01124
 C157 C 0.07161 0.54173 -0.00371
 C158 C 0.09339 0.56425 -0.02727
 C159 C 0.08670 0.56846 -0.07286
 C160 C 0.05844 0.54982 -0.09492
 C161 C 0.03666 0.52724 -0.07139
 C162 C 0.03670 0.47256 0.07192
 C163 C 0.05850 0.44999 0.09544
 C164 C 0.08676 0.43135 0.07336
 C165 C 0.09342 0.43556 0.02777
 C166 C 0.07162 0.45808 0.00422
 H167 H -0.01732 0.43648 -0.01350
 H168 H -0.05469 0.39519 0.02591
 H169 H -0.11672 0.46563 0.10224
 H170 H -0.07908 0.50696 0.06334
 H171 H -0.07910 0.49288 -0.06274
 H172 H -0.11671 0.53422 -0.10164
 H173 H -0.01729 0.56333 0.01411
 H174 H 0.07686 0.53893 0.03164
 H175 H 0.11526 0.57850 -0.00991
 H176 H 0.05317 0.55279 -0.13024
 H177 H 0.01504 0.51288 -0.08891
 H178 H 0.01508 0.48691 0.08946
 H179 H 0.05327 0.44702 0.13076
 H180 H 0.11529 0.42132 0.01039
 H181 H 0.07684 0.46087 -0.03113
 H182 H -0.05462 0.60464 -0.02530
 C183 C 0.51939 1.00066 0.49963
 C184 C 0.47850 1.00068 0.49966
 C185 C 0.45515 0.97756 0.52608
 C186 C 0.45515 1.02381 0.47327
 C187 C 0.54282 1.02579 0.47735
 C188 C 0.54280 0.97552 0.52189
 C189 C 0.42607 0.95893 0.50506
 C190 C 0.40472 0.93648 0.52928
 C191 C 0.41198 0.93261 0.57482
 C192 C 0.44031 0.95157 0.59621
 C193 C 0.46166 0.97406 0.57203
 C194 C 0.46162 1.02730 0.42730
 C195 C 0.44024 1.04979 0.40314
 C196 C 0.41192 1.06875 0.42455
 C197 C 0.40471 1.06488 0.47011
 C198 C 0.42608 1.04244 0.49431
 C199 C 0.53659 1.05753 0.48794
 C200 C 0.55850 1.08092 0.46623
 C201 C 0.58708 1.07280 0.43412
 C202 C 0.59394 1.04121 0.42407
 C203 C 0.57204 1.01781 0.44569
 C204 C 0.57205 0.98347 0.55354
 C205 C 0.59392 0.96005 0.57515
 C206 C 0.58702 0.92846 0.56510
 C207 C 0.55841 0.92037 0.53299
 C208 C 0.53654 0.94379 0.51130
 H209 H 0.42046 0.96139 0.46973
 H210 H 0.38278 0.92199 0.51243
 H211 H 0.44601 0.94888 0.63149
 H212 H 0.48341 0.98861 0.58903
 H213 H 0.48335 1.01275 0.41028
 H214 H 0.44591 1.05247 0.36785
 H215 H 0.42050 1.03997 0.52964
 H216 H 0.51474 1.06413 0.51289
 H217 H 0.55308 1.10530 0.47439
 H218 H 0.61604 1.03468 0.39933
 H219 H 0.57745 0.99348 0.43729
 H220 H 0.57749 1.00780 0.56194
 H221 H 0.61604 0.96657 0.59988
 H222 H 0.55296 0.89600 0.52483
 H223 H 0.51467 0.93720 0.48636
 H224 H 0.38278 1.07936 0.48698
 C225 C 1.14832 0.13929 0.13342
 C226 C 1.13346 0.15048 0.17396
 C227 C 1.15466 0.17329 0.19770
 C228 C 1.19107 0.18521 0.18114
 C229 C 1.20571 0.17383 0.14030
 C230 C 1.18446 0.15102 0.11663
 C231 C 1.12665 0.11560 0.10927
 C232 C 1.10851 0.09561 0.08930
 H233 H 1.10553 0.14153 0.18727
 H234 H 1.14255 0.18154 0.22900
 H235 H 1.23362 0.18251 0.12662
 H236 H 1.19625 0.14250 0.08530
 C237 C 0.64937 0.63892 0.63525
 C238 C 0.68597 0.65007 0.61893
 C239 C 0.70726 0.67291 0.64249
 C240 C 0.69216 0.68491 0.68277
 C241 C 0.65536 0.67349 0.69895
 C242 C 0.63414 0.65065 0.67531
 C243 C 0.62751 0.61539 0.61101
 C244 C 0.60918 0.59557 0.59092
 H245 H 0.69805 0.64113 0.58797
 H246 H 0.73547 0.68121 0.62911
 H247 H 0.64289 0.68223 0.72981
 H248 H 0.60584 0.64215 0.68827
 C249 C -0.14841 0.35968 0.13553
 C250 C -0.18477 0.34792 0.11943
 C251 C -0.20562 0.32507 0.14347
 C252 C -0.19033 0.31369 0.18403
 C253 C -0.15369 0.32563 0.19989
 C254 C -0.13290 0.34848 0.17577
 C255 C -0.12717 0.38343 0.11099
 C256 C -0.10940 0.40347 0.09069
 H257 H -0.19706 0.35645 0.08833
 H258 H -0.23372 0.31638 0.13032
 H259 H -0.14109 0.31737 0.23096
 H260 H -0.10478 0.35746 0.18856
 C261 C 0.35131 0.86474 0.64308
 C262 C 0.31537 0.85300 0.62582
 C263 C 0.29463 0.82935 0.64835
 C264 C 0.30961 0.81710 0.68853
 C265 C 0.34578 0.82908 0.70565
 C266 C 0.36647 0.85275 0.68303
 C267 C 0.37275 0.88887 0.61952
 C268 C 0.39063 0.90893 0.59938
 H269 H 0.30339 0.86209 0.59489
 H270 H 0.26689 0.82067 0.63427
 H271 H 0.35811 0.82018 0.73648
 H272 H 0.39430 0.86165 0.69666
 C273 C -0.14822 0.64020 -0.13501
 C274 C -0.18457 0.65202 -0.11893
 C275 C -0.20535 0.67489 -0.14300
 C276 C -0.19002 0.68623 -0.18356
 C277 C -0.15341 0.67422 -0.19941
 C278 C -0.13268 0.65135 -0.17526
 C279 C -0.12705 0.61643 -0.11043
 C280 C -0.10931 0.59639 -0.09012
 H281 H -0.19688 0.64353 -0.08782
 H282 H -0.23343 0.68363 -0.12986
 H283 H -0.14078 0.68245 -0.23048
 H284 H -0.10458 0.64233 -0.18803
 C285 C 0.35109 1.13655 0.35633
 C286 C 0.31515 1.14823 0.37361
 C287 C 0.29431 1.17184 0.35112
 C288 C 0.30916 1.18421 0.31081
 C289 C 0.34545 1.17218 0.29376
 C290 C 0.36618 1.14855 0.31639
 C291 C 0.37260 1.11244 0.37988
 C292 C 0.39053 1.09241 0.40001
 H293 H 0.30323 1.13912 0.40455
 H294 H 0.26658 1.18035 0.36545
 H295 H 0.35795 1.18098 0.26293
 H296 H 0.39404 1.13969 0.30276
 C297 C 1.14856 -0.14051 -0.13410
 C298 C 1.18468 -0.15220 -0.11729
 C299 C 1.20603 -0.17497 -0.14091
 C300 C 1.19153 -0.18645 -0.18190
 C301 C 1.15501 -0.17447 -0.19839
 C302 C 1.13377 -0.15170 -0.17465
 C303 C 1.12683 -0.11684 -0.10997
 C304 C 1.10864 -0.09687 -0.09002
 H305 H 1.19641 -0.14366 -0.08594
 H306 H 1.23392 -0.18351 -0.12697
 H307 H 1.14274 -0.18261 -0.22970
 H308 H 1.10583 -0.14277 -0.18797
 C309 C 0.64916 0.36118 0.36524
 C310 C 0.68574 0.34997 0.38156
 C311 C 0.70696 0.32711 0.35797
 C312 C 0.69184 0.31516 0.31767
 C313 C 0.65507 0.32665 0.30150
 C314 C 0.63391 0.34951 0.32516
 C315 C 0.62735 0.38474 0.38950
 C316 C 0.60907 0.40457 0.40962
 H317 H 0.69783 0.35887 0.41253
 H318 H 0.73515 0.31876 0.37135
 H319 H 0.64259 0.31794 0.27062
 H320 H 0.60563 0.35807 0.31221
 C321 C 0.85047 -0.13625 -0.14289
 C322 C 0.81426 -0.14773 -0.12601
 C323 C 0.79346 -0.17128 -0.14868
 C324 C 0.80865 -0.18378 -0.18874
 C325 C 0.84518 -0.17192 -0.20539
 C326 C 0.86586 -0.14837 -0.18259
 C327 C 0.87201 -0.11225 -0.11921
 C328 C 0.89013 -0.09230 -0.09914
 H329 H 0.80211 -0.13851 -0.09524
 H330 H 0.76553 -0.17967 -0.13469
 H331 H 0.85796 -0.18081 -0.23603
 H332 H 0.89391 -0.13965 -0.19591
 C333 C 0.35221 0.36255 0.35980
 C334 C 0.36731 0.35087 0.31966
 C335 C 0.34674 0.32725 0.29687
 C336 C 0.31073 0.31498 0.31400
 C337 C 0.29586 0.32683 0.35447
 C338 C 0.31650 0.35045 0.37718
 C339 C 0.37340 0.38687 0.38322
 C340 C 0.39119 0.40715 0.40300
 H341 H 0.39496 0.36005 0.30594
 H342 H 0.35899 0.31867 0.26581
 H343 H 0.26823 0.31792 0.36854
 H344 H 0.30457 0.35930 0.40827
 C345 C 0.14882 0.63620 -0.13964
 C346 C 0.18474 0.64773 -0.12202
 C347 C 0.20582 0.67133 -0.14429
 C348 C 0.19117 0.68371 -0.18454
 C349 C 0.15503 0.67192 -0.20199
 C350 C 0.13402 0.64833 -0.17965
 C351 C 0.12697 0.61213 -0.11645
 C352 C 0.10863 0.59212 -0.09677
 H353 H 0.19643 0.63852 -0.09103
 H354 H 0.23353 0.67987 -0.12998
 H355 H 0.14294 0.68093 -0.23289
 H356 H 0.10621 0.63959 -0.19354
 C357 C 0.64917 1.14034 0.36692
 C358 C 0.68555 1.15183 0.38331
 C359 C 0.70685 1.17453 0.35945
 C360 C 0.69200 1.18610 0.31867
 C361 C 0.65523 1.17430 0.30261
 C362 C 0.63407 1.15162 0.32658
 C363 C 0.62743 1.11675 0.39118
 C364 C 0.60908 1.09682 0.41103
 H365 H 0.69752 1.14320 0.41451
 H366 H 0.73494 1.18293 0.37304
 H367 H 0.64269 1.18251 0.27148
 H368 H 0.60593 1.14283 0.31358
 C369 C 0.14901 0.36367 0.14011
 C370 C 0.18496 0.35219 0.12250
 C371 C 0.20609 0.32862 0.14477
 C372 C 0.19147 0.31621 0.18501
 C373 C 0.15530 0.32795 0.20245
 C374 C 0.13424 0.35152 0.18012
 C375 C 0.12712 0.38771 0.11693
 C376 C 0.10873 0.40771 0.09726
 H377 H 0.19663 0.36142 0.09151
 H378 H 0.23382 0.32011 0.13045
 H379 H 0.14322 0.31892 0.23335
 H380 H 0.10640 0.36022 0.19401
 C381 C 0.64898 0.86087 0.63231
 C382 C 0.68539 0.84935 0.61594
 C383 C 0.70661 0.82662 0.63983
 C384 C 0.69163 0.81514 0.68046
 C385 C 0.65496 0.82686 0.69658
 C386 C 0.63382 0.84957 0.67263
 C387 C 0.62729 0.88448 0.60805
 C388 C 0.60898 0.90443 0.58819
 H389 H 0.69741 0.85798 0.58477
 H390 H 0.73472 0.81808 0.62651
 H391 H 0.64258 0.81851 0.72771
 H392 H 0.60568 0.85836 0.68563
 C393 C 0.85062 0.13496 0.14221
 C394 C 0.86604 0.14705 0.18195
 C395 C 0.84540 0.17064 0.20472
 C396 C 0.80901 0.18247 0.18797
 C397 C 0.79372 0.17011 0.14801
 C398 C 0.81443 0.14652 0.12531
 C399 C 0.87211 0.11094 0.11853
 C400 C 0.89018 0.09097 0.09845
 H401 H 0.89406 0.13830 0.19529
 H402 H 0.85798 0.17963 0.23539
 H403 H 0.76580 0.17868 0.13423
 H404 H 0.80225 0.13735 0.09453
 C405 C 0.35205 0.63759 0.64071
 C406 C 0.31632 0.64964 0.62332
 C407 C 0.29562 0.67324 0.64603
 C408 C 0.31045 0.68510 0.68650
 C409 C 0.34649 0.67289 0.70363
 C410 C 0.36712 0.64929 0.68086
 C411 C 0.37330 0.61329 0.61731
 C412 C 0.39112 0.59303 0.59753
 H413 H 0.30441 0.64077 0.59223
 H414 H 0.26798 0.68211 0.63195
 H415 H 0.35871 0.68148 0.73470
 H416 H 0.39479 0.64015 0.69459
   
