data_POSCAR
  _audit_creation_date              2014-09-24
  _audit_creation_method            'ToBaCCo'
  _symmetry_space_group_name_H-M    'P1'
  _symmetry_Int_Tables_number       1
  _symmetry_cell_setting            triclinic
  loop_
  _symmetry_equiv_pos_as_xyz
 x,y,z
_cell_length_a 35.2176
_cell_length_b 35.2366
_cell_length_c 43.6316
_cell_angle_alpha 90.002100
_cell_angle_beta 90.002500
_cell_angle_gamma 89.994700
loop_
  _atom_site_label
  _atom_site_type_symbol
  _atom_site_fract_x
  _atom_site_fract_y
  _atom_site_fract_z
B1 B 0.26379 0.23266 0.21799
 B2 B 0.27179 0.27794 0.22808
 B3 B 0.22730 0.26364 0.22043
 B4 B 0.22213 0.21899 0.23352
 B5 B 0.26421 0.20575 0.24969
 B6 B 0.29531 0.24260 0.24614
 B7 B 0.23595 0.26646 0.28182
 B8 B 0.22794 0.22115 0.27174
 B9 B 0.27240 0.23545 0.27941
 B10 B 0.27761 0.28008 0.26630
 B11 B 0.23553 0.29333 0.25011
 B12 B 0.20442 0.25647 0.25370
 B13 B 0.73577 0.76848 0.21815
 B14 B 0.72776 0.72318 0.22821
 B15 B 0.77223 0.73747 0.22056
 B16 B 0.77743 0.78211 0.23367
 B17 B 0.73532 0.79534 0.24986
 B18 B 0.70424 0.75847 0.24627
 B19 B 0.76361 0.73468 0.28198
 B20 B 0.77158 0.77998 0.27190
 B21 B 0.72711 0.76563 0.27954
 B22 B 0.72196 0.72100 0.26643
 B23 B 0.76404 0.70778 0.25027
 B24 B 0.79514 0.74465 0.25384
 B25 B 0.73725 0.22667 -0.22182
 B26 B 0.72292 0.27112 -0.22942
 B27 B 0.76823 0.26316 -0.21935
 B28 B 0.78193 0.22156 -0.23488
 B29 B 0.74449 0.20384 -0.25510
 B30 B 0.70756 0.23489 -0.25151
 B31 B 0.76542 0.27185 -0.28075
 B32 B 0.77982 0.22741 -0.27311
 B33 B 0.73448 0.23537 -0.28321
 B34 B 0.72075 0.27698 -0.26764
 B35 B 0.75822 0.29469 -0.24747
 B36 B 0.79514 0.26366 -0.25105
 B37 B 0.26333 0.77172 -0.21952
 B38 B 0.27769 0.72728 -0.22718
 B39 B 0.23237 0.73525 -0.21709
 B40 B 0.21865 0.77688 -0.23263
 B41 B 0.25613 0.79460 -0.25280
 B42 B 0.29304 0.76354 -0.24921
 B43 B 0.23517 0.72660 -0.27849
 B44 B 0.22081 0.77104 -0.27086
 B45 B 0.26615 0.76309 -0.28092
 B46 B 0.27983 0.72147 -0.26540
 B47 B 0.24236 0.70374 -0.24522
 B48 B 0.20545 0.73479 -0.24879
 B49 B 1.23608 1.26893 0.71837
 B50 B 1.22806 1.22364 0.72844
 B51 B 1.27254 1.23790 0.72079
 B52 B 1.27774 1.28256 0.73389
 B53 B 1.23563 1.29580 0.75007
 B54 B 1.20455 1.25894 0.74649
 B55 B 1.26390 1.23515 0.78221
 B56 B 1.27188 1.28045 0.77212
 B57 B 1.22741 1.26610 0.77975
 B58 B 1.22226 1.22147 0.76665
 B59 B 1.26433 1.20824 0.75051
 B60 B 1.29545 1.24511 0.75408
 B61 B 0.77188 0.73492 0.77959
 B62 B 0.72740 0.72062 0.77196
 B63 B 0.73545 0.76595 0.78199
 B64 B 0.77712 0.77952 0.76644
 B65 B 0.79478 0.74200 0.74632
 B66 B 0.76366 0.70518 0.74991
 B67 B 0.72678 0.76307 0.72060
 B68 B 0.77129 0.77732 0.72823
 B69 B 0.76325 0.73205 0.71818
 B70 B 0.72158 0.71843 0.73372
 B71 B 0.70390 0.75595 0.75389
 B72 B 0.73505 0.79278 0.75026
 B73 B 1.23494 0.73498 0.21668
 B74 B 1.28028 0.72698 0.22675
 B75 B 1.26591 0.77143 0.21909
 B76 B 1.22127 0.77662 0.23223
 B77 B 1.20805 0.73458 0.24839
 B78 B 1.24493 0.70347 0.24480
 B79 B 1.26880 0.76282 0.28049
 B80 B 1.22349 0.77083 0.27044
 B81 B 1.23776 0.72636 0.27808
 B82 B 1.28243 0.72117 0.26498
 B83 B 1.29567 0.76324 0.24877
 B84 B 1.25879 0.79432 0.25234
 B85 B 0.76563 1.26356 0.21903
 B86 B 0.72029 1.27156 0.22908
 B87 B 0.73460 1.22712 0.22142
 B88 B 0.77922 1.22189 0.23453
 B89 B 0.79250 1.26391 0.25076
 B90 B 0.75564 1.29505 0.24718
 B91 B 0.73175 1.23568 0.28282
 B92 B 0.77705 1.22763 0.27274
 B93 B 0.76279 1.27210 0.28044
 B94 B 0.71811 1.27736 0.26732
 B95 B 0.70486 1.23532 0.25110
 B96 B 0.74170 1.20420 0.25466
 O97 O 0.44938 1.07271 0.05216
 O98 O 0.40530 1.03805 0.02517
 C99 C 0.41479 1.06423 0.04476
 O100 O 0.55451 1.06549 -0.05661
 O101 O 0.59626 1.02966 -0.02821
 C102 C 0.58845 1.05462 -0.04927
 O103 O 0.44931 1.07264 -0.05367
 O104 O 0.40530 1.03834 -0.02631
 C105 C 0.41475 1.06438 -0.04603
 O106 O 0.55427 1.06564 0.05534
 O107 O 0.59605 1.03056 0.02641
 C108 C 0.58821 1.05521 0.04770
 Zr109 Zr 0.50117 1.04805 0.03823
 O110 O 0.50339 1.10781 0.04270
 O111 O 0.49971 1.04133 0.08634
 Zr112 Zr 0.50122 1.04879 -0.03907
 O113 O 0.50687 1.10861 -0.03858
 O114 O 0.49691 1.04872 -0.08748
 O115 O 0.46762 1.05714 -0.00040
 O116 O 0.53466 1.05441 -0.00044
 O117 O 0.54986 0.93260 0.05524
 O118 O 0.59380 0.96468 0.02611
 C119 C 0.58441 0.94053 0.04735
 O120 O 0.44461 0.93364 -0.05435
 O121 O 0.40295 0.97046 -0.02673
 C122 C 0.41067 0.94420 -0.04675
 O123 O 0.54996 0.93292 -0.05677
 O124 O 0.59393 0.96514 -0.02778
 C125 C 0.58451 0.94090 -0.04894
 O126 O 0.44461 0.93317 0.05257
 O127 O 0.40292 0.97007 0.02502
 C128 C 0.41067 0.94372 0.04496
 Zr129 Zr 0.49797 0.95310 0.03770
 O130 O 0.50000 0.89303 0.03733
 O131 O 0.49437 0.95374 0.08614
 Zr132 Zr 0.49797 0.95366 -0.03951
 O133 O 0.49996 0.89361 -0.04019
 O134 O 0.49384 0.95545 -0.08793
 Zr135 Zr 0.44232 1.00286 -0.00069
 Zr136 Zr 0.55700 0.99905 -0.00071
 O137 O 0.53087 0.94528 -0.00093
 O138 O 0.46371 0.94693 -0.00094
 O139 O 0.53390 0.99944 0.04390
 O140 O 0.46624 1.00240 -0.04489
 O141 O 0.46603 1.00176 0.04355
 O142 O 0.53379 1.00008 -0.04532
 H143 H 0.55258 1.07607 -0.00058
 H144 H 0.44913 1.00315 -0.06290
 H145 H 0.54688 0.92216 -0.00097
 H146 H 0.44880 1.00238 0.06150
 H147 H 0.51779 1.03285 -0.09558
 H148 H 0.51684 0.96823 -0.09585
 H149 H 0.47918 0.88421 -0.02698
 H150 H 0.47832 0.88389 0.02496
 H151 H 0.51479 0.97054 0.09381
 H152 H 0.49954 1.06730 0.09505
 H153 H 0.51391 1.11808 0.02343
 H154 H 0.48701 1.11876 -0.02477
 O155 O 1.05432 0.56534 0.55545
 O156 O 1.09612 0.53058 0.52629
 C157 C 1.08827 0.55504 0.54771
 O158 O 0.94472 0.43336 0.55274
 O159 O 0.90301 0.47020 0.52517
 C160 C 0.91078 0.44391 0.54516
 O161 O 1.05005 0.43268 0.55520
 O162 O 1.09399 0.46485 0.52617
 C163 C 1.08460 0.44067 0.54737
 O164 O 0.94920 0.57215 0.55261
 O165 O 0.90526 0.53797 0.52509
 C166 C 0.91465 0.56384 0.54496
 Zr167 Zr 1.00118 0.54855 0.53783
 O168 O 0.99682 0.54815 0.58624
 O169 O 1.00744 0.60833 0.53765
 Zr170 Zr 0.99806 0.45344 0.53795
 O171 O 0.99392 0.45498 0.58637
 O172 O 1.00005 0.39339 0.53844
 O173 O 1.03390 0.49984 0.54390
 O174 O 0.96628 0.50211 0.54348
 O175 O 0.94929 0.57223 0.44597
 O176 O 0.90532 0.53807 0.47348
 C177 C 0.91474 0.56399 0.45366
 O178 O 1.04999 0.43247 0.44347
 O179 O 1.09396 0.46473 0.47243
 C180 C 1.08454 0.44045 0.45130
 O181 O 0.94462 0.43324 0.44593
 O182 O 0.90297 0.47020 0.47344
 C183 C 0.91069 0.44384 0.45350
 O184 O 1.05440 0.56524 0.44303
 O185 O 1.09615 0.53050 0.47224
 C186 C 1.08835 0.55494 0.45079
 Zr187 Zr 1.00121 0.54842 0.46061
 O188 O 0.99674 0.54751 0.41220
 O189 O 1.00751 0.60818 0.46037
 Zr190 Zr 0.99801 0.45334 0.46067
 O191 O 0.99387 0.45481 0.41224
 O192 O 0.99998 0.39328 0.46024
 Zr193 Zr 1.05707 0.49896 0.49927
 Zr194 Zr 0.94237 0.50281 0.49928
 O195 O 0.96624 0.50200 0.45506
 O196 O 1.03391 0.49970 0.45463
 O197 O 0.96746 0.55718 0.49922
 O198 O 1.03087 0.44523 0.49931
 O199 O 1.03461 0.55437 0.49922
 O200 O 0.96381 0.44691 0.49932
 H201 H 0.94918 0.50272 0.56151
 H202 H 1.04682 0.42207 0.49934
 H203 H 0.94909 0.50261 0.43707
 H204 H 1.05224 0.57628 0.49920
 H205 H 0.97916 0.38405 0.52530
 H206 H 0.97914 0.38398 0.47344
 H207 H 1.01684 0.46759 0.40427
 H208 H 1.01811 0.53226 0.40418
 H209 H 0.98718 0.61893 0.47336
 H210 H 0.98648 0.61903 0.52528
 H211 H 1.01777 0.53235 0.59429
 H212 H 1.01689 0.46777 0.59434
 O213 O 1.06318 0.44521 0.05674
 O214 O 1.02827 0.40350 0.02763
 C215 C 1.05285 0.41129 0.04898
 O216 O 0.93120 0.55513 0.05405
 O217 O 0.96819 0.59668 0.02647
 C218 C 0.94187 0.58902 0.04647
 O219 O 0.93029 0.44978 0.05653
 O220 O 0.96247 0.40580 0.02754
 C221 C 0.93825 0.41523 0.04871
 O222 O 1.07026 0.55021 0.05381
 O223 O 1.03609 0.59420 0.02634
 C224 C 1.06209 0.58474 0.04609
 Zr225 Zr 1.04624 0.49838 0.03928
 O226 O 1.04509 0.50284 0.08769
 O227 O 1.10603 0.49206 0.03975
 Zr228 Zr 0.95112 0.50170 0.03925
 O229 O 0.95242 0.50584 0.08767
 O230 O 0.89103 0.49983 0.03951
 O231 O 0.99748 0.46576 0.04528
 O232 O 0.99986 0.53340 0.04483
 O233 O 1.07013 0.55024 -0.05265
 O234 O 1.03596 0.59423 -0.02519
 C235 C 1.06190 0.58478 -0.04499
 O236 O 0.93043 0.44967 -0.05534
 O237 O 0.96254 0.40574 -0.02625
 C238 C 0.93842 0.41513 -0.04751
 O239 O 0.93122 0.55500 -0.05286
 O240 O 0.96816 0.59662 -0.02530
 C241 C 0.94186 0.58890 -0.04531
 O242 O 1.06318 0.44523 -0.05545
 O243 O 1.02831 0.40350 -0.02633
 C244 C 1.05287 0.41132 -0.04769
 Zr245 Zr 1.04630 0.49837 -0.03796
 O246 O 1.04550 0.50275 -0.08638
 O247 O 1.10610 0.49204 -0.03813
 Zr248 Zr 0.95115 0.50163 -0.03801
 O249 O 0.95242 0.50577 -0.08643
 O250 O 0.89106 0.49968 -0.03827
 Zr251 Zr 0.99671 0.44260 0.00065
 Zr252 Zr 1.00069 0.55723 0.00061
 O253 O 0.99989 0.53332 -0.04359
 O254 O 0.99754 0.46573 -0.04399
 O255 O 1.05504 0.53204 0.00065
 O256 O 0.94296 0.46883 0.00063
 O257 O 1.05216 0.46501 0.00067
 O258 O 0.94471 0.53591 0.00060
 H259 H 1.00054 0.55054 0.06283
 H260 H 0.91980 0.45287 0.00061
 H261 H 1.00055 0.55041 -0.06161
 H262 H 1.07411 0.44743 0.00067
 H263 H 0.88179 0.52093 0.02655
 H264 H 0.88179 0.52083 -0.02539
 H265 H 0.96565 0.48307 -0.09441
 H266 H 1.03028 0.48136 -0.09441
 H267 H 1.11689 0.51257 -0.02537
 H268 H 1.11683 0.51205 0.02645
 H269 H 1.03029 0.48115 0.09571
 H270 H 0.96556 0.48308 0.09565
 O271 O 0.56313 0.94513 0.55670
 O272 O 0.52751 0.90340 0.52813
 C273 C 0.55242 0.91121 0.54924
 O274 O 0.43131 1.05498 0.55427
 O275 O 0.46814 1.09660 0.52662
 C276 C 0.44191 1.08890 0.54668
 O277 O 0.43062 0.94960 0.55669
 O278 O 0.46276 0.90573 0.52755
 C279 C 0.43860 0.91508 0.54880
 O280 O 0.57032 1.05029 0.55375
 O281 O 0.53601 1.09423 0.52634
 C282 C 0.56206 1.08482 0.54606
 Zr283 Zr 0.54642 0.99841 0.53921
 O284 O 0.54578 1.00289 0.58762
 O285 O 0.60621 0.99207 0.53936
 Zr286 Zr 0.45123 1.00160 0.53936
 O287 O 0.45251 1.00569 0.58779
 O288 O 0.39114 0.99960 0.53962
 O289 O 0.49769 0.96580 0.54527
 O290 O 0.49996 1.03333 0.54488
 O291 O 0.56986 1.05039 0.44724
 O292 O 0.53570 1.09429 0.47480
 C293 C 0.56158 1.08491 0.45493
 O294 O 0.43040 0.94960 0.44473
 O295 O 0.46270 0.90574 0.47375
 C296 C 0.43852 0.91508 0.45251
 O297 O 0.43108 1.05494 0.44724
 O298 O 0.46799 1.09659 0.47481
 C299 C 0.44172 1.08886 0.45478
 O300 O 0.56315 0.94538 0.44439
 O301 O 0.52850 0.90359 0.47361
 C302 C 0.55294 0.91144 0.45218
 Zr303 Zr 0.54624 0.99845 0.46199
 O304 O 0.54545 1.00285 0.41358
 O305 O 0.60605 0.99221 0.46185
 Zr306 Zr 0.45092 1.00156 0.46219
 O307 O 0.45148 1.00571 0.41377
 O308 O 0.39082 0.99948 0.46255
 Zr309 Zr 0.49688 0.94263 0.50063
 Zr310 Zr 0.50060 1.05720 0.50066
 O311 O 0.49967 1.03326 0.45648
 O312 O 0.49745 0.96581 0.45602
 O313 O 0.55501 1.03213 0.50059
 O314 O 0.44303 0.96867 0.50078
 O315 O 0.55230 0.96503 0.50059
 O316 O 0.44463 1.03586 0.50078
 H317 H 0.50067 1.05045 0.56288
 H318 H 0.41993 0.95263 0.50079
 H319 H 0.50026 1.05033 0.43844
 H320 H 0.57416 0.94733 0.50063
 H321 H 0.38185 1.02077 0.52677
 H322 H 0.38164 1.02131 0.47472
 H323 H 0.46552 0.98354 0.40572
 H324 H 0.53003 0.98160 0.40556
 H325 H 0.61681 1.01292 0.47444
 H326 H 0.61694 1.01234 0.52631
 H327 H 0.53055 0.98154 0.59570
 H328 H 0.46592 0.98307 0.59573
 O329 O 1.08410 1.04662 0.54287
 O330 O 1.04091 1.02142 0.57670
 C331 C 1.07150 1.04007 0.57024
 O332 O 0.95392 1.08151 0.45707
 O333 O 0.97901 1.03828 0.42321
 C334 C 0.96042 1.06891 0.42969
 O335 O 0.95848 1.08426 0.54272
 O336 O 0.98073 1.03951 0.57654
 C337 C 0.96469 1.07155 0.57009
 O338 O 1.08680 1.04221 0.45720
 O339 O 1.04185 1.02028 0.42341
 C340 C 1.07395 1.03623 0.42984
 Zr341 Zr 1.06142 1.03070 0.50000
 O342 O 1.07996 1.08768 0.49661
 O343 O 1.11846 1.01216 0.50358
 Zr344 Zr 0.96971 1.05877 0.49994
 O345 O 0.98783 1.11590 0.49633
 O346 O 0.91257 1.07692 0.50341
 O347 O 1.01771 1.05193 0.52724
 O348 O 1.01755 1.05146 0.47339
 O349 O 1.04916 0.91632 0.45705
 O350 O 1.02404 0.95957 0.42323
 C351 C 1.04260 0.92893 0.42968
 O352 O 0.91887 0.95139 0.54285
 O353 O 0.96209 0.97651 0.57669
 C354 C 0.93145 0.95795 0.57022
 O355 O 0.91616 0.95595 0.45719
 O356 O 0.96096 0.97813 0.42338
 C357 C 0.92889 0.96215 0.42982
 O358 O 1.04455 0.91363 0.54277
 O359 O 1.02226 0.95840 0.57655
 C360 C 1.03829 0.92636 0.57013
 Zr361 Zr 1.03336 0.93909 0.49993
 O362 O 1.01520 0.88197 0.49633
 O363 O 1.09049 0.92094 0.50342
 Zr364 Zr 0.94164 0.96720 0.49999
 O365 O 0.92335 0.91014 0.49653
 O366 O 0.88453 0.98547 0.50360
 Zr367 Zr 1.00152 0.99895 0.54548
 Zr368 Zr 1.00154 0.99892 0.45444
 O369 O 0.98549 0.94641 0.47336
 O370 O 0.98535 0.94596 0.52723
 O371 O 1.05458 0.98276 0.47265
 O372 O 0.94896 1.01499 0.52658
 O373 O 1.05410 0.98290 0.52659
 O374 O 0.94851 1.01512 0.47267
 H375 H 1.02383 1.07289 0.45960
 H376 H 0.92760 1.02132 0.54045
 H377 H 0.97916 0.92505 0.45950
 H378 H 1.07544 0.97659 0.54049
 H379 H 0.89800 1.06360 0.48730
 H380 H 0.87906 1.00178 0.48568
 H381 H 0.93683 0.89551 0.51253
 H382 H 0.99868 0.87658 0.51413
 H383 H 1.10508 0.93434 0.48737
 H384 H 1.12400 0.99628 0.48543
 H385 H 1.06612 1.10243 0.51232
 H386 H 1.00431 1.12133 0.51416
 O387 O 0.41515 0.45805 -0.04283
 O388 O 0.46046 0.47915 -0.07664
 C389 C 0.42803 0.46389 -0.07020
 O390 O 0.46052 0.58533 0.04265
 O391 O 0.48172 0.54009 0.07647
 C392 C 0.46636 0.57245 0.07002
 O393 O 0.45599 0.58269 -0.04298
 O394 O 0.48007 0.53889 -0.07683
 C395 C 0.46217 0.56992 -0.07035
 O396 O 0.41776 0.45349 0.04283
 O397 O 0.46158 0.47758 0.07666
 C398 C 0.43051 0.45974 0.07020
 Zr399 Zr 0.44091 0.46871 -0.00004
 O400 O 0.38427 0.48841 0.00358
 O401 O 0.42120 0.41213 -0.00348
 Zr402 Zr 0.47131 0.55961 -0.00012
 O403 O 0.41476 0.57951 0.00328
 O404 O 0.49122 0.61616 -0.00374
 O405 O 0.44897 0.51647 -0.02736
 O406 O 0.44943 0.51634 0.02651
 O407 O 0.54256 0.41264 0.04274
 O408 O 0.52134 0.45794 0.07650
 C409 C 0.53667 0.42555 0.07010
 O410 O 0.58794 0.54003 -0.04284
 O411 O 0.54265 0.51881 -0.07663
 C412 C 0.57502 0.53420 -0.07021
 O413 O 0.58529 0.54463 0.04283
 O414 O 0.54149 0.52050 0.07667
 C415 C 0.57251 0.53844 0.07020
 O416 O 0.54715 0.41522 -0.04298
 O417 O 0.52303 0.45902 -0.07681
 C418 C 0.54091 0.42797 -0.07035
 Zr419 Zr 0.53186 0.43833 -0.00009
 O420 O 0.58845 0.41857 0.00334
 O421 O 0.51208 0.38174 -0.00369
 Zr422 Zr 0.56225 0.52921 -0.00004
 O423 O 0.61880 0.50922 0.00359
 O424 O 0.58226 0.58568 -0.00346
 Zr425 Zr 0.50157 0.49896 -0.04560
 Zr426 Zr 0.50157 0.49900 0.04545
 O427 O 0.55371 0.48162 0.02655
 O428 O 0.55418 0.48145 -0.02737
 O429 O 0.48406 0.44641 0.02723
 O430 O 0.51895 0.55107 -0.02669
 O431 O 0.48422 0.44685 -0.02667
 O432 O 0.51909 0.55155 0.02720
 H433 H 0.42821 0.52320 0.04035
 H434 H 0.52578 0.57228 -0.04054
 H435 H 0.57490 0.47480 0.04044
 H436 H 0.47736 0.42566 -0.04054
 H437 H 0.50729 0.62134 0.01438
 H438 H 0.56866 0.60084 0.01213
 H439 H 0.62402 0.49328 -0.01459
 H440 H 0.60347 0.43188 -0.01250
 H441 H 0.49575 0.37666 0.01430
 H442 H 0.43435 0.39717 0.01249
 H443 H 0.37920 0.50484 -0.01434
 H444 H 0.39970 0.56615 -0.01251
 C445 C 0.27184 1.16551 0.14660
 C446 C 0.30933 1.17158 0.13720
 C447 C 0.33135 1.19894 0.15221
 C448 C 0.31640 1.21937 0.17692
 C449 C 0.27886 1.21319 0.18696
 C450 C 0.25676 1.18601 0.17129
 C451 C 0.32650 1.14780 0.11401
 C452 C 0.34276 1.12775 0.09573
 C453 C 0.36445 1.10449 0.07582
 C454 C 0.38570 1.08538 0.06047
 H455 H 0.25462 1.14405 0.13552
 H456 H 0.36057 1.20365 0.14544
 H457 H 0.33474 1.23925 0.18868
 H458 H 0.22831 1.17925 0.17876
 C459 C 0.77131 0.66492 0.64677
 C460 C 0.80888 0.67081 0.63750
 C461 C 0.83094 0.69806 0.65259
 C462 C 0.81596 0.71856 0.67725
 C463 C 0.77834 0.71254 0.68717
 C464 C 0.75619 0.68549 0.67141
 C465 C 0.82608 0.64700 0.61434
 C466 C 0.84239 0.62697 0.59607
 C467 C 0.86417 0.60379 0.57615
 C468 C 0.88548 0.58479 0.56076
 H469 H 0.75404 0.64356 0.63560
 H470 H 0.86021 0.70266 0.64592
 H471 H 0.83433 0.73836 0.68906
 H472 H 0.72766 0.67889 0.67877
 C473 C 0.72745 0.83749 0.14805
 C474 C 0.68994 0.83166 0.13864
 C475 C 0.66810 0.80362 0.15298
 C476 C 0.68323 0.78233 0.17714
 C477 C 0.72074 0.78836 0.18729
 C478 C 0.74269 0.81616 0.17218
 C479 C 0.67263 0.85634 0.11616
 C480 C 0.65636 0.87706 0.09839
 C481 C 0.63472 0.90085 0.07888
 C482 C 0.61351 0.92002 0.06355
 H483 H 0.74453 0.85944 0.13747
 H484 H 0.63887 0.79906 0.14617
 H485 H 0.66499 0.76200 0.18851
 H486 H 0.77111 0.82286 0.17977
 C487 C 1.22777 0.33777 0.64814
 C488 C 1.19022 0.33202 0.63880
 C489 C 1.16835 0.30407 0.65323
 C490 C 1.18348 0.28281 0.67741
 C491 C 1.22103 0.28877 0.68749
 C492 C 1.24301 0.31647 0.67229
 C493 C 1.17290 0.35666 0.61629
 C494 C 1.15661 0.37734 0.59850
 C495 C 1.13493 0.40107 0.57895
 C496 C 1.11371 0.42019 0.56360
 H497 H 1.24488 0.35964 0.63748
 H498 H 1.13909 0.29955 0.64648
 H499 H 1.16522 0.26256 0.68884
 H500 H 1.27148 0.32311 0.67983
 C501 C 0.73262 1.15740 -0.15129
 C502 C 0.69357 1.15616 -0.14532
 C503 C 0.66884 1.17809 -0.16308
 C504 C 0.68280 1.20075 -0.18680
 C505 C 0.72202 1.20244 -0.19311
 C506 C 0.74673 1.18025 -0.17505
 C507 C 0.67801 1.13166 -0.12186
 C508 C 0.66231 1.11179 -0.10314
 C509 C 0.64052 1.08967 -0.08245
 C510 C 0.61869 1.07240 -0.06623
 H511 H 0.75209 1.14030 -0.13793
 H512 H 0.63852 1.17727 -0.15887
 H513 H 0.66263 1.21676 -0.20033
 H514 H 0.77687 1.17971 -0.17963
 C515 C 1.23288 0.65737 0.34879
 C516 C 1.19382 0.65627 0.35477
 C517 C 1.16917 0.67820 0.33692
 C518 C 1.18322 0.70070 0.31313
 C519 C 1.22245 0.70223 0.30682
 C520 C 1.24708 0.68005 0.32496
 C521 C 1.17815 0.63193 0.37829
 C522 C 1.16236 0.61217 0.39705
 C523 C 1.14049 0.59013 0.41774
 C524 C 1.11862 0.57285 0.43393
 H525 H 1.25229 0.64027 0.36222
 H526 H 1.13885 0.67751 0.34112
 H527 H 1.16311 0.71672 0.29956
 H528 H 1.27722 0.67941 0.32039
 C529 C 0.26743 0.84015 -0.14846
 C530 C 0.30642 0.84127 -0.14223
 C531 C 0.33133 0.81971 -0.16013
 C532 C 0.31758 0.79745 -0.18419
 C533 C 0.27841 0.79581 -0.19069
 C534 C 0.25355 0.81773 -0.17256
 C535 C 0.32171 0.86545 -0.11845
 C536 C 0.33715 0.88525 -0.09955
 C537 C 0.35869 0.90757 -0.07884
 C538 C 0.38041 0.92536 -0.06290
 H539 H 0.24784 0.85704 -0.13504
 H540 H 0.36161 0.82050 -0.15575
 H541 H 0.33786 0.78167 -0.19779
 H542 H 0.22346 0.81838 -0.17731
 C543 C 0.76718 0.34044 0.35156
 C544 C 0.80616 0.34135 0.35783
 C545 C 0.83097 0.31969 0.33992
 C546 C 0.81713 0.29753 0.31583
 C547 C 0.77796 0.29609 0.30930
 C548 C 0.75320 0.31812 0.32743
 C549 C 0.82156 0.36541 0.38164
 C550 C 0.83708 0.38509 0.40059
 C551 C 0.85867 0.40730 0.42135
 C552 C 0.88042 0.42501 0.43734
 H553 H 0.74765 0.35740 0.36499
 H554 H 0.86125 0.32032 0.34430
 H555 H 0.83735 0.28166 0.30222
 H556 H 0.72311 0.31891 0.32267
 C557 C 1.15746 0.26795 0.15028
 C558 C 1.15626 0.30693 0.14412
 C559 C 1.17847 0.33173 0.16160
 C560 C 1.20135 0.31789 0.18524
 C561 C 1.20299 0.27874 0.19174
 C562 C 1.18052 0.25398 0.17395
 C563 C 1.13143 0.32231 0.12083
 C564 C 1.11123 0.33781 0.10224
 C565 C 1.08867 0.35937 0.08171
 C566 C 1.07102 0.38108 0.06567
 H567 H 1.14013 0.24844 0.13716
 H568 H 1.17766 0.36200 0.15726
 H569 H 1.21754 0.33810 0.19860
 H570 H 1.17988 0.22390 0.17871
 C571 C 0.65671 0.76759 0.65060
 C572 C 0.65564 0.80656 0.64441
 C573 C 0.67805 0.83128 0.66180
 C574 C 0.70099 0.81737 0.68538
 C575 C 0.70247 0.77822 0.69191
 C576 C 0.67982 0.75353 0.67421
 C577 C 0.63077 0.82205 0.62118
 C578 C 0.61055 0.83763 0.60263
 C579 C 0.58802 0.85927 0.58214
 C580 C 0.57044 0.88101 0.56606
 H581 H 0.63923 0.74813 0.63754
 H582 H 0.67735 0.86155 0.65744
 H583 H 0.71732 0.83752 0.69867
 H584 H 0.67907 0.72346 0.67900
 C585 C 1.16450 0.72726 -0.14617
 C586 C 1.17059 0.68986 -0.13663
 C587 C 1.19828 0.66791 -0.15132
 C588 C 1.21899 0.68283 -0.17589
 C589 C 1.21276 0.72027 -0.18610
 C590 C 1.18526 0.74230 -0.17071
 C591 C 1.14646 0.67272 -0.11367
 C592 C 1.12608 0.65656 -0.09558
 C593 C 1.10246 0.63500 -0.07586
 C594 C 1.08313 0.61384 -0.06063
 H595 H 1.14279 0.74443 -0.13533
 H596 H 1.20302 0.63875 -0.14443
 H597 H 1.23909 0.66453 -0.18745
 H598 H 1.17840 0.77065 -0.17834
 C599 C 0.66401 1.22769 0.35382
 C600 C 0.66996 1.19022 0.36325
 C601 C 0.69751 1.16821 0.34844
 C602 C 0.71821 1.18315 0.32388
 C603 C 0.71212 1.22066 0.31379
 C604 C 0.68477 1.24275 0.32929
 C605 C 0.64585 1.17307 0.38621
 C606 C 0.62551 1.15687 0.40430
 C607 C 0.60196 1.13524 0.42403
 C608 C 0.58271 1.11402 0.43927
 H609 H 0.64241 1.24490 0.36476
 H610 H 0.70214 1.13900 0.35524
 H611 H 0.73821 1.16481 0.31223
 H612 H 0.67803 1.27117 0.32176
 C613 C 0.81972 0.66918 0.16113
 C614 C 0.84089 0.69399 0.14285
 C615 C 0.83980 0.73300 0.14892
 C616 C 0.81773 0.74702 0.17320
 C617 C 0.79617 0.72225 0.19169
 C618 C 0.79784 0.68305 0.18537
 C619 C 0.86458 0.67855 0.11881
 C620 C 0.88394 0.66293 0.09970
 C621 C 0.90579 0.64119 0.07879
 C622 C 0.92324 0.61934 0.06271
 H623 H 0.82048 0.63889 0.15688
 H624 H 0.85638 0.75253 0.13520
 H625 H 0.81831 0.77713 0.17778
 H626 H 0.78229 0.66284 0.19920
 C627 C 0.31993 1.16941 0.66146
 C628 C 0.34118 1.19413 0.64316
 C629 C 0.34017 1.23316 0.64919
 C630 C 0.31810 1.24727 0.67344
 C631 C 0.29647 1.22259 0.69194
 C632 C 0.29805 1.18338 0.68566
 C633 C 0.36483 1.17858 0.61913
 C634 C 0.38414 1.16287 0.60002
 C635 C 0.40591 1.14106 0.57910
 C636 C 0.42331 1.11920 0.56299
 H637 H 0.32063 1.13911 0.65725
 H638 H 0.35681 1.25262 0.63545
 H639 H 0.31874 1.27739 0.67798
 H640 H 0.28244 1.16322 0.69950
 C641 C 0.80304 0.33098 -0.15419
 C642 C 0.83085 0.30913 -0.13955
 C643 C 0.83662 0.27155 -0.14878
 C644 C 0.81548 0.25626 -0.17302
 C645 C 0.78795 0.27825 -0.18843
 C646 C 0.78196 0.31582 -0.17845
 C647 C 0.85527 0.32651 -0.11690
 C648 C 0.87573 0.34290 -0.09900
 C649 C 0.89918 0.36471 -0.07931
 C650 C 0.91809 0.38601 -0.06385
 H651 H 0.79849 0.36025 -0.14751
 H652 H 0.85836 0.25443 -0.13795
 H653 H 0.82207 0.22776 -0.18044
 H654 H 0.76179 0.33407 -0.19000
 C655 C 0.30371 0.83077 0.34553
 C656 C 0.33141 0.80888 0.36026
 C657 C 0.33709 0.77125 0.35112
 C658 C 0.31597 0.75595 0.32688
 C659 C 0.28854 0.77796 0.31138
 C660 C 0.28265 0.81559 0.32126
 C661 C 0.35578 0.82626 0.38295
 C662 C 0.37616 0.84269 0.40089
 C663 C 0.39950 0.86455 0.42063
 C664 C 0.41831 0.88591 0.43613
 H665 H 0.29923 0.86007 0.35213
 H666 H 0.35874 0.75410 0.36204
 H667 H 0.32248 0.72739 0.31953
 H668 H 0.26256 0.83386 0.30964
 C669 C 1.19173 1.16488 0.34273
 C670 C 1.17041 1.13620 0.32892
 C671 C 1.16654 1.13490 0.29714
 C672 C 1.18430 1.16220 0.27906
 C673 C 1.20613 1.19126 0.29262
 C674 C 1.20950 1.19224 0.32474
 C675 C 1.15103 1.10928 0.34767
 C676 C 1.13418 1.08839 0.36450
 C677 C 1.11376 1.06673 0.38569
 C678 C 1.09575 1.05106 0.40521
 H679 H 1.19454 1.16618 0.36744
 H680 H 1.14971 1.11290 0.28634
 H681 H 1.18095 1.16017 0.25447
 H682 H 1.22615 1.21382 0.33611
 C683 C 0.66689 0.63373 -0.20271
 C684 C 0.67076 0.63500 -0.17092
 C685 C 0.69166 0.66399 -0.15708
 C686 C 0.70902 0.69164 -0.17504
 C687 C 0.70570 0.69065 -0.20716
 C688 C 0.68425 0.66132 -0.22075
 C689 C 0.65182 0.60772 -0.15222
 C690 C 0.63523 0.58652 -0.13544
 C691 C 0.61500 0.56457 -0.11432
 C692 C 0.59699 0.54882 -0.09483
 H693 H 0.65041 0.61149 -0.21353
 H694 H 0.69449 0.66525 -0.13237
 H695 H 0.72543 0.71340 -0.16365
 H696 H 0.68095 0.65925 -0.24534
 C697 C 0.86615 1.16585 0.70193
 C698 C 0.86510 1.16964 0.67015
 C699 C 0.83661 1.19110 0.65617
 C700 C 0.80917 1.20900 0.67401
 C701 C 0.80986 1.20563 0.70613
 C702 C 0.83878 1.18373 0.71985
 C703 C 0.89198 1.14993 0.65159
 C704 C 0.91285 1.13271 0.63499
 C705 C 0.93448 1.11186 0.61405
 C706 C 0.95006 1.09354 0.59468
 H707 H 0.88801 1.14894 0.71286
 H708 H 0.83551 1.19386 0.63145
 H709 H 0.78771 1.22571 0.66253
 H710 H 0.84062 1.18036 0.74445
 C711 C 0.36694 0.66586 0.20178
 C712 C 0.36596 0.66975 0.17000
 C713 C 0.33731 0.69099 0.15602
 C714 C 0.30967 0.70862 0.17385
 C715 C 0.31035 0.70522 0.20597
 C716 C 0.33939 0.68349 0.21969
 C717 C 0.39313 0.65040 0.15146
 C718 C 0.41426 0.63345 0.13487
 C719 C 0.43614 0.61281 0.11396
 C720 C 0.45182 0.59455 0.09459
 H721 H 0.38892 0.64911 0.21271
 H722 H 0.33626 0.69383 0.13130
 H723 H 0.28812 0.72521 0.16237
 H724 H 0.34124 0.68011 0.24429
 C725 C 1.13482 0.83272 0.70349
 C726 C 1.13620 0.82878 0.67172
 C727 C 1.16475 0.80715 0.65801
 C728 C 1.19194 0.78926 0.67609
 C729 C 1.19094 0.79278 0.70819
 C730 C 1.16196 0.81481 0.72166
 C731 C 1.10964 0.84845 0.65283
 C732 C 1.08913 0.86555 0.63584
 C733 C 1.06797 0.88620 0.61446
 C734 C 1.05271 0.90438 0.59482
 H735 H 1.11291 0.84976 0.71421
 H736 H 1.16610 0.80427 0.63330
 H737 H 1.21346 0.77246 0.66478
 H738 H 1.15991 0.81827 0.74624
 C739 C 0.63391 0.33270 0.20342
 C740 C 0.63525 0.32870 0.17165
 C741 C 0.66401 0.30736 0.15793
 C742 C 0.69140 0.28976 0.17601
 C743 C 0.69039 0.29328 0.20812
 C744 C 0.66124 0.31508 0.22159
 C745 C 0.60840 0.34802 0.15277
 C746 C 0.58766 0.36486 0.13579
 C747 C 0.56628 0.38532 0.11442
 C748 C 0.55096 0.40346 0.09478
 H749 H 0.61184 0.34953 0.21415
 H750 H 0.66534 0.30442 0.13323
 H751 H 0.71304 0.27310 0.16470
 H752 H 0.65918 0.31852 0.24617
 C753 C 0.83384 0.86564 0.29723
 C754 C 0.82989 0.86449 0.32901
 C755 C 0.80800 0.83624 0.34284
 C756 C 0.78986 0.80910 0.32486
 C757 C 0.79343 0.80985 0.29275
 C758 C 0.81572 0.83856 0.27918
 C759 C 0.84991 0.89094 0.34775
 C760 C 0.86734 0.91139 0.36455
 C761 C 0.88837 0.93252 0.38570
 C762 C 0.90680 0.94776 0.40519
 H763 H 0.85109 0.88731 0.28643
 H764 H 0.80511 0.83506 0.36755
 H765 H 0.77289 0.78778 0.33624
 H766 H 0.81925 0.84042 0.25460
 C767 C 0.30787 0.33711 -0.15699
 C768 C 0.32950 0.36555 -0.17084
 C769 C 0.33353 0.36661 -0.20262
 C770 C 0.31570 0.33929 -0.22064
 C771 C 0.29365 0.31043 -0.20704
 C772 C 0.29004 0.30974 -0.17493
 C773 C 0.34922 0.39229 -0.15214
 C774 C 0.36646 0.41297 -0.13538
 C775 C 0.38737 0.43432 -0.11428
 C776 C 0.40580 0.44963 -0.09481
 H777 H 0.30493 0.33600 -0.13228
 H778 H 0.35057 0.38842 -0.21345
 H779 H 0.31924 0.34112 -0.24522
 H780 H 0.27321 0.28832 -0.16353
 C781 C 1.15809 0.26954 -0.14978
 C782 C 1.15643 0.30848 -0.14360
 C783 C 1.17815 0.33359 -0.16119
 C784 C 1.20101 0.32007 -0.18498
 C785 C 1.20308 0.28095 -0.19149
 C786 C 1.18110 0.25589 -0.17359
 C787 C 1.13163 0.32345 -0.12013
 C788 C 1.11138 0.33855 -0.10136
 C789 C 1.08875 0.35970 -0.08063
 C790 C 1.07104 0.38118 -0.06445
 H791 H 1.14114 0.24979 -0.13657
 H792 H 1.17698 0.36384 -0.15682
 H793 H 1.21684 0.34048 -0.19842
 H794 H 1.18080 0.22581 -0.17834
 C795 C 0.65783 0.76934 0.35005
 C796 C 0.65627 0.80830 0.35619
 C797 C 0.67803 0.83332 0.33856
 C798 C 0.70084 0.81971 0.31478
 C799 C 0.70282 0.78057 0.30830
 C800 C 0.68080 0.75559 0.32624
 C801 C 0.63152 0.82339 0.37966
 C802 C 0.61132 0.83858 0.39842
 C803 C 0.58876 0.85981 0.41916
 C804 C 0.57109 0.88132 0.43537
 H805 H 0.64086 0.74965 0.36330
 H806 H 0.67695 0.86358 0.34290
 H807 H 0.71672 0.84006 0.30132
 H808 H 0.68044 0.72551 0.32153
 C809 C 0.83913 0.73127 -0.14858
 C810 C 0.84058 0.69230 -0.14243
 C811 C 0.81975 0.66722 -0.16073
 C812 C 0.79785 0.68079 -0.18508
 C813 C 0.79584 0.71995 -0.19147
 C814 C 0.81706 0.74498 -0.17296
 C815 C 0.86428 0.67725 -0.11825
 C816 C 0.88372 0.66202 -0.09898
 C817 C 0.90567 0.64071 -0.07788
 C818 C 0.92321 0.61912 -0.06165
 H819 H 0.85543 0.75101 -0.13483
 H820 H 0.82080 0.63695 -0.15642
 H821 H 0.78256 0.66040 -0.19893
 H822 H 0.81739 0.77508 -0.17758
 C823 C 0.33951 1.23150 0.35133
 C824 C 0.34091 1.19251 0.35741
 C825 C 0.32012 1.16751 0.33901
 C826 C 0.29830 1.18119 0.31465
 C827 C 0.29634 1.22037 0.30833
 C828 C 0.31753 1.24532 0.32694
 C829 C 0.36450 1.17735 0.38163
 C830 C 0.38384 1.16204 0.40093
 C831 C 0.40568 1.14067 0.42209
 C832 C 0.42313 1.11906 0.43837
 H833 H 0.35579 1.25118 0.36516
 H834 H 0.32111 1.13723 0.34326
 H835 H 0.28301 1.16086 0.30073
 H836 H 0.31787 1.27544 0.32239
 C837 C 1.16618 0.72688 0.14635
 C838 C 1.17247 0.68962 0.13657
 C839 C 1.20061 0.66782 0.15085
 C840 C 1.22159 0.68277 0.17528
 C841 C 1.21515 0.72006 0.18574
 C842 C 1.18717 0.74193 0.17075
 C843 C 1.14802 0.67244 0.11385
 C844 C 1.12731 0.65632 0.09598
 C845 C 1.10328 0.63486 0.07653
 C846 C 1.08361 0.61376 0.06151
 H847 H 1.14411 0.74390 0.13585
 H848 H 1.20548 0.63875 0.14379
 H849 H 1.24202 0.66457 0.18657
 H850 H 1.18010 0.77013 0.17860
 C851 C 0.66585 1.22717 0.64639
 C852 C 0.67214 1.18987 0.63666
 C853 C 0.70024 1.16810 0.65101
 C854 C 0.72119 1.18309 0.67543
 C855 C 0.71475 1.22042 0.68583
 C856 C 0.68682 1.24227 0.67078
 C857 C 0.64773 1.17266 0.61393
 C858 C 0.62708 1.15650 0.59604
 C859 C 0.60312 1.13500 0.57655
 C860 C 0.58351 1.11387 0.56150
 H861 H 0.64381 1.24418 0.63583
 H862 H 0.70512 1.13901 0.64400
 H863 H 0.74159 1.16491 0.68677
 H864 H 0.67976 1.27049 0.67859
 C865 C 0.80071 0.33128 0.15390
 C866 C 0.82898 0.30960 0.13968
 C867 C 0.83496 0.27215 0.14914
 C868 C 0.81356 0.25682 0.17320
 C869 C 0.78555 0.27862 0.18820
 C870 C 0.77935 0.31607 0.17800
 C871 C 0.85373 0.32701 0.11729
 C872 C 0.87452 0.34332 0.09961
 C873 C 0.89840 0.36498 0.08016
 C874 C 0.91764 0.38618 0.06489
 H875 H 0.79603 0.36047 0.14706
 H876 H 0.85707 0.25518 0.13864
 H877 H 0.82038 0.22846 0.18083
 H878 H 0.75885 0.33420 0.18928
 C879 C 0.30124 0.83086 0.65397
 C880 C 0.32950 0.80918 0.63974
 C881 C 0.33543 0.77170 0.64914
 C882 C 0.31402 0.75636 0.67319
 C883 C 0.28603 0.77816 0.68822
 C884 C 0.27986 0.81563 0.67805
 C885 C 0.35427 0.82663 0.61737
 C886 C 0.37505 0.84299 0.59970
 C887 C 0.39889 0.86471 0.58026
 C888 C 0.41809 0.88596 0.56499
 H889 H 0.29658 0.86006 0.64717
 H890 H 0.35753 0.75473 0.63863
 H891 H 0.32081 0.72797 0.68079
 H892 H 0.25937 0.83375 0.68935
 C893 C 0.33129 1.20126 -0.15195
 C894 C 0.30948 1.17336 -0.13739
 C895 C 0.27212 1.16708 -0.14703
 C896 C 0.25701 1.18784 -0.17154
 C897 C 0.27891 1.21554 -0.18680
 C898 C 0.31629 1.22198 -0.17648
 C899 C 0.32671 1.14920 -0.11449
 C900 C 0.34292 1.12878 -0.09645
 C901 C 0.36450 1.10509 -0.07679
 C902 C 0.38567 1.08569 -0.06160
 H903 H 0.36041 1.20615 -0.14499
 H904 H 0.25507 1.14521 -0.13630
 H905 H 0.22871 1.18084 -0.17925
 H906 H 0.33450 1.24225 -0.18795
 C907 C 0.83112 0.70065 0.34767
 C908 C 0.80929 0.67281 0.36228
 C909 C 0.77188 0.66663 0.35274
 C910 C 0.75673 0.68743 0.32827
 C911 C 0.77865 0.71506 0.31295
 C912 C 0.81608 0.72141 0.32318
 C913 C 0.82656 0.64864 0.38516
 C914 C 0.84281 0.62823 0.40319
 C915 C 0.86444 0.60458 0.42285
 C916 C 0.88564 0.58523 0.43805
 H917 H 0.86029 0.70547 0.35456
 H918 H 0.75481 0.64481 0.36352
 H919 H 0.72838 0.68051 0.32063
 H920 H 0.83430 0.74163 0.31167
 C921 C 0.66677 1.17841 0.16230
 C922 C 0.69181 1.15707 0.14435
 C923 C 0.73082 1.15869 0.15038
 C924 C 0.74461 1.18135 0.17436
 C925 C 0.71961 1.20299 0.19259
 C926 C 0.68042 1.20091 0.18625
 C927 C 0.67667 1.13273 0.12064
 C928 C 0.66137 1.11288 0.10170
 C929 C 0.63999 1.09068 0.08081
 C930 C 0.61838 1.07325 0.06453
 H931 H 0.63647 1.17727 0.15805
 H932 H 0.75052 1.14202 0.13688
 H933 H 0.77474 1.18110 0.17894
 H934 H 0.66006 1.21652 0.19991
 C935 C 1.23120 0.65815 0.65047
 C936 C 1.19217 0.65654 0.64450
 C937 C 1.16719 0.67789 0.66251
 C938 C 1.18091 0.70038 0.68644
 C939 C 1.22012 0.70244 0.69272
 C940 C 1.24506 0.68081 0.67443
 C941 C 1.17693 0.63224 0.62079
 C942 C 1.16155 0.61244 0.60185
 C943 C 1.14010 0.59033 0.58095
 C944 C 1.11845 0.57298 0.56463
 H945 H 1.25086 0.64150 0.63692
 H946 H 1.13688 0.67677 0.65831
 H947 H 1.16058 0.71599 0.70012
 H948 H 1.27520 0.68056 0.67897
 C949 C 0.72716 0.83592 -0.14856
 C950 C 0.68974 0.83006 -0.13896
 C951 C 0.66801 0.80157 -0.15284
 C952 C 0.68314 0.77991 -0.17680
 C953 C 0.72053 0.78604 -0.18719
 C954 C 0.74238 0.81425 -0.17248
 C955 C 0.67240 0.85521 -0.11683
 C956 C 0.65620 0.87637 -0.09935
 C957 C 0.63469 0.90066 -0.08014
 C958 C 0.61357 0.92017 -0.06501
 H959 H 0.74416 0.85818 -0.13832
 H960 H 0.63885 0.79696 -0.14587
 H961 H 0.66498 0.75926 -0.18788
 H962 H 0.77069 0.82106 -0.18028
 C963 C 1.16833 0.30179 0.34697
 C964 C 1.19002 0.33019 0.36100
 C965 C 1.22747 0.33610 0.35148
 C966 C 1.24276 0.31457 0.32749
 C967 C 1.22094 0.28644 0.31265
 C968 C 1.18351 0.28027 0.32295
 C969 C 1.17263 0.35516 0.38323
 C970 C 1.15636 0.37617 0.40079
 C971 C 1.13477 0.40029 0.42008
 C972 C 1.11361 0.41971 0.43524
 H973 H 1.13915 0.29714 0.35387
 H974 H 1.24445 0.35831 0.36183
 H975 H 1.27109 0.32140 0.31977
 H976 H 1.16537 0.25969 0.31177
 C977 C 0.33331 0.81970 0.15939
 C978 C 0.30810 0.84077 0.14137
 C979 C 0.26916 0.83928 0.14768
 C980 C 0.25560 0.81696 0.17194
 C981 C 0.28074 0.79550 0.19018
 C982 C 0.31988 0.79753 0.18363
 C983 C 0.32296 0.86483 0.11737
 C984 C 0.33798 0.88460 0.09823
 C985 C 0.35904 0.90697 0.07726
 C986 C 0.38050 0.92482 0.06115
 H987 H 0.36357 0.82079 0.15496
 H988 H 0.24934 0.85579 0.13417
 H989 H 0.22552 0.81733 0.17671
 H990 H 0.34035 0.78209 0.19731
 C991 C 0.76891 0.33972 0.64785
 C992 C 0.80787 0.34119 0.64161
 C993 C 0.83302 0.32010 0.65968
 C994 C 0.81950 0.29794 0.68389
 C995 C 0.78034 0.29594 0.69037
 C996 C 0.75526 0.31741 0.67209
 C997 C 0.82284 0.36521 0.61761
 C998 C 0.83795 0.38494 0.59848
 C999 C 0.85911 0.40725 0.57752
 C1000 C 0.88061 0.42505 0.56140
 H1001 H 0.74913 0.35624 0.63430
 H1002 H 0.86328 0.32117 0.65530
 H1003 H 0.83992 0.28249 0.69760
 H1004 H 0.72517 0.31778 0.67680
 C1005 C 1.16470 1.13889 0.70293
 C1006 C 1.16835 1.14037 0.67113
 C1007 C 1.19058 1.16839 0.65737
 C1008 C 1.20930 1.19504 0.67542
 C1009 C 1.20598 1.19400 0.70755
 C1010 C 1.18341 1.16549 0.72106
 C1011 C 1.14803 1.11425 0.65233
 C1012 C 1.13064 1.09382 0.63549
 C1013 C 1.11007 1.07228 0.61433
 C1014 C 1.09239 1.05618 0.59485
 H1015 H 1.14727 1.11733 0.71368
 H1016 H 1.19331 1.16976 0.63266
 H1017 H 1.22645 1.21624 0.66408
 H1018 H 1.18006 1.16343 0.74565
 C1019 C 0.69072 0.66757 0.15716
 C1020 C 0.66888 0.63926 0.17096
 C1021 C 0.66524 0.63779 0.20275
 C1022 C 0.68361 0.66464 0.22086
 C1023 C 0.70580 0.69343 0.20732
 C1024 C 0.70908 0.69449 0.17519
 C1025 C 0.64892 0.61281 0.15219
 C1026 C 0.63176 0.59214 0.13538
 C1027 C 0.61132 0.57042 0.11425
 C1028 C 0.59360 0.55433 0.09479
 H1029 H 0.69343 0.66893 0.13245
 H1030 H 0.64811 0.61600 0.21352
 H1031 H 0.68035 0.66253 0.24545
 H1032 H 0.72602 0.71585 0.16383
 C1033 C 1.13934 0.83484 0.29629
 C1034 C 1.14090 0.83105 0.32807
 C1035 C 1.16868 0.80838 0.34170
 C1036 C 1.19504 0.78944 0.32353
 C1037 C 1.19397 0.79294 0.29142
 C1038 C 1.16565 0.81588 0.27803
 C1039 C 1.11521 0.85169 0.34704
 C1040 C 1.09520 0.86930 0.36406
 C1041 C 1.07417 0.89008 0.38543
 C1042 C 1.05844 0.90791 0.40503
 H1043 H 1.11797 0.85261 0.28564
 H1044 H 1.17012 0.80554 0.36640
 H1045 H 1.21611 0.77202 0.33479
 H1046 H 1.16359 0.81938 0.25345
 C1047 C 0.66768 0.30812 -0.15818
 C1048 C 0.63964 0.33045 -0.17182
 C1049 C 0.63811 0.33428 -0.20361
 C1050 C 0.66469 0.31568 -0.22185
 C1051 C 0.69326 0.29306 -0.20844
 C1052 C 0.69432 0.28953 -0.17633
 C1053 C 0.61364 0.35076 -0.15288
 C1054 C 0.59342 0.36818 -0.13589
 C1055 C 0.57223 0.38887 -0.11456
 C1056 C 0.55652 0.40674 -0.09498
 H1057 H 0.66910 0.30525 -0.13348
 H1058 H 0.61654 0.35180 -0.21426
 H1059 H 0.66262 0.31916 -0.24642
 H1060 H 0.71554 0.27231 -0.16507
 C1061 C 0.86151 1.16361 0.29785
 C1062 C 0.86026 1.16720 0.32965
 C1063 C 0.83254 1.18969 0.34356
 C1064 C 0.80594 1.20869 0.32564
 C1065 C 0.80672 1.20539 0.29352
 C1066 C 0.83496 1.18259 0.27986
 C1067 C 0.88632 1.14653 0.34827
 C1068 C 0.90673 1.12881 0.36489
 C1069 C 0.92828 1.10786 0.38581
 C1070 C 0.94437 1.08992 0.40514
 H1071 H 0.88283 1.14599 0.28698
 H1072 H 0.83135 1.19236 0.36829
 H1073 H 0.78493 1.22599 0.33709
 H1074 H 0.83682 1.17921 0.25526
 C1075 C 0.33365 0.68997 -0.15638
 C1076 C 0.36165 0.66783 -0.17031
 C1077 C 0.36285 0.66419 -0.20210
 C1078 C 0.33602 0.68279 -0.22007
 C1079 C 0.30751 0.70525 -0.20640
 C1080 C 0.30675 0.70858 -0.17428
 C1081 C 0.38799 0.64750 -0.15171
 C1082 C 0.40861 0.62998 -0.13510
 C1083 C 0.43029 0.60912 -0.11422
 C1084 C 0.44635 0.59113 -0.09490
 H1085 H 0.33248 0.69267 -0.13165
 H1086 H 0.38438 0.64683 -0.21298
 H1087 H 0.33791 0.67944 -0.24467
 H1088 H 0.28558 0.72568 -0.16283
 C1089 C 0.80918 0.83234 0.65718
 C1090 C 0.83213 0.85979 0.67094
 C1091 C 0.83593 0.86110 0.70272
 C1092 C 0.81674 0.83485 0.72085
 C1093 C 0.79353 0.80685 0.70734
 C1094 C 0.78998 0.80604 0.67523
 C1095 C 0.85313 0.88538 0.65215
 C1096 C 0.87108 0.90536 0.63535
 C1097 C 0.89225 0.92640 0.61425
 C1098 C 0.91032 0.94214 0.59481
 H1099 H 0.80634 0.83109 0.63247
 H1100 H 0.85391 0.88220 0.71347
 H1101 H 0.82032 0.83671 0.74543
 H1102 H 0.77238 0.78519 0.66389
 C1103 C 0.30913 0.33345 0.15709
 C1104 C 0.33174 0.36116 0.17089
 C1105 C 0.33559 0.36239 0.20267
 C1106 C 0.31676 0.33585 0.22076
 C1107 C 0.29387 0.30761 0.20721
 C1108 C 0.29030 0.30685 0.17511
 C1109 C 0.35235 0.38710 0.15213
 C1110 C 0.37006 0.40731 0.13534
 C1111 C 0.39108 0.42851 0.11424
 C1112 C 0.40917 0.44421 0.09479
 H1113 H 0.30626 0.33226 0.13238
 H1114 H 0.35334 0.38368 0.21344
 H1115 H 0.32030 0.33771 0.24534
 H1116 H 0.27291 0.28585 0.16374
   
