data_POSCAR
  _audit_creation_date              2014-09-24
  _audit_creation_method            'ToBaCCo'
  _symmetry_space_group_name_H-M    'P1'
  _symmetry_Int_Tables_number       1
  _symmetry_cell_setting            triclinic
  loop_
  _symmetry_equiv_pos_as_xyz
 x,y,z
_cell_length_a 46.6966
_cell_length_b 34.8742
_cell_length_c 23.2138
_cell_angle_alpha 89.946900
_cell_angle_beta 89.925300
_cell_angle_gamma 90.228800
loop_
  _atom_site_label
  _atom_site_type_symbol
  _atom_site_fract_x
  _atom_site_fract_y
  _atom_site_fract_z
C1 C 0.80253 0.21534 0.44919
 C2 C 0.81563 0.20816 0.50244
 C3 C 0.80287 0.21790 0.55516
 C4 C 0.77658 0.23834 0.55451
 C5 C 0.76308 0.24678 0.50114
 C6 C 0.77609 0.23542 0.44837
 C7 C 0.76365 0.24756 0.39627
 C8 C 0.73832 0.26821 0.39558
 C9 C 0.72462 0.27865 0.44698
 C10 C 0.73715 0.26831 0.50041
 C11 C 0.76496 0.25393 0.60522
 C12 C 0.73967 0.27474 0.60446
 C13 C 0.72460 0.28106 0.55293
 C14 C 0.69892 0.30305 0.55169
 C15 C 0.68733 0.31306 0.49795
 C16 C 0.69955 0.30109 0.44620
 H17 H 0.77388 0.24260 0.35519
 H18 H 0.73008 0.27698 0.35409
 H19 H 0.77595 0.25172 0.64604
 H20 H 0.73284 0.28726 0.64473
 H21 H 0.83501 0.19111 0.50300
 H22 H 0.66753 0.32918 0.49595
 C23 C 0.30896 0.72542 0.44938
 C24 C 0.32121 0.71565 0.50224
 C25 C 0.30939 0.72788 0.55440
 C26 C 0.28466 0.75121 0.55398
 C27 C 0.27175 0.76113 0.50073
 C28 C 0.28403 0.74831 0.44818
 C29 C 0.27165 0.75975 0.39585
 C30 C 0.24752 0.78295 0.39498
 C31 C 0.23474 0.79555 0.44641
 C32 C 0.24693 0.78466 0.49993
 C33 C 0.27329 0.76624 0.60514
 C34 C 0.24919 0.78957 0.60434
 C35 C 0.23485 0.79803 0.55251
 C36 C 0.21015 0.82193 0.55122
 C37 C 0.19917 0.83313 0.49743
 C38 C 0.21067 0.81991 0.44561
 H39 H 0.28078 0.75143 0.35489
 H40 H 0.23929 0.79146 0.35337
 H41 H 0.28336 0.76092 0.64632
 H42 H 0.24254 0.80179 0.64493
 H43 H 0.34012 0.69767 0.50280
 H44 H 0.18003 0.85062 0.49545
 C45 C 0.29377 0.29245 -0.55130
 C46 C 0.30696 0.29854 -0.49771
 C47 C 0.29234 0.29309 -0.44586
 C48 C 0.26401 0.27880 -0.44644
 C49 C 0.25069 0.26990 -0.49969
 C50 C 0.26542 0.27711 -0.55233
 C51 C 0.25186 0.26703 -0.60421
 C52 C 0.22408 0.25270 -0.60485
 C53 C 0.20919 0.24465 -0.55347
 C54 C 0.22255 0.25376 -0.50021
 C55 C 0.24873 0.27309 -0.39507
 C56 C 0.22100 0.25864 -0.39569
 C57 C 0.20781 0.24719 -0.44743
 C58 C 0.17960 0.23168 -0.44799
 C59 C 0.16620 0.22549 -0.50133
 C60 C 0.18076 0.22981 -0.55394
 H61 H 0.26256 0.26977 -0.64530
 H62 H 0.21439 0.24846 -0.64660
 H63 H 0.25799 0.27994 -0.35362
 H64 H 0.20989 0.25712 -0.35487
 H65 H 0.32830 0.31091 -0.49596
 H66 H 0.14512 0.21232 -0.50176
 C67 C -0.28748 0.66749 -0.44902
 C68 C -0.29793 0.65443 -0.50221
 C69 C -0.28603 0.66595 -0.55508
 C70 C -0.26107 0.68946 -0.55459
 C71 C -0.24966 0.70256 -0.50134
 C72 C -0.26271 0.69138 -0.44845
 C73 C -0.24911 0.70152 -0.39651
 C74 C -0.22464 0.72423 -0.39607
 C75 C -0.21208 0.73693 -0.44759
 C76 C -0.22431 0.72556 -0.50086
 C77 C -0.24558 0.69706 -0.60538
 C78 C -0.22102 0.71965 -0.60487
 C79 C -0.21059 0.73578 -0.55350
 C80 C -0.18526 0.75874 -0.55264
 C81 C -0.17362 0.76911 -0.49907
 C82 C -0.18667 0.75900 -0.44712
 H83 H -0.25655 0.69092 -0.35538
 H84 H -0.21513 0.73071 -0.35470
 H85 H -0.25157 0.68432 -0.64607
 H86 H -0.20967 0.72291 -0.64518
 H87 H -0.31767 0.63791 -0.50259
 H88 H -0.15477 0.78737 -0.49738
 N89 N 0.02182 1.06822 -0.06213
 N90 N 0.03970 1.09658 -0.07422
 N91 N -0.03715 1.03572 -0.10083
 N92 N -0.05688 1.04179 -0.14043
 N93 N -0.03823 1.06230 -0.06083
 N94 N -0.05875 1.08714 -0.07211
 N95 N 0.02290 1.04170 -0.10223
 N96 N 0.04155 1.05122 -0.14255
 C97 C 0.05210 1.08515 -0.12399
 C98 C -0.07044 1.07351 -0.12127
 N99 N -0.03092 0.92617 -0.06240
 N100 N -0.04896 0.89792 -0.07395
 N101 N 0.02732 0.95943 -0.10298
 N102 N 0.04739 0.95508 -0.14243
 N103 N 0.02914 0.93252 -0.06353
 N104 N 0.05051 0.90901 -0.07521
 N105 N -0.03269 0.95320 -0.10167
 N106 N -0.05194 0.94411 -0.14097
 Mn107 Mn -0.00494 0.99750 -0.10243
 C108 C -0.06214 0.90992 -0.12255
 C109 C 0.06179 0.92385 -0.12416
 N110 N -0.03777 1.06168 0.06318
 N111 N -0.05839 1.08617 0.07547
 N112 N 0.02367 1.04069 0.10190
 N113 N 0.04283 1.04962 0.14144
 N114 N 0.02231 1.06759 0.06237
 N115 N 0.04049 1.09565 0.07407
 N116 N -0.03637 1.03469 0.10257
 N117 N -0.05597 1.04009 0.14272
 Mn118 Mn -0.00795 1.06533 0.00066
 C119 C -0.06978 1.07187 0.12461
 C120 C 0.05335 1.08362 0.12300
 N121 N 0.02961 0.93194 0.06107
 N122 N 0.05114 0.90843 0.07153
 N123 N -0.03194 0.95229 0.10166
 N124 N -0.05119 0.94314 0.14105
 N125 N -0.03050 0.92561 0.06186
 N126 N -0.04876 0.89754 0.07313
 N127 N 0.02807 0.95851 0.10102
 N128 N 0.04848 0.95393 0.13959
 Mn129 Mn -0.00062 0.92862 -0.00075
 Mn130 Mn -0.00417 0.99652 0.10229
 Cl131 Cl -0.00441 0.99699 -0.00008
 C132 C 0.06280 0.92293 0.12027
 C133 C -0.06171 0.90928 0.12217
 N134 N 0.52903 0.56373 -0.06251
 N135 N 0.55027 0.58777 -0.07388
 N136 N 0.46740 0.54115 -0.10053
 N137 N 0.44800 0.54981 -0.13967
 N138 N 0.46888 0.56805 -0.06103
 N139 N 0.45048 0.59575 -0.07227
 N140 N 0.52746 0.53696 -0.10217
 N141 N 0.54756 0.54192 -0.14144
 C142 C 0.56170 0.57341 -0.12290
 C143 C 0.43740 0.58357 -0.12093
 N144 N 0.46338 0.43149 -0.06112
 N145 N 0.44299 0.40626 -0.07262
 N146 N 0.52416 0.45465 -0.10219
 N147 N 0.54391 0.44719 -0.14120
 N148 N 0.52355 0.42778 -0.06252
 N149 N 0.54288 0.40116 -0.07359
 N150 N 0.46409 0.45851 -0.10059
 N151 N 0.44424 0.45242 -0.13996
 Mn152 Mn 0.49573 0.49782 -0.10186
 C153 C 0.43105 0.42014 -0.12139
 C154 C 0.55550 0.41404 -0.12249
 N155 N 0.46946 0.56786 0.06326
 N156 N 0.45083 0.59521 0.07496
 N157 N 0.52845 0.53668 0.10172
 N158 N 0.54909 0.54129 0.13979
 N159 N 0.52965 0.56355 0.06209
 N160 N 0.55119 0.58732 0.07228
 N161 N 0.46838 0.54084 0.10269
 N162 N 0.44904 0.54903 0.14224
 Mn163 Mn 0.49930 0.56624 0.00046
 C164 C 0.43808 0.58267 0.12388
 C165 C 0.56318 0.57268 0.12057
 N166 N 0.52413 0.42765 0.06199
 N167 N 0.54361 0.40108 0.07211
 N168 N 0.46504 0.45831 0.10267
 N169 N 0.44539 0.45237 0.14260
 N170 N 0.46394 0.43138 0.06319
 N171 N 0.44346 0.40635 0.07524
 N172 N 0.52511 0.45445 0.10166
 N173 N 0.54526 0.44699 0.13973
 Mn174 Mn 0.49376 0.42913 0.00039
 Mn175 Mn 0.49671 0.49757 0.10267
 Cl176 Cl 0.49635 0.49770 0.00040
 C177 C 0.55671 0.41391 0.12043
 C178 C 0.43190 0.42026 0.12440
 C179 C 0.31218 0.34237 0.31070
 C180 C 0.34135 0.33392 0.30601
 C181 C 0.35434 0.31038 0.34704
 C182 C 0.33842 0.29584 0.39314
 C183 C 0.30900 0.30413 0.39876
 C184 C 0.29613 0.32774 0.35677
 C185 C 0.35863 0.35143 0.26175
 C186 C 0.37408 0.36656 0.22676
 C187 C 0.39323 0.38477 0.18832
 C188 C 0.41044 0.40075 0.15779
 H189 H 0.30203 0.36119 0.27975
 H190 H 0.37697 0.30389 0.34410
 H191 H 0.34916 0.27786 0.42441
 H192 H 0.27401 0.33652 0.36104
 C193 C -0.17321 0.80777 0.30573
 C194 C -0.14326 0.80805 0.30315
 C195 C -0.12745 0.79045 0.34676
 C196 C -0.14137 0.77331 0.39338
 C197 C -0.17154 0.77299 0.39713
 C198 C -0.18727 0.79043 0.35236
 C199 C -0.12835 0.82849 0.25828
 C200 C -0.11463 0.84622 0.22314
 C201 C -0.09727 0.86761 0.18494
 C202 C -0.08150 0.88637 0.15485
 H203 H -0.18566 0.82188 0.27262
 H204 H -0.10425 0.79064 0.34535
 H205 H -0.12843 0.75999 0.42649
 H206 H -0.21038 0.79242 0.35475
 C207 C 0.67093 0.60793 0.34106
 C208 C 0.66467 0.63516 0.29876
 C209 C 0.67606 0.67222 0.30313
 C210 C 0.69323 0.68218 0.35028
 C211 C 0.69932 0.65513 0.39386
 C212 C 0.68791 0.61778 0.38822
 C213 C 0.64482 0.62535 0.25364
 C214 C 0.62726 0.61564 0.21847
 C215 C 0.60573 0.60250 0.18059
 C216 C 0.58663 0.58974 0.15133
 H217 H 0.66212 0.57919 0.33828
 H218 H 0.67096 0.69373 0.27108
 H219 H 0.70043 0.71162 0.35411
 H220 H 0.69221 0.59601 0.42036
 C221 C 0.12301 1.20778 0.33997
 C222 C 0.13701 1.18238 0.30298
 C223 C 0.16596 1.17407 0.31169
 C224 C 0.18077 1.19066 0.35778
 C225 C 0.16688 1.21616 0.39575
 C226 C 0.13770 1.22432 0.38610
 C227 C 0.12094 1.16269 0.25911
 C228 C 0.10664 1.14553 0.22438
 C229 C 0.08896 1.12470 0.18624
 C230 C 0.07311 1.10628 0.15599
 H231 H 0.10052 1.21415 0.33396
 H232 H 0.17686 1.15382 0.28398
 H233 H 0.20269 1.18195 0.36537
 H234 H 0.12621 1.24363 0.41434
 C235 C 0.65610 0.36401 -0.34854
 C236 C 0.65015 0.33839 -0.30377
 C237 C 0.66124 0.30118 -0.30564
 C238 C 0.67801 0.28957 -0.35256
 C239 C 0.68401 0.31513 -0.39827
 C240 C 0.67267 0.35252 -0.39539
 C241 C 0.63134 0.35032 -0.25804
 C242 C 0.61485 0.36226 -0.22239
 C243 C 0.59478 0.37836 -0.18395
 C244 C 0.57710 0.39378 -0.15413
 H245 H 0.64754 0.39285 -0.34767
 H246 H 0.65639 0.28090 -0.27158
 H247 H 0.68519 0.26009 -0.35424
 H248 H 0.67691 0.37320 -0.42924
 C249 C 0.17070 0.81916 -0.30825
 C250 C 0.16054 0.85680 -0.30520
 C251 C 0.16785 0.88309 -0.34828
 C252 C 0.18481 0.87179 -0.39473
 C253 C 0.19517 0.83393 -0.39880
 C254 C 0.18782 0.80774 -0.35470
 C255 C 0.14107 0.86826 -0.26032
 C256 C 0.12397 0.87917 -0.22508
 C257 C 0.10309 0.89340 -0.18671
 C258 C 0.08458 0.90670 -0.15659
 H259 H 0.16475 0.79837 -0.27561
 H260 H 0.15997 0.91226 -0.34655
 H261 H 0.19003 0.89290 -0.42742
 H262 H 0.19410 0.77794 -0.35749
 C263 C 0.32394 0.67370 -0.30736
 C264 C 0.35290 0.68248 -0.29839
 C265 C 0.36691 0.70825 -0.33524
 C266 C 0.35233 0.72431 -0.38184
 C267 C 0.32351 0.71489 -0.39193
 C268 C 0.30929 0.68982 -0.35398
 C269 C 0.36903 0.66269 -0.25480
 C270 C 0.38346 0.64539 -0.22054
 C271 C 0.40134 0.62443 -0.18309
 C272 C 0.41739 0.60602 -0.15341
 H273 H 0.31296 0.65349 -0.27947
 H274 H 0.38936 0.71500 -0.32903
 H275 H 0.36369 0.74328 -0.41101
 H276 H 0.28720 0.68177 -0.36169
 C277 C -0.18520 1.16827 -0.30397
 C278 C -0.15532 1.17008 -0.30010
 C279 C -0.13965 1.18993 -0.34194
 C280 C -0.15358 1.20695 -0.38841
 C281 C -0.18364 1.20480 -0.39382
 C282 C -0.19930 1.18550 -0.35044
 C283 C -0.14017 1.14944 -0.25603
 C284 C -0.12605 1.13186 -0.22163
 C285 C -0.10800 1.11123 -0.18417
 C286 C -0.09143 1.09379 -0.15435
 H287 H -0.19751 1.15249 -0.27217
 H288 H -0.11650 1.19144 -0.33945
 H289 H -0.14076 1.22179 -0.42041
 H290 H -0.22226 1.18176 -0.35410
 C291 C 0.66907 0.60988 -0.34504
 C292 C 0.66131 0.63771 -0.30473
 C293 C 0.67136 0.67535 -0.31092
 C294 C 0.68891 0.68517 -0.35767
 C295 C 0.69683 0.65736 -0.39885
 C296 C 0.68647 0.61958 -0.39178
 C297 C 0.64157 0.62765 -0.25945
 C298 C 0.62428 0.61762 -0.22383
 C299 C 0.60322 0.60403 -0.18513
 C300 C 0.58459 0.59089 -0.15496
 H301 H 0.66126 0.58070 -0.34090
 H302 H 0.66505 0.69729 -0.28049
 H303 H 0.69520 0.71489 -0.36296
 H304 H 0.69205 0.59733 -0.42228
 C305 C 0.12042 1.20871 -0.34495
 C306 C 0.13461 1.18559 -0.30498
 C307 C 0.16405 1.17943 -0.31058
 C308 C 0.17917 1.19573 -0.35659
 C309 C 0.16510 1.21878 -0.39774
 C310 C 0.13543 1.22498 -0.39103
 C311 C 0.11844 1.16585 -0.26113
 C312 C 0.10426 1.14846 -0.22635
 C313 C 0.08688 1.12719 -0.18801
 C314 C 0.07138 1.10833 -0.15748
 H315 H 0.09757 1.21346 -0.34127
 H316 H 0.17515 1.16098 -0.28048
 H317 H 0.20158 1.18853 -0.36160
 H318 H 0.12378 1.24253 -0.42150
 C319 C 0.34841 0.30126 -0.32913
 C320 C 0.33905 0.33383 -0.29940
 C321 C 0.31340 0.35156 -0.31535
 C322 C 0.29753 0.33735 -0.36175
 C323 C 0.30713 0.30515 -0.39240
 C324 C 0.33256 0.28704 -0.37552
 C325 C 0.35702 0.35091 -0.25604
 C326 C 0.37284 0.36594 -0.22177
 C327 C 0.39223 0.38425 -0.18411
 C328 C 0.40955 0.40040 -0.15418
 H329 H 0.36838 0.28757 -0.31755
 H330 H 0.30614 0.37703 -0.29309
 H331 H 0.27824 0.35210 -0.37493
 H332 H 0.34046 0.26251 -0.39924
 C333 C -0.13097 0.78018 -0.33345
 C334 C -0.14490 0.80792 -0.30021
 C335 C -0.17330 0.81773 -0.31266
 C336 C -0.18743 0.80058 -0.35916
 C337 C -0.17326 0.77344 -0.39348
 C338 C -0.14504 0.76308 -0.37993
 C339 C -0.12915 0.82852 -0.25680
 C340 C -0.11504 0.84642 -0.22260
 C341 C -0.09754 0.86803 -0.18511
 C342 C -0.08179 0.88694 -0.15530
 H343 H -0.10893 0.77263 -0.32454
 H344 H -0.18418 0.83945 -0.28760
 H345 H -0.20903 0.80935 -0.36961
 H346 H -0.13371 0.74251 -0.40633
 C347 C 0.36584 0.70649 0.33726
 C348 C 0.35262 0.67830 0.30350
 C349 C 0.32442 0.66697 0.31559
 C350 C 0.30972 0.68324 0.36206
 C351 C 0.32313 0.71100 0.39665
 C352 C 0.35120 0.72270 0.38369
 C353 C 0.36890 0.65905 0.25959
 C354 C 0.38349 0.64239 0.22491
 C355 C 0.40159 0.62225 0.18687
 C356 C 0.41785 0.60450 0.15674
 H357 H 0.38772 0.71521 0.32863
 H358 H 0.31409 0.64490 0.29010
 H359 H 0.28822 0.67351 0.37203
 H360 H 0.36193 0.74381 0.41031
 C361 C -0.18502 1.16118 0.31230
 C362 C -0.15529 1.16488 0.30673
 C363 C -0.13991 1.18665 0.34668
 C364 C -0.15399 1.20412 0.39263
 C365 C -0.18392 1.20057 0.39928
 C366 C -0.19926 1.17881 0.35829
 C367 C -0.13995 1.14470 0.26243
 C368 C -0.12570 1.12777 0.22751
 C369 C -0.10752 1.10804 0.18917
 C370 C -0.09086 1.09138 0.15855
 H371 H -0.19708 1.14386 0.28207
 H372 H -0.11686 1.18955 0.34293
 H373 H -0.14141 1.22066 0.42301
 H374 H -0.22204 1.17385 0.36327
 C375 C 0.65514 0.29751 0.30988
 C376 C 0.65267 0.33663 0.29712
 C377 C 0.66695 0.36375 0.33112
 C378 C 0.68305 0.35196 0.37853
 C379 C 0.68513 0.31289 0.39227
 C380 C 0.67133 0.28566 0.35734
 C381 C 0.63358 0.34954 0.25258
 C382 C 0.61686 0.36191 0.21778
 C383 C 0.59653 0.37820 0.18020
 C384 C 0.57860 0.39366 0.15111
 H385 H 0.64393 0.27632 0.28422
 H386 H 0.66496 0.39410 0.32197
 H387 H 0.69335 0.37333 0.40537
 H388 H 0.67243 0.25544 0.36788
 C389 C 0.17747 0.88156 0.32973
 C390 C 0.16251 0.85417 0.29738
 C391 C 0.16478 0.81522 0.31142
 C392 C 0.18141 0.80382 0.35848
 C393 C 0.19594 0.83129 0.39176
 C394 C 0.19405 0.87020 0.37676
 C395 C 0.14292 0.86651 0.25333
 C396 C 0.12568 0.87783 0.21871
 C397 C 0.10459 0.89226 0.18105
 C398 C 0.08587 0.90566 0.15164
 H399 H 0.17563 0.91179 0.31964
 H400 H 0.15304 0.79383 0.28712
 H401 H 0.18226 0.77375 0.37006
 H402 H 0.20485 0.89178 0.40238
   
