data_POSCAR
  _audit_creation_date              2014-09-24
  _audit_creation_method            'ToBaCCo'
  _symmetry_space_group_name_H-M    'P1'
  _symmetry_Int_Tables_number       1
  _symmetry_cell_setting            triclinic
  loop_
  _symmetry_equiv_pos_as_xyz
 x,y,z
_cell_length_a 32.9513
_cell_length_b 32.5697
_cell_length_c 32.5945
_cell_angle_alpha 91.154500
_cell_angle_beta 89.824900
_cell_angle_gamma 89.728200
loop_
  _atom_site_label
  _atom_site_type_symbol
  _atom_site_fract_x
  _atom_site_fract_y
  _atom_site_fract_z
C1 C 0.21774 1.25316 0.19721
 C2 C 0.24584 1.22075 0.19367
 C3 C 0.24215 1.18690 0.21847
 C4 C 0.21026 1.18498 0.24695
 C5 C 0.18252 1.21680 0.25017
 C6 C 0.18642 1.25119 0.22532
 C7 C 0.21134 1.28773 0.17443
 N8 N 0.17708 1.30726 0.18827
 C9 C 0.16160 1.28451 0.21924
 C10 C 0.15286 1.20505 0.27722
 N11 N 0.16143 1.16646 0.29009
 C12 C 0.19719 1.15449 0.27240
 C13 C 0.27112 1.15875 0.20594
 N14 N 0.29253 1.17490 0.17459
 C15 C 0.27714 1.21262 0.16656
 H16 H 0.22858 1.29592 0.14750
 H17 H 0.13378 1.29115 0.23588
 H18 H 0.12698 1.22348 0.28689
 H19 H 0.21148 1.12476 0.27588
 H20 H 0.27542 1.12818 0.21767
 H21 H 0.28696 1.23186 0.14175
 C22 C 0.78408 0.75803 0.16945
 C23 C 0.75704 0.79118 0.16598
 C24 C 0.76206 0.82611 0.19036
 C25 C 0.79421 0.82836 0.21838
 C26 C 0.82095 0.79582 0.22149
 C27 C 0.81562 0.76029 0.19718
 C28 C 0.78890 0.72195 0.14721
 N29 N 0.82228 0.70172 0.16119
 C30 C 0.83893 0.72555 0.19152
 C31 C 0.85071 0.80757 0.24869
 N32 N 0.84315 0.84682 0.26186
 C33 C 0.80799 0.85931 0.24401
 C34 C 0.73370 0.85446 0.17819
 N35 N 0.71201 0.83773 0.14682
 C36 C 0.72562 0.79887 0.13943
 H37 H 0.76967 0.71158 0.12225
 H38 H 0.86777 0.71984 0.20625
 H39 H 0.87566 0.78849 0.25870
 H40 H 0.79434 0.88946 0.24790
 H41 H 0.73010 0.88556 0.19007
 H42 H 0.71437 0.77836 0.11556
 C43 C 0.79965 1.22516 -0.16799
 C44 C 0.76448 1.20143 -0.17244
 C45 C 0.75834 1.17845 -0.20808
 C46 C 0.78729 1.17902 -0.23971
 C47 C 0.82170 1.20272 -0.23540
 C48 C 0.82811 1.22563 -0.19914
 C49 C 0.81446 1.24905 -0.13617
 N50 N 0.85177 1.26335 -0.14679
 C51 C 0.85985 1.24959 -0.18573
 C52 C 0.84552 1.19537 -0.26946
 N53 N 0.82640 1.16792 -0.29480
 C54 C 0.79091 1.15740 -0.27625
 C55 C 0.72333 1.15627 -0.20275
 N56 N 0.70806 1.16554 -0.16495
 C57 C 0.73315 1.19279 -0.14602
 H58 H 0.79965 1.25442 -0.10684
 H59 H 0.88633 1.25739 -0.20367
 H60 H 0.87596 1.20693 -0.27385
 H61 H 0.76927 1.13533 -0.28823
 H62 H 0.71068 1.13385 -0.22404
 H63 H 0.72954 1.20430 -0.11482
 C64 C 0.20155 0.75613 -0.18446
 C65 C 0.23259 0.78535 -0.18664
 C66 C 0.23184 0.81449 -0.21703
 C67 C 0.20003 0.81481 -0.24550
 C68 C 0.16858 0.78711 -0.24220
 C69 C 0.16938 0.75755 -0.21154
 C70 C 0.19442 0.72418 -0.15842
 N71 N 0.15885 0.70594 -0.16929
 C72 C 0.14285 0.72701 -0.20106
 C73 C 0.14084 0.79600 -0.27223
 N74 N 0.15545 0.82737 -0.29480
 C75 C 0.19134 0.83955 -0.27811
 C76 C 0.26303 0.84144 -0.20916
 N77 N 0.28225 0.82951 -0.17461
 C78 C 0.26424 0.79507 -0.16079
 H79 H 0.21321 0.71549 -0.13277
 H80 H 0.11444 0.71990 -0.21618
 H81 H 0.11249 0.78019 -0.27787
 H82 H 0.20923 0.86528 -0.28823
 H83 H 0.26930 0.86944 -0.22533
 H84 H 0.27162 0.78023 -0.13232
 C85 C 0.55333 1.01341 -0.06372
 H86 H 0.55494 0.98024 -0.06307
 C87 C 0.58154 1.03516 -0.08662
 H88 H 0.60485 1.01875 -0.10386
 C89 C 0.52214 1.07547 -0.04053
 H90 H 0.49963 1.09107 -0.02168
 C91 C 0.54963 1.09844 -0.06324
 H92 H 0.54808 1.13167 -0.06203
 N93 N 0.52450 1.03373 -0.04118
 C94 C 0.42850 1.05773 0.00874
 H95 H 0.42510 1.05603 -0.02425
 C96 C 0.40226 1.08240 0.03235
 H97 H 0.37860 1.09987 0.01756
 C98 C 0.46281 1.03625 0.06853
 H99 H 0.48585 1.01762 0.08262
 C100 C 0.43742 1.06077 0.09325
 H101 H 0.44119 1.06117 0.12626
 Zn102 Zn 0.49121 1.00156 -0.00730
 N103 N 0.45820 1.03549 0.02703
 C104 C 0.55555 0.98897 0.04636
 N105 N 0.52661 0.96897 0.02410
 C106 C 0.52557 0.92721 0.02163
 C107 C 0.55462 0.90391 0.04205
 C108 C 0.58500 0.96688 0.06737
 C109 C 0.45725 0.96888 -0.08110
 C110 C 0.42931 0.94604 -0.10413
 C111 C 0.40011 0.92201 -0.04092
 C112 C 0.42856 0.94525 -0.01911
 N113 N 0.45630 0.96814 -0.03937
 H114 H 0.55620 1.02218 0.04701
 H115 H 0.50301 0.91192 0.00293
 H116 H 0.55419 0.87072 0.03932
 H117 H 0.60833 0.98303 0.08446
 H118 H 0.47909 0.98779 -0.09660
 H119 H 0.42983 0.94727 -0.13731
 H120 H 0.37784 0.90423 -0.02452
 H121 H 0.42824 0.94561 0.01409
 C122 C 0.40689 1.08421 0.07503
 C123 C 0.57980 1.07812 -0.08638
 C124 C 0.40001 0.92284 -0.08388
 C125 C 0.58482 0.92395 0.06486
 C126 C -0.01642 0.55930 1.05911
 H127 H 0.01606 0.56364 1.06094
 C128 C -0.04247 0.58515 1.08153
 H129 H -0.03006 0.60958 1.10066
 C130 C -0.07233 0.52258 1.03143
 H131 H -0.08384 0.49861 1.01133
 C132 C -0.09951 0.54788 1.05326
 H133 H -0.13187 0.54302 1.05028
 N134 N -0.03160 0.52832 1.03524
 C135 C 0.07221 0.44543 1.02743
 H136 H 0.07611 0.44345 0.99448
 C137 C 0.09750 0.42282 1.05289
 H138 H 0.12093 0.40327 1.03952
 C139 C 0.03549 0.47164 1.08500
 H140 H 0.01056 0.48971 1.09732
 C141 C 0.06009 0.44950 1.11157
 H142 H 0.05428 0.45103 1.14429
 Zn143 Zn 0.00657 0.49495 1.00656
 N144 N 0.04194 0.46919 1.04377
 C145 C 0.07419 0.54179 0.98265
 N146 N 0.03620 0.52975 0.97171
 C147 C 0.01783 0.54490 0.93788
 C148 C 0.03883 0.57103 0.91194
 C149 C 0.09564 0.56926 0.95850
 C150 C -0.04251 0.42602 0.99953
 C151 C -0.06242 0.39301 0.98067
 C152 C -0.03432 0.41333 0.91565
 C153 C -0.01476 0.44588 0.93579
 N154 N -0.01974 0.45204 0.97695
 H155 H 0.08751 0.53093 1.01072
 H156 H -0.01313 0.53646 0.93088
 H157 H 0.02413 0.58182 0.88448
 H158 H 0.12537 0.57948 0.96827
 H159 H -0.04523 0.43105 1.03234
 H160 H -0.08064 0.37265 0.99896
 H161 H -0.03057 0.40894 0.88282
 H162 H 0.00477 0.46568 0.91851
 C163 C 0.09145 0.42474 1.09547
 C164 C -0.08447 0.57916 1.07906
 C165 C -0.05825 0.38637 0.93827
 C166 C 0.07848 0.58322 0.92190
 C167 C 1.06480 -0.02559 0.53992
 H168 H 1.07830 0.00143 0.52696
 C169 C 1.08713 -0.04934 0.56708
 H170 H 1.11769 -0.04019 0.57509
 C171 C 1.00734 -0.06802 0.54847
 H172 H 0.97569 -0.07417 0.54229
 C173 C 1.02915 -0.09371 0.57424
 H174 H 1.01431 -0.12019 0.58698
 N175 N 1.02580 -0.03557 0.53075
 C176 C 1.02797 0.07437 0.46743
 H177 H 1.00699 0.08945 0.48840
 C178 C 1.05054 0.09781 0.44019
 H179 H 1.04729 0.13093 0.44066
 C180 C 1.05633 0.01290 0.43926
 H181 H 1.05760 -0.02030 0.43855
 C182 C 1.07913 0.03510 0.41130
 H183 H 1.09818 0.01895 0.38910
 Zn184 Zn 0.99558 -0.00106 0.49605
 N185 N 1.03086 0.03267 0.46604
 C186 C 0.97833 0.05452 0.55968
 N187 N 0.96060 0.03120 0.52972
 C188 C 0.91956 0.03041 0.52517
 C189 C 0.89473 0.05474 0.55070
 C190 C 0.95468 0.07918 0.58588
 C191 C 0.96909 -0.07287 0.45132
 C192 C 0.94924 -0.09318 0.41907
 C193 C 0.92423 -0.02770 0.39616
 C194 C 0.94426 -0.00867 0.42899
 N195 N 0.96600 -0.03132 0.45590
 H196 H 1.01098 0.05397 0.56307
 H197 H 0.90596 0.01081 0.50195
 H198 H 0.86212 0.05411 0.54675
 H199 H 0.96912 0.09757 0.60968
 H200 H 0.98788 -0.09031 0.47172
 H201 H 0.95198 -0.12622 0.41558
 H202 H 0.90744 -0.00926 0.37467
 H203 H 0.94316 0.02440 0.43267
 C204 C 1.07544 0.07794 0.41091
 C205 C 1.06981 -0.08477 0.58354
 C206 C 0.92712 -0.07037 0.39070
 C207 C 0.91242 0.07986 0.58109
 C208 C 0.17960 0.37211 1.15098
 C209 C 0.15797 0.33975 1.17014
 C210 C 0.11528 0.34025 1.16834
 C211 C 0.09457 0.36871 1.14502
 C212 C 0.11547 0.39809 1.12270
 C213 C 0.15822 0.40082 1.12635
 C214 C 0.22141 0.37856 1.15808
 C215 C 0.24215 0.41009 1.13886
 C216 C 0.22160 0.43667 1.11323
 C217 C 0.17995 0.43256 1.10738
 H218 H 0.23826 0.36048 1.17967
 H219 H 0.27424 0.41435 1.14445
 H220 H 0.23782 0.46131 1.09869
 H221 H 0.16487 0.45506 1.08872
 H222 H 0.09751 0.31659 1.18262
 H223 H 0.06182 0.36661 1.14294
 C224 C -0.13728 0.63868 1.16677
 C225 C -0.16027 0.66728 1.14361
 C226 C -0.16246 0.66131 1.10077
 C227 C -0.13881 0.63162 1.08068
 C228 C -0.11244 0.60653 1.10256
 C229 C -0.11253 0.60877 1.14600
 C230 C -0.14037 0.63729 1.20998
 C231 C -0.11735 0.60949 1.23222
 C232 C -0.09170 0.58172 1.21196
 C233 C -0.08958 0.58089 1.16926
 H234 H -0.16156 0.65656 1.22697
 H235 H -0.11990 0.60907 1.26533
 H236 H -0.07415 0.56000 1.22938
 H237 H -0.07062 0.55759 1.15471
 H238 H -0.18002 0.68186 1.08204
 H239 H -0.13959 0.62963 1.04746
 C240 C -0.08151 0.28769 0.87640
 C241 C -0.12482 0.28957 0.87641
 C242 C -0.14412 0.32040 0.90029
 C243 C -0.12197 0.35097 0.92026
 C244 C -0.07963 0.35178 0.91766
 C245 C -0.05888 0.31949 0.89652
 C246 C -0.06015 0.25334 0.85996
 C247 C -0.01787 0.25192 0.86024
 C248 C 0.00410 0.28387 0.87810
 C249 C -0.01605 0.31706 0.89664
 H250 H -0.07564 0.22643 0.84827
 H251 H -0.00208 0.22547 0.84723
 H252 H 0.03692 0.28236 0.87863
 H253 H 0.00228 0.34014 0.91192
 H254 H -0.17690 0.32252 0.90152
 H255 H -0.13818 0.37505 0.93698
 C256 C 0.16195 0.63763 0.86046
 C257 C 0.14059 0.67410 0.85011
 C258 C 0.09922 0.67741 0.85991
 C259 C 0.07996 0.64775 0.88290
 C260 C 0.10068 0.61251 0.89546
 C261 C 0.14162 0.60636 0.88269
 C262 C 0.20186 0.62990 0.84611
 C263 C 0.22176 0.59323 0.85466
 C264 C 0.20202 0.56290 0.87633
 C265 C 0.16220 0.56897 0.88966
 H266 H 0.21768 0.65116 0.82684
 H267 H 0.25233 0.58789 0.84346
 H268 H 0.21731 0.53408 0.88200
 H269 H 0.14751 0.54352 0.90429
 H270 H 0.08219 0.70461 0.85188
 H271 H 0.04864 0.65298 0.89184
 C272 C 1.09571 0.14316 0.31631
 C273 C 1.13903 0.14386 0.31690
 C274 C 1.15947 0.12061 0.34635
 C275 C 1.13837 0.10002 0.37663
 C276 C 1.09601 0.10140 0.37845
 C277 C 1.07416 0.12240 0.34778
 C278 C 1.07329 0.15918 0.28325
 C279 C 1.03103 0.15799 0.28295
 C280 C 1.01010 0.13952 0.31464
 C281 C 1.03129 0.12128 0.34641
 H282 H 1.08788 0.17118 0.25638
 H283 H 1.01446 0.17071 0.25751
 H284 H 0.97728 0.13824 0.31397
 H285 H 1.01367 0.10549 0.36917
 H286 H 1.19231 0.11996 0.34725
 H287 H 1.15536 0.08324 0.39931
 C288 C 1.15531 -0.14547 0.63587
 C289 C 1.13567 -0.15441 0.67358
 C290 C 1.09452 -0.14428 0.67848
 C291 C 1.07398 -0.12206 0.64904
 C292 C 1.09306 -0.11087 0.61243
 C293 C 1.13355 -0.12437 0.60475
 C294 C 1.19488 -0.16016 0.62696
 C295 C 1.21301 -0.15328 0.58906
 C296 C 1.19177 -0.13297 0.55874
 C297 C 1.15227 -0.11921 0.56612
 H298 H 1.21176 -0.17840 0.64838
 H299 H 1.24334 -0.16475 0.58281
 H300 H 1.20564 -0.12867 0.52900
 H301 H 1.13634 -0.10572 0.54077
 H302 H 1.07880 -0.15129 0.70671
 H303 H 1.04303 -0.11257 0.65553
 C304 C 0.90863 -0.13233 0.29110
 C305 C 0.86534 -0.13092 0.28990
 C306 C 0.84468 -0.10642 0.31926
 C307 C 0.86527 -0.08706 0.35133
 C308 C 0.90736 -0.09088 0.35507
 C309 C 0.92963 -0.11272 0.32431
 C310 C 0.93176 -0.14957 0.25836
 C311 C 0.97401 -0.15048 0.25984
 C312 C 0.99430 -0.13301 0.29311
 C313 C 0.97252 -0.11372 0.32477
 H314 H 0.91780 -0.16099 0.23050
 H315 H 0.99114 -0.16408 0.23460
 H316 H 1.02714 -0.13335 0.29383
 H317 H 0.98974 -0.09876 0.34891
 H318 H 0.81190 -0.10414 0.31892
 H319 H 0.84798 -0.06971 0.37416
 C320 C 0.86845 0.17104 0.64314
 C321 C 0.84281 0.14957 0.67069
 C322 C 0.83636 0.10736 0.66341
 C323 C 0.85818 0.08575 0.63338
 C324 C 0.88684 0.10548 0.60907
 C325 C 0.89110 0.14868 0.61263
 C326 C 0.86994 0.21441 0.64326
 C327 C 0.89522 0.23499 0.61623
 C328 C 0.91859 0.21302 0.58772
 C329 C 0.91626 0.17033 0.58545
 H330 H 0.85059 0.23298 0.66307
 H331 H 0.89614 0.26821 0.61696
 H332 H 0.93784 0.22919 0.56653
 H333 H 0.93351 0.15467 0.56153
 H334 H 0.81669 0.09001 0.68320
 H335 H 0.85406 0.05283 0.63044
 C336 C 0.36288 1.16748 0.14720
 C337 C 0.32249 1.15329 0.15034
 C338 C 0.31099 1.11748 0.12906
 C339 C 0.33865 1.09590 0.10444
 C340 C 0.37878 1.10927 0.10072
 C341 C 0.39128 1.14542 0.12200
 C342 C 0.37583 1.20275 0.16915
 C343 C 0.41564 1.21664 0.16552
 C344 C 0.44317 1.19565 0.14017
 C345 C 0.43126 1.16034 0.11855
 H346 H 0.35550 1.21968 0.18946
 H347 H 0.42518 1.24383 0.18244
 H348 H 0.47396 1.20671 0.13734
 H349 H 0.45354 1.14499 0.09913
 H350 H 0.28011 1.10648 0.13133
 H351 H 0.32878 1.06827 0.08837
 C352 C 0.63471 1.14757 -0.16191
 C353 C 0.67452 1.14532 -0.14589
 C354 C 0.68197 1.12199 -0.11112
 C355 C 0.65088 1.10033 -0.09255
 C356 C 0.61129 1.10167 -0.10796
 C357 C 0.60280 1.12536 -0.14294
 C358 C 0.62583 1.17192 -0.19603
 C359 C 0.58657 1.17350 -0.21183
 C360 C 0.55557 1.15103 -0.19394
 C361 C 0.56345 1.12713 -0.15980
 H362 H 0.64896 1.19014 -0.21054
 H363 H 0.58016 1.19223 -0.23812
 H364 H 0.52523 1.15223 -0.20649
 H365 H 0.53856 1.11007 -0.14687
 H366 H 0.71236 1.12010 -0.09873
 H367 H 0.65772 1.08240 -0.06576
 C368 C 0.29781 0.88771 -0.12716
 C369 C 0.31079 0.85387 -0.15182
 C370 C 0.35201 0.84384 -0.15416
 C371 C 0.38059 0.86689 -0.13236
 C372 C 0.36856 0.90042 -0.10750
 C373 C 0.32692 0.91150 -0.10512
 C374 C 0.25634 0.89824 -0.12389
 C375 C 0.24389 0.93211 -0.10013
 C376 C 0.27240 0.95604 -0.07936
 C377 C 0.31355 0.94602 -0.08179
 H378 H 0.23324 0.88045 -0.13955
 H379 H 0.21199 0.93995 -0.09797
 H380 H 0.26258 0.98251 -0.06126
 H381 H 0.33466 0.96571 -0.06550
 H382 H 0.36199 0.81793 -0.17300
 H383 H 0.41232 0.85821 -0.13448
 C384 C 0.68389 0.86536 0.08196
 C385 C 0.68068 0.85849 0.12465
 C386 C 0.64669 0.87320 0.14633
 C387 C 0.61565 0.89389 0.12637
 C388 C 0.61772 0.90033 0.08412
 C389 C 0.65190 0.88608 0.06143
 C390 C 0.71880 0.85341 0.05946
 C391 C 0.72151 0.86046 0.01748
 C392 C 0.68989 0.87993 -0.00274
 C393 C 0.65545 0.89290 0.01893
 H394 H 0.74454 0.83918 0.07402
 H395 H 0.74843 0.85101 0.00059
 H396 H 0.69225 0.88542 -0.03530
 H397 H 0.63187 0.90853 0.00218
 H398 H 0.64429 0.86847 0.17904
 H399 H 0.58983 0.90510 0.14402
   
