data_POSCAR
  _audit_creation_date              2014-09-24
  _audit_creation_method            'ToBaCCo'
  _symmetry_space_group_name_H-M    'P1'
  _symmetry_Int_Tables_number       1
  _symmetry_cell_setting            triclinic
  loop_
  _symmetry_equiv_pos_as_xyz
 x,y,z
_cell_length_a 30.7536
_cell_length_b 30.7552
_cell_length_c 37.0639
_cell_angle_alpha 90.029800
_cell_angle_beta 90.011200
_cell_angle_gamma 90.025900
loop_
  _atom_site_label
  _atom_site_type_symbol
  _atom_site_fract_x
  _atom_site_fract_y
  _atom_site_fract_z
C1 C 1.25017 0.25018 0.25044
 C2 C 0.75042 -0.25010 0.24965
 C3 C 0.74946 0.25015 -0.24983
 C4 C 1.25039 -0.25022 -0.25024
 C5 C 0.25011 0.24988 0.74947
 C6 C 0.74981 0.75007 0.75031
 C7 C 0.74974 0.24999 0.24967
 C8 C 0.24947 0.74971 0.25013
 O9 O 1.07492 0.02217 0.04586
 O10 O 0.92598 -0.02313 0.04456
 O11 O 0.97803 0.07405 0.04513
 O12 O 1.02335 -0.07500 0.04543
 O13 O 0.91811 0.05001 0.02478
 O14 O 1.08362 -0.05086 0.02598
 O15 O 0.95039 -0.08313 0.02475
 O16 O 1.05130 0.08224 0.02565
 C17 C 1.06979 0.06152 0.05008
 C18 C 0.93127 -0.06245 0.04888
 C19 C 0.93862 0.06896 0.04915
 C20 C 1.06271 -0.07006 0.04996
 O21 O 1.07593 -0.02323 -0.04385
 O22 O 0.92707 0.02274 -0.04507
 O23 O 1.02443 0.07393 -0.04430
 O24 O 0.97868 -0.07493 -0.04470
 O25 O 0.91848 -0.05046 -0.02530
 O26 O 1.08420 0.04973 -0.02387
 O27 O 1.05159 -0.08327 -0.02414
 O28 O 0.95117 0.08262 -0.02473
 Co29 Co 1.07202 -0.00053 0.00097
 Co30 Co 0.93006 -0.00023 -0.00021
 Co31 Co 1.00123 0.07055 0.00043
 Co32 Co 1.00102 -0.07144 0.00035
 O33 O 1.00107 -0.00042 0.00037
 C34 C 1.07084 -0.06256 -0.04818
 C35 C 0.93211 0.06216 -0.04906
 C36 C 1.06382 0.06871 -0.04827
 C37 C 0.93940 -0.06957 -0.04932
 O38 O 1.08258 0.55113 0.52467
 O39 O 0.91732 0.45006 0.52493
 O40 O 0.94941 0.58327 0.52459
 O41 O 1.05054 0.41788 0.52460
 O42 O 0.92568 0.52318 0.54471
 O43 O 1.07470 0.47795 0.54452
 O44 O 0.97744 0.42606 0.54481
 O45 O 1.02247 0.57516 0.54456
 C46 C 1.06179 0.56996 0.54891
 C47 C 0.93807 0.43106 0.54911
 C48 C 0.93061 0.56257 0.54889
 C49 C 1.06954 0.43860 0.54881
 O50 O 1.08277 0.45059 0.47471
 O51 O 0.91712 0.55045 0.47487
 O52 O 1.05010 0.58367 0.47485
 O53 O 0.94971 0.41748 0.47511
 O54 O 0.92554 0.47740 0.45506
 O55 O 1.07436 0.52375 0.45480
 O56 O 1.02274 0.42598 0.45501
 O57 O 0.97707 0.57475 0.45486
 Co58 Co 1.07099 0.50083 0.49968
 Co59 Co 0.92904 0.50031 0.49989
 Co60 Co 0.99978 0.57154 0.49971
 Co61 Co 1.00009 0.42951 0.49988
 O62 O 0.99998 0.50054 0.49979
 C63 C 1.06202 0.43146 0.45059
 C64 C 0.93777 0.56931 0.45057
 C65 C 1.06930 0.56314 0.45063
 C66 C 0.93070 0.43805 0.45085
 O67 O 0.58252 0.04927 0.52504
 O68 O 0.41695 -0.05139 0.52367
 O69 O 0.44940 0.08176 0.52433
 O70 O 0.55002 -0.08386 0.52415
 O71 O 0.42492 0.02166 0.54387
 O72 O 0.57385 -0.02391 0.54456
 O73 O 0.47686 -0.07565 0.54378
 O74 O 0.52236 0.07329 0.54478
 C75 C 0.56170 0.06821 0.54921
 C76 C 0.43752 -0.07037 0.54795
 C77 C 0.43016 0.06098 0.54835
 C78 C 0.56876 -0.06330 0.54860
 O79 O 0.58275 -0.05097 0.47470
 O80 O 0.41735 0.04939 0.47417
 O81 O 0.55047 0.08209 0.47520
 O82 O 0.44968 -0.08379 0.47388
 O83 O 0.42567 -0.02371 0.45398
 O84 O 0.57460 0.02217 0.45506
 O85 O 0.52288 -0.07502 0.45430
 O86 O 0.47755 0.07388 0.45480
 Co87 Co 0.57080 -0.00087 0.49979
 Co88 Co 0.42884 -0.00100 0.49896
 Co89 Co 0.49994 0.07010 0.49975
 Co90 Co 0.49987 -0.07192 0.49906
 O91 O 0.49985 -0.00092 0.49939
 C92 C 0.56222 -0.06967 0.45023
 C93 C 0.43828 0.06853 0.45020
 C94 C 0.56953 0.06154 0.45093
 C95 C 0.43062 -0.06310 0.44969
 O96 O 0.57353 0.52306 0.04517
 O97 O 0.42466 0.47748 0.04522
 O98 O 0.47573 0.57465 0.04564
 O99 O 0.52199 0.42588 0.04476
 O100 O 0.41577 0.55059 0.02547
 O101 O 0.58192 0.45012 0.02474
 O102 O 0.44889 0.41759 0.02502
 O103 O 0.54888 0.58317 0.02575
 C104 C 0.56803 0.56232 0.04976
 C105 C 0.43005 0.43816 0.04939
 C106 C 0.43632 0.56965 0.04977
 C107 C 0.56135 0.43101 0.04895
 O108 O 0.57334 0.47822 -0.04482
 O109 O 0.42430 0.52319 -0.04434
 O110 O 0.52154 0.57547 -0.04407
 O111 O 0.47609 0.42645 -0.04484
 O112 O 0.41606 0.45007 -0.02457
 O113 O 0.58162 0.55122 -0.02429
 O114 O 0.54922 0.41802 -0.02519
 O115 O 0.44837 0.58320 -0.02423
 Co116 Co 0.56993 0.50064 0.00021
 Co117 Co 0.42787 0.50035 0.00044
 Co118 Co 0.49865 0.57152 0.00074
 Co119 Co 0.49902 0.42960 -0.00002
 O120 O 0.49888 0.50053 0.00035
 C121 C 0.56821 0.43889 -0.04931
 C122 C 0.42964 0.56250 -0.04859
 C123 C 0.56090 0.57037 -0.04840
 C124 C 0.43671 0.43141 -0.04898
 C125 C 1.22277 0.22263 0.22763
 C126 C 1.20069 0.20043 0.20806
 C127 C 1.17507 0.17456 0.18374
 C128 C 1.18755 0.13181 0.17582
 C129 C 1.16442 0.10770 0.15022
 C130 C 1.12874 0.12628 0.13248
 C131 C 1.11580 0.16876 0.14089
 C132 C 1.13893 0.19286 0.16648
 C133 C 1.10700 0.10275 0.10425
 C134 C 1.08958 0.08361 0.07986
 H135 H 1.21559 0.11746 0.18889
 H136 H 1.17482 0.07496 0.14375
 H137 H 1.08840 0.18349 0.12717
 H138 H 1.12917 0.22598 0.17229
 C139 C 1.22226 0.72276 0.72710
 C140 C 1.19975 0.70100 0.70753
 C141 C 1.17364 0.67574 0.68312
 C142 C 1.18936 0.63616 0.66969
 C143 C 1.16544 0.61314 0.64390
 C144 C 1.12573 0.62964 0.63146
 C145 C 1.10963 0.66882 0.64536
 C146 C 1.13356 0.69184 0.67115
 C147 C 1.10265 0.60764 0.60309
 C148 C 1.08377 0.59000 0.57865
 H149 H 1.22044 0.62356 0.67864
 H150 H 1.17825 0.58298 0.63318
 H151 H 1.07905 0.68195 0.63578
 H152 H 1.12123 0.72253 0.68122
 C153 C 0.72202 0.22249 0.72734
 C154 C 0.69986 0.20044 0.70763
 C155 C 0.67395 0.17498 0.68310
 C156 C 0.63313 0.19016 0.67199
 C157 C 0.60921 0.16700 0.64625
 C158 C 0.62599 0.12855 0.63150
 C159 C 0.66649 0.11299 0.64304
 C160 C 0.69042 0.13616 0.66878
 C161 C 0.60271 0.10635 0.60324
 C162 C 0.58371 0.08853 0.57891
 H163 H 0.62018 0.22026 0.68273
 H164 H 0.57803 0.17945 0.63740
 H165 H 0.67989 0.08342 0.63168
 H166 H 0.72204 0.12423 0.67703
 C167 C 0.72285 0.72252 0.22683
 C168 C 0.70062 0.70043 0.20729
 C169 C 0.67478 0.67469 0.18305
 C170 C 0.63835 0.69301 0.16622
 C171 C 0.61496 0.66904 0.14070
 C172 C 0.62791 0.62667 0.13195
 C173 C 0.66388 0.60806 0.14925
 C174 C 0.68727 0.63204 0.17477
 C175 C 0.60585 0.60329 0.10380
 C176 C 0.58815 0.58427 0.07948
 H177 H 0.62856 0.72605 0.17230
 H178 H 0.58733 0.68379 0.12732
 H179 H 0.67430 0.57540 0.14251
 H180 H 0.71552 0.61767 0.18752
 C181 C 0.77782 -0.22286 0.22660
 C182 C 0.79984 -0.20087 0.20686
 C183 C 0.82537 -0.17519 0.18237
 C184 C 0.81298 -0.13244 0.17440
 C185 C 0.83608 -0.10847 0.14872
 C186 C 0.87165 -0.12719 0.13094
 C187 C 0.88450 -0.16968 0.13936
 C188 C 0.86139 -0.19365 0.16503
 C189 C 0.89352 -0.10371 0.10276
 C190 C 0.91113 -0.08458 0.07847
 H191 H 0.78504 -0.11796 0.18754
 H192 H 0.82576 -0.07570 0.14226
 H193 H 0.91183 -0.18452 0.12563
 H194 H 0.87110 -0.22677 0.17088
 C195 C 0.77710 0.27714 0.72698
 C196 C 0.79934 0.29883 0.70708
 C197 C 0.82529 0.32404 0.68243
 C198 C 0.80907 0.36307 0.66832
 C199 C 0.83310 0.38619 0.64264
 C200 C 0.87344 0.37038 0.63096
 C201 C 0.88995 0.33170 0.64548
 C202 C 0.86593 0.30859 0.67116
 C203 C 0.89686 0.39265 0.60285
 C204 C 0.91596 0.41059 0.57865
 H205 H 0.77759 0.37522 0.67671
 H206 H 0.81992 0.41595 0.63147
 H207 H 0.92101 0.31907 0.63652
 H208 H 0.87870 0.27835 0.68176
 C209 C 0.27773 -0.22316 0.72652
 C210 C 0.29973 -0.20137 0.70660
 C211 C 0.32536 -0.17607 0.68191
 C212 C 0.36700 -0.19016 0.67205
 C213 C 0.39080 -0.16712 0.64622
 C214 C 0.37302 -0.12993 0.63017
 C215 C 0.33166 -0.11543 0.64046
 C216 C 0.30787 -0.13847 0.66629
 C217 C 0.39625 -0.10799 0.60188
 C218 C 0.41530 -0.09039 0.57755
 H219 H 0.38072 -0.21932 0.68385
 H220 H 0.42267 -0.17872 0.63832
 H221 H 0.31755 -0.08682 0.62808
 H222 H 0.27560 -0.12743 0.67361
 C223 C 0.27730 0.27765 0.22738
 C224 C 0.29913 0.29982 0.20763
 C225 C 0.32447 0.32568 0.18314
 C226 C 0.30969 0.36687 0.17270
 C227 C 0.33275 0.39080 0.14698
 C228 C 0.37065 0.37361 0.13163
 C229 C 0.38585 0.33275 0.14254
 C230 C 0.36278 0.30882 0.16826
 C231 C 0.39260 0.39687 0.10338
 C232 C 0.41016 0.41593 0.07903
 H233 H 0.27998 0.38010 0.18393
 H234 H 0.32063 0.42229 0.13860
 H235 H 0.41502 0.31910 0.13069
 H236 H 0.37436 0.27690 0.17604
 C237 C 0.77667 0.22311 -0.22634
 C238 C 0.79854 0.20174 -0.20594
 C239 C 0.82395 0.17729 -0.18040
 C240 C 0.83641 0.13439 -0.18790
 C241 C 0.85978 0.11045 -0.16226
 C242 C 0.87075 0.12938 -0.12906
 C243 C 0.85858 0.17237 -0.12175
 C244 C 0.83526 0.19625 -0.14733
 C245 C 0.89326 0.10462 -0.10190
 C246 C 0.91141 0.08474 -0.07824
 H247 H 0.82773 0.11936 -0.21335
 H248 H 0.86891 0.07718 -0.16815
 H249 H 0.86674 0.18728 -0.09614
 H250 H 0.82567 0.22933 -0.14118
 C251 C 0.77778 0.72250 0.27259
 C252 C 0.79979 0.70043 0.29227
 C253 C 0.82538 0.67478 0.31672
 C254 C 0.86830 0.68682 0.32451
 C255 C 0.89216 0.66366 0.35022
 C256 C 0.87315 0.62840 0.36821
 C257 C 0.83049 0.61589 0.35996
 C258 C 0.80664 0.63904 0.33425
 C259 C 0.89652 0.60659 0.39648
 C260 C 0.91561 0.58913 0.42086
 H261 H 0.88300 0.71454 0.31122
 H262 H 0.92505 0.67372 0.35656
 H263 H 0.81542 0.58881 0.37387
 H264 H 0.77339 0.62963 0.32855
 C265 C 0.27782 0.22296 0.27328
 C266 C 0.30017 0.20105 0.29282
 C267 C 0.32627 0.17560 0.31704
 C268 C 0.36644 0.19156 0.32899
 C269 C 0.39047 0.16826 0.35449
 C270 C 0.37441 0.12893 0.36811
 C271 C 0.33461 0.11257 0.35568
 C272 C 0.31058 0.13588 0.33018
 C273 C 0.39756 0.10665 0.39625
 C274 C 0.41643 0.08880 0.42054
 H275 H 0.37874 0.22236 0.31913
 H276 H 0.42112 0.18128 0.36408
 H277 H 0.32182 0.08229 0.36619
 H278 H 0.27944 0.12338 0.32123
 C279 C 0.27782 0.72206 -0.22762
 C280 C 0.29980 0.69985 -0.20801
 C281 C 0.32519 0.67408 -0.18350
 C282 C 0.31100 0.63245 -0.17367
 C283 C 0.33388 0.60870 -0.14772
 C284 C 0.37098 0.62652 -0.13150
 C285 C 0.38563 0.66782 -0.14182
 C286 C 0.36275 0.69157 -0.16778
 C287 C 0.39261 0.60345 -0.10296
 C288 C 0.40993 0.58455 -0.07841
 H289 H 0.28183 0.61876 -0.18551
 H290 H 0.32218 0.57687 -0.13980
 H291 H 0.41418 0.68196 -0.12932
 H292 H 0.37382 0.72385 -0.17504
 C293 C 1.22391 -0.22249 -0.22685
 C294 C 1.20301 -0.20009 -0.20658
 C295 C 1.17920 -0.17391 -0.18126
 C296 C 1.13366 -0.17283 -0.18218
 C297 C 1.11072 -0.14903 -0.15623
 C298 C 1.13331 -0.12629 -0.12934
 C299 C 1.17884 -0.12700 -0.12872
 C300 C 1.20173 -0.15076 -0.15462
 C301 C 1.11009 -0.10343 -0.10154
 C302 C 1.09163 -0.08461 -0.07752
 H303 H 1.11596 -0.19079 -0.20260
 H304 H 1.07550 -0.14879 -0.15686
 H305 H 1.19659 -0.10966 -0.10796
 H306 H 1.23693 -0.15157 -0.15357
 C307 C 1.22277 0.27748 0.27343
 C308 C 1.20060 0.29946 0.29308
 C309 C 1.17467 0.32497 0.31740
 C310 C 1.19161 0.36324 0.33233
 C311 C 1.16756 0.38650 0.35787
 C312 C 1.12650 0.37153 0.36854
 C313 C 1.10925 0.33367 0.35314
 C314 C 1.13329 0.31042 0.32760
 C315 C 1.10315 0.39364 0.39668
 C316 C 1.08410 0.41135 0.42095
 H317 H 1.22367 0.37464 0.32473
 H318 H 1.18128 0.41562 0.36977
 H319 H 1.07762 0.32170 0.36136
 H320 H 1.12000 0.28074 0.31632
 C321 C 0.72319 -0.22258 0.27260
 C322 C 0.70117 -0.20047 0.29227
 C323 C 0.67543 -0.17487 0.31667
 C324 C 0.69391 -0.13892 0.33412
 C325 C 0.66987 -0.11581 0.35976
 C326 C 0.62730 -0.12859 0.36801
 C327 C 0.60855 -0.16406 0.35009
 C328 C 0.63259 -0.18717 0.32445
 C329 C 0.60376 -0.10684 0.39622
 C330 C 0.58453 -0.08943 0.42056
 H331 H 0.72709 -0.12929 0.32842
 H332 H 0.68472 -0.08855 0.37360
 H333 H 0.57572 -0.17432 0.35642
 H334 H 0.61809 -0.21506 0.31123
 C335 C 0.72206 0.27804 -0.22717
 C336 C 0.70016 0.30045 -0.20757
 C337 C 0.67481 0.32654 -0.18312
 C338 C 0.69043 0.36706 -0.17163
 C339 C 0.66733 0.39105 -0.14593
 C340 C 0.62849 0.37464 -0.13158
 C341 C 0.61249 0.33446 -0.14351
 C342 C 0.63560 0.31046 -0.16922
 C343 C 0.60633 0.39794 -0.10334
 C344 C 0.58851 0.41693 -0.07901
 H345 H 0.72083 0.37970 -0.18204
 H346 H 0.68012 0.42198 -0.13677
 H347 H 0.58262 0.32135 -0.13247
 H348 H 0.62333 0.27907 -0.17776
 C349 C 1.22314 0.22251 -0.22715
 C350 C 1.20186 0.20044 -0.20686
 C351 C 1.17751 0.17473 -0.18150
 C352 C 1.19913 0.15434 -0.15287
 C353 C 1.17554 0.13120 -0.12699
 C354 C 1.13019 0.12832 -0.12960
 C355 C 1.10855 0.14824 -0.15848
 C356 C 1.13219 0.17142 -0.18440
 C357 C 1.10598 0.10648 -0.10176
 C358 C 1.08638 0.08886 -0.07770
 H359 H 1.23413 0.15688 -0.15026
 H360 H 1.19257 0.11612 -0.10468
 H361 H 1.07347 0.14637 -0.16066
 H362 H 1.11513 0.18722 -0.20634
 C363 C 1.22365 0.72368 0.27215
 C364 C 1.20169 0.70173 0.29216
 C365 C 1.17612 0.67638 0.31708
 C366 C 1.18549 0.63228 0.32259
 C367 C 1.16237 0.60844 0.34843
 C368 C 1.12977 0.62859 0.36891
 C369 C 1.11999 0.67252 0.36302
 C370 C 1.14310 0.69634 0.33719
 C371 C 1.10768 0.60485 0.39701
 C372 C 1.08980 0.58551 0.42116
 H373 H 1.21108 0.61653 0.30733
 H374 H 1.17035 0.57455 0.35284
 H375 H 1.09499 0.68851 0.37877
 H376 H 1.13569 0.73046 0.33331
 C377 C 0.72261 0.22236 0.27272
 C378 C 0.70094 0.20008 0.29256
 C379 C 0.67590 0.17404 0.31722
 C380 C 0.69289 0.13483 0.33028
 C381 C 0.66993 0.11090 0.35609
 C382 C 0.62988 0.12609 0.36896
 C383 C 0.61255 0.16495 0.35548
 C384 C 0.63552 0.18889 0.32965
 C385 C 0.60769 0.10287 0.39719
 C386 C 0.58985 0.08381 0.42144
 H387 H 0.72419 0.12317 0.32099
 H388 H 0.68373 0.08100 0.36645
 H389 H 0.58170 0.17709 0.36536
 H390 H 0.62219 0.21928 0.31988
 C391 C 0.72224 0.72306 -0.22650
 C392 C 0.69995 0.70145 -0.20662
 C393 C 0.67387 0.67643 -0.18198
 C394 C 0.63354 0.69239 -0.17043
 C395 C 0.60943 0.66949 -0.14469
 C396 C 0.62556 0.63053 -0.13039
 C397 C 0.66557 0.61421 -0.14237
 C398 C 0.68968 0.63711 -0.16812
 C399 C 0.60212 0.60850 -0.10221
 C400 C 0.58301 0.59073 -0.07795
 H401 H 0.62110 0.72285 -0.18086
 H402 H 0.57863 0.68250 -0.13550
 H403 H 0.67843 0.58422 -0.13138
 H404 H 0.72091 0.62457 -0.17674
 C405 C 0.77761 -0.22262 -0.22691
 C406 C 0.80006 -0.20075 -0.20732
 C407 C 0.82627 -0.17543 -0.18296
 C408 C 0.80962 -0.13711 -0.16788
 C409 C 0.83387 -0.11410 -0.14227
 C410 C 0.87486 -0.12930 -0.13165
 C411 C 0.89183 -0.16720 -0.14720
 C412 C 0.86759 -0.19022 -0.17281
 C413 C 0.89839 -0.10739 -0.10343
 C414 C 0.91747 -0.08974 -0.07908
 H415 H 0.77762 -0.12551 -0.17540
 H416 H 0.82034 -0.08495 -0.13028
 H417 H 0.92339 -0.17937 -0.13904
 H418 H 0.88068 -0.21992 -0.18417
 C419 C 0.77703 0.27758 0.27265
 C420 C 0.79894 0.29972 0.29244
 C421 C 0.82435 0.32550 0.31705
 C422 C 0.81013 0.36706 0.32708
 C423 C 0.83325 0.39095 0.35285
 C424 C 0.87068 0.37337 0.36871
 C425 C 0.88530 0.33211 0.35825
 C426 C 0.86218 0.30822 0.33248
 C427 C 0.89276 0.39671 0.39696
 C428 C 0.91049 0.41581 0.42126
 H429 H 0.78080 0.38065 0.31546
 H430 H 0.82155 0.42275 0.36086
 H431 H 0.91409 0.31813 0.37047
 H432 H 0.87335 0.27602 0.32506
 C433 C 0.27546 -0.22400 0.27183
 C434 C 0.29745 -0.20171 0.29158
 C435 C 0.32292 -0.17580 0.31620
 C436 C 0.36171 -0.19232 0.33055
 C437 C 0.38495 -0.16839 0.35628
 C438 C 0.36953 -0.12782 0.36781
 C439 C 0.33108 -0.11101 0.35305
 C440 C 0.30785 -0.13493 0.32732
 C441 C 0.39196 -0.10442 0.39595
 C442 C 0.41002 -0.08530 0.42014
 H443 H 0.37358 -0.22396 0.32233
 H444 H 0.41451 -0.18183 0.36762
 H445 H 0.31871 -0.07978 0.36186
 H446 H 0.27779 -0.12191 0.31657
 C447 C 0.27773 0.27742 -0.22780
 C448 C 0.29979 0.29952 -0.20809
 C449 C 0.32534 0.32514 -0.18347
 C450 C 0.30755 0.36257 -0.16774
 C451 C 0.33116 0.38575 -0.14183
 C452 C 0.37264 0.37159 -0.13153
 C453 C 0.39073 0.33461 -0.14772
 C454 C 0.36713 0.31142 -0.17363
 C455 C 0.39568 0.39365 -0.10312
 C456 C 0.41459 0.41133 -0.07869
 H457 H 0.27517 0.37332 -0.17500
 H458 H 0.31678 0.41419 -0.12936
 H459 H 0.42270 0.32326 -0.13983
 H460 H 0.38109 0.28239 -0.18547
 C461 C 1.22321 -0.22454 0.22826
 C462 C 1.20088 -0.20278 0.20839
 C463 C 1.17487 -0.17763 0.18368
 C464 C 1.13550 -0.19441 0.17064
 C465 C 1.11157 -0.17131 0.14487
 C466 C 1.12687 -0.13129 0.13197
 C467 C 1.16592 -0.11420 0.14540
 C468 C 1.18985 -0.13731 0.17118
 C469 C 1.10361 -0.10886 0.10380
 C470 C 1.08465 -0.09076 0.07956
 H471 H 1.12369 -0.22565 0.17994
 H472 H 1.08154 -0.18496 0.13458
 H473 H 1.17820 -0.08341 0.13552
 H474 H 1.22035 -0.12410 0.18090
 C475 C 1.22243 0.27720 0.72663
 C476 C 1.20042 0.29936 0.70696
 C477 C 1.17505 0.32533 0.68249
 C478 C 1.18886 0.36733 0.67335
 C479 C 1.16592 0.39146 0.64765
 C480 C 1.12908 0.37368 0.63098
 C481 C 1.11484 0.33197 0.64057
 C482 C 1.13778 0.30784 0.66627
 C483 C 1.10726 0.39726 0.60276
 C484 C 1.08967 0.41645 0.57846
 H485 H 1.21777 0.38108 0.68559
 H486 H 1.17733 0.42359 0.64031
 H487 H 1.08652 0.31783 0.62772
 H488 H 1.12696 0.27531 0.67299
 C489 C 0.72253 -0.22249 0.72727
 C490 C 0.70056 -0.20053 0.70741
 C491 C 0.67502 -0.17507 0.68271
 C492 C 0.68822 -0.13291 0.67350
 C493 C 0.66505 -0.10928 0.64762
 C494 C 0.62859 -0.12773 0.63086
 C495 C 0.61497 -0.16961 0.64051
 C496 C 0.63815 -0.19324 0.66638
 C497 C 0.60651 -0.10456 0.60256
 C498 C 0.58883 -0.08554 0.57822
 H499 H 0.71681 -0.11863 0.68582
 H500 H 0.67597 -0.07699 0.64024
 H501 H 0.58695 -0.18426 0.62760
 H502 H 0.62779 -0.22590 0.67318
 C503 C 0.72208 0.27718 0.22672
 C504 C 0.69987 0.29903 0.20695
 C505 C 0.67403 0.32439 0.18239
 C506 C 0.69110 0.36250 0.16727
 C507 C 0.66718 0.38562 0.14155
 C508 C 0.62609 0.37073 0.13084
 C509 C 0.60872 0.33301 0.14639
 C510 C 0.63265 0.30988 0.17211
 C511 C 0.60273 0.39287 0.10267
 C512 C 0.58361 0.41068 0.07845
 H513 H 0.72317 0.37388 0.17488
 H514 H 0.68100 0.41464 0.12957
 H515 H 0.57707 0.32109 0.13819
 H516 H 0.61924 0.28033 0.18349
 C517 C 0.77728 0.22278 0.22662
 C518 C 0.79944 0.20091 0.20683
 C519 C 0.82528 0.17552 0.18227
 C520 C 0.80779 0.13806 0.16636
 C521 C 0.83182 0.11491 0.14072
 C522 C 0.87345 0.12914 0.13089
 C523 C 0.89122 0.16622 0.14721
 C524 C 0.86718 0.18936 0.17286
 C525 C 0.89700 0.10702 0.10280
 C526 C 0.91625 0.08923 0.07862
 H527 H 0.77533 0.12720 0.17331
 H528 H 0.81769 0.08641 0.12813
 H529 H 0.92329 0.17763 0.13967
 H530 H 0.88093 0.21840 0.18486
 C531 C 0.77685 0.72230 0.72733
 C532 C 0.79858 0.70004 0.70751
 C533 C 0.82382 0.67418 0.68287
 C534 C 0.80747 0.63446 0.67025
 C535 C 0.83060 0.61071 0.64443
 C536 C 0.87016 0.62660 0.63109
 C537 C 0.88686 0.66598 0.64413
 C538 C 0.86373 0.68973 0.66997
 C539 C 0.89244 0.60357 0.60281
 C540 C 0.91031 0.58466 0.57849
 H541 H 0.77652 0.62226 0.67989
 H542 H 0.81729 0.58039 0.63440
 H543 H 0.91732 0.67866 0.63388
 H544 H 0.87655 0.72053 0.67940
 C545 C 0.27725 0.22237 0.72633
 C546 C 0.29897 0.20013 0.70648
 C547 C 0.32412 0.17411 0.68187
 C548 C 0.36241 0.19083 0.66680
 C549 C 0.38536 0.16669 0.64110
 C550 C 0.37011 0.12573 0.63037
 C551 C 0.33219 0.10872 0.64587
 C552 C 0.30925 0.13286 0.67157
 C553 C 0.39208 0.10219 0.60221
 C554 C 0.40982 0.08304 0.57795
 H555 H 0.37409 0.22277 0.67444
 H556 H 0.41452 0.18024 0.62915
 H557 H 0.32000 0.07718 0.63764
 H558 H 0.27956 0.11971 0.68293
 C559 C 0.27554 0.72373 0.22827
 C560 C 0.29766 0.70179 0.20837
 C561 C 0.32340 0.67643 0.18358
 C562 C 0.30602 0.63876 0.16788
 C563 C 0.32990 0.61570 0.14204
 C564 C 0.37129 0.63018 0.13172
 C565 C 0.38893 0.66750 0.14780
 C566 C 0.36505 0.69055 0.17365
 C567 C 0.39476 0.60799 0.10351
 C568 C 0.41398 0.59010 0.07930
 H569 H 0.27376 0.62765 0.17517
 H570 H 0.31582 0.58702 0.12968
 H571 H 0.42080 0.67915 0.13994
 H572 H 0.37875 0.71976 0.18543
   
