data_POSCAR
  _audit_creation_date              2014-09-24
  _audit_creation_method            'ToBaCCo'
  _symmetry_space_group_name_H-M    'P1'
  _symmetry_Int_Tables_number       1
  _symmetry_cell_setting            triclinic
  loop_
  _symmetry_equiv_pos_as_xyz
 x,y,z
_cell_length_a 29.7686
_cell_length_b 29.5704
_cell_length_c 35.5422
_cell_angle_alpha 90.028300
_cell_angle_beta 90.064400
_cell_angle_gamma 90.542700
loop_
  _atom_site_label
  _atom_site_type_symbol
  _atom_site_fract_x
  _atom_site_fract_y
  _atom_site_fract_z
C1 C 1.19855 0.27068 0.30926
 H2 H 1.20306 0.23457 0.31204
 C3 C 1.17161 0.29363 0.33479
 H4 H 1.15616 0.27482 0.35754
 C5 C 1.21592 0.33896 0.27734
 H6 H 1.23392 0.35662 0.25539
 C7 C 1.18856 0.36321 0.30187
 H8 H 1.18511 0.39927 0.29779
 N9 N 1.22019 0.29350 0.28141
 C10 C 1.24393 0.18855 0.19882
 H11 H 1.28018 0.18647 0.19969
 C12 C 1.21946 0.16044 0.17470
 H13 H 1.23740 0.13596 0.15798
 C14 C 1.17710 0.22300 0.22012
 H15 H 1.16086 0.24815 0.23731
 C16 C 1.15138 0.19642 0.19560
 H17 H 1.11554 0.20194 0.19417
 Zn18 Zn 1.25784 0.25838 0.25082
 N19 N 1.22252 0.21871 0.22118
 C20 C 1.29441 0.18041 0.28506
 N21 N 1.29587 0.22621 0.28377
 C22 C 1.32163 0.25033 0.30827
 C23 C 1.34757 0.22837 0.33536
 C24 C 1.32010 0.15698 0.31124
 C25 C 1.26789 0.31922 0.19171
 C26 C 1.29029 0.34479 0.16453
 C27 C 1.36089 0.31801 0.18925
 C28 C 1.33709 0.29345 0.21641
 N29 N 1.29142 0.29462 0.21718
 H30 H 1.27209 0.16177 0.26669
 H31 H 1.32171 0.28689 0.30695
 H32 H 1.36856 0.24939 0.35313
 H33 H 1.31533 0.12074 0.31198
 H34 H 1.23155 0.31848 0.19230
 H35 H 1.27102 0.36387 0.14424
 H36 H 1.39722 0.31661 0.18872
 H37 H 1.35509 0.27272 0.23629
 C38 C 1.17249 0.16467 0.17221
 C39 C 1.16634 0.34062 0.33141
 C40 C 1.33735 0.34410 0.16294
 C41 C 1.34754 0.18052 0.33755
 C42 C 0.68773 -0.24269 0.31953
 H43 H 0.70429 -0.27297 0.32900
 C44 C 0.65888 -0.22015 0.34397
 H45 H 0.65506 -0.23261 0.37242
 C46 C 0.67367 -0.18944 0.27133
 H47 H 0.67952 -0.17765 0.24298
 C48 C 0.64405 -0.16614 0.29470
 H49 H 0.62726 -0.13658 0.28383
 N50 N 0.69563 -0.22641 0.28432
 C51 C 0.72918 -0.31617 0.19151
 H52 H 0.76548 -0.31404 0.19126
 C53 C 0.70660 -0.34105 0.16382
 H54 H 0.72570 -0.35822 0.14228
 C55 C 0.66000 -0.29490 0.21904
 H56 H 0.64197 -0.27663 0.24050
 C57 C 0.63608 -0.31872 0.19150
 H58 H 0.59970 -0.31895 0.19209
 Zn59 Zn 0.73750 -0.25717 0.25324
 N60 N 0.70570 -0.29383 0.21842
 C61 C 0.78110 -0.33751 0.27851
 N62 N 0.77512 -0.29255 0.28455
 C63 C 0.79520 -0.27110 0.31404
 C64 C 0.82230 -0.29488 0.33899
 C65 C 0.80857 -0.36254 0.30251
 C66 C 0.75494 -0.19687 0.19387
 C67 C 0.78114 -0.17073 0.16940
 C68 C 0.84510 -0.18289 0.20978
 C69 C 0.81779 -0.20922 0.23325
 N70 N 0.77354 -0.21583 0.22498
 H71 H 0.76457 -0.35415 0.25520
 H72 H 0.78946 -0.23542 0.31852
 H73 H 0.83659 -0.27716 0.36288
 H74 H 0.81341 -0.39811 0.29678
 H75 H 0.72006 -0.20360 0.18718
 H76 H 0.76582 -0.15765 0.14406
 H77 H 0.88012 -0.17806 0.21711
 H78 H 0.83247 -0.22508 0.25759
 C79 C 0.65946 -0.34204 0.16341
 C80 C 0.63715 -0.18075 0.33197
 C81 C 0.82710 -0.16374 0.17695
 C82 C 0.82942 -0.34132 0.33345
 C83 C 0.69892 0.26041 -0.18834
 H84 H 0.70016 0.22403 -0.18539
 C85 C 0.67169 0.28574 -0.16441
 H86 H 0.65275 0.26832 -0.14278
 C87 C 0.72446 0.32703 -0.21871
 H88 H 0.74598 0.34343 -0.23900
 C89 C 0.69702 0.35354 -0.19600
 H90 H 0.69689 0.38973 -0.20044
 N91 N 0.72439 0.28122 -0.21504
 C92 C 0.74998 0.17918 -0.30100
 H93 H 0.78632 0.18018 -0.30097
 C94 C 0.72708 0.15266 -0.32738
 H95 H 0.74605 0.13356 -0.34781
 C96 C 0.68129 0.20539 -0.27574
 H97 H 0.66366 0.22674 -0.25611
 C98 C 0.65703 0.17935 -0.30164
 H99 H 0.62068 0.18038 -0.30128
 Zn100 Zn 0.76155 0.24435 -0.24562
 N101 N 0.72693 0.20516 -0.27617
 C102 C 0.79229 0.16465 -0.21062
 N103 N 0.79850 0.21019 -0.21324
 C104 C 0.82833 0.23238 -0.19069
 C105 C 0.85353 0.20857 -0.16422
 C106 C 0.81642 0.13963 -0.18431
 C107 C 0.77221 0.30767 -0.30253
 C108 C 0.79429 0.33507 -0.32858
 C109 C 0.86451 0.30219 -0.30902
 C110 C 0.84102 0.27683 -0.28214
 N111 N 0.79571 0.28029 -0.27923
 H112 H 0.76766 0.14778 -0.22815
 H113 H 0.83192 0.26872 -0.19284
 H114 H 0.87655 0.22684 -0.14599
 H115 H 0.81078 0.10347 -0.18235
 H116 H 0.73593 0.30819 -0.30081
 H117 H 0.77361 0.35534 -0.34691
 H118 H 0.90067 0.29917 -0.30948
 H119 H 0.85899 0.25391 -0.26400
 C120 C 0.67998 0.15322 -0.32840
 C121 C 0.67021 0.33310 -0.16815
 C122 C 0.84145 0.33269 -0.33281
 C123 C 0.84727 0.16165 -0.16052
 C124 C 1.18297 -0.23163 -0.19369
 H125 H 1.18539 -0.26811 -0.19409
 C126 C 1.15741 -0.21039 -0.16605
 H127 H 1.14019 -0.23071 -0.14511
 C128 C 1.20382 -0.16072 -0.21980
 H129 H 1.22209 -0.14154 -0.24074
 C130 C 1.17926 -0.13806 -0.19222
 H131 H 1.17861 -0.10145 -0.19221
 N132 N 1.20549 -0.20669 -0.21983
 C133 C 1.22838 -0.30248 -0.31100
 H134 H 1.26448 -0.29964 -0.31378
 C135 C 1.20437 -0.33144 -0.33468
 H136 H 1.22215 -0.35094 -0.35563
 C137 C 1.16115 -0.27871 -0.28163
 H138 H 1.14438 -0.25760 -0.26132
 C139 C 1.13568 -0.30672 -0.30529
 H140 H 1.09942 -0.30733 -0.30280
 Zn141 Zn 1.24226 -0.23801 -0.25435
 N142 N 1.20671 -0.27729 -0.28475
 C143 C 1.28831 -0.31793 -0.23105
 N144 N 1.28363 -0.27269 -0.22522
 C145 C 1.30448 -0.25197 -0.19571
 C146 C 1.33055 -0.27690 -0.17049
 C147 C 1.31472 -0.34390 -0.20703
 C148 C 1.25912 -0.19404 -0.32347
 C149 C 1.28094 -0.16528 -0.34880
 C150 C 1.32788 -0.13852 -0.29794
 C151 C 1.30551 -0.16835 -0.27362
 N152 N 1.27229 -0.19601 -0.28680
 H153 H 1.27071 -0.33464 -0.25364
 H154 H 1.29916 -0.21636 -0.19067
 H155 H 1.34500 -0.25981 -0.14635
 H156 H 1.31805 -0.37966 -0.21275
 H157 H 1.23175 -0.21504 -0.33343
 H158 H 1.27095 -0.16610 -0.37808
 H159 H 1.35419 -0.11689 -0.28672
 H160 H 1.31488 -0.16954 -0.24427
 C161 C 1.15746 -0.33362 -0.33204
 C162 C 1.15581 -0.16302 -0.16486
 C163 C 1.31634 -0.13733 -0.33639
 C164 C 1.33562 -0.32377 -0.17569
 C165 C 0.25898 0.19184 0.67866
 H166 H 0.23101 0.21139 0.66858
 C167 C 0.28114 0.16326 0.65369
 H168 H 0.27098 0.16282 0.62444
 C169 C 0.30598 0.16881 0.72868
 H170 H 0.31526 0.17041 0.75796
 C171 C 0.32892 0.13951 0.70470
 H172 H 0.35584 0.11922 0.71599
 N173 N 0.27245 0.19526 0.71521
 C174 C 0.18633 0.22513 0.81047
 H175 H 0.19176 0.26119 0.81347
 C176 C 0.16183 0.20144 0.83763
 H177 H 0.15001 0.22042 0.86157
 C178 C 0.19932 0.15767 0.77662
 H179 H 0.21400 0.14080 0.75268
 C180 C 0.17498 0.13253 0.80305
 H181 H 0.17052 0.09678 0.79778
 Zn182 Zn 0.24152 0.23637 0.74748
 N183 N 0.20482 0.20301 0.78095
 C184 C 0.16101 0.27829 0.72151
 N185 N 0.20621 0.27499 0.71700
 C186 C 0.22805 0.29847 0.68956
 C187 C 0.20431 0.32570 0.66466
 C188 C 0.13594 0.30574 0.69748
 C189 C 0.30772 0.25284 0.80373
 C190 C 0.33432 0.27913 0.82793
 C191 C 0.30581 0.34621 0.79799
 C192 C 0.28026 0.31868 0.77403
 N193 N 0.28163 0.27277 0.77710
 H194 H 0.14429 0.25938 0.74351
 H195 H 0.26402 0.29507 0.68649
 H196 H 0.22243 0.34244 0.64218
 H197 H 0.10005 0.30814 0.70175
 H198 H 0.30661 0.21661 0.80733
 H199 H 0.35421 0.26267 0.84936
 H200 H 0.30391 0.38262 0.79529
 H201 H 0.25831 0.33435 0.75383
 C202 C 0.15598 0.15400 0.83474
 C203 C 0.31723 0.13718 0.66640
 C204 C 0.33318 0.32648 0.82545
 C205 C 0.15750 0.32952 0.66821
 C206 C 0.77102 0.69442 0.69026
 H207 H 0.73557 0.70044 0.68612
 C208 C 0.79425 0.66734 0.66499
 H209 H 0.77634 0.65331 0.64111
 C210 C 0.83749 0.70821 0.72538
 H211 H 0.85417 0.72476 0.74871
 C212 C 0.86200 0.68074 0.70103
 H213 H 0.89743 0.67583 0.70634
 N214 N 0.79289 0.71454 0.71944
 C215 C 0.68799 0.74119 0.80087
 H216 H 0.68739 0.77777 0.80079
 C217 C 0.65907 0.71696 0.82445
 H218 H 0.63711 0.73589 0.84272
 C219 C 0.72014 0.67334 0.77867
 H220 H 0.74423 0.65648 0.76095
 C221 C 0.69273 0.64777 0.80250
 H222 H 0.69546 0.61134 0.80147
 Zn223 Zn 0.75807 0.75356 0.74899
 N224 N 0.71743 0.71916 0.77837
 C225 C 0.68156 0.79064 0.71351
 N226 N 0.72717 0.79151 0.71511
 C227 C 0.75182 0.81675 0.69051
 C228 C 0.73055 0.84358 0.66366
 C229 C 0.65896 0.81669 0.68703
 C230 C 0.81222 0.76509 0.81218
 C231 C 0.83637 0.78840 0.83983
 C232 C 0.82441 0.85767 0.80543
 C233 C 0.79978 0.83311 0.77878
 N234 N 0.79430 0.78763 0.78252
 H235 H 0.66252 0.76893 0.73210
 H236 H 0.78812 0.81578 0.69166
 H237 H 0.75074 0.86399 0.64474
 H238 H 0.62265 0.81472 0.68580
 H239 H 0.80668 0.72902 0.81482
 H240 H 0.84876 0.76981 0.86385
 H241 H 0.82882 0.89372 0.80149
 H242 H 0.78465 0.85067 0.75546
 C243 C 0.66151 0.66934 0.82618
 C244 C 0.84049 0.66035 0.66998
 C245 C 0.84265 0.83546 0.83683
 C246 C 0.68345 0.84381 0.66173
 C247 C 0.75777 0.19145 0.19124
 H248 H 0.72146 0.18980 0.19030
 C249 C 0.78308 0.16310 0.16816
 H250 H 0.76602 0.13980 0.14935
 C251 C 0.82414 0.22522 0.21566
 H252 H 0.84020 0.25010 0.23350
 C253 C 0.85065 0.19786 0.19291
 H254 H 0.88687 0.20140 0.19415
 N255 N 0.77855 0.22134 0.21478
 C256 C 0.68286 0.25178 0.30442
 H257 H 0.68553 0.28830 0.30452
 C258 C 0.65686 0.22983 0.33162
 H259 H 0.63978 0.24962 0.35278
 C260 C 0.70419 0.18160 0.27797
 H261 H 0.72342 0.16284 0.25765
 C262 C 0.67869 0.15829 0.30469
 H263 H 0.67801 0.12167 0.30417
 Zn264 Zn 0.74327 0.26042 0.24501
 N265 N 0.70580 0.22755 0.27830
 C266 C 0.66297 0.29970 0.21717
 N267 N 0.70820 0.29658 0.21263
 C268 C 0.72936 0.31689 0.18323
 C269 C 0.70479 0.34091 0.15653
 C270 C 0.63721 0.32418 0.19158
 C271 C 0.80662 0.27305 0.30093
 C272 C 0.83457 0.29616 0.32597
 C273 C 0.80883 0.36670 0.29961
 C274 C 0.78183 0.34210 0.27448
 N275 N 0.78131 0.29612 0.27567
 H276 H 0.64652 0.28281 0.24033
 H277 H 0.76528 0.31328 0.17997
 H278 H 0.72233 0.35513 0.13259
 H279 H 0.60141 0.32669 0.19622
 H280 H 0.80481 0.23650 0.30166
 H281 H 0.85413 0.27723 0.34617
 H282 H 0.80871 0.40330 0.29881
 H283 H 0.76079 0.35967 0.25456
 C284 C 0.65508 0.18244 0.33225
 C285 C 0.83019 0.16629 0.16875
 C286 C 0.83565 0.34354 0.32567
 C287 C 0.65791 0.34474 0.16036
 C288 C 0.27124 0.68951 0.19212
 H289 H 0.23554 0.69532 0.18956
 C290 C 0.29367 0.66530 0.16426
 H291 H 0.27475 0.65321 0.14021
 C292 C 0.33922 0.70127 0.22552
 H293 H 0.35699 0.71599 0.24911
 C294 C 0.36290 0.67654 0.19863
 H295 H 0.39860 0.67177 0.20251
 N296 N 0.29422 0.70735 0.22175
 C297 C 0.19796 0.73090 0.31164
 H298 H 0.20014 0.76738 0.31351
 C299 C 0.16942 0.70697 0.33568
 H300 H 0.14983 0.72517 0.35629
 C301 C 0.22198 0.66279 0.28310
 H302 H 0.24280 0.64583 0.26269
 C303 C 0.19442 0.63741 0.30711
 H304 H 0.19395 0.60087 0.30496
 Zn305 Zn 0.26142 0.74432 0.25526
 N306 N 0.22313 0.70868 0.28578
 C307 C 0.18057 0.78052 0.22603
 N308 N 0.22621 0.78405 0.22518
 C309 C 0.24713 0.81237 0.20047
 C310 C 0.22200 0.83889 0.17572
 C311 C 0.15424 0.80604 0.20159
 C312 C 0.32240 0.75191 0.31525
 C313 C 0.35040 0.77336 0.34154
 C314 C 0.33413 0.84453 0.31162
 C315 C 0.30601 0.82169 0.28635
 N316 N 0.30096 0.77613 0.28829
 H317 H 0.16434 0.75685 0.24481
 H318 H 0.28344 0.81358 0.19940
 H319 H 0.23926 0.86059 0.15579
 H320 H 0.11802 0.80245 0.20258
 H321 H 0.31760 0.71562 0.31639
 H322 H 0.36763 0.75192 0.36135
 H323 H 0.33476 0.88097 0.30952
 H324 H 0.28758 0.84071 0.26564
 C325 C 0.16762 0.65963 0.33369
 C326 C 0.34031 0.65870 0.16705
 C327 C 0.35731 0.82082 0.34036
 C328 C 0.17489 0.83549 0.17581
 O329 O 1.08967 0.04670 0.03352
 O330 O 0.91467 -0.05527 0.03652
 O331 O 0.95340 0.08212 0.03687
 O332 O 1.05123 -0.09122 0.03812
 O333 O 0.92606 0.02060 0.05767
 O334 O 1.07955 -0.02851 0.05622
 O335 O 0.97531 -0.08158 0.05830
 O336 O 1.02910 0.07127 0.05657
 C337 C 1.07014 0.06706 0.05936
 C338 C 0.93464 -0.07527 0.06237
 C339 C 0.93167 0.06167 0.06168
 C340 C 1.07381 -0.06937 0.06178
 O341 O 1.08558 -0.05962 -0.01518
 O342 O 0.91734 0.04934 -0.01483
 O343 O 1.05514 0.07915 -0.01743
 O344 O 0.94768 -0.08996 -0.01502
 O345 O 0.92344 -0.02722 -0.03568
 O346 O 1.07798 0.01627 -0.03828
 O347 O 1.02317 -0.08429 -0.03520
 O348 O 0.97980 0.07194 -0.03625
 Co349 Co 1.07519 -0.00612 0.00915
 Co350 Co 0.92841 -0.00326 0.01091
 Co351 Co 1.00410 0.06822 0.01011
 Co352 Co 0.99965 -0.07892 0.01150
 O353 O 1.00181 -0.00508 0.01046
 C354 C 1.06379 -0.07914 -0.04041
 C355 C 0.93889 0.06844 -0.04042
 C356 C 1.07304 0.05725 -0.04332
 C357 C 0.92845 -0.06825 -0.04044
 O358 O 1.07461 0.52205 0.54771
 O359 O 0.92120 0.47305 0.54583
 O360 O 0.97554 0.57492 0.54582
 O361 O 1.02147 0.41962 0.54605
 O362 O 0.91349 0.54930 0.52533
 O363 O 1.08376 0.44598 0.52674
 O364 O 0.94647 0.41103 0.52488
 O365 O 1.05063 0.58393 0.52583
 C366 C 1.06923 0.56304 0.55193
 C367 C 0.92664 0.43208 0.55026
 C368 C 0.93496 0.56923 0.55064
 C369 C 1.06207 0.42508 0.55131
 O370 O 1.07653 0.47496 0.45429
 O371 O 0.92233 0.52086 0.45265
 O372 O 1.02336 0.57475 0.45275
 O373 O 0.97523 0.42025 0.45218
 O374 O 0.91356 0.44501 0.47312
 O375 O 1.08471 0.55040 0.47488
 O376 O 1.05073 0.41214 0.47371
 O377 O 0.94747 0.58340 0.47316
 Co378 Co 1.07200 0.49827 0.50087
 Co379 Co 0.92547 0.49717 0.49928
 Co380 Co 0.99917 0.57130 0.49936
 Co381 Co 0.99851 0.42369 0.49920
 O382 O 0.99877 0.49757 0.49970
 C383 C 1.07129 0.43411 0.44911
 C384 C 0.92721 0.56186 0.44809
 C385 C 1.06419 0.56959 0.44886
 C386 C 0.93469 0.42634 0.44723
 O387 O 0.59417 0.02862 0.53687
 O388 O 0.41283 -0.04021 0.51772
 O389 O 0.46847 0.07425 0.55141
 O390 O 0.54240 -0.05395 0.55407
 O391 O 0.41351 0.04021 0.52166
 O392 O 0.59496 -0.05236 0.51677
 O393 O 0.46706 -0.05056 0.55469
 O394 O 0.55085 0.08783 0.53591
 C395 C 0.58394 0.06700 0.54891
 C396 C 0.42629 -0.05041 0.54991
 C397 C 0.42874 0.06034 0.55079
 C398 C 0.58188 -0.06181 0.54860
 O399 O 0.57407 -0.03008 0.44891
 O400 O 0.44599 0.04087 0.44599
 O401 O 0.52873 0.09550 0.46467
 O402 O 0.45995 -0.08878 0.48406
 O403 O 0.45088 -0.03500 0.44644
 O404 O 0.58754 0.05225 0.46619
 O405 O 0.54000 -0.08619 0.47751
 O406 O 0.44823 0.09510 0.48252
 Co407 Co 0.57924 0.00029 0.49293
 Co408 Co 0.43678 0.00200 0.48442
 Co409 Co 0.49977 0.07978 0.50796
 Co410 Co 0.50298 -0.06382 0.51605
 O411 O 0.50525 0.00534 0.50035
 C412 C 0.56023 -0.07011 0.44874
 C413 C 0.43869 0.08090 0.45085
 C414 C 0.56713 0.08563 0.45324
 C415 C 0.44984 -0.07590 0.45174
 O416 O 0.57259 0.52551 0.03610
 O417 O 0.41757 0.47967 0.03537
 O418 O 0.47399 0.57998 0.03739
 O419 O 0.51707 0.42474 0.03594
 O420 O 0.41132 0.55586 0.01658
 O421 O 0.57922 0.44990 0.01522
 O422 O 0.44114 0.41749 0.01415
 O423 O 0.54955 0.58844 0.01594
 C424 C 0.56881 0.56649 0.04106
 C425 C 0.42238 0.43874 0.03989
 C426 C 0.43324 0.57469 0.04229
 C427 C 0.55783 0.43036 0.04070
 O428 O 0.57151 0.47827 -0.05743
 O429 O 0.41914 0.52959 -0.05725
 O430 O 0.51992 0.58125 -0.05635
 O431 O 0.47048 0.42622 -0.05778
 O432 O 0.40872 0.45283 -0.03815
 O433 O 0.58140 0.55421 -0.03665
 O434 O 0.54542 0.41612 -0.03666
 O435 O 0.44503 0.59080 -0.03469
 Co436 Co 0.56834 0.50217 -0.01070
 Co437 Co 0.42203 0.50434 -0.01091
 Co438 Co 0.49695 0.57705 -0.00954
 Co439 Co 0.49371 0.42924 -0.01099
 O440 O 0.49526 0.50319 -0.01062
 C441 C 0.56680 0.43705 -0.06140
 C442 C 0.42491 0.57078 -0.06067
 C443 C 0.56041 0.57533 -0.06132
 C444 C 0.42976 0.43102 -0.06249
 C445 C 1.10103 0.12551 0.15074
 C446 C 1.14619 0.13790 0.14409
 C447 C 1.16580 0.12564 0.10960
 C448 C 1.14123 0.10164 0.08270
 C449 C 1.09604 0.09031 0.08907
 C450 C 1.07604 0.10242 0.12328
 H451 H 1.08489 0.13351 0.17714
 H452 H 1.19990 0.13551 0.10275
 H453 H 1.15731 0.09313 0.05633
 H454 H 1.04124 0.09376 0.12886
 C455 C 1.09636 0.65697 0.62044
 C456 C 1.13160 0.63810 0.64122
 C457 C 1.14410 0.59318 0.63430
 C458 C 1.12253 0.56793 0.60625
 C459 C 1.08875 0.58757 0.58423
 C460 C 1.07536 0.63204 0.59196
 H461 H 1.08640 0.69166 0.62513
 H462 H 1.17107 0.57793 0.65019
 H463 H 1.13341 0.53369 0.60088
 H464 H 1.04928 0.64789 0.57546
 C465 C 0.61927 0.15166 0.62318
 C466 C 0.65512 0.12981 0.64095
 C467 C 0.66788 0.08676 0.62809
 C468 C 0.64502 0.06603 0.59809
 C469 C 0.60920 0.08816 0.58034
 C470 C 0.59664 0.13115 0.59333
 H471 H 0.60923 0.18519 0.63184
 H472 H 0.69530 0.06904 0.64141
 H473 H 0.65529 0.03277 0.58888
 H474 H 0.56926 0.14928 0.58034
 C475 C 0.60033 0.65537 0.11330
 C476 C 0.63489 0.63380 0.13316
 C477 C 0.64661 0.58950 0.12327
 C478 C 0.62437 0.56724 0.09389
 C479 C 0.59059 0.58919 0.07338
 C480 C 0.57863 0.63339 0.08346
 H481 H 0.59091 0.68964 0.12030
 H482 H 0.67294 0.57211 0.13835
 H483 H 0.63430 0.53321 0.08669
 H484 H 0.55259 0.65099 0.06819
 C485 C 0.90091 -0.15189 0.14326
 C486 C 0.85626 -0.13854 0.14984
 C487 C 0.83910 -0.10214 0.12901
 C488 C 0.86508 -0.08100 0.10131
 C489 C 0.90911 -0.09527 0.09403
 C490 C 0.92714 -0.13027 0.11583
 H491 H 0.91518 -0.18013 0.15833
 H492 H 0.80535 -0.09016 0.13384
 H493 H 0.85047 -0.05374 0.08520
 H494 H 0.96094 -0.14206 0.11074
 C495 C 0.90432 0.34343 0.62454
 C496 C 0.86335 0.35793 0.64055
 C497 C 0.84531 0.39912 0.62711
 C498 C 0.86678 0.42399 0.59887
 C499 C 0.90601 0.40787 0.58215
 C500 C 0.92455 0.36748 0.59518
 H501 H 0.91947 0.31166 0.63226
 H502 H 0.81549 0.41372 0.63930
 H503 H 0.85200 0.45536 0.58944
 H504 H 0.95455 0.35415 0.58229
 C505 C 0.32323 -0.09158 0.60348
 C506 C 0.34303 -0.10992 0.63614
 C507 C 0.38960 -0.10474 0.64109
 C508 C 0.41583 -0.08356 0.61373
 C509 C 0.39649 -0.06737 0.58027
 C510 C 0.34975 -0.07066 0.57573
 H511 H 0.28732 -0.09405 0.59902
 H512 H 0.40637 -0.11890 0.66535
 H513 H 0.45179 -0.08152 0.61824
 H514 H 0.33388 -0.05811 0.55042
 C515 C 0.39425 0.34788 0.11121
 C516 C 0.36135 0.36925 0.13301
 C517 C 0.34997 0.41418 0.12492
 C518 C 0.37060 0.43712 0.09517
 C519 C 0.40246 0.41529 0.07258
 C520 C 0.41442 0.37060 0.08107
 H521 H 0.40336 0.31314 0.11680
 H522 H 0.32494 0.43145 0.14154
 H523 H 0.36088 0.47160 0.08935
 H524 H 0.43912 0.35313 0.06424
 C525 C 0.84815 0.10475 -0.10832
 C526 C 0.87136 0.13616 -0.13095
 C527 C 0.91733 0.14390 -0.12441
 C528 C 0.93953 0.12108 -0.09554
 C529 C 0.91604 0.09053 -0.07231
 C530 C 0.87023 0.08231 -0.07918
 H531 H 0.81261 0.09843 -0.11256
 H532 H 0.93608 0.16759 -0.14168
 H533 H 0.97491 0.12799 -0.09095
 H534 H 0.85137 0.05880 -0.06181
 C535 C 0.84534 0.58761 0.36981
 C536 C 0.85695 0.63251 0.36068
 C537 C 0.89389 0.65282 0.37909
 C538 C 0.91729 0.62956 0.40702
 C539 C 0.90479 0.58522 0.41669
 C540 C 0.86923 0.56412 0.39728
 H541 H 0.81677 0.57101 0.35673
 H542 H 0.90458 0.68690 0.37216
 H543 H 0.94497 0.64638 0.42127
 H544 H 0.85879 0.52999 0.40430
 C545 C 0.38266 0.11160 0.35944
 C546 C 0.37187 0.15781 0.36424
 C547 C 0.38668 0.17889 0.39807
 C548 C 0.40882 0.15433 0.42613
 C549 C 0.41751 0.10829 0.42115
 C550 C 0.40494 0.08752 0.38729
 H551 H 0.37576 0.09356 0.33361
 H552 H 0.37897 0.21362 0.40464
 H553 H 0.41831 0.17117 0.45206
 H554 H 0.41211 0.05218 0.38224
 C555 C 0.34648 0.60346 -0.13987
 C556 C 0.36043 0.64817 -0.14771
 C557 C 0.39732 0.66612 -0.12769
 C558 C 0.41867 0.64066 -0.09987
 C559 C 0.40417 0.59637 -0.09180
 C560 C 0.36837 0.57774 -0.11252
 H561 H 0.31772 0.58858 -0.15400
 H562 H 0.40973 0.69994 -0.13339
 H563 H 0.44649 0.65570 -0.08452
 H564 H 0.35629 0.54379 -0.10670
 C565 C 1.08738 -0.15359 -0.12471
 C566 C 1.13121 -0.13991 -0.13431
 C567 C 1.15210 -0.10515 -0.11359
 C568 C 1.13005 -0.08526 -0.08317
 C569 C 1.08640 -0.09924 -0.07330
 C570 C 1.06500 -0.13313 -0.09471
 H571 H 1.07050 -0.18014 -0.14044
 H572 H 1.18599 -0.09424 -0.12030
 H573 H 1.14721 -0.05904 -0.06726
 H574 H 1.03135 -0.14451 -0.08775
 C575 C 1.10190 0.34591 0.37695
 C576 C 1.13965 0.36597 0.35963
 C577 C 1.15301 0.40970 0.37084
 C578 C 1.12984 0.43235 0.39912
 C579 C 1.09337 0.41146 0.41734
 C580 C 1.07929 0.36826 0.40580
 H581 H 1.08994 0.31277 0.36845
 H582 H 1.18231 0.42597 0.35873
 H583 H 1.14149 0.46562 0.40765
 H584 H 1.05088 0.35172 0.41917
 C585 C 0.58659 -0.17296 0.38888
 C586 C 0.61108 -0.15296 0.35916
 C587 C 0.61388 -0.10559 0.35741
 C588 C 0.59498 -0.07903 0.38549
 C589 C 0.57309 -0.09896 0.41646
 C590 C 0.56777 -0.14618 0.41731
 H591 H 0.58294 -0.20934 0.39071
 H592 H 0.63281 -0.08882 0.33541
 H593 H 0.59938 -0.04269 0.38370
 H594 H 0.55069 -0.16248 0.44060
 C595 C 0.60150 0.34375 -0.12769
 C596 C 0.64199 0.36105 -0.14256
 C597 C 0.65579 0.40499 -0.13200
 C598 C 0.63026 0.43051 -0.10693
 C599 C 0.59090 0.41235 -0.09113
 C600 C 0.57657 0.36891 -0.10194
 H601 H 0.58904 0.31065 -0.13576
 H602 H 0.68710 0.41933 -0.14208
 H603 H 0.64235 0.46372 -0.09869
 H604 H 0.54618 0.35425 -0.09023
 C605 C 1.14121 0.08228 -0.13103
 C606 C 1.13304 0.12891 -0.13678
 C607 C 1.10217 0.15004 -0.11237
 C608 C 1.08222 0.12640 -0.08272
 C609 C 1.09195 0.08073 -0.07650
 C610 C 1.12090 0.05863 -0.10138
 H611 H 1.16520 0.06402 -0.14786
 H612 H 1.09223 0.18478 -0.11625
 H613 H 1.05921 0.14412 -0.06445
 H614 H 1.12904 0.02336 -0.09722
 C615 C 1.09488 0.64635 0.36751
 C616 C 1.13954 0.63380 0.36062
 C617 C 1.15815 0.59816 0.38129
 C618 C 1.13320 0.57669 0.40946
 C619 C 1.08892 0.58996 0.41704
 C620 C 1.06961 0.62431 0.39524
 H621 H 1.07976 0.67358 0.35170
 H622 H 1.19260 0.58811 0.37666
 H623 H 1.14883 0.55022 0.42578
 H624 H 1.03552 0.63515 0.40049
 C625 C 0.65244 0.12125 0.38029
 C626 C 0.63162 0.15817 0.36305
 C627 C 0.58927 0.17198 0.37607
 C628 C 0.56797 0.14875 0.40556
 C629 C 0.58894 0.11161 0.42262
 C630 C 0.63144 0.09831 0.40965
 H631 H 0.68542 0.11041 0.37142
 H632 H 0.57245 0.20033 0.36314
 H633 H 0.53517 0.15966 0.41484
 H634 H 0.64871 0.06995 0.42214
 C635 C 0.65051 0.60353 -0.13232
 C636 C 0.63478 0.64430 -0.14807
 C637 C 0.59240 0.66009 -0.13631
 C638 C 0.56734 0.63662 -0.10930
 C639 C 0.58441 0.59743 -0.09262
 C640 C 0.62592 0.58086 -0.10460
 H641 H 0.68318 0.59029 -0.13939
 H642 H 0.57782 0.69014 -0.14844
 H643 H 0.53519 0.64994 -0.10064
 H644 H 0.63978 0.55067 -0.09205
 C645 C 0.90178 -0.15845 -0.11265
 C646 C 0.86648 -0.13871 -0.13304
 C647 C 0.85312 -0.09461 -0.12349
 C648 C 0.87406 -0.07120 -0.09405
 C649 C 0.90821 -0.09169 -0.07302
 C650 C 0.92208 -0.13537 -0.08274
 H651 H 0.91378 -0.19184 -0.11968
 H652 H 0.82558 -0.07851 -0.13799
 H653 H 0.86261 -0.03757 -0.08703
 H654 H 0.94865 -0.15175 -0.06717
 C655 C 0.90734 0.35564 0.36132
 C656 C 0.86275 0.36818 0.35407
 C657 C 0.84304 0.40193 0.37617
 C658 C 0.86683 0.42138 0.40605
 C659 C 0.91099 0.40795 0.41400
 C660 C 0.93143 0.37566 0.39082
 H661 H 0.92328 0.32982 0.34447
 H662 H 0.80859 0.41187 0.37131
 H663 H 0.85036 0.44636 0.42339
 H664 H 0.96548 0.36482 0.39624
 C665 C 0.39502 -0.17585 0.40175
 C666 C 0.38399 -0.15685 0.36615
 C667 C 0.40094 -0.11283 0.35872
 C668 C 0.42422 -0.08813 0.38596
 C669 C 0.43182 -0.10602 0.42189
 C670 C 0.41827 -0.15062 0.42919
 H671 H 0.38302 -0.20886 0.41024
 H672 H 0.39759 -0.09698 0.33150
 H673 H 0.43544 -0.05419 0.37900
 H674 H 0.42374 -0.16531 0.45671
 C675 C 0.40373 0.34535 -0.13897
 C676 C 0.35878 0.35506 -0.14752
 C677 C 0.33799 0.39144 -0.12919
 C678 C 0.36128 0.41674 -0.10204
 C679 C 0.40602 0.40656 -0.09307
 C680 C 0.42723 0.37106 -0.11227
 H681 H 0.42064 0.31775 -0.15292
 H682 H 0.30326 0.39946 -0.13507
 H683 H 0.34413 0.44394 -0.08774
 H684 H 0.46166 0.36235 -0.10593
 C685 C 1.11212 -0.16094 0.12875
 C686 C 1.14752 -0.13922 0.14802
 C687 C 1.15716 -0.09366 0.13986
 C688 C 1.13229 -0.07051 0.11266
 C689 C 1.09768 -0.09264 0.09269
 C690 C 1.08761 -0.13797 0.10127
 H691 H 1.10417 -0.19614 0.13419
 H692 H 1.18395 -0.07597 0.15453
 H693 H 1.14085 -0.03556 0.10667
 H694 H 1.06110 -0.15588 0.08640
 C695 C 1.08851 0.34179 0.62872
 C696 C 1.13142 0.35637 0.64041
 C697 C 1.15013 0.39544 0.62375
 C698 C 1.12733 0.41816 0.59513
 C699 C 1.08496 0.40287 0.58306
 C700 C 1.06545 0.36497 0.60057
 H701 H 1.07329 0.31147 0.64029
 H702 H 1.18263 0.40834 0.63256
 H703 H 1.14292 0.44756 0.58229
 H704 H 1.03309 0.35212 0.59147
 C705 C 0.61892 -0.10791 0.64225
 C706 C 0.65964 -0.12884 0.63310
 C707 C 0.67621 -0.12491 0.59615
 C708 C 0.65171 -0.10184 0.56868
 C709 C 0.61013 -0.08272 0.57768
 C710 C 0.59435 -0.08534 0.61482
 H711 H 0.60576 -0.10934 0.67062
 H712 H 0.70730 -0.14096 0.58813
 H713 H 0.66452 -0.10023 0.54020
 H714 H 0.56261 -0.07036 0.62260
 C715 C 0.58684 0.35391 0.12239
 C716 C 0.63077 0.36861 0.13133
 C717 C 0.64912 0.40543 0.11133
 C718 C 0.62506 0.42568 0.08224
 C719 C 0.58164 0.41044 0.07302
 C720 C 0.56237 0.37494 0.09381
 H721 H 0.57173 0.32524 0.13661
 H722 H 0.68225 0.41858 0.11793
 H723 H 0.64060 0.45318 0.06676
 H724 H 0.52901 0.36238 0.08710
 C725 C 0.84803 0.09227 0.13761
 C726 C 0.85785 0.13838 0.14314
 C727 C 0.89383 0.15815 0.12334
 C728 C 0.91862 0.13274 0.09774
 C729 C 0.90820 0.08692 0.09154
 C730 C 0.87317 0.06668 0.11221
 H731 H 0.82080 0.07608 0.15283
 H732 H 0.90194 0.19369 0.12679
 H733 H 0.94547 0.14922 0.08224
 H734 H 0.86436 0.03143 0.10796
 C735 C 0.84614 0.59749 0.62249
 C736 C 0.86623 0.63414 0.64169
 C737 C 0.91025 0.64726 0.63197
 C738 C 0.93306 0.62517 0.60314
 C739 C 0.91210 0.59001 0.58296
 C740 C 0.86870 0.57594 0.59319
 H741 H 0.81275 0.58571 0.62981
 H742 H 0.92659 0.67570 0.64564
 H743 H 0.96653 0.63672 0.59575
 H744 H 0.85211 0.54844 0.57839
 C745 C 0.32522 0.08938 0.60779
 C746 C 0.34477 0.11096 0.63926
 C747 C 0.39171 0.11076 0.64302
 C748 C 0.41853 0.09193 0.61514
 C749 C 0.39925 0.07295 0.58255
 C750 C 0.35224 0.07043 0.57969
 H751 H 0.28909 0.08820 0.60439
 H752 H 0.40804 0.12737 0.66657
 H753 H 0.45467 0.09403 0.61843
 H754 H 0.33644 0.05565 0.55507
 C755 C 0.34455 0.60037 0.11531
 C756 C 0.36525 0.63509 0.13646
 C757 C 0.40944 0.64825 0.12709
 C758 C 0.43195 0.62780 0.09715
 C759 C 0.41055 0.59432 0.07538
 C760 C 0.36677 0.58059 0.08492
 H761 H 0.31106 0.58846 0.12212
 H762 H 0.42635 0.67532 0.14212
 H763 H 0.46567 0.63918 0.09034
 H764 H 0.34964 0.55453 0.06881
   
