data_POSCAR
  _audit_creation_date              2014-09-24
  _audit_creation_method            'ToBaCCo'
  _symmetry_space_group_name_H-M    'P1'
  _symmetry_Int_Tables_number       1
  _symmetry_cell_setting            triclinic
  loop_
  _symmetry_equiv_pos_as_xyz
 x,y,z
_cell_length_a 26.9345
_cell_length_b 26.5621
_cell_length_c 31.9970
_cell_angle_alpha 90.218800
_cell_angle_beta 89.960100
_cell_angle_gamma 90.015400
loop_
  _atom_site_label
  _atom_site_type_symbol
  _atom_site_fract_x
  _atom_site_fract_y
  _atom_site_fract_z
B1 B 0.27173 0.23144 0.29529
 B2 B 0.21352 0.21602 0.28151
 B3 B 0.22580 0.27555 0.29526
 B4 B 0.28340 0.29064 0.27771
 B5 B 0.30544 0.23909 0.25219
 B6 B 0.26198 0.19241 0.25431
 B7 B 0.22170 0.27121 0.21108
 B8 B 0.27981 0.28657 0.22477
 B9 B 0.26787 0.22700 0.21115
 B10 B 0.21012 0.21200 0.22851
 B11 B 0.18793 0.26357 0.25423
 B12 B 0.23147 0.31015 0.25212
 B13 B 0.71964 0.76774 0.28871
 B14 B 0.77816 0.78334 0.27647
 B15 B 0.76594 0.72369 0.28897
 B16 B 0.70893 0.70863 0.27010
 B17 B 0.68746 0.76040 0.24472
 B18 B 0.73071 0.80714 0.24851
 B19 B 0.77279 0.72915 0.20506
 B20 B 0.71430 0.71336 0.21725
 B21 B 0.72661 0.77307 0.20480
 B22 B 0.78354 0.78813 0.22375
 B23 B 0.80492 0.73634 0.24897
 B24 B 0.76178 0.68959 0.24523
 B25 B 0.72844 0.23064 -0.29421
 B26 B 0.78705 0.21603 -0.28159
 B27 B 0.77359 0.27565 -0.29344
 B28 B 0.71610 0.28904 -0.27488
 B29 B 0.69553 0.23630 -0.25054
 B30 B 0.73969 0.19062 -0.25442
 B31 B 0.77953 0.26893 -0.20956
 B32 B 0.72081 0.28341 -0.22217
 B33 B 0.73416 0.22382 -0.21029
 B34 B 0.79173 0.21043 -0.22880
 B35 B 0.81241 0.26316 -0.25333
 B36 B 0.76814 0.30888 -0.24932
 B37 B 0.27434 0.77688 -0.20592
 B38 B 0.28733 0.71752 -0.21965
 B39 B 0.22898 0.73222 -0.20585
 B40 B 0.21666 0.79126 -0.22345
 B41 B 0.26844 0.81142 -0.24906
 B42 B 0.31245 0.76532 -0.24688
 B43 B 0.23305 0.72778 -0.28995
 B44 B 0.22045 0.78719 -0.27635
 B45 B 0.27878 0.77250 -0.29002
 B46 B 0.29090 0.71346 -0.27259
 B47 B 0.23921 0.69327 -0.24680
 B48 B 0.19527 0.73942 -0.24891
 B49 B 1.22308 1.27661 0.70768
 B50 B 1.21284 1.21576 0.71712
 B51 B 1.27038 1.23409 0.70386
 B52 B 1.28004 1.29211 0.72567
 B53 B 1.22762 1.30701 0.75358
 B54 B 1.18642 1.25904 0.74785
 B55 B 1.26774 1.22150 0.78764
 B56 B 1.27753 1.28312 0.77798
 B57 B 1.22025 1.26334 0.79179
 B58 B 1.21049 1.20618 0.76964
 B59 B 1.26216 1.19132 0.74191
 B60 B 1.30424 1.23932 0.74718
 B61 B 0.77389 0.73068 0.79430
 B62 B 0.71719 0.71089 0.78038
 B63 B 0.72444 0.77062 0.79610
 B64 B 0.77980 0.79189 0.77894
 B65 B 0.80601 0.74416 0.75144
 B66 B 0.76715 0.69349 0.75172
 B67 B 0.71924 0.76984 0.71151
 B68 B 0.77588 0.79117 0.72621
 B69 B 0.76928 0.73124 0.70985
 B70 B 0.71354 0.70932 0.72727
 B71 B 0.68729 0.75686 0.75525
 B72 B 0.72578 0.80795 0.75392
 B73 B 1.23264 0.72181 0.28842
 B74 B 1.22116 0.78317 0.27907
 B75 B 1.27903 0.76492 0.29268
 B76 B 1.29018 0.70817 0.27014
 B77 B 1.23884 0.69216 0.24250
 B78 B 1.19552 0.73889 0.24817
 B79 B 1.27559 0.77872 0.20867
 B80 B 1.28734 0.71813 0.21769
 B81 B 1.22935 0.73499 0.20475
 B82 B 1.21830 0.79252 0.22685
 B83 B 1.27040 0.80864 0.25471
 B84 B 1.31277 0.76184 0.24862
 B85 B 0.77998 1.27231 0.20999
 B86 B 0.72131 1.28680 0.22297
 B87 B 0.73436 1.22770 0.20861
 B88 B 0.79170 1.21283 0.22676
 B89 B 0.81266 1.26403 0.25362
 B90 B 0.76872 1.31026 0.25142
 B91 B 0.72812 1.22999 0.29272
 B92 B 0.78683 1.21551 0.27971
 B93 B 0.77360 1.27459 0.29414
 B94 B 0.71634 1.28948 0.27588
 B95 B 0.69550 1.23829 0.24915
 B96 B 0.73936 1.19205 0.25130
 N97 N 0.59247 1.05668 0.04428
 N98 N 0.63065 1.08569 0.05381
 N99 N 0.55579 0.95281 0.07497
 N100 N 0.56798 0.92105 0.10503
 N101 N 0.59005 0.95232 0.04572
 N102 N 0.62641 0.92124 0.05517
 N103 N 0.55801 1.05908 0.07337
 N104 N 0.57184 1.09066 0.10316
 C105 C 0.61692 1.10736 0.09017
 C106 C 0.61190 0.90139 0.09181
 N107 N 0.41228 0.95628 0.04644
 N108 N 0.37501 0.92643 0.05658
 N109 N 0.44886 1.06147 0.07411
 N110 N 0.43494 1.09150 0.10507
 N111 N 0.41442 1.06079 0.04498
 N112 N 0.37638 1.08946 0.05558
 N113 N 0.44713 0.95537 0.07519
 N114 N 0.43457 0.92412 0.10539
 Mn115 Mn 0.50247 1.00721 0.07491
 C116 C 0.38978 0.90601 0.09306
 C117 C 0.38997 1.10918 0.09267
 N118 N 0.58961 0.94922 -0.04334
 N119 N 0.62508 0.91646 -0.05165
 N120 N 0.55779 1.05441 -0.07436
 N121 N 0.57157 1.08416 -0.10528
 N122 N 0.59228 1.05383 -0.04533
 N123 N 0.63043 1.08224 -0.05592
 N124 N 0.55495 0.94803 -0.07218
 N125 N 0.56588 0.91362 -0.10074
 Mn126 Mn 0.59098 1.00310 0.00032
 C127 C 0.60948 0.89387 -0.08710
 C128 C 0.61670 1.10160 -0.09300
 N129 N 0.41494 1.05906 -0.04463
 N130 N 0.37831 1.08948 -0.05531
 N131 N 0.44668 0.95111 -0.07202
 N132 N 0.43382 0.91839 -0.10124
 N133 N 0.41187 0.95394 -0.04332
 N134 N 0.37431 0.92392 -0.05253
 N135 N 0.44900 1.05709 -0.07407
 N136 N 0.43594 1.08613 -0.10557
 Mn137 Mn 0.41343 1.00753 0.00083
 Mn138 Mn 0.50209 1.00266 -0.07363
 Cl139 Cl 0.50220 1.00526 0.00065
 C140 C 0.39221 1.10683 -0.09314
 C141 C 0.38887 0.90134 -0.08835
 N142 N 1.08648 0.56036 0.54501
 N143 N 1.12481 0.58879 0.55527
 N144 N 1.05195 0.45553 0.57550
 N145 N 1.06401 0.42387 0.60559
 N146 N 1.08667 0.45576 0.54659
 N147 N 1.12332 0.42506 0.55648
 N148 N 1.05208 0.56176 0.57417
 N149 N 1.06626 0.59205 0.60483
 C150 C 1.11140 0.60910 0.59221
 C151 C 1.10837 0.40479 0.59299
 N152 N 0.90876 0.45548 0.54646
 N153 N 0.87211 0.42476 0.55610
 N154 N 0.94306 0.56169 0.57368
 N155 N 0.93066 0.59472 0.60283
 N156 N 0.90855 0.56007 0.54467
 N157 N 0.87180 0.59126 0.55351
 N158 N 0.94328 0.45538 0.57545
 N159 N 0.93106 0.42364 0.60547
 Mn160 Mn 0.99755 0.50860 0.57521
 C161 C 0.88679 0.40459 0.59259
 C162 C 0.88643 0.61332 0.58950
 N163 N 1.08688 0.45341 0.45685
 N164 N 1.12417 0.42311 0.44754
 N165 N 1.05150 0.55721 0.42616
 N166 N 1.06467 0.58650 0.39485
 N167 N 1.08561 0.55862 0.45553
 N168 N 1.12241 0.58896 0.44503
 N169 N 1.05210 0.45111 0.42812
 N170 N 1.06481 0.41842 0.39874
 Mn171 Mn 1.08635 0.50705 0.50095
 C172 C 1.10959 0.40085 0.41162
 C173 C 1.10853 0.60679 0.40736
 N174 N 0.90830 0.55679 0.45520
 N175 N 0.87034 0.58531 0.44447
 N176 N 0.94346 0.45045 0.42830
 N177 N 0.93117 0.41752 0.39903
 N178 N 0.90869 0.45232 0.45711
 N179 N 0.87176 0.42153 0.44794
 N180 N 0.94270 0.55669 0.42603
 N181 N 0.92900 0.58610 0.39486
 Mn182 Mn 0.90867 0.50620 0.50089
 Mn183 Mn 0.99747 0.50383 0.42670
 Cl184 Cl 0.99755 0.50647 0.50095
 C185 C 0.88406 0.60407 0.40719
 C186 C 0.88665 0.39940 0.41206
 N187 N 1.09180 0.55526 0.04458
 N188 N 1.12489 0.59105 0.05161
 N189 N 1.05683 0.44908 0.07411
 N190 N 1.06477 0.41335 0.10200
 N191 N 1.09166 0.44842 0.04535
 N192 N 1.12436 0.41256 0.05328
 N193 N 1.05674 0.55656 0.07310
 N194 N 1.06509 0.59361 0.10008
 C195 C 1.10728 0.61565 0.08575
 C196 C 1.10640 0.38995 0.08812
 N197 N 0.91553 0.44784 0.04460
 N198 N 0.88181 0.41307 0.05307
 N199 N 0.94938 0.55591 0.07263
 N200 N 0.93960 0.59171 0.10033
 N201 N 0.91480 0.55455 0.04372
 N202 N 0.88061 0.58911 0.05123
 N203 N 0.94985 0.44872 0.07376
 N204 N 0.94052 0.41422 0.10246
 Mn205 Mn 1.00324 0.50265 0.07389
 C206 C 0.89860 0.39128 0.08866
 C207 C 0.89718 0.61308 0.08600
 N208 N 1.09319 0.44744 -0.04540
 N209 N 1.12650 0.41175 -0.05294
 N210 N 1.05794 0.55444 -0.07430
 N211 N 1.06684 0.59042 -0.10182
 N212 N 1.09257 0.55403 -0.04541
 N213 N 1.12589 0.58944 -0.05268
 N214 N 1.05866 0.44731 -0.07439
 N215 N 1.06732 0.41122 -0.10200
 Mn216 Mn 1.09282 0.50116 -0.00017
 C217 C 1.10959 0.38892 -0.08823
 C218 C 1.10877 0.61282 -0.08736
 N219 N 0.91555 0.55355 -0.04636
 N220 N 0.88198 0.58865 -0.05404
 N221 N 0.95116 0.44651 -0.07492
 N222 N 0.94227 0.41095 -0.10307
 N223 N 0.91628 0.44674 -0.04617
 N224 N 0.88266 0.41178 -0.05438
 N225 N 0.95037 0.55394 -0.07512
 N226 N 0.94123 0.58950 -0.10300
 Mn227 Mn 0.91507 0.50056 -0.00107
 Mn228 Mn 1.00454 0.50059 -0.07518
 Cl229 Cl 1.00389 0.50114 -0.00067
 C230 C 0.89906 0.61187 -0.08886
 C231 C 0.89998 0.38866 -0.08935
 N232 N 0.58951 1.05451 0.54314
 N233 N 0.62413 1.08871 0.55056
 N234 N 0.55384 0.94999 0.57414
 N235 N 0.56282 0.91630 0.60339
 N236 N 0.58812 0.94778 0.54495
 N237 N 0.62146 0.91263 0.55395
 N238 N 0.55460 1.05690 0.57179
 N239 N 0.56450 1.09304 0.59913
 C240 C 0.60743 1.11351 0.58495
 C241 C 0.60484 0.89271 0.59044
 N242 N 0.41165 0.94986 0.54595
 N243 N 0.37873 0.91430 0.55411
 N244 N 0.44703 1.05813 0.57281
 N245 N 0.43813 1.09488 0.60000
 N246 N 0.41196 1.05656 0.54436
 N247 N 0.37843 1.09184 0.55157
 N248 N 0.44650 0.95061 0.57467
 N249 N 0.43830 0.91517 0.60281
 Mn250 Mn 0.50047 1.00401 0.57381
 C251 C 0.39648 0.89196 0.58908
 C252 C 0.39567 1.11650 0.58577
 N253 N 0.58630 0.94540 0.45398
 N254 N 0.61920 0.90970 0.44580
 N255 N 0.55318 1.05285 0.42444
 N256 N 0.56261 1.08800 0.39625
 N257 N 0.58835 1.05207 0.45287
 N258 N 0.62252 1.08635 0.44460
 N259 N 0.55127 0.94555 0.42537
 N260 N 0.55934 0.90959 0.39742
 Mn261 Mn 0.58857 0.99978 0.49867
 C262 C 0.60120 0.88655 0.41108
 C263 C 0.60547 1.10948 0.40978
 N264 N 0.41097 1.05442 0.45459
 N265 N 0.37765 1.08977 0.44725
 N266 N 0.44390 0.94726 0.42607
 N267 N 0.43442 0.91148 0.39836
 N268 N 0.40956 0.94786 0.45524
 N269 N 0.37552 0.91287 0.44770
 N270 N 0.44544 1.05445 0.42553
 N271 N 0.43632 1.09006 0.39772
 Mn272 Mn 0.41060 1.00202 0.50010
 Mn273 Mn 0.49848 1.00011 0.42487
 Cl274 Cl 0.49957 1.00137 0.49935
 C275 C 0.39451 1.11269 0.41228
 C276 C 0.39181 0.88988 0.41225
 N277 N 1.08581 1.04844 0.54423
 N278 N 1.12128 1.07900 0.55755
 N279 N 1.05048 0.94291 0.57333
 N280 N 1.06125 0.91732 0.60708
 N281 N 1.08789 0.94331 0.54698
 N282 N 1.12537 0.91734 0.56252
 N283 N 1.04954 1.04713 0.57159
 N284 N 1.05872 1.07648 0.60363
 C285 C 1.10291 1.09664 0.59436
 C286 C 1.10744 0.90101 0.59976
 N287 N 0.90789 0.94331 0.54630
 N288 N 0.86908 0.92006 0.56302
 N289 N 0.94648 1.04672 0.57073
 N290 N 0.93656 1.07513 0.60313
 N291 N 0.91052 1.04795 0.54312
 N292 N 0.87427 1.07734 0.55689
 N293 N 0.94563 0.94176 0.57226
 N294 N 0.93425 0.91638 0.60603
 Mn295 Mn 0.99801 0.99435 0.57163
 C296 C 0.88694 0.90244 0.59991
 C297 C 0.89208 1.09443 0.59411
 N298 N 1.08987 0.93948 0.45609
 N299 N 1.12790 0.91219 0.44295
 N300 N 1.05226 1.04026 0.42448
 N301 N 1.06207 1.06758 0.39142
 N302 N 1.08737 1.04436 0.45268
 N303 N 1.12257 1.07498 0.43906
 N304 N 1.05268 0.93543 0.42980
 N305 N 1.06357 0.90440 0.39914
 Mn306 Mn 1.08857 0.99415 0.50001
 C307 C 1.10995 0.88948 0.40807
 C308 C 1.10545 1.08950 0.40097
 N309 N 0.91216 1.04385 0.45120
 N310 N 0.87712 1.07422 0.43707
 N311 N 0.94801 0.93605 0.42846
 N312 N 0.93689 0.90880 0.39559
 N313 N 0.91033 0.93882 0.45456
 N314 N 0.87226 0.91322 0.43937
 N315 N 0.94802 1.04008 0.42352
 N316 N 0.93870 1.06735 0.39031
 Mn317 Mn 0.90939 0.99369 0.49870
 Mn318 Mn 1.00029 0.98778 0.42678
 Cl319 Cl 0.99900 0.99247 0.49925
 C320 C 0.89493 1.08894 0.39926
 C321 C 0.89020 0.89431 0.40292
 N322 N 0.58841 0.54604 0.04188
 N323 N 0.62663 0.57271 0.05576
 N324 N 0.54892 0.44422 0.07397
 N325 N 0.55994 0.41949 0.10821
 N326 N 0.58497 0.44109 0.04642
 N327 N 0.62168 0.41371 0.06162
 N328 N 0.55195 0.54836 0.06903
 N329 N 0.56359 0.57647 0.10121
 C330 C 0.60961 0.59190 0.09255
 C331 C 0.60482 0.40001 0.09993
 N332 N 0.40729 0.44815 0.04781
 N333 N 0.36981 0.42208 0.06343
 N334 N 0.44910 0.55256 0.06943
 N335 N 0.44074 0.58279 0.10103
 N336 N 0.41220 0.55308 0.04270
 N337 N 0.37702 0.58391 0.05620
 N338 N 0.44432 0.44865 0.07450
 N339 N 0.43337 0.42366 0.10852
 Mn340 Mn 0.49851 0.49824 0.07136
 C341 C 0.38740 0.40680 0.10112
 C342 C 0.39637 0.60258 0.09228
 N343 N 0.58394 0.43455 -0.04468
 N344 N 0.62128 0.40748 -0.05936
 N345 N 0.55120 0.53679 -0.07768
 N346 N 0.56247 0.56252 -0.11140
 N347 N 0.58690 0.53945 -0.04981
 N348 N 0.62362 0.56759 -0.06414
 N349 N 0.54659 0.43285 -0.07106
 N350 N 0.55715 0.40475 -0.10360
 Mn351 Mn 0.58683 0.49038 -0.00159
 C352 C 0.60319 0.38863 -0.09575
 C353 C 0.60723 0.58208 -0.10240
 N354 N 0.41122 0.54629 -0.04855
 N355 N 0.37729 0.57807 -0.06235
 N356 N 0.44250 0.43634 -0.06978
 N357 N 0.43120 0.40501 -0.10006
 N358 N 0.40527 0.44172 -0.04364
 N359 N 0.36661 0.41522 -0.05683
 N360 N 0.44650 0.54090 -0.07652
 N361 N 0.43794 0.56838 -0.10970
 Mn362 Mn 0.40809 0.49744 -0.00041
 Mn363 Mn 0.49660 0.48669 -0.07355
 Cl364 Cl 0.49758 0.49315 -0.00110
 C365 C 0.39525 0.59180 -0.10035
 C366 C 0.38439 0.39146 -0.09139
 C367 C 0.35014 1.20678 0.17073
 C368 C 0.29793 1.20007 0.17335
 C369 C 0.27584 1.16506 0.14608
 C370 C 0.30544 1.13655 0.11838
 C371 C 0.35758 1.14175 0.11839
 C372 C 0.37931 1.17768 0.14427
 H373 H 0.36957 1.23362 0.19024
 H374 H 0.23617 1.15859 0.14709
 H375 H 0.28784 1.10892 0.09831
 H376 H 0.41920 1.18302 0.14434
 C377 C 0.77548 0.68041 0.63861
 C378 C 0.79912 0.70846 0.67025
 C379 C 0.85169 0.70822 0.67102
 C380 C 0.87935 0.67929 0.64345
 C381 C 0.85590 0.64918 0.61382
 C382 C 0.80371 0.65120 0.61037
 H383 H 0.73534 0.67893 0.63708
 H384 H 0.87271 0.72723 0.69486
 H385 H 0.91940 0.67884 0.64663
 H386 H 0.78469 0.62813 0.58747
 C387 C 0.64689 0.79496 0.16231
 C388 C 0.69890 0.80111 0.16693
 C389 C 0.72251 0.83835 0.14304
 C390 C 0.69442 0.86999 0.11708
 C391 C 0.64231 0.86570 0.11568
 C392 C 0.61905 0.82732 0.13772
 H393 H 0.62660 0.76655 0.17940
 H394 H 0.76213 0.84445 0.14577
 H395 H 0.71307 0.89940 0.09976
 H396 H 0.57911 0.82271 0.13634
 C397 C 1.21831 0.33915 0.64376
 C398 C 1.19399 0.30636 0.67141
 C399 C 1.14151 0.30385 0.66980
 C400 C 1.11427 0.33528 0.64390
 C401 C 1.13835 0.36928 0.61775
 C402 C 1.19065 0.37003 0.61677
 H403 H 1.25842 0.34203 0.64388
 H404 H 1.12063 0.27847 0.68947
 H405 H 1.07410 0.33331 0.64464
 H406 H 1.21004 0.39600 0.59648
 C407 C 0.65316 1.20080 -0.16961
 C408 C 0.70547 1.19555 -0.17274
 C409 C 0.72888 1.16089 -0.14618
 C410 C 0.70038 1.13126 -0.11867
 C411 C 0.64815 1.13514 -0.11824
 C412 C 0.62517 1.17076 -0.14333
 H413 H 0.63267 1.22722 -0.18855
 H414 H 0.76869 1.15556 -0.14762
 H415 H 0.71887 1.10385 -0.09914
 H416 H 0.58516 1.17509 -0.14298
 C417 C 1.16235 0.65957 0.30909
 C418 C 1.20324 0.68888 0.32283
 C419 C 1.21390 0.68929 0.36584
 C420 C 1.18322 0.66286 0.39404
 C421 C 1.14132 0.63610 0.37953
 C422 C 1.13172 0.63466 0.33682
 H423 H 1.15254 0.65618 0.27643
 H424 H 1.24562 0.70967 0.37768
 H425 H 1.19196 0.66361 0.42706
 H426 H 1.10065 0.61346 0.32442
 C427 C 0.27814 0.83891 -0.14107
 C428 C 0.30224 0.80437 -0.16758
 C429 C 0.35440 0.79931 -0.16396
 C430 C 0.38176 0.82984 -0.13731
 C431 C 0.35812 0.86581 -0.11257
 C432 C 0.30591 0.86911 -0.11338
 H433 H 0.23833 0.84404 -0.14293
 H434 H 0.37512 0.77299 -0.18305
 H435 H 0.42181 0.82603 -0.13675
 H436 H 0.28690 0.89677 -0.09426
 C437 C 0.85279 0.29565 0.33776
 C438 C 0.80077 0.30129 0.33322
 C439 C 0.77654 0.33667 0.35886
 C440 C 0.80408 0.36719 0.38643
 C441 C 0.85624 0.36350 0.38793
 C442 C 0.87999 0.32666 0.36419
 H443 H 0.87360 0.26881 0.31926
 H444 H 0.73686 0.34234 0.35625
 H445 H 0.78498 0.39551 0.40482
 H446 H 0.92000 0.32258 0.36534
 C447 C 1.15656 0.27646 0.14818
 C448 C 1.19330 0.29970 0.17300
 C449 C 1.20069 0.35217 0.16776
 C450 C 1.17378 0.37989 0.13889
 C451 C 1.13686 0.35711 0.11504
 C452 C 1.12822 0.30509 0.11962
 H453 H 1.14868 0.23675 0.15179
 H454 H 1.22701 0.37295 0.18658
 H455 H 1.18062 0.41998 0.13631
 H456 H 1.09926 0.28690 0.10162
 C457 C 0.70281 0.80014 0.63253
 C458 C 0.68541 0.79285 0.67372
 C459 C 0.63798 0.81257 0.68354
 C460 C 0.61164 0.84229 0.65552
 C461 C 0.63128 0.85428 0.61632
 C462 C 0.67652 0.83147 0.60438
 H463 H 0.73852 0.78517 0.62320
 H464 H 0.62138 0.80775 0.71402
 H465 H 0.57653 0.85800 0.66569
 H466 H 0.69244 0.83927 0.57402
 C467 C 1.16023 0.72640 -0.14622
 C468 C 1.20021 0.70411 -0.16793
 C469 C 1.20911 0.65221 -0.16118
 C470 C 1.18048 0.62415 -0.13368
 C471 C 1.14023 0.64592 -0.11317
 C472 C 1.13014 0.69736 -0.11930
 H473 H 1.15100 0.76556 -0.15132
 H474 H 1.23740 0.63194 -0.17828
 H475 H 1.18853 0.58445 -0.12983
 H476 H 1.09876 0.71477 -0.10379
 C477 C 0.65827 1.22333 0.35163
 C478 C 0.69820 1.20108 0.32978
 C479 C 0.70635 1.14891 0.33580
 C480 C 0.67709 1.12057 0.36278
 C481 C 0.63701 1.14239 0.38358
 C482 C 0.62767 1.19411 0.37807
 H483 H 0.64961 1.26273 0.34714
 H484 H 0.73474 1.12879 0.31868
 H485 H 0.68474 1.08073 0.36621
 H486 H 0.59659 1.21169 0.39386
 C487 C 0.84274 0.72512 0.14602
 C488 C 0.80317 0.70174 0.16736
 C489 C 0.79570 0.64961 0.16011
 C490 C 0.82512 0.62242 0.13241
 C491 C 0.86485 0.64530 0.11214
 C492 C 0.87367 0.69696 0.11889
 H493 H 0.85092 0.76450 0.15148
 H494 H 0.76773 0.62855 0.17680
 H495 H 0.81803 0.58255 0.12816
 H496 H 0.90465 0.71527 0.10363
 C497 C 0.28972 1.15758 0.65377
 C498 C 0.30035 1.20828 0.66473
 C499 C 0.34420 1.22924 0.64787
 C500 C 0.37588 1.20020 0.62181
 C501 C 0.36361 1.15011 0.61132
 C502 C 0.31966 1.12993 0.62680
 H503 H 0.25966 1.13699 0.66795
 H504 H 0.35532 1.26702 0.65657
 H505 H 0.41005 1.21657 0.61032
 H506 H 0.30977 1.09120 0.61994
 C507 C 0.85032 0.27539 -0.15116
 C508 C 0.80916 0.29705 -0.17158
 C509 C 0.79920 0.34855 -0.16324
 C510 C 0.82757 0.37658 -0.13526
 C511 C 0.86880 0.35542 -0.11585
 C512 C 0.88021 0.30450 -0.12385
 H513 H 0.86050 0.23669 -0.15749
 H514 H 0.76998 0.36852 -0.17930
 H515 H 0.81847 0.41587 -0.13017
 H516 H 0.91239 0.28750 -0.10936
 C517 C 0.28823 0.80495 0.36961
 C518 C 0.31068 0.78501 0.33327
 C519 C 0.36261 0.79208 0.32930
 C520 C 0.38883 0.82416 0.35609
 C521 C 0.36480 0.84938 0.38886
 C522 C 0.31472 0.83733 0.39676
 H523 H 0.24949 0.79807 0.37605
 H524 H 0.38325 0.77557 0.30371
 H525 H 0.42782 0.83086 0.34993
 H526 H 0.29532 0.85484 0.42265
 C527 C 1.14872 1.14579 0.29915
 C528 C 1.18177 1.18276 0.31337
 C529 C 1.18825 1.18896 0.35704
 C530 C 1.16439 1.15798 0.38541
 C531 C 1.13199 1.12111 0.37110
 C532 C 1.12361 1.11549 0.32787
 H533 H 1.14255 1.13997 0.26605
 H534 H 1.21318 1.21684 0.36987
 H535 H 1.17082 1.16328 0.41856
 H536 H 1.09826 1.08705 0.31627
 C537 C 0.69412 0.67888 -0.14494
 C538 C 0.68741 0.67438 -0.18868
 C539 C 0.65339 0.63863 -0.20361
 C540 C 0.62715 0.60832 -0.17547
 C541 C 0.63537 0.61268 -0.13214
 C542 C 0.66928 0.64783 -0.11722
 H543 H 0.71893 0.70641 -0.13145
 H544 H 0.64671 0.63439 -0.23680
 H545 H 0.60070 0.58123 -0.18755
 H546 H 0.67561 0.65231 -0.08398
 C547 C 0.81075 1.19232 0.64170
 C548 C 0.81803 1.18432 0.68509
 C549 C 0.85022 1.14605 0.69773
 C550 C 0.87397 1.11640 0.66776
 C551 C 0.86506 1.12406 0.62487
 C552 C 0.83330 1.16196 0.61203
 H553 H 0.78596 1.22093 0.63006
 H554 H 0.85672 1.13868 0.73053
 H555 H 0.89894 1.08703 0.67812
 H556 H 0.82665 1.16871 0.57913
 C557 C 0.31421 0.69910 0.14091
 C558 C 0.31998 0.68885 0.18409
 C559 C 0.35256 0.65068 0.19628
 C560 C 0.37764 0.62277 0.16602
 C561 C 0.36971 0.63208 0.12327
 C562 C 0.33806 0.67033 0.11085
 H563 H 0.28920 0.72780 0.12974
 H564 H 0.35815 0.64184 0.22895
 H565 H 0.40250 0.59311 0.17601
 H566 H 0.33213 0.67822 0.07804
 C567 C 1.19708 0.81236 0.64755
 C568 C 1.18885 0.81918 0.69098
 C569 C 1.15268 0.85373 0.70390
 C570 C 1.12588 0.88071 0.67401
 C571 C 1.13587 0.87409 0.63111
 C572 C 1.17174 0.84014 0.61818
 H573 H 1.22362 0.78558 0.63547
 H574 H 1.14496 0.85967 0.73676
 H575 H 1.09774 0.90707 0.68437
 H576 H 1.17928 0.83406 0.58527
 C577 C 0.69868 0.31449 0.14714
 C578 C 0.68978 0.31965 0.19060
 C579 C 0.65164 0.35189 0.20378
 C580 C 0.62352 0.37810 0.17418
 C581 C 0.63384 0.37296 0.13118
 C582 C 0.67176 0.34133 0.11804
 H583 H 0.72629 0.28903 0.13481
 H584 H 0.64318 0.35640 0.23666
 H585 H 0.59402 0.40268 0.18488
 H586 H 0.67986 0.33633 0.08511
 C587 C 0.79939 0.80808 0.35327
 C588 C 0.80854 0.81526 0.31003
 C589 C 0.84506 0.84971 0.29799
 C590 C 0.87163 0.87598 0.32851
 C591 C 0.86109 0.86876 0.37120
 C592 C 0.82455 0.83526 0.38333
 H593 H 0.77258 0.78121 0.36462
 H594 H 0.85346 0.85591 0.26531
 H595 H 0.90025 0.90210 0.31880
 H596 H 0.81663 0.82881 0.41609
 C597 C 0.29078 0.36210 -0.17462
 C598 C 0.30929 0.31615 -0.19037
 C599 C 0.35354 0.29679 -0.17371
 C600 C 0.37627 0.32027 -0.13989
 C601 C 0.35536 0.36352 -0.12207
 C602 C 0.31306 0.38501 -0.14000
 H603 H 0.25739 0.37880 -0.18729
 H604 H 0.37033 0.26297 -0.18616
 H605 H 0.41053 0.30480 -0.12768
 H606 H 0.29808 0.42000 -0.12793
 C607 C 1.13696 0.29148 -0.17172
 C608 C 1.18866 0.28313 -0.16755
 C609 C 1.21124 0.30174 -0.13082
 C610 C 1.18533 0.33441 -0.10351
 C611 C 1.13568 0.34787 -0.11162
 C612 C 1.11129 0.32370 -0.14471
 H613 H 1.11617 0.27600 -0.19765
 H614 H 1.24984 0.29401 -0.12443
 H615 H 1.20495 0.35113 -0.07739
 H616 H 1.07255 0.33148 -0.15102
 C617 C 0.65157 0.77322 0.34972
 C618 C 0.68981 0.79615 0.32644
 C619 C 0.69772 0.84844 0.33284
 C620 C 0.67015 0.87613 0.36154
 C621 C 0.63189 0.85365 0.38398
 C622 C 0.62251 0.80189 0.37803
 H623 H 0.64318 0.73373 0.34514
 H624 H 0.72509 0.86910 0.31512
 H625 H 0.67762 0.91602 0.36510
 H626 H 0.59253 0.78389 0.39487
 C627 C 0.84183 0.72567 -0.14462
 C628 C 0.80506 0.70194 -0.16912
 C629 C 0.80064 0.64888 -0.16562
 C630 C 0.83043 0.62104 -0.13884
 C631 C 0.86722 0.64437 -0.11520
 C632 C 0.87281 0.69705 -0.11794
 H633 H 0.84757 0.76589 -0.14697
 H634 H 0.77463 0.62771 -0.18444
 H635 H 0.82557 0.58056 -0.13748
 H636 H 0.90132 0.71586 -0.09987
 C637 C 0.29266 1.15154 0.33977
 C638 C 0.30103 1.20354 0.33302
 C639 C 0.34132 1.22603 0.35416
 C640 C 0.37220 1.19711 0.38050
 C641 C 0.36271 1.14553 0.38653
 C642 C 0.32215 1.12356 0.36663
 H643 H 0.26421 1.13110 0.32303
 H644 H 0.35019 1.26528 0.34903
 H645 H 0.40369 1.21474 0.39566
 H646 H 0.31444 1.08379 0.37051
 C647 C 1.15618 0.72907 0.14830
 C648 C 1.20004 0.70872 0.16553
 C649 C 1.21161 0.65822 0.15455
 C650 C 1.18264 0.63027 0.12712
 C651 C 1.13868 0.64984 0.11125
 C652 C 1.12539 0.69964 0.12183
 H653 H 1.14436 0.76663 0.15700
 H654 H 1.24181 0.63808 0.16893
 H655 H 1.19321 0.59173 0.12026
 H656 H 1.09110 0.71544 0.11011
 C657 C 0.65893 1.22584 0.64647
 C658 C 0.69922 1.20326 0.66738
 C659 C 0.70836 1.15161 0.65911
 C660 C 0.68001 1.12427 0.63071
 C661 C 0.63948 1.14630 0.61094
 C662 C 0.62890 1.19739 0.61886
 H663 H 0.64938 1.26472 0.65276
 H664 H 0.73674 1.13096 0.67560
 H665 H 0.68831 1.08476 0.62577
 H666 H 0.59716 1.21499 0.60418
 C667 C 0.84677 0.27809 0.14834
 C668 C 0.80942 0.30122 0.17261
 C669 C 0.80212 0.35367 0.16732
 C670 C 0.82992 0.38152 0.13892
 C671 C 0.86743 0.35877 0.11555
 C672 C 0.87581 0.30674 0.12024
 H673 H 0.85451 0.23835 0.15194
 H674 H 0.77511 0.37416 0.18571
 H675 H 0.82315 0.42159 0.13621
 H676 H 0.90510 0.28849 0.10264
 C677 C 0.29929 0.85320 0.66615
 C678 C 0.30763 0.80103 0.67216
 C679 C 0.34624 0.77841 0.64898
 C680 C 0.37541 0.80732 0.62122
 C681 C 0.36583 0.85902 0.61580
 C682 C 0.32707 0.88118 0.63798
 H683 H 0.27167 0.87355 0.68397
 H684 H 0.35494 0.73899 0.65334
 H685 H 0.40568 0.78959 0.60444
 H686 H 0.31940 0.92103 0.63467
 C687 C 0.28543 1.18708 -0.13528
 C688 C 0.29804 1.18942 -0.17788
 C689 C 0.34096 1.16291 -0.19119
 C690 C 0.37139 1.13795 -0.16335
 C691 C 0.35971 1.13652 -0.12100
 C692 C 0.31604 1.16070 -0.10700
 H693 H 0.25211 1.20509 -0.12386
 H694 H 0.35232 1.16146 -0.22359
 H695 H 0.40395 1.11888 -0.17545
 H696 H 0.30566 1.15923 -0.07434
 C697 C 0.84670 0.70319 0.33080
 C698 C 0.79461 0.69654 0.32703
 C699 C 0.77161 0.66106 0.35312
 C700 C 0.80034 0.63195 0.38075
 C701 C 0.85244 0.63709 0.38172
 C702 C 0.87501 0.67353 0.35714
 H703 H 0.86679 0.73031 0.31220
 H704 H 0.73198 0.65464 0.35116
 H705 H 0.78219 0.60391 0.39991
 H706 H 0.91490 0.67879 0.35796
 C707 C 0.65416 1.20809 0.16576
 C708 C 0.70619 1.20143 0.16973
 C709 C 0.72934 1.16596 0.14349
 C710 C 0.70076 1.13660 0.11571
 C711 C 0.64867 1.14164 0.11464
 C712 C 0.62603 1.17840 0.13911
 H713 H 0.63394 1.23490 0.18473
 H714 H 0.76893 1.15943 0.14567
 H715 H 0.71898 1.10825 0.09675
 H716 H 0.58612 1.18351 0.13835
 C717 C 1.15100 0.70714 0.66967
 C718 C 1.20323 0.70068 0.67225
 C719 C 1.22548 0.66569 0.64503
 C720 C 1.19598 0.63695 0.61744
 C721 C 1.14382 0.64198 0.61751
 C722 C 1.12197 0.67793 0.64328
 H723 H 1.13138 0.73382 0.68920
 H724 H 1.26517 0.65937 0.64604
 H725 H 1.21364 0.60926 0.59745
 H726 H 1.08207 0.68312 0.64342
 C727 C 0.64384 0.78922 -0.16115
 C728 C 0.69598 0.79460 -0.16439
 C729 C 0.71973 0.82882 -0.13742
 C730 C 0.69168 0.85937 -0.11040
 C731 C 0.63947 0.85694 -0.11063
 C732 C 0.61600 0.82061 -0.13524
 H733 H 0.62371 0.76271 -0.18050
 H734 H 0.75957 0.83399 -0.13880
 H735 H 0.71063 0.88701 -0.09122
 H736 H 0.57590 0.81734 -0.13524
 C737 C 1.22095 0.33831 0.35960
 C738 C 1.19736 0.30300 0.33347
 C739 C 1.14519 0.29762 0.33698
 C740 C 1.11733 0.32867 0.36300
 C741 C 1.14052 0.36529 0.38740
 C742 C 1.19274 0.36883 0.38676
 H743 H 1.26073 0.34378 0.35783
 H744 H 1.12486 0.27072 0.31817
 H745 H 1.07730 0.32462 0.36345
 H746 H 1.21146 0.39692 0.40564
 C747 C 0.27976 0.84171 0.14495
 C748 C 0.30427 0.80904 0.17253
 C749 C 0.35673 0.80635 0.17054
 C750 C 0.38378 0.83723 0.14418
 C751 C 0.35960 0.87104 0.11803
 C752 C 0.30730 0.87221 0.11753
 H753 H 0.23967 0.84466 0.14537
 H754 H 0.37782 0.78106 0.19009
 H755 H 0.42396 0.83497 0.14456
 H756 H 0.28789 0.89814 0.09725
 C757 C 0.77690 0.34040 0.64425
 C758 C 0.80119 0.30457 0.66908
 C759 C 0.85339 0.29973 0.66500
 C760 C 0.88062 0.33183 0.63978
 C761 C 0.85670 0.36881 0.61668
 C762 C 0.80449 0.37193 0.61774
 H763 H 0.73709 0.34539 0.64650
 H764 H 0.87423 0.27235 0.68273
 H765 H 0.92068 0.32814 0.63875
 H766 H 0.78534 0.40031 0.59967
 C767 C 1.18513 1.19494 0.64089
 C768 C 1.18032 1.18523 0.68421
 C769 C 1.14841 1.14678 0.69723
 C770 C 1.12300 1.11811 0.66765
 C771 C 1.12994 1.12687 0.62471
 C772 C 1.16099 1.16537 0.61147
 H773 H 1.20950 1.22392 0.62916
 H774 H 1.14349 1.13837 0.73006
 H775 H 1.09865 1.08834 0.67831
 H776 H 1.16615 1.17289 0.57850
 C777 C 0.69269 0.68796 0.14042
 C778 C 0.68472 0.68037 0.18380
 C779 C 0.65264 0.64191 0.19632
 C780 C 0.62915 0.61216 0.16625
 C781 C 0.63824 0.61984 0.12338
 C782 C 0.67045 0.65746 0.11066
 H783 H 0.71729 0.71682 0.12886
 H784 H 0.64567 0.63480 0.22911
 H785 H 0.60377 0.58305 0.17648
 H786 H 0.67714 0.66432 0.07778
 C787 C 1.14415 0.79464 0.32675
 C788 C 1.18820 0.81511 0.31049
 C789 C 1.20505 0.86185 0.32584
 C790 C 1.18142 0.88458 0.35982
 C791 C 1.13931 0.86219 0.37734
 C792 C 1.11987 0.81812 0.35982
 H793 H 1.12870 0.76002 0.31455
 H794 H 1.23817 0.87939 0.31341
 H795 H 1.19528 0.92011 0.37179
 H796 H 1.08584 0.80188 0.37183
 C797 C 0.69763 0.30622 -0.14539
 C798 C 0.68879 0.31362 -0.18862
 C799 C 0.65052 0.34602 -0.20068
 C800 C 0.62219 0.37039 -0.17019
 C801 C 0.63255 0.36323 -0.12747
 C802 C 0.67055 0.33145 -0.11532
 H803 H 0.72564 0.28063 -0.13409
 H804 H 0.64220 0.35216 -0.23337
 H805 H 0.59258 0.39527 -0.17996
 H806 H 0.67852 0.32516 -0.08256
 C807 C 0.81035 1.18670 0.35515
 C808 C 0.81816 1.18177 0.31154
 C809 C 0.85279 1.14624 0.29738
 C810 C 0.87819 1.11615 0.32609
 C811 C 0.86856 1.12054 0.36923
 C812 C 0.83452 1.15595 0.38346
 H813 H 0.78448 1.21367 0.36799
 H814 H 0.86009 1.14149 0.26432
 H815 H 0.90475 1.08883 0.31453
 H816 H 0.82706 1.16034 0.41656
 C817 C 0.35308 0.64836 -0.20217
 C818 C 0.31945 0.68478 -0.18792
 C819 C 0.31283 0.69097 -0.14428
 C820 C 0.33698 0.66039 -0.11596
 C821 C 0.36970 0.62386 -0.13029
 C822 C 0.37843 0.61837 -0.17346
 H823 H 0.35940 0.64265 -0.23527
 H824 H 0.28750 0.71843 -0.13140
 H825 H 0.33026 0.66552 -0.08282
 H826 H 0.40402 0.59012 -0.18503
 C827 C 0.78205 0.86526 0.67221
 C828 C 0.80623 0.83061 0.69845
 C829 C 0.85813 0.82741 0.69617
 C830 C 0.88372 0.85033 0.66363
 C831 C 0.85821 0.87843 0.63342
 C832 C 0.80742 0.88753 0.63883
 H833 H 0.74315 0.87378 0.67637
 H834 H 0.87908 0.80569 0.71857
 H835 H 0.92355 0.84518 0.66164
 H836 H 0.78761 0.91212 0.61769
 C837 C 0.34421 0.35665 0.20507
 C838 C 0.31071 0.31947 0.19207
 C839 C 0.30317 0.31220 0.14858
 C840 C 0.32650 0.34200 0.11927
 C841 C 0.35973 0.37857 0.13231
 C842 C 0.36908 0.38567 0.17526
 H843 H 0.35117 0.36326 0.23795
 H844 H 0.27817 0.28399 0.13644
 H845 H 0.31956 0.33548 0.08633
 H846 H 0.39530 0.41395 0.18572
   
