data_POSCAR
  _audit_creation_date              2014-09-24
  _audit_creation_method            'ToBaCCo'
  _symmetry_space_group_name_H-M    'P1'
  _symmetry_Int_Tables_number       1
  _symmetry_cell_setting            triclinic
  loop_
  _symmetry_equiv_pos_as_xyz
 x,y,z
_cell_length_a 48.9220
_cell_length_b 28.3573
_cell_length_c 21.6255
_cell_angle_alpha 89.994200
_cell_angle_beta 89.859400
_cell_angle_gamma 89.876700
loop_
  _atom_site_label
  _atom_site_type_symbol
  _atom_site_fract_x
  _atom_site_fract_y
  _atom_site_fract_z
C1 C 0.68588 0.31284 0.49925
 C2 C 0.69797 0.30007 0.55509
 C3 C 0.72266 0.27489 0.55523
 C4 C 0.73601 0.26222 0.49914
 C5 C 0.72312 0.27604 0.44319
 C6 C 0.69833 0.30079 0.44347
 C7 C 0.76280 0.23492 0.49897
 C8 C 0.77571 0.22091 0.44287
 C9 C 0.80044 0.19583 0.44309
 C10 C 0.81274 0.18378 0.49893
 C11 C 0.80065 0.19686 0.55465
 C12 C 0.77609 0.22228 0.55495
 H13 H 0.66666 0.33206 0.49907
 H14 H 0.73080 0.26561 0.59982
 H15 H 0.73167 0.26814 0.39848
 H16 H 0.76715 0.22887 0.39825
 H17 H 0.83186 0.16425 0.49914
 H18 H 0.76805 0.23164 0.59964
 C19 C 0.18616 0.81295 0.50189
 C20 C 0.19732 0.79745 0.55759
 C21 C 0.22165 0.77129 0.55762
 C22 C 0.23611 0.76219 0.50190
 C23 C 0.22454 0.77950 0.44618
 C24 C 0.19948 0.80348 0.44624
 C25 C 0.26274 0.73487 0.50189
 C26 C 0.27430 0.71740 0.44615
 C27 C 0.29924 0.69310 0.44617
 C28 C 0.31249 0.68361 0.50172
 C29 C 0.30138 0.69930 0.55745
 C30 C 0.27712 0.72573 0.55759
 H31 H 0.16698 0.83230 0.50171
 H32 H 0.22872 0.75813 0.60158
 H33 H 0.23454 0.77499 0.40209
 H34 H 0.26437 0.72193 0.40210
 H35 H 0.33159 0.66402 0.50142
 H36 H 0.27006 0.73898 0.60158
 C37 C 0.31191 0.31564 -0.49995
 C38 C 0.30077 0.30000 -0.55545
 C39 C 0.27652 0.27384 -0.55530
 C40 C 0.26214 0.26483 -0.49942
 C41 C 0.27371 0.28226 -0.44384
 C42 C 0.29867 0.30633 -0.44422
 C43 C 0.23551 0.23772 -0.49914
 C44 C 0.22394 0.22042 -0.44332
 C45 C 0.19885 0.19658 -0.44320
 C46 C 0.18557 0.18731 -0.49886
 C47 C 0.19678 0.20283 -0.55452
 C48 C 0.22108 0.22879 -0.55472
 H49 H 0.33101 0.33503 -0.50011
 H50 H 0.26950 0.26073 -0.59926
 H51 H 0.26377 0.27786 -0.39967
 H52 H 0.23401 0.22484 -0.39940
 H53 H 0.16640 0.16810 -0.49897
 H54 H 0.22811 0.24186 -0.59877
 C55 C -0.18720 0.81713 -0.50126
 C56 C -0.19889 0.80364 -0.55716
 C57 C -0.22333 0.77795 -0.55759
 C58 C -0.23698 0.76598 -0.50167
 C59 C -0.22454 0.78067 -0.44555
 C60 C -0.19983 0.80550 -0.44561
 C61 C -0.26366 0.73865 -0.50189
 C62 C -0.27635 0.72393 -0.44599
 C63 C -0.30114 0.69933 -0.44635
 C64 C -0.31360 0.68795 -0.50218
 C65 C -0.30164 0.70146 -0.55789
 C66 C -0.27711 0.72686 -0.55797
 H67 H -0.16813 0.83665 -0.50093
 H68 H -0.23104 0.76771 -0.60219
 H69 H -0.23345 0.77352 -0.40099
 H70 H -0.26761 0.73094 -0.40132
 H71 H -0.33275 0.66870 -0.50226
 H72 H -0.26925 0.73703 -0.60253
 O73 O -0.03775 0.91999 0.11472
 O74 O -0.06796 0.96141 0.05409
 C75 C -0.06226 0.93218 0.09832
 O76 O 0.03865 1.08538 0.10874
 O77 O 0.06901 1.04058 0.05250
 C78 C 0.06319 1.07260 0.09327
 O79 O -0.03803 1.08110 0.11358
 O80 O -0.06807 1.03871 0.05403
 C81 C -0.06249 1.06842 0.09769
 O82 O 0.03882 0.91484 0.10926
 O83 O 0.06907 0.95941 0.05264
 C84 C 0.06335 0.92763 0.09377
 Zr85 Zr 0.00057 0.93993 0.07730
 O86 O 0.00128 0.93247 0.17455
 O87 O -0.00038 0.86594 0.06627
 Zr88 Zr 0.00043 1.05969 0.07790
 O89 O 0.00284 1.06093 0.17562
 O90 O -0.00266 1.13416 0.07557
 O91 O -0.02362 0.99983 0.08997
 O92 O 0.02408 0.99982 0.08917
 O93 O 0.03908 0.91441 -0.10848
 O94 O 0.06923 0.95948 -0.05259
 C95 C 0.06357 0.92733 -0.09319
 O96 O -0.03775 1.08091 -0.11392
 O97 O -0.06795 1.03886 -0.05398
 C98 C -0.06225 1.06846 -0.09778
 O99 O 0.03890 1.08536 -0.10913
 O100 O 0.06908 1.04069 -0.05256
 C101 C 0.06341 1.07253 -0.09360
 O102 O -0.03761 0.91918 -0.11409
 O103 O -0.06787 0.96147 -0.05432
 C104 C -0.06214 0.93185 -0.09813
 Zr105 Zr 0.00071 0.94018 -0.07791
 O106 O 0.00371 0.93795 -0.17551
 O107 O -0.00202 0.86571 -0.07450
 Zr108 Zr 0.00062 1.05989 -0.07781
 O109 O 0.00355 1.06248 -0.17539
 O110 O -0.00257 1.13433 -0.07404
 Zr111 Zr -0.04002 1.00003 -0.00009
 Zr112 Zr 0.04141 1.00001 -0.00002
 O113 O 0.02426 1.00001 -0.08929
 O114 O -0.02349 1.00008 -0.09021
 O115 O 0.02532 0.93107 -0.00023
 O116 O -0.02339 1.06836 0.00005
 O117 O -0.02342 0.93159 -0.00020
 O118 O 0.02511 1.06894 0.00007
 H119 H 0.03615 0.99992 0.12586
 H120 H -0.03603 1.09570 0.00006
 H121 H 0.03633 0.99996 -0.12613
 H122 H -0.03612 0.90439 -0.00014
 H123 H 0.01343 1.14620 0.05280
 H124 H 0.01409 1.14639 -0.05367
 H125 H -0.00987 1.03979 -0.19202
 H126 H -0.01006 0.96011 -0.19211
 H127 H 0.01342 0.85415 -0.04914
 H128 H -0.00118 0.85262 0.10858
 H129 H 0.00409 0.96430 0.19184
 H130 H -0.01162 1.03984 0.19172
 O131 O 0.46225 0.41942 0.11320
 O132 O 0.43192 0.46105 0.05311
 C133 C 0.43770 0.43164 0.09711
 O134 O 0.53865 0.58484 0.10772
 O135 O 0.56894 0.54038 0.05082
 C136 C 0.56319 0.57218 0.09192
 O137 O 0.46192 0.58047 0.11307
 O138 O 0.43182 0.53837 0.05332
 C139 C 0.43745 0.56787 0.09719
 O140 O 0.53873 0.41423 0.10700
 O141 O 0.56890 0.45896 0.05046
 C142 C 0.56322 0.42699 0.09132
 Zr143 Zr 0.50049 0.43955 0.07557
 O144 O 0.50143 0.43171 0.17275
 O145 O 0.49949 0.36559 0.06408
 Zr146 Zr 0.50036 0.55930 0.07698
 O147 O 0.50287 0.56045 0.17468
 O148 O 0.49728 0.63377 0.07496
 O149 O 0.47632 0.49938 0.08882
 O150 O 0.52404 0.49940 0.08769
 O151 O 0.53882 0.41480 -0.11074
 O152 O 0.56900 0.45965 -0.05464
 C153 C 0.56332 0.42770 -0.09548
 O154 O 0.46191 0.58123 -0.11453
 O155 O 0.43177 0.53886 -0.05482
 C156 C 0.43742 0.56868 -0.09844
 O157 O 0.53858 0.58571 -0.10989
 O158 O 0.56884 0.54082 -0.05387
 C159 C 0.56310 0.57286 -0.09454
 O160 O 0.46208 0.41944 -0.11561
 O161 O 0.43190 0.46145 -0.05529
 C162 C 0.43758 0.43200 -0.09931
 Zr163 Zr 0.50046 0.44040 -0.07967
 O164 O 0.50330 0.43863 -0.17732
 O165 O 0.49781 0.36591 -0.07682
 Zr166 Zr 0.50032 0.56007 -0.07873
 O167 O 0.50318 0.56297 -0.17630
 O168 O 0.49715 0.63450 -0.07460
 Zr169 Zr 0.45979 0.49990 -0.00116
 Zr170 Zr 0.54125 0.49994 -0.00161
 O171 O 0.52398 0.50029 -0.09077
 O172 O 0.47620 0.50030 -0.09138
 O173 O 0.52515 0.43100 -0.00219
 O174 O 0.47642 0.56824 -0.00066
 O175 O 0.47642 0.43148 -0.00184
 O176 O 0.52491 0.56885 -0.00096
 H177 H 0.53618 0.49935 0.12428
 H178 H 0.46376 0.59557 -0.00042
 H179 H 0.53602 0.50042 -0.12767
 H180 H 0.46374 0.40426 -0.00184
 H181 H 0.51347 0.64589 0.05261
 H182 H 0.51379 0.64649 -0.05409
 H183 H 0.48975 0.54032 -0.19300
 H184 H 0.48936 0.46060 -0.19368
 H185 H 0.51326 0.35431 -0.05151
 H186 H 0.49886 0.35209 0.10630
 H187 H 0.50402 0.46354 0.19023
 H188 H 0.48853 0.53913 0.19081
 C189 C 0.34304 0.34070 0.29114
 N190 N 0.34093 0.38619 0.27229
 N191 N 0.35792 0.40329 0.22961
 C192 C 0.37758 0.37541 0.20448
 N193 N 0.37961 0.32985 0.22309
 N194 N 0.36261 0.31276 0.26579
 C195 C 0.32696 0.32414 0.34227
 C196 C 0.31447 0.31196 0.38766
 C197 C 0.39773 0.39506 0.16365
 C198 C 0.41554 0.41175 0.13188
 C199 C -0.15762 0.84394 0.29227
 N200 N -0.15931 0.88942 0.27318
 N201 N -0.14217 0.90585 0.23036
 C202 C -0.12280 0.87731 0.20536
 N203 N -0.12121 0.83177 0.22420
 N204 N -0.13834 0.81534 0.26703
 C205 C -0.17374 0.82801 0.34360
 C206 C -0.18613 0.81587 0.38913
 C207 C -0.10244 0.89629 0.16462
 C208 C -0.08449 0.91256 0.13297
 C209 C 0.65703 0.66180 0.28721
 N210 N 0.65978 0.61718 0.26543
 N211 N 0.64307 0.60107 0.22171
 C212 C 0.62309 0.62910 0.19837
 N213 N 0.62043 0.67379 0.21993
 N214 N 0.63714 0.68990 0.26366
 C215 C 0.67284 0.67719 0.33923
 C216 C 0.68505 0.68895 0.38508
 C217 C 0.60309 0.61002 0.15692
 C218 C 0.58534 0.59319 0.12529
 C219 C 0.15561 1.16391 0.29012
 N220 N 0.15880 1.11935 0.26845
 N221 N 0.14251 1.10292 0.22414
 C222 C 0.12255 1.13059 0.20005
 N223 N 0.11946 1.17524 0.22148
 N224 N 0.13575 1.19167 0.26581
 C225 C 0.17105 1.17957 0.34254
 C226 C 0.18318 1.19116 0.38853
 C227 C 0.10285 1.11103 0.15833
 C228 C 0.08526 1.09385 0.12661
 C229 C 0.65735 0.33900 -0.29236
 N230 N 0.63758 0.31075 -0.26871
 N231 N 0.62089 0.32659 -0.22454
 C232 C 0.62345 0.37117 -0.20261
 N233 N 0.64332 0.39934 -0.22601
 N234 N 0.66002 0.38349 -0.27018
 C235 C 0.67314 0.32389 -0.34480
 C236 C 0.68532 0.31220 -0.39090
 C237 C 0.60336 0.39008 -0.16093
 C238 C 0.58553 0.40678 -0.12914
 C239 C 0.15669 0.83580 -0.28978
 N240 N 0.13680 0.80811 -0.26551
 N241 N 0.12036 0.82460 -0.22126
 C242 C 0.12331 0.86926 -0.19987
 N243 N 0.14330 0.89686 -0.22390
 N244 N 0.15974 0.88037 -0.26814
 C245 C 0.17222 0.82014 -0.34228
 C246 C 0.18438 0.80859 -0.38844
 C247 C 0.10346 0.88888 -0.15821
 C248 C 0.08576 0.90608 -0.12653
 C249 C 0.34270 0.65931 -0.29209
 N250 N 0.36186 0.68753 -0.26615
 N251 N 0.37881 0.67057 -0.22337
 C252 C 0.37716 0.62485 -0.20527
 N253 N 0.35792 0.59669 -0.23101
 N254 N 0.34096 0.61366 -0.27376
 C255 C 0.32672 0.67580 -0.34332
 C256 C 0.31432 0.68789 -0.38881
 C257 C 0.39734 0.60534 -0.16445
 C258 C 0.41518 0.58867 -0.13282
 C259 C -0.15760 1.15611 -0.29166
 N260 N -0.13848 1.18488 -0.26664
 N261 N -0.12135 1.16868 -0.22375
 C262 C -0.12280 1.12320 -0.20462
 N263 N -0.14202 1.09450 -0.22939
 N264 N -0.15915 1.11071 -0.27228
 C265 C -0.17371 1.17181 -0.34302
 C266 C -0.18605 1.18389 -0.38851
 C267 C -0.10243 1.10443 -0.16386
 C268 C -0.08448 1.08821 -0.13225
 C269 C 0.65750 0.65986 -0.29101
 N270 N 0.66001 0.61543 -0.26848
 N271 N 0.64320 0.60006 -0.22431
 C272 C 0.62339 0.62867 -0.20128
 N273 N 0.62098 0.67318 -0.22357
 N274 N 0.63779 0.68855 -0.26773
 C275 C 0.67341 0.67450 -0.34339
 C276 C 0.68563 0.68611 -0.38938
 C277 C 0.60318 0.61023 -0.15970
 C278 C 0.58530 0.59376 -0.12803
 C279 C 0.15847 1.15753 -0.29053
 N280 N 0.16073 1.11320 -0.26753
 N281 N 0.14375 1.09831 -0.22339
 C282 C 0.12399 1.12727 -0.20085
 N283 N 0.12184 1.17169 -0.22361
 N284 N 0.13882 1.18659 -0.26774
 C285 C 0.17451 1.17174 -0.34298
 C286 C 0.18665 1.18340 -0.38912
 C287 C 0.10363 1.10932 -0.15917
 C288 C 0.08566 1.09316 -0.12735
 C289 C 0.34061 0.34779 -0.29136
 N290 N 0.33943 0.39300 -0.27111
 N291 N 0.35702 0.40839 -0.22873
 C292 C 0.37635 0.37904 -0.20540
 N293 N 0.37744 0.33376 -0.22541
 N294 N 0.35985 0.31838 -0.26778
 C295 C 0.32404 0.33286 -0.34231
 C296 C 0.31158 0.32068 -0.38755
 C297 C 0.39711 0.39696 -0.16510
 C298 C 0.41528 0.41263 -0.13375
 C299 C -0.15806 0.84627 -0.29201
 N300 N -0.15928 0.89172 -0.27263
 N301 N -0.14198 0.90747 -0.22989
 C302 C -0.12289 0.87827 -0.20527
 N303 N -0.12177 0.83276 -0.22441
 N304 N -0.13907 0.81701 -0.26715
 C305 C -0.17437 0.83095 -0.34325
 C306 C -0.18675 0.81891 -0.38869
 C307 C -0.10238 0.89652 -0.16450
 C308 C -0.08436 0.91238 -0.13281
 C309 C 0.34093 0.65156 0.29234
 N310 N 0.35967 0.68126 0.26746
 N311 N 0.37712 0.66598 0.22447
 C312 C 0.37639 0.62052 0.20510
 N313 N 0.35757 0.59088 0.22977
 N314 N 0.34011 0.60616 0.27276
 C315 C 0.32448 0.66650 0.34375
 C316 C 0.31210 0.67871 0.38927
 C317 C 0.39705 0.60278 0.16403
 C318 C 0.41515 0.58720 0.13210
 C319 C -0.15833 1.15532 0.29228
 N320 N -0.13930 1.18428 0.26703
 N321 N -0.12206 1.16821 0.22409
 C322 C -0.12329 1.12268 0.20512
 N323 N -0.14241 1.09378 0.23014
 N324 N -0.15965 1.10985 0.27308
 C325 C -0.17458 1.17096 0.34369
 C326 C -0.18697 1.18313 0.38927
 C327 C -0.10282 1.10410 0.16414
 C328 C -0.08480 1.08804 0.13235
 C329 C 0.65720 0.33969 0.28792
 N330 N 0.63742 0.31122 0.26503
 N331 N 0.62074 0.32662 0.22075
 C332 C 0.62336 0.37094 0.19795
 N333 N 0.64324 0.39932 0.22061
 N334 N 0.65992 0.38392 0.26490
 C335 C 0.67298 0.32509 0.34039
 C336 C 0.68512 0.31364 0.38645
 C337 C 0.60326 0.38950 0.15632
 C338 C 0.58543 0.40607 0.12467
 C339 C 0.15821 0.84309 0.29110
 N340 N 0.13857 0.81405 0.26874
 N341 N 0.12158 0.82886 0.22470
 C342 C 0.12372 0.87317 0.20159
 N343 N 0.14345 0.90213 0.22373
 N344 N 0.16043 0.88732 0.26779
 C345 C 0.17435 0.82894 0.34329
 C346 C 0.18659 0.81735 0.38920
 C347 C 0.10342 0.89101 0.15976
 C348 C 0.08553 0.90709 0.12775
   
