data_POSCAR
  _audit_creation_date              2014-09-24
  _audit_creation_method            'ToBaCCo'
  _symmetry_space_group_name_H-M    'P1'
  _symmetry_Int_Tables_number       1
  _symmetry_cell_setting            triclinic
  loop_
  _symmetry_equiv_pos_as_xyz
 x,y,z
_cell_length_a 39.5960
_cell_length_b 38.2278
_cell_length_c 39.7497
_cell_angle_alpha 92.043300
_cell_angle_beta 89.440600
_cell_angle_gamma 90.864400
loop_
  _atom_site_label
  _atom_site_type_symbol
  _atom_site_fract_x
  _atom_site_fract_y
  _atom_site_fract_z
C1 C 0.26168 0.24592 0.24940
 C2 C 0.75399 0.75104 0.25258
 C3 C 0.75551 0.25137 0.75104
 C4 C 0.24977 0.74571 0.75313
 C5 C 0.04873 0.05118 0.01280
 H6 H 0.05367 0.04878 -0.01399
 C7 C 0.06909 0.07317 0.03315
 H8 H 0.08974 0.08771 0.02195
 C9 C 0.01542 0.03571 0.06000
 H10 H -0.00574 0.02144 0.07038
 C11 C 0.03471 0.05784 0.08111
 H12 H 0.02854 0.05996 0.10771
 N13 N 0.02295 0.03239 0.02657
 C14 C 0.00711 -0.05688 -0.04388
 H15 H -0.02015 -0.05694 -0.04553
 C16 C 0.02561 -0.08162 -0.06266
 H17 H 0.01228 -0.09994 -0.07934
 C18 C 0.05723 -0.03236 -0.02048
 H19 H 0.06951 -0.01359 -0.00359
 C20 C 0.07670 -0.05698 -0.03838
 H21 H 0.10378 -0.05669 -0.03488
 Zn22 Zn -0.00387 0.00232 -0.00175
 N23 N 0.02314 -0.03202 -0.02432
 C24 C -0.02865 0.02028 -0.06618
 N25 N -0.02598 0.03042 -0.03316
 C26 C -0.03876 0.06141 -0.02149
 C27 C -0.05501 0.08349 -0.04327
 C28 C -0.04552 0.04103 -0.08861
 C29 C -0.02372 -0.04450 0.04700
 C30 C -0.04578 -0.06408 0.06671
 C31 C -0.09273 -0.03775 0.03917
 C32 C -0.06971 -0.01834 0.02018
 N33 N -0.03593 -0.02203 0.02449
 H34 H -0.01805 -0.00405 -0.07538
 H35 H -0.03602 0.06915 0.00480
 H36 H -0.06401 0.10839 -0.03335
 H37 H -0.04832 0.03143 -0.11437
 H38 H 0.00329 -0.04724 0.04953
 H39 H -0.03558 -0.08208 0.08429
 H40 H -0.11956 -0.03456 0.03554
 H41 H -0.07881 -0.00059 0.00186
 C42 C 0.06102 -0.08158 -0.06050
 C43 C 0.06209 0.07664 0.06777
 C44 C -0.08078 -0.06093 0.06283
 C45 C -0.05896 0.07330 -0.07743
 C46 C 0.06220 0.52431 0.52042
 H47 H 0.07368 0.50209 0.50765
 C48 C 0.08241 0.54758 0.53952
 H49 H 0.10922 0.54283 0.54117
 C50 C 0.01395 0.55849 0.53262
 H51 H -0.01263 0.56311 0.52913
 C52 C 0.03317 0.58234 0.55205
 H53 H 0.02085 0.60452 0.56428
 N54 N 0.02842 0.52963 0.51798
 C55 C 0.02570 0.46464 0.43288
 H56 H 0.00941 0.48184 0.41978
 C57 C 0.04624 0.44156 0.41427
 H58 H 0.04579 0.44149 0.38703
 C59 C 0.04564 0.44283 0.48395
 H60 H 0.04529 0.44353 0.51119
 C61 C 0.06613 0.41891 0.46632
 H62 H 0.08175 0.40145 0.48009
 Zn63 Zn -0.00020 0.49814 0.49305
 N64 N 0.02628 0.46547 0.46714
 C65 C -0.00952 0.54520 0.44187
 N66 N -0.02631 0.52566 0.46469
 C67 C -0.06041 0.52742 0.46837
 C68 C -0.07897 0.54959 0.44855
 C69 C -0.02713 0.56668 0.42073
 C70 C -0.04373 0.48992 0.54983
 C71 C -0.06256 0.47123 0.57326
 C72 C -0.05088 0.41804 0.54100
 C73 C -0.03235 0.43776 0.51815
 N74 N -0.02858 0.47300 0.52316
 H75 H 0.01770 0.54380 0.43987
 H76 H -0.07320 0.51220 0.48717
 H77 H -0.10587 0.55139 0.45301
 H78 H -0.01301 0.58065 0.40191
 H79 H -0.04104 0.51791 0.55328
 H80 H -0.07438 0.48525 0.59428
 H81 H -0.05268 0.38993 0.53695
 H82 H -0.02076 0.42471 0.49653
 C83 C 0.06690 0.41849 0.43104
 C84 C 0.06784 0.57682 0.55605
 C85 C -0.06600 0.43471 0.56924
 C86 C -0.06243 0.56958 0.42404
 C87 C 0.55460 0.02516 0.53586
 H88 H 0.56737 0.00642 0.51945
 C89 C 0.57352 0.04685 0.55774
 H90 H 0.60079 0.04502 0.55760
 C91 C 0.50371 0.05020 0.55647
 H92 H 0.47641 0.05089 0.55617
 C93 C 0.52171 0.07289 0.57829
 H94 H 0.50821 0.09124 0.59465
 N95 N 0.52036 0.02761 0.53515
 C96 C 0.52517 -0.06644 0.48425
 H97 H 0.50825 -0.07821 0.50218
 C98 C 0.54787 -0.08747 0.46596
 H99 H 0.54818 -0.11533 0.47002
 C100 C 0.54504 -0.01614 0.45654
 H101 H 0.54384 0.01178 0.45322
 C102 C 0.56787 -0.03626 0.43745
 H103 H 0.58439 -0.02366 0.41954
 Zn104 Zn 0.49503 -0.00187 0.50505
 N105 N 0.52454 -0.03136 0.47965
 C106 C 0.45558 0.00683 0.44811
 N107 N 0.47042 0.02464 0.47439
 C108 C 0.46666 0.05979 0.47899
 C109 C 0.44595 0.07805 0.45771
 C110 C 0.43508 0.02415 0.42589
 C111 C 0.47665 -0.04759 0.55632
 C112 C 0.45467 -0.06715 0.57624
 C113 C 0.40791 -0.04654 0.54416
 C114 C 0.43075 -0.02752 0.52480
 N115 N 0.46445 -0.02860 0.53095
 H116 H 0.45926 -0.02108 0.44479
 H117 H 0.47903 0.07374 0.49957
 H118 H 0.44222 0.10571 0.46291
 H119 H 0.42365 0.00937 0.40513
 H120 H 0.50350 -0.04744 0.56110
 H121 H 0.46477 -0.08194 0.59648
 H122 H 0.38122 -0.04567 0.53860
 H123 H 0.42140 -0.01179 0.50500
 C124 C 0.56968 -0.07236 0.44234
 C125 C 0.55708 0.07142 0.57890
 C126 C 0.41978 -0.06672 0.57024
 C127 C 0.42948 0.06021 0.43086
 C128 C 0.52492 0.56664 0.02655
 H129 H 0.51031 0.58007 0.00840
 C130 C 0.54401 0.58628 0.04987
 H131 H 0.54354 0.61460 0.04970
 C132 C 0.54420 0.51380 0.04857
 H133 H 0.54417 0.48554 0.04792
 C134 C 0.56428 0.53251 0.07196
 H135 H 0.57941 0.51856 0.08948
 N136 N 0.52468 0.53104 0.02672
 C137 C 0.50767 0.44886 -0.04924
 H138 H 0.48071 0.44488 -0.04637
 C139 C 0.52642 0.42562 -0.06951
 H140 H 0.51372 0.40383 -0.08245
 C141 C 0.55703 0.48215 -0.03573
 H142 H 0.56876 0.50418 -0.02235
 C143 C 0.57669 0.45980 -0.05612
 H144 H 0.60366 0.46456 -0.05810
 Zn145 Zn 0.49650 0.50517 -0.00398
 N146 N 0.52323 0.47619 -0.03258
 C147 C 0.47751 0.53644 -0.06424
 N148 N 0.47223 0.53663 -0.03035
 C149 C 0.45064 0.55968 -0.01497
 C150 C 0.43252 0.58287 -0.03388
 C151 C 0.46042 0.55973 -0.08405
 C152 C 0.47928 0.44645 0.03328
 C153 C 0.45846 0.42320 0.05054
 C154 C 0.41124 0.46055 0.04078
 C155 C 0.43278 0.48255 0.02295
 N156 N 0.46632 0.47565 0.02007
 H157 H 0.49512 0.51834 -0.07598
 H158 H 0.44767 0.56019 0.01213
 H159 H 0.41521 0.60086 -0.02137
 H160 H 0.46467 0.55923 -0.11102
 H161 H 0.50576 0.44075 0.02976
 H162 H 0.46940 0.39973 0.05992
 H163 H 0.38498 0.46758 0.04369
 H164 H 0.42238 0.50507 0.01160
 C165 C 0.56140 0.43091 -0.07301
 C166 C 0.56376 0.56919 0.07305
 C167 C 0.42389 0.43027 0.05491
 C168 C 0.43741 0.58301 -0.06881
 C169 C 0.22561 -0.17860 -0.18750
 C170 C 0.19133 -0.18560 -0.17993
 C171 C 0.17684 -0.21707 -0.19337
 C172 C 0.19532 -0.23898 -0.21565
 C173 C 0.22887 -0.23051 -0.22542
 C174 C 0.24399 -0.20090 -0.20900
 C175 C 0.14402 -0.22683 -0.18421
 C176 C 0.12528 -0.20614 -0.16173
 C177 C 0.13831 -0.17410 -0.14822
 C178 C 0.17135 -0.16301 -0.15861
 C179 C 0.18298 -0.12930 -0.14818
 C180 C 0.16340 -0.10746 -0.12761
 C181 C 0.13187 -0.11857 -0.11589
 C182 C 0.11909 -0.15229 -0.12539
 C183 C 0.08770 -0.16280 -0.11137
 C184 C 0.06936 -0.14021 -0.08997
 C185 C 0.08143 -0.10632 -0.08186
 C186 C 0.11292 -0.09587 -0.09486
 H187 H 0.23939 -0.15674 -0.17623
 H188 H 0.18350 -0.26325 -0.22459
 H189 H 0.27049 -0.19478 -0.21304
 H190 H 0.13273 -0.25093 -0.19435
 H191 H 0.10008 -0.21547 -0.15627
 H192 H 0.20676 -0.11846 -0.15654
 H193 H 0.17319 -0.08160 -0.12064
 H194 H 0.07691 -0.18856 -0.11586
 H195 H 0.04568 -0.14956 -0.07952
 H196 H 0.12259 -0.06968 -0.08916
 C197 C 0.22537 0.33138 0.29047
 C198 C 0.19947 0.31844 0.31159
 C199 C 0.19640 0.28171 0.31422
 C200 C 0.21666 0.25920 0.29431
 C201 C 0.24055 0.27222 0.27121
 C202 C 0.24570 0.30877 0.27112
 C203 C 0.17300 0.26754 0.33655
 C204 C 0.15249 0.28907 0.35654
 C205 C 0.15392 0.32585 0.35429
 C206 C 0.17700 0.34067 0.33058
 C207 C 0.17610 0.37707 0.32582
 C208 C 0.15396 0.39842 0.34403
 C209 C 0.13236 0.38463 0.36823
 C210 C 0.13243 0.34828 0.37429
 C211 C 0.11114 0.33604 0.40037
 C212 C 0.09017 0.35886 0.41882
 C213 C 0.08944 0.39442 0.41177
 C214 C 0.11065 0.40714 0.38648
 H215 H 0.23123 0.35891 0.28903
 H216 H 0.21343 0.23111 0.29622
 H217 H 0.26576 0.32049 0.25658
 H218 H 0.17055 0.23942 0.33869
 H219 H 0.13492 0.27591 0.37281
 H220 H 0.19151 0.38979 0.30727
 H221 H 0.15389 0.42615 0.33919
 H222 H 0.11050 0.30915 0.40759
 H223 H 0.07412 0.34856 0.43848
 H224 H 0.11067 0.43484 0.38144
 C225 C 0.68920 -0.17767 0.27586
 C226 C 0.68845 -0.17653 0.31145
 C227 C 0.71043 -0.19902 0.32807
 C228 C 0.73214 -0.22144 0.30965
 C229 C 0.73140 -0.22382 0.27419
 C230 C 0.71031 -0.20058 0.25784
 C231 C 0.71057 -0.19929 0.36313
 C232 C 0.68844 -0.17874 0.38220
 C233 C 0.66551 -0.15640 0.36693
 C234 C 0.66648 -0.15420 0.33104
 C235 C 0.64561 -0.12962 0.31601
 C236 C 0.62390 -0.10863 0.33515
 C237 C 0.62146 -0.11169 0.36992
 C238 C 0.64189 -0.13588 0.38636
 C239 C 0.63727 -0.13894 0.42154
 C240 C 0.61385 -0.11845 0.43943
 C241 C 0.59437 -0.09411 0.42309
 C242 C 0.59839 -0.09080 0.38830
 H243 H 0.67329 -0.16180 0.26099
 H244 H 0.74950 -0.23690 0.32348
 H245 H 0.70961 -0.20079 0.23060
 H246 H 0.72763 -0.21609 0.37605
 H247 H 0.69038 -0.18056 0.40908
 H248 H 0.64577 -0.12548 0.28937
 H249 H 0.60847 -0.09006 0.32247
 H250 H 0.65083 -0.15737 0.43596
 H251 H 0.61117 -0.12145 0.46632
 H252 H 0.58293 -0.07242 0.37539
 C253 C 0.70786 0.33649 -0.22258
 C254 C 0.68721 0.32537 -0.19568
 C255 C 0.68700 0.28932 -0.18876
 C256 C 0.70869 0.26627 -0.20631
 C257 C 0.73155 0.27810 -0.23098
 C258 C 0.72914 0.31328 -0.24008
 C259 C 0.66535 0.27639 -0.16414
 C260 C 0.64383 0.29852 -0.14602
 C261 C 0.64369 0.33488 -0.15125
 C262 C 0.66643 0.34864 -0.17587
 C263 C 0.66846 0.38528 -0.17910
 C264 C 0.64866 0.40774 -0.15939
 C265 C 0.62559 0.39470 -0.13612
 C266 C 0.62222 0.35807 -0.13210
 C267 C 0.59736 0.34628 -0.10909
 C268 C 0.57759 0.36993 -0.09033
 C269 C 0.58191 0.40603 -0.09367
 C270 C 0.60588 0.41824 -0.11673
 H271 H 0.70754 0.36282 -0.23137
 H272 H 0.70848 0.23883 -0.20023
 H273 H 0.74309 0.32337 -0.26116
 H274 H 0.66502 0.24877 -0.15878
 H275 H 0.62829 0.28634 -0.12726
 H276 H 0.68603 0.39762 -0.19597
 H277 H 0.65144 0.43570 -0.16247
 H278 H 0.59218 0.31897 -0.10523
 H279 H 0.55911 0.35990 -0.07270
 H280 H 0.60887 0.44618 -0.11987
 C281 C -0.19879 0.22704 -0.16708
 C282 C -0.17807 0.19922 -0.17841
 C283 C -0.17615 0.19182 -0.21349
 C284 C -0.19724 0.20903 -0.23563
 C285 C -0.22047 0.23434 -0.22375
 C286 C -0.21896 0.24460 -0.18935
 C287 C -0.15347 0.16701 -0.22625
 C288 C -0.13260 0.14932 -0.20486
 C289 C -0.13466 0.15472 -0.16956
 C290 C -0.15882 0.17900 -0.15612
 C291 C -0.16412 0.18113 -0.12094
 C292 C -0.14614 0.16052 -0.09954
 C293 C -0.12127 0.13802 -0.11211
 C294 C -0.11436 0.13563 -0.14716
 C295 C -0.08723 0.11439 -0.15825
 C296 C -0.06895 0.09513 -0.13562
 C297 C -0.07727 0.09572 -0.10116
 C298 C -0.10345 0.11765 -0.08971
 H299 H -0.19916 0.23655 -0.14121
 H300 H -0.19626 0.20212 -0.26231
 H301 H -0.23309 0.26645 -0.17901
 H302 H -0.15173 0.16127 -0.25312
 H303 H -0.11611 0.13028 -0.21670
 H304 H -0.18325 0.19739 -0.10928
 H305 H -0.15163 0.16243 -0.07277
 H306 H -0.07894 0.11282 -0.18416
 H307 H -0.04797 0.07991 -0.14534
 H308 H -0.11058 0.11857 -0.06332
 C309 C -0.22530 0.67862 0.31391
 C310 C -0.18965 0.67845 0.31452
 C311 C -0.17203 0.70320 0.29502
 C312 C -0.18956 0.72562 0.27430
 C313 C -0.22517 0.72658 0.27464
 C314 C -0.24249 0.70217 0.29452
 C315 C -0.13686 0.70560 0.29632
 C316 C -0.11883 0.68495 0.31765
 C317 C -0.13525 0.65976 0.33741
 C318 C -0.17094 0.65495 0.33416
 C319 C -0.18652 0.62625 0.34986
 C320 C -0.16795 0.60359 0.36878
 C321 C -0.13355 0.60958 0.37421
 C322 C -0.11696 0.63842 0.35951
 C323 C -0.08293 0.64525 0.36819
 C324 C -0.06582 0.62348 0.38948
 C325 C -0.08155 0.59350 0.40231
 C326 C -0.11567 0.58692 0.39444
 H327 H -0.24068 0.66162 0.32900
 H328 H -0.17486 0.74199 0.25796
 H329 H -0.26984 0.70153 0.29520
 H330 H -0.12313 0.72426 0.28125
 H331 H -0.09175 0.68832 0.31715
 H332 H -0.21294 0.61981 0.34686
 H333 H -0.18085 0.58151 0.37984
 H334 H -0.06923 0.66804 0.35996
 H335 H -0.04018 0.63071 0.39620
 H336 H -0.12856 0.56401 0.40380
 C337 C 0.32520 0.22634 0.31854
 C338 C 0.32285 0.18966 0.32127
 C339 C 0.29679 0.17165 0.30331
 C340 C 0.27636 0.18939 0.28093
 C341 C 0.28155 0.22532 0.27549
 C342 C 0.30469 0.24369 0.29649
 C343 C 0.29148 0.13591 0.30748
 C344 C 0.31176 0.11746 0.32877
 C345 C 0.33898 0.13392 0.34612
 C346 C 0.34518 0.17041 0.34149
 C347 C 0.37425 0.18621 0.35609
 C348 C 0.39618 0.16728 0.37515
 C349 C 0.38974 0.13210 0.38113
 C350 C 0.36079 0.11497 0.36726
 C351 C 0.35484 0.07964 0.37539
 C352 C 0.37705 0.06212 0.39581
 C353 C 0.40614 0.07892 0.40869
 C354 C 0.41227 0.11399 0.40102
 H355 H 0.34239 0.24250 0.33335
 H356 H 0.25649 0.17484 0.26796
 H357 H 0.30784 0.27177 0.29477
 H358 H 0.27146 0.12195 0.29401
 H359 H 0.30615 0.08990 0.33013
 H360 H 0.38148 0.21306 0.35223
 H361 H 0.41839 0.18045 0.38552
 H362 H 0.33282 0.06499 0.36711
 H363 H 0.37093 0.03542 0.40205
 H364 H 0.43479 0.12736 0.41040
 C365 C 0.27091 0.68352 -0.17801
 C366 C 0.30574 0.68960 -0.17274
 C367 C 0.32194 0.71582 -0.19160
 C368 C 0.30369 0.73524 -0.21439
 C369 C 0.26957 0.72693 -0.22194
 C370 C 0.25336 0.70188 -0.20173
 C371 C 0.35651 0.72229 -0.18805
 C372 C 0.37583 0.70184 -0.16769
 C373 C 0.36101 0.67478 -0.14905
 C374 C 0.32512 0.67012 -0.14993
 C375 C 0.30984 0.64632 -0.12785
 C376 C 0.32904 0.62656 -0.10678
 C377 C 0.36419 0.62880 -0.10766
 C378 C 0.38080 0.65251 -0.12918
 C379 C 0.41656 0.65209 -0.13068
 C380 C 0.43482 0.62944 -0.11120
 C381 C 0.41814 0.60702 -0.08930
 C382 C 0.38287 0.60697 -0.08745
 H383 H 0.25657 0.66388 -0.16506
 H384 H 0.31661 0.75664 -0.22643
 H385 H 0.22677 0.69575 -0.20492
 H386 H 0.36901 0.74273 -0.20198
 H387 H 0.40237 0.70840 -0.16645
 H388 H 0.28287 0.64288 -0.12565
 H389 H 0.31622 0.60870 -0.09016
 H390 H 0.43111 0.66810 -0.14745
 H391 H 0.46213 0.62954 -0.11311
 H392 H 0.36994 0.58907 -0.07091
 C393 C -0.18140 -0.17666 0.23006
 C394 C -0.18315 -0.17549 0.19459
 C395 C -0.20731 -0.19755 0.17814
 C396 C -0.22711 -0.22125 0.19632
 C397 C -0.22350 -0.22415 0.23140
 C398 C -0.20154 -0.20000 0.24793
 C399 C -0.21188 -0.19579 0.14351
 C400 C -0.19290 -0.17267 0.12464
 C401 C -0.16788 -0.15067 0.13960
 C402 C -0.16232 -0.15276 0.17503
 C403 C -0.13557 -0.13279 0.18955
 C404 C -0.11512 -0.11131 0.17030
 C405 C -0.12077 -0.10828 0.13598
 C406 C -0.14763 -0.12730 0.12018
 C407 C -0.15301 -0.12205 0.08552
 C408 C -0.13177 -0.10004 0.06729
 C409 C -0.10448 -0.08253 0.08280
 C410 C -0.09938 -0.08649 0.11728
 H411 H -0.16532 -0.15931 0.24491
 H412 H -0.24599 -0.23661 0.18275
 H413 H -0.19970 -0.19956 0.27512
 H414 H -0.23043 -0.21253 0.13076
 H415 H -0.19790 -0.17343 0.09806
 H416 H -0.12904 -0.13400 0.21571
 H417 H -0.09457 -0.09690 0.18249
 H418 H -0.17349 -0.13435 0.07170
 H419 H -0.13629 -0.09733 0.04068
 H420 H -0.07870 -0.07243 0.12962
 C421 C -0.19846 0.27463 0.66787
 C422 C -0.17889 0.30442 0.67770
 C423 C -0.17835 0.31412 0.71241
 C424 C -0.19850 0.29606 0.73559
 C425 C -0.22078 0.26887 0.72498
 C426 C -0.21867 0.25719 0.69100
 C427 C -0.15815 0.34218 0.72380
 C428 C -0.13893 0.36146 0.70143
 C429 C -0.13944 0.35370 0.66641
 C430 C -0.15984 0.32472 0.65435
 C431 C -0.16126 0.31756 0.61928
 C432 C -0.14328 0.33767 0.59673
 C433 C -0.12310 0.36576 0.60801
 C434 C -0.12066 0.37421 0.64295
 C435 C -0.09960 0.40302 0.65279
 C436 C -0.08215 0.42249 0.62895
 C437 C -0.08491 0.41408 0.59448
 C438 C -0.10550 0.38560 0.58428
 H439 H -0.19862 0.26379 0.64251
 H440 H -0.19802 0.30415 0.76201
 H441 H -0.23237 0.23424 0.68173
 H442 H -0.15740 0.34957 0.75038
 H443 H -0.12432 0.38278 0.71250
 H444 H -0.17665 0.29686 0.60818
 H445 H -0.14536 0.33121 0.57004
 H446 H -0.09579 0.41118 0.67869
 H447 H -0.06595 0.44396 0.63764
 H448 H -0.10822 0.37906 0.55767
 C449 C 0.31923 -0.23491 0.68940
 C450 C 0.31358 -0.19969 0.68167
 C451 C 0.28420 -0.18381 0.69531
 C452 C 0.26308 -0.20167 0.71770
 C453 C 0.27117 -0.23528 0.72880
 C454 C 0.29819 -0.25234 0.71186
 C455 C 0.27598 -0.14997 0.68676
 C456 C 0.29681 -0.13097 0.66566
 C457 C 0.32718 -0.14495 0.65246
 C458 C 0.33576 -0.17989 0.66065
 C459 C 0.36661 -0.19354 0.64831
 C460 C 0.38828 -0.17397 0.62852
 C461 C 0.38025 -0.14003 0.62014
 C462 C 0.34952 -0.12501 0.63172
 C463 C 0.34264 -0.09049 0.62216
 C464 C 0.36539 -0.07188 0.60234
 C465 C 0.39578 -0.08679 0.59129
 C466 C 0.40301 -0.12095 0.60029
 H467 H 0.33952 -0.24998 0.67834
 H468 H 0.24025 -0.18892 0.72652
 H469 H 0.30373 -0.27933 0.71678
 H470 H 0.25327 -0.13781 0.69680
 H471 H 0.28850 -0.10500 0.66072
 H472 H 0.37523 -0.21920 0.65410
 H473 H 0.41179 -0.18552 0.61984
 H474 H 0.31995 -0.07695 0.62948
 H475 H 0.35933 -0.04539 0.59599
 H476 H 0.42628 -0.13290 0.59145
 C477 C 0.34228 0.27693 0.20188
 C478 C 0.32938 0.30168 0.18007
 C479 C 0.29388 0.30453 0.17808
 C480 C 0.27265 0.28622 0.20011
 C481 C 0.28595 0.26450 0.22453
 C482 C 0.32098 0.25831 0.22308
 C483 C 0.27980 0.32592 0.15438
 C484 C 0.30030 0.34467 0.13261
 C485 C 0.33588 0.34386 0.13469
 C486 C 0.35055 0.32312 0.15979
 C487 C 0.38573 0.32570 0.16493
 C488 C 0.40604 0.34742 0.14586
 C489 C 0.39238 0.36644 0.12014
 C490 C 0.35730 0.36415 0.11345
 C491 C 0.34523 0.38213 0.08561
 C492 C 0.36689 0.40272 0.06635
 C493 C 0.40124 0.40663 0.07433
 C494 C 0.41372 0.38804 0.10126
 H495 H 0.36871 0.27058 0.20235
 H496 H 0.24554 0.28950 0.19892
 H497 H 0.33253 0.23879 0.23800
 H498 H 0.25262 0.32813 0.15257
 H499 H 0.28745 0.36089 0.11534
 H500 H 0.39816 0.31240 0.18471
 H501 H 0.43283 0.34916 0.15120
 H502 H 0.31934 0.38013 0.07756
 H503 H 0.35655 0.41539 0.04491
 H504 H 0.44006 0.39074 0.10811
 C505 C 0.23488 0.17455 0.18354
 C506 C 0.19986 0.17984 0.17961
 C507 C 0.18484 0.20684 0.19966
 C508 C 0.20431 0.22794 0.22189
 C509 C 0.23900 0.22195 0.22642
 C510 C 0.25389 0.19533 0.20617
 C511 C 0.15037 0.21307 0.19730
 C512 C 0.13009 0.19254 0.17607
 C513 C 0.14362 0.16511 0.15566
 C514 C 0.17928 0.15945 0.15654
 C515 C 0.19316 0.13404 0.13397
 C516 C 0.17296 0.11443 0.11175
 C517 C 0.13804 0.11859 0.11164
 C518 C 0.12273 0.14355 0.13396
 C519 C 0.08701 0.14542 0.13399
 C520 C 0.06763 0.12384 0.11245
 C521 C 0.08301 0.09990 0.08996
 C522 C 0.11826 0.09753 0.08953
 H523 H 0.24843 0.15438 0.16974
 H524 H 0.19199 0.24956 0.23495
 H525 H 0.28071 0.19059 0.20796
 H526 H 0.13879 0.23395 0.21233
 H527 H 0.10384 0.19946 0.17569
 H528 H 0.21982 0.12906 0.13233
 H529 H 0.18482 0.09542 0.09473
 H530 H 0.07311 0.16265 0.15087
 H531 H 0.04037 0.12595 0.11329
 H532 H 0.13024 0.07853 0.07257
 C533 C 0.22022 0.66413 0.70305
 C534 C 0.19213 0.67629 0.68552
 C535 C 0.18454 0.71227 0.68936
 C536 C 0.20312 0.73434 0.71157
 C537 C 0.22949 0.72151 0.73126
 C538 C 0.23866 0.68625 0.72483
 C539 C 0.15854 0.72619 0.67085
 C540 C 0.13986 0.70518 0.64843
 C541 C 0.14600 0.66899 0.64410
 C542 C 0.17197 0.65415 0.66368
 C543 C 0.17646 0.61757 0.66139
 C544 C 0.15696 0.59625 0.64010
 C545 C 0.13242 0.61039 0.61996
 C546 C 0.12668 0.64696 0.62133
 C547 C 0.10188 0.65982 0.59969
 C548 C 0.08318 0.63718 0.57843
 C549 C 0.08850 0.60102 0.57784
 C550 C 0.11334 0.58791 0.59863
 H551 H 0.22942 0.63785 0.69970
 H552 H 0.19695 0.76187 0.71367
 H553 H 0.26074 0.67540 0.73614
 H554 H 0.15262 0.75375 0.67360
 H555 H 0.12017 0.71810 0.63538
 H556 H 0.19434 0.60430 0.67648
 H557 H 0.16121 0.56828 0.63938
 H558 H 0.09651 0.68725 0.59820
 H559 H 0.06466 0.64815 0.56210
 H560 H 0.11748 0.55994 0.59871
 C561 C 0.70764 0.16517 0.72465
 C562 C 0.68586 0.17645 0.69934
 C563 C 0.68540 0.21271 0.69339
 C564 C 0.70785 0.23590 0.71014
 C565 C 0.73120 0.22420 0.73367
 C566 C 0.72942 0.18862 0.74172
 C567 C 0.66266 0.22574 0.67059
 C568 C 0.64017 0.20353 0.65344
 C569 C 0.64025 0.16701 0.65766
 C570 C 0.66428 0.15314 0.68013
 C571 C 0.66682 0.11644 0.68169
 C572 C 0.64650 0.09401 0.66218
 C573 C 0.62216 0.10712 0.64108
 C574 C 0.61793 0.14378 0.63924
 C575 C 0.59144 0.15559 0.61900
 C576 C 0.57130 0.13200 0.60021
 C577 C 0.57693 0.09600 0.60077
 C578 C 0.60216 0.08369 0.62154
 H579 H 0.70777 0.13850 0.73255
 H580 H 0.70759 0.26346 0.70455
 H581 H 0.74440 0.17836 0.76155
 H582 H 0.66216 0.25351 0.66597
 H583 H 0.62382 0.21575 0.63598
 H584 H 0.68533 0.10414 0.69686
 H585 H 0.64986 0.06601 0.66368
 H586 H 0.58533 0.18284 0.61741
 H587 H 0.55168 0.14201 0.58453
 H588 H 0.60611 0.05573 0.62254
 C589 C 0.73124 0.67770 0.18718
 C590 C 0.69554 0.67579 0.18847
 C591 C 0.67881 0.69891 0.21150
 C592 C 0.69717 0.72245 0.23241
 C593 C 0.73262 0.72542 0.22988
 C594 C 0.74921 0.70177 0.20760
 C595 C 0.64365 0.69858 0.21366
 C596 C 0.62449 0.67688 0.19242
 C597 C 0.63982 0.65395 0.16842
 C598 C 0.67590 0.65210 0.16756
 C599 C 0.69101 0.62648 0.14606
 C600 C 0.67167 0.60428 0.12528
 C601 C 0.63666 0.60733 0.12427
 C602 C 0.62021 0.63253 0.14548
 C603 C 0.58485 0.63597 0.14209
 C604 C 0.56681 0.61512 0.11885
 C605 C 0.58314 0.58989 0.09854
 C606 C 0.61801 0.58577 0.10160
 H607 H 0.74612 0.66148 0.17022
 H608 H 0.68328 0.73806 0.25085
 H609 H 0.77652 0.70233 0.20571
 H610 H 0.63070 0.71579 0.23163
 H611 H 0.59754 0.67820 0.19596
 H612 H 0.71786 0.62245 0.14509
 H613 H 0.68440 0.58496 0.10928
 H614 H 0.57047 0.65530 0.15616
 H615 H 0.53985 0.61880 0.11662
 H616 H 0.63078 0.56662 0.08542
   
