data_POSCAR
  _audit_creation_date              2014-09-24
  _audit_creation_method            'ToBaCCo'
  _symmetry_space_group_name_H-M    'P1'
  _symmetry_Int_Tables_number       1
  _symmetry_cell_setting            triclinic
  loop_
  _symmetry_equiv_pos_as_xyz
 x,y,z
_cell_length_a 28.5940
_cell_length_b 29.0972
_cell_length_c 28.9663
_cell_angle_alpha 89.977100
_cell_angle_beta 89.997500
_cell_angle_gamma 89.625600
loop_
  _atom_site_label
  _atom_site_type_symbol
  _atom_site_fract_x
  _atom_site_fract_y
  _atom_site_fract_z
N1 N 0.26270 0.38161 1.35523
 N2 N 0.26205 0.35299 1.39034
 C3 C 0.22741 0.36556 1.41940
 C4 C 0.20504 0.40390 1.40088
 C5 C 0.22835 0.41293 1.36021
 H6 H 0.21843 0.34735 1.45067
 H7 H 0.22063 0.44004 1.33573
 Cu8 Cu 0.30422 0.30004 1.39151
 Cu9 Cu 0.30672 0.37516 1.30462
 Cu10 Cu 0.40271 0.30541 1.32892
 N11 N 0.35055 0.25068 1.39335
 N12 N 0.38922 0.25287 1.36885
 C13 C 0.41566 0.21530 1.37747
 C14 C 0.39195 0.18794 1.40892
 C15 C 0.35082 0.21150 1.41808
 H16 H 0.44951 0.20878 1.36208
 H17 H 0.32342 0.20101 1.44150
 N18 N 0.40196 0.35129 1.27846
 N19 N 0.36515 0.37737 1.26931
 C20 C 0.37492 0.40500 1.23342
 C21 C 0.42000 0.39566 1.21890
 C22 C 0.43602 0.36122 1.24791
 H23 H 0.35067 0.42956 1.21862
 H24 H 0.46988 0.34447 1.24661
 H25 H 0.33430 0.30827 1.31292
 H26 H 0.35464 0.35475 1.35230
 N27 N 1.22933 0.60391 0.86173
 N28 N 1.23181 0.63596 0.89356
 C29 C 1.26747 0.62603 0.92237
 C30 C 1.28859 0.58572 0.90738
 C31 C 1.26356 0.57275 0.86882
 H32 H 1.27841 0.64756 0.95074
 H33 H 1.27057 0.54347 0.84683
 Cu34 Cu 1.19152 0.69002 0.89136
 Cu35 Cu 1.18425 0.60706 0.81160
 Cu36 Cu 1.09513 0.68775 0.82450
 N37 N 1.14183 0.73536 0.89790
 N38 N 1.10362 0.73396 0.87270
 C39 C 1.07593 0.77002 0.88385
 C40 C 1.09840 0.79542 0.91771
 C41 C 1.13994 0.77229 0.92577
 H42 H 1.04291 0.77789 0.86737
 H43 H 1.16712 0.78217 0.94970
 N44 N 1.09386 0.63841 0.77752
 N45 N 1.12787 0.60786 0.77269
 C46 C 1.11810 0.58032 0.73664
 C47 C 1.07613 0.59453 0.71752
 C48 C 1.06182 0.63140 0.74417
 H49 H 1.14074 0.55316 0.72416
 H50 H 1.03098 0.65240 0.73862
 H51 H 1.16436 0.67628 0.81210
 H52 H 1.13672 0.63754 0.85534
 N53 N 0.73845 -0.09610 0.12458
 N54 N 0.73748 -0.13155 0.09651
 C55 C 0.77107 -0.12709 0.06435
 C56 C 0.79493 -0.08706 0.07304
 C57 C 0.77326 -0.06800 0.11148
 H58 H 0.77880 -0.15195 0.03763
 H59 H 0.78244 -0.03655 0.12904
 Cu60 Cu 0.69550 -0.18215 0.10668
 Cu61 Cu 0.69547 -0.09043 0.17684
 Cu62 Cu 0.60986 -0.17427 0.18542
 N63 N 0.64326 -0.22371 0.10649
 N64 N 0.60964 -0.22118 0.13733
 C65 C 0.57927 -0.25573 0.13001
 C66 C 0.59528 -0.28101 0.09255
 C67 C 0.63565 -0.25958 0.07848
 H68 H 0.54879 -0.26243 0.15099
 H69 H 0.65837 -0.27002 0.05047
 N70 N 0.61640 -0.12381 0.23034
 N71 N 0.64846 -0.09150 0.22692
 C72 C 0.64393 -0.06252 0.26301
 C73 C 0.60773 -0.07764 0.29058
 C74 C 0.59097 -0.11648 0.26874
 H75 H 0.66582 -0.03302 0.26935
 H76 H 0.56233 -0.13783 0.27989
 H77 H 0.68056 -0.15912 0.18627
 H78 H 0.64366 -0.12701 0.14373
 N79 N -0.23866 1.10254 -0.35445
 N80 N -0.24017 1.13019 -0.39035
 C81 C -0.27564 1.11743 -0.41813
 C82 C -0.29754 1.07999 -0.39821
 C83 C -0.27325 1.07164 -0.35787
 H84 H -0.28564 1.13492 -0.44958
 H85 H -0.28075 1.04544 -0.33247
 Cu86 Cu -0.19773 1.18211 -0.39572
 Cu87 Cu -0.19377 1.10992 -0.30462
 Cu88 Cu -0.10428 1.18664 -0.32492
 N89 N -0.14960 1.22875 -0.40270
 N90 N -0.11245 1.22874 -0.37601
 C91 C -0.08507 1.26435 -0.38718
 C92 C -0.10628 1.28843 -0.42276
 C93 C -0.14713 1.26479 -0.43190
 H94 H -0.05319 1.27290 -0.36924
 H95 H -0.17339 1.27373 -0.45730
 N96 N -0.10287 1.14200 -0.27433
 N97 N -0.13727 1.11321 -0.26585
 C98 C -0.12691 1.08904 -0.22744
 C99 C -0.08412 1.10389 -0.21096
 C100 C -0.07003 1.13738 -0.24140
 H101 H -0.14933 1.06346 -0.21208
 H102 H -0.03853 1.15758 -0.23893
 H103 H -0.17444 1.17831 -0.31424
 H104 H -0.14540 1.13349 -0.35077
 N105 N 0.70534 0.57281 0.62026
 N106 N 0.71442 0.61076 0.59741
 C107 C 0.75468 0.60559 0.57401
 C108 C 0.77152 0.56171 0.58217
 C109 C 0.73914 0.54159 0.61123
 H110 H 0.77034 0.63167 0.55248
 H111 H 0.74089 0.50746 0.62598
 Cu112 Cu 0.67242 0.66297 0.59975
 Cu113 Cu 0.65181 0.56928 0.66224
 Cu114 Cu 0.61064 0.67707 0.69637
 N115 N 0.62626 0.71149 0.60494
 N116 N 0.60387 0.71935 0.64384
 C117 C 0.57691 0.75729 0.63864
 C118 C 0.58231 0.77296 0.59370
 C119 C 0.61351 0.74294 0.57338
 H120 H 0.55426 0.77149 0.66500
 H121 H 0.62663 0.74447 0.53839
 N122 N 0.60254 0.62069 0.73375
 N123 N 0.61451 0.57936 0.71873
 C124 C 0.60127 0.54776 0.75003
 C125 C 0.58103 0.57033 0.78692
 C126 C 0.58234 0.61653 0.77557
 H127 H 0.60748 0.51117 0.74701
 H128 H 0.56860 0.64482 0.79575
 H129 H 0.61176 0.62812 0.64728
 H130 H 0.66800 0.63496 0.67902
 N131 N 0.77002 0.39044 0.14335
 N132 N 0.76724 0.35150 0.12056
 C133 C 0.72931 0.35257 0.09307
 C134 C 0.70765 0.39475 0.09830
 C135 C 0.73427 0.41803 0.13060
 H136 H 0.71830 0.32476 0.07089
 H137 H 0.72724 0.45168 0.14499
 Cu138 Cu 0.81341 0.30289 0.12864
 Cu139 Cu 0.81768 0.39939 0.19074
 Cu140 Cu 0.91907 0.33944 0.16459
 N141 N 0.86908 0.26512 0.12274
 N142 N 0.91088 0.28050 0.13338
 C143 C 0.94311 0.24844 0.12185
 C144 C 0.91978 0.21087 0.10403
 C145 C 0.87301 0.22244 0.10545
 H146 H 0.98034 0.25152 0.12762
 H147 H 0.84407 0.20165 0.09386
 N148 N 0.91643 0.38925 0.21128
 N149 N 0.87720 0.41068 0.22248
 C150 C 0.88455 0.43662 0.26021
 C151 C 0.93078 0.43132 0.27346
 C152 C 0.95007 0.40151 0.24141
 H153 H 0.85774 0.45627 0.27781
 H154 H 0.98498 0.38697 0.24224
 H155 H 0.85874 0.37237 0.14122
 H156 H 0.85395 0.33559 0.19418
 N157 N 0.27716 0.12914 0.86162
 N158 N 0.27735 0.16535 0.88877
 C159 C 0.23926 0.16429 0.91616
 C160 C 0.21462 0.12486 0.90619
 C161 C 0.23959 0.10333 0.87143
 H162 H 0.23029 0.18991 0.94177
 H163 H 0.23028 0.07203 0.85362
 Cu164 Cu 0.32846 0.20909 0.88674
 Cu165 Cu 0.32324 0.11991 0.81293
 Cu166 Cu 0.40118 0.20916 0.79586
 N167 N 0.37836 0.25392 0.88108
 N168 N 0.40507 0.25505 0.84416
 C169 C 0.43393 0.29129 0.84680
 C170 C 0.42569 0.31326 0.88815
 C171 C 0.39022 0.28881 0.90916
 H172 H 0.45926 0.30071 0.82080
 H173 H 0.37331 0.29693 0.94157
 N174 N 0.40228 0.15236 0.75936
 N175 N 0.37219 0.11864 0.76517
 C176 C 0.38140 0.08541 0.73405
 C177 C 0.41966 0.09871 0.70831
 C178 C 0.43230 0.14096 0.72543
 H179 H 0.36218 0.05371 0.73064
 H180 H 0.46084 0.16210 0.71352
 H181 H 0.37731 0.15884 0.84052
 H182 H 0.33130 0.18868 0.80525
 N183 N 0.21531 0.89594 0.37220
 N184 N 0.21882 0.85921 0.39848
 C185 C 0.25423 0.86529 0.42866
 C186 C 0.27301 0.90841 0.42094
 C187 C 0.24730 0.92690 0.38528
 H188 H 0.26558 0.84041 0.45410
 H189 H 0.25286 0.95979 0.36884
 Cu190 Cu 0.17644 0.80749 0.38996
 Cu191 Cu 0.17303 0.89981 0.32005
 Cu192 Cu 0.09734 0.80907 0.30373
 N193 N 0.13123 0.75809 0.38190
 N194 N 0.10235 0.75795 0.34654
 C195 C 0.07678 0.71932 0.34745
 C196 C 0.08941 0.69446 0.38597
 C197 C 0.12400 0.71993 0.40727
 H198 H 0.04996 0.71053 0.32272
 H199 H 0.14277 0.71094 0.43844
 N200 N 0.09762 0.86390 0.26412
 N201 N 0.12786 0.89760 0.26917
 C202 C 0.12106 0.92871 0.23538
 C203 C 0.08425 0.91413 0.20852
 C204 C 0.06989 0.87330 0.22774
 H205 H 0.14074 0.96001 0.23100
 H206 H 0.04191 0.85169 0.21542
 H207 H 0.12252 0.85797 0.34880
 H208 H 0.16600 0.82989 0.30948
 Zn209 Zn 0.06859 0.98070 -0.00086
 Zn210 Zn 0.01996 1.06576 -0.03307
 Zn211 Zn -0.03077 0.97493 -0.03252
 Zn212 Zn -0.00778 1.02247 0.05552
 O213 O 0.01246 1.01095 -0.00293
 O214 O 0.11458 1.01126 -0.02898
 O215 O -0.01597 1.06895 -0.08375
 O216 O -0.00669 0.92092 -0.05228
 O217 O 0.07896 1.07512 -0.05182
 O218 O 0.06664 0.92585 -0.02847
 O219 O -0.05391 1.00266 -0.08272
 O220 O -0.06317 0.99839 0.06740
 O221 O 0.00468 1.11495 0.00164
 O222 O -0.08074 0.96153 0.00304
 O223 O -0.01532 1.08209 0.06758
 O224 O 0.02999 0.99900 0.09835
 O225 O 0.08799 0.96951 0.05687
 C226 C 0.11539 1.05014 -0.04868
 C227 C -0.04540 1.04128 -0.10113
 C228 C 0.03426 0.90412 -0.04880
 C229 C -0.09064 0.97378 0.04403
 C230 C -0.01013 1.11764 0.04283
 C231 C 0.06852 0.97740 0.09539
 Zn232 Zn 0.43558 0.01067 0.50495
 Zn233 Zn 0.53117 0.01762 0.46343
 Zn234 Zn 0.51964 -0.01352 0.56146
 Zn235 Zn 0.48986 -0.07452 0.48478
 O236 O 0.49414 -0.01485 0.50359
 O237 O 0.43083 0.06138 0.46998
 O238 O 0.58269 0.04020 0.49081
 O239 O 0.48211 0.01361 0.60268
 O240 O 0.50139 0.06666 0.43906
 O241 O 0.41836 0.02826 0.56162
 O242 O 0.57337 0.01740 0.56316
 O243 O 0.51331 -0.11444 0.52580
 O244 O 0.55094 -0.01671 0.41536
 O245 O 0.53302 -0.06958 0.58419
 O246 O 0.52037 -0.08454 0.43196
 O247 O 0.43099 -0.09225 0.47382
 O248 O 0.39122 -0.02779 0.48543
 C249 C 0.46006 0.08199 0.44440
 C250 C 0.59668 0.03825 0.53238
 C251 C 0.44068 0.02914 0.59940
 C252 C 0.52994 -0.10910 0.56607
 C253 C 0.54408 -0.05876 0.40570
 C254 C 0.39281 -0.06987 0.47391
 Zn255 Zn 0.94176 0.47134 0.49478
 Zn256 Zn 1.03490 0.45867 0.54028
 Zn257 Zn 1.02821 0.50343 0.44722
 Zn258 Zn 0.99311 0.55229 0.53131
 O259 O 0.99957 0.49639 0.50334
 O260 O 0.93574 0.41644 0.52188
 O261 O 1.08627 0.43735 0.51178
 O262 O 0.99214 0.48591 0.39941
 O263 O 1.00378 0.40848 0.55760
 O264 O 0.92782 0.46312 0.43509
 O265 O 1.08081 0.46993 0.44286
 O266 O 1.01961 0.59757 0.49917
 O267 O 1.05412 0.48610 0.59267
 O268 O 1.04518 0.56187 0.43640
 O269 O 1.02077 0.55461 0.58646
 O270 O 0.93328 0.56812 0.54148
 O271 O 0.89567 0.50606 0.51805
 C272 C 0.96337 0.39377 0.54767
 C273 C 1.10181 0.44369 0.47128
 C274 C 0.95097 0.46977 0.39836
 C275 C 1.04066 0.59801 0.46067
 C276 C 1.04568 0.52593 0.60863
 C277 C 0.89574 0.54573 0.53618
 Zn278 Zn 0.47602 0.50229 0.95754
 Zn279 Zn 0.55644 0.54029 1.00937
 Zn280 Zn 0.46117 0.54344 1.05186
 Zn281 Zn 0.51222 0.45384 1.04132
 O282 O 0.50131 0.51000 1.01505
 O283 O 0.51145 0.52552 0.91185
 O284 O 0.55617 0.59262 1.04029
 O285 O 0.40937 0.56104 1.02142
 O286 O 0.57006 0.55588 0.95105
 O287 O 0.42031 0.53032 0.95222
 O288 O 0.48669 0.59566 1.07365
 O289 O 0.48194 0.44665 1.09463
 O290 O 0.60538 0.50866 1.03188
 O291 O 0.44186 0.51163 1.10157
 O292 O 0.57277 0.44349 1.05413
 O293 O 0.49214 0.40743 1.00633
 O294 O 0.46582 0.44322 0.94392
 C295 C 0.54926 0.54815 0.91321
 C296 C 0.52659 0.61285 1.06589
 C297 C 0.39588 0.55390 0.98031
 C298 C 0.45304 0.47192 1.11625
 C299 C 0.60839 0.46900 1.04985
 C300 C 0.47284 0.40669 0.96696
 C301 C 1.16600 0.42816 0.41693
 C302 C 1.14469 0.41914 0.45708
 H303 H 1.15250 0.45554 0.39520
 H304 H 1.15841 0.39301 0.48010
 C305 C 0.33153 0.56332 0.92462
 C306 C 0.35122 0.57434 0.96502
 H307 H 0.34744 0.53712 0.90304
 H308 H 0.33444 0.59916 0.98752
 C309 C -0.16323 0.92868 0.04811
 C310 C -0.13454 0.95986 0.06616
 H311 H -0.15456 0.91228 0.01561
 H312 H -0.14227 0.97464 0.09963
 C313 C 0.66004 0.05569 0.58682
 C314 C 0.64052 0.06145 0.54516
 H315 H 0.64445 0.03216 0.61131
 H316 H 0.65681 0.08361 0.51989
 C317 C 0.40533 0.14609 0.42897
 C318 C 0.44638 0.12501 0.42068
 H319 H 0.38110 0.13067 0.45315
 H320 H 0.47145 0.14010 0.39721
 C321 C 0.90833 0.32923 0.55637
 C322 C 0.94873 0.34968 0.56749
 H323 H 0.88569 0.34473 0.53062
 H324 H 0.97239 0.33408 0.59217
 C325 C 0.08525 0.83689 -0.06148
 C326 C 0.04457 0.85877 -0.06952
 H327 H 0.11007 0.85205 -0.03773
 H328 H 0.01846 0.84370 -0.09185
 C329 C 0.57814 0.67882 1.07302
 C330 C 0.53944 0.65709 1.08698
 H331 H 0.59854 0.66432 1.04494
 H332 H 0.51741 0.67131 1.11390
 C333 C 0.44494 0.41551 1.17917
 C334 C 0.43078 0.45446 1.15856
 H335 H 0.47550 0.39728 1.16649
 H336 H 0.40158 0.47384 1.17250
 C337 C 0.59111 -0.05649 0.33396
 C338 C 0.56282 -0.07895 0.36290
 H339 H 0.60287 -0.02217 0.34234
 H340 H 0.55265 -0.11390 0.35522
 C341 C -0.05893 1.09037 -0.16878
 C342 C -0.07082 1.05388 -0.14347
 H343 H -0.02920 1.11100 -0.15874
 H344 H -0.09937 1.03212 -0.15431
 C345 C 1.05342 0.57824 0.67491
 C346 C 1.06617 0.53938 0.65331
 H347 H 1.02566 0.59945 0.66070
 H348 H 1.09256 0.51708 0.66830
 C349 C 0.81506 0.54083 0.56470
 C350 C 0.85154 0.56646 0.55184
 H351 H 0.81792 0.50367 0.56463
 H352 H 0.85006 0.60349 0.55551
 C353 C 0.66341 0.40940 1.07675
 C354 C 0.65396 0.45358 1.06794
 H355 H 0.63855 0.38311 1.06720
 H356 H 0.68031 0.47938 1.07450
 C357 C 0.17031 1.11013 -0.07287
 C358 C 0.15960 1.06565 -0.06904
 H359 H 0.14709 1.13615 -0.05880
 H360 H 0.18478 1.03966 -0.07947
 C361 C 0.31334 -0.06941 0.44278
 C362 C 0.34986 -0.09323 0.45908
 H363 H 0.31506 -0.03225 0.44084
 H364 H 0.34990 -0.13044 0.45755
 C365 C 0.56016 -0.18778 0.57017
 C366 C 0.54701 -0.14941 0.59208
 H367 H 0.55840 -0.18920 0.53282
 H368 H 0.55219 -0.14631 0.62900
 C369 C 1.06936 0.65045 0.40063
 C370 C 1.06128 0.64147 0.44509
 H371 H 1.05833 0.62642 0.37429
 H372 H 1.06858 0.66745 0.47088
 C373 C -0.06120 1.16641 0.08901
 C374 C -0.02366 1.16271 0.06173
 H375 H -0.08169 1.13613 0.09669
 H376 H -0.00600 1.19327 0.04962
 C377 C 0.44758 0.35574 0.90438
 C378 C 0.45607 0.36258 0.94914
 H379 H 0.45723 0.38144 0.87910
 H380 H 0.44965 0.33523 0.97372
 C381 C 0.56191 0.54913 0.82900
 C382 C 0.56882 0.56782 0.87057
 H383 H 0.54394 0.51661 0.82595
 H384 H 0.59048 0.59810 0.87366
 C385 C 0.44249 0.07417 0.67023
 C386 C 0.41802 0.04951 0.63995
 H387 H 0.47950 0.07981 0.66468
 H388 H 0.38027 0.04781 0.64270
 C389 C 0.06376 0.93683 0.16817
 C390 C 0.08997 0.95920 0.13746
 H391 H 0.02679 0.93189 0.16164
 H392 H 0.12768 0.95989 0.14101
 C393 C 0.95356 0.44805 0.31595
 C394 C 0.92889 0.45786 0.35403
 H395 H 0.99143 0.44865 0.31702
 H396 H 0.89127 0.45367 0.35388
   
