data_POSCAR
  _audit_creation_date              2014-09-24
  _audit_creation_method            'ToBaCCo'
  _symmetry_space_group_name_H-M    'P1'
  _symmetry_Int_Tables_number       1
  _symmetry_cell_setting            triclinic
  loop_
  _symmetry_equiv_pos_as_xyz
 x,y,z
_cell_length_a 54.6768
_cell_length_b 32.7292
_cell_length_c 19.5703
_cell_angle_alpha 89.980600
_cell_angle_beta 89.864000
_cell_angle_gamma 90.178400
loop_
  _atom_site_label
  _atom_site_type_symbol
  _atom_site_fract_x
  _atom_site_fract_y
  _atom_site_fract_z
C1 C 0.75010 0.25159 0.46902
 C2 C 0.74994 0.25176 0.53874
 C3 C 0.72861 0.26715 0.57820
 C4 C 0.77108 0.23654 0.57879
 C5 C 0.77017 0.23214 0.42951
 C6 C 0.73022 0.27086 0.42885
 C7 C 0.73194 0.29801 0.62714
 C8 C 0.71190 0.31389 0.66265
 C9 C 0.68831 0.29881 0.65003
 C10 C 0.68496 0.26725 0.60247
 C11 C 0.70503 0.25135 0.56704
 C12 C 0.79471 0.25234 0.56791
 C13 C 0.81463 0.23643 0.60364
 C14 C 0.81110 0.20492 0.65110
 C15 C 0.78751 0.18986 0.66355
 C16 C 0.76758 0.20572 0.62780
 C17 C 0.77651 0.19108 0.44062
 C18 C 0.79592 0.17354 0.40454
 C19 C 0.80898 0.19669 0.35651
 C20 C 0.80237 0.23730 0.34406
 C21 C 0.78299 0.25489 0.38016
 C22 C 0.71758 0.24787 0.37964
 C23 C 0.69832 0.26527 0.34307
 C24 C 0.69165 0.30592 0.35490
 C25 C 0.70455 0.32932 0.40274
 C26 C 0.72384 0.31197 0.43929
 H27 H 0.75000 0.31040 0.63672
 H28 H 0.71484 0.33822 0.69935
 H29 H 0.66687 0.25506 0.59226
 H30 H 0.70215 0.22701 0.53043
 H31 H 0.79772 0.27663 0.53122
 H32 H 0.83279 0.24841 0.59380
 H33 H 0.74949 0.19332 0.63716
 H34 H 0.76655 0.17279 0.47753
 H35 H 0.80082 0.14204 0.41438
 H36 H 0.81233 0.25547 0.30693
 H37 H 0.77828 0.28650 0.37057
 H38 H 0.72233 0.21622 0.37059
 H39 H 0.68848 0.24692 0.30610
 H40 H 0.69959 0.36085 0.41210
 H41 H 0.73367 0.33043 0.47610
 H42 H 0.78457 0.16553 0.70024
 C43 C 0.24963 0.74876 0.46558
 C44 C 0.24975 0.74874 0.53529
 C45 C 0.22863 0.76416 0.57545
 C46 C 0.27102 0.73329 0.57466
 C47 C 0.26948 0.72926 0.42538
 C48 C 0.22963 0.76829 0.42612
 C49 C 0.23218 0.79503 0.62427
 C50 C 0.21227 0.81105 0.66017
 C51 C 0.18866 0.79612 0.64805
 C52 C 0.18507 0.76458 0.60077
 C53 C 0.20497 0.74850 0.56489
 C54 C 0.29466 0.74891 0.56317
 C55 C 0.31465 0.73295 0.59856
 C56 C 0.31119 0.70156 0.64629
 C57 C 0.28761 0.68663 0.65925
 C58 C 0.26760 0.70254 0.62385
 C59 C 0.27575 0.68813 0.43608
 C60 C 0.29507 0.67059 0.39966
 C61 C 0.30811 0.69383 0.35170
 C62 C 0.30154 0.73449 0.33957
 C63 C 0.28225 0.75208 0.37600
 C64 C 0.21676 0.74554 0.37705
 C65 C 0.19743 0.76319 0.34110
 C66 C 0.19090 0.80386 0.35341
 C67 C 0.20402 0.82701 0.40113
 C68 C 0.22338 0.80940 0.43707
 H69 H 0.25030 0.80733 0.63338
 H70 H 0.21526 0.83540 0.69672
 H71 H 0.16688 0.75269 0.59120
 H72 H 0.20191 0.72418 0.52836
 H73 H 0.29761 0.77316 0.52637
 H74 H 0.33280 0.74485 0.58834
 H75 H 0.24951 0.69026 0.63370
 H76 H 0.26582 0.66981 0.47302
 H77 H 0.29994 0.63905 0.40926
 H78 H 0.31149 0.75271 0.30250
 H79 H 0.27759 0.78374 0.36676
 H80 H 0.22140 0.71388 0.36760
 H81 H 0.18743 0.74502 0.30421
 H82 H 0.19919 0.85856 0.41086
 H83 H 0.23338 0.82769 0.47375
 H84 H 0.28472 0.66241 0.69617
 C85 C 0.25020 0.24852 -0.46660
 C86 C 0.25032 0.24859 -0.53631
 C87 C 0.27040 0.26816 -0.57598
 C88 C 0.23039 0.22911 -0.57628
 C89 C 0.22887 0.23309 -0.42694
 C90 C 0.27139 0.26387 -0.42668
 C91 C 0.27681 0.30925 -0.56496
 C92 C 0.29626 0.32690 -0.60097
 C93 C 0.30934 0.30378 -0.64891
 C94 C 0.30263 0.26311 -0.66130
 C95 C 0.28319 0.24546 -0.62524
 C96 C 0.21772 0.25194 -0.62548
 C97 C 0.19835 0.23439 -0.66166
 C98 C 0.19159 0.19371 -0.64944
 C99 C 0.20456 0.17046 -0.60162
 C100 C 0.22396 0.18800 -0.56549
 C101 C 0.23218 0.20241 -0.37769
 C102 C 0.21214 0.18664 -0.34175
 C103 C 0.18860 0.20163 -0.35427
 C104 C 0.18526 0.23295 -0.40217
 C105 C 0.20530 0.24876 -0.43805
 C106 C 0.29498 0.24817 -0.43755
 C107 C 0.31493 0.26406 -0.40166
 C108 C 0.31146 0.29544 -0.35403
 C109 C 0.28791 0.31043 -0.34166
 C110 C 0.26795 0.29461 -0.37758
 H111 H 0.26686 0.32750 -0.52811
 H112 H 0.30118 0.35845 -0.59103
 H113 H 0.31254 0.24488 -0.69832
 H114 H 0.27842 0.21382 -0.63474
 H115 H 0.22252 0.28359 -0.63479
 H116 H 0.18851 0.25272 -0.69858
 H117 H 0.23381 0.16967 -0.52868
 H118 H 0.25022 0.19012 -0.36812
 H119 H 0.21502 0.16248 -0.30476
 H120 H 0.16717 0.24499 -0.41219
 H121 H 0.20244 0.27296 -0.47490
 H122 H 0.29795 0.22394 -0.47429
 H123 H 0.33306 0.25212 -0.41143
 H124 H 0.28501 0.33466 -0.30484
 H125 H 0.24989 0.30693 -0.36821
 H126 H 0.19961 0.13890 -0.59182
 C127 C -0.25062 0.75099 -0.46694
 C128 C -0.25070 0.75108 -0.53666
 C129 C -0.23079 0.77079 -0.57666
 C130 C -0.27069 0.73145 -0.57628
 C131 C -0.27179 0.73536 -0.42693
 C132 C -0.22938 0.76652 -0.42738
 C133 C -0.22448 0.81193 -0.56574
 C134 C -0.20507 0.82967 -0.60183
 C135 C -0.19196 0.80659 -0.64973
 C136 C -0.19860 0.76588 -0.66211
 C137 C -0.21799 0.74814 -0.62597
 C138 C -0.28350 0.75416 -0.62535
 C139 C -0.30286 0.73644 -0.66138
 C140 C -0.30947 0.69569 -0.64915
 C141 C -0.29637 0.67257 -0.60141
 C142 C -0.27700 0.69028 -0.56543
 C143 C -0.26828 0.70455 -0.37802
 C144 C -0.28820 0.68846 -0.34198
 C145 C -0.31181 0.70327 -0.35404
 C146 C -0.31535 0.73475 -0.40153
 C147 C -0.29543 0.75088 -0.43752
 C148 C -0.20575 0.75107 -0.43872
 C149 C -0.18578 0.76702 -0.40294
 C150 C -0.18926 0.79821 -0.35497
 C151 C -0.21284 0.81299 -0.34221
 C152 C -0.23281 0.79711 -0.37801
 H153 H -0.23443 0.83012 -0.52883
 H154 H -0.20020 0.86124 -0.59190
 H155 H -0.18866 0.74768 -0.69909
 H156 H -0.22268 0.71646 -0.63537
 H157 H -0.27881 0.78585 -0.63472
 H158 H -0.31278 0.75468 -0.69824
 H159 H -0.26703 0.67203 -0.52874
 H160 H -0.25018 0.69238 -0.36888
 H161 H -0.28517 0.66418 -0.30531
 H162 H -0.33350 0.74664 -0.41119
 H163 H -0.29844 0.77516 -0.47411
 H164 H -0.20278 0.72695 -0.47566
 H165 H -0.16764 0.75523 -0.41301
 H166 H -0.21575 0.83707 -0.30512
 H167 H -0.25089 0.80924 -0.36826
 H168 H -0.30121 0.64096 -0.59161
 N169 N 0.02603 1.07297 -0.07207
 N170 N 0.04422 1.09893 -0.08212
 N171 N -0.02554 1.04497 -0.11923
 N172 N -0.04370 1.05096 -0.16244
 N173 N -0.02541 1.07332 -0.07172
 N174 N -0.04346 1.09939 -0.08124
 N175 N 0.02591 1.04461 -0.11956
 N176 N 0.04402 1.05048 -0.16327
 C177 C 0.05524 1.08435 -0.13899
 C178 C -0.05465 1.08490 -0.13783
 N179 N -0.02605 0.92842 -0.07210
 N180 N -0.04421 0.90243 -0.08210
 N181 N 0.02553 0.95651 -0.11973
 N182 N 0.04368 0.95058 -0.16322
 N183 N 0.02539 0.92807 -0.07234
 N184 N 0.04343 0.90199 -0.08222
 N185 N -0.02593 0.95687 -0.11947
 N186 N -0.04400 0.95105 -0.16304
 Mn187 Mn -0.00001 1.00074 -0.12029
 C188 C -0.05521 0.91711 -0.13880
 C189 C 0.05462 0.91658 -0.13890
 N190 N -0.02547 1.07312 0.07553
 N191 N -0.04384 1.09865 0.08478
 N192 N 0.02588 1.04428 0.12252
 N193 N 0.04437 1.04929 0.16494
 N194 N 0.02604 1.07275 0.07519
 N195 N 0.04467 1.09795 0.08408
 N196 N -0.02557 1.04464 0.12283
 N197 N -0.04398 1.04996 0.16559
 Mn198 Mn 0.00030 1.07353 0.00175
 C199 C -0.05514 1.08369 0.14107
 C200 C 0.05585 1.08281 0.14017
 N201 N 0.02541 0.92797 0.07491
 N202 N 0.04379 0.90244 0.08382
 N203 N -0.02595 0.95671 0.12260
 N204 N -0.04448 0.95164 0.16515
 N205 N -0.02610 0.92834 0.07515
 N206 N -0.04475 0.90315 0.08406
 N207 N 0.02549 0.95635 0.12234
 N208 N 0.04390 0.95095 0.16486
 Mn209 Mn -0.00034 0.92772 0.00142
 Mn210 Mn -0.00004 1.00050 0.12334
 Cl211 Cl -0.00002 1.00062 0.00152
 C212 C 0.05508 0.91729 0.14004
 C213 C -0.05595 0.91819 0.14031
 N214 N 0.47477 0.42672 -0.07342
 N215 N 0.45666 0.40060 -0.08319
 N216 N 0.52625 0.45544 -0.12084
 N217 N 0.54443 0.44963 -0.16428
 N218 N 0.52621 0.42708 -0.07332
 N219 N 0.54435 0.40118 -0.08307
 N220 N 0.47479 0.45508 -0.12095
 N221 N 0.45671 0.44905 -0.16440
 C222 C 0.44561 0.41508 -0.13993
 C223 C 0.55551 0.41579 -0.13980
 N224 N 0.52610 0.57198 -0.07374
 N225 N 0.54419 0.59815 -0.08369
 N226 N 0.47472 0.54319 -0.12122
 N227 N 0.45663 0.54892 -0.16473
 N228 N 0.47466 0.57163 -0.07386
 N229 N 0.45654 0.59750 -0.08381
 N230 N 0.52618 0.54354 -0.12110
 N231 N 0.54432 0.54957 -0.16463
 Mn232 Mn 0.50049 0.49931 -0.12182
 C233 C 0.55534 0.58361 -0.14037
 C234 C 0.44550 0.58279 -0.14048
 N235 N 0.52606 0.42727 0.07395
 N236 N 0.54457 0.40203 0.08309
 N237 N 0.47450 0.45537 0.12111
 N238 N 0.45602 0.45005 0.16371
 N239 N 0.47455 0.42690 0.07383
 N240 N 0.45606 0.40138 0.08292
 N241 N 0.52595 0.45574 0.12124
 N242 N 0.54435 0.45070 0.16390
 Mn243 Mn 0.50040 0.42651 0.00028
 C244 C 0.55572 0.41716 0.13930
 C245 C 0.44476 0.41633 0.13909
 N246 N 0.47447 0.57169 0.07338
 N247 N 0.45593 0.59692 0.08222
 N248 N 0.52591 0.54366 0.12099
 N249 N 0.54430 0.54906 0.16365
 N250 N 0.52598 0.57204 0.07352
 N251 N 0.54445 0.59758 0.08255
 N252 N 0.47446 0.54330 0.12084
 N253 N 0.45594 0.54839 0.16331
 Mn254 Mn 0.50031 0.57232 -0.00016
 Mn255 Mn 0.50021 0.49952 0.12181
 Cl256 Cl 0.50035 0.49941 -0.00001
 C257 C 0.44463 0.58188 0.13843
 C258 C 0.55562 0.58273 0.13888
 C259 C 0.32882 0.32053 0.31762
 C260 C 0.34623 0.33516 0.28856
 C261 C 0.36682 0.35215 0.25527
 C262 C 0.38453 0.36665 0.22752
 C263 C 0.40542 0.38371 0.19583
 C264 C 0.42334 0.39845 0.16951
 C265 C -0.17246 0.82335 0.31699
 C266 C -0.15500 0.83797 0.28817
 C267 C -0.13434 0.85489 0.25526
 C268 C -0.11653 0.86928 0.22784
 C269 C -0.09553 0.88614 0.19654
 C270 C -0.07750 0.90066 0.17050
 C271 C 0.67113 0.67887 0.31739
 C272 C 0.65379 0.66418 0.28835
 C273 C 0.63328 0.64712 0.25507
 C274 C 0.61563 0.63257 0.22732
 C275 C 0.59482 0.61545 0.19563
 C276 C 0.57697 0.60066 0.16930
 C277 C 0.17212 1.17712 0.31717
 C278 C 0.15469 1.16264 0.28827
 C279 C 0.13407 1.14586 0.25524
 C280 C 0.11630 1.13157 0.22774
 C281 C 0.09535 1.11479 0.19638
 C282 C 0.07735 1.10032 0.17032
 C283 C 0.66946 0.31467 -0.31850
 C284 C 0.65208 0.32964 -0.28998
 C285 C 0.63173 0.34754 -0.25720
 C286 C 0.61433 0.36304 -0.22968
 C287 C 0.59391 0.38137 -0.19795
 C288 C 0.57642 0.39708 -0.17122
 C289 C 0.16806 0.81386 -0.31713
 C290 C 0.15079 0.82913 -0.28866
 C291 C 0.13054 0.84737 -0.25600
 C292 C 0.11321 0.86315 -0.22860
 C293 C 0.09287 0.88177 -0.19701
 C294 C 0.07545 0.89769 -0.17035
 C295 C 0.33187 0.68406 -0.31912
 C296 C 0.34920 0.66901 -0.29071
 C297 C 0.36949 0.65104 -0.25803
 C298 C 0.38684 0.63550 -0.23055
 C299 C 0.40721 0.61715 -0.19882
 C300 C 0.42465 0.60145 -0.17204
 C301 C -0.16827 1.18731 -0.31430
 C302 C -0.15097 1.17213 -0.28603
 C303 C -0.13069 1.15398 -0.25364
 C304 C -0.11333 1.13826 -0.22650
 C305 C -0.09296 1.11969 -0.19524
 C306 C -0.07551 1.10379 -0.16889
 C307 C 0.66868 0.68650 -0.32078
 C308 C 0.65142 0.67127 -0.29191
 C309 C 0.63119 0.65306 -0.25877
 C310 C 0.61388 0.63728 -0.23097
 C311 C 0.59357 0.61863 -0.19895
 C312 C 0.57616 0.60264 -0.17202
 C313 C 0.16898 1.18526 -0.32090
 C314 C 0.15163 1.17039 -0.29185
 C315 C 0.13132 1.15259 -0.25842
 C316 C 0.11395 1.13715 -0.23034
 C317 C 0.09357 1.11886 -0.19800
 C318 C 0.07611 1.10313 -0.17083
 C319 C 0.33210 0.31293 -0.31905
 C320 C 0.34940 0.32801 -0.29037
 C321 C 0.36967 0.34606 -0.25746
 C322 C 0.38700 0.36171 -0.22987
 C323 C 0.40735 0.38024 -0.19809
 C324 C 0.42478 0.39614 -0.17135
 C325 C -0.16862 0.81565 -0.31985
 C326 C -0.15133 0.83066 -0.29098
 C327 C -0.13108 0.84860 -0.25773
 C328 C -0.11377 0.86415 -0.22981
 C329 C -0.09345 0.88254 -0.19762
 C330 C -0.07604 0.89831 -0.17056
 C331 C 0.32860 0.67629 0.31614
 C332 C 0.34598 0.66182 0.28706
 C333 C 0.36656 0.64504 0.25384
 C334 C 0.38429 0.63075 0.22621
 C335 C 0.40521 0.61395 0.19472
 C336 C 0.42316 0.59945 0.16859
 C337 C -0.17053 1.17908 0.32095
 C338 C -0.15319 1.16454 0.29172
 C339 C -0.13270 1.14765 0.25818
 C340 C -0.11507 1.13323 0.23020
 C341 C -0.09428 1.11625 0.19823
 C342 C -0.07645 1.10155 0.17169
 C343 C 0.67123 0.32330 0.31906
 C344 C 0.65391 0.33764 0.28969
 C345 C 0.63343 0.35428 0.25609
 C346 C 0.61578 0.36847 0.22811
 C347 C 0.59496 0.38517 0.19623
 C348 C 0.57709 0.39962 0.16979
 C349 C 0.17044 0.82153 0.31808
 C350 C 0.15311 0.83613 0.28909
 C351 C 0.13263 0.85309 0.25587
 C352 C 0.11500 0.86757 0.22816
 C353 C 0.09422 0.88462 0.19655
 C354 C 0.07639 0.89937 0.17031
   
