data_POSCAR
  _audit_creation_date              2014-09-24
  _audit_creation_method            'ToBaCCo'
  _symmetry_space_group_name_H-M    'P1'
  _symmetry_Int_Tables_number       1
  _symmetry_cell_setting            triclinic
  loop_
  _symmetry_equiv_pos_as_xyz
 x,y,z
_cell_length_a 17.9696
_cell_length_b 17.9252
_cell_length_c 17.8801
_cell_angle_alpha 90.247400
_cell_angle_beta 90.212100
_cell_angle_gamma 89.498100
loop_
  _atom_site_label
  _atom_site_type_symbol
  _atom_site_fract_x
  _atom_site_fract_y
  _atom_site_fract_z
C1 C 0.34531 0.98766 -0.56688
 C2 C 0.30815 0.98889 -0.49718
 C3 C 0.34566 0.98561 -0.42774
 C4 C 0.42316 0.97103 -0.42855
 C5 C 0.46215 0.97116 -0.49717
 C6 C 0.42291 0.97171 -0.56598
 C7 C 0.46248 0.95086 -0.63058
 C8 C 0.53970 0.94868 -0.63039
 C9 C 0.58019 0.96731 -0.56561
 C10 C 0.54115 0.96927 -0.49696
 C11 C 0.46286 0.95103 -0.36380
 C12 C 0.54003 0.94962 -0.36355
 C13 C 0.58020 0.96821 -0.42806
 C14 C 0.65810 0.98033 -0.42682
 C15 C 0.69556 0.97896 -0.49633
 C16 C 0.65829 0.97867 -0.56629
 H17 H 0.43455 0.93519 -0.68179
 H18 H 0.56692 0.93162 -0.68151
 H19 H 0.43516 0.93523 -0.31288
 H20 H 0.56748 0.93299 -0.31234
 H21 H 0.24809 0.98991 -0.49690
 H22 H 0.75563 0.97633 -0.49585
 C23 C -0.42582 1.65777 -0.01619
 C24 C -0.49339 1.69867 -0.01341
 C25 C -0.56430 1.66484 -0.01705
 C26 C -0.56637 1.58719 -0.03324
 C27 C -0.49958 1.54485 -0.03339
 C28 C -0.42972 1.58061 -0.03248
 C29 C -0.36700 1.53809 -0.05297
 C30 C -0.36983 1.46076 -0.05434
 C31 C -0.43595 1.42355 -0.03670
 C32 C -0.50267 1.46586 -0.03537
 C33 C -0.63234 1.55033 -0.05373
 C34 C -0.63510 1.47301 -0.05585
 C35 C -0.57245 1.42998 -0.03656
 C36 C -0.57620 1.35232 -0.02352
 C37 C -0.50857 1.31142 -0.02232
 C38 C -0.43807 1.34565 -0.02448
 H39 H -0.31540 1.56369 -0.06916
 H40 H -0.31970 1.43094 -0.06985
 H41 H -0.68257 1.58036 -0.06859
 H42 H -0.68657 1.44776 -0.07368
 H43 H -0.49000 1.75869 -0.01107
 H44 H -0.51143 1.25135 -0.02127
 C45 C 0.00550 0.57004 0.66379
 C46 C -0.00160 0.50085 0.70107
 C47 C -0.00896 0.43229 0.66203
 C48 C -0.02199 0.43662 0.58393
 C49 C -0.00178 0.50212 0.54547
 C50 C 0.01819 0.56709 0.58563
 C51 C 0.05104 0.62598 0.54626
 C52 C 0.05096 0.62655 0.46857
 C53 C 0.01833 0.56817 0.42789
 C54 C -0.00170 0.50269 0.46640
 C55 C -0.05613 0.37908 0.54305
 C56 C -0.05596 0.37962 0.46533
 C57 C -0.02173 0.43778 0.42619
 C58 C -0.00841 0.43463 0.34813
 C59 C -0.00111 0.50371 0.31076
 C60 C 0.00640 0.57196 0.34986
 H61 H 0.07701 0.67214 0.57506
 H62 H 0.07711 0.67287 0.44079
 H63 H -0.08317 0.33318 0.57070
 H64 H -0.08270 0.33405 0.43625
 H65 H -0.00106 0.50018 0.76158
 H66 H -0.00108 0.50446 0.25025
 O67 O -0.18998 1.00174 -0.10053
 O68 O 0.19085 1.00685 -0.09923
 O69 O -0.00274 1.10524 -0.18786
 O70 O 0.00237 0.89748 -0.18630
 O71 O 0.01084 0.80992 -0.09240
 O72 O -0.01108 1.19485 -0.09504
 O73 O 0.09796 0.99844 -0.18803
 O74 O -0.09700 1.00116 -0.18897
 Zr75 Zr 0.00026 1.00200 -0.12692
 O76 O 0.07045 0.93683 -0.06307
 O77 O -0.06966 1.06892 -0.06418
 C78 C -0.16590 1.00252 -0.16949
 C79 C 0.16682 1.00261 -0.16816
 C80 C -0.00726 1.17431 -0.16417
 C81 C 0.00649 0.82894 -0.16173
 H82 H 0.09512 1.10423 -0.09544
 O83 O 0.06453 1.07210 -0.06322
 H84 H -0.09538 0.90105 -0.09425
 O85 O -0.06435 0.93379 -0.06255
 O86 O 0.19125 1.01231 0.10829
 O87 O -0.18993 0.99805 0.10814
 O88 O 0.09648 1.19815 0.00555
 O89 O 0.11126 0.81573 0.00417
 O90 O -0.09643 0.80976 0.00868
 O91 O -0.11064 1.19163 0.00117
 O92 O 0.00118 1.10873 0.19544
 O93 O -0.00008 0.90164 0.19640
 O94 O -0.00639 1.19709 0.10214
 O95 O 0.00743 0.81185 0.10388
 O96 O 0.18813 1.10721 0.00388
 O97 O -0.19543 1.09594 0.00001
 O98 O -0.18785 0.90093 0.00473
 O99 O 0.19600 0.91153 0.00141
 O100 O 0.09881 1.00717 0.19723
 O101 O -0.09652 0.99922 0.19686
 Zr102 Zr 0.13095 1.00746 0.00443
 Zr103 Zr -0.13025 1.00031 0.00404
 Zr104 Zr -0.00478 1.13494 0.00386
 Zr105 Zr 0.00536 0.87234 0.00531
 Zr106 Zr 0.00081 1.00467 0.13562
 O107 O -0.06456 0.93469 0.07239
 O108 O 0.06564 1.07415 0.07211
 C109 C 0.16758 1.01116 0.17732
 C110 C -0.16558 0.99796 0.17721
 C111 C 0.16598 1.17580 0.00516
 C112 C 0.17897 0.84186 0.00266
 C113 C -0.16591 0.83236 0.00790
 C114 C -0.17839 1.16557 -0.00017
 C115 C -0.00182 1.17745 0.17136
 C116 C 0.00263 0.83255 0.17285
 H117 H -0.10196 1.10092 0.10339
 O118 O -0.06911 1.06976 0.07159
 H119 H 0.10312 0.90803 0.10434
 O120 O 0.07023 0.93878 0.07224
 C121 C 0.30231 0.99824 0.36427
 C122 C 0.34107 1.03744 0.29749
 C123 C 0.29911 1.04094 0.23342
 C124 C 0.22090 1.00883 0.24264
 C125 C 0.23316 0.92878 0.27008
 C126 C 0.27526 0.92326 0.33296
 C127 C 0.23130 1.04653 0.37334
 C128 C 0.18923 1.05164 0.31055
 H129 H 0.39462 1.06473 0.30144
 H130 H 0.31811 1.06847 0.18326
 H131 H 0.21102 0.88004 0.24167
 H132 H 0.28871 0.86975 0.35812
 H133 H 0.21891 1.08102 0.42185
 H134 H 0.14122 1.08862 0.30762
 C135 C -0.29879 0.98743 0.36483
 C136 C -0.27483 0.91157 0.33197
 C137 C -0.23309 0.91589 0.26896
 C138 C -0.21812 0.99568 0.24304
 C139 C -0.29500 1.03253 0.23481
 C140 C -0.33656 1.03001 0.29886
 C141 C -0.22602 1.03153 0.37460
 C142 C -0.18435 1.03547 0.31194
 H143 H -0.28995 0.85844 0.35630
 H144 H -0.21286 0.86658 0.23965
 H145 H -0.31293 1.06288 0.18551
 H146 H -0.38884 1.06041 0.30356
 H147 H -0.21227 1.06509 0.42332
 H148 H -0.13555 1.07075 0.30984
 C149 C -0.29916 0.99047 -0.35769
 C150 C -0.27392 0.91516 -0.32526
 C151 C -0.23215 0.92038 -0.26214
 C152 C -0.21851 1.00045 -0.23548
 C153 C -0.18543 1.04066 -0.30384
 C154 C -0.22713 1.03574 -0.36687
 C155 C -0.33751 1.03269 -0.29166
 C156 C -0.29590 1.03608 -0.22733
 H157 H -0.28761 0.86171 -0.35035
 H158 H -0.21009 0.87149 -0.23382
 H159 H -0.13690 1.07631 -0.30117
 H160 H -0.21376 1.06873 -0.41571
 H161 H -0.39011 1.06250 -0.29659
 H162 H -0.31396 1.06668 -0.17802
 C163 C 0.30056 0.99468 -0.35494
 C164 C 0.22842 1.04101 -0.36347
 C165 C 0.18657 1.04446 -0.30070
 C166 C 0.21961 1.00158 -0.23350
 C167 C 0.23355 0.92222 -0.26264
 C168 C 0.27558 0.91864 -0.32545
 C169 C 0.33877 1.03378 -0.28732
 C170 C 0.29697 1.03570 -0.22337
 H171 H 0.21499 1.07551 -0.41146
 H172 H 0.13761 1.08019 -0.29729
 H173 H 0.21181 0.87269 -0.23607
 H174 H 0.28981 0.86596 -0.35221
 H175 H 0.39166 1.06230 -0.29075
 H176 H 0.31505 1.06402 -0.17278
 C177 C 0.35033 1.31002 -0.01165
 C178 C 0.35865 1.24324 0.04164
 C179 C 0.29640 1.20184 0.04816
 C180 C 0.22979 1.22975 0.00102
 C181 C 0.21871 1.31065 0.02699
 C182 C 0.28223 1.35224 0.02245
 C183 C 0.32190 1.27687 -0.08554
 C184 C 0.25958 1.23526 -0.07901
 H185 H 0.40693 1.23303 0.07692
 H186 H 0.29313 1.15645 0.08786
 H187 H 0.16783 1.33192 0.05184
 H188 H 0.28496 1.40743 0.04733
 H189 H 0.34851 1.28608 -0.13909
 H190 H 0.23305 1.20919 -0.12702
 C191 C 0.36805 0.70982 -0.00758
 C192 C 0.30381 0.67327 0.03708
 C193 C 0.23953 0.71472 0.03982
 C194 C 0.24585 0.79040 0.00094
 C195 C 0.31439 0.82617 0.03872
 C196 C 0.37755 0.78448 0.03463
 C197 C 0.33391 0.73124 -0.08356
 C198 C 0.27061 0.77277 -0.07905
 H199 H 0.30967 0.62133 0.06761
 H200 H 0.19106 0.69745 0.07116
 H201 H 0.31181 0.87638 0.07291
 H202 H 0.42599 0.79958 0.06757
 H203 H 0.35790 0.71500 -0.13693
 H204 H 0.24083 0.79180 -0.12834
 C205 C -0.35196 0.69983 -0.00490
 C206 C -0.35853 0.76767 0.04785
 C207 C -0.29563 0.80843 0.05333
 C208 C -0.23021 0.77881 0.00560
 C209 C -0.21961 0.69824 0.03221
 C210 C -0.28377 0.65740 0.02890
 C211 C -0.32446 0.73122 -0.07938
 C212 C -0.26155 0.77207 -0.07395
 H213 H -0.40588 0.77887 0.08383
 H214 H -0.29102 0.85437 0.09288
 H215 H -0.16829 0.67643 0.05576
 H216 H -0.28664 0.60229 0.05348
 H217 H -0.35192 0.72108 -0.13261
 H218 H -0.23523 0.79629 -0.12257
 C219 C -0.36677 1.29830 -0.01395
 C220 C -0.30324 1.33442 0.03254
 C221 C -0.23931 1.29259 0.03651
 C222 C -0.24525 1.21709 -0.00351
 C223 C -0.31479 1.18148 0.03177
 C224 C -0.37760 1.22353 0.02655
 C225 C -0.33150 1.27729 -0.08938
 C226 C -0.26857 1.23511 -0.08394
 H227 H -0.30938 1.38638 0.06335
 H228 H -0.19127 1.30959 0.06914
 H229 H -0.31353 1.13051 0.06431
 H230 H -0.42725 1.20811 0.05689
 H231 H -0.35511 1.29332 -0.14299
 H232 H -0.23908 1.21462 -0.13281
 C233 C -0.00430 1.36494 0.30575
 C234 C -0.07978 1.34413 0.27138
 C235 C -0.07842 1.28085 0.22932
 C236 C -0.00172 1.24281 0.22464
 C237 C 0.05125 1.30396 0.19739
 C238 C 0.05010 1.36717 0.23927
 C239 C 0.02265 1.29373 0.34798
 C240 C 0.02200 1.22978 0.30593
 H241 H -0.13049 1.37638 0.27996
 H242 H -0.12799 1.25912 0.20231
 H243 H 0.09041 1.29604 0.15200
 H244 H 0.08922 1.41182 0.22927
 H245 H 0.04599 1.29401 0.40403
 H246 H 0.04152 1.17658 0.32732
 C247 C -0.00598 1.36206 -0.29685
 C248 C 0.01980 1.29049 -0.33971
 C249 C 0.01789 1.22634 -0.29841
 C250 C -0.00597 1.23951 -0.21722
 C251 C 0.04818 1.29967 -0.18870
 C252 C 0.04831 1.36297 -0.22985
 C253 C -0.08191 1.34245 -0.26354
 C254 C -0.08185 1.27901 -0.22233
 H255 H 0.04358 1.29064 -0.39539
 H256 H 0.03704 1.17294 -0.32004
 H257 H 0.08710 1.29114 -0.14282
 H258 H 0.08827 1.40682 -0.21896
 H259 H -0.13207 1.37553 -0.27237
 H260 H -0.13188 1.25804 -0.19643
 C261 C 0.00300 0.63982 -0.29383
 C262 C -0.02762 0.71020 -0.33501
 C263 C -0.02523 0.77467 -0.29377
 C264 C 0.00421 0.76289 -0.21414
 C265 C -0.04623 0.70128 -0.18276
 C266 C -0.04698 0.63765 -0.22395
 C267 C 0.08023 0.66196 -0.26466
 C268 C 0.08081 0.72574 -0.22339
 H269 H -0.05432 0.70877 -0.38953
 H270 H -0.04785 0.82722 -0.31397
 H271 H -0.08293 0.70912 -0.13516
 H272 H -0.08542 0.59310 -0.21130
 H273 H 0.13067 0.63018 -0.27608
 H274 H 0.13167 0.74835 -0.19999
 C275 C 0.00294 0.64588 0.30645
 C276 C -0.02390 0.71716 0.34891
 C277 C -0.02300 0.78111 0.30720
 C278 C 0.00166 0.76779 0.22625
 C279 C 0.07818 0.72948 0.23208
 C280 C 0.07880 0.66626 0.27368
 C281 C -0.05062 0.64359 0.23914
 C282 C -0.05127 0.70673 0.19778
 H283 H -0.04758 0.71675 0.40461
 H284 H -0.04365 0.83426 0.32817
 H285 H 0.12815 0.75098 0.20620
 H286 H 0.12921 0.63378 0.28309
 H287 H -0.08961 0.59890 0.22823
 H288 H -0.09008 0.71475 0.15194
   
