data_POSCAR
  _audit_creation_date              2014-09-24
  _audit_creation_method            'ToBaCCo'
  _symmetry_space_group_name_H-M    'P1'
  _symmetry_Int_Tables_number       1
  _symmetry_cell_setting            triclinic
  loop_
  _symmetry_equiv_pos_as_xyz
 x,y,z
_cell_length_a 42.7485
_cell_length_b 42.5563
_cell_length_c 42.7517
_cell_angle_alpha 90.929400
_cell_angle_beta 89.796300
_cell_angle_gamma 90.532000
loop_
  _atom_site_label
  _atom_site_type_symbol
  _atom_site_fract_x
  _atom_site_fract_y
  _atom_site_fract_z
Si1 Si 0.24669 0.49981 0.99705
 Si2 Si 0.74970 0.49810 0.00825
 Si3 Si 0.00429 0.25099 0.48842
 Si4 Si 1.00145 0.75197 0.51501
 Si5 Si 0.49764 -0.00322 0.24810
 Si6 Si 0.50313 0.00095 0.74752
 C7 C 0.29906 0.02247 0.45957
 H8 H 0.30259 0.03913 0.47865
 C9 C 0.31862 0.02326 0.43345
 H10 H 0.33744 0.04044 0.43291
 C11 C 0.27109 -0.02109 0.43819
 H12 H 0.25278 -0.03857 0.44032
 C13 C 0.28998 -0.02096 0.41142
 H14 H 0.28554 -0.03809 0.39294
 N15 N 0.27581 0.00061 0.46146
 C16 C 0.20467 0.03996 0.52362
 H17 H 0.20363 0.02251 0.54174
 C18 C 0.18396 0.06517 0.52434
 H19 H 0.16694 0.06696 0.54308
 C20 C 0.22710 0.05789 0.47631
 H21 H 0.24359 0.05477 0.45736
 C22 C 0.20676 0.08334 0.47603
 H23 H 0.20818 0.09984 0.45705
 Zn24 Zn 0.25181 0.00109 0.49873
 N25 N 0.22577 0.03685 0.49990
 C26 C 0.27754 0.02208 0.55727
 N27 N 0.28027 0.00176 0.53254
 C28 C 0.30431 -0.01883 0.53054
 C29 C 0.32676 -0.01973 0.55406
 C30 C 0.29924 0.02164 0.58164
 C31 C 0.20202 -0.03818 0.48012
 C32 C 0.18152 -0.06384 0.48164
 C33 C 0.21045 -0.08258 0.52595
 C34 C 0.23044 -0.05659 0.52354
 N35 N 0.22594 -0.03509 0.50083
 H36 H 0.25848 0.03854 0.55829
 H37 H 0.30614 -0.03447 0.51042
 H38 H 0.34604 -0.03588 0.55148
 H39 H 0.29614 0.03745 0.60147
 H40 H 0.19866 -0.02043 0.46264
 H41 H 0.16225 -0.06559 0.46531
 H42 H 0.21445 -0.09951 0.54411
 H43 H 0.24931 -0.05350 0.54006
 C44 C 0.18470 0.08712 0.50016
 C45 C 0.31419 0.00143 0.40880
 C46 C 0.18552 -0.08639 0.50490
 C47 C 0.32433 0.00051 0.58027
 C48 C 0.70000 0.02214 0.52922
 H49 H 0.69640 0.03669 0.50905
 C50 C 0.67838 0.02259 0.55377
 H51 H 0.65804 0.03739 0.55197
 C52 C 0.72989 -0.01635 0.55468
 H53 H 0.74961 -0.03200 0.55473
 C54 C 0.70917 -0.01623 0.58000
 H55 H 0.71384 -0.03130 0.59956
 N56 N 0.72502 0.00270 0.52996
 C57 C 0.79787 0.03821 0.46827
 H58 H 0.79930 0.01870 0.45180
 C59 C 0.81951 0.06285 0.46672
 H60 H 0.83728 0.06239 0.44862
 C61 C 0.77342 0.06190 0.51245
 H62 H 0.75588 0.06095 0.53069
 C63 C 0.79462 0.08713 0.51171
 H64 H 0.79324 0.10547 0.52950
 Zn65 Zn 0.75100 0.00101 0.49400
 N66 N 0.77565 0.03797 0.49107
 C67 C 0.72478 0.01771 0.43550
 N68 N 0.72449 -0.00366 0.45884
 C69 C 0.70310 -0.02748 0.45932
 C70 C 0.68035 -0.03009 0.43608
 C71 C 0.70253 0.01586 0.41164
 C72 C 0.80175 -0.03012 0.51871
 C73 C 0.82466 -0.05300 0.52126
 C74 C 0.80091 -0.08138 0.47793
 C75 C 0.77833 -0.05786 0.47623
 N76 N 0.77916 -0.03290 0.49653
 H77 H 0.74153 0.03687 0.43588
 H78 H 0.70316 -0.04389 0.47838
 H79 H 0.66317 -0.04891 0.43714
 H80 H 0.70241 0.03365 0.39382
 H81 H 0.80210 -0.00982 0.53428
 H82 H 0.84230 -0.05035 0.53924
 H83 H 0.80034 -0.10075 0.46120
 H84 H 0.76056 -0.05931 0.45835
 C85 C 0.81845 0.08744 0.48900
 C86 C 0.68268 0.00310 0.57965
 C87 C 0.82466 -0.07892 0.50050
 C88 C 0.67956 -0.00792 0.41212
 C89 C 0.46943 0.20334 1.04148
 H90 H 0.44938 0.20575 1.02638
 C91 C 0.46824 0.18221 1.06608
 H92 H 0.44663 0.16951 1.07018
 C93 C 0.52161 0.21736 1.05413
 H94 H 0.54269 0.23044 1.04886
 C95 C 0.52181 0.19577 1.07837
 H96 H 0.54324 0.19265 1.09129
 N97 N 0.49548 0.22113 1.03657
 C98 C 0.46027 0.29850 0.98093
 H99 H 0.47910 0.29960 0.96399
 C100 C 0.43627 0.32048 0.98017
 H101 H 0.43733 0.33864 0.96278
 C102 C 0.43772 0.27465 1.02537
 H103 H 0.43876 0.25753 1.04364
 C104 C 0.41282 0.29567 1.02501
 H105 H 0.39455 0.29340 1.04242
 Zn106 Zn 0.49585 0.24931 1.00267
 N107 N 0.46061 0.27612 1.00324
 C108 C 0.47263 0.22410 0.94500
 N109 N 0.49674 0.22453 0.96568
 C110 C 0.52184 0.20550 0.96169
 C111 C 0.52349 0.18500 0.93598
 C112 C 0.47319 0.20369 0.91903
 C113 C 0.53663 0.29158 1.03222
 C114 C 0.56166 0.31262 1.03507
 C115 C 0.57490 0.30201 0.98096
 C116 C 0.55005 0.28047 0.97941
 N117 N 0.53152 0.27574 1.00485
 H118 H 0.45266 0.23906 0.94895
 H119 H 0.54042 0.20601 0.97881
 H120 H 0.54342 0.16962 0.93351
 H121 H 0.45377 0.20342 0.90283
 H122 H 0.52119 0.28775 1.05192
 H123 H 0.56562 0.32421 1.05743
 H124 H 0.58850 0.30628 0.96004
 H125 H 0.54495 0.26835 0.95758
 C126 C 0.41189 0.31925 1.00234
 C127 C 0.49477 0.17795 1.08493
 C128 C 0.58098 0.31857 1.00908
 C129 C 0.49884 0.18373 0.91438
 C130 C 0.47677 0.79291 -0.04609
 H131 H 0.45777 0.79100 -0.02943
 C132 C 0.47527 0.81479 -0.07002
 H133 H 0.45500 0.82973 -0.07161
 C134 C 0.52699 0.77674 -0.06323
 H135 H 0.54739 0.76236 -0.06006
 C136 C 0.52655 0.79845 -0.08737
 H137 H 0.54644 0.80011 -0.10304
 N138 N 0.50234 0.77444 -0.04315
 C139 C 0.46521 0.70252 0.01865
 H140 H 0.48088 0.70569 0.03829
 C141 C 0.44090 0.68053 0.02023
 H142 H 0.43764 0.66794 0.04179
 C143 C 0.45067 0.71586 -0.03277
 H144 H 0.45504 0.72927 -0.05362
 C145 C 0.42671 0.69324 -0.03265
 H146 H 0.41316 0.68955 -0.05372
 Zn147 Zn 0.50405 0.74804 -0.00807
 N148 N 0.46930 0.72009 -0.00730
 C149 C 0.48169 0.77467 0.04975
 N150 N 0.50491 0.77471 0.02787
 C151 C 0.52939 0.79524 0.03003
 C152 C 0.53160 0.81634 0.05525
 C153 C 0.48301 0.79537 0.07543
 C154 C 0.54233 0.70238 -0.03465
 C155 C 0.56716 0.68143 -0.03685
 C156 C 0.58760 0.70315 0.01157
 C157 C 0.56226 0.72363 0.01293
 N158 N 0.54025 0.72286 -0.01001
 H159 H 0.46172 0.75918 0.04705
 H160 H 0.54723 0.79521 0.01202
 H161 H 0.55143 0.83231 0.05664
 H162 H 0.46407 0.79541 0.09232
 H163 H 0.52432 0.70206 -0.05237
 H164 H 0.56827 0.66512 -0.05652
 H165 H 0.60444 0.70343 0.03045
 H166 H 0.55979 0.73945 0.03277
 C167 C 0.42140 0.67510 -0.00582
 C168 C 0.50054 0.81799 -0.09084
 C169 C 0.59001 0.68141 -0.01335
 C170 C 0.50816 0.81665 0.07833
 C171 C 1.03077 0.48952 0.19825
 H172 H 1.01072 0.47394 0.19619
 C173 C 1.05394 0.48909 0.17518
 H174 H 1.05104 0.47340 0.15521
 C175 C 1.05764 0.52991 0.22618
 H176 H 1.05886 0.54611 0.24582
 C177 C 1.08170 0.52983 0.20394
 H178 H 1.10146 0.54557 0.20735
 N179 N 1.03302 0.50962 0.22319
 C180 C 0.98070 0.46793 0.29983
 H181 H 0.96373 0.48619 0.30428
 C182 C 0.98112 0.44142 0.31858
 H183 H 0.96457 0.43962 0.33770
 C184 C 1.02363 0.44889 0.27010
 H185 H 1.04029 0.45204 0.25133
 C186 C 1.02493 0.42197 0.28835
 H187 H 1.04246 0.40441 0.28318
 Zn188 Zn 0.99966 0.50827 0.25253
 N189 N 1.00162 0.47110 0.27605
 C190 C 0.94115 0.48452 0.23113
 N191 N 0.96191 0.50888 0.22958
 C192 C 0.95716 0.53332 0.21012
 C193 C 0.93066 0.53391 0.19115
 C194 C 0.91441 0.48411 0.21251
 C195 C 1.02652 0.54523 0.30052
 C196 C 1.02798 0.56908 0.32330
 C197 C 0.97714 0.58656 0.30679
 C198 C 0.97686 0.56263 0.28405
 N199 N 1.00138 0.54262 0.28125
 H200 H 0.94559 0.46501 0.24626
 H201 H 0.97433 0.55212 0.20897
 H202 H 0.92767 0.55317 0.17522
 H203 H 0.89824 0.46443 0.21389
 H204 H 1.04536 0.52853 0.29838
 H205 H 1.04852 0.57097 0.33797
 H206 H 0.95694 0.60156 0.30915
 H207 H 0.95660 0.55959 0.26926
 C208 C 1.00348 0.41800 0.31298
 C209 C 1.08010 0.50923 0.17789
 C210 C 1.00291 0.59001 0.32693
 C211 C 0.90906 0.50888 0.19196
 C212 C -0.04224 0.46490 0.79847
 H213 H -0.02264 0.44899 0.79797
 C214 C -0.06538 0.46182 0.82131
 H215 H -0.06368 0.44325 0.83822
 C216 C -0.06746 0.50940 0.77789
 H217 H -0.06766 0.52849 0.76155
 C218 C -0.09133 0.50697 0.80017
 H219 H -0.10975 0.52427 0.80080
 N220 N -0.04341 0.48868 0.77767
 C221 C 0.01693 0.46305 0.69930
 H222 H 0.03300 0.48284 0.69978
 C223 C 0.01885 0.44058 0.67528
 H224 H 0.03687 0.44300 0.65760
 C225 C -0.02639 0.43632 0.72161
 H226 H -0.04440 0.43514 0.73935
 C227 C -0.02532 0.41327 0.69795
 H228 H -0.04265 0.39455 0.69768
 Zn229 Zn -0.00812 0.49396 0.75147
 N230 N -0.00545 0.46061 0.72181
 C231 C 0.05280 0.47677 0.77222
 N232 N 0.02749 0.49519 0.77778
 C233 C 0.02600 0.51431 0.80351
 C234 C 0.05049 0.51532 0.82502
 C235 C 0.07806 0.47739 0.79289
 C236 C -0.03335 0.53379 0.70670
 C237 C -0.03465 0.56002 0.68755
 C238 C 0.01040 0.58167 0.71453
 C239 C 0.01081 0.55506 0.73321
 N240 N -0.01078 0.53173 0.72890
 H241 H 0.05344 0.46142 0.75188
 H242 H 0.00539 0.52839 0.80760
 H243 H 0.04820 0.53000 0.84579
 H244 H 0.09815 0.46290 0.78770
 H245 H -0.04988 0.51463 0.70341
 H246 H -0.05223 0.56080 0.66942
 H247 H 0.02790 0.59991 0.71817
 H248 H 0.02882 0.55279 0.75066
 C249 C -0.00270 0.41546 0.67415
 C250 C -0.09001 0.48338 0.82267
 C251 C -0.01232 0.58422 0.69107
 C252 C 0.07705 0.49666 0.81993
 C253 C 0.09103 0.18523 0.49612
 C254 C 0.07566 0.18913 0.46717
 C255 C 0.05067 0.21007 0.46498
 C256 C 0.04060 0.22732 0.49121
 C257 C 0.05658 0.22461 0.51951
 C258 C 0.08155 0.20383 0.52202
 C259 C 0.11619 0.16095 0.49794
 C260 C 0.13161 0.15372 0.52599
 C261 C 0.15398 0.12999 0.52664
 C262 C 0.16173 0.11302 0.49935
 C263 C 0.14679 0.12030 0.47125
 C264 C 0.12403 0.14380 0.47039
 C265 C 0.08480 0.17165 0.44073
 C266 C 0.10861 0.14963 0.44226
 H267 H 0.07316 0.17484 0.41854
 H268 H 0.11465 0.13653 0.42117
 H269 H 0.03830 0.21219 0.44302
 H270 H 0.04938 0.23790 0.54001
 H271 H 0.16536 0.12495 0.54857
 H272 H 0.15220 0.10694 0.45014
 H273 H 0.09275 0.20236 0.54450
 H274 H 0.12650 0.16580 0.54775
 C275 C 0.68407 0.58386 -0.00858
 C276 C 0.67302 0.55264 -0.01273
 C277 C 0.69321 0.52739 -0.00850
 C278 C 0.72446 0.53249 -0.00000
 C279 C 0.73616 0.56328 0.00165
 C280 C 0.71616 0.58880 -0.00224
 C281 C 0.66095 0.61005 -0.01101
 C282 C 0.66866 0.64180 -0.00458
 C283 C 0.64579 0.66505 -0.00574
 C284 C 0.61481 0.65728 -0.01365
 C285 C 0.60706 0.62586 -0.02049
 C286 C 0.62962 0.60229 -0.01887
 C287 C 0.64181 0.54663 -0.02077
 C288 C 0.62065 0.57095 -0.02410
 H289 H 0.63351 0.52269 -0.02431
 H290 H 0.59667 0.56506 -0.03013
 H291 H 0.68428 0.50370 -0.01180
 H292 H 0.76066 0.56764 0.00657
 H293 H 0.65231 0.68920 -0.00041
 H294 H 0.58303 0.61954 -0.02592
 H295 H 0.72617 0.61209 -0.00010
 H296 H 0.69202 0.64903 0.00197
 C297 C 0.92428 -0.17062 0.50842
 C298 C 0.91609 -0.20275 0.50443
 C299 C 0.93918 -0.22599 0.50652
 C300 C 0.97035 -0.21762 0.51279
 C301 C 0.97831 -0.18583 0.51679
 C302 C 0.95570 -0.16264 0.51470
 C303 C 0.89914 -0.14647 0.50592
 C304 C 0.90516 -0.11397 0.50909
 C305 C 0.88100 -0.09238 0.50706
 C306 C 0.85009 -0.10242 0.50183
 C307 C 0.84385 -0.13474 0.49808
 C308 C 0.86809 -0.15677 0.50010
 C309 C 0.88495 -0.21141 0.49843
 C310 C 0.86147 -0.18894 0.49643
 H311 H 0.87860 -0.23598 0.49538
 H312 H 0.83773 -0.19689 0.49190
 H313 H 0.93298 -0.25054 0.50298
 H314 H 1.00209 -0.17852 0.52160
 H315 H 0.88662 -0.06758 0.50932
 H316 H 0.82003 -0.14279 0.49414
 H317 H 0.96344 -0.13868 0.51814
 H318 H 0.92832 -0.10458 0.51310
 C319 C 0.31468 0.41449 1.00187
 C320 C 0.30942 0.42970 0.97319
 C321 C 0.28853 0.45488 0.97191
 C322 C 0.27145 0.46411 0.99844
 C323 C 0.27565 0.44829 1.02652
 C324 C 0.29700 0.42374 1.02831
 C325 C 0.33899 0.38934 1.00278
 C326 C 0.34880 0.37554 1.03076
 C327 C 0.37225 0.35292 1.03052
 C328 C 0.38628 0.34290 1.00233
 C329 C 0.37636 0.35643 0.97429
 C330 C 0.35358 0.38000 0.97441
 C331 C 0.32502 0.41970 0.94600
 C332 C 0.34610 0.39491 0.94647
 H333 H 0.32069 0.43106 0.92395
 H334 H 0.35740 0.38792 0.92475
 H335 H 0.28560 0.46742 0.95025
 H336 H 0.26321 0.45548 1.04748
 H337 H 0.37986 0.34386 1.05271
 H338 H 0.38653 0.34889 0.95220
 H339 H 0.29940 0.41246 1.05056
 H340 H 0.33929 0.38251 1.05320
 C341 C 0.91817 0.18162 0.49081
 C342 C 0.94892 0.17029 0.48629
 C343 C 0.97438 0.19123 0.48597
 C344 C 0.96995 0.22361 0.48964
 C345 C 0.93967 0.23498 0.49446
 C346 C 0.91400 0.21430 0.49502
 C347 C 0.89163 0.15819 0.49077
 C348 C 0.86008 0.16665 0.49540
 C349 C 0.83631 0.14378 0.49493
 C350 C 0.84336 0.11200 0.48962
 C351 C 0.87468 0.10339 0.48527
 C352 C 0.89868 0.12603 0.48585
 C353 C 0.95423 0.13812 0.48189
 C354 C 0.92966 0.11649 0.48159
 H355 H 0.97780 0.12951 0.47844
 H356 H 0.93501 0.09185 0.47793
 H357 H 0.99762 0.18199 0.48259
 H358 H 0.93586 0.25993 0.49785
 H359 H 0.81230 0.15100 0.49831
 H360 H 0.88046 0.07881 0.48186
 H361 H 0.89117 0.22433 0.49866
 H362 H 0.85329 0.19073 0.49939
 C363 C 0.32357 0.57878 -0.00125
 C364 C 0.29937 0.58001 -0.02368
 C365 C 0.27610 0.55640 -0.02467
 C366 C 0.27567 0.53269 -0.00230
 C367 C 0.29844 0.53280 0.02113
 C368 C 0.32226 0.55536 0.02160
 C369 C 0.34922 0.60291 -0.00233
 C370 C 0.37668 0.60064 0.01547
 C371 C 0.40000 0.62366 0.01379
 C372 C 0.39646 0.65016 -0.00510
 C373 C 0.36930 0.65211 -0.02356
 C374 C 0.34626 0.62828 -0.02300
 C375 C 0.29836 0.60507 -0.04453
 C376 C 0.32078 0.62919 -0.04353
 H377 H 0.27961 0.60640 -0.06143
 H378 H 0.31860 0.64838 -0.05971
 H379 H 0.25848 0.55664 -0.04274
 H380 H 0.29816 0.51497 0.03892
 H381 H 0.42110 0.62022 0.02713
 H382 H 0.36588 0.67211 -0.03845
 H383 H 0.33918 0.55428 0.04020
 H384 H 0.38096 0.58081 0.03022
 C385 C 0.09143 -0.18513 0.51529
 C386 C 0.08001 -0.19850 0.48694
 C387 C 0.05440 -0.21937 0.48732
 C388 C 0.03969 -0.22689 0.51554
 C389 C 0.05133 -0.21433 0.54364
 C390 C 0.07708 -0.19391 0.54364
 C391 C 0.11722 -0.16105 0.51364
 C392 C 0.12961 -0.14567 0.54035
 C393 C 0.15217 -0.12196 0.53743
 C394 C 0.16308 -0.11300 0.50788
 C395 C 0.15165 -0.12887 0.48120
 C396 C 0.12885 -0.15266 0.48383
 C397 C 0.09335 -0.19000 0.45831
 C398 C 0.11722 -0.16755 0.45678
 H399 H 0.08472 -0.20036 0.43664
 H400 H 0.12631 -0.16133 0.43399
 H401 H 0.04501 -0.22853 0.46546
 H402 H 0.03975 -0.21932 0.56559
 H403 H 0.16043 -0.10996 0.55839
 H404 H 0.16033 -0.12248 0.45828
 H405 H 0.08464 -0.18455 0.56596
 H406 H 0.12189 -0.15115 0.56368
 C407 C 0.67830 0.41501 1.01533
 C408 C 0.70305 0.41293 0.99330
 C409 C 0.72539 0.43731 0.99148
 C410 C 0.72361 0.46328 1.01191
 C411 C 0.70071 0.46398 1.03533
 C412 C 0.67820 0.44025 1.03702
 C413 C 0.65324 0.39026 1.01461
 C414 C 0.62553 0.39285 1.03227
 C415 C 0.60237 0.36969 1.03029
 C416 C 0.60625 0.34292 1.01106
 C417 C 0.63383 0.34028 0.99314
 C418 C 0.65688 0.36406 0.99420
 C419 C 0.70516 0.38661 0.97331
 C420 C 0.68297 0.36234 0.97428
 H421 H 0.72435 0.38467 0.95677
 H422 H 0.68574 0.34239 0.95846
 H423 H 0.74374 0.43626 0.97398
 H424 H 0.69957 0.48359 1.05177
 H425 H 0.58100 0.37328 1.04345
 H426 H 0.63736 0.31987 0.97812
 H427 H 0.66089 0.44219 1.05535
 H428 H 0.62082 0.41302 1.04707
 C429 C 0.49616 0.08318 1.18188
 C430 C 0.47464 0.05790 1.17842
 C431 C 0.47448 0.03345 1.19987
 C432 C 0.49691 0.03241 1.22353
 C433 C 0.51835 0.05719 1.22718
 C434 C 0.51789 0.08253 1.20669
 C435 C 0.49560 0.10872 1.15811
 C436 C 0.51394 0.13628 1.16066
 C437 C 0.51319 0.15890 1.13732
 C438 C 0.49457 0.15446 1.11051
 C439 C 0.47582 0.12723 1.10822
 C440 C 0.47561 0.10492 1.13198
 C441 C 0.45433 0.05637 1.15284
 C442 C 0.45531 0.07900 1.12974
 H443 H 0.43806 0.03683 1.15012
 H444 H 0.43969 0.07631 1.10993
 H445 H 0.45789 0.01416 1.19711
 H446 H 0.53562 0.05689 1.24560
 H447 H 0.52715 0.18004 1.14052
 H448 H 0.46154 0.12293 1.08770
 H449 H 0.53521 0.10085 1.21008
 H450 H 0.52870 0.14097 1.18065
 C451 C -0.00842 0.68412 0.59979
 C452 C 0.02136 0.69180 0.58731
 C453 C 0.02401 0.71327 0.56289
 C454 C -0.00257 0.72736 0.55049
 C455 C -0.03195 0.72051 0.56330
 C456 C -0.03493 0.69923 0.58774
 C457 C -0.01034 0.65958 0.62460
 C458 C -0.03887 0.64912 0.63763
 C459 C -0.03944 0.62510 0.65955
 C460 C -0.01164 0.61102 0.66924
 C461 C 0.01691 0.62175 0.65691
 C462 C 0.01776 0.64563 0.63467
 C463 C 0.04828 0.67751 0.59873
 C464 C 0.04653 0.65501 0.62196
 H465 H 0.07108 0.68355 0.58927
 H466 H 0.06804 0.64439 0.62974
 H467 H 0.04680 0.71824 0.55283
 H468 H -0.05281 0.73105 0.55409
 H469 H -0.06176 0.61746 0.66895
 H470 H 0.03852 0.61070 0.66382
 H471 H -0.05818 0.69459 0.59646
 H472 H -0.06102 0.65885 0.63095
 C473 C 0.49907 0.91658 -0.18350
 C474 C 0.52666 0.93501 -0.18652
 C475 C 0.52763 0.96007 -0.20749
 C476 C 0.50166 0.96678 -0.22596
 C477 C 0.47434 0.94874 -0.22293
 C478 C 0.47301 0.92386 -0.20207
 C479 C 0.49879 0.89043 -0.16035
 C480 C 0.47232 0.87121 -0.15498
 C481 C 0.47305 0.84762 -0.13267
 C482 C 0.50019 0.84237 -0.11527
 C483 C 0.52679 0.86112 -0.12068
 C484 C 0.52624 0.88510 -0.14285
 C485 C 0.55303 0.92845 -0.16853
 C486 C 0.55286 0.90398 -0.14725
 H487 H 0.57416 0.94250 -0.17090
 H488 H 0.57387 0.89992 -0.13383
 H489 H 0.54862 0.97441 -0.20947
 H490 H 0.45367 0.95412 -0.23625
 H491 H 0.45232 0.83328 -0.12911
 H492 H 0.54774 0.85756 -0.10702
 H493 H 0.45131 0.91084 -0.20074
 H494 H 0.45075 0.87407 -0.16756
 C495 C 1.00795 0.31568 0.40121
 C496 C 0.97887 0.30385 0.41212
 C497 C 0.97795 0.28244 0.43677
 C498 C 1.00560 0.27286 0.45104
 C499 C 1.03437 0.28386 0.43974
 C500 C 1.03564 0.30478 0.41497
 C501 C 1.00780 0.34046 0.37663
 C502 C 1.03536 0.35457 0.36499
 C503 C 1.03389 0.37913 0.34380
 C504 C 1.00496 0.39022 0.33350
 C505 C 0.97742 0.37552 0.34402
 C506 C 0.97861 0.35095 0.36551
 C507 C 0.95086 0.31439 0.39924
 C508 C 0.95073 0.33744 0.37645
 H509 H 0.92862 0.30520 0.40744
 H510 H 0.92839 0.34528 0.36774
 H511 H 0.95561 0.27440 0.44569
 H512 H 1.05599 0.27728 0.45090
 H513 H 1.05549 0.39015 0.33622
 H514 H 0.95495 0.38352 0.33577
 H515 H 1.05847 0.31284 0.40771
 H516 H 1.05829 0.34747 0.37237
 C517 C 0.50840 0.91179 0.17755
 C518 C 0.51460 0.94298 0.16822
 C519 C 0.51236 0.96780 0.18992
 C520 C 0.50349 0.96245 0.22095
 C521 C 0.49988 0.93146 0.23093
 C522 C 0.50194 0.90633 0.20944
 C523 C 0.50907 0.88622 0.15295
 C524 C 0.50100 0.85469 0.15902
 C525 C 0.50094 0.83205 0.13491
 C526 C 0.50910 0.84023 0.10425
 C527 C 0.51736 0.87147 0.09808
 C528 C 0.51715 0.89442 0.12194
 C529 C 0.52275 0.94941 0.13723
 C530 C 0.52423 0.92561 0.11464
 H531 H 0.52780 0.97330 0.13025
 H532 H 0.53044 0.93184 0.09091
 H533 H 0.51758 0.99137 0.18227
 H534 H 0.49528 0.92660 0.25528
 H535 H 0.49458 0.80804 0.14027
 H536 H 0.52303 0.87818 0.07435
 H537 H 0.49839 0.88293 0.21818
 H538 H 0.49426 0.84716 0.18207
 C539 C -0.00056 0.32654 0.56938
 C540 C -0.00532 0.29433 0.57598
 C541 C -0.00426 0.27167 0.55164
 C542 C 0.00178 0.28071 0.52083
 C543 C 0.00610 0.31259 0.51435
 C544 C 0.00497 0.33522 0.53819
 C545 C -0.00135 0.35001 0.59591
 C546 C 0.00333 0.38247 0.59162
 C547 C 0.00281 0.40339 0.61702
 C548 C -0.00237 0.39267 0.64746
 C549 C -0.00741 0.36038 0.65202
 C550 C -0.00686 0.33903 0.62654
 C551 C -0.01087 0.28500 0.60680
 C552 C -0.01161 0.30686 0.63152
 H553 H -0.01457 0.26039 0.61193
 H554 H -0.01587 0.29840 0.65494
 H555 H -0.00788 0.24701 0.55665
 H556 H 0.01068 0.32037 0.49083
 H557 H 0.00611 0.42821 0.61272
 H558 H -0.01125 0.35181 0.67547
 H559 H 0.00867 0.35929 0.53158
 H560 H 0.00742 0.39235 0.56891
 C561 C 0.50319 0.08744 0.81655
 C562 C 0.47585 0.06884 0.81218
 C563 C 0.47601 0.04335 0.79091
 C564 C 0.50293 0.03628 0.77359
 C565 C 0.52992 0.05467 0.77771
 C566 C 0.53009 0.08005 0.79881
 C567 C 0.50243 0.11365 0.84045
 C568 C 0.52866 0.13282 0.84737
 C569 C 0.52719 0.15591 0.87088
 C570 C 0.49954 0.16074 0.88794
 C571 C 0.47302 0.14240 0.88067
 C572 C 0.47433 0.11882 0.85733
 C573 C 0.44868 0.07548 0.82934
 C574 C 0.44791 0.09998 0.85136
 H575 H 0.42773 0.06134 0.82588
 H576 H 0.42638 0.10397 0.86423
 H577 H 0.45524 0.02878 0.78802
 H578 H 0.55122 0.04910 0.76517
 H579 H 0.54786 0.17003 0.87583
 H580 H 0.45165 0.14571 0.89400
 H581 H 0.55163 0.09324 0.80112
 H582 H 0.55065 0.13016 0.83525
 C583 C 1.00101 0.68340 0.42812
 C584 C 1.01632 0.67534 0.45614
 C585 C 1.01657 0.69635 0.48172
 C586 C 1.00087 0.72497 0.48037
 C587 C 0.98545 0.73299 0.45287
 C588 C 0.98552 0.71251 0.42694
 C589 C 1.00166 0.66029 0.40121
 C590 C 0.98859 0.66650 0.37176
 C591 C 0.98940 0.64394 0.34766
 C592 C 1.00307 0.61448 0.35224
 C593 C 1.01649 0.60831 0.38142
 C594 C 1.01623 0.63096 0.40563
 C595 C 1.03095 0.64621 0.45871
 C596 C 1.03056 0.62434 0.43414
 H597 H 1.04254 0.64003 0.48024
 H598 H 1.04188 0.60196 0.43745
 H599 H 1.02878 0.69013 0.50283
 H600 H 0.97354 0.75523 0.45123
 H601 H 0.97947 0.64973 0.32524
 H602 H 1.02678 0.58558 0.38559
 H603 H 0.97317 0.71979 0.40639
 H604 H 0.97783 0.68867 0.36678
 C605 C 1.17669 0.50697 0.08116
 C606 C 1.18023 0.47840 0.06413
 C607 C 1.20152 0.47656 0.03913
 C608 C 1.22038 0.50240 0.03161
 C609 C 1.21780 0.53034 0.04905
 C610 C 1.19615 0.53271 0.07354
 C611 C 1.15237 0.50840 0.10656
 C612 C 1.14476 0.53637 0.12281
 C613 C 1.12145 0.53658 0.14582
 C614 C 1.10530 0.50887 0.15362
 C615 C 1.11295 0.48085 0.13759
 C616 C 1.13571 0.48056 0.11383
 C617 C 1.16265 0.45181 0.07219
 C618 C 1.14129 0.45272 0.09688
 H619 H 1.16562 0.42985 0.05937
 H620 H 1.12841 0.43142 0.10233
 H621 H 1.20352 0.45494 0.02552
 H622 H 1.23205 0.55063 0.04338
 H623 H 1.11568 0.55877 0.15705
 H624 H 1.10114 0.45910 0.14347
 H625 H 1.19505 0.55481 0.08618
 H626 H 1.15603 0.55848 0.11766
 C627 C 0.58755 -0.00073 0.67759
 C628 C 0.56991 0.02692 0.68250
 C629 C 0.54495 0.02707 0.70387
 C630 C 0.53799 0.00047 0.72147
 C631 C 0.55588 -0.02663 0.71739
 C632 C 0.58043 -0.02731 0.69571
 C633 C 0.61283 -0.00042 0.65315
 C634 C 0.62980 -0.02739 0.64438
 C635 C 0.65245 -0.02610 0.62080
 C636 C 0.65919 0.00217 0.60551
 C637 C 0.64257 0.02924 0.61440
 C638 C 0.61918 0.02802 0.63750
 C639 C 0.57721 0.05422 0.66605
 C640 C 0.60164 0.05490 0.64441
 H641 H 0.56389 0.07547 0.67006
 H642 H 0.60642 0.07665 0.63237
 H643 H 0.53085 0.04797 0.70683
 H644 H 0.55047 -0.04762 0.73037
 H645 H 0.66416 -0.04762 0.61406
 H646 H 0.64764 0.05137 0.60318
 H647 H 0.59341 -0.04883 0.69344
 H648 H 0.62547 -0.04988 0.65490
 C649 C -0.17694 0.48857 0.92709
 C650 C -0.20928 0.48995 0.92026
 C651 C -0.23127 0.49217 0.94476
 C652 C -0.22132 0.49395 0.97592
 C653 C -0.18929 0.49383 0.98250
 C654 C -0.16736 0.49095 0.95851
 C655 C -0.15418 0.48578 0.90051
 C656 C -0.12185 0.48184 0.90510
 C657 C -0.10139 0.48045 0.87971
 C658 C -0.11250 0.48297 0.84907
 C659 C -0.14477 0.48605 0.84410
 C660 C -0.16570 0.48699 0.86956
 C661 C -0.21932 0.48985 0.88909
 C662 C -0.19797 0.48895 0.86429
 H663 H -0.24404 0.49112 0.88378
 H664 H -0.20688 0.48955 0.84061
 H665 H -0.25606 0.49302 0.93960
 H666 H -0.18082 0.49625 1.00619
 H667 H -0.07658 0.47813 0.88410
 H668 H -0.15354 0.48748 0.82040
 H669 H -0.14305 0.49127 0.96511
 H670 H -0.11181 0.47974 0.92806
 C671 C 0.40709 0.00225 0.30955
 C672 C 0.41611 -0.02708 0.29641
 C673 C 0.44170 -0.02874 0.27567
 C674 C 0.45947 -0.00178 0.26925
 C675 C 0.45050 0.02714 0.28231
 C676 C 0.42450 0.02930 0.30187
 C677 C 0.38083 0.00293 0.33282
 C678 C 0.36926 0.03106 0.34601
 C679 C 0.34688 0.03041 0.36977
 C680 C 0.33538 0.00176 0.38112
 C681 C 0.34529 -0.02637 0.36668
 C682 C 0.36768 -0.02595 0.34251
 C683 C 0.40065 -0.05469 0.30541
 C684 C 0.37736 -0.05420 0.32838
 H685 H 0.40751 -0.07717 0.29544
 H686 H 0.36694 -0.07632 0.33538
 H687 H 0.44848 -0.05122 0.26591
 H688 H 0.46424 0.04818 0.27815
 H689 H 0.33876 0.05253 0.37952
 H690 H 0.33653 -0.04872 0.37499
 H691 H 0.41932 0.05213 0.31175
 H692 H 0.37729 0.05382 0.33850
 C693 C 0.17547 0.49615 0.91396
 C694 C 0.18018 0.52426 0.93157
 C695 C 0.20194 0.52522 0.95612
 C696 C 0.22000 0.49889 0.96273
 C697 C 0.21565 0.47122 0.94510
 C698 C 0.19379 0.46981 0.92093
 C699 C 0.15088 0.49563 0.88898
 C700 C 0.14281 0.46828 0.87170
 C701 C 0.11914 0.46879 0.84930
 C702 C 0.10301 0.49660 0.84315
 C703 C 0.11119 0.52407 0.86005
 C704 C 0.13451 0.52367 0.88311
 C705 C 0.16306 0.55117 0.92469
 C706 C 0.14102 0.55098 0.90073
 H707 H 0.16683 0.57276 0.93800
 H708 H 0.12844 0.57245 0.89631
 H709 H 0.20461 0.54641 0.97032
 H710 H 0.22849 0.45022 0.95043
 H711 H 0.11301 0.44702 0.83728
 H712 H 0.09930 0.54587 0.85539
 H713 H 0.19148 0.44784 0.90822
 H714 H 0.15402 0.44609 0.87550
 C715 C 0.57703 -0.00534 0.32327
 C716 C 0.58466 -0.00123 0.29132
 C717 C 0.56079 -0.00044 0.26876
 C718 C 0.52935 -0.00297 0.27777
 C719 C 0.52185 -0.00656 0.30940
 C720 C 0.54527 -0.00771 0.33189
 C721 C 0.60307 -0.00676 0.34659
 C722 C 0.59786 -0.01228 0.37861
 C723 C 0.62277 -0.01303 0.39950
 C724 C 0.65358 -0.00827 0.38919
 C725 C 0.65915 -0.00309 0.35728
 C726 C 0.63420 -0.00260 0.33592
 C727 C 0.61600 0.00220 0.28218
 C728 C 0.64020 0.00184 0.30403
 H729 H 0.62191 0.00547 0.25777
 H730 H 0.66402 0.00487 0.29578
 H731 H 0.56660 0.00221 0.24423
 H732 H 0.49780 -0.00887 0.31701
 H733 H 0.61781 -0.01674 0.42404
 H734 H 0.68296 0.00024 0.34905
 H735 H 0.53790 -0.01042 0.35583
 H736 H 0.57477 -0.01608 0.38811
 C737 C 0.81034 0.50431 0.09894
 C738 C 0.80717 0.47581 0.08166
 C739 C 0.78737 0.47412 0.05565
 C740 C 0.77084 0.50052 0.04620
 C741 C 0.77206 0.52804 0.06451
 C742 C 0.79168 0.53002 0.09059
 C743 C 0.83410 0.50596 0.12469
 C744 C 0.84107 0.53387 0.14160
 C745 C 0.86493 0.53465 0.16387
 C746 C 0.88224 0.50763 0.17005
 C747 C 0.87492 0.47956 0.15394
 C748 C 0.85137 0.47860 0.13119
 C749 C 0.82444 0.44941 0.08980
 C750 C 0.84590 0.45071 0.11420
 H751 H 0.82171 0.42751 0.07675
 H752 H 0.85905 0.42975 0.11928
 H753 H 0.78590 0.45257 0.04182
 H754 H 0.75850 0.54830 0.05845
 H755 H 0.87000 0.55653 0.17620
 H756 H 0.88855 0.45869 0.15812
 H757 H 0.79226 0.55198 0.10353
 H758 H 0.82887 0.55548 0.13753
 C759 C 0.42109 -0.00256 0.67550
 C760 C 0.42794 0.02580 0.69198
 C761 C 0.45185 0.02673 0.71448
 C762 C 0.46966 -0.00004 0.72001
 C763 C 0.46387 -0.02760 0.70268
 C764 C 0.43967 -0.02907 0.68095
 C765 C 0.39523 -0.00275 0.65196
 C766 C 0.38486 -0.03034 0.63646
 C767 C 0.36153 -0.02920 0.61382
 C768 C 0.34797 -0.00053 0.60575
 C769 C 0.35739 0.02697 0.62195
 C770 C 0.38049 0.02597 0.64523
 C771 C 0.41158 0.05322 0.68516
 C772 C 0.38879 0.05343 0.66186
 H773 H 0.41697 0.07502 0.69753
 H774 H 0.37729 0.07540 0.65699
 H775 H 0.45720 0.04850 0.72688
 H776 H 0.47817 -0.04817 0.70598
 H777 H 0.35400 -0.05100 0.60270
 H778 H 0.34719 0.04934 0.61614
 H779 H 0.43642 -0.05091 0.66819
 H780 H 0.39423 -0.05310 0.64165
   
