data_POSCAR
  _audit_creation_date              2014-09-24
  _audit_creation_method            'ToBaCCo'
  _symmetry_space_group_name_H-M    'P1'
  _symmetry_Int_Tables_number       1
  _symmetry_cell_setting            triclinic
  loop_
  _symmetry_equiv_pos_as_xyz
 x,y,z
_cell_length_a 17.4407
_cell_length_b 17.2173
_cell_length_c 17.1545
_cell_angle_alpha 97.950700
_cell_angle_beta 85.262400
_cell_angle_gamma 91.087100
loop_
  _atom_site_label
  _atom_site_type_symbol
  _atom_site_fract_x
  _atom_site_fract_y
  _atom_site_fract_z
O1 O 0.59212 0.54954 0.06067
 O2 O 0.38448 0.51756 0.04270
 O3 O 0.49877 0.43241 0.06386
 O4 O 0.47738 0.64110 0.04553
 O5 O 0.50141 0.61518 -0.08378
 O6 O 0.52126 0.40587 -0.06578
 O7 O 0.40607 0.49174 -0.08689
 O8 O 0.61443 0.52218 -0.06882
 Cu9 Cu 0.48554 0.53913 0.06603
 Cu10 Cu 0.51221 0.50720 -0.08966
 C11 C 0.63876 0.53844 -0.00077
 C12 C 0.36054 0.49578 -0.02483
 C13 C 0.51421 0.38376 0.00209
 C14 C 0.48744 0.66391 -0.02171
 O15 O -0.09586 0.56530 0.54682
 O16 O -0.07806 0.35054 0.50309
 O17 O -0.07184 0.45544 0.62941
 O18 O -0.08956 0.46728 0.41809
 O19 O 0.03722 0.47193 0.39923
 O20 O 0.05411 0.47040 0.60996
 O21 O 0.04837 0.36249 0.48759
 O22 O 0.03020 0.57747 0.52460
 Cu23 Cu -0.09661 0.45727 0.52561
 Cu24 Cu 0.05502 0.47134 0.50288
 C25 C -0.03574 0.60763 0.54416
 C26 C -0.01194 0.31990 0.48947
 C27 C -0.00578 0.46398 0.65589
 C28 C -0.02845 0.47244 0.37315
 O29 O 0.49847 0.04683 0.60779
 O30 O 0.54471 0.06664 0.39728
 O31 O 0.42935 0.09965 0.50093
 O32 O 0.62941 0.05400 0.51964
 O33 O 0.60832 -0.07209 0.48374
 O34 O 0.40390 -0.02664 0.47057
 O35 O 0.52203 -0.06022 0.36650
 O36 O 0.48078 -0.08076 0.57519
 Cu37 Cu 0.52995 0.07824 0.50865
 Cu38 Cu 0.50223 -0.07016 0.47104
 C39 C 0.47867 -0.02031 0.62656
 C40 C 0.53724 0.00652 0.34573
 C41 C 0.38208 0.04462 0.48389
 C42 C 0.65352 -0.01561 0.50519
 C43 C 0.45704 -0.04588 -0.17098
 C44 C 0.47365 -0.12370 -0.16499
 C45 C 0.50033 -0.14459 -0.09615
 C46 C 0.51712 -0.08505 -0.03360
 C47 C 0.50031 -0.00590 -0.03931
 C48 C 0.46894 0.01317 -0.10772
 C49 C 0.44873 0.09088 -0.11113
 C50 C 0.46155 0.14965 -0.04948
 C51 C 0.49705 0.13339 0.01719
 C52 C 0.51334 0.05421 0.02401
 C53 C 0.55201 -0.10161 0.03321
 C54 C 0.56344 -0.04298 0.09605
 C55 C 0.54110 0.03484 0.09444
 C56 C 0.54694 0.09481 0.15979
 C57 C 0.53655 0.17288 0.14937
 C58 C 0.51432 0.19338 0.07870
 H59 H 0.42238 0.10695 -0.16157
 H60 H 0.44076 0.20720 -0.05445
 H61 H 0.57259 -0.15961 0.03718
 H62 H 0.59275 -0.05936 0.14426
 H63 H 0.46036 -0.16923 -0.21228
 H64 H 0.54384 0.21876 0.19830
 C65 C 0.07304 0.49877 0.85124
 C66 C 0.14532 0.47989 0.87302
 C67 C 0.15827 0.47784 0.95194
 C68 C 0.09805 0.49657 1.01105
 C69 C 0.02440 0.51573 0.99066
 C70 C 0.01236 0.51982 0.91066
 C71 C -0.05878 0.54746 0.89340
 C72 C -0.11945 0.56121 0.95158
 C73 C -0.11172 0.54778 1.02959
 C74 C -0.03754 0.52932 1.05031
 C75 C 0.11062 0.49764 1.09063
 C76 C 0.05101 0.51354 1.14922
 C77 C -0.02496 0.52418 1.13037
 C78 C -0.08863 0.53214 1.18844
 C79 C -0.16082 0.54946 1.16660
 C80 C -0.17435 0.55518 1.08869
 H81 H -0.06823 0.56104 0.83539
 H82 H -0.17128 0.58494 0.93441
 H83 H 0.16743 0.48778 1.10839
 H84 H 0.06713 0.51905 1.20892
 H85 H 0.19061 0.46142 0.82748
 H86 H -0.20911 0.55399 1.21103
 C87 C -0.05986 -0.18856 0.54359
 C88 C -0.13585 -0.17586 0.52866
 C89 C -0.15638 -0.10822 0.49869
 C90 C -0.09865 -0.05214 0.48118
 C91 C -0.02128 -0.06600 0.49454
 C92 C -0.00184 -0.13528 0.52397
 C93 C 0.07545 -0.14987 0.53379
 C94 C 0.13297 -0.09698 0.51500
 C95 C 0.11455 -0.02616 0.48930
 C96 C 0.03677 -0.00966 0.48036
 C97 C -0.11500 0.01636 0.44933
 C98 C -0.05886 0.07402 0.44041
 C99 C 0.01686 0.06358 0.45888
 C100 C 0.07458 0.12244 0.45415
 C101 C 0.15136 0.10296 0.45764
 C102 C 0.17219 0.02908 0.47398
 H103 H 0.09211 -0.20303 0.55494
 H104 H 0.19186 -0.11111 0.52276
 H105 H -0.17087 0.02653 0.43014
 H106 H -0.07491 0.12513 0.41557
 H107 H -0.18040 -0.21638 0.54570
 H108 H 0.19509 0.14767 0.45117
 N109 N -0.28032 0.53996 1.00682
 N110 N -0.25404 0.55950 1.07373
 N111 N 0.28992 0.46966 0.97073
 N112 N 0.22535 0.43932 0.96999
 N113 N -0.04098 -0.31707 0.56671
 N114 N -0.04409 -0.24667 0.59195
 N115 N -0.00507 0.23652 0.47980
 N116 N 0.05940 0.20452 0.45644
 N117 N 0.44921 -0.02561 -0.30189
 N118 N 0.41686 -0.02879 -0.23582
 N119 N 0.53969 0.01482 0.26382
 N120 N 0.55362 0.08068 0.23980
 N121 N 0.48386 -0.25424 -0.02667
 N122 N 0.50394 -0.22684 -0.09051
 N123 N 0.52283 0.30271 0.00802
 N124 N 0.50839 0.27551 0.07297
 N125 N -0.26730 -0.02939 0.51261
 N126 N -0.23682 -0.09638 0.49254
 N127 N 0.30355 0.06350 0.48040
 N128 N 0.25146 0.01086 0.47826
 N129 N -0.03232 0.48082 1.29232
 N130 N -0.08514 0.51978 1.26935
 N131 N 0.00076 0.46879 0.73874
 N132 N 0.06344 0.49119 0.76818
   
