data_POSCAR
  _audit_creation_date              2014-09-24
  _audit_creation_method            'ToBaCCo'
  _symmetry_space_group_name_H-M    'P1'
  _symmetry_Int_Tables_number       1
  _symmetry_cell_setting            triclinic
  loop_
  _symmetry_equiv_pos_as_xyz
 x,y,z
_cell_length_a 17.1507
_cell_length_b 17.2160
_cell_length_c 24.9834
_cell_angle_alpha 90.000000
_cell_angle_beta 89.718100
_cell_angle_gamma 90.000000
loop_
  _atom_site_label
  _atom_site_type_symbol
  _atom_site_fract_x
  _atom_site_fract_y
  _atom_site_fract_z
O1 O 0.14874 0.09331 0.03535
 O2 O -0.14893 -0.08780 0.03629
 O3 O -0.08961 0.15027 0.03830
 O4 O 0.08949 -0.14465 0.03767
 O5 O -0.13386 0.04268 0.06720
 O6 O 0.13365 -0.03721 0.06643
 O7 O -0.04175 -0.13009 0.06638
 O8 O 0.04166 0.13578 0.06614
 C9 C 0.11194 0.12513 0.07233
 C10 C -0.11213 -0.11995 0.07289
 C11 C -0.12278 0.11262 0.07448
 C12 C 0.12249 -0.10713 0.07374
 O13 O 0.14887 -0.08780 -0.03633
 O14 O -0.14879 0.09331 -0.03539
 O15 O 0.08955 0.15027 -0.03833
 O16 O -0.08954 -0.14465 -0.03771
 O17 O -0.13371 -0.03721 -0.06647
 O18 O 0.13380 0.04268 -0.06724
 O19 O 0.04169 -0.13009 -0.06642
 O20 O -0.04171 0.13578 -0.06618
 Co21 Co 0.12765 0.00274 -0.00039
 Co22 Co -0.12771 0.00274 0.00036
 Co23 Co -0.00003 0.12966 -0.00002
 Co24 Co -0.00003 -0.12399 -0.00002
 O25 O -0.00003 0.00279 -0.00002
 C26 C 0.11207 -0.11995 -0.07293
 C27 C -0.11200 0.12513 -0.07237
 C28 C 0.12273 0.11262 -0.07452
 C29 C -0.12255 -0.10713 -0.07378
 O30 O 0.40922 0.35068 0.46372
 O31 O 0.59086 0.64610 0.46343
 O32 O 0.35209 0.58809 0.46252
 O33 O 0.64797 0.40878 0.46181
 O34 O 0.46014 0.63114 0.43349
 O35 O 0.54018 0.36546 0.43330
 O36 O 0.63319 0.53925 0.43336
 O37 O 0.36690 0.45773 0.43416
 C38 C 0.37705 0.38772 0.42701
 C39 C 0.62302 0.60929 0.42642
 C40 C 0.38984 0.62113 0.42612
 C41 C 0.61045 0.37584 0.42553
 O42 O 0.59072 0.35068 0.53624
 O43 O 0.40908 0.64610 0.53653
 O44 O 0.35197 0.40878 0.53815
 O45 O 0.64785 0.58809 0.53745
 O46 O 0.53980 0.63114 0.56647
 O47 O 0.45976 0.36546 0.56667
 O48 O 0.63304 0.45773 0.56580
 O49 O 0.36675 0.53926 0.56661
 Co50 Co 0.49997 0.37146 0.49998
 Co51 Co 0.49997 0.62522 0.49998
 Co52 Co 0.37280 0.49847 0.50034
 Co53 Co 0.62714 0.49847 0.49962
 O54 O 0.49997 0.49839 0.49998
 C55 C 0.62289 0.38772 0.57296
 C56 C 0.37692 0.60929 0.57354
 C57 C 0.38949 0.37584 0.57443
 C58 C 0.61010 0.62113 0.57384
 C59 C 0.27547 0.35713 0.29482
 C60 C 0.28413 0.27707 0.28756
 C61 C 0.32435 0.23294 0.32557
 C62 C 0.35524 0.26882 0.37103
 C63 C 0.15111 0.15516 0.11837
 C64 C 0.30621 0.39304 0.34009
 C65 C 0.25010 0.24072 0.24147
 C66 C 0.22003 0.21230 0.20268
 C67 C 0.18337 0.18092 0.15720
 C68 C 0.34594 0.34918 0.37886
 H69 H 0.24448 0.39178 0.26563
 H70 H 0.33138 0.17088 0.32023
 H71 H 0.38597 0.23378 0.40010
 H72 H 0.29843 0.45510 0.34489
 C73 C 0.67503 0.76526 0.32546
 C74 C 0.71573 0.72183 0.28706
 C75 C 0.72491 0.64173 0.29385
 C76 C 0.69421 0.60511 0.33909
 C77 C 0.84862 0.84869 0.11872
 C78 C 0.64421 0.72869 0.37086
 C79 C 0.74976 0.75911 0.24112
 C80 C 0.77978 0.78867 0.20253
 C81 C 0.81637 0.82161 0.15733
 C82 C 0.65404 0.64832 0.37825
 H83 H 0.66760 0.82733 0.32049
 H84 H 0.75630 0.60764 0.26434
 H85 H 0.70239 0.54306 0.34357
 H86 H 0.61312 0.76323 0.40024
 C87 C 0.72447 0.35713 0.70514
 C88 C 0.71581 0.27707 0.71241
 C89 C 0.67559 0.23294 0.67440
 C90 C 0.64470 0.26882 0.62893
 C91 C 0.84883 0.15516 0.88159
 C92 C 0.69373 0.39304 0.65987
 C93 C 0.74984 0.24072 0.75850
 C94 C 0.77991 0.21230 0.79729
 C95 C 0.81657 0.18092 0.84276
 C96 C 0.65400 0.34918 0.62110
 H97 H 0.75547 0.39178 0.73434
 H98 H 0.66856 0.17088 0.67973
 H99 H 0.61397 0.23378 0.59986
 H100 H 0.70151 0.45510 0.65508
 C101 C 0.27503 0.64173 0.70611
 C102 C 0.28421 0.72183 0.71290
 C103 C 0.32491 0.76526 0.67450
 C104 C 0.35573 0.72869 0.62910
 C105 C 0.15132 0.84869 0.88124
 C106 C 0.30574 0.60511 0.66088
 C107 C 0.25018 0.75911 0.75884
 C108 C 0.22016 0.78867 0.79743
 C109 C 0.18357 0.82161 0.84264
 C110 C 0.34590 0.64832 0.62171
 H111 H 0.24364 0.60764 0.73563
 H112 H 0.33234 0.82733 0.67947
 H113 H 0.38682 0.76323 0.59972
 H114 H 0.29756 0.54306 0.65640
 C115 C 0.35836 0.27100 0.70611
 C116 C 0.27805 0.28007 0.71401
 C117 C 0.23410 0.32168 0.67657
 C118 C 0.27024 0.35346 0.63118
 C119 C 0.15156 0.14737 0.88343
 C120 C 0.39455 0.30266 0.66089
 C121 C 0.24116 0.24550 0.76020
 C122 C 0.21178 0.21540 0.79898
 C123 C 0.17880 0.17908 0.84452
 C124 C 0.35082 0.34381 0.62272
 H125 H 0.39301 0.23901 0.73480
 H126 H 0.17190 0.32918 0.68229
 H127 H 0.23518 0.38520 0.60264
 H128 H 0.45675 0.29448 0.65565
 C129 C 0.64039 0.72755 0.70475
 C130 C 0.72077 0.71926 0.71211
 C131 C 0.76506 0.67757 0.67460
 C132 C 0.72916 0.64493 0.62966
 C133 C 0.84604 0.85445 0.88008
 C134 C 0.60444 0.69504 0.65998
 C135 C 0.75737 0.75471 0.75781
 C136 C 0.78646 0.78548 0.79624
 C137 C 0.81908 0.82243 0.84141
 C138 C 0.64851 0.65382 0.62173
 H139 H 0.60549 0.75958 0.73350
 H140 H 0.82733 0.67068 0.67993
 H141 H 0.76447 0.61317 0.60104
 H142 H 0.54217 0.70265 0.65514
 C143 C 0.23488 0.67757 0.32536
 C144 C 0.27917 0.71926 0.28786
 C145 C 0.35956 0.72755 0.29521
 C146 C 0.39550 0.69504 0.33998
 C147 C 0.15390 0.85445 0.11988
 C148 C 0.27078 0.64493 0.37030
 C149 C 0.24257 0.75471 0.24215
 C150 C 0.21349 0.78548 0.20372
 C151 C 0.18086 0.82243 0.15855
 C152 C 0.35143 0.65382 0.37823
 H153 H 0.17261 0.67068 0.32003
 H154 H 0.39446 0.75958 0.26646
 H155 H 0.45777 0.70265 0.34482
 H156 H 0.23547 0.61317 0.39892
 C157 C 0.64158 0.27100 0.29385
 C158 C 0.72189 0.28007 0.28595
 C159 C 0.76584 0.32168 0.32340
 C160 C 0.72970 0.35346 0.36878
 C161 C 0.84838 0.14737 0.11653
 C162 C 0.60539 0.30266 0.33908
 C163 C 0.75878 0.24550 0.23977
 C164 C 0.78816 0.21540 0.20098
 C165 C 0.82114 0.17908 0.15544
 C166 C 0.64913 0.34381 0.37725
 H167 H 0.60693 0.23901 0.26517
 H168 H 0.82804 0.32918 0.31767
 H169 H 0.76476 0.38520 0.39732
 H170 H 0.54319 0.29448 0.34431
   
