data_POSCAR
  _audit_creation_date              2014-09-24
  _audit_creation_method            'ToBaCCo'
  _symmetry_space_group_name_H-M    'P1'
  _symmetry_Int_Tables_number       1
  _symmetry_cell_setting            triclinic
  loop_
  _symmetry_equiv_pos_as_xyz
 x,y,z
_cell_length_a 66.2586
_cell_length_b 66.3823
_cell_length_c 66.4967
_cell_angle_alpha 89.997800
_cell_angle_beta 90.017100
_cell_angle_gamma 90.006800
loop_
  _atom_site_label
  _atom_site_type_symbol
  _atom_site_fract_x
  _atom_site_fract_y
  _atom_site_fract_z
N1 N 0.28204 0.24173 0.22589
 N2 N 0.27347 0.25760 0.21764
 C3 C 0.28414 0.26307 0.20127
 C4 C 0.30015 0.24994 0.19931
 C5 C 0.29845 0.23661 0.21509
 H6 H 0.28060 0.27559 0.19149
 H7 H 0.30836 0.22411 0.21842
 Cu8 Cu 0.24921 0.26948 0.22917
 Cu9 Cu 0.27121 0.22877 0.24985
 Cu10 Cu 0.22850 0.25010 0.27111
 N11 N 0.22545 0.28152 0.24152
 N12 N 0.21752 0.27391 0.25799
 C13 C 0.20144 0.28505 0.26343
 C14 C 0.19926 0.30035 0.24961
 C15 C 0.21463 0.29777 0.23590
 H16 H 0.19204 0.28226 0.27642
 H17 H 0.21767 0.30706 0.22289
 N18 N 0.24179 0.22597 0.28222
 N19 N 0.25806 0.21783 0.27411
 C20 C 0.26346 0.20158 0.28502
 C21 C 0.24994 0.19948 0.30060
 C22 C 0.23642 0.21510 0.29849
 H23 H 0.27621 0.19193 0.28188
 H24 H 0.22363 0.21822 0.30808
 H25 H 0.24163 0.23763 0.24585
 H26 H 0.25790 0.25439 0.26152
 N27 N 0.71745 -0.24190 0.22559
 N28 N 0.72532 -0.25850 0.21811
 C29 C 0.71447 -0.26420 0.20192
 C30 C 0.69919 -0.25038 0.19922
 C31 C 0.70142 -0.23642 0.21439
 H32 H 0.71747 -0.27731 0.19274
 H33 H 0.69213 -0.22330 0.21704
 Cu34 Cu 0.74923 -0.27066 0.23008
 Cu35 Cu 0.72839 -0.22866 0.24938
 Cu36 Cu 0.77117 -0.25007 0.27062
 N37 N 0.77339 -0.28246 0.24199
 N38 N 0.78207 -0.27412 0.25773
 C39 C 0.79857 -0.28486 0.26276
 C40 C 0.80019 -0.30073 0.24949
 C41 C 0.78405 -0.29888 0.23651
 H42 H 0.80863 -0.28139 0.27510
 H43 H 0.78044 -0.30870 0.22405
 N44 N 0.75803 -0.22579 0.28161
 N45 N 0.74175 -0.21763 0.27350
 C46 C 0.73631 -0.20145 0.28449
 C47 C 0.74978 -0.19945 0.30013
 C48 C 0.76334 -0.21501 0.29796
 H49 H 0.72347 -0.19187 0.28145
 H50 H 0.77603 -0.21824 0.30765
 H51 H 0.75748 -0.23812 0.24510
 H52 H 0.74124 -0.25390 0.26173
 N53 N 0.71825 0.24204 0.77385
 N54 N 0.72687 0.25787 0.78211
 C55 C 0.71619 0.26335 0.79849
 C56 C 0.70014 0.25027 0.80041
 C57 C 0.70182 0.23694 0.78463
 H58 H 0.71977 0.27585 0.80830
 H59 H 0.69184 0.22450 0.78123
 Cu60 Cu 0.75114 0.26976 0.77057
 Cu61 Cu 0.72906 0.22906 0.74990
 Cu62 Cu 0.77184 0.25040 0.72871
 N63 N 0.77499 0.28180 0.75833
 N64 N 0.78291 0.27423 0.74182
 C65 C 0.79901 0.28536 0.73641
 C66 C 0.80122 0.30062 0.75029
 C67 C 0.78585 0.29802 0.76401
 H68 H 0.80836 0.28260 0.72336
 H69 H 0.78284 0.30724 0.77709
 N70 N 0.75854 0.22627 0.71756
 N71 N 0.74226 0.21813 0.72566
 C72 C 0.73687 0.20188 0.71476
 C73 C 0.75038 0.19979 0.69918
 C74 C 0.76391 0.21540 0.70129
 H75 H 0.72411 0.19222 0.71790
 H76 H 0.77671 0.21852 0.69170
 H77 H 0.75851 0.23787 0.75395
 H78 H 0.74229 0.25462 0.73826
 N79 N 0.28222 -0.24212 0.77428
 N80 N 0.27391 -0.25831 0.78211
 C81 C 0.28460 -0.26396 0.79843
 C82 C 0.30029 -0.25053 0.80085
 C83 C 0.29845 -0.23690 0.78532
 H84 H 0.28124 -0.27677 0.80790
 H85 H 0.30812 -0.22412 0.78236
 Cu86 Cu 0.24989 -0.27033 0.77023
 Cu87 Cu 0.27135 -0.22896 0.75038
 Cu88 Cu 0.22850 -0.25041 0.72910
 N89 N 0.22587 -0.28226 0.75825
 N90 N 0.21755 -0.27437 0.74210
 C91 C 0.20131 -0.28541 0.73686
 C92 C 0.19944 -0.30095 0.75050
 C93 C 0.21519 -0.29863 0.76386
 H94 H 0.19159 -0.28235 0.72415
 H95 H 0.21855 -0.30812 0.77666
 N96 N 0.24174 -0.22617 0.71805
 N97 N 0.25802 -0.21801 0.72616
 C98 C 0.26337 -0.20174 0.71526
 C99 C 0.24983 -0.19966 0.69969
 C100 C 0.23634 -0.21530 0.70179
 H101 H 0.27613 -0.19207 0.71838
 H102 H 0.22357 -0.21845 0.69217
 H103 H 0.24203 -0.23804 0.75439
 H104 H 0.25826 -0.25422 0.73821
 N105 N 0.71803 -0.24197 0.77405
 N106 N 0.72671 -0.25778 0.78229
 C107 C 0.71612 -0.26329 0.79870
 C108 C 0.70003 -0.25028 0.80067
 C109 C 0.70161 -0.23695 0.78487
 H110 H 0.71977 -0.27578 0.80849
 H111 H 0.69154 -0.22458 0.78150
 Cu112 Cu 0.75073 -0.26970 0.77038
 Cu113 Cu 0.72879 -0.22887 0.75012
 Cu114 Cu 0.77164 -0.25023 0.72882
 N115 N 0.77476 -0.28163 0.75846
 N116 N 0.78267 -0.27411 0.74193
 C117 C 0.79869 -0.28534 0.73647
 C118 C 0.80086 -0.30060 0.75036
 C119 C 0.78556 -0.29789 0.76415
 H120 H 0.80797 -0.28270 0.72335
 H121 H 0.78253 -0.30708 0.77723
 N122 N 0.75830 -0.22606 0.71776
 N123 N 0.74202 -0.21792 0.72589
 C124 C 0.73666 -0.20162 0.71506
 C125 C 0.75018 -0.19951 0.69948
 C126 C 0.76368 -0.21513 0.70154
 H127 H 0.72393 -0.19194 0.71823
 H128 H 0.77647 -0.21823 0.69193
 H129 H 0.74202 -0.25422 0.73815
 H130 H 0.75823 -0.23773 0.75406
 N131 N 0.28225 0.24177 0.77391
 N132 N 0.27391 0.25792 0.78178
 C133 C 0.28465 0.26365 0.79802
 C134 C 0.30042 0.25032 0.80033
 C135 C 0.29857 0.23664 0.78485
 H136 H 0.28128 0.27646 0.80746
 H137 H 0.30830 0.22392 0.78185
 Cu138 Cu 0.24991 0.26983 0.76989
 Cu139 Cu 0.27133 0.22861 0.75006
 Cu140 Cu 0.22848 0.25000 0.72872
 N141 N 0.22592 0.28175 0.75799
 N142 N 0.21764 0.27395 0.74181
 C143 C 0.20147 0.28505 0.73654
 C144 C 0.19961 0.30052 0.75023
 C145 C 0.21529 0.29813 0.76362
 H146 H 0.19178 0.28209 0.72379
 H147 H 0.21866 0.30757 0.77641
 N148 N 0.24175 0.22578 0.71774
 N149 N 0.25802 0.21762 0.72589
 C150 C 0.26340 0.20136 0.71500
 C151 C 0.24988 0.19930 0.69943
 C152 C 0.23639 0.21492 0.70148
 H153 H 0.27616 0.19172 0.71812
 H154 H 0.22364 0.21807 0.69183
 H155 H 0.25813 0.25403 0.73775
 H156 H 0.24192 0.23783 0.75386
 N157 N 0.28241 -0.24162 0.22595
 N158 N 0.27381 -0.25744 0.21767
 C159 C 0.28451 -0.26292 0.20131
 C160 C 0.30055 -0.24983 0.19942
 C161 C 0.29886 -0.23651 0.21521
 H162 H 0.28094 -0.27540 0.19147
 H163 H 0.30883 -0.22408 0.21862
 Cu164 Cu 0.24955 -0.26933 0.22917
 Cu165 Cu 0.27158 -0.22867 0.24988
 Cu166 Cu 0.22883 -0.24999 0.27110
 N167 N 0.22579 -0.28139 0.24150
 N168 N 0.21787 -0.27380 0.25798
 C169 C 0.20182 -0.28496 0.26345
 C170 C 0.19964 -0.30026 0.24964
 C171 C 0.21498 -0.29766 0.23589
 H172 H 0.19249 -0.28219 0.27649
 H173 H 0.21797 -0.30692 0.22284
 N174 N 0.24211 -0.22587 0.28218
 N175 N 0.25840 -0.21774 0.27410
 C176 C 0.26381 -0.20151 0.28503
 C177 C 0.25029 -0.19945 0.30060
 C178 C 0.23674 -0.21502 0.29846
 H179 H 0.27660 -0.19188 0.28194
 H180 H 0.22395 -0.21816 0.30805
 H181 H 0.25822 -0.25430 0.26155
 H182 H 0.24198 -0.23753 0.24586
 N183 N 0.71751 0.24146 0.22603
 N184 N 0.72581 0.25769 0.21823
 C185 C 0.71516 0.26334 0.20190
 C186 C 0.69951 0.24991 0.19944
 C187 C 0.70134 0.23623 0.21493
 H188 H 0.71854 0.27616 0.19244
 H189 H 0.69167 0.22343 0.21783
 Cu190 Cu 0.74981 0.26963 0.23011
 Cu191 Cu 0.72835 0.22834 0.24994
 Cu192 Cu 0.77124 0.24971 0.27127
 N193 N 0.77382 0.28151 0.24204
 N194 N 0.78218 0.27360 0.25817
 C195 C 0.79847 0.28460 0.26331
 C196 C 0.80032 0.30011 0.24967
 C197 C 0.78453 0.29782 0.23638
 H198 H 0.80824 0.28155 0.27598
 H199 H 0.78116 0.30731 0.22360
 N200 N 0.75791 0.22555 0.28230
 N201 N 0.74163 0.21739 0.27418
 C202 C 0.73625 0.20113 0.28507
 C203 C 0.74977 0.19908 0.30065
 C204 C 0.76328 0.21469 0.29857
 H205 H 0.72350 0.19147 0.28195
 H206 H 0.77605 0.21781 0.30819
 H207 H 0.74169 0.25356 0.26212
 H208 H 0.75789 0.23738 0.24593
 C209 C 0.24989 -0.01052 0.43686
 C210 C 0.24963 0.01016 0.43685
 C211 C 0.24963 0.01621 0.45682
 N212 N 0.24992 -0.00016 0.46891
 C213 C 0.25006 -0.01654 0.45685
 C214 C 0.24954 0.03654 0.46335
 C215 C 0.24968 0.04297 0.48372
 C216 C 0.25054 0.06295 0.48984
 C217 C 0.25055 0.06295 0.51052
 C218 C 0.24969 0.04296 0.51663
 N219 N 0.24894 0.03101 0.50017
 C220 C 0.24956 0.03652 0.53700
 C221 C 0.24965 0.01620 0.54356
 C222 C 0.24962 0.01018 0.56354
 C223 C 0.24990 -0.01049 0.56355
 C224 C 0.25011 -0.01653 0.54358
 N225 N 0.24998 -0.00017 0.53149
 C226 C 0.25028 -0.03686 0.53705
 C227 C 0.25030 -0.04331 0.51668
 C228 C 0.24986 -0.06331 0.51058
 C229 C 0.24983 -0.06331 0.48989
 C230 C 0.25026 -0.04331 0.48377
 N231 N 0.25071 -0.03135 0.50022
 C232 C 0.25021 -0.03687 0.46340
 H233 H 0.24993 -0.02002 0.42363
 H234 H 0.24950 0.01963 0.42360
 H235 H 0.25179 -0.01593 0.50021
 H236 H 0.25109 0.07622 0.48040
 H237 H 0.25112 0.07621 0.51997
 H238 H 0.24945 0.01967 0.57678
 H239 H 0.24991 -0.01997 0.57680
 H240 H 0.24953 -0.07659 0.48045
 H241 H 0.24717 0.01564 0.50018
 H242 H 0.24959 -0.07658 0.52002
 C243 C 0.74985 -0.01059 0.56333
 C244 C 0.74980 0.01009 0.56336
 C245 C 0.74989 0.01616 0.54340
 N246 N 0.75000 -0.00020 0.53130
 C247 C 0.74996 -0.01659 0.54334
 C248 C 0.74992 0.03651 0.53688
 C249 C 0.74998 0.04297 0.51651
 C250 C 0.75031 0.06296 0.51039
 C251 C 0.75031 0.06296 0.48970
 C252 C 0.74998 0.04296 0.48359
 N253 N 0.74972 0.03101 0.50005
 C254 C 0.74991 0.03649 0.46323
 C255 C 0.74987 0.01617 0.45666
 C256 C 0.74981 0.01017 0.43666
 C257 C 0.74982 -0.01051 0.43663
 C258 C 0.74991 -0.01657 0.45660
 N259 N 0.74995 -0.00022 0.46870
 C260 C 0.74995 -0.03691 0.46312
 C261 C 0.75001 -0.04337 0.48348
 C262 C 0.75007 -0.06337 0.48958
 C263 C 0.75011 -0.06338 0.51028
 C264 C 0.75006 -0.04338 0.51640
 N265 N 0.75001 -0.03142 0.49994
 C266 C 0.75001 -0.03692 0.53676
 H267 H 0.74980 -0.02009 0.57655
 H268 H 0.74972 0.01956 0.57662
 H269 H 0.74998 -0.01599 0.49997
 H270 H 0.75051 0.07624 0.51983
 H271 H 0.75052 0.07623 0.48025
 H272 H 0.74977 0.01967 0.42344
 H273 H 0.74979 -0.01997 0.42338
 H274 H 0.75016 -0.07666 0.51971
 H275 H 0.74912 0.01559 0.50003
 H276 H 0.75008 -0.07665 0.48014
 C277 C 0.43655 0.24989 -0.01053
 C278 C 0.43653 0.25035 0.01010
 C279 C 0.45656 0.25066 0.01613
 N280 N 0.46872 0.25037 -0.00019
 C281 C 0.45660 0.24987 -0.01653
 C282 C 0.46311 0.25099 0.03641
 C283 C 0.48355 0.25095 0.04277
 C284 C 0.48970 0.24990 0.06271
 C285 C 0.51044 0.24992 0.06269
 C286 C 0.51654 0.25098 0.04273
 N287 N 0.50004 0.25191 0.03079
 C288 C 0.53697 0.25104 0.03634
 C289 C 0.54355 0.25073 0.01607
 C290 C 0.56361 0.25049 0.01009
 C291 C 0.56364 0.24993 -0.01053
 C292 C 0.54360 0.24980 -0.01658
 N293 N 0.53144 0.25032 -0.00028
 C294 C 0.53706 0.24959 -0.03686
 C295 C 0.51662 0.24975 -0.04322
 C296 C 0.51047 0.25132 -0.06313
 C297 C 0.48973 0.25141 -0.06311
 C298 C 0.48362 0.24987 -0.04318
 N299 N 0.50012 0.24846 -0.03126
 C300 C 0.46319 0.24977 -0.03680
 H301 H 0.42327 0.24965 -0.02002
 H302 H 0.42324 0.25039 0.01956
 H303 H 0.50010 0.24546 -0.01604
 H304 H 0.48026 0.24918 0.07597
 H305 H 0.51992 0.24923 0.07593
 H306 H 0.57688 0.25066 0.01959
 H307 H 0.57694 0.24971 -0.01999
 H308 H 0.48026 0.25250 -0.07632
 H309 H 0.50005 0.25417 0.01546
 H310 H 0.51993 0.25233 -0.07636
 C311 C 0.56403 0.74954 -0.00996
 C312 C 0.56401 0.74953 0.01069
 C313 C 0.54395 0.74958 0.01668
 N314 N 0.53186 0.74965 0.00032
 C315 C 0.54399 0.74960 -0.01601
 C316 C 0.53736 0.74958 0.03697
 C317 C 0.51693 0.74968 0.04339
 C318 C 0.51078 0.74993 0.06334
 C319 C 0.49001 0.74992 0.06331
 C320 C 0.48391 0.74965 0.04334
 N321 N 0.50043 0.74948 0.03143
 C322 C 0.46349 0.74953 0.03685
 C323 C 0.45693 0.74956 0.01655
 C324 C 0.43689 0.74947 0.01050
 C325 C 0.43690 0.74952 -0.01015
 C326 C 0.45695 0.74965 -0.01615
 N327 N 0.46905 0.74969 0.00021
 C328 C 0.46354 0.74969 -0.03645
 C329 C 0.48398 0.74974 -0.04286
 C330 C 0.49015 0.74983 -0.06282
 C331 C 0.51091 0.74980 -0.06278
 C332 C 0.51702 0.74969 -0.04280
 N333 N 0.50048 0.74965 -0.03090
 C334 C 0.53744 0.74962 -0.03631
 H335 H 0.57733 0.74951 -0.01941
 H336 H 0.57728 0.74950 0.02018
 H337 H 0.50047 0.74952 -0.01549
 H338 H 0.52024 0.75009 0.07661
 H339 H 0.48053 0.75007 0.07656
 H340 H 0.42360 0.74937 0.01996
 H341 H 0.42362 0.74946 -0.01963
 H342 H 0.52041 0.74985 -0.07602
 H343 H 0.50044 0.74900 0.01603
 H344 H 0.48069 0.74991 -0.07609
 C345 C -0.01063 0.43689 0.24896
 C346 C 0.01006 0.43689 0.24964
 C347 C 0.01608 0.45690 0.24997
 N348 N -0.00029 0.46903 0.24946
 C349 C -0.01665 0.45690 0.24882
 C350 C 0.03640 0.46345 0.25033
 C351 C 0.04276 0.48385 0.25039
 C352 C 0.06274 0.48999 0.24892
 C353 C 0.06272 0.51068 0.24892
 C354 C 0.04272 0.51677 0.25039
 N355 N 0.03074 0.50030 0.25174
 C356 C 0.03632 0.53717 0.25033
 C357 C 0.01599 0.54371 0.24998
 C358 C 0.00997 0.56372 0.24965
 C359 C -0.01072 0.56373 0.24897
 C360 C -0.01675 0.54372 0.24883
 N361 N -0.00039 0.53159 0.24948
 C362 C -0.03709 0.53718 0.24854
 C363 C -0.04341 0.51676 0.24866
 C364 C -0.06336 0.51061 0.25048
 C365 C -0.06333 0.48993 0.25049
 C366 C -0.04336 0.48384 0.24866
 N367 N -0.03139 0.50032 0.24710
 C368 C -0.03698 0.46344 0.24853
 H369 H -0.02013 0.42363 0.24866
 H370 H 0.01957 0.42363 0.24982
 H371 H -0.01617 0.50032 0.24366
 H372 H 0.07602 0.48055 0.24787
 H373 H 0.07598 0.52014 0.24787
 H374 H 0.01948 0.57697 0.24983
 H375 H -0.02021 0.57699 0.24867
 H376 H -0.07656 0.48046 0.25176
 H377 H 0.01543 0.50030 0.25473
 H378 H -0.07662 0.52004 0.25175
 C379 C -0.01040 0.56372 0.75015
 C380 C 0.01031 0.56370 0.75060
 C381 C 0.01633 0.54369 0.75081
 N382 N -0.00008 0.53159 0.75048
 C383 C -0.01646 0.54371 0.75007
 C384 C 0.03668 0.53713 0.75108
 C385 C 0.04309 0.51672 0.75103
 C386 C 0.06310 0.51058 0.75022
 C387 C 0.06307 0.48986 0.75017
 C388 C 0.04304 0.48376 0.75095
 N389 N 0.03107 0.50026 0.75173
 C390 C 0.03657 0.46337 0.75091
 C391 C 0.01621 0.45684 0.75070
 C392 C 0.01017 0.43683 0.75046
 C393 C -0.01054 0.43683 0.75010
 C394 C -0.01657 0.45685 0.75008
 N395 N -0.00017 0.46895 0.75047
 C396 C -0.03692 0.46340 0.74996
 C397 C -0.04331 0.48382 0.75002
 C398 C -0.06331 0.48996 0.75119
 C399 C -0.06328 0.51068 0.75117
 C400 C -0.04327 0.51678 0.74999
 N401 N -0.03130 0.50028 0.74896
 C402 C -0.03682 0.53718 0.74991
 H403 H -0.01989 0.57699 0.74995
 H404 H 0.01982 0.57696 0.75073
 H405 H -0.01596 0.50028 0.74655
 H406 H 0.07641 0.52001 0.74973
 H407 H 0.07636 0.48038 0.74962
 H408 H 0.01966 0.42356 0.75051
 H409 H -0.02004 0.42358 0.74991
 H410 H -0.07655 0.52015 0.75194
 H411 H 0.01566 0.50026 0.75352
 H412 H -0.07660 0.48052 0.75199
 C413 C 0.31546 0.25010 0.18400
 C414 C 0.32834 0.25018 0.17119
 C415 C 0.34374 0.25025 0.15592
 C416 C 0.36245 0.24117 0.15961
 C417 C 0.37742 0.24126 0.14479
 C418 C 0.37385 0.25042 0.12603
 C419 C 0.35500 0.25951 0.12247
 C420 C 0.34007 0.25943 0.13733
 C421 C 0.38970 0.25048 0.11023
 C422 C 0.38460 0.24717 0.08995
 C423 C 0.39949 0.24729 0.07506
 C424 C 0.41967 0.25073 0.08021
 C425 C 0.42493 0.25405 0.10033
 C426 C 0.41005 0.25391 0.11526
 C427 C 0.43495 0.25083 0.06484
 C428 C 0.44772 0.25090 0.05192
 H429 H 0.36544 0.23397 0.17393
 H430 H 0.39167 0.23392 0.14789
 H431 H 0.35189 0.26691 0.10830
 H432 H 0.32567 0.26657 0.13432
 H433 H 0.36912 0.24422 0.08563
 H434 H 0.39527 0.24465 0.05954
 H435 H 0.44050 0.25680 0.10447
 H436 H 0.41443 0.25675 0.13069
 C437 C 0.68491 0.74960 0.18453
 C438 C 0.67219 0.74965 0.17155
 C439 C 0.65693 0.74973 0.15614
 C440 C 0.66033 0.73979 0.13789
 C441 C 0.64543 0.73971 0.12299
 C442 C 0.62691 0.74959 0.12617
 C443 C 0.62367 0.75961 0.14454
 C444 C 0.63860 0.75968 0.15940
 C445 C 0.61103 0.74945 0.11040
 C446 C 0.59059 0.74702 0.11562
 C447 C 0.57565 0.74697 0.10077
 C448 C 0.58095 0.74936 0.08054
 C449 C 0.60122 0.75172 0.07519
 C450 C 0.61618 0.75176 0.09000
 C451 C 0.56559 0.74943 0.06528
 C452 C 0.55276 0.74950 0.05244
 H453 H 0.67445 0.73202 0.13520
 H454 H 0.64828 0.73169 0.10910
 H455 H 0.60970 0.76759 0.14732
 H456 H 0.63585 0.76751 0.17344
 H457 H 0.58617 0.74491 0.13115
 H458 H 0.55999 0.74505 0.10505
 H459 H 0.60545 0.75361 0.05956
 H460 H 0.63174 0.75389 0.08553
 C461 C 0.68482 0.25046 -0.18429
 C462 C 0.67196 0.25057 -0.17147
 C463 C 0.65660 0.25064 -0.15615
 C464 C 0.63909 0.26215 -0.15869
 C465 C 0.62414 0.26216 -0.14385
 C466 C 0.62653 0.25066 -0.12623
 C467 C 0.64420 0.23914 -0.12382
 C468 C 0.65912 0.23913 -0.13869
 C469 C 0.61067 0.25064 -0.11044
 C470 C 0.61598 0.25107 -0.08994
 C471 C 0.60105 0.25097 -0.07508
 C472 C 0.58065 0.25040 -0.08049
 C473 C 0.57520 0.24999 -0.10082
 C474 C 0.59010 0.25012 -0.11571
 C475 C 0.56532 0.25014 -0.06518
 C476 C 0.55249 0.24989 -0.05233
 H477 H 0.63701 0.27115 -0.17213
 H478 H 0.61083 0.27136 -0.14604
 H479 H 0.64636 0.22993 -0.11056
 H480 H 0.67258 0.23011 -0.13659
 H481 H 0.63166 0.25174 -0.08541
 H482 H 0.60543 0.25135 -0.05938
 H483 H 0.55945 0.24948 -0.10516
 H484 H 0.58555 0.24952 -0.13133
 C485 C 0.31549 0.74928 -0.18370
 C486 C 0.32831 0.74921 -0.17082
 C487 C 0.34369 0.74922 -0.15550
 C488 C 0.33914 0.75565 -0.13597
 C489 C 0.35413 0.75579 -0.12116
 C490 C 0.37390 0.74950 -0.12569
 C491 C 0.37833 0.74310 -0.14537
 C492 C 0.36331 0.74295 -0.16015
 C493 C 0.38982 0.74955 -0.10993
 C494 C 0.40959 0.75582 -0.11448
 C495 C 0.42455 0.75582 -0.09963
 C496 C 0.41995 0.74954 -0.08008
 C497 C 0.40035 0.74325 -0.07540
 C498 C 0.38537 0.74326 -0.09021
 C499 C 0.43530 0.74959 -0.06479
 C500 C 0.44813 0.74964 -0.05193
 H501 H 0.32403 0.76063 -0.13220
 H502 H 0.35033 0.76107 -0.10623
 H503 H 0.39333 0.73797 -0.14928
 H504 H 0.36699 0.73792 -0.17521
 H505 H 0.41343 0.76099 -0.12944
 H506 H 0.43967 0.76076 -0.10339
 H507 H 0.39666 0.73830 -0.06032
 H508 H 0.37038 0.73810 -0.08630
 C509 C 0.18408 0.31580 0.24957
 C510 C 0.17131 0.32872 0.24959
 C511 C 0.15601 0.34411 0.24962
 C512 C 0.16000 0.36295 0.24107
 C513 C 0.14511 0.37788 0.24100
 C514 C 0.12602 0.37413 0.24948
 C515 C 0.12219 0.35514 0.25809
 C516 C 0.13710 0.34024 0.25815
 C517 C 0.11019 0.38996 0.24938
 C518 C 0.08993 0.38498 0.24544
 C519 C 0.07503 0.39989 0.24541
 C520 C 0.08018 0.41995 0.24935
 C521 C 0.10029 0.42507 0.25325
 C522 C 0.11521 0.41019 0.25326
 C523 C 0.06482 0.43525 0.24962
 C524 C 0.05194 0.44806 0.24993
 H525 H 0.17458 0.36609 0.23439
 H526 H 0.14844 0.39225 0.23406
 H527 H 0.10776 0.35189 0.26499
 H528 H 0.13389 0.32573 0.26489
 H529 H 0.08564 0.36959 0.24213
 H530 H 0.05951 0.39578 0.24232
 H531 H 0.10442 0.44056 0.25636
 H532 H 0.13062 0.41446 0.25661
 C533 C 0.18503 0.68443 0.75067
 C534 C 0.17219 0.67153 0.75074
 C535 C 0.15674 0.65624 0.75075
 C536 C 0.16030 0.63756 0.75985
 C537 C 0.14530 0.62273 0.75980
 C538 C 0.12649 0.62639 0.75067
 C539 C 0.12306 0.64521 0.74156
 C540 C 0.13809 0.66001 0.74160
 C541 C 0.11055 0.61063 0.75064
 C542 C 0.09020 0.61576 0.75394
 C543 C 0.07526 0.60087 0.75402
 C544 C 0.08044 0.58070 0.75078
 C545 C 0.10060 0.57545 0.74738
 C546 C 0.11556 0.59030 0.74731
 C547 C 0.06508 0.56538 0.75089
 C548 C 0.05221 0.55254 0.75098
 H549 H 0.17465 0.63446 0.76703
 H550 H 0.14830 0.60850 0.76717
 H551 H 0.10884 0.64841 0.73419
 H552 H 0.13518 0.67439 0.73444
 H553 H 0.08589 0.63123 0.75677
 H554 H 0.05969 0.60509 0.75671
 H555 H 0.10474 0.55988 0.74477
 H556 H 0.13102 0.58590 0.74443
 C557 C -0.18522 0.68481 0.24924
 C558 C -0.17226 0.67202 0.24909
 C559 C -0.15680 0.65672 0.24899
 C560 C -0.13813 0.66039 0.25816
 C561 C -0.12318 0.64551 0.25818
 C562 C -0.12671 0.62670 0.24907
 C563 C -0.14552 0.62317 0.23987
 C564 C -0.16043 0.63809 0.23983
 C565 C -0.11088 0.61083 0.24916
 C566 C -0.11599 0.59053 0.25255
 C567 C -0.10109 0.57561 0.25260
 C568 C -0.08089 0.58075 0.24922
 C569 C -0.07563 0.60089 0.24585
 C570 C -0.09050 0.61584 0.24584
 C571 C -0.06556 0.56538 0.24906
 C572 C -0.05265 0.55257 0.24884
 H573 H -0.13515 0.67473 0.26536
 H574 H -0.10896 0.64860 0.26560
 H575 H -0.14861 0.60895 0.23251
 H576 H -0.17479 0.63509 0.23263
 H577 H -0.13149 0.58623 0.25541
 H578 H -0.10532 0.56007 0.25529
 H579 H -0.06005 0.60502 0.24315
 H580 H -0.08611 0.63127 0.24293
 C581 C -0.18443 0.31530 0.75032
 C582 C -0.17170 0.32830 0.75030
 C583 C -0.15646 0.34379 0.75025
 C584 C -0.13925 0.34170 0.73823
 C585 C -0.12436 0.35663 0.73828
 C586 C -0.12649 0.37391 0.75036
 C587 C -0.14390 0.37592 0.76232
 C588 C -0.15876 0.36095 0.76227
 C589 C -0.11063 0.38974 0.75048
 C590 C -0.11593 0.41027 0.75078
 C591 C -0.10101 0.42517 0.75082
 C592 C -0.08060 0.41976 0.75058
 C593 C -0.07515 0.39940 0.75035
 C594 C -0.09005 0.38447 0.75029
 C595 C -0.06528 0.43512 0.75043
 C596 C -0.05243 0.44799 0.75024
 H597 H -0.13734 0.32853 0.72880
 H598 H -0.11128 0.35478 0.72870
 H599 H -0.14588 0.38892 0.77194
 H600 H -0.17200 0.36273 0.77166
 H601 H -0.13162 0.41482 0.75069
 H602 H -0.10538 0.44089 0.75094
 H603 H -0.05938 0.39505 0.75024
 H604 H -0.08548 0.36882 0.75033
 C605 C 0.24993 0.18416 0.31589
 C606 C 0.24993 0.17129 0.32870
 C607 C 0.24993 0.15594 0.34402
 C608 C 0.24076 0.15962 0.36262
 C609 C 0.24078 0.14475 0.37752
 C610 C 0.24995 0.12596 0.37400
 C611 C 0.25912 0.12240 0.35524
 C612 C 0.25911 0.13731 0.34037
 C613 C 0.24993 0.11014 0.38981
 C614 C 0.24655 0.08983 0.38477
 C615 C 0.24645 0.07497 0.39968
 C616 C 0.24975 0.08019 0.41980
 C617 C 0.25315 0.10033 0.42498
 C618 C 0.25322 0.11522 0.41010
 C619 C 0.24968 0.06488 0.43512
 C620 C 0.24962 0.05203 0.44795
 H621 H 0.23354 0.17396 0.36559
 H622 H 0.23338 0.14785 0.39170
 H623 H 0.26652 0.10820 0.35216
 H624 H 0.26631 0.13431 0.32605
 H625 H 0.24371 0.08547 0.36934
 H626 H 0.24373 0.05942 0.39551
 H627 H 0.25578 0.10453 0.44051
 H628 H 0.25612 0.13068 0.41443
 C629 C 0.75038 0.18445 0.68392
 C630 C 0.75034 0.17156 0.67114
 C631 C 0.75027 0.15619 0.65586
 C632 C 0.73696 0.13988 0.65730
 C633 C 0.73687 0.12495 0.64247
 C634 C 0.75010 0.12615 0.62596
 C635 C 0.76342 0.14262 0.62465
 C636 C 0.76350 0.15751 0.63951
 C637 C 0.75006 0.11028 0.61020
 C638 C 0.75198 0.11543 0.58976
 C639 C 0.75198 0.10048 0.57495
 C640 C 0.75006 0.08020 0.58035
 C641 C 0.74816 0.07491 0.60063
 C642 C 0.74813 0.08983 0.61547
 C643 C 0.75002 0.06484 0.56509
 C644 C 0.74998 0.05198 0.55228
 H645 H 0.72661 0.13873 0.66986
 H646 H 0.72626 0.11261 0.64377
 H647 H 0.77395 0.14384 0.61227
 H648 H 0.77391 0.17004 0.63828
 H649 H 0.75324 0.13104 0.58520
 H650 H 0.75341 0.10474 0.55928
 H651 H 0.74674 0.05924 0.60499
 H652 H 0.74688 0.08537 0.63108
 C653 C 0.24986 -0.18442 0.68435
 C654 C 0.24991 -0.17162 0.67149
 C655 C 0.24996 -0.15628 0.65618
 C656 C 0.25843 -0.13738 0.66015
 C657 C 0.25846 -0.12246 0.64531
 C658 C 0.25001 -0.12627 0.62627
 C659 C 0.24155 -0.14533 0.62242
 C660 C 0.24152 -0.16022 0.63729
 C661 C 0.25001 -0.11043 0.61049
 C662 C 0.25411 -0.11538 0.59032
 C663 C 0.25412 -0.10048 0.57548
 C664 C 0.25002 -0.08045 0.58058
 C665 C 0.24591 -0.07535 0.60058
 C666 C 0.24591 -0.09023 0.61545
 C667 C 0.25008 -0.06514 0.56528
 C668 C 0.25017 -0.05232 0.55244
 H669 H 0.26508 -0.13420 0.67470
 H670 H 0.26532 -0.10804 0.64864
 H671 H 0.23472 -0.14863 0.60800
 H672 H 0.23489 -0.17478 0.63406
 H673 H 0.25758 -0.13074 0.58607
 H674 H 0.25738 -0.10456 0.56004
 H675 H 0.24265 -0.05988 0.60467
 H676 H 0.24244 -0.08599 0.63079
 C677 C 0.74969 -0.18429 0.31557
 C678 C 0.74965 -0.17154 0.32849
 C679 C 0.74965 -0.15626 0.34386
 C680 C 0.74054 -0.13760 0.34021
 C681 C 0.74061 -0.12269 0.35507
 C682 C 0.74979 -0.12628 0.37382
 C683 C 0.75890 -0.14511 0.37735
 C684 C 0.75883 -0.15998 0.36245
 C685 C 0.74985 -0.11046 0.38962
 C686 C 0.74655 -0.11554 0.40991
 C687 C 0.74656 -0.10064 0.42476
 C688 C 0.74988 -0.08049 0.41956
 C689 C 0.75320 -0.07527 0.39945
 C690 C 0.75318 -0.09014 0.38456
 C691 C 0.74989 -0.06519 0.43487
 C692 C 0.74992 -0.05237 0.44771
 H693 H 0.73334 -0.13458 0.32589
 H694 H 0.73326 -0.10846 0.35198
 H695 H 0.76632 -0.14823 0.39152
 H696 H 0.76600 -0.17435 0.36542
 H697 H 0.74369 -0.13100 0.41425
 H698 H 0.74391 -0.10482 0.44029
 H699 H 0.75585 -0.05971 0.39527
 H700 H 0.75602 -0.08579 0.36913
 C701 C 0.68474 0.74947 -0.18403
 C702 C 0.67186 0.74936 -0.17122
 C703 C 0.65649 0.74933 -0.15593
 C704 C 0.63819 0.75932 -0.15923
 C705 C 0.62329 0.75938 -0.14434
 C706 C 0.62654 0.74946 -0.12591
 C707 C 0.64501 0.73948 -0.12275
 C708 C 0.65987 0.73942 -0.13766
 C709 C 0.61078 0.74954 -0.11005
 C710 C 0.61610 0.75199 -0.08970
 C711 C 0.60127 0.75199 -0.07475
 C712 C 0.58096 0.74954 -0.07994
 C713 C 0.57549 0.74711 -0.10012
 C714 C 0.59030 0.74713 -0.11509
 C715 C 0.56571 0.74957 -0.06458
 C716 C 0.55288 0.74959 -0.05174
 H717 H 0.63545 0.76711 -0.17329
 H718 H 0.60935 0.76743 -0.14712
 H719 H 0.64786 0.73151 -0.10883
 H720 H 0.67397 0.73161 -0.13496
 H721 H 0.63171 0.75414 -0.08536
 H722 H 0.60565 0.75393 -0.05917
 H723 H 0.55980 0.74514 -0.10426
 H724 H 0.58575 0.74496 -0.13058
 C725 C 0.31559 0.25054 -0.18424
 C726 C 0.32836 0.25060 -0.17132
 C727 C 0.34368 0.25052 -0.15598
 C728 C 0.33937 0.25791 -0.13675
 C729 C 0.35428 0.25781 -0.12187
 C730 C 0.37371 0.25034 -0.12605
 C731 C 0.37785 0.24290 -0.14543
 C732 C 0.36292 0.24299 -0.16028
 C733 C 0.38958 0.25036 -0.11029
 C734 C 0.40958 0.25566 -0.11505
 C735 C 0.42449 0.25574 -0.10018
 C736 C 0.41961 0.25050 -0.08039
 C737 C 0.39977 0.24525 -0.07548
 C738 C 0.38484 0.24518 -0.09032
 C739 C 0.43496 0.25036 -0.06512
 C740 C 0.44779 0.25013 -0.05227
 H741 H 0.32452 0.26378 -0.13325
 H742 H 0.35070 0.26381 -0.10715
 H743 H 0.39255 0.23675 -0.14901
 H744 H 0.36636 0.23712 -0.17509
 H745 H 0.41364 0.25998 -0.13022
 H746 H 0.43981 0.25990 -0.10410
 H747 H 0.39586 0.24113 -0.06020
 H748 H 0.36964 0.24079 -0.08624
 C749 C 0.31589 0.74999 0.18418
 C750 C 0.32879 0.74986 0.17140
 C751 C 0.34418 0.74972 0.15615
 C752 C 0.36285 0.75887 0.15980
 C753 C 0.37779 0.75876 0.14496
 C754 C 0.37422 0.74951 0.12625
 C755 C 0.35540 0.74035 0.12274
 C756 C 0.34049 0.74045 0.13761
 C757 C 0.39003 0.74945 0.11044
 C758 C 0.38490 0.75272 0.09016
 C759 C 0.39979 0.75265 0.07528
 C760 C 0.41997 0.74930 0.08047
 C761 C 0.42525 0.74602 0.10057
 C762 C 0.41039 0.74611 0.11548
 C763 C 0.43526 0.74934 0.06515
 C764 C 0.44807 0.74942 0.05229
 H765 H 0.36585 0.76613 0.17408
 H766 H 0.39203 0.76615 0.14801
 H767 H 0.35230 0.73288 0.10860
 H768 H 0.32611 0.73326 0.13466
 H769 H 0.36941 0.75561 0.08584
 H770 H 0.39557 0.75526 0.05975
 H771 H 0.44084 0.74336 0.10472
 H772 H 0.41477 0.74331 0.13092
 C773 C 0.68435 0.25014 0.18399
 C774 C 0.67157 0.25030 0.17107
 C775 C 0.65626 0.25039 0.15572
 C776 C 0.65883 0.23899 0.13821
 C777 C 0.64388 0.23895 0.12337
 C778 C 0.62613 0.25031 0.12587
 C779 C 0.62366 0.26168 0.14356
 C780 C 0.63865 0.26172 0.15836
 C781 C 0.61030 0.25036 0.11007
 C782 C 0.58973 0.24967 0.11530
 C783 C 0.57486 0.24979 0.10038
 C784 C 0.58036 0.25063 0.08009
 C785 C 0.60075 0.25131 0.07473
 C786 C 0.61564 0.25117 0.08961
 C787 C 0.56510 0.25077 0.06473
 C788 C 0.55235 0.25091 0.05183
 H789 H 0.67236 0.23008 0.13604
 H790 H 0.64607 0.22981 0.11006
 H791 H 0.61027 0.27075 0.14583
 H792 H 0.63652 0.27062 0.17186
 H793 H 0.58515 0.24878 0.13091
 H794 H 0.55909 0.24918 0.10467
 H795 H 0.60514 0.25201 0.05905
 H796 H 0.63133 0.25197 0.08512
 C797 C -0.18490 0.68461 0.75034
 C798 C -0.17219 0.67160 0.75030
 C799 C -0.15683 0.65623 0.75032
 C800 C -0.13785 0.66031 0.75859
 C801 C -0.12287 0.64548 0.75869
 C802 C -0.12668 0.62631 0.75050
 C803 C -0.14581 0.62234 0.74217
 C804 C -0.16077 0.63722 0.74206
 C805 C -0.11075 0.61056 0.75061
 C806 C -0.11557 0.59039 0.75503
 C807 C -0.10055 0.57559 0.75510
 C808 C -0.08055 0.58073 0.75071
 C809 C -0.07558 0.60075 0.74635
 C810 C -0.09057 0.61557 0.74631
 C811 C -0.06518 0.56544 0.75049
 C812 C -0.05232 0.55260 0.75024
 H813 H -0.13463 0.67496 0.76502
 H814 H -0.10839 0.64893 0.76539
 H815 H -0.14910 0.60784 0.73548
 H816 H -0.17536 0.63392 0.73548
 H817 H -0.13090 0.58610 0.75868
 H818 H -0.10453 0.56015 0.75857
 H819 H -0.06014 0.60488 0.74289
 H820 H -0.08642 0.63091 0.74262
 C821 C -0.18453 0.31561 0.24948
 C822 C -0.17180 0.32860 0.24939
 C823 C -0.15655 0.34405 0.24933
 C824 C -0.14069 0.34323 0.23547
 C825 C -0.12577 0.35813 0.23552
 C826 C -0.12655 0.37408 0.24943
 C827 C -0.14258 0.37479 0.26329
 C828 C -0.15746 0.35985 0.26324
 C829 C -0.11070 0.38990 0.24949
 C830 C -0.11585 0.41028 0.25223
 C831 C -0.10092 0.42516 0.25212
 C832 C -0.08068 0.41988 0.24932
 C833 C -0.07538 0.39965 0.24665
 C834 C -0.09028 0.38474 0.24672
 C835 C -0.06536 0.43521 0.24908
 C836 C -0.05249 0.44804 0.24883
 H837 H -0.13984 0.33109 0.22461
 H838 H -0.11375 0.35730 0.22451
 H839 H -0.14344 0.38672 0.27436
 H840 H -0.16963 0.36057 0.27409
 H841 H -0.13144 0.41474 0.25415
 H842 H -0.10517 0.44079 0.25415
 H843 H -0.05973 0.39540 0.24454
 H844 H -0.08582 0.36917 0.24484
 C845 C 0.18447 0.31600 0.75045
 C846 C 0.17169 0.32893 0.75056
 C847 C 0.15633 0.34423 0.75064
 C848 C 0.16051 0.36342 0.74299
 C849 C 0.14553 0.37825 0.74292
 C850 C 0.12616 0.37406 0.75051
 C851 C 0.12211 0.35470 0.75813
 C852 C 0.13711 0.33990 0.75820
 C853 C 0.11027 0.38984 0.75052
 C854 C 0.09020 0.38500 0.74556
 C855 C 0.07527 0.39989 0.74558
 C856 C 0.08021 0.41977 0.75056
 C857 C 0.10012 0.42473 0.75552
 C858 C 0.11506 0.40988 0.75550
 C859 C 0.06488 0.43508 0.75064
 C860 C 0.05205 0.44794 0.75075
 H861 H 0.17531 0.36690 0.73699
 H862 H 0.14902 0.39291 0.73668
 H863 H 0.10742 0.35109 0.76428
 H864 H 0.13371 0.32509 0.76417
 H865 H 0.08609 0.36977 0.74142
 H866 H 0.05990 0.39590 0.74167
 H867 H 0.10407 0.44007 0.75947
 H868 H 0.13031 0.41402 0.75964
 C869 C 0.18445 0.68431 0.24963
 C870 C 0.17164 0.67143 0.24968
 C871 C 0.15629 0.65610 0.24973
 C872 C 0.15994 0.63750 0.24054
 C873 C 0.14497 0.62266 0.24043
 C874 C 0.12613 0.62626 0.24951
 C875 C 0.12263 0.64501 0.25874
 C876 C 0.13763 0.65982 0.25885
 C877 C 0.11022 0.61051 0.24939
 C878 C 0.08990 0.61566 0.24601
 C879 C 0.07495 0.60079 0.24597
 C880 C 0.08011 0.58063 0.24934
 C881 C 0.10028 0.57535 0.25266
 C882 C 0.11525 0.59018 0.25268
 C883 C 0.06472 0.56537 0.24959
 C884 C 0.05184 0.55256 0.24991
 H885 H 0.17432 0.63448 0.23340
 H886 H 0.14802 0.60848 0.23300
 H887 H 0.10838 0.64813 0.26608
 H888 H 0.13468 0.67415 0.26608
 H889 H 0.08559 0.63113 0.24317
 H890 H 0.05937 0.60501 0.24332
 H891 H 0.10442 0.55979 0.25533
 H892 H 0.13071 0.58579 0.25558
 C893 C 0.75026 -0.18413 0.68430
 C894 C 0.75032 -0.17125 0.67151
 C895 C 0.75031 -0.15599 0.65615
 C896 C 0.75777 -0.13671 0.66033
 C897 C 0.75768 -0.12187 0.64541
 C898 C 0.75014 -0.12615 0.62608
 C899 C 0.74271 -0.14559 0.62203
 C900 C 0.74279 -0.16039 0.63698
 C901 C 0.75001 -0.11041 0.61022
 C902 C 0.75510 -0.11526 0.59025
 C903 C 0.75503 -0.10041 0.57535
 C904 C 0.74986 -0.08057 0.58019
 C905 C 0.74471 -0.07560 0.59998
 C906 C 0.74478 -0.09041 0.61491
 C907 C 0.74991 -0.06527 0.56490
 C908 C 0.74996 -0.05241 0.55211
 H909 H 0.76370 -0.13316 0.67510
 H910 H 0.76374 -0.10713 0.64890
 H911 H 0.73659 -0.14927 0.60739
 H912 H 0.73695 -0.17525 0.63360
 H913 H 0.75941 -0.13046 0.58622
 H914 H 0.75908 -0.10439 0.56007
 H915 H 0.74059 -0.06028 0.60385
 H916 H 0.74052 -0.08627 0.63007
 C917 C 0.25022 -0.18413 0.31586
 C918 C 0.25016 -0.17129 0.32867
 C919 C 0.25010 -0.15600 0.34401
 C920 C 0.24181 -0.13703 0.34002
 C921 C 0.24177 -0.12216 0.35491
 C922 C 0.25001 -0.12611 0.37402
 C923 C 0.25828 -0.14524 0.37788
 C924 C 0.25833 -0.16007 0.36296
 C925 C 0.24997 -0.11034 0.38986
 C926 C 0.24556 -0.11533 0.40995
 C927 C 0.24553 -0.10047 0.42485
 C928 C 0.24993 -0.08047 0.41987
 C929 C 0.25434 -0.07535 0.39994
 C930 C 0.25435 -0.09017 0.38502
 C931 C 0.24999 -0.06520 0.43521
 C932 C 0.25007 -0.05236 0.44803
 H933 H 0.23532 -0.13374 0.32542
 H934 H 0.23506 -0.10767 0.35157
 H935 H 0.26496 -0.14865 0.39235
 H936 H 0.26484 -0.17470 0.36619
 H937 H 0.24189 -0.13067 0.41410
 H938 H 0.24204 -0.10458 0.44023
 H939 H 0.25783 -0.05991 0.39595
 H940 H 0.25807 -0.08592 0.36974
 C941 C 0.74977 0.18384 0.31597
 C942 C 0.74979 0.17104 0.32882
 C943 C 0.74985 0.15573 0.34413
 C944 C 0.73948 0.15885 0.36218
 C945 C 0.73952 0.14396 0.37705
 C946 C 0.74995 0.12575 0.37402
 C947 C 0.76033 0.12277 0.35580
 C948 C 0.76029 0.13768 0.34097
 C949 C 0.75000 0.10994 0.38979
 C950 C 0.74811 0.08948 0.38457
 C951 C 0.74810 0.07462 0.39945
 C952 C 0.75001 0.08001 0.41971
 C953 C 0.75194 0.10029 0.42505
 C954 C 0.75192 0.11518 0.41020
 C955 C 0.74998 0.06474 0.43501
 C956 C 0.74995 0.05194 0.44785
 H957 H 0.73131 0.17275 0.36475
 H958 H 0.73118 0.14659 0.39080
 H959 H 0.76870 0.10901 0.35314
 H960 H 0.76843 0.13515 0.32707
 H961 H 0.74636 0.08500 0.36901
 H962 H 0.74655 0.05894 0.39518
 H963 H 0.75350 0.10459 0.44070
 H964 H 0.75368 0.13077 0.41466
 C965 C 0.24994 0.18409 0.68409
 C966 C 0.24998 0.17131 0.67122
 C967 C 0.24997 0.15601 0.65592
 C968 C 0.23470 0.14144 0.65557
 C969 C 0.23470 0.12652 0.64075
 C970 C 0.24998 0.12600 0.62607
 C971 C 0.26524 0.14073 0.62654
 C972 C 0.26523 0.15562 0.64140
 C973 C 0.24998 0.11016 0.61032
 C974 C 0.25490 0.11493 0.59030
 C975 C 0.25479 0.10002 0.57547
 C976 C 0.24981 0.08016 0.58045
 C977 C 0.24494 0.07523 0.60032
 C978 C 0.24500 0.09013 0.61518
 C979 C 0.24971 0.06484 0.56518
 C980 C 0.24965 0.05200 0.55237
 H981 H 0.22277 0.14165 0.66671
 H982 H 0.22261 0.11554 0.64062
 H983 H 0.27734 0.14057 0.61560
 H984 H 0.27714 0.16680 0.64159
 H985 H 0.25855 0.13025 0.58606
 H986 H 0.25852 0.10399 0.56010
 H987 H 0.24113 0.05988 0.60435
 H988 H 0.24141 0.08594 0.63050
   
