data_POSCAR
  _audit_creation_date              2014-09-24
  _audit_creation_method            'ToBaCCo'
  _symmetry_space_group_name_H-M    'P1'
  _symmetry_Int_Tables_number       1
  _symmetry_cell_setting            triclinic
  loop_
  _symmetry_equiv_pos_as_xyz
 x,y,z
_cell_length_a 49.6616
_cell_length_b 49.7606
_cell_length_c 17.9869
_cell_angle_alpha 90.021000
_cell_angle_beta 90.022400
_cell_angle_gamma 119.996700
loop_
  _atom_site_label
  _atom_site_type_symbol
  _atom_site_fract_x
  _atom_site_fract_y
  _atom_site_fract_z
C1 C 0.19830 0.51131 0.56714
 C2 C 0.18427 0.51082 0.49940
 C3 C 0.19838 0.51153 0.43169
 C4 C 0.22762 0.51308 0.43103
 C5 C 0.24220 0.51374 0.49956
 C6 C 0.22752 0.51287 0.56797
 C7 C 0.24227 0.51321 0.63511
 C8 C 0.27070 0.51401 0.63517
 C9 C 0.28550 0.51454 0.56811
 C10 C 0.27122 0.51460 0.49965
 C11 C 0.24248 0.51364 0.36398
 C12 C 0.27091 0.51445 0.36410
 C13 C 0.28555 0.51477 0.43123
 C14 C 0.31399 0.51483 0.43198
 C15 C 0.32788 0.51496 0.49946
 C16 C 0.31401 0.51459 0.56722
 H17 H 0.23182 0.51270 0.68829
 H18 H 0.28099 0.51409 0.68833
 H19 H 0.23212 0.51330 0.31075
 H20 H 0.28131 0.51470 0.31102
 H21 H 0.16161 0.50922 0.49939
 H22 H 0.34950 0.51444 0.49906
 C23 C 0.48439 -0.20193 0.43225
 C24 C 0.48452 -0.18822 0.49998
 C25 C 0.48442 -0.20208 0.56744
 C26 C 0.48377 -0.23077 0.56791
 C27 C 0.48343 -0.24510 0.49929
 C28 C 0.48372 -0.23062 0.43105
 C29 C 0.48379 -0.24494 0.36375
 C30 C 0.48389 -0.27288 0.36331
 C31 C 0.48396 -0.28749 0.43021
 C32 C 0.48356 -0.27356 0.49890
 C33 C 0.48390 -0.24526 0.63482
 C34 C 0.48402 -0.27319 0.63451
 C35 C 0.48404 -0.28763 0.56721
 C36 C 0.48494 -0.31558 0.56604
 C37 C 0.48510 -0.32914 0.49821
 C38 C 0.48484 -0.31547 0.43066
 H39 H 0.48388 -0.23455 0.31079
 H40 H 0.48406 -0.28292 0.31001
 H41 H 0.48403 -0.23500 0.68803
 H42 H 0.48424 -0.28335 0.68756
 H43 H 0.48556 -0.16589 0.50020
 H44 H 0.48628 -0.35039 0.49800
 C45 C 1.19884 0.68805 0.56844
 C46 C 1.18489 0.67461 0.50058
 C47 C 1.19904 0.68812 0.43308
 C48 C 1.22814 0.71575 0.43248
 C49 C 1.24268 0.72965 0.50094
 C50 C 1.22801 0.71576 0.56935
 C51 C 1.24273 0.73014 0.63647
 C52 C 1.27109 0.75778 0.63650
 C53 C 1.28585 0.77210 0.56942
 C54 C 1.27162 0.75782 0.50095
 C55 C 1.24286 0.73000 0.36540
 C56 C 1.27122 0.75764 0.36537
 C57 C 1.28592 0.77204 0.43246
 C58 C 1.31436 0.80050 0.43328
 C59 C 1.32816 0.81416 0.50098
 C60 C 1.31427 0.80055 0.56862
 H61 H 1.23231 0.72015 0.68963
 H62 H 1.28136 0.76795 0.68968
 H63 H 1.23246 0.71994 0.31224
 H64 H 1.28152 0.76775 0.31221
 H65 H 1.16230 0.65356 0.50012
 H66 H 1.34976 0.83631 0.50104
 C67 C 0.68791 0.48948 0.56915
 C68 C 0.67435 0.48992 0.50139
 C69 C 0.68779 0.48926 0.43376
 C70 C 0.71548 0.48786 0.43296
 C71 C 0.72948 0.48727 0.50134
 C72 C 0.71566 0.48806 0.56986
 C73 C 0.73015 0.48776 0.63686
 C74 C 0.75784 0.48706 0.63667
 C75 C 0.77210 0.48662 0.56948
 C76 C 0.75769 0.48654 0.50115
 C77 C 0.72972 0.48742 0.36577
 C78 C 0.75742 0.48675 0.36559
 C79 C 0.77185 0.48647 0.43257
 C80 C 0.80030 0.48653 0.43306
 C81 C 0.81412 0.48642 0.50047
 C82 C 0.80060 0.48667 0.56833
 H83 H 0.72021 0.48820 0.69011
 H84 H 0.76811 0.48700 0.68975
 H85 H 0.71960 0.48773 0.31268
 H86 H 0.76753 0.48657 0.31240
 H87 H 0.65326 0.49142 0.50112
 H88 H 0.83629 0.48701 0.49995
 C89 C 0.50896 0.19796 0.43384
 C90 C 0.50863 0.18414 0.50164
 C91 C 0.50881 0.19809 0.56914
 C92 C 0.50963 0.22687 0.56958
 C93 C 0.51006 0.24122 0.50101
 C94 C 0.50975 0.22671 0.43276
 C95 C 0.50986 0.24113 0.36549
 C96 C 0.50994 0.26916 0.36513
 C97 C 0.50993 0.28378 0.43203
 C98 C 0.51017 0.26979 0.50066
 C99 C 0.50968 0.24148 0.63650
 C100 C 0.50980 0.26954 0.63620
 C101 C 0.50987 0.28401 0.56892
 C102 C 0.50929 0.31214 0.56771
 C103 C 0.50916 0.32567 0.49973
 C104 C 0.50933 0.31184 0.43232
 H105 H 0.50975 0.23076 0.31248
 H106 H 0.50989 0.27926 0.31185
 H107 H 0.50949 0.23124 0.68974
 H108 H 0.50971 0.27977 0.68927
 H109 H 0.50757 0.16181 0.50186
 H110 H 0.50825 0.34704 0.49912
 C111 C 0.68838 0.19858 0.56842
 C112 C 0.67494 0.18452 0.50073
 C113 C 0.68836 0.19861 0.43311
 C114 C 0.71591 0.22779 0.43243
 C115 C 0.72977 0.24240 0.50091
 C116 C 0.71595 0.22774 0.56928
 C117 C 0.73025 0.24242 0.63642
 C118 C 0.75784 0.27085 0.63654
 C119 C 0.77210 0.28567 0.56948
 C120 C 0.75782 0.27140 0.50099
 C121 C 0.73013 0.24255 0.36537
 C122 C 0.75767 0.27103 0.36543
 C123 C 0.77195 0.28573 0.43255
 C124 C 0.80024 0.31421 0.43332
 C125 C 0.81395 0.32809 0.50086
 C126 C 0.80049 0.31419 0.56860
 H127 H 0.72027 0.23192 0.68952
 H128 H 0.76801 0.28113 0.68972
 H129 H 0.72011 0.23211 0.31221
 H130 H 0.76779 0.28140 0.31233
 H131 H 0.65396 0.16191 0.50068
 H132 H 0.83603 0.34973 0.50052
 O133 O 0.95810 0.43367 0.13727
 O134 O 0.92341 0.43961 0.06497
 C135 C 0.93000 0.42642 0.11861
 O136 O 1.04465 0.57118 0.12808
 O137 O 1.07918 0.56266 0.06193
 C138 C 1.07271 0.57777 0.11091
 O139 O 0.95785 0.52544 0.13481
 O140 O 0.92332 0.48402 0.06443
 C141 C 0.92981 0.50423 0.11698
 O142 O 1.04469 0.47402 0.12965
 O143 O 1.07917 0.51648 0.06203
 C144 C 1.07275 0.49526 0.11196
 Zr145 Zr 1.00128 0.46662 0.09105
 O146 O 1.00258 0.46297 0.20792
 O147 O 1.00006 0.42384 0.07778
 Zr148 Zr 1.00122 0.53472 0.09111
 O149 O 1.00390 0.53809 0.20852
 O150 O 0.99983 0.57633 0.08132
 O151 O 0.97377 0.48696 0.10611
 O152 O 1.02807 0.51411 0.10531
 O153 O 1.04470 0.47356 -0.13170
 O154 O 1.07915 0.51640 -0.06493
 C155 C 1.07274 0.49494 -0.11419
 O156 O 0.95778 0.52517 -0.13891
 O157 O 0.92329 0.48393 -0.06813
 C158 C 0.92975 0.50405 -0.12083
 O159 O 1.04461 0.57103 -0.13196
 O160 O 1.07914 0.56260 -0.06550
 C161 C 1.07268 0.57765 -0.11468
 O162 O 0.95787 0.43266 -0.13888
 O163 O 0.92333 0.43940 -0.06802
 C164 C 0.92981 0.42575 -0.12077
 Zr165 Zr 1.00120 0.46651 -0.09469
 O166 O 1.00446 0.46650 -0.21199
 O167 O 0.99808 0.42251 -0.08977
 Zr168 Zr 1.00115 0.53455 -0.09502
 O169 O 1.00443 0.53740 -0.21238
 O170 O 0.99805 0.57545 -0.09100
 Zr171 Zr 0.95450 0.47728 -0.00179
 Zr172 Zr 1.04777 0.52393 -0.00168
 O173 O 1.02802 0.51394 -0.10884
 O174 O 0.97358 0.48674 -0.10982
 O175 O 1.02941 0.47548 -0.00167
 O176 O 0.97369 0.52574 -0.00191
 O177 O 0.97365 0.44793 -0.00163
 O178 O 1.02926 0.55389 -0.00188
 H179 H 1.04170 0.52102 0.14972
 H180 H 0.95940 0.53424 -0.00199
 H181 H 1.04165 0.52073 -0.15322
 H182 H 0.95925 0.42519 -0.00138
 H183 H 0.99979 0.58339 0.13282
 H184 H 1.01524 0.59057 -0.05916
 H185 H 0.98872 0.51698 -0.23239
 H186 H 0.98933 0.47201 -0.23218
 H187 H 1.01609 0.42493 -0.06068
 H188 H 0.99946 0.41596 0.12867
 H189 H 1.00412 0.48204 0.22881
 H190 H 0.98852 0.51754 0.22860
 O191 O 0.43278 0.47575 0.13546
 O192 O 0.43909 0.51656 0.06368
 C193 C 0.42566 0.49666 0.11693
 O194 O 0.57042 0.52655 0.12962
 O195 O 0.56236 0.48411 0.06185
 C196 C 0.57720 0.50534 0.11177
 O197 O 0.52475 0.56764 0.13571
 O198 O 0.48364 0.56104 0.06433
 C199 C 0.50364 0.57456 0.11747
 O200 O 0.47306 0.42952 0.12778
 O201 O 0.51584 0.43776 0.06091
 C202 C 0.49437 0.42278 0.11024
 Zr203 Zr 0.46591 0.46565 0.08968
 O204 O 0.46173 0.46036 0.20645
 O205 O 0.42305 0.42419 0.07525
 Zr206 Zr 0.53417 0.53375 0.09180
 O207 O 0.53636 0.53300 0.20929
 O208 O 0.57502 0.57788 0.08886
 O209 O 0.48627 0.51341 0.10567
 O210 O 0.51342 0.48626 0.10491
 O211 O 0.47361 0.42987 -0.13304
 O212 O 0.51634 0.43808 -0.06573
 C213 C 0.49493 0.42313 -0.11528
 O214 O 0.52519 0.56790 -0.13918
 O215 O 0.48396 0.56127 -0.06829
 C216 C 0.50409 0.57484 -0.12108
 O217 O 0.57105 0.52686 -0.13166
 O218 O 0.56265 0.48414 -0.06462
 C219 C 0.57773 0.50554 -0.11394
 O220 O 0.43268 0.47574 -0.14049
 O221 O 0.43931 0.51680 -0.06914
 C222 C 0.42575 0.49681 -0.12225
 Zr223 Zr 0.46651 0.46624 -0.09618
 O224 O 0.46719 0.46355 -0.21355
 O225 O 0.42238 0.42539 -0.09305
 Zr226 Zr 0.53478 0.53426 -0.09455
 O227 O 0.53890 0.53505 -0.21169
 O228 O 0.57550 0.57841 -0.08778
 Zr229 Zr 0.47705 0.52333 -0.00235
 Zr230 Zr 0.52363 0.47679 -0.00215
 O231 O 0.51407 0.48687 -0.10936
 O232 O 0.48692 0.51407 -0.11035
 O233 O 0.47508 0.44673 -0.00322
 O234 O 0.52564 0.55255 -0.00136
 O235 O 0.44759 0.47489 -0.00323
 O236 O 0.55378 0.52525 -0.00119
 H237 H 0.52017 0.47933 0.14918
 H238 H 0.53410 0.57530 -0.00114
 H239 H 0.52096 0.48011 -0.15370
 H240 H 0.42480 0.46654 -0.00340
 H241 H 0.59136 0.57544 0.06355
 H242 H 0.59213 0.57551 -0.06576
 H243 H 0.51803 0.52827 -0.23246
 H244 H 0.47189 0.48397 -0.23343
 H245 H 0.42452 0.40983 -0.06328
 H246 H 0.41495 0.41676 0.12593
 H247 H 0.48119 0.47721 0.22788
 H248 H 0.51594 0.52872 0.22864
 O249 O 0.52413 -0.04317 0.13836
 O250 O 0.48328 -0.07770 0.06637
 C251 C 0.50321 -0.07119 0.11970
 O252 O 0.47312 0.04335 0.13195
 O253 O 0.51569 0.07778 0.06444
 C254 C 0.49436 0.07135 0.11412
 O255 O 0.43204 -0.04329 0.13823
 O256 O 0.43869 -0.07775 0.06706
 C257 C 0.42513 -0.07128 0.12009
 O258 O 0.57038 0.04333 0.13074
 O259 O 0.56210 0.07774 0.06368
 C260 C 0.57712 0.07133 0.11311
 Zr261 Zr 0.53421 -0.00001 0.09255
 O262 O 0.53950 0.00111 0.20934
 O263 O 0.57579 -0.00126 0.07833
 Zr264 Zr 0.46597 -0.00003 0.09434
 O265 O 0.46673 0.00293 0.21182
 O266 O 0.42172 -0.00346 0.09132
 O267 O 0.48637 -0.02748 0.10838
 O268 O 0.51354 0.02679 0.10762
 O269 O 0.57004 0.04337 -0.13043
 O270 O 0.56173 0.07776 -0.06328
 C271 C 0.57674 0.07136 -0.11274
 O272 O 0.43164 -0.04324 -0.13635
 O273 O 0.43840 -0.07772 -0.06557
 C274 C 0.42472 -0.07123 -0.11827
 O275 O 0.47259 0.04343 -0.12916
 O276 O 0.51533 0.07782 -0.06197
 C277 C 0.49387 0.07142 -0.11132
 O278 O 0.52410 -0.04332 -0.13766
 O279 O 0.48301 -0.07775 -0.06631
 C280 C 0.50301 -0.07131 -0.11940
 Zr281 Zr 0.53362 -0.00004 -0.09333
 O282 O 0.53633 0.00328 -0.21070
 O283 O 0.57458 -0.00320 -0.08988
 Zr284 Zr 0.46544 -0.00001 -0.09198
 O285 O 0.46494 0.00329 -0.20920
 O286 O 0.42117 -0.00358 -0.08586
 Zr287 Zr 0.47644 -0.04662 0.00038
 Zr288 Zr 0.52304 0.04645 0.00058
 O289 O 0.51292 0.02677 -0.10661
 O290 O 0.48570 -0.02756 -0.10764
 O291 O 0.55316 0.02806 -0.00034
 O292 O 0.44714 -0.02739 0.00120
 O293 O 0.52499 -0.02754 -0.00036
 O294 O 0.47446 0.02799 0.00134
 H295 H 0.52045 0.04046 0.15189
 H296 H 0.42434 -0.04169 0.00141
 H297 H 0.51965 0.04039 -0.15095
 H298 H 0.53338 -0.04191 -0.00048
 H299 H 0.42413 0.01528 0.06608
 H300 H 0.42395 0.01572 -0.06290
 H301 H 0.47104 -0.01131 -0.22978
 H302 H 0.51582 -0.01235 -0.23060
 H303 H 0.59018 0.01455 -0.06023
 H304 H 0.58324 -0.00189 0.12904
 H305 H 0.52279 0.00395 0.23071
 H306 H 0.47110 -0.01311 0.23122
 C307 C 1.14472 0.50198 0.25585
 C308 C 1.11572 0.47481 0.25416
 C309 C 1.09286 0.47195 0.20438
 C310 C 1.18212 0.50915 0.36820
 C311 C 1.12846 0.52288 0.15456
 C312 C 1.15130 0.52577 0.20492
 C313 C 1.16607 0.50630 0.31503
 C314 C 1.09864 0.49630 0.15536
 H315 H 1.11031 0.45629 0.29347
 H316 H 1.07026 0.45111 0.20631
 H317 H 1.13369 0.54202 0.11755
 H318 H 1.17363 0.54699 0.20598
 C319 C 0.49543 0.63962 0.25882
 C320 C 0.52146 0.63588 0.26388
 C321 C 0.52471 0.61564 0.21592
 C322 C 0.48740 0.67067 0.36746
 C323 C 0.47644 0.60368 0.15496
 C324 C 0.47313 0.62386 0.20353
 C325 C 0.49056 0.65718 0.31549
 C326 C 0.50190 0.59874 0.16191
 H327 H 0.53878 0.64782 0.30672
 H328 H 0.54468 0.61258 0.22269
 H329 H 0.45855 0.59117 0.11380
 H330 H 0.45276 0.62642 0.19943
 C331 C 0.35987 -0.14432 0.26154
 C332 C 0.36326 -0.11472 0.26542
 C333 C 0.38358 -0.09132 0.21740
 C334 C 0.32850 -0.18315 0.37024
 C335 C 0.39633 -0.12741 0.15871
 C336 C 0.37607 -0.15080 0.20735
 C337 C 0.34218 -0.16660 0.31830
 C338 C 0.40090 -0.09717 0.16450
 H339 H 0.35098 -0.10939 0.30741
 H340 H 0.38635 -0.06841 0.22323
 H341 H 0.40920 -0.13271 0.11847
 H342 H 0.37379 -0.17359 0.20419
 C343 C 0.85659 0.49648 0.25800
 C344 C 0.85006 0.47393 0.20350
 C345 C 0.87352 0.47708 0.15498
 C346 C 0.81754 0.48888 0.36636
 C347 C 0.90977 0.52568 0.21439
 C348 C 0.88631 0.52259 0.26230
 C349 C 0.83422 0.49184 0.31461
 C350 C 0.90387 0.50262 0.16122
 H351 H 0.82717 0.45351 0.19999
 H352 H 0.86816 0.45900 0.11446
 H353 H 0.93278 0.54573 0.22056
 H354 H 0.89167 0.54011 0.30454
 C355 C 0.50039 0.35705 0.25303
 C356 C 0.52447 0.37447 0.20283
 C357 C 0.52181 0.39458 0.15276
 C358 C 0.50713 0.32657 0.36512
 C359 C 0.47054 0.37898 0.20136
 C360 C 0.47317 0.35882 0.25085
 C361 C 0.50448 0.33989 0.31207
 C362 C 0.49518 0.39777 0.15315
 H363 H 0.54573 0.37341 0.20429
 H364 H 0.54116 0.40866 0.11635
 H365 H 0.44965 0.38070 0.20293
 H366 H 0.45444 0.34554 0.28960
 C367 C 0.64311 0.14355 0.25495
 C368 C 0.64103 0.11447 0.25422
 C369 C 0.62076 0.09148 0.20515
 C370 C 0.67370 0.18136 0.36618
 C371 C 0.60565 0.12710 0.15419
 C372 C 0.62588 0.15007 0.20381
 C373 C 0.66036 0.16510 0.31349
 C374 C 0.60217 0.09723 0.15593
 H375 H 0.65415 0.10912 0.29375
 H376 H 0.61881 0.06883 0.20780
 H377 H 0.59174 0.13231 0.11699
 H378 H 0.62717 0.17246 0.20416
 C379 C 0.49971 0.14354 -0.25242
 C380 C 0.47252 0.11457 -0.25068
 C381 C 0.46995 0.09164 -0.20177
 C382 C 0.50649 0.18105 -0.36382
 C383 C 0.52122 0.12711 -0.15290
 C384 C 0.52382 0.15002 -0.20237
 C385 C 0.50379 0.16494 -0.31103
 C386 C 0.49462 0.09733 -0.15372
 H387 H 0.45376 0.10925 -0.28936
 H388 H 0.44908 0.06907 -0.20364
 H389 H 0.54062 0.13225 -0.11663
 H390 H 0.54506 0.17231 -0.20353
 C391 C 0.64370 0.49919 -0.25571
 C392 C 0.64180 0.52630 -0.25446
 C393 C 0.62156 0.52905 -0.20532
 C394 C 0.67409 0.49198 -0.36747
 C395 C 0.60615 0.47816 -0.15526
 C396 C 0.62634 0.47538 -0.20496
 C397 C 0.66085 0.49488 -0.31450
 C398 C 0.60282 0.50465 -0.15656
 H399 H 0.65503 0.54483 -0.29366
 H400 H 0.61974 0.54983 -0.20761
 H401 H 0.59213 0.45899 -0.11839
 H402 H 0.62749 0.45420 -0.20570
 C403 C 0.85628 0.35993 -0.26061
 C404 C 0.88609 0.36374 -0.26563
 C405 C 0.90968 0.38427 -0.21820
 C406 C 0.81699 0.32832 -0.36850
 C407 C 0.87340 0.39640 -0.15789
 C408 C 0.84981 0.37593 -0.20592
 C409 C 0.83374 0.34207 -0.31684
 C410 C 0.90382 0.40138 -0.16480
 H411 H 0.89141 0.35162 -0.30805
 H412 H 0.93273 0.38736 -0.22489
 H413 H 0.86807 0.40908 -0.11719
 H414 H 0.82686 0.37332 -0.20190
 C415 C 0.49502 -0.14499 -0.25895
 C416 C 0.47294 -0.15141 -0.20323
 C417 C 0.47615 -0.12775 -0.15542
 C418 C 0.48706 -0.18466 -0.36599
 C419 C 0.52389 -0.09145 -0.21809
 C420 C 0.52074 -0.11511 -0.26530
 C421 C 0.49022 -0.16771 -0.31470
 C422 C 0.50130 -0.09729 -0.16355
 H423 H 0.45281 -0.17441 -0.19814
 H424 H 0.45844 -0.13308 -0.11383
 H425 H 0.54362 -0.06838 -0.22578
 H426 H 0.53787 -0.10982 -0.30852
 C427 C 0.35994 0.50460 -0.26226
 C428 C 0.36387 0.47873 -0.26768
 C429 C 0.38441 0.47566 -0.22027
 C430 C 0.32819 0.51224 -0.36990
 C431 C 0.39636 0.52381 -0.15922
 C432 C 0.37587 0.52694 -0.20724
 C433 C 0.34201 0.50926 -0.31834
 C434 C 0.40143 0.49849 -0.16647
 H435 H 0.35181 0.46139 -0.31035
 H436 H 0.38757 0.45579 -0.22725
 H437 H 0.40896 0.54171 -0.11821
 H438 H 0.37319 0.54719 -0.20289
 C439 C 1.14485 0.64356 -0.25675
 C440 C 1.11576 0.64160 -0.25536
 C441 C 1.09281 0.62136 -0.20621
 C442 C 1.18248 0.67413 -0.36828
 C443 C 1.12848 0.60601 -0.15645
 C444 C 1.15141 0.62621 -0.20615
 C445 C 1.16632 0.66081 -0.31543
 C446 C 1.09859 0.60266 -0.15754
 H447 H 1.11037 0.65481 -0.29445
 H448 H 1.07016 0.61952 -0.20836
 H449 H 1.13372 0.59202 -0.11969
 H450 H 1.17379 0.62740 -0.20700
 C451 C 0.85630 0.49650 -0.26080
 C452 C 0.84985 0.47390 -0.20656
 C453 C 0.87340 0.47696 -0.15844
 C454 C 0.81713 0.48898 -0.36885
 C455 C 0.90959 0.52557 -0.21775
 C456 C 0.88604 0.52257 -0.26526
 C457 C 0.83384 0.49191 -0.31716
 C458 C 0.90376 0.50247 -0.16483
 H459 H 0.82695 0.45350 -0.20298
 H460 H 0.86810 0.45885 -0.11812
 H461 H 0.93260 0.54560 -0.22401
 H462 H 0.89133 0.54011 -0.30733
 C463 C 0.50071 0.35706 -0.25731
 C464 C 0.52493 0.37469 -0.20755
 C465 C 0.52237 0.39495 -0.15773
 C466 C 0.50723 0.32632 -0.36912
 C467 C 0.47093 0.37906 -0.20571
 C468 C 0.47345 0.35876 -0.25495
 C469 C 0.50468 0.33976 -0.31619
 C470 C 0.49570 0.39806 -0.15796
 H471 H 0.54621 0.37368 -0.20918
 H472 H 0.54183 0.40919 -0.12168
 H473 H 0.44999 0.38071 -0.20710
 H474 H 0.45461 0.34531 -0.29338
 C475 C 0.64296 0.14361 -0.25375
 C476 C 0.64101 0.11459 -0.25268
 C477 C 0.62063 0.09158 -0.20387
 C478 C 0.67368 0.18135 -0.36476
 C479 C 0.60517 0.12708 -0.15388
 C480 C 0.62549 0.15006 -0.20323
 C481 C 0.66029 0.16513 -0.31215
 C482 C 0.60182 0.09726 -0.15530
 H483 H 0.65432 0.10929 -0.29174
 H484 H 0.61880 0.06898 -0.20622
 H485 H 0.59107 0.13223 -0.11717
 H486 H 0.62668 0.17240 -0.20388
 C487 C 1.14473 0.50143 -0.25700
 C488 C 1.15126 0.52536 -0.20653
 C489 C 1.12841 0.52253 -0.15639
 C490 C 1.18199 0.50875 -0.36947
 C491 C 1.09297 0.47134 -0.20537
 C492 C 1.11584 0.47415 -0.25496
 C493 C 1.16598 0.50579 -0.31627
 C494 C 1.09866 0.49586 -0.15698
 H495 H 1.17350 0.54666 -0.20791
 H496 H 1.13356 0.54179 -0.11984
 H497 H 1.07042 0.45042 -0.20706
 H498 H 1.11051 0.45553 -0.29394
 C499 C 0.49585 0.63973 -0.26243
 C500 C 0.52198 0.63613 -0.26721
 C501 C 0.52526 0.61597 -0.21916
 C502 C 0.48763 0.67053 -0.37110
 C503 C 0.47686 0.60386 -0.15869
 C504 C 0.47352 0.62396 -0.20734
 C505 C 0.49090 0.65713 -0.31920
 C506 C 0.50239 0.59903 -0.16541
 H507 H 0.53931 0.64810 -0.30993
 H508 H 0.54528 0.61298 -0.22569
 H509 H 0.45892 0.59130 -0.11773
 H510 H 0.45309 0.62643 -0.20350
 C511 C 0.35937 -0.14428 -0.25939
 C512 C 0.36267 -0.11472 -0.26317
 C513 C 0.38300 -0.09131 -0.21516
 C514 C 0.32829 -0.18306 -0.36834
 C515 C 0.39588 -0.12734 -0.15667
 C516 C 0.37561 -0.15074 -0.20529
 C517 C 0.34183 -0.16651 -0.31630
 C518 C 0.40040 -0.09712 -0.16245
 H519 H 0.35034 -0.10943 -0.30513
 H520 H 0.38574 -0.06841 -0.22093
 H521 H 0.40881 -0.13261 -0.11653
 H522 H 0.37339 -0.17351 -0.20225
 C523 C 0.49518 -0.14473 0.25918
 C524 C 0.47322 -0.15123 0.20307
 C525 C 0.47647 -0.12759 0.15526
 C526 C 0.48708 -0.18439 0.36605
 C527 C 0.52401 -0.09119 0.21872
 C528 C 0.52082 -0.11483 0.26595
 C529 C 0.49030 -0.16742 0.31488
 C530 C 0.50152 -0.09711 0.16383
 H531 H 0.45316 -0.17426 0.19770
 H532 H 0.45886 -0.13296 0.11332
 H533 H 0.54367 -0.06809 0.22668
 H534 H 0.53786 -0.10952 0.30949
 C535 C 0.36033 0.50466 0.25755
 C536 C 0.36416 0.47874 0.26278
 C537 C 0.38452 0.47557 0.21508
 C538 C 0.32891 0.51246 0.36546
 C539 C 0.39640 0.52370 0.15408
 C540 C 0.37610 0.52693 0.20240
 C541 C 0.34262 0.50943 0.31386
 C542 C 0.40143 0.49836 0.16122
 H543 H 0.35218 0.46145 0.30554
 H544 H 0.38764 0.45567 0.22189
 H545 H 0.40892 0.54155 0.11297
 H546 H 0.37345 0.54721 0.19821
 C547 C 1.14460 0.64335 0.25378
 C548 C 1.11563 0.64161 0.25183
 C549 C 1.09278 0.62152 0.20224
 C550 C 1.18192 0.67351 0.36602
 C551 C 1.12840 0.60598 0.15314
 C552 C 1.15122 0.62602 0.20328
 C553 C 1.16587 0.66034 0.31295
 C554 C 1.09858 0.60278 0.15378
 H555 H 1.11022 0.65484 0.29084
 H556 H 1.07017 0.61979 0.20399
 H557 H 1.13364 0.59195 0.11650
 H558 H 1.17354 0.62708 0.20458
 C559 C 0.50022 0.14333 0.25581
 C560 C 0.52439 0.14982 0.20599
 C561 C 0.52181 0.12695 0.15637
 C562 C 0.50681 0.18082 0.36710
 C563 C 0.47046 0.09150 0.20468
 C564 C 0.47301 0.11439 0.25374
 C565 C 0.50422 0.16471 0.31441
 C566 C 0.49517 0.09721 0.15683
 H567 H 0.54565 0.17210 0.20741
 H568 H 0.54123 0.13210 0.12025
 H569 H 0.44956 0.06895 0.20624
 H570 H 0.45421 0.10907 0.29222
 C571 C 0.64269 0.49882 0.25488
 C572 C 0.64093 0.52599 0.25325
 C573 C 0.62084 0.52879 0.20368
 C574 C 0.67305 0.49170 0.36680
 C575 C 0.60533 0.47779 0.15395
 C576 C 0.62536 0.47497 0.20409
 C577 C 0.65977 0.49454 0.31387
 C578 C 0.60214 0.50437 0.15486
 H579 H 0.65415 0.54455 0.29246
 H580 H 0.61913 0.54963 0.20563
 H581 H 0.59131 0.45861 0.11706
 H582 H 0.62643 0.45375 0.20512
 C583 C 0.85675 0.36100 0.25928
 C584 C 0.85011 0.37663 0.20398
 C585 C 0.87363 0.39701 0.15576
 C586 C 0.81749 0.32924 0.36682
 C587 C 0.91017 0.38554 0.21723
 C588 C 0.88666 0.36510 0.26482
 C589 C 0.83423 0.34310 0.31536
 C590 C 0.90413 0.40226 0.16313
 H591 H 0.82706 0.37377 0.19954
 H592 H 0.86816 0.40938 0.11448
 H593 H 0.93329 0.38882 0.22423
 H594 H 0.89210 0.35325 0.30769
   
