data_POSCAR
  _audit_creation_date              2014-09-24
  _audit_creation_method            'ToBaCCo'
  _symmetry_space_group_name_H-M    'P1'
  _symmetry_Int_Tables_number       1
  _symmetry_cell_setting            triclinic
  loop_
  _symmetry_equiv_pos_as_xyz
 x,y,z
_cell_length_a 43.3266
_cell_length_b 49.2394
_cell_length_c 24.7113
_cell_angle_alpha 90.167700
_cell_angle_beta 88.952300
_cell_angle_gamma 89.676100
loop_
  _atom_site_label
  _atom_site_type_symbol
  _atom_site_fract_x
  _atom_site_fract_y
  _atom_site_fract_z
C1 C 0.31251 0.27607 0.29942
 C2 C 0.32859 0.25195 0.30831
 C3 C 0.31653 0.22648 0.29427
 C4 C 0.28788 0.22567 0.26660
 C5 C 0.27158 0.25024 0.25628
 C6 C 0.28372 0.27542 0.27376
 C7 C 0.26697 0.29939 0.26467
 C8 C 0.23887 0.29880 0.23868
 C9 C 0.22690 0.27436 0.21866
 C10 C 0.24319 0.24973 0.22796
 C11 C 0.27577 0.20129 0.24639
 C12 C 0.24748 0.20065 0.22082
 C13 C 0.23101 0.22465 0.20963
 C14 C 0.20198 0.22428 0.18330
 C15 C 0.18628 0.24895 0.17538
 C16 C 0.19870 0.27388 0.19070
 H17 H 0.27535 0.31896 0.27769
 H18 H 0.22658 0.31784 0.23488
 H19 H 0.28808 0.18225 0.24946
 H20 H 0.23880 0.18086 0.21040
 H21 H 0.35004 0.25317 0.33015
 H22 H 0.16476 0.24897 0.15357
 C23 C 0.69466 0.22164 0.30685
 C24 C 0.68031 0.24585 0.32332
 C25 C 0.68813 0.27078 0.29992
 C26 C 0.71136 0.27161 0.25883
 C27 C 0.72717 0.24738 0.24345
 C28 C 0.71853 0.22225 0.26705
 C29 C 0.73398 0.19842 0.25034
 C30 C 0.75720 0.19917 0.21075
 C31 C 0.76642 0.22387 0.18723
 C32 C 0.75135 0.24823 0.20374
 C33 C 0.71836 0.29572 0.23111
 C34 C 0.74206 0.29655 0.19249
 C35 C 0.76013 0.27340 0.18030
 C36 C 0.78531 0.27438 0.14245
 C37 C 0.79867 0.24974 0.12468
 C38 C 0.78988 0.22479 0.14679
 H39 H 0.72823 0.17889 0.26767
 H40 H 0.76779 0.18009 0.19869
 H41 H 0.70528 0.31419 0.23826
 H42 H 0.74558 0.31551 0.17137
 H43 H 0.66229 0.24517 0.35436
 H44 H 0.81801 0.24990 0.09621
 C45 C 0.80012 0.77655 0.83562
 C46 C 0.81359 0.75209 0.85177
 C47 C 0.80247 0.72672 0.83482
 C48 C 0.77744 0.72622 0.79803
 C49 C 0.76288 0.75095 0.78281
 C50 C 0.77416 0.77615 0.80185
 C51 C 0.75917 0.80030 0.78669
 C52 C 0.73424 0.79986 0.75201
 C53 C 0.72299 0.77522 0.73177
 C54 C 0.73735 0.75054 0.74735
 C55 C 0.76803 0.70204 0.77266
 C56 C 0.74280 0.70159 0.73876
 C57 C 0.72657 0.72549 0.72677
 C58 C 0.70066 0.72511 0.69269
 C59 C 0.68724 0.74965 0.67681
 C60 C 0.69812 0.77458 0.69550
 H61 H 0.76655 0.81987 0.80149
 H62 H 0.72395 0.81910 0.74107
 H63 H 0.78050 0.68317 0.77737
 H64 H 0.73667 0.68233 0.72082
 H65 H 0.83262 0.75305 0.87961
 H66 H 0.66762 0.74935 0.65014
 C67 C 0.19469 0.71736 0.81390
 C68 C 0.17949 0.74141 0.82997
 C69 C 0.19164 0.76735 0.82006
 C70 C 0.21997 0.76941 0.79019
 C71 C 0.23545 0.74541 0.77188
 C72 C 0.22270 0.71940 0.78313
 C73 C 0.23721 0.69636 0.75996
 C74 C 0.26492 0.69831 0.73115
 C75 C 0.27841 0.72362 0.72075
 C76 C 0.26337 0.74746 0.74064
 C77 C 0.23221 0.79474 0.77461
 C78 C 0.26030 0.79667 0.74699
 C79 C 0.27625 0.77335 0.72938
 C80 C 0.30470 0.77514 0.70057
 C81 C 0.31923 0.75143 0.68194
 C82 C 0.30652 0.72581 0.69094
 H83 H 0.22709 0.67641 0.76269
 H84 H 0.27543 0.67963 0.71673
 H85 H 0.22010 0.81357 0.78260
 H86 H 0.26899 0.81679 0.73874
 H87 H 0.15900 0.73986 0.85562
 H88 H 0.34078 0.75301 0.65911
 O89 O 1.03358 -0.03494 0.03003
 O90 O 0.97223 0.01413 0.06594
 O91 O 0.97402 -0.03397 0.02187
 O92 O 1.03190 0.01380 0.07299
 O93 O 1.03635 0.03206 -0.00815
 O94 O 0.97869 -0.01578 -0.05930
 O95 O 0.97662 0.03258 -0.01504
 O96 O 1.03850 -0.01637 -0.05080
 Cu97 Cu 1.00255 -0.01208 0.05583
 Cu98 Cu 1.00796 0.00994 -0.04147
 C99 C 1.04636 -0.03423 -0.01661
 C100 C 0.96405 0.03189 0.03183
 C101 C 0.96662 -0.03319 -0.02763
 C102 C 1.04376 0.03132 0.04131
 O103 O 0.47663 0.49168 0.40874
 O104 O 0.53351 0.54093 0.45597
 O105 O 0.53635 0.49215 0.41476
 O106 O 0.47372 0.54003 0.45280
 O107 O 0.47044 0.52115 0.53361
 O108 O 0.53369 0.47439 0.49658
 O109 O 0.53060 0.52348 0.53798
 O110 O 0.47431 0.47323 0.48995
 Cu111 Cu 0.50531 0.51803 0.42493
 Cu112 Cu 0.50210 0.49636 0.52282
 C113 C 0.46603 0.47378 0.44087
 C114 C 0.54161 0.54088 0.50506
 C115 C 0.54539 0.47480 0.44911
 C116 C 0.46134 0.53864 0.49974
 O117 O -0.03133 0.53415 0.05020
 O118 O 0.02547 0.48059 0.07963
 O119 O 0.02799 0.53099 0.04619
 O120 O -0.03454 0.48362 0.08208
 O121 O -0.03640 0.47016 -0.00300
 O122 O 0.02729 0.51636 -0.03827
 O123 O 0.02298 0.46590 -0.00465
 O124 O -0.03265 0.52041 -0.03482
 Cu125 Cu -0.00290 0.50865 0.07309
 Cu126 Cu -0.00473 0.49185 -0.02873
 C127 C -0.04131 0.53674 0.00247
 C128 C 0.03338 0.46372 0.04288
 C129 C 0.03795 0.53211 -0.00241
 C130 C -0.04608 0.46867 0.04571
 O131 O 0.46784 0.96553 0.49249
 O132 O 0.52945 1.01055 0.44301
 O133 O 0.52743 0.96441 0.49480
 O134 O 0.46933 1.01183 0.44169
 O135 O 0.46910 1.03422 0.51919
 O136 O 0.52581 0.98597 0.57317
 O137 O 0.52874 1.03219 0.52130
 O138 O 0.46568 0.98800 0.56991
 Cu139 Cu 0.49866 0.98593 0.46013
 Cu140 Cu 0.49726 1.01225 0.55378
 C141 C 0.45627 0.96898 0.53959
 C142 C 0.53954 1.02920 0.47347
 C143 C 0.53621 0.96681 0.54336
 C144 C 0.45955 1.03134 0.47125
 C145 C 1.20410 0.18210 0.12939
 C146 C 1.18952 0.15901 0.10909
 C147 C 1.15863 0.15356 0.12290
 C148 C 1.14220 0.17216 0.15585
 C149 C 1.15661 0.19534 0.17559
 C150 C 1.18800 0.20033 0.16386
 C151 C 1.14353 0.12925 0.10019
 C152 C 1.12069 0.11623 0.12648
 C153 C 1.10357 0.09311 0.10329
 C154 C 1.08836 0.07513 0.13857
 C155 C 1.06979 0.05445 0.11841
 C156 C 1.06565 0.05158 0.06243
 C157 C 1.08126 0.06933 0.02700
 C158 C 1.10005 0.08987 0.04716
 H159 H 1.22774 0.18607 0.11691
 H160 H 1.20240 0.14535 0.08255
 H161 H 1.11800 0.16915 0.16558
 H162 H 1.14329 0.20916 0.20115
 H163 H 1.15215 0.12155 0.06168
 H164 H 1.11440 0.12243 0.16734
 H165 H 1.09050 0.07733 0.18198
 H166 H 1.05796 0.04120 0.14679
 H167 H 1.07845 0.06772 -0.01634
 H168 H 1.11073 0.10377 0.01874
 C169 C 0.67387 0.68121 0.71222
 C170 C 0.65851 0.65794 0.69495
 C171 C 0.65473 0.65279 0.63955
 C172 C 0.66777 0.67093 0.60162
 C173 C 0.68313 0.69419 0.61895
 C174 C 0.68619 0.69955 0.67434
 C175 C 0.63707 0.62847 0.62313
 C176 C 0.62215 0.62686 0.57612
 C177 C 0.60297 0.60348 0.55947
 C178 C 0.59521 0.60133 0.50477
 C179 C 0.57585 0.58070 0.48709
 C180 C 0.56356 0.56171 0.52382
 C181 C 0.57153 0.56358 0.57857
 C182 C 0.59097 0.58429 0.59633
 H183 H 0.67576 0.68515 0.75518
 H184 H 0.64890 0.64424 0.72498
 H185 H 0.66640 0.66724 0.55858
 H186 H 0.69262 0.70807 0.58915
 H187 H 0.63555 0.61201 0.65188
 H188 H 0.62352 0.64365 0.54805
 H189 H 0.60397 0.61586 0.47552
 H190 H 0.57018 0.57989 0.44461
 H191 H 0.56225 0.54938 0.60794
 H192 H 0.59563 0.58551 0.63907
 C193 C -0.19007 0.30218 0.07138
 C194 C -0.17447 0.32567 0.05538
 C195 C -0.16848 0.34635 0.09279
 C196 C -0.17945 0.34351 0.14637
 C197 C -0.19511 0.32008 0.16240
 C198 C -0.20082 0.29900 0.12518
 C199 C -0.15051 0.37027 0.07441
 C200 C -0.13342 0.38539 0.10770
 C201 C -0.11302 0.40785 0.08947
 C202 C -0.10201 0.42602 0.12845
 C203 C -0.08094 0.44627 0.11410
 C204 C -0.07026 0.44873 0.06033
 C205 C -0.08167 0.43089 0.02106
 C206 C -0.10269 0.41062 0.03540
 H207 H -0.19418 0.28667 0.04122
 H208 H -0.16650 0.32743 0.01373
 H209 H -0.17598 0.35923 0.17625
 H210 H -0.20169 0.31807 0.20469
 H211 H -0.15044 0.37452 0.03153
 H212 H -0.13348 0.38084 0.15050
 H213 H -0.10939 0.42429 0.17041
 H214 H -0.07255 0.45964 0.14537
 H215 H -0.07373 0.43210 -0.02067
 H216 H -0.10975 0.39672 0.00414
 C217 C 0.35112 0.80437 0.70796
 C218 C 0.36867 0.82660 0.69142
 C219 C 0.35618 0.84623 0.65707
 C220 C 0.32556 0.84348 0.63998
 C221 C 0.30817 0.82084 0.65564
 C222 C 0.32091 0.80106 0.68961
 C223 C 0.37669 0.86754 0.63534
 C224 C 0.36720 0.89275 0.62395
 C225 C 0.38890 0.91274 0.60065
 C226 C 0.38974 0.93927 0.62134
 C227 C 0.41162 0.95775 0.60151
 C228 C 0.43228 0.95015 0.55955
 C229 C 0.43050 0.92391 0.53749
 C230 C 0.40919 0.90532 0.55811
 H231 H 0.36150 0.78915 0.73357
 H232 H 0.39230 0.82820 0.70460
 H233 H 0.31565 0.85799 0.61232
 H234 H 0.28522 0.81825 0.63981
 H235 H 0.40093 0.86240 0.62993
 H236 H 0.34387 0.89918 0.63426
 H237 H 0.37411 0.94539 0.65390
 H238 H 0.41239 0.97794 0.61894
 H239 H 0.44613 0.91750 0.50514
 H240 H 0.40858 0.88508 0.54085
 C241 C -0.20123 0.68062 -0.12634
 C242 C -0.18706 0.65714 -0.10666
 C243 C -0.15491 0.65574 -0.10212
 C244 C -0.13708 0.67819 -0.11792
 C245 C -0.15115 0.70147 -0.13843
 C246 C -0.18347 0.70292 -0.14416
 C247 C -0.14031 0.63032 -0.08334
 C248 C -0.11461 0.63027 -0.05404
 C249 C -0.09840 0.60512 -0.03805
 C250 C -0.08155 0.60505 0.00984
 C251 C -0.06396 0.58239 0.02402
 C252 C -0.06229 0.55955 -0.01016
 C253 C -0.07939 0.55949 -0.05793
 C254 C -0.09743 0.58200 -0.07164
 H255 H -0.22621 0.68142 -0.12688
 H256 H -0.20127 0.64015 -0.09427
 H257 H -0.11215 0.67748 -0.11608
 H258 H -0.13645 0.71791 -0.15197
 H259 H -0.15152 0.61130 -0.09268
 H260 H -0.10532 0.64939 -0.04009
 H261 H -0.08173 0.62273 0.03607
 H262 H -0.05082 0.58313 0.06086
 H263 H -0.07844 0.54220 -0.08513
 H264 H -0.10959 0.58168 -0.10951
 C265 C 0.36565 1.20243 0.30678
 C266 C 0.38251 1.18079 0.32769
 C267 C 0.36746 1.15896 0.35263
 C268 C 0.33508 1.15916 0.35664
 C269 C 0.31814 1.18109 0.33654
 C270 C 0.33312 1.20304 0.31075
 C271 C 0.38634 1.13745 0.37753
 C272 C 0.37764 1.11144 0.38068
 C273 C 0.39763 1.09064 0.40540
 C274 C 0.40008 1.06472 0.38198
 C275 C 0.42012 1.04529 0.40339
 C276 C 0.43741 1.05128 0.44948
 C277 C 0.43400 1.07691 0.47405
 C278 C 0.41444 1.09644 0.45209
 H279 H 0.37820 1.21873 0.28709
 H280 H 0.40748 1.18115 0.32448
 H281 H 0.32291 1.14301 0.37747
 H282 H 0.29340 1.18144 0.34370
 H283 H 0.40902 1.14309 0.39143
 H284 H 0.35654 1.10494 0.36181
 H285 H 0.38710 1.05978 0.34625
 H286 H 0.42213 1.02562 0.38389
 H287 H 0.44694 1.08209 0.50967
 H288 H 0.41242 1.11608 0.47174
 C289 C 1.14270 -0.20900 -0.16009
 C290 C 1.12603 -0.18758 -0.13652
 C291 C 1.14127 -0.16639 -0.11050
 C292 C 1.17357 -0.16736 -0.10689
 C293 C 1.19029 -0.18914 -0.12950
 C294 C 1.17521 -0.21001 -0.15780
 C295 C 1.12267 -0.14420 -0.08588
 C296 C 1.13189 -0.11828 -0.08544
 C297 C 1.11143 -0.09624 -0.06511
 C298 C 1.11068 -0.07137 -0.09261
 C299 C 1.08981 -0.05099 -0.07650
 C300 C 1.06989 -0.05490 -0.03171
 C301 C 1.07170 -0.07934 -0.00269
 C302 C 1.09214 -0.09987 -0.01939
 H303 H 1.13005 -0.22457 -0.18122
 H304 H 1.10110 -0.18737 -0.13932
 H305 H 1.18581 -0.15174 -0.08520
 H306 H 1.21496 -0.19001 -0.12333
 H307 H 1.09952 -0.14907 -0.07180
 H308 H 1.15359 -0.11281 -0.10487
 H309 H 1.12554 -0.06808 -0.12769
 H310 H 1.08907 -0.03227 -0.09937
 H311 H 1.05671 -0.08291 0.03208
 H312 H 1.09277 -0.11864 0.00331
 C313 C 0.63872 0.29569 0.31967
 C314 C 0.62241 0.31811 0.34014
 C315 C 0.63815 0.34078 0.35983
 C316 C 0.67060 0.34046 0.35984
 C317 C 0.68694 0.31776 0.34034
 C318 C 0.67112 0.29533 0.31938
 C319 C 0.62000 0.36379 0.38235
 C320 C 0.62897 0.38971 0.37833
 C321 C 0.60925 0.41222 0.39880
 C322 C 0.60704 0.43630 0.36890
 C323 C 0.58669 0.45699 0.38562
 C324 C 0.56882 0.45417 0.43330
 C325 C 0.57225 0.43057 0.46455
 C326 C 0.59215 0.40976 0.44736
 H327 H 0.62605 0.27852 0.30422
 H328 H 0.59741 0.31783 0.34026
 H329 H 0.68331 0.35737 0.37623
 H330 H 0.71190 0.31758 0.34189
 H331 H 0.59743 0.35930 0.39966
 H332 H 0.64989 0.39467 0.35587
 H333 H 0.62025 0.43869 0.33159
 H334 H 0.58466 0.47502 0.36092
 H335 H 0.55887 0.42782 0.50155
 H336 H 0.59401 0.39167 0.47193
 C337 C 0.81584 -0.19237 -0.08970
 C338 C 0.83128 -0.16938 -0.07130
 C339 C 0.84587 -0.15164 -0.10798
 C340 C 0.84368 -0.15694 -0.16389
 C341 C 0.82827 -0.17999 -0.18222
 C342 C 0.81434 -0.19791 -0.14526
 C343 C 0.86328 -0.12830 -0.08589
 C344 C 0.88506 -0.11468 -0.11384
 C345 C 0.90416 -0.09295 -0.08996
 C346 C 0.91814 -0.07392 -0.12459
 C347 C 0.93784 -0.05411 -0.10425
 C348 C 0.94430 -0.05310 -0.04875
 C349 C 0.93017 -0.07204 -0.01396
 C350 C 0.91038 -0.09179 -0.03427
 H351 H 0.80534 -0.20605 -0.06057
 H352 H 0.83241 -0.16577 -0.02812
 H353 H 0.85370 -0.14349 -0.19379
 H354 H 0.82748 -0.18406 -0.22528
 H355 H 0.85859 -0.12293 -0.04404
 H356 H 0.88974 -0.11961 -0.15585
 H357 H 0.91398 -0.07451 -0.16768
 H358 H 0.94845 -0.03991 -0.13221
 H359 H 0.93484 -0.07195 0.02894
 H360 H 0.90093 -0.10658 -0.00639
 C361 C 0.31399 0.31518 0.36414
 C362 C 0.32840 0.33833 0.38436
 C363 C 0.35546 0.34827 0.35954
 C364 C 0.36806 0.33436 0.31431
 C365 C 0.35368 0.31120 0.29426
 C366 C 0.32654 0.30154 0.31889
 C367 C 0.37094 0.37205 0.38370
 C368 C 0.38970 0.38847 0.35525
 C369 C 0.40707 0.41118 0.37947
 C370 C 0.41810 0.43184 0.34540
 C371 C 0.43651 0.45258 0.36564
 C372 C 0.44458 0.45299 0.42047
 C373 C 0.43320 0.43252 0.45485
 C374 C 0.41472 0.41178 0.43460
 H375 H 0.29330 0.30766 0.38413
 H376 H 0.31848 0.34843 0.41965
 H377 H 0.38947 0.34076 0.29527
 H378 H 0.36394 0.30055 0.25991
 H379 H 0.36597 0.37639 0.42593
 H380 H 0.39217 0.38561 0.31193
 H381 H 0.41275 0.43175 0.30274
 H382 H 0.44495 0.46799 0.33802
 H383 H 0.43918 0.43214 0.49720
 H384 H 0.40747 0.39584 0.46193
 C385 C 0.14943 0.68862 -0.16886
 C386 C 0.13609 0.66500 -0.14829
 C387 C 0.15458 0.64433 -0.12685
 C388 C 0.18667 0.64755 -0.12690
 C389 C 0.20006 0.67150 -0.14639
 C390 C 0.18171 0.69234 -0.16855
 C391 C 0.14052 0.61935 -0.10474
 C392 C 0.11491 0.62041 -0.07364
 C393 C 0.09874 0.59608 -0.05312
 C394 C 0.08238 0.59786 -0.00377
 C395 C 0.06395 0.57639 0.01405
 C396 C 0.06087 0.55294 -0.01790
 C397 C 0.07781 0.55087 -0.06681
 C398 C 0.09679 0.57218 -0.08412
 H399 H 0.13437 0.70384 -0.18600
 H400 H 0.11127 0.66275 -0.14976
 H401 H 0.20130 0.63190 -0.11011
 H402 H 0.22472 0.67404 -0.14231
 H403 H 0.15200 0.60009 -0.11247
 H404 H 0.10555 0.64005 -0.06176
 H405 H 0.08337 0.61618 0.02053
 H406 H 0.05097 0.57868 0.05168
 H407 H 0.07578 0.53307 -0.09232
 H408 H 0.10868 0.57046 -0.12290
 C409 C 0.68568 1.19128 0.38636
 C410 C 0.67178 1.16857 0.41001
 C411 C 0.65471 1.15034 0.37869
 C412 C 0.65229 1.15520 0.32268
 C413 C 0.66637 1.17783 0.29907
 C414 C 0.68294 1.19610 0.33080
 C415 C 0.63791 1.12805 0.40676
 C416 C 0.62517 1.10689 0.38127
 C417 C 0.60531 1.08630 0.40842
 C418 C 0.59804 1.06260 0.37971
 C419 C 0.57734 1.04370 0.40139
 C420 C 0.56337 1.04806 0.45245
 C421 C 0.57112 1.07142 0.48186
 C422 C 0.59168 1.09043 0.46005
 H423 H 0.69807 1.20541 0.41154
 H424 H 0.67380 1.16555 0.45322
 H425 H 0.63864 1.14236 0.29704
 H426 H 0.66350 1.18163 0.25629
 H427 H 0.63608 1.12948 0.45035
 H428 H 0.62918 1.10425 0.33827
 H429 H 0.60799 1.05891 0.33980
 H430 H 0.57187 1.02589 0.37766
 H431 H 0.56054 1.07549 0.52112
 H432 H 0.59578 1.10864 0.48323
 C433 C 0.19730 0.31898 0.14342
 C434 C 0.18163 0.34246 0.12762
 C435 C 0.15018 0.34582 0.14027
 C436 C 0.13473 0.32559 0.17010
 C437 C 0.15061 0.30244 0.18713
 C438 C 0.18210 0.29901 0.17429
 C439 C 0.13409 0.37078 0.12315
 C440 C 0.10545 0.37027 0.10384
 C441 C 0.08903 0.39504 0.08649
 C442 C 0.06921 0.39356 0.04238
 C443 C 0.05211 0.41629 0.02682
 C444 C 0.05385 0.44070 0.05615
 C445 C 0.07374 0.44221 0.10031
 C446 C 0.09142 0.41965 0.11507
 H447 H 0.22137 0.31644 0.13180
 H448 H 0.19391 0.35779 0.10457
 H449 H 0.11054 0.32792 0.18105
 H450 H 0.13836 0.28722 0.21052
 H451 H 0.14676 0.38969 0.12353
 H452 H 0.09414 0.35092 0.09813
 H453 H 0.06687 0.37473 0.02008
 H454 H 0.03669 0.41447 -0.00699
 H455 H 0.07538 0.46075 0.12374
 H456 H 0.10609 0.42118 0.14994
 C457 C 0.68750 0.80726 0.62133
 C458 C 0.67169 0.82964 0.60075
 C459 C 0.65093 0.84460 0.63364
 C460 C 0.64653 0.83669 0.68807
 C461 C 0.66253 0.81434 0.70867
 C462 C 0.68298 0.79947 0.67533
 C463 C 0.63317 0.86700 0.60841
 C464 C 0.61686 0.88583 0.63622
 C465 C 0.59760 0.90697 0.61014
 C466 C 0.58873 0.92999 0.64038
 C467 C 0.56929 0.94970 0.61844
 C468 C 0.55816 0.94677 0.56569
 C469 C 0.56717 0.92383 0.53523
 C470 C 0.58649 0.90407 0.55722
 H471 H 0.70301 0.79577 0.59497
 H472 H 0.67536 0.83504 0.55867
 H473 H 0.63018 0.84701 0.71460
 H474 H 0.65845 0.80823 0.75026
 H475 H 0.63413 0.86802 0.56470
 H476 H 0.61790 0.88639 0.67988
 H477 H 0.59668 0.93265 0.68136
 H478 H 0.56270 0.96709 0.64307
 H479 H 0.55872 0.92079 0.49469
 H480 H 0.59177 0.88627 0.53301
 C481 C 0.80537 0.19134 0.07490
 C482 C 0.82320 0.16926 0.05676
 C483 C 0.84329 0.15582 0.09190
 C484 C 0.84533 0.16515 0.14571
 C485 C 0.82743 0.18718 0.16379
 C486 C 0.80727 0.20034 0.12858
 C487 C 0.86289 0.13334 0.07011
 C488 C 0.87626 0.11455 0.10134
 C489 C 0.89732 0.09287 0.08045
 C490 C 0.90382 0.07079 0.11426
 C491 C 0.92495 0.05071 0.09800
 C492 C 0.94022 0.05227 0.04745
 C493 C 0.93347 0.07415 0.01318
 C494 C 0.91240 0.09432 0.02953
 H495 H 0.79025 0.20157 0.04699
 H496 H 0.82145 0.16277 0.01501
 H497 H 0.86132 0.15614 0.17363
 H498 H 0.82971 0.19434 0.20501
 H499 H 0.86559 0.13207 0.02659
 H500 H 0.87123 0.11448 0.14438
 H501 H 0.89274 0.06920 0.15378
 H502 H 0.92963 0.03414 0.12543
 H503 H 0.94506 0.07608 -0.02582
 H504 H 0.90886 0.11131 0.00272
 C505 C 0.35508 0.69855 0.68214
 C506 C 0.37301 0.67844 0.65684
 C507 C 0.36008 0.66115 0.61835
 C508 C 0.32881 0.66436 0.60528
 C509 C 0.31102 0.68497 0.62976
 C510 C 0.32398 0.70213 0.66865
 C511 C 0.38024 0.64104 0.59061
 C512 C 0.37070 0.61624 0.57667
 C513 C 0.39246 0.59599 0.55344
 C514 C 0.39224 0.56938 0.57335
 C515 C 0.41445 0.55057 0.55534
 C516 C 0.43661 0.55787 0.51585
 C517 C 0.43581 0.58412 0.49391
 C518 C 0.41411 0.60314 0.51295
 H519 H 0.36566 0.71182 0.71145
 H520 H 0.39710 0.67642 0.66720
 H521 H 0.31849 0.65168 0.57474
 H522 H 0.28736 0.68793 0.61753
 H523 H 0.40442 0.64614 0.58518
 H524 H 0.34751 0.60982 0.58735
 H525 H 0.37562 0.56347 0.60434
 H526 H 0.41447 0.53036 0.57256
 H527 H 0.45266 0.59022 0.46344
 H528 H 0.41436 0.62348 0.49639
   
