data_POSCAR
  _audit_creation_date              2014-09-24
  _audit_creation_method            'ToBaCCo'
  _symmetry_space_group_name_H-M    'P1'
  _symmetry_Int_Tables_number       1
  _symmetry_cell_setting            triclinic
  loop_
  _symmetry_equiv_pos_as_xyz
 x,y,z
_cell_length_a 41.0075
_cell_length_b 49.2056
_cell_length_c 16.6049
_cell_angle_alpha 89.804400
_cell_angle_beta 90.171100
_cell_angle_gamma 89.966900
loop_
  _atom_site_label
  _atom_site_type_symbol
  _atom_site_fract_x
  _atom_site_fract_y
  _atom_site_fract_z
C1 C 0.76005 0.25408 0.46218
 C2 C 0.75786 0.25246 0.54373
 C3 C 0.74022 0.27351 0.58960
 C4 C 0.77197 0.22948 0.58981
 C5 C 0.77929 0.23437 0.41417
 C6 C 0.74288 0.27591 0.41768
 C7 C 0.75638 0.29702 0.61483
 C8 C 0.73920 0.31772 0.65346
 C9 C 0.70523 0.31577 0.66534
 C10 C 0.68932 0.29165 0.64080
 C11 C 0.70681 0.27070 0.60414
 C12 C 0.79670 0.23410 0.64661
 C13 C 0.81149 0.21228 0.68654
 C14 C 0.80144 0.18548 0.67089
 C15 C 0.77574 0.18102 0.61654
 C16 C 0.76126 0.20282 0.57585
 C17 C 0.76492 0.22134 0.34795
 C18 C 0.78253 0.20229 0.30355
 C19 C 0.81474 0.19577 0.32484
 C20 C 0.82952 0.20950 0.38951
 C21 C 0.81199 0.22876 0.43338
 C22 C 0.70907 0.27452 0.40623
 C23 C 0.69250 0.29578 0.36810
 C24 C 0.70957 0.31887 0.34100
 C25 C 0.74363 0.31969 0.35020
 C26 C 0.76017 0.29837 0.38842
 H27 H 0.78222 0.29948 0.60363
 H28 H 0.75251 0.33572 0.67178
 H29 H 0.66362 0.28828 0.65059
 H30 H 0.69412 0.25248 0.58534
 H31 H 0.80514 0.25454 0.65856
 H32 H 0.83061 0.21644 0.72984
 H33 H 0.74192 0.19894 0.53282
 H34 H 0.73985 0.22555 0.33143
 H35 H 0.77076 0.19221 0.25337
 H36 H 0.85470 0.20573 0.40566
 H37 H 0.82397 0.23929 0.48236
 H38 H 0.69553 0.25701 0.42732
 H39 H 0.66647 0.29382 0.35946
 H40 H 0.75739 0.33707 0.32902
 H41 H 0.78635 0.29959 0.39653
 H42 H 0.76737 0.16057 0.60420
 C43 C 0.24905 0.74321 0.47025
 C44 C 0.24164 0.74022 0.54975
 C45 C 0.22676 0.76267 0.59649
 C46 C 0.25001 0.71477 0.59317
 C47 C 0.27409 0.72548 0.43252
 C48 C 0.23298 0.76447 0.41984
 C49 C 0.24077 0.78869 0.59464
 C50 C 0.22679 0.80999 0.63775
 C51 C 0.19838 0.80578 0.68289
 C52 C 0.18477 0.77955 0.68641
 C53 C 0.19903 0.75812 0.64390
 C54 C 0.27199 0.71517 0.65796
 C55 C 0.28303 0.69080 0.69187
 C56 C 0.27162 0.66575 0.66254
 C57 C 0.24804 0.66548 0.60131
 C58 C 0.23758 0.68982 0.56618
 C59 C 0.26718 0.71085 0.36216
 C60 C 0.29035 0.69295 0.33032
 C61 C 0.32087 0.68960 0.36832
 C62 C 0.32790 0.70481 0.43742
 C63 C 0.30495 0.72282 0.46857
 C64 C 0.19913 0.76856 0.42471
 C65 C 0.18405 0.78917 0.38029
 C66 C 0.20246 0.80595 0.32908
 C67 C 0.23603 0.80104 0.32114
 C68 C 0.25122 0.78055 0.36638
 H69 H 0.26258 0.79248 0.55973
 H70 H 0.23792 0.82993 0.63482
 H71 H 0.16341 0.77545 0.72254
 H72 H 0.18815 0.73809 0.64694
 H73 H 0.28170 0.73427 0.67967
 H74 H 0.30078 0.69150 0.74024
 H75 H 0.22039 0.68921 0.51656
 H76 H 0.24354 0.71268 0.33340
 H77 H 0.28384 0.68117 0.27782
 H78 H 0.35120 0.70267 0.46770
 H79 H 0.31108 0.73440 0.52185
 H80 H 0.18431 0.75578 0.46321
 H81 H 0.15792 0.79166 0.38540
 H82 H 0.25063 0.81347 0.28114
 H83 H 0.27728 0.77758 0.36077
 H84 H 0.23881 0.64640 0.57830
 C85 C 0.24133 0.26098 -0.55087
 C86 C 0.24242 0.25796 -0.46902
 C87 C 0.22375 0.23626 -0.42683
 C88 C 0.26251 0.27585 -0.41631
 C89 C 0.25977 0.28269 -0.59331
 C90 C 0.22211 0.24227 -0.60254
 C91 C 0.20278 0.24336 -0.36382
 C92 C 0.18536 0.22344 -0.32230
 C93 C 0.18813 0.19587 -0.34331
 C94 C 0.20977 0.18872 -0.40584
 C95 C 0.22764 0.20872 -0.44635
 C96 C 0.26056 0.30434 -0.42094
 C97 C 0.28033 0.32051 -0.37183
 C98 C 0.30147 0.30844 -0.31530
 C99 C 0.30220 0.28011 -0.30780
 C100 C 0.28317 0.26395 -0.35840
 C101 C 0.29371 0.28496 -0.58564
 C102 C 0.31027 0.30651 -0.62231
 C103 C 0.29338 0.32616 -0.66827
 C104 C 0.25935 0.32313 -0.67801
 C105 C 0.24288 0.30158 -0.64112
 C106 C 0.23809 0.22699 -0.66153
 C107 C 0.22122 0.20730 -0.70535
 C108 C 0.18789 0.20239 -0.69145
 C109 C 0.17153 0.21887 -0.63482
 C110 C 0.18850 0.23866 -0.59128
 H111 H 0.19978 0.26447 -0.34696
 H112 H 0.16927 0.22974 -0.27416
 H113 H 0.21385 0.16785 -0.42290
 H114 H 0.24461 0.20269 -0.49285
 H115 H 0.24388 0.31407 -0.46266
 H116 H 0.27874 0.34241 -0.37713
 H117 H 0.28478 0.24205 -0.35282
 H118 H 0.30729 0.27029 -0.55015
 H119 H 0.33643 0.30793 -0.61388
 H120 H 0.24491 0.33726 -0.71285
 H121 H 0.21668 0.30001 -0.64825
 H122 H 0.26398 0.22964 -0.67162
 H123 H 0.23463 0.19534 -0.74883
 H124 H 0.14588 0.21659 -0.62225
 H125 H 0.17560 0.25069 -0.54711
 H126 H 0.31812 0.27045 -0.26407
 C127 C -0.24685 0.74751 -0.46108
 C128 C -0.24998 0.74962 -0.54292
 C129 C -0.23010 0.76935 -0.58989
 C130 C -0.27238 0.73181 -0.58989
 C131 C -0.26323 0.72564 -0.41388
 C132 C -0.22699 0.76729 -0.41423
 C133 C -0.24543 0.78794 -0.64163
 C134 C -0.22710 0.80726 -0.68353
 C135 C -0.19294 0.80841 -0.67497
 C136 C -0.17756 0.78896 -0.62487
 C137 C -0.19599 0.76961 -0.58330
 C138 C -0.30511 0.72820 -0.56746
 C139 C -0.32484 0.70937 -0.60766
 C140 C -0.31239 0.69425 -0.67281
 C141 C -0.28025 0.69938 -0.69813
 C142 C -0.26046 0.71778 -0.65696
 C143 C -0.26177 0.69833 -0.43795
 C144 C -0.27916 0.67840 -0.39619
 C145 C -0.29727 0.68519 -0.32701
 C146 C -0.29646 0.71216 -0.29951
 C147 C -0.28009 0.73222 -0.34312
 C148 C -0.20341 0.75785 -0.35940
 C149 C -0.18467 0.77618 -0.31492
 C150 C -0.18892 0.80427 -0.32508
 C151 C -0.21309 0.81374 -0.37851
 C152 C -0.23213 0.79540 -0.42215
 H153 H -0.27172 0.78788 -0.64822
 H154 H -0.23985 0.82164 -0.72189
 H155 H -0.15147 0.78831 -0.61666
 H156 H -0.18363 0.75494 -0.54516
 H157 H -0.31517 0.73950 -0.51748
 H158 H -0.34966 0.70705 -0.58725
 H159 H -0.23543 0.72045 -0.67611
 H160 H -0.24756 0.69247 -0.48993
 H161 H -0.27753 0.65770 -0.41743
 H162 H -0.30964 0.71803 -0.24581
 H163 H -0.28107 0.75304 -0.32228
 H164 H -0.19933 0.73625 -0.35159
 H165 H -0.16647 0.76843 -0.27338
 H166 H -0.21777 0.83527 -0.38558
 H167 H -0.25094 0.80312 -0.46203
 H168 H -0.26990 0.68848 -0.74860
 O169 O -0.00767 0.96409 0.14384
 O170 O 0.01888 0.96470 -0.13377
 O171 O -0.04899 0.96534 -0.04576
 O172 O 0.06186 0.96819 0.05341
 O173 O -0.03525 0.98420 -0.15365
 O174 O 0.04581 0.98566 0.16109
 O175 O 0.06473 0.97733 -0.08309
 O176 O -0.05381 0.97503 0.09103
 C177 C -0.03638 0.95810 0.12832
 C178 C 0.04781 0.95956 -0.11810
 C179 C -0.04878 0.96486 -0.11961
 C180 C 0.06035 0.96691 0.12703
 O181 O 0.01823 1.03401 0.14325
 O182 O -0.01020 1.03377 -0.13411
 O183 O -0.05130 1.03050 0.05398
 O184 O 0.05851 1.03311 -0.04893
 O185 O 0.04386 1.01396 -0.15541
 O186 O -0.03496 1.01281 0.16173
 O187 O 0.06417 1.02386 0.08859
 O188 O -0.05555 1.02085 -0.08217
 Co189 Co 0.00530 0.99911 0.13736
 Co190 Co 0.00437 0.99919 -0.12867
 Co191 Co -0.04734 0.99800 0.00421
 Co192 Co 0.05724 1.00056 0.00260
 O193 O 0.00491 0.99921 0.00406
 C194 C 0.04664 1.04044 0.12661
 C195 C -0.03915 1.03866 -0.11834
 C196 C -0.04920 1.03183 0.12757
 C197 C 0.05778 1.03333 -0.12280
 O198 O 0.46182 0.46935 0.10788
 O199 O 0.53486 0.48055 -0.15794
 O200 O 0.45160 0.46215 -0.04350
 O201 O 0.56166 0.48170 0.09583
 O202 O 0.47708 0.46928 -0.15353
 O203 O 0.51605 0.46568 0.13519
 O204 O 0.56142 0.46808 -0.04961
 O205 O 0.42420 0.49233 0.05832
 C206 C 0.43230 0.47418 0.10599
 C207 C 0.55429 0.46461 -0.12205
 C208 C 0.46008 0.45397 -0.11071
 C209 C 0.54601 0.46390 0.13197
 O210 O 0.52313 0.52075 0.15270
 O211 O 0.46225 0.52332 -0.14222
 O212 O 0.45018 0.53441 -0.00232
 O213 O 0.56360 0.51926 -0.08971
 O214 O 0.51847 0.53400 -0.13782
 O215 O 0.46430 0.52596 0.12158
 O216 O 0.55721 0.53200 0.05599
 O217 O 0.41915 0.50351 -0.09362
 Co218 Co 0.49186 0.49587 0.11874
 Co219 Co 0.49841 0.50131 -0.13536
 Co220 Co 0.45285 0.49834 -0.02481
 Co221 Co 0.55527 0.50002 0.00196
 O222 O 0.50161 0.49826 -0.00543
 C223 C 0.54520 0.53612 0.12432
 C224 C 0.43207 0.51827 -0.14981
 C225 C 0.45200 0.54184 0.06937
 C226 C 0.54812 0.53695 -0.12766
 C227 C 0.31121 0.34800 0.29864
 C228 C 0.29812 0.36923 0.25206
 C229 C 0.31850 0.39172 0.22174
 N230 N 0.30541 0.41099 0.17257
 N231 N 0.32368 0.43129 0.14422
 C232 C 0.35571 0.43314 0.16437
 N233 N 0.36872 0.41392 0.21390
 N234 N 0.35050 0.39365 0.24206
 C235 C 0.37622 0.45495 0.13030
 C236 C 0.40930 0.45652 0.14886
 H237 H 0.27258 0.36983 0.23625
 H238 H 0.36567 0.46885 0.08670
 H239 H 0.33720 0.34855 0.31069
 H240 H 0.41970 0.44229 0.19173
 C241 C -0.17593 0.82915 0.28413
 C242 C -0.14233 0.83396 0.28981
 C243 C -0.12676 0.85735 0.24984
 N244 N -0.09456 0.86232 0.26196
 N245 N -0.08030 0.88384 0.22826
 C246 C -0.09772 0.90120 0.18105
 N247 N -0.12985 0.89613 0.16847
 N248 N -0.14411 0.87463 0.20225
 C249 C -0.08270 0.92555 0.14542
 C250 C -0.05033 0.93272 0.15996
 H251 H -0.12669 0.82122 0.32621
 H252 H -0.09789 0.93862 0.10838
 H253 H -0.19010 0.84297 0.24694
 H254 H -0.03492 0.91968 0.19648
 C255 C 0.66969 0.67408 0.28656
 C256 C 0.63947 0.66361 0.31079
 C257 C 0.62380 0.64119 0.26640
 N258 N 0.59771 0.62796 0.29804
 N259 N 0.58403 0.60720 0.25900
 C260 C 0.59594 0.59902 0.18674
 N261 N 0.62179 0.61240 0.15495
 N262 N 0.63549 0.63303 0.19401
 C263 C 0.58188 0.57604 0.14226
 C264 C 0.55718 0.55930 0.17205
 H265 H 0.62773 0.67049 0.36516
 H266 H 0.59217 0.57183 0.08357
 H267 H 0.68097 0.66492 0.23427
 H268 H 0.54684 0.56304 0.23091
 C269 C 0.17288 1.18075 0.26709
 C270 C 0.14061 1.17221 0.27760
 C271 C 0.12772 1.14746 0.23917
 N272 N 0.09667 1.13952 0.25437
 N273 N 0.08488 1.11671 0.22262
 C274 C 0.10370 1.10093 0.17445
 N275 N 0.13472 1.10893 0.15884
 N276 N 0.14652 1.13176 0.19065
 C277 C 0.09112 1.07530 0.14075
 C278 C 0.05968 1.06620 0.15744
 H279 H 0.12419 1.18293 0.31700
 H280 H 0.10700 1.06325 0.10299
 H281 H 0.18782 1.16913 0.22585
 H282 H 0.04374 1.07844 0.19451
 C283 C 0.68952 0.33693 -0.30022
 C284 C 0.65558 0.33979 -0.29490
 C285 C 0.64066 0.36328 -0.25474
 N286 N 0.60952 0.37056 -0.27250
 N287 N 0.59568 0.39171 -0.23613
 C288 C 0.61240 0.40618 -0.18008
 N289 N 0.64340 0.39873 -0.16171
 N290 N 0.65735 0.37775 -0.19864
 C291 C 0.59726 0.42908 -0.13774
 C292 C 0.56959 0.44234 -0.16700
 H293 H 0.63920 0.32590 -0.32485
 H294 H 0.60880 0.43617 -0.08291
 H295 H 0.70407 0.35369 -0.27764
 H296 H 0.55937 0.43670 -0.22479
 C297 C 0.18390 0.82912 -0.27420
 C298 C 0.15058 0.83138 -0.25906
 C299 C 0.13631 0.85614 -0.22432
 N300 N 0.10348 0.85955 -0.22450
 N301 N 0.09023 0.88224 -0.19579
 C302 C 0.10931 0.90235 -0.16553
 N303 N 0.14212 0.89881 -0.16448
 N304 N 0.15539 0.87616 -0.19352
 C305 C 0.09506 0.92780 -0.13543
 C306 C 0.06217 0.93396 -0.14612
 H307 H 0.13411 0.81548 -0.27820
 H308 H 0.11101 0.94233 -0.10630
 H309 H 0.19964 0.84618 -0.26047
 H310 H 0.04633 0.91967 -0.17663
 C311 C 0.28504 0.63980 -0.30740
 C312 C 0.31840 0.63668 -0.29449
 C313 C 0.33335 0.61068 -0.27117
 N314 N 0.36607 0.60764 -0.27759
 N315 N 0.38042 0.58461 -0.25476
 C316 C 0.36261 0.56372 -0.22433
 N317 N 0.32981 0.56674 -0.21779
 N318 N 0.31539 0.58977 -0.24125
 C319 C 0.37892 0.53926 -0.19233
 C320 C 0.41225 0.53536 -0.20342
 H321 H 0.33455 0.65365 -0.30625
 H322 H 0.36537 0.52585 -0.15289
 H323 H 0.26920 0.62222 -0.30428
 H324 H 0.42532 0.54849 -0.24469
 C325 C -0.18286 1.16190 -0.28953
 C326 C -0.14990 1.16169 -0.26837
 C327 C -0.13397 1.13750 -0.23400
 N328 N -0.10095 1.13634 -0.22929
 N329 N -0.08612 1.11437 -0.19960
 C330 C -0.10380 1.09281 -0.17307
 N331 N -0.13682 1.09408 -0.17701
 N332 N -0.15164 1.11599 -0.20712
 C333 C -0.08789 1.06825 -0.14105
 C334 C -0.05445 1.06379 -0.14799
 H335 H -0.13480 1.17918 -0.28156
 H336 H -0.10316 1.05283 -0.11371
 H337 H -0.19699 1.14343 -0.28290
 H338 H -0.03919 1.07875 -0.17749
 C339 C 0.68402 0.66609 -0.28443
 C340 C 0.67359 0.64138 -0.31657
 C341 C 0.65301 0.62276 -0.26996
 N342 N 0.63098 0.60678 -0.30826
 N343 N 0.61217 0.58977 -0.26664
 C344 C 0.61501 0.58791 -0.18532
 N345 N 0.63734 0.60362 -0.14709
 N346 N 0.65583 0.62093 -0.18860
 C347 C 0.59552 0.56826 -0.13962
 C348 C 0.56527 0.55941 -0.16718
 H349 H 0.67751 0.63663 -0.37934
 H350 H 0.60508 0.56066 -0.08296
 H351 H 0.67487 0.67168 -0.22554
 H352 H 0.55406 0.56904 -0.21910
 C353 C 0.16952 1.17674 -0.30014
 C354 C 0.16596 1.14938 -0.32094
 C355 C 0.14603 1.13062 -0.27254
 N356 N 0.13697 1.10632 -0.30368
 N357 N 0.11892 1.08910 -0.26073
 C358 C 0.10942 1.09547 -0.18479
 N359 N 0.11873 1.11968 -0.15332
 N360 N 0.13660 1.13698 -0.19651
 C361 C 0.08997 1.07638 -0.13640
 C362 C 0.07519 1.05373 -0.17082
 H363 H 0.17628 1.14146 -0.37585
 H364 H 0.08715 1.08026 -0.07259
 H365 H 0.15591 1.18391 -0.24849
 H366 H 0.07671 1.05056 -0.23523
 C367 C 0.32282 0.32501 -0.26346
 C368 C 0.33967 0.34732 -0.29383
 C369 C 0.36236 0.36329 -0.24444
 N370 N 0.38427 0.37982 -0.28092
 N371 N 0.40442 0.39508 -0.23737
 C372 C 0.40334 0.39451 -0.15563
 N373 N 0.38135 0.37802 -0.11903
 N374 N 0.36136 0.36253 -0.16265
 C375 C 0.42345 0.41330 -0.10788
 C376 C 0.44848 0.42811 -0.14368
 H377 H 0.33741 0.35246 -0.35710
 H378 H 0.41626 0.41761 -0.04649
 H379 H 0.32782 0.31800 -0.20273
 H380 H 0.45628 0.42294 -0.20402
 C381 C -0.16839 0.82314 -0.27800
 C382 C -0.15961 0.84876 -0.30670
 C383 C -0.13890 0.86739 -0.26022
 N384 N -0.12722 0.89023 -0.29574
 N385 N -0.10869 0.90753 -0.25446
 C386 C -0.10125 0.90268 -0.17595
 N387 N -0.11305 0.87988 -0.14025
 N388 N -0.13147 0.86250 -0.18168
 C389 C -0.08151 0.92203 -0.12933
 C390 C -0.06619 0.94409 -0.16594
 H391 H -0.16714 0.85511 -0.36640
 H392 H -0.07928 0.91903 -0.06486
 H393 H -0.15828 0.81599 -0.22139
 H394 H -0.06749 0.94660 -0.23071
 C395 C 0.34527 0.66953 0.34079
 C396 C 0.34699 0.65981 0.26215
 C397 C 0.37069 0.63879 0.23872
 N398 N 0.37343 0.63149 0.16034
 N399 N 0.39398 0.61188 0.13863
 C400 C 0.41256 0.59879 0.19450
 N401 N 0.40989 0.60614 0.27287
 N402 N 0.38940 0.62581 0.29456
 C403 C 0.43376 0.57590 0.17194
 C404 C 0.43722 0.56789 0.09207
 H405 H 0.33092 0.66787 0.21613
 H406 H 0.44516 0.56410 0.21949
 H407 H 0.36327 0.66264 0.38423
 H408 H 0.42618 0.57996 0.04458
 C409 C -0.16773 1.17490 0.27788
 C410 C -0.14295 1.15883 0.31065
 C411 C -0.12710 1.13707 0.26456
 N412 N -0.10644 1.11961 0.30228
 N413 N -0.09223 1.09955 0.26168
 C414 C -0.09808 1.09627 0.18175
 N415 N -0.11856 1.11385 0.14389
 N416 N -0.13286 1.13385 0.18455
 C417 C -0.08275 1.07415 0.13615
 C418 C -0.06431 1.05390 0.17355
 H419 H -0.13596 1.16123 0.37311
 H420 H -0.08655 1.07354 0.07157
 H421 H -0.17622 1.17074 0.21731
 H422 H -0.06098 1.05405 0.23828
 C423 C 0.69282 0.34218 0.30223
 C424 C 0.65977 0.34785 0.31322
 C425 C 0.64357 0.37125 0.27503
 N426 N 0.61129 0.37547 0.28744
 N427 N 0.59610 0.39647 0.25316
 C428 C 0.61266 0.41408 0.20523
 N429 N 0.64497 0.40990 0.19292
 N430 N 0.66017 0.38886 0.22715
 C431 C 0.59615 0.43722 0.16643
 C432 C 0.56267 0.44146 0.17362
 H433 H 0.64513 0.33520 0.35229
 H434 H 0.61062 0.45093 0.12995
 H435 H 0.70741 0.35608 0.26667
 H436 H 0.54802 0.42749 0.20873
 C437 C 0.18709 0.82827 0.28261
 C438 C 0.15998 0.84244 0.31104
 C439 C 0.14425 0.86449 0.26525
 N440 N 0.12100 0.87990 0.30095
 N441 N 0.10614 0.89976 0.26035
 C442 C 0.11386 0.90487 0.18228
 N443 N 0.13700 0.88937 0.14639
 N444 N 0.15198 0.86957 0.18715
 C445 C 0.09742 0.92658 0.13647
 C446 C 0.07673 0.94531 0.17314
 H447 H 0.15038 0.83784 0.37020
 H448 H 0.10217 0.92814 0.07246
 H449 H 0.19845 0.83468 0.22687
 H450 H 0.07280 0.94446 0.23757
   
