data_POSCAR
  _audit_creation_date              2014-09-24
  _audit_creation_method            'ToBaCCo'
  _symmetry_space_group_name_H-M    'P1'
  _symmetry_Int_Tables_number       1
  _symmetry_cell_setting            triclinic
  loop_
  _symmetry_equiv_pos_as_xyz
 x,y,z
_cell_length_a 48.4484
_cell_length_b 48.3292
_cell_length_c 48.3110
_cell_angle_alpha 89.836700
_cell_angle_beta 90.071800
_cell_angle_gamma 90.131300
loop_
  _atom_site_label
  _atom_site_type_symbol
  _atom_site_fract_x
  _atom_site_fract_y
  _atom_site_fract_z
N1 N 0.59237 0.66910 0.61369
 N2 N 0.58156 0.65771 0.63597
 C3 C 0.55918 0.67235 0.64360
 C4 C 0.55602 0.69390 0.62511
 C5 C 0.57729 0.69134 0.60641
 H6 H 0.54614 0.66776 0.66118
 H7 H 0.58147 0.70463 0.58886
 Cu8 Cu 0.59792 0.62480 0.65246
 Cu9 Cu 0.62514 0.65425 0.59569
 Cu10 Cu 0.65429 0.59550 0.62509
 N11 N 0.61429 0.59188 0.66895
 N12 N 0.63640 0.58051 0.65802
 C13 C 0.64356 0.55815 0.67308
 C14 C 0.62493 0.55549 0.69443
 C15 C 0.60660 0.57707 0.69137
 H16 H 0.66098 0.54488 0.66882
 H17 H 0.58906 0.58155 0.70444
 N18 N 0.66937 0.61373 0.59178
 N19 N 0.65829 0.63611 0.58060
 C20 C 0.67323 0.64353 0.55825
 C21 C 0.69454 0.62495 0.55539
 C22 C 0.69162 0.60636 0.57683
 H23 H 0.66899 0.66110 0.54501
 H24 H 0.70476 0.58881 0.58116
 H25 H 0.61949 0.61378 0.60829
 H26 H 0.64186 0.63600 0.63051
 N27 N 0.90830 0.33016 0.11377
 N28 N 0.91923 0.34152 0.13597
 C29 C 0.94165 0.32690 0.14361
 C30 C 0.94468 0.30541 0.12517
 C31 C 0.92333 0.30794 0.10651
 H32 H 0.95478 0.33150 0.16113
 H33 H 0.91910 0.29470 0.08899
 Cu34 Cu 0.90311 0.37440 0.15249
 Cu35 Cu 0.87556 0.34505 0.09576
 Cu36 Cu 0.84680 0.40395 0.12465
 N37 N 0.88663 0.40729 0.16867
 N38 N 0.86467 0.41881 0.15754
 C39 C 0.85747 0.44107 0.17255
 C40 C 0.87591 0.44352 0.19413
 C41 C 0.89417 0.42190 0.19119
 H42 H 0.84012 0.45444 0.16818
 H43 H 0.91155 0.41723 0.20446
 N44 N 0.83164 0.38582 0.09145
 N45 N 0.84247 0.36327 0.08056
 C46 C 0.82737 0.35577 0.05835
 C47 C 0.80622 0.37451 0.05529
 C48 C 0.80939 0.39327 0.07644
 H49 H 0.83139 0.33805 0.04536
 H50 H 0.79638 0.41093 0.08057
 H51 H 0.88154 0.38541 0.10814
 H52 H 0.85904 0.36339 0.13052
 N53 N 0.40747 0.16924 -0.11347
 N54 N 0.41829 0.15793 -0.13568
 C55 C 0.44075 0.17257 -0.14330
 C56 C 0.44394 0.19404 -0.12486
 C57 C 0.42262 0.19146 -0.10620
 H58 H 0.45382 0.16803 -0.16084
 H59 H 0.41847 0.20471 -0.08870
 Cu60 Cu 0.40188 0.12507 -0.15206
 Cu61 Cu 0.37460 0.15442 -0.09556
 Cu62 Cu 0.34527 0.09573 -0.12481
 N63 N 0.38546 0.09221 -0.16844
 N64 N 0.36327 0.08082 -0.15758
 C65 C 0.35612 0.05849 -0.17259
 C66 C 0.37485 0.05588 -0.19383
 C67 C 0.39322 0.07746 -0.19074
 H68 H 0.33864 0.04517 -0.16838
 H69 H 0.41083 0.08198 -0.20374
 N70 N 0.33016 0.11396 -0.09168
 N71 N 0.34133 0.13630 -0.08056
 C72 C 0.32635 0.14377 -0.05834
 C73 C 0.30492 0.12525 -0.05549
 C74 C 0.30779 0.10664 -0.07680
 H75 H 0.33065 0.16132 -0.04517
 H76 H 0.29454 0.08912 -0.08109
 H77 H 0.38008 0.11394 -0.10797
 H78 H 0.35791 0.13620 -0.13038
 N79 N 0.09175 0.83029 0.38642
 N80 N 0.08083 0.84174 0.36423
 C81 C 0.05848 0.82698 0.35648
 C82 C 0.05541 0.80535 0.37487
 C83 C 0.07673 0.80790 0.39360
 H84 H 0.04545 0.83159 0.33888
 H85 H 0.08100 0.79452 0.41107
 Cu86 Cu 0.09705 0.87473 0.34767
 Cu87 Cu 0.12458 0.84527 0.40435
 Cu88 Cu 0.15376 0.90411 0.37507
 N89 N 0.11356 0.90770 0.33141
 N90 N 0.13578 0.91904 0.34225
 C91 C 0.14300 0.94135 0.32714
 C92 C 0.12431 0.94399 0.30581
 C93 C 0.10591 0.92244 0.30895
 H94 H 0.16051 0.95463 0.33129
 H95 H 0.08834 0.91792 0.29589
 N96 N 0.16887 0.88591 0.40832
 N97 N 0.15780 0.86350 0.41949
 C98 C 0.17277 0.85612 0.44185
 C99 C 0.19410 0.87478 0.44470
 C100 C 0.19116 0.89337 0.42327
 H101 H 0.16855 0.83854 0.45508
 H102 H 0.20431 0.91097 0.41896
 H103 H 0.11909 0.88582 0.39175
 H104 H 0.14122 0.86372 0.36940
 C105 C 0.10438 0.14571 0.12511
 N106 N 0.10436 0.12582 0.14499
 C107 C 0.12408 0.10595 0.14497
 N108 N 0.14382 0.10594 0.12508
 C109 C 0.14385 0.12582 0.10521
 N110 N 0.12413 0.14572 0.10521
 C111 C 0.39524 0.85505 0.62550
 N112 N 0.39523 0.87486 0.64536
 C113 C 0.37543 0.89467 0.64531
 N114 N 0.35564 0.89468 0.62541
 C115 C 0.35564 0.87489 0.60556
 N116 N 0.37543 0.85506 0.60560
 C117 C 0.89541 0.64482 0.37460
 N118 N 0.89543 0.62492 0.35484
 C119 C 0.87562 0.60502 0.35486
 N120 N 0.85577 0.60502 0.37466
 C121 C 0.85574 0.62491 0.39443
 N122 N 0.87555 0.64481 0.39440
 C123 C 0.60506 0.35518 -0.12531
 N124 N 0.60504 0.37509 -0.14517
 C125 C 0.62489 0.39495 -0.14520
 N126 N 0.64475 0.39489 -0.12537
 C127 C 0.64476 0.37497 -0.10551
 N128 N 0.62491 0.35512 -0.10548
 C129 C 0.04470 0.20546 0.12525
 C130 C 0.02929 0.21053 0.14960
 C131 C 0.00858 0.23132 0.14963
 C132 C 0.00341 0.24691 0.12531
 C133 C 0.01876 0.24178 0.10094
 C134 C 0.03947 0.22100 0.10092
 C135 C 0.05455 0.21624 0.07631
 C136 C 0.04930 0.23156 0.05240
 C137 C 0.02904 0.25187 0.05242
 C138 C 0.01388 0.25701 0.07635
 C139 C -0.00658 0.23601 0.17420
 C140 C -0.00143 0.22059 0.19806
 C141 C 0.01881 0.20025 0.19804
 C142 C 0.03406 0.19519 0.17415
 C143 C -0.01774 0.26815 0.12535
 C144 C -0.03537 0.28572 0.12532
 C145 C 0.06591 0.18428 0.12522
 C146 C 0.08350 0.16668 0.12515
 H147 H 0.07051 0.20065 0.07526
 H148 H 0.06103 0.22763 0.03377
 H149 H 0.02502 0.26371 0.03380
 H150 H -0.00168 0.27301 0.07534
 H151 H -0.02255 0.25159 0.17524
 H152 H -0.01323 0.22444 0.21667
 H153 H 0.02273 0.18832 0.21663
 H154 H 0.04958 0.17915 0.17514
 C155 C 0.45494 0.79522 0.62545
 C156 C 0.48132 0.80089 0.63677
 C157 C 0.50202 0.78007 0.63674
 C158 C 0.49622 0.75369 0.62540
 C159 C 0.46984 0.74804 0.61404
 C160 C 0.44915 0.76887 0.61406
 C161 C 0.42296 0.76273 0.60255
 C162 C 0.41737 0.73678 0.59135
 C163 C 0.43759 0.71642 0.59134
 C164 C 0.46356 0.72187 0.60252
 C165 C 0.52824 0.78624 0.64815
 C166 C 0.53386 0.81223 0.65926
 C167 C 0.51363 0.83258 0.65929
 C168 C 0.48763 0.82709 0.64821
 C169 C 0.51738 0.73241 0.62537
 C170 C 0.53498 0.71480 0.62530
 C171 C 0.43377 0.81648 0.62551
 C172 C 0.41618 0.83410 0.62553
 H173 H 0.40656 0.77789 0.60208
 H174 H 0.39722 0.73245 0.58263
 H175 H 0.43314 0.69629 0.58261
 H176 H 0.47861 0.70537 0.60202
 H177 H 0.54465 0.77110 0.64859
 H178 H 0.55404 0.81660 0.66789
 H179 H 0.51809 0.85274 0.66795
 H180 H 0.47258 0.84359 0.64870
 C181 C 0.95516 0.70491 0.37451
 C182 C 0.97970 0.70113 0.35909
 C183 C 1.00044 0.72201 0.35908
 C184 C 0.99653 0.74658 0.37448
 C185 C 0.97199 0.75036 0.38991
 C186 C 0.95126 0.72947 0.38993
 C187 C 0.92693 0.73373 0.40553
 C188 C 0.92317 0.75791 0.42069
 C189 C 0.94343 0.77833 0.42068
 C190 C 0.96760 0.77471 0.40551
 C191 C 1.02479 0.71773 0.34353
 C192 C 1.02857 0.69352 0.32842
 C193 C 1.00831 0.67311 0.32842
 C194 C 0.98411 0.67676 0.34354
 C195 C 1.01777 0.76789 0.37453
 C196 C 1.03544 0.78552 0.37464
 C197 C 0.93397 0.68356 0.37453
 C198 C 0.91637 0.66586 0.37456
 H199 H 0.91058 0.71845 0.40620
 H200 H 0.90444 0.76082 0.43251
 H201 H 0.94043 0.79708 0.43249
 H202 H 0.98276 0.79118 0.40615
 H203 H 1.04115 0.73300 0.34288
 H204 H 1.04733 0.69060 0.31665
 H205 H 1.01134 0.65434 0.31665
 H206 H 0.96896 0.66029 0.34289
 C207 C 0.54530 0.29525 -0.12519
 C208 C 0.53405 0.28583 -0.09981
 C209 C 0.51327 0.26502 -0.09979
 C210 C 0.50391 0.25374 -0.12515
 C211 C 0.51515 0.26317 -0.15053
 C212 C 0.53591 0.28398 -0.15055
 C213 C 0.54685 0.29308 -0.17618
 C214 C 0.53752 0.28193 -0.20107
 C215 C 0.51720 0.26158 -0.20105
 C216 C 0.50606 0.25223 -0.17613
 C217 C 0.50229 0.25596 -0.07417
 C218 C 0.51159 0.26712 -0.04927
 C219 C 0.53194 0.28744 -0.04929
 C220 C 0.54311 0.29677 -0.07420
 C221 C 0.48269 0.23249 -0.12512
 C222 C 0.46504 0.21490 -0.12505
 C223 C 0.56650 0.31653 -0.12522
 C224 C 0.58410 0.33419 -0.12527
 H225 H 0.56269 0.30886 -0.17726
 H226 H 0.54612 0.28913 -0.22048
 H227 H 0.51001 0.25299 -0.22044
 H228 H 0.49030 0.23637 -0.17718
 H229 H 0.48642 0.24019 -0.07309
 H230 H 0.50296 0.25994 -0.02987
 H231 H 0.53911 0.29604 -0.02989
 H232 H 0.55889 0.31262 -0.07314
 C233 C 0.12413 0.04588 0.20472
 C234 C 0.14558 0.02603 0.20544
 C235 C 0.14560 0.00511 0.22617
 C236 C 0.12413 0.00413 0.24602
 C237 C 0.10273 0.02403 0.24535
 C238 C 0.10272 0.04496 0.22463
 C239 C 0.08110 0.06461 0.22435
 C240 C 0.06009 0.06363 0.24401
 C241 C 0.06012 0.04318 0.26430
 C242 C 0.08114 0.02355 0.26507
 C243 C 0.16728 -0.01447 0.22651
 C244 C 0.18834 -0.01343 0.20690
 C245 C 0.18830 0.00701 0.18660
 C246 C 0.16722 0.02657 0.18578
 C247 C 0.12409 -0.01731 0.26713
 C248 C 0.12411 -0.03504 0.28473
 C249 C 0.12410 0.06722 0.18354
 C250 C 0.12407 0.08493 0.16593
 H251 H 0.08019 0.08092 0.20898
 H252 H 0.04372 0.07883 0.24348
 H253 H 0.04377 0.04251 0.27954
 H254 H 0.08026 0.00806 0.28126
 H255 H 0.16822 -0.03075 0.24190
 H256 H 0.20476 -0.02857 0.20748
 H257 H 0.20468 0.00773 0.17140
 H258 H 0.16810 0.04208 0.16960
 C259 C 0.62484 0.45503 -0.20508
 C260 C 0.64701 0.45684 -0.22408
 C261 C 0.64699 0.47771 -0.24488
 C262 C 0.62479 0.49666 -0.24659
 C263 C 0.60262 0.49486 -0.22757
 C264 C 0.60265 0.47398 -0.20677
 C265 C 0.58025 0.47259 -0.18802
 C266 C 0.55846 0.49128 -0.18976
 C267 C 0.55844 0.51169 -0.21009
 C268 C 0.58021 0.51356 -0.22883
 C269 C 0.66939 0.47909 -0.26362
 C270 C 0.69118 0.46038 -0.26187
 C271 C 0.69120 0.43999 -0.24153
 C272 C 0.66943 0.43814 -0.22279
 C273 C 0.62474 0.51798 -0.26787
 C274 C 0.62476 0.53564 -0.28557
 C275 C 0.62485 0.43369 -0.18384
 C276 C 0.62487 0.41600 -0.16619
 H277 H 0.57934 0.45708 -0.17185
 H278 H 0.54151 0.48991 -0.17524
 H279 H 0.54147 0.52617 -0.21135
 H280 H 0.57926 0.52980 -0.24428
 H281 H 0.67032 0.49459 -0.27981
 H282 H 0.70815 0.46174 -0.27638
 H283 H 0.70817 0.42550 -0.24024
 H284 H 0.67037 0.42191 -0.20734
 C285 C 0.37532 0.95467 0.70492
 C286 C 0.39959 0.96001 0.72039
 C287 C 0.39956 0.98084 0.74110
 C288 C 0.37525 0.99621 0.74623
 C289 C 0.35099 0.99089 0.73074
 C290 C 0.35102 0.97007 0.71001
 C291 C 0.32652 0.96514 0.69479
 C292 C 0.30266 0.98034 0.69990
 C293 C 0.30262 1.00068 0.72018
 C294 C 0.32645 1.00599 0.73548
 C295 C 0.42406 0.98580 0.75631
 C296 C 0.44792 0.97061 0.75119
 C297 C 0.44796 0.95024 0.73094
 C298 C 0.42413 0.94492 0.71565
 C299 C 0.37519 1.01742 0.76746
 C300 C 0.37508 1.03499 0.78511
 C301 C 0.37536 0.93334 0.68379
 C302 C 0.37541 0.91566 0.66624
 H303 H 0.32553 0.94953 0.67880
 H304 H 0.28411 0.97629 0.68806
 H305 H 0.28404 1.01243 0.72409
 H306 H 0.32540 1.02203 0.75103
 H307 H 0.42506 1.00143 0.77227
 H308 H 0.46648 0.97468 0.76303
 H309 H 0.46654 0.93850 0.72703
 H310 H 0.42519 0.92887 0.70011
 C311 C 0.87570 0.54495 0.29527
 C312 C 0.85139 0.52951 0.28992
 C313 C 0.85145 0.50864 0.26923
 C314 C 0.87583 0.50329 0.25403
 C315 C 0.90012 0.51876 0.25933
 C316 C 0.90006 0.53964 0.28001
 C317 C 0.92459 0.55482 0.28492
 C318 C 0.94849 0.54955 0.26983
 C319 C 0.94854 0.52915 0.24960
 C320 C 0.92470 0.51387 0.24433
 C321 C 0.82688 0.49354 0.26423
 C322 C 0.80295 0.49888 0.27924
 C323 C 0.80290 0.51926 0.29949
 C324 C 0.82678 0.53446 0.30486
 C325 C 0.87592 0.48197 0.23289
 C326 C 0.87598 0.46436 0.21525
 C327 C 0.87566 0.56628 0.31641
 C328 C 0.87564 0.58397 0.33397
 H329 H 0.92558 0.57090 0.30043
 H330 H 0.96707 0.56136 0.27385
 H331 H 0.96715 0.52514 0.23791
 H332 H 0.92576 0.49823 0.22838
 H333 H 0.82589 0.47750 0.24868
 H334 H 0.78434 0.48714 0.27513
 H335 H 0.78426 0.52333 0.31111
 H336 H 0.82572 0.55011 0.32080
 C337 C 0.20369 0.12561 0.04556
 C338 C 0.20641 0.14850 0.02740
 C339 C 0.22721 0.14844 0.00667
 C340 C 0.24514 0.12548 0.00423
 C341 C 0.24245 0.10262 0.02243
 C342 C 0.22166 0.10268 0.04316
 C343 C 0.21938 0.07959 0.06112
 C344 C 0.23713 0.05708 0.05866
 C345 C 0.25746 0.05702 0.03837
 C346 C 0.26018 0.07946 0.02041
 C347 C 0.22954 0.17156 -0.01124
 C348 C 0.21183 0.19409 -0.00874
 C349 C 0.19149 0.19415 0.01152
 C350 C 0.18872 0.17167 0.02944
 C351 C 0.26633 0.12539 -0.01698
 C352 C 0.28394 0.12532 -0.03457
 C353 C 0.18242 0.12569 0.06670
 C354 C 0.16477 0.12579 0.08426
 H355 H 0.20390 0.07868 0.07723
 H356 H 0.23510 0.03959 0.07257
 H357 H 0.27120 0.03949 0.03653
 H358 H 0.27631 0.07846 0.00498
 H359 H 0.24504 0.17248 -0.02732
 H360 H 0.21391 0.21160 -0.02262
 H361 H 0.17778 0.21169 0.01339
 H362 H 0.17258 0.17269 0.04487
 C363 C 0.79584 0.62485 0.45417
 C364 C 0.79280 0.64806 0.47172
 C365 C 0.77201 0.64808 0.49247
 C366 C 0.75436 0.62487 0.49557
 C367 C 0.75741 0.60164 0.47804
 C368 C 0.77820 0.60163 0.45728
 C369 C 0.78082 0.57818 0.44000
 C370 C 0.76343 0.55538 0.44315
 C371 C 0.74313 0.55539 0.46345
 C372 C 0.74006 0.57819 0.48075
 C373 C 0.76939 0.67152 0.50976
 C374 C 0.78680 0.69431 0.50664
 C375 C 0.80711 0.69430 0.48636
 C376 C 0.81018 0.67150 0.46904
 C377 C 0.73311 0.62491 0.51677
 C378 C 0.71549 0.62494 0.53438
 C379 C 0.81709 0.62485 0.43296
 C380 C 0.83474 0.62488 0.41537
 H381 H 0.79631 0.57719 0.42391
 H382 H 0.76573 0.53762 0.42975
 H383 H 0.72967 0.53763 0.46582
 H384 H 0.72396 0.57722 0.49624
 H385 H 0.75389 0.67251 0.52584
 H386 H 0.78450 0.71206 0.52005
 H387 H 0.82059 0.71205 0.48401
 H388 H 0.82629 0.67248 0.45357
 C389 C 0.70461 0.37471 -0.04569
 C390 C 0.71684 0.39994 -0.03720
 C391 C 0.73766 0.39987 -0.01644
 C392 C 0.74613 0.37457 -0.00431
 C393 C 0.73388 0.34934 -0.01277
 C394 C 0.71306 0.34941 -0.03352
 C395 C 0.70112 0.32392 -0.04165
 C396 C 0.70952 0.29909 -0.02962
 C397 C 0.72989 0.29902 -0.00932
 C398 C 0.74200 0.32380 -0.00092
 C399 C 0.74958 0.42536 -0.00829
 C400 C 0.74118 0.45019 -0.02032
 C401 C 0.72084 0.45026 -0.04064
 C402 C 0.70873 0.42548 -0.04906
 C403 C 0.76746 0.37450 0.01684
 C404 C 0.78516 0.37448 0.03438
 C405 C 0.68336 0.37478 -0.06692
 C406 C 0.66573 0.37488 -0.08455
 H407 H 0.68520 0.32291 -0.05735
 H408 H 0.70018 0.27979 -0.03608
 H409 H 0.73635 0.27968 -0.00005
 H410 H 0.75776 0.32269 0.01495
 H411 H 0.76547 0.42637 0.00743
 H412 H 0.75053 0.46949 -0.01384
 H413 H 0.71439 0.46960 -0.04993
 H414 H 0.69299 0.42660 -0.06493
 C415 C 0.29578 0.87502 0.54570
 C416 C 0.27844 0.89836 0.54242
 C417 C 0.25761 0.89836 0.52166
 C418 C 0.25422 0.87501 0.50432
 C419 C 0.27159 0.85170 0.50757
 C420 C 0.29242 0.85170 0.52833
 C421 C 0.30951 0.82814 0.53121
 C422 C 0.30612 0.80524 0.51406
 C423 C 0.28578 0.80525 0.49375
 C424 C 0.26865 0.82816 0.49045
 C425 C 0.24055 0.92194 0.51875
 C426 C 0.24394 0.94484 0.53589
 C427 C 0.26427 0.94482 0.55622
 C428 C 0.28139 0.92191 0.55954
 C429 C 0.23285 0.87494 0.48321
 C430 C 0.21514 0.87486 0.46566
 C431 C 0.31705 0.87499 0.56693
 C432 C 0.33469 0.87493 0.58455
 H433 H 0.32563 0.82715 0.54670
 H434 H 0.31937 0.78740 0.51656
 H435 H 0.28323 0.78742 0.48047
 H436 H 0.25313 0.82718 0.47436
 H437 H 0.22445 0.92293 0.50324
 H438 H 0.23070 0.96269 0.53338
 H439 H 0.26681 0.96266 0.56950
 H440 H 0.29691 0.92288 0.57564
   
