data_POSCAR
  _audit_creation_date              2014-09-24
  _audit_creation_method            'ToBaCCo'
  _symmetry_space_group_name_H-M    'P1'
  _symmetry_Int_Tables_number       1
  _symmetry_cell_setting            triclinic
  loop_
  _symmetry_equiv_pos_as_xyz
 x,y,z
_cell_length_a 39.1960
_cell_length_b 39.1288
_cell_length_c 53.3731
_cell_angle_alpha 89.971700
_cell_angle_beta 90.050200
_cell_angle_gamma 120.214500
loop_
  _atom_site_label
  _atom_site_type_symbol
  _atom_site_fract_x
  _atom_site_fract_y
  _atom_site_fract_z
C1 C -0.01869 0.49077 1.25061
 C2 C 0.02144 0.51059 1.25066
 C3 C 0.04448 0.52226 1.27429
 C4 C 0.04454 0.52174 1.22710
 C5 C -0.04179 0.47943 1.22699
 C6 C -0.04174 0.47921 1.27420
 C7 C 0.04197 0.54823 1.29127
 C8 C 0.06450 0.55944 1.31326
 C9 C 0.09010 0.54479 1.31879
 C10 C 0.09219 0.51859 1.30146
 C11 C 0.06991 0.50780 1.27947
 C12 C 0.07126 0.56170 1.22221
 C13 C 0.09337 0.57295 1.20017
 C14 C 0.08955 0.54436 1.18267
 C15 C 0.06302 0.50419 1.18777
 C16 C 0.04071 0.49298 1.20982
 C17 C -0.06863 0.43943 1.22225
 C18 C -0.09092 0.42800 1.20026
 C19 C -0.08720 0.45644 1.18265
 C20 C -0.06049 0.49664 1.18756
 C21 C -0.03798 0.50803 1.20956
 C22 C -0.03866 0.45387 1.29150
 C23 C -0.06114 0.44287 1.31347
 C24 C -0.08711 0.45701 1.31847
 C25 C -0.09010 0.48229 1.30098
 C26 C -0.06782 0.49305 1.27902
 H27 H 0.02277 0.56005 1.28738
 H28 H 0.06171 0.57963 1.32582
 H29 H 0.11128 0.50643 1.30463
 H30 H 0.07227 0.48781 1.26650
 H31 H 0.07472 0.58425 1.23542
 H32 H 0.11365 0.60410 1.19696
 H33 H 0.02058 0.46191 1.21347
 H34 H -0.07208 0.41699 1.23556
 H35 H -0.11131 0.39683 1.19719
 H36 H -0.05695 0.51929 1.17443
 H37 H -0.01778 0.53912 1.21310
 H38 H -0.01907 0.44244 1.28788
 H39 H -0.05818 0.42331 1.32651
 H40 H -0.10991 0.49358 1.30413
 H41 H -0.07069 0.51247 1.26579
 H42 H 0.05943 0.48143 1.17472
 C43 C 0.51059 0.49093 1.24985
 C44 C 0.49049 0.51087 1.24992
 C45 C 0.47873 0.52208 1.27355
 C46 C 0.47912 0.52262 1.22635
 C47 C 0.52194 0.47931 1.22622
 C48 C 0.52232 0.47954 1.27342
 C49 C 0.45364 0.49337 1.29085
 C50 C 0.44241 0.50462 1.31282
 C51 C 0.45607 0.54479 1.31783
 C52 C 0.48111 0.57334 1.30034
 C53 C 0.49210 0.56205 1.27839
 C54 C 0.43916 0.50892 1.22153
 C55 C 0.42770 0.51972 1.19955
 C56 C 0.45609 0.54488 1.18204
 C57 C 0.49626 0.55892 1.18706
 C58 C 0.50767 0.54788 1.20905
 C59 C 0.56190 0.49291 1.22143
 C60 C 0.57331 0.48206 1.19947
 C61 C 0.54491 0.45692 1.18194
 C62 C 0.50476 0.44303 1.18690
 C63 C 0.49338 0.45413 1.20887
 C64 C 0.54740 0.50813 1.29080
 C65 C 0.55843 0.49670 1.31278
 C66 C 0.54458 0.45648 1.31772
 C67 C 0.51960 0.42805 1.30015
 C68 C 0.50881 0.43952 1.27817
 H69 H 0.44257 0.46230 1.28724
 H70 H 0.42304 0.48188 1.32585
 H71 H 0.49205 0.60450 1.30349
 H72 H 0.51131 0.58458 1.26518
 H73 H 0.41676 0.48955 1.23475
 H74 H 0.39656 0.50851 1.19639
 H75 H 0.53874 0.55919 1.21266
 H76 H 0.58431 0.51220 1.23468
 H77 H 0.60445 0.49316 1.19636
 H78 H 0.48213 0.42359 1.17384
 H79 H 0.46233 0.44289 1.21245
 H80 H 0.55855 0.53924 1.28724
 H81 H 0.57776 0.51934 1.32589
 H82 H 0.50854 0.39686 1.30325
 H83 H 0.48960 0.41710 1.26490
 H84 H 0.51887 0.57840 1.17401
 C85 C 0.50959 1.02050 1.25026
 C86 C 0.48927 0.98030 1.25030
 C87 C 0.47777 0.95724 1.27395
 C88 C 0.47745 0.95714 1.22672
 C89 C 0.52141 1.04362 1.22664
 C90 C 0.52111 1.04361 1.27384
 C91 C 0.50626 0.96002 1.29104
 C92 C 0.49480 0.93736 1.31298
 C93 C 0.45450 0.91145 1.31830
 C94 C 0.42617 0.90901 1.30096
 C95 C 0.43775 0.93142 1.27900
 C96 C 0.49078 0.93060 1.22194
 C97 C 0.47994 0.90835 1.19993
 C98 C 0.45511 0.91183 1.18234
 C99 C 0.44143 0.93821 1.18731
 C100 C 0.45251 0.96067 1.20933
 C101 C 0.50754 1.06962 1.22159
 C102 C 0.51850 1.09200 1.19963
 C103 C 0.54420 1.08936 1.18227
 C104 C 0.55829 1.06329 1.18759
 C105 C 0.54695 1.04065 1.20955
 C106 C 0.49262 1.04089 1.29087
 C107 C 0.50410 1.06350 1.31283
 C108 C 0.54442 1.08928 1.31820
 C109 C 0.57274 1.09168 1.30090
 C110 C 0.56114 1.06932 1.27894
 H111 H 0.53737 0.97948 1.28726
 H112 H 0.51762 0.94020 1.32571
 H113 H 0.39489 0.88953 1.30413
 H114 H 0.41538 0.92881 1.26594
 H115 H 0.50989 0.92737 1.23522
 H116 H 0.49086 0.88821 1.19681
 H117 H 0.44149 0.98063 1.21290
 H118 H 0.48791 1.07237 1.23465
 H119 H 0.50695 1.11162 1.19645
 H120 H 0.57812 1.06029 1.17485
 H121 H 0.55832 1.02102 1.21332
 H122 H 0.46150 1.02149 1.28705
 H123 H 0.48129 1.06070 1.32552
 H124 H 0.60403 1.11107 1.30413
 H125 H 0.58350 1.07186 1.26592
 H126 H 0.42222 0.94155 1.17420
 C127 C 1.02128 0.51026 0.74986
 C128 C 0.98115 0.49012 0.74996
 C129 C 0.95795 0.47871 0.72639
 C130 C 0.95818 0.47846 0.77362
 C131 C 1.04448 0.52206 0.77341
 C132 C 1.04425 0.52167 0.72621
 C133 C 0.96139 0.50731 0.70910
 C134 C 0.93876 0.49589 0.68716
 C135 C 0.91230 0.45566 0.68218
 C136 C 0.90896 0.42722 0.69966
 C137 C 0.93138 0.43868 0.72159
 C138 C 0.93179 0.49193 0.77844
 C139 C 0.90952 0.48104 0.80043
 C140 C 0.91282 0.45599 0.81796
 C141 C 0.93911 0.44224 0.81298
 C142 C 0.96159 0.45338 0.79098
 C143 C 1.07021 0.50789 0.77845
 C144 C 1.09251 0.51870 0.80043
 C145 C 1.09004 0.54453 0.81780
 C146 C 1.06429 0.55897 0.81247
 C147 C 1.04174 0.54779 0.79049
 C148 C 1.04121 0.49308 0.70909
 C149 C 1.06370 0.50450 0.68710
 C150 C 1.08970 0.54485 0.68177
 C151 C 1.09242 0.57326 0.69916
 C152 C 1.07019 0.56174 0.72116
 H153 H 0.98136 0.53843 0.71270
 H154 H 0.94200 0.51855 0.67413
 H155 H 0.88877 0.39602 0.69652
 H156 H 0.92822 0.41624 0.73481
 H157 H 0.92863 0.51114 0.76519
 H158 H 0.88947 0.49204 0.80355
 H159 H 0.98143 0.44223 0.78739
 H160 H 1.07276 0.48810 0.76539
 H161 H 1.11189 0.50689 0.80362
 H162 H 1.06145 0.57891 0.82521
 H163 H 1.02232 0.55939 0.78671
 H164 H 1.02163 0.46194 0.71287
 H165 H 1.06064 0.48161 0.67434
 H166 H 1.11198 0.60458 0.69598
 H167 H 1.07299 0.58418 0.73424
 H168 H 0.94232 0.42287 0.82604
 C169 C 0.48949 0.50950 0.74991
 C170 C 0.50943 0.48940 0.74999
 C171 C 0.52072 0.47759 0.72643
 C172 C 0.52114 0.47810 0.77364
 C173 C 0.47782 0.52093 0.77347
 C174 C 0.47819 0.52120 0.72626
 C175 C 0.49212 0.45242 0.70910
 C176 C 0.50345 0.44130 0.68712
 C177 C 0.54359 0.45516 0.68216
 C178 C 0.57202 0.48022 0.69969
 C179 C 0.56065 0.49110 0.72165
 C180 C 0.50766 0.43810 0.77847
 C181 C 0.51861 0.42673 0.80044
 C182 C 0.54373 0.45523 0.81793
 C183 C 0.55751 0.49542 0.81293
 C184 C 0.54631 0.50675 0.79096
 C185 C 0.49141 0.56096 0.77822
 C186 C 0.48063 0.57245 0.80017
 C187 C 0.45560 0.54404 0.81772
 C188 C 0.44169 0.50381 0.81279
 C189 C 0.45270 0.49236 0.79082
 C190 C 0.50676 0.54629 0.70890
 C191 C 0.49541 0.55746 0.68692
 C192 C 0.45529 0.54374 0.68196
 C193 C 0.42688 0.51870 0.69950
 C194 C 0.43826 0.50778 0.72146
 H195 H 0.46108 0.44126 0.71267
 H196 H 0.48080 0.42191 0.67405
 H197 H 0.60314 0.49128 0.69657
 H198 H 0.58308 0.51038 0.73490
 H199 H 0.48839 0.41561 0.76525
 H200 H 0.50759 0.39556 0.80358
 H201 H 0.55746 0.53785 0.78735
 H202 H 0.51066 0.58337 0.76496
 H203 H 0.49174 0.60365 0.80327
 H204 H 0.42231 0.48118 0.82587
 H205 H 0.44148 0.46124 0.78727
 H206 H 0.53780 0.55740 0.71248
 H207 H 0.51805 0.57683 0.67385
 H208 H 0.39576 0.50773 0.69639
 H209 H 0.41583 0.48857 0.73472
 H210 H 0.57694 0.51812 0.82597
 C211 C 0.48902 -0.02144 0.74986
 C212 C 0.50918 0.01875 0.74997
 C213 C 0.52099 0.04195 0.72642
 C214 C 0.52057 0.04175 0.77364
 C215 C 0.47762 -0.04465 0.77340
 C216 C 0.47729 -0.04443 0.72622
 C217 C 0.54611 0.03860 0.70913
 C218 C 0.55718 0.06107 0.68713
 C219 C 0.54332 0.08728 0.68208
 C220 C 0.51831 0.09059 0.69957
 C221 C 0.50748 0.06832 0.72157
 C222 C 0.56054 0.06825 0.77852
 C223 C 0.57199 0.09046 0.80055
 C224 C 0.54360 0.08699 0.81805
 C225 C 0.50343 0.06061 0.81299
 C226 C 0.49202 0.03818 0.79095
 C227 C 0.43762 -0.07050 0.77845
 C228 C 0.42611 -0.09279 0.80044
 C229 C 0.45450 -0.09017 0.81779
 C230 C 0.49479 -0.06431 0.81243
 C231 C 0.50618 -0.04177 0.79045
 C232 C 0.45164 -0.04152 0.70915
 C233 C 0.44046 -0.06398 0.68712
 C234 C 0.45480 -0.08980 0.68172
 C235 C 0.48059 -0.09239 0.69906
 C236 C 0.49140 -0.07020 0.72109
 H237 H 0.55727 0.01876 0.71277
 H238 H 0.57654 0.05787 0.67409
 H239 H 0.50725 0.11061 0.69638
 H240 H 0.48823 0.07141 0.73478
 H241 H 0.58294 0.07151 0.76530
 H242 H 0.60314 0.11059 0.80374
 H243 H 0.46095 0.01826 0.78730
 H244 H 0.41521 -0.07315 0.76541
 H245 H 0.39484 -0.11227 0.80365
 H246 H 0.51765 -0.06136 0.82516
 H247 H 0.53727 -0.02225 0.78665
 H248 H 0.44010 -0.02207 0.71298
 H249 H 0.42056 -0.06103 0.67440
 H250 H 0.49234 -0.11183 0.69582
 H251 H 0.51112 -0.07289 0.73413
 H252 H 0.48081 0.05727 0.82603
 O253 O 0.39058 0.66917 0.97082
 O254 O 0.39242 0.73576 0.97874
 C255 C 0.36746 0.74011 0.96595
 O256 O 0.33086 0.72190 0.97071
 O257 O 0.26426 0.65698 0.97872
 C258 C 0.25978 0.62754 0.96596
 O259 O 0.27784 0.60908 0.97076
 O260 O 0.34252 0.60747 0.97881
 C261 C 0.37203 0.63249 0.96608
 O262 O 0.39252 0.65775 1.02068
 O263 O 0.39052 0.72238 1.02859
 C264 C 0.37191 0.74029 1.03333
 O265 O 0.34241 0.73555 1.02055
 O266 O 0.27779 0.66866 1.02855
 C267 C 0.25980 0.63201 1.03335
 O268 O 0.26437 0.60711 1.02062
 O269 O 0.33102 0.60937 1.02863
 C270 C 0.36763 0.62813 1.03340
 Cr271 Cr 0.38942 0.69521 0.99971
 Cr272 Cr 0.30488 0.69474 0.99964
 Cr273 Cr 0.30497 0.61035 0.99971
 O274 O 0.33309 0.66676 0.99969
 O275 O 0.60962 0.33079 0.97133
 O276 O 0.60745 0.26407 0.97941
 C277 C 0.63224 0.25929 0.96676
 O278 O 0.66884 0.27729 0.97156
 O279 O 0.73564 0.34217 0.97927
 C280 C 0.74048 0.37179 0.96653
 O281 O 0.72267 0.39051 0.97129
 O282 O 0.65807 0.39244 0.97904
 C283 C 0.62837 0.36743 0.96642
 O284 O 0.60789 0.34248 1.02116
 O285 O 0.60958 0.27772 1.02927
 C286 C 0.62810 0.25976 1.03418
 O287 O 0.65757 0.26432 1.02149
 O288 O 0.72251 0.33114 1.02918
 C289 C 0.74057 0.36782 1.03393
 O290 O 0.73594 0.39269 1.02120
 O291 O 0.66946 0.39085 1.02896
 C292 C 0.63286 0.37221 1.03378
 Cr293 Cr 0.61075 0.30482 1.00029
 Cr294 Cr 0.69509 0.30479 1.00037
 Cr295 Cr 0.69547 0.38950 1.00013
 O296 O 0.66711 0.33304 1.00026
 O297 O 0.66838 0.39040 0.52894
 O298 O 0.73497 0.39249 0.52113
 C299 C 0.73950 0.36750 0.53379
 O300 O 0.72142 0.33085 0.52893
 O301 O 0.65667 0.26411 0.52072
 C302 C 0.62713 0.25936 0.53340
 O303 O 0.60862 0.27738 0.52865
 O304 O 0.60687 0.34216 0.52082
 C305 C 0.63175 0.37170 0.53362
 O306 O 0.65722 0.39263 0.47908
 O307 O 0.72189 0.39091 0.47125
 C308 C 0.73989 0.37238 0.46650
 O309 O 0.73510 0.34273 0.47915
 O310 O 0.66845 0.27795 0.47091
 C311 C 0.63186 0.25985 0.46605
 O312 O 0.60692 0.26428 0.47878
 O313 O 0.60903 0.33102 0.47096
 C314 C 0.62770 0.36772 0.46628
 Cr315 Cr 0.69456 0.38951 0.50009
 Cr316 Cr 0.69436 0.30495 0.49993
 Cr317 Cr 0.60996 0.30477 0.49981
 O318 O 0.66629 0.33308 0.49995
 O319 O 0.33052 0.60941 0.52876
 O320 O 0.26389 0.60732 0.52086
 C321 C 0.25943 0.63227 0.53361
 O322 O 0.27745 0.66892 0.52878
 O323 O 0.34216 0.73578 0.52071
 C324 C 0.37163 0.74041 0.53348
 O325 O 0.39016 0.72244 0.52869
 O326 O 0.39203 0.65776 0.52080
 C327 C 0.36714 0.62813 0.53352
 O328 O 0.34184 0.60747 0.47888
 O329 O 0.27720 0.60923 0.47096
 C330 C 0.25921 0.62776 0.46616
 O331 O 0.26381 0.65726 0.47891
 O332 O 0.33049 0.72216 0.47085
 C333 C 0.36709 0.74029 0.46604
 O334 O 0.39202 0.73582 0.47879
 O335 O 0.39003 0.66913 0.47092
 C336 C 0.37140 0.63246 0.46615
 Cr337 Cr 0.30441 0.61046 0.49986
 Cr338 Cr 0.30452 0.69498 0.49981
 Cr339 Cr 0.38896 0.69524 0.49980
 O340 O 0.33264 0.66689 0.49982
 C341 C 0.42150 0.58035 0.38264
 N342 N 0.44981 0.60741 0.36732
 N343 N 0.46085 0.59602 0.34688
 C344 C 0.44410 0.55710 0.34091
 N345 N 0.41586 0.52999 0.35636
 N346 N 0.40472 0.54139 0.37682
 C347 C 0.40891 0.59338 0.40481
 N348 N 0.37871 0.56703 0.41943
 N349 N 0.36688 0.57932 0.43913
 C350 C 0.38489 0.61840 0.44494
 N351 N 0.41517 0.64465 0.43037
 N352 N 0.42693 0.63238 0.41068
 C353 C 0.41917 0.84221 0.38208
 N354 N 0.39218 0.84169 0.36593
 N355 N 0.40366 0.86413 0.34544
 C356 C 0.44261 0.88817 0.34021
 N357 N 0.46960 0.88877 0.35654
 N358 N 0.45812 0.86618 0.37703
 C359 C 0.40610 0.81665 0.40435
 N360 N 0.43249 0.81382 0.41946
 N361 N 0.42020 0.78975 0.43926
 C362 C 0.38110 0.76778 0.44470
 N363 N 0.35482 0.77081 0.42965
 N364 N 0.36708 0.79473 0.40984
 C365 C 0.15785 0.57805 0.38202
 N366 N 0.13395 0.59297 0.37695
 N367 N 0.11159 0.58194 0.35638
 C368 C 0.11231 0.55569 0.33994
 N369 N 0.13632 0.54086 0.34525
 N370 N 0.15853 0.55173 0.36582
 C371 C 0.18318 0.59046 0.40438
 N372 N 0.20493 0.57329 0.40990
 N373 N 0.22873 0.58492 0.42975
 C374 C 0.23178 0.61426 0.44483
 N375 N 0.20996 0.63144 0.43936
 N376 N 0.18602 0.61968 0.41951
 C377 C 0.57834 0.42042 0.38268
 N378 N 0.59531 0.45941 0.37692
 N379 N 0.58443 0.47097 0.35641
 C380 C 0.55627 0.44399 0.34085
 N381 N 0.53932 0.40503 0.34676
 N382 N 0.55009 0.39348 0.36726
 C383 C 0.59068 0.40723 0.40489
 N384 N 0.57253 0.36819 0.41069
 N385 N 0.58412 0.35578 0.43041
 C386 C 0.61435 0.38192 0.44507
 N387 N 0.63248 0.42102 0.43934
 N388 N 0.62082 0.43347 0.41961
 C389 C 0.57979 0.15822 0.38205
 N390 N 0.54083 0.13437 0.37694
 N391 N 0.52934 0.11187 0.35643
 C392 C 0.55632 0.11245 0.34013
 N393 N 0.59528 0.13637 0.34542
 N394 N 0.60677 0.15872 0.36595
 C395 C 0.59286 0.18368 0.40434
 N396 N 0.63188 0.20553 0.40988
 N397 N 0.64415 0.22940 0.42971
 C398 C 0.61786 0.23244 0.44472
 N399 N 0.57877 0.21053 0.43923
 N400 N 0.56648 0.18651 0.41941
 C401 C 0.84269 0.42285 0.38326
 N402 N 0.86451 0.40585 0.37747
 N403 N 0.88708 0.41688 0.35702
 C404 C 0.88860 0.44523 0.34155
 N405 N 0.86681 0.46222 0.34748
 N406 N 0.84434 0.45129 0.36793
 C407 C 0.81697 0.41028 0.40538
 N408 N 0.79617 0.42833 0.41121
 N409 N 0.77198 0.41648 0.43085
 C410 C 0.76763 0.38607 0.44539
 N411 N 0.78852 0.36804 0.43963
 N412 N 0.81281 0.37997 0.41998
 C413 C 0.58074 0.42256 1.11716
 N414 N 0.60768 0.45097 1.13251
 N415 N 0.59621 0.46195 1.15294
 C416 C 0.55733 0.44505 1.15886
 N417 N 0.53035 0.41672 1.14338
 N418 N 0.54183 0.40564 1.12294
 C419 C 0.59382 0.40997 1.09501
 N420 N 0.56754 0.37965 1.08041
 N421 N 0.57985 0.36777 1.06074
 C422 C 0.61885 0.38584 1.05494
 N423 N 0.64504 0.41626 1.06948
 N424 N 0.63276 0.42807 1.08915
 C425 C 0.84280 0.42047 1.11765
 N426 N 0.84395 0.39351 1.13307
 N427 N 0.86633 0.40503 1.15358
 C428 C 0.88855 0.44398 1.15950
 N429 N 0.88753 0.47098 1.14394
 N430 N 0.86504 0.45945 1.12343
 C431 C 0.81721 0.40729 1.09541
 N432 N 0.81339 0.43353 1.08072
 N433 N 0.78926 0.42111 1.06096
 C434 C 0.76818 0.38201 1.05518
 N435 N 0.77219 0.35587 1.06981
 N436 N 0.79622 0.36827 1.08956
 C437 C 0.57825 0.15832 1.11837
 N438 N 0.59305 0.13428 1.12344
 N439 N 0.58190 0.11179 1.14397
 C440 C 0.55566 0.11255 1.16033
 N441 N 0.54095 0.13667 1.15507
 N442 N 0.55194 0.15901 1.13454
 C443 C 0.59075 0.18375 1.09604
 N444 N 0.57367 0.20559 1.09048
 N445 N 0.58534 0.22940 1.07062
 C446 C 0.61462 0.23239 1.05557
 N447 N 0.63171 0.21049 1.06108
 N448 N 0.61993 0.18653 1.08093
 C449 C 0.42012 0.57868 1.11706
 N450 N 0.45903 0.59577 1.12289
 N451 N 0.47056 0.58488 1.14341
 C452 C 0.44363 0.55659 1.15891
 N453 N 0.40475 0.53951 1.15293
 N454 N 0.39323 0.55030 1.13242
 C455 C 0.40697 0.59103 1.09484
 N456 N 0.36802 0.57278 1.08896
 N457 N 0.35565 0.58439 1.06922
 C458 C 0.38176 0.61474 1.05463
 N459 N 0.42078 0.63298 1.06044
 N460 N 0.43317 0.62129 1.08019
 C461 C 0.15856 0.57982 1.11736
 N462 N 0.15751 0.60688 1.13271
 N463 N 0.13545 0.59552 1.15333
 C464 C 0.11347 0.55663 1.15944
 N465 N 0.11439 0.52951 1.14396
 N466 N 0.13656 0.54089 1.12333
 C467 C 0.18381 0.59283 1.09502
 N468 N 0.18757 0.56652 1.08039
 N469 N 0.21148 0.57884 1.06055
 C470 C 0.23237 0.61789 1.05463
 N471 N 0.22841 0.64409 1.06920
 N472 N 0.20460 0.63180 1.08902
 C473 C 0.42134 0.84218 1.11720
 N474 N 0.44946 0.84348 1.13264
 N475 N 0.46024 0.86574 1.15320
 C476 C 0.44340 0.88769 1.15916
 N477 N 0.41535 0.88651 1.14359
 N478 N 0.40447 0.86414 1.12302
 C479 C 0.40900 0.81672 1.09491
 N480 N 0.37893 0.81276 1.08019
 N481 N 0.36726 0.78871 1.06040
 C482 C 0.38532 0.76785 1.05459
 N483 N 0.41549 0.77200 1.06925
 N484 N 0.42708 0.79595 1.08904
 C485 C 0.57937 0.42118 0.61723
 N486 N 0.54046 0.40421 0.62302
 N487 N 0.52899 0.41516 0.64352
 C488 C 0.55598 0.44338 0.65904
 N489 N 0.59485 0.46033 0.65311
 N490 N 0.60631 0.44949 0.63262
 C491 C 0.59247 0.40879 0.59502
 N492 N 0.63142 0.42696 0.58920
 N493 N 0.64376 0.41534 0.56948
 C494 C 0.61763 0.38507 0.55484
 N495 N 0.57860 0.36691 0.56059
 N496 N 0.56623 0.37860 0.58032
 C497 C 0.57719 0.15704 0.61701
 N498 N 0.59412 0.13516 0.62289
 N499 N 0.58320 0.11274 0.64344
 C500 C 0.55504 0.11145 0.65892
 N501 N 0.53813 0.13331 0.65289
 N502 N 0.54895 0.15562 0.63235
 C503 C 0.58962 0.18258 0.59477
 N504 N 0.57157 0.20337 0.58886
 N505 N 0.58329 0.22744 0.56913
 C506 C 0.61356 0.23167 0.55458
 N507 N 0.63158 0.21078 0.56042
 N508 N 0.61979 0.18661 0.58016
 C509 C 0.84189 0.41974 0.61738
 N510 N 0.84320 0.39276 0.63271
 N511 N 0.86571 0.40426 0.65316
 C512 C 0.88790 0.44320 0.65911
 N513 N 0.88672 0.47022 0.64365
 N514 N 0.86410 0.45871 0.62319
 C515 C 0.81620 0.40663 0.59521
 N516 N 0.81237 0.43294 0.58060
 N517 N 0.78819 0.42061 0.56088
 C518 C 0.76706 0.38154 0.55504
 N519 N 0.77107 0.35532 0.56959
 N520 N 0.79516 0.36763 0.58931
 C521 C 0.41948 0.57817 0.61711
 N522 N 0.45840 0.59501 0.62290
 N523 N 0.46988 0.58392 0.64336
 C524 C 0.44289 0.55566 0.65886
 N525 N 0.40401 0.53884 0.65293
 N526 N 0.39254 0.54983 0.63248
 C527 C 0.40638 0.59071 0.59492
 N528 N 0.36743 0.57261 0.58907
 N529 N 0.35510 0.58434 0.56936
 C530 C 0.38125 0.61466 0.55476
 N531 N 0.42027 0.63275 0.56055
 N532 N 0.43263 0.62095 0.58027
 C533 C 0.42122 0.84177 0.61763
 N534 N 0.40619 0.86557 0.62277
 N535 N 0.41719 0.88791 0.64336
 C536 C 0.44351 0.88720 0.65971
 N537 N 0.45847 0.86333 0.65439
 N538 N 0.44762 0.84115 0.63379
 C539 C 0.40884 0.81645 0.59527
 N540 N 0.42607 0.79477 0.58972
 N541 N 0.41446 0.77097 0.56986
 C542 C 0.38509 0.76786 0.55481
 N543 N 0.36786 0.78961 0.56030
 N544 N 0.37959 0.81356 0.58016
 C545 C 0.15827 0.58011 0.61780
 N546 N 0.13429 0.54110 0.62286
 N547 N 0.11192 0.52964 0.64342
 C548 C 0.11275 0.55670 0.65980
 N549 N 0.13681 0.59571 0.65455
 N550 N 0.15903 0.60717 0.63399
 C551 C 0.18359 0.59318 0.59545
 N552 N 0.20542 0.63227 0.58992
 N553 N 0.22916 0.64454 0.57006
 C554 C 0.23209 0.61821 0.55498
 N555 N 0.21019 0.57905 0.56045
 N556 N 0.18631 0.56675 0.58031
 C557 C 0.42174 0.58009 0.88259
 N558 N 0.40482 0.54110 0.87684
 N559 N 0.41574 0.52955 0.85636
 C560 C 0.44388 0.55654 0.84082
 N561 N 0.46078 0.59550 0.84671
 N562 N 0.44997 0.60705 0.86717
 C563 C 0.40933 0.59324 0.90476
 N564 N 0.42738 0.63227 0.91057
 N565 N 0.41571 0.64462 0.93027
 C566 C 0.38550 0.61841 0.94490
 N567 N 0.36748 0.57932 0.93916
 N568 N 0.37922 0.56694 0.91945
 C569 C 0.15853 0.57795 0.88182
 N570 N 0.13476 0.59303 0.87674
 N571 N 0.11242 0.58208 0.85616
 C572 C 0.11308 0.55577 0.83978
 N573 N 0.13692 0.54077 0.84505
 N574 N 0.15911 0.55157 0.86563
 C575 C 0.18383 0.59030 0.90417
 N576 N 0.20557 0.57311 0.90968
 N577 N 0.22935 0.58472 0.92955
 C578 C 0.23238 0.61404 0.94463
 N579 N 0.21057 0.63123 0.93917
 N580 N 0.18665 0.61951 0.91931
 C581 C 0.41937 0.84140 0.88184
 N582 N 0.39233 0.84068 0.86566
 N583 N 0.40375 0.86286 0.84507
 C584 C 0.44269 0.88682 0.83978
 N585 N 0.46973 0.88761 0.85614
 N586 N 0.45831 0.86528 0.87673
 C587 C 0.40637 0.81610 0.90418
 N588 N 0.43279 0.81340 0.91932
 N589 N 0.42053 0.78946 0.93918
 C590 C 0.38144 0.76752 0.94463
 N591 N 0.35512 0.77043 0.92955
 N592 N 0.36735 0.79423 0.90969
 C593 C 0.57827 0.41950 0.88277
 N594 N 0.59513 0.45846 0.87693
 N595 N 0.58400 0.46991 0.85647
 C596 C 0.55569 0.44284 0.84102
 N597 N 0.53886 0.40392 0.84700
 N598 N 0.54988 0.39248 0.86745
 C599 C 0.59086 0.40645 0.90496
 N600 N 0.57274 0.36746 0.91089
 N601 N 0.58450 0.35519 0.93062
 C602 C 0.61487 0.38144 0.94516
 N603 N 0.63297 0.42050 0.93928
 N604 N 0.62114 0.43279 0.91954
 C605 C 0.84268 0.42164 0.88286
 N606 N 0.84415 0.44997 0.86749
 N607 N 0.86657 0.46093 0.84702
 C608 C 0.88852 0.44410 0.84108
 N609 N 0.88718 0.41585 0.85658
 N610 N 0.86464 0.40479 0.87706
 C611 C 0.81706 0.40913 0.90507
 N612 N 0.81298 0.37890 0.91974
 N613 N 0.78886 0.36713 0.93947
 C614 C 0.76804 0.38524 0.94528
 N615 N 0.77230 0.41554 0.93067
 N616 N 0.79632 0.42724 0.91094
 C617 C 0.57958 0.15689 0.88311
 N618 N 0.54067 0.13488 0.87721
 N619 N 0.52914 0.11241 0.85668
 C620 C 0.55607 0.11119 0.84123
 N621 N 0.59494 0.13317 0.84726
 N622 N 0.60646 0.15553 0.86778
 C623 C 0.59275 0.18248 0.90535
 N624 N 0.63168 0.20332 0.91129
 N625 N 0.64408 0.22739 0.93103
 C626 C 0.61803 0.23160 0.94556
 N627 N 0.57902 0.21066 0.93968
 N628 N 0.56660 0.18649 0.91994
   
