data_POSCAR
  _audit_creation_date              2014-09-24
  _audit_creation_method            'ToBaCCo'
  _symmetry_space_group_name_H-M    'P1'
  _symmetry_Int_Tables_number       1
  _symmetry_cell_setting            triclinic
  loop_
  _symmetry_equiv_pos_as_xyz
 x,y,z
_cell_length_a 31.5315
_cell_length_b 28.9418
_cell_length_c 6.9768
_cell_angle_alpha 89.873100
_cell_angle_beta 90.250500
_cell_angle_gamma 90.140200
loop_
  _atom_site_label
  _atom_site_type_symbol
  _atom_site_fract_x
  _atom_site_fract_y
  _atom_site_fract_z
C1 C 0.13690 0.24976 0.22013
 C2 C 0.15831 0.20844 0.25789
 C3 C 0.20262 0.20896 0.27693
 C4 C 0.22603 0.25007 0.24566
 C5 C 0.20345 0.29106 0.20391
 C6 C 0.15909 0.29111 0.19588
 C7 C 0.27363 0.25010 0.25276
 C8 C 0.29629 0.29108 0.29515
 C9 C 0.34064 0.29121 0.30327
 C10 C 0.36274 0.24999 0.27833
 C11 C 0.34126 0.20867 0.24013
 C12 C 0.29695 0.20910 0.22108
 H13 H 0.10266 0.24959 0.20425
 H14 H 0.21853 0.17710 0.31291
 H15 H 0.21997 0.32284 0.17156
 H16 H 0.27984 0.32275 0.32796
 H17 H 0.39699 0.24989 0.29420
 H18 H 0.28098 0.17724 0.18478
 C19 C 0.86238 0.25072 0.21985
 C20 C 0.84034 0.29205 0.19506
 C21 C 0.79598 0.29203 0.20343
 C22 C 0.77332 0.25102 0.24563
 C23 C 0.79664 0.20995 0.27706
 C24 C 0.84083 0.20957 0.25819
 C25 C 0.72575 0.25100 0.25310
 C26 C 0.70226 0.20993 0.22190
 C27 C 0.65800 0.20939 0.24152
 C28 C 0.63671 0.25066 0.27990
 C29 C 0.65898 0.29194 0.30438
 C30 C 0.70331 0.29193 0.29555
 H31 H 0.89658 0.25035 0.20413
 H32 H 0.77952 0.32380 0.17106
 H33 H 0.78088 0.17795 0.31298
 H34 H 0.71807 0.17811 0.18553
 H35 H 0.60251 0.25047 0.29622
 H36 H 0.71993 0.32366 0.32785
 C37 C 0.63764 0.75188 0.72469
 C38 C 0.65926 0.71083 0.76286
 C39 C 0.70351 0.71139 0.78053
 C40 C 0.72678 0.75252 0.74795
 C41 C 0.70405 0.79343 0.70619
 C42 C 0.65966 0.79329 0.69898
 C43 C 0.77437 0.75256 0.75329
 C44 C 0.79717 0.79348 0.79536
 C45 C 0.84163 0.79355 0.80247
 C46 C 0.86350 0.75208 0.77686
 C47 C 0.84176 0.71104 0.73850
 C48 C 0.79753 0.71154 0.72058
 H49 H 0.60340 0.75135 0.70962
 H50 H 0.71936 0.67946 0.81614
 H51 H 0.72048 0.82523 0.67304
 H52 H 0.78060 0.82504 0.82890
 H53 H 0.89775 0.75140 0.79202
 H54 H 0.78160 0.67963 0.68476
 C55 C 0.36246 0.75087 0.72175
 C56 C 0.34037 0.79215 0.69629
 C57 C 0.29600 0.79205 0.70408
 C58 C 0.27339 0.75102 0.74640
 C59 C 0.29675 0.71003 0.77874
 C60 C 0.34095 0.70971 0.76036
 C61 C 0.22582 0.75087 0.75302
 C62 C 0.20246 0.70973 0.72168
 C63 C 0.15821 0.70903 0.74097
 C64 C 0.13677 0.75024 0.77905
 C65 C 0.15891 0.79162 0.80326
 C66 C 0.20324 0.79175 0.79486
 H67 H 0.39667 0.75054 0.70633
 H68 H 0.27950 0.82376 0.67112
 H69 H 0.28102 0.67803 0.81487
 H70 H 0.21839 0.67796 0.68560
 H71 H 0.10257 0.74993 0.79521
 H72 H 0.21977 0.82354 0.82711
 O73 O 0.95861 -0.02995 -0.13886
 O74 O 1.04085 0.05350 -0.00115
 O75 O 1.04131 -0.02984 -0.13775
 O76 O 0.95930 0.05327 -0.00121
 O77 O 0.95878 0.02725 0.29670
 O78 O 1.04119 -0.05659 0.15908
 O79 O 1.04168 0.02764 0.29700
 O80 O 0.95919 -0.05681 0.15782
 Cu81 Cu 1.00001 0.01464 -0.09850
 Cu82 Cu 1.00024 -0.01761 0.25686
 C83 C 0.94533 -0.05810 -0.01297
 C84 C 1.05471 0.05551 0.16921
 C85 C 1.05476 -0.05790 -0.01159
 C86 C 0.94560 0.05510 0.16892
 O87 O 0.45869 0.47006 0.36439
 O88 O 0.54080 0.55362 0.50268
 O89 O 0.54141 0.47037 0.36525
 O90 O 0.45929 0.55331 0.50173
 O91 O 0.45879 0.52730 0.79966
 O92 O 0.54122 0.44348 0.66187
 O93 O 0.54166 0.52760 0.80061
 O94 O 0.45921 0.44320 0.66107
 Cu95 Cu 0.50004 0.51472 0.40473
 Cu96 Cu 0.50024 0.48240 0.76001
 C97 C 0.44539 0.44191 0.49023
 C98 C 0.55466 0.55555 0.67309
 C99 C 0.55485 0.44228 0.49126
 C100 C 0.44561 0.55515 0.67189
 O101 O 0.04182 0.52804 -0.29827
 O102 O -0.04087 0.44391 -0.16008
 O103 O -0.04105 0.52808 -0.29960
 O104 O 0.04116 0.44372 -0.15958
 O105 O 0.04171 0.47018 0.13720
 O106 O -0.04008 0.55383 -0.00176
 O107 O -0.04104 0.47052 0.13647
 O108 O 0.04145 0.55364 -0.00023
 Cu109 Cu 0.00026 0.48295 -0.25850
 Cu110 Cu 0.00055 0.51491 0.09663
 C111 C 0.05508 0.55578 -0.17043
 C112 C -0.05457 0.44255 0.01042
 C113 C -0.05396 0.55590 -0.17213
 C114 C 0.05492 0.44218 0.01132
 O115 O 0.45891 1.05436 0.49894
 O116 O 0.54117 0.97131 0.63797
 O117 O 0.54048 1.05462 0.49973
 O118 O 0.45843 0.97103 0.63686
 O119 O 0.45865 0.94441 0.34033
 O120 O 0.54103 1.02885 0.20193
 O121 O 0.54067 0.94468 0.34143
 O122 O 0.45810 1.02862 0.20107
 Cu123 Cu 0.49975 1.01571 0.59707
 Cu124 Cu 0.49960 0.98367 0.24204
 C125 C 0.44502 1.05634 0.32858
 C126 C 0.55450 0.94335 0.51227
 C127 C 0.55420 1.05666 0.32964
 C128 C 0.44500 0.94297 0.51090
 C129 C 1.12623 0.10167 0.10214
 C130 C 1.11238 0.15212 0.06781
 C131 C 1.13473 0.16638 0.25515
 C132 C 1.14902 0.11614 0.29022
 C133 C 1.09378 0.15792 0.36947
 C134 C 1.07132 0.14359 0.18149
 C135 C 1.08520 0.09333 0.21546
 C136 C 1.10740 0.10703 0.40381
 H137 H 1.13932 0.07817 -0.00827
 H138 H 1.11440 0.17075 -0.07124
 H139 H 1.18105 0.10453 0.33560
 H140 H 1.08056 0.18137 0.47976
 H141 H 1.03920 0.15483 0.13601
 H142 H 1.10501 0.08803 0.54176
 C143 C 0.60734 0.60686 0.90830
 C144 C 0.64887 0.61619 0.79450
 C145 C 0.63454 0.66645 0.76089
 C146 C 0.59364 0.65775 0.87517
 C147 C 0.61211 0.65240 0.57349
 C148 C 0.62605 0.60194 0.60634
 C149 C 0.58508 0.59338 0.71981
 C150 C 0.57111 0.64365 0.68716
 H151 H 0.60504 0.58766 1.04581
 H152 H 0.68104 0.60488 0.83926
 H153 H 0.58049 0.68108 0.98605
 H154 H 0.61410 0.67129 0.43508
 H155 H 0.63913 0.57863 0.49522
 H156 H 0.53897 0.65492 0.64217
 C157 C -0.07077 0.35491 0.07477
 C158 C -0.09521 0.34931 0.26479
 C159 C -0.13489 0.33503 0.14969
 C160 C -0.11061 0.34048 -0.03975
 C161 C -0.14963 0.38569 0.13929
 C162 C -0.10944 0.40037 0.25372
 C163 C -0.08523 0.40551 0.06402
 C164 C -0.12490 0.39155 -0.05113
 H165 H -0.03817 0.34232 0.04762
 H166 H -0.08314 0.33168 0.39551
 H167 H -0.11127 0.31553 -0.16042
 H168 H -0.18223 0.39841 0.16634
 H169 H -0.10863 0.42537 0.37418
 H170 H -0.13677 0.40934 -0.18183
 C171 C 0.39038 0.90058 0.75453
 C172 C 0.35019 0.88577 0.64037
 C173 C 0.36507 0.83516 0.65069
 C174 C 0.40475 0.84956 0.76552
 C175 C 0.38927 0.84067 0.46108
 C176 C 0.37483 0.89170 0.44978
 C177 C 0.41451 0.90579 0.56466
 C178 C 0.42912 0.85524 0.57532
 H179 H 0.39115 0.92558 0.87497
 H180 H 0.31757 0.89839 0.66764
 H181 H 0.41691 0.83197 0.89617
 H182 H 0.38863 0.81572 0.34043
 H183 H 0.36287 0.90945 0.31916
 H184 H 0.46174 0.84276 0.54792
 C185 C -0.12526 0.60201 -0.10526
 C186 C -0.11122 0.65248 -0.07233
 C187 C -0.13364 0.66669 -0.25966
 C188 C -0.14807 0.61643 -0.29335
 C189 C -0.09276 0.65824 -0.37403
 C190 C -0.07024 0.64398 -0.18609
 C191 C -0.08432 0.59370 -0.21881
 C192 C -0.10656 0.60735 -0.40723
 H193 H -0.13838 0.57854 0.00583
 H194 H -0.11315 0.67120 0.06612
 H195 H -0.18026 0.60509 -0.33806
 H196 H -0.07957 0.68173 -0.48488
 H197 H -0.03808 0.65530 -0.14113
 H198 H -0.10432 0.58832 -0.54481
 C199 C 0.39213 1.10766 0.09390
 C200 C 0.35055 1.11640 0.20789
 C201 C 0.36480 1.16671 0.24261
 C202 C 0.40571 1.15861 0.12789
 C203 C 0.38727 1.15244 0.42977
 C204 C 0.37346 1.10192 0.39579
 C205 C 0.41444 1.09395 0.28210
 C206 C 0.42828 1.14427 0.31569
 H207 H 0.39446 1.08878 -0.04399
 H208 H 0.31850 1.10465 0.16293
 H209 H 0.41885 1.18223 0.01735
 H210 H 0.38531 1.17093 0.56879
 H211 H 0.36045 1.07826 0.50644
 H212 H 0.46042 1.15569 0.36071
 C213 C 1.12499 -0.10887 0.04843
 C214 C 1.11048 -0.15995 0.03901
 C215 C 1.13432 -0.16547 -0.15138
 C216 C 1.14928 -0.11479 -0.14294
 C217 C 1.09445 -0.15127 -0.26509
 C218 C 1.07044 -0.14560 -0.07411
 C219 C 1.08513 -0.09498 -0.06532
 C220 C 1.10890 -0.10019 -0.25597
 H221 H 1.13722 -0.09101 0.17813
 H222 H 1.11131 -0.18485 0.16028
 H223 H 1.18186 -0.10205 -0.17180
 H224 H 1.08202 -0.16896 -0.39480
 H225 H 1.03787 -0.15820 -0.04505
 H226 H 1.10794 -0.07525 -0.37704
 C227 C 0.62503 0.39118 0.55146
 C228 C 0.61048 0.34014 0.54046
 C229 C 0.63448 0.33487 0.35038
 C230 C 0.64949 0.38551 0.36039
 C231 C 0.59473 0.34929 0.23630
 C232 C 0.57056 0.35470 0.42696
 C233 C 0.58528 0.40528 0.43732
 C234 C 0.60923 0.40033 0.24698
 H235 H 0.63715 0.40883 0.68186
 H236 H 0.61117 0.31506 0.66111
 H237 H 0.68211 0.39824 0.33247
 H238 H 0.58240 0.33180 0.10590
 H239 H 0.53795 0.34209 0.45504
 H240 H 0.60840 0.42545 0.12654
 C241 C 0.87525 -0.10947 0.04723
 C242 C 0.85032 -0.11512 -0.14372
 C243 C 0.86523 -0.16574 -0.15405
 C244 C 0.88967 -0.16050 0.03593
 C245 C 0.90474 -0.15118 -0.26855
 C246 C 0.89038 -0.10017 -0.25729
 C247 C 0.91477 -0.09523 -0.06711
 C248 C 0.92937 -0.14576 -0.07790
 H249 H 0.86348 -0.09190 0.17781
 H250 H 0.81777 -0.10215 -0.17132
 H251 H 0.88925 -0.18557 0.15663
 H252 H 0.91680 -0.16850 -0.39926
 H253 H 0.89099 -0.07499 -0.37755
 H254 H 0.96203 -0.15827 -0.05023
 C255 C 0.39053 0.39974 0.24567
 C256 C 0.40491 0.34874 0.23503
 C257 C 0.36535 0.33420 0.34912
 C258 C 0.35046 0.38480 0.35909
 C259 C 0.38974 0.33955 0.53919
 C260 C 0.42946 0.35423 0.42569
 C261 C 0.41485 0.40477 0.43600
 C262 C 0.37530 0.39055 0.55015
 H263 H 0.39118 0.42486 0.12522
 H264 H 0.41695 0.33128 0.10463
 H265 H 0.31781 0.39743 0.33116
 H266 H 0.38923 0.31448 0.65986
 H267 H 0.46211 0.34173 0.45374
 H268 H 0.36346 0.40817 0.68052
 C269 C 0.10724 0.60765 -0.40499
 C270 C 0.09358 0.65846 -0.37043
 C271 C 0.13476 0.66689 -0.25627
 C272 C 0.14909 0.61672 -0.29156
 C273 C 0.11285 0.65233 -0.06886
 C274 C 0.07157 0.64383 -0.18239
 C275 C 0.08549 0.59365 -0.21656
 C276 C 0.12673 0.60195 -0.10341
 H277 H 0.10461 0.58880 -0.54298
 H278 H 0.08007 0.68200 -0.48057
 H279 H 0.18105 0.60527 -0.33714
 H280 H 0.11512 0.67080 0.07022
 H281 H 0.03954 0.65495 -0.13664
 H282 H 0.14012 0.57836 0.00686
 C283 C 0.60671 1.10821 0.09546
 C284 C 0.59326 1.15911 0.12937
 C285 C 0.63438 1.16736 0.24418
 C286 C 0.64850 1.11711 0.20956
 C287 C 0.61223 1.15302 0.43131
 C288 C 0.57100 1.14470 0.31713
 C289 C 0.58472 1.09443 0.28360
 C290 C 0.62592 1.10256 0.39741
 H291 H 0.60410 1.08931 -0.04241
 H292 H 0.57995 1.18267 0.01878
 H293 H 0.68045 1.10547 0.16469
 H294 H 0.61447 1.17153 0.57030
 H295 H 0.53895 1.15599 0.36207
 H296 H 0.63909 1.07894 0.50811
 C297 C 0.10947 0.39941 0.25585
 C298 C 0.09490 0.34836 0.26490
 C299 C 0.13449 0.33417 0.15092
 C300 C 0.14956 0.38481 0.14256
 C301 C 0.11024 0.34000 -0.03929
 C302 C 0.07049 0.35434 0.07408
 C303 C 0.08529 0.40493 0.06535
 C304 C 0.12487 0.39105 -0.04865
 H305 H 0.10884 0.42420 0.37700
 H306 H 0.08271 0.33054 0.39464
 H307 H 0.18223 0.39742 0.17125
 H308 H 0.11073 0.31526 -0.16066
 H309 H 0.03782 0.34188 0.04524
 H310 H 0.13686 0.40902 -0.17837
 C311 C 0.57060 0.85575 0.57783
 C312 C 0.61023 0.84137 0.46365
 C313 C 0.63483 0.83613 0.65324
 C314 C 0.59537 0.85035 0.76803
 C315 C 0.64964 0.88683 0.64232
 C316 C 0.62459 0.89248 0.45174
 C317 C 0.58513 0.90639 0.56657
 C318 C 0.60967 0.90146 0.75642
 H319 H 0.53793 0.84304 0.55072
 H320 H 0.61064 0.81635 0.34325
 H321 H 0.58350 0.83277 0.89890
 H322 H 0.68230 0.89968 0.66935
 H323 H 0.63626 0.91022 0.32088
 H324 H 0.60912 0.92653 0.87659
 C325 C 0.92895 0.14306 0.18290
 C326 C 0.88778 0.15152 0.06878
 C327 C 0.86557 0.16534 0.25599
 C328 C 0.90665 0.15693 0.37072
 C329 C 0.85139 0.11496 0.28918
 C330 C 0.87400 0.10094 0.10121
 C331 C 0.91513 0.09267 0.21514
 C332 C 0.89310 0.10592 0.40342
 H333 H 0.96102 0.15458 0.13840
 H334 H 0.88557 0.17044 -0.06956
 H335 H 0.91989 0.18032 0.48187
 H336 H 0.81930 0.10341 0.33347
 H337 H 0.86082 0.07756 -0.01018
 H338 H 0.89562 0.08670 0.54088
 C339 C 0.42903 0.64312 0.68532
 C340 C 0.38783 0.65154 0.57138
 C341 C 0.36570 0.66548 0.75859
 C342 C 0.40680 0.65710 0.87314
 C343 C 0.35149 0.61514 0.79235
 C344 C 0.37402 0.60099 0.60437
 C345 C 0.41518 0.59275 0.71811
 C346 C 0.39322 0.60613 0.90641
 H347 H 0.46108 0.65459 0.64044
 H348 H 0.38559 0.67039 0.43288
 H349 H 0.42010 0.68055 0.98399
 H350 H 0.31941 0.60362 0.83697
 H351 H 0.36079 0.57756 0.49328
 H352 H 0.39577 0.58697 1.04402
   
