data_POSCAR
  _audit_creation_date              2014-09-24
  _audit_creation_method            'ToBaCCo'
  _symmetry_space_group_name_H-M    'P1'
  _symmetry_Int_Tables_number       1
  _symmetry_cell_setting            triclinic
  loop_
  _symmetry_equiv_pos_as_xyz
 x,y,z
_cell_length_a 32.3345
_cell_length_b 32.5939
_cell_length_c 28.2700
_cell_angle_alpha 91.635700
_cell_angle_beta 91.054700
_cell_angle_gamma 89.266900
loop_
  _atom_site_label
  _atom_site_type_symbol
  _atom_site_fract_x
  _atom_site_fract_y
  _atom_site_fract_z
C1 C 1.29234 0.22153 0.27496
 C2 C 1.25953 0.24022 0.25007
 C3 C 1.22551 0.21680 0.23503
 C4 C 1.22334 0.17509 0.24488
 C5 C 1.25582 0.15676 0.27027
 C6 C 1.29111 0.17937 0.28503
 C7 C 1.25743 0.28496 0.24302
 C8 C 1.28615 0.30500 0.21538
 C9 C 1.27873 0.34607 0.20216
 C10 C 1.24282 0.36657 0.21862
 C11 C 1.21489 0.34728 0.24786
 C12 C 1.22245 0.30629 0.25928
 H13 H 1.31833 0.23998 0.28702
 H14 H 1.19998 0.23198 0.21714
 H15 H 1.31212 0.28739 0.20178
 H16 H 1.20044 0.28952 0.27923
 H17 H 1.25234 0.12501 0.27927
 H18 H 1.23660 0.39804 0.20889
 C19 C 0.77045 -0.26883 0.28268
 C20 C 0.74645 -0.25302 0.24571
 C21 C 0.72752 -0.27947 0.21243
 C22 C 0.73318 -0.32206 0.21520
 C23 C 0.75968 -0.33773 0.25046
 C24 C 0.77842 -0.31117 0.28485
 C25 C 0.74411 -0.20864 0.23939
 C26 C 0.77188 -0.19033 0.20938
 C27 C 0.76912 -0.14815 0.20153
 C28 C 0.73828 -0.12444 0.22374
 C29 C 0.71143 -0.14224 0.25539
 C30 C 0.71409 -0.18476 0.26253
 H31 H 0.78493 -0.24773 0.30813
 H32 H 0.70918 -0.26670 0.18381
 H33 H 0.79494 -0.20916 0.19140
 H34 H 0.69252 -0.19962 0.28515
 H35 H 0.76377 -0.37067 0.25208
 H36 H 0.73605 -0.09179 0.21755
 C37 C 0.78744 0.19399 -0.23598
 C38 C 0.75458 0.21637 -0.25573
 C39 C 0.72000 0.19549 -0.27435
 C40 C 0.71834 0.15243 -0.27432
 C41 C 0.75212 0.13030 -0.25528
 C42 C 0.78618 0.15104 -0.23516
 C43 C 0.75678 0.26153 -0.25788
 C44 C 0.79192 0.28000 -0.27596
 C45 C 0.79336 0.32270 -0.28148
 C46 C 0.75926 0.34697 -0.26623
 C47 C 0.72491 0.32891 -0.24595
 C48 C 0.72352 0.28613 -0.24271
 H49 H 0.81414 0.21008 -0.22148
 H50 H 0.69464 0.21288 -0.28987
 H51 H 0.81750 0.26069 -0.28779
 H52 H 0.69659 0.27193 -0.22821
 H53 H 0.75231 0.09711 -0.25570
 H54 H 0.75960 0.38006 -0.26764
 C55 C 1.27267 -0.28216 -0.21624
 C56 C 1.24042 -0.26699 -0.24488
 C57 C 1.21120 -0.29407 -0.26468
 C58 C 1.21410 -0.33629 -0.25673
 C59 C 1.24677 -0.35128 -0.22856
 C60 C 1.27653 -0.32443 -0.20806
 C61 C 1.23512 -0.22248 -0.25160
 C62 C 1.26722 -0.19879 -0.26890
 C63 C 1.26129 -0.15637 -0.27500
 C64 C 1.22351 -0.13789 -0.26271
 C65 C 1.19163 -0.16120 -0.24487
 C66 C 1.19733 -0.20357 -0.24017
 H67 H 1.29462 -0.26085 -0.20011
 H68 H 1.18555 -0.28180 -0.28524
 H69 H 1.29658 -0.21333 -0.27734
 H70 H 1.17263 -0.22184 -0.22668
 H71 H 1.24764 -0.38372 -0.22140
 H72 H 1.21918 -0.10506 -0.26623
 C73 C 0.18937 0.28330 0.73727
 C74 C 0.21572 0.25536 0.75996
 C75 C 0.19984 0.22867 0.79283
 C76 C 0.15735 0.22985 0.80369
 C77 C 0.13145 0.25834 0.78073
 C78 C 0.14694 0.28471 0.74731
 C79 C 0.26060 0.25627 0.75222
 C80 C 0.28517 0.28224 0.78097
 C81 C 0.32828 0.28438 0.77431
 C82 C 0.34560 0.26080 0.73704
 C83 C 0.32142 0.23391 0.70893
 C84 C 0.27878 0.23156 0.71675
 H85 H 0.20227 0.30457 0.71293
 H86 H 0.22119 0.20745 0.80929
 H87 H 0.26972 0.30089 0.80760
 H88 H 0.25970 0.21132 0.69477
 H89 H 0.09870 0.25984 0.78843
 H90 H 0.37852 0.26225 0.73063
 C91 C 0.71264 0.78638 0.74392
 C92 C 0.73411 0.75290 0.76242
 C93 C 0.71262 0.72215 0.78461
 C94 C 0.66913 0.72447 0.78876
 C95 C 0.64757 0.75679 0.76610
 C96 C 0.66927 0.78842 0.74410
 C97 C 0.77961 0.75182 0.76137
 C98 C 0.80172 0.77868 0.79130
 C99 C 0.84498 0.77953 0.79088
 C100 C 0.86622 0.75265 0.75922
 C101 C 0.84425 0.72575 0.72801
 C102 C 0.80069 0.72518 0.73012
 H103 H 0.73009 0.81040 0.72788
 H104 H 0.73048 0.69675 0.79837
 H105 H 0.78485 0.79923 0.81509
 H106 H 0.78288 0.70406 0.70796
 H107 H 0.61422 0.75857 0.76856
 H108 H 0.89966 0.75229 0.75868
 C109 C 0.69151 0.27625 0.23575
 C110 C 0.71418 0.24432 0.25668
 C111 C 0.69325 0.21102 0.27512
 C112 C 0.64979 0.20956 0.27285
 C113 C 0.62759 0.24123 0.25063
 C114 C 0.64808 0.27469 0.23178
 C115 C 0.75989 0.24581 0.25866
 C116 C 0.77982 0.27802 0.28340
 C117 C 0.82315 0.28057 0.28468
 C118 C 0.84653 0.25012 0.26012
 C119 C 0.82697 0.21820 0.23394
 C120 C 0.78349 0.21585 0.23443
 H121 H 0.70803 0.30218 0.22273
 H122 H 0.71086 0.18633 0.29104
 H123 H 0.76137 0.30117 0.30187
 H124 H 0.76762 0.19092 0.21601
 H125 H 0.59413 0.23996 0.24832
 H126 H 0.87996 0.25086 0.26119
 C127 C 0.20341 0.77156 0.22256
 C128 C 0.22435 0.73898 0.24431
 C129 C 0.20187 0.70741 0.26406
 C130 C 0.15824 0.70823 0.26278
 C131 C 0.13787 0.74055 0.23981
 C132 C 0.15974 0.77251 0.21974
 C133 C 0.26988 0.73901 0.24961
 C134 C 0.28887 0.76818 0.28006
 C135 C 0.33130 0.76498 0.29077
 C136 C 0.35483 0.73334 0.26973
 C137 C 0.33689 0.70537 0.23719
 C138 C 0.29398 0.70781 0.22792
 H139 H 0.22165 0.79606 0.20910
 H140 H 0.21901 0.68273 0.28039
 H141 H 0.27019 0.79168 0.29760
 H142 H 0.27903 0.68510 0.20498
 H143 H 0.10428 0.74127 0.23834
 H144 H 0.38760 0.73089 0.27827
 N145 N 1.07997 0.05276 0.05761
 N146 N 1.10553 0.08359 0.06390
 N147 N 1.06066 -0.03603 0.08865
 N148 N 1.07321 -0.06455 0.11813
 N149 N 1.08681 -0.03307 0.05399
 N150 N 1.11788 -0.05928 0.05893
 N151 N 1.05531 0.05006 0.09375
 N152 N 1.06413 0.07869 0.12632
 C153 C 1.09519 0.09953 0.10664
 C154 C 1.10880 -0.07895 0.09874
 N155 N 0.94106 -0.04153 0.06378
 N156 N 0.91330 -0.06861 0.07472
 N157 N 0.96622 0.04537 0.10034
 N158 N 0.95932 0.07312 0.13435
 N159 N 0.93523 0.04450 0.06958
 N160 N 0.90641 0.07167 0.08201
 N161 N 0.97153 -0.04080 0.09521
 N162 N 0.96504 -0.06759 0.12847
 Mn163 Mn 1.01347 0.00458 0.09508
 C164 C 0.92882 -0.08506 0.11467
 C165 C 0.92205 0.08951 0.12236
 N166 N 1.07863 -0.03245 -0.04679
 N167 N 1.10507 -0.06284 -0.05468
 N168 N 1.04199 0.05266 -0.07395
 N169 N 1.04604 0.08112 -0.10572
 N170 N 1.07299 0.05365 -0.04335
 N171 N 1.09904 0.08280 -0.05345
 N172 N 1.04840 -0.03324 -0.07837
 N173 N 1.05372 -0.06390 -0.10922
 Mn174 Mn 1.07995 0.01028 0.00532
 C175 C 1.08914 -0.08203 -0.09371
 C176 C 1.08154 0.09989 -0.09213
 N177 N 0.92806 0.04586 -0.03242
 N178 N 0.89698 0.07195 -0.03813
 N179 N 0.96036 -0.03853 -0.07240
 N180 N 0.95545 -0.06896 -0.10362
 N181 N 0.93381 -0.04083 -0.03804
 N182 N 0.90994 -0.07322 -0.04515
 N183 N 0.95351 0.04715 -0.06799
 N184 N 0.94005 0.07365 -0.09932
 Mn185 Mn 0.93408 0.00202 0.01574
 Mn186 Mn 1.00103 0.00708 -0.07363
 Cl187 Cl 1.00704 0.00604 0.01075
 C188 C 0.90514 0.08924 -0.07974
 C189 C 0.92399 -0.09050 -0.08621
 N190 N 1.07812 0.53215 0.54723
 N191 N 1.10808 0.55867 0.55465
 N192 N 1.03893 0.44974 0.57619
 N193 N 1.04519 0.42087 0.60765
 N194 N 1.06690 0.44680 0.54316
 N195 N 1.09230 0.41570 0.55053
 N196 N 1.05085 0.53503 0.58100
 N197 N 1.06201 0.56332 0.61305
 C198 C 1.09773 0.57774 0.59577
 C199 C 1.07832 0.39959 0.59046
 N200 N 0.92155 0.46901 0.54069
 N201 N 0.88646 0.45155 0.55087
 N202 N 0.96239 0.54853 0.57925
 N203 N 0.95786 0.57562 0.61437
 N204 N 0.93402 0.55413 0.54597
 N205 N 0.90918 0.58519 0.55824
 N206 N 0.94930 0.46346 0.57464
 N207 N 0.93332 0.44190 0.60874
 Mn208 Mn 1.00034 0.49902 0.57826
 C209 C 0.89435 0.43401 0.59265
 C210 C 0.92496 0.59861 0.60079
 N211 N 1.06743 0.44761 0.44289
 N212 N 1.09377 0.41765 0.43280
 N213 N 1.05119 0.53751 0.41245
 N214 N 1.06394 0.56363 0.38113
 N215 N 1.07919 0.53286 0.44610
 N216 N 1.11178 0.55555 0.43864
 N217 N 1.04051 0.45234 0.40815
 N218 N 1.04864 0.42632 0.37269
 Mn219 Mn 1.07309 0.48991 0.49494
 C220 C 1.08136 0.40435 0.38933
 C221 C 1.10164 0.57490 0.39836
 N222 N 0.93404 0.55437 0.44194
 N223 N 0.90399 0.57864 0.42632
 N224 N 0.95181 0.46451 0.40680
 N225 N 0.94342 0.43401 0.37660
 N226 N 0.92277 0.46867 0.43857
 N227 N 0.89381 0.44083 0.43073
 N228 N 0.96268 0.54967 0.40960
 N229 N 0.95258 0.57061 0.37178
 Mn230 Mn 0.92783 0.51177 0.49178
 Mn231 Mn 1.00149 0.50101 0.40899
 Cl232 Cl 1.00052 0.50054 0.49354
 C233 C 0.91653 0.58925 0.38299
 C234 C 0.90710 0.41950 0.39184
 N235 N 0.45450 0.04711 0.42569
 N236 N 0.42863 0.05757 0.39148
 N237 N 0.53974 0.07062 0.46995
 N238 N 0.56618 0.10064 0.46485
 N239 N 0.54079 0.04491 0.43331
 N240 N 0.56733 0.05745 0.40187
 N241 N 0.45281 0.07376 0.46134
 N242 N 0.42567 0.10332 0.45210
 C243 C 0.41063 0.09250 0.40850
 C244 C 0.58351 0.09181 0.42257
 N245 N 0.53172 0.03366 0.60043
 N246 N 0.56205 0.03646 0.63239
 N247 N 0.44706 0.06722 0.56304
 N248 N 0.41944 0.09614 0.57323
 N249 N 0.44460 0.03691 0.59250
 N250 N 0.41491 0.04431 0.62320
 N251 N 0.53359 0.06385 0.57072
 N252 N 0.56513 0.08774 0.58134
 Mn253 Mn 0.49322 0.06920 0.51643
 C254 C 0.58252 0.07047 0.61979
 C255 C 0.39928 0.08118 0.61046
 N256 N 0.53923 -0.04405 0.42430
 N257 N 0.57025 -0.05085 0.39530
 N258 N 0.45004 -0.07077 0.44547
 N259 N 0.42217 -0.09756 0.43072
 N260 N 0.45248 -0.04077 0.41573
 N261 N 0.42605 -0.04631 0.37992
 N262 N 0.53657 -0.07403 0.45413
 N263 N 0.56577 -0.10187 0.44656
 Mn264 Mn 0.49685 0.00174 0.42434
 C265 C 0.58658 -0.08691 0.41001
 C266 C 0.40711 -0.08174 0.39009
 N267 N 0.44261 -0.05167 0.58262
 N268 N 0.41437 -0.06303 0.61266
 N269 N 0.53002 -0.08171 0.55488
 N270 N 0.54796 -0.11659 0.56676
 N271 N 0.52917 -0.05583 0.59148
 N272 N 0.54682 -0.07291 0.62893
 N273 N 0.44390 -0.07743 0.54606
 N274 N 0.41675 -0.10687 0.55020
 Mn275 Mn 0.48708 -0.00908 0.59226
 Mn276 Mn 0.49015 -0.07607 0.49995
 Cl277 Cl 0.49194 -0.00354 0.50836
 C278 C 0.39816 -0.09720 0.59144
 C279 C 0.55923 -0.11048 0.61250
 N280 N 0.57822 0.55126 0.04506
 N281 N 0.60582 0.57918 0.05778
 N282 N 0.55823 0.46439 0.08009
 N283 N 0.56656 0.43547 0.11090
 N284 N 0.58758 0.46584 0.04870
 N285 N 0.61668 0.43817 0.05734
 N286 N 0.54846 0.55050 0.07611
 N287 N 0.55466 0.57850 0.11009
 C288 C 0.59023 0.59640 0.09787
 C289 C 0.60320 0.41941 0.09614
 N290 N 0.44119 0.45183 0.04247
 N291 N 0.41389 0.42406 0.05367
 N292 N 0.45946 0.54161 0.07215
 N293 N 0.44632 0.56955 0.10343
 N294 N 0.43235 0.53726 0.03724
 N295 N 0.40030 0.56209 0.04362
 N296 N 0.46958 0.45581 0.07605
 N297 N 0.46274 0.43040 0.11055
 Mn298 Mn 0.50897 0.50312 0.07655
 C299 C 0.42818 0.41050 0.09585
 C300 C 0.40955 0.58230 0.08473
 N301 N 0.58980 0.45989 -0.05269
 N302 N 0.62092 0.43368 -0.05786
 N303 N 0.55213 0.54060 -0.09196
 N304 N 0.55646 0.56795 -0.12502
 N305 N 0.58002 0.54584 -0.05798
 N306 N 0.60426 0.57687 -0.06734
 N307 N 0.56255 0.45512 -0.08733
 N308 N 0.57487 0.42610 -0.11767
 Mn309 Mn 0.58427 0.50587 -0.00427
 C310 C 0.61111 0.41279 -0.09839
 C311 C 0.58890 0.59056 -0.10916
 N312 N 0.43484 0.53117 -0.06457
 N313 N 0.40198 0.55203 -0.07933
 N314 N 0.47342 0.44576 -0.09122
 N315 N 0.46644 0.41759 -0.12487
 N316 N 0.44411 0.44547 -0.05960
 N317 N 0.41669 0.41706 -0.07085
 N318 N 0.46371 0.53087 -0.09670
 N319 N 0.45092 0.55086 -0.13430
 Mn320 Mn 0.43789 0.49145 -0.01113
 Mn321 Mn 0.51305 0.49299 -0.09212
 Cl322 Cl 0.51102 0.49844 -0.00771
 C323 C 0.41289 0.56481 -0.12244
 C324 C 0.43134 0.39949 -0.11119
 C325 C 1.18715 0.15010 0.22999
 C326 C 1.16330 0.15905 0.19248
 C327 C 1.13126 0.13080 0.17466
 C328 C 1.11852 0.13273 0.12971
 H329 H 1.16988 0.18541 0.17157
 H330 H 1.12155 0.10583 0.19628
 H331 H 1.18188 0.12182 0.24815
 H332 H 1.13119 0.15565 0.10718
 C333 C 1.18228 0.63501 0.72437
 C334 C 1.16199 0.64101 0.68348
 C335 C 1.13179 0.61128 0.66428
 C336 C 1.12311 0.60999 0.61801
 H337 H 1.16947 0.66693 0.66218
 H338 H 1.11885 0.58878 0.68716
 H339 H 1.17692 0.60718 0.74337
 H340 H 1.13895 0.63030 0.59484
 C341 C 0.68164 0.13228 0.70349
 C342 C 0.67163 0.09273 0.70847
 C343 C 0.63527 0.07376 0.68427
 C344 C 0.61916 0.08783 0.64382
 H345 H 0.68916 0.07363 0.73237
 H346 H 0.62239 0.04676 0.69958
 H347 H 0.66124 0.15179 0.68302
 H348 H 0.63308 0.11342 0.62683
 C349 C 0.71231 0.64960 0.18091
 C350 C 0.67363 0.65655 0.16515
 C351 C 0.65288 0.62766 0.13186
 C352 C 0.61164 0.62701 0.12814
 H353 H 0.65633 0.68303 0.17842
 H354 H 0.67137 0.60547 0.11191
 H355 H 0.72818 0.62135 0.17051
 H356 H 0.59314 0.64706 0.15078
 C357 C 0.79741 -0.12842 0.16935
 C358 C 0.83774 -0.13774 0.16808
 C359 C 0.86427 -0.11563 0.13636
 C360 C 0.90501 -0.11240 0.14390
 H361 H 0.85127 -0.16001 0.19175
 H362 H 0.84938 -0.09913 0.10780
 H363 H 0.78514 -0.10363 0.14824
 H364 H 0.91997 -0.12685 0.17384
 C365 C 0.82867 0.33917 0.69777
 C366 C 0.83025 0.37698 0.68058
 C367 C 0.86668 0.39111 0.65535
 C368 C 0.86098 0.41730 0.62043
 H369 H 0.80331 0.39697 0.68065
 H370 H 0.89728 0.37916 0.66383
 H371 H 0.85534 0.31914 0.69236
 H372 H 0.82971 0.42638 0.61040
 C373 C 0.29414 -0.13019 0.70723
 C374 C 0.31894 -0.14257 0.67233
 C375 C 0.34901 -0.11438 0.65288
 C376 C 0.36743 -0.12376 0.61215
 H377 H 0.31571 -0.17306 0.65645
 H378 H 0.35563 -0.08561 0.67154
 H379 H 0.29563 -0.09867 0.72048
 H380 H 0.35995 -0.15216 0.59317
 C381 C 0.30423 0.36714 0.17127
 C382 C 0.34224 0.35522 0.15790
 C383 C 0.36493 0.38021 0.12454
 C384 C 0.40619 0.38178 0.12544
 H385 H 0.35766 0.32878 0.17276
 H386 H 0.34740 0.39993 0.10104
 H387 H 0.29259 0.39614 0.15808
 H388 H 0.42379 0.36478 0.15151
 C389 C 0.82040 0.12748 -0.21351
 C390 C 0.83840 0.14005 -0.17284
 C391 C 0.87066 0.11512 -0.15012
 C392 C 0.87646 0.11737 -0.10334
 H393 H 0.82750 0.16774 -0.15462
 H394 H 0.88779 0.09272 -0.17135
 H395 H 0.82882 0.09791 -0.22930
 H396 H 0.85687 0.13719 -0.08168
 C397 C 0.80489 0.67486 0.32116
 C398 C 0.82575 0.63922 0.31888
 C399 C 0.85430 0.62730 0.35728
 C400 C 0.88950 0.60763 0.34696
 H401 H 0.82469 0.61982 0.28716
 H402 H 0.84636 0.63433 0.39373
 H403 H 0.81144 0.69552 0.35110
 H404 H 0.89800 0.60298 0.31025
 C405 C 0.32418 0.16141 0.31076
 C406 C 0.33015 0.12063 0.31354
 C407 C 0.36394 0.10123 0.34073
 C408 C 0.37926 0.11613 0.38197
 H409 H 0.31187 0.09943 0.29217
 H410 H 0.37405 0.07124 0.32767
 H411 H 0.34689 0.18153 0.32755
 H412 H 0.36781 0.14487 0.39714
 C413 C 0.30864 0.66181 -0.17790
 C414 C 0.32269 0.62298 -0.17769
 C415 C 0.35450 0.60982 -0.14338
 C416 C 0.38388 0.58305 -0.15654
 H417 H 0.31237 0.60061 -0.20423
 H418 H 0.35357 0.62173 -0.10720
 H419 H 0.32422 0.68422 -0.15497
 H420 H 0.38656 0.57381 -0.19351
 C421 C 1.15388 -0.14012 -0.22818
 C422 C 1.13675 -0.15013 -0.18760
 C423 C 1.10744 -0.12202 -0.16433
 C424 C 1.10991 -0.11656 -0.11754
 H425 H 1.14920 -0.17558 -0.16772
 H426 H 1.08826 -0.10179 -0.18552
 H427 H 1.14408 -0.11211 -0.24518
 H428 H 1.13205 -0.13433 -0.09705
 C429 C 1.17780 0.37041 0.26490
 C430 C 1.15442 0.35788 0.30026
 C431 C 1.12083 0.38347 0.31997
 C432 C 1.10554 0.37439 0.36187
 H433 H 1.16181 0.32987 0.31822
 H434 H 1.11177 0.41177 0.30313
 H435 H 1.17072 0.39982 0.24950
 H436 H 1.11737 0.34786 0.38030
 C437 C 0.68073 -0.11588 0.28001
 C438 C 0.66737 -0.12420 0.32301
 C439 C 0.63600 -0.09828 0.34634
 C440 C 0.62067 -0.10935 0.38740
 H441 H 0.67947 -0.15061 0.34140
 H442 H 0.62420 -0.07114 0.32905
 H443 H 0.66999 -0.08818 0.26306
 H444 H 0.63194 -0.13707 0.40390
 C445 C 0.69089 0.35530 -0.22788
 C446 C 0.67336 0.34854 -0.18641
 C447 C 0.64238 0.37724 -0.16653
 C448 C 0.63833 0.38137 -0.11975
 H449 H 0.68412 0.32317 -0.16523
 H450 H 0.62494 0.39710 -0.18995
 H451 H 0.68274 0.38280 -0.24681
 H452 H 0.65839 0.36397 -0.09638
 C453 C 1.13911 0.20328 -0.16455
 C454 C 1.15958 0.17575 -0.13815
 C455 C 1.13832 0.14617 -0.10876
 C456 C 1.10037 0.13217 -0.11921
 H457 H 1.19292 0.17453 -0.13637
 H458 H 1.15597 0.13326 -0.07971
 H459 H 1.10582 0.20549 -0.16117
 H460 H 1.08335 0.14259 -0.15000
 C461 C 1.13373 0.67865 0.28398
 C462 C 1.14765 0.65095 0.31475
 C463 C 1.11861 0.62318 0.33684
 C464 C 1.12992 0.60245 0.37504
 H465 H 1.17972 0.64978 0.32616
 H466 H 1.08740 0.62049 0.32248
 H467 H 1.10062 0.67977 0.27691
 H468 H 1.16076 0.60605 0.39015
 C469 C 0.62680 0.17500 0.29246
 C470 C 0.63764 0.15757 0.33329
 C471 C 0.61178 0.12568 0.35367
 C472 C 0.61261 0.11945 0.40024
 H473 H 0.66423 0.16875 0.35344
 H474 H 0.58981 0.10927 0.33096
 H475 H 0.59819 0.16590 0.27473
 H476 H 0.63218 0.13830 0.42329
 C477 C 0.64690 0.69603 -0.18475
 C478 C 0.66475 0.67102 -0.15276
 C479 C 0.64264 0.64129 -0.12394
 C480 C 0.60674 0.62378 -0.13659
 H481 H 0.69725 0.67353 -0.14393
 H482 H 0.65882 0.63100 -0.09245
 H483 H 0.61348 0.69626 -0.18828
 H484 H 0.59114 0.63192 -0.16926
 C485 C 0.86558 -0.19072 -0.17571
 C486 C 0.90423 -0.17710 -0.18005
 C487 C 0.92212 -0.14300 -0.15059
 C488 C 0.90607 -0.12713 -0.11031
 H489 H 0.92294 -0.18859 -0.20894
 H490 H 0.95007 -0.12986 -0.16391
 H491 H 0.84636 -0.17711 -0.14844
 H492 H 0.87922 -0.14032 -0.09474
 C493 C 0.84236 0.31516 0.31256
 C494 C 0.88079 0.32867 0.30559
 C495 C 0.90025 0.36412 0.33121
 C496 C 0.88491 0.38450 0.36916
 H497 H 0.89924 0.31447 0.27801
 H498 H 0.92971 0.37346 0.31768
 H499 H 0.82301 0.33110 0.33808
 H500 H 0.85609 0.37565 0.38444
 C501 C 0.35144 -0.20802 0.32664
 C502 C 0.34556 -0.16738 0.32902
 C503 C 0.36972 -0.14288 0.36386
 C504 C 0.37785 -0.10330 0.35792
 H505 H 0.32522 -0.15235 0.30381
 H506 H 0.38389 -0.15867 0.39341
 H507 H 0.37453 -0.22190 0.34969
 H508 H 0.36559 -0.08767 0.32729
 C509 C 0.35488 0.30909 -0.19713
 C510 C 0.34360 0.32969 -0.15741
 C511 C 0.37114 0.35635 -0.12806
 C512 C 0.40858 0.36908 -0.14056
 H513 H 0.31284 0.32704 -0.14381
 H514 H 0.35836 0.36776 -0.09498
 H515 H 0.38682 0.31036 -0.20759
 H516 H 0.42207 0.35943 -0.17379
 C517 C 1.13650 -0.19555 0.19915
 C518 C 1.15184 -0.16567 0.17336
 C519 C 1.12398 -0.13401 0.15396
 C520 C 1.13604 -0.11044 0.11916
 H521 H 1.18424 -0.16484 0.16472
 H522 H 1.09291 -0.13062 0.16749
 H523 H 1.10319 -0.19569 0.20344
 H524 H 1.16650 -0.11491 0.10434
 C525 C 1.11821 0.31418 0.72461
 C526 C 1.12257 0.32540 0.68001
 C527 C 1.09446 0.35556 0.65810
 C528 C 1.10056 0.36598 0.61358
 H529 H 1.14750 0.31224 0.65915
 H530 H 1.07040 0.37055 0.67876
 H531 H 1.09188 0.32560 0.74447
 H532 H 1.12532 0.35119 0.59383
 C533 C 0.65004 -0.17732 0.72305
 C534 C 0.61044 -0.17520 0.70853
 C535 C 0.59523 -0.13915 0.68249
 C536 C 0.57395 -0.14446 0.64196
 H537 H 0.59039 -0.20140 0.71065
 H538 H 0.60421 -0.10860 0.69448
 H539 H 0.66953 -0.15176 0.71451
 H540 H 0.56842 -0.17542 0.62846
 C541 C 0.62320 0.30794 0.20952
 C542 C 0.63784 0.33197 0.17611
 C543 C 0.61224 0.36481 0.15484
 C544 C 0.62663 0.38605 0.11895
 H545 H 0.66891 0.32704 0.16330
 H546 H 0.58170 0.37156 0.16843
 H547 H 0.59122 0.31181 0.21984
 H548 H 0.65695 0.37854 0.10517
 C549 C 0.85281 0.18756 0.20716
 C550 C 0.83878 0.16646 0.16859
 C551 C 0.86300 0.13589 0.14009
 C552 C 0.90072 0.12130 0.15163
 H553 H 0.80771 0.17234 0.15547
 H554 H 0.84789 0.12409 0.10809
 H555 H 0.88471 0.18407 0.21857
 H556 H 0.91646 0.13178 0.18369
 C557 C 0.86753 0.69762 0.69506
 C558 C 0.85105 0.68154 0.65453
 C559 C 0.87206 0.65171 0.62171
 C560 C 0.90709 0.63118 0.63206
 H561 H 0.82020 0.69084 0.64360
 H562 H 0.85629 0.64483 0.58835
 H563 H 0.89948 0.69114 0.70432
 H564 H 0.92278 0.63651 0.66571
 C565 C 0.34184 0.20910 0.67146
 C566 C 0.33566 0.16883 0.66523
 C567 C 0.36209 0.14453 0.63277
 C568 C 0.36782 0.10419 0.63771
 H569 H 0.31379 0.15339 0.68701
 H570 H 0.37987 0.16054 0.60704
 H571 H 0.36632 0.22339 0.65229
 H572 H 0.35170 0.08846 0.66501
 C573 C 0.36402 0.67352 0.21516
 C574 C 0.35704 0.65681 0.17209
 C575 C 0.38714 0.62769 0.15078
 C576 C 0.38096 0.61214 0.10710
 H577 H 0.32984 0.66563 0.15167
 H578 H 0.41450 0.61885 0.17099
 H579 H 0.39252 0.66564 0.23382
 H580 H 0.35335 0.62071 0.08723
   
