data_POSCAR
  _audit_creation_date              2014-09-24
  _audit_creation_method            'ToBaCCo'
  _symmetry_space_group_name_H-M    'P1'
  _symmetry_Int_Tables_number       1
  _symmetry_cell_setting            triclinic
  loop_
  _symmetry_equiv_pos_as_xyz
 x,y,z
_cell_length_a 33.7989
_cell_length_b 33.7984
_cell_length_c 33.7783
_cell_angle_alpha 89.961800
_cell_angle_beta 90.113000
_cell_angle_gamma 90.000000
loop_
  _atom_site_label
  _atom_site_type_symbol
  _atom_site_fract_x
  _atom_site_fract_y
  _atom_site_fract_z
O1 O -0.10221 0.05347 0.00102
 O2 O 0.10123 0.05350 -0.00177
 O3 O -0.00191 0.10167 0.05311
 O4 O 0.00087 0.10176 -0.05403
 O5 O 0.00081 0.05363 -0.10220
 O6 O -0.00187 0.05344 0.10138
 O7 O 0.05304 0.10173 -0.00185
 O8 O -0.05398 0.10168 0.00105
 Zr9 Zr -0.00048 0.06954 -0.00044
 O10 O 0.03536 0.03592 -0.03630
 O11 O -0.03630 0.03581 0.03544
 C12 C -0.09060 0.09009 0.00184
 C13 C 0.08967 0.09014 -0.00257
 C14 C -0.00267 0.09007 0.08977
 C15 C 0.00157 0.09035 -0.09077
 H16 H 0.05220 0.05259 0.05232
 O17 O 0.03528 0.03572 0.03542
 H18 H -0.05323 0.05267 -0.05314
 O19 O -0.03632 0.03577 -0.03621
 O20 O 0.10114 -0.05352 0.00121
 O21 O -0.10227 -0.05358 -0.00188
 O22 O 0.05310 -0.00162 0.10142
 O23 O 0.05291 0.00146 -0.10215
 O24 O -0.05413 -0.00143 -0.10217
 O25 O -0.05391 0.00148 0.10135
 O26 O 0.00091 -0.10179 0.05333
 O27 O -0.00217 -0.10167 -0.05381
 O28 O 0.00099 -0.05364 0.10148
 O29 O -0.00217 -0.05344 -0.10208
 O30 O 0.10124 -0.00155 0.05320
 O31 O -0.10217 0.00149 0.05306
 O32 O -0.10223 -0.00152 -0.05403
 O33 O 0.10116 0.00140 -0.05386
 O34 O 0.05293 -0.10174 0.00126
 O35 O -0.05414 -0.10175 -0.00177
 Zr36 Zr 0.06901 -0.00001 -0.00034
 Zr37 Zr -0.07005 -0.00004 -0.00044
 Zr38 Zr -0.00044 -0.00008 0.06922
 Zr39 Zr -0.00058 0.00006 -0.06996
 Zr40 Zr -0.00058 -0.06957 -0.00027
 O41 O -0.03642 -0.03587 -0.03628
 O42 O 0.03539 -0.03592 0.03557
 C43 C 0.08955 -0.09014 0.00205
 C44 C -0.09085 -0.09030 -0.00258
 C45 C 0.08970 -0.00240 0.08983
 C46 C 0.08956 0.00218 -0.09053
 C47 C -0.09082 -0.00227 -0.09074
 C48 C -0.09054 0.00229 0.08972
 C49 C 0.00169 -0.09037 0.09007
 C50 C -0.00300 -0.09006 -0.09045
 H51 H -0.05317 -0.05271 0.05233
 O52 O -0.03629 -0.03581 0.03544
 H53 H 0.05201 -0.05265 -0.05296
 O54 O 0.03515 -0.03576 -0.03608
 O55 O 0.39829 0.55397 0.00163
 O56 O 0.60175 0.55404 -0.00111
 O57 O 0.49860 0.60218 0.05388
 O58 O 0.50152 0.60214 -0.05322
 O59 O 0.50143 0.55394 -0.10145
 O60 O 0.49864 0.55400 0.10207
 O61 O 0.55354 0.60224 -0.00111
 O62 O 0.44650 0.60218 0.00173
 Zr63 Zr 0.50001 0.57002 0.00032
 O64 O 0.53578 0.53633 -0.03558
 O65 O 0.46413 0.53633 0.03612
 C66 C 0.40988 0.59058 0.00246
 C67 C 0.59018 0.59068 -0.00188
 C68 C 0.49788 0.59072 0.09062
 C69 C 0.50231 0.59054 -0.08984
 H70 H 0.55273 0.55313 0.05304
 O71 O 0.53582 0.53625 0.03612
 H72 H 0.44730 0.55315 -0.05247
 O73 O 0.46420 0.53624 -0.03554
 O74 O 0.60167 0.44698 0.00189
 O75 O 0.39821 0.44695 -0.00131
 O76 O 0.55363 0.49896 0.10208
 O77 O 0.55336 0.50193 -0.10148
 O78 O 0.44628 0.49910 -0.10159
 O79 O 0.44656 0.50195 0.10198
 O80 O 0.50151 0.39878 0.05379
 O81 O 0.49846 0.39873 -0.05327
 O82 O 0.50159 0.44696 0.10204
 O83 O 0.49839 0.44694 -0.10153
 O84 O 0.60173 0.49897 0.05395
 O85 O 0.39830 0.50193 0.05368
 O86 O 0.39817 0.49910 -0.05346
 O87 O 0.60164 0.50198 -0.05320
 O88 O 0.55344 0.39878 0.00184
 O89 O 0.44642 0.39874 -0.00122
 Zr90 Zr 0.56954 0.50050 0.00034
 Zr91 Zr 0.43042 0.50046 0.00016
 Zr92 Zr 0.50005 0.50048 0.06985
 Zr93 Zr 0.49987 0.50044 -0.06932
 Zr94 Zr 0.49994 0.43094 0.00026
 O95 O 0.46400 0.46456 -0.03570
 O96 O 0.53586 0.46462 0.03618
 C97 C 0.59006 0.41036 0.00268
 C98 C 0.40978 0.41031 -0.00205
 C99 C 0.59032 0.49817 0.09067
 C100 C 0.59001 0.50273 -0.08987
 C101 C 0.40957 0.49837 -0.09020
 C102 C 0.40992 0.50272 0.09034
 C103 C 0.50237 0.41035 0.09044
 C104 C 0.49765 0.41030 -0.08993
 H105 H 0.44737 0.44782 0.05290
 O106 O 0.46425 0.46472 0.03601
 H107 H 0.55256 0.44784 -0.05235
 O108 O 0.53570 0.46473 -0.03546
 O109 O -0.10194 0.55374 0.50128
 O110 O 0.10148 0.55364 0.49856
 O111 O -0.00174 0.60181 0.55337
 O112 O 0.00115 0.60196 0.44627
 O113 O 0.00114 0.55376 0.39804
 O114 O -0.00165 0.55360 0.60166
 O115 O 0.05326 0.60186 0.49843
 O116 O -0.05380 0.60189 0.50126
 Zr117 Zr -0.00025 0.56970 0.49985
 O118 O 0.03564 0.53603 0.46407
 O119 O -0.03602 0.53600 0.53579
 C120 C -0.09051 0.59046 0.50201
 C121 C 0.08989 0.59026 0.49770
 C122 C -0.00252 0.59022 0.59002
 C123 C 0.00188 0.59041 0.40960
 H124 H 0.05245 0.55279 0.55265
 O125 O 0.03555 0.53589 0.53574
 H126 H -0.05295 0.55285 0.44714
 O127 O -0.03603 0.53595 0.46406
 O128 O 0.10156 0.44662 0.50156
 O129 O -0.10190 0.44667 0.49835
 O130 O 0.05346 0.49871 0.60187
 O131 O 0.05326 0.50170 0.39823
 O132 O -0.05383 0.49869 0.39808
 O133 O -0.05362 0.50156 0.60170
 O134 O 0.00127 0.39834 0.55357
 O135 O -0.00170 0.39846 0.44645
 O136 O 0.00132 0.44651 0.60182
 O137 O -0.00176 0.44668 0.39818
 O138 O 0.10162 0.49875 0.55367
 O139 O -0.10187 0.50165 0.55340
 O140 O -0.10199 0.49869 0.44629
 O141 O 0.10149 0.50164 0.44656
 O142 O 0.05335 0.39841 0.50151
 O143 O -0.05367 0.39846 0.49842
 Zr144 Zr 0.06935 0.50013 0.50006
 Zr145 Zr -0.06975 0.50019 0.49987
 Zr146 Zr -0.00012 0.50008 0.56957
 Zr147 Zr -0.00026 0.50021 0.43032
 Zr148 Zr -0.00017 0.43060 0.50000
 O149 O -0.03607 0.46432 0.46405
 O150 O 0.03576 0.46422 0.53596
 C151 C 0.08999 0.40998 0.50231
 C152 C -0.09030 0.41005 0.49757
 C153 C 0.09010 0.49800 0.59034
 C154 C 0.08989 0.50246 0.40989
 C155 C -0.09045 0.49790 0.40964
 C156 C -0.09026 0.50239 0.59007
 C157 C 0.00204 0.40987 0.59025
 C158 C -0.00252 0.41005 0.40979
 H159 H -0.05280 0.44748 0.55259
 O160 O -0.03592 0.46438 0.53571
 H161 H 0.05241 0.44754 0.44735
 O162 O 0.03553 0.46442 0.46422
 O163 O 0.39854 0.05317 0.50131
 O164 O 0.60198 0.05317 0.49852
 O165 O 0.49886 0.10141 0.55348
 O166 O 0.50171 0.10137 0.44642
 O167 O 0.50168 0.05319 0.39818
 O168 O 0.49891 0.05320 0.60174
 O169 O 0.55374 0.10136 0.49846
 O170 O 0.44673 0.10139 0.50134
 Zr171 Zr 0.50025 0.06920 0.49995
 O172 O 0.53609 0.03552 0.46411
 O173 O 0.46440 0.03556 0.53583
 C174 C 0.41010 0.08981 0.50208
 C175 C 0.59037 0.08979 0.49769
 C176 C 0.49812 0.08984 0.59014
 C177 C 0.50249 0.08980 0.40979
 H178 H 0.55299 0.05231 0.55266
 O179 O 0.53609 0.03542 0.53575
 H180 H 0.44757 0.05232 0.44720
 O181 O 0.46449 0.03542 0.46412
 O182 O 0.60209 -0.05389 0.50149
 O183 O 0.39862 -0.05384 0.49839
 O184 O 0.55387 -0.00181 0.60178
 O185 O 0.55368 0.00123 0.39822
 O186 O 0.44668 -0.00184 0.39815
 O187 O 0.44684 0.00107 0.60171
 O188 O 0.50195 -0.10201 0.55344
 O189 O 0.49883 -0.10209 0.44635
 O190 O 0.50194 -0.05380 0.60167
 O191 O 0.49876 -0.05385 0.39811
 O192 O 0.60205 -0.00186 0.55359
 O193 O 0.39860 0.00106 0.55341
 O194 O 0.39853 -0.00183 0.44636
 O195 O 0.60195 0.00121 0.44649
 O196 O 0.55389 -0.10211 0.50142
 O197 O 0.44683 -0.10206 0.49840
 Zr198 Zr 0.56985 -0.00036 0.50001
 Zr199 Zr 0.43075 -0.00033 0.49990
 Zr200 Zr 0.50034 -0.00031 0.56953
 Zr201 Zr 0.50022 -0.00034 0.43035
 Zr202 Zr 0.50035 -0.06990 0.49990
 O203 O 0.46439 -0.03621 0.46403
 O204 O 0.53619 -0.03620 0.53586
 C205 C 0.59053 -0.09054 0.50223
 C206 C 0.41021 -0.09046 0.49759
 C207 C 0.59048 -0.00263 0.59023
 C208 C 0.59032 0.00204 0.40984
 C209 C 0.41008 -0.00264 0.40973
 C210 C 0.41019 0.00181 0.59008
 C211 C 0.50279 -0.09040 0.59007
 C212 C 0.49802 -0.09050 0.40968
 H213 H 0.44774 -0.05302 0.55257
 O214 O 0.46461 -0.03612 0.53568
 H215 H 0.55294 -0.05298 0.44727
 O216 O 0.53606 -0.03610 0.46416
 C217 C 0.13964 0.19074 -0.00549
 C218 C 0.17964 0.18010 -0.00578
 C219 C 0.19028 0.14009 -0.00530
 C220 C 0.16107 0.11081 -0.00439
 C221 C 0.12070 0.12117 -0.00391
 C222 C 0.11035 0.16154 -0.00458
 C223 C 0.20976 0.21022 -0.00621
 C224 C 0.23497 0.23545 -0.00636
 C225 C 0.26450 0.26499 -0.00630
 C226 C 0.28971 0.29022 -0.00605
 C227 C 0.31983 0.32034 -0.00550
 C228 C 0.35983 0.30970 -0.00499
 C229 C 0.38911 0.33891 -0.00399
 C230 C 0.37875 0.37928 -0.00345
 C231 C 0.33838 0.38963 -0.00415
 C232 C 0.30918 0.36034 -0.00515
 H233 H 0.13107 0.22163 -0.00585
 H234 H 0.22117 0.13152 -0.00551
 H235 H 0.17018 0.08010 -0.00396
 H236 H 0.07964 0.17065 -0.00430
 H237 H 0.36840 0.27882 -0.00525
 H238 H 0.41982 0.32980 -0.00353
 H239 H 0.32927 0.42034 -0.00383
 H240 H 0.27829 0.36891 -0.00555
 C241 C 0.13988 -0.30924 0.49451
 C242 C 0.17985 -0.31996 0.49405
 C243 C 0.19047 -0.35996 0.49453
 C244 C 0.16125 -0.38918 0.49559
 C245 C 0.12090 -0.37876 0.49624
 C246 C 0.11057 -0.33839 0.49558
 C247 C 0.20998 -0.28993 0.49348
 C248 C 0.23525 -0.26480 0.49323
 C249 C 0.26483 -0.23539 0.49321
 C250 C 0.29010 -0.21026 0.49343
 C251 C 0.32024 -0.18023 0.49397
 C252 C 0.36021 -0.19096 0.49449
 C253 C 0.38951 -0.16180 0.49554
 C254 C 0.37919 -0.12144 0.49612
 C255 C 0.33884 -0.11101 0.49540
 C256 C 0.30962 -0.14024 0.49435
 H257 H 0.13136 -0.27834 0.49416
 H258 H 0.22135 -0.36856 0.49419
 H259 H 0.17033 -0.41991 0.49601
 H260 H 0.07987 -0.32925 0.49598
 H261 H 0.36873 -0.22186 0.49420
 H262 H 0.42022 -0.17095 0.49600
 H263 H 0.32976 -0.08029 0.49576
 H264 H 0.27874 -0.13164 0.49396
 C265 C 0.86050 0.81049 -0.00520
 C266 C 0.82051 0.82111 -0.00563
 C267 C 0.80992 0.86110 -0.00536
 C268 C 0.83911 0.89042 -0.00450
 C269 C 0.87964 0.88021 -0.00384
 C270 C 0.88983 0.83967 -0.00434
 C271 C 0.79036 0.79096 -0.00601
 C272 C 0.76512 0.76572 -0.00612
 C273 C 0.73556 0.73615 -0.00603
 C274 C 0.71033 0.71090 -0.00576
 C275 C 0.68019 0.68074 -0.00522
 C276 C 0.64017 0.69135 -0.00484
 C277 C 0.61089 0.66212 -0.00387
 C278 C 0.62123 0.62175 -0.00324
 C279 C 0.66161 0.61142 -0.00380
 C280 C 0.69082 0.64073 -0.00476
 H281 H 0.86906 0.77960 -0.00542
 H282 H 0.77903 0.86967 -0.00570
 H283 H 0.82973 0.92106 -0.00423
 H284 H 0.92047 0.83028 -0.00395
 H285 H 0.63159 0.72223 -0.00519
 H286 H 0.58017 0.67123 -0.00353
 H287 H 0.67073 0.58071 -0.00339
 H288 H 0.72171 0.63216 -0.00505
 C289 C 0.85990 0.30947 0.49435
 C290 C 0.81991 0.32010 0.49388
 C291 C 0.80920 0.36007 0.49433
 C292 C 0.83836 0.38937 0.49540
 C293 C 0.87873 0.37903 0.49607
 C294 C 0.88914 0.33869 0.49542
 C295 C 0.78987 0.28997 0.49334
 C296 C 0.76473 0.26472 0.49312
 C297 C 0.73530 0.23515 0.49314
 C298 C 0.71016 0.20989 0.49339
 C299 C 0.68013 0.17976 0.49398
 C300 C 0.64013 0.19038 0.49438
 C301 C 0.61091 0.16116 0.49546
 C302 C 0.62134 0.12081 0.49620
 C303 C 0.66170 0.11049 0.49561
 C304 C 0.69085 0.13979 0.49452
 H305 H 0.86850 0.27859 0.49402
 H306 H 0.77830 0.36860 0.49398
 H307 H 0.82922 0.42008 0.49581
 H308 H 0.91986 0.32960 0.49584
 H309 H 0.63153 0.22126 0.49397
 H310 H 0.58018 0.17023 0.49582
 H311 H 0.67085 0.07978 0.49608
 H312 H 0.72176 0.13127 0.49422
 C313 C 0.80890 0.14006 0.00514
 C314 C 0.81962 0.18003 0.00568
 C315 C 0.85961 0.19066 0.00520
 C316 C 0.88884 0.16145 0.00406
 C317 C 0.87842 0.12110 0.00334
 C318 C 0.83806 0.11077 0.00400
 C319 C 0.78958 0.21016 0.00635
 C320 C 0.76444 0.23541 0.00668
 C321 C 0.73501 0.26498 0.00680
 C322 C 0.70987 0.29024 0.00667
 C323 C 0.67984 0.32038 0.00622
 C324 C 0.69056 0.36035 0.00583
 C325 C 0.66140 0.38966 0.00482
 C326 C 0.62103 0.37933 0.00415
 C327 C 0.61061 0.33898 0.00475
 C328 C 0.63984 0.30976 0.00576
 H329 H 0.77800 0.13153 0.00550
 H330 H 0.86820 0.22155 0.00560
 H331 H 0.91956 0.17053 0.00365
 H332 H 0.82892 0.08006 0.00354
 H333 H 0.72146 0.36887 0.00617
 H334 H 0.67055 0.42036 0.00446
 H335 H 0.57989 0.32991 0.00432
 H336 H 0.63124 0.27888 0.00604
 C337 C 0.81028 -0.36093 0.50484
 C338 C 0.82090 -0.32094 0.50524
 C339 C 0.86089 -0.31033 0.50484
 C340 C 0.89020 -0.33952 0.50390
 C341 C 0.87999 -0.38005 0.50330
 C342 C 0.83947 -0.39025 0.50390
 C343 C 0.79075 -0.29079 0.50573
 C344 C 0.76552 -0.26554 0.50595
 C345 C 0.73596 -0.23597 0.50599
 C346 C 0.71072 -0.21072 0.50583
 C347 C 0.68058 -0.18057 0.50541
 C348 C 0.69119 -0.14056 0.50506
 C349 C 0.66197 -0.11126 0.50417
 C350 C 0.62159 -0.12159 0.50358
 C351 C 0.61126 -0.16197 0.50412
 C352 C 0.64056 -0.19119 0.50501
 H353 H 0.77939 -0.36949 0.50515
 H354 H 0.86945 -0.27944 0.50514
 H355 H 0.92084 -0.33013 0.50354
 H356 H 0.83008 -0.42089 0.50355
 H357 H 0.72208 -0.13198 0.50536
 H358 H 0.67108 -0.08054 0.50383
 H359 H 0.58055 -0.17109 0.50374
 H360 H 0.63198 -0.22208 0.50527
 C361 C 0.13995 0.30937 0.50520
 C362 C 0.17995 0.32001 0.50560
 C363 C 0.19060 0.36001 0.50522
 C364 C 0.16139 0.38930 0.50429
 C365 C 0.12102 0.37895 0.50369
 C366 C 0.11067 0.33858 0.50426
 C367 C 0.21007 0.28989 0.50605
 C368 C 0.23528 0.26466 0.50622
 C369 C 0.26481 0.23511 0.50618
 C370 C 0.29002 0.20989 0.50595
 C371 C 0.32014 0.17977 0.50543
 C372 C 0.36014 0.19041 0.50503
 C373 C 0.38942 0.16121 0.50406
 C374 C 0.37907 0.12084 0.50344
 C375 C 0.33870 0.11048 0.50402
 C376 C 0.30950 0.13976 0.50499
 H377 H 0.13138 0.27848 0.50548
 H378 H 0.22149 0.36858 0.50553
 H379 H 0.17050 0.42001 0.50393
 H380 H 0.07995 0.32947 0.50389
 H381 H 0.36871 0.22130 0.50536
 H382 H 0.42013 0.17032 0.50370
 H383 H 0.32959 0.07977 0.50363
 H384 H 0.27861 0.13119 0.50529
 C385 C 0.13955 0.80936 0.00534
 C386 C 0.17952 0.82009 0.00581
 C387 C 0.19014 0.86008 0.00533
 C388 C 0.16092 0.88931 0.00422
 C389 C 0.12057 0.87888 0.00356
 C390 C 0.11024 0.83852 0.00424
 C391 C 0.20966 0.79006 0.00641
 C392 C 0.23493 0.76493 0.00667
 C393 C 0.26452 0.73552 0.00671
 C394 C 0.28979 0.71039 0.00651
 C395 C 0.31992 0.68036 0.00599
 C396 C 0.35989 0.69108 0.00566
 C397 C 0.38920 0.66193 0.00463
 C398 C 0.37886 0.62156 0.00389
 C399 C 0.33852 0.61114 0.00442
 C400 C 0.30930 0.64037 0.00544
 H401 H 0.13103 0.77846 0.00571
 H402 H 0.22102 0.86868 0.00568
 H403 H 0.17000 0.92003 0.00379
 H404 H 0.07954 0.82937 0.00383
 H405 H 0.36842 0.72198 0.00607
 H406 H 0.41990 0.67107 0.00432
 H407 H 0.32943 0.58042 0.00393
 H408 H 0.27842 0.63177 0.00569
 C409 C -0.00569 0.19064 0.13969
 C410 C -0.00610 0.17998 0.17971
 C411 C -0.00565 0.13998 0.19039
 C412 C -0.00466 0.11071 0.16118
 C413 C -0.00407 0.12108 0.12079
 C414 C -0.00470 0.16145 0.11041
 C415 C -0.00661 0.21007 0.20982
 C416 C -0.00681 0.23528 0.23503
 C417 C -0.00680 0.26480 0.26455
 C418 C -0.00658 0.29002 0.28976
 C419 C -0.00605 0.32012 0.31987
 C420 C -0.00560 0.30947 0.35989
 C421 C -0.00458 0.33866 0.38917
 C422 C -0.00396 0.37903 0.37877
 C423 C -0.00461 0.38939 0.33838
 C424 C -0.00563 0.36011 0.30918
 H425 H -0.00602 0.22153 0.13110
 H426 H -0.00596 0.13140 0.22130
 H427 H -0.00427 0.07999 0.17031
 H428 H -0.00433 0.17057 0.07967
 H429 H -0.00591 0.27858 0.36848
 H430 H -0.00417 0.32955 0.41991
 H431 H -0.00423 0.42010 0.32924
 H432 H -0.00597 0.36868 0.27827
 C433 C 0.49478 0.36027 0.80944
 C434 C 0.49446 0.32027 0.82013
 C435 C 0.49489 0.30966 0.86017
 C436 C 0.49578 0.33888 0.88944
 C437 C 0.49630 0.37925 0.87904
 C438 C 0.49568 0.38958 0.83863
 C439 C 0.49404 0.29012 0.79003
 C440 C 0.49390 0.26486 0.76484
 C441 C 0.49397 0.23527 0.73535
 C442 C 0.49422 0.21001 0.71016
 C443 C 0.49476 0.17986 0.68006
 C444 C 0.49525 0.13986 0.69076
 C445 C 0.49622 0.11056 0.66157
 C446 C 0.49676 0.12088 0.62116
 C447 C 0.49610 0.16125 0.61076
 C448 C 0.49512 0.19047 0.64002
 H449 H 0.49445 0.36882 0.77852
 H450 H 0.49465 0.27877 0.86879
 H451 H 0.49618 0.32979 0.92018
 H452 H 0.49599 0.42029 0.82948
 H453 H 0.49498 0.13131 0.72168
 H454 H 0.49665 0.07985 0.67072
 H455 H 0.49643 0.17034 0.58002
 H456 H 0.49476 0.22135 0.63141
 C457 C -0.00633 0.86009 0.80900
 C458 C -0.00679 0.82011 0.81972
 C459 C -0.00631 0.80943 0.85972
 C460 C -0.00521 0.83861 0.88898
 C461 C -0.00454 0.87896 0.87856
 C462 C -0.00523 0.88935 0.83818
 C463 C -0.00733 0.79005 0.78966
 C464 C -0.00752 0.76485 0.76448
 C465 C -0.00745 0.73535 0.73502
 C466 C -0.00714 0.71014 0.70985
 C467 C -0.00647 0.68007 0.67980
 C468 C -0.00583 0.64010 0.69054
 C469 C -0.00465 0.61083 0.66137
 C470 C -0.00406 0.62120 0.62099
 C471 C -0.00489 0.66155 0.61055
 C472 C -0.00607 0.69074 0.63979
 H473 H -0.00669 0.86865 0.77808
 H474 H -0.00665 0.77854 0.86831
 H475 H -0.00478 0.82950 0.91972
 H476 H -0.00481 0.92006 0.82905
 H477 H -0.00612 0.63155 0.72146
 H478 H -0.00411 0.58012 0.67052
 H479 H -0.00455 0.67065 0.57981
 H480 H -0.00655 0.72162 0.63119
 C481 C 0.49506 -0.31010 0.13923
 C482 C 0.49470 -0.32073 0.17925
 C483 C 0.49512 -0.36072 0.18988
 C484 C 0.49604 -0.39003 0.16068
 C485 C 0.49660 -0.37980 0.12013
 C486 C 0.49598 -0.33927 0.10991
 C487 C 0.49425 -0.29060 0.20940
 C488 C 0.49406 -0.26537 0.23465
 C489 C 0.49407 -0.23583 0.26421
 C490 C 0.49426 -0.21060 0.28946
 C491 C 0.49474 -0.18047 0.31961
 C492 C 0.49518 -0.19112 0.35965
 C493 C 0.49611 -0.16192 0.38896
 C494 C 0.49665 -0.12153 0.37861
 C495 C 0.49602 -0.11117 0.33821
 C496 C 0.49509 -0.14045 0.30898
 H497 H 0.49474 -0.27920 0.13066
 H498 H 0.49484 -0.36930 0.22079
 H499 H 0.49641 -0.42067 0.17008
 H500 H 0.49630 -0.32986 0.07925
 H501 H 0.49491 -0.22201 0.36823
 H502 H 0.49651 -0.17104 0.41969
 H503 H 0.49635 -0.08045 0.32909
 H504 H 0.49475 -0.13186 0.27807
 C505 C 0.00437 0.81038 0.13882
 C506 C 0.00480 0.82097 0.17883
 C507 C 0.00448 0.86097 0.18941
 C508 C 0.00359 0.89030 0.16018
 C509 C 0.00296 0.88011 0.11962
 C510 C 0.00348 0.83958 0.10945
 C511 C 0.00524 0.79080 0.20904
 C512 C 0.00543 0.76555 0.23433
 C513 C 0.00545 0.73596 0.26394
 C514 C 0.00528 0.71070 0.28922
 C515 C 0.00487 0.68052 0.31942
 C516 C 0.00449 0.69112 0.35947
 C517 C 0.00366 0.66188 0.38880
 C518 C 0.00315 0.62150 0.37849
 C519 C 0.00371 0.61119 0.33809
 C520 C 0.00455 0.64050 0.30883
 H521 H 0.00462 0.77949 0.13027
 H522 H 0.00481 0.86954 0.22031
 H523 H 0.00329 0.92094 0.16955
 H524 H 0.00310 0.83019 0.07880
 H525 H 0.00474 0.72200 0.36804
 H526 H 0.00330 0.67098 0.41953
 H527 H 0.00340 0.58048 0.32898
 H528 H 0.00483 0.63193 0.27793
 C529 C 0.50599 -0.30902 0.86023
 C530 C 0.50650 -0.31975 0.82026
 C531 C 0.50588 -0.35972 0.80960
 C532 C 0.50462 -0.38894 0.83881
 C533 C 0.50392 -0.37851 0.87916
 C534 C 0.50473 -0.33817 0.88953
 C535 C 0.50722 -0.28975 0.79016
 C536 C 0.50756 -0.26462 0.76491
 C537 C 0.50763 -0.23523 0.73536
 C538 C 0.50741 -0.21011 0.71011
 C539 C 0.50682 -0.18010 0.68000
 C540 C 0.50624 -0.19084 0.64003
 C541 C 0.50506 -0.16170 0.61072
 C542 C 0.50439 -0.12135 0.62108
 C543 C 0.50518 -0.11091 0.66143
 C544 C 0.50636 -0.14014 0.69065
 H545 H 0.50645 -0.27812 0.86875
 H546 H 0.50625 -0.36829 0.77869
 H547 H 0.50409 -0.41966 0.82973
 H548 H 0.50430 -0.32904 0.92025
 H549 H 0.50657 -0.22174 0.63152
 H550 H 0.50456 -0.17083 0.58000
 H551 H 0.50477 -0.08019 0.67051
 H552 H 0.50679 -0.13156 0.72156
 C553 C 0.50563 0.30973 0.14023
 C554 C 0.50615 0.32033 0.18025
 C555 C 0.50570 0.36029 0.19098
 C556 C 0.50460 0.38962 0.16182
 C557 C 0.50388 0.37931 0.12142
 C558 C 0.50452 0.33898 0.11099
 C559 C 0.50672 0.29018 0.21028
 C560 C 0.50697 0.26489 0.23542
 C561 C 0.50697 0.23527 0.26482
 C562 C 0.50674 0.20998 0.28996
 C563 C 0.50617 0.17983 0.31999
 C564 C 0.50577 0.19042 0.36001
 C565 C 0.50469 0.16117 0.38924
 C566 C 0.50396 0.12084 0.37880
 C567 C 0.50456 0.11054 0.33841
 C568 C 0.50563 0.13987 0.30925
 H569 H 0.50595 0.27886 0.13162
 H570 H 0.50609 0.36879 0.22190
 H571 H 0.50421 0.42031 0.17097
 H572 H 0.50407 0.32992 0.08025
 H573 H 0.50617 0.22129 0.36862
 H574 H 0.50433 0.17023 0.41999
 H575 H 0.50409 0.07984 0.32926
 H576 H 0.50593 0.13137 0.27833
 C577 C 0.00436 0.18961 0.86061
 C578 C 0.00471 0.17905 0.82059
 C579 C 0.00427 0.13907 0.80996
 C580 C 0.00335 0.10972 0.83916
 C581 C 0.00281 0.11987 0.87972
 C582 C 0.00344 0.16039 0.88994
 C583 C 0.00521 0.20925 0.79044
 C584 C 0.00544 0.23455 0.76521
 C585 C 0.00551 0.26418 0.73567
 C586 C 0.00539 0.28948 0.71044
 C587 C 0.00502 0.31969 0.68030
 C588 C 0.00469 0.30914 0.64025
 C589 C 0.00387 0.33840 0.61095
 C590 C 0.00332 0.37877 0.62132
 C591 C 0.00384 0.38904 0.66173
 C592 C 0.00466 0.35970 0.69095
 H593 H 0.00470 0.22050 0.86919
 H594 H 0.00454 0.13054 0.77905
 H595 H 0.00298 0.07908 0.82976
 H596 H 0.00314 0.16975 0.92060
 H597 H 0.00496 0.27826 0.63164
 H598 H 0.00355 0.32933 0.58021
 H599 H 0.00349 0.41974 0.67087
 H600 H 0.00491 0.36823 0.72186
 C601 C 0.13976 -0.00576 0.19043
 C602 C 0.17972 -0.00620 0.17975
 C603 C 0.19032 -0.00567 0.13974
 C604 C 0.16108 -0.00455 0.11046
 C605 C 0.12074 -0.00392 0.12085
 C606 C 0.11044 -0.00465 0.16123
 C607 C 0.20985 -0.00680 0.20983
 C608 C 0.23511 -0.00706 0.23503
 C609 C 0.26468 -0.00709 0.26452
 C610 C 0.28993 -0.00687 0.28972
 C611 C 0.32007 -0.00632 0.31981
 C612 C 0.36003 -0.00582 0.30913
 C613 C 0.38934 -0.00475 0.33833
 C614 C 0.37904 -0.00412 0.37871
 C615 C 0.33870 -0.00481 0.38909
 C616 C 0.30947 -0.00588 0.35981
 H617 H 0.13126 -0.00616 0.22134
 H618 H 0.22119 -0.00599 0.13118
 H619 H 0.17013 -0.00409 0.07973
 H620 H 0.07974 -0.00426 0.17034
 H621 H 0.36853 -0.00614 0.27822
 H622 H 0.42004 -0.00430 0.32922
 H623 H 0.32965 -0.00443 0.41982
 H624 H 0.27859 -0.00626 0.36837
 C625 C 0.36083 0.49567 0.81048
 C626 C 0.32085 0.49529 0.82105
 C627 C 0.31029 0.49567 0.86106
 C628 C 0.33951 0.49657 0.89043
 C629 C 0.38003 0.49714 0.88026
 C630 C 0.39019 0.49657 0.83971
 C631 C 0.29065 0.49481 0.79086
 C632 C 0.26537 0.49459 0.76558
 C633 C 0.23575 0.49454 0.73598
 C634 C 0.21047 0.49468 0.71071
 C635 C 0.18027 0.49506 0.68052
 C636 C 0.14026 0.49540 0.69111
 C637 C 0.11093 0.49622 0.66185
 C638 C 0.12120 0.49674 0.62145
 C639 C 0.16157 0.49622 0.61114
 C640 C 0.19083 0.49540 0.64048
 H641 H 0.36936 0.49537 0.77957
 H642 H 0.27941 0.49537 0.86960
 H643 H 0.33016 0.49690 0.92108
 H644 H 0.42082 0.49690 0.83034
 H645 H 0.13173 0.49515 0.72201
 H646 H 0.08022 0.49655 0.67094
 H647 H 0.17064 0.49654 0.58041
 H648 H 0.22171 0.49514 0.63192
 C649 C 0.86058 -0.00541 0.81003
 C650 C 0.82063 -0.00595 0.82065
 C651 C 0.81002 -0.00553 0.86062
 C652 C 0.83920 -0.00443 0.88996
 C653 C 0.87970 -0.00369 0.87976
 C654 C 0.88990 -0.00431 0.83924
 C655 C 0.79052 -0.00655 0.79051
 C656 C 0.76529 -0.00682 0.76526
 C657 C 0.73577 -0.00687 0.73570
 C658 C 0.71054 -0.00668 0.71044
 C659 C 0.68044 -0.00618 0.68029
 C660 C 0.64045 -0.00576 0.69091
 C661 C 0.61117 -0.00474 0.66166
 C662 C 0.62151 -0.00408 0.62129
 C663 C 0.66186 -0.00470 0.61097
 C664 C 0.69107 -0.00572 0.64030
 H665 H 0.86910 -0.00572 0.77912
 H666 H 0.77913 -0.00594 0.86914
 H667 H 0.82984 -0.00408 0.92061
 H668 H 0.92053 -0.00386 0.82987
 H669 H 0.63191 -0.00610 0.72181
 H670 H 0.58046 -0.00436 0.67074
 H671 H 0.67095 -0.00428 0.58025
 H672 H 0.72196 -0.00602 0.63177
 C673 C -0.36099 0.49510 0.18993
 C674 C -0.32104 0.49466 0.17931
 C675 C -0.31046 0.49510 0.13932
 C676 C -0.33967 0.49613 0.10998
 C677 C -0.38017 0.49679 0.12018
 C678 C -0.39034 0.49614 0.16072
 C679 C -0.29087 0.49411 0.20946
 C680 C -0.26560 0.49387 0.23469
 C681 C -0.23600 0.49384 0.26423
 C682 C -0.21073 0.49402 0.28947
 C683 C -0.18056 0.49450 0.31960
 C684 C -0.14057 0.49491 0.30896
 C685 C -0.11124 0.49588 0.33819
 C686 C -0.12153 0.49649 0.37858
 C687 C -0.16188 0.49590 0.38893
 C688 C -0.19113 0.49493 0.35962
 H689 H -0.36951 0.49477 0.22083
 H690 H -0.27957 0.49476 0.13078
 H691 H -0.33032 0.49651 0.07933
 H692 H -0.42097 0.49653 0.17009
 H693 H -0.13206 0.49459 0.27806
 H694 H -0.08054 0.49625 0.32909
 H695 H -0.17094 0.49629 0.41966
 H696 H -0.22201 0.49463 0.36819
 C697 C 0.13959 0.00496 0.80890
 C698 C 0.17959 0.00531 0.81965
 C699 C 0.19020 0.00492 0.85970
 C700 C 0.16097 0.00403 0.88893
 C701 C 0.12060 0.00350 0.87847
 C702 C 0.11028 0.00408 0.83805
 C703 C 0.20976 0.00573 0.78960
 C704 C 0.23505 0.00588 0.76447
 C705 C 0.26468 0.00583 0.73506
 C706 C 0.28998 0.00560 0.70993
 C707 C 0.32015 0.00509 0.67989
 C708 C 0.36015 0.00463 0.69064
 C709 C 0.38946 0.00369 0.66150
 C710 C 0.37915 0.00315 0.62107
 C711 C 0.33878 0.00379 0.61061
 C712 C 0.30955 0.00473 0.63983
 H713 H 0.13104 0.00526 0.77797
 H714 H 0.22108 0.00518 0.86836
 H715 H 0.17006 0.00367 0.91968
 H716 H 0.07957 0.00375 0.82886
 H717 H 0.36869 0.00490 0.72158
 H718 H 0.42017 0.00328 0.67069
 H719 H 0.32969 0.00346 0.57986
 H720 H 0.27867 0.00508 0.63116
 C721 C 0.30936 0.50569 0.14015
 C722 C 0.32003 0.50615 0.18018
 C723 C 0.36002 0.50577 0.19090
 C724 C 0.38929 0.50479 0.16174
 C725 C 0.37891 0.50413 0.12133
 C726 C 0.33855 0.50471 0.11090
 C727 C 0.28993 0.50665 0.21024
 C728 C 0.26470 0.50684 0.23542
 C729 C 0.23517 0.50681 0.26488
 C730 C 0.20994 0.50656 0.29004
 C731 C 0.17983 0.50602 0.32009
 C732 C 0.19047 0.50559 0.36013
 C733 C 0.16127 0.50456 0.38936
 C734 C 0.12091 0.50391 0.37891
 C735 C 0.11055 0.50452 0.33850
 C736 C 0.13984 0.50555 0.30935
 H737 H 0.27847 0.50598 0.13152
 H738 H 0.36860 0.50612 0.22183
 H739 H 0.42001 0.50444 0.17090
 H740 H 0.32942 0.50429 0.08015
 H741 H 0.22136 0.50594 0.36877
 H742 H 0.17038 0.50418 0.42012
 H743 H 0.07984 0.50410 0.32932
 H744 H 0.13128 0.50587 0.27842
 C745 C 0.80899 0.00545 0.13962
 C746 C 0.81973 0.00592 0.17963
 C747 C 0.85973 0.00548 0.19031
 C748 C 0.88895 0.00443 0.16111
 C749 C 0.87850 0.00377 0.12072
 C750 C 0.83813 0.00440 0.11034
 C751 C 0.78971 0.00645 0.20974
 C752 C 0.76458 0.00666 0.23499
 C753 C 0.73517 0.00664 0.26454
 C754 C 0.71004 0.00638 0.28979
 C755 C 0.68002 0.00580 0.31990
 C756 C 0.69077 0.00529 0.35991
 C757 C 0.66164 0.00419 0.38920
 C758 C 0.62126 0.00356 0.37882
 C759 C 0.61081 0.00427 0.33844
 C760 C 0.64002 0.00536 0.30923
 H761 H 0.77808 0.00578 0.13105
 H762 H 0.86836 0.00583 0.22122
 H763 H 0.91968 0.00404 0.17023
 H764 H 0.82896 0.00398 0.07960
 H765 H 0.72168 0.00561 0.36848
 H766 H 0.67081 0.00374 0.41994
 H767 H 0.58008 0.00387 0.32933
 H768 H 0.63139 0.00575 0.27833
 C769 C -0.36018 0.50569 0.80950
 C770 C -0.32017 0.50607 0.82017
 C771 C -0.30947 0.50566 0.86020
 C772 C -0.33863 0.50471 0.88948
 C773 C -0.37901 0.50413 0.87910
 C774 C -0.38942 0.50474 0.83870
 C775 C -0.29009 0.50653 0.79005
 C776 C -0.26491 0.50671 0.76483
 C777 C -0.23541 0.50666 0.73530
 C778 C -0.21022 0.50642 0.71008
 C779 C -0.18014 0.50587 0.67998
 C780 C -0.14013 0.50535 0.69067
 C781 C -0.11087 0.50435 0.66149
 C782 C -0.12126 0.50381 0.62108
 C783 C -0.16164 0.50451 0.61068
 C784 C -0.19081 0.50552 0.63994
 H785 H -0.36880 0.50600 0.77858
 H786 H -0.27856 0.50595 0.86879
 H787 H -0.32947 0.50432 0.92022
 H788 H -0.42015 0.50438 0.82957
 H789 H -0.13153 0.50562 0.72159
 H790 H -0.08015 0.50389 0.67064
 H791 H -0.17078 0.50419 0.57993
 H792 H -0.22171 0.50591 0.63133
   
