data_POSCAR
  _audit_creation_date              2014-09-24
  _audit_creation_method            'ToBaCCo'
  _symmetry_space_group_name_H-M    'P1'
  _symmetry_Int_Tables_number       1
  _symmetry_cell_setting            triclinic
  loop_
  _symmetry_equiv_pos_as_xyz
 x,y,z
_cell_length_a 38.1302
_cell_length_b 37.4599
_cell_length_c 37.4599
_cell_angle_alpha 90.192700
_cell_angle_beta 89.892600
_cell_angle_gamma 90.107400
loop_
  _atom_site_label
  _atom_site_type_symbol
  _atom_site_fract_x
  _atom_site_fract_y
  _atom_site_fract_z
Si1 Si 1.25135 0.24979 0.25075
 Si2 Si 0.75019 -0.25047 0.25049
 Si3 Si 0.75050 0.24952 -0.24950
 Si4 Si 1.25135 -0.25073 -0.24977
 Si5 Si 0.24967 0.25080 0.74922
 Si6 Si 0.74880 0.75042 0.74963
 Si7 Si 0.74880 0.25039 0.24961
 Si8 Si 0.24960 0.75025 0.24977
 N9 N 1.03764 0.03806 0.06391
 N10 N 1.06095 0.04560 0.08883
 N11 N 0.96396 0.06275 0.03927
 N12 N 0.94077 0.08778 0.04687
 N13 N 0.96396 0.03804 0.06406
 N14 N 0.94076 0.04566 0.08915
 N15 N 1.03764 0.06282 0.03916
 N16 N 1.06095 0.08783 0.04663
 C17 C 1.07561 0.07653 0.07750
 C18 C 0.92617 0.07658 0.07787
 N19 N 0.96396 0.03789 -0.06270
 N20 N 0.94105 0.04559 -0.08790
 N21 N 1.03767 0.06279 -0.03793
 N22 N 1.06066 0.08802 -0.04565
 N23 N 1.03767 0.03796 -0.06276
 N24 N 1.06066 0.04568 -0.08799
 N25 N 0.96396 0.06272 -0.03786
 N26 N 0.94105 0.08793 -0.04557
 Mn27 Mn 1.00081 0.06306 0.00067
 C28 C 0.92660 0.07669 -0.07666
 C29 C 1.07515 0.07678 -0.07676
 N30 N 0.96393 -0.03907 0.06392
 N31 N 0.94060 -0.04652 0.08890
 N32 N 1.03764 -0.06394 0.03913
 N33 N 1.06036 -0.08931 0.04700
 N34 N 1.03764 -0.03911 0.06397
 N35 N 1.06036 -0.04698 0.08933
 N36 N 0.96393 -0.06390 0.03909
 N37 N 0.94060 -0.08887 0.04655
 Mn38 Mn 1.00080 -0.00051 0.06426
 C39 C 0.92594 -0.07748 0.07750
 C40 C 1.07470 -0.07817 0.07819
 N41 N 1.03764 -0.03913 -0.06279
 N42 N 1.06095 -0.04661 -0.08780
 N43 N 0.96396 -0.06403 -0.03801
 N44 N 0.94076 -0.08913 -0.04564
 N45 N 0.96396 -0.03924 -0.06273
 N46 N 0.94077 -0.04685 -0.08776
 N47 N 1.03764 -0.06388 -0.03804
 N48 N 1.06095 -0.08881 -0.04558
 Mn49 Mn 1.00081 -0.00065 -0.06304
 Mn50 Mn 1.00080 -0.06424 0.00053
 Cl51 Cl 1.00081 -0.00058 0.00061
 C52 C 1.07561 -0.07748 -0.07651
 C53 C 0.92617 -0.07785 -0.07655
 N54 N 1.03694 0.53903 0.56286
 N55 N 1.06000 0.54651 0.58803
 N56 N 0.96364 0.56414 0.53788
 N57 N 0.94069 0.58939 0.54553
 N58 N 0.96332 0.53935 0.56259
 N59 N 0.94015 0.54711 0.58765
 N60 N 1.03727 0.56379 0.53812
 N61 N 1.06055 0.58874 0.54583
 C62 C 1.07484 0.57739 0.57685
 C63 C 0.92591 0.57820 0.57645
 N64 N 0.96411 0.53917 0.43602
 N65 N 0.94105 0.54672 0.41094
 N66 N 1.03776 0.56385 0.46101
 N67 N 1.06047 0.58929 0.45306
 N68 N 1.03776 0.53902 0.43617
 N69 N 1.06047 0.54697 0.41073
 N70 N 0.96411 0.56400 0.46085
 N71 N 0.94105 0.58908 0.45330
 Mn72 Mn 1.00070 0.56425 0.49948
 C73 C 0.92656 0.57774 0.42229
 C74 C 1.07482 0.57819 0.42183
 N75 N 0.96285 0.46228 0.56257
 N76 N 0.94002 0.45444 0.58792
 N77 N 1.03650 0.43720 0.53799
 N78 N 1.05933 0.41195 0.54572
 N79 N 1.03650 0.46203 0.56282
 N80 N 1.05933 0.45430 0.58807
 N81 N 0.96285 0.43745 0.53774
 N82 N 0.94002 0.41211 0.54558
 Mn83 Mn 0.99990 0.50069 0.56301
 C84 C 0.92561 0.42328 0.57674
 C85 C 1.07371 0.42318 0.57684
 N86 N 1.03727 0.46191 0.43624
 N87 N 1.06055 0.45419 0.41129
 N88 N 0.96332 0.43743 0.46067
 N89 N 0.94015 0.41237 0.45292
 N90 N 0.96364 0.46214 0.43588
 N91 N 0.94069 0.45450 0.41063
 N92 N 1.03694 0.43716 0.46099
 N93 N 1.06000 0.41199 0.45351
 Mn94 Mn 1.00070 0.50055 0.43578
 Mn95 Mn 0.99990 0.43702 0.49934
 Cl96 Cl 1.00030 0.50063 0.49940
 C97 C 1.07484 0.42318 0.42264
 C98 C 0.92591 0.42358 0.42183
 N99 N 0.56149 0.03759 0.53782
 N100 N 0.58647 0.06077 0.54557
 N101 N 0.53741 -0.03730 0.56299
 N102 N 0.54514 -0.06046 0.58825
 N103 N 0.56168 -0.03735 0.53809
 N104 N 0.58653 -0.06055 0.54574
 N105 N 0.53722 0.03765 0.56274
 N106 N 0.54511 0.06088 0.58808
 C107 C 0.57569 0.07548 0.57677
 C108 C 0.57566 -0.07511 0.57689
 N109 N 0.43752 -0.03804 0.53810
 N110 N 0.41304 -0.06180 0.54560
 N111 N 0.46148 0.03723 0.56270
 N112 N 0.45376 0.06084 0.58773
 N113 N 0.43722 0.03686 0.53787
 N114 N 0.41240 0.06023 0.54534
 N115 N 0.46175 -0.03769 0.56296
 N116 N 0.45437 -0.06122 0.58803
 Mn117 Mn 0.49945 -0.00002 0.56317
 C118 C 0.42410 -0.07636 0.57661
 C119 C 0.42326 0.07532 0.57631
 N120 N 0.56163 -0.03792 0.46121
 N121 N 0.58634 -0.06144 0.45391
 N122 N 0.53724 0.03664 0.43599
 N123 N 0.54484 0.05998 0.41078
 N124 N 0.56145 0.03698 0.46088
 N125 N 0.58608 0.06055 0.45328
 N126 N 0.53741 -0.03828 0.43635
 N127 N 0.54505 -0.06204 0.41145
 Mn128 Mn 0.56184 -0.00017 0.49949
 C129 C 0.57545 -0.07660 0.42301
 C130 C 0.57518 0.07503 0.42216
 N131 N 0.43730 0.03630 0.46098
 N132 N 0.41273 0.05989 0.45365
 N133 N 0.46164 -0.03870 0.43620
 N134 N 0.45357 -0.06172 0.41070
 N135 N 0.43736 -0.03864 0.46113
 N136 N 0.41224 -0.06162 0.45322
 N137 N 0.46157 0.03625 0.43608
 N138 N 0.45413 0.05981 0.41112
 Mn139 Mn 0.43707 -0.00089 0.49953
 Mn140 Mn 0.49947 -0.00103 0.43583
 Cl141 Cl 0.49946 -0.00053 0.49950
 C142 C 0.42377 0.07466 0.42266
 C143 C 0.42289 -0.07621 0.42192
 N144 N 0.53741 0.56368 0.03830
 N145 N 0.54505 0.58857 0.06207
 N146 N 0.56145 0.53914 -0.03696
 N147 N 0.58608 0.54675 -0.06053
 N148 N 0.53724 0.56403 -0.03662
 N149 N 0.54484 0.58924 -0.05996
 N150 N 0.56163 0.53881 0.03794
 N151 N 0.58634 0.54611 0.06146
 C152 C 0.57545 0.57701 0.07663
 C153 C 0.57518 0.57786 -0.07500
 N154 N 0.53722 0.43729 -0.03763
 N155 N 0.54511 0.41194 -0.06086
 N156 N 0.56168 0.46193 0.03737
 N157 N 0.58653 0.45428 0.06057
 N158 N 0.53741 0.43703 0.03732
 N159 N 0.54514 0.41177 0.06049
 N160 N 0.56149 0.46220 -0.03756
 N161 N 0.58647 0.45446 -0.06075
 Mn162 Mn 0.56184 0.50054 0.00019
 C163 C 0.57569 0.42326 -0.07545
 C164 C 0.57566 0.42313 0.07514
 N165 N 0.46157 0.56394 -0.03623
 N166 N 0.45413 0.58891 -0.05979
 N167 N 0.43736 0.53890 0.03867
 N168 N 0.41224 0.54680 0.06164
 N169 N 0.46164 0.56382 0.03873
 N170 N 0.45357 0.58932 0.06175
 N171 N 0.43730 0.53904 -0.03627
 N172 N 0.41273 0.54638 -0.05986
 Mn173 Mn 0.49947 0.56420 0.00105
 C174 C 0.42377 0.57736 -0.07463
 C175 C 0.42289 0.57811 0.07624
 N176 N 0.46175 0.43706 0.03772
 N177 N 0.45437 0.41199 0.06124
 N178 N 0.43722 0.46216 -0.03684
 N179 N 0.41240 0.45468 -0.06021
 N180 N 0.46148 0.43732 -0.03720
 N181 N 0.45376 0.41230 -0.06082
 N182 N 0.43752 0.46192 0.03806
 N183 N 0.41304 0.45443 0.06182
 Mn184 Mn 0.49945 0.43685 0.00004
 Mn185 Mn 0.43707 0.50049 0.00091
 Cl186 Cl 0.49946 0.50052 0.00055
 C187 C 0.42410 0.42341 0.07639
 C188 C 0.42326 0.42372 -0.07530
 C189 C 1.13610 0.10571 0.15216
 C190 C 1.14722 0.13914 0.13993
 C191 C 1.13607 0.15141 0.10658
 C192 C 1.11337 0.13064 0.08581
 C193 C 1.22502 0.22126 0.22212
 C194 C 1.11340 0.08490 0.13144
 C195 C 1.16909 0.16134 0.16210
 C196 C 1.18697 0.18014 0.18090
 C197 C 1.20756 0.20230 0.20310
 C198 C 1.10151 0.09735 0.09824
 H199 H 1.14456 0.09596 0.17794
 H200 H 1.14450 0.17725 0.09686
 H201 H 1.10464 0.14090 0.06035
 H202 H 1.10470 0.05936 0.14168
 C203 C 1.13471 0.65230 0.60678
 C204 C 1.14537 0.64002 0.64029
 C205 C 1.13416 0.60657 0.65236
 C206 C 1.11183 0.58573 0.63130
 C207 C 1.22358 0.72148 0.72246
 C208 C 1.11238 0.63150 0.58567
 C209 C 1.16699 0.66216 0.66269
 C210 C 1.18482 0.68086 0.68158
 C211 C 1.20563 0.70280 0.70369
 C212 C 1.10042 0.59819 0.59793
 H213 H 1.14327 0.67815 0.59719
 H214 H 1.14228 0.59683 0.67826
 H215 H 1.10302 0.56018 0.64139
 H216 H 1.10401 0.64174 0.56008
 C217 C 0.60669 0.13440 0.65281
 C218 C 0.63959 0.14533 0.64023
 C219 C 0.65087 0.13467 0.60627
 C220 C 0.62965 0.11261 0.58521
 C221 C 0.72259 0.22230 0.72214
 C222 C 0.58542 0.11233 0.63178
 C223 C 0.66217 0.16666 0.66252
 C224 C 0.68127 0.18422 0.68128
 C225 C 0.70364 0.20468 0.70331
 C226 C 0.59689 0.10090 0.59793
 H227 H 0.59769 0.14251 0.67905
 H228 H 0.67627 0.14299 0.59626
 H229 H 0.63916 0.10424 0.55925
 H230 H 0.56032 0.10371 0.64226
 C231 C 0.65010 0.60545 0.13658
 C232 C 0.63890 0.63931 0.14751
 C233 C 0.60614 0.65207 0.13670
 C234 C 0.58494 0.63135 0.11435
 C235 C 0.72231 0.72104 0.22366
 C236 C 0.62895 0.58470 0.11424
 C237 C 0.66157 0.66143 0.16875
 C238 C 0.68078 0.68013 0.18614
 C239 C 0.70328 0.70215 0.20630
 C240 C 0.59638 0.59767 0.10255
 H241 H 0.67542 0.59535 0.14483
 H242 H 0.59726 0.67827 0.14504
 H243 H 0.55996 0.64198 0.10574
 H244 H 0.63840 0.55883 0.10557
 C245 C 0.86540 -0.10643 0.15225
 C246 C 0.85426 -0.13988 0.13991
 C247 C 0.86540 -0.15223 0.10646
 C248 C 0.88812 -0.13152 0.08571
 C249 C 0.77647 -0.22191 0.22193
 C250 C 0.88812 -0.08568 0.13154
 C251 C 0.83238 -0.16203 0.16205
 C252 C 0.81450 -0.18080 0.18082
 C253 C 0.79392 -0.20294 0.20297
 C254 C 0.90001 -0.09822 0.09824
 H255 H 0.85695 -0.09662 0.17811
 H256 H 0.85695 -0.17809 0.09665
 H257 H 0.89685 -0.14184 0.06016
 H258 H 0.89685 -0.06014 0.14187
 C259 C 0.86691 0.34738 0.60685
 C260 C 0.85609 0.35954 0.64049
 C261 C 0.86691 0.39317 0.65264
 C262 C 0.88894 0.41432 0.63153
 C263 C 0.77814 0.27747 0.72255
 C264 C 0.88894 0.36849 0.58570
 C265 C 0.83458 0.33717 0.66285
 C266 C 0.81680 0.31833 0.68169
 C267 C 0.79603 0.29624 0.70378
 C268 C 0.90045 0.40202 0.59800
 H269 H 0.85869 0.32141 0.59716
 H270 H 0.85869 0.40287 0.67861
 H271 H 0.89738 0.44002 0.64170
 H272 H 0.89738 0.35833 0.56000
 C273 C 0.35018 -0.13706 0.60567
 C274 C 0.36166 -0.14748 0.63951
 C275 C 0.39437 -0.13605 0.65206
 C276 C 0.41523 -0.11362 0.63114
 C277 C 0.27924 -0.22393 0.72179
 C278 C 0.37099 -0.11463 0.58472
 C279 C 0.33934 -0.16883 0.66183
 C280 C 0.32039 -0.18630 0.68067
 C281 C 0.29813 -0.20654 0.70283
 C282 C 0.40350 -0.10233 0.59748
 H283 H 0.32490 -0.14578 0.59573
 H284 H 0.40347 -0.14399 0.67824
 H285 H 0.44017 -0.10454 0.64161
 H286 H 0.36133 -0.10637 0.55888
 C287 C 0.39437 0.34796 0.13608
 C288 C 0.36167 0.36052 0.14751
 C289 C 0.35018 0.39435 0.13708
 C290 C 0.37099 0.41530 0.11465
 C291 C 0.27924 0.27824 0.22395
 C292 C 0.41523 0.36888 0.11364
 C293 C 0.33934 0.33820 0.16886
 C294 C 0.32039 0.31935 0.18633
 C295 C 0.29813 0.29719 0.20656
 C296 C 0.40350 0.40255 0.10236
 H297 H 0.40347 0.32179 0.14402
 H298 H 0.32490 0.40429 0.14580
 H299 H 0.36133 0.44115 0.10639
 H300 H 0.44017 0.35841 0.10457
 C301 C 0.86688 0.15185 -0.10605
 C302 C 0.85580 0.13955 -0.13952
 C303 C 0.86688 0.10607 -0.15182
 C304 C 0.88936 0.08524 -0.13103
 C305 C 0.77723 0.22115 -0.22112
 C306 C 0.88936 0.13106 -0.08522
 C307 C 0.83384 0.16165 -0.16163
 C308 C 0.81581 0.18033 -0.18030
 C309 C 0.79494 0.20233 -0.20230
 C310 C 0.90110 0.09768 -0.09766
 H311 H 0.85850 0.17770 -0.09622
 H312 H 0.85850 0.09625 -0.17768
 H313 H 0.89796 0.05966 -0.14132
 H314 H 0.89796 0.14134 -0.05963
 C315 C 0.86713 0.60703 0.34719
 C316 C 0.85622 0.64054 0.35949
 C317 C 0.86713 0.65284 0.39299
 C318 C 0.88942 0.63199 0.41388
 C319 C 0.77798 0.72191 0.27812
 C320 C 0.88942 0.58614 0.36803
 C321 C 0.83460 0.66269 0.33733
 C322 C 0.81676 0.68138 0.31864
 C323 C 0.79595 0.70329 0.29673
 C324 C 0.90108 0.59862 0.40141
 H325 H 0.85881 0.59727 0.32129
 H326 H 0.85881 0.67873 0.40276
 H327 H 0.89799 0.64225 0.43949
 H328 H 0.89799 0.56053 0.35777
 C329 C 0.39400 0.13472 0.34771
 C330 C 0.36131 0.14594 0.36048
 C331 C 0.34982 0.13522 0.39427
 C332 C 0.37062 0.11271 0.41497
 C333 C 0.27907 0.22289 0.27906
 C334 C 0.41487 0.11220 0.36838
 C335 C 0.33900 0.16743 0.33843
 C336 C 0.32009 0.18502 0.31979
 C337 C 0.29789 0.20540 0.29786
 C338 C 0.40314 0.10064 0.40201
 H339 H 0.40311 0.14289 0.32156
 H340 H 0.32454 0.14378 0.40438
 H341 H 0.36096 0.10423 0.44080
 H342 H 0.43981 0.10330 0.35776
 C343 C 0.39400 0.65231 -0.13469
 C344 C 0.36131 0.63955 -0.14592
 C345 C 0.34982 0.60575 -0.13520
 C346 C 0.37062 0.58505 -0.11269
 C347 C 0.27907 0.72096 -0.22287
 C348 C 0.41487 0.63164 -0.11218
 C349 C 0.33900 0.66160 -0.16741
 C350 C 0.32009 0.68023 -0.18500
 C351 C 0.29789 0.70216 -0.20537
 C352 C 0.40314 0.59801 -0.10061
 H353 H 0.40311 0.67846 -0.14286
 H354 H 0.32454 0.59565 -0.14376
 H355 H 0.36096 0.55922 -0.10421
 H356 H 0.43981 0.64226 -0.10327
 C357 C 1.13607 -0.10655 -0.15139
 C358 C 1.14722 -0.13991 -0.13912
 C359 C 1.13610 -0.15214 -0.10569
 C360 C 1.11340 -0.13142 -0.08487
 C361 C 1.22502 -0.22209 -0.22124
 C362 C 1.11337 -0.08579 -0.13061
 C363 C 1.16909 -0.16208 -0.16132
 C364 C 1.18697 -0.18088 -0.18012
 C365 C 1.20756 -0.20308 -0.20227
 C366 C 1.10151 -0.09822 -0.09733
 H367 H 1.14450 -0.09683 -0.17723
 H368 H 1.14456 -0.17792 -0.09594
 H369 H 1.10470 -0.14165 -0.05934
 H370 H 1.10464 -0.06032 -0.14087
 C371 C 1.13471 0.39324 0.34773
 C372 C 1.14537 0.35973 0.36000
 C373 C 1.13416 0.34766 0.39345
 C374 C 1.11183 0.36873 0.41429
 C375 C 1.22358 0.27757 0.27855
 C376 C 1.11238 0.41435 0.36853
 C377 C 1.16699 0.33734 0.33787
 C378 C 1.18482 0.31845 0.31917
 C379 C 1.20563 0.29633 0.29723
 C380 C 1.10042 0.40210 0.40183
 H381 H 1.14327 0.40283 0.32187
 H382 H 1.14228 0.32177 0.40320
 H383 H 1.10302 0.35863 0.43985
 H384 H 1.10401 0.43995 0.35828
 C385 C 0.60614 -0.13667 0.34795
 C386 C 0.63890 -0.14749 0.36072
 C387 C 0.65010 -0.13656 0.39457
 C388 C 0.62895 -0.11422 0.41533
 C389 C 0.72231 -0.22364 0.27898
 C390 C 0.58494 -0.11433 0.36867
 C391 C 0.66157 -0.16873 0.33859
 C392 C 0.68078 -0.18612 0.31990
 C393 C 0.70328 -0.20628 0.29788
 C394 C 0.59638 -0.10252 0.40235
 H395 H 0.59726 -0.14501 0.32175
 H396 H 0.67542 -0.14480 0.40468
 H397 H 0.63840 -0.10555 0.44119
 H398 H 0.55996 -0.10572 0.35805
 C399 C 0.60669 0.34722 -0.13437
 C400 C 0.63959 0.35979 -0.14531
 C401 C 0.65087 0.39376 -0.13465
 C402 C 0.62965 0.41481 -0.11259
 C403 C 0.72259 0.27788 -0.22228
 C404 C 0.58542 0.36825 -0.11231
 C405 C 0.66217 0.33750 -0.16663
 C406 C 0.68127 0.31875 -0.18420
 C407 C 0.70364 0.29671 -0.20465
 C408 C 0.59689 0.40209 -0.10088
 H409 H 0.59769 0.32097 -0.14248
 H410 H 0.67627 0.40377 -0.14297
 H411 H 0.63916 0.44078 -0.10421
 H412 H 0.56032 0.35777 -0.10369
 C413 C 1.13470 0.15220 -0.10639
 C414 C 1.14570 0.13996 -0.13994
 C415 C 1.13470 0.10641 -0.15217
 C416 C 1.11234 0.08544 -0.13125
 C417 C 1.22323 0.22225 -0.22223
 C418 C 1.11234 0.13127 -0.08542
 C419 C 1.16739 0.16224 -0.16222
 C420 C 1.18519 0.18108 -0.18106
 C421 C 1.20575 0.20327 -0.20325
 C422 C 1.10064 0.09784 -0.09782
 H423 H 1.14303 0.17812 -0.09663
 H424 H 1.14303 0.09666 -0.17809
 H425 H 1.10376 0.05981 -0.14149
 H426 H 1.10376 0.14151 -0.05979
 C427 C 1.13360 0.60837 0.34588
 C428 C 1.14451 0.64199 0.35803
 C429 C 1.13360 0.65415 0.39165
 C430 C 1.11148 0.63307 0.41277
 C431 C 1.22336 0.72378 0.27624
 C432 C 1.11148 0.58725 0.36696
 C433 C 1.16627 0.66429 0.33574
 C434 C 1.18427 0.68305 0.31697
 C435 C 1.20529 0.70507 0.29496
 C436 C 1.09994 0.59953 0.40050
 H437 H 1.14186 0.59864 0.31993
 H438 H 1.14186 0.68009 0.40138
 H439 H 1.10303 0.64324 0.43847
 H440 H 1.10303 0.56155 0.35678
 C441 C 0.64935 0.13565 0.39330
 C442 C 0.63807 0.14607 0.35938
 C443 C 0.60546 0.13454 0.34664
 C444 C 0.58448 0.11208 0.36746
 C445 C 0.72079 0.22345 0.27795
 C446 C 0.62843 0.11320 0.41414
 C447 C 0.66047 0.16766 0.33726
 C448 C 0.67948 0.18536 0.31863
 C449 C 0.70183 0.20587 0.29672
 C450 C 0.59598 0.10086 0.40124
 H451 H 0.67455 0.14443 0.40341
 H452 H 0.59649 0.14246 0.32041
 H453 H 0.55961 0.10298 0.35686
 H454 H 0.63795 0.10500 0.44007
 C455 C 0.60546 0.65339 -0.13451
 C456 C 0.63807 0.64064 -0.14605
 C457 C 0.64935 0.60673 -0.13562
 C458 C 0.62843 0.58588 -0.11317
 C459 C 0.72079 0.72207 -0.22343
 C460 C 0.58448 0.63256 -0.11205
 C461 C 0.66047 0.66277 -0.16763
 C462 C 0.67948 0.68140 -0.18533
 C463 C 0.70183 0.70330 -0.20585
 C464 C 0.59598 0.59879 -0.10084
 H465 H 0.59649 0.67961 -0.14244
 H466 H 0.67455 0.59662 -0.14441
 H467 H 0.63795 0.55996 -0.10497
 H468 H 0.55961 0.64316 -0.10295
 C469 C 0.86572 -0.15271 -0.10607
 C470 C 0.85444 -0.14023 -0.13932
 C471 C 0.86558 -0.10673 -0.15136
 C472 C 0.88835 -0.08605 -0.13056
 C473 C 0.77550 -0.22132 -0.22168
 C474 C 0.88849 -0.13206 -0.08523
 C475 C 0.83231 -0.16221 -0.16153
 C476 C 0.81417 -0.18076 -0.18037
 C477 C 0.79324 -0.20261 -0.20263
 C478 C 0.90032 -0.09867 -0.09745
 H479 H 0.85729 -0.17859 -0.09647
 H480 H 0.85704 -0.09680 -0.17704
 H481 H 0.89701 -0.06044 -0.14066
 H482 H 0.89727 -0.14246 -0.05984
 C483 C 0.86590 0.34851 0.39231
 C484 C 0.85525 0.36052 0.35869
 C485 C 0.86662 0.39383 0.34635
 C486 C 0.88902 0.41479 0.36726
 C487 C 0.77647 0.27846 0.27739
 C488 C 0.88830 0.36942 0.41325
 C489 C 0.83343 0.33826 0.33652
 C490 C 0.81543 0.31943 0.31786
 C491 C 0.79448 0.29730 0.29600
 C492 C 0.90037 0.40261 0.40076
 H493 H 0.85725 0.32277 0.40213
 H494 H 0.85853 0.40339 0.32038
 H495 H 0.89791 0.44024 0.35697
 H496 H 0.89661 0.35936 0.43895
 C497 C 0.39165 -0.13493 0.34568
 C498 C 0.35873 -0.14589 0.35823
 C499 C 0.34747 -0.13517 0.39220
 C500 C 0.36872 -0.11313 0.41328
 C501 C 0.27598 -0.22376 0.27656
 C502 C 0.41295 -0.11288 0.36673
 C503 C 0.33618 -0.16741 0.33599
 C504 C 0.31714 -0.18517 0.31729
 C505 C 0.29484 -0.20591 0.29533
 C506 C 0.40153 -0.10147 0.40061
 H507 H 0.40066 -0.14307 0.31945
 H508 H 0.32208 -0.14348 0.40222
 H509 H 0.35923 -0.10477 0.43925
 H510 H 0.43807 -0.10432 0.35627
 C511 C 0.34860 0.39483 -0.13521
 C512 C 0.36003 0.36111 -0.14635
 C513 C 0.39288 0.34854 -0.13554
 C514 C 0.41394 0.36933 -0.11309
 C515 C 0.27751 0.27930 -0.22374
 C516 C 0.36962 0.41565 -0.11276
 C517 C 0.33760 0.33896 -0.16792
 C518 C 0.31862 0.32025 -0.18561
 C519 C 0.29637 0.29820 -0.20613
 C520 C 0.40231 0.40290 -0.10115
 H521 H 0.32322 0.40480 -0.14343
 H522 H 0.40197 0.32247 -0.14402
 H523 H 0.43901 0.35885 -0.10456
 H524 H 0.36000 0.44142 -0.10399
 C525 C 1.13406 -0.10787 0.15366
 C526 C 1.14513 -0.14139 0.14141
 C527 C 1.13406 -0.15364 0.10790
 C528 C 1.11168 -0.13277 0.08699
 C529 C 1.22412 -0.22294 0.22296
 C530 C 1.11168 -0.08697 0.13280
 C531 C 1.16714 -0.16351 0.16354
 C532 C 1.18526 -0.18217 0.18219
 C533 C 1.20628 -0.20415 0.20417
 C534 C 1.10000 -0.09934 0.09936
 H535 H 1.14241 -0.09806 0.17953
 H536 H 1.14241 -0.17950 0.09808
 H537 H 1.10314 -0.14303 0.06138
 H538 H 1.10314 -0.06135 0.14305
 C539 C 1.13267 0.39353 0.65229
 C540 C 1.14355 0.35998 0.64005
 C541 C 1.13267 0.34773 0.60650
 C542 C 1.11053 0.36867 0.58551
 C543 C 1.22188 0.27851 0.72152
 C544 C 1.11053 0.41451 0.63135
 C545 C 1.16516 0.33778 0.66225
 C546 C 1.18303 0.31907 0.68096
 C547 C 1.20389 0.29714 0.70288
 C548 C 1.09896 0.40211 0.59791
 H549 H 1.14095 0.40327 0.67821
 H550 H 1.14095 0.32181 0.59675
 H551 H 1.10203 0.35845 0.55987
 H552 H 1.10203 0.44016 0.64158
 C553 C 0.60603 -0.13416 0.65253
 C554 C 0.63885 -0.14523 0.63991
 C555 C 0.65029 -0.13461 0.60605
 C556 C 0.62930 -0.11245 0.58513
 C557 C 0.72111 -0.22235 0.72145
 C558 C 0.58499 -0.11199 0.63163
 C559 C 0.66122 -0.16661 0.66208
 C560 C 0.68014 -0.18422 0.68076
 C561 C 0.70232 -0.20470 0.70270
 C562 C 0.59662 -0.10061 0.59790
 H563 H 0.59693 -0.14224 0.67870
 H564 H 0.67564 -0.14304 0.59603
 H565 H 0.63891 -0.10411 0.55924
 H566 H 0.55994 -0.10327 0.64213
 C567 C 0.65029 0.39397 0.13464
 C568 C 0.63885 0.36011 0.14525
 C569 C 0.60603 0.34750 0.13418
 C570 C 0.58499 0.36839 0.11202
 C571 C 0.72111 0.27857 0.22237
 C572 C 0.62930 0.41490 0.11248
 C573 C 0.66122 0.33794 0.16664
 C574 C 0.68014 0.31926 0.18424
 C575 C 0.70232 0.29733 0.20473
 C576 C 0.59662 0.40213 0.10063
 H577 H 0.67564 0.40399 0.14307
 H578 H 0.59693 0.32132 0.14226
 H579 H 0.55994 0.35789 0.10329
 H580 H 0.63891 0.44079 0.10413
 C581 C 0.86558 0.15138 0.10675
 C582 C 0.85444 0.13934 0.14026
 C583 C 0.86572 0.10610 0.15273
 C584 C 0.88849 0.08525 0.13208
 C585 C 0.77550 0.22170 0.22134
 C586 C 0.88835 0.13059 0.08607
 C587 C 0.83231 0.16155 0.16224
 C588 C 0.81417 0.18040 0.18078
 C589 C 0.79324 0.20265 0.20263
 C590 C 0.90032 0.09747 0.09870
 H591 H 0.85704 0.17706 0.09682
 H592 H 0.85729 0.09650 0.17862
 H593 H 0.89727 0.05986 0.14249
 H594 H 0.89701 0.14068 0.06047
 C595 C 0.86662 0.65367 0.60619
 C596 C 0.85525 0.64133 0.63951
 C597 C 0.86590 0.60772 0.65152
 C598 C 0.88830 0.58677 0.63060
 C599 C 0.77647 0.72264 0.72157
 C600 C 0.88903 0.63276 0.58523
 C601 C 0.83343 0.66350 0.66176
 C602 C 0.81543 0.68216 0.68059
 C603 C 0.79448 0.70403 0.70273
 C604 C 0.90037 0.59926 0.59742
 H605 H 0.85853 0.67964 0.59663
 H606 H 0.85725 0.59790 0.67725
 H607 H 0.89661 0.56108 0.64066
 H608 H 0.89791 0.64305 0.55979
 C609 C 0.34860 0.13523 0.60519
 C610 C 0.36003 0.14637 0.63892
 C611 C 0.39288 0.13556 0.65148
 C612 C 0.41394 0.11311 0.63069
 C613 C 0.27751 0.22376 0.72072
 C614 C 0.36962 0.11279 0.58437
 C615 C 0.33760 0.16794 0.66106
 C616 C 0.31862 0.18564 0.67978
 C617 C 0.29637 0.20616 0.70183
 C618 C 0.40231 0.10117 0.59712
 H619 H 0.32322 0.14346 0.59522
 H620 H 0.40197 0.14405 0.67756
 H621 H 0.43901 0.10458 0.64117
 H622 H 0.36000 0.10402 0.55861
 C623 C 0.39165 0.65434 0.13496
 C624 C 0.35873 0.64179 0.14591
 C625 C 0.34747 0.60782 0.13519
 C626 C 0.36872 0.58675 0.11315
 C627 C 0.27598 0.72346 0.22378
 C628 C 0.41295 0.63329 0.11291
 C629 C 0.33618 0.66404 0.16743
 C630 C 0.31714 0.68273 0.18520
 C631 C 0.29484 0.70469 0.20594
 C632 C 0.40153 0.59942 0.10149
 H633 H 0.40066 0.68058 0.14309
 H634 H 0.32208 0.59780 0.14350
 H635 H 0.35923 0.56077 0.10479
 H636 H 0.43807 0.64376 0.10434
   
