data_POSCAR
  _audit_creation_date              2014-09-24
  _audit_creation_method            'ToBaCCo'
  _symmetry_space_group_name_H-M    'P1'
  _symmetry_Int_Tables_number       1
  _symmetry_cell_setting            triclinic
  loop_
  _symmetry_equiv_pos_as_xyz
 x,y,z
_cell_length_a 44.9004
_cell_length_b 44.7872
_cell_length_c 7.0219
_cell_angle_alpha 89.998300
_cell_angle_beta 90.013300
_cell_angle_gamma 90.073900
loop_
  _atom_site_label
  _atom_site_type_symbol
  _atom_site_fract_x
  _atom_site_fract_y
  _atom_site_fract_z
C1 C 0.18681 0.22180 0.25635
 C2 C 0.17159 0.24900 0.25847
 C3 C 0.18694 0.27612 0.25673
 C4 C 0.21839 0.27640 0.25352
 C5 C 0.23414 0.24895 0.25158
 C6 C 0.21833 0.22149 0.25337
 C7 C 0.23444 0.19456 0.25132
 C8 C 0.26544 0.19459 0.24751
 C9 C 0.28157 0.22155 0.24495
 C10 C 0.26576 0.24899 0.24665
 C11 C 0.23447 0.30336 0.25121
 C12 C 0.26547 0.30339 0.24704
 C13 C 0.28153 0.27647 0.24460
 C14 C 0.31298 0.27625 0.24115
 C15 C 0.32831 0.24916 0.23927
 C16 C 0.31308 0.22193 0.24167
 H17 H 0.22316 0.17317 0.25291
 H18 H 0.27671 0.17323 0.24629
 H19 H 0.22319 0.32471 0.25284
 H20 H 0.27676 0.32476 0.24545
 H21 H 0.14740 0.24912 0.25878
 H22 H 0.35251 0.24933 0.23870
 C23 C 0.81386 0.27753 0.25484
 C24 C 0.82902 0.25030 0.25671
 C25 C 0.81362 0.22320 0.25534
 C26 C 0.78217 0.22298 0.25278
 C27 C 0.76648 0.25046 0.25097
 C28 C 0.78234 0.27790 0.25229
 C29 C 0.76627 0.30487 0.25012
 C30 C 0.73526 0.30488 0.24687
 C31 C 0.71914 0.27795 0.24513
 C32 C 0.73487 0.25049 0.24673
 C33 C 0.76602 0.19606 0.25116
 C34 C 0.73501 0.19610 0.24769
 C35 C 0.71901 0.22306 0.24532
 C36 C 0.68755 0.22339 0.24246
 C37 C 0.67234 0.25055 0.24079
 C38 C 0.68768 0.27769 0.24274
 H39 H 0.77758 0.32624 0.25119
 H40 H 0.72399 0.32624 0.24552
 H41 H 0.77726 0.17468 0.25279
 H42 H 0.72365 0.17475 0.24667
 H43 H 0.85322 0.25013 0.25668
 H44 H 0.64816 0.25058 0.24076
 C45 C 0.68748 0.72359 0.75655
 C46 C 0.67226 0.75075 0.75827
 C47 C 0.68759 0.77788 0.75627
 C48 C 0.71905 0.77816 0.75367
 C49 C 0.73478 0.75070 0.75215
 C50 C 0.71893 0.72326 0.75361
 C51 C 0.73493 0.69630 0.75115
 C52 C 0.76594 0.69626 0.74780
 C53 C 0.78209 0.72319 0.74641
 C54 C 0.76639 0.75067 0.74809
 C55 C 0.73517 0.80509 0.75172
 C56 C 0.76618 0.80507 0.74868
 C57 C 0.78226 0.77811 0.74688
 C58 C 0.81377 0.77774 0.74483
 C59 C 0.82894 0.75051 0.74314
 C60 C 0.81354 0.72341 0.74430
 H61 H 0.72358 0.67495 0.75204
 H62 H 0.77718 0.67489 0.74611
 H63 H 0.72390 0.82645 0.75296
 H64 H 0.77749 0.82644 0.74755
 H65 H 0.64808 0.75077 0.75855
 H66 H 0.85313 0.75034 0.74357
 C67 C 0.18566 0.72265 0.74387
 C68 C 0.17040 0.74982 0.74209
 C69 C 0.18570 0.77701 0.74371
 C70 C 0.21721 0.77732 0.74628
 C71 C 0.23297 0.74986 0.74789
 C72 C 0.21717 0.72238 0.74627
 C73 C 0.23331 0.69545 0.74789
 C74 C 0.26431 0.69549 0.75148
 C75 C 0.28037 0.72244 0.75410
 C76 C 0.26459 0.74988 0.75248
 C77 C 0.23338 0.80427 0.74812
 C78 C 0.26438 0.80427 0.75190
 C79 C 0.28040 0.77733 0.75431
 C80 C 0.31186 0.77705 0.75751
 C81 C 0.32712 0.74991 0.75966
 C82 C 0.31183 0.72276 0.75745
 H83 H 0.22204 0.67405 0.74620
 H84 H 0.27561 0.67414 0.75259
 H85 H 0.22215 0.82565 0.74657
 H86 H 0.27570 0.82562 0.75324
 H87 H 0.14618 0.74981 0.74226
 H88 H 0.35130 0.74993 0.76031
 O89 O 0.97135 -0.01886 -0.21536
 O90 O 1.02946 0.03512 -0.07839
 O91 O 1.02953 -0.01894 -0.21522
 O92 O 0.97169 0.03522 -0.07907
 O93 O 0.97139 0.01818 0.21626
 O94 O 1.02924 -0.03596 0.08021
 O95 O 1.02959 0.01811 0.21705
 O96 O 0.97150 -0.03589 0.08001
 Cu97 Cu 1.00052 0.01005 -0.17581
 Cu98 Cu 1.00043 -0.01079 0.17721
 C99 C 0.96173 -0.03671 -0.08916
 C100 C 1.03922 0.03595 0.09080
 C101 C 1.03903 -0.03682 -0.08886
 C102 C 0.96188 0.03605 0.08994
 O103 O 0.47076 0.48160 0.28416
 O104 O 0.52857 0.53592 0.42055
 O105 O 0.52894 0.48187 0.28378
 O106 O 0.47080 0.53566 0.42062
 O107 O 0.47069 0.51862 0.71601
 O108 O 0.52880 0.46481 0.57912
 O109 O 0.52889 0.51884 0.71580
 O110 O 0.47104 0.46455 0.57949
 Cu111 Cu 0.49976 0.51068 0.32342
 Cu112 Cu 0.49986 0.48980 0.67639
 C113 C 0.46125 0.46369 0.41042
 C114 C 0.53840 0.53675 0.58956
 C115 C 0.53858 0.46405 0.41000
 C116 C 0.46104 0.53643 0.58980
 O117 O 0.02926 0.51834 -0.21572
 O118 O -0.02870 0.46419 -0.07893
 O119 O -0.02892 0.51826 -0.21556
 O120 O 0.02907 0.46424 -0.07931
 O121 O 0.02931 0.48124 0.21613
 O122 O -0.02867 0.53526 0.07992
 O123 O -0.02887 0.48120 0.21650
 O124 O 0.02908 0.53534 0.07973
 Cu125 Cu 0.00018 0.48935 -0.17619
 Cu126 Cu 0.00022 0.51017 0.17686
 C127 C 0.03883 0.53621 -0.08946
 C128 C -0.03846 0.46334 0.09021
 C129 C -0.03847 0.53610 -0.08917
 C130 C 0.03886 0.46340 0.08979
 O131 O 0.47060 1.03589 0.57909
 O132 O 0.52862 0.98195 0.71621
 O133 O 0.52837 1.03601 0.57967
 O134 O 0.47040 0.98184 0.71587
 O135 O 0.47068 0.96477 0.42061
 O136 O 0.52862 1.01895 0.28436
 O137 O 0.52845 0.96491 0.42082
 O138 O 0.47044 1.01882 0.28378
 Cu139 Cu 0.49949 1.01082 0.67649
 Cu140 Cu 0.49955 0.98995 0.32356
 C141 C 0.46084 1.03667 0.40990
 C142 C 0.53824 0.96413 0.58995
 C143 C 0.53818 1.03683 0.41065
 C144 C 0.46086 0.96395 0.58959
 C145 C 1.13500 0.14828 0.22425
 C146 C 1.15084 0.11928 0.16695
 C147 C 1.13207 0.09546 0.14900
 C148 C 1.09935 0.10304 0.19008
 C149 C 1.09202 0.12899 0.05527
 C150 C 1.11072 0.15273 0.07322
 C151 C 1.11814 0.14063 0.40825
 C152 C 1.09937 0.11683 0.39024
 C153 C 1.15477 0.17422 0.24116
 C154 C 1.17019 0.19623 0.25026
 C155 C 1.07876 0.07785 0.16687
 C156 C 1.06106 0.05812 0.13798
 H157 H 1.17465 0.11761 0.14238
 H158 H 1.13980 0.07338 0.10894
 H159 H 1.07379 0.12868 -0.04642
 H160 H 1.10851 0.17273 -0.01303
 H161 H 1.12079 0.15275 0.54114
 H162 H 1.08596 0.10856 0.50759
 C163 C 0.63446 0.64883 0.72400
 C164 C 0.65050 0.61860 0.71475
 C165 C 0.63163 0.59486 0.69624
 C166 C 0.59863 0.60375 0.68890
 C167 C 0.59645 0.62633 0.52501
 C168 C 0.61525 0.64998 0.54346
 C169 C 0.61221 0.64579 0.88896
 C170 C 0.59336 0.62208 0.87046
 C171 C 0.65434 0.67467 0.74129
 C172 C 0.66987 0.69659 0.75053
 C173 C 0.57796 0.57865 0.66532
 C174 C 0.56022 0.55894 0.63652
 H175 H 0.67452 0.61608 0.72202
 H176 H 0.63948 0.57199 0.68759
 H177 H 0.58156 0.62385 0.40412
 H178 H 0.61644 0.66775 0.43849
 H179 H 0.61145 0.66081 1.01021
 H180 H 0.57646 0.61680 0.97576
 C181 C -0.13423 0.35099 0.22311
 C182 C -0.12149 0.36200 0.41369
 C183 C -0.10270 0.38581 0.39576
 C184 C -0.09855 0.39620 0.18911
 C185 C -0.13016 0.40232 0.11523
 C186 C -0.14893 0.37852 0.13316
 C187 C -0.10693 0.34462 0.09835
 C188 C -0.08821 0.36835 0.08048
 C189 C -0.15402 0.32506 0.23978
 C190 C -0.16948 0.30308 0.24879
 C191 C -0.07796 0.42139 0.16598
 C192 C -0.06027 0.44114 0.13729
 H193 H -0.12679 0.35205 0.55056
 H194 H -0.09193 0.39624 0.51719
 H195 H -0.13715 0.42343 0.05401
 H196 H -0.17202 0.37924 0.08729
 H197 H -0.10272 0.32335 0.02928
 H198 H -0.06796 0.36738 -0.00390
 C199 C 0.36479 0.85188 0.72395
 C200 C 0.37825 0.85491 0.52406
 C201 C 0.39705 0.87858 0.50553
 C202 C 0.40060 0.89697 0.68867
 C203 C 0.41045 0.87443 0.84071
 C204 C 0.39162 0.85073 0.85932
 C205 C 0.34991 0.88211 0.76361
 C206 C 0.36877 0.90586 0.74497
 C207 C 0.34493 0.82601 0.74141
 C208 C 0.32943 0.80407 0.75104
 C209 C 0.42127 0.92208 0.66517
 C210 C 0.43901 0.94178 0.63645
 H211 H 0.37334 0.83987 0.40685
 H212 H 0.40822 0.88378 0.37242
 H213 H 0.43037 0.87694 0.92685
 H214 H 0.39542 0.83292 0.96136
 H215 H 0.32665 0.88463 0.80266
 H216 H 0.36170 0.92874 0.76815
 C217 C -0.13397 0.64842 -0.22268
 C218 C -0.12963 0.63084 -0.40847
 C219 C -0.11091 0.60702 -0.39021
 C220 C -0.09843 0.60320 -0.18806
 C221 C -0.12591 0.60148 -0.05826
 C222 C -0.14460 0.62526 -0.07651
 C223 C -0.10244 0.65699 -0.15846
 C224 C -0.08379 0.63326 -0.14031
 C225 C -0.15367 0.67436 -0.23985
 C226 C -0.16904 0.69635 -0.24928
 C227 C -0.07791 0.57801 -0.16473
 C228 C -0.06026 0.55827 -0.13605
 H229 H -0.14029 0.63657 -0.54234
 H230 H -0.10555 0.59234 -0.50832
 H231 H -0.13025 0.58324 0.03976
 H232 H -0.16496 0.62739 0.00567
 H233 H -0.09539 0.67974 -0.12919
 H234 H -0.06077 0.63568 -0.09538
 C235 C 0.36493 1.14860 0.27451
 C236 C 0.38019 1.13958 0.08740
 C237 C 0.39900 1.11586 0.10594
 C238 C 0.40066 1.10354 0.30971
 C239 C 0.36830 1.09638 0.36420
 C240 C 0.34950 1.12010 0.34564
 C241 C 0.39047 1.15405 0.41550
 C242 C 0.40921 1.13040 0.43398
 C243 C 0.34513 1.17445 0.25720
 C244 C 0.32969 1.19640 0.24786
 C245 C 0.42128 1.07845 0.33347
 C246 C 0.43900 1.05878 0.36258
 H247 H 0.37648 1.15075 -0.04776
 H248 H 0.41139 1.10672 -0.01326
 H249 H 0.36084 1.07463 0.41320
 H250 H 0.32592 1.11869 0.37876
 H251 H 0.39349 1.17466 0.49469
 H252 H 0.42829 1.13078 0.52902
 C253 C 1.13420 -0.14939 -0.22331
 C254 C 1.13739 -0.12632 -0.38404
 C255 C 1.11873 -0.10246 -0.36554
 C256 C 1.09877 -0.10408 -0.18823
 C257 C 1.12032 -0.10788 -0.02010
 C258 C 1.13894 -0.13169 -0.03855
 C259 C 1.10109 -0.15791 -0.22256
 C260 C 1.08249 -0.13412 -0.20415
 C261 C 1.15384 -0.17537 -0.24059
 C262 C 1.16917 -0.19740 -0.24998
 C263 C 1.07833 -0.07885 -0.16465
 C264 C 1.06074 -0.05906 -0.13580
 H265 H 1.15286 -0.12856 -0.50196
 H266 H 1.11820 -0.08425 -0.46753
 H267 H 1.12085 -0.09321 0.10299
 H268 H 1.15542 -0.13740 0.06859
 H269 H 1.09296 -0.18067 -0.23536
 H270 H 1.05843 -0.13651 -0.20107
 C271 C 0.63485 0.35242 0.27624
 C272 C 0.63697 0.37489 0.11141
 C273 C 0.61807 0.39857 0.12968
 C274 C 0.59897 0.39737 0.31092
 C275 C 0.62132 0.39452 0.47544
 C276 C 0.64019 0.37090 0.45720
 C277 C 0.60188 0.34347 0.28465
 C278 C 0.58304 0.36706 0.30284
 C279 C 0.65472 0.32663 0.25897
 C280 C 0.67019 0.30471 0.24937
 C281 C 0.57826 0.42239 0.33425
 C282 C 0.56048 0.44201 0.36292
 H283 H 0.65193 0.37239 -0.00898
 H284 H 0.61682 0.41636 0.02502
 H285 H 0.62220 0.40967 0.59607
 H286 H 0.65722 0.36583 0.56209
 H287 H 0.59401 0.32056 0.27718
 H288 H 0.55904 0.36437 0.31096
 C289 C 0.86572 -0.14885 -0.22238
 C290 C 0.89871 -0.15709 -0.24338
 C291 C 0.91749 -0.13338 -0.22534
 C292 C 0.90148 -0.10370 -0.18814
 C293 C 0.88228 -0.10938 -0.01078
 C294 C 0.86349 -0.13310 -0.02882
 C295 C 0.86036 -0.12423 -0.37084
 C296 C 0.87920 -0.10045 -0.35282
 C297 C 0.84589 -0.17474 -0.23938
 C298 C 0.83043 -0.19671 -0.24869
 C299 C 0.92212 -0.07856 -0.16495
 C300 C 0.93986 -0.05885 -0.13629
 H301 H 0.90664 -0.17959 -0.27012
 H302 H 0.94151 -0.13558 -0.23675
 H303 H 0.88338 -0.09597 0.11788
 H304 H 0.84850 -0.14000 0.08438
 H305 H 0.84335 -0.12542 -0.48050
 H306 H 0.87835 -0.08125 -0.44699
 C307 C 0.36566 0.35125 0.27447
 C308 C 0.35304 0.37632 0.39962
 C309 C 0.37177 0.40011 0.41859
 C310 C 0.40127 0.39648 0.31046
 C311 C 0.39226 0.39014 0.10337
 C312 C 0.37351 0.36632 0.08442
 C313 C 0.39573 0.34330 0.36487
 C314 C 0.41441 0.36704 0.38379
 C315 C 0.34591 0.32530 0.25681
 C316 C 0.33049 0.30331 0.24734
 C317 C 0.42182 0.42168 0.33445
 C318 C 0.43948 0.44145 0.36338
 H319 H 0.33134 0.37544 0.46756
 H320 H 0.36612 0.41962 0.50296
 H321 H 0.39987 0.40320 -0.01747
 H322 H 0.36505 0.35898 -0.05269
 H323 H 0.40179 0.32096 0.41072
 H324 H 0.43647 0.36502 0.44592
 C325 C 0.13412 0.64894 -0.22316
 C326 C 0.11183 0.65198 -0.05876
 C327 C 0.09324 0.62816 -0.04061
 C328 C 0.09869 0.60354 -0.18859
 C329 C 0.13176 0.59549 -0.16731
 C330 C 0.15042 0.61940 -0.18549
 C331 C 0.11498 0.64311 -0.40060
 C332 C 0.09632 0.61923 -0.38243
 C333 C 0.15376 0.67498 -0.24028
 C334 C 0.16910 0.69704 -0.24972
 C335 C 0.07821 0.57826 -0.16532
 C336 C 0.06059 0.55846 -0.13659
 H337 H 0.11086 0.67111 0.03608
 H338 H 0.07636 0.62689 0.06990
 H339 H 0.13980 0.57304 -0.14010
 H340 H 0.17445 0.61745 -0.17380
 H341 H 0.11610 0.65645 -0.52949
 H342 H 0.08144 0.61213 -0.49566
 C343 C 0.63449 1.14867 0.27540
 C344 C 0.61216 1.15208 0.43926
 C345 C 0.59332 1.12847 0.45795
 C346 C 0.59856 1.10368 0.31086
 C347 C 0.63154 1.09529 0.33293
 C348 C 0.65046 1.11898 0.31424
 C349 C 0.61535 1.14290 0.09779
 C350 C 0.59644 1.11923 0.11651
 C351 C 0.65441 1.17448 0.25799
 C352 C 0.66995 1.19639 0.24858
 C353 C 0.57783 1.07863 0.33471
 C354 C 0.56005 1.05897 0.36371
 H355 H 0.61133 1.17131 0.53331
 H356 H 0.57636 1.12749 0.56804
 H357 H 0.63932 1.07278 0.36106
 H358 H 0.67446 1.11677 0.32615
 H359 H 0.61663 1.15614 -0.03149
 H360 H 0.58152 1.11221 0.00331
 C361 C 0.13436 0.35107 0.22430
 C362 C 0.10913 0.35148 0.37179
 C363 C 0.09044 0.37525 0.35333
 C364 C 0.09883 0.39630 0.18925
 C365 C 0.10007 0.37630 0.01189
 C366 C 0.11870 0.35256 0.03033
 C367 C 0.15004 0.38138 0.24614
 C368 C 0.13132 0.40520 0.22761
 C369 C 0.15406 0.32513 0.24153
 C370 C 0.16946 0.30316 0.25075
 C371 C 0.07830 0.42148 0.16566
 C372 C 0.06065 0.44122 0.13683
 H373 H 0.10629 0.33467 0.48177
 H374 H 0.07158 0.37880 0.44740
 H375 H 0.08751 0.38053 -0.11751
 H376 H 0.12206 0.33645 -0.08324
 H377 H 0.17370 0.38389 0.27372
 H378 H 0.13894 0.42814 0.23938
 C379 C 0.63468 0.85257 0.72286
 C380 C 0.60646 0.84983 0.84510
 C381 C 0.58757 0.87344 0.82703
 C382 C 0.59873 0.89748 0.68857
 C383 C 0.60451 0.88088 0.50085
 C384 C 0.62338 0.85731 0.51888
 C385 C 0.64868 0.88255 0.78044
 C386 C 0.62975 0.90621 0.76236
 C387 C 0.65459 0.82679 0.73998
 C388 C 0.67009 0.80490 0.74953
 C389 C 0.57798 0.92248 0.66549
 C390 C 0.56016 0.94208 0.63689
 H391 H 0.60178 0.83105 0.93817
 H392 H 0.56671 0.87487 0.90460
 H393 H 0.59471 0.88717 0.36523
 H394 H 0.62972 0.84342 0.39880
 H395 H 0.67142 0.88497 0.83077
 H396 H 0.63625 0.92891 0.79723
 C397 C 0.86621 0.14824 0.22336
 C398 C 0.87268 0.13225 0.41247
 C399 C 0.89144 0.10847 0.39424
 C400 C 0.90184 0.10309 0.18876
 C401 C 0.91560 0.13283 0.12499
 C402 C 0.89691 0.15653 0.14319
 C403 C 0.85436 0.12382 0.08985
 C404 C 0.87311 0.10007 0.07162
 C405 C 0.84646 0.17415 0.24034
 C406 C 0.83106 0.19613 0.24938
 C407 C 0.92241 0.07794 0.16547
 C408 C 0.94009 0.05822 0.13684
 H409 H 0.86336 0.13899 0.54850
 H410 H 0.89819 0.09485 0.51461
 H411 H 0.93809 0.13508 0.06984
 H412 H 0.90338 0.17906 0.10356
 H413 H 0.83314 0.12506 0.01620
 H414 H 0.86794 0.08097 -0.01774
 C415 C 0.36475 0.64806 0.72444
 C416 C 0.37458 0.64224 0.51854
 C417 C 0.39341 0.61864 0.50017
 C418 C 0.40063 0.60310 0.68950
 C419 C 0.37024 0.59468 0.77433
 C420 C 0.35134 0.61836 0.79274
 C421 C 0.39382 0.65155 0.83743
 C422 C 0.41268 0.62793 0.81904
 C423 C 0.34487 0.67385 0.74173
 C424 C 0.32937 0.69576 0.75121
 C425 C 0.42134 0.57808 0.66594
 C426 C 0.43913 0.55847 0.63700
 H427 H 0.36733 0.65547 0.39754
 H428 H 0.40228 0.61167 0.36334
 H429 H 0.36413 0.57217 0.81634
 H430 H 0.32902 0.61614 0.85050
 H431 H 0.39908 0.67084 0.92489
 H432 H 0.43408 0.62698 0.89073
   
