data_POSCAR
  _audit_creation_date              2014-09-24
  _audit_creation_method            'ToBaCCo'
  _symmetry_space_group_name_H-M    'P1'
  _symmetry_Int_Tables_number       1
  _symmetry_cell_setting            triclinic
  loop_
  _symmetry_equiv_pos_as_xyz
 x,y,z
_cell_length_a 66.2037
_cell_length_b 66.4447
_cell_length_c 25.4716
_cell_angle_alpha 89.866500
_cell_angle_beta 90.069900
_cell_angle_gamma 120.009200
loop_
  _atom_site_label
  _atom_site_type_symbol
  _atom_site_fract_x
  _atom_site_fract_y
  _atom_site_fract_z
C1 C 0.21077 0.50657 0.44956
 C2 C 0.20001 0.50563 0.49740
 C3 C 0.20999 0.50599 0.54624
 C4 C 0.23252 0.50815 0.54727
 C5 C 0.24394 0.50917 0.49904
 C6 C 0.23294 0.50810 0.45006
 C7 C 0.24518 0.51022 0.40331
 C8 C 0.26707 0.51224 0.40411
 C9 C 0.27809 0.51303 0.45166
 C10 C 0.26655 0.51142 0.49970
 C11 C 0.24365 0.50829 0.59450
 C12 C 0.26584 0.51099 0.59500
 C13 C 0.27762 0.51214 0.54825
 C14 C 0.30060 0.51527 0.54821
 C15 C 0.31165 0.51743 0.49986
 C16 C 0.30048 0.51547 0.45225
 H17 H 0.23843 0.51095 0.36526
 H18 H 0.27551 0.51371 0.36680
 H19 H 0.23560 0.50622 0.63228
 H20 H 0.27360 0.51257 0.63309
 H21 H 0.18304 0.50443 0.49643
 H22 H 0.32879 0.51901 0.49883
 C23 C 0.49893 -0.29217 0.55402
 C24 C 0.50021 -0.30274 0.50806
 C25 C 0.49808 -0.29511 0.45795
 C26 C 0.49540 -0.27507 0.45441
 C27 C 0.49440 -0.26384 0.50142
 C28 C 0.49592 -0.27266 0.55118
 C29 C 0.49607 -0.26083 0.59677
 C30 C 0.49518 -0.24043 0.59415
 C31 C 0.49357 -0.23103 0.54573
 C32 C 0.49348 -0.24283 0.49874
 C33 C 0.49597 -0.26452 0.40598
 C34 C 0.49508 -0.24410 0.40337
 C35 C 0.49409 -0.23287 0.44900
 C36 C 0.49538 -0.21108 0.44615
 C37 C 0.49587 -0.19955 0.49213
 C38 C 0.49441 -0.20912 0.54222
 H39 H 0.49788 -0.26672 0.63522
 H40 H 0.49714 -0.23173 0.63095
 H41 H 0.49841 -0.27089 0.36914
 H42 H 0.49614 -0.23669 0.36490
 H43 H 0.50224 -0.31791 0.51204
 H44 H 0.49672 -0.18288 0.48822
 C45 C 1.28684 0.79473 0.45292
 C46 C 1.29372 0.80623 0.50142
 C47 C 1.28741 0.79438 0.54971
 C48 C 1.27095 0.77009 0.54970
 C49 C 1.26194 0.75835 0.50117
 C50 C 1.26998 0.77061 0.45271
 C51 C 1.25951 0.75878 0.40578
 C52 C 1.24284 0.73535 0.40576
 C53 C 1.23504 0.72279 0.45279
 C54 C 1.24432 0.73435 0.50106
 C55 C 1.26193 0.75745 0.59659
 C56 C 1.24536 0.73396 0.59625
 C57 C 1.23556 0.72209 0.54915
 C58 C 1.21793 0.69813 0.54852
 C59 C 1.21080 0.68675 0.49989
 C60 C 1.21809 0.69894 0.45260
 H61 H 1.26327 0.76751 0.36832
 H62 H 1.23597 0.72720 0.36817
 H63 H 1.26685 0.76543 0.63472
 H64 H 1.24060 0.72530 0.63386
 H65 H 1.30656 0.82461 0.50150
 H66 H 1.19716 0.66864 0.49840
 C67 C 0.69949 0.48334 0.54849
 C68 C 0.68789 0.47959 0.50013
 C69 C 0.69955 0.48313 0.45251
 C70 C 0.72305 0.48865 0.45197
 C71 C 0.73489 0.49102 0.50002
 C72 C 0.72323 0.48861 0.54850
 C73 C 0.73541 0.49062 0.59524
 C74 C 0.75865 0.49628 0.59476
 C75 C 0.77068 0.49873 0.54744
 C76 C 0.75860 0.49633 0.49940
 C77 C 0.73502 0.49209 0.40438
 C78 C 0.75820 0.49764 0.40372
 C79 C 0.77028 0.49967 0.45060
 C80 C 0.79401 0.50588 0.44992
 C81 C 0.80591 0.50921 0.49722
 C82 C 0.79470 0.50490 0.54624
 H83 H 0.72719 0.48759 0.63322
 H84 H 0.76694 0.49924 0.63256
 H85 H 0.72655 0.49059 0.36704
 H86 H 0.76663 0.50071 0.36587
 H87 H 0.67004 0.47614 0.49904
 H88 H 0.82403 0.51361 0.49522
 C89 C 0.50864 0.21246 0.55075
 C90 C 0.50944 0.20213 0.50377
 C91 C 0.50965 0.21196 0.45517
 C92 C 0.50906 0.23292 0.45306
 C93 C 0.50799 0.24361 0.50050
 C94 C 0.50790 0.23336 0.54952
 C95 C 0.50546 0.24333 0.59573
 C96 C 0.50282 0.26281 0.59416
 C97 C 0.50312 0.27369 0.54629
 C98 C 0.50543 0.26365 0.49877
 C99 C 0.50806 0.24267 0.40488
 C100 C 0.50543 0.26213 0.40305
 C101 C 0.50379 0.27271 0.44933
 C102 C 0.49915 0.29122 0.44746
 C103 C 0.49638 0.30052 0.49406
 C104 C 0.49899 0.29283 0.54375
 H105 H 0.50469 0.23564 0.63371
 H106 H 0.49929 0.26819 0.63121
 H107 H 0.50859 0.23496 0.36795
 H108 H 0.50392 0.26829 0.36474
 H109 H 0.50929 0.18571 0.50504
 H110 H 0.49316 0.31497 0.49101
 C111 C 0.70268 0.21095 0.45411
 C112 C 0.69334 0.20061 0.50251
 C113 C 0.70380 0.21136 0.54981
 C114 C 0.72455 0.23321 0.54912
 C115 C 0.73446 0.24399 0.50032
 C116 C 0.72334 0.23287 0.45255
 C117 C 0.73386 0.24329 0.40465
 C118 C 0.75515 0.26386 0.40341
 C119 C 0.76678 0.27487 0.45001
 C120 C 0.75625 0.26516 0.49916
 C121 C 0.73644 0.24377 0.59563
 C122 C 0.75777 0.26436 0.59460
 C123 C 0.76806 0.27574 0.54697
 C124 C 0.79070 0.29603 0.54497
 C125 C 0.80096 0.30438 0.49549
 C126 C 0.78930 0.29456 0.44867
 H127 H 0.72613 0.23532 0.36749
 H128 H 0.76274 0.27063 0.36530
 H129 H 0.72981 0.23573 0.63345
 H130 H 0.76641 0.27027 0.63187
 H131 H 0.67769 0.18361 0.50338
 H132 H 0.81821 0.31962 0.49279
 O133 O 1.03109 0.48100 -0.09744
 O134 O 1.05778 0.51105 -0.04648
 C135 C 1.05230 0.49598 -0.08389
 O136 O 0.96883 0.52315 -0.08978
 O137 O 0.94190 0.49073 -0.04481
 C138 C 0.94755 0.50756 -0.07809
 O139 O 1.03391 0.55226 -0.09483
 O140 O 1.05889 0.54495 -0.04660
 C141 C 1.05460 0.55612 -0.08264
 O142 O 0.96618 0.44820 -0.09187
 O143 O 0.94066 0.45514 -0.04504
 C144 C 0.94530 0.44355 -0.07930
 Zr145 Zr 0.99897 0.47496 -0.06634
 O146 O 0.99711 0.47348 -0.14930
 O147 O 0.99896 0.44319 -0.06155
 Zr148 Zr 1.00096 0.52665 -0.06555
 O149 O 1.00039 0.52414 -0.14830
 O150 O 1.00140 0.55872 -0.06950
 O151 O 1.02077 0.51063 -0.07614
 O152 O 0.97960 0.49129 -0.07587
 O153 O 0.96600 0.44708 0.08938
 O154 O 0.94073 0.45513 0.04451
 C155 C 0.94520 0.44288 0.07736
 O156 O 1.03370 0.55110 0.09698
 O157 O 1.05889 0.54465 0.04759
 C158 C 1.05446 0.55535 0.08438
 O159 O 0.96887 0.52262 0.09132
 O160 O 0.94209 0.49069 0.04512
 C161 C 0.94764 0.50726 0.07890
 O162 O 1.03110 0.47936 0.09492
 O163 O 1.05755 0.51073 0.04655
 C164 C 1.05225 0.49503 0.08243
 Zr165 Zr 0.99891 0.47427 0.06520
 O166 O 0.99633 0.47264 0.14811
 O167 O 0.99981 0.44287 0.06340
 Zr168 Zr 1.00086 0.52608 0.06644
 O169 O 0.99810 0.52441 0.14934
 O170 O 1.00422 0.55948 0.06618
 Zr171 Zr 1.03493 0.51696 0.00020
 Zr172 Zr 0.96489 0.48409 -0.00025
 O173 O 0.97959 0.49061 0.07550
 O174 O 1.02064 0.50988 0.07648
 O175 O 0.97780 0.46082 -0.00082
 O176 O 1.02157 0.53975 0.00068
 O177 O 1.01934 0.48054 -0.00069
 O178 O 0.98016 0.52057 0.00043
 H179 H 0.96922 0.48647 -0.10696
 H180 H 1.03284 0.55665 0.00129
 H181 H 0.96915 0.48558 0.10649
 H182 H 1.02947 0.47350 -0.00108
 H183 H 1.01274 0.56936 -0.04336
 H184 H 0.99310 0.55924 0.03983
 H185 H 1.01076 0.52209 0.16310
 H186 H 1.00954 0.48714 0.16206
 H187 H 0.98833 0.43271 0.03681
 H188 H 0.99898 0.43827 -0.09824
 H189 H 1.00697 0.48956 -0.16234
 H190 H 1.00027 0.53809 -0.16177
 O191 O 0.52207 0.55156 -0.09482
 O192 O 0.49155 0.54785 -0.04473
 C193 C 0.50711 0.55783 -0.08126
 O194 O 0.47743 0.44706 -0.09449
 O195 O 0.50886 0.45097 -0.04772
 C196 C 0.49244 0.44068 -0.08232
 O197 O 0.44958 0.48394 -0.09685
 O198 O 0.45699 0.51554 -0.04647
 C199 C 0.44577 0.50056 -0.08325
 O200 O 0.55366 0.51806 -0.09093
 O201 O 0.54468 0.48451 -0.04628
 C202 C 0.55712 0.50095 -0.07944
 Zr203 Zr 0.52702 0.52457 -0.06512
 O204 O 0.52925 0.52543 -0.14803
 O205 O 0.55928 0.55575 -0.05752
 Zr206 Zr 0.47441 0.47556 -0.06781
 O207 O 0.47726 0.47793 -0.15050
 O208 O 0.44055 0.44604 -0.07121
 O209 O 0.49137 0.51152 -0.07608
 O210 O 0.50986 0.48904 -0.07679
 O211 O 0.55290 0.51632 0.09057
 O212 O 0.54456 0.48371 0.04303
 C213 C 0.55672 0.49965 0.07740
 O214 O 0.44908 0.48216 0.09477
 O215 O 0.45641 0.51448 0.04704
 C216 C 0.44515 0.49888 0.08276
 O217 O 0.47670 0.44508 0.08832
 O218 O 0.50852 0.45006 0.04160
 C219 C 0.49185 0.43901 0.07529
 O220 O 0.52116 0.54944 0.09892
 O221 O 0.49111 0.54688 0.04885
 C222 C 0.50627 0.55595 0.08645
 Zr223 Zr 0.52639 0.52317 0.06639
 O224 O 0.52791 0.52138 0.14917
 O225 O 0.55816 0.55525 0.06593
 Zr226 Zr 0.47376 0.47401 0.06418
 O227 O 0.47422 0.47143 0.14699
 O228 O 0.43969 0.44475 0.06134
 Zr229 Zr 0.48457 0.51843 0.00059
 Zr230 Zr 0.51602 0.48014 -0.00152
 O231 O 0.50915 0.48746 0.07459
 O232 O 0.49066 0.50980 0.07645
 O233 O 0.54013 0.51609 0.00016
 O234 O 0.46109 0.48241 -0.00133
 O235 O 0.52119 0.53864 0.00139
 O236 O 0.47935 0.45947 -0.00265
 H237 H 0.51469 0.48376 -0.10826
 H238 H 0.44410 0.47671 -0.00159
 H239 H 0.51377 0.48152 0.10535
 H240 H 0.52852 0.55579 0.00231
 H241 H 0.44044 0.43407 -0.04790
 H242 H 0.44052 0.43240 0.04151
 H243 H 0.47712 0.48641 0.16170
 H244 H 0.51285 0.51872 0.16322
 H245 H 0.56875 0.55374 0.04089
 H246 H 0.56474 0.56120 -0.09376
 H247 H 0.51318 0.51909 -0.16152
 H248 H 0.46290 0.46440 -0.16435
 O249 O 0.54914 0.03074 -0.09685
 O250 O 0.54495 0.05685 -0.04572
 C251 C 0.55490 0.05174 -0.08315
 O252 O 0.44468 -0.03258 -0.08944
 O253 O 0.45061 -0.05924 -0.04465
 C254 C 0.43923 -0.05373 -0.07778
 O255 O 0.48004 0.03218 -0.09375
 O256 O 0.51164 0.05756 -0.04440
 C257 C 0.49612 0.05297 -0.08061
 O258 O 0.51762 -0.03402 -0.09260
 O259 O 0.48531 -0.05989 -0.04562
 C260 C 0.50152 -0.05495 -0.08033
 Zr261 Zr 0.52331 -0.00154 -0.06606
 O262 O 0.52315 -0.00290 -0.14904
 O263 O 0.55536 -0.00116 -0.06129
 Zr264 Zr 0.47295 -0.00046 -0.06455
 O265 O 0.47390 -0.00123 -0.14744
 O266 O 0.44260 0.00258 -0.06521
 O267 O 0.50882 0.01980 -0.07519
 O268 O 0.48757 -0.02123 -0.07548
 O269 O 0.51872 -0.03490 0.08865
 O270 O 0.48572 -0.06021 0.04307
 C271 C 0.50244 -0.05568 0.07603
 O272 O 0.48067 0.03132 0.09851
 O273 O 0.51198 0.05713 0.04895
 C274 C 0.49671 0.05221 0.08586
 O275 O 0.44541 -0.03336 0.09224
 O276 O 0.45089 -0.05969 0.04512
 C277 C 0.43976 -0.05442 0.07943
 O278 O 0.55003 0.02989 0.09635
 O279 O 0.54520 0.05640 0.04799
 C280 C 0.55547 0.05100 0.08421
 Zr281 Zr 0.52379 -0.00215 0.06546
 O282 O 0.52284 -0.00529 0.14828
 O283 O 0.55659 -0.00040 0.06323
 Zr284 Zr 0.47334 -0.00108 0.06742
 O285 O 0.47208 -0.00412 0.15028
 O286 O 0.44317 0.00228 0.06775
 Zr287 Zr 0.51640 0.03365 0.00130
 Zr288 Zr 0.48016 -0.03619 -0.00008
 O289 O 0.48813 -0.02188 0.07589
 O290 O 0.50932 0.01905 0.07735
 O291 O 0.51651 -0.02286 -0.00093
 O292 O 0.48002 0.01967 0.00195
 O293 O 0.53780 0.01860 -0.00010
 O294 O 0.45832 -0.02154 0.00119
 H295 H 0.48213 -0.03141 -0.10679
 H296 H 0.47370 0.03040 0.00250
 H297 H 0.48292 -0.03243 0.10668
 H298 H 0.55496 0.02895 -0.00034
 H299 H 0.43111 -0.00955 -0.04153
 H300 H 0.43087 -0.01095 0.04782
 H301 H 0.48700 0.00853 0.16420
 H302 H 0.52063 0.00727 0.16277
 H303 H 0.55558 -0.01162 0.03641
 H304 H 0.56038 -0.00106 -0.09798
 H305 H 0.51569 0.00593 -0.16161
 H306 H 0.45985 -0.00096 -0.15993
 C307 C 1.17232 0.50422 0.31973
 N308 N 1.18374 0.49200 0.32010
 N309 N 1.19684 0.49322 0.36122
 C310 C 1.19871 0.50644 0.40372
 N311 N 1.18685 0.51823 0.40325
 N312 N 1.17420 0.51740 0.36191
 C313 C 1.15724 0.50273 0.27607
 N314 N 1.15563 0.52164 0.26268
 N315 N 1.14019 0.52005 0.22706
 C316 C 1.12544 0.49937 0.20427
 N317 N 1.12707 0.48040 0.21745
 N318 N 1.14283 0.48209 0.25252
 C319 C 1.10704 0.49751 0.16911
 N320 N 1.08641 0.47730 0.16508
 N321 N 1.06894 0.47634 0.13696
 C322 C 1.07161 0.49549 0.11145
 N323 N 1.09235 0.51558 0.11492
 N324 N 1.10967 0.51662 0.14359
 C325 C 0.50165 0.66605 0.33505
 N326 N 0.51278 0.66812 0.38105
 N327 N 0.51160 0.68078 0.41994
 C328 C 0.49953 0.69227 0.41463
 N329 N 0.48820 0.68997 0.36844
 N330 N 0.48922 0.67713 0.32938
 C331 C 0.50307 0.65158 0.29331
 N332 N 0.48924 0.64545 0.24998
 N333 N 0.49023 0.63138 0.21399
 C334 C 0.50517 0.62309 0.22005
 N335 N 0.51908 0.62944 0.26307
 N336 N 0.51801 0.64335 0.29899
 C337 C 0.50597 0.60672 0.18256
 N338 N 0.52176 0.59963 0.18977
 N339 N 0.52206 0.58385 0.15831
 C340 C 0.50656 0.57448 0.11833
 N341 N 0.49082 0.58167 0.11066
 N342 N 0.49054 0.59755 0.14223
 C343 C 0.32378 -0.16580 0.32435
 N344 N 0.31515 -0.18913 0.32457
 N345 N 0.30265 -0.20203 0.36525
 C346 C 0.29827 -0.19219 0.40735
 N347 N 0.30721 -0.16878 0.40686
 N348 N 0.31951 -0.15592 0.36618
 C349 C 0.33844 -0.15100 0.28118
 N350 N 0.34427 -0.12833 0.27957
 N351 N 0.35872 -0.11418 0.24296
 C352 C 0.36804 -0.12205 0.20657
 N353 N 0.36209 -0.14481 0.20772
 N354 N 0.34748 -0.15907 0.24435
 C355 C 0.38534 -0.10545 0.16932
 N356 N 0.39746 -0.11156 0.13611
 N357 N 0.41443 -0.09557 0.10589
 C358 C 0.41982 -0.07297 0.10798
 N359 N 0.40745 -0.06708 0.14063
 N360 N 0.39058 -0.08297 0.17061
 C361 C 0.83351 0.51022 0.31748
 N362 N 0.84148 0.52796 0.35245
 N363 N 0.82856 0.52688 0.39353
 C364 C 0.80706 0.50810 0.40102
 N365 N 0.79903 0.49037 0.36594
 N366 N 0.81199 0.49142 0.32485
 C367 C 0.84876 0.51079 0.27492
 N368 N 0.84207 0.49230 0.24246
 N369 N 0.85678 0.49232 0.20667
 C370 C 0.87870 0.51082 0.20212
 N371 N 0.88522 0.52937 0.23413
 N372 N 0.87055 0.52936 0.26981
 C373 C 0.89586 0.51038 0.16627
 N374 N 0.91826 0.52807 0.16717
 N375 N 0.93450 0.52721 0.13816
 C376 C 0.92899 0.50867 0.10689
 N377 N 0.90649 0.49104 0.10526
 N378 N 0.89020 0.49187 0.13455
 C379 C 0.49256 0.32395 0.31317
 N380 N 0.51190 0.32208 0.32026
 N381 N 0.51376 0.31095 0.36200
 C382 C 0.49630 0.30123 0.39799
 N383 N 0.47698 0.30307 0.39071
 N384 N 0.47511 0.31413 0.34903
 C385 C 0.49111 0.33794 0.27016
 N386 N 0.47212 0.34055 0.26594
 N387 N 0.47137 0.35477 0.23013
 C388 C 0.48959 0.36694 0.19709
 N389 N 0.50849 0.36411 0.20070
 N390 N 0.50925 0.34986 0.23663
 C391 C 0.48941 0.38425 0.16138
 N392 N 0.50763 0.39712 0.12871
 N393 N 0.50812 0.41411 0.09976
 C394 C 0.49044 0.41888 0.10265
 N395 N 0.47214 0.40582 0.13484
 N396 N 0.47161 0.38881 0.16355
 C397 C 0.66723 0.16890 0.32537
 N398 N 0.67640 0.16145 0.36322
 N399 N 0.68816 0.17516 0.40325
 C400 C 0.69137 0.19693 0.40685
 N401 N 0.68230 0.20451 0.36890
 N402 N 0.67044 0.19072 0.32879
 C403 C 0.65289 0.15282 0.28369
 N404 N 0.64166 0.15884 0.24771
 N405 N 0.62746 0.14342 0.21239
 C406 C 0.62401 0.12146 0.21189
 N407 N 0.63545 0.11560 0.24750
 N408 N 0.64960 0.13096 0.28269
 C409 C 0.60721 0.10372 0.17590
 N410 N 0.60272 0.08149 0.17981
 N411 N 0.58654 0.06486 0.14981
 C412 C 0.57427 0.06982 0.11455
 N413 N 0.57890 0.09212 0.11014
 N414 N 0.59507 0.10879 0.14036
 C415 C 0.50203 0.17196 -0.31746
 N416 N 0.48510 0.16429 -0.35462
 N417 N 0.48701 0.17758 -0.39556
 C418 C 0.50581 0.19916 -0.40071
 N419 N 0.52273 0.20704 -0.36335
 N420 N 0.52086 0.19364 -0.32238
 C421 C 0.50044 0.15612 -0.27528
 N422 N 0.51830 0.16190 -0.24112
 N423 N 0.51725 0.14647 -0.20595
 C424 C 0.49830 0.12476 -0.20380
 N425 N 0.48039 0.11918 -0.23748
 N426 N 0.48144 0.13454 -0.27252
 C427 C 0.49748 0.10682 -0.16860
 N428 N 0.47924 0.08480 -0.17179
 N429 N 0.47876 0.06788 -0.14293
 C430 C 0.49648 0.07228 -0.10957
 N431 N 0.51468 0.09437 -0.10577
 N432 N 0.51521 0.11136 -0.13492
 C433 C 0.66270 0.48616 -0.32350
 N434 N 0.68618 0.50027 -0.32613
 N435 N 0.69821 0.49886 -0.36650
 C436 C 0.68727 0.48344 -0.40609
 N437 N 0.66369 0.46963 -0.40351
 N438 N 0.65170 0.47075 -0.36281
 C439 C 0.64911 0.48819 -0.28050
 N440 N 0.62803 0.46985 -0.26743
 N441 N 0.61492 0.47198 -0.23073
 C442 C 0.62223 0.49263 -0.20631
 N443 N 0.64334 0.51099 -0.21929
 N444 N 0.65663 0.50876 -0.25547
 C445 C 0.60676 0.49529 -0.16928
 N446 N 0.60848 0.51633 -0.16194
 N447 N 0.59301 0.51831 -0.13219
 C448 C 0.57548 0.49937 -0.10810
 N449 N 0.57404 0.47842 -0.11467
 N450 N 0.58930 0.47639 -0.14499
 C451 C 0.83094 0.33371 -0.32820
 N452 N 0.80730 0.32258 -0.32489
 N453 N 0.79415 0.31010 -0.36530
 C454 C 0.80406 0.30829 -0.41056
 N455 N 0.82773 0.31991 -0.41365
 N456 N 0.84084 0.33214 -0.37333
 C457 C 0.84608 0.34753 -0.28467
 N458 N 0.86899 0.35399 -0.28608
 N459 N 0.88349 0.36748 -0.24888
 C460 C 0.87574 0.37525 -0.20884
 N461 N 0.85273 0.36873 -0.20700
 N462 N 0.83811 0.35499 -0.24423
 C463 C 0.89274 0.39147 -0.17068
 N464 N 0.88724 0.40334 -0.13545
 N465 N 0.90371 0.41953 -0.10472
 C466 C 0.92619 0.42432 -0.10823
 N467 N 0.93145 0.41213 -0.14279
 N468 N 0.91510 0.39608 -0.17335
 C469 C 0.49564 -0.16850 -0.33325
 N470 N 0.48403 -0.19201 -0.32851
 N471 N 0.48365 -0.20528 -0.36826
 C472 C 0.49483 -0.19561 -0.41425
 N473 N 0.50588 -0.17208 -0.41884
 N474 N 0.50646 -0.15885 -0.37920
 C475 C 0.49697 -0.15324 -0.29009
 N476 N 0.51275 -0.13023 -0.29306
 N477 N 0.51396 -0.11576 -0.25566
 C478 C 0.49935 -0.12365 -0.21383
 N479 N 0.48353 -0.14674 -0.21051
 N480 N 0.48243 -0.16132 -0.24794
 C481 C 0.50046 -0.10681 -0.17493
 N482 N 0.48364 -0.11255 -0.13789
 N483 N 0.48417 -0.09629 -0.10618
 C484 C 0.50158 -0.07379 -0.11042
 N485 N 0.51848 -0.06828 -0.14684
 N486 N 0.51792 -0.08442 -0.17842
 C487 C 0.33801 0.51409 -0.32312
 N488 N 0.31446 0.50024 -0.32436
 N489 N 0.30218 0.50106 -0.36505
 C490 C 0.31296 0.51556 -0.40630
 N491 N 0.33660 0.52905 -0.40506
 N492 N 0.34883 0.52854 -0.36411
 C493 C 0.35192 0.51265 -0.28000
 N494 N 0.37315 0.53113 -0.26861
 N495 N 0.38675 0.52941 -0.23242
 C496 C 0.37976 0.50903 -0.20689
 N497 N 0.35847 0.49055 -0.21812
 N498 N 0.34471 0.49237 -0.25377
 C499 C 0.39577 0.50659 -0.17110
 N500 N 0.39415 0.48557 -0.16416
 N501 N 0.40991 0.48362 -0.13545
 C502 C 0.42767 0.50255 -0.11203
 N503 N 0.42908 0.52351 -0.11821
 N504 N 0.41351 0.52553 -0.14761
 C505 C 1.17715 0.66047 -0.32552
 N506 N 1.18229 0.64985 -0.36438
 N507 N 1.19587 0.66211 -0.40432
 C508 C 1.20539 0.68560 -0.40651
 N509 N 1.20022 0.69614 -0.36728
 N510 N 1.18632 0.68385 -0.32771
 C511 C 1.16084 0.64664 -0.28368
 N512 N 1.14747 0.65410 -0.25969
 N513 N 1.13144 0.64074 -0.22442
 C514 C 1.12848 0.61961 -0.21131
 N515 N 1.14211 0.61233 -0.23471
 N516 N 1.15787 0.62552 -0.27055
 C517 C 1.11001 0.60426 -0.17476
 N518 N 1.11142 0.58711 -0.14898
 N519 N 1.09403 0.57225 -0.11826
 C520 C 1.07445 0.57379 -0.11279
 N521 N 1.07304 0.59097 -0.13852
 N522 N 1.09059 0.60605 -0.16865
 C523 C 0.83524 0.50815 -0.32660
 N524 N 0.81180 0.49361 -0.32545
 N525 N 0.79856 0.49279 -0.36585
 C526 C 0.80814 0.50645 -0.40896
 N527 N 0.83169 0.52067 -0.40995
 N528 N 0.84490 0.52164 -0.36959
 C529 C 0.85035 0.50905 -0.28333
 N530 N 0.87312 0.52590 -0.28311
 N531 N 0.88749 0.52639 -0.24598
 C532 C 0.87971 0.51000 -0.20766
 N533 N 0.85685 0.49317 -0.20748
 N534 N 0.84239 0.49275 -0.24462
 C535 C 0.89644 0.51001 -0.16970
 N536 N 0.89034 0.49223 -0.13521
 N537 N 0.90640 0.49168 -0.10439
 C538 C 0.92906 0.50892 -0.10702
 N539 N 0.93497 0.52679 -0.14090
 N540 N 0.91900 0.52733 -0.17157
 C541 C 0.49425 0.32960 -0.33048
 N542 N 0.48251 0.32726 -0.37570
 N543 N 0.48403 0.31526 -0.41565
 C544 C 0.49705 0.30470 -0.41209
 N545 N 0.50900 0.30727 -0.36672
 N546 N 0.50765 0.31948 -0.32668
 C547 C 0.49268 0.34347 -0.28759
 N548 N 0.50759 0.35045 -0.24610
 N549 N 0.50667 0.36423 -0.20928
 C550 C 0.49070 0.37135 -0.21257
 N551 N 0.47567 0.36409 -0.25368
 N552 N 0.47668 0.35048 -0.29049
 C553 C 0.49031 0.38782 -0.17482
 N554 N 0.47379 0.39409 -0.17949
 N555 N 0.47417 0.41041 -0.14873
 C556 C 0.49109 0.42113 -0.11202
 N557 N 0.50750 0.41468 -0.10668
 N558 N 0.50711 0.39828 -0.13756
 C559 C 0.66950 0.17034 -0.31924
 N560 N 0.67283 0.19220 -0.32330
 N561 N 0.68454 0.20576 -0.36393
 C562 C 0.69332 0.19790 -0.40178
 N563 N 0.69006 0.17613 -0.39743
 N564 N 0.67848 0.16266 -0.35686
 C565 C 0.65494 0.15434 -0.27758
 N566 N 0.65149 0.13243 -0.27620
 N567 N 0.63688 0.11700 -0.24163
 C568 C 0.62511 0.12284 -0.20705
 N569 N 0.62875 0.14486 -0.20783
 N570 N 0.64341 0.16035 -0.24255
 C571 C 0.60773 0.10495 -0.17212
 N572 N 0.59549 0.10994 -0.13682
 N573 N 0.57889 0.09312 -0.10754
 C574 C 0.57390 0.07074 -0.11280
 N575 N 0.58626 0.06586 -0.14785
 N576 N 0.60286 0.08263 -0.17685
 C577 C 1.16844 0.50036 -0.32712
 N578 N 1.15909 0.48913 -0.37273
 N579 N 1.17268 0.49090 -0.41281
 C580 C 1.19629 0.50369 -0.40905
 N581 N 1.20566 0.51506 -0.36318
 N582 N 1.19201 0.51347 -0.32294
 C583 C 1.15274 0.49857 -0.28455
 N584 N 1.16026 0.51326 -0.24282
 N585 N 1.14511 0.51223 -0.20683
 C586 C 1.12201 0.49640 -0.21137
 N587 N 1.11470 0.48158 -0.25265
 N588 N 1.12974 0.48269 -0.28856
 C589 C 1.10460 0.49578 -0.17487
 N590 N 1.08186 0.47948 -0.18164
 N591 N 1.06540 0.47942 -0.15178
 C592 C 1.07100 0.49567 -0.11394
 N593 N 1.09380 0.51190 -0.10656
 N594 N 1.11035 0.51197 -0.13660
 C595 C 0.50592 0.67497 -0.31272
 N596 N 0.52326 0.68487 -0.34880
 N597 N 0.52135 0.69620 -0.38987
 C598 C 0.50212 0.69825 -0.39628
 N599 N 0.48483 0.68860 -0.35989
 N600 N 0.48672 0.67718 -0.31874
 C601 C 0.50724 0.66031 -0.27115
 N602 N 0.48923 0.64824 -0.23741
 N603 N 0.48984 0.63332 -0.20315
 C604 C 0.50844 0.62992 -0.20159
 N605 N 0.52652 0.64223 -0.23486
 N606 N 0.52593 0.65713 -0.26894
 C607 C 0.50856 0.61213 -0.16748
 N608 N 0.52588 0.60698 -0.17220
 N609 N 0.52553 0.58991 -0.14406
 C610 C 0.50788 0.57738 -0.10994
 N611 N 0.49063 0.58266 -0.10471
 N612 N 0.49092 0.59970 -0.13311
 C613 C 0.32424 -0.16584 -0.32224
 N614 N 0.31686 -0.18893 -0.32322
 N615 N 0.30446 -0.20197 -0.36374
 C616 C 0.29890 -0.19253 -0.40488
 N617 N 0.30663 -0.16933 -0.40368
 N618 N 0.31885 -0.15633 -0.36318
 C619 C 0.33875 -0.15086 -0.27926
 N620 N 0.34386 -0.12841 -0.27745
 N621 N 0.35813 -0.11409 -0.24091
 C622 C 0.36796 -0.12159 -0.20479
 N623 N 0.36274 -0.14414 -0.20615
 N624 N 0.34832 -0.15856 -0.24271
 C625 C 0.38511 -0.10485 -0.16765
 N626 N 0.39748 -0.11077 -0.13468
 N627 N 0.41432 -0.09471 -0.10449
 C628 C 0.41933 -0.07223 -0.10632
 N629 N 0.40672 -0.06650 -0.13875
 N630 N 0.38995 -0.08247 -0.16874
 C631 C 0.50070 -0.17286 0.31092
 N632 N 0.51837 -0.16491 0.34629
 N633 N 0.51690 -0.17751 0.38828
 C634 C 0.49780 -0.19867 0.39630
 N635 N 0.48015 -0.20681 0.36072
 N636 N 0.48157 -0.19411 0.31873
 C637 C 0.50178 -0.15764 0.26776
 N638 N 0.48310 -0.16346 0.23613
 N639 N 0.48368 -0.14845 0.20041
 C640 C 0.50296 -0.12711 0.19511
 N641 N 0.52169 -0.12151 0.22619
 N642 N 0.52111 -0.13646 0.26180
 C643 C 0.50323 -0.10942 0.15992
 N644 N 0.52182 -0.08754 0.16058
 N645 N 0.52168 -0.07069 0.13262
 C646 C 0.50298 -0.07504 0.10265
 N647 N 0.48445 -0.09703 0.10119
 N648 N 0.48455 -0.11393 0.12946
 C649 C 0.33514 0.50903 0.32203
 N650 N 0.33406 0.52875 0.32892
 N651 N 0.32251 0.53075 0.36963
 C652 C 0.31172 0.51308 0.40472
 N653 N 0.31276 0.49342 0.39768
 N654 N 0.32420 0.49140 0.35703
 C655 C 0.34914 0.50705 0.27990
 N656 N 0.35031 0.48732 0.27559
 N657 N 0.36425 0.48574 0.24034
 C658 C 0.37757 0.50383 0.20798
 N659 N 0.37622 0.52353 0.21169
 N660 N 0.36224 0.52512 0.24710
 C661 C 0.39419 0.50233 0.17245
 N662 N 0.40789 0.52000 0.13929
 N663 N 0.42387 0.51882 0.10964
 C664 C 0.42675 0.49997 0.11242
 N665 N 0.41294 0.48231 0.14530
 N666 N 0.39695 0.48345 0.17465
 C667 C 1.17704 0.66240 0.32361
 N668 N 1.19069 0.65526 0.34771
 N669 N 1.20431 0.66720 0.38792
 C670 C 1.20500 0.68689 0.40488
 N671 N 1.19144 0.69408 0.38060
 N672 N 1.17769 0.68204 0.34076
 C673 C 1.16054 0.64829 0.28234
 N674 N 1.14277 0.65192 0.26885
 N675 N 1.12676 0.63819 0.23410
 C676 C 1.12806 0.62046 0.21115
 N677 N 1.14603 0.61703 0.22402
 N678 N 1.16193 0.63064 0.25919
 C679 C 1.10952 0.60445 0.17560
 N680 N 1.11239 0.58929 0.14526
 N681 N 1.09504 0.57401 0.11506
 C682 C 1.07413 0.57320 0.11456
 N683 N 1.07130 0.58840 0.14481
 N684 N 1.08871 0.60382 0.17456
 C685 C 0.50399 0.17030 0.32676
 N686 N 0.52254 0.19220 0.33057
 N687 N 0.52423 0.20584 0.37070
 C688 C 0.50742 0.19801 0.40828
 N689 N 0.48894 0.17617 0.40433
 N690 N 0.48722 0.16262 0.36426
 C691 C 0.50238 0.15439 0.28496
 N692 N 0.48358 0.13267 0.28309
 N693 N 0.48239 0.11737 0.24791
 C694 C 0.49997 0.12317 0.21317
 N695 N 0.51875 0.14500 0.21450
 N696 N 0.51993 0.16037 0.24983
 C697 C 0.49892 0.10540 0.17733
 N698 N 0.51623 0.11021 0.14227
 N699 N 0.51544 0.09342 0.11212
 C700 C 0.49736 0.07126 0.11624
 N701 N 0.48007 0.06658 0.15104
 N702 N 0.48082 0.08331 0.18092
 C703 C 0.66468 0.48823 0.32069
 N704 N 0.66230 0.46738 0.33448
 N705 N 0.67366 0.46565 0.37601
 C706 C 0.68779 0.48474 0.40495
 N707 N 0.69026 0.50555 0.39099
 N708 N 0.67890 0.50726 0.34966
 C709 C 0.65112 0.49024 0.27740
 N710 N 0.65210 0.51084 0.26833
 N711 N 0.63874 0.51264 0.23173
 C712 C 0.62393 0.49394 0.20258
 N713 N 0.62314 0.47335 0.21105
 N714 N 0.63650 0.47153 0.24787
 C715 C 0.60782 0.49580 0.16588
 N716 N 0.59303 0.47762 0.13520
 N717 N 0.57721 0.47903 0.10530
 C718 C 0.57558 0.49863 0.10532
 N719 N 0.59055 0.51682 0.13553
 N720 N 0.60640 0.51546 0.16507
 C721 C 0.82816 0.32844 0.31477
 N722 N 0.80694 0.32645 0.32273
 N723 N 0.79410 0.31497 0.36439
 C724 C 0.80205 0.30510 0.39946
 N725 N 0.82321 0.30707 0.39135
 N726 N 0.83596 0.31842 0.34969
 C727 C 0.84343 0.34265 0.27173
 N728 N 0.86459 0.34442 0.26542
 N729 N 0.87950 0.35871 0.22960
 C730 C 0.87386 0.37181 0.19867
 N731 N 0.85254 0.36986 0.20438
 N732 N 0.83757 0.35550 0.24030
 C733 C 0.89148 0.38905 0.16301
 N734 N 0.88700 0.40331 0.13296
 N735 N 0.90387 0.42011 0.10415
 C736 C 0.92580 0.42326 0.10465
 N737 N 0.93010 0.40881 0.13420
 N738 N 0.91328 0.39203 0.16271
   
