data_POSCAR
  _audit_creation_date              2014-09-24
  _audit_creation_method            'ToBaCCo'
  _symmetry_space_group_name_H-M    'P1'
  _symmetry_Int_Tables_number       1
  _symmetry_cell_setting            triclinic
  loop_
  _symmetry_equiv_pos_as_xyz
 x,y,z
_cell_length_a 40.1088
_cell_length_b 39.9821
_cell_length_c 15.2668
_cell_angle_alpha 89.936700
_cell_angle_beta 90.045400
_cell_angle_gamma 121.067500
loop_
  _atom_site_label
  _atom_site_type_symbol
  _atom_site_fract_x
  _atom_site_fract_y
  _atom_site_fract_z
C1 C 0.16654 0.48276 0.41459
 C2 C 0.14624 0.47405 0.49422
 C3 C 0.16452 0.48142 0.57623
 C4 C 0.20145 0.48445 0.57871
 C5 C 0.22111 0.48704 0.49875
 C6 C 0.20337 0.48556 0.41642
 C7 C 0.22086 0.48239 0.33978
 C8 C 0.25657 0.48472 0.34183
 C9 C 0.27605 0.48891 0.42105
 C10 C 0.25769 0.48904 0.50109
 C11 C 0.21731 0.48068 0.65756
 C12 C 0.25303 0.48300 0.65988
 C13 C 0.27475 0.48891 0.58338
 C14 C 0.31068 0.48983 0.58491
 C15 C 0.32321 0.48281 0.50506
 C16 C 0.31112 0.48843 0.42339
 H17 H 0.20604 0.47518 0.27754
 H18 H 0.26726 0.48049 0.28052
 H19 H 0.20123 0.47337 0.71825
 H20 H 0.26175 0.47711 0.72204
 H21 H 0.11530 0.46316 0.49179
 H22 H 0.34336 0.47252 0.50740
 C23 C 0.52730 -0.17323 0.58717
 C24 C 0.53499 -0.15404 0.50568
 C25 C 0.52429 -0.17373 0.42481
 C26 C 0.51389 -0.21345 0.42437
 C27 C 0.50516 -0.23418 0.50488
 C28 C 0.50863 -0.21471 0.58571
 C29 C 0.49226 -0.23777 0.66093
 C30 C 0.48063 -0.27704 0.66139
 C31 C 0.48268 -0.29538 0.58523
 C32 C 0.49190 -0.27481 0.50462
 C33 C 0.51243 -0.23296 0.34671
 C34 C 0.49916 -0.27274 0.34633
 C35 C 0.48897 -0.29451 0.42449
 C36 C 0.47522 -0.33545 0.42558
 C37 C 0.46070 -0.35493 0.50619
 C38 C 0.47247 -0.33483 0.58622
 H39 H 0.48688 -0.22655 0.71974
 H40 H 0.46886 -0.29337 0.72149
 H41 H 0.52232 -0.21756 0.28518
 H42 H 0.49661 -0.28615 0.28337
 H43 H 0.54713 -0.12287 0.50509
 H44 H 0.44392 -0.38642 0.50914
 C45 C 1.20744 0.65433 0.41396
 C46 C 1.19523 0.63312 0.49232
 C47 C 1.20588 0.65185 0.57417
 C48 C 1.24154 0.68857 0.57702
 C49 C 1.26088 0.70698 0.49724
 C50 C 1.24315 0.69025 0.41544
 C51 C 1.26249 0.70866 0.33771
 C52 C 1.29831 0.74318 0.33936
 C53 C 1.31655 0.76088 0.41896
 C54 C 1.29744 0.74261 0.49909
 C55 C 1.25931 0.70652 0.65669
 C56 C 1.29504 0.74131 0.65856
 C57 C 1.31443 0.76030 0.58092
 C58 C 1.35131 0.79541 0.58223
 C59 C 1.37252 0.80626 0.50322
 C60 C 1.35405 0.79543 0.42106
 H61 H 1.25095 0.69571 0.27444
 H62 H 1.31191 0.75499 0.27689
 H63 H 1.24656 0.69327 0.71895
 H64 H 1.30798 0.75227 0.72210
 H65 H 1.17460 0.60219 0.48822
 H66 H 1.40366 0.82559 0.50652
 C67 C 0.67532 0.49323 0.58502
 C68 C 0.65388 0.47636 0.50790
 C69 C 0.67156 0.48544 0.42527
 C70 C 0.71150 0.49743 0.42206
 C71 C 0.73348 0.50692 0.50086
 C72 C 0.71563 0.50571 0.58257
 C73 C 0.73832 0.51566 0.65899
 C74 C 0.77723 0.52645 0.65581
 C75 C 0.79486 0.52570 0.57691
 C76 C 0.77356 0.51843 0.49758
 C77 C 0.72938 0.49781 0.34295
 C78 C 0.76808 0.50797 0.34031
 C79 C 0.79175 0.52134 0.41523
 C80 C 0.83269 0.53681 0.41173
 C81 C 0.85206 0.54206 0.49225
 C82 C 0.83322 0.53229 0.57426
 H83 H 0.72612 0.51409 0.72294
 H84 H 0.79340 0.53573 0.71645
 H85 H 0.71330 0.48870 0.28228
 H86 H 0.77817 0.50339 0.27897
 H87 H 0.62269 0.45793 0.51201
 H88 H 0.88268 0.55201 0.49083
 C89 C 0.51875 0.32461 0.41658
 C90 C 0.53212 0.34556 0.49521
 C91 C 0.52041 0.32687 0.57680
 C92 C 0.50875 0.28674 0.57983
 C93 C 0.50475 0.26634 0.50046
 C94 C 0.50810 0.28484 0.41849
 C95 C 0.50102 0.26318 0.34128
 C96 C 0.49143 0.22448 0.34389
 C97 C 0.49043 0.20624 0.42336
 C98 C 0.49553 0.22686 0.50309
 C99 C 0.50064 0.26631 0.65936
 C100 C 0.49068 0.22751 0.66163
 C101 C 0.49091 0.20800 0.58542
 C102 C 0.48327 0.16910 0.58752
 C103 C 0.47276 0.14849 0.50788
 C104 C 0.48202 0.16718 0.42615
 H105 H 0.50319 0.27595 0.27758
 H106 H 0.48378 0.20883 0.28255
 H107 H 0.50184 0.27987 0.72129
 H108 H 0.48138 0.21272 0.72390
 H109 H 0.54955 0.37688 0.49218
 H110 H 0.45995 0.11714 0.51010
 C111 C 0.65226 0.20710 0.42596
 C112 C 0.63331 0.19634 0.50721
 C113 C 0.65421 0.20796 0.58591
 C114 C 0.69035 0.24353 0.58521
 C115 C 0.70738 0.26141 0.50368
 C116 C 0.68930 0.24214 0.42368
 C117 C 0.70793 0.25937 0.34427
 C118 C 0.74260 0.29529 0.34273
 C119 C 0.76067 0.31515 0.42058
 C120 C 0.74293 0.29800 0.50225
 C121 C 0.70873 0.26262 0.66323
 C122 C 0.74325 0.29858 0.66197
 C123 C 0.76103 0.31704 0.58253
 C124 C 0.79552 0.35466 0.58057
 C125 C 0.80618 0.37344 0.49858
 C126 C 0.79503 0.35250 0.41943
 H127 H 0.69524 0.24615 0.28198
 H128 H 0.75412 0.30800 0.27930
 H129 H 0.69572 0.25082 0.72633
 H130 H 0.75499 0.31221 0.72449
 H131 H 0.60240 0.17616 0.51054
 H132 H 0.82528 0.40468 0.49572
 O133 O 1.06784 0.59061 0.15204
 O134 O 1.10239 0.56945 0.07391
 C135 C 1.09920 0.58985 0.13592
 O136 O 0.93265 0.42505 0.15302
 O137 O 0.89735 0.44649 0.07842
 C138 C 0.90081 0.42501 0.13781
 O139 O 1.03897 0.46439 0.16199
 O140 O 1.08891 0.50995 0.07632
 C141 C 1.07556 0.48578 0.14193
 O142 O 0.96410 0.56009 0.14813
 O143 O 0.91229 0.50989 0.07549
 C144 C 0.92713 0.53789 0.13361
 Zr145 Zr 1.01131 0.55667 0.10024
 O146 O 1.01291 0.56494 0.23730
 O147 O 1.02560 0.61477 0.07822
 Zr148 Zr 0.98972 0.46235 0.10714
 O149 O 0.98657 0.45981 0.24549
 O150 O 0.98127 0.40550 0.10321
 O151 O 1.03381 0.52054 0.12138
 O152 O 0.96806 0.49908 0.12161
 O153 O 0.96110 0.55432 -0.16592
 O154 O 0.91069 0.50648 -0.08493
 C155 C 0.92434 0.53184 -0.14846
 O156 O 1.03688 0.46086 -0.16573
 O157 O 1.08782 0.50829 -0.08552
 C158 C 1.07372 0.48293 -0.14871
 O159 O 0.93093 0.42313 -0.15492
 O160 O 0.89641 0.44530 -0.08009
 C161 C 0.89942 0.42373 -0.13959
 O162 O 1.06599 0.58648 -0.17094
 O163 O 1.10176 0.56818 -0.08801
 C164 C 1.09790 0.58701 -0.15275
 Zr165 Zr 1.00997 0.55398 -0.11531
 O166 O 1.00837 0.55773 -0.25316
 O167 O 1.02654 0.61348 -0.10594
 Zr168 Zr 0.98830 0.45933 -0.10862
 O169 O 0.98314 0.44908 -0.24506
 O170 O 0.97928 0.40275 -0.08918
 Zr171 Zr 1.05720 0.52668 -0.00535
 Zr172 Zr 0.94217 0.48936 -0.00311
 O173 O 0.96696 0.49597 -0.12863
 O174 O 1.03211 0.51721 -0.13122
 O175 O 0.97704 0.55090 -0.00733
 O176 O 1.02181 0.46548 -0.00105
 O177 O 1.04650 0.57294 -0.00846
 O178 O 0.95228 0.44241 0.00025
 H179 H 0.95229 0.49428 0.17512
 H180 H 1.03504 0.45030 -0.00014
 H181 H 0.95152 0.49027 -0.18293
 H182 H 1.06928 0.59996 -0.00996
 H183 H 0.95527 0.38772 0.07775
 H184 H 0.95123 0.38466 -0.07779
 H185 H 0.99543 0.47495 -0.27356
 H186 H 1.01273 0.53735 -0.27701
 H187 H 1.00345 0.61443 -0.08690
 H188 H 1.02978 0.62688 0.13687
 H189 H 1.00230 0.53901 0.26467
 H190 H 1.00715 0.48553 0.26767
 O191 O 0.52416 0.58058 -0.15700
 O192 O 0.46969 0.56726 -0.07918
 C193 C 0.49481 0.58498 -0.14167
 O194 O 0.46827 0.41153 -0.16270
 O195 O 0.52160 0.42316 -0.08207
 C196 C 0.49668 0.40592 -0.14501
 O197 O 0.41313 0.46274 -0.16597
 O198 O 0.41671 0.51137 -0.07912
 C199 C 0.40248 0.48725 -0.14466
 O200 O 0.58486 0.53523 -0.15164
 O201 O 0.57625 0.48125 -0.07784
 C202 C 0.59306 0.50824 -0.13716
 Zr203 Zr 0.53898 0.54148 -0.10310
 O204 O 0.54816 0.54966 -0.23957
 O205 O 0.58830 0.59790 -0.08316
 Zr206 Zr 0.45516 0.45242 -0.11151
 O207 O 0.45383 0.44870 -0.24981
 O208 O 0.40114 0.39901 -0.10519
 O209 O 0.47900 0.51241 -0.12495
 O210 O 0.51489 0.48241 -0.12518
 O211 O 0.58127 0.52993 0.16152
 O212 O 0.57443 0.47850 0.08011
 C213 C 0.58983 0.50346 0.14366
 O214 O 0.40973 0.45747 0.15977
 O215 O 0.41595 0.50951 0.08155
 C216 C 0.40051 0.48353 0.14338
 O217 O 0.46468 0.40635 0.15099
 O218 O 0.52007 0.42090 0.07546
 C219 C 0.49388 0.40179 0.13512
 O220 O 0.52125 0.57580 0.16972
 O221 O 0.46925 0.56615 0.08649
 C222 C 0.49337 0.58212 0.15166
 Zr223 Zr 0.53657 0.53792 0.11216
 O224 O 0.54236 0.54104 0.24994
 O225 O 0.58635 0.59476 0.10280
 Zr226 Zr 0.45259 0.44873 0.10429
 O227 O 0.44632 0.43888 0.24092
 O228 O 0.39897 0.39584 0.08498
 Zr229 Zr 0.46412 0.52147 0.00178
 Zr230 Zr 0.52727 0.46861 -0.00054
 O231 O 0.51195 0.47831 0.12504
 O232 O 0.47619 0.50826 0.12748
 O233 O 0.56334 0.53011 0.00442
 O234 O 0.42930 0.46017 -0.00333
 O235 O 0.52448 0.56157 0.00567
 O236 O 0.46682 0.42771 -0.00489
 H237 H 0.52382 0.47614 -0.17969
 H238 H 0.40066 0.44841 -0.00448
 H239 H 0.51966 0.47048 0.17921
 H240 H 0.53311 0.58969 0.00735
 H241 H 0.40644 0.37828 -0.08834
 H242 H 0.40483 0.37536 0.06957
 H243 H 0.46142 0.46473 0.26915
 H244 H 0.51640 0.52230 0.27402
 H245 H 0.60900 0.59207 0.08941
 H246 H 0.61074 0.59483 -0.06988
 H247 H 0.52506 0.52767 -0.26769
 H248 H 0.46473 0.47552 -0.27260
 O249 O 0.58821 0.06639 -0.15523
 O250 O 0.56818 0.10163 -0.07587
 C251 C 0.58811 0.09816 -0.13844
 O252 O 0.42248 -0.06770 -0.15432
 O253 O 0.44342 -0.10367 -0.08065
 C254 C 0.42217 -0.09983 -0.13985
 O255 O 0.46300 0.03919 -0.16261
 O256 O 0.50909 0.08887 -0.07721
 C257 C 0.48482 0.07582 -0.14253
 O258 O 0.55632 -0.03816 -0.15219
 O259 O 0.50611 -0.08963 -0.07848
 C260 C 0.53376 -0.07516 -0.13718
 Zr261 Zr 0.55402 0.00974 -0.10314
 O262 O 0.56203 0.01143 -0.24031
 O263 O 0.61170 0.02317 -0.08191
 Zr264 Zr 0.46036 -0.01058 -0.10822
 O265 O 0.45743 -0.01338 -0.24654
 O266 O 0.40403 -0.01825 -0.10279
 O267 O 0.51858 0.03306 -0.12315
 O268 O 0.49632 -0.03301 -0.12379
 O269 O 0.55152 -0.04133 0.16250
 O270 O 0.50333 -0.09132 0.08126
 C271 C 0.52866 -0.07813 0.14465
 O272 O 0.46006 0.03678 0.16500
 O273 O 0.50796 0.08764 0.08532
 C274 C 0.48264 0.07370 0.14855
 O275 O 0.42152 -0.06945 0.15451
 O276 O 0.44267 -0.10466 0.07873
 C277 C 0.42168 -0.10126 0.13904
 O278 O 0.58481 0.06446 0.16880
 O279 O 0.56748 0.10099 0.08551
 C280 C 0.58602 0.09679 0.15026
 Zr281 Zr 0.55191 0.00830 0.11268
 O282 O 0.55566 0.00631 0.25050
 O283 O 0.61099 0.02423 0.10267
 Zr284 Zr 0.45796 -0.01211 0.10754
 O285 O 0.44826 -0.01692 0.24416
 O286 O 0.40177 -0.02050 0.08884
 Zr287 Zr 0.52539 0.05654 0.00373
 Zr288 Zr 0.48663 -0.05912 0.00082
 O289 O 0.49393 -0.03425 0.12651
 O290 O 0.51594 0.03126 0.12948
 O291 O 0.54804 -0.02486 0.00422
 O292 O 0.46432 0.02178 0.00030
 O293 O 0.57096 0.04497 0.00576
 O294 O 0.44033 -0.04823 -0.00140
 H295 H 0.49119 -0.04878 -0.17751
 H296 H 0.44954 0.03543 -0.00010
 H297 H 0.48827 -0.04978 0.18075
 H298 H 0.59802 0.06758 0.00698
 H299 H 0.38608 -0.04441 -0.07791
 H300 H 0.38345 -0.04862 0.07791
 H301 H 0.47398 -0.00650 0.27204
 H302 H 0.53682 0.01272 0.27486
 H303 H 0.61155 0.00092 0.08309
 H304 H 0.62363 0.02730 -0.14072
 H305 H 0.53616 0.00100 -0.26741
 H306 H 0.48332 0.00666 -0.26889
 C307 C 1.14646 0.48544 0.33708
 C308 C 1.11721 0.44470 0.30015
 C309 C 1.09482 0.44473 0.23317
 C310 C 1.10327 0.48546 0.20796
 C311 C 1.09906 0.50309 0.29301
 C312 C 1.12202 0.50422 0.35875
 C313 C 1.16996 0.50997 0.25655
 C314 C 1.14725 0.50909 0.18825
 H315 H 1.11483 0.41795 0.32398
 H316 H 1.07349 0.41816 0.20007
 H317 H 1.08063 0.51538 0.29989
 H318 H 1.12456 0.51987 0.41872
 H319 H 1.20137 0.52888 0.25506
 H320 H 1.15953 0.52496 0.12773
 C321 C 0.47933 0.64339 0.35155
 C322 C 0.44978 0.63334 0.27651
 C323 C 0.45394 0.61379 0.20768
 C324 C 0.48746 0.60603 0.21937
 C325 C 0.52364 0.64625 0.23705
 C326 C 0.51978 0.66533 0.30674
 C327 C 0.47521 0.60364 0.37504
 C328 C 0.47939 0.58480 0.30698
 H329 H 0.42738 0.64089 0.27764
 H330 H 0.43529 0.60498 0.15037
 H331 H 0.55054 0.65804 0.20019
 H332 H 0.54391 0.69302 0.32959
 H333 H 0.47426 0.59239 0.43971
 H334 H 0.48191 0.55936 0.31740
 C335 C 0.37183 -0.17866 0.34507
 C336 C 0.34377 -0.16879 0.29766
 C337 C 0.35928 -0.14513 0.22624
 C338 C 0.40190 -0.13224 0.20870
 C339 C 0.42261 -0.11432 0.29543
 C340 C 0.40725 -0.13771 0.36565
 C341 C 0.38689 -0.19445 0.27237
 C342 C 0.40225 -0.17039 0.20097
 H343 H 0.31426 -0.17902 0.31941
 H344 H 0.34293 -0.13581 0.18704
 H345 H 0.44571 -0.08409 0.30292
 H346 H 0.41802 -0.12531 0.42945
 H347 H 0.38511 -0.22244 0.27626
 H348 H 0.41259 -0.17835 0.14370
 C349 C 0.85658 0.54048 0.32850
 C350 C 0.89985 0.57320 0.33491
 C351 C 0.92273 0.57307 0.26960
 C352 C 0.90070 0.54079 0.20058
 C353 C 0.87999 0.50312 0.25339
 C354 C 0.85708 0.50262 0.31862
 C355 C 0.84570 0.54843 0.23620
 C356 C 0.86820 0.54754 0.16913
 H357 H 0.91097 0.59693 0.38193
 H358 H 0.95296 0.59629 0.26370
 H359 H 0.88405 0.47904 0.24104
 H360 H 0.84105 0.47737 0.36103
 H361 H 0.82589 0.55888 0.22515
 H362 H 0.86584 0.55526 0.10221
 C363 C 0.51227 0.34447 0.33677
 C364 C 0.51321 0.38258 0.35943
 C365 C 0.50794 0.40036 0.29062
 C366 C 0.50087 0.37883 0.20342
 C367 C 0.53610 0.37373 0.19237
 C368 C 0.54216 0.35599 0.26219
 C369 C 0.47211 0.31981 0.29191
 C370 C 0.46639 0.33758 0.22183
 H371 H 0.51251 0.39269 0.42456
 H372 H 0.50491 0.42557 0.29984
 H373 H 0.55389 0.38202 0.13375
 H374 H 0.56557 0.34990 0.26348
 H375 H 0.44970 0.29113 0.31452
 H376 H 0.43954 0.32389 0.18435
 C377 C 0.63448 0.17837 0.34807
 C378 C 0.66309 0.16772 0.30698
 C379 C 0.64812 0.14208 0.23855
 C380 C 0.60567 0.12881 0.21732
 C381 C 0.58418 0.11288 0.30376
 C382 C 0.59873 0.13797 0.37118
 C383 C 0.62043 0.19259 0.27043
 C384 C 0.60581 0.16695 0.20179
 H385 H 0.69260 0.17917 0.33035
 H386 H 0.66485 0.13204 0.20341
 H387 H 0.56121 0.08277 0.31353
 H388 H 0.58678 0.12715 0.43515
 H389 H 0.62280 0.22088 0.26862
 H390 H 0.59699 0.17404 0.14078
 C391 C 0.48553 0.14836 -0.33563
 C392 C 0.44486 0.11974 -0.29783
 C393 C 0.44452 0.09672 -0.23163
 C394 C 0.48484 0.10399 -0.20801
 C395 C 0.50155 0.09937 -0.29405
 C396 C 0.50298 0.12288 -0.35910
 C397 C 0.51078 0.17126 -0.25535
 C398 C 0.50947 0.14797 -0.18784
 H399 H 0.41845 0.11822 -0.32054
 H400 H 0.41797 0.07571 -0.19809
 H401 H 0.51315 0.08036 -0.30203
 H402 H 0.51813 0.12525 -0.41966
 H403 H 0.53103 0.20253 -0.25392
 H404 H 0.52593 0.15983 -0.12790
 C405 C 0.65547 0.49796 -0.33948
 C406 C 0.61707 0.49622 -0.36316
 C407 C 0.59754 0.49870 -0.29442
 C408 C 0.61788 0.50452 -0.20610
 C409 C 0.62447 0.46999 -0.19861
 C410 C 0.64395 0.46655 -0.26812
 C411 C 0.67800 0.53750 -0.29037
 C412 C 0.65860 0.54059 -0.22004
 H413 H 0.60829 0.49891 -0.42840
 H414 H 0.57189 0.50083 -0.30406
 H415 H 0.61523 0.45029 -0.14298
 H416 H 0.65091 0.44371 -0.27162
 H417 H 0.70608 0.56165 -0.31109
 H418 H 0.67047 0.56682 -0.18043
 C419 C 0.82144 0.37255 -0.34365
 C420 C 0.83101 0.34450 -0.29491
 C421 C 0.85489 0.36050 -0.22406
 C422 C 0.86823 0.40354 -0.20841
 C423 C 0.88595 0.42353 -0.29587
 C424 C 0.86242 0.40759 -0.36547
 C425 C 0.80616 0.38847 -0.27176
 C426 C 0.83045 0.40440 -0.20101
 H427 H 0.82048 0.31467 -0.31537
 H428 H 0.86408 0.34424 -0.18404
 H429 H 0.91615 0.44642 -0.30424
 H430 H 0.87479 0.41727 -0.42969
 H431 H 0.77836 0.38690 -0.27577
 H432 H 0.82296 0.41562 -0.14451
 C433 C 0.53236 -0.14813 -0.33106
 C434 C 0.53778 -0.16051 -0.23816
 C435 C 0.53830 -0.13705 -0.17173
 C436 C 0.53542 -0.10223 -0.20419
 C437 C 0.56879 -0.08189 -0.27125
 C438 C 0.56742 -0.10576 -0.33644
 C439 C 0.49661 -0.14395 -0.32411
 C440 C 0.49861 -0.12001 -0.25954
 H441 H 0.54527 -0.18259 -0.22604
 H442 H 0.54442 -0.14055 -0.10420
 H443 H 0.59325 -0.05224 -0.26443
 H444 H 0.59115 -0.09613 -0.38286
 H445 H 0.47221 -0.15743 -0.36938
 H446 H 0.47694 -0.11213 -0.25145
 C447 C 0.33305 0.49169 -0.33749
 C448 C 0.32006 0.45045 -0.30402
 C449 C 0.34188 0.44938 -0.23743
 C450 C 0.37540 0.48961 -0.20911
 C451 C 0.39842 0.50874 -0.29257
 C452 C 0.37708 0.51095 -0.35790
 C453 C 0.33407 0.51480 -0.25486
 C454 C 0.35580 0.51312 -0.18697
 H455 H 0.29492 0.42413 -0.32942
 H456 H 0.33527 0.42222 -0.20619
 H457 H 0.42971 0.52193 -0.29791
 H458 H 0.39108 0.52776 -0.41658
 H459 H 0.32140 0.53306 -0.25163
 H460 H 0.36013 0.52860 -0.12575
 C461 C 1.17873 0.63520 -0.35187
 C462 C 1.13736 0.60116 -0.37545
 C463 C 1.11262 0.58661 -0.30769
 C464 C 1.12971 0.60640 -0.22017
 C465 C 1.16645 0.60385 -0.20821
 C466 C 1.19181 0.61850 -0.27723
 C467 C 1.17025 0.66472 -0.30646
 C468 C 1.14501 0.64975 -0.23741
 H469 H 1.12565 0.59081 -0.43969
 H470 H 1.08206 0.56526 -0.31794
 H471 H 1.17283 0.59306 -0.14924
 H472 H 1.21915 0.61904 -0.27764
 H473 H 1.18256 0.69476 -0.32773
 H474 H 1.13631 0.66700 -0.19973
 C475 C 0.85456 0.53045 -0.34949
 C476 C 0.88422 0.51808 -0.37276
 C477 C 0.90654 0.51944 -0.30505
 C478 C 0.89704 0.53134 -0.21735
 C479 C 0.90066 0.57079 -0.23520
 C480 C 0.87864 0.57035 -0.30377
 C481 C 0.83104 0.50117 -0.27507
 C482 C 0.85316 0.50236 -0.20537
 H483 H 0.88542 0.50565 -0.43506
 H484 H 0.92770 0.51047 -0.31252
 H485 H 0.91868 0.59681 -0.19650
 H486 H 0.87804 0.59615 -0.32333
 H487 H 0.80020 0.47955 -0.27877
 H488 H 0.84072 0.48325 -0.14916
 C489 C 0.51542 0.34864 -0.34535
 C490 C 0.54301 0.35700 -0.26702
 C491 C 0.53696 0.37498 -0.19772
 C492 C 0.50401 0.38332 -0.21306
 C493 C 0.51503 0.40664 -0.29854
 C494 C 0.52077 0.38897 -0.36700
 C495 C 0.47399 0.32593 -0.30594
 C496 C 0.46826 0.34372 -0.23648
 H497 H 0.56541 0.34946 -0.26634
 H498 H 0.55390 0.38230 -0.13785
 H499 H 0.51603 0.43413 -0.30632
 H500 H 0.52585 0.40248 -0.43056
 H501 H 0.45082 0.29827 -0.33150
 H502 H 0.44058 0.33108 -0.20248
 C503 C 0.63809 0.17986 -0.33534
 C504 C 0.66808 0.17478 -0.28207
 C505 C 0.65232 0.14898 -0.21376
 C506 C 0.60800 0.13014 -0.20549
 C507 C 0.60150 0.16474 -0.19889
 C508 C 0.61687 0.19045 -0.26704
 C509 C 0.60831 0.13751 -0.36257
 C510 C 0.59233 0.11231 -0.29573
 H511 H 0.69881 0.18926 -0.29810
 H512 H 0.66959 0.14203 -0.17116
 H513 H 0.58820 0.16994 -0.14296
 H514 H 0.61561 0.21689 -0.27006
 H515 H 0.60406 0.12628 -0.42846
 H516 H 0.57336 0.08125 -0.30765
 C517 C 1.14329 0.48313 -0.34753
 C518 C 1.11465 0.49691 -0.37047
 C519 C 1.09214 0.49537 -0.30347
 C520 C 1.10077 0.48251 -0.21637
 C521 C 1.09590 0.44261 -0.23530
 C522 C 1.11800 0.44290 -0.30355
 C523 C 1.16702 0.51130 -0.27200
 C524 C 1.14483 0.51025 -0.20272
 H525 H 1.11378 0.50984 -0.43216
 H526 H 1.07053 0.50369 -0.31149
 H527 H 1.07708 0.41647 -0.19764
 H528 H 1.11788 0.41684 -0.32395
 H529 H 1.19825 0.53143 -0.27372
 H530 H 1.15747 0.52782 -0.14446
 C531 C 0.47849 0.64612 -0.33860
 C532 C 0.44229 0.62278 -0.28031
 C533 C 0.44733 0.60339 -0.21266
 C534 C 0.48800 0.60841 -0.20943
 C535 C 0.49376 0.59632 -0.30084
 C536 C 0.49010 0.61644 -0.36682
 C537 C 0.51182 0.67249 -0.27419
 C538 C 0.51644 0.65273 -0.20653
 H539 H 0.41526 0.62235 -0.29015
 H540 H 0.42478 0.58692 -0.16468
 H541 H 0.50348 0.57596 -0.31311
 H542 H 0.49980 0.61469 -0.43172
 H543 H 0.53169 0.70358 -0.28326
 H544 H 0.53922 0.66714 -0.15776
 C545 C 0.36777 -0.17888 -0.34140
 C546 C 0.38850 -0.19162 -0.27617
 C547 C 0.40522 -0.16707 -0.20642
 C548 C 0.40052 -0.13125 -0.20813
 C549 C 0.41578 -0.11250 -0.29815
 C550 C 0.39855 -0.13646 -0.36632
 C551 C 0.33926 -0.17281 -0.28453
 C552 C 0.35635 -0.14832 -0.21443
 H553 H 0.38955 -0.21806 -0.28378
 H554 H 0.42035 -0.17273 -0.15495
 H555 H 0.43671 -0.08173 -0.30845
 H556 H 0.40325 -0.12418 -0.43137
 H557 H 0.30865 -0.18531 -0.29979
 H558 H 0.34021 -0.14080 -0.16971
 C559 C 0.52393 -0.15054 0.34385
 C560 C 0.51296 -0.11992 0.36783
 C561 C 0.51554 -0.09666 0.30083
 C562 C 0.52730 -0.10619 0.21300
 C563 C 0.56591 -0.10403 0.23162
 C564 C 0.56415 -0.12709 0.29963
 C565 C 0.49512 -0.17297 0.26836
 C566 C 0.49754 -0.14992 0.19938
 H567 H 0.50127 -0.11823 0.43069
 H568 H 0.50832 -0.07420 0.30925
 H569 H 0.59226 -0.08626 0.19393
 H570 H 0.58913 -0.12889 0.31982
 H571 H 0.47280 -0.20369 0.27085
 H572 H 0.47895 -0.16160 0.14226
 C573 C 0.33460 0.48920 0.34248
 C574 C 0.37660 0.49994 0.36505
 C575 C 0.39642 0.49698 0.29759
 C576 C 0.37456 0.48604 0.21056
 C577 C 0.33664 0.44744 0.22864
 C578 C 0.31596 0.44904 0.29750
 C579 C 0.34159 0.51837 0.26792
 C580 C 0.36227 0.51649 0.19840
 H581 H 0.39155 0.51266 0.42621
 H582 H 0.42591 0.50317 0.30510
 H583 H 0.32667 0.42118 0.18999
 H584 H 0.28832 0.42403 0.31759
 H585 H 0.33232 0.53950 0.27073
 H586 H 0.36990 0.53547 0.14174
 C587 C 1.17986 0.63878 0.33439
 C588 C 1.19002 0.61679 0.26713
 C589 C 1.16470 0.60176 0.19840
 C590 C 1.13089 0.60936 0.20342
 C591 C 1.11249 0.59408 0.29340
 C592 C 1.13734 0.60978 0.36069
 C593 C 1.17594 0.66936 0.28010
 C594 C 1.15055 0.65393 0.21114
 H595 H 1.21591 0.61472 0.27134
 H596 H 1.16964 0.58786 0.14322
 H597 H 1.08139 0.57582 0.30477
 H598 H 1.12581 0.60632 0.42590
 H599 H 1.19075 0.70020 0.29607
 H600 H 1.14433 0.67161 0.16790
 C601 C 0.48341 0.14407 0.34658
 C602 C 0.44429 0.12177 0.29736
 C603 C 0.44381 0.09926 0.22957
 C604 C 0.48253 0.10096 0.21633
 C605 C 0.51300 0.14467 0.20601
 C606 C 0.51420 0.16704 0.27496
 C607 C 0.49292 0.11252 0.37228
 C608 C 0.49160 0.08993 0.30545
 H609 H 0.41914 0.12386 0.31419
 H610 H 0.41839 0.08225 0.18858
 H611 H 0.53209 0.15697 0.14992
 H612 H 0.53610 0.19785 0.27913
 H613 H 0.50309 0.10968 0.43591
 H614 H 0.49776 0.06677 0.31510
 C615 C 0.64926 0.48867 0.34600
 C616 C 0.63866 0.45851 0.27212
 C617 C 0.62036 0.46355 0.20195
 C618 C 0.61344 0.49782 0.21247
 C619 C 0.59176 0.48976 0.29960
 C620 C 0.61003 0.48529 0.36846
 C621 C 0.67235 0.52885 0.29990
 C622 C 0.65377 0.53349 0.23028
 H623 H 0.64508 0.43527 0.27469
 H624 H 0.61224 0.44528 0.14409
 H625 H 0.56441 0.48883 0.30765
 H626 H 0.59700 0.48101 0.43221
 H627 H 0.70093 0.55197 0.32096
 H628 H 0.66655 0.56015 0.19188
 C629 C 0.82195 0.37037 0.33875
 C630 C 0.80797 0.38911 0.27098
 C631 C 0.83248 0.40602 0.20119
 C632 C 0.86934 0.40332 0.20559
 C633 C 0.88737 0.42025 0.29519
 C634 C 0.86347 0.40304 0.36342
 C635 C 0.82973 0.34229 0.28488
 C636 C 0.85413 0.35944 0.21487
 H637 H 0.78082 0.38873 0.27711
 H638 H 0.82613 0.41994 0.14804
 H639 H 0.91770 0.44253 0.30527
 H640 H 0.87554 0.40936 0.42857
 H641 H 0.81803 0.31185 0.30170
 H642 H 0.86254 0.34351 0.17167
   
