data_POSCAR
  _audit_creation_date              2014-09-24
  _audit_creation_method            'ToBaCCo'
  _symmetry_space_group_name_H-M    'P1'
  _symmetry_Int_Tables_number       1
  _symmetry_cell_setting            triclinic
  loop_
  _symmetry_equiv_pos_as_xyz
 x,y,z
_cell_length_a 13.8996
_cell_length_b 13.8996
_cell_length_c 23.8180
_cell_angle_alpha 89.817700
_cell_angle_beta 90.182400
_cell_angle_gamma 90.001000
loop_
  _atom_site_label
  _atom_site_type_symbol
  _atom_site_fract_x
  _atom_site_fract_y
  _atom_site_fract_z
O1 O -0.08040 0.59262 0.94576
 O2 O -0.08020 0.40447 1.05502
 O3 O -0.08021 0.59243 1.05484
 O4 O -0.08040 0.40492 0.94590
 O5 O 0.07871 0.40493 0.94611
 O6 O 0.07890 0.59243 1.05504
 O7 O 0.07889 0.40448 1.05522
 O8 O 0.07871 0.59262 0.94597
 Cu9 Cu -0.09636 0.49860 1.00040
 Cu10 Cu 0.09485 0.49860 1.00064
 C11 C -0.00088 0.62477 0.92766
 C12 C -0.00062 0.37219 1.07327
 C13 C -0.00063 0.62462 1.07301
 C14 C -0.00087 0.37293 0.92783
 O15 O 0.59552 -0.07889 0.55522
 O16 O 0.40738 -0.07871 0.44597
 O17 O 0.59507 -0.07871 0.44611
 O18 O 0.40757 -0.07890 0.55504
 O19 O 0.40757 0.08021 0.55484
 O20 O 0.59507 0.08040 0.44590
 O21 O 0.40738 0.08040 0.44576
 O22 O 0.59553 0.08020 0.55502
 Cu23 Cu 0.50140 -0.09485 0.50064
 Cu24 Cu 0.50140 0.09636 0.50040
 C25 C 0.62781 0.00062 0.57327
 C26 C 0.37523 0.00088 0.42766
 C27 C 0.62707 0.00087 0.42783
 C28 C 0.37538 0.00062 0.57301
 C29 C 0.00008 0.00079 0.24932
 C30 C -0.00079 -0.00008 0.74932
 C31 C -0.00054 -0.29925 0.11353
 C32 C -0.00045 -0.23341 0.14634
 C33 C -0.00030 -0.15433 0.18336
 C34 C -0.00015 -0.08515 0.21380
 C35 C -0.00054 0.30009 0.11183
 C36 C -0.00045 0.23439 0.14500
 C37 C -0.00030 0.15551 0.18246
 C38 C -0.00015 0.08652 0.21330
 C39 C 0.29925 0.00054 0.61353
 C40 C 0.23342 0.00045 0.64634
 C41 C 0.15433 0.00030 0.68336
 C42 C 0.08515 0.00015 0.71380
 C43 C -0.30009 0.00054 0.61183
 C44 C -0.23439 0.00045 0.64500
 C45 C -0.15551 0.00030 0.68246
 C46 C -0.08652 0.00015 0.71330
 C47 C -0.00093 -0.29935 0.88672
 C48 C -0.00095 -0.23381 0.85347
 C49 C -0.00093 -0.15506 0.81594
 C50 C -0.00089 -0.08605 0.78512
 C51 C -0.00093 0.29745 0.88692
 C52 C -0.00095 0.23229 0.85365
 C53 C -0.00093 0.15402 0.81607
 C54 C -0.00089 0.08542 0.78519
 C55 C -0.29745 0.00093 0.38692
 C56 C -0.23229 0.00095 0.35365
 C57 C -0.15402 0.00093 0.31607
 C58 C -0.08542 0.00089 0.28519
 C59 C 0.29935 0.00094 0.38672
 C60 C 0.23381 0.00095 0.35347
 C61 C 0.15506 0.00094 0.31594
 C62 C 0.08605 0.00089 0.28512
   
