data_POSCAR
  _audit_creation_date              2014-09-24
  _audit_creation_method            'ToBaCCo'
  _symmetry_space_group_name_H-M    'P1'
  _symmetry_Int_Tables_number       1
  _symmetry_cell_setting            triclinic
  loop_
  _symmetry_equiv_pos_as_xyz
 x,y,z
_cell_length_a 48.3550
_cell_length_b 48.8028
_cell_length_c 48.5053
_cell_angle_alpha 90.177800
_cell_angle_beta 90.156800
_cell_angle_gamma 99.137800
loop_
  _atom_site_label
  _atom_site_type_symbol
  _atom_site_fract_x
  _atom_site_fract_y
  _atom_site_fract_z
C1 C -0.04553 0.30577 -0.02298
 C2 C -0.05809 0.30902 0.00258
 C3 C -0.04517 0.30552 0.02797
 C4 C -0.01721 0.29960 0.02777
 C5 C -0.00317 0.29768 0.00216
 C6 C -0.01746 0.30018 -0.02324
 C7 C -0.00376 0.29521 -0.04789
 C8 C 0.02402 0.29129 -0.04808
 C9 C 0.03876 0.28884 -0.02347
 C10 C 0.02488 0.29180 0.00193
 C11 C -0.00350 0.29351 0.05213
 C12 C 0.02424 0.28937 0.05195
 C13 C 0.03895 0.28878 0.02716
 C14 C 0.06734 0.28502 0.02695
 C15 C 0.08124 0.28399 0.00187
 C16 C 0.06728 0.28455 -0.02348
 H17 H -0.01411 0.29392 -0.06764
 H18 H 0.03362 0.29027 -0.06804
 H19 H -0.01396 0.29134 0.07178
 H20 H 0.03389 0.28630 0.07160
 H21 H -0.07839 0.31582 0.00267
 H22 H 0.10284 0.28047 0.00226
 C23 C 0.43509 0.81151 0.51730
 C24 C 0.42087 0.80671 0.49213
 C25 C 0.43511 0.80404 0.46744
 C26 C 0.46473 0.80707 0.46766
 C27 C 0.47947 0.81135 0.49303
 C28 C 0.46470 0.81405 0.51788
 C29 C 0.48000 0.81966 0.54251
 C30 C 0.50891 0.82057 0.54310
 C31 C 0.52376 0.81632 0.51901
 C32 C 0.50906 0.81266 0.49358
 C33 C 0.48004 0.80637 0.44314
 C34 C 0.50898 0.80781 0.44365
 C35 C 0.52382 0.81004 0.46871
 C36 C 0.55311 0.81027 0.46954
 C37 C 0.56723 0.81352 0.49483
 C38 C 0.55302 0.81618 0.51955
 H39 H 0.46980 0.82349 0.56164
 H40 H 0.51955 0.82492 0.56265
 H41 H 0.46982 0.80491 0.42320
 H42 H 0.51961 0.80727 0.42411
 H43 H 0.39815 0.80368 0.49196
 H44 H 0.58954 0.81284 0.49539
 C45 C 1.03236 0.68837 -0.03631
 C46 C 1.04797 0.68567 -0.01250
 C47 C 1.03639 0.68588 0.01412
 C48 C 1.00764 0.68938 0.01646
 C49 C 0.99110 0.69045 -0.00778
 C50 C 1.00348 0.68953 -0.03414
 C51 C 0.98680 0.69027 -0.05779
 C52 C 0.95884 0.69334 -0.05580
 C53 C 0.94600 0.69506 -0.03000
 C54 C 0.96243 0.69389 -0.00574
 C55 C 0.99540 0.69406 0.04204
 C56 C 0.96734 0.69686 0.04411
 C57 C 0.95052 0.69710 0.02053
 C58 C 0.92231 0.70122 0.02249
 C59 C 0.90673 0.70319 -0.00149
 C60 C 0.91785 0.69993 -0.02772
 H61 H 0.99529 0.68870 -0.07825
 H62 H 0.94774 0.69513 -0.07489
 H63 H 1.00741 0.69667 0.06090
 H64 H 0.95922 0.69963 0.06450
 H65 H 1.06971 0.68329 -0.01505
 H66 H 0.88519 0.70667 0.00040
 C67 C 0.44538 0.18773 0.52701
 C68 C 0.43062 0.18752 0.50218
 C69 C 0.44367 0.18529 0.47678
 C70 C 0.47238 0.18252 0.47604
 C71 C 0.48742 0.18154 0.50110
 C72 C 0.47393 0.18436 0.52667
 C73 C 0.48933 0.18380 0.55118
 C74 C 0.51747 0.18095 0.55069
 C75 C 0.53122 0.17743 0.52572
 C76 C 0.51613 0.17816 0.50057
 C77 C 0.48644 0.18074 0.45096
 C78 C 0.51483 0.17891 0.45040
 C79 C 0.53002 0.17702 0.47488
 C80 C 0.55890 0.17487 0.47455
 C81 C 0.57270 0.17196 0.49946
 C82 C 0.55985 0.17419 0.52499
 H83 H 0.47979 0.18559 0.57112
 H84 H 0.52821 0.18181 0.57027
 H85 H 0.47574 0.18099 0.43139
 H86 H 0.52449 0.17878 0.43039
 H87 H 0.40880 0.19032 0.50257
 H88 H 0.59470 0.16982 0.49894
 C89 C 0.69633 -0.05014 -0.01947
 C90 C 0.69920 -0.06452 0.00518
 C91 C 0.70504 -0.05084 0.03067
 C92 C 0.70904 -0.02120 0.03106
 C93 C 0.70394 -0.00647 0.00682
 C94 C 0.69652 -0.02104 -0.01809
 C95 C 0.68780 -0.00635 -0.04059
 C96 C 0.68977 0.02233 -0.03987
 C97 C 0.70076 0.03774 -0.01669
 C98 C 0.70652 0.02304 0.00737
 C99 C 0.71954 -0.00570 0.05445
 C100 C 0.72139 0.02299 0.05523
 C101 C 0.71456 0.03773 0.03206
 C102 C 0.71547 0.06678 0.03297
 C103 C 0.71004 0.08104 0.00912
 C104 C 0.70408 0.06729 -0.01624
 H105 H 0.67881 -0.01701 -0.05888
 H106 H 0.68203 0.03223 -0.05757
 H107 H 0.72691 -0.01539 0.07243
 H108 H 0.72851 0.03350 0.07423
 H109 H 0.69733 -0.08689 0.00439
 H110 H 0.71242 0.10349 0.01020
 C111 C 0.19070 0.53726 0.47259
 C112 C 0.19356 0.55209 0.49748
 C113 C 0.19696 0.53903 0.52263
 C114 C 0.19682 0.51000 0.52315
 C115 C 0.19442 0.49469 0.49810
 C116 C 0.19090 0.50823 0.47278
 C117 C 0.18710 0.49227 0.44847
 C118 C 0.18865 0.46403 0.44870
 C119 C 0.19367 0.45050 0.47331
 C120 C 0.19561 0.46576 0.49838
 C121 C 0.19841 0.49577 0.54811
 C122 C 0.19938 0.46745 0.54839
 C123 C 0.19890 0.45220 0.52372
 C124 C 0.20106 0.42362 0.52377
 C125 C 0.19945 0.40896 0.49885
 C126 C 0.19617 0.42197 0.47364
 H127 H 0.18272 0.50137 0.42896
 H128 H 0.18555 0.45284 0.42936
 H129 H 0.19865 0.50631 0.56777
 H130 H 0.20036 0.45764 0.56826
 H131 H 0.19420 0.57441 0.49716
 H132 H 0.20196 0.38726 0.49898
 C133 C 0.29706 1.05746 0.01954
 C134 C 0.30239 1.06903 -0.00684
 C135 C 0.30522 1.05294 -0.03035
 C136 C 0.30542 1.02413 -0.02705
 C137 C 0.29967 1.01160 -0.00087
 C138 C 0.29500 1.02809 0.02245
 C139 C 0.28664 1.01436 0.04731
 C140 C 0.28544 0.98580 0.04998
 C141 C 0.29095 0.96936 0.02749
 C142 C 0.29785 0.98229 0.00175
 C143 C 0.31268 1.00776 -0.04900
 C144 C 0.31123 0.97928 -0.04632
 C145 C 0.30267 0.96593 -0.02150
 C146 C 0.29942 0.93666 -0.01919
 C147 C 0.29370 0.92444 0.00662
 C148 C 0.28961 0.94028 0.02991
 H149 H 0.28023 1.02528 0.06496
 H150 H 0.27967 0.97670 0.06986
 H151 H 0.31992 1.01692 -0.06849
 H152 H 0.31714 0.96785 -0.06392
 H153 H 0.30338 1.09122 -0.00930
 H154 H 0.29138 0.90204 0.00848
 C155 C 0.80312 0.57960 0.48368
 C156 C 0.79915 0.59292 0.50862
 C157 C 0.79817 0.57888 0.53379
 C158 C 0.80176 0.55066 0.53428
 C159 C 0.80577 0.53680 0.50922
 C160 C 0.80709 0.55145 0.48391
 C161 C 0.81278 0.53768 0.45959
 C162 C 0.81528 0.50966 0.45981
 C163 C 0.81197 0.49422 0.48435
 C164 C 0.80810 0.50812 0.50943
 C165 C 0.80185 0.53603 0.55920
 C166 C 0.80394 0.50794 0.55939
 C167 C 0.80620 0.49336 0.53468
 C168 C 0.80707 0.46449 0.53459
 C169 C 0.81073 0.45106 0.50965
 C170 C 0.81289 0.46534 0.48456
 H171 H 0.81557 0.54849 0.44011
 H172 H 0.81994 0.50029 0.44049
 H173 H 0.80039 0.54616 0.57889
 H174 H 0.80395 0.49781 0.57920
 H175 H 0.79538 0.61425 0.50831
 H176 H 0.81061 0.42881 0.50963
 O177 O 0.26300 0.20729 0.23047
 O178 O 0.24321 0.25962 0.27822
 O179 O 0.22787 0.24270 0.22844
 O180 O 0.27937 0.22546 0.27926
 O181 O 0.31180 0.25655 0.26033
 O182 O 0.25993 0.27549 0.21151
 O183 O 0.27627 0.29120 0.26095
 O184 O 0.29394 0.23961 0.21099
 Cu185 Cu 0.25011 0.23058 0.25591
 Cu186 Cu 0.28880 0.26883 0.23416
 C187 C 0.28141 0.21470 0.21225
 C188 C 0.25658 0.28423 0.27809
 C189 C 0.23515 0.26218 0.21131
 C190 C 0.30443 0.23818 0.27850
 O191 O 0.76228 0.80784 0.23791
 O192 O 0.78538 0.76454 0.29324
 O193 O 0.80087 0.77691 0.24248
 O194 O 0.74759 0.79697 0.28892
 O195 O 0.71703 0.76156 0.27409
 O196 O 0.77098 0.74056 0.22852
 O197 O 0.75460 0.72911 0.27884
 O198 O 0.73308 0.77140 0.22275
 Cu199 Cu 0.77702 0.79013 0.26722
 Cu200 Cu 0.74077 0.74709 0.24974
 C201 C 0.74438 0.79658 0.22039
 C202 C 0.77373 0.73939 0.29556
 C203 C 0.79495 0.75559 0.22720
 C204 C 0.72324 0.78275 0.28955
 O205 O 0.79969 0.27633 0.23638
 O206 O 0.75330 0.24565 0.29192
 O207 O 0.76537 0.23011 0.24184
 O208 O 0.78638 0.29211 0.28549
 O209 O 0.75183 0.31095 0.26771
 O210 O 0.73007 0.24883 0.22541
 O211 O 0.71834 0.26418 0.27431
 O212 O 0.76454 0.29401 0.21815
 Cu213 Cu 0.77967 0.25913 0.26565
 Cu214 Cu 0.73784 0.28165 0.24470
 C215 C 0.78974 0.28963 0.21730
 C216 C 0.72812 0.24999 0.29277
 C217 C 0.74420 0.22905 0.22601
 C218 C 0.77226 0.31194 0.28440
 O219 O 0.24354 0.68349 0.25057
 O220 O 0.26758 0.74583 0.20964
 O221 O 0.27866 0.72861 0.25815
 O222 O 0.23160 0.70166 0.20122
 O223 O 0.19729 0.71992 0.22032
 O224 O 0.24579 0.75044 0.27503
 O225 O 0.23284 0.76550 0.22577
 O226 O 0.21112 0.70431 0.26974
 Cu227 Cu 0.25852 0.71260 0.22808
 Cu228 Cu 0.21827 0.73692 0.24950
 C229 C 0.22406 0.68364 0.26806
 C230 C 0.25416 0.76616 0.21035
 C231 C 0.27040 0.74443 0.27616
 C232 C 0.20663 0.70670 0.20076
 O233 O 0.76561 0.27711 0.78385
 O234 O 0.72053 0.24391 0.72810
 O235 O 0.73200 0.23119 0.77856
 O236 O 0.75504 0.29053 0.73276
 O237 O 0.79029 0.27054 0.71849
 O238 O 0.76638 0.21062 0.76311
 O239 O 0.75587 0.22490 0.71214
 O240 O 0.80059 0.25705 0.76876
 Cu241 Cu 0.73981 0.26282 0.75719
 Cu242 Cu 0.78169 0.23860 0.73912
 C243 C 0.79050 0.27215 0.78623
 C244 C 0.73075 0.22929 0.71029
 C245 C 0.74564 0.21099 0.77908
 C246 C 0.77651 0.29061 0.71764
 O247 O 0.28484 0.74412 0.73535
 O248 O 0.22601 0.71627 0.77989
 O249 O 0.24391 0.70320 0.73160
 O250 O 0.26564 0.75911 0.78270
 O251 O 0.23974 0.78549 0.76085
 O252 O 0.21641 0.72934 0.71168
 O253 O 0.19961 0.74348 0.75996
 O254 O 0.25825 0.76985 0.71354
 Cu255 Cu 0.25778 0.72810 0.75953
 Cu256 Cu 0.22590 0.75973 0.73443
 C257 C 0.28151 0.76109 0.71632
 C258 C 0.20288 0.72529 0.77789
 C259 C 0.22643 0.70687 0.71283
 C260 C 0.25610 0.78187 0.78054
 O261 O 0.25874 0.28012 0.73045
 O262 O 0.28518 0.23434 0.78079
 O263 O 0.29472 0.24600 0.72909
 O264 O 0.24886 0.26809 0.78249
 O265 O 0.21535 0.23402 0.77049
 O266 O 0.26115 0.21202 0.71698
 O267 O 0.25177 0.20022 0.76863
 O268 O 0.22506 0.24620 0.71847
 Cu269 Cu 0.27516 0.26062 0.75691
 Cu270 Cu 0.23490 0.21976 0.74243
 C271 C 0.23764 0.27092 0.71555
 C272 C 0.27300 0.20944 0.78336
 C273 C 0.28578 0.22523 0.71386
 C274 C 0.22440 0.25459 0.78594
 O275 O 0.71636 0.78743 0.72097
 O276 O 0.76915 0.77502 0.77224
 O277 O 0.75764 0.75899 0.72133
 O278 O 0.72863 0.80327 0.77143
 O279 O 0.70094 0.76667 0.78775
 O280 O 0.72816 0.72273 0.73574
 O281 O 0.74135 0.73737 0.78637
 O282 O 0.68738 0.75155 0.73690
 Cu283 Cu 0.74581 0.78478 0.74483
 Cu284 Cu 0.71152 0.74092 0.76318
 C285 C 0.69278 0.77168 0.72019
 C286 C 0.76416 0.75425 0.78819
 C287 C 0.74764 0.73335 0.71968
 C288 C 0.71040 0.79249 0.78867
 C289 C 0.27574 0.11788 0.05648
 C290 C 0.28906 0.11731 0.08232
 C291 C 0.30310 0.09460 0.08806
 C292 C 0.30589 0.07478 0.06747
 C293 C 0.29318 0.07600 0.04141
 C294 C 0.27769 0.09764 0.03664
 C295 C 0.31440 0.09196 0.11427
 C296 C 0.31134 0.11097 0.13510
 C297 C 0.29813 0.13429 0.13004
 C298 C 0.28839 0.13832 0.10275
 C299 C 0.27914 0.16361 0.09646
 C300 C 0.27822 0.18380 0.11646
 C301 C 0.28540 0.17920 0.14370
 C302 C 0.29488 0.15414 0.15111
 C303 C 0.29984 0.14969 0.17944
 C304 C 0.29562 0.16943 0.19933
 C305 C 0.28730 0.19445 0.19151
 C306 C 0.28256 0.19938 0.16370
 H307 H 0.26288 0.13326 0.05127
 H308 H 0.31878 0.05897 0.07154
 H309 H 0.26650 0.09881 0.01740
 H310 H 0.32524 0.07471 0.11891
 H311 H 0.32056 0.10748 0.15479
 H312 H 0.27345 0.16885 0.07586
 H313 H 0.27121 0.20301 0.11063
 H314 H 0.30586 0.13069 0.18692
 H315 H 0.29886 0.16518 0.22091
 H316 H 0.27539 0.21851 0.15780
 C317 C 0.75912 0.59904 0.59620
 C318 C 0.77590 0.62404 0.60499
 C319 C 0.80034 0.63382 0.58955
 C320 C 0.80782 0.61869 0.56683
 C321 C 0.79111 0.59390 0.55877
 C322 C 0.76660 0.58442 0.57337
 C323 C 0.81705 0.65882 0.59662
 C324 C 0.80970 0.67488 0.61824
 C325 C 0.78541 0.66632 0.63407
 C326 C 0.76887 0.63996 0.62803
 C327 C 0.74596 0.63032 0.64532
 C328 C 0.73862 0.64633 0.66696
 C329 C 0.75351 0.67271 0.67211
 C330 C 0.77711 0.68319 0.65580
 C331 C 0.79097 0.71042 0.66158
 C332 C 0.78163 0.72639 0.68249
 C333 C 0.75832 0.71585 0.69848
 C334 C 0.74457 0.68882 0.69333
 H335 H 0.73968 0.59056 0.60597
 H336 H 0.82655 0.62632 0.55515
 H337 H 0.75299 0.56568 0.56686
 H338 H 0.83587 0.66628 0.58503
 H339 H 0.82384 0.69384 0.62224
 H340 H 0.73337 0.61017 0.64295
 H341 H 0.72076 0.63809 0.67957
 H342 H 0.80867 0.72035 0.64994
 H343 H 0.79262 0.74725 0.68594
 H344 H 0.72636 0.68048 0.70544
 C345 C 0.69784 0.92398 0.10372
 C346 C 0.71169 0.90057 0.10306
 C347 C 0.72110 0.89231 0.07718
 C348 C 0.71920 0.90855 0.05363
 C349 C 0.70681 0.93278 0.05471
 C350 C 0.69501 0.93936 0.07991
 C351 C 0.73261 0.86796 0.07489
 C352 C 0.73467 0.85134 0.09773
 C353 C 0.72646 0.85915 0.12414
 C354 C 0.71616 0.88488 0.12707
 C355 C 0.71189 0.89464 0.15392
 C356 C 0.71737 0.87967 0.17713
 C357 C 0.72591 0.85379 0.17450
 C358 C 0.72938 0.84264 0.14791
 C359 C 0.73540 0.81525 0.14619
 C360 C 0.73932 0.80028 0.16991
 C361 C 0.73791 0.81220 0.19600
 C362 C 0.73108 0.83892 0.19829
 H363 H 0.68812 0.93031 0.12216
 H364 H 0.72844 0.90265 0.03462
 H365 H 0.68315 0.95637 0.08123
 H366 H 0.73988 0.86150 0.05514
 H367 H 0.74412 0.83305 0.09427
 H368 H 0.70559 0.91455 0.15765
 H369 H 0.71458 0.88832 0.19736
 H370 H 0.73657 0.80461 0.12682
 H371 H 0.74422 0.77946 0.16784
 H372 H 0.72938 0.84790 0.21858
 C373 C 0.23775 0.40248 0.58738
 C374 C 0.21921 0.37888 0.59668
 C375 C 0.19443 0.37033 0.58112
 C376 C 0.18842 0.38526 0.55772
 C377 C 0.20686 0.40868 0.54918
 C378 C 0.23165 0.41694 0.56395
 C379 C 0.17586 0.34680 0.58878
 C380 C 0.18155 0.33100 0.61123
 C381 C 0.20605 0.33833 0.62726
 C382 C 0.22472 0.36318 0.62040
 C383 C 0.24821 0.37156 0.63754
 C384 C 0.25403 0.35569 0.65985
 C385 C 0.23689 0.33074 0.66596
 C386 C 0.21258 0.32165 0.64991
 C387 C 0.19624 0.29588 0.65689
 C388 C 0.20406 0.27984 0.67849
 C389 C 0.22825 0.28888 0.69403
 C390 C 0.24432 0.31460 0.68785
 H391 H 0.25745 0.41000 0.59729
 H392 H 0.16942 0.37859 0.54595
 H393 H 0.24648 0.43463 0.55716
 H394 H 0.15681 0.34029 0.57708
 H395 H 0.16605 0.31317 0.61560
 H396 H 0.26254 0.39054 0.63446
 H397 H 0.27246 0.36289 0.67226
 H398 H 0.17765 0.28711 0.64572
 H399 H 0.19125 0.26002 0.68277
 H400 H 0.26318 0.32180 0.69963
 C401 C 0.93347 0.32368 0.09945
 C402 C 0.90484 0.31165 0.09984
 C403 C 0.89304 0.29936 0.07517
 C404 C 0.90991 0.29676 0.05223
 C405 C 0.93869 0.30772 0.05221
 C406 C 0.94983 0.32227 0.07585
 C407 C 0.86441 0.28951 0.07343
 C408 C 0.84702 0.29171 0.09571
 C409 C 0.85790 0.30262 0.12118
 C410 C 0.88744 0.31154 0.12367
 C411 C 0.89873 0.31856 0.15010
 C412 C 0.88176 0.31628 0.17339
 C413 C 0.85279 0.30847 0.17105
 C414 C 0.84034 0.30318 0.14470
 C415 C 0.81075 0.29822 0.14301
 C416 C 0.79441 0.29579 0.16677
 C417 C 0.80698 0.29798 0.19284
 C418 C 0.83616 0.30511 0.19492
 H419 H 0.94345 0.33527 0.11674
 H420 H 0.90048 0.28553 0.03434
 H421 H 0.97113 0.33325 0.07599
 H422 H 0.85527 0.28015 0.05453
 H423 H 0.82524 0.28318 0.09282
 H424 H 0.92093 0.32430 0.15360
 H425 H 0.89143 0.32063 0.19345
 H426 H 0.79966 0.29616 0.12361
 H427 H 0.77186 0.29072 0.16470
 H428 H 0.84592 0.30748 0.21512
 C429 C 0.37991 0.82735 0.56755
 C430 C 0.38100 0.80735 0.58850
 C431 C 0.40190 0.79007 0.58630
 C432 C 0.41969 0.79186 0.56335
 C433 C 0.41787 0.81135 0.54262
 C434 C 0.39801 0.82916 0.54500
 C435 C 0.40468 0.77072 0.60672
 C436 C 0.38702 0.76778 0.62935
 C437 C 0.36528 0.78379 0.63222
 C438 C 0.36191 0.80359 0.61123
 C439 C 0.33899 0.81820 0.61317
 C440 C 0.31968 0.81324 0.63443
 C441 C 0.32273 0.79410 0.65505
 C442 C 0.34608 0.77981 0.65480
 C443 C 0.34898 0.76179 0.67706
 C444 C 0.32854 0.75671 0.69742
 C445 C 0.30456 0.76947 0.69654
 C446 C 0.30217 0.78873 0.67564
 H447 H 0.36540 0.84195 0.56792
 H448 H 0.43476 0.77772 0.56134
 H449 H 0.39631 0.84437 0.52912
 H450 H 0.42066 0.75751 0.60514
 H451 H 0.39041 0.75195 0.64380
 H452 H 0.33475 0.83303 0.59797
 H453 H 0.30200 0.82440 0.63460
 H454 H 0.36674 0.75118 0.67941
 H455 H 0.33127 0.74209 0.71357
 H456 H 0.28394 0.79911 0.67499
 C457 C 0.06210 0.66640 0.08344
 C458 C 0.08990 0.68074 0.08383
 C459 C 0.10031 0.69432 0.05938
 C460 C 0.08251 0.69617 0.03682
 C461 C 0.05423 0.68338 0.03715
 C462 C 0.04492 0.66720 0.06029
 C463 C 0.12839 0.70640 0.05762
 C464 C 0.14650 0.70522 0.07967
 C465 C 0.13681 0.69316 0.10497
 C466 C 0.10778 0.68193 0.10750
 C467 C 0.09729 0.67377 0.13386
 C468 C 0.11456 0.67689 0.15704
 C469 C 0.14317 0.68672 0.15463
 C470 C 0.15493 0.69350 0.12830
 C471 C 0.18438 0.70059 0.12644
 C472 C 0.20110 0.70314 0.15005
 C473 C 0.18906 0.69913 0.17620
 C474 C 0.16012 0.69039 0.17841
 H475 H 0.05341 0.65365 0.10042
 H476 H 0.09069 0.70865 0.01934
 H477 H 0.02424 0.65483 0.06049
 H478 H 0.13652 0.71676 0.03892
 H479 H 0.16775 0.71542 0.07680
 H480 H 0.07536 0.66642 0.13742
 H481 H 0.10541 0.67149 0.17707
 H482 H 0.19509 0.70405 0.10699
 H483 H 0.22350 0.70955 0.14790
 H484 H 0.15082 0.68668 0.19864
 C485 C 0.59015 0.16244 0.59585
 C486 C 0.61505 0.18218 0.59606
 C487 C 0.62199 0.19772 0.57174
 C488 C 0.60338 0.19548 0.54942
 C489 C 0.57838 0.17652 0.54977
 C490 C 0.57247 0.15929 0.57275
 C491 C 0.64749 0.21546 0.56972
 C492 C 0.66656 0.21798 0.59131
 C493 C 0.66018 0.20387 0.61640
 C494 C 0.63342 0.18686 0.61933
 C495 C 0.62541 0.17631 0.64569
 C496 C 0.64285 0.18256 0.66849
 C497 C 0.66952 0.19811 0.66560
 C498 C 0.67912 0.20759 0.63918
 C499 C 0.70731 0.22058 0.63667
 C500 C 0.72439 0.22605 0.65985
 C501 C 0.71384 0.21915 0.68612
 C502 C 0.68658 0.20474 0.68897
 H503 H 0.58438 0.14854 0.61287
 H504 H 0.60851 0.20845 0.53144
 H505 H 0.55401 0.14348 0.57291
 H506 H 0.65290 0.22734 0.55111
 H507 H 0.68562 0.23242 0.58829
 H508 H 0.60502 0.16444 0.64958
 H509 H 0.63543 0.17503 0.68858
 H510 H 0.71679 0.22648 0.61703
 H511 H 0.74562 0.23685 0.65735
 H512 H 0.67866 0.19886 0.70936
 C513 C 0.69165 0.12460 0.93661
 C514 C 0.70561 0.11856 0.91224
 C515 C 0.71877 0.09460 0.91224
 C516 C 0.71751 0.07742 0.93555
 C517 C 0.70344 0.08356 0.95959
 C518 C 0.69085 0.10759 0.95978
 C519 C 0.73368 0.08815 0.88920
 C520 C 0.73668 0.10540 0.86634
 C521 C 0.72449 0.12983 0.86543
 C522 C 0.70774 0.13589 0.88830
 C523 C 0.69377 0.15913 0.88649
 C524 C 0.69722 0.17673 0.86393
 C525 C 0.71490 0.17214 0.84233
 C526 C 0.72867 0.14856 0.84256
 C527 C 0.74676 0.14530 0.82024
 C528 C 0.75148 0.16503 0.79924
 C529 C 0.73818 0.18850 0.79949
 C530 C 0.71940 0.19154 0.82084
 H531 H 0.68164 0.14268 0.93878
 H532 H 0.72875 0.05988 0.93537
 H533 H 0.67976 0.11311 0.97783
 H534 H 0.74358 0.06971 0.88897
 H535 H 0.74860 0.09882 0.84954
 H536 H 0.67973 0.16427 0.90219
 H537 H 0.68633 0.19450 0.86367
 H538 H 0.75835 0.12826 0.81877
 H539 H 0.76613 0.16214 0.78304
 H540 H 0.70908 0.20970 0.82140
 C541 C 0.16815 0.58658 0.42000
 C542 C 0.18861 0.58690 0.39906
 C543 C 0.20900 0.56922 0.40240
 C544 C 0.20945 0.55304 0.42622
 C545 C 0.18924 0.55327 0.44677
 C546 C 0.16861 0.57007 0.44343
 C547 C 0.22912 0.56799 0.38214
 C548 C 0.22982 0.58416 0.35862
 C549 C 0.21060 0.60276 0.35456
 C550 C 0.18981 0.60437 0.37524
 C551 C 0.17154 0.62402 0.37186
 C552 C 0.17397 0.64203 0.34958
 C553 C 0.19423 0.64088 0.32942
 C554 C 0.21223 0.62065 0.33106
 C555 C 0.23151 0.61962 0.30929
 C556 C 0.23423 0.63922 0.28818
 C557 C 0.21776 0.66037 0.28778
 C558 C 0.19714 0.66049 0.30802
 H559 H 0.15144 0.59872 0.41897
 H560 H 0.22574 0.54034 0.42897
 H561 H 0.15281 0.57053 0.45915
 H562 H 0.24468 0.55443 0.38457
 H563 H 0.24639 0.58215 0.34435
 H564 H 0.15558 0.62671 0.38658
 H565 H 0.15999 0.65729 0.34832
 H566 H 0.24505 0.60417 0.30803
 H567 H 0.25004 0.63827 0.27257
 H568 H 0.18395 0.67650 0.30774
 C569 C 0.31449 0.87822 0.93411
 C570 C 0.29596 0.87977 0.91165
 C571 C 0.27972 0.90156 0.91199
 C572 C 0.28122 0.92003 0.93437
 C573 C 0.29942 0.91799 0.95648
 C574 C 0.31606 0.89701 0.95612
 C575 C 0.26173 0.90470 0.89018
 C576 C 0.25929 0.88667 0.86787
 C577 C 0.27449 0.86426 0.86660
 C578 C 0.29276 0.86043 0.88908
 C579 C 0.30654 0.83698 0.88859
 C580 C 0.30238 0.81775 0.86716
 C581 C 0.28488 0.82134 0.84502
 C582 C 0.27129 0.84503 0.84401
 C583 C 0.25486 0.84835 0.82043
 C584 C 0.25079 0.82824 0.79973
 C585 C 0.26300 0.80412 0.80151
 C586 C 0.28054 0.80108 0.82402
 H587 H 0.32816 0.86287 0.93532
 H588 H 0.26791 0.93594 0.93479
 H589 H 0.33025 0.89506 0.97306
 H590 H 0.24927 0.92132 0.89038
 H591 H 0.24453 0.89048 0.85224
 H592 H 0.32019 0.83238 0.90493
 H593 H 0.31296 0.79978 0.86802
 H594 H 0.24484 0.86627 0.81720
 H595 H 0.23752 0.83148 0.78241
 H596 H 0.29044 0.78271 0.82548
 C597 C 0.83392 0.41483 0.43214
 C598 C 0.81253 0.41367 0.41189
 C599 C 0.79211 0.43126 0.41557
 C600 C 0.79262 0.44825 0.43901
 C601 C 0.81368 0.44878 0.45892
 C602 C 0.83431 0.43204 0.45526
 C603 C 0.77095 0.43154 0.39609
 C604 C 0.76915 0.41439 0.37310
 C605 C 0.78834 0.39581 0.36877
 C606 C 0.81038 0.39539 0.38852
 C607 C 0.82898 0.37613 0.38466
 C608 C 0.82569 0.35733 0.36291
 C609 C 0.80411 0.35719 0.34379
 C610 C 0.78562 0.37692 0.34589
 C611 C 0.76478 0.37646 0.32523
 C612 C 0.76134 0.35611 0.30469
 C613 C 0.77860 0.33565 0.30377
 C614 C 0.80050 0.33684 0.32296
 H615 H 0.85063 0.40272 0.43088
 H616 H 0.77632 0.46088 0.44204
 H617 H 0.85072 0.43213 0.47053
 H618 H 0.75539 0.44506 0.39876
 H619 H 0.75185 0.41575 0.35944
 H620 H 0.84600 0.37445 0.39857
 H621 H 0.84006 0.34247 0.36126
 H622 H 0.75052 0.39127 0.32442
 H623 H 0.74449 0.35600 0.28991
 H624 H 0.81426 0.32134 0.32227
 C625 C 0.08633 0.25429 0.90966
 C626 C 0.11362 0.26892 0.90485
 C627 C 0.12493 0.28902 0.92471
 C628 C 0.10951 0.29402 0.94817
 C629 C 0.08220 0.27988 0.95231
 C630 C 0.07110 0.25962 0.93296
 C631 C 0.15165 0.30410 0.92117
 C632 C 0.16764 0.29974 0.89835
 C633 C 0.15757 0.27988 0.87797
 C634 C 0.13013 0.26414 0.88131
 C635 C 0.12023 0.24402 0.86111
 C636 C 0.13659 0.23905 0.83874
 C637 C 0.16338 0.25403 0.83529
 C638 C 0.17419 0.27495 0.85457
 C639 C 0.20132 0.28989 0.84962
 C640 C 0.21716 0.28363 0.82711
 C641 C 0.20666 0.26239 0.80863
 C642 C 0.17954 0.24792 0.81271
 H643 H 0.07610 0.23840 0.89600
 H644 H 0.11856 0.30963 0.96300
 H645 H 0.05073 0.24720 0.93624
 H646 H 0.16039 0.31950 0.93630
 H647 H 0.18806 0.31223 0.89752
 H648 H 0.09986 0.23144 0.86201
 H649 H 0.12816 0.22315 0.82398
 H650 H 0.21110 0.30649 0.86274
 H651 H 0.23798 0.29529 0.82444
 H652 H 0.17105 0.23154 0.79846
 C653 C 0.58034 0.77490 0.40804
 C654 C 0.60336 0.79467 0.39936
 C655 C 0.60899 0.82006 0.41422
 C656 C 0.59213 0.82524 0.43657
 C657 C 0.56957 0.80542 0.44475
 C658 C 0.56390 0.78023 0.43045
 C659 C 0.63164 0.84005 0.40701
 C660 C 0.64949 0.83523 0.38583
 C661 C 0.64530 0.81011 0.37074
 C662 C 0.62132 0.78987 0.37699
 C663 C 0.61618 0.76551 0.36075
 C664 C 0.63439 0.76046 0.33994
 C665 C 0.65857 0.77928 0.33452
 C666 C 0.66438 0.80445 0.34969
 C667 C 0.68948 0.82258 0.34358
 C668 C 0.70805 0.81568 0.32373
 C669 C 0.70233 0.79065 0.30907
 C670 C 0.67727 0.77274 0.31428
 H671 H 0.57479 0.75485 0.39846
 H672 H 0.59673 0.84463 0.44791
 H673 H 0.54684 0.76444 0.43693
 H674 H 0.63586 0.85959 0.41812
 H675 H 0.66640 0.85187 0.38175
 H676 H 0.59808 0.74982 0.36347
 H677 H 0.62966 0.74133 0.32821
 H678 H 0.69587 0.84197 0.35417
 H679 H 0.72723 0.82997 0.32013
 H680 H 0.67266 0.75323 0.30316
 C681 C 0.87631 0.68432 0.90760
 C682 C 0.86428 0.70874 0.90420
 C683 C 0.87159 0.73048 0.92361
 C684 C 0.88864 0.72698 0.94634
 C685 C 0.90062 0.70281 0.94930
 C686 C 0.89434 0.68156 0.92967
 C687 C 0.86205 0.75575 0.92019
 C688 C 0.84593 0.76029 0.89746
 C689 C 0.83766 0.73920 0.87780
 C690 C 0.84562 0.71253 0.88208
 C691 C 0.83394 0.69040 0.86469
 C692 C 0.81532 0.69428 0.84368
 C693 C 0.80872 0.72056 0.83827
 C694 C 0.82073 0.74361 0.85455
 C695 C 0.81557 0.77024 0.84668
 C696 C 0.79796 0.77352 0.82453
 C697 C 0.78455 0.75045 0.80987
 C698 C 0.79011 0.72400 0.81667
 H699 H 0.87277 0.66730 0.89313
 H700 H 0.89361 0.74367 0.96126
 H701 H 0.90296 0.66248 0.93172
 H702 H 0.86748 0.77240 0.93504
 H703 H 0.83920 0.78029 0.89647
 H704 H 0.83786 0.66947 0.86763
 H705 H 0.80628 0.67656 0.83129
 H706 H 0.82534 0.78899 0.85685
 H707 H 0.79418 0.79419 0.81932
 H708 H 0.78022 0.70616 0.80490
 C709 C 0.38523 0.16982 0.42440
 C710 C 0.39109 0.19236 0.40582
 C711 C 0.41579 0.21180 0.41049
 C712 C 0.43303 0.20919 0.43336
 C713 C 0.42659 0.18698 0.45161
 C714 C 0.40268 0.16735 0.44692
 C715 C 0.42303 0.23398 0.39256
 C716 C 0.40625 0.23760 0.37004
 C717 C 0.38111 0.21928 0.36471
 C718 C 0.37323 0.19644 0.38307
 C719 C 0.34745 0.17890 0.37849
 C720 C 0.32976 0.18363 0.35705
 C721 C 0.33714 0.20568 0.33897
 C722 C 0.36317 0.22348 0.34207
 C723 C 0.36997 0.24489 0.32243
 C724 C 0.35118 0.24910 0.30156
 C725 C 0.32502 0.23219 0.29939
 C726 C 0.31834 0.21021 0.31795
 H727 H 0.36739 0.15369 0.42221
 H728 H 0.45139 0.22462 0.43723
 H729 H 0.39738 0.15009 0.46095
 H730 H 0.44190 0.24885 0.39601
 H731 H 0.41335 0.25551 0.35756
 H732 H 0.33986 0.16156 0.39154
 H733 H 0.30995 0.16988 0.35470
 H734 H 0.38960 0.25882 0.32249
 H735 H 0.35707 0.26608 0.28733
 H736 H 0.29829 0.19673 0.31627
 C737 C 0.71315 0.93178 0.90832
 C738 C 0.69823 0.90458 0.90514
 C739 C 0.68208 0.89286 0.92777
 C740 C 0.68082 0.90807 0.95228
 C741 C 0.69566 0.93517 0.95513
 C742 C 0.71198 0.94656 0.93279
 C743 C 0.66757 0.86584 0.92605
 C744 C 0.66958 0.84966 0.90276
 C745 C 0.68598 0.86005 0.87991
 C746 C 0.69961 0.88834 0.88071
 C747 C 0.71431 0.89940 0.85711
 C748 C 0.71735 0.88300 0.83430
 C749 C 0.70589 0.85496 0.83395
 C750 C 0.68960 0.84307 0.85645
 C751 C 0.67845 0.81443 0.85478
 C752 C 0.68428 0.79830 0.83231
 C753 C 0.70124 0.81008 0.81070
 C754 C 0.71134 0.83861 0.81139
 H755 H 0.72682 0.94199 0.89272
 H756 H 0.66783 0.89879 0.96905
 H757 H 0.72503 0.96670 0.93458
 H758 H 0.65493 0.85684 0.94317
 H759 H 0.65790 0.82896 0.90334
 H760 H 0.72379 0.92083 0.85551
 H761 H 0.72933 0.89231 0.81689
 H762 H 0.66586 0.80358 0.87082
 H763 H 0.67614 0.77630 0.83231
 H764 H 0.72436 0.84806 0.79471
 C765 C 0.18243 0.36336 0.42168
 C766 C 0.20442 0.37042 0.40242
 C767 C 0.22254 0.39601 0.40637
 C768 C 0.21914 0.41310 0.42906
 C769 C 0.19769 0.40539 0.44813
 C770 C 0.17932 0.38053 0.44417
 C771 C 0.24437 0.40420 0.38802
 C772 C 0.24922 0.38733 0.36606
 C773 C 0.23242 0.36126 0.36157
 C774 C 0.20944 0.35279 0.37988
 C775 C 0.19261 0.32674 0.37535
 C776 C 0.19841 0.30920 0.35432
 C777 C 0.22104 0.31683 0.33674
 C778 C 0.23815 0.34311 0.33973
 C779 C 0.26057 0.34984 0.32091
 C780 C 0.26609 0.33098 0.30073
 C781 C 0.24956 0.30477 0.29845
 C782 C 0.22681 0.29803 0.31635
 H783 H 0.16746 0.34457 0.42030
 H784 H 0.23369 0.43217 0.43236
 H785 H 0.16269 0.37418 0.45884
 H786 H 0.25814 0.42384 0.39084
 H787 H 0.26670 0.39531 0.35316
 H788 H 0.17484 0.31897 0.38797
 H789 H 0.18511 0.28923 0.35197
 H790 H 0.27447 0.36938 0.32126
 H791 H 0.28373 0.33686 0.28711
 H792 H 0.21369 0.27789 0.31468
 C793 C 0.28336 0.06822 0.89830
 C794 C 0.29736 0.09567 0.89424
 C795 C 0.31635 0.10739 0.91500
 C796 C 0.31997 0.09264 0.93918
 C797 C 0.30497 0.06591 0.94354
 C798 C 0.28701 0.05380 0.92250
 C799 C 0.33111 0.13412 0.91198
 C800 C 0.32653 0.15019 0.88941
 C801 C 0.30671 0.14018 0.86886
 C802 C 0.29244 0.11219 0.87090
 C803 C 0.27316 0.10195 0.84995
 C804 C 0.26687 0.11877 0.82859
 C805 C 0.27959 0.14640 0.82701
 C806 C 0.30014 0.15743 0.84671
 C807 C 0.31262 0.18557 0.84378
 C808 C 0.30424 0.20208 0.82289
 C809 C 0.28323 0.19126 0.80414
 C810 C 0.27138 0.16322 0.80604
 H811 H 0.26869 0.05749 0.88367
 H812 H 0.33444 0.10218 0.95487
 H813 H 0.27431 0.03364 0.92537
 H814 H 0.34600 0.14300 0.92759
 H815 H 0.33866 0.17068 0.88902
 H816 H 0.26209 0.08101 0.84961
 H817 H 0.25145 0.11013 0.81334
 H818 H 0.32859 0.19573 0.85749
 H819 H 0.31392 0.22364 0.82181
 H820 H 0.25528 0.15451 0.79147
 C821 C 0.77441 0.60029 0.41557
 C822 C 0.79059 0.62665 0.41053
 C823 C 0.81171 0.63683 0.43001
 C824 C 0.81638 0.62102 0.45325
 C825 C 0.80009 0.59506 0.45780
 C826 C 0.77903 0.58498 0.43889
 C827 C 0.82773 0.66295 0.42651
 C828 C 0.82287 0.67968 0.40447
 C829 C 0.80184 0.67079 0.38469
 C830 C 0.78602 0.64348 0.38732
 C831 C 0.76614 0.63392 0.36669
 C832 C 0.76099 0.65070 0.34487
 C833 C 0.77528 0.67772 0.34266
 C834 C 0.79600 0.68825 0.36237
 C835 C 0.80958 0.71602 0.35907
 C836 C 0.80262 0.73243 0.33731
 C837 C 0.78200 0.72183 0.31807
 C838 C 0.76863 0.69433 0.32083
 H839 H 0.75746 0.59114 0.40239
 H840 H 0.83241 0.62909 0.46816
 H841 H 0.76567 0.56531 0.44250
 H842 H 0.84402 0.67076 0.44123
 H843 H 0.83618 0.69954 0.40347
 H844 H 0.75420 0.61334 0.36659
 H845 H 0.74536 0.64245 0.32966
 H846 H 0.82535 0.72592 0.37314
 H847 H 0.81328 0.75363 0.33574
 H848 H 0.75259 0.68581 0.30612
 C849 C 0.06393 0.72265 0.89874
 C850 C 0.08128 0.70380 0.88927
 C851 C 0.08146 0.67911 0.90461
 C852 C 0.06455 0.67356 0.92807
 C853 C 0.04774 0.69259 0.93716
 C854 C 0.04772 0.71717 0.92241
 C855 C 0.09902 0.66040 0.89688
 C856 C 0.11750 0.66619 0.87503
 C857 C 0.11876 0.69086 0.85961
 C858 C 0.09928 0.70918 0.86587
 C859 C 0.09851 0.73229 0.84861
 C860 C 0.11731 0.73837 0.82708
 C861 C 0.13792 0.72200 0.82213
 C862 C 0.13896 0.69794 0.83822
 C863 C 0.16090 0.68261 0.83289
 C864 C 0.18109 0.69118 0.81290
 C865 C 0.18002 0.71506 0.79726
 C866 C 0.15798 0.73004 0.80160
 H867 H 0.06322 0.74234 0.88902
 H868 H 0.06497 0.65472 0.93977
 H869 H 0.03550 0.73254 0.92963
 H870 H 0.09898 0.64131 0.90827
 H871 H 0.13037 0.65066 0.87055
 H872 H 0.08332 0.74605 0.85100
 H873 H 0.11611 0.75652 0.81458
 H874 H 0.16374 0.66447 0.84447
 H875 H 0.19791 0.67923 0.80997
 H876 H 0.15711 0.74871 0.78978
 C877 C 0.59028 0.16972 0.40303
 C878 C 0.61300 0.19202 0.40364
 C879 C 0.61800 0.20731 0.42852
 C880 C 0.59964 0.20192 0.45076
 C881 C 0.57685 0.18029 0.44968
 C882 C 0.57285 0.16366 0.42598
 C883 C 0.64138 0.22788 0.43123
 C884 C 0.66040 0.23338 0.40988
 C885 C 0.65605 0.21929 0.38442
 C886 C 0.63118 0.19942 0.38072
 C887 C 0.62480 0.18853 0.35404
 C888 C 0.64218 0.19682 0.33174
 C889 C 0.66729 0.21501 0.33544
 C890 C 0.67518 0.22544 0.36212
 C891 C 0.70205 0.24148 0.36546
 C892 C 0.71949 0.24838 0.34288
 C893 C 0.71056 0.23993 0.31636
 C894 C 0.68458 0.22305 0.31265
 H895 H 0.58612 0.15606 0.38547
 H896 H 0.60328 0.21444 0.46934
 H897 H 0.55618 0.14600 0.42520
 H898 H 0.64522 0.23965 0.45023
 H899 H 0.67772 0.24984 0.41348
 H900 H 0.60572 0.17455 0.34955
 H901 H 0.63604 0.18865 0.31144
 H902 H 0.71040 0.24853 0.38534
 H903 H 0.73975 0.26110 0.34603
 H904 H 0.67800 0.21601 0.29207
 C905 C 0.93137 0.32188 0.90560
 C906 C 0.90340 0.30789 0.90515
 C907 C 0.89217 0.29597 0.93005
 C908 C 0.90930 0.29517 0.95323
 C909 C 0.93773 0.30740 0.95305
 C910 C 0.94793 0.32217 0.92936
 C911 C 0.86395 0.28445 0.93169
 C912 C 0.84649 0.28434 0.90898
 C913 C 0.85701 0.29449 0.88324
 C914 C 0.88617 0.30535 0.88100
 C915 C 0.89744 0.31166 0.85452
 C916 C 0.88086 0.30678 0.83097
 C917 C 0.85220 0.29700 0.83300
 C918 C 0.83963 0.29237 0.85929
 C919 C 0.81013 0.28535 0.86050
 C920 C 0.79419 0.28052 0.83650
 C921 C 0.80711 0.28221 0.81069
 C922 C 0.83604 0.29111 0.80893
 H923 H 0.94065 0.33352 0.88815
 H924 H 0.90049 0.28404 0.97131
 H925 H 0.96872 0.33432 0.92921
 H926 H 0.85521 0.27544 0.95079
 H927 H 0.82509 0.27455 0.91181
 H928 H 0.91946 0.31877 0.85129
 H929 H 0.89059 0.31065 0.81095
 H930 H 0.79879 0.28358 0.87969
 H931 H 0.77175 0.27409 0.83821
 H932 H 0.84597 0.29310 0.78886
 C933 C 0.40461 0.76267 0.40531
 C934 C 0.38409 0.77813 0.39575
 C935 C 0.38039 0.80224 0.41082
 C936 C 0.39752 0.81097 0.43366
 C937 C 0.41811 0.79570 0.44236
 C938 C 0.42108 0.77125 0.42834
 C939 C 0.35945 0.81735 0.40323
 C940 C 0.34152 0.80876 0.38136
 C941 C 0.34429 0.78493 0.36567
 C942 C 0.36670 0.77010 0.37225
 C943 C 0.37128 0.74799 0.35488
 C944 C 0.35394 0.73989 0.33252
 C945 C 0.33105 0.75306 0.32679
 C946 C 0.32563 0.77560 0.34337
 C947 C 0.30141 0.78742 0.33721
 C948 C 0.28365 0.77739 0.31541
 C949 C 0.28949 0.75547 0.29887
 C950 C 0.31336 0.74354 0.30463
 H951 H 0.40790 0.74338 0.39602
 H952 H 0.39470 0.82956 0.44492
 H953 H 0.43613 0.75858 0.43544
 H954 H 0.35661 0.83587 0.41457
 H955 H 0.32599 0.82170 0.37688
 H956 H 0.38859 0.73684 0.35763
 H957 H 0.35833 0.72284 0.31974
 H958 H 0.29515 0.80399 0.34921
 H959 H 0.26523 0.78686 0.31153
 H960 H 0.31788 0.72629 0.29220
 C961 C 0.25085 0.90481 0.09095
 C962 C 0.27114 0.89021 0.10265
 C963 C 0.29820 0.89412 0.09062
 C964 C 0.30431 0.91161 0.06782
 C965 C 0.28380 0.92521 0.05622
 C966 C 0.25713 0.92185 0.06796
 C967 C 0.31887 0.88001 0.10085
 C968 C 0.31303 0.86089 0.12194
 C969 C 0.28613 0.85520 0.13385
 C970 C 0.26527 0.87111 0.12504
 C971 C 0.23920 0.86713 0.13872
 C972 C 0.23309 0.84724 0.15917
 C973 C 0.25246 0.83020 0.16654
 C974 C 0.27930 0.83394 0.15409
 C975 C 0.29782 0.81547 0.16168
 C976 C 0.28975 0.79405 0.18035
 C977 C 0.26316 0.79036 0.19240
 C978 C 0.24480 0.80889 0.18581
 H979 H 0.22966 0.90275 0.09836
 H980 H 0.32489 0.91399 0.05841
 H981 H 0.24089 0.93188 0.05883
 H982 H 0.33971 0.88333 0.09204
 H983 H 0.33025 0.85096 0.12854
 H984 H 0.22297 0.87922 0.13418
 H985 H 0.21267 0.84472 0.16885
 H986 H 0.31835 0.81630 0.15290
 H987 H 0.30437 0.78004 0.18507
 H988 H 0.22405 0.80604 0.19484
 C989 C 0.77095 0.42777 0.59644
 C990 C 0.79073 0.41132 0.60583
 C991 C 0.81639 0.41327 0.59128
 C992 C 0.82186 0.43111 0.56858
 C993 C 0.80204 0.44717 0.55973
 C994 C 0.77656 0.44522 0.57370
 C995 C 0.83636 0.39714 0.59917
 C996 C 0.83123 0.37838 0.62071
 C997 C 0.80582 0.37511 0.63553
 C998 C 0.78563 0.39253 0.62859
 C999 C 0.76103 0.39052 0.64458
 C1000 C 0.75564 0.37135 0.66574
 C1001 C 0.77435 0.35323 0.67179
 C1002 C 0.79980 0.35488 0.65694
 C1003 C 0.81779 0.33563 0.66372
 C1004 C 0.81046 0.31542 0.68383
 C1005 C 0.78512 0.31367 0.69812
 C1006 C 0.76739 0.33302 0.69231
 H1007 H 0.75067 0.42721 0.60570
 H1008 H 0.84147 0.43232 0.55750
 H1009 H 0.76072 0.45703 0.56670
 H1010 H 0.85612 0.39875 0.58831
 H1011 H 0.84785 0.36681 0.62530
 H1012 H 0.74540 0.40364 0.64138
 H1013 H 0.73631 0.37042 0.67723
 H1014 H 0.83738 0.33505 0.65342
 H1015 H 0.82461 0.30077 0.68788
 H1016 H 0.74763 0.33181 0.70312
 C1017 C 0.75513 0.10471 0.09272
 C1018 C 0.73382 0.11601 0.10678
 C1019 C 0.70626 0.11038 0.09579
 C1020 C 0.70050 0.09402 0.07201
 C1021 C 0.72183 0.08311 0.05857
 C1022 C 0.74913 0.08861 0.06893
 C1023 C 0.68455 0.12130 0.10837
 C1024 C 0.68960 0.13862 0.13114
 C1025 C 0.71675 0.14562 0.14248
 C1026 C 0.73899 0.13322 0.13083
 C1027 C 0.76562 0.13853 0.14356
 C1028 C 0.77079 0.15647 0.16593
 C1029 C 0.74984 0.17014 0.17634
 C1030 C 0.72245 0.16485 0.16491
 C1031 C 0.70218 0.17989 0.17576
 C1032 C 0.70915 0.19986 0.19628
 C1033 C 0.73633 0.20533 0.20707
 C1034 C 0.75641 0.18984 0.19755
 H1035 H 0.77674 0.10837 0.09914
 H1036 H 0.67939 0.08989 0.06371
 H1037 H 0.76588 0.08052 0.05844
 H1038 H 0.66339 0.11673 0.10027
 H1039 H 0.67155 0.14603 0.13951
 H1040 H 0.78305 0.12901 0.13677
 H1041 H 0.79168 0.16017 0.17476
 H1042 H 0.68099 0.17760 0.16820
 H1043 H 0.69324 0.21155 0.20333
 H1044 H 0.77761 0.19419 0.20560
 C1045 C 0.23275 0.57453 0.58574
 C1046 C 0.21332 0.59148 0.59487
 C1047 C 0.18844 0.59104 0.57917
 C1048 C 0.18306 0.57366 0.55597
 C1049 C 0.20230 0.55671 0.54767
 C1050 C 0.22731 0.55763 0.56246
 C1051 C 0.16908 0.60805 0.58656
 C1052 C 0.17407 0.62611 0.60883
 C1053 C 0.19859 0.62760 0.62503
 C1054 C 0.21801 0.60923 0.61857
 C1055 C 0.24131 0.60906 0.63616
 C1056 C 0.24618 0.62695 0.65858
 C1057 C 0.22835 0.64606 0.66422
 C1058 C 0.20433 0.64678 0.64753
 C1059 C 0.18747 0.66721 0.65368
 C1060 C 0.19442 0.68614 0.67517
 C1061 C 0.21816 0.68530 0.69155
 C1062 C 0.23480 0.66487 0.68621
 H1063 H 0.25264 0.57430 0.59569
 H1064 H 0.16389 0.57334 0.54422
 H1065 H 0.24279 0.54523 0.55583
 H1066 H 0.14994 0.60765 0.57478
 H1067 H 0.15793 0.63839 0.61306
 H1068 H 0.25611 0.59496 0.63341
 H1069 H 0.26442 0.62611 0.67140
 H1070 H 0.16921 0.66976 0.64181
 H1071 H 0.18123 0.70176 0.67879
 H1072 H 0.25342 0.66425 0.69855
 C1073 C 0.87037 0.68446 0.08025
 C1074 C 0.87679 0.70769 0.09808
 C1075 C 0.89977 0.72831 0.09091
 C1076 C 0.91488 0.72595 0.06654
 C1077 C 0.90783 0.70301 0.04914
 C1078 C 0.88562 0.68233 0.05620
 C1079 C 0.90731 0.75139 0.10784
 C1080 C 0.89226 0.75496 0.13155
 C1081 C 0.86868 0.73557 0.13924
 C1082 C 0.86094 0.71143 0.12233
 C1083 C 0.83720 0.69218 0.12987
 C1084 C 0.82095 0.69676 0.15241
 C1085 C 0.82776 0.72046 0.16865
 C1086 C 0.85208 0.73990 0.16283
 C1087 C 0.85831 0.76318 0.18060
 C1088 C 0.84033 0.76759 0.20207
 C1089 C 0.81562 0.74900 0.20674
 C1090 C 0.80987 0.72509 0.19034
 H1091 H 0.85360 0.66761 0.08404
 H1092 H 0.93195 0.74213 0.06085
 H1093 H 0.87988 0.66451 0.04281
 H1094 H 0.92496 0.76710 0.10256
 H1095 H 0.89945 0.77358 0.14314
 H1096 H 0.83012 0.67344 0.11844
 H1097 H 0.80256 0.68167 0.15696
 H1098 H 0.87667 0.77866 0.17834
 H1099 H 0.84548 0.78614 0.21457
 H1100 H 0.79097 0.71036 0.19394
 C1101 C 0.42373 0.22336 0.59097
 C1102 C 0.39892 0.20571 0.59904
 C1103 C 0.39031 0.18142 0.58307
 C1104 C 0.40607 0.17523 0.56026
 C1105 C 0.43040 0.19302 0.55264
 C1106 C 0.43901 0.21712 0.56805
 C1107 C 0.36578 0.16361 0.58962
 C1108 C 0.34898 0.16965 0.61124
 C1109 C 0.35621 0.19379 0.62750
 C1110 C 0.38205 0.21166 0.62186
 C1111 C 0.39012 0.23487 0.63919
 C1112 C 0.37318 0.24106 0.66062
 C1113 C 0.34742 0.22460 0.66562
 C1114 C 0.33848 0.20071 0.64922
 C1115 C 0.31186 0.18506 0.65501
 C1116 C 0.29506 0.19293 0.67603
 C1117 C 0.30406 0.21655 0.69212
 C1118 C 0.33042 0.23217 0.68687
 H1119 H 0.43158 0.24254 0.60139
 H1120 H 0.39917 0.15675 0.54802
 H1121 H 0.45743 0.23145 0.56199
 H1122 H 0.35924 0.14490 0.57762
 H1123 H 0.33045 0.15471 0.61476
 H1124 H 0.40965 0.24870 0.63694
 H1125 H 0.38024 0.25920 0.67327
 H1126 H 0.30308 0.16690 0.64342
 H1127 H 0.27477 0.18048 0.67955
 H1128 H 0.33762 0.25057 0.69910
 C1129 C 0.09268 0.25234 0.09095
 C1130 C 0.11650 0.27169 0.09876
 C1131 C 0.12315 0.29600 0.08255
 C1132 C 0.10654 0.30055 0.05974
 C1133 C 0.08324 0.28112 0.05241
 C1134 C 0.07650 0.25700 0.06805
 C1135 C 0.14657 0.31553 0.08887
 C1136 C 0.16422 0.31122 0.11046
 C1137 C 0.15905 0.28710 0.12687
 C1138 C 0.13429 0.26746 0.12153
 C1139 C 0.12821 0.24425 0.13908
 C1140 C 0.14615 0.23975 0.16041
 C1141 C 0.17101 0.25794 0.16504
 C1142 C 0.17787 0.28192 0.14841
 C1143 C 0.20367 0.29936 0.15368
 C1144 C 0.22179 0.29304 0.17428
 C1145 C 0.21495 0.26929 0.19054
 C1146 C 0.18930 0.25199 0.18600
 H1147 H 0.08631 0.23306 0.10161
 H1148 H 0.11197 0.31905 0.04731
 H1149 H 0.05883 0.24150 0.06223
 H1150 H 0.15156 0.33427 0.07673
 H1151 H 0.18175 0.32745 0.11381
 H1152 H 0.10954 0.22911 0.13703
 H1153 H 0.14066 0.22153 0.17320
 H1154 H 0.21091 0.31774 0.14190
 H1155 H 0.24146 0.30681 0.17728
 H1156 H 0.18384 0.23344 0.19834
 C1157 C 0.61001 0.83524 0.57299
 C1158 C 0.60404 0.81353 0.59251
 C1159 C 0.57965 0.79362 0.58810
 C1160 C 0.56265 0.79517 0.56482
 C1161 C 0.56930 0.81645 0.54556
 C1162 C 0.59297 0.83649 0.54989
 C1163 C 0.57260 0.77188 0.60660
 C1164 C 0.58955 0.76886 0.62915
 C1165 C 0.61453 0.78754 0.63415
 C1166 C 0.62167 0.81050 0.61576
 C1167 C 0.64646 0.82937 0.62095
 C1168 C 0.66415 0.82555 0.64268
 C1169 C 0.65792 0.80293 0.66028
 C1170 C 0.63287 0.78376 0.65662
 C1171 C 0.62758 0.76135 0.67540
 C1172 C 0.64670 0.75785 0.69623
 C1173 C 0.67173 0.77648 0.69922
 C1174 C 0.67696 0.79921 0.68134
 H1175 H 0.62791 0.85138 0.57460
 H1176 H 0.54454 0.77934 0.56122
 H1177 H 0.59850 0.85299 0.53506
 H1178 H 0.55386 0.75675 0.60343
 H1179 H 0.58251 0.75133 0.64216
 H1180 H 0.65310 0.84733 0.60839
 H1181 H 0.68314 0.84040 0.64555
 H1182 H 0.60906 0.74589 0.67448
 H1183 H 0.64201 0.74014 0.70980
 H1184 H 0.69617 0.81391 0.68352
   
