data_POSCAR
  _audit_creation_date              2014-09-24
  _audit_creation_method            'ToBaCCo'
  _symmetry_space_group_name_H-M    'P1'
  _symmetry_Int_Tables_number       1
  _symmetry_cell_setting            triclinic
  loop_
  _symmetry_equiv_pos_as_xyz
 x,y,z
_cell_length_a 29.5312
_cell_length_b 30.2935
_cell_length_c 30.4276
_cell_angle_alpha 62.020200
_cell_angle_beta 64.393600
_cell_angle_gamma 121.102500
loop_
  _atom_site_label
  _atom_site_type_symbol
  _atom_site_fract_x
  _atom_site_fract_y
  _atom_site_fract_z
O1 O 0.41756 0.38212 0.11698
 O2 O 0.33932 0.40642 0.05752
 O3 O 0.36563 0.33292 0.07975
 O4 O 0.41858 0.47980 0.07068
 O5 O 0.60085 0.64960 -0.10825
 O6 O 0.55146 0.50417 -0.09745
 O7 O 0.52087 0.57257 -0.12029
 O8 O 0.60377 0.55532 -0.06078
 Cu9 Cu 0.36813 0.38499 0.09728
 Cu10 Cu 0.58754 0.58787 -0.11463
 C11 C 0.52290 0.46316 0.03943
 C12 C 0.41442 0.49093 -0.04016
 C13 C 0.45177 0.39418 -0.00729
 C14 C 0.52002 0.59030 -0.02076
 O15 O -0.04349 0.52758 0.52041
 O16 O -0.08283 0.35998 0.58444
 O17 O -0.05378 0.43450 0.61240
 O18 O -0.05070 0.47053 0.47482
 O19 O 0.14085 0.63392 0.31867
 O20 O 0.13664 0.59379 0.45434
 O21 O 0.10818 0.52127 0.42599
 O22 O 0.14730 0.68852 0.36581
 Cu23 Cu -0.07563 0.43325 0.56261
 Cu24 Cu 0.15050 0.62424 0.37686
 C25 C 0.05834 0.63632 0.43392
 C26 C 0.00510 0.41139 0.51575
 C27 C 0.04285 0.50957 0.55508
 C28 C 0.04684 0.55778 0.37288
 O29 O 0.62617 0.12892 0.44527
 O30 O 0.54642 0.02919 0.41177
 O31 O 0.55699 0.12087 0.41185
 O32 O 0.60498 0.02956 0.45550
 O33 O 0.42135 -0.14204 0.63441
 O34 O 0.36969 -0.05686 0.58876
 O35 O 0.36106 -0.14747 0.59012
 O36 O 0.43953 -0.04131 0.62126
 Cu37 Cu 0.60080 0.09348 0.41391
 Cu38 Cu 0.37953 -0.11443 0.62623
 C39 C 0.54643 0.06064 0.53944
 C40 C 0.44200 -0.07504 0.49368
 C41 C 0.45476 0.04720 0.49320
 C42 C 0.52208 -0.07056 0.55340
 C43 C 0.49075 -0.02397 -0.07238
 C44 C 0.47805 -0.08724 -0.03898
 C45 C 0.48954 -0.10608 0.00283
 C46 C 0.52131 -0.05497 0.00573
 C47 C 0.52969 0.00534 -0.02374
 C48 C 0.51142 0.01836 -0.06033
 C49 C 0.51610 0.07482 -0.08556
 C50 C 0.54277 0.12179 -0.07907
 C51 C 0.56233 0.11093 -0.04404
 C52 C 0.55487 0.05144 -0.01529
 C53 C 0.54273 -0.06429 0.03905
 C54 C 0.56621 -0.01999 0.04859
 C55 C 0.57009 0.03589 0.02406
 C56 C 0.58561 0.07409 0.04045
 C57 C 0.59728 0.13658 0.00777
 C58 C 0.58854 0.15755 -0.03641
 H59 H 0.50231 0.08602 -0.11342
 H60 H 0.54855 0.16734 -0.10258
 H61 H 0.53855 -0.10846 0.06065
 H62 H 0.57916 -0.03176 0.07726
 H63 H 0.45766 -0.12351 -0.04455
 H64 H 0.60980 0.16632 0.02001
 C65 C -0.02036 0.44383 0.94974
 C66 C 0.00664 0.42218 0.96827
 C67 C 0.01901 0.42903 1.00555
 C68 C 0.00489 0.45919 1.02434
 C69 C -0.02172 0.48193 1.00540
 C70 C -0.02977 0.47874 0.96390
 C71 C -0.04443 0.51315 0.93523
 C72 C -0.06075 0.54038 0.95556
 C73 C -0.06412 0.53341 1.00632
 C74 C -0.04064 0.50772 1.02824
 C75 C 0.01543 0.46606 1.06275
 C76 C -0.01063 0.48359 1.09191
 C77 C -0.03877 0.50498 1.07526
 C78 C -0.06749 0.52128 1.10616
 C79 C -0.09221 0.54491 1.08512
 C80 C -0.09014 0.55184 1.03527
 H81 H -0.04245 0.52043 0.89579
 H82 H -0.07153 0.56626 0.93157
 H83 H 0.04040 0.45432 1.07419
 H84 H -0.00949 0.47855 1.12882
 H85 H 0.01361 0.39520 0.95771
 H86 H -0.11565 0.55587 1.10983
 C87 C -0.05536 -0.11134 0.48622
 C88 C -0.09244 -0.10216 0.47436
 C89 C -0.08830 -0.05068 0.46754
 C90 C -0.04403 -0.00490 0.47076
 C91 C -0.00797 -0.01500 0.48450
 C92 C -0.01375 -0.06845 0.49242
 C93 C 0.02002 -0.07967 0.50863
 C94 C 0.06028 -0.03786 0.51496
 C95 C 0.06552 0.01417 0.50859
 C96 C 0.03340 0.02794 0.49098
 C97 C -0.03121 0.05428 0.45691
 C98 C 0.01242 0.09917 0.46003
 C99 C 0.04330 0.08518 0.47909
 C100 C 0.08713 0.12990 0.48325
 C101 C 0.11604 0.11301 0.50325
 C102 C 0.10280 0.05322 0.51882
 H103 H 0.01506 -0.12173 0.51755
 H104 H 0.08809 -0.04634 0.52421
 H105 H -0.05099 0.07027 0.43972
 H106 H 0.02285 0.14622 0.44590
 H107 H -0.12659 -0.13708 0.47194
 H108 H 0.14626 0.14405 0.50969
 C109 C -0.34681 0.53966 1.00493
 C110 C -0.32194 0.52187 1.03114
 C111 C -0.40048 0.41041 1.11858
 C112 C -0.50589 0.31705 1.18302
 C113 C -0.53132 0.33473 1.15833
 C114 C -0.45087 0.44638 1.06759
 C115 C -0.37162 0.39430 1.13905
 C116 C -0.26560 0.48787 1.07385
 C117 C -0.18979 0.59780 0.99049
 C118 C -0.21917 0.61376 0.97043
 C119 C -0.08450 0.69044 0.92684
 C120 C -0.05342 0.67484 0.94382
 C121 C -0.12694 0.56679 1.02408
 C122 C -0.23323 0.47352 1.08945
 H123 H -0.28567 0.62543 0.93620
 H124 H -0.56790 0.23074 1.25151
 H125 H -0.61250 0.26158 1.20815
 H126 H -0.43058 0.30951 1.20429
 H127 H -0.16107 0.69803 0.90623
 H128 H -0.02518 0.77538 0.86250
 H129 H 0.02948 0.74780 0.89217
 H130 H -0.28895 0.39064 1.15032
 C131 C 0.26458 0.41116 1.02931
 C132 C 0.23073 0.41848 1.01081
 C133 C 0.30995 0.50654 0.90404
 C134 C 0.41941 0.58174 0.81907
 C135 C 0.45440 0.57683 0.83703
 C136 C 0.37851 0.49326 0.94174
 C137 C 0.27980 0.52008 0.88341
 C138 C 0.17182 0.44728 0.96826
 C139 C 0.09041 0.35548 1.07632
 C140 C 0.12008 0.34123 1.09700
 C141 C -0.01788 0.28191 1.16136
 C142 C -0.04394 0.30142 1.13919
 C143 C 0.03949 0.39728 1.03094
 C144 C 0.14566 0.46762 0.94624
 H145 H 0.20332 0.34424 1.11143
 H146 H 0.47924 0.64650 0.73786
 H147 H 0.54074 0.63823 0.76893
 H148 H 0.34193 0.58979 0.80074
 H149 H 0.05864 0.27259 1.17934
 H150 H -0.08068 0.21200 1.24421
 H151 H -0.12675 0.24568 1.20544
 H152 H 0.20969 0.54111 0.86278
 C153 C -0.02556 -0.35845 0.48938
 C154 C -0.01200 -0.29785 0.47285
 C155 C 0.10072 -0.17914 0.38159
 C156 C 0.19768 -0.12329 0.30876
 C157 C 0.18402 -0.18333 0.32453
 C158 C 0.07233 -0.30190 0.41523
 C159 C 0.11479 -0.11822 0.36476
 C160 C 0.01747 -0.17440 0.43799
 C161 C -0.09551 -0.29346 0.52976
 C162 C -0.10952 -0.35434 0.54661
 C163 C -0.19284 -0.34990 0.60367
 C164 C -0.17890 -0.28982 0.58812
 C165 C -0.06746 -0.17203 0.49810
 C166 C 0.03091 -0.11402 0.42188
 H167 H -0.11267 -0.44985 0.56039
 H168 H 0.28434 -0.03301 0.23970
 H169 H 0.26128 -0.13689 0.26634
 H170 H 0.20138 -0.02726 0.29493
 H171 H -0.19631 -0.44573 0.61727
 H172 H -0.28001 -0.44100 0.67437
 H173 H -0.25556 -0.33586 0.64758
 H174 H 0.11726 -0.02277 0.35171
 C175 C 0.08206 0.39649 0.46652
 C176 C 0.06432 0.33268 0.48561
 C177 C -0.05022 0.21398 0.57817
 C178 C -0.14504 0.16066 0.65091
 C179 C -0.12691 0.22423 0.63191
 C180 C -0.01331 0.34303 0.53908
 C181 C -0.06821 0.15063 0.59618
 C182 C 0.02675 0.20403 0.52326
 C183 C 0.14133 0.32261 0.43090
 C184 C 0.15933 0.38600 0.41287
 C185 C 0.23620 0.37601 0.35767
 C186 C 0.21797 0.31290 0.37534
 C187 C 0.10473 0.19540 0.46634
 C188 C 0.00918 0.14102 0.54074
 H189 H 0.17015 0.48798 0.39447
 H190 H -0.23332 0.06990 0.72205
 H191 H -0.20209 0.18055 0.68915
 H192 H -0.15600 0.06012 0.66638
 H193 H 0.24729 0.47698 0.34184
 H194 H 0.32460 0.46683 0.28634
 H195 H 0.29255 0.35612 0.31724
 H196 H -0.07835 0.05017 0.61126
 C197 C 0.49041 0.03001 -0.34741
 C198 C 0.51691 0.05363 -0.32462
 C199 C 0.63028 0.14167 -0.39923
 C200 C 0.71823 0.21232 -0.50029
 C201 C 0.69232 0.19106 -0.52427
 C202 C 0.57669 0.09553 -0.44546
 C203 C 0.65222 0.15380 -0.36931
 C204 C 0.56196 0.07883 -0.26574
 C205 C 0.45216 -0.00095 -0.19605
 C206 C 0.43013 -0.01336 -0.22581
 C207 C 0.36427 -0.07135 -0.09503
 C208 C 0.38110 -0.07083 -0.05875
 C209 C 0.48448 -0.00222 -0.12183
 C210 C 0.57706 0.07698 -0.22761
 H211 H 0.40165 -0.04170 -0.28714
 H212 H 0.80629 0.28192 -0.55952
 H213 H 0.76153 0.24486 -0.60162
 H214 H 0.73754 0.21747 -0.42417
 H215 H 0.34398 -0.07887 -0.16980
 H216 H 0.28083 -0.13055 -0.04200
 H217 H 0.31084 -0.12923 0.02150
 H218 H 0.65790 0.13174 -0.27704
 C219 C 0.50718 -0.04425 0.37809
 C220 C 0.49419 -0.05593 0.34328
 C221 C 0.38838 -0.13400 0.40531
 C222 C 0.29474 -0.20470 0.50506
 C223 C 0.30868 -0.19218 0.53906
 C224 C 0.41668 -0.10825 0.47322
 C225 C 0.38056 -0.13496 0.36336
 C226 C 0.47825 -0.05669 0.25912
 C227 C 0.58151 0.01608 0.20046
 C228 C 0.58824 0.01492 0.24368
 C229 C 0.67886 0.09405 0.09634
 C230 C 0.67746 0.10695 0.04671
 C231 C 0.57856 0.04145 0.10111
 C232 C 0.47739 -0.04392 0.20906
 H233 H 0.59033 0.01962 0.32769
 H234 H 0.21255 -0.26599 0.55427
 H235 H 0.23760 -0.24291 0.61308
 H236 H 0.30092 -0.19178 0.40887
 H237 H 0.66901 0.07408 0.19671
 H238 H 0.75827 0.14970 0.05073
 H239 H 0.75558 0.17253 -0.03642
 H240 H 0.40106 -0.09442 0.25069
 C241 C 0.45351 -0.40441 0.05802
 C242 C 0.47822 -0.34091 0.04481
 C243 C 0.59597 -0.22129 -0.05250
 C244 C 0.68677 -0.16877 -0.13231
 C245 C 0.66157 -0.23133 -0.12036
 C246 C 0.54499 -0.34853 -0.02671
 C247 C 0.62119 -0.15444 -0.07159
 C248 C 0.53026 -0.20447 0.00297
 C249 C 0.41236 -0.32533 0.10284
 C250 C 0.38715 -0.39330 0.12415
 C251 C 0.32169 -0.37454 0.17625
 C252 C 0.34756 -0.30330 0.14714
 C253 C 0.46415 -0.18253 0.04494
 C254 C 0.55532 -0.13393 -0.02475
 H255 H 0.36334 -0.49515 0.13106
 H256 H 0.77728 -0.07813 -0.20591
 H257 H 0.73360 -0.18717 -0.18560
 H258 H 0.71147 -0.06204 -0.14766
 H259 H 0.29687 -0.48513 0.19906
 H260 H 0.23100 -0.46683 0.25314
 H261 H 0.27657 -0.34158 0.20183
 H262 H 0.64517 -0.04039 -0.10379
 C263 C 0.54095 0.40164 -0.08547
 C264 C 0.53234 0.34506 -0.07115
 C265 C 0.42086 0.22393 0.02391
 C266 C 0.32007 0.16235 0.10151
 C267 C 0.32930 0.21851 0.08946
 C268 C 0.43976 0.33792 -0.00278
 C269 C 0.41181 0.16542 0.04308
 C270 C 0.51202 0.22530 -0.02781
 C271 C 0.62371 0.34694 -0.12391
 C272 C 0.63330 0.40653 -0.14644
 C273 C 0.72343 0.40602 -0.19317
 C274 C 0.71196 0.34415 -0.16478
 C275 C 0.60121 0.22340 -0.06844
 C276 C 0.50191 0.16462 -0.00149
 H277 H 0.62668 0.49377 -0.15677
 H278 H 0.23400 0.06967 0.17442
 H279 H 0.25019 0.16790 0.15398
 H280 H 0.32641 0.07240 0.11626
 H281 H 0.71863 0.49936 -0.21893
 H282 H 0.80959 0.49924 -0.26737
 H283 H 0.78914 0.39007 -0.21737
 H284 H 0.41693 0.07142 0.07208
 C285 C -0.36488 -0.04916 0.49294
 C286 C -0.33375 -0.06727 0.50715
 C287 C -0.39116 -0.13527 0.60158
 C288 C -0.48382 -0.19056 0.68361
 C289 C -0.51631 -0.17472 0.67028
 C290 C -0.45491 -0.10115 0.57358
 C291 C -0.35448 -0.14616 0.61223
 C292 C -0.26452 -0.09426 0.53218
 C293 C -0.20940 -0.02944 0.43940
 C294 C -0.24457 -0.01653 0.42757
 C295 C -0.11860 0.02306 0.35917
 C296 C -0.08121 0.01343 0.36973
 C297 C -0.13428 -0.04898 0.46066
 C298 C -0.22779 -0.10501 0.54291
 H299 H -0.31796 0.00679 0.41862
 H300 H -0.53005 -0.24467 0.75735
 H301 H -0.58598 -0.21567 0.73344
 H302 H -0.39647 -0.19566 0.68323
 H303 H -0.20210 0.03350 0.35627
 H304 H -0.07506 0.07338 0.28733
 H305 H -0.00883 0.05722 0.30558
 H306 H -0.26880 -0.15334 0.61322
 C307 C 0.31806 -0.00560 0.55862
 C308 C 0.29614 0.02449 0.54224
 C309 C 0.38997 0.14307 0.44426
 C310 C 0.50352 0.22928 0.36682
 C311 C 0.52527 0.19874 0.38243
 C312 C 0.43295 0.08108 0.47755
 C313 C 0.36914 0.17329 0.42407
 C314 C 0.25559 0.08602 0.50053
 C315 C 0.16130 -0.03260 0.60068
 C316 C 0.18205 -0.06251 0.62115
 C317 C 0.04804 -0.11991 0.67714
 C318 C 0.02822 -0.09072 0.65366
 C319 C 0.12208 0.02627 0.55159
 C320 C 0.23523 0.11482 0.47655
 H321 H 0.24582 -0.09679 0.63304
 H322 H 0.57561 0.32030 0.29343
 H323 H 0.61422 0.26705 0.32008
 H324 H 0.44162 0.26432 0.34747
 H325 H 0.10991 -0.15354 0.69692
 H326 H -0.02421 -0.21078 0.75285
 H327 H -0.05938 -0.15973 0.71204
 H328 H 0.30775 0.20513 0.39752
 C329 C -0.04034 0.50458 1.36077
 C330 C -0.02901 0.52003 1.30279
 C331 C 0.07653 0.60042 1.20018
 C332 C 0.16674 0.66065 1.15907
 C333 C 0.15630 0.64750 1.21498
 C334 C 0.05359 0.57032 1.31580
 C335 C 0.09107 0.62017 1.13954
 C336 C 0.00021 0.55814 1.18116
 C337 C -0.10744 0.47399 1.28570
 C338 C -0.12085 0.45670 1.34520
 C339 C -0.20017 0.40762 1.32932
 C340 C -0.18676 0.42327 1.27074
 C341 C -0.07965 0.50738 1.16644
 C342 C 0.01474 0.57731 1.12062
 H343 H -0.12100 0.44294 1.43952
 H344 H 0.24682 0.72010 1.08213
 H345 H 0.22927 0.69792 1.17903
 H346 H 0.17297 0.68330 1.06017
 H347 H -0.20297 0.39308 1.42482
 H348 H -0.28385 0.34177 1.40977
 H349 H -0.26053 0.36877 1.30735
 H350 H 0.09833 0.64400 1.03924
 C351 C -0.03780 0.43779 0.69981
 C352 C -0.02111 0.44533 0.73475
 C353 C 0.08396 0.51784 0.67216
 C354 C 0.16991 0.58060 0.57673
 C355 C 0.15367 0.57415 0.54179
 C356 C 0.05063 0.50400 0.60181
 C357 C 0.10285 0.52855 0.70443
 C358 C 0.01826 0.46801 0.79855
 C359 C -0.08802 0.39338 0.86281
 C360 C -0.10647 0.38349 0.82988
 C361 C -0.17390 0.33028 0.95877
 C362 C -0.15320 0.34372 0.98883
 C363 C -0.04522 0.42267 0.92207
 C364 C 0.03918 0.48253 0.82834
 H365 H -0.11735 0.38381 0.74659
 H366 H 0.25097 0.63673 0.52770
 H367 H 0.22333 0.62604 0.46611
 H368 H 0.18428 0.58559 0.65520
 H369 H -0.18686 0.32818 0.87796
 H370 H -0.25683 0.27088 1.01031
 H371 H -0.22045 0.29461 1.06299
 H372 H 0.12205 0.54249 0.77732
   
