data_POSCAR
  _audit_creation_date              2014-09-24
  _audit_creation_method            'ToBaCCo'
  _symmetry_space_group_name_H-M    'P1'
  _symmetry_Int_Tables_number       1
  _symmetry_cell_setting            triclinic
  loop_
  _symmetry_equiv_pos_as_xyz
 x,y,z
_cell_length_a 21.2186
_cell_length_b 21.8225
_cell_length_c 30.0554
_cell_angle_alpha 89.589800
_cell_angle_beta 89.009100
_cell_angle_gamma 95.423500
loop_
  _atom_site_label
  _atom_site_type_symbol
  _atom_site_fract_x
  _atom_site_fract_y
  _atom_site_fract_z
C1 C -0.01040 0.50567 0.97820
 C2 C -0.00368 0.50800 1.02319
 C3 C 0.00189 0.56707 1.04763
 C4 C -0.00157 0.45154 1.05080
 C5 C -0.01647 0.44619 0.95415
 C6 C -0.01172 0.56231 0.95056
 C7 C 0.05486 0.58193 1.07388
 C8 C 0.06089 0.63664 1.09776
 C9 C 0.01378 0.67810 1.09642
 C10 C -0.03997 0.66236 1.07002
 C11 C -0.04570 0.60737 1.04610
 C12 C 0.04395 0.41003 1.04281
 C13 C 0.04491 0.35713 1.06927
 C14 C 0.00049 0.34518 1.10439
 C15 C -0.04372 0.38775 1.11292
 C16 C -0.04481 0.44033 1.08638
 C17 C -0.06468 0.39971 0.96510
 C18 C -0.06807 0.34330 0.94304
 C19 C -0.02352 0.33237 0.90960
 C20 C 0.02324 0.38005 0.89756
 C21 C 0.02665 0.43627 0.91969
 C22 C -0.06245 0.56771 0.92195
 C23 C -0.06504 0.62064 0.89595
 C24 C -0.01720 0.66946 0.89818
 C25 C 0.03458 0.66345 0.92606
 C26 C 0.03741 0.61014 0.95181
 H27 H 0.09194 0.55115 1.07568
 H28 H 0.10289 0.64628 1.11752
 H29 H -0.07846 0.69103 1.06750
 H30 H -0.08757 0.59600 1.02658
 H31 H 0.07889 0.41880 1.01628
 H32 H 0.08117 0.32659 1.06265
 H33 H -0.07986 0.47215 1.09336
 H34 H -0.09937 0.40699 0.99092
 H35 H -0.10523 0.30786 0.95242
 H36 H 0.05681 0.37476 0.87072
 H37 H 0.06353 0.47197 0.91025
 H38 H -0.10048 0.53107 0.92010
 H39 H -0.10496 0.62376 0.87433
 H40 H 0.07358 0.69903 0.92738
 H41 H 0.07802 0.60609 0.97258
 H42 H -0.07793 0.38004 1.14003
 C43 C 0.49831 -0.01870 0.47699
 C44 C 0.50171 -0.01892 0.52223
 C45 C 0.44442 -0.01745 0.55120
 C46 C 0.56281 -0.02057 0.54540
 C47 C 0.55574 -0.01744 0.44784
 C48 C 0.43679 -0.01976 0.45404
 C49 C 0.40413 0.02970 0.54719
 C50 C 0.35047 0.03027 0.57483
 C51 C 0.33647 -0.01623 0.60724
 C52 C 0.37789 -0.06227 0.61184
 C53 C 0.43123 -0.06295 0.58409
 C54 C 0.58097 0.02519 0.57638
 C55 C 0.63788 0.02443 0.59887
 C56 C 0.67746 -0.02283 0.59128
 C57 C 0.65936 -0.06843 0.56004
 C58 C 0.60221 -0.06772 0.53760
 C59 C 0.55897 -0.06210 0.41477
 C60 C 0.61218 -0.06162 0.38679
 C61 C 0.66345 -0.01669 0.39135
 C62 C 0.65971 0.02897 0.42394
 C63 C 0.60614 0.02868 0.45178
 C64 C 0.38848 -0.06734 0.46183
 C65 C 0.33096 -0.06746 0.43977
 C66 C 0.32111 -0.02069 0.40901
 C67 C 0.36964 0.02709 0.40150
 C68 C 0.42702 0.02715 0.42354
 H69 H 0.41453 0.06629 0.52288
 H70 H 0.32116 0.06786 0.57128
 H71 H 0.36866 -0.09818 0.63682
 H72 H 0.46208 -0.09935 0.58805
 H73 H 0.55133 0.06209 0.58269
 H74 H 0.65110 0.06156 0.62152
 H75 H 0.58863 -0.10396 0.51425
 H76 H 0.52035 -0.09770 0.41085
 H77 H 0.61352 -0.09685 0.36166
 H78 H 0.69715 0.06572 0.42744
 H79 H 0.60376 0.06469 0.47619
 H80 H 0.39541 -0.10438 0.48488
 H81 H 0.29429 -0.10455 0.44638
 H82 H 0.36332 0.06520 0.37936
 H83 H 0.46364 0.06442 0.41732
 H84 H 0.68916 -0.10509 0.55339
 C85 C 0.13248 0.04493 0.26297
 H86 H 0.13055 0.07576 0.23483
 C87 C 0.18828 0.04485 0.28682
 H88 H 0.22883 0.07621 0.27694
 C89 C 0.08257 -0.03419 0.30933
 H90 H 0.04114 -0.06528 0.31747
 C91 C 0.13751 -0.03585 0.33415
 H92 H 0.13739 -0.06912 0.36093
 N93 N 0.08114 0.00568 0.27447
 C94 C -0.04905 -0.07511 0.17546
 H95 H -0.08335 -0.04156 0.17358
 C96 C -0.05531 -0.12713 0.14855
 H97 H -0.09494 -0.13298 0.12621
 C98 C 0.04404 -0.10727 0.20674
 H99 H 0.08294 -0.09931 0.22933
 C100 C 0.03970 -0.15998 0.18050
 H101 H 0.07580 -0.19103 0.18463
 Zn102 Zn 0.00686 0.00481 0.24061
 N103 N -0.00018 -0.06632 0.20411
 C104 C 0.01689 0.07182 0.15888
 N105 N 0.01182 0.07676 0.20391
 C106 C 0.01250 0.13286 0.22344
 C107 C 0.01629 0.18649 0.19758
 C108 C 0.02077 0.12432 0.13174
 C109 C -0.11384 -0.04032 0.27652
 C110 C -0.16646 -0.04088 0.30508
 C111 C -0.11489 0.04649 0.34312
 C112 C -0.06316 0.04530 0.31382
 N113 N -0.06409 0.00332 0.28052
 H114 H 0.01872 0.02729 0.14379
 H115 H 0.01106 0.13634 0.25918
 H116 H 0.01793 0.23040 0.21420
 H117 H 0.02440 0.11946 0.09596
 H118 H -0.11296 -0.07527 0.25143
 H119 H -0.20459 -0.07685 0.30130
 H120 H -0.11350 0.08068 0.36913
 H121 H -0.02189 0.07745 0.31818
 C122 C -0.01076 -0.17087 0.15064
 C123 C 0.19148 0.00429 0.32297
 C124 C -0.16804 0.00391 0.33841
 C125 C 0.01941 0.18249 0.15095
 C126 C -0.03422 0.08732 0.82739
 H127 H -0.06880 0.04954 0.83628
 C128 C -0.03145 0.14138 0.85224
 H129 H -0.06453 0.14433 0.87975
 C130 C 0.05409 0.12685 0.78338
 H131 H 0.08828 0.12105 0.75720
 C132 C 0.05882 0.18145 0.80750
 H133 H 0.09613 0.21722 0.79906
 N134 N 0.00694 0.08164 0.79274
 C135 C 0.10761 -0.03847 0.72083
 H136 H 0.09803 -0.07466 0.74538
 C137 C 0.16004 -0.03951 0.69224
 H138 H 0.18924 -0.07728 0.69512
 C139 C 0.07880 0.05214 0.68590
 H140 H 0.04657 0.08754 0.68346
 C141 C 0.13073 0.05291 0.65662
 H142 H 0.13837 0.08924 0.63182
 Zn143 Zn -0.00144 0.00849 0.75805
 N144 N 0.06872 0.00742 0.71772
 C145 C -0.07667 -0.00444 0.68057
 N146 N -0.07803 0.00430 0.72538
 C147 C -0.13373 0.00937 0.74754
 C148 C -0.19043 0.00747 0.72456
 C149 C -0.13239 -0.00677 0.65625
 C150 C 0.04194 -0.06114 0.82833
 C151 C 0.04425 -0.11276 0.85581
 C152 C -0.04755 -0.16094 0.81887
 C153 C -0.04797 -0.10850 0.79204
 N154 N -0.00323 -0.06028 0.79686
 H155 H -0.03243 -0.00980 0.66343
 H156 H -0.13454 0.01457 0.78314
 H157 H -0.23415 0.01220 0.74282
 H158 H -0.12946 -0.01199 0.62054
 H159 H 0.07688 -0.02205 0.83150
 H160 H 0.08112 -0.11306 0.88027
 H161 H -0.08436 -0.19802 0.81452
 H162 H -0.08355 -0.10679 0.76688
 C163 C 0.17283 0.00737 0.66006
 C164 C 0.01487 0.18991 0.84170
 C165 C -0.00008 -0.16406 0.85077
 C166 C -0.19037 -0.00076 0.67837
 C167 C 0.02234 -0.26985 0.12086
 C168 C -0.01924 -0.22329 0.12329
 H169 H 0.06514 -0.26407 0.13984
 H170 H -0.06080 -0.22662 0.10294
 C171 C -0.00026 0.29030 0.13376
 C172 C 0.02285 0.23768 0.12163
 H173 H -0.02437 0.29253 0.16566
 H174 H 0.04149 0.23320 0.08818
 C175 C 0.28089 -0.01752 0.63792
 C176 C 0.22823 0.00956 0.62907
 H177 H 0.28377 -0.04288 0.66875
 H178 H 0.22533 0.03523 0.59838
 C179 C -0.26157 -0.02480 0.61439
 C180 C -0.25101 -0.00021 0.65468
 H181 H -0.22580 -0.04972 0.59844
 H182 H -0.28924 0.01931 0.67225
 C183 C -0.02205 -0.27555 0.86968
 C184 C 0.00467 -0.21913 0.87944
 H185 H -0.04982 -0.28245 0.84001
 H186 H 0.03221 -0.21267 0.90930
 C187 C -0.02863 0.27175 0.88715
 C188 C 0.02017 0.24907 0.86591
 H189 H -0.07434 0.24519 0.88853
 H190 H 0.06597 0.27544 0.86473
 C191 C -0.28155 -0.01812 0.36042
 C192 C -0.22286 0.00650 0.36950
 H193 H -0.29031 -0.04166 0.32928
 H194 H -0.21417 0.03024 0.40059
 C195 C 0.25940 -0.02242 0.38632
 C196 C 0.25235 0.00468 0.34669
 H197 H 0.21941 -0.04789 0.40282
 H198 H 0.29328 0.02877 0.33023
   
