data_POSCAR
  _audit_creation_date              2014-09-24
  _audit_creation_method            'ToBaCCo'
  _symmetry_space_group_name_H-M    'P1'
  _symmetry_Int_Tables_number       1
  _symmetry_cell_setting            triclinic
  loop_
  _symmetry_equiv_pos_as_xyz
 x,y,z
_cell_length_a 54.3203
_cell_length_b 30.9303
_cell_length_c 17.0056
_cell_angle_alpha 90.208500
_cell_angle_beta 89.977000
_cell_angle_gamma 90.020700
loop_
  _atom_site_label
  _atom_site_type_symbol
  _atom_site_fract_x
  _atom_site_fract_y
  _atom_site_fract_z
C1 C 0.73249 0.27010 0.54384
 C2 C 0.73164 0.26676 0.46033
 C3 C 0.75250 0.25229 0.41917
 C4 C 0.77437 0.24015 0.45783
 C5 C 0.77455 0.23935 0.54197
 C6 C 0.75385 0.25550 0.58255
 H7 H 0.75426 0.25635 0.64608
 H8 H 0.75182 0.25218 0.35547
 C9 C 0.22850 0.76103 0.54356
 C10 C 0.23115 0.76913 0.46236
 C11 C 0.25194 0.75341 0.42279
 C12 C 0.26994 0.72919 0.46212
 C13 C 0.26688 0.71957 0.54357
 C14 C 0.24570 0.73502 0.58234
 H15 H 0.24356 0.73013 0.64509
 H16 H 0.25388 0.75924 0.36025
 C17 C 0.25961 0.30052 -0.54053
 C18 C 0.26070 0.29295 -0.45891
 C19 C 0.24194 0.26941 -0.42210
 C20 C 0.22128 0.25453 -0.46456
 C21 C 0.22034 0.26184 -0.54767
 C22 C 0.23928 0.28580 -0.58347
 H23 H 0.23924 0.29033 -0.64669
 H24 H 0.24266 0.26567 -0.35877
 C25 C -0.22763 0.75774 -0.54063
 C26 C -0.22449 0.74735 -0.46073
 C27 C -0.24268 0.72411 -0.42123
 C28 C -0.26492 0.71252 -0.45839
 C29 C -0.26839 0.72387 -0.53937
 C30 C -0.24972 0.74723 -0.57839
 H31 H -0.25146 0.75433 -0.64055
 H32 H -0.24010 0.71806 -0.35900
 O33 O -0.03882 0.93504 0.14851
 O34 O -0.06337 0.97234 0.06263
 C35 C -0.06023 0.94697 0.12229
 O36 O 0.03500 1.08231 0.12649
 O37 O 0.06154 1.03348 0.06987
 C38 C 0.05688 1.06670 0.11394
 O39 O -0.03460 1.08466 0.12229
 O40 O -0.06107 1.04308 0.04936
 C41 C -0.05661 1.07378 0.09924
 O42 O 0.03026 0.92500 0.15385
 O43 O 0.05953 0.95989 0.08041
 C44 C 0.05300 0.93322 0.13530
 Zr45 Zr -0.00300 0.95005 0.10726
 O46 O -0.00218 0.95712 0.23111
 O47 O -0.00787 0.88248 0.11913
 Zr48 Zr 0.00021 1.05893 0.08785
 O49 O 0.00095 1.06588 0.21171
 O50 O -0.00044 1.12694 0.07429
 O51 O -0.02347 1.00715 0.10923
 O52 O 0.01964 1.00349 0.11550
 O53 O 0.03412 0.90898 -0.11640
 O54 O 0.06135 0.95305 -0.05122
 C55 C 0.05624 0.92035 -0.09631
 O56 O -0.02983 1.06639 -0.16553
 O57 O -0.05898 1.03577 -0.08532
 C58 C -0.05246 1.05888 -0.14505
 O59 O 0.03916 1.06691 -0.14333
 O60 O 0.06392 1.02767 -0.06105
 C61 C 0.06064 1.05554 -0.11696
 O62 O -0.03457 0.91903 -0.13677
 O63 O -0.06123 0.96537 -0.07427
 C64 C -0.05647 0.93430 -0.12322
 Zr65 Zr -0.00003 0.93854 -0.08993
 O66 O 0.00474 0.93103 -0.21275
 O67 O -0.00506 0.87102 -0.07738
 Zr68 Zr 0.00336 1.04728 -0.10971
 O69 O 0.00849 1.04047 -0.23252
 O70 O 0.00220 1.11532 -0.12221
 Zr71 Zr -0.03623 1.00178 -0.00741
 Zr72 Zr 0.03665 0.99564 0.00503
 O73 O 0.02320 0.99035 -0.11063
 O74 O -0.01987 0.99386 -0.11892
 O75 O 0.02018 0.93410 0.01390
 O76 O -0.01929 1.06274 -0.01617
 O77 O -0.02313 0.93828 0.00637
 O78 O 0.02395 1.05965 -0.00859
 H79 H 0.02997 1.00496 0.16345
 H80 H -0.02973 1.08874 -0.02293
 H81 H 0.03507 0.98702 -0.15451
 H82 H -0.03514 0.91418 0.00860
 H83 H 0.01436 1.13519 0.04397
 H84 H 0.01563 1.12751 -0.08974
 H85 H -0.00460 1.02100 -0.25212
 H86 H -0.00818 0.94830 -0.23892
 H87 H 0.00801 0.86032 -0.04197
 H88 H 0.00600 0.86815 0.09184
 H89 H -0.01579 0.97675 0.24601
 H90 H -0.01352 1.05039 0.23287
 O91 O 0.46737 0.41615 0.13703
 O92 O 0.43965 0.45709 0.06820
 C93 C 0.44503 0.42788 0.11989
 O94 O 0.53580 0.56951 0.14566
 O95 O 0.56229 0.53099 0.06675
 C96 C 0.55774 0.55813 0.12301
 O97 O 0.46628 0.56474 0.15561
 O98 O 0.43889 0.52775 0.07712
 C99 C 0.44409 0.55326 0.13545
 O100 O 0.53676 0.41352 0.12366
 O101 O 0.56257 0.45780 0.05408
 C102 C 0.55861 0.42610 0.10193
 Zr103 Zr 0.50149 0.43839 0.09162
 O104 O 0.50488 0.43348 0.21529
 O105 O 0.49907 0.37027 0.08167
 Zr106 Zr 0.50081 0.54796 0.10473
 O107 O 0.50223 0.54978 0.22893
 O108 O 0.49803 0.61630 0.10384
 O109 O 0.47946 0.49220 0.11520
 O110 O 0.52248 0.49291 0.11118
 O111 O 0.53417 0.42480 -0.15252
 O112 O 0.56157 0.46239 -0.07535
 C113 C 0.55631 0.43561 -0.13161
 O114 O 0.46517 0.57496 -0.13450
 O115 O 0.43825 0.53408 -0.06241
 C116 C 0.44310 0.56330 -0.11495
 O117 O 0.53356 0.58027 -0.13030
 O118 O 0.56134 0.53725 -0.06621
 C119 C 0.55590 0.56860 -0.11363
 O120 O 0.46534 0.42422 -0.14935
 O121 O 0.43864 0.46130 -0.06938
 C122 C 0.44334 0.43449 -0.12622
 Zr123 Zr 0.49986 0.44538 -0.10635
 O124 O 0.50098 0.44962 -0.23057
 O125 O 0.49817 0.37703 -0.11190
 Zr126 Zr 0.49954 0.55458 -0.09217
 O127 O 0.50137 0.56180 -0.21571
 O128 O 0.49634 0.62245 -0.07846
 Zr129 Zr 0.46363 0.49594 0.00191
 Zr130 Zr 0.53699 0.49706 -0.00336
 O131 O 0.52084 0.50089 -0.11549
 O132 O 0.47766 0.50018 -0.11337
 O133 O 0.52271 0.43380 -0.01022
 O134 O 0.47845 0.55867 0.00866
 O135 O 0.47924 0.43379 -0.00651
 O136 O 0.52233 0.55999 0.00578
 H137 H 0.53386 0.49089 0.15649
 H138 H 0.46689 0.58337 0.01243
 H139 H 0.53142 0.50303 -0.16278
 H140 H 0.46826 0.40822 -0.00826
 H141 H 0.51395 0.62806 0.08533
 H142 H 0.51139 0.63290 -0.05176
 H143 H 0.49050 0.53957 -0.23904
 H144 H 0.48654 0.46667 -0.24755
 H145 H 0.51325 0.36563 -0.08686
 H146 H 0.51299 0.36051 0.04856
 H147 H 0.49168 0.45133 0.23896
 H148 H 0.50658 0.52041 0.24669
 C149 C 0.29588 0.37433 0.32506
 C150 C 0.31989 0.35636 0.32828
 C151 C 0.32364 0.32054 0.37867
 C152 C 0.30396 0.30276 0.42103
 C153 C 0.28038 0.32074 0.41652
 C154 C 0.27651 0.35660 0.36838
 C155 C 0.34694 0.30223 0.38614
 C156 C 0.36686 0.31874 0.34499
 C157 C 0.36421 0.35404 0.29327
 C158 C 0.34021 0.37250 0.28333
 C159 C 0.33724 0.40585 0.22766
 C160 C 0.35695 0.42096 0.18374
 C161 C 0.38053 0.40426 0.19448
 C162 C 0.38467 0.37107 0.25015
 C163 C 0.40923 0.35675 0.26079
 C164 C 0.42864 0.37472 0.21798
 C165 C 0.42433 0.40720 0.16251
 C166 C 0.40007 0.42114 0.15020
 H167 H 0.29143 0.40228 0.29030
 H168 H 0.30689 0.27425 0.45669
 H169 H 0.25836 0.37096 0.36431
 H170 H 0.34985 0.27479 0.42454
 H171 H 0.38410 0.30229 0.35383
 H172 H 0.31971 0.42055 0.21524
 H173 H 0.35371 0.44643 0.14132
 H174 H 0.41425 0.33248 0.30306
 H175 H 0.44715 0.36328 0.22907
 H176 H 0.39635 0.44610 0.10720
 C177 C -0.16375 0.77172 0.37710
 C178 C -0.16475 0.81315 0.34225
 C179 C -0.18793 0.83426 0.33942
 C180 C -0.20873 0.81565 0.37535
 C181 C -0.20684 0.77581 0.41358
 C182 C -0.18446 0.75356 0.41201
 C183 C -0.19012 0.87402 0.30170
 C184 C -0.16988 0.89328 0.26602
 C185 C -0.14631 0.87399 0.26854
 C186 C -0.14360 0.83401 0.30973
 C187 C -0.11973 0.81669 0.31896
 C188 C -0.09931 0.83667 0.28654
 C189 C -0.10176 0.87435 0.24272
 C190 C -0.12525 0.89356 0.23238
 C191 C -0.12660 0.93116 0.18519
 C192 C -0.10554 0.94863 0.15027
 C193 C -0.08242 0.92958 0.16159
 C194 C -0.08071 0.89264 0.20856
 H195 H -0.14734 0.75219 0.37779
 H196 H -0.22619 0.83263 0.37559
 H197 H -0.18290 0.72210 0.43939
 H198 H -0.20775 0.89039 0.29936
 H199 H -0.17320 0.92405 0.23856
 H200 H -0.11605 0.78808 0.35287
 H201 H -0.08136 0.82214 0.29533
 H202 H -0.14370 0.94734 0.17255
 H203 H -0.10741 0.97719 0.11406
 H204 H -0.06297 0.87727 0.21702
 C205 C 0.67812 0.72259 0.32287
 C206 C 0.66903 0.68000 0.33166
 C207 C 0.68264 0.65128 0.37967
 C208 C 0.70324 0.66588 0.42176
 C209 C 0.71137 0.70886 0.41567
 C210 C 0.69911 0.73645 0.36326
 C211 C 0.67564 0.60805 0.38557
 C212 C 0.65569 0.59228 0.34334
 C213 C 0.64130 0.61970 0.29568
 C214 C 0.64725 0.66470 0.29331
 C215 C 0.63083 0.69302 0.25486
 C216 C 0.60960 0.67773 0.21839
 C217 C 0.60449 0.63355 0.21555
 C218 C 0.62072 0.60377 0.25206
 C219 C 0.61600 0.55911 0.24174
 C220 C 0.59562 0.54489 0.19917
 C221 C 0.57902 0.57448 0.16711
 C222 C 0.58340 0.61880 0.17552
 H223 H 0.66967 0.74570 0.28402
 H224 H 0.71332 0.64334 0.45834
 H225 H 0.70506 0.76964 0.35610
 H226 H 0.68588 0.58599 0.42262
 H227 H 0.65137 0.55860 0.35175
 H228 H 0.63344 0.72757 0.25461
 H229 H 0.59730 0.70071 0.19082
 H230 H 0.62816 0.53437 0.26356
 H231 H 0.59265 0.51045 0.19182
 H232 H 0.57081 0.64165 0.14882
 C233 C 0.17136 1.24861 0.30028
 C234 C 0.16325 1.20577 0.31363
 C235 C 0.17650 1.18062 0.36872
 C236 C 0.19547 1.19913 0.41348
 C237 C 0.20230 1.24257 0.40333
 C238 C 0.19075 1.26639 0.34365
 C239 C 0.17065 1.13717 0.37947
 C240 C 0.15202 1.11781 0.33605
 C241 C 0.13777 1.14176 0.28217
 C242 C 0.14268 1.18692 0.27372
 C243 C 0.12631 1.21201 0.22833
 C244 C 0.10597 1.19351 0.19169
 C245 C 0.10179 1.14907 0.19565
 C246 C 0.11817 1.12233 0.23861
 C247 C 0.11444 1.07707 0.23523
 C248 C 0.09472 1.05951 0.19359
 C249 C 0.07784 1.08629 0.15542
 C250 C 0.08139 1.13107 0.15649
 H251 H 0.16327 1.26899 0.25594
 H252 H 0.20518 1.17943 0.45604
 H253 H 0.19582 1.29976 0.33313
 H254 H 0.18069 1.11779 0.42168
 H255 H 0.14845 1.08427 0.34870
 H256 H 0.12816 1.24657 0.22284
 H257 H 0.09356 1.21417 0.15903
 H258 H 0.12682 1.05433 0.26228
 H259 H 0.09240 1.02470 0.19226
 H260 H 0.06861 1.15173 0.12518
 C261 C 0.68826 0.28779 -0.29016
 C262 C 0.67415 0.32314 -0.31679
 C263 C 0.67946 0.33987 -0.39228
 C264 C 0.69930 0.32370 -0.43621
 C265 C 0.71299 0.28784 -0.41027
 C266 C 0.70707 0.27037 -0.33623
 C267 C 0.66481 0.37249 -0.42396
 C268 C 0.64435 0.38772 -0.38346
 C269 C 0.63849 0.37234 -0.30766
 C270 C 0.65459 0.34169 -0.27183
 C271 C 0.65104 0.33153 -0.19174
 C272 C 0.63184 0.34961 -0.14880
 C273 C 0.61481 0.37680 -0.18484
 C274 C 0.61746 0.38752 -0.26551
 C275 C 0.59859 0.41218 -0.30114
 C276 C 0.57846 0.42671 -0.25752
 C277 C 0.57682 0.41794 -0.17722
 C278 C 0.59500 0.39316 -0.14084
 H279 H 0.68444 0.27155 -0.23549
 H280 H 0.70421 0.33980 -0.49040
 H281 H 0.71632 0.24181 -0.31447
 H282 H 0.66883 0.38561 -0.48160
 H283 H 0.63394 0.41290 -0.41181
 H284 H 0.66346 0.31090 -0.15971
 H285 H 0.63004 0.34151 -0.08708
 H286 H 0.59851 0.41963 -0.36303
 H287 H 0.56430 0.44557 -0.28631
 H288 H 0.59339 0.38588 -0.07868
 C289 C 0.19300 0.85099 -0.35819
 C290 C 0.17376 0.82866 -0.31948
 C291 C 0.17264 0.78306 -0.32870
 C292 C 0.19082 0.76095 -0.37176
 C293 C 0.20966 0.78377 -0.40914
 C294 C 0.21054 0.82878 -0.40243
 C295 C 0.15328 0.75984 -0.29552
 C296 C 0.13455 0.78088 -0.25511
 C297 C 0.13478 0.82618 -0.24433
 C298 C 0.15535 0.85013 -0.27359
 C299 C 0.15701 0.89460 -0.25507
 C300 C 0.13871 0.91542 -0.21240
 C301 C 0.11774 0.89318 -0.18827
 C302 C 0.11525 0.84836 -0.20462
 C303 C 0.09294 0.82796 -0.18265
 C304 C 0.07405 0.85125 -0.14641
 C305 C 0.07687 0.89527 -0.12948
 C306 C 0.09893 0.91590 -0.14938
 H307 H 0.19467 0.88568 -0.35722
 H308 H 0.19001 0.72607 -0.37799
 H309 H 0.22497 0.84684 -0.43164
 H310 H 0.15238 0.72499 -0.30190
 H311 H 0.12036 0.76048 -0.23116
 H312 H 0.17259 0.91419 -0.27131
 H313 H 0.14078 0.94961 -0.19964
 H314 H 0.08911 0.79445 -0.19515
 H315 H 0.05705 0.83477 -0.13193
 H316 H 0.10102 0.95023 -0.13781
 C317 C 0.29657 0.64534 -0.31145
 C318 C 0.32193 0.65392 -0.32295
 C319 C 0.32828 0.68612 -0.37847
 C320 C 0.31009 0.70776 -0.42124
 C321 C 0.28507 0.69782 -0.41185
 C322 C 0.27856 0.66713 -0.35470
 C323 C 0.35280 0.69694 -0.39130
 C324 C 0.37136 0.67732 -0.34877
 C325 C 0.36613 0.64571 -0.29140
 C326 C 0.34113 0.63249 -0.28043
 C327 C 0.33630 0.59805 -0.22820
 C328 C 0.35516 0.57793 -0.18672
 C329 C 0.37948 0.59186 -0.19410
 C330 C 0.38521 0.62641 -0.24567
 C331 C 0.40986 0.64083 -0.24848
 C332 C 0.42812 0.62052 -0.20518
 C333 C 0.42270 0.58526 -0.15658
 C334 C 0.39818 0.57145 -0.15033
 H335 H 0.29000 0.62231 -0.26896
 H336 H 0.31553 0.73379 -0.45997
 H337 H 0.25943 0.65881 -0.34492
 H338 H 0.35774 0.72100 -0.43478
 H339 H 0.38977 0.68715 -0.36384
 H340 H 0.31809 0.58521 -0.21919
 H341 H 0.35060 0.55141 -0.14783
 H342 H 0.41573 0.66824 -0.28251
 H343 H 0.44673 0.63283 -0.21012
 H344 H 0.39364 0.54469 -0.11198
 C345 C -0.18018 1.21894 -0.29623
 C346 C -0.16753 1.18189 -0.32348
 C347 C -0.17429 1.16475 -0.39766
 C348 C -0.19412 1.18235 -0.43959
 C349 C -0.20623 1.22000 -0.41324
 C350 C -0.19893 1.23770 -0.34051
 C351 C -0.16104 1.13044 -0.43021
 C352 C -0.14060 1.11370 -0.39182
 C353 C -0.13339 1.12927 -0.31717
 C354 C -0.14804 1.16202 -0.28047
 C355 C -0.14318 1.17296 -0.20133
 C356 C -0.12414 1.15356 -0.16013
 C357 C -0.10856 1.12399 -0.19705
 C358 C -0.11247 1.11229 -0.27683
 C359 C -0.09499 1.08467 -0.31317
 C360 C -0.07502 1.06833 -0.27086
 C361 C -0.07224 1.07834 -0.19126
 C362 C -0.08900 1.10604 -0.15452
 H363 H -0.17519 1.23546 -0.24262
 H364 H -0.20000 1.16654 -0.49334
 H365 H -0.20694 1.26746 -0.31868
 H366 H -0.16613 1.11711 -0.48698
 H367 H -0.13129 1.08730 -0.42082
 H368 H -0.15450 1.19525 -0.16851
 H369 H -0.12133 1.16234 -0.09899
 H370 H -0.09593 1.07600 -0.37455
 H371 H -0.06200 1.04707 -0.29989
 H372 H -0.08653 1.11410 -0.09285
 C373 C 0.70342 0.64351 -0.30944
 C374 C 0.67845 0.65579 -0.31784
 C375 C 0.67300 0.68890 -0.37252
 C376 C 0.69169 0.70768 -0.41800
 C377 C 0.71626 0.69401 -0.41137
 C378 C 0.72186 0.66243 -0.35497
 C379 C 0.64890 0.70329 -0.38187
 C380 C 0.62988 0.68555 -0.33826
 C381 C 0.63415 0.65215 -0.28350
 C382 C 0.65880 0.63660 -0.27384
 C383 C 0.66290 0.60196 -0.22152
 C384 C 0.64370 0.58314 -0.18005
 C385 C 0.61966 0.59816 -0.18817
 C386 C 0.61453 0.63323 -0.23912
 C387 C 0.58985 0.64776 -0.24359
 C388 C 0.57115 0.62726 -0.20178
 C389 C 0.57622 0.59177 -0.15347
 C390 C 0.60066 0.57781 -0.14612
 H391 H 0.70945 0.61943 -0.26819
 H392 H 0.68706 0.73384 -0.45758
 H393 H 0.74057 0.65096 -0.34779
 H394 H 0.64464 0.72859 -0.42369
 H395 H 0.61188 0.69846 -0.35011
 H396 H 0.68077 0.58792 -0.21208
 H397 H 0.64774 0.55633 -0.14122
 H398 H 0.58424 0.67488 -0.27873
 H399 H 0.55251 0.63921 -0.20809
 H400 H 0.60491 0.55052 -0.10867
 C401 C 0.15678 1.22966 -0.40474
 C402 C 0.15997 1.19693 -0.34775
 C403 C 0.18439 1.18656 -0.32529
 C404 C 0.20462 1.20689 -0.36158
 C405 C 0.20109 1.23695 -0.42240
 C406 C 0.17689 1.24914 -0.44089
 C407 C 0.18855 1.15537 -0.26779
 C408 C 0.16905 1.13366 -0.23258
 C409 C 0.14438 1.14205 -0.25398
 C410 C 0.13980 1.17426 -0.31258
 C411 C 0.11521 1.18227 -0.33513
 C412 C 0.09575 1.16026 -0.30122
 C413 C 0.09983 1.12912 -0.24382
 C414 C 0.12411 1.11927 -0.21919
 C415 C 0.12691 1.08696 -0.16083
 C416 C 0.10646 1.06600 -0.12836
 C417 C 0.08255 1.07635 -0.15279
 C418 C 0.07951 1.10785 -0.21098
 H419 H 0.13902 1.24123 -0.42309
 H420 H 0.22314 1.19728 -0.34552
 H421 H 0.17339 1.27430 -0.48360
 H422 H 0.20716 1.14741 -0.24997
 H423 H 0.17401 1.11008 -0.18898
 H424 H 0.11021 1.20521 -0.37973
 H425 H 0.07720 1.16769 -0.32049
 H426 H 0.14459 1.07716 -0.13859
 H427 H 0.10944 1.04175 -0.08357
 H428 H 0.06116 1.11632 -0.23071
 C429 C 0.29826 0.37828 -0.35489
 C430 C 0.31890 0.35469 -0.32774
 C431 C 0.31966 0.30965 -0.34406
 C432 C 0.29999 0.28918 -0.38288
 C433 C 0.28005 0.31333 -0.41023
 C434 C 0.27930 0.35782 -0.39607
 C435 C 0.34025 0.28545 -0.32315
 C436 C 0.36057 0.30510 -0.28868
 C437 C 0.36076 0.34978 -0.27130
 C438 C 0.33907 0.37445 -0.28713
 C439 C 0.33813 0.41777 -0.26069
 C440 C 0.35795 0.43675 -0.22215
 C441 C 0.37979 0.41392 -0.21081
 C442 C 0.38175 0.37045 -0.23698
 C443 C 0.40486 0.34976 -0.22916
 C444 C 0.42480 0.37098 -0.19455
 C445 C 0.42236 0.41315 -0.16554
 C446 C 0.39977 0.43446 -0.17379
 H447 H 0.29666 0.41281 -0.34808
 H448 H 0.30067 0.25477 -0.39515
 H449 H 0.26409 0.37692 -0.41808
 H450 H 0.34090 0.25100 -0.33498
 H451 H 0.37567 0.28403 -0.27409
 H452 H 0.32193 0.43758 -0.26673
 H453 H 0.35628 0.46993 -0.20209
 H454 H 0.40833 0.31758 -0.25099
 H455 H 0.44216 0.35397 -0.18934
 H456 H 0.39791 0.46742 -0.15275
 C457 C -0.16521 0.75322 -0.34428
 C458 C -0.16116 0.79845 -0.33902
 C459 C -0.17940 0.82615 -0.37081
 C460 C -0.19997 0.80904 -0.40949
 C461 C -0.20325 0.76438 -0.41594
 C462 C -0.18606 0.73657 -0.38194
 C463 C -0.17704 0.87084 -0.36421
 C464 C -0.15723 0.88900 -0.32476
 C465 C -0.13856 0.86301 -0.29185
 C466 C -0.13993 0.81714 -0.30247
 C467 C -0.11981 0.79169 -0.27780
 C468 C -0.09938 0.81020 -0.24184
 C469 C -0.09851 0.85450 -0.22655
 C470 C -0.11830 0.88147 -0.24994
 C471 C -0.11723 0.92574 -0.22876
 C472 C -0.09720 0.94240 -0.18749
 C473 C -0.07740 0.91585 -0.16688
 C474 C -0.07804 0.87197 -0.18706
 H475 H -0.15286 0.72989 -0.31884
 H476 H -0.21358 0.83050 -0.43497
 H477 H -0.18855 0.70189 -0.38596
 H478 H -0.19082 0.89209 -0.38918
 H479 H -0.15673 0.92380 -0.32312
 H480 H -0.11899 0.75728 -0.28750
 H481 H -0.08425 0.78944 -0.22463
 H482 H -0.13187 0.94820 -0.24115
 H483 H -0.09710 0.97645 -0.17216
 H484 H -0.06290 0.85117 -0.16999
 C485 C 0.32845 0.72544 0.34167
 C486 C 0.33414 0.68074 0.34066
 C487 C 0.31673 0.65190 0.37393
 C488 C 0.29547 0.66772 0.41125
 C489 C 0.29088 0.71218 0.41516
 C490 C 0.30709 0.74074 0.37809
 C491 C 0.32072 0.60744 0.37068
 C492 C 0.34143 0.59065 0.33374
 C493 C 0.35946 0.61791 0.30033
 C494 C 0.35631 0.66370 0.30710
 C495 C 0.37567 0.69084 0.28198
 C496 C 0.39701 0.67400 0.24874
 C497 C 0.39965 0.62961 0.23693
 C498 C 0.38075 0.60091 0.26145
 C499 C 0.38371 0.55641 0.24412
 C500 C 0.40449 0.54140 0.20444
 C501 C 0.42318 0.56975 0.18176
 C502 C 0.42091 0.61378 0.19920
 H503 H 0.33999 0.74938 0.31425
 H504 H 0.28265 0.64553 0.43874
 H505 H 0.30362 0.77522 0.37976
 H506 H 0.30756 0.58526 0.39650
 H507 H 0.34314 0.55597 0.33451
 H508 H 0.37518 0.72545 0.28921
 H509 H 0.41143 0.69610 0.23076
 H510 H 0.36996 0.53249 0.25794
 H511 H 0.40600 0.50730 0.19136
 H512 H 0.43522 0.63592 0.18042
 C513 C -0.15967 1.23282 0.39650
 C514 C -0.16085 1.20422 0.33146
 C515 C -0.18455 1.19268 0.30342
 C516 C -0.20589 1.20653 0.34279
 C517 C -0.20434 1.23149 0.41181
 C518 C -0.18099 1.24625 0.43539
 C519 C -0.18693 1.16612 0.23760
 C520 C -0.16634 1.14945 0.20006
 C521 C -0.14230 1.15809 0.22772
 C522 C -0.13948 1.18617 0.29425
 C523 C -0.11547 1.19401 0.32296
 C524 C -0.09497 1.17462 0.28897
 C525 C -0.09741 1.14677 0.22483
 C526 C -0.12105 1.13861 0.19241
 C527 C -0.12244 1.11057 0.12666
 C528 C -0.10151 1.09043 0.09674
 C529 C -0.07828 1.09749 0.13039
 C530 C -0.07632 1.12639 0.19376
 H531 H -0.14258 1.24522 0.41940
 H532 H -0.22365 1.19492 0.32266
 H533 H -0.17912 1.26783 0.48537
 H534 H -0.20500 1.15756 0.21533
 H535 H -0.17010 1.12892 0.15030
 H536 H -0.11184 1.21429 0.37321
 H537 H -0.07698 1.18111 0.31397
 H538 H -0.13938 1.10310 0.09683
 H539 H -0.10369 1.06893 0.04679
 H540 H -0.05846 1.13241 0.22006
 C541 C 0.66487 0.27107 0.39440
 C542 C 0.66541 0.30352 0.33574
 C543 C 0.68876 0.32026 0.31404
 C544 C 0.71023 0.30692 0.35290
 C545 C 0.70913 0.27669 0.41377
 C546 C 0.68642 0.25784 0.43233
 C547 C 0.69063 0.35103 0.25485
 C548 C 0.66983 0.36611 0.21665
 C549 C 0.64603 0.35150 0.23704
 C550 C 0.64371 0.32020 0.29845
 C551 C 0.61980 0.30773 0.32207
 C552 C 0.59889 0.32541 0.28757
 C553 C 0.60083 0.35557 0.22709
 C554 C 0.62443 0.36823 0.19966
 C555 C 0.62542 0.39744 0.13599
 C556 C 0.60407 0.41503 0.10424
 C557 C 0.58078 0.40415 0.13384
 C558 C 0.57928 0.37361 0.19448
 H559 H 0.64814 0.25529 0.41250
 H560 H 0.72781 0.32133 0.33780
 H561 H 0.68528 0.23363 0.47805
 H562 H 0.70844 0.36393 0.23811
 H563 H 0.67311 0.39042 0.17276
 H564 H 0.61655 0.28512 0.36894
 H565 H 0.58095 0.31542 0.30879
 H566 H 0.64237 0.40739 0.10871
 H567 H 0.60598 0.43770 0.05622
 H568 H 0.56141 0.36441 0.21735
 C569 C 0.19948 0.84954 0.32835
 C570 C 0.17441 0.83694 0.33350
 C571 C 0.16864 0.80131 0.38245
 C572 C 0.18724 0.77916 0.42278
 C573 C 0.21182 0.79234 0.41748
 C574 C 0.21780 0.82747 0.36967
 C575 C 0.14435 0.78782 0.39121
 C576 C 0.12537 0.80906 0.35301
 C577 C 0.12994 0.84469 0.30340
 C578 C 0.15492 0.85836 0.29225
 C579 C 0.15957 0.89259 0.23953
 C580 C 0.14060 0.91290 0.19935
 C581 C 0.11618 0.90053 0.21069
 C582 C 0.11040 0.86668 0.26360
 C583 C 0.08520 0.85644 0.27454
 C584 C 0.06679 0.87816 0.23335
 C585 C 0.07268 0.91083 0.17974
 C586 C 0.09749 0.92195 0.16908
 H587 H 0.20559 0.87662 0.29388
 H588 H 0.18259 0.75141 0.45865
 H589 H 0.23672 0.83827 0.36513
 H590 H 0.13990 0.76052 0.42843
 H591 H 0.10724 0.79611 0.36286
 H592 H 0.17782 0.90417 0.22680
 H593 H 0.14513 0.93875 0.15893
 H594 H 0.07894 0.83211 0.31500
 H595 H 0.04780 0.86904 0.24350
 H596 H 0.10235 0.94751 0.12844
   
