data_POSCAR
  _audit_creation_date              2014-09-24
  _audit_creation_method            'ToBaCCo'
  _symmetry_space_group_name_H-M    'P1'
  _symmetry_Int_Tables_number       1
  _symmetry_cell_setting            triclinic
  loop_
  _symmetry_equiv_pos_as_xyz
 x,y,z
_cell_length_a 45.4140
_cell_length_b 45.3915
_cell_length_c 45.4584
_cell_angle_alpha 90.008200
_cell_angle_beta 90.019400
_cell_angle_gamma 89.908900
loop_
  _atom_site_label
  _atom_site_type_symbol
  _atom_site_fract_x
  _atom_site_fract_y
  _atom_site_fract_z
C1 C 0.34223 0.34359 1.38104
 C2 C 0.31688 0.35498 1.39456
 C3 C 0.30256 0.38013 1.38317
 C4 C 0.31445 0.39391 1.35801
 C5 C 0.33978 0.38273 1.34428
 C6 C 0.35372 0.35747 1.35582
 C7 C 0.35602 0.31826 1.39220
 C8 C 0.38121 0.30632 1.37844
 C9 C 0.39258 0.32061 1.35334
 C10 C 0.37900 0.34595 1.34197
 C11 C 0.39013 0.35970 1.31669
 C12 C 0.37627 0.38479 1.30484
 C13 C 0.35114 0.39623 1.31893
 H14 H 0.30823 0.34396 1.41386
 H15 H 0.30391 0.41326 1.34877
 H16 H 0.34682 0.30775 1.41153
 H17 H 0.41191 0.31195 1.34232
 H18 H 0.40947 0.35058 1.30608
 H19 H 0.34022 0.41553 1.31007
 C20 C 1.15575 0.65758 0.88182
 C21 C 1.18112 0.64609 0.89526
 C22 C 1.19532 0.62092 0.88380
 C23 C 1.18328 0.60720 0.85867
 C24 C 1.15794 0.61847 0.84503
 C25 C 1.14414 0.64377 0.85661
 C26 C 1.14208 0.68295 0.89305
 C27 C 1.11691 0.69501 0.87935
 C28 C 1.10541 0.68081 0.85425
 C29 C 1.11886 0.65541 0.84282
 C30 C 1.10761 0.64172 0.81754
 C31 C 1.12134 0.61656 0.80567
 C32 C 1.14646 0.60502 0.81971
 H33 H 1.18987 0.65707 0.91454
 H34 H 1.19371 0.58782 0.84938
 H35 H 1.15139 0.69339 0.91237
 H36 H 1.08609 0.68958 0.84328
 H37 H 1.08828 0.65091 0.80696
 H38 H 1.15729 0.58568 0.81082
 C39 C 0.65581 -0.16057 0.11698
 C40 C 0.68119 -0.14924 0.10348
 C41 C 0.69531 -0.12412 0.11487
 C42 C 0.68347 -0.11023 0.13991
 C43 C 0.65817 -0.12133 0.15364
 C44 C 0.64428 -0.14660 0.14217
 C45 C 0.64205 -0.18589 0.10587
 C46 C 0.61686 -0.19774 0.11966
 C47 C 0.60548 -0.18340 0.14475
 C48 C 0.61903 -0.15806 0.15607
 C49 C 0.60789 -0.14422 0.18135
 C50 C 0.62172 -0.11910 0.19308
 C51 C 0.64679 -0.10773 0.17892
 H52 H 0.69006 -0.16019 0.08423
 H53 H 0.69410 -0.09090 0.14899
 H54 H 0.65128 -0.19645 0.08656
 H55 H 0.58617 -0.19201 0.15578
 H56 H 0.58858 -0.15326 0.19202
 H57 H 0.65771 -0.08841 0.18770
 C58 C -0.15429 1.15818 -0.37973
 C59 C -0.17968 1.14690 -0.39322
 C60 C -0.19398 1.12180 -0.38185
 C61 C -0.18203 1.10792 -0.35676
 C62 C -0.15665 1.11898 -0.34306
 C63 C -0.14274 1.14422 -0.35455
 C64 C -0.14053 1.18348 -0.39085
 C65 C -0.11539 1.19523 -0.37707
 C66 C -0.10392 1.18103 -0.35203
 C67 C -0.11743 1.15567 -0.34069
 C68 C -0.10625 1.14182 -0.31545
 C69 C -0.12008 1.11670 -0.30369
 C70 C -0.14522 1.10538 -0.31779
 H71 H -0.18836 1.15801 -0.41249
 H72 H -0.19254 1.08858 -0.34755
 H73 H -0.14966 1.19418 -0.41012
 H74 H -0.08459 1.18981 -0.34116
 H75 H -0.08690 1.15085 -0.30482
 H76 H -0.15613 1.08608 -0.30899
 C77 C 0.65470 0.66108 0.61959
 C78 C 0.68001 0.64929 0.60632
 C79 C 0.69375 0.62403 0.61792
 C80 C 0.68157 0.61043 0.64292
 C81 C 0.65629 0.62198 0.65641
 C82 C 0.64281 0.64743 0.64475
 C83 C 0.64137 0.68656 0.60826
 C84 C 0.61626 0.69891 0.62180
 C85 C 0.60450 0.68490 0.64688
 C86 C 0.61761 0.65937 0.65841
 C87 C 0.60610 0.64580 0.68366
 C88 C 0.61950 0.62048 0.69555
 C89 C 0.64454 0.60866 0.68163
 H90 H 0.68914 0.66002 0.58708
 H91 H 0.69190 0.59097 0.65214
 H92 H 0.65090 0.69684 0.58896
 H93 H 0.58522 0.69391 0.65772
 H94 H 0.58682 0.65518 0.69416
 H95 H 0.65514 0.58920 0.69053
 C96 C 0.84135 0.33917 0.12101
 C97 C 0.81597 0.35074 0.10768
 C98 C 0.80189 0.37596 0.11919
 C99 C 0.81404 0.38961 0.14430
 C100 C 0.83939 0.37826 0.15783
 C101 C 0.85309 0.35293 0.14618
 C102 C 0.85493 0.31380 0.10969
 C103 C 0.88017 0.30171 0.12325
 C104 C 0.89178 0.31586 0.14833
 C105 C 0.87841 0.34124 0.15985
 C106 C 0.88981 0.35491 0.18509
 C107 C 0.87620 0.38010 0.19700
 C108 C 0.85104 0.39169 0.18308
 H109 H 0.80713 0.33981 0.08840
 H110 H 0.80370 0.40903 0.15363
 H111 H 0.84553 0.30339 0.09039
 H112 H 0.91115 0.30707 0.15919
 H113 H 0.90919 0.34570 0.19557
 H114 H 0.84029 0.41106 0.19200
 C115 C 0.34293 0.15610 0.87919
 C116 C 0.31763 0.14443 0.89243
 C117 C 0.30356 0.11937 0.88065
 C118 C 0.31566 0.10596 0.85537
 C119 C 0.34099 0.11742 0.84193
 C120 C 0.35466 0.14259 0.85385
 C121 C 0.35644 0.18137 0.89073
 C122 C 0.38153 0.19349 0.87722
 C123 C 0.39321 0.17972 0.85205
 C124 C 0.37993 0.15443 0.84029
 C125 C 0.39133 0.14106 0.81491
 C126 C 0.37775 0.11603 0.80270
 C127 C 0.35263 0.10428 0.81649
 H128 H 0.30882 0.15519 0.91182
 H129 H 0.30532 0.08667 0.84585
 H130 H 0.34717 0.19174 0.91011
 H131 H 0.41251 0.18879 0.84138
 H132 H 0.41065 0.15041 0.80453
 H133 H 0.34192 0.08504 0.80732
 C134 C 0.15830 0.84139 0.38263
 C135 C 0.18371 0.85304 0.39581
 C136 C 0.19753 0.87816 0.38407
 C137 C 0.18538 0.89171 0.35899
 C138 C 0.16003 0.88031 0.34558
 C139 C 0.14643 0.85505 0.35742
 C140 C 0.14483 0.81607 0.39410
 C141 C 0.11958 0.80395 0.38064
 C142 C 0.10786 0.81800 0.35555
 C143 C 0.12113 0.84331 0.34387
 C144 C 0.10965 0.85680 0.31857
 C145 C 0.12319 0.88187 0.30645
 C146 C 0.14833 0.89356 0.32025
 H147 H 0.19283 0.84235 0.41509
 H148 H 0.19579 0.91103 0.34964
 H149 H 0.15430 0.80573 0.41341
 H150 H 0.08849 0.80919 0.34476
 H151 H 0.09029 0.84751 0.30818
 H152 H 0.15902 0.91286 0.31117
 Zn153 Zn -0.01716 1.00514 0.03680
 Zn154 Zn 0.03655 0.98123 0.00766
 Zn155 Zn -0.02210 0.97590 -0.02216
 Zn156 Zn 0.00717 1.03481 -0.01629
 O157 O 0.00107 0.99922 0.00146
 O158 O 0.00387 0.99181 0.06739
 O159 O 0.03902 0.94632 -0.01022
 O160 O -0.05599 0.96535 -0.00459
 O161 O 0.04384 0.97421 0.04573
 O162 O -0.05193 0.98697 0.03892
 O163 O -0.00413 0.94209 -0.03256
 O164 O -0.01070 1.03734 -0.05114
 O165 O 0.06708 1.00221 -0.00578
 O166 O -0.03237 0.99391 -0.05595
 O167 O 0.04524 1.04211 -0.02342
 O168 O -0.00636 1.06529 0.00483
 O169 O -0.02456 1.04318 0.04421
 C170 C 0.02883 0.97930 0.06871
 C171 C 0.02122 0.93204 -0.02630
 C172 C -0.06611 0.97116 0.02081
 C173 C -0.02642 1.01944 -0.06569
 C174 C 0.06829 1.02708 -0.01844
 C175 C -0.01932 1.06635 0.02953
 Zn176 Zn 0.48474 0.00925 0.46197
 Zn177 Zn 0.47955 -0.02030 0.52068
 Zn178 Zn 0.53831 -0.01498 0.49119
 Zn179 Zn 0.50894 0.03855 0.51543
 O180 O 0.50285 0.00310 0.49735
 O181 O 0.44989 -0.00876 0.45961
 O182 O 0.49743 -0.05407 0.53114
 O183 O 0.54551 -0.02218 0.45312
 O184 O 0.44579 -0.03078 0.50290
 O185 O 0.50573 -0.00418 0.43141
 O186 O 0.54077 -0.04986 0.50921
 O187 O 0.54703 0.04579 0.52257
 O188 O 0.46906 -0.00249 0.55442
 O189 O 0.56886 0.00606 0.50455
 O190 O 0.49093 0.04090 0.55027
 O191 O 0.49546 0.06915 0.49445
 O192 O 0.47751 0.04737 0.45474
 C193 C 0.43570 -0.02475 0.47755
 C194 C 0.52285 -0.06410 0.52516
 C195 C 0.53053 -0.01701 0.43013
 C196 C 0.57009 0.03086 0.51736
 C197 C 0.47501 0.02291 0.56448
 C198 C 0.48266 0.07041 0.46967
 Zn199 Zn 1.01644 0.50737 0.46479
 Zn200 Zn 1.02230 0.47784 0.52354
 Zn201 Zn 0.99252 0.53663 0.51836
 Zn202 Zn 0.96326 0.48308 0.49437
 O203 O 0.99868 0.50118 0.50031
 O204 O 1.05130 0.48942 0.46222
 O205 O 1.03273 0.49566 0.55736
 O206 O 1.00601 0.56721 0.49747
 O207 O 1.05610 0.46754 0.50553
 O208 O 1.02360 0.54547 0.45757
 O209 O 1.01045 0.53891 0.55322
 O210 O 0.93267 0.50415 0.50773
 O211 O 1.00465 0.44393 0.53398
 O212 O 0.95444 0.54400 0.52540
 O213 O 0.96109 0.44824 0.51242
 O214 O 0.95583 0.47582 0.45637
 O215 O 0.99528 0.49397 0.43433
 C216 C 1.06585 0.47359 0.48005
 C217 C 1.02651 0.52101 0.56744
 C218 C 1.01865 0.56848 0.47263
 C219 C 0.93141 0.52908 0.52029
 C220 C 0.97920 0.43392 0.52816
 C221 C 0.97054 0.48107 0.43325
 Zn222 Zn 0.48139 0.49227 0.96383
 Zn223 Zn 0.53499 0.51615 0.99303
 Zn224 Zn 0.47616 0.52214 1.02245
 Zn225 Zn 0.50535 0.46302 1.01741
 O226 O 0.49943 0.49844 0.99923
 O227 O 0.50231 0.50573 0.93328
 O228 O 0.53757 0.55101 1.01091
 O229 O 0.44233 0.53261 1.00459
 O230 O 0.54221 0.52333 0.95498
 O231 O 0.44651 0.51023 0.96148
 O232 O 0.49420 0.55593 1.03268
 O233 O 0.48727 0.46093 1.05220
 O234 O 0.56547 0.49491 1.00642
 O235 O 0.46567 0.50453 1.05634
 O236 O 0.54339 0.45551 1.02466
 O237 O 0.49196 0.43242 0.99645
 O238 O 0.47434 0.45416 0.95655
 C239 C 0.52715 0.51839 0.93200
 C240 C 0.51972 0.56562 1.02667
 C241 C 0.43225 0.52635 0.97928
 C242 C 0.47149 0.47908 1.06642
 C243 C 0.56654 0.47017 1.01935
 C244 C 0.47942 0.43114 0.97154
 N245 N 1.23768 0.42488 0.39721
 C246 C 1.22593 0.41121 0.42094
 N247 N 1.23982 0.38737 0.43234
 N248 N 1.26469 0.37747 0.42029
 C249 C 1.27662 0.39098 0.39636
 N250 N 1.26253 0.41498 0.38518
 C251 C 1.19863 0.42143 0.43317
 C252 C 1.17544 0.43032 0.44257
 C253 C 1.14756 0.44136 0.45255
 N254 N 1.13727 0.43475 0.47978
 N255 N 1.11120 0.44500 0.48869
 C256 C 1.09461 0.46216 0.47063
 N257 N 1.10503 0.46871 0.44342
 N258 N 1.13104 0.45848 0.43453
 N259 N 0.25831 0.61343 0.93266
 C260 C 0.27206 0.58955 0.92117
 N261 N 0.26013 0.57594 0.89748
 N262 N 0.23524 0.58594 0.88559
 C263 C 0.22130 0.60997 0.89686
 N264 N 0.23340 0.62342 0.92075
 C265 C 0.29940 0.57921 0.93324
 C266 C 0.32261 0.57019 0.94249
 C267 C 0.35050 0.55899 0.95230
 N268 N 0.36116 0.56579 0.97935
 N269 N 0.38723 0.55541 0.98810
 C270 C 0.40346 0.53790 0.97005
 N271 N 0.39268 0.53116 0.94302
 N272 N 0.36667 0.54152 0.93430
 N273 N -0.23881 0.92144 0.10037
 C274 C -0.22644 0.90739 0.07716
 N275 N -0.23983 0.88317 0.06600
 N276 N -0.26482 0.87330 0.07777
 C277 C -0.27731 0.88725 0.10114
 N278 N -0.26377 0.91157 0.11213
 C279 C -0.19902 0.91764 0.06530
 C280 C -0.17575 0.92668 0.05631
 C281 C -0.14782 0.93799 0.04687
 N282 N -0.13706 0.93173 0.01973
 N283 N -0.11100 0.94228 0.01129
 C284 C -0.09487 0.95942 0.02974
 N285 N -0.10575 0.96562 0.05686
 N286 N -0.13176 0.95509 0.06527
 N287 N 0.74325 0.11488 0.56900
 C288 C 0.72932 0.09109 0.58036
 N289 N 0.74105 0.07734 0.60408
 N290 N 0.76592 0.08713 0.61614
 C291 C 0.78004 0.11107 0.60499
 N292 N 0.76813 0.12466 0.58107
 C293 C 0.70212 0.08099 0.56790
 C294 C 0.67906 0.07251 0.55788
 C295 C 0.65140 0.06236 0.54651
 N296 N 0.64964 0.03629 0.53206
 N297 N 0.62375 0.02642 0.52241
 C298 C 0.59877 0.04229 0.52690
 N299 N 0.60064 0.06844 0.54129
 N300 N 0.62652 0.07831 0.55094
 N301 N 0.43059 0.24364 0.38562
 C302 C 0.41923 0.22971 0.40939
 N303 N 0.39542 0.24141 0.42305
 N304 N 0.38329 0.26626 0.41318
 C305 C 0.39445 0.28037 0.38925
 N306 N 0.41845 0.26849 0.37577
 C307 C 0.43175 0.20251 0.41956
 C308 C 0.44184 0.17945 0.42807
 C309 C 0.45327 0.15178 0.43822
 N310 N 0.44893 0.12691 0.42228
 N311 N 0.45865 0.10102 0.43214
 C312 C 0.47303 0.09912 0.45827
 N313 N 0.47743 0.12409 0.47414
 N314 N 0.46770 0.14999 0.46428
 N315 N 0.89909 0.26124 0.57749
 C316 C 0.92243 0.27346 0.59144
 N317 N 0.93369 0.25993 0.61553
 N318 N 0.92188 0.23494 0.62539
 C319 C 0.89837 0.22260 0.61155
 N320 N 0.88729 0.23628 0.58735
 C321 C 0.93435 0.30088 0.58122
 C322 C 0.94340 0.32416 0.57223
 C323 C 0.95293 0.35211 0.56101
 N324 N 0.98012 0.36275 0.56731
 N325 N 0.98863 0.38884 0.55686
 C326 C 0.97020 0.40513 0.53979
 N327 N 0.94302 0.39437 0.53356
 N328 N 0.93454 0.36833 0.54399
 N329 N 0.06800 0.75809 -0.11319
 C330 C 0.07954 0.77183 -0.08937
 N331 N 0.10326 0.75986 -0.07581
 N332 N 0.11516 0.73495 -0.08577
 C333 C 0.10384 0.72102 -0.10974
 N334 N 0.07991 0.73316 -0.12316
 C335 C 0.06746 0.79918 -0.07905
 C336 C 0.05819 0.82240 -0.07005
 C337 C 0.04835 0.85029 -0.05886
 N338 N 0.02125 0.86095 -0.06564
 N339 N 0.01246 0.88701 -0.05527
 C340 C 0.03051 0.90325 -0.03781
 N341 N 0.05760 0.89247 -0.03110
 N342 N 0.06636 0.86645 -0.04144
 N343 N 0.56761 0.73958 1.11253
 C344 C 0.57899 0.72566 1.08873
 N345 N 0.60274 0.73738 1.07506
 N346 N 0.61481 0.76222 1.08491
 C347 C 0.60364 0.77633 1.10886
 N348 N 0.57969 0.76444 1.12237
 C349 C 0.56673 0.69838 1.07857
 C350 C 0.55731 0.67519 1.06972
 C351 C 0.54730 0.64731 1.05873
 N352 N 0.56534 0.63074 1.04170
 N353 N 0.55643 0.60474 1.03153
 C354 C 0.52916 0.59438 1.03804
 N355 N 0.51108 0.61103 1.05512
 N356 N 0.52002 0.63709 1.06531
 N357 N 0.42189 0.39925 1.23901
 C358 C 0.40787 0.42255 1.22668
 N359 N 0.38367 0.43377 1.24008
 N360 N 0.37377 0.42198 1.26504
 C361 C 0.38768 0.39853 1.27749
 N362 N 0.41199 0.38748 1.26395
 C363 C 0.41814 0.43443 1.19929
 C364 C 0.42717 0.44345 1.17604
 C365 C 0.43846 0.45294 1.14812
 N366 N 0.43217 0.48013 1.13741
 N367 N 0.44268 0.48860 1.11136
 C368 C 0.45981 0.47012 1.09518
 N369 N 0.46603 0.44295 1.10602
 N370 N 0.45554 0.43450 1.13202
 N371 N 0.57669 -0.10420 0.25930
 C372 C 0.59046 -0.08047 0.27100
 N373 N 0.61427 -0.06916 0.25706
 N374 N 0.62403 -0.08128 0.23220
 C375 C 0.61038 -0.10515 0.22037
 N376 N 0.58646 -0.11631 0.23445
 C377 C 0.58037 -0.06796 0.29818
 C378 C 0.57193 -0.05788 0.32122
 C379 C 0.56184 -0.04643 0.34887
 N380 N 0.57785 -0.05080 0.37367
 N381 N 0.56805 -0.04107 0.39953
 C382 C 0.54190 -0.02663 0.40146
 N383 N 0.52597 -0.02219 0.37655
 N384 N 0.53578 -0.03193 0.35068
 N385 N -0.11263 1.06712 -0.23941
 C386 C -0.08855 1.07826 -0.22578
 N387 N -0.07462 1.10173 -0.23780
 N388 N -0.08448 1.11374 -0.26266
 C389 C -0.10866 1.10276 -0.27643
 N390 N -0.12248 1.07914 -0.26430
 C391 C -0.07838 1.06608 -0.19847
 C392 C -0.06953 1.05673 -0.17527
 C393 C -0.05853 1.04681 -0.14738
 N394 N -0.04156 1.06492 -0.13087
 N395 N -0.03137 1.05608 -0.10487
 C396 C -0.03781 1.02882 -0.09444
 N397 N -0.05483 1.01066 -0.11102
 N398 N -0.06504 1.01953 -0.13708
 N399 N 1.07571 0.60218 0.73978
 C400 C 1.08956 0.57870 0.72759
 N401 N 1.11364 0.56735 0.74111
 N402 N 1.12358 0.57919 0.76604
 C403 C 1.10985 0.60282 0.77834
 N404 N 1.08566 0.61400 0.76468
 C405 C 1.07926 0.56671 0.70025
 C406 C 1.07027 0.55754 0.67703
 C407 C 1.05909 0.54780 0.64914
 N408 N 1.06585 0.52071 0.63846
 N409 N 1.05548 0.51202 0.61241
 C410 C 1.03804 0.53018 0.59621
 N411 N 1.03135 0.55727 0.60702
 N412 N 1.04170 0.56592 0.63302
 N413 N 0.75953 0.57786 0.60410
 C414 C 0.77181 0.59145 0.58059
 N415 N 0.75841 0.61551 0.56906
 N416 N 0.73349 0.62571 0.58074
 C417 C 0.72107 0.61224 0.60439
 N418 N 0.73462 0.58806 0.61577
 C419 C 0.79909 0.58091 0.56861
 C420 C 0.82221 0.57206 0.55904
 C421 C 0.84996 0.56149 0.54822
 N422 N 0.87485 0.57732 0.55270
 N423 N 0.90079 0.56712 0.54350
 C424 C 0.90270 0.54073 0.52954
 N425 N 0.87770 0.52497 0.52501
 N426 N 0.85176 0.53518 0.53421
 N427 N 0.73906 0.38386 1.07025
 C428 C 0.72540 0.40779 1.08173
 N429 N 0.73731 0.42129 1.10549
 N430 N 0.76211 0.41112 1.11744
 C431 C 0.77596 0.38704 1.10616
 N432 N 0.76387 0.37371 1.08221
 C433 C 0.69826 0.41831 1.06939
 C434 C 0.67526 0.42715 1.05948
 C435 C 0.64765 0.43769 1.04827
 N436 N 0.64609 0.46376 1.03380
 N437 N 0.62027 0.47397 1.02425
 C438 C 0.59515 0.45844 1.02887
 N439 N 0.59681 0.43229 1.04329
 N440 N 0.62263 0.42209 1.05283
 N441 N 0.24092 1.11132 -0.07030
 C442 C 0.22714 1.08760 -0.08198
 N443 N 0.23891 1.07426 -0.10591
 N444 N 0.26370 1.08438 -0.11785
 C445 C 0.27767 1.10826 -0.10636
 N446 N 0.26570 1.12143 -0.08225
 C447 C 0.20002 1.07720 -0.06962
 C448 C 0.17702 1.06860 -0.05958
 C449 C 0.14942 1.05843 -0.04812
 N450 N 0.14771 1.03230 -0.03379
 N451 N 0.12189 1.02247 -0.02395
 C452 C 0.09693 1.03846 -0.02813
 N453 N 0.09875 1.06468 -0.04240
 N454 N 0.12457 1.07450 -0.05222
 N455 N 0.26255 -0.11348 0.43255
 C456 C 0.27573 -0.08933 0.42103
 N457 N 0.26318 -0.07566 0.39768
 N458 N 0.23824 -0.08586 0.38614
 C459 C 0.22491 -0.11012 0.39750
 N460 N 0.23758 -0.12367 0.42100
 C461 C 0.30309 -0.07873 0.43271
 C462 C 0.32630 -0.06948 0.44165
 C463 C 0.35414 -0.05803 0.45118
 N464 N 0.37010 -0.04069 0.43291
 N465 N 0.39606 -0.03010 0.44142
 C466 C 0.40698 -0.03647 0.46849
 N467 N 0.39095 -0.05385 0.48679
 N468 N 0.36494 -0.06446 0.47826
 N469 N 0.56805 -0.23755 0.61371
 C470 C 0.57986 -0.22408 0.58988
 N471 N 0.60354 -0.23637 0.57654
 N472 N 0.61512 -0.26133 0.58673
 C473 C 0.60353 -0.27500 0.61070
 N474 N 0.57965 -0.26254 0.62390
 C475 C 0.56809 -0.19672 0.57927
 C476 C 0.55908 -0.17352 0.57000
 C477 C 0.54947 -0.14567 0.55851
 N478 N 0.56772 -0.12967 0.54121
 N479 N 0.55913 -0.10371 0.53058
 C480 C 0.53199 -0.09283 0.53690
 N481 N 0.51371 -0.10892 0.55424
 N482 N 0.52232 -0.13492 0.56488
 N483 N 1.07055 0.74128 0.38863
 C484 C 1.08219 0.72750 0.41237
 N485 N 1.10608 0.73929 0.42576
 N486 N 1.11802 0.76409 0.41565
 C487 C 1.10658 0.77805 0.39174
 N488 N 1.08251 0.76607 0.37853
 C489 C 1.06984 0.70035 0.42275
 C490 C 1.05980 0.67734 0.43132
 C491 C 1.04835 0.64971 0.44144
 N492 N 1.05243 0.62489 0.42535
 N493 N 1.04260 0.59904 0.43512
 C494 C 1.02835 0.59715 0.46131
 N495 N 1.02420 0.62208 0.47733
 N496 N 1.03404 0.64793 0.46755
 N497 N -0.07067 1.23894 0.11532
 C498 C -0.08224 1.22520 0.09152
 N499 N -0.10613 1.23705 0.07812
 N500 N -0.11813 1.26185 0.08825
 C501 C -0.10676 1.27578 0.11220
 N502 N -0.08268 1.26375 0.12544
 C503 C -0.06984 1.19807 0.08104
 C504 C -0.05986 1.17506 0.07226
 C505 C -0.04856 1.14745 0.06178
 N506 N -0.05305 1.12242 0.07740
 N507 N -0.04341 1.09660 0.06727
 C508 C -0.02896 1.09495 0.04117
 N509 N -0.02441 1.12009 0.02562
 N510 N -0.03406 1.14591 0.03576
 N511 N 0.39529 0.25932 0.92321
 C512 C 0.41890 0.27153 0.90969
 N513 N 0.43051 0.25805 0.88575
 N514 N 0.41881 0.23314 0.87559
 C515 C 0.39507 0.22080 0.88898
 N516 N 0.38361 0.23442 0.91304
 C517 C 0.43089 0.29880 0.92017
 C518 C 0.44049 0.32192 0.92896
 C519 C 0.45135 0.34967 0.93943
 N520 N 0.46535 0.35148 0.96572
 N521 N 0.47460 0.37743 0.97583
 C522 C 0.47013 0.40242 0.95999
 N523 N 0.45617 0.40049 0.93364
 N524 N 0.44693 0.37455 0.92353
 N525 N 0.61092 0.57055 0.75933
 C526 C 0.58725 0.58229 0.77321
 N527 N 0.57393 0.60634 0.76154
 N528 N 0.58401 0.61832 0.73677
 C529 C 0.60780 0.60672 0.72276
 N530 N 0.62099 0.58254 0.73456
 C531 C 0.57690 0.56989 0.80032
 C532 C 0.56836 0.55979 0.82330
 C533 C 0.55827 0.54826 0.85089
 N534 N 0.53217 0.53391 0.85266
 N535 N 0.52242 0.52401 0.87848
 C536 C 0.53846 0.52813 0.90336
 N537 N 0.56464 0.54241 0.90147
 N538 N 0.57438 0.55231 0.87566
 N539 N 0.38612 0.06770 0.73756
 C540 C 0.41030 0.07922 0.72443
 N541 N 0.42397 0.10252 0.73706
 N542 N 0.41376 0.11400 0.76202
 C543 C 0.38948 0.10265 0.77529
 N544 N 0.37592 0.07920 0.76255
 C545 C 0.42091 0.06760 0.69706
 C546 C 0.43018 0.05870 0.67385
 C547 C 0.44166 0.04921 0.64601
 N548 N 0.45892 0.06755 0.63005
 N549 N 0.46954 0.05907 0.60410
 C550 C 0.46327 0.03195 0.59319
 N551 N 0.44597 0.01358 0.60922
 N552 N 0.43533 0.02208 0.63522
 N553 N 0.07729 0.89557 0.24057
 C554 C 0.09084 0.91914 0.22832
 N555 N 0.11478 0.93076 0.24179
 N556 N 0.12490 0.91910 0.26673
 C557 C 0.11148 0.89538 0.27910
 N558 N 0.08742 0.88392 0.26549
 C559 C 0.08038 0.93110 0.20104
 C560 C 0.07159 0.94066 0.17791
 C561 C 0.06108 0.95145 0.15016
 N562 N 0.03473 0.96541 0.14830
 N563 N 0.02457 0.97459 0.12235
 C564 C 0.04043 0.97008 0.09742
 N565 N 0.06685 0.95616 0.09939
 N566 N 0.07699 0.94699 0.12533
 N567 N 0.88461 0.42986 0.26099
 C568 C 0.90857 0.41838 0.27461
 N569 N 0.92211 0.39458 0.26271
 N570 N 0.91196 0.38258 0.23796
 C571 C 0.88790 0.39392 0.22420
 N572 N 0.87448 0.41785 0.23623
 C573 C 0.91905 0.43076 0.30170
 C574 C 0.92783 0.44072 0.32466
 C575 C 0.93830 0.45199 0.35223
 N576 N 0.96436 0.46645 0.35380
 N577 N 0.97449 0.47606 0.37959
 C578 C 0.95889 0.47152 0.40467
 N579 N 0.93275 0.45712 0.40300
 N580 N 0.92263 0.44752 0.37721
   
