data_POSCAR
  _audit_creation_date              2014-09-24
  _audit_creation_method            'ToBaCCo'
  _symmetry_space_group_name_H-M    'P1'
  _symmetry_Int_Tables_number       1
  _symmetry_cell_setting            triclinic
  loop_
  _symmetry_equiv_pos_as_xyz
 x,y,z
_cell_length_a 28.8551
_cell_length_b 28.8167
_cell_length_c 48.7479
_cell_angle_alpha 89.974500
_cell_angle_beta 90.919500
_cell_angle_gamma 89.874400
loop_
  _atom_site_label
  _atom_site_type_symbol
  _atom_site_fract_x
  _atom_site_fract_y
  _atom_site_fract_z
C1 C 0.01999 0.35611 0.98676
 C2 C 0.01973 0.35593 1.01489
 C3 C 0.00926 0.40086 1.02303
 N4 N 0.00289 0.42828 1.00078
 C5 C 0.00975 0.40113 0.97859
 C6 C 0.00259 0.41502 1.05046
 C7 C -0.00489 0.46163 1.05843
 C8 C -0.02009 0.47547 1.08405
 C9 C -0.02051 0.52318 1.08407
 C10 C -0.00551 0.53736 1.05848
 N11 N 0.00422 0.49959 1.04309
 C12 C 0.00137 0.58411 1.05061
 C13 C 0.00865 0.59850 1.02328
 C14 C 0.01933 0.64345 1.01535
 C15 C 0.02042 0.64348 0.98723
 C16 C 0.01037 0.59859 0.97886
 N17 N 0.00288 0.57130 1.00091
 C18 C 0.00519 0.58439 0.95127
 C19 C -0.00175 0.53790 0.94302
 C20 C -0.01526 0.52419 0.91682
 C21 C -0.01569 0.47645 0.91678
 C22 C -0.00237 0.46228 0.94295
 N23 N 0.00639 0.49996 0.95872
 C24 C 0.00393 0.41560 0.95108
 H25 H 0.02645 0.32637 0.97380
 H26 H 0.02590 0.32597 1.02786
 H27 H 0.02206 0.49976 0.97803
 H28 H -0.02956 0.45344 1.10105
 H29 H -0.03033 0.54497 1.10111
 H30 H 0.02517 0.67326 1.02845
 H31 H 0.02726 0.67330 0.97441
 H32 H -0.02439 0.45467 0.89937
 H33 H 0.02110 0.49972 1.02445
 H34 H -0.02362 0.54627 0.89945
 C35 C 0.35565 -0.01658 0.48654
 C36 C 0.35671 -0.01700 0.51469
 C37 C 0.40192 -0.00697 0.52272
 N38 N 0.42833 -0.00016 0.50044
 C39 C 0.40026 -0.00636 0.47829
 C40 C 0.41721 -0.00118 0.55015
 C41 C 0.46397 0.00599 0.55809
 C42 C 0.47862 0.02025 0.58397
 C43 C 0.52627 0.02076 0.58384
 C44 C 0.53954 0.00671 0.55786
 N45 N 0.50130 -0.00254 0.54240
 C46 C 0.58595 0.00022 0.54964
 C47 C 0.59925 -0.00626 0.52211
 C48 C 0.64387 -0.01666 0.51377
 C49 C 0.64274 -0.01710 0.48564
 C50 C 0.59750 -0.00695 0.47765
 N51 N 0.57113 -0.00002 0.49996
 C52 C 0.58215 -0.00123 0.45020
 C53 C 0.53535 0.00584 0.44227
 C54 C 0.52053 0.01985 0.41635
 C55 C 0.47286 0.02025 0.41653
 C56 C 0.45983 0.00642 0.44255
 N57 N 0.49814 -0.00264 0.45801
 C58 C 0.41355 -0.00000 0.45080
 H59 H 0.32538 -0.02261 0.47364
 H60 H 0.32739 -0.02337 0.52774
 H61 H 0.49881 -0.01871 0.47706
 H62 H 0.45721 0.02907 0.60125
 H63 H 0.54864 0.03000 0.60101
 H64 H 0.67421 -0.02278 0.52663
 H65 H 0.67202 -0.02360 0.47256
 H66 H 0.45036 0.02931 0.39936
 H67 H 0.50076 -0.01875 0.52341
 H68 H 0.54183 0.02857 0.39902
 C69 C 0.08780 0.00401 0.26141
 H70 H 0.09054 0.00430 0.23931
 C71 C 0.12785 0.00548 0.27790
 H72 H 0.16160 0.00673 0.26852
 C73 C 0.04055 0.00228 0.30077
 H74 H 0.00655 0.00171 0.30966
 C75 C 0.07966 0.00376 0.31798
 H76 H 0.07561 0.00378 0.34003
 N77 N 0.04527 0.00167 0.27303
 C78 C -0.04461 -0.06398 0.21153
 H79 H -0.07293 -0.03932 0.21081
 C80 C -0.04593 -0.10333 0.19483
 H81 H -0.07526 -0.10900 0.18110
 C82 C 0.02843 -0.08669 0.23017
 H83 H 0.05713 -0.08039 0.24413
 C84 C 0.02847 -0.12649 0.21382
 H85 H 0.05745 -0.15042 0.21502
 Zn86 Zn -0.00761 -0.00076 0.24950
 N87 N -0.00739 -0.05594 0.22836
 C88 C -0.00539 0.04692 0.19852
 N89 N -0.00584 0.05196 0.22628
 C90 C -0.00354 0.09468 0.23814
 C91 C -0.00207 0.13459 0.22187
 C92 C -0.00393 0.08588 0.18153
 C93 C -0.06986 -0.03818 0.28683
 C94 C -0.10880 -0.03980 0.30344
 C95 C -0.13282 0.03457 0.28514
 C96 C -0.09340 0.03483 0.26887
 N97 N -0.06242 -0.00083 0.27039
 H98 H -0.00594 0.01277 0.18944
 H99 H -0.00311 0.09766 0.26026
 H100 H -0.00066 0.16849 0.23144
 H101 H -0.00389 0.08157 0.15945
 H102 H -0.04501 -0.06635 0.28735
 H103 H -0.11398 -0.06923 0.31688
 H104 H -0.15691 0.06343 0.28419
 H105 H -0.08753 0.06366 0.25522
 C106 C -0.00884 -0.13463 0.19582
 C107 C 0.12368 0.00506 0.30644
 C108 C -0.14032 -0.00288 0.30276
 C109 C -0.00248 0.13008 0.19331
 C110 C 0.00102 0.09518 0.76125
 H111 H 0.00055 0.09835 0.73913
 C112 C -0.00026 0.13497 0.77761
 H113 H -0.00154 0.16896 0.76812
 C114 C 0.00291 0.04709 0.80075
 H115 H 0.00344 0.01287 0.80975
 C116 C 0.00163 0.08592 0.81783
 H117 H 0.00172 0.08142 0.83990
 N118 N 0.00332 0.05235 0.77300
 C119 C 0.06770 -0.03747 0.71233
 H120 H 0.04297 -0.06563 0.71177
 C121 C 0.10673 -0.03907 0.69578
 H122 H 0.11208 -0.06846 0.68234
 C123 C 0.09092 0.03544 0.73039
 H124 H 0.08493 0.06420 0.74407
 C125 C 0.13043 0.03520 0.71418
 H126 H 0.15444 0.06402 0.71521
 Zn127 Zn 0.00529 -0.00025 0.74972
 N128 N 0.06007 -0.00019 0.72879
 C129 C -0.04303 0.00278 0.69850
 N130 N -0.04768 0.00214 0.72625
 C131 C -0.09019 0.00439 0.73790
 C132 C -0.13029 0.00580 0.72145
 C133 C -0.08220 0.00420 0.68134
 C134 C 0.04301 -0.06341 0.78752
 C135 C 0.04473 -0.10266 0.80431
 C136 C -0.02981 -0.12594 0.78573
 C137 C -0.03016 -0.08622 0.76928
 N138 N 0.00553 -0.05545 0.77086
 H139 H -0.00905 0.00226 0.68958
 H140 H -0.09287 0.00466 0.76002
 H141 H -0.16402 0.00700 0.73087
 H142 H -0.07820 0.00424 0.65927
 H143 H 0.07121 -0.03872 0.78807
 H144 H 0.07427 -0.10824 0.81793
 H145 H -0.05870 -0.14986 0.78473
 H146 H -0.05910 -0.07996 0.75545
 C147 C 0.13814 -0.00220 0.69655
 C148 C 0.00031 0.13022 0.80616
 C149 C 0.00778 -0.13396 0.80358
 C150 C -0.12619 0.00542 0.69291
 C151 C -0.03940 -0.25079 0.11819
 C152 C 0.00264 -0.26315 0.10024
 C153 C -0.00370 -0.31452 0.10770
 C154 C -0.04575 -0.30276 0.12537
 C155 C -0.00647 -0.24574 0.14309
 C156 C -0.01282 -0.29710 0.15059
 C157 C 0.03555 -0.25754 0.12541
 C158 C 0.02925 -0.30949 0.13258
 C159 C -0.00200 -0.35210 0.08754
 C160 C -0.00046 -0.38229 0.07048
 C161 C -0.00773 -0.20681 0.16238
 C162 C -0.00844 -0.17421 0.17784
 H163 H -0.06764 -0.22624 0.11249
 H164 H 0.00903 -0.24963 0.07931
 H165 H -0.07915 -0.32181 0.12512
 H166 H -0.01920 -0.31060 0.17152
 H167 H 0.06897 -0.23852 0.12563
 H168 H 0.05748 -0.33407 0.13826
 C169 C -0.03626 0.25074 0.11895
 C170 C -0.03909 0.30272 0.12687
 C171 C 0.00072 0.31291 0.10723
 C172 C 0.00354 0.26153 0.09902
 C173 C -0.00021 0.24323 0.14207
 C174 C 0.03958 0.25346 0.12241
 C175 C -0.00303 0.29460 0.15032
 C176 C 0.03680 0.30544 0.13033
 C177 C 0.00128 0.35089 0.08728
 C178 C 0.00184 0.38129 0.07030
 C179 C -0.00082 0.20370 0.16096
 C180 C -0.00148 0.17049 0.17598
 H181 H -0.06630 0.22782 0.11446
 H182 H -0.07142 0.32342 0.12848
 H183 H 0.00624 0.24838 0.07770
 H184 H 0.07192 0.23278 0.12077
 H185 H -0.00572 0.30773 0.17164
 H186 H 0.06683 0.32840 0.13478
 C187 C 0.25461 0.03554 0.62196
 C188 C 0.30692 0.03745 0.62954
 C189 C 0.31588 -0.00130 0.60865
 C190 C 0.26415 -0.00319 0.60078
 C191 C 0.24808 -0.00180 0.64406
 C192 C 0.25707 -0.04053 0.62315
 C193 C 0.29980 0.00009 0.65197
 C194 C 0.30938 -0.03866 0.63074
 C195 C 0.35286 -0.00109 0.58843
 C196 C 0.38249 -0.00104 0.57130
 C197 C 0.20965 -0.00206 0.66333
 C198 C 0.17738 -0.00219 0.67872
 H199 H 0.23166 0.06604 0.61856
 H200 H 0.32786 0.06951 0.63193
 H201 H 0.24992 -0.00454 0.57950
 H202 H 0.23616 -0.07260 0.62073
 H203 H 0.31401 0.00143 0.67326
 H204 H 0.33235 -0.06915 0.63411
 C205 C -0.24172 0.03162 0.61390
 C206 C -0.26107 -0.01243 0.59967
 C207 C -0.31043 0.00363 0.60631
 C208 C -0.29166 0.04770 0.62026
 C209 C -0.24009 0.00518 0.64128
 C210 C -0.28943 0.02126 0.64796
 C211 C -0.25888 -0.03887 0.62731
 C212 C -0.30886 -0.02283 0.63368
 C213 C -0.34885 0.00256 0.58634
 C214 C -0.37971 0.00151 0.56940
 C215 C -0.20024 0.00573 0.66027
 C216 C -0.16681 0.00581 0.67541
 H217 H -0.21368 0.05401 0.60597
 H218 H -0.24986 -0.02630 0.57959
 H219 H -0.30561 0.08327 0.61713
 H220 H -0.30063 0.03513 0.66804
 H221 H -0.24496 -0.07446 0.63042
 H222 H -0.33692 -0.04522 0.64157
 C223 C 0.01402 -0.23819 0.88799
 C224 C -0.02732 -0.27124 0.89271
 C225 C 0.00639 -0.31257 0.89275
 C226 C 0.04773 -0.28007 0.88832
 C227 C 0.00727 -0.24439 0.85688
 C228 C 0.04100 -0.28571 0.85690
 C229 C -0.03408 -0.27689 0.86131
 C230 C -0.00037 -0.31885 0.86165
 C231 C 0.00589 -0.34993 0.91310
 C232 C 0.00553 -0.38005 0.93025
 C233 C 0.00766 -0.20577 0.83734
 C234 C 0.00783 -0.17337 0.82171
 H235 H 0.01995 -0.20461 0.89862
 H236 H -0.05541 -0.26570 0.90767
 H237 H 0.08136 -0.28180 0.89966
 H238 H 0.06910 -0.29123 0.84195
 H239 H -0.06772 -0.27515 0.84997
 H240 H -0.00630 -0.35248 0.85107
 C241 C 0.04079 0.25363 0.87759
 C242 C 0.03657 0.30564 0.86986
 C243 C 0.00145 0.31207 0.89291
 C244 C 0.00570 0.26065 0.90092
 C245 C 0.00028 0.24282 0.85779
 C246 C -0.03482 0.24929 0.88085
 C247 C -0.00396 0.29423 0.84973
 C248 C -0.03908 0.30130 0.87312
 C249 C 0.00224 0.34983 0.91299
 C250 C 0.00298 0.38010 0.93003
 C251 C -0.00010 0.20353 0.83874
 C252 C -0.00011 0.17048 0.82360
 H253 H 0.07362 0.23360 0.87922
 H254 H 0.06593 0.32925 0.86558
 H255 H 0.00969 0.24729 0.92219
 H256 H -0.06418 0.22569 0.88516
 H257 H -0.00795 0.30756 0.82846
 H258 H -0.07189 0.32136 0.87152
 C259 C -0.25999 -0.04227 0.37555
 C260 C -0.26527 -0.00649 0.39898
 C261 C -0.31696 -0.00166 0.39144
 C262 C -0.31226 -0.03745 0.36830
 C263 C -0.24965 -0.00233 0.35570
 C264 C -0.30132 0.00250 0.34811
 C265 C -0.25439 0.03344 0.37885
 C266 C -0.30665 0.03830 0.37159
 C267 C -0.35370 -0.00135 0.41180
 C268 C -0.38320 -0.00121 0.42902
 C269 C -0.21148 -0.00265 0.33625
 C270 C -0.17939 -0.00283 0.32073
 H271 H -0.24039 -0.07540 0.37697
 H272 H -0.25088 -0.01018 0.42013
 H273 H -0.33649 -0.06659 0.36420
 H274 H -0.31570 0.00619 0.32696
 H275 H -0.23018 0.06259 0.38298
 H276 H -0.32627 0.07141 0.37020
 C277 C 0.28862 0.00771 0.34993
 C278 C 0.29719 0.04354 0.37318
 C279 C 0.30788 0.00342 0.39308
 C280 C 0.29996 -0.03242 0.37017
 C281 C 0.23751 0.00495 0.35813
 C282 C 0.24825 -0.03514 0.37804
 C283 C 0.24545 0.04077 0.38105
 C284 C 0.25675 0.00067 0.40123
 C285 C 0.34634 0.00237 0.41303
 C286 C 0.37724 0.00134 0.42994
 C287 C 0.19766 0.00547 0.33913
 C288 C 0.16426 0.00551 0.32398
 H289 H 0.30125 0.01062 0.32861
 H290 H 0.31778 0.07586 0.37141
 H291 H 0.32283 -0.06251 0.36592
 H292 H 0.22769 -0.06748 0.37984
 H293 H 0.22260 0.07087 0.38532
 H294 H 0.24410 -0.00225 0.42255
   
