data_POSCAR
  _audit_creation_date              2014-09-24
  _audit_creation_method            'ToBaCCo'
  _symmetry_space_group_name_H-M    'P1'
  _symmetry_Int_Tables_number       1
  _symmetry_cell_setting            triclinic
  loop_
  _symmetry_equiv_pos_as_xyz
 x,y,z
_cell_length_a 42.7604
_cell_length_b 42.6337
_cell_length_c 42.6319
_cell_angle_alpha 90.011900
_cell_angle_beta 90.036800
_cell_angle_gamma 90.001700
loop_
  _atom_site_label
  _atom_site_type_symbol
  _atom_site_fract_x
  _atom_site_fract_y
  _atom_site_fract_z
C1 C 0.20890 1.23210 0.18624
 C2 C 0.23203 1.20879 0.18702
 C3 C 0.23155 1.18619 0.21032
 C4 C 0.20802 1.18669 0.23322
 C5 C 0.18522 1.20969 0.23244
 C6 C 0.18572 1.23261 0.20886
 C7 C 0.20238 1.25570 0.16520
 N8 N 0.17583 1.27056 0.17455
 C9 C 0.16557 1.25664 0.20133
 C10 C 0.16427 1.20315 0.25606
 N11 N 0.17386 1.17676 0.27118
 C12 C 0.20070 1.16663 0.25742
 C13 C 0.25536 1.16540 0.20404
 N14 N 0.27029 1.17491 0.17760
 C15 C 0.25624 1.20146 0.16706
 H16 H 0.21561 1.26115 0.14424
 H17 H 0.14448 1.26289 0.21393
 H18 H 0.14320 1.21622 0.26131
 H19 H 0.21347 1.14565 0.26387
 H20 H 0.26091 1.14445 0.21727
 H21 H 0.26254 1.21394 0.14587
 C22 C 0.79534 0.76627 0.18416
 C23 C 0.77053 0.78774 0.18555
 C24 C 0.76975 0.81019 0.20898
 C25 C 0.79387 0.81158 0.23126
 C26 C 0.81848 0.79058 0.22971
 C27 C 0.81921 0.76775 0.20603
 C28 C 0.80286 0.74290 0.16320
 N29 N 0.83077 0.73024 0.17177
 C30 C 0.84094 0.74535 0.19795
 C31 C 0.83939 0.79865 0.25291
 N32 N 0.82805 0.82404 0.26849
 C33 C 0.80015 0.83205 0.25544
 C34 C 0.74430 0.82914 0.20325
 N35 N 0.72983 0.81883 0.17683
 C36 C 0.74564 0.79347 0.16589
 H37 H 0.78929 0.73608 0.14285
 H38 H 0.86277 0.74074 0.21000
 H39 H 0.86155 0.78727 0.25760
 H40 H 0.78584 0.85181 0.26243
 H41 H 0.73760 0.84970 0.21656
 H42 H 0.74012 0.78083 0.14457
 C43 C 0.79184 1.23010 -0.18220
 C44 C 0.76913 1.20638 -0.18146
 C45 C 0.76801 1.18420 -0.20513
 C46 C 0.78970 1.18533 -0.22976
 C47 C 0.81200 1.20884 -0.23058
 C48 C 0.81305 1.23141 -0.20666
 C49 C 0.79963 1.25352 -0.16139
 N50 N 0.82507 1.26900 -0.17263
 C51 C 0.83335 1.25568 -0.20039
 C52 C 0.83114 1.20294 -0.25586
 N53 N 0.82117 1.17625 -0.27019
 C54 C 0.79572 1.16543 -0.25445
 C55 C 0.74466 1.16329 -0.19761
 N56 N 0.73169 1.17224 -0.16995
 C57 C 0.74654 1.19852 -0.15986
 H58 H 0.78807 1.25840 -0.13933
 H59 H 0.85323 1.26251 -0.21456
 H60 H 0.85154 1.21642 -0.26255
 H61 H 0.78310 1.14408 -0.25988
 H62 H 0.73802 1.14271 -0.21093
 H63 H 0.74158 1.21076 -0.13816
 C64 C 0.20787 0.76944 -0.18927
 C65 C 0.23043 0.79331 -0.18842
 C66 C 0.22900 0.81777 -0.20970
 C67 C 0.20513 0.81858 -0.23227
 C68 C 0.18298 0.79495 -0.23322
 C69 C 0.18426 0.77031 -0.21146
 C70 C 0.20209 0.74418 -0.17001
 N71 N 0.17538 0.72991 -0.17980
 C72 C 0.16442 0.74567 -0.20526
 C73 C 0.16194 0.80250 -0.25648
 N74 N 0.17073 0.83021 -0.26956
 C75 C 0.19713 0.84022 -0.25484
 C76 C 0.25247 0.83851 -0.20210
 N77 N 0.26808 0.82721 -0.17677
 C78 C 0.25482 0.79955 -0.16825
 H79 H 0.21569 0.73747 -0.14964
 H80 H 0.14302 0.74028 -0.21776
 H81 H 0.14139 0.78910 -0.26292
 H82 H 0.20940 0.86187 -0.25985
 H83 H 0.25733 0.86059 -0.21365
 H84 H 0.26180 0.78549 -0.14830
 C85 C 0.54642 1.04117 -0.00549
 H86 H 0.54529 1.04277 0.01982
 C87 C 0.56801 1.05928 -0.02203
 H88 H 0.58337 1.07487 -0.00919
 C89 C 0.52819 1.01813 -0.05266
 H90 H 0.51308 1.00159 -0.06445
 C91 C 0.54966 1.03560 -0.07013
 H92 H 0.55045 1.03259 -0.09533
 N93 N 0.52684 1.02135 -0.02095
 C94 C 0.45390 1.00717 0.04908
 H95 H 0.45441 0.98186 0.05080
 C96 C 0.43298 1.02436 0.06739
 H97 H 0.41750 1.01201 0.08323
 C98 C 0.47297 1.05373 0.02554
 H99 H 0.48811 1.06503 0.00872
 C100 C 0.45215 1.07184 0.04316
 H101 H 0.45191 1.09703 0.04000
 Zn102 Zn 0.49967 0.99651 0.00375
 N103 N 0.47357 1.02201 0.02892
 C104 C 0.52644 0.97374 0.06062
 N105 N 0.52537 0.97055 0.02888
 C106 C 0.54432 0.94994 0.01371
 C107 C 0.56497 0.93100 0.03055
 C108 C 0.54699 0.95545 0.07838
 C109 C 0.45407 0.98791 -0.04220
 C110 C 0.43279 0.97167 -0.06099
 C111 C 0.44996 0.92329 -0.03704
 C112 C 0.47113 0.94045 -0.01888
 N113 N 0.47292 0.97216 -0.02191
 H114 H 0.51189 0.99091 0.07218
 H115 H 0.54346 0.94838 -0.01161
 H116 H 0.57988 0.91483 0.01792
 H117 H 0.54764 0.95849 0.10359
 H118 H 0.45553 1.01320 -0.04366
 H119 H 0.41801 0.98475 -0.07694
 H120 H 0.44880 0.89808 -0.03417
 H121 H 0.48563 0.92844 -0.00196
 C122 C 0.43178 1.05715 0.06443
 C123 C 0.56994 1.05653 -0.05480
 C124 C 0.43043 0.93891 -0.05846
 C125 C 0.56663 0.93374 0.06334
 C126 C -0.00550 0.54614 1.04151
 H127 H 0.01968 0.54478 1.04352
 C128 C -0.02213 0.56768 1.05965
 H129 H -0.00947 0.58277 1.07567
 C130 C -0.05229 0.52856 1.01744
 H131 H -0.06388 0.51373 1.00049
 C132 C -0.06982 0.55001 1.03490
 H133 H -0.09489 0.55106 1.03148
 N134 N -0.02074 0.52688 1.02119
 C135 C 0.04969 0.45419 1.00743
 H136 H 0.05190 0.45504 0.98216
 C137 C 0.06786 0.43322 1.02474
 H138 H 0.08411 0.41804 1.01254
 C139 C 0.02500 0.47241 1.05372
 H140 H 0.00779 0.48723 1.06485
 C141 C 0.04244 0.45150 1.07192
 H142 H 0.03875 0.45086 1.09704
 Zn143 Zn 0.00407 0.49969 0.99646
 N144 N 0.02903 0.47349 1.02209
 C145 C 0.06079 0.52705 0.97441
 N146 N 0.02922 0.52555 0.97070
 C147 C 0.01419 0.54420 0.94969
 C148 C 0.03102 0.56494 0.93083
 C149 C 0.07853 0.54773 0.95626
 C150 C -0.04198 0.45429 0.98748
 C151 C -0.06068 0.43302 0.97112
 C152 C -0.03585 0.44956 0.92299
 C153 C -0.01782 0.47075 0.94027
 N154 N -0.02134 0.47286 0.97191
 H155 H 0.07222 0.51275 0.99191
 H156 H -0.01102 0.54303 0.94773
 H157 H 0.01850 0.57960 0.91433
 H158 H 0.10360 0.54873 0.95970
 H159 H -0.04381 0.45597 1.01274
 H160 H -0.07694 0.41847 0.98405
 H161 H -0.03261 0.44814 0.89784
 H162 H -0.00062 0.48501 0.92842
 C163 C 0.06422 0.43154 1.05743
 C164 C -0.05473 0.56992 1.05638
 C165 C -0.05766 0.43035 0.93842
 C166 C 0.06363 0.56704 0.93411
 C167 C 1.04097 -0.00581 0.54600
 H168 H 1.04300 0.01945 0.54462
 C169 C 1.05903 -0.02248 0.56758
 H170 H 1.07499 -0.00980 0.58269
 C171 C 1.01695 -0.05272 0.52843
 H172 H 1.00006 -0.06433 0.51358
 C173 C 1.03431 -0.07030 0.54993
 H174 H 1.03088 -0.09544 0.55101
 N175 N 1.02072 -0.02108 0.52672
 C176 C 1.00712 0.04953 0.45399
 H177 H 0.98192 0.05170 0.45474
 C178 C 1.02440 0.06782 0.43311
 H179 H 1.01225 0.08410 0.41790
 C180 C 1.05328 0.02486 0.47237
 H181 H 1.06437 0.00761 0.48722
 C182 C 1.07145 0.04242 0.45156
 H183 H 1.09651 0.03878 0.45102
 Zn184 Zn 0.99612 0.00380 0.49947
 N185 N 1.02173 0.02883 0.47333
 C186 C 0.97420 0.06073 0.52678
 N187 N 0.97041 0.02908 0.52526
 C188 C 0.94938 0.01407 0.54386
 C189 C 0.93062 0.03102 0.56458
 C190 C 0.95614 0.07858 0.54744
 C191 C 0.98731 -0.04235 0.45402
 C192 C 0.97107 -0.06109 0.43268
 C193 C 0.92301 -0.03624 0.44912
 C194 C 0.94017 -0.01816 0.47038
 N195 N 0.97172 -0.02167 0.47257
 H196 H 0.99171 0.07213 0.51252
 H197 H 0.94735 -0.01119 0.54268
 H198 H 0.91411 0.01854 0.57923
 H199 H 0.95967 0.10371 0.54847
 H200 H 1.01249 -0.04417 0.45578
 H201 H 0.98401 -0.07737 0.41815
 H202 H 0.89794 -0.03300 0.44764
 H203 H 0.92830 -0.00093 0.48463
 C204 C 1.05702 0.06426 0.43158
 C205 C 1.05572 -0.05518 0.56985
 C206 C 0.93847 -0.05808 0.42992
 C207 C 0.93400 0.06372 0.56672
 C208 C 0.13134 0.34071 1.12729
 N209 N 0.15779 0.32760 1.11556
 N210 N 0.17254 0.30493 1.13118
 C211 C 0.16130 0.29435 1.15906
 N212 N 0.13488 0.30762 1.17081
 N213 N 0.12022 0.33040 1.15526
 C214 C 0.11456 0.36500 1.10959
 N215 N 0.08971 0.38008 1.12240
 N216 N 0.07397 0.40149 1.10599
 C217 C 0.08236 0.40854 1.07607
 N218 N 0.10731 0.39345 1.06334
 N219 N 0.12315 0.37216 1.07980
 C220 C -0.12239 0.66136 1.12494
 N221 N -0.15110 0.67082 1.11517
 N222 N -0.16646 0.69325 1.13053
 C223 C -0.15374 0.70703 1.15632
 N224 N -0.12507 0.69737 1.16615
 N225 N -0.10967 0.67503 1.15071
 C226 C -0.10513 0.63716 1.10759
 N227 N -0.07507 0.63030 1.11518
 N228 N -0.05916 0.60885 1.09903
 C229 C -0.07269 0.59331 1.07472
 N230 N -0.10285 0.60009 1.06729
 N231 N -0.11874 0.62164 1.08335
 C232 C -0.12800 0.33916 0.87221
 N233 N -0.15337 0.32557 0.88564
 N234 N -0.16892 0.30289 0.87083
 C235 C -0.15960 0.29280 0.84207
 N236 N -0.13426 0.30656 0.82861
 N237 N -0.11879 0.32933 0.84337
 C238 C -0.11033 0.36348 0.88900
 N239 N -0.08617 0.37857 0.87491
 N240 N -0.06966 0.40005 0.89048
 C241 C -0.07657 0.40717 0.92077
 N242 N -0.10083 0.39207 0.93475
 N243 N -0.11741 0.37070 0.91917
 C244 C 0.13105 0.65796 0.86477
 N245 N 0.11822 0.67144 0.83896
 N246 N 0.13295 0.69461 0.82409
 C247 C 0.16101 0.70533 0.83457
 N248 N 0.17392 0.69162 0.86030
 N249 N 0.15925 0.66836 0.87508
 C250 C 0.11411 0.63343 0.88195
 N251 N 0.12761 0.61851 0.90661
 N252 N 0.11175 0.59710 0.92289
 C253 C 0.08173 0.58989 0.91526
 N254 N 0.06835 0.60477 0.89047
 N255 N 0.08424 0.62607 0.87410
 C256 C 1.12679 0.13202 0.34123
 N257 N 1.15485 0.12109 0.33116
 N258 N 1.17035 0.13584 0.30843
 C259 C 1.15845 0.16218 0.29498
 N260 N 1.13048 0.17323 0.30533
 N261 N 1.11491 0.15838 0.32795
 C262 C 1.10911 0.11508 0.36542
 N263 N 1.07930 0.12350 0.37237
 N264 N 1.06287 0.10751 0.39354
 C265 C 1.07563 0.08256 0.40871
 N266 N 1.10557 0.07435 0.40188
 N267 N 1.12197 0.09024 0.38059
 C268 C 1.12399 -0.12296 0.66145
 N269 N 1.11399 -0.15152 0.67131
 N270 N 1.12931 -0.16687 0.69379
 C271 C 1.15531 -0.15431 0.70720
 N272 N 1.16538 -0.12580 0.69713
 N273 N 1.14997 -0.11039 0.67476
 C274 C 1.10670 -0.10568 0.63721
 N275 N 1.11450 -0.07566 0.63009
 N276 N 1.09841 -0.05971 0.60861
 C277 C 1.07398 -0.07318 0.59328
 N278 N 1.06635 -0.10331 0.60033
 N279 N 1.08234 -0.11923 0.62192
 C280 C 0.87273 -0.12865 0.33853
 N281 N 0.84384 -0.11964 0.32887
 N282 N 0.82914 -0.13522 0.30613
 C283 C 0.84273 -0.16047 0.29222
 N284 N 0.87156 -0.16958 0.30211
 N285 N 0.88629 -0.15393 0.32477
 C286 C 0.88941 -0.11089 0.36287
 N287 N 0.91955 -0.11786 0.37001
 N288 N 0.93502 -0.10122 0.39144
 C289 C 0.92095 -0.07704 0.40666
 N290 N 0.89070 -0.07025 0.39961
 N291 N 0.87525 -0.08680 0.37808
 C292 C 0.86526 0.13161 0.65775
 N293 N 0.83945 0.11889 0.67122
 N294 N 0.82475 0.13372 0.69442
 C295 C 0.83538 0.16178 0.70520
 N296 N 0.86110 0.17458 0.69150
 N297 N 0.87572 0.15980 0.66820
 C298 C 0.88227 0.11455 0.63318
 N299 N 0.90691 0.12797 0.61827
 N300 N 0.92305 0.11200 0.59683
 C301 C 0.91529 0.08194 0.58959
 N302 N 0.89052 0.06864 0.60446
 N303 N 0.87430 0.08464 0.62579
 C304 C 0.34140 1.12680 0.13218
 N305 N 0.32685 1.11406 0.15744
 N306 N 0.30429 1.12968 0.17226
 C307 C 0.29534 1.15858 0.16230
 N308 N 0.30998 1.17135 0.13708
 N309 N 0.33263 1.15577 0.12233
 C310 C 0.36556 1.10912 0.11525
 N311 N 0.38169 1.12254 0.09135
 N312 N 0.40298 1.10617 0.07546
 C313 C 0.40888 1.07570 0.08275
 N314 N 0.39276 1.06238 0.10676
 N315 N 0.37157 1.07877 0.12274
 C316 C 0.66158 1.12482 -0.12227
 N317 N 0.67640 1.14956 -0.10881
 N318 N 0.69875 1.16493 -0.12421
 C319 C 0.70721 1.15604 -0.15360
 N320 N 0.69235 1.13130 -0.16707
 N321 N 0.66991 1.11601 -0.15170
 C322 C 0.63735 1.10755 -0.10503
 N323 N 0.62096 1.08420 -0.11914
 N324 N 0.59936 1.06820 -0.10329
 C325 C 0.59340 1.07482 -0.07269
 N326 N 0.60981 1.09825 -0.05866
 N327 N 0.63132 1.11433 -0.07453
 C328 C 0.33927 0.87297 -0.12898
 N329 N 0.32444 0.88710 -0.15334
 N330 N 0.30183 0.87227 -0.16890
 C331 C 0.29312 0.84277 -0.16063
 N332 N 0.30804 0.82860 -0.13632
 N333 N 0.33072 0.84341 -0.12081
 C334 C 0.36355 0.88973 -0.11127
 N335 N 0.37957 0.87519 -0.08795
 N336 N 0.40103 0.89069 -0.07140
 C337 C 0.40723 0.92137 -0.07744
 N338 N 0.39121 0.93581 -0.10088
 N339 N 0.36983 0.92030 -0.11750
 C340 C 0.65702 0.86409 0.13113
 N341 N 0.67161 0.83925 0.11764
 N342 N 0.69462 0.82438 0.13255
 C343 C 0.70399 0.83386 0.16148
 N344 N 0.68925 0.85861 0.17506
 N345 N 0.66615 0.87341 0.16018
 C346 C 0.63264 0.88133 0.11405
 N347 N 0.61689 0.90521 0.12796
 N348 N 0.59561 0.92156 0.11201
 C349 C 0.58937 0.91479 0.08149
 N350 N 0.60508 0.89077 0.06769
 N351 N 0.62626 0.87433 0.08366
   
