data_POSCAR
  _audit_creation_date              2014-09-24
  _audit_creation_method            'ToBaCCo'
  _symmetry_space_group_name_H-M    'P1'
  _symmetry_Int_Tables_number       1
  _symmetry_cell_setting            triclinic
  loop_
  _symmetry_equiv_pos_as_xyz
 x,y,z
_cell_length_a 26.5292
_cell_length_b 26.5286
_cell_length_c 26.2208
_cell_angle_alpha 90.111700
_cell_angle_beta 90.108100
_cell_angle_gamma 120.220800
loop_
  _atom_site_label
  _atom_site_type_symbol
  _atom_site_fract_x
  _atom_site_fract_y
  _atom_site_fract_z
C1 C 0.52932 0.08844 0.06956
 H2 H 0.57058 0.08941 0.06894
 C3 C 0.52310 0.12865 0.09922
 H4 H 0.55960 0.16063 0.12170
 C5 C 0.43182 0.04664 0.03984
 H6 H 0.39679 0.01537 0.01587
 C7 C 0.42375 0.08625 0.06899
 H8 H 0.38236 0.08508 0.06775
 N9 N 0.48398 0.04835 0.04085
 C10 C 0.52524 -0.08948 0.01603
 H11 H 0.52563 -0.09064 -0.02521
 C12 C 0.53315 -0.12967 0.04415
 H13 H 0.53989 -0.16179 0.02457
 C14 C 0.51348 -0.04788 0.09205
 H15 H 0.50430 -0.01701 0.11057
 C16 C 0.52118 -0.08727 0.12158
 H17 H 0.51844 -0.08622 0.16276
 Zn18 Zn 0.49921 -0.00088 -0.00056
 N19 N 0.51566 -0.04965 0.04024
 C20 C 0.61447 0.04741 -0.04083
 N21 N 0.56374 0.04858 -0.04187
 C22 C 0.55825 0.08826 -0.07051
 C23 C 0.60474 0.12862 -0.10004
 C24 C 0.66218 0.08718 -0.06987
 C25 C 0.38431 -0.09030 -0.01733
 C26 C 0.33602 -0.13096 -0.04548
 C27 C 0.39035 -0.08858 -0.12290
 C28 C 0.43758 -0.04875 -0.09326
 N29 N 0.43374 -0.05030 -0.04146
 H30 H 0.61839 0.01645 -0.01692
 H31 H 0.51775 0.08881 -0.06990
 H32 H 0.60004 0.16029 -0.12246
 H33 H 0.70262 0.08644 -0.06860
 H34 H 0.38288 -0.09123 0.02391
 H35 H 0.29721 -0.16313 -0.02573
 H36 H 0.39431 -0.08746 -0.16410
 H37 H 0.47768 -0.01769 -0.11171
 C38 C 0.53074 -0.12873 0.09739
 C39 C 0.46993 0.12769 0.09882
 C40 C 0.33919 -0.13034 -0.09880
 C41 C 0.65721 0.12822 -0.09960
 C42 C -0.08857 0.47057 0.59703
 H43 H -0.08954 0.42931 0.59766
 C44 C -0.12879 0.47678 0.56738
 H45 H -0.16077 0.44027 0.54490
 C46 C -0.04679 0.56808 0.62674
 H47 H -0.01551 0.60311 0.65071
 C48 C -0.08640 0.57613 0.59759
 H49 H -0.08523 0.61752 0.59882
 N50 N -0.04849 0.51592 0.62574
 C51 C 0.08936 0.47470 0.65056
 H52 H 0.09052 0.47431 0.69179
 C53 C 0.12955 0.46678 0.62244
 H54 H 0.16167 0.46005 0.64201
 C55 C 0.04775 0.48644 0.57454
 H56 H 0.01688 0.49561 0.55602
 C57 C 0.08715 0.47873 0.54500
 H58 H 0.08609 0.48146 0.50383
 Zn59 Zn 0.00076 0.50071 0.66715
 N60 N 0.04953 0.48427 0.62635
 C61 C -0.04752 0.38546 0.70743
 N62 N -0.04869 0.43619 0.70847
 C63 C -0.08837 0.44167 0.73711
 C64 C -0.12872 0.39519 0.76666
 C65 C -0.08728 0.33774 0.73647
 C66 C 0.09017 0.61564 0.68391
 C67 C 0.13080 0.66391 0.71209
 C68 C 0.08847 0.60963 0.78946
 C69 C 0.04863 0.56237 0.75985
 N70 N 0.05016 0.56619 0.70805
 H71 H -0.01656 0.38153 0.68350
 H72 H -0.08892 0.48217 0.73651
 H73 H -0.16038 0.39989 0.78908
 H74 H -0.08654 0.29730 0.73520
 H75 H 0.09112 0.61708 0.64267
 H76 H 0.16306 0.70280 0.69258
 H77 H 0.08760 0.60594 0.83063
 H78 H 0.01759 0.52227 0.77832
 C79 C 0.12861 0.46918 0.56919
 C80 C -0.12783 0.52994 0.56777
 C81 C 0.13013 0.66070 0.76534
 C82 C -0.12831 0.34271 0.76621
 C83 C 0.55894 0.47020 0.40337
 H84 H 0.51839 0.42892 0.40258
 C85 C 0.60545 0.47653 0.43307
 H86 H 0.60073 0.44010 0.45542
 C87 C 0.61523 0.56763 0.37402
 H88 H 0.61916 0.60258 0.35016
 C89 C 0.66299 0.57580 0.40322
 H90 H 0.70347 0.61720 0.40214
 N91 N 0.56445 0.51545 0.37482
 C92 C 0.38500 0.47391 0.34972
 H93 H 0.38340 0.47333 0.30848
 C94 C 0.33689 0.46611 0.37778
 H95 H 0.29795 0.45926 0.35816
 C96 C 0.43856 0.48605 0.42581
 H97 H 0.47871 0.49535 0.44438
 C98 C 0.39145 0.47846 0.45529
 H99 H 0.39532 0.48140 0.49647
 Zn100 Zn 0.49984 0.50002 0.33330
 N101 N 0.43452 0.48364 0.37399
 C102 C 0.43223 0.38463 0.29257
 N103 N 0.48441 0.43541 0.29178
 C104 C 0.52966 0.44091 0.26322
 C105 C 0.52332 0.39439 0.23353
 C106 C 0.42405 0.33687 0.26337
 C107 C 0.52596 0.61486 0.31687
 C108 C 0.53378 0.66298 0.28881
 C109 C 0.52142 0.60841 0.21130
 C110 C 0.51382 0.56130 0.24078
 N111 N 0.51623 0.56534 0.29260
 H112 H 0.39728 0.38070 0.31643
 H113 H 0.57094 0.48146 0.26401
 H114 H 0.55975 0.39911 0.21117
 H115 H 0.38265 0.29639 0.26445
 H116 H 0.52654 0.61647 0.35811
 H117 H 0.54063 0.70192 0.30843
 H118 H 0.51848 0.60454 0.17012
 H119 H 0.50452 0.52115 0.22221
 C120 C 0.34032 0.46877 0.43103
 C121 C 0.65799 0.52971 0.43288
 C122 C 0.53111 0.65955 0.23556
 C123 C 0.47014 0.34186 0.23372
 C124 C 0.17208 0.46518 0.53956
 C125 C 0.20935 0.46348 0.51467
 C126 C 0.25396 0.46339 0.48549
 C127 C 0.29288 0.46493 0.46062
 C128 C 0.53474 0.82779 0.12703
 C129 C 0.53643 0.79052 0.15192
 C130 C 0.53651 0.74591 0.18109
 C131 C 0.53496 0.70699 0.20597
 C132 C 0.29590 0.82977 0.87421
 C133 C 0.25666 0.79227 0.84925
 C134 C 0.21166 0.74743 0.82000
 C135 C 0.17404 0.70833 0.79504
 C136 C 0.82925 0.53578 0.53883
 C137 C 0.79189 0.53819 0.51456
 C138 C 0.74665 0.53815 0.48613
 C139 C 0.70683 0.53566 0.46185
 C140 C 0.46409 0.17060 0.12776
 C141 C 0.46167 0.20795 0.15203
 C142 C 0.46170 0.25319 0.18046
 C143 C 0.46420 0.29302 0.20474
 C144 C -0.29397 0.17129 0.87159
 C145 C -0.25413 0.20874 0.84744
 C146 C -0.20882 0.25405 0.81917
 C147 C -0.17138 0.29389 0.79503
   
