data_POSCAR
  _audit_creation_date              2014-09-24
  _audit_creation_method            'ToBaCCo'
  _symmetry_space_group_name_H-M    'P1'
  _symmetry_Int_Tables_number       1
  _symmetry_cell_setting            triclinic
  loop_
  _symmetry_equiv_pos_as_xyz
 x,y,z
_cell_length_a 42.4293
_cell_length_b 42.2858
_cell_length_c 42.3337
_cell_angle_alpha 90.172800
_cell_angle_beta 89.685000
_cell_angle_gamma 89.842300
loop_
  _atom_site_label
  _atom_site_type_symbol
  _atom_site_fract_x
  _atom_site_fract_y
  _atom_site_fract_z
C1 C 0.70394 0.66480 0.99442
 H2 H 0.72151 0.68108 1.00310
 C3 C 0.67737 0.67622 0.97835
 H4 H 0.67466 0.70141 0.97471
 C5 C 0.68609 0.61208 0.98821
 H6 H 0.68981 0.58706 0.99195
 C7 C 0.65953 0.62231 0.97222
 H8 H 0.64291 0.60478 0.96401
 N9 N 0.70783 0.63312 0.99855
 C10 C 0.77859 0.63527 1.06776
 H11 H 0.76614 0.61770 1.08131
 C12 C 0.80388 0.65071 1.08161
 H13 H 0.80977 0.64520 1.10584
 C14 C 0.78775 0.66161 1.01928
 H15 H 0.78194 0.66478 0.99464
 C16 C 0.81352 0.67762 1.03227
 H17 H 0.82731 0.69326 1.01748
 Zn18 Zn 0.74222 0.61258 1.01770
 N19 N 0.77129 0.64042 1.03696
 C20 C 0.78885 0.57014 0.99381
 N21 N 0.76450 0.58958 0.98602
 C22 C 0.75729 0.59526 0.95527
 C23 C 0.77460 0.58108 0.93099
 C24 C 0.80668 0.55516 0.97014
 C25 C 0.70709 0.60133 1.07153
 C26 C 0.69329 0.58465 1.09630
 C27 C 0.71335 0.53622 1.07317
 C28 C 0.72732 0.55406 1.04910
 N29 N 0.72431 0.58606 1.04901
 H30 H 0.79468 0.56662 1.01840
 H31 H 0.73859 0.61153 0.94936
 H32 H 0.76842 0.58622 0.90675
 H33 H 0.82605 0.53988 0.97678
 H34 H 0.70461 0.62678 1.07050
 H35 H 0.68024 0.59787 1.11402
 H36 H 0.71631 0.51077 1.07263
 H37 H 0.74043 0.54231 1.03050
 C38 C 0.82241 0.67139 1.06359
 C39 C 0.65494 0.65471 0.96673
 C40 C 0.69626 0.55147 1.09765
 C41 C 0.79976 0.56080 0.93820
 C42 C 0.71180 0.33562 0.51934
 H43 H 0.71738 0.33247 0.49456
 C44 C 0.68542 0.32051 0.53248
 H45 H 0.67099 0.30556 0.51767
 C46 C 0.72200 0.36125 0.56804
 H47 H 0.73512 0.37822 0.58167
 C48 C 0.69613 0.34671 0.58201
 H49 H 0.69046 0.35228 0.60637
 N50 N 0.72896 0.35619 0.53703
 C51 C 0.81433 0.38568 0.48827
 H52 H 0.80972 0.41060 0.49199
 C53 C 0.84163 0.37628 0.47275
 H54 H 0.85785 0.39436 0.46484
 C55 C 0.79809 0.33244 0.49426
 H56 H 0.78085 0.31564 0.50273
 C57 C 0.82549 0.32183 0.47863
 H58 H 0.82920 0.29673 0.47507
 Zn59 Zn 0.75809 0.38408 0.51759
 N60 N 0.79306 0.36400 0.49837
 C61 C 0.79391 0.39552 0.57040
 N62 N 0.77565 0.41080 0.54897
 C63 C 0.77171 0.44272 0.55015
 C64 C 0.78587 0.46038 0.57425
 C65 C 0.80809 0.41208 0.59497
 C66 C 0.74362 0.40080 0.45513
 C67 C 0.72652 0.41454 0.43073
 C68 C 0.69358 0.44046 0.46967
 C69 C 0.71126 0.42594 0.49347
 N70 N 0.73594 0.40671 0.48584
 H71 H 0.79707 0.37018 0.56856
 H72 H 0.75772 0.45452 0.53246
 H73 H 0.78237 0.48574 0.57502
 H74 H 0.82224 0.39924 0.61187
 H75 H 0.76255 0.38465 0.44933
 H76 H 0.73311 0.40922 0.40654
 H77 H 0.67395 0.45558 0.47619
 H78 H 0.70501 0.42962 0.51802
 C79 C 0.84754 0.34404 0.46742
 C80 C 0.67672 0.32699 0.56394
 C81 C 0.70102 0.43460 0.43775
 C82 C 0.80411 0.44494 0.59723
 C83 C 0.21017 -0.13606 0.03935
 H84 H 0.22443 -0.11859 0.05105
 C85 C 0.18374 -0.14742 0.05504
 H86 H 0.17893 -0.13912 0.07882
 C87 C 0.19753 -0.16571 -0.00640
 H88 H 0.20245 -0.17167 -0.03080
 C89 C 0.17052 -0.17776 0.00860
 H90 H 0.15491 -0.19325 -0.00435
 N91 N 0.21634 -0.14470 0.00895
 C92 C 0.30012 -0.12275 -0.04641
 H93 H 0.29520 -0.09763 -0.04561
 C94 C 0.32722 -0.13353 -0.06129
 H95 H 0.34288 -0.11631 -0.07184
 C96 C 0.28543 -0.17498 -0.03259
 H97 H 0.26908 -0.19077 -0.02096
 C98 C 0.31291 -0.18696 -0.04711
 H99 H 0.31753 -0.21214 -0.04677
 Zn100 Zn 0.24704 -0.12034 -0.01279
 N101 N 0.27980 -0.14327 -0.03259
 C102 C 0.28505 -0.11199 0.03844
 N103 N 0.26829 -0.09483 0.01719
 C104 C 0.26797 -0.06267 0.01820
 C105 C 0.28402 -0.04668 0.04225
 C106 C 0.30099 -0.09710 0.06293
 C107 C 0.22998 -0.10582 -0.07498
 C108 C 0.21466 -0.08998 -0.09933
 C109 C 0.19014 -0.05594 -0.06034
 C110 C 0.20579 -0.07277 -0.03667
 N111 N 0.22587 -0.09669 -0.04439
 H112 H 0.28532 -0.13752 0.03672
 H113 H 0.25528 -0.04941 0.00058
 H114 H 0.28323 -0.02110 0.04306
 H115 H 0.31367 -0.11141 0.07983
 H116 H 0.24491 -0.12578 -0.08066
 H117 H 0.21882 -0.09796 -0.12334
 H118 H 0.17466 -0.03672 -0.05334
 H119 H 0.20195 -0.06668 -0.01211
 C120 C 0.33422 -0.16595 -0.06165
 C121 C 0.16288 -0.16765 0.03939
 C122 C 0.19455 -0.06428 -0.09244
 C123 C 0.30040 -0.06404 0.06528
 C124 C 0.21066 0.16565 0.48273
 H125 H 0.21594 0.16980 0.50737
 C126 C 0.18496 0.18098 0.46871
 H127 H 0.17070 0.19709 0.48270
 C128 C 0.22113 0.13761 0.43528
 H129 H 0.23414 0.11970 0.42252
 C130 C 0.19592 0.15232 0.42045
 H131 H 0.19062 0.14590 0.39628
 N132 N 0.22773 0.14393 0.46606
 C133 C 0.31189 0.11690 0.51738
 H134 H 0.30785 0.09182 0.51439
 C135 C 0.33815 0.12717 0.53372
 H136 H 0.35429 0.10964 0.54291
 C137 C 0.29514 0.16971 0.50882
 H138 H 0.27808 0.18599 0.49911
 C139 C 0.32159 0.18120 0.52505
 H140 H 0.32477 0.20644 0.52782
 Zn141 Zn 0.25681 0.11687 0.48655
 N142 N 0.29078 0.13796 0.50577
 C143 C 0.29376 0.10484 0.43430
 N144 N 0.27568 0.08969 0.45608
 C145 C 0.27259 0.05768 0.45567
 C146 C 0.28733 0.03977 0.43188
 C147 C 0.30852 0.08802 0.41005
 C148 C 0.24120 0.10149 0.54921
 C149 C 0.22457 0.08716 0.57373
 C150 C 0.19382 0.05901 0.53499
 C151 C 0.21099 0.07413 0.51108
 N152 N 0.23450 0.09460 0.51855
 H153 H 0.29624 0.13028 0.43554
 H154 H 0.25876 0.04600 0.47365
 H155 H 0.28439 0.01435 0.43163
 H156 H 0.32241 0.10077 0.39277
 H157 H 0.25908 0.11867 0.55487
 H158 H 0.23049 0.09312 0.59787
 H159 H 0.17527 0.04271 0.52858
 H160 H 0.20545 0.06968 0.48655
 C161 C 0.34323 0.15965 0.53810
 C162 C 0.17678 0.17353 0.43741
 C163 C 0.20054 0.06554 0.56686
 C164 C 0.30526 0.05506 0.40844
 C165 C 0.17233 0.49108 0.21429
 H166 H 0.18751 0.49980 0.23279
 C167 C 0.18522 0.47488 0.18814
 H168 H 0.21044 0.47116 0.18662
 C169 C 0.12086 0.48465 0.19374
 H170 H 0.09573 0.48829 0.19622
 C171 C 0.13252 0.46846 0.16771
 H172 H 0.11600 0.46014 0.15016
 N173 N 0.14054 0.49510 0.21664
 C174 C 0.13331 0.56378 0.28939
 H175 H 0.11658 0.57677 0.27537
 C176 C 0.14436 0.57748 0.31706
 H177 H 0.13657 0.60112 0.32326
 C178 C 0.16142 0.51650 0.29988
 H179 H 0.16676 0.49223 0.29366
 C180 C 0.17322 0.52947 0.32795
 H181 H 0.18796 0.51512 0.34304
 Zn182 Zn 0.11706 0.51362 0.24985
 N183 N 0.14125 0.53354 0.28165
 C184 C 0.07227 0.48825 0.29296
 N185 N 0.09349 0.48110 0.26981
 C186 C 0.10043 0.45051 0.26241
 C187 C 0.08563 0.42573 0.27820
 C188 C 0.05671 0.46410 0.30930
 C189 C 0.10699 0.56689 0.21383
 C190 C 0.09075 0.59088 0.19832
 C191 C 0.04179 0.56740 0.21566
 C192 C 0.05907 0.54391 0.23117
 N193 N 0.09111 0.54433 0.23024
 H194 H 0.06777 0.51273 0.29905
 H195 H 0.11812 0.44509 0.24478
 H196 H 0.09177 0.40164 0.27190
 H197 H 0.03999 0.47027 0.32773
 H198 H 0.13248 0.56633 0.21309
 H199 H 0.10401 0.60867 0.18563
 H200 H 0.01630 0.56683 0.21674
 H201 H 0.04689 0.52536 0.24374
 C202 C 0.16367 0.55996 0.33732
 C203 C 0.16500 0.46289 0.16473
 C204 C 0.05770 0.59143 0.19913
 C205 C 0.06351 0.43229 0.30209
 C206 C -0.16025 0.01462 0.20094
 H207 H -0.16529 -0.00976 0.20671
 C208 C -0.17398 0.02847 0.17429
 H209 H -0.18986 0.01450 0.16002
 C210 C -0.13160 0.06145 0.21131
 H211 H -0.11409 0.07398 0.22478
 C212 C -0.14453 0.07608 0.18502
 H213 H -0.13709 0.09994 0.17955
 N214 N -0.13906 0.03107 0.21847
 C215 C -0.11856 -0.02105 0.30425
 H216 H -0.09331 -0.01805 0.30231
 C217 C -0.13106 -0.03815 0.32922
 H218 H -0.11510 -0.04789 0.34656
 C219 C -0.16953 -0.01195 0.28343
 H220 H -0.18423 -0.00178 0.26530
 C221 C -0.18324 -0.02887 0.30848
 H222 H -0.20857 -0.03169 0.30949
 Zn223 Zn -0.11414 0.01055 0.24921
 N224 N -0.13763 -0.00892 0.28168
 C225 C -0.10469 0.06335 0.28635
 N226 N -0.08855 0.04103 0.26961
 C227 C -0.05652 0.04107 0.26834
 C228 C -0.03954 0.06495 0.28361
 C229 C -0.08877 0.08774 0.30160
 C230 C -0.09738 -0.05203 0.23408
 C231 C -0.08254 -0.07639 0.21745
 C232 C -0.05318 -0.03734 0.18810
 C233 C -0.06885 -0.01357 0.20524
 N234 N -0.09030 -0.02128 0.22794
 H235 H -0.13016 0.06246 0.28731
 H236 H -0.04410 0.02273 0.25548
 H237 H -0.01406 0.06484 0.28211
 H238 H -0.10223 0.10545 0.31440
 H239 H -0.11527 -0.05788 0.25130
 H240 H -0.08883 -0.10060 0.22278
 H241 H -0.03629 -0.03076 0.17005
 H242 H -0.06424 0.01104 0.20012
 C243 C -0.16374 -0.04267 0.33145
 C244 C -0.16523 0.05932 0.16531
 C245 C -0.06017 -0.06928 0.19402
 C246 C -0.05575 0.08892 0.30021
 C247 C 0.32530 0.51543 0.71677
 H248 H 0.31059 0.50525 0.73501
 C249 C 0.31161 0.53199 0.69154
 H250 H 0.28624 0.53455 0.69044
 C251 C 0.37635 0.52490 0.69582
 H252 H 0.40162 0.52214 0.69775
 C253 C 0.36389 0.54169 0.67078
 H254 H 0.37990 0.55142 0.65335
 N255 N 0.35723 0.51272 0.71849
 C256 C 0.36603 0.44247 0.78895
 H257 H 0.38336 0.43024 0.77472
 C258 C 0.35450 0.42773 0.81591
 H259 H 0.36259 0.40406 0.82136
 C260 C 0.33666 0.48883 0.80061
 H261 H 0.33087 0.51312 0.79508
 C262 C 0.32437 0.47480 0.82799
 H263 H 0.30886 0.48838 0.84328
 Zn264 Zn 0.38133 0.49364 0.75046
 N265 N 0.35756 0.47271 0.78207
 C266 C 0.39770 0.55652 0.76458
 N267 N 0.40500 0.52580 0.77073
 C268 C 0.42718 0.51818 0.79252
 C269 C 0.44363 0.54201 0.80840
 C270 C 0.41339 0.58099 0.77995
 C271 C 0.39121 0.44117 0.71293
 C272 C 0.40734 0.41725 0.69689
 C273 C 0.45643 0.44083 0.71335
 C274 C 0.43925 0.46424 0.72940
 N275 N 0.40720 0.46364 0.72929
 H276 H 0.37919 0.56228 0.74816
 H277 H 0.43196 0.49360 0.79769
 H278 H 0.46127 0.53546 0.82558
 H279 H 0.40708 0.60519 0.77455
 H280 H 0.36571 0.44160 0.71285
 H281 H 0.39400 0.39940 0.68443
 H282 H 0.48193 0.44140 0.71396
 H283 H 0.45153 0.48275 0.74190
 C284 C 0.33418 0.44419 0.83638
 C285 C 0.33119 0.54582 0.66849
 C286 C 0.44040 0.41670 0.69712
 C287 C 0.43676 0.57394 0.80217
 C288 C 0.67285 0.97507 0.70221
 H289 H 0.69012 0.98615 0.71730
 C290 C 0.68219 0.96074 0.67360
 H291 H 0.70684 0.96066 0.66689
 C292 C 0.61949 0.96244 0.69187
 H293 H 0.59498 0.96356 0.69898
 C294 C 0.62765 0.94793 0.66362
 H295 H 0.60905 0.93790 0.64937
 N296 N 0.64183 0.97560 0.71055
 C297 C 0.64183 1.04811 0.77982
 H298 H 0.62299 1.05964 0.76733
 C299 C 0.65615 1.06439 0.80434
 H300 H 0.64838 1.08836 0.80915
 C301 C 0.67246 1.00248 0.79011
 H302 H 0.67785 0.97796 0.78504
 C303 C 0.68751 1.01801 0.81524
 H304 H 0.70469 1.00516 0.82905
 Zn305 Zn 0.62229 0.99560 0.74542
 N306 N 0.64959 1.01753 0.77341
 C307 C 0.57888 0.97212 0.79149
 N308 N 0.60053 0.96418 0.76900
 C309 C 0.60861 0.93343 0.76377
 C310 C 0.59395 0.90919 0.78052
 C311 C 0.56334 0.94851 0.80867
 C312 C 0.61092 1.04657 0.70781
 C313 C 0.59501 1.07120 0.69311
 C314 C 0.54626 1.05143 0.71515
 C315 C 0.56331 1.02724 0.72992
 N316 N 0.59517 1.02570 0.72645
 H317 H 0.57357 0.99676 0.79602
 H318 H 0.62676 0.92753 0.74675
 H319 H 0.60063 0.88494 0.77558
 H320 H 0.54584 0.95527 0.82614
 H321 H 0.63620 1.04443 0.70506
 H322 H 0.60826 1.08778 0.67886
 H323 H 0.52096 1.05270 0.71839
 H324 H 0.55111 1.00993 0.74413
 C325 C 0.67851 1.04915 0.82339
 C326 C 0.65927 0.94708 0.65384
 C327 C 0.56230 1.07409 0.69688
 C328 C 0.57072 0.91650 0.80310
 C329 C 0.02755 0.21802 -0.17116
 H330 H 0.01651 0.23572 -0.18584
 C331 C 0.04292 0.19185 -0.18499
 H332 H 0.04380 0.18953 -0.21046
 C333 C 0.03958 0.19890 -0.12002
 H334 H 0.03797 0.20170 -0.09465
 C335 C 0.05531 0.17305 -0.13262
 H336 H 0.06552 0.15603 -0.11655
 N337 N 0.02646 0.22094 -0.13913
 C338 C -0.04391 0.29169 -0.12717
 H339 H -0.05536 0.27750 -0.10940
 C340 C -0.05929 0.31858 -0.13794
 H341 H -0.08264 0.32387 -0.12888
 C342 C 0.00108 0.30347 -0.15830
 H343 H 0.02508 0.29796 -0.16516
 C344 C -0.01361 0.33088 -0.16982
 H345 H -0.00084 0.34622 -0.18579
 Zn346 Zn 0.00716 0.25261 -0.11425
 N347 N -0.01409 0.28480 -0.13696
 C348 C 0.03158 0.29222 -0.06556
 N349 N 0.03907 0.27231 -0.08976
 C350 C 0.06962 0.26765 -0.09867
 C351 C 0.09405 0.28254 -0.08260
 C352 C 0.05539 0.30756 -0.04867
 C353 C -0.04495 0.21524 -0.10718
 C354 C -0.06932 0.19862 -0.09275
 C355 C -0.04703 0.21183 -0.04197
 C356 C -0.02319 0.22866 -0.05756
 N357 N -0.02295 0.23043 -0.08961
 H358 H 0.00710 0.29634 -0.05950
 H359 H 0.07521 0.25282 -0.11874
 H360 H 0.11810 0.27834 -0.09023
 H361 H 0.04894 0.32323 -0.02941
 H362 H -0.04384 0.21664 -0.13268
 H363 H -0.08662 0.18737 -0.10775
 H364 H -0.04675 0.21106 -0.01640
 H365 H -0.00501 0.24024 -0.04405
 C366 C -0.04388 0.33911 -0.15881
 C367 C 0.05728 0.16914 -0.16546
 C368 C -0.07098 0.19676 -0.05955
 C369 C 0.08717 0.30278 -0.05717
 C370 C 0.48936 0.20235 0.16445
 H371 H 0.50018 0.21848 0.18100
 C372 C 0.47339 0.17542 0.17543
 H373 H 0.47188 0.17097 0.20056
 C374 C 0.47814 0.18821 0.11146
 H375 H 0.48014 0.19338 0.08652
 C376 C 0.46197 0.16153 0.12124
 H377 H 0.45182 0.14627 0.10344
 N378 N 0.49107 0.20818 0.13288
 C379 C 0.56251 0.27703 0.13381
 H380 H 0.57471 0.26495 0.11488
 C381 C 0.57808 0.30095 0.14995
 H382 H 0.60224 0.30620 0.14349
 C383 C 0.51580 0.28649 0.16329
 H384 H 0.49121 0.28127 0.16760
 C385 C 0.53057 0.31091 0.18006
 H386 H 0.51716 0.32431 0.19736
 Zn387 Zn 0.51068 0.24249 0.11250
 N388 N 0.53179 0.27048 0.14029
 C389 C 0.48616 0.28870 0.06977
 N390 N 0.47887 0.26586 0.09114
 C391 C 0.44842 0.26038 0.09974
 C392 C 0.42387 0.27750 0.08621
 C393 C 0.46218 0.30628 0.05535
 C394 C 0.56204 0.20506 0.10028
 C395 C 0.58621 0.18997 0.08374
 C396 C 0.56538 0.21146 0.03531
 C397 C 0.54163 0.22658 0.05297
 N398 N 0.54078 0.22350 0.08496
 H399 H 0.51057 0.29337 0.06399
 H400 H 0.44299 0.24307 0.11764
 H401 H 0.39990 0.27249 0.09349
 H402 H 0.46841 0.32420 0.03823
 H403 H 0.56046 0.20258 0.12567
 H404 H 0.60305 0.17582 0.09668
 H405 H 0.56604 0.21438 0.00992
 H406 H 0.52404 0.24068 0.04114
 C407 C 0.56193 0.31893 0.17277
 C408 C 0.45919 0.15481 0.15357
 C409 C 0.58832 0.19320 0.05083
 C410 C 0.43049 0.30073 0.06358
 C411 C 0.98247 0.71392 0.66939
 H412 H 1.00729 0.71902 0.67201
 C413 C 0.96891 0.68866 0.68596
 H414 H 0.98346 0.67456 0.70146
 C415 C 0.93401 0.72416 0.64380
 H416 H 0.92059 0.73674 0.62632
 C417 C 0.91960 0.69947 0.65986
 H418 H 0.89516 0.69423 0.65487
 N419 N 0.96508 0.73055 0.64817
 C420 C 1.01459 0.81421 0.61513
 H421 H 1.01116 0.80883 0.59039
 C422 C 1.03022 0.84165 0.62373
 H423 H 1.03853 0.85722 0.60524
 C424 C 1.00780 0.79973 0.66879
 H425 H 0.99901 0.78312 0.68608
 C426 C 1.02350 0.82725 0.67857
 H427 H 1.02674 0.83168 0.70354
 Zn428 Zn 0.98491 0.75808 0.61895
 N429 N 1.00405 0.79375 0.63743
 C430 C 0.95356 0.76886 0.55963
 N431 N 0.95407 0.77461 0.59126
 C432 C 0.93218 0.79364 0.60527
 C433 C 0.90760 0.80645 0.58777
 C434 C 0.92954 0.78165 0.54105
 C435 C 1.04721 0.74211 0.60280
 C436 C 1.07153 0.72473 0.58885
 C437 C 1.03264 0.69152 0.56393
 C438 C 1.00894 0.70940 0.57875
 N439 N 1.01658 0.73450 0.59735
 H440 H 0.97166 0.75441 0.54877
 H441 H 0.93355 0.79831 0.63037
 H442 H 0.89021 0.82116 0.59958
 H443 H 0.92925 0.77666 0.51595
 H444 H 1.05300 0.76139 0.61849
 H445 H 1.09568 0.73140 0.59356
 H446 H 1.02614 0.67174 0.54904
 H447 H 0.98445 0.70320 0.57550
 C448 C 1.03516 0.84848 0.65577
 C449 C 0.93731 0.68053 0.68034
 C450 C 1.06445 0.69912 0.56900
 C451 C 0.90593 0.80037 0.55525
 C452 C 0.50736 0.69775 0.32947
 H453 H 0.49834 0.71371 0.31175
 C454 C 0.52262 0.66953 0.32042
 H455 H 0.52533 0.66395 0.29558
 C456 C 0.51495 0.68540 0.38348
 H457 H 0.51194 0.69181 0.40807
 C458 C 0.53014 0.65739 0.37563
 H459 H 0.53857 0.64248 0.39456
 N460 N 0.50415 0.70506 0.36066
 C461 C 0.43429 0.77648 0.35689
 H462 H 0.42154 0.76441 0.37530
 C463 C 0.41970 0.80169 0.34188
 H464 H 0.39573 0.80751 0.34870
 C465 C 0.48140 0.78498 0.32800
 H466 H 0.50587 0.77902 0.32367
 C467 C 0.46761 0.81067 0.31225
 H468 H 0.48171 0.82396 0.29556
 Zn469 Zn 0.48508 0.74111 0.37907
 N470 N 0.46484 0.76899 0.35043
 C471 C 0.50949 0.78937 0.41922
 N472 N 0.51694 0.76450 0.40010
 C473 C 0.54753 0.75711 0.39354
 C474 C 0.57200 0.77446 0.40685
 C475 C 0.53335 0.80725 0.43336
 C476 C 0.43257 0.70581 0.39275
 C477 C 0.40785 0.69276 0.41003
 C478 C 0.42911 0.71685 0.45713
 C479 C 0.45332 0.72990 0.43875
 N480 N 0.45425 0.72456 0.40705
 H481 H 0.48502 0.79543 0.42335
 H482 H 0.55315 0.73806 0.37742
 H483 H 0.59609 0.76795 0.40124
 H484 H 0.52697 0.82684 0.44865
 H485 H 0.43422 0.70154 0.36758
 H486 H 0.39069 0.67826 0.39795
 H487 H 0.42847 0.72149 0.48229
 H488 H 0.47122 0.74423 0.44980
 C489 C 0.43665 0.82018 0.32014
 C490 C 0.53438 0.64904 0.34380
 C491 C 0.40575 0.69833 0.44263
 C492 C 0.56514 0.79985 0.42715
 C493 C 0.36670 -0.01757 0.19609
 C494 C 0.38189 -0.00182 0.22096
 C495 C 0.39579 0.02785 0.21562
 C496 C 0.39461 0.04175 0.18553
 C497 C 0.37852 0.02597 0.16120
 C498 C 0.36448 -0.00355 0.16618
 C499 C 0.38140 -0.01574 0.25293
 C500 C 0.39236 -0.04670 0.25790
 C501 C 0.38886 -0.06097 0.28757
 C502 C 0.37413 -0.04411 0.31222
 C503 C 0.36373 -0.01291 0.30783
 C504 C 0.36773 0.00121 0.27808
 H505 H 0.35561 -0.04020 0.20046
 H506 H 0.40762 0.03985 0.23483
 H507 H 0.40301 -0.05982 0.23854
 H508 H 0.35908 0.02498 0.27401
 H509 H 0.37724 0.03647 0.13795
 H510 H 0.37145 -0.05515 0.33515
 C511 C 0.13637 1.01632 0.69836
 C512 C 0.12201 0.99977 0.72326
 C513 C 0.10585 0.97153 0.71701
 C514 C 0.10344 0.96001 0.68598
 C515 C 0.11811 0.97682 0.66133
 C516 C 0.13486 1.00479 0.66723
 C517 C 0.12385 1.01206 0.75590
 C518 C 0.11255 1.04255 0.76306
 C519 C 0.11382 1.05418 0.79411
 C520 C 0.12687 1.03503 0.81781
 C521 C 0.13842 1.00464 0.81107
 C522 C 0.13669 0.99322 0.77994
 H523 H 0.14902 1.03795 0.70344
 H524 H 0.09469 0.95897 0.73632
 H525 H 0.10248 1.05693 0.74451
 H526 H 0.14542 0.96976 0.77426
 H527 H 0.11680 0.96788 0.63738
 H528 H 0.12804 1.04381 0.84182
 C529 C 0.63518 0.49708 0.22513
 C530 C 0.62081 0.47945 0.24928
 C531 C 0.61023 0.44862 0.24298
 C532 C 0.61463 0.43513 0.21294
 C533 C 0.63024 0.45258 0.18944
 C534 C 0.64030 0.48362 0.19517
 C535 C 0.61815 0.49281 0.28147
 C536 C 0.60207 0.52142 0.28675
 C537 C 0.60001 0.53435 0.31731
 C538 C 0.61488 0.51852 0.34242
 C539 C 0.63167 0.49027 0.33738
 C540 C 0.63278 0.47735 0.30678
 H541 H 0.64332 0.52085 0.23006
 H542 H 0.59876 0.43516 0.26149
 H543 H 0.59096 0.53330 0.26707
 H544 H 0.64558 0.45557 0.30236
 H545 H 0.63355 0.44237 0.16615
 H546 H 0.61395 0.52856 0.36596
 C547 C 0.86890 0.49856 0.72615
 C548 C 0.88335 0.51570 0.75057
 C549 C 0.89386 0.54664 0.74495
 C550 C 0.88935 0.56072 0.71536
 C551 C 0.87396 0.54367 0.69149
 C552 C 0.86380 0.51252 0.69652
 C553 C 0.88538 0.50200 0.78255
 C554 C 0.90026 0.47274 0.78739
 C555 C 0.90025 0.45884 0.81748
 C556 C 0.88514 0.47458 0.84271
 C557 C 0.87003 0.50380 0.83820
 C558 C 0.87056 0.51746 0.80800
 H559 H 0.86060 0.47478 0.73072
 H560 H 0.90508 0.55985 0.76375
 H561 H 0.91130 0.46062 0.76761
 H562 H 0.85871 0.53981 0.80392
 H563 H 0.87054 0.55448 0.66859
 H564 H 0.88479 0.46381 0.86588
 C565 C 0.21726 0.36450 -0.00247
 C566 C 0.24139 0.37940 0.01460
 C567 C 0.23450 0.39387 0.04378
 C568 C 0.20351 0.39392 0.05570
 C569 C 0.17980 0.37854 0.03839
 C570 C 0.18629 0.36379 0.00937
 C571 C 0.27366 0.38035 0.00134
 C572 C 0.27886 0.39363 -0.02858
 C573 C 0.30900 0.39312 -0.04230
 C574 C 0.33405 0.37924 -0.02572
 C575 C 0.32936 0.36590 0.00430
 C576 C 0.29897 0.36679 0.01780
 H577 H 0.22277 0.35343 -0.02496
 H578 H 0.25308 0.40569 0.05665
 H579 H 0.25927 0.40387 -0.04134
 H580 H 0.29471 0.35633 0.04076
 H581 H 0.15590 0.37822 0.04746
 H582 H 0.35729 0.37862 -0.03641
 C583 C 0.71875 0.12944 0.99992
 C584 C 0.74403 0.11476 0.98410
 C585 C 0.73949 0.10215 0.95373
 C586 C 0.71005 0.10487 0.93899
 C587 C 0.68527 0.12061 0.95474
 C588 C 0.68928 0.13271 0.98535
 C589 C 0.77553 0.11470 0.99885
 C590 C 0.77938 0.10327 1.02972
 C591 C 0.80813 0.10718 1.04540
 C592 C 0.83305 0.12265 1.03001
 C593 C 0.82987 0.13352 0.99892
 C594 C 0.80104 0.12912 0.98331
 H595 H 0.72249 0.13935 1.02323
 H596 H 0.75892 0.09068 0.94150
 H597 H 0.75973 0.09219 1.04180
 H598 H 0.79786 0.13832 0.95968
 H599 H 0.66251 0.12265 0.94344
 H600 H 0.85526 0.12569 1.04215
 C601 C 0.19513 0.63262 0.52140
 C602 C 0.22070 0.61970 0.50459
 C603 C 0.21586 0.60665 0.47449
 C604 C 0.18575 0.60682 0.46097
 C605 C 0.16038 0.62006 0.47799
 C606 C 0.16482 0.63319 0.50816
 C607 C 0.25284 0.62198 0.51759
 C608 C 0.25977 0.60949 0.54750
 C609 C 0.29024 0.61230 0.56002
 C610 C 0.31330 0.62877 0.54268
 C611 C 0.30678 0.64119 0.51277
 C612 C 0.27650 0.63738 0.50020
 H613 H 0.19916 0.64309 0.54442
 H614 H 0.23573 0.59708 0.46136
 H615 H 0.24159 0.59716 0.56060
 H616 H 0.27102 0.64705 0.47719
 H617 H 0.13718 0.62059 0.46746
 H618 H 0.33689 0.63111 0.55201
 C619 C 0.69635 0.86509 0.47375
 C620 C 0.72162 0.87785 0.49076
 C621 C 0.71621 0.89147 0.52060
 C622 C 0.68565 0.89269 0.53344
 C623 C 0.66057 0.87977 0.51606
 C624 C 0.66567 0.86555 0.48644
 C625 C 0.75403 0.87549 0.47810
 C626 C 0.76187 0.88899 0.44879
 C627 C 0.79289 0.88699 0.43707
 C628 C 0.81551 0.87013 0.45449
 C629 C 0.80805 0.85672 0.48380
 C630 C 0.77727 0.85981 0.49564
 H631 H 0.70084 0.85409 0.45101
 H632 H 0.73588 0.90103 0.53371
 H633 H 0.74403 0.90170 0.43569
 H634 H 0.77112 0.84954 0.51828
 H635 H 0.63699 0.88011 0.52594
 H636 H 0.83949 0.86836 0.44579
 C637 C -0.00369 0.21872 0.36549
 C638 C 0.01335 0.24326 0.37983
 C639 C 0.04392 0.23743 0.39104
 C640 C 0.05776 0.20749 0.38737
 C641 C 0.04082 0.18345 0.37211
 C642 C 0.01007 0.18870 0.36120
 C643 C 0.00001 0.27553 0.38148
 C644 C -0.02853 0.28141 0.39747
 C645 C -0.04076 0.31229 0.39932
 C646 C -0.02443 0.33698 0.38420
 C647 C 0.00375 0.33139 0.36762
 C648 C 0.01599 0.30052 0.36667
 H649 H -0.02717 0.22342 0.35670
 H650 H 0.05701 0.25635 0.40220
 H651 H -0.04072 0.26206 0.40893
 H652 H 0.03782 0.29571 0.35412
 H653 H 0.05145 0.16028 0.36932
 H654 H -0.03389 0.36077 0.38504
 C655 C 1.00452 0.71808 0.12929
 C656 C 0.98732 0.74214 0.11433
 C657 C 0.95648 0.73618 0.10407
 C658 C 0.94259 0.70658 0.10927
 C659 C 0.95976 0.68304 0.12504
 C660 C 0.99075 0.68845 0.13507
 C661 C 1.00079 0.77419 0.11163
 C662 C 1.02994 0.77895 0.09661
 C663 C 1.04365 0.80912 0.09610
 C664 C 1.02785 0.83454 0.11085
 C665 C 0.99868 0.83013 0.12603
 C666 C 0.98520 0.79981 0.12599
 H667 H 1.02817 0.72296 0.13747
 H668 H 0.94321 0.75475 0.09254
 H669 H 1.04213 0.75904 0.08589
 H670 H 0.96291 0.79578 0.13791
 H671 H 0.94907 0.66015 0.12901
 H672 H 1.03851 0.85779 0.11079
 C673 C 0.51234 0.20519 0.63352
 C674 C 0.49637 0.22984 0.61819
 C675 C 0.46695 0.22403 0.60422
 C676 C 0.45357 0.19368 0.60542
 C677 C 0.46952 0.16959 0.62177
 C678 C 0.49882 0.17505 0.63581
 C679 C 0.50999 0.26195 0.61831
 C680 C 0.54087 0.26701 0.60732
 C681 C 0.55494 0.29683 0.61045
 C682 C 0.53787 0.32154 0.62483
 C683 C 0.50684 0.31700 0.63549
 C684 C 0.49292 0.28712 0.63178
 H685 H 0.53484 0.20988 0.64456
 H686 H 0.45485 0.24304 0.59215
 H687 H 0.55409 0.24757 0.59698
 H688 H 0.46927 0.28294 0.64059
 H689 H 0.45944 0.14613 0.62306
 H690 H 0.54871 0.34458 0.62733
 C691 C 0.49126 0.70469 0.86340
 C692 C 0.50825 0.72906 0.87809
 C693 C 0.53627 0.72198 0.89416
 C694 C 0.54702 0.69059 0.89616
 C695 C 0.52979 0.66657 0.88108
 C696 C 0.50202 0.67329 0.86455
 C697 C 0.49613 0.76183 0.87722
 C698 C 0.46555 0.76850 0.88831
 C699 C 0.45360 0.79944 0.88738
 C700 C 0.47259 0.82363 0.87489
 C701 C 0.50308 0.81740 0.86342
 C702 C 0.51483 0.78632 0.86493
 H703 H 0.46972 0.71037 0.85098
 H704 H 0.54910 0.74080 0.90577
 H705 H 0.45125 0.74955 0.89780
 H706 H 0.53829 0.78096 0.85615
 H707 H 0.53809 0.64237 0.88214
 H708 H 0.46347 0.84754 0.87384
 N709 N 0.43927 -0.13241 0.28835
 C710 C 0.42356 -0.15128 0.30910
 N711 N 0.39563 -0.14075 0.32107
 N712 N 0.38434 -0.11243 0.31353
 C713 C 0.40028 -0.09343 0.29333
 N714 N 0.42777 -0.10410 0.28049
 N715 N 0.95120 0.38792 0.80902
 C716 C 0.94131 0.36994 0.83372
 N717 N 0.91792 0.38130 0.85262
 N718 N 0.90499 0.40942 0.84729
 C719 C 0.91475 0.42744 0.82270
 N720 N 0.93803 0.41607 0.80352
 N721 N 0.09345 1.12460 0.84126
 C722 C 0.07396 1.14097 0.82196
 N723 N 0.06879 1.12959 0.79236
 N724 N 0.08207 1.10244 0.78292
 C725 C 0.10098 1.08572 0.80273
 N726 N 0.10664 1.09766 0.83188
 N727 N 0.55479 0.60876 0.30579
 C728 C 0.55127 0.61921 0.33602
 N729 N 0.56377 0.60164 0.35965
 N730 N 0.57909 0.57487 0.35354
 C731 C 0.58268 0.56432 0.32347
 N732 N 0.57017 0.58181 0.29965
 N733 N 0.56347 0.36452 0.20986
 C734 C 0.57702 0.34760 0.18600
 N735 N 0.60377 0.35890 0.17247
 N736 N 0.61615 0.38618 0.18180
 C737 C 0.60243 0.40335 0.20524
 N738 N 0.57602 0.39183 0.21939
 N739 N 0.06542 0.89573 0.64136
 C740 C 0.05277 0.87745 0.66444
 N741 N 0.05688 0.88634 0.69503
 N742 N 0.07295 0.91253 0.70206
 C743 C 0.08559 0.93076 0.67880
 N744 N 0.08143 0.92174 0.64836
 N745 N 0.89706 0.63906 0.67874
 C746 C 0.92356 0.65069 0.69229
 N747 N 0.93816 0.63307 0.71472
 N748 N 0.92679 0.60484 0.72294
 C749 C 0.90061 0.59307 0.70879
 N750 N 0.88588 0.61087 0.68673
 N751 N 0.44326 0.11429 0.19303
 C752 C 0.44142 0.12635 0.16334
 N753 N 0.42347 0.11106 0.14179
 N754 N 0.40834 0.08468 0.14923
 C755 C 0.41042 0.07222 0.17861
 N756 N 0.42807 0.08767 0.20051
 N757 N 0.34445 0.40686 -0.12063
 C758 C 0.32615 0.43028 -0.13257
 N759 N 0.30172 0.44136 -0.11478
 N760 N 0.29588 0.42933 -0.08623
 C761 C 0.31449 0.40608 -0.07426
 N762 N 0.33881 0.39507 -0.09209
 N763 N 0.79280 0.93903 0.36653
 C764 C 0.82363 0.93786 0.35760
 N765 N 0.84352 0.91894 0.37396
 N766 N 0.83336 0.90233 0.39851
 C767 C 0.80281 0.90380 0.40796
 N768 N 0.78261 0.92237 0.39133
 N769 N 0.83800 0.10021 1.12639
 C770 C 0.82540 0.07242 1.13631
 N771 N 0.80553 0.05684 1.11653
 N772 N 0.79909 0.06833 1.08795
 C773 C 0.81252 0.09568 1.07792
 N774 N 0.83185 0.11150 1.09781
 N775 N 0.28873 0.56153 0.63142
 C776 C 0.31874 0.56479 0.64204
 N777 N 0.33832 0.58489 0.62666
 N778 N 0.32875 0.60055 0.60134
 C779 C 0.29913 0.59686 0.59011
 N780 N 0.27913 0.57724 0.60586
 N781 N 0.19490 0.56113 0.38668
 C782 C 0.17073 0.57261 0.36912
 N783 N 0.15184 0.59529 0.38191
 N784 N 0.15670 0.60603 0.41101
 C785 C 0.18080 0.59467 0.42859
 N786 N 0.19996 0.57212 0.41580
 N787 N 0.67657 0.09238 0.86008
 C788 C 0.68921 0.06416 0.85109
 N789 N 0.71041 0.05015 0.87065
 N790 N 0.71804 0.06357 0.89816
 C791 C 0.70455 0.09136 0.90730
 N792 N 0.68391 0.10559 0.88758
 N793 N 0.64391 0.91928 0.60537
 C794 C 0.66715 0.93252 0.62285
 N795 N 0.69695 0.93256 0.61087
 N796 N 0.70304 0.91990 0.58253
 C797 C 0.67958 0.90677 0.56507
 N798 N 0.64996 0.90670 0.57720
 N799 N 0.15544 0.42687 0.12057
 C800 C 0.17645 0.44400 0.13745
 N801 N 0.20717 0.44386 0.12806
 N802 N 0.21619 0.42759 0.10241
 C803 C 0.19484 0.41079 0.08532
 N804 N 0.16441 0.41068 0.09518
 N805 N -0.11477 0.30398 0.44595
 C806 C -0.12356 0.33472 0.44980
 N807 N -0.10513 0.35752 0.43696
 N808 N -0.07910 0.35015 0.42103
 C809 C -0.07014 0.31960 0.41712
 N810 N -0.08851 0.29656 0.42995
 N811 N 0.37582 0.79375 0.92764
 C812 C 0.36421 0.82346 0.92358
 N813 N 0.38165 0.84446 0.90683
 N814 N 0.40961 0.83650 0.89504
 C815 C 0.42157 0.80711 0.89943
 N816 N 0.40398 0.78573 0.91576
 N817 N 1.12115 0.84377 0.07807
 C818 C 1.13222 0.82492 0.05447
 N819 N 1.11405 0.80044 0.04455
 N820 N 1.08600 0.79507 0.05791
 C821 C 1.07492 0.81421 0.08140
 N822 N 1.09312 0.83860 0.09119
 N823 N 0.62848 0.29385 0.56307
 C824 C 0.64603 0.31671 0.57716
 N825 N 0.63380 0.33199 0.60269
 N826 N 0.60516 0.32516 0.61348
 C827 C 0.58749 0.30259 0.59933
 N828 N 0.59981 0.28679 0.57408
 N829 N 0.38183 0.20010 0.55586
 C830 C 0.37095 0.16988 0.55657
 N831 N 0.38668 0.14829 0.57413
 N832 N 0.41239 0.15622 0.58995
 C833 C 0.42369 0.18615 0.58900
 N834 N 0.40778 0.20807 0.57174
 N835 N 0.86466 0.66936 0.10284
 C836 C 0.85248 0.68316 0.07668
 N837 N 0.86964 0.70585 0.06183
 N838 N 0.89795 0.71411 0.07264
 C839 C 0.91027 0.69975 0.09850
 N840 N 0.89294 0.67740 0.11347
 N841 N 0.61968 0.69604 0.94443
 C842 C 0.62708 0.66499 0.94842
 N843 N 0.60826 0.64289 0.93501
 N844 N 0.58314 0.65124 0.91843
 C845 C 0.57556 0.68212 0.91442
 N846 N 0.59435 0.70444 0.92779
 N847 N 0.13528 0.16974 0.39745
 C848 C 0.14693 0.18474 0.42324
 N849 N 0.12954 0.20832 0.43667
 N850 N 0.10154 0.21630 0.42481
 C851 C 0.08976 0.20078 0.39931
 N852 N 0.10731 0.17751 0.38579
 N853 N 0.56155 0.12653 0.67171
 C854 C 0.54546 0.10065 0.68172
 N855 N 0.51386 0.09956 0.67705
 N856 N 0.49907 0.12327 0.66263
 C857 C 0.51520 0.14910 0.65250
 N858 N 0.54674 0.15031 0.65749
 N859 N 1.05545 0.64270 0.17143
 C860 C 1.04018 0.61682 0.18267
 N861 N 1.00859 0.61468 0.17828
 N862 N 0.99299 0.63740 0.16318
 C863 C 1.00826 0.66327 0.15192
 N864 N 1.03983 0.66549 0.15644
 N865 N 0.94433 0.87468 0.17833
 C866 C 0.95507 0.90480 0.17576
 N867 N 0.97999 0.91042 0.15630
 N868 N 0.99370 0.88684 0.14033
 C869 C 0.98297 0.85668 0.14300
 N870 N 0.95794 0.85116 0.16230
 N871 N 0.44237 0.36472 0.67055
 C872 C 0.45777 0.39093 0.68077
 N873 N 0.48936 0.39280 0.67588
 N874 N 0.50485 0.36944 0.66134
 C875 C 0.48946 0.34318 0.65121
 N876 N 0.45788 0.34131 0.65614
 N877 N 0.47811 0.59343 0.83810
 C878 C 0.45353 0.59980 0.81873
 N879 N 0.44474 0.63046 0.81471
 N880 N 0.45993 0.65377 0.82935
 C881 C 0.48460 0.64741 0.84862
 N882 N 0.49333 0.61674 0.85268
 N883 N -0.05417 0.14117 0.32644
 C884 C -0.03857 0.11500 0.31596
 N885 N -0.00694 0.11330 0.32026
 N886 N 0.00840 0.13669 0.33460
 C887 C -0.00718 0.16285 0.34510
 N888 N -0.03880 0.16464 0.34064
 N889 N 0.02412 0.41181 0.34003
 C890 C 0.04815 0.40607 0.31949
 N891 N 0.05783 0.37568 0.31517
 N892 N 0.04400 0.35203 0.33062
 C893 C 0.01984 0.35774 0.35104
 N894 N 0.01024 0.38815 0.35541
 N895 N 0.52812 0.89716 0.83798
 C896 C 0.55405 0.89082 0.82013
 N897 N 0.56374 0.86025 0.81734
 N898 N 0.54801 0.83698 0.83153
 C899 C 0.52184 0.84331 0.84907
 N900 N 0.51235 0.87391 0.85208
 N901 N 0.68422 0.50277 0.12215
 C902 C 0.68301 0.53491 0.12163
 N903 N 0.66799 0.54999 0.14591
 N904 N 0.65481 0.53381 0.16945
 C905 C 0.65584 0.50175 0.16966
 N906 N 0.67080 0.48657 0.14554
 N907 N 0.16224 1.02634 0.58693
 C908 C 0.18277 1.05017 0.59288
 N909 N 0.18703 1.05939 0.62335
 N910 N 0.17159 1.04530 0.64687
 C911 C 0.15123 1.02132 0.64096
 N912 N 0.14685 1.01220 0.61047
 N913 N 0.18417 0.94342 0.85323
 C914 C 0.18015 0.95191 0.88407
 N915 N 0.16165 0.97743 0.89057
 N916 N 0.14821 0.99383 0.86743
 C917 C 0.15247 0.98543 0.83670
 N918 N 0.17061 0.95975 0.83007
 N919 N 0.66085 0.47196 0.41765
 C920 C 0.68233 0.44876 0.41181
 N921 N 0.68656 0.43886 0.38151
 N922 N 0.67020 0.45170 0.35802
 C923 C 0.64890 0.47506 0.36378
 N924 N 0.64456 0.48488 0.39412
 N925 N 0.83081 0.44725 0.64884
 C926 C 0.81916 0.46271 0.62332
 N927 N 0.82197 0.49466 0.62213
 N928 N 0.83606 0.51041 0.64539
 C929 C 0.84779 0.49494 0.67088
 N930 N 0.84475 0.46302 0.67217
 N931 N 0.32297 -0.01667 0.09072
 C932 C 0.31676 -0.04812 0.09169
 N933 N 0.32606 -0.06482 0.11742
 N934 N 0.34099 -0.05071 0.14117
 C935 C 0.34741 -0.01931 0.14010
 N936 N 0.33806 -0.00260 0.11439
 N937 N 0.33141 0.05246 0.35635
 C938 C 0.32039 0.03713 0.38230
 N939 N 0.32362 0.00520 0.38366
 N940 N 0.33743 -0.01066 0.36008
 C941 C 0.34842 0.00470 0.33411
 N942 N 0.34505 0.03659 0.33273
 N943 N 0.83920 0.52225 0.91825
 C944 C 0.81868 0.54622 0.91240
 N945 N 0.81563 0.55651 0.88220
 N946 N 0.83221 0.54335 0.85881
 C947 C 0.85255 0.51923 0.86456
 N948 N 0.85571 0.50897 0.89480
 N949 N 0.12044 0.68413 0.56389
 C950 C 0.09027 0.68079 0.55386
 N951 N 0.08456 0.66101 0.52922
 N952 N 0.10812 0.64555 0.51499
 C953 C 0.13834 0.64907 0.52492
 N954 N 0.14395 0.66857 0.54977
 N955 N 0.61351 0.17360 1.00155
 C956 C 0.61454 0.17772 1.03337
 N957 N 0.64025 0.16710 1.04916
 N958 N 0.66393 0.15298 1.03389
 C959 C 0.66288 0.14869 1.00213
 N960 N 0.63716 0.15929 0.98626
 N961 N 0.90370 0.17825 0.98674
 C962 C 0.90504 0.18114 0.95477
 N963 N 0.88137 0.16809 0.93751
 N964 N 0.85754 0.15306 0.95144
 C965 C 0.85636 0.15018 0.98332
 N966 N 0.87997 0.16302 1.00067
 N967 N 0.35332 0.67356 0.44638
 C968 C 0.37951 0.68451 0.46112
 N969 N 0.38132 0.68187 0.49300
 N970 N 0.35807 0.66843 0.50938
 C971 C 0.33196 0.65729 0.49461
 N972 N 0.32998 0.66030 0.46278
 N973 N 0.58537 0.83864 0.46584
 C974 C 0.59109 0.81815 0.44171
 N975 N 0.62134 0.81412 0.43171
 N976 N 0.64490 0.82964 0.44542
 C977 C 0.63924 0.84983 0.46980
 N978 N 0.60896 0.85407 0.47964
 N979 N 0.10688 0.33634 -0.01372
 C980 C 0.11300 0.31886 -0.03999
 N981 N 0.14339 0.31635 -0.05012
 N982 N 0.16664 0.33064 -0.03464
 C983 C 0.16051 0.34804 -0.00829
 N984 N 0.13012 0.35056 0.00179
 N985 N 0.40967 0.33746 0.02333
 C986 C 0.40438 0.31872 0.04879
 N987 N 0.37441 0.31621 0.06003
 N988 N 0.35071 0.33155 0.04630
 C989 C 0.35593 0.35003 0.02064
 N990 N 0.38594 0.35272 0.00953
 N991 N 0.88248 0.81651 0.50459
 C992 C 0.87993 0.81391 0.53644
 N993 N 0.85323 0.82464 0.55082
 N994 N 0.83013 0.83766 0.53408
 C995 C 0.83286 0.84065 0.50227
 N996 N 0.85946 0.82973 0.48788
   
