data_POSCAR
  _audit_creation_date              2014-09-24
  _audit_creation_method            'ToBaCCo'
  _symmetry_space_group_name_H-M    'P1'
  _symmetry_Int_Tables_number       1
  _symmetry_cell_setting            triclinic
  loop_
  _symmetry_equiv_pos_as_xyz
 x,y,z
_cell_length_a 46.0631
_cell_length_b 46.0556
_cell_length_c 46.1408
_cell_angle_alpha 90.012100
_cell_angle_beta 90.006800
_cell_angle_gamma 90.017800
loop_
  _atom_site_label
  _atom_site_type_symbol
  _atom_site_fract_x
  _atom_site_fract_y
  _atom_site_fract_z
C1 C 0.36851 0.33239 0.33292
 N2 N 0.35640 0.35646 0.32097
 C3 C 0.33240 0.36863 0.33299
 N4 N 0.32040 0.35651 0.35700
 C5 C 0.33238 0.33244 0.36910
 N6 N 0.35639 0.32040 0.35694
 C7 C 0.36865 0.83223 -0.16835
 N8 N 0.35636 0.85620 -0.18038
 C9 C 0.33228 0.86833 -0.16841
 N10 N 0.32048 0.85628 -0.14425
 C11 C 0.33263 0.83237 -0.13203
 N12 N 0.35665 0.82037 -0.14418
 C13 C 0.86807 0.33284 -0.16807
 N14 N 0.85599 0.32093 -0.14400
 C15 C 0.83199 0.33296 -0.13187
 N16 N 0.81993 0.35695 -0.14405
 C17 C 0.83183 0.36901 -0.16818
 N18 N 0.85590 0.35682 -0.18012
 C19 C 0.86897 0.83181 0.33214
 N20 N 0.85680 0.85587 0.32019
 C21 C 0.83285 0.86810 0.33225
 N22 N 0.82095 0.85607 0.35635
 C23 C 0.83298 0.83206 0.36850
 N24 N 0.85693 0.81996 0.35630
 C25 C 0.63162 0.66772 0.33264
 N26 N 0.64374 0.64368 0.32062
 C27 C 0.66773 0.63147 0.33262
 N28 N 0.67971 0.64353 0.35669
 C29 C 0.66772 0.66756 0.36885
 N30 N 0.64373 0.67964 0.35671
 C31 C 0.63142 0.16793 -0.16870
 N32 N 0.64344 0.17982 -0.14455
 C33 C 0.66747 0.16783 -0.13239
 N34 N 0.67960 0.14390 -0.14458
 C35 C 0.66779 0.13181 -0.16873
 N36 N 0.64370 0.14393 -0.18071
 C37 C 0.13209 0.66715 -0.16779
 N38 N 0.14421 0.67909 -0.14375
 C39 C 0.16824 0.66708 -0.13164
 N40 N 0.18028 0.64308 -0.14382
 C41 C 0.16835 0.63098 -0.16793
 N42 N 0.14426 0.64315 -0.17984
 C43 C 0.13152 0.16794 0.33140
 N44 N 0.14376 0.14392 0.31940
 C45 C 0.16778 0.13171 0.33142
 N46 N 0.17955 0.14372 0.35562
 C47 C 0.16745 0.16767 0.36782
 N48 N 0.14350 0.17975 0.35560
 C49 C 0.63141 0.33226 0.66719
 N50 N 0.64352 0.32030 0.64315
 C51 C 0.66755 0.33234 0.63103
 N52 N 0.67956 0.35638 0.64318
 C53 C 0.66758 0.36847 0.66722
 N54 N 0.64355 0.35629 0.67920
 C55 C 0.63147 0.83230 1.16840
 N56 N 0.64350 0.82041 1.14426
 C57 C 0.66751 0.83244 1.13208
 N58 N 0.67960 0.85641 1.14424
 C59 C 0.66778 0.86850 1.16838
 N60 N 0.64372 0.85634 1.18037
 C61 C 0.13123 0.33173 1.16802
 N62 N 0.14332 0.31986 1.14390
 C63 C 0.16726 0.33198 1.13168
 N64 N 0.17922 0.35606 1.14378
 C65 C 0.16727 0.36813 1.16784
 N66 N 0.14334 0.35587 1.17992
 C67 C 0.13151 0.83202 0.66851
 N68 N 0.14376 0.85602 0.68054
 C69 C 0.16781 0.86822 0.66857
 N70 N 0.17961 0.85621 0.64438
 C71 C 0.16750 0.83227 0.63215
 N72 N 0.14351 0.82021 0.64432
 C73 C 0.36854 0.66766 0.66757
 N74 N 0.35643 0.67962 0.64354
 C75 C 0.33241 0.66758 0.63139
 N76 N 0.32040 0.64353 0.64351
 C77 C 0.33238 0.63143 0.66755
 N78 N 0.35639 0.64362 0.67956
 C79 C 0.36833 0.16791 1.16850
 N80 N 0.35630 0.17973 1.14433
 C81 C 0.33230 0.16766 1.13217
 N82 N 0.32022 0.14371 1.14438
 C83 C 0.33204 0.13170 1.16855
 N84 N 0.35609 0.14390 1.18052
 C85 C 0.86807 0.66717 1.16790
 N86 N 0.85597 0.67912 1.14387
 C87 C 0.83193 0.66713 1.13175
 N88 N 0.81986 0.64313 1.14391
 C89 C 0.83177 0.63102 1.16801
 N90 N 0.85588 0.64317 1.17993
 C91 C 0.86838 0.16784 0.66814
 N92 N 0.85637 0.17966 0.64396
 C93 C 0.83237 0.16761 0.63179
 N94 N 0.82024 0.14368 0.64402
 C95 C 0.83205 0.13167 0.66820
 N96 N 0.85611 0.14386 0.68017
 C97 C 0.33203 0.36803 0.66811
 N98 N 0.32002 0.35589 0.64411
 C99 C 0.33200 0.33184 0.63198
 N100 N 0.35604 0.31983 0.64409
 C101 C 0.36820 0.33183 0.66810
 N102 N 0.35608 0.35588 0.68009
 C103 C 0.33265 0.86963 0.16734
 N104 N 0.32065 0.85745 0.14335
 C105 C 0.33270 0.83344 0.13121
 N106 N 0.35679 0.82151 0.14330
 C107 C 0.36893 0.83355 0.16729
 N108 N 0.35674 0.85756 0.17929
 C109 C 0.83303 0.36846 0.16716
 N110 N 0.85705 0.35628 0.17914
 C111 C 0.86912 0.33219 0.16718
 N112 N 0.85693 0.32017 0.14320
 C113 C 0.83290 0.33221 0.13109
 N114 N 0.82097 0.35630 0.14319
 C115 C 0.83288 0.86952 0.66772
 N116 N 0.85694 0.85741 0.67971
 C117 C 0.86910 0.83337 0.66772
 N118 N 0.85696 0.82134 0.64373
 C119 C 0.83290 0.83330 0.63162
 N120 N 0.82088 0.85734 0.64373
 C121 C 0.66763 0.63175 0.66816
 N122 N 0.64363 0.64393 0.68018
 C123 C 0.63152 0.66800 0.66820
 N124 N 0.64364 0.67996 0.64417
 C125 C 0.66764 0.66791 0.63202
 N126 N 0.67961 0.64385 0.64413
 C127 C 0.66699 0.13065 0.16672
 N128 N 0.64292 0.14274 0.17869
 C129 C 0.63076 0.16677 0.16672
 N130 N 0.64291 0.17883 0.14275
 C131 C 0.66699 0.16687 0.13065
 N132 N 0.67901 0.14283 0.14275
 C133 C 0.16731 0.63162 0.16741
 N134 N 0.14329 0.64379 0.17940
 C135 C 0.13119 0.66786 0.16744
 N136 N 0.14335 0.67987 0.14345
 C137 C 0.16738 0.66783 0.13133
 N138 N 0.17933 0.64376 0.14343
 C139 C 0.16705 0.13015 0.66750
 N140 N 0.17904 0.14227 0.64348
 C141 C 0.16698 0.16626 0.63131
 N142 N 0.14291 0.17823 0.64340
 C143 C 0.13079 0.16625 0.66741
 N144 N 0.14298 0.14226 0.67945
 C145 C 0.33253 0.63200 0.33226
 N146 N 0.35654 0.64418 0.32024
 C147 C 0.36867 0.66825 0.33221
 N148 N 0.35654 0.68024 0.35624
 C149 C 0.33253 0.66820 0.36838
 N150 N 0.32055 0.64413 0.35627
 C151 C 0.33261 0.13034 0.83282
 N152 N 0.32059 0.14251 0.85681
 C153 C 0.33261 0.16655 0.86894
 N154 N 0.35668 0.17853 0.85684
 C155 C 0.36884 0.16650 0.83286
 N156 N 0.35668 0.14246 0.82087
 C157 C 0.83290 0.63155 0.83274
 N158 N 0.85690 0.64374 0.82073
 C159 C 0.86899 0.66784 0.83266
 N160 N 0.85684 0.67986 0.85665
 C161 C 0.83282 0.66781 0.86880
 N162 N 0.82088 0.64371 0.85672
 C163 C 0.83279 0.13091 0.33201
 N164 N 0.85687 0.14301 0.32006
 C165 C 0.86909 0.16699 0.33211
 N166 N 0.85699 0.17897 0.35615
 C167 C 0.83292 0.16700 0.36824
 N168 N 0.82084 0.14302 0.35605
 C169 C 0.66777 0.36816 0.33181
 N170 N 0.64373 0.35600 0.31981
 C171 C 0.63159 0.33195 0.33180
 N172 N 0.64372 0.31997 0.35582
 C173 C 0.66775 0.33199 0.36795
 N174 N 0.67976 0.35604 0.35583
 C175 C 0.66754 0.86970 0.83288
 N176 N 0.64345 0.85760 0.82095
 C177 C 0.63127 0.83358 0.83295
 N178 N 0.64344 0.82156 0.85692
 C179 C 0.66754 0.83350 0.86900
 N180 N 0.67958 0.85753 0.85686
 C181 C 0.16699 0.36823 0.83266
 N182 N 0.17899 0.35606 0.85664
 C183 C 0.16705 0.33193 0.86866
 N184 N 0.14306 0.31987 0.85646
 C185 C 0.13093 0.33191 0.83247
 N186 N 0.14301 0.35604 0.82059
 C187 C 0.16726 0.86952 0.33262
 N188 N 0.14322 0.85736 0.32064
 C189 C 0.13108 0.83332 0.33265
 N190 N 0.14322 0.82135 0.35666
 C191 C 0.16727 0.83337 0.36878
 N192 N 0.17927 0.85741 0.35664
 O193 O 0.24678 1.02950 0.28678
 O194 O 0.28676 0.97283 0.24702
 O195 O 0.28686 1.02951 0.24717
 O196 O 0.24692 0.97283 0.28689
 O197 O 0.21305 0.97280 0.25298
 O198 O 0.25302 1.02949 0.21323
 O199 O 0.25289 0.97282 0.21311
 O200 O 0.21295 1.02948 0.25284
 Cu201 Cu 0.27023 1.00117 0.27037
 Cu202 Cu 0.22957 1.00115 0.22963
 C203 C 0.22317 1.03928 0.27646
 C204 C 0.27652 0.96305 0.22340
 C205 C 0.27664 1.03929 0.22355
 C206 C 0.22330 0.96304 0.27660
 O207 O 0.25263 0.52829 0.71348
 O208 O 0.21265 0.47179 0.75342
 O209 O 0.21287 0.52848 0.75343
 O210 O 0.25257 0.47162 0.71365
 O211 O 0.28652 0.47162 0.74748
 O212 O 0.24682 0.52845 0.78725
 O213 O 0.24660 0.47176 0.78725
 O214 O 0.28658 0.52829 0.74731
 Cu215 Cu 0.22926 0.50005 0.73010
 Cu216 Cu 0.27003 0.50003 0.77072
 C217 C 0.27629 0.53804 0.72370
 C218 C 0.22293 0.46200 0.77701
 C219 C 0.22321 0.53829 0.77700
 C220 C 0.27619 0.46180 0.72391
 O221 O 0.75293 -0.02887 0.28642
 O222 O 0.71292 0.02762 0.24649
 O223 O 0.71290 -0.02905 0.24675
 O224 O 0.75284 0.02778 0.28630
 O225 O 0.78670 0.02771 0.25239
 O226 O 0.74674 -0.02913 0.21281
 O227 O 0.74678 0.02754 0.21258
 O228 O 0.78677 -0.02895 0.25249
 Cu229 Cu 0.72950 -0.00062 0.26990
 Cu230 Cu 0.77014 -0.00071 0.22915
 C231 C 0.77656 -0.03865 0.27614
 C232 C 0.72316 0.03733 0.22285
 C233 C 0.72313 -0.03891 0.22317
 C234 C 0.77647 0.03754 0.27599
 O235 O 0.78723 0.52812 0.75329
 O236 O 0.74730 0.47160 0.71330
 O237 O 0.74726 0.52827 0.71356
 O238 O 0.78709 0.47143 0.75322
 O239 O 0.75317 0.47139 0.78707
 O240 O 0.71334 0.52819 0.74741
 O241 O 0.71338 0.47152 0.74715
 O242 O 0.75331 0.52808 0.78714
 Cu243 Cu 0.77063 0.49986 0.72994
 Cu244 Cu 0.72990 0.49978 0.77059
 C245 C 0.77696 0.53787 0.77689
 C246 C 0.72365 0.46181 0.72351
 C247 C 0.72363 0.53803 0.72385
 C248 C 0.77679 0.46160 0.77679
 O249 O 0.21293 0.52838 0.24705
 O250 O 0.25279 0.47186 0.28706
 O251 O 0.25285 0.52852 0.28684
 O252 O 0.21295 0.47171 0.24719
 O253 O 0.24687 0.47162 0.21334
 O254 O 0.28677 0.52842 0.25299
 O255 O 0.28671 0.47175 0.25321
 O256 O 0.24686 0.52829 0.21321
 Cu257 Cu 0.22947 0.50013 0.27044
 Cu258 Cu 0.27021 0.50000 0.22978
 C259 C 0.22322 0.53809 0.22344
 C260 C 0.27642 0.46205 0.27684
 C261 C 0.27649 0.53828 0.27655
 C262 C 0.22323 0.46186 0.22362
 O263 O 0.78699 0.97296 0.74712
 O264 O 0.74694 1.02968 0.78673
 O265 O 0.74714 0.97301 0.78697
 O266 O 0.78697 1.02964 0.74705
 O267 O 0.75311 1.02949 0.71313
 O268 O 0.71325 0.97286 0.75308
 O269 O 0.71308 1.02953 0.75281
 O270 O 0.75311 0.97281 0.71322
 Cu271 Cu 0.77041 1.00134 0.77037
 Cu272 Cu 0.72974 1.00115 0.72965
 C273 C 0.77675 0.96310 0.72353
 C274 C 0.72331 1.03940 0.77639
 C275 C 0.72353 0.96316 0.77671
 C276 C 0.77672 1.03934 0.72342
 O277 O 0.75320 0.52853 0.21278
 O278 O 0.71344 0.47170 0.25250
 O279 O 0.71346 0.52837 0.25274
 O280 O 0.75341 0.47184 0.21277
 O281 O 0.78735 0.47186 0.24661
 O282 O 0.74740 0.52835 0.28658
 O283 O 0.74738 0.47168 0.28634
 O284 O 0.78714 0.52855 0.24662
 Cu285 Cu 0.72997 0.50011 0.22930
 Cu286 Cu 0.77073 0.50011 0.26993
 C287 C 0.77681 0.53836 0.22305
 C288 C 0.72375 0.46188 0.27606
 C289 C 0.72374 0.53811 0.27636
 C290 C 0.77707 0.46209 0.22301
 O291 O 0.21305 0.02702 0.74720
 O292 O 0.25309 -0.02963 0.78691
 O293 O 0.25293 0.02704 0.78705
 O294 O 0.21301 -0.02965 0.74729
 O295 O 0.24684 -0.02961 0.71335
 O296 O 0.28678 0.02710 0.75313
 O297 O 0.28692 -0.02958 0.75297
 O298 O 0.24691 0.02706 0.71329
 Cu299 Cu 0.22962 -0.00131 0.77052
 Cu300 Cu 0.27026 -0.00125 0.72978
 C301 C 0.22328 0.03681 0.72358
 C302 C 0.27671 -0.03938 0.77658
 C303 C 0.27654 0.03685 0.77676
 C304 C 0.22323 -0.03941 0.72366
 O305 O 0.24680 0.28632 0.97177
 O306 O 0.28677 0.24668 1.02843
 O307 O 0.28673 0.24647 0.97186
 O308 O 0.24679 0.28644 1.02834
 O309 O 0.21293 0.25245 1.02841
 O310 O 0.25287 0.21248 0.97194
 O311 O 0.25292 0.21269 1.02852
 O312 O 0.21294 0.25233 0.97183
 Cu313 Cu 0.27018 0.26989 1.00008
 Cu314 Cu 0.22952 0.22907 1.00018
 C315 C 0.22318 0.27598 0.96203
 C316 C 0.27653 0.22306 1.03827
 C317 C 0.27649 0.22278 0.96216
 C318 C 0.22317 0.27612 1.03813
 O319 O 0.24687 0.78746 0.47191
 O320 O 0.28674 0.74737 0.52833
 O321 O 0.28676 0.74759 0.47177
 O322 O 0.24683 0.78721 0.52849
 O323 O 0.21293 0.75326 0.52835
 O324 O 0.25286 0.71364 0.47163
 O325 O 0.25284 0.71343 0.52820
 O326 O 0.21297 0.75352 0.47177
 Cu327 Cu 0.27021 0.77082 0.50014
 Cu328 Cu 0.22949 0.73005 0.49997
 C329 C 0.22325 0.77720 0.46210
 C330 C 0.27647 0.72369 0.53801
 C331 C 0.27649 0.72397 0.46192
 C332 C 0.22320 0.77686 0.53822
 O333 O 0.28728 0.75316 -0.02832
 O334 O 0.24731 0.71342 0.02831
 O335 O 0.24754 0.71312 -0.02826
 O336 O 0.28718 0.75337 0.02825
 O337 O 0.25320 0.78721 0.02806
 O338 O 0.21356 0.74696 -0.02846
 O339 O 0.21334 0.74728 0.02810
 O340 O 0.25329 0.78700 -0.02851
 Cu341 Cu 0.27074 0.72987 0.00003
 Cu342 Cu 0.22994 0.77051 -0.00022
 C343 C 0.27696 0.77673 -0.03821
 C344 C 0.22363 0.72370 0.03798
 C345 C 0.22391 0.72331 -0.03812
 C346 C 0.27684 0.77702 0.03791
 O347 O 0.21268 0.24661 0.47180
 O348 O 0.25245 0.28626 0.52864
 O349 O 0.25261 0.28645 0.47207
 O350 O 0.21266 0.24625 0.52839
 O351 O 0.24660 0.21236 0.52828
 O352 O 0.28654 0.25255 0.47199
 O353 O 0.28638 0.25237 0.52855
 O354 O 0.24660 0.21271 0.47170
 Cu355 Cu 0.22919 0.26980 0.50024
 Cu356 Cu 0.26994 0.22909 0.50012
 C357 C 0.22299 0.22303 0.46193
 C358 C 0.27608 0.27596 0.53840
 C359 C 0.27627 0.27622 0.46231
 C360 C 0.22294 0.22258 0.53806
 O361 O 0.71294 0.75317 1.02844
 O362 O 0.75291 0.71345 0.97180
 O363 O 0.75268 0.71317 1.02837
 O364 O 0.71308 0.75341 0.97186
 O365 O 0.74707 0.78726 0.97208
 O366 O 0.78668 0.74702 1.02859
 O367 O 0.78689 0.74731 0.97202
 O368 O 0.74694 0.78703 1.02865
 Cu369 Cu 0.72949 0.72990 1.00008
 Cu370 Cu 0.77031 0.77055 1.00036
 C371 C 0.72326 0.77675 1.03833
 C372 C 0.77659 0.72372 0.96214
 C373 C 0.77632 0.72336 1.03824
 C374 C 0.72343 0.77707 0.96222
 O375 O 0.74730 0.28649 0.47131
 O376 O 0.78712 0.24675 0.52803
 O377 O 0.78722 0.24665 0.47144
 O378 O 0.74723 0.28662 0.52788
 O379 O 0.71333 0.25268 0.52788
 O380 O 0.75331 0.21270 0.47145
 O381 O 0.75321 0.21281 0.52803
 O382 O 0.71340 0.25255 0.47132
 Cu383 Cu 0.77062 0.27004 0.49966
 Cu384 Cu 0.72991 0.22927 0.49967
 C385 C 0.72368 0.27618 0.46152
 C386 C 0.77682 0.22313 0.53783
 C387 C 0.77695 0.22299 0.46169
 C388 C 0.72359 0.27634 0.53763
 O389 O 0.75286 0.28674 0.02805
 O390 O 0.71287 0.24709 -0.02868
 O391 O 0.71285 0.24693 0.02789
 O392 O 0.75266 0.28708 -0.02852
 O393 O 0.78657 0.25317 -0.02871
 O394 O 0.74676 0.21301 0.02773
 O395 O 0.74679 0.21318 -0.02883
 O396 O 0.78676 0.25281 0.02786
 Cu397 Cu 0.72940 0.27037 -0.00029
 Cu398 Cu 0.77013 0.22964 -0.00050
 C399 C 0.77652 0.27642 0.03773
 C400 C 0.72316 0.22350 -0.03855
 C401 C 0.72313 0.22325 0.03754
 C402 C 0.77627 0.27684 -0.03836
 O403 O 0.78729 0.75297 0.47211
 O404 O 0.74730 0.71334 0.52877
 O405 O 0.74729 0.71320 0.47219
 O406 O 0.78718 0.75326 0.52868
 O407 O 0.75330 0.78721 0.52854
 O408 O 0.71342 0.74716 0.47207
 O409 O 0.71343 0.74730 0.52864
 O410 O 0.75343 0.78693 0.47197
 Cu411 Cu 0.77067 0.72978 0.50046
 Cu412 Cu 0.72999 0.77056 0.50029
 C413 C 0.77705 0.77658 0.46226
 C414 C 0.72367 0.72368 0.53848
 C415 C 0.72368 0.72348 0.46238
 C416 C 0.77691 0.77695 0.53836
 O417 O 0.97250 0.25256 0.21287
 O418 O 1.02923 0.21276 0.25268
 O419 O 0.97255 0.21269 0.25270
 O420 O 1.02917 0.25267 0.21289
 O421 O 1.02914 0.28658 0.24677
 O422 O 0.97251 0.24661 0.28656
 O423 O 1.02919 0.24666 0.28656
 O424 O 0.97247 0.28648 0.24673
 Cu425 Cu 1.00087 0.22926 0.22939
 Cu426 Cu 1.00082 0.26999 0.27005
 C427 C 0.96269 0.27619 0.22313
 C428 C 1.03901 0.22305 0.27628
 C429 C 0.96275 0.22296 0.27629
 C430 C 1.03893 0.27632 0.22317
 O431 O 0.52847 0.28625 0.74703
 O432 O 0.47207 0.24622 0.78708
 O433 O 0.52875 0.24637 0.78685
 O434 O 0.47182 0.28615 0.74731
 O435 O 0.47173 0.25223 0.71344
 O436 O 0.52870 0.21247 0.75297
 O437 O 0.47202 0.21230 0.75321
 O438 O 0.52839 0.25235 0.71315
 Cu439 Cu 0.50029 0.26965 0.77048
 Cu440 Cu 0.50020 0.22893 0.72979
 C441 C 0.53816 0.27601 0.72338
 C442 C 0.46230 0.22256 0.77684
 C443 C 0.53856 0.22278 0.77653
 C444 C 0.46195 0.27585 0.72375
 O445 O -0.02885 0.28645 0.75247
 O446 O 0.02764 0.24619 0.71283
 O447 O -0.02903 0.24641 0.71280
 O448 O 0.02780 0.28615 0.75260
 O449 O 0.02762 0.25230 0.78652
 O450 O -0.02921 0.21258 0.74674
 O451 O 0.02746 0.21234 0.74676
 O452 O -0.02902 0.25262 0.78642
 Cu453 Cu -0.00058 0.26969 0.72926
 Cu454 Cu -0.00081 0.22906 0.77002
 C455 C -0.03868 0.27628 0.77609
 C456 C 0.03731 0.22253 0.72315
 C457 C -0.03894 0.22285 0.72312
 C458 C 0.03751 0.27588 0.77624
 O459 O 0.52760 0.24643 0.21270
 O460 O 0.47127 0.28641 0.25287
 O461 O 0.52793 0.28630 0.25255
 O462 O 0.47093 0.24656 0.21300
 O463 O 0.47101 0.21262 0.24684
 O464 O 0.52802 0.25236 0.28637
 O465 O 0.47137 0.25247 0.28670
 O466 O 0.52768 0.21248 0.24653
 Cu467 Cu 0.49942 0.26983 0.22938
 Cu468 Cu 0.49953 0.22907 0.27000
 C469 C 0.53737 0.22276 0.22289
 C470 C 0.46160 0.27614 0.27652
 C471 C 0.53781 0.27599 0.27608
 C472 C 0.46112 0.22294 0.22330
 O473 O 0.97232 0.75355 0.71320
 O474 O 1.02886 0.71336 0.75284
 O475 O 0.97221 0.71360 0.75296
 O476 O 1.02899 0.75338 0.71317
 O477 O 1.02914 0.78722 0.74711
 O478 O 0.97235 0.74747 0.78688
 O479 O 1.02901 0.74720 0.78679
 O480 O 0.97246 0.78741 0.74712
 Cu481 Cu 1.00057 0.73008 0.72963
 Cu482 Cu 1.00076 0.77073 0.77038
 C483 C 0.96262 0.77720 0.72351
 C484 C 1.03869 0.72355 0.77646
 C485 C 0.96249 0.72387 0.77659
 C486 C 1.03888 0.77696 0.72349
 O487 O 0.47224 0.75391 0.21294
 O488 O 0.52870 0.71387 0.25286
 O489 O 0.47205 0.71400 0.25273
 O490 O 0.52891 0.75376 0.21305
 O491 O 0.52895 0.78767 0.24692
 O492 O 0.47207 0.74792 0.28660
 O493 O 0.52873 0.74778 0.28674
 O494 O 0.47227 0.78783 0.24681
 Cu495 Cu 0.50047 0.73048 0.22949
 Cu496 Cu 0.50051 0.77121 0.27017
 C497 C 0.46250 0.77757 0.22320
 C498 C 0.53845 0.72411 0.27649
 C499 C 0.46226 0.72430 0.27632
 C500 C 0.53875 0.77736 0.22334
 O501 O -0.02888 0.78705 0.25329
 O502 O 0.02786 0.74740 0.21336
 O503 O -0.02879 0.74714 0.21348
 O504 O 0.02778 0.78727 0.25321
 O505 O 0.02795 0.75335 0.28706
 O506 O -0.02864 0.71323 0.24734
 O507 O 0.02802 0.71347 0.24721
 O508 O -0.02871 0.75313 0.28715
 Cu509 Cu -0.00053 0.77062 0.22994
 Cu510 Cu -0.00032 0.72989 0.27059
 C511 C -0.03859 0.77673 0.27690
 C512 C 0.03772 0.72379 0.22359
 C513 C -0.03848 0.72346 0.22376
 C514 C 0.03763 0.77702 0.27679
 O515 O 0.47128 0.78757 0.75327
 O516 O 0.52817 0.74775 0.71370
 O517 O 0.47152 0.74764 0.71349
 O518 O 0.52796 0.78774 0.75343
 O519 O 0.52795 0.75386 0.78733
 O520 O 0.47148 0.71378 0.74740
 O521 O 0.52813 0.71388 0.74760
 O522 O 0.47127 0.75371 0.78718
 Cu523 Cu 0.49974 0.77108 0.73007
 Cu524 Cu 0.49971 0.73041 0.77079
 C525 C 0.46145 0.77730 0.77685
 C526 C 0.53796 0.72414 0.72401
 C527 C 0.46177 0.72399 0.72375
 C528 C 0.53771 0.77751 0.77706
 N529 N 0.40508 0.32969 0.29432
 C530 C 0.39364 0.31854 0.31906
 N531 N 0.40512 0.29375 0.33010
 N532 N 0.42708 0.28048 0.31679
 C533 C 0.43838 0.29152 0.29195
 N534 N 0.42704 0.31642 0.28101
 N535 N 0.40420 0.83034 0.79392
 C536 C 0.39266 0.81922 0.81864
 N537 N 0.40441 0.79464 0.82994
 N538 N 0.42662 0.78154 0.81686
 C539 C 0.43796 0.79254 0.79203
 N540 N 0.42642 0.81724 0.78085
 N541 N -0.09531 0.29422 0.82939
 C542 C -0.10676 0.31894 0.81817
 N543 N -0.09528 0.32994 0.79339
 N544 N -0.07327 0.31659 0.78022
 C545 C -0.06195 0.29176 0.79135
 N546 N -0.07331 0.28087 0.81622
 N547 N -0.09544 0.79406 0.33021
 C548 C -0.10712 0.81872 0.31904
 N549 N -0.09560 0.82989 0.29433
 N550 N -0.07348 0.81675 0.28115
 C551 C -0.06200 0.79197 0.29220
 N552 N -0.07331 0.78092 0.31703
 N553 N 0.59503 0.70638 0.32994
 C554 C 0.60649 0.68161 0.31882
 N555 N 0.59502 0.67053 0.29406
 N556 N 0.57303 0.68383 0.28082
 C557 C 0.56171 0.70871 0.29184
 N558 N 0.57305 0.71969 0.31669
 N559 N 0.59584 0.16977 0.79359
 C560 C 0.60741 0.18092 0.81830
 N561 N 0.59567 0.20551 0.82957
 N562 N 0.57344 0.21859 0.81651
 C563 C 0.56208 0.20756 0.79169
 N564 N 0.57361 0.18285 0.78053
 N565 N 1.09537 0.66998 0.79372
 C566 C 1.10689 0.68101 0.81848
 N567 N 1.09542 0.70573 0.82970
 N568 N 1.07339 0.71904 0.81656
 C569 C 1.06200 0.70811 0.79170
 N570 N 1.07333 0.68329 0.78057
 N571 N 1.09609 0.16990 0.29357
 C572 C 1.10759 0.18101 0.31832
 N573 N 1.09587 0.20563 0.32956
 N574 N 1.07373 0.21878 0.31641
 C575 C 1.06243 0.20778 0.29154
 N576 N 1.07394 0.18304 0.28042
 N577 N 0.59474 0.29365 0.66990
 C578 C 0.60624 0.31841 0.68100
 N579 N 0.59479 0.32953 0.70575
 N580 N 0.57279 0.31626 0.71901
 C581 C 0.56142 0.29139 0.70801
 N582 N 0.57273 0.28038 0.68316
 N583 N 0.59595 0.83044 0.20614
 C584 C 0.60749 0.81927 0.18144
 N585 N 0.59577 0.79464 0.17021
 N586 N 0.57358 0.78154 0.18331
 C587 C 0.56223 0.79259 0.20813
 N588 N 0.57375 0.81734 0.21924
 N589 N 1.09577 0.32972 0.20580
 C590 C 1.10735 0.31858 0.18111
 N591 N 1.09577 0.29386 0.16993
 N592 N 1.07367 0.28064 0.18309
 C593 C 1.06229 0.29166 0.20790
 N594 N 1.07367 0.31650 0.21895
 N595 N 1.09604 0.83007 0.70629
 C596 C 1.10754 0.81896 0.68155
 N597 N 1.09580 0.79436 0.67028
 N598 N 1.07363 0.78122 0.68339
 C599 C 1.06233 0.79222 0.70825
 N600 N 1.07386 0.81694 0.71940
 N601 N 0.40514 0.67043 0.70616
 C602 C 0.39369 0.68152 0.68140
 N603 N 0.40519 0.70628 0.67028
 N604 N 0.42718 0.71957 0.68354
 C605 C 0.43850 0.70859 0.70840
 N606 N 0.42714 0.68373 0.71941
 N607 N 0.40403 0.20558 0.17024
 C608 C 0.39232 0.18097 0.18151
 N609 N 0.40389 0.16985 0.20622
 N610 N 0.42610 0.18297 0.21929
 C611 C 0.43761 0.20770 0.20813
 N612 N 0.42623 0.21871 0.18332
 N613 N -0.09523 0.70574 0.17048
 C614 C -0.10672 0.68101 0.18166
 N615 N -0.09521 0.66993 0.20639
 N616 N -0.07315 0.68322 0.21957
 C617 C -0.06181 0.70806 0.20849
 N618 N -0.07318 0.71902 0.18365
 N619 N -0.09614 0.16978 0.70592
 C620 C -0.10765 0.18089 0.68118
 N621 N -0.09589 0.20548 0.66991
 N622 N -0.07370 0.21860 0.68303
 C623 C -0.06240 0.20761 0.70788
 N624 N -0.07395 0.18290 0.71903
 N625 N 0.32978 0.40530 0.29447
 C626 C 0.31862 0.39385 0.31919
 N627 N 0.29388 0.40538 0.33028
 N628 N 0.28067 0.42742 0.31703
 C629 C 0.29173 0.43874 0.29221
 N630 N 0.31658 0.42734 0.28122
 N631 N 0.33015 -0.09622 0.79378
 C632 C 0.31910 -0.10779 0.81852
 N633 N 0.29443 -0.09621 0.82978
 N634 N 0.28117 -0.07412 0.81666
 C635 C 0.29210 -0.06275 0.79181
 N636 N 0.31688 -0.07413 0.78067
 N637 N 0.82994 0.40453 0.79407
 C638 C 0.81877 0.39296 0.81876
 N639 N 0.79411 0.40463 0.82995
 N640 N 0.78099 0.42679 0.81682
 C641 C 0.79204 0.43815 0.79202
 N642 N 0.81682 0.42669 0.78094
 N643 N 0.83004 -0.09533 0.29364
 C644 C 0.81900 -0.10674 0.31843
 N645 N 0.79429 -0.09521 0.32961
 N646 N 0.78101 -0.07320 0.31637
 C647 C 0.79195 -0.06193 0.29147
 N648 N 0.81676 -0.07333 0.28040
 N649 N 0.32972 0.59478 0.70608
 C650 C 0.31857 0.60623 0.68136
 N651 N 0.29382 0.59471 0.67027
 N652 N 0.28059 0.57267 0.68352
 C653 C 0.29164 0.56135 0.70834
 N654 N 0.31650 0.57274 0.71933
 N655 N 0.32998 1.09624 0.20635
 C656 C 0.31891 1.10779 0.18161
 N657 N 0.29426 1.09614 0.17035
 N658 N 0.28104 1.07402 0.18347
 C659 C 0.29199 1.06268 0.20832
 N660 N 0.31675 1.07412 0.21947
 N661 N 0.82994 0.59547 0.20572
 C662 C 0.81873 0.60706 0.18107
 N663 N 0.79404 0.59540 0.16990
 N664 N 0.78094 0.57321 0.18304
 C665 C 0.79204 0.56183 0.20781
 N666 N 0.81684 0.57329 0.21885
 N667 N 0.83001 1.09628 0.70605
 C668 C 0.81892 1.10778 0.68130
 N669 N 0.79425 1.09611 0.67008
 N670 N 0.78105 1.07401 0.68326
 C671 C 0.79203 1.06271 0.70812
 N672 N 0.81681 1.07418 0.71922
 N673 N 0.67037 0.59486 0.29403
 C674 C 0.68152 0.60628 0.31877
 N675 N 0.70625 0.59473 0.32987
 N676 N 0.71946 0.57270 0.31659
 C677 C 0.70842 0.56141 0.29174
 N678 N 0.68358 0.57283 0.28075
 N679 N 0.66989 1.09629 0.79351
 C680 C 0.68095 1.10791 0.81823
 N681 N 0.70563 1.09634 0.82950
 N682 N 0.71887 1.07422 0.81641
 C683 C 0.70793 1.06280 0.79158
 N684 N 0.68314 1.07417 0.78043
 N685 N 0.17014 0.59543 0.79435
 C686 C 0.18137 0.60702 0.81901
 N687 N 0.20605 0.59534 0.83017
 N688 N 0.21912 0.57315 0.81703
 C689 C 0.20801 0.56176 0.79225
 N690 N 0.18323 0.57324 0.78121
 N691 N 0.20553 1.09613 0.32967
 C692 C 0.18091 1.10779 0.31837
 N693 N 0.16986 1.09625 0.29361
 N694 N 0.18308 1.07412 0.28051
 C695 C 0.20782 1.06268 0.29168
 N696 N 0.21875 1.07401 0.31656
 N697 N 0.67024 0.40508 0.70581
 C698 C 0.68139 0.39365 0.68108
 N699 N 0.70614 0.40519 0.67000
 N700 N 0.71937 0.42721 0.68329
 C701 C 0.70832 0.43851 0.70813
 N702 N 0.68346 0.42710 0.71910
 N703 N 0.66982 -0.09594 0.20609
 C704 C 0.68090 -0.10755 0.18139
 N705 N 0.70555 -0.09593 0.17011
 N706 N 0.71876 -0.07376 0.18318
 C707 C 0.70780 -0.06236 0.20800
 N708 N 0.68303 -0.07377 0.21916
 N709 N 0.20573 0.40497 0.17039
 C710 C 0.18104 0.39340 0.18158
 N711 N 0.16993 0.40490 0.20630
 N712 N 0.18313 0.42701 0.21946
 C713 C 0.20792 0.43845 0.20838
 N714 N 0.21893 0.42709 0.18355
 N715 N 0.16990 -0.09636 0.70641
 C716 C 0.18095 -0.10788 0.68165
 N717 N 0.20560 -0.09623 0.67040
 N718 N 0.21883 -0.07412 0.68354
 C719 C 0.20789 -0.06280 0.70841
 N720 N 0.18312 -0.07425 0.71955
 N721 N 0.29383 0.32976 0.40575
 C722 C 0.31858 0.31862 0.39426
 N723 N 0.32971 0.29386 0.40571
 N724 N 0.31647 0.28060 0.42770
 C725 C 0.29162 0.29162 0.43906
 N726 N 0.28059 0.31650 0.42775
 N727 N 0.33020 0.79404 -0.09511
 C728 C 0.31897 0.81869 -0.10671
 N729 N 0.29424 0.82985 -0.09521
 N730 N 0.28111 0.81673 -0.07307
 C731 C 0.29223 0.79197 -0.06161
 N732 N 0.31707 0.78091 -0.07297
 N733 N 0.82950 0.29448 -0.09515
 C734 C 0.81828 0.31920 -0.10662
 N735 N 0.79354 0.33030 -0.09508
 N736 N 0.78041 0.31706 -0.07301
 C737 C 0.79153 0.29223 -0.06168
 N738 N 0.81637 0.28124 -0.07308
 N739 N 0.79458 0.82968 0.40531
 C740 C 0.81925 0.81841 0.39379
 N741 N 0.83036 0.79369 0.40536
 N742 N 0.81717 0.78061 0.42749
 C743 C 0.79238 0.79177 0.43886
 N744 N 0.78138 0.81660 0.42743
 N745 N 0.67019 0.29383 0.59432
 C746 C 0.68133 0.31857 0.60582
 N747 N 0.70607 0.32974 0.59434
 N748 N 0.71929 0.31653 0.57230
 C749 C 0.70825 0.29168 0.56093
 N750 N 0.68340 0.28062 0.57228
 N751 N 0.70591 0.82992 1.09528
 C752 C 0.68119 0.81873 1.10678
 N753 N 0.66999 0.79405 1.09521
 N754 N 0.68314 0.78091 1.07308
 C755 C 0.70797 0.79199 1.06172
 N756 N 0.71906 0.81679 1.07316
 N757 N 0.20568 0.32948 1.09488
 C758 C 0.18100 0.31825 1.10643
 N759 N 0.16988 0.29348 1.09496
 N760 N 0.18307 0.28031 1.07288
 C761 C 0.20785 0.29143 1.06146
 N762 N 0.21887 0.31631 1.07280
 N763 N 0.20585 0.82990 0.59529
 C764 C 0.18116 0.81865 0.60681
 N765 N 0.16998 0.79397 0.59520
 N766 N 0.18312 0.78090 0.57303
 C767 C 0.20792 0.79205 0.56165
 N768 N 0.21899 0.81684 0.57312
 N769 N 0.29391 0.67022 0.59466
 C770 C 0.31864 0.68137 0.60619
 N771 N 0.32981 0.70612 0.59473
 N772 N 0.31661 0.71936 0.57270
 C773 C 0.29178 0.70832 0.56131
 N774 N 0.28071 0.68346 0.57263
 N775 N 0.29394 0.17002 1.09531
 C776 C 0.31862 0.18128 1.10683
 N777 N 0.32977 0.20598 1.09524
 N778 N 0.31662 0.21904 1.07308
 C779 C 0.29183 0.20788 1.06169
 N780 N 0.28078 0.18308 1.07315
 N781 N 0.79346 0.66987 1.09498
 C782 C 0.81822 0.68093 1.10652
 N783 N 0.82950 0.70563 1.09505
 N784 N 0.81639 0.71890 1.07299
 C785 C 0.79152 0.70795 1.06158
 N786 N 0.78034 0.68314 1.07291
 N787 N 0.79404 0.17004 0.59489
 C788 C 0.81873 0.18125 0.60644
 N789 N 0.82995 0.20592 0.59486
 N790 N 0.81685 0.21902 0.57269
 C791 C 0.79206 0.20791 0.56127
 N792 N 0.78094 0.18313 0.57271
 N793 N 0.70620 0.67011 0.40561
 C794 C 0.68149 0.68130 0.39409
 N795 N 0.67035 0.70604 0.40559
 N796 N 0.68355 0.71923 0.42766
 C797 C 0.70837 0.70815 0.43904
 N798 N 0.71940 0.68330 0.42768
 N799 N 0.66993 0.20622 -0.09551
 C800 C 0.68114 0.18153 -0.10708
 N801 N 0.70584 0.17035 -0.09555
 N802 N 0.71897 0.18348 -0.07341
 C803 C 0.70788 0.20827 -0.06197
 N804 N 0.68306 0.21935 -0.07336
 N805 N 0.17071 0.70557 -0.09492
 C806 C 0.18197 0.68088 -0.10641
 N807 N 0.20673 0.66982 -0.09487
 N808 N 0.21985 0.68309 -0.07280
 C809 C 0.20869 0.70789 -0.06146
 N810 N 0.18383 0.71884 -0.07286
 N811 N 0.16988 0.20595 0.40481
 C812 C 0.18109 0.18128 0.39320
 N813 N 0.20575 0.17004 0.40476
 N814 N 0.21885 0.18309 0.42697
 C815 C 0.20776 0.20786 0.43845
 N816 N 0.18298 0.21900 0.42702
 N817 N 0.29354 0.40482 0.67073
 C818 C 0.31827 0.39329 0.68187
 N819 N 0.32944 0.40484 0.70655
 N820 N 0.31628 0.42697 0.71970
 C821 C 0.29145 0.43836 0.70866
 N822 N 0.28037 0.42695 0.68388
 N823 N 0.32995 0.90632 0.20587
 C824 C 0.31881 0.89481 0.18116
 N825 N 0.29405 0.90629 0.17005
 N826 N 0.28081 0.92833 0.18328
 C827 C 0.29185 0.93971 0.20809
 N828 N 0.31672 0.92836 0.21910
 N829 N 0.83044 0.40526 0.20559
 C830 C 0.81928 0.39373 0.18090
 N831 N 0.79455 0.40524 0.16975
 N832 N 0.78134 0.42734 0.18292
 C833 C 0.79240 0.43874 0.20771
 N834 N 0.81724 0.42736 0.21875
 N835 N 0.83018 0.90629 0.70618
 C836 C 0.81906 0.89474 0.68148
 N837 N 0.79432 0.90621 0.67033
 N838 N 0.78108 0.92829 0.68349
 C839 C 0.79210 0.93971 0.70829
 N840 N 0.81694 0.92837 0.71935
 N841 N 0.67030 0.59496 0.70659
 C842 C 0.68142 0.60650 0.68189
 N843 N 0.70613 0.59497 0.67070
 N844 N 0.71934 0.57286 0.68383
 C845 C 0.70832 0.56145 0.70863
 N846 N 0.68351 0.57284 0.71972
 N847 N 0.66968 0.09399 0.20525
 C848 C 0.68082 0.10547 0.18053
 N849 N 0.70558 0.09399 0.16943
 N850 N 0.71883 0.07196 0.18268
 C851 C 0.70780 0.06062 0.20750
 N852 N 0.68293 0.07197 0.21849
 N853 N 0.20580 0.59485 0.17008
 C854 C 0.18106 0.60638 0.18119
 N855 N 0.16989 0.59490 0.20589
 N856 N 0.18308 0.57283 0.21910
 C857 C 0.20792 0.56143 0.20810
 N858 N 0.21899 0.57277 0.18329
 N859 N 0.20566 0.09350 0.67021
 C860 C 0.18091 0.10499 0.68134
 N861 N 0.16980 0.09352 0.70607
 N862 N 0.18306 0.07150 0.71930
 C863 C 0.20791 0.06014 0.70828
 N864 N 0.21892 0.07148 0.68345
 N865 N 0.29402 0.59523 0.32970
 C866 C 0.31873 0.60675 0.31852
 N867 N 0.32986 0.59520 0.29383
 N868 N 0.31664 0.57308 0.28069
 C869 C 0.29182 0.56170 0.29177
 N870 N 0.28080 0.57311 0.31657
 N871 N 0.32994 0.09365 0.79430
 C872 C 0.31880 0.10514 0.81901
 N873 N 0.29405 0.09362 0.83012
 N874 N 0.28082 0.07156 0.81689
 C875 C 0.29187 0.06021 0.79207
 N876 N 0.31672 0.07159 0.78107
 N877 N 0.79442 0.59474 0.83016
 C878 C 0.81914 0.60627 0.81901
 N879 N 0.83030 0.59475 0.79432
 N880 N 0.81710 0.57263 0.78115
 C881 C 0.79228 0.56123 0.79220
 N882 N 0.78122 0.57262 0.81699
 N883 N 0.82998 0.09427 0.29343
 C884 C 0.81890 0.10576 0.31817
 N885 N 0.79414 0.09429 0.32931
 N886 N 0.78085 0.07226 0.31609
 C887 C 0.79183 0.06090 0.29125
 N888 N 0.81669 0.07224 0.28021
 N889 N 0.70630 0.40493 0.32923
 C890 C 0.68157 0.39341 0.31806
 N891 N 0.67042 0.40494 0.29338
 N892 N 0.68363 0.42706 0.28023
 C893 C 0.70846 0.43845 0.29130
 N894 N 0.71950 0.42704 0.31608
 N895 N 0.67016 0.90636 0.79435
 C896 C 0.68135 0.89489 0.81905
 N897 N 0.70611 0.90642 0.83012
 N898 N 0.71931 0.92848 0.81687
 C899 C 0.70823 0.93981 0.79207
 N900 N 0.68336 0.92841 0.78110
 N901 N 0.20546 0.40507 0.83017
 C902 C 0.18074 0.39354 0.81899
 N903 N 0.16958 0.40510 0.79432
 N904 N 0.18278 0.42724 0.78120
 C905 C 0.20760 0.43862 0.79227
 N906 N 0.21865 0.42720 0.81705
 N907 N 0.20580 0.90628 0.32994
 C908 C 0.18107 0.89473 0.31881
 N909 N 0.16992 0.90620 0.29409
 N910 N 0.18314 0.92826 0.28087
 C911 C 0.20797 0.93967 0.29190
 N912 N 0.21901 0.92834 0.31672
 N913 N 0.40501 0.32917 0.70651
 C914 C 0.39344 0.31803 0.68183
 N915 N 0.40494 0.29330 0.67065
 N916 N 0.42706 0.28009 0.68377
 C917 C 0.43850 0.29114 0.70855
 N918 N 0.42713 0.31597 0.71964
 N919 N 0.40571 0.79507 0.16989
 C920 C 0.39419 0.81980 0.18104
 N921 N 0.40569 0.83095 0.20575
 N922 N 0.42778 0.81775 0.21894
 C923 C 0.43916 0.79291 0.20789
 N924 N 0.42780 0.78187 0.18308
 N925 N 0.90582 0.29361 0.16986
 C926 C 0.89434 0.31837 0.18096
 N927 N 0.90587 0.32955 0.20564
 N928 N 0.92795 0.31635 0.21884
 C929 C 0.93931 0.29148 0.20783
 N930 N 0.92790 0.28040 0.18305
 N931 N 0.90586 0.83067 0.70619
 C932 C 0.89433 0.81957 0.68148
 N933 N 0.90582 0.79485 0.67029
 N934 N 0.92789 0.78160 0.68344
 C935 C 0.93928 0.79259 0.70827
 N936 N 0.92793 0.81742 0.71935
 N937 N 0.59479 0.32929 0.29337
 C938 C 0.60634 0.31814 0.31804
 N939 N 0.59483 0.29341 0.32920
 N940 N 0.57270 0.28021 0.31606
 C941 C 0.56127 0.29126 0.29129
 N942 N 0.57266 0.31610 0.28023
 N943 N 0.59451 0.83094 0.79451
 C944 C 0.60602 0.81981 0.81921
 N945 N 0.59450 0.79508 0.83036
 N946 N 0.57241 0.78185 0.81718
 C947 C 0.56104 0.79287 0.79237
 N948 N 0.57242 0.81771 0.78132
 N949 N 0.09424 0.29331 0.82966
 C950 C 0.10577 0.31808 0.81859
 N951 N 0.09432 0.32924 0.79387
 N952 N 0.07228 0.31603 0.78060
 C953 C 0.06088 0.29117 0.79157
 N954 N 0.07220 0.28010 0.81639
 N955 N 0.09442 0.79472 0.33005
 C956 C 0.10588 0.81947 0.31889
 N957 N 0.09434 0.83057 0.29418
 N958 N 0.07229 0.81729 0.28100
 C959 C 0.06096 0.79242 0.29206
 N960 N 0.07236 0.78143 0.31687
 N961 N 0.59483 0.70658 0.67081
 C962 C 0.60632 0.68184 0.68198
 N963 N 0.59480 0.67074 0.70669
 N964 N 0.57273 0.68398 0.71986
 C965 C 0.56137 0.70882 0.70879
 N966 N 0.57276 0.71982 0.68397
 N967 N 0.59406 0.16935 0.20521
 C968 C 0.60554 0.18054 0.18051
 N969 N 0.59402 0.20530 0.16944
 N970 N 0.57198 0.21851 0.18269
 C971 C 0.56065 0.20743 0.20750
 N972 N 0.57202 0.18256 0.21847
 N973 N 0.09452 0.67047 0.20596
 C974 C 0.10600 0.68167 0.18127
 N975 N 0.09449 0.70643 0.17020
 N976 N 0.07243 0.71962 0.18345
 C977 C 0.06109 0.70853 0.20825
 N978 N 0.07247 0.68366 0.21921
 N979 N 0.09404 0.16901 0.70588
 C980 C 0.10556 0.18007 0.68114
 N981 N 0.09407 0.20478 0.66993
 N982 N 0.07201 0.21806 0.68308
 C983 C 0.06063 0.20711 0.70791
 N984 N 0.07198 0.18229 0.71902
 N985 N 0.40538 0.67094 0.29372
 C986 C 0.39387 0.68208 0.31842
 N987 N 0.40538 0.70683 0.32956
 N988 N 0.42747 0.72005 0.31638
 C989 C 0.43885 0.70900 0.29157
 N990 N 0.42746 0.68415 0.28054
 N991 N 0.40559 0.20504 0.83021
 C992 C 0.39407 0.18028 0.81909
 N993 N 0.40556 0.16912 0.79439
 N994 N 0.42762 0.18235 0.78118
 C995 C 0.43900 0.20721 0.79219
 N996 N 0.42765 0.21826 0.81700
 N997 N 0.90566 0.67051 0.79413
 C998 C 0.89418 0.68167 0.81884
 N999 N 0.90570 0.70643 0.82994
 N1000 N 0.92776 0.71964 0.81671
 C1001 C 0.93911 0.70858 0.79190
 N1002 N 0.92771 0.68372 0.78090
 N1003 N 0.90585 0.16962 0.29366
 C1004 C 0.89435 0.18076 0.31837
 N1005 N 0.90591 0.20547 0.32954
 N1006 N 0.92801 0.21867 0.31638
 C1007 C 0.93937 0.20764 0.29156
 N1008 N 0.92795 0.18282 0.28049
 N1009 N 0.29347 0.32922 0.59529
 C1010 C 0.31821 0.31806 0.60678
 N1011 N 0.32937 0.29334 0.59525
 N1012 N 0.31618 0.28016 0.57317
 C1013 C 0.29135 0.29122 0.56180
 N1014 N 0.28028 0.31604 0.57320
 N1015 N 0.29414 0.83060 0.09454
 C1016 C 0.31893 0.81956 0.10605
 N1017 N 0.33016 0.79484 0.09460
 N1018 N 0.31698 0.78153 0.07258
 C1019 C 0.29210 0.79246 0.06121
 N1020 N 0.28097 0.81729 0.07253
 N1021 N 0.79427 0.32967 0.09451
 C1022 C 0.81901 0.31844 0.10593
 N1023 N 0.83006 0.29368 0.09439
 N1024 N 0.81675 0.28052 0.07236
 C1025 C 0.79191 0.29165 0.06107
 N1026 N 0.78096 0.31651 0.07248
 N1027 N 0.79436 0.83052 0.59494
 C1028 C 0.81911 0.81943 0.60646
 N1029 N 0.83027 0.79466 0.59504
 N1030 N 0.81707 0.78137 0.57303
 C1031 C 0.79222 0.79236 0.56164
 N1032 N 0.78116 0.81723 0.57293
 N1033 N 0.32986 0.70670 0.40511
 C1034 C 0.31874 0.68195 0.39359
 N1035 N 0.29403 0.67073 0.40508
 N1036 N 0.28081 0.68389 0.42715
 C1037 C 0.29182 0.70874 0.43854
 N1038 N 0.31664 0.71986 0.42719
 N1039 N 0.32993 0.20517 0.90553
 C1040 C 0.31879 0.18040 0.89408
 N1041 N 0.29404 0.16927 0.90556
 N1042 N 0.28080 0.18253 0.92756
 C1043 C 0.29183 0.20741 0.93888
 N1044 N 0.31669 0.21844 0.92752
 N1045 N 0.79423 0.67041 0.90539
 C1046 C 0.81897 0.68160 0.89395
 N1047 N 0.83008 0.70636 0.90548
 N1048 N 0.81681 0.71954 0.92751
 C1049 C 0.79196 0.70845 0.93881
 N1050 N 0.78096 0.68360 0.92742
 N1051 N 0.79440 0.16963 0.40493
 C1052 C 0.81915 0.18077 0.39345
 N1053 N 0.83033 0.20549 0.40498
 N1054 N 0.81714 0.21870 0.42704
 C1055 C 0.79228 0.20766 0.43838
 N1056 N 0.78121 0.18283 0.42699
 N1057 N 0.67038 0.29350 0.40468
 C1058 C 0.68153 0.31823 0.39316
 N1059 N 0.70625 0.32943 0.40467
 N1060 N 0.71944 0.31627 0.42675
 C1061 C 0.70839 0.29143 0.43814
 N1062 N 0.68357 0.28034 0.42676
 N1063 N 0.70613 0.83066 0.90563
 C1064 C 0.68133 0.81962 0.89413
 N1065 N 0.67010 0.79489 0.90557
 N1066 N 0.68328 0.78158 0.92757
 C1067 C 0.70818 0.79251 0.93893
 N1068 N 0.71931 0.81734 0.92763
 N1069 N 0.16979 0.29332 0.90526
 C1070 C 0.18086 0.31812 0.89382
 N1071 N 0.20556 0.32934 0.90535
 N1072 N 0.21880 0.31614 0.92738
 C1073 C 0.20783 0.29124 0.93869
 N1074 N 0.18303 0.28012 0.92730
 N1075 N 0.16988 0.79481 0.40541
 C1076 C 0.18106 0.81956 0.39395
 N1077 N 0.20580 0.83069 0.40546
 N1078 N 0.21901 0.81744 0.42749
 C1079 C 0.20794 0.79258 0.43881
 N1080 N 0.18308 0.78156 0.42743
 N1081 N 0.70613 0.67044 0.59531
 C1082 C 0.68143 0.68165 0.60680
 N1083 N 0.67031 0.70640 0.59529
 N1084 N 0.68353 0.71955 0.57321
 C1085 C 0.70834 0.70844 0.56185
 N1086 N 0.71934 0.68359 0.57323
 N1087 N 0.66967 0.20552 0.09410
 C1088 C 0.68082 0.18075 0.10553
 N1089 N 0.70559 0.16966 0.09405
 N1090 N 0.71884 0.18296 0.07208
 C1091 C 0.70779 0.20784 0.06079
 N1092 N 0.68292 0.21882 0.07214
 N1093 N 0.20598 0.67042 0.09474
 C1094 C 0.18123 0.68161 0.10617
 N1095 N 0.17013 0.70634 0.09463
 N1096 N 0.18341 0.71952 0.07260
 C1097 C 0.20826 0.70843 0.06130
 N1098 N 0.21926 0.68360 0.07271
 N1099 N 0.16955 0.20482 0.59467
 C1100 C 0.18076 0.18010 0.60613
 N1101 N 0.20553 0.16903 0.59465
 N1102 N 0.21873 0.18232 0.57264
 C1103 C 0.20763 0.20715 0.56131
 N1104 N 0.18275 0.21811 0.57266
   
