data_POSCAR
  _audit_creation_date              2014-09-24
  _audit_creation_method            'ToBaCCo'
  _symmetry_space_group_name_H-M    'P1'
  _symmetry_Int_Tables_number       1
  _symmetry_cell_setting            triclinic
  loop_
  _symmetry_equiv_pos_as_xyz
 x,y,z
_cell_length_a 41.8942
_cell_length_b 41.3824
_cell_length_c 41.9140
_cell_angle_alpha 89.975100
_cell_angle_beta 89.996000
_cell_angle_gamma 90.025100
loop_
  _atom_site_label
  _atom_site_type_symbol
  _atom_site_fract_x
  _atom_site_fract_y
  _atom_site_fract_z
N1 N 0.62484 0.62498 0.62546
 N2 N 0.87537 0.37511 0.12549
 N3 N 0.37534 0.12481 -0.12524
 N4 N 0.12486 0.87511 0.37478
 N5 N 0.08752 0.17610 0.11023
 N6 N 0.07503 0.16293 0.13589
 C7 C 0.04939 0.18030 0.14490
 C8 C 0.04546 0.20557 0.12359
 C9 C 0.07012 0.20209 0.10188
 H10 H 0.03439 0.17475 0.16516
 H11 H 0.07529 0.21756 0.08174
 Cu12 Cu 0.09324 0.12412 0.15475
 Cu13 Cu 0.12565 0.15891 0.08982
 Cu14 Cu 0.15962 0.09076 0.12390
 N15 N 0.11290 0.08618 0.17387
 N16 N 0.13907 0.07353 0.16194
 C17 C 0.14782 0.04801 0.17982
 C18 C 0.12587 0.04430 0.20424
 C19 C 0.10401 0.06897 0.19967
 H20 H 0.16840 0.03299 0.17512
 H21 H 0.08342 0.07423 0.21432
 N22 N 0.17689 0.11174 0.08537
 N23 N 0.16423 0.13795 0.07267
 C24 C 0.18165 0.14671 0.04707
 C25 C 0.20634 0.12485 0.04333
 C26 C 0.20253 0.10298 0.06802
 H27 H 0.17651 0.16722 0.03195
 H28 H 0.21762 0.08247 0.07320
 H29 H 0.11933 0.11157 0.10421
 H30 H 0.14435 0.13781 0.13045
 N31 N 0.41234 0.82365 0.61068
 N32 N 0.42454 0.83654 0.63662
 C33 C 0.45025 0.81924 0.64558
 C34 C 0.45451 0.79429 0.62398
 C35 C 0.42999 0.79791 0.60213
 H36 H 0.46506 0.82463 0.66601
 H37 H 0.42507 0.78268 0.58176
 Cu38 Cu 0.40578 0.87489 0.65580
 Cu39 Cu 0.37427 0.84087 0.59016
 Cu40 Cu 0.34020 0.90901 0.62422
 N41 N 0.38659 0.91325 0.67455
 N42 N 0.36067 0.92617 0.66233
 C43 C 0.35211 0.95191 0.67998
 C44 C 0.37394 0.95548 0.70453
 C45 C 0.39553 0.93051 0.70029
 H46 H 0.33176 0.96716 0.67504
 H47 H 0.41594 0.92510 0.71512
 N48 N 0.32302 0.88806 0.58564
 N49 N 0.33572 0.86187 0.57294
 C50 C 0.31835 0.85314 0.54731
 C51 C 0.29365 0.87500 0.54354
 C52 C 0.29741 0.89683 0.56825
 H53 H 0.32353 0.83265 0.53220
 H54 H 0.28229 0.91732 0.57342
 H55 H 0.38063 0.88807 0.60498
 H56 H 0.35497 0.86179 0.63056
 N57 N 0.91195 0.67666 0.38909
 N58 N 0.92386 0.66404 0.36290
 C59 C 0.94964 0.68128 0.35399
 C60 C 0.95422 0.70594 0.37584
 C61 C 0.92983 0.70219 0.39783
 H62 H 0.96427 0.67605 0.33339
 H63 H 0.92515 0.71719 0.41841
 Cu64 Cu 0.90473 0.62610 0.34326
 Cu65 Cu 0.87394 0.65938 0.40968
 Cu66 Cu 0.83985 0.59123 0.37572
 N67 N 0.88587 0.58729 0.32505
 N68 N 0.86022 0.57409 0.33756
 C69 C 0.85185 0.54812 0.32015
 C70 C 0.87354 0.54467 0.29547
 C71 C 0.89485 0.56995 0.29939
 H72 H 0.83172 0.53263 0.32534
 H73 H 0.91509 0.57553 0.28437
 N74 N 0.82274 0.61213 0.41434
 N75 N 0.83545 0.63834 0.42699
 C76 C 0.81813 0.64706 0.45265
 C77 C 0.79345 0.62517 0.45649
 C78 C 0.79717 0.60333 0.43178
 H79 H 0.82331 0.66757 0.46775
 H80 H 0.78205 0.58282 0.42665
 H81 H 0.88051 0.61234 0.39437
 H82 H 0.85420 0.63859 0.36943
 N83 N 0.58792 0.32358 -0.11044
 N84 N 0.57572 0.33649 -0.13636
 C85 C 0.55000 0.31918 -0.14532
 C86 C 0.54575 0.29420 -0.12374
 C87 C 0.57027 0.29781 -0.10189
 H88 H 0.53519 0.32458 -0.16575
 H89 H 0.57519 0.28257 -0.08153
 Cu90 Cu 0.59447 0.37489 -0.15554
 Cu91 Cu 0.62600 0.34082 -0.08991
 Cu92 Cu 0.66003 0.40905 -0.12393
 N93 N 0.61365 0.41329 -0.17427
 N94 N 0.63955 0.42624 -0.16205
 C95 C 0.64811 0.45200 -0.17969
 C96 C 0.62628 0.45557 -0.20424
 C97 C 0.60471 0.43057 -0.20000
 H98 H 0.66845 0.46727 -0.17474
 H99 H 0.58430 0.42514 -0.21484
 N100 N 0.67721 0.38808 -0.08536
 N101 N 0.66454 0.36184 -0.07269
 C102 C 0.68191 0.35310 -0.04707
 C103 C 0.70659 0.37499 -0.04327
 C104 C 0.70281 0.39686 -0.06796
 H105 H 0.67676 0.33257 -0.03197
 H106 H 0.71791 0.41740 -0.07310
 H107 H 0.61961 0.38803 -0.10471
 H108 H 0.64528 0.36182 -0.13030
 C109 C -0.05237 0.30331 0.12473
 C110 C -0.06064 0.31893 0.09614
 C111 C -0.08462 0.34255 0.09652
 C112 C -0.10004 0.35072 0.12524
 C113 C -0.09136 0.33495 0.15370
 C114 C -0.06762 0.31108 0.15357
 C115 C -0.02729 0.27831 0.12445
 C116 C -0.01931 0.26240 0.15294
 C117 C 0.00442 0.23851 0.15250
 C118 C 0.02034 0.23074 0.12390
 C119 C 0.01213 0.24711 0.09559
 C120 C -0.01181 0.27080 0.09569
 C121 C -0.05886 0.29476 0.18163
 C122 C -0.03517 0.27077 0.18131
 C123 C -0.04470 0.31066 0.06781
 C124 C -0.02064 0.28705 0.06760
 H125 H -0.07047 0.30052 0.20401
 H126 H -0.02918 0.25872 0.20346
 H127 H -0.05084 0.32256 0.04562
 H128 H -0.00891 0.28143 0.04525
 H129 H -0.09114 0.35486 0.07465
 H130 H -0.10340 0.34108 0.17577
 H131 H 0.01076 0.22634 0.17449
 H132 H 0.02396 0.24111 0.07338
 C133 C 0.55263 0.69683 0.62483
 C134 C 0.56098 0.68138 0.59620
 C135 C 0.58495 0.65776 0.59652
 C136 C 0.60030 0.64941 0.62525
 C137 C 0.59155 0.66504 0.65376
 C138 C 0.56779 0.68889 0.65367
 C139 C 0.52752 0.72179 0.62462
 C140 C 0.51941 0.73749 0.65318
 C141 C 0.49562 0.76133 0.65281
 C142 C 0.47976 0.76924 0.62421
 C143 C 0.48812 0.75310 0.59582
 C144 C 0.51210 0.72946 0.59586
 C145 C 0.55894 0.70503 0.68180
 C146 C 0.53520 0.72897 0.68154
 C147 C 0.54512 0.68981 0.56786
 C148 C 0.52104 0.71340 0.56771
 H149 H 0.57049 0.69914 0.70418
 H150 H 0.52913 0.74087 0.70374
 H151 H 0.55133 0.67804 0.54563
 H152 H 0.50936 0.71914 0.54535
 H153 H 0.59153 0.64556 0.57461
 H154 H 0.60353 0.65878 0.67583
 H155 H 0.48917 0.77331 0.67485
 H156 H 0.47634 0.75921 0.57361
 C157 C 1.05265 0.80318 0.37527
 C158 C 1.06774 0.81127 0.34642
 C159 C 1.09152 0.83512 0.34639
 C160 C 1.10035 0.85062 0.37495
 C161 C 1.08509 0.84211 0.40368
 C162 C 1.06110 0.81848 0.40396
 C163 C 1.02749 0.77824 0.37542
 C164 C 1.01215 0.77042 0.40419
 C165 C 0.98810 0.74683 0.40417
 C166 C 0.97959 0.73089 0.37571
 C167 C 0.99539 0.73895 0.34710
 C168 C 1.01926 0.76273 0.34680
 C169 C 1.04532 0.80989 0.43230
 C170 C 1.02121 0.78631 0.43240
 C171 C 1.05877 0.79530 0.31824
 C172 C 1.03498 0.77139 0.31844
 H173 H 1.05161 0.82154 0.45457
 H174 H 1.00958 0.78045 0.45476
 H175 H 1.07026 0.80130 0.29585
 H176 H 1.02881 0.75963 0.29618
 H177 H 1.10343 0.84149 0.32431
 H178 H 1.09172 0.85420 0.42563
 H179 H 0.97638 0.74061 0.42637
 H180 H 0.98884 0.72712 0.32500
 C181 C 0.44759 0.19669 -0.12460
 C182 C 0.43243 0.18877 -0.15345
 C183 C 0.40867 0.16491 -0.15353
 C184 C 0.39990 0.14926 -0.12502
 C185 C 0.41523 0.15760 -0.09630
 C186 C 0.43922 0.18122 -0.09596
 C187 C 0.47272 0.22166 -0.12438
 C188 C 0.48813 0.22933 -0.09562
 C189 C 0.51212 0.25297 -0.09557
 C190 C 0.52050 0.26913 -0.12397
 C191 C 0.50464 0.26123 -0.15257
 C192 C 0.48084 0.23739 -0.15294
 C193 C 0.45507 0.18965 -0.06763
 C194 C 0.47917 0.21324 -0.06747
 C195 C 0.44131 0.20493 -0.18157
 C196 C 0.46506 0.22888 -0.18131
 H197 H 0.44885 0.17786 -0.04539
 H198 H 0.49084 0.21898 -0.04511
 H199 H 0.42977 0.19905 -0.20396
 H200 H 0.47115 0.24080 -0.20351
 H201 H 0.39670 0.15866 -0.17561
 H202 H 0.40864 0.14538 -0.07438
 H203 H 0.52390 0.25907 -0.07337
 H204 H 0.51110 0.27324 -0.17461
 C205 C 0.12533 -0.05292 0.30263
 C206 C 0.09649 -0.06099 0.31775
 C207 C 0.09646 -0.08485 0.34151
 C208 C 0.12503 -0.10038 0.35029
 C209 C 0.15376 -0.09189 0.33501
 C210 C 0.15404 -0.06825 0.31104
 C211 C 0.12548 -0.02798 0.27749
 C212 C 0.15425 -0.02018 0.26212
 C213 C 0.15422 0.00341 0.23808
 C214 C 0.12574 0.01937 0.22961
 C215 C 0.09714 0.01134 0.24544
 C216 C 0.09685 -0.01244 0.26930
 C217 C 0.18238 -0.05968 0.29523
 C218 C 0.18247 -0.03610 0.27114
 C219 C 0.06829 -0.04499 0.30882
 C220 C 0.06848 -0.02108 0.28505
 H221 H 0.20466 -0.07135 0.30149
 H222 H 0.20483 -0.03026 0.25949
 H223 H 0.04590 -0.05098 0.32033
 H224 H 0.04622 -0.00930 0.27891
 H225 H 0.07438 -0.09121 0.35344
 H226 H 0.17572 -0.10401 0.34161
 H227 H 0.17642 0.00960 0.22633
 H228 H 0.07503 0.02318 0.23892
 C229 C 0.62546 0.55307 -0.30236
 C230 C 0.65411 0.56856 -0.31069
 C231 C 0.65378 0.59220 -0.33466
 C232 C 0.62505 0.60052 -0.35001
 C233 C 0.59653 0.58484 -0.34128
 C234 C 0.59661 0.56097 -0.31754
 C235 C 0.62567 0.52809 -0.27725
 C236 C 0.59710 0.51235 -0.26916
 C237 C 0.59746 0.48851 -0.24537
 C238 C 0.62607 0.48063 -0.22949
 C239 C 0.65447 0.49681 -0.23783
 C240 C 0.65444 0.52045 -0.26181
 C241 C 0.56848 0.54479 -0.30870
 C242 C 0.56873 0.52084 -0.28497
 C243 C 0.68245 0.56016 -0.29482
 C244 C 0.68260 0.53656 -0.27074
 H245 H 0.54609 0.55065 -0.32026
 H246 H 0.54652 0.50890 -0.27891
 H247 H 0.70469 0.57196 -0.30101
 H248 H 0.70496 0.53084 -0.25904
 H249 H 0.67570 0.60443 -0.34122
 H250 H 0.57445 0.59108 -0.35327
 H251 H 0.57541 0.47648 -0.23894
 H252 H 0.67668 0.49073 -0.22603
 C253 C 0.37474 1.05293 0.80261
 C254 C 0.40359 1.06085 0.81780
 C255 C 0.40366 1.08471 0.84154
 C256 C 0.37514 1.10036 0.85024
 C257 C 0.34642 1.09203 0.83488
 C258 C 0.34610 1.06840 0.81092
 C259 C 0.37454 1.02796 0.77752
 C260 C 0.34578 1.02031 0.76207
 C261 C 0.34575 0.99668 0.73810
 C262 C 0.37415 0.98052 0.72977
 C263 C 0.40275 0.98841 0.74566
 C264 C 0.40311 1.01224 0.76945
 C265 C 0.31776 1.05999 0.79504
 C266 C 0.31761 1.03640 0.77098
 C267 C 0.43172 1.04469 0.80898
 C268 C 0.43147 1.02074 0.78526
 H269 H 0.29552 1.07178 0.80122
 H270 H 0.29526 1.03067 0.75928
 H271 H 0.45411 1.05056 0.82055
 H272 H 0.45368 1.00882 0.77922
 H273 H 0.42574 1.09095 0.85353
 H274 H 0.32450 1.10425 0.84142
 H275 H 0.32354 0.99059 0.72630
 H276 H 0.42480 0.97641 0.73924
 C277 C 0.87463 0.44695 0.19767
 C278 C 0.84604 0.43130 0.18945
 C279 C 0.84641 0.40767 0.16549
 C280 C 0.87513 0.39951 0.15005
 C281 C 0.90360 0.41532 0.15868
 C282 C 0.90347 0.43920 0.18240
 C283 C 0.87436 0.47195 0.22273
 C284 C 0.90287 0.48788 0.23068
 C285 C 0.90244 0.51178 0.25440
 C286 C 0.87384 0.51951 0.27035
 C287 C 0.84551 0.50313 0.26217
 C288 C 0.84560 0.47944 0.23825
 C289 C 0.93154 0.45555 0.19112
 C290 C 0.93123 0.47953 0.21480
 C291 C 0.81770 0.43955 0.20541
 C292 C 0.81750 0.46317 0.22945
 H293 H 0.95393 0.44980 0.17949
 H294 H 0.95339 0.49161 0.22075
 H295 H 0.79550 0.42762 0.19930
 H296 H 0.79515 0.46877 0.24121
 H297 H 0.82453 0.39533 0.15900
 H298 H 0.92567 0.40920 0.14663
 H299 H 0.92443 0.52396 0.26071
 H300 H 0.82331 0.50911 0.27403
 C301 C 0.30366 0.12483 -0.05373
 C302 C 0.31875 0.09569 -0.06192
 C303 C 0.34232 0.09580 -0.08567
 C304 C 0.35098 0.12482 -0.10092
 C305 C 0.33572 0.15384 -0.09233
 C306 C 0.31191 0.15397 -0.06883
 C307 C 0.27874 0.12483 -0.02888
 C308 C 0.26338 0.15390 -0.02097
 C309 C 0.23958 0.15373 0.00256
 C310 C 0.23136 0.12484 0.01837
 C311 C 0.24716 0.09595 0.01022
 C312 C 0.27076 0.09578 -0.01352
 C313 C 0.29612 0.18259 -0.06016
 C314 C 0.27221 0.18254 -0.03668
 C315 C 0.31001 0.06707 -0.04613
 C316 C 0.28647 0.06712 -0.02228
 H317 H 0.30226 0.20521 -0.07166
 H318 H 0.26058 0.20513 -0.03075
 H319 H 0.32150 0.04444 -0.05221
 H320 H 0.28048 0.04454 -0.01064
 H321 H 0.35423 0.07351 -0.09213
 H322 H 0.34224 0.17614 -0.10425
 H323 H 0.22784 0.17616 0.00886
 H324 H 0.24081 0.07353 0.02196
 C325 C 0.69641 0.62505 0.55383
 C326 C 0.68132 0.59589 0.56206
 C327 C 0.65780 0.59599 0.58586
 C328 C 0.64919 0.62500 0.60112
 C329 C 0.66444 0.65403 0.59249
 C330 C 0.68820 0.65417 0.56893
 C331 C 0.72126 0.62507 0.52892
 C332 C 0.73661 0.65415 0.52095
 C333 C 0.76035 0.65401 0.49735
 C334 C 0.76851 0.62513 0.48153
 C335 C 0.75272 0.59623 0.48974
 C336 C 0.72919 0.59603 0.51354
 C337 C 0.70398 0.68281 0.56021
 C338 C 0.72783 0.68278 0.53668
 C339 C 0.69001 0.56728 0.54626
 C340 C 0.71349 0.56736 0.52236
 H341 H 0.69788 0.70542 0.57171
 H342 H 0.73946 0.70538 0.53071
 H343 H 0.67853 0.54465 0.55238
 H344 H 0.71944 0.54479 0.51071
 H345 H 0.64589 0.57368 0.59235
 H346 H 0.65796 0.67631 0.60440
 H347 H 0.77207 0.67645 0.49101
 H348 H 0.75903 0.57381 0.47798
 C349 C 0.80376 0.37506 0.05393
 C350 C 0.81879 0.40423 0.06219
 C351 C 0.84233 0.40412 0.08597
 C352 C 0.85102 0.37510 0.10116
 C353 C 0.83583 0.34605 0.09249
 C354 C 0.81205 0.34591 0.06896
 C355 C 0.77888 0.37505 0.02904
 C356 C 0.76358 0.34596 0.02105
 C357 C 0.73981 0.34611 -0.00251
 C358 C 0.73157 0.37501 -0.01827
 C359 C 0.74731 0.40393 -0.01004
 C360 C 0.77086 0.40412 0.01373
 C361 C 0.79632 0.31727 0.06021
 C362 C 0.77244 0.31730 0.03671
 C363 C 0.81002 0.43286 0.04645
 C364 C 0.78651 0.43279 0.02257
 H365 H 0.80248 0.29464 0.07166
 H366 H 0.76086 0.29469 0.03072
 H367 H 0.82146 0.45550 0.05260
 H368 H 0.78050 0.45539 0.01098
 H369 H 0.85419 0.42644 0.09249
 H370 H 0.84238 0.32375 0.10436
 H371 H 0.72812 0.32367 -0.00888
 H372 H 0.74093 0.42636 -0.02175
 C373 C 0.19647 0.87507 0.44634
 C374 C 0.18133 0.90420 0.43819
 C375 C 0.15779 0.90409 0.41442
 C376 C 0.14921 0.87510 0.39910
 C377 C 0.16452 0.84609 0.40765
 C378 C 0.18831 0.84595 0.43119
 C379 C 0.22136 0.87505 0.47122
 C380 C 0.23677 0.84600 0.47911
 C381 C 0.26053 0.84615 0.50267
 C382 C 0.26867 0.87502 0.51854
 C383 C 0.25282 0.90390 0.51041
 C384 C 0.22926 0.90408 0.48664
 C385 C 0.20414 0.81734 0.43983
 C386 C 0.22802 0.81738 0.46333
 C387 C 0.18999 0.93279 0.45404
 C388 C 0.21350 0.93273 0.47792
 H389 H 0.19807 0.79473 0.42828
 H390 H 0.23969 0.79479 0.46924
 H391 H 0.17845 0.95541 0.44799
 H392 H 0.21942 0.95529 0.48960
 H393 H 0.14583 0.92638 0.40799
 H394 H 0.15808 0.82381 0.39569
 H395 H 0.27231 0.82373 0.50895
 H396 H 0.25911 0.92631 0.52220
   
