data_POSCAR
  _audit_creation_date              2014-09-24
  _audit_creation_method            'ToBaCCo'
  _symmetry_space_group_name_H-M    'P1'
  _symmetry_Int_Tables_number       1
  _symmetry_cell_setting            triclinic
  loop_
  _symmetry_equiv_pos_as_xyz
 x,y,z
_cell_length_a 19.8579
_cell_length_b 19.7673
_cell_length_c 34.7724
_cell_angle_alpha 91.801000
_cell_angle_beta 90.564300
_cell_angle_gamma 97.203900
loop_
  _atom_site_label
  _atom_site_type_symbol
  _atom_site_fract_x
  _atom_site_fract_y
  _atom_site_fract_z
C1 C 0.01418 0.68649 0.99599
 C2 C 0.02114 0.65701 1.03180
 C3 C 0.01666 0.58548 1.03320
 C4 C 0.00392 0.54312 0.99972
 C5 C -0.00384 0.57500 0.96442
 C6 C 0.00494 0.64633 0.96190
 C7 C 0.00066 0.46656 1.00135
 C8 C 0.00743 0.42601 0.96762
 C9 C 0.00499 0.35498 0.96906
 C10 C -0.00078 0.32363 1.00448
 C11 C -0.00526 0.36237 1.03840
 C12 C -0.00749 0.43286 1.03667
 H13 H 0.01651 0.74143 0.99458
 H14 H 0.02613 0.56402 1.06058
 H15 H -0.01816 0.54525 0.93840
 H16 H 0.01536 0.44829 0.93985
 H17 H -0.00069 0.26888 1.00570
 H18 H -0.01501 0.46019 1.06332
 C19 C 0.33386 0.04799 0.50608
 C20 C 0.37113 0.04742 0.54032
 C21 C 0.43899 0.03476 0.53887
 C22 C 0.46918 0.01814 0.50361
 C23 C 0.42989 0.01961 0.46945
 C24 C 0.36367 0.03726 0.47056
 C25 C 0.53978 -0.00285 0.50274
 C26 C 0.57661 -0.00411 0.46814
 C27 C 0.63974 -0.02958 0.46655
 C28 C 0.66925 -0.04755 0.50105
 C29 C 0.63585 -0.04404 0.53631
 C30 C 0.57066 -0.02342 0.53653
 H31 H 0.28093 0.05623 0.50700
 H32 H 0.46684 0.03757 0.56578
 H33 H 0.44912 0.00643 0.44167
 H34 H 0.55604 0.01285 0.44184
 H35 H 0.72111 -0.05938 0.50078
 H36 H 0.54400 -0.02598 0.56342
 C37 C 0.12742 0.06950 0.28389
 H38 H 0.12901 0.10543 0.26106
 C39 C 0.18037 0.07484 0.31104
 H40 H 0.22291 0.11447 0.30875
 C41 C 0.07032 -0.02552 0.31527
 H42 H 0.02692 -0.06429 0.31676
 C43 C 0.12139 -0.02117 0.34337
 H44 H 0.11714 -0.05660 0.36662
 N45 N 0.07368 0.01997 0.28660
 C46 C -0.04874 -0.07404 0.19025
 H47 H -0.08806 -0.04093 0.18867
 C48 C -0.04454 -0.12436 0.16158
 H49 H -0.08090 -0.13038 0.13792
 C50 C 0.04960 -0.10380 0.22153
 H51 H 0.08734 -0.09431 0.24428
 C52 C 0.05572 -0.15462 0.19343
 H53 H 0.09789 -0.18436 0.19472
 Zn54 Zn -0.00234 0.01273 0.25281
 N55 N -0.00161 -0.06424 0.21920
 C56 C 0.04954 0.09888 0.19519
 N57 N -0.00017 0.08987 0.22183
 C58 C -0.05011 0.13113 0.22376
 C59 C -0.05125 0.18400 0.19808
 C60 C 0.05045 0.15117 0.16912
 C61 C -0.13106 -0.04768 0.27947
 C62 C -0.18370 -0.05563 0.30599
 C63 C -0.13109 0.04522 0.34092
 C64 C -0.08008 0.05182 0.31352
 N65 N -0.08025 0.00503 0.28397
 H66 H 0.08753 0.06419 0.19362
 H67 H -0.09012 0.12205 0.24450
 H68 H -0.09184 0.21581 0.19932
 H69 H 0.08941 0.15685 0.14746
 H70 H -0.12989 -0.08466 0.25602
 H71 H -0.22334 -0.09840 0.30264
 H72 H -0.12905 0.08141 0.36508
 H73 H -0.03874 0.09290 0.31652
 C74 C 0.00891 -0.16422 0.16279
 C75 C 0.17655 0.03031 0.34183
 C76 C -0.18259 -0.01004 0.33783
 C77 C -0.00044 0.19434 0.17042
 C78 C 0.00202 0.12473 0.77324
 H79 H 0.00330 0.13484 0.74284
 C80 C 0.00278 0.17867 0.80037
 H81 H 0.00437 0.23052 0.79093
 C82 C -0.00187 0.04496 0.82295
 H83 H -0.00442 -0.00709 0.83183
 C84 C -0.00126 0.09709 0.85087
 H85 H -0.00274 0.08485 0.88103
 N86 N 0.00114 0.05954 0.78497
 C87 C 0.09591 -0.04801 0.69282
 H88 H 0.05959 -0.09349 0.68957
 C89 C 0.14939 -0.03694 0.66717
 H90 H 0.15413 -0.07408 0.64410
 C91 C 0.13207 0.05725 0.72578
 H92 H 0.12504 0.09394 0.74858
 C93 C 0.18727 0.06965 0.70123
 H94 H 0.22245 0.11589 0.70521
 Zn95 Zn 0.00451 -0.01289 0.74827
 N96 N 0.08622 0.00046 0.72013
 C97 C -0.05970 -0.00888 0.67563
 N98 N -0.07126 -0.01621 0.71389
 C99 C -0.13574 -0.02646 0.72747
 C100 C -0.19131 -0.03561 0.70188
 C101 C -0.11344 -0.01768 0.64921
 C102 C 0.06107 -0.10283 0.79501
 C103 C 0.06159 -0.15568 0.82061
 C104 C -0.05488 -0.19501 0.80251
 C105 C -0.05293 -0.14185 0.77681
 N106 N 0.00368 -0.09553 0.77469
 H107 H -0.00878 0.00312 0.66526
 H108 H -0.14395 -0.02941 0.75811
 H109 H -0.24232 -0.04610 0.71278
 H110 H -0.10329 -0.01348 0.61877
 H111 H 0.10528 -0.06520 0.79289
 H112 H 0.10639 -0.15885 0.83816
 H113 H -0.10128 -0.22940 0.80567
 H114 H -0.09771 -0.13611 0.76008
 C115 C 0.19422 0.02375 0.67037
 C116 C 0.00220 0.16478 0.83967
 C117 C 0.00248 -0.20119 0.82524
 C118 C -0.17986 -0.03333 0.66221
 C119 C -0.01810 -0.27622 0.12876
 C120 C -0.01317 -0.32086 0.09738
 C121 C 0.02833 -0.30147 0.06594
 C122 C 0.07104 -0.23778 0.06871
 C123 C 0.06519 -0.19221 0.10051
 C124 C 0.01920 -0.21137 0.13021
 C125 C 0.10607 -0.12861 0.10164
 N126 N 0.15235 -0.11347 0.07383
 N127 N 0.16061 -0.15763 0.04510
 C128 C 0.12217 -0.21931 0.04178
 H129 H -0.05279 -0.29166 0.15164
 H130 H -0.04608 -0.36896 0.09658
 H131 H 0.10229 -0.09112 0.12459
 H132 H 0.13297 -0.25380 0.01857
 C133 C -0.05935 0.23833 0.11534
 C134 C -0.06035 0.27867 0.08327
 C135 C -0.00564 0.32814 0.07569
 C136 C 0.05023 0.33890 0.10186
 C137 C 0.05093 0.29813 0.13469
 C138 C -0.00339 0.24597 0.14067
 C139 C 0.10648 0.31069 0.16044
 N140 N 0.15860 0.35947 0.15304
 N141 N 0.15891 0.39643 0.12167
 C142 C 0.10678 0.38768 0.09578
 H143 H -0.10124 0.19862 0.11944
 H144 H -0.10320 0.26966 0.06343
 H145 H 0.10875 0.28252 0.18649
 H146 H 0.11028 0.41891 0.07076
 C147 C 0.29185 -0.00847 0.63350
 C148 C 0.33576 -0.00212 0.60250
 C149 C 0.33600 0.05238 0.57766
 C150 C 0.29452 0.10417 0.58609
 C151 C 0.24795 0.09659 0.61684
 C152 C 0.24627 0.03906 0.64049
 C153 C 0.20290 0.14577 0.62168
 N154 N 0.20760 0.20060 0.59893
 N155 N 0.25371 0.20936 0.57142
 C156 C 0.29732 0.16311 0.56426
 H157 H 0.29134 -0.05260 0.65126
 H158 H 0.36697 -0.04233 0.59657
 H159 H 0.16364 0.14128 0.64301
 H160 H 0.33407 0.17299 0.54175
 C161 C -0.28512 -0.00224 0.63241
 C162 C -0.33142 -0.00578 0.60178
 C163 C -0.32952 -0.05398 0.57117
 C164 C -0.28617 -0.10565 0.57504
 C165 C -0.23883 -0.10159 0.60607
 C166 C -0.23624 -0.04726 0.63378
 C167 C -0.19615 -0.15302 0.60877
 N168 N -0.20215 -0.20593 0.58269
 N169 N -0.24825 -0.21115 0.55436
 C170 C -0.29080 -0.16334 0.54990
 H171 H -0.28452 0.03884 0.65384
 H172 H -0.36429 0.03390 0.60039
 H173 H -0.15923 -0.15257 0.63188
 H174 H -0.32916 -0.17179 0.52746
 C175 C -0.03997 -0.23318 0.88908
 C176 C -0.03770 -0.26875 0.92278
 C177 C 0.00264 -0.32203 0.92603
 C178 C 0.04144 -0.33950 0.89356
 C179 C 0.03835 -0.30305 0.85907
 C180 C -0.00146 -0.24870 0.85736
 C181 C 0.07660 -0.32112 0.82742
 N182 N 0.11768 -0.37049 0.83058
 N183 N 0.12350 -0.40241 0.86334
 C184 C 0.08765 -0.38819 0.89494
 H185 H -0.07033 -0.19133 0.88822
 H186 H -0.06849 -0.25459 0.94657
 H187 H 0.07434 -0.29626 0.80024
 H188 H 0.09728 -0.41410 0.92088
 C189 C -0.05272 0.22045 0.89312
 C190 C -0.05172 0.26590 0.92451
 C191 C 0.00607 0.31216 0.93343
 C192 C 0.06374 0.31350 0.90963
 C193 C 0.06268 0.26713 0.87752
 C194 C 0.00399 0.21987 0.86958
 C195 C 0.12159 0.26799 0.85532
 N196 N 0.17727 0.31276 0.86457
 N197 N 0.17827 0.35617 0.89470
 C198 C 0.12366 0.35785 0.91765
 H199 H -0.09771 0.18427 0.88759
 H200 H -0.09611 0.26415 0.94250
 H201 H 0.12419 0.23330 0.83088
 H202 H 0.12794 0.39336 0.94208
 C203 C -0.27475 0.02933 0.37684
 C204 C -0.31960 0.02398 0.40750
 C205 C -0.32399 -0.03223 0.43164
 C206 C -0.28629 -0.08701 0.42170
 C207 C -0.23866 -0.08018 0.39147
 C208 C -0.23293 -0.02126 0.36894
 C209 C -0.19770 -0.13262 0.38518
 N210 N -0.20839 -0.19045 0.40535
 N211 N -0.25704 -0.19934 0.43141
 C212 C -0.29669 -0.15005 0.43995
 H213 H -0.27114 0.07452 0.35975
 H214 H -0.34728 0.06676 0.41382
 H215 H -0.15739 -0.12853 0.36445
 H216 H -0.33693 -0.16110 0.46033
 C217 C 0.26312 -0.01874 0.38026
 C218 C 0.30925 -0.01695 0.41084
 C219 C 0.32311 0.04147 0.43483
 C220 C 0.29212 0.10038 0.42661
 C221 C 0.24338 0.09787 0.39633
 C222 C 0.22896 0.03756 0.37290
 C223 C 0.20923 0.15539 0.39148
 N224 N 0.22613 0.21255 0.41384
 N225 N 0.27437 0.21601 0.44093
 C226 C 0.30799 0.16204 0.44802
 H227 H 0.25269 -0.06520 0.36268
 H228 H 0.33236 -0.06243 0.41672
 H229 H 0.16891 0.15559 0.37045
 H230 H 0.34713 0.16801 0.47012
   
