data_POSCAR
  _audit_creation_date              2014-09-24
  _audit_creation_method            'ToBaCCo'
  _symmetry_space_group_name_H-M    'P1'
  _symmetry_Int_Tables_number       1
  _symmetry_cell_setting            triclinic
  loop_
  _symmetry_equiv_pos_as_xyz
 x,y,z
_cell_length_a 31.3157
_cell_length_b 30.5788
_cell_length_c 29.8998
_cell_angle_alpha 92.569000
_cell_angle_beta 91.324600
_cell_angle_gamma 88.103800
loop_
  _atom_site_label
  _atom_site_type_symbol
  _atom_site_fract_x
  _atom_site_fract_y
  _atom_site_fract_z
C1 C 0.15661 0.19942 0.22820
 C2 C 0.15054 0.23857 0.20561
 C3 C 0.17750 0.24758 0.17147
 C4 C 0.21085 0.21832 0.15968
 C5 C 0.21765 0.18021 0.18221
 C6 C 0.19009 0.17059 0.21657
 C7 C 0.13527 0.18136 0.26244
 N8 N 0.15509 0.14245 0.27168
 C9 C 0.18862 0.13577 0.24384
 C10 C 0.25314 0.15885 0.16389
 N11 N 0.26727 0.18329 0.13064
 C12 C 0.24147 0.21958 0.12791
 C13 C 0.16517 0.28751 0.15564
 N14 N 0.13137 0.30336 0.17944
 C15 C 0.12199 0.27374 0.21007
 H16 H 0.10758 0.19559 0.27934
 H17 H 0.21043 0.10752 0.24339
 H18 H 0.26724 0.12786 0.17377
 H19 H 0.24492 0.24534 0.10465
 H20 H 0.18011 0.30407 0.12915
 H21 H 0.09652 0.27767 0.23394
 C22 C -0.18080 0.78246 0.23541
 C23 C -0.18241 0.76942 0.18979
 C24 C -0.21681 0.78254 0.16315
 C25 C -0.24941 0.80971 0.18145
 C26 C -0.24814 0.82201 0.22645
 C27 C -0.21452 0.80695 0.25381
 C28 C -0.15007 0.77793 0.26888
 N29 N -0.16563 0.79732 0.30718
 C30 C -0.20514 0.81466 0.29835
 C31 C -0.28035 0.85297 0.23387
 N32 N -0.30102 0.85973 0.19430
 C33 C -0.28295 0.83261 0.16223
 C34 C -0.21085 0.76402 0.12091
 N35 N -0.17406 0.73939 0.12145
 C36 C -0.15609 0.74298 0.16324
 H37 H -0.11876 0.76215 0.26560
 H38 H -0.22431 0.83432 0.32187
 H39 H -0.28657 0.87112 0.26511
 H40 H -0.29121 0.83203 0.12686
 H41 H -0.23255 0.76674 0.09237
 H42 H -0.12708 0.72602 0.17415
 C43 C -0.17275 0.18261 -0.24108
 C44 C -0.15904 0.20709 -0.20284
 C45 C -0.18112 0.20576 -0.16335
 C46 C -0.21607 0.17874 -0.16110
 C47 C -0.23030 0.15526 -0.19878
 C48 C -0.20880 0.15776 -0.23916
 C49 C -0.15656 0.17584 -0.28353
 N50 N -0.18247 0.14808 -0.30730
 C51 C -0.21453 0.13718 -0.28045
 C52 C -0.26340 0.13019 -0.18596
 N53 N -0.26859 0.13741 -0.14121
 C54 C -0.23991 0.16717 -0.12589
 C55 C -0.16092 0.23241 -0.13175
 N56 N -0.12691 0.24936 -0.15110
 C57 C -0.12509 0.23382 -0.19428
 H58 H -0.12805 0.18978 -0.29594
 H59 H -0.23943 0.11453 -0.28975
 H60 H -0.28098 0.10714 -0.20718
 H61 H -0.23608 0.17900 -0.09138
 H62 H -0.16949 0.23810 -0.09705
 H63 H -0.10078 0.24146 -0.21764
 C64 C 0.16434 0.81806 -0.21444
 C65 C 0.16484 0.77773 -0.19416
 C66 C 0.19718 0.76691 -0.16402
 C67 C 0.23021 0.79587 -0.15486
 C68 C 0.23002 0.83587 -0.17474
 C69 C 0.19628 0.84733 -0.20416
 C70 C 0.13667 0.83692 -0.24496
 N71 N 0.15065 0.87734 -0.25272
 C72 C 0.18697 0.88402 -0.22786
 C73 C 0.26709 0.85620 -0.16088
 N74 N 0.28948 0.82913 -0.13336
 C75 C 0.26694 0.79240 -0.12935
 C76 C 0.18922 0.72606 -0.14920
 N77 N 0.15302 0.71203 -0.17011
 C78 C 0.13800 0.74319 -0.19779
 H79 H 0.10827 0.82253 -0.25983
 H80 H 0.20568 0.91320 -0.22758
 H81 H 0.27721 0.88783 -0.17069
 H82 H 0.27692 0.76468 -0.10987
 H83 H 0.20853 0.70766 -0.12563
 H84 H 0.10945 0.74090 -0.21879
 C85 C 0.15658 1.14548 0.79237
 C86 C 0.19726 1.14218 0.81284
 C87 C 0.20615 1.16598 0.85234
 C88 C 0.17388 1.19286 0.87231
 C89 C 0.13305 1.19347 0.85344
 C90 C 0.12471 1.17093 0.81265
 C91 C 0.14049 1.13048 0.75147
 N92 N 0.10003 1.14740 0.74608
 C93 C 0.08992 1.17167 0.78368
 C94 C 0.10777 1.22075 0.87988
 N95 N 0.13247 1.23860 0.91326
 C96 C 0.17317 1.22235 0.90880
 C97 C 0.24776 1.15516 0.86488
 N98 N 0.26384 1.12518 0.83420
 C99 C 0.23340 1.11762 0.80201
 H100 H 0.15800 1.11096 0.72651
 H101 H 0.06028 1.19034 0.78868
 H102 H 0.07438 1.22928 0.87355
 H103 H 0.20002 1.23123 0.93041
 H104 H 0.26433 1.16673 0.89507
 H105 H 0.23674 1.09451 0.77369
 C106 C 0.80423 0.83854 0.77583
 C107 C 0.77870 0.82969 0.81214
 C108 C 0.78737 0.79262 0.83623
 C109 C 0.82141 0.76363 0.82402
 C110 C 0.84641 0.77260 0.78820
 C111 C 0.83799 0.81034 0.76416
 C112 C 0.80335 0.87188 0.74633
 N113 N 0.83587 0.86467 0.71727
 C114 C 0.85732 0.82710 0.72802
 C115 C 0.87659 0.73917 0.78344
 N116 N 0.87071 0.70990 0.81542
 C117 C 0.83705 0.72461 0.84059
 C118 C 0.75806 0.79297 0.86991
 N119 N 0.73189 0.82913 0.86677
 C120 C 0.74417 0.85175 0.83146
 H121 H 0.78064 0.89937 0.74604
 H122 H 0.88463 0.81265 0.71064
 H123 H 0.90102 0.73630 0.75831
 H124 H 0.82464 0.70818 0.86862
 H125 H 0.75608 0.76881 0.89510
 H126 H 0.72954 0.88231 0.82101
 C127 C 0.22739 0.81674 1.25565
 C128 C 0.25489 0.82564 1.22146
 C129 C 0.24491 0.81370 1.17755
 C130 C 0.20703 0.79134 1.16774
 C131 C 0.17927 0.78268 1.20172
 C132 C 0.18897 0.79694 1.24623
 C133 C 0.22790 0.83069 1.29963
 N134 N 0.18996 0.82201 1.31756
 C135 C 0.16572 0.80095 1.28534
 C136 C 0.14553 0.76041 1.18191
 N137 N 0.15235 0.75552 1.13718
 C138 C 0.18932 0.77506 1.12825
 C139 C 0.27400 0.83351 1.15128
 N140 N 0.30025 0.85765 1.17879
 C141 C 0.28893 0.85254 1.22157
 H142 H 0.25272 0.84970 1.31621
 H143 H 0.13301 0.79159 1.28918
 H144 H 0.11864 0.74785 1.19884
 H145 H 0.20326 0.77578 1.09550
 H146 H 0.27319 0.83411 1.11510
 H147 H 0.30212 0.87037 1.25052
 C148 C 0.82438 1.15643 1.18516
 C149 C 0.78659 1.17279 1.16412
 C150 C 0.78751 1.21158 1.14160
 C151 C 0.82547 1.23450 1.13949
 C152 C 0.86236 1.21767 1.15898
 C153 C 0.86201 1.17828 1.18083
 C154 C 0.83412 1.12167 1.21252
 N155 N 0.87680 1.12173 1.22282
 C156 C 0.89381 1.15592 1.20300
 C157 C 0.89340 1.24795 1.15581
 N158 N 0.87639 1.28294 1.13466
 C159 C 0.83489 1.27493 1.12385
 C160 C 0.74749 1.21943 1.12371
 N161 N 0.72211 1.18622 1.13351
 C162 C 0.74546 1.15759 1.15862
 H163 H 0.81201 1.09828 1.22389
 H164 H 0.92681 1.16538 1.20648
 H165 H 0.92551 1.24572 1.16997
 H166 H 0.81257 1.29797 1.10868
 H167 H 0.73795 1.24660 1.10329
 H168 H 0.73390 1.12738 1.17063
 N169 N 0.45926 1.03267 0.90889
 N170 N 0.42825 1.02826 0.87846
 N171 N 0.54321 1.07567 0.93965
 N172 N 0.57685 1.09999 0.93792
 N173 N 0.54934 1.03812 0.91714
 N174 N 0.58787 1.03615 0.89946
 N175 N 0.45413 1.06974 0.93239
 N176 N 0.41947 1.09158 0.91882
 C177 C 0.40392 1.06531 0.88513
 C178 C 0.60388 1.07567 0.91204
 N179 N 0.53856 1.08087 1.06991
 N180 N 0.56941 1.09572 1.09704
 N181 N 0.44808 1.09622 1.02539
 N182 N 0.41515 1.12383 1.02224
 N183 N 0.44821 1.07642 1.06345
 N184 N 0.41473 1.08970 1.08727
 N185 N 0.53693 1.10204 1.03259
 N186 N 0.56594 1.13234 1.03348
 Mn187 Mn 0.49542 1.08620 0.98231
 C188 C 0.58603 1.12778 1.07353
 C189 C 0.39456 1.11906 1.06073
 N190 N 0.55533 0.94657 0.93975
 N191 N 0.58812 0.93164 0.91561
 N192 N 0.46557 0.92201 0.97049
 N193 N 0.43714 0.89135 0.96978
 N194 N 0.46510 0.94199 0.93246
 N195 N 0.43532 0.92571 0.90480
 N196 N 0.55444 0.92642 0.97761
 N197 N 0.58632 0.89734 0.98040
 Mn198 Mn 0.50740 0.98971 0.92379
 C199 C 0.60718 0.90123 0.94182
 C200 C 0.41840 0.89425 0.92902
 N201 N 0.45465 0.98625 1.08652
 N202 N 0.42328 0.98602 1.11506
 N203 N 0.54753 0.95303 1.07020
 N204 N 0.57712 0.92712 1.08776
 N205 N 0.54368 0.99014 1.09386
 N206 N 0.57023 0.99017 1.12892
 N207 N 0.45796 0.94864 1.06362
 N208 N 0.42869 0.92163 1.07601
 Mn209 Mn 0.49636 1.03364 1.07897
 Mn210 Mn 0.50634 0.93723 1.02053
 Cl211 Cl 0.50144 1.01164 1.00138
 C212 C 0.40718 0.94584 1.10775
 C213 C 0.59114 0.95084 1.12390
 N214 N 0.04347 0.49218 0.08773
 N215 N 0.04297 0.46763 0.12273
 N216 N 0.07332 0.56966 0.03492
 N217 N 0.09817 0.60357 0.03480
 N218 N 0.03989 0.57843 0.06001
 N219 N 0.04173 0.61849 0.07869
 N220 N 0.07698 0.48236 0.06315
 N221 N 0.10005 0.45010 0.08078
 C222 C 0.07845 0.44195 0.11821
 C223 C 0.07823 0.63352 0.06224
 N224 N 0.06139 0.52736 -0.08953
 N225 N 0.06665 0.55060 -0.12469
 N226 N 0.09104 0.45152 -0.02836
 N227 N 0.11190 0.41628 -0.01391
 N228 N 0.06661 0.44110 -0.06328
 N229 N 0.07056 0.39890 -0.07362
 N230 N 0.08706 0.53944 -0.05626
 N231 N 0.11037 0.57237 -0.06795
 Mn232 Mn 0.08278 0.51071 0.00350
 C233 C 0.09720 0.57825 -0.11098
 C234 C 0.09968 0.38408 -0.04355
 N235 N -0.05160 0.57114 0.04510
 N236 N -0.06466 0.60905 0.06340
 N237 N -0.07122 0.47106 0.03854
 N238 N -0.09019 0.43451 0.04751
 N239 N -0.04677 0.48434 0.07259
 N240 N -0.04843 0.45706 0.10539
 N241 N -0.07746 0.55857 0.01207
 N242 N -0.10880 0.58808 0.00672
 Mn243 Mn -0.00393 0.53190 0.06668
 C244 C -0.09991 0.61936 0.03879
 C245 C -0.07608 0.42678 0.08964
 N246 N -0.02309 0.43516 -0.07788
 N247 N -0.02056 0.39566 -0.09678
 N248 N -0.06339 0.52927 -0.07916
 N249 N -0.08720 0.56226 -0.09412
 N250 N -0.02930 0.52234 -0.10370
 N251 N -0.02929 0.55010 -0.13629
 N252 N -0.05761 0.44080 -0.05397
 N253 N -0.08017 0.40465 -0.05661
 Mn254 Mn 0.01891 0.48157 -0.08386
 Mn255 Mn -0.06810 0.49970 -0.02067
 Cl256 Cl 0.00744 0.50602 -0.00851
 C257 C -0.05596 0.37698 -0.08337
 C258 C -0.06578 0.57428 -0.13013
 N259 N 1.07199 0.04236 0.45311
 N260 N 1.10355 0.04274 0.42485
 N261 N 1.02203 0.08741 0.53428
 N262 N 1.01519 0.11663 0.56759
 N263 N 1.05519 0.06175 0.54351
 N264 N 1.07210 0.07281 0.58292
 N265 N 1.04135 0.07069 0.44266
 N266 N 1.05134 0.09132 0.40643
 C267 C 1.09031 0.07336 0.39611
 C268 C 1.04722 0.10717 0.59724
 N269 N 0.90628 0.04339 0.50858
 N270 N 0.87252 0.04977 0.53360
 N271 N 0.95220 0.05978 0.42240
 N272 N 0.95320 0.07915 0.38406
 N273 N 0.92757 0.02574 0.41899
 N274 N 0.91032 0.02159 0.37813
 N275 N 0.93196 0.07643 0.51351
 N276 N 0.91638 0.10628 0.54296
 Mn277 Mn 0.98672 0.07432 0.47841
 C278 C 0.87906 0.08886 0.55464
 C279 C 0.92652 0.05560 0.35714
 N280 N 1.06414 -0.02802 0.56109
 N281 N 1.08748 -0.02297 0.59780
 N282 N 1.05630 -0.08287 0.47189
 N283 N 1.07280 -0.11703 0.44874
 N284 N 1.08155 -0.04940 0.47143
 N285 N 1.11635 -0.06003 0.44903
 N286 N 1.03921 -0.06154 0.56298
 N287 N 1.04592 -0.08108 0.60148
 Mn288 Mn 1.06846 0.00665 0.50696
 C289 C 1.07577 -0.05574 0.62276
 C290 C 1.11005 -0.10184 0.43455
 N291 N 0.93717 -0.06701 0.43769
 N292 N 0.91096 -0.08786 0.40976
 N293 N 0.94783 -0.07229 0.54235
 N294 N 0.93730 -0.09039 0.57979
 N295 N 0.91621 -0.04704 0.52753
 N296 N 0.88369 -0.04661 0.55478
 N297 N 0.96682 -0.09441 0.45293
 N298 N 0.96085 -0.13445 0.43580
 Mn299 Mn 0.92161 -0.01137 0.47272
 Mn300 Mn 1.00257 -0.07829 0.50796
 Cl301 Cl 0.99477 -0.00225 0.49139
 C302 C 0.92686 -0.12942 0.40763
 C303 C 0.89718 -0.07388 0.58683
 N304 N 1.14870 0.05970 0.34552
 N305 N 1.16723 0.07742 0.31174
 C306 C 1.14450 0.11446 0.30342
 C307 C 1.11100 0.11894 0.33300
 N308 N 1.11506 0.08388 0.35868
 H309 H 1.08699 0.14509 0.33634
 N310 N 0.86357 -0.16956 0.41356
 N311 N 0.83569 -0.18846 0.38575
 C312 C 0.85568 -0.19608 0.34667
 C313 C 0.89676 -0.18113 0.35128
 N314 N 0.90030 -0.16456 0.39364
 H315 H 0.91850 -0.17540 0.32466
 N316 N 0.81139 0.09158 0.59088
 N317 N 0.79376 0.10613 0.62862
 C318 C 0.82267 0.13155 0.65014
 C319 C 0.85874 0.13272 0.62410
 N320 N 0.85018 0.10690 0.58745
 H321 H 0.88914 0.14711 0.63263
 N322 N 1.12375 -0.03513 0.68313
 N323 N 1.14581 -0.05233 0.71654
 C324 C 1.13241 -0.09345 0.71919
 C325 C 1.10092 -0.10108 0.68656
 N326 N 1.09689 -0.06361 0.66464
 H327 H 1.08537 -0.13136 0.67732
 N328 N 0.34494 1.18007 1.05084
 N329 N 0.31048 1.19865 1.06915
 C330 C 0.30104 1.17417 1.10377
 C331 C 0.33083 1.13993 1.10648
 N332 N 0.35763 1.14510 1.07271
 H333 H 0.33308 1.11426 1.13028
 N334 N 0.38190 0.82641 0.93103
 N335 N 0.34685 0.80781 0.91527
 C336 C 0.32792 0.83613 0.88719
 C337 C 0.35272 0.87272 0.88555
 N338 N 0.38612 0.86503 0.91361
 H339 H 0.34630 0.90247 0.86794
 N340 N 0.62710 0.94795 1.19726
 N341 N 0.65576 0.92247 1.21785
 C342 C 0.66846 0.89132 1.18709
 C343 C 0.64710 0.89827 1.14731
 N344 N 0.62178 0.93385 1.15505
 H345 H 0.64920 0.87935 1.11592
 N346 N 0.66813 1.10594 0.94322
 N347 N 0.70255 1.12498 0.92979
 C348 C 0.70322 1.11829 0.88500
 C349 C 0.66849 1.09379 0.87120
 N350 N 0.64745 1.08691 0.90887
 H351 H 0.65719 1.08602 0.83738
 N352 N 0.06488 0.39837 0.18183
 N353 N 0.07770 0.36091 0.19914
 C354 C 0.10966 0.34465 0.17334
 C355 C 0.11635 0.37312 0.13979
 N356 N 0.08768 0.40623 0.14644
 H357 H 0.13845 0.36952 0.11247
 N358 N -0.03628 0.30687 -0.11729
 N359 N -0.05392 0.27209 -0.13680
 C360 C -0.09599 0.27661 -0.12921
 C361 C -0.10399 0.31528 -0.10448
 N362 N -0.06552 0.33317 -0.09787
 H363 H -0.13458 0.33070 -0.09624
 N364 N 0.09264 0.61758 -0.17883
 N365 N 0.10647 0.65339 -0.19604
 C366 C 0.13368 0.67097 -0.16533
 C367 C 0.13630 0.64517 -0.12851
 N368 N 0.10995 0.61215 -0.13854
 H369 H 0.15370 0.65079 -0.09719
 N370 N -0.16170 0.66855 0.02606
 N371 N -0.18230 0.70155 0.04744
 C372 C -0.15966 0.71031 0.08558
 C373 C -0.12473 0.68196 0.08708
 N374 N -0.12721 0.65649 0.04943
 H375 H -0.10121 0.67840 0.11387
 N376 N 1.02368 0.15429 0.66095
 N377 N 1.03702 0.16501 0.70235
 C378 C 1.07514 0.14383 0.70830
 C379 C 1.08488 0.11997 0.66958
 N380 N 1.05208 0.12748 0.64093
 H381 H 1.11271 0.09901 0.66275
 N382 N 0.83740 -0.05882 0.63598
 N383 N 0.81995 -0.07447 0.67163
 C384 C 0.84447 -0.10951 0.68293
 C385 C 0.87779 -0.11485 0.65332
 N386 N 0.87200 -0.08244 0.62460
 H387 H 0.90314 -0.13977 0.65219
 N388 N 1.18324 -0.12138 0.41902
 N389 N 1.20615 -0.14176 0.38748
 C390 C 1.17838 -0.16170 0.35875
 C391 C 1.13731 -0.15351 0.37410
 N392 N 1.14209 -0.12780 0.41168
 H393 H 1.10728 -0.16065 0.35712
 N394 N 0.95554 0.07373 0.28739
 N395 N 0.94315 0.09335 0.25065
 C396 C 0.90009 0.09515 0.25012
 C397 C 0.88623 0.07533 0.28782
 N398 N 0.92220 0.06272 0.31032
 H399 H 0.85423 0.07623 0.30087
 N400 N 0.07002 0.31511 -0.03099
 N401 N 0.07743 0.27387 -0.04435
 C402 C 0.11827 0.27069 -0.05755
 C403 C 0.13570 0.31164 -0.05206
 N404 N 0.10432 0.33854 -0.03555
 H405 H 0.16468 0.32224 -0.06676
 N406 N -0.05798 0.37420 0.14567
 N407 N -0.06915 0.33530 0.15816
 C408 C -0.10226 0.32339 0.13125
 C409 C -0.11124 0.35609 0.10163
 N410 N -0.08266 0.38720 0.11193
 H411 H -0.13532 0.35694 0.07511
 N412 N -0.05565 0.62329 -0.19042
 N413 N -0.07195 0.66032 -0.20588
 C414 C -0.10506 0.67256 -0.17956
 C415 C -0.10882 0.64178 -0.14744
 N416 N -0.07727 0.61162 -0.15558
 H417 H -0.13132 0.64161 -0.12051
 N418 N 0.11402 0.69791 0.04114
 N419 N 0.13452 0.73128 0.06014
 C420 C 0.12782 0.73061 0.10445
 C421 C 0.10228 0.69568 0.11218
 N422 N 0.09436 0.67627 0.07158
 H423 H 0.09443 0.68286 0.14403
 N424 N 0.35297 1.05216 0.82371
 N425 N 0.31558 1.06774 0.80874
 C426 C 0.30422 1.10164 0.83687
 C427 C 0.33570 1.10650 0.86966
 N428 N 0.36551 1.07491 0.86010
 H429 H 0.33642 1.12961 0.89814
 N430 N 0.36190 0.95095 1.17198
 N431 N 0.33352 0.92820 1.19224
 C432 C 0.32785 0.89140 1.16661
 C433 C 0.35375 0.89192 1.12982
 N434 N 0.37455 0.92985 1.13476
 H435 H 0.35792 0.86713 1.10315
 N436 N 0.62427 1.19502 1.07391
 N437 N 0.66020 1.21196 1.08959
 C438 C 0.67932 1.18195 1.11570
 C439 C 0.65378 1.14574 1.11577
 N440 N 0.61970 1.15552 1.08914
 H441 H 0.66048 1.11469 1.13092
 N442 N 0.65792 0.84110 0.95393
 N443 N 0.69119 0.82067 0.93485
 C444 C 0.69806 0.84139 0.89697
 C445 C 0.66790 0.87531 0.89321
 N446 N 0.64348 0.87382 0.92961
 H447 H 0.66398 0.89844 0.86696
   
