data_POSCAR
  _audit_creation_date              2014-09-24
  _audit_creation_method            'ToBaCCo'
  _symmetry_space_group_name_H-M    'P1'
  _symmetry_Int_Tables_number       1
  _symmetry_cell_setting            triclinic
  loop_
  _symmetry_equiv_pos_as_xyz
 x,y,z
_cell_length_a 42.2317
_cell_length_b 42.1893
_cell_length_c 42.2147
_cell_angle_alpha 89.885700
_cell_angle_beta 90.050900
_cell_angle_gamma 89.801400
loop_
  _atom_site_label
  _atom_site_type_symbol
  _atom_site_fract_x
  _atom_site_fract_y
  _atom_site_fract_z
C1 C 0.25372 1.02170 0.00865
 C2 C 0.25107 1.02206 -0.02463
 C3 C 0.24808 0.99326 -0.04097
 C4 C 0.24741 0.96417 -0.02465
 C5 C 0.24960 0.96409 0.00873
 C6 C 0.25287 0.99281 0.02486
 H7 H 0.25467 0.99264 0.05055
 H8 H 0.24623 0.99350 -0.06664
 C9 C 0.74732 0.46242 0.47500
 C10 C 0.74964 0.46269 0.50833
 C11 C 0.75321 0.49154 0.52414
 C12 C 0.75422 0.52016 0.50756
 C13 C 0.75144 0.52016 0.47439
 C14 C 0.74816 0.49128 0.45836
 H15 H 0.74622 0.49127 0.43272
 H16 H 0.75511 0.49176 0.54980
 C17 C 0.74646 1.00947 1.01959
 C18 C 0.74848 0.97619 1.01995
 C19 C 0.75121 0.95973 0.99125
 C20 C 0.75196 0.97593 0.96217
 C21 C 0.74977 1.00933 0.96197
 C22 C 0.74706 1.02564 0.99069
 H23 H 0.74548 1.05138 0.99058
 H24 H 0.75284 0.93405 0.99158
 C25 C 0.25168 0.47533 0.46379
 C26 C 0.24969 0.50872 0.46338
 C27 C 0.24724 0.52523 0.49198
 C28 C 0.24668 0.50929 0.52097
 C29 C 0.24848 0.47604 0.52159
 C30 C 0.25098 0.45932 0.49300
 H31 H 0.25245 0.43364 0.49351
 H32 H 0.24581 0.55094 0.49169
 C33 C 1.02034 0.25416 -0.00884
 C34 C 1.02082 0.25196 0.02442
 C35 C 0.99219 0.24911 0.04097
 C36 C 0.96309 0.24844 0.02486
 C37 C 0.96280 0.25082 -0.00846
 C38 C 0.99140 0.25364 -0.02486
 H39 H 0.99109 0.25534 -0.05056
 H40 H 0.99257 0.24734 0.06662
 C41 C 0.46309 0.75117 0.49151
 C42 C 0.46351 0.74905 0.52487
 C43 C 0.49271 0.74962 0.54082
 C44 C 0.52128 0.75210 0.52409
 C45 C 0.52065 0.75401 0.49087
 C46 C 0.49167 0.75360 0.47498
 H47 H 0.49136 0.75511 0.44929
 H48 H 0.49323 0.74806 0.56649
 C49 C -0.02432 0.75220 0.03665
 C50 C 0.00907 0.75006 0.03676
 C51 C 0.02526 0.74695 0.00805
 C52 C 0.00910 0.74619 -0.02082
 C53 C -0.02413 0.74871 -0.02118
 C54 C -0.04054 0.75156 0.00756
 H55 H -0.06620 0.75334 0.00719
 H56 H 0.05095 0.74523 0.00821
 C57 C 0.50782 0.24473 0.47988
 C58 C 0.47467 0.24758 0.47992
 C59 C 0.45864 0.25082 0.50882
 C60 C 0.47527 0.25154 0.53765
 C61 C 0.50859 0.24910 0.53735
 C62 C 0.52439 0.24558 0.50847
 H63 H 0.55004 0.24361 0.50821
 H64 H 0.43302 0.25285 0.50886
 C65 C 0.97926 -0.01020 0.25504
 C66 C 0.97886 0.02304 0.25241
 C67 C 1.00756 0.03942 0.24951
 C68 C 1.03665 0.02316 0.24890
 C69 C 1.03683 -0.01024 0.25113
 C70 C 1.00813 -0.02644 0.25432
 H71 H 1.00825 -0.05216 0.25612
 H72 H 1.00724 0.06508 0.24764
 C73 C 0.47975 0.49208 0.75638
 C74 C 0.47955 0.52526 0.75357
 C75 C 0.50832 0.54144 0.75030
 C76 C 0.53726 0.52492 0.74947
 C77 C 0.53719 0.49156 0.75185
 C78 C 0.50845 0.47562 0.75543
 H79 H 0.50838 0.44994 0.75734
 H80 H 0.50818 0.56709 0.74830
 C81 C 1.02435 0.98034 0.74695
 C82 C 0.99118 0.98071 0.74468
 C83 C 0.97496 1.00957 0.74510
 C84 C 0.99115 1.03833 0.74793
 C85 C 1.02450 1.03814 0.75040
 C86 C 1.04075 1.00903 0.74978
 H87 H 1.06638 1.00869 0.75163
 H88 H 0.94928 1.00956 0.74334
 C89 C 0.52431 0.47861 0.24671
 C90 C 0.49110 0.47933 0.24486
 C91 C 0.47523 0.50839 0.24530
 C92 C 0.49176 0.53695 0.24772
 C93 C 0.52510 0.53644 0.24979
 C94 C 0.54105 0.50716 0.24917
 H95 H 0.56670 0.50657 0.25070
 H96 H 0.44954 0.50876 0.24384
 O97 O 0.26747 0.16788 0.18824
 O98 O 0.30311 0.15888 0.23264
 O99 O 0.18489 0.20483 0.23487
 O100 O 0.17304 0.24616 0.26598
 O101 O 0.22273 0.25070 0.15107
 O102 O 0.26884 0.28574 0.14268
 O103 O 0.26603 0.29326 0.31540
 O104 O 0.22940 0.24960 0.32293
 O105 O 0.34815 0.24958 0.27778
 O106 O 0.35774 0.21384 0.23228
 O107 O 0.30986 0.33157 0.23554
 O108 O 0.27111 0.33936 0.19724
 O109 O 0.26787 0.33137 0.27720
 O110 O 0.22821 0.33776 0.23602
 O111 O 0.34783 0.29301 0.23539
 O112 O 0.35846 0.24848 0.19935
 O113 O 0.30988 0.25095 0.31568
 O114 O 0.27191 0.21539 0.32605
 O115 O 0.26725 0.20665 0.15061
 O116 O 0.30186 0.24989 0.14211
 O117 O 0.18467 0.24970 0.18923
 O118 O 0.17688 0.28584 0.23396
 O119 O 0.22332 0.16689 0.23305
 O120 O 0.26874 0.15642 0.26650
 Zr121 Zr 0.26589 0.19253 0.23173
 O122 O 0.29476 0.21954 0.26203
 Zr123 Zr 0.20994 0.24802 0.23218
 O124 O 0.23692 0.27758 0.26196
 Zr125 Zr 0.26562 0.24889 0.17660
 O126 O 0.29496 0.27790 0.20431
 Zr127 Zr 0.26725 0.25008 0.29011
 O128 O 0.23777 0.21979 0.26294
 Zr129 Zr 0.32295 0.25000 0.23469
 O130 O 0.29638 0.22056 0.20409
 Zr131 Zr 0.26722 0.30592 0.23452
 O132 O 0.23730 0.27926 0.20423
 O133 O 0.23632 0.21903 0.20249
 O134 O 0.29683 0.27969 0.26424
 C135 C 0.26795 0.17757 0.15935
 C136 C 0.19434 0.17580 0.23490
 C137 C 0.19377 0.25102 0.16026
 C138 C 0.26667 0.32232 0.30617
 C139 C 0.33887 0.25023 0.30671
 C140 C 0.33882 0.32207 0.23575
 H141 H 0.30751 0.20509 0.27545
 H142 H 0.30792 0.29130 0.19014
 H143 H 0.22275 0.20555 0.18899
 H144 H 0.22252 0.29070 0.27501
 H145 H 0.21591 0.23125 0.31746
 H146 H 0.18075 0.25692 0.28527
 H147 H 0.35345 0.26504 0.18349
 H148 H 0.31897 0.23584 0.14999
 H149 H 0.26129 0.19619 0.31808
 H150 H 0.25137 0.16012 0.28178
 H151 H 0.25203 0.33699 0.18385
 H152 H 0.25055 0.30004 0.14607
 H153 H 0.31900 0.16603 0.21697
 H154 H 0.35315 0.19827 0.24920
 H155 H 0.18330 0.30139 0.21763
 H156 H 0.23660 0.35954 0.23857
 O157 O 0.74930 0.84881 0.22164
 O158 O 0.71422 0.85719 0.26565
 O159 O 0.83224 0.81097 0.26737
 O160 O 0.84335 0.76988 0.29977
 O161 O 0.79562 0.76598 0.18399
 O162 O 0.74918 0.73151 0.17443
 O163 O 0.75056 0.72235 0.34762
 O164 O 0.78738 0.76513 0.35540
 O165 O 0.66911 0.76486 0.30982
 O166 O 0.65968 0.80223 0.26424
 O167 O 0.70711 0.68418 0.26591
 O168 O 0.74683 0.67676 0.22897
 O169 O 0.74816 0.68451 0.30931
 O170 O 0.78860 0.67784 0.26861
 O171 O 0.66915 0.72272 0.26580
 O172 O 0.65842 0.76768 0.23143
 O173 O 0.70734 0.76396 0.34786
 O174 O 0.74485 0.80020 0.35794
 O175 O 0.75042 0.81071 0.18352
 O176 O 0.71647 0.76720 0.17371
 O177 O 0.83324 0.76628 0.22265
 O178 O 0.84050 0.73014 0.26677
 O179 O 0.79373 0.84888 0.26572
 O180 O 0.74825 0.85851 0.30012
 Zr181 Zr 0.75121 0.82331 0.26457
 O182 O 0.72209 0.79597 0.29433
 Zr183 Zr 0.80727 0.76783 0.26503
 O184 O 0.78006 0.73793 0.29428
 Zr185 Zr 0.75215 0.76777 0.20886
 O186 O 0.72250 0.73843 0.23610
 Zr187 Zr 0.74971 0.76536 0.32230
 O188 O 0.77937 0.79586 0.29569
 Zr189 Zr 0.69415 0.76574 0.26656
 O190 O 0.72101 0.79554 0.23639
 Zr191 Zr 0.74983 0.70993 0.26644
 O192 O 0.78004 0.73696 0.23662
 O193 O 0.78109 0.79723 0.23532
 O194 O 0.72016 0.73588 0.29611
 C195 C 0.74907 0.83967 0.19266
 C196 C 0.82272 0.83995 0.26721
 C197 C 0.82454 0.76524 0.19358
 C198 C 0.74934 0.69343 0.33832
 C199 C 0.67840 0.76408 0.33880
 C200 C 0.67811 0.69363 0.26552
 H201 H 0.70923 0.81022 0.30778
 H202 H 0.70970 0.72526 0.22160
 H203 H 0.79464 0.81078 0.22184
 H204 H 0.79430 0.72461 0.30738
 H205 H 0.80105 0.78344 0.35021
 H206 H 0.83611 0.75741 0.31824
 H207 H 0.66447 0.75271 0.21446
 H208 H 0.69916 0.78100 0.18151
 H209 H 0.75709 0.81876 0.35078
 H210 H 0.76642 0.85535 0.31462
 H211 H 0.76598 0.67958 0.21580
 H212 H 0.76717 0.71690 0.17815
 H213 H 0.69782 0.84974 0.25067
 H214 H 0.66315 0.81657 0.28242
 H215 H 0.83362 0.71426 0.25100
 H216 H 0.78002 0.65616 0.27139
 O217 O 0.75102 0.16588 0.79089
 O218 O 0.71958 0.15576 0.74759
 O219 O 0.83374 0.20865 0.74897
 O220 O 0.84645 0.25101 0.72205
 O221 O 0.79098 0.25026 0.83359
 O222 O 0.74827 0.27845 0.84539
 O223 O 0.74867 0.29213 0.66716
 O224 O 0.78300 0.25241 0.65681
 O225 O 0.66763 0.25095 0.70744
 O226 O 0.65574 0.21863 0.74932
 O227 O 0.70824 0.33303 0.74851
 O228 O 0.74749 0.34083 0.78470
 O229 O 0.74775 0.33091 0.70458
 O230 O 0.78912 0.33717 0.74639
 O231 O 0.66957 0.29550 0.74884
 O232 O 0.66173 0.24736 0.78774
 O233 O 0.70498 0.25104 0.66862
 O234 O 0.75128 0.21188 0.66091
 O235 O 0.74904 0.20261 0.83027
 O236 O 0.71011 0.24866 0.83703
 O237 O 0.83045 0.25082 0.79693
 O238 O 0.83674 0.29012 0.75077
 O239 O 0.79719 0.16910 0.74835
 O240 O 0.75183 0.16141 0.71072
 Zr241 Zr 0.75286 0.19300 0.74956
 O242 O 0.72152 0.22015 0.72161
 Zr243 Zr 0.80680 0.25000 0.75248
 O244 O 0.77961 0.27784 0.72109
 Zr245 Zr 0.74983 0.24707 0.80652
 O246 O 0.72194 0.27844 0.77931
 Zr247 Zr 0.74883 0.25020 0.69328
 O248 O 0.78060 0.22193 0.72019
 Zr249 Zr 0.69373 0.25111 0.74935
 O250 O 0.72062 0.21926 0.77765
 Zr251 Zr 0.74965 0.30626 0.74847
 O252 O 0.77793 0.27935 0.78032
 O253 O 0.78080 0.21908 0.78049
 O254 O 0.71961 0.28027 0.71931
 C255 C 0.74940 0.17386 0.82003
 C256 C 0.82586 0.17944 0.74791
 C257 C 0.82014 0.25123 0.82564
 C258 C 0.74792 0.32117 0.67567
 C259 C 0.67610 0.25113 0.67840
 C260 C 0.67925 0.32447 0.74859
 H261 H 0.70811 0.20579 0.70895
 H262 H 0.70924 0.29196 0.79364
 H263 H 0.79449 0.20554 0.79397
 H264 H 0.79380 0.29073 0.70762
 H265 H 0.80181 0.24073 0.66464
 H266 H 0.83805 0.25443 0.70045
 H267 H 0.66138 0.26797 0.79890
 H268 H 0.69774 0.22914 0.83323
 H269 H 0.73110 0.20010 0.66186
 H270 H 0.77007 0.16676 0.69702
 H271 H 0.76503 0.33601 0.79954
 H272 H 0.74813 0.30005 0.83626
 H273 H 0.70073 0.16321 0.75937
 H274 H 0.66405 0.19859 0.74045
 H275 H 0.83300 0.30235 0.77042
 H276 H 0.78114 0.35877 0.74146
 O277 O 0.23398 0.81590 0.79613
 O278 O 0.26875 0.82520 0.75186
 O279 O 0.15121 0.77802 0.74882
 O280 O 0.14048 0.73710 0.71725
 O281 O 0.18854 0.73364 0.83276
 O282 O 0.23501 0.69790 0.84173
 O283 O 0.23504 0.69023 0.66942
 O284 O 0.19687 0.73291 0.66146
 O285 O 0.31518 0.73407 0.70691
 O286 O 0.32455 0.76966 0.75292
 O287 O 0.27710 0.65173 0.75063
 O288 O 0.23784 0.64451 0.78790
 O289 O 0.23675 0.65226 0.70780
 O290 O 0.19589 0.64585 0.74798
 O291 O 0.31492 0.69016 0.75009
 O292 O 0.32559 0.73502 0.78552
 O293 O 0.27701 0.73339 0.66884
 O294 O 0.23854 0.76834 0.65871
 O295 O 0.23373 0.77732 0.83391
 O296 O 0.26749 0.73397 0.84328
 O297 O 0.15098 0.73402 0.79403
 O298 O 0.14446 0.69711 0.74990
 O299 O 0.18913 0.81620 0.75117
 O300 O 0.23490 0.82686 0.71762
 Zr301 Zr 0.23225 0.79104 0.75268
 O302 O 0.26167 0.76400 0.72276
 Zr303 Zr 0.17688 0.73528 0.75169
 O304 O 0.20435 0.70576 0.72230
 Zr305 Zr 0.23198 0.73495 0.80798
 O306 O 0.26190 0.70595 0.78062
 Zr307 Zr 0.23458 0.73342 0.69449
 O308 O 0.20461 0.76365 0.72126
 Zr309 Zr 0.29000 0.73353 0.75021
 O310 O 0.26284 0.76303 0.78054
 Zr311 Zr 0.23460 0.67773 0.75033
 O312 O 0.20420 0.70436 0.78022
 O313 O 0.20269 0.76457 0.78163
 O314 O 0.26424 0.70382 0.72067
 C315 C 0.23470 0.80639 0.82509
 C316 C 0.16026 0.80703 0.74911
 C317 C 0.15968 0.73324 0.82309
 C318 C 0.23626 0.66126 0.67882
 C319 C 0.30597 0.73399 0.67786
 C320 C 0.30600 0.66108 0.75045
 H321 H 0.27435 0.77851 0.70945
 H322 H 0.27483 0.69265 0.79501
 H323 H 0.18908 0.77817 0.79505
 H324 H 0.19032 0.69248 0.70909
 H325 H 0.18289 0.75106 0.66668
 H326 H 0.14796 0.72513 0.69857
 H327 H 0.32031 0.71892 0.80172
 H328 H 0.28520 0.74695 0.83512
 H329 H 0.22663 0.78701 0.66628
 H330 H 0.21724 0.82338 0.70262
 H331 H 0.21846 0.64700 0.80082
 H332 H 0.21632 0.68418 0.83866
 H333 H 0.28526 0.81767 0.76678
 H334 H 0.32004 0.78514 0.73587
 H335 H 0.15071 0.68194 0.76671
 H336 H 0.20454 0.62410 0.74559
 O337 O 0.24883 0.35008 0.72442
 O338 O 0.21365 0.35846 0.76846
 O339 O 0.33164 0.31208 0.77021
 O340 O 0.34266 0.27099 0.80263
 O341 O 0.29496 0.26710 0.68683
 O342 O 0.24845 0.23280 0.67722
 O343 O 0.24983 0.22354 0.85043
 O344 O 0.28672 0.26635 0.85820
 O345 O 0.16845 0.26623 0.81259
 O346 O 0.15910 0.30367 0.76706
 O347 O 0.20630 0.18553 0.76865
 O348 O 0.24604 0.17802 0.73176
 O349 O 0.24733 0.18572 0.81211
 O350 O 0.28778 0.17901 0.77144
 O351 O 0.16841 0.22416 0.76853
 O352 O 0.15777 0.26913 0.73422
 O353 O 0.20665 0.26523 0.85065
 O354 O 0.24420 0.30137 0.86081
 O355 O 0.24990 0.31196 0.68631
 O356 O 0.21580 0.26853 0.67653
 O357 O 0.33256 0.26736 0.72550
 O358 O 0.33978 0.23126 0.76962
 O359 O 0.29319 0.35006 0.76856
 O360 O 0.24775 0.35982 0.80287
 Zr361 Zr 0.25063 0.32456 0.76737
 O362 O 0.22149 0.29727 0.79714
 Zr363 Zr 0.30660 0.26898 0.76787
 O364 O 0.27934 0.23911 0.79710
 Zr365 Zr 0.25149 0.26903 0.71167
 O366 O 0.22180 0.23974 0.73890
 Zr367 Zr 0.24903 0.26658 0.82512
 O368 O 0.27872 0.29706 0.79851
 Zr369 Zr 0.19351 0.26711 0.76935
 O370 O 0.22039 0.29686 0.73918
 Zr371 Zr 0.24907 0.21118 0.76925
 O372 O 0.27933 0.23816 0.73944
 O373 O 0.28048 0.29843 0.73814
 O374 O 0.21943 0.23718 0.79891
 C375 C 0.24861 0.34093 0.69543
 C376 C 0.32216 0.34107 0.77005
 C377 C 0.32386 0.26631 0.69643
 C378 C 0.24855 0.19462 0.84112
 C379 C 0.17773 0.26540 0.84157
 C380 C 0.17732 0.19505 0.76822
 H381 H 0.20866 0.31153 0.81059
 H382 H 0.20898 0.22661 0.72439
 H383 H 0.29407 0.31194 0.72466
 H384 H 0.29356 0.22576 0.81020
 H385 H 0.30038 0.28467 0.85302
 H386 H 0.33540 0.25852 0.82108
 H387 H 0.16383 0.25422 0.71721
 H388 H 0.19856 0.28244 0.68429
 H389 H 0.25630 0.32000 0.85359
 H390 H 0.26583 0.35656 0.81744
 H391 H 0.26521 0.18080 0.71862
 H392 H 0.26636 0.21810 0.68097
 H393 H 0.19731 0.35109 0.75337
 H394 H 0.16260 0.31799 0.78525
 H395 H 0.33285 0.21535 0.75389
 H396 H 0.27915 0.15734 0.77419
 O397 O 0.76878 0.66840 0.68719
 O398 O 0.80443 0.65949 0.73158
 O399 O 0.68621 0.70540 0.73387
 O400 O 0.67433 0.74681 0.76483
 O401 O 0.72387 0.75103 0.64986
 O402 O 0.76994 0.78618 0.64139
 O403 O 0.76738 0.79402 0.81404
 O404 O 0.73082 0.75036 0.82174
 O405 O 0.84950 0.75032 0.77643
 O406 O 0.85901 0.71444 0.73096
 O407 O 0.81107 0.83217 0.73408
 O408 O 0.77231 0.83986 0.69578
 O409 O 0.76913 0.83204 0.77574
 O410 O 0.72942 0.83832 0.73459
 O411 O 0.84907 0.79364 0.73396
 O412 O 0.85971 0.74906 0.69800
 O413 O 0.81128 0.75176 0.81438
 O414 O 0.77334 0.71618 0.82487
 O415 O 0.76850 0.70708 0.64948
 O416 O 0.80296 0.75033 0.64077
 O417 O 0.68587 0.75012 0.68808
 O418 O 0.67815 0.78641 0.73276
 O419 O 0.72465 0.66747 0.73205
 O420 O 0.77009 0.65709 0.76546
 Zr421 Zr 0.76720 0.69313 0.73062
 O422 O 0.79611 0.72021 0.76082
 Zr423 Zr 0.71121 0.74858 0.73101
 O424 O 0.73822 0.77821 0.76069
 Zr425 Zr 0.76680 0.74936 0.67535
 O426 O 0.79618 0.77843 0.70296
 Zr427 Zr 0.76861 0.75079 0.78887
 O428 O 0.73910 0.72044 0.76180
 Zr429 Zr 0.82423 0.75062 0.73337
 O430 O 0.79762 0.72112 0.70286
 Zr431 Zr 0.76845 0.80650 0.73314
 O432 O 0.73850 0.77978 0.70294
 O433 O 0.73757 0.71954 0.70136
 O434 O 0.79813 0.78036 0.76288
 C435 C 0.76925 0.67803 0.65829
 C436 C 0.69567 0.67638 0.73394
 C437 C 0.69491 0.75136 0.65910
 C438 C 0.76797 0.82306 0.80472
 C439 C 0.84026 0.75104 0.80538
 C440 C 0.84003 0.82268 0.73429
 H441 H 0.80888 0.70579 0.77426
 H442 H 0.80911 0.79181 0.68875
 H443 H 0.72400 0.70602 0.68790
 H444 H 0.72382 0.79135 0.77372
 H445 H 0.71731 0.73199 0.81633
 H446 H 0.68210 0.75753 0.78412
 H447 H 0.85467 0.76559 0.68212
 H448 H 0.82015 0.73640 0.64870
 H449 H 0.76270 0.69696 0.81697
 H450 H 0.75275 0.66082 0.78075
 H451 H 0.75323 0.83745 0.68240
 H452 H 0.75158 0.80041 0.64471
 H453 H 0.82032 0.66662 0.71590
 H454 H 0.85451 0.69896 0.74798
 H455 H 0.68450 0.80189 0.71632
 H456 H 0.73780 0.86011 0.73708
 O457 O 0.25082 0.66667 0.29114
 O458 O 0.21928 0.65660 0.24788
 O459 O 0.33362 0.70911 0.24907
 O460 O 0.34644 0.75141 0.22209
 O461 O 0.29103 0.75101 0.33368
 O462 O 0.24841 0.77936 0.34542
 O463 O 0.24875 0.79273 0.16714
 O464 O 0.28294 0.75289 0.15687
 O465 O 0.16758 0.75181 0.20757
 O466 O 0.15565 0.71963 0.24952
 O467 O 0.20846 0.83390 0.24847
 O468 O 0.24776 0.84164 0.28461
 O469 O 0.24798 0.83158 0.20449
 O470 O 0.28937 0.83778 0.24630
 O471 O 0.16970 0.79646 0.24890
 O472 O 0.16175 0.74842 0.28788
 O473 O 0.20491 0.75173 0.16873
 O474 O 0.25113 0.71246 0.16106
 O475 O 0.24897 0.70347 0.33046
 O476 O 0.21016 0.74965 0.33714
 O477 O 0.33049 0.75138 0.29699
 O478 O 0.33686 0.79058 0.25076
 O479 O 0.29695 0.66967 0.24851
 O480 O 0.25153 0.66204 0.21099
 Zr481 Zr 0.25269 0.69371 0.24976
 O482 O 0.22142 0.72091 0.22177
 Zr483 Zr 0.30680 0.75056 0.25255
 O484 O 0.27967 0.77843 0.22111
 Zr485 Zr 0.24986 0.74789 0.30662
 O486 O 0.22204 0.77930 0.27936
 Zr487 Zr 0.24878 0.75085 0.19336
 O488 O 0.28050 0.72252 0.22031
 Zr489 Zr 0.19373 0.75200 0.24946
 O490 O 0.22054 0.72012 0.27781
 Zr491 Zr 0.24980 0.80699 0.24844
 O492 O 0.27803 0.78005 0.28033
 O493 O 0.28074 0.71976 0.28062
 O494 O 0.21966 0.78105 0.21934
 C495 C 0.24926 0.67469 0.32028
 C496 C 0.32565 0.67992 0.24803
 C497 C 0.32020 0.75188 0.32571
 C498 C 0.24810 0.82179 0.17559
 C499 C 0.17603 0.75190 0.17853
 C500 C 0.17945 0.82541 0.24859
 H501 H 0.20796 0.70657 0.20914
 H502 H 0.20939 0.79288 0.29367
 H503 H 0.29440 0.70620 0.29411
 H504 H 0.29390 0.79125 0.20761
 H505 H 0.30173 0.74120 0.16472
 H506 H 0.33804 0.75479 0.20049
 H507 H 0.16147 0.76904 0.29901
 H508 H 0.19774 0.73015 0.33339
 H509 H 0.23093 0.70071 0.16206
 H510 H 0.26975 0.66734 0.19723
 H511 H 0.26528 0.83680 0.29946
 H512 H 0.24833 0.80094 0.33625
 H513 H 0.20049 0.66411 0.25972
 H514 H 0.16390 0.69954 0.24071
 H515 H 0.33317 0.80286 0.27038
 H516 H 0.28146 0.85939 0.24133
 O517 O 0.73272 0.31296 0.29502
 O518 O 0.76746 0.32243 0.25081
 O519 O 0.64993 0.27528 0.24762
 O520 O 0.63927 0.23446 0.21581
 O521 O 0.68724 0.23060 0.33138
 O522 O 0.73365 0.19483 0.34030
 O523 O 0.73388 0.18771 0.16799
 O524 O 0.69571 0.23037 0.16009
 O525 O 0.81397 0.23142 0.20572
 O526 O 0.82332 0.26682 0.25180
 O527 O 0.77586 0.14893 0.24911
 O528 O 0.73652 0.14161 0.28634
 O529 O 0.73556 0.14961 0.20625
 O530 O 0.69465 0.14305 0.24633
 O531 O 0.81367 0.18737 0.24872
 O532 O 0.82424 0.23216 0.28437
 O533 O 0.77584 0.23087 0.16759
 O534 O 0.73736 0.26584 0.15752
 O535 O 0.73243 0.27425 0.33268
 O536 O 0.76615 0.23087 0.34198
 O537 O 0.64969 0.23109 0.29263
 O538 O 0.64316 0.19437 0.24838
 O539 O 0.68787 0.31343 0.25011
 O540 O 0.73366 0.32413 0.21652
 Zr541 Zr 0.73098 0.28824 0.25152
 O542 O 0.76044 0.26130 0.22157
 Zr543 Zr 0.67561 0.23250 0.25031
 O544 O 0.70312 0.20306 0.22088
 Zr545 Zr 0.73067 0.23197 0.30664
 O546 O 0.76062 0.20305 0.27925
 Zr547 Zr 0.73338 0.23081 0.19318
 O548 O 0.70336 0.26097 0.21999
 Zr549 Zr 0.78874 0.23073 0.24897
 O550 O 0.76155 0.26015 0.27933
 Zr551 Zr 0.73335 0.17493 0.24885
 O552 O 0.70290 0.20149 0.27876
 O553 O 0.70141 0.26169 0.28037
 O554 O 0.76301 0.20113 0.21930
 C555 C 0.73343 0.30334 0.32395
 C556 C 0.65899 0.30429 0.24803
 C557 C 0.65838 0.23024 0.32170
 C558 C 0.73511 0.15871 0.17730
 C559 C 0.80478 0.23146 0.17667
 C560 C 0.80476 0.15829 0.24899
 H561 H 0.77314 0.27584 0.20832
 H562 H 0.77353 0.18971 0.29362
 H563 H 0.68779 0.27524 0.29382
 H564 H 0.68911 0.18982 0.20761
 H565 H 0.68172 0.24850 0.16535
 H566 H 0.64675 0.22249 0.19713
 H567 H 0.81904 0.21589 0.30042
 H568 H 0.78387 0.24386 0.33387
 H569 H 0.72544 0.28448 0.16512
 H570 H 0.71595 0.32074 0.20156
 H571 H 0.71711 0.14405 0.29922
 H572 H 0.71498 0.18111 0.33716
 H573 H 0.78399 0.31485 0.26568
 H574 H 0.81879 0.28240 0.23484
 H575 H 0.64944 0.17910 0.26509
 H576 H 0.70331 0.12131 0.24390
 C577 C 0.25699 0.04850 0.02640
 C578 C 0.25984 0.07047 0.04431
 C579 C 0.26290 0.09432 0.06740
 C580 C 0.26511 0.11361 0.08825
 C581 C 0.26702 0.13552 0.11331
 C582 C 0.26792 0.15436 0.13467
 C583 C 0.75792 0.54865 0.52587
 C584 C 0.76093 0.57067 0.54366
 C585 C 0.76414 0.59458 0.56663
 C586 C 0.76642 0.61393 0.58740
 C587 C 0.76836 0.63589 0.61238
 C588 C 0.76926 0.65477 0.63368
 C589 C 0.74789 0.95823 0.04907
 C590 C 0.74752 0.94226 0.07276
 C591 C 0.74726 0.92247 0.09972
 C592 C 0.74725 0.90468 0.12208
 C593 C 0.74752 0.88289 0.14746
 C594 C 0.74804 0.86353 0.16847
 C595 C 0.24788 0.45843 0.55091
 C596 C 0.24747 0.44273 0.57479
 C597 C 0.24716 0.42321 0.60197
 C598 C 0.24708 0.40563 0.62450
 C599 C 0.24725 0.38402 0.65006
 C600 C 0.24769 0.36476 0.67118
 C601 C 0.75017 0.02751 0.93521
 C602 C 0.75012 0.04726 0.91454
 C603 C 0.74975 0.07337 0.89358
 C604 C 0.74935 0.09689 0.87733
 C605 C 0.74898 0.12485 0.85888
 C606 C 0.74893 0.14810 0.84223
 C607 C 0.25003 0.52789 0.43508
 C608 C 0.24993 0.54789 0.41464
 C609 C 0.24952 0.57415 0.39385
 C610 C 0.24912 0.59774 0.37767
 C611 C 0.24877 0.62572 0.35922
 C612 C 0.24874 0.64896 0.34254
 C613 C 0.24496 0.93711 0.95776
 C614 C 0.24300 0.91492 0.93982
 C615 C 0.24093 0.89077 0.91671
 C616 C 0.23934 0.87120 0.89593
 C617 C 0.23763 0.84890 0.87098
 C618 C 0.23626 0.82982 0.84974
 C619 C 0.74444 0.43372 0.45667
 C620 C 0.74229 0.41158 0.43875
 C621 C 0.74003 0.38747 0.41564
 C622 C 0.73831 0.36794 0.39487
 C623 C 0.73648 0.34570 0.36991
 C624 C 0.73504 0.32668 0.34864
 C625 C 0.04998 0.25247 0.04225
 C626 C 0.07371 0.25278 0.05811
 C627 C 0.10072 0.25297 0.07779
 C628 C 0.12310 0.25293 0.09548
 C629 C 0.14852 0.25262 0.11718
 C630 C 0.16955 0.25207 0.13647
 C631 C 0.55059 0.75256 0.54166
 C632 C 0.57443 0.75285 0.55736
 C633 C 0.60156 0.75305 0.57689
 C634 C 0.62404 0.75304 0.59449
 C635 C 0.64955 0.75279 0.61610
 C636 C 0.67064 0.75231 0.63534
 C637 C 0.02677 0.74317 0.95233
 C638 C 0.04465 0.74057 0.93030
 C639 C 0.06772 0.73778 0.90639
 C640 C 0.08856 0.73580 0.88707
 C641 C 0.11363 0.73408 0.86513
 C642 C 0.13499 0.73327 0.84630
 C643 C 0.52612 0.24116 0.45135
 C644 C 0.54387 0.23826 0.42927
 C645 C 0.56677 0.23518 0.40525
 C646 C 0.58748 0.23300 0.38583
 C647 C 0.61242 0.23113 0.36379
 C648 C 0.63372 0.23026 0.34490
 C649 C 0.95801 0.75464 0.06367
 C650 C 0.93996 0.75662 0.08576
 C651 C 0.91668 0.75875 0.10975
 C652 C 0.89576 0.76041 0.12917
 C653 C 0.87064 0.76221 0.15128
 C654 C 0.84929 0.76363 0.17024
 C655 C 0.45692 0.25449 0.56635
 C656 C 0.43895 0.25674 0.58845
 C657 C 0.41577 0.25914 0.61250
 C658 C 0.39493 0.26101 0.63196
 C659 C 0.36989 0.26301 0.65412
 C660 C 0.34858 0.26458 0.67310
 C661 C 0.93457 0.25047 0.97234
 C662 C 0.91417 0.25060 0.95237
 C663 C 0.89342 0.25105 0.92615
 C664 C 0.87728 0.25149 0.90258
 C665 C 0.85890 0.25186 0.87463
 C666 C 0.84230 0.25185 0.85139
 C667 C 0.43480 0.75095 0.47240
 C668 C 0.41435 0.75116 0.45245
 C669 C 0.39358 0.75165 0.42623
 C670 C 0.37741 0.75210 0.40267
 C671 C 0.35900 0.75248 0.37471
 C672 C 0.34238 0.75248 0.35147
 C673 C 0.06504 0.04202 0.24623
 C674 C 0.08687 0.06031 0.24417
 C675 C 0.11065 0.08376 0.24195
 C676 C 0.12994 0.10475 0.24020
 C677 C 0.15198 0.12987 0.23827
 C678 C 0.17094 0.15118 0.23670
 C679 C 0.56582 0.54340 0.74645
 C680 C 0.58781 0.56145 0.74413
 C681 C 0.61176 0.58467 0.74164
 C682 C 0.63116 0.60552 0.73969
 C683 C 0.65330 0.63053 0.73757
 C684 C 0.67229 0.65178 0.73587
 C685 C 0.97289 0.06506 0.74825
 C686 C 0.95302 0.08564 0.74814
 C687 C 0.92677 0.10644 0.74773
 C688 C 0.90313 0.12252 0.74733
 C689 C 0.87504 0.14079 0.74703
 C690 C 0.85169 0.15731 0.74713
 C691 C 0.47263 0.56531 0.24803
 C692 C 0.45264 0.58577 0.24793
 C693 C 0.42634 0.60653 0.24756
 C694 C 0.40272 0.62267 0.24724
 C695 C 0.37470 0.64106 0.24703
 C696 C 0.35142 0.65769 0.24720
 C697 C 0.04218 0.95113 0.74657
 C698 C 0.05804 0.92734 0.74639
 C699 C 0.07769 0.90025 0.74636
 C700 C 0.09537 0.87779 0.74656
 C701 C 0.11708 0.85230 0.74708
 C702 C 0.13640 0.83124 0.74782
 C703 C 0.54183 0.44920 0.24625
 C704 C 0.55745 0.42525 0.24597
 C705 C 0.57687 0.39796 0.24582
 C706 C 0.59438 0.37535 0.24589
 C707 C 0.61592 0.34971 0.24625
 C708 C 0.63516 0.32855 0.24687
 C709 C 0.95243 0.97217 0.25805
 C710 C 0.93037 0.95436 0.26063
 C711 C 0.90641 0.93140 0.26335
 C712 C 0.88701 0.91065 0.26525
 C713 C 0.86497 0.88572 0.26681
 C714 C 0.84603 0.86448 0.26745
 C715 C 0.45137 0.47361 0.75993
 C716 C 0.42945 0.45570 0.76278
 C717 C 0.40563 0.43263 0.76577
 C718 C 0.38634 0.41182 0.76784
 C719 C 0.36439 0.38683 0.76955
 C720 C 0.34549 0.36556 0.77026
 C721 C 0.04716 0.25647 0.97337
 C722 C 0.06926 0.25835 0.95548
 C723 C 0.09335 0.26032 0.93252
 C724 C 0.11288 0.26181 0.91185
 C725 C 0.13511 0.26330 0.88704
 C726 C 0.15422 0.26437 0.86593
 C727 C 0.54886 0.75612 0.47183
 C728 C 0.57069 0.75774 0.45359
 C729 C 0.59449 0.75946 0.43029
 C730 C 0.61382 0.76076 0.40940
 C731 C 0.63589 0.76210 0.38441
 C732 C 0.65491 0.76309 0.36321
 C733 C 0.95796 0.74872 0.94966
 C734 C 0.94208 0.74898 0.92592
 C735 C 0.92243 0.74947 0.89885
 C736 C 0.90480 0.74995 0.87638
 C737 C 0.88321 0.75049 0.85084
 C738 C 0.86400 0.75084 0.82970
 C739 C 0.45656 0.24758 0.45093
 C740 C 0.44059 0.24785 0.42726
 C741 C 0.42091 0.24838 0.40023
 C742 C 0.40329 0.24891 0.37777
 C743 C 0.38173 0.24953 0.35222
 C744 C 0.36256 0.24995 0.33106
 C745 C 0.02865 0.75118 0.06476
 C746 C 0.04895 0.75181 0.08485
 C747 C 0.07553 0.75224 0.10519
 C748 C 0.09929 0.75238 0.12106
 C749 C 0.12737 0.75233 0.13930
 C750 C 0.15057 0.75217 0.15598
 C751 C 0.52842 0.25034 0.56513
 C752 C 0.54886 0.25105 0.58507
 C753 C 0.57552 0.25152 0.60526
 C754 C 0.59934 0.25167 0.62104
 C755 C 0.62745 0.25161 0.63920
 C756 C 0.65067 0.25143 0.65586
 C757 C 0.93473 0.24521 0.04367
 C758 C 0.91289 0.24248 0.06188
 C759 C 0.88906 0.23938 0.08520
 C760 C 0.86969 0.23695 0.10606
 C761 C 0.84751 0.23447 0.13103
 C762 C 0.82840 0.23279 0.15221
 C763 C 0.43523 0.74622 0.54389
 C764 C 0.41350 0.74381 0.56230
 C765 C 0.38984 0.74105 0.58585
 C766 C 0.37061 0.73889 0.60690
 C767 C 0.34857 0.73668 0.63204
 C768 C 0.32955 0.73518 0.65333
 C769 C 0.25103 0.04968 0.95838
 C770 C 0.25076 0.07351 0.94255
 C771 C 0.25022 0.10069 0.92299
 C772 C 0.24970 0.12326 0.90545
 C773 C 0.24911 0.14893 0.88394
 C774 C 0.24874 0.17018 0.86480
 C775 C 0.75156 0.54918 0.45627
 C776 C 0.75136 0.57286 0.44026
 C777 C 0.75091 0.59988 0.42052
 C778 C 0.75043 0.62233 0.40284
 C779 C 0.74988 0.64788 0.38122
 C780 C 0.74953 0.66904 0.36202
 C781 C 0.74421 0.02717 0.04649
 C782 C 0.74236 0.04497 0.06865
 C783 C 0.74040 0.06786 0.09281
 C784 C 0.73891 0.08849 0.11239
 C785 C 0.73737 0.11326 0.13466
 C786 C 0.73624 0.13435 0.15379
 C787 C 0.24452 0.52830 0.54920
 C788 C 0.24286 0.54651 0.57106
 C789 C 0.24110 0.56976 0.59491
 C790 C 0.23976 0.59063 0.61428
 C791 C 0.23836 0.61559 0.63636
 C792 C 0.23732 0.63680 0.65538
 C793 C 0.75503 0.95703 0.93381
 C794 C 0.75762 0.93870 0.91204
 C795 C 0.76054 0.91519 0.88837
 C796 C 0.76282 0.89415 0.86916
 C797 C 0.76514 0.86898 0.84718
 C798 C 0.76671 0.84765 0.82822
 C799 C 0.25451 0.45632 0.43549
 C800 C 0.25690 0.43791 0.41374
 C801 C 0.25962 0.41436 0.39006
 C802 C 0.26176 0.39332 0.37082
 C803 C 0.26396 0.36817 0.34877
 C804 C 0.26546 0.34687 0.32974
 C805 C 0.24838 0.93608 0.02836
 C806 C 0.24768 0.91595 0.04866
 C807 C 0.24720 0.89550 0.07520
 C808 C 0.24707 0.87952 0.09892
 C809 C 0.24720 0.86116 0.12696
 C810 C 0.24751 0.84439 0.15014
 C811 C 0.74825 0.43487 0.52814
 C812 C 0.74744 0.41487 0.54855
 C813 C 0.74690 0.39459 0.57519
 C814 C 0.74674 0.37874 0.59898
 C815 C 0.74689 0.36050 0.62707
 C816 C 0.74725 0.34377 0.65026
 C817 C 0.04330 0.06650 0.75369
 C818 C 0.06160 0.08824 0.75651
 C819 C 0.08510 0.11183 0.75972
 C820 C 0.10614 0.13095 0.76226
 C821 C 0.13134 0.15281 0.76489
 C822 C 0.15269 0.17167 0.76671
 C823 C 0.54411 0.56470 0.25267
 C824 C 0.56251 0.58641 0.25513
 C825 C 0.58605 0.61004 0.25796
 C826 C 0.60708 0.62923 0.26021
 C827 C 0.63222 0.65121 0.26254
 C828 C 0.65353 0.67016 0.26416
 C829 C 0.06351 0.97145 0.25000
 C830 C 0.08410 0.95158 0.24926
 C831 C 0.10501 0.92539 0.24870
 C832 C 0.12130 0.90186 0.24845
 C833 C 0.13992 0.87396 0.24837
 C834 C 0.15681 0.85085 0.24843
 C835 C 0.56509 0.47185 0.75042
 C836 C 0.58517 0.45149 0.74954
 C837 C 0.60554 0.42489 0.74887
 C838 C 0.62148 0.40112 0.74855
 C839 C 0.63981 0.37305 0.74841
 C840 C 0.65659 0.34987 0.74844
 C841 C 0.94967 0.04099 0.25227
 C842 C 0.92587 0.05684 0.25189
 C843 C 0.89870 0.07641 0.25125
 C844 C 0.87613 0.09395 0.25062
 C845 C 0.85045 0.11546 0.24989
 C846 C 0.82920 0.13460 0.24938
 C847 C 0.45045 0.54327 0.75361
 C848 C 0.42672 0.55922 0.75332
 C849 C 0.39965 0.57891 0.75275
 C850 C 0.37716 0.59656 0.75215
 C851 C 0.35159 0.61816 0.75142
 C852 C 0.33040 0.63737 0.75089
 C853 C 0.97249 0.95233 0.74232
 C854 C 0.95448 0.93037 0.74055
 C855 C 0.93137 0.90646 0.73872
 C856 C 0.91058 0.88709 0.73738
 C857 C 0.88566 0.86504 0.73606
 C858 C 0.86447 0.84607 0.73514
 C859 C 0.47205 0.45115 0.24284
 C860 C 0.45380 0.42935 0.24133
 C861 C 0.43048 0.40561 0.23976
 C862 C 0.40956 0.38634 0.23860
 C863 C 0.38454 0.36437 0.23743
 C864 C 0.36329 0.34544 0.23658
   
