data_POSCAR
  _audit_creation_date              2014-09-24
  _audit_creation_method            'ToBaCCo'
  _symmetry_space_group_name_H-M    'P1'
  _symmetry_Int_Tables_number       1
  _symmetry_cell_setting            triclinic
  loop_
  _symmetry_equiv_pos_as_xyz
 x,y,z
_cell_length_a 17.9694
_cell_length_b 18.1040
_cell_length_c 17.9495
_cell_angle_alpha 89.766200
_cell_angle_beta 90.678300
_cell_angle_gamma 90.036200
loop_
  _atom_site_label
  _atom_site_type_symbol
  _atom_site_fract_x
  _atom_site_fract_y
  _atom_site_fract_z
O1 O 0.41953 1.05804 -0.56604
 O2 O 0.59337 1.06437 -0.45617
 O3 O 0.56010 1.03884 -0.59407
 O4 O 0.45273 1.07974 -0.42541
 O5 O 0.44095 0.96003 -0.40440
 O6 O 0.54930 0.91927 -0.57180
 O7 O 0.58181 0.94551 -0.43086
 O8 O 0.40870 0.93862 -0.54279
 Cu9 Cu 0.50728 1.07225 -0.51278
 Cu10 Cu 0.49459 0.92874 -0.48531
 C11 C 0.38457 0.99742 -0.57324
 C12 C 0.61694 1.00625 -0.42410
 C13 C 0.57335 0.97216 -0.61138
 C14 C 0.42786 1.02653 -0.38661
 O15 O -0.56460 1.43482 0.07610
 O16 O -0.43200 1.58636 0.04521
 O17 O -0.57582 1.57777 0.04714
 O18 O -0.41973 1.44694 0.06781
 O19 O -0.42679 1.42362 -0.05278
 O20 O -0.58289 1.55372 -0.07325
 O21 O -0.43872 1.56673 -0.07609
 O22 O -0.57234 1.41527 -0.04502
 Cu23 Cu -0.49816 1.51324 0.07135
 Cu24 Cu -0.50516 1.48739 -0.07392
 C25 C -0.59174 1.39965 0.02108
 C26 C -0.41261 1.60224 -0.02067
 C27 C -0.60579 1.58826 -0.01668
 C28 C -0.39628 1.41358 0.01067
 O29 O -0.04440 0.43177 0.41509
 O30 O -0.07193 0.58338 0.54842
 O31 O -0.02901 0.57526 0.41243
 O32 O -0.09121 0.44117 0.55333
 O33 O 0.02541 0.42510 0.59037
 O34 O 0.08747 0.56081 0.45050
 O35 O 0.04304 0.56769 0.59026
 O36 O 0.07130 0.41786 0.45577
 Cu37 Cu -0.07081 0.50886 0.47814
 Cu38 Cu 0.06860 0.49211 0.52572
 C39 C 0.01812 0.39895 0.41295
 C40 C -0.01921 0.60097 0.59256
 C41 C 0.03958 0.59115 0.40768
 C42 C -0.04341 0.41017 0.59563
 O43 O -0.19191 0.96000 -0.09348
 O44 O 0.18933 1.00036 -0.10400
 O45 O -0.01288 1.06295 -0.20748
 O46 O 0.00972 0.86852 -0.17038
 O47 O 0.02617 0.79666 -0.06494
 O48 O -0.02561 1.16709 -0.13502
 O49 O 0.09719 0.97018 -0.18939
 O50 O -0.10409 0.95868 -0.18630
 Zr51 Zr -0.00222 0.97643 -0.12880
 O52 O 0.07411 0.93001 -0.05590
 O53 O -0.07623 1.04567 -0.07735
 C54 C -0.17182 0.95364 -0.16224
 C55 C 0.16595 0.98120 -0.16994
 C56 C -0.02149 1.13349 -0.19863
 C57 C 0.02190 0.80610 -0.13662
 H58 H 0.08625 1.08837 -0.11816
 O59 O 0.05825 1.06028 -0.08037
 H60 H -0.08745 0.87472 -0.07699
 O61 O -0.05948 0.91486 -0.05209
 O62 O 0.19170 1.04369 0.09286
 O63 O -0.18755 0.99465 0.10545
 O64 O 0.07805 1.19725 -0.03742
 O65 O 0.12318 0.82516 0.02981
 O66 O -0.07677 0.80276 0.03993
 O67 O -0.12254 1.17354 -0.03494
 O68 O -0.00411 1.13247 0.16876
 O69 O 0.00814 0.93570 0.20627
 O70 O -0.01941 1.20421 0.06309
 O71 O 0.02160 0.83152 0.13393
 O72 O 0.17874 1.11965 -0.01975
 O73 O -0.20186 1.07452 -0.01835
 O74 O -0.17773 0.88036 0.02398
 O75 O 0.20287 0.92399 0.01418
 O76 O 0.10396 1.04528 0.18572
 O77 O -0.09533 1.02516 0.19063
 Zr78 Zr 0.13055 1.01458 -0.00351
 Zr79 Zr -0.12971 0.98477 0.00351
 Zr80 Zr -0.01506 1.12694 -0.02471
 Zr81 Zr 0.01602 0.87263 0.02375
 Zr82 Zr 0.00296 1.02343 0.12829
 O83 O -0.05742 0.93877 0.08045
 O84 O 0.06073 1.08535 0.05182
 C85 C 0.17142 1.05188 0.16134
 C86 C -0.16388 1.01214 0.17185
 C87 C 0.14888 1.18385 -0.03219
 C88 C 0.18892 0.85450 0.02518
 C89 C -0.14764 0.81635 0.03696
 C90 C -0.18818 1.14368 -0.03150
 C91 C -0.01340 1.19528 0.13467
 C92 C 0.01479 0.86492 0.19737
 H93 H -0.10755 1.10262 0.08062
 O94 O -0.07279 1.06935 0.05484
 H95 H 0.11142 0.93241 0.11345
 O96 O 0.07629 0.95407 0.07662
 C97 C 0.31539 0.99428 0.38238
 C98 C 0.29824 1.04586 0.33165
 C99 C 0.23237 1.03761 0.28306
 C100 C 0.23109 1.06807 0.21525
 H101 H 0.33581 1.09176 0.32217
 H102 H 0.18753 1.00141 0.30018
 H103 H 0.28006 0.94608 0.38825
 H104 H 0.27903 1.09881 0.19600
 C105 C -0.38180 0.95574 0.32261
 C106 C -0.33394 1.00538 0.29597
 C107 C -0.28368 0.98857 0.23421
 C108 C -0.21823 1.02314 0.23111
 H109 H -0.32804 1.05837 0.32345
 H110 H -0.29876 0.94702 0.19340
 H111 H -0.38425 0.90081 0.29891
 H112 H -0.20231 1.06032 0.27582
 C113 C -0.31843 1.01068 -0.38057
 C114 C -0.29611 0.95636 -0.33484
 C115 C -0.23157 0.96699 -0.28494
 C116 C -0.23145 0.93812 -0.21647
 H117 H -0.32886 0.90631 -0.32935
 H118 H -0.18691 1.00347 -0.30193
 H119 H -0.28770 1.06231 -0.38071
 H120 H -0.27957 0.90747 -0.19754
 C121 C 0.38209 1.04214 -0.32104
 C122 C 0.33524 0.99133 -0.29463
 C123 C 0.28441 1.00686 -0.23306
 C124 C 0.22090 0.96896 -0.22832
 H125 H 0.33089 0.93810 -0.32190
 H126 H 0.29719 1.05060 -0.19386
 H127 H 0.38324 1.09709 -0.29732
 H128 H 0.20656 0.92949 -0.27149
 C129 C 0.35684 1.34338 0.03420
 C130 C 0.31538 1.31344 -0.02032
 C131 C 0.26301 1.25306 -0.00475
 C132 C 0.19957 1.24639 -0.04371
 H133 H 0.31809 1.33480 -0.07677
 H134 H 0.27604 1.21429 0.03974
 H135 H 0.34835 1.32545 0.09122
 H136 H 0.18366 1.28868 -0.08375
 C137 C 0.33511 0.63739 -0.02600
 C138 C 0.31565 0.68622 0.02588
 C139 C 0.25182 0.73546 0.01290
 C140 C 0.25323 0.80544 0.03590
 H141 H 0.34819 0.69217 0.07678
 H142 H 0.20411 0.71479 -0.01820
 H143 H 0.30555 0.63756 -0.07908
 H144 H 0.30347 0.82783 0.06112
 C145 C -0.35985 0.66301 -0.03313
 C146 C -0.31136 0.68394 0.01979
 C147 C -0.26097 0.74680 0.00821
 C148 C -0.19795 0.75343 0.04790
 H149 H -0.30809 0.65383 0.07209
 H150 H -0.27484 0.78742 -0.03434
 H151 H -0.35975 0.68998 -0.08716
 H152 H -0.18108 0.70992 0.08617
 C153 C -0.33174 1.36428 0.01876
 C154 C -0.31923 1.30879 -0.02820
 C155 C -0.25314 1.26164 -0.01870
 C156 C -0.25305 1.19197 -0.04274
 H157 H -0.35885 1.29676 -0.07255
 H158 H -0.20504 1.28328 0.01108
 H159 H -0.29457 1.37265 0.06601
 H160 H -0.30326 1.16850 -0.06698
 C161 C 0.02970 1.33684 0.36202
 C162 C -0.00954 1.32840 0.29904
 C163 C 0.00233 1.26327 0.25191
 C164 C -0.02047 1.26192 0.18081
 H165 H -0.05016 1.36963 0.28209
 H166 H 0.03039 1.21565 0.27598
 H167 H 0.07328 1.29761 0.37611
 H168 H -0.04501 1.31092 0.15580
 C169 C -0.06797 1.35721 -0.34755
 C170 C -0.02790 1.29700 -0.33183
 C171 C -0.04579 1.24842 -0.26869
 C172 C -0.02039 1.17911 -0.26655
 H173 H 0.02054 1.28428 -0.36494
 H174 H -0.07616 1.27076 -0.22207
 H175 H -0.11940 1.36770 -0.31850
 H176 H 0.00630 1.15631 -0.31520
 C177 C -0.03080 0.65797 -0.35690
 C178 C 0.01672 0.67364 -0.30119
 C179 C 0.00285 0.73694 -0.25224
 C180 C 0.03215 0.74054 -0.18356
 H181 H 0.06551 0.63966 -0.29100
 H182 H -0.03261 0.78121 -0.27278
 H183 H -0.08175 0.68978 -0.36239
 H184 H 0.06346 0.69421 -0.16109
 C185 C 0.06372 0.64448 0.35088
 C186 C 0.02106 0.70217 0.33211
 C187 C 0.03925 0.75099 0.26917
 C188 C 0.01057 0.81900 0.26497
 H189 H -0.02951 0.71277 0.36272
 H190 H 0.07345 0.73003 0.22462
 H191 H 0.11693 0.63636 0.32434
 H192 H -0.01975 0.84087 0.31186
   
