data_POSCAR
  _audit_creation_date              2014-09-24
  _audit_creation_method            'ToBaCCo'
  _symmetry_space_group_name_H-M    'P1'
  _symmetry_Int_Tables_number       1
  _symmetry_cell_setting            triclinic
  loop_
  _symmetry_equiv_pos_as_xyz
 x,y,z
_cell_length_a 38.1862
_cell_length_b 40.0107
_cell_length_c 41.3809
_cell_angle_alpha 93.335500
_cell_angle_beta 92.244200
_cell_angle_gamma 89.530000
loop_
  _atom_site_label
  _atom_site_type_symbol
  _atom_site_fract_x
  _atom_site_fract_y
  _atom_site_fract_z
C1 C 0.29811 0.30965 0.24090
 H2 H 0.29578 0.31557 0.26658
 C3 C 0.31970 0.32891 0.22302
 H4 H 0.33325 0.35003 0.23516
 C5 C 0.28236 0.27540 0.19407
 H6 H 0.26793 0.25434 0.18295
 C7 C 0.30416 0.29364 0.17535
 H8 H 0.30647 0.28601 0.15001
 N9 N 0.27972 0.28364 0.22624
 C10 C 0.19967 0.27258 0.29775
 H11 H 0.20086 0.24606 0.30094
 C12 C 0.17675 0.29254 0.31607
 H13 H 0.16061 0.28099 0.33319
 C14 C 0.21767 0.31952 0.27048
 H15 H 0.23285 0.32993 0.25209
 C16 C 0.19515 0.34042 0.28832
 H17 H 0.19419 0.36686 0.28407
 Zn18 Zn 0.25060 0.25781 0.25127
 N19 N 0.22003 0.28631 0.27581
 C20 C 0.26386 0.20703 0.29512
 N21 N 0.27896 0.23190 0.27950
 C22 C 0.31389 0.23816 0.28359
 C23 C 0.33479 0.21972 0.30462
 C24 C 0.28385 0.18781 0.31617
 C25 C 0.19364 0.24310 0.20885
 C26 C 0.17096 0.22330 0.18877
 C27 C 0.20859 0.17563 0.19784
 C28 C 0.23055 0.19636 0.21782
 N29 N 0.22250 0.22934 0.22319
 H30 H 0.23636 0.20162 0.29083
 H31 H 0.32576 0.25746 0.27063
 H32 H 0.36253 0.22504 0.30748
 H33 H 0.27126 0.16836 0.32858
 H34 H 0.18808 0.26949 0.21328
 H35 H 0.14811 0.23474 0.17755
 H36 H 0.21500 0.14929 0.19435
 H37 H 0.25394 0.18608 0.22908
 C38 C 0.17443 0.32701 0.31162
 C39 C 0.32314 0.32098 0.18973
 C40 C 0.17815 0.18902 0.18325
 C41 C 0.31976 0.19423 0.32130
 C42 C 0.80576 0.81044 0.23842
 H43 H 0.80367 0.81574 0.26422
 C44 C 0.82721 0.83020 0.22084
 H45 H 0.84038 0.85099 0.23385
 C46 C 0.78858 0.77816 0.19089
 H47 H 0.77361 0.75772 0.17927
 C48 C 0.80980 0.79713 0.17234
 H49 H 0.81127 0.78961 0.14692
 N50 N 0.78691 0.78503 0.22332
 C51 C 0.70458 0.77360 0.29246
 H52 H 0.70572 0.74707 0.29571
 C53 C 0.68157 0.79365 0.31058
 H54 H 0.66517 0.78219 0.32755
 C55 C 0.72345 0.82054 0.26565
 H56 H 0.73933 0.83095 0.24776
 C57 C 0.70079 0.84153 0.28326
 H58 H 0.70023 0.86802 0.27923
 Zn59 Zn 0.75730 0.75896 0.24770
 N60 N 0.72542 0.78728 0.27087
 C61 C 0.76867 0.70805 0.29101
 N62 N 0.78450 0.73373 0.27723
 C63 C 0.81901 0.74054 0.28374
 C64 C 0.83862 0.72185 0.30555
 C65 C 0.78731 0.68868 0.31287
 C66 C 0.69831 0.73662 0.20959
 C67 C 0.67909 0.71464 0.18842
 C68 C 0.72879 0.67686 0.18766
 C69 C 0.74714 0.69968 0.20865
 N70 N 0.73164 0.72878 0.21925
 H71 H 0.74160 0.70223 0.28468
 H72 H 0.83157 0.76036 0.27205
 H73 H 0.86607 0.72757 0.31029
 H74 H 0.77404 0.66868 0.32389
 H75 H 0.68672 0.76011 0.21808
 H76 H 0.65281 0.72166 0.18057
 H77 H 0.74138 0.65354 0.18003
 H78 H 0.77376 0.69415 0.21665
 C79 C 0.67969 0.82818 0.30632
 C80 C 0.82968 0.82397 0.18702
 C81 C 0.69424 0.68418 0.17725
 C82 C 0.82274 0.69561 0.32053
 C83 C 0.80861 0.29778 0.74389
 H84 H 0.81099 0.29918 0.77007
 C85 C 0.82944 0.31802 0.72618
 H86 H 0.84760 0.33527 0.73894
 C87 C 0.78170 0.27376 0.69553
 H88 H 0.76339 0.25619 0.68363
 C89 C 0.80192 0.29357 0.67689
 H90 H 0.79902 0.29092 0.65073
 N91 N 0.78507 0.27647 0.72842
 C92 C 0.70282 0.26238 0.79677
 H93 H 0.70272 0.23542 0.79776
 C94 C 0.67915 0.28189 0.81476
 H95 H 0.66093 0.26984 0.82971
 C96 C 0.72596 0.31085 0.77538
 H97 H 0.74393 0.32210 0.75975
 C98 C 0.70242 0.33122 0.79255
 H99 H 0.70293 0.35806 0.79039
 Zn100 Zn 0.75767 0.24971 0.75387
 N101 N 0.72609 0.27712 0.77807
 C102 C 0.78323 0.22432 0.81346
 N103 N 0.78879 0.22613 0.78142
 C104 C 0.81704 0.21102 0.76785
 C105 C 0.84052 0.19238 0.78638
 C106 C 0.80556 0.20541 0.83283
 C107 C 0.70354 0.23142 0.70886
 C108 C 0.68329 0.21007 0.68793
 C109 C 0.71942 0.16366 0.70427
 C110 C 0.73879 0.18585 0.72510
 N111 N 0.73089 0.21911 0.72667
 H112 H 0.76142 0.23745 0.82422
 H113 H 0.82098 0.21296 0.74227
 H114 H 0.86136 0.17956 0.77369
 H115 H 0.80033 0.20579 0.85833
 H116 H 0.69772 0.25795 0.71072
 H117 H 0.66199 0.22037 0.67350
 H118 H 0.72613 0.13728 0.70320
 H119 H 0.76028 0.17646 0.73978
 C120 C 0.67883 0.31678 0.81273
 C121 C 0.82608 0.31618 0.69220
 C122 C 0.69137 0.17575 0.68525
 C123 C 0.83490 0.18841 0.81960
 C124 C 0.31292 0.79647 0.73694
 H125 H 0.31451 0.79836 0.76314
 C126 C 0.33407 0.81658 0.71941
 H127 H 0.35169 0.83424 0.73232
 C128 C 0.28763 0.77133 0.68834
 H129 H 0.26984 0.75337 0.67630
 C130 C 0.30819 0.79102 0.66988
 H131 H 0.30604 0.78792 0.64371
 N132 N 0.29001 0.77467 0.72125
 C133 C 0.20640 0.76041 0.78788
 H134 H 0.20689 0.73345 0.78890
 C135 C 0.18188 0.77940 0.80527
 H136 H 0.16352 0.76692 0.81973
 C137 C 0.22926 0.80936 0.76714
 H138 H 0.24750 0.82093 0.75199
 C139 C 0.20494 0.82927 0.78386
 H140 H 0.20516 0.85614 0.78191
 Zn141 Zn 0.26207 0.74824 0.74649
 N142 N 0.22986 0.77562 0.76976
 C143 C 0.28773 0.72724 0.80765
 N144 N 0.29242 0.72527 0.77517
 C145 C 0.31913 0.70692 0.76222
 C146 C 0.34151 0.68846 0.78200
 C147 C 0.30935 0.70902 0.82827
 C148 C 0.20894 0.72996 0.70077
 C149 C 0.18797 0.70862 0.68052
 C150 C 0.22191 0.66168 0.69896
 C151 C 0.24199 0.68389 0.71914
 N152 N 0.23550 0.71739 0.71938
 H153 H 0.26711 0.74271 0.81769
 H154 H 0.32261 0.70618 0.73637
 H155 H 0.36200 0.67324 0.77115
 H156 H 0.30503 0.71062 0.85403
 H157 H 0.20413 0.75668 0.70168
 H158 H 0.16718 0.71907 0.66560
 H159 H 0.22739 0.63508 0.69903
 H160 H 0.26266 0.67425 0.73459
 C161 C 0.18105 0.81431 0.80343
 C162 C 0.33168 0.81414 0.68540
 C163 C 0.19453 0.67402 0.67933
 C164 C 0.33640 0.68900 0.81544
 Si165 Si -0.00172 -0.00958 -0.00380
 Si166 Si -0.01777 0.49667 0.50302
 Si167 Si 0.48875 -0.00249 0.49930
 Si168 Si 0.49244 0.49331 0.00291
 C169 C 0.11382 -0.11893 -0.17437
 C170 C 0.10851 -0.12400 -0.14131
 C171 C 0.12785 -0.15009 -0.12694
 C172 C 0.15075 -0.17046 -0.14525
 C173 C 0.15572 -0.16493 -0.17784
 C174 C 0.13712 -0.13900 -0.19217
 C175 C 0.12466 -0.15551 -0.09424
 C176 C 0.10353 -0.13497 -0.07501
 C177 C 0.08410 -0.10832 -0.08790
 C178 C 0.08543 -0.10368 -0.12188
 C179 C 0.06351 -0.07904 -0.13529
 C180 C 0.04215 -0.05865 -0.11606
 C181 C 0.04221 -0.06146 -0.08265
 C182 C 0.06325 -0.08623 -0.06798
 C183 C 0.06310 -0.08727 -0.03382
 C184 C 0.04317 -0.06457 -0.01532
 C185 C 0.02275 -0.04021 -0.03002
 C186 C 0.02168 -0.03921 -0.06373
 H187 H 0.10104 -0.09919 -0.18706
 H188 H 0.16554 -0.19012 -0.13384
 H189 H 0.14053 -0.13429 -0.21737
 H190 H 0.13912 -0.17562 -0.08322
 H191 H 0.10260 -0.14106 -0.05005
 H192 H 0.06180 -0.07514 -0.16083
 H193 H 0.02585 -0.04002 -0.12746
 H194 H 0.07881 -0.10462 -0.02048
 H195 H 0.04417 -0.06573 0.01080
 H196 H 0.00539 -0.02085 -0.07538
 C197 C 0.10859 0.39487 0.33478
 C198 C 0.10450 0.39068 0.36820
 C199 C 0.12389 0.36458 0.38245
 C200 C 0.14653 0.34407 0.36397
 C201 C 0.15037 0.34875 0.33100
 C202 C 0.13111 0.37427 0.31666
 C203 C 0.12071 0.35899 0.41511
 C204 C 0.09863 0.37867 0.43421
 C205 C 0.07882 0.40513 0.42141
 C206 C 0.08195 0.41137 0.38788
 C207 C 0.06262 0.43821 0.37522
 C208 C 0.04095 0.45820 0.39442
 C209 C 0.03741 0.45233 0.42697
 C210 C 0.05613 0.42572 0.44104
 C211 C 0.05138 0.42107 0.47429
 C212 C 0.02919 0.44199 0.49246
 C213 C 0.01087 0.46806 0.47828
 C214 C 0.01529 0.47323 0.44558
 H215 H 0.09466 0.41363 0.32169
 H216 H 0.16160 0.32465 0.37546
 H217 H 0.13306 0.37809 0.29110
 H218 H 0.13547 0.33905 0.42611
 H219 H 0.09791 0.37246 0.45912
 H220 H 0.06376 0.44476 0.35043
 H221 H 0.02673 0.47857 0.38358
 H222 H 0.06438 0.40159 0.48715
 H223 H 0.02671 0.43776 0.51779
 H224 H 0.00195 0.49387 0.43448
 C225 C 0.61492 -0.10322 0.33025
 C226 C 0.61103 -0.10751 0.36369
 C227 C 0.63027 -0.13385 0.37770
 C228 C 0.65243 -0.15460 0.35893
 C229 C 0.65601 -0.14988 0.32594
 C230 C 0.63702 -0.12403 0.31186
 C231 C 0.62744 -0.13943 0.41040
 C232 C 0.60585 -0.11952 0.42978
 C233 C 0.58612 -0.09287 0.41722
 C234 C 0.58881 -0.08671 0.38362
 C235 C 0.56927 -0.05992 0.37111
 C236 C 0.54775 -0.03996 0.39050
 C237 C 0.54468 -0.04573 0.42313
 C238 C 0.56379 -0.07216 0.43711
 C239 C 0.55970 -0.07655 0.47051
 C240 C 0.53745 -0.05581 0.48881
 C241 C 0.51844 -0.03015 0.47464
 C242 C 0.52250 -0.02501 0.44187
 H243 H 0.60124 -0.08416 0.31737
 H244 H 0.66736 -0.17425 0.37022
 H245 H 0.63889 -0.12010 0.28631
 H246 H 0.64209 -0.15955 0.42121
 H247 H 0.60530 -0.12579 0.45469
 H248 H 0.56998 -0.05351 0.34625
 H249 H 0.53326 -0.01972 0.37973
 H250 H 0.57328 -0.09568 0.48338
 H251 H 0.53536 -0.05993 0.51421
 H252 H 0.50868 -0.00463 0.43078
 C253 C 0.61205 0.38399 -0.16549
 C254 C 0.60793 0.38027 -0.13200
 C255 C 0.62807 0.35504 -0.11711
 C256 C 0.65041 0.33397 -0.13538
 C257 C 0.65410 0.33810 -0.16843
 C258 C 0.63486 0.36332 -0.18323
 C259 C 0.62619 0.35116 -0.08398
 C260 C 0.60536 0.37226 -0.06494
 C261 C 0.58483 0.39784 -0.07846
 C262 C 0.58510 0.40105 -0.11274
 C263 C 0.56221 0.42461 -0.12667
 C264 C 0.54056 0.44501 -0.10778
 C265 C 0.54126 0.44335 -0.07422
 C266 C 0.56364 0.42004 -0.05894
 C267 C 0.56410 0.42028 -0.02466
 C268 C 0.54289 0.44236 -0.00668
 C269 C 0.52067 0.46485 -0.02207
 C270 C 0.51964 0.46504 -0.05584
 H271 H 0.59870 0.40309 -0.17862
 H272 H 0.66574 0.31485 -0.12367
 H273 H 0.63737 0.36699 -0.20877
 H274 H 0.64137 0.33180 -0.07250
 H275 H 0.60541 0.36736 -0.03963
 H276 H 0.55978 0.42748 -0.15237
 H277 H 0.52331 0.46260 -0.11961
 H278 H 0.58096 0.40423 -0.01089
 H279 H 0.54395 0.44192 0.01950
 H280 H 0.50209 0.48202 -0.06800
 C281 C -0.08698 0.14078 -0.15217
 C282 C -0.09883 0.12664 -0.12412
 C283 C -0.13382 0.13345 -0.11567
 C284 C -0.15531 0.15462 -0.13390
 C285 C -0.14351 0.16875 -0.16204
 C286 C -0.10881 0.16103 -0.17073
 C287 C -0.14761 0.11865 -0.08929
 C288 C -0.12775 0.09647 -0.07153
 C289 C -0.09271 0.08879 -0.07894
 C290 C -0.07749 0.10539 -0.10465
 C291 C -0.04138 0.10056 -0.10970
 C292 C -0.02109 0.07946 -0.09101
 C293 C -0.03606 0.06153 -0.06722
 C294 C -0.07221 0.06548 -0.06115
 C295 C -0.08641 0.04548 -0.03780
 C296 C -0.06546 0.02299 -0.02108
 C297 C -0.02981 0.01963 -0.02698
 C298 C -0.01508 0.03945 -0.04956
 H299 H -0.06108 0.13618 -0.16092
 H300 H -0.18221 0.15782 -0.12697
 H301 H -0.09721 0.17176 -0.19113
 H302 H -0.17433 0.12388 -0.08252
 H303 H -0.14044 0.08635 -0.05150
 H304 H -0.02770 0.11350 -0.12747
 H305 H 0.00657 0.07673 -0.09561
 H306 H -0.11376 0.04602 -0.03234
 H307 H -0.07737 0.00847 -0.00326
 H308 H 0.01273 0.03729 -0.05374
 C309 C -0.11460 0.67233 0.38903
 C310 C -0.11830 0.63710 0.38902
 C311 C -0.14181 0.62157 0.36547
 C312 C -0.16088 0.64070 0.34337
 C313 C -0.15698 0.67551 0.34390
 C314 C -0.13362 0.69104 0.36686
 C315 C -0.14624 0.58699 0.36398
 C316 C -0.12768 0.56717 0.38518
 C317 C -0.10382 0.58121 0.40905
 C318 C -0.09943 0.61683 0.41132
 C319 C -0.07646 0.63097 0.43590
 C320 C -0.05810 0.61118 0.45726
 C321 C -0.06158 0.57649 0.45501
 C322 C -0.08432 0.56086 0.43085
 C323 C -0.08616 0.52543 0.42939
 C324 C -0.06656 0.50671 0.45113
 C325 C -0.04472 0.52246 0.47513
 C326 C -0.04212 0.55733 0.47681
 H327 H -0.09719 0.68635 0.40571
 H328 H -0.17848 0.62834 0.32534
 H329 H -0.13032 0.71795 0.36798
 H330 H -0.16428 0.57501 0.34610
 H331 H -0.13297 0.54077 0.38231
 H332 H -0.07214 0.65748 0.43957
 H333 H -0.04080 0.62324 0.47573
 H334 H -0.10205 0.51124 0.41153
 H335 H -0.06819 0.47965 0.44895
 H336 H -0.02461 0.56975 0.49477
 C337 C 0.38629 0.17175 0.38698
 C338 C 0.38278 0.13655 0.38748
 C339 C 0.35830 0.12071 0.36501
 C340 C 0.33781 0.13960 0.34373
 C341 C 0.34145 0.17441 0.34384
 C342 C 0.36598 0.19020 0.36550
 C343 C 0.35434 0.08608 0.36378
 C344 C 0.37439 0.06650 0.38412
 C345 C 0.39914 0.08089 0.40698
 C346 C 0.40280 0.11657 0.40924
 C347 C 0.42600 0.13108 0.43342
 C348 C 0.44531 0.11157 0.45438
 C349 C 0.44277 0.07680 0.45194
 C350 C 0.42001 0.06082 0.42799
 C351 C 0.41952 0.02534 0.42592
 C352 C 0.44002 0.00690 0.44722
 C353 C 0.46142 0.02296 0.47138
 C354 C 0.46306 0.05789 0.47336
 H355 H 0.40468 0.18588 0.40258
 H356 H 0.31931 0.12709 0.32662
 H357 H 0.36922 0.21711 0.36613
 H358 H 0.33556 0.07387 0.34675
 H359 H 0.36931 0.04004 0.38165
 H360 H 0.42951 0.15770 0.43726
 H361 H 0.46261 0.12391 0.47268
 H362 H 0.40410 0.01097 0.40784
 H363 H 0.43927 -0.02020 0.44469
 H364 H 0.48036 0.07057 0.49135
 C365 C 0.41555 0.64601 -0.14687
 C366 C 0.40055 0.62723 -0.12294
 C367 C 0.36370 0.62929 -0.12003
 C368 C 0.34320 0.64975 -0.13982
 C369 C 0.35852 0.66816 -0.16327
 C370 C 0.39480 0.66599 -0.16666
 C371 C 0.34731 0.61076 -0.09756
 C372 C 0.36651 0.58969 -0.07804
 C373 C 0.40325 0.58655 -0.07990
 C374 C 0.42067 0.60623 -0.10219
 C375 C 0.45760 0.60442 -0.10279
 C376 C 0.47684 0.58368 -0.08293
 C377 C 0.46021 0.56359 -0.06190
 C378 C 0.42319 0.56452 -0.06008
 C379 C 0.40778 0.54316 -0.03852
 C380 C 0.42829 0.52193 -0.01988
 C381 C 0.46466 0.52106 -0.02217
 C382 C 0.48054 0.54240 -0.04269
 H383 H 0.44314 0.64557 -0.15131
 H384 H 0.31502 0.65077 -0.13745
 H385 H 0.40727 0.68005 -0.18457
 H386 H 0.31916 0.61235 -0.09517
 H387 H 0.35158 0.57642 -0.06142
 H388 H 0.47267 0.61911 -0.11816
 H389 H 0.50514 0.58319 -0.08427
 H390 H 0.37996 0.54193 -0.03557
 H391 H 0.41544 0.50646 -0.00342
 H392 H 0.50885 0.54220 -0.04398
 C393 C -0.09924 -0.11819 0.16492
 C394 C -0.10596 -0.11527 0.13136
 C395 C -0.13433 -0.13375 0.11657
 C396 C -0.15543 -0.15342 0.13493
 C397 C -0.14885 -0.15600 0.16848
 C398 C -0.12017 -0.13801 0.18294
 C399 C -0.14181 -0.13248 0.08342
 C400 C -0.12139 -0.11369 0.06434
 C401 C -0.09271 -0.09486 0.07776
 C402 C -0.08543 -0.09492 0.11198
 C403 C -0.05828 -0.07425 0.12572
 C404 C -0.03856 -0.05461 0.10677
 C405 C -0.04461 -0.05505 0.07333
 C406 C -0.07143 -0.07550 0.05819
 C407 C -0.07546 -0.07595 0.02397
 C408 C -0.05444 -0.05626 0.00596
 C409 C -0.02904 -0.03535 0.02128
 C410 C -0.02385 -0.03512 0.05490
 H411 H -0.07750 -0.10607 0.17803
 H412 H -0.17787 -0.16562 0.12278
 H413 H -0.11250 -0.14004 0.20818
 H414 H -0.16365 -0.14637 0.07196
 H415 H -0.12933 -0.11399 0.03907
 H416 H -0.05191 -0.07211 0.15133
 H417 H -0.01817 -0.03897 0.11848
 H418 H -0.09416 -0.09158 0.01024
 H419 H -0.05819 -0.05726 -0.02017
 H420 H -0.00345 -0.01974 0.06682
 C421 C -0.09642 0.36270 0.66244
 C422 C -0.11091 0.37808 0.63490
 C423 C -0.14704 0.37294 0.62710
 C424 C -0.16729 0.35292 0.64585
 C425 C -0.15239 0.33766 0.67278
 C426 C -0.11687 0.34291 0.68094
 C427 C -0.16291 0.38770 0.60055
 C428 C -0.14382 0.40754 0.58132
 C429 C -0.10774 0.41344 0.58781
 C430 C -0.09092 0.39824 0.61490
 C431 C -0.05465 0.40346 0.62088
 C432 C -0.03540 0.42265 0.60117
 C433 C -0.05137 0.43768 0.57483
 C434 C -0.08781 0.43372 0.56790
 C435 C -0.10269 0.45049 0.54136
 C436 C -0.08204 0.46937 0.52221
 C437 C -0.04595 0.47203 0.52859
 C438 C -0.03093 0.45673 0.55534
 H439 H -0.06939 0.36536 0.67048
 H440 H -0.19493 0.34949 0.63965
 H441 H -0.10462 0.33121 0.70150
 H442 H -0.19051 0.38379 0.59447
 H443 H -0.15823 0.41757 0.56118
 H444 H -0.04003 0.39274 0.64052
 H445 H -0.00756 0.42570 0.60661
 H446 H -0.13024 0.44985 0.53478
 H447 H -0.09466 0.48190 0.50246
 H448 H -0.00324 0.45995 0.56131
 C449 C 0.40932 -0.13872 0.65671
 C450 C 0.39522 -0.12376 0.62878
 C451 C 0.35930 -0.12940 0.62035
 C452 C 0.33891 -0.14957 0.63884
 C453 C 0.35343 -0.16440 0.66616
 C454 C 0.38871 -0.15862 0.67497
 C455 C 0.34377 -0.11496 0.59348
 C456 C 0.36295 -0.09481 0.57462
 C457 C 0.39880 -0.08832 0.58180
 C458 C 0.41536 -0.10344 0.60905
 C459 C 0.45154 -0.09801 0.61543
 C460 C 0.47090 -0.07852 0.59606
 C461 C 0.45510 -0.06333 0.56973
 C462 C 0.41877 -0.06758 0.56237
 C463 C 0.40398 -0.05049 0.53602
 C464 C 0.42464 -0.03105 0.51739
 C465 C 0.46065 -0.02815 0.52408
 C466 C 0.47557 -0.04377 0.55071
 H467 H 0.43613 -0.13554 0.66529
 H468 H 0.31143 -0.15340 0.63215
 H469 H 0.40064 -0.16994 0.69589
 H470 H 0.31635 -0.11929 0.58688
 H471 H 0.34883 -0.08507 0.55417
 H472 H 0.46601 -0.10885 0.63510
 H473 H 0.49866 -0.07530 0.60181
 H474 H 0.37647 -0.05116 0.52929
 H475 H 0.41200 -0.01821 0.49785
 H476 H 0.50315 -0.04031 0.55702
 C477 C 0.39878 0.37466 0.16650
 C478 C 0.38996 0.38108 0.13389
 C479 C 0.35943 0.36570 0.11945
 C480 C 0.33772 0.34651 0.13771
 C481 C 0.34636 0.34108 0.17028
 C482 C 0.37742 0.35495 0.18419
 C483 C 0.35059 0.36962 0.08687
 C484 C 0.37165 0.38811 0.06802
 C485 C 0.40202 0.40438 0.08134
 C486 C 0.41052 0.40191 0.11512
 C487 C 0.43862 0.42111 0.12921
 C488 C 0.45808 0.44165 0.11093
 C489 C 0.45106 0.44322 0.07776
 C490 C 0.42358 0.42394 0.06223
 C491 C 0.41921 0.42475 0.02812
 C492 C 0.44020 0.44508 0.01066
 C493 C 0.46557 0.46564 0.02657
 C494 C 0.47145 0.46407 0.05999
 H495 H 0.42246 0.38380 0.17885
 H496 H 0.31377 0.33616 0.12649
 H497 H 0.38564 0.35026 0.20885
 H498 H 0.32721 0.35802 0.07570
 H499 H 0.36270 0.39015 0.04320
 H500 H 0.44554 0.42175 0.15472
 H501 H 0.47902 0.45638 0.12293
 H502 H 0.40035 0.40947 0.01414
 H503 H 0.43629 0.44504 -0.01541
 H504 H 0.49220 0.47875 0.07228
 C505 C 0.09439 0.15086 0.14591
 C506 C 0.10685 0.12581 0.12352
 C507 C 0.14368 0.12221 0.12124
 C508 C 0.16667 0.14275 0.14069
 C509 C 0.15381 0.16735 0.16269
 C510 C 0.11750 0.17116 0.16504
 C511 C 0.15751 0.09815 0.09955
 C512 C 0.13572 0.07745 0.07984
 C513 C 0.09886 0.07990 0.08100
 C514 C 0.08416 0.10434 0.10337
 C515 C 0.04730 0.10641 0.10491
 C516 C 0.02551 0.08554 0.08535
 C517 C 0.03935 0.06183 0.06334
 C518 C 0.07618 0.05864 0.06065
 C519 C 0.08863 0.03434 0.03748
 C520 C 0.06552 0.01403 0.01836
 C521 C 0.02938 0.01708 0.02172
 C522 C 0.01641 0.04123 0.04393
 H523 H 0.06696 0.15558 0.14936
 H524 H 0.19474 0.13988 0.13835
 H525 H 0.10683 0.18970 0.18213
 H526 H 0.18564 0.09526 0.09776
 H527 H 0.14881 0.05955 0.06400
 H528 H 0.03421 0.12389 0.12116
 H529 H -0.00261 0.08806 0.08750
 H530 H 0.11602 0.03041 0.03324
 H531 H 0.07618 -0.00391 0.00076
 H532 H -0.01170 0.04389 0.04618
 C533 C 0.16867 0.60427 0.61748
 C534 C 0.13166 0.60728 0.61525
 C535 C 0.11578 0.63229 0.63563
 C536 C 0.13637 0.65401 0.65623
 C537 C 0.17293 0.65094 0.65766
 C538 C 0.18881 0.62572 0.63839
 C539 C 0.07942 0.63554 0.63545
 C540 C 0.05819 0.61431 0.61570
 C541 C 0.07258 0.58918 0.59470
 C542 C 0.10994 0.58627 0.59377
 C543 C 0.12435 0.56293 0.57097
 C544 C 0.10315 0.54280 0.55011
 C545 C 0.06678 0.54454 0.55144
 C546 C 0.05086 0.56731 0.57408
 C547 C 0.01380 0.56696 0.57519
 C548 C -0.00628 0.54565 0.55410
 C549 C 0.00973 0.52423 0.53122
 C550 C 0.04623 0.52356 0.53010
 H551 H 0.18295 0.58535 0.60379
 H552 H 0.12387 0.67310 0.67159
 H553 H 0.21706 0.62283 0.63916
 H554 H 0.06715 0.65467 0.65092
 H555 H 0.03044 0.61884 0.61694
 H556 H 0.15211 0.56010 0.56800
 H557 H 0.11544 0.52551 0.53279
 H558 H -0.00053 0.58244 0.59233
 H559 H -0.03455 0.54603 0.55556
 H560 H 0.05882 0.50678 0.51259
 C561 C 0.66915 0.10757 0.62051
 C562 C 0.63209 0.10943 0.61759
 C563 C 0.61492 0.13316 0.63842
 C564 C 0.63432 0.15471 0.66024
 C565 C 0.67096 0.15277 0.66239
 C566 C 0.68809 0.12886 0.64255
 C567 C 0.57847 0.13534 0.63744
 C568 C 0.55840 0.11427 0.61645
 C569 C 0.57407 0.09033 0.59503
 C570 C 0.61155 0.08848 0.59500
 C571 C 0.62724 0.06619 0.57203
 C572 C 0.60718 0.04605 0.55017
 C573 C 0.57072 0.04678 0.55055
 C574 C 0.55353 0.06855 0.57323
 C575 C 0.51643 0.06731 0.57320
 C576 C 0.49754 0.04599 0.55116
 C577 C 0.51479 0.02542 0.52841
 C578 C 0.55135 0.02574 0.52826
 H579 H 0.68439 0.08973 0.60643
 H580 H 0.62082 0.17276 0.67595
 H581 H 0.71642 0.12690 0.64375
 H582 H 0.56522 0.15350 0.65323
 H583 H 0.53048 0.11793 0.61720
 H584 H 0.65517 0.06412 0.56977
 H585 H 0.62045 0.02954 0.53283
 H586 H 0.50115 0.08207 0.59014
 H587 H 0.46921 0.04565 0.55183
 H588 H 0.56488 0.00963 0.51082
 C589 C 0.67194 0.61935 0.10897
 C590 C 0.63564 0.61417 0.11233
 C591 C 0.61894 0.63322 0.13735
 C592 C 0.63815 0.65559 0.15846
 C593 C 0.67412 0.66021 0.15494
 C594 C 0.69069 0.64196 0.12989
 C595 C 0.58310 0.62991 0.14130
 C596 C 0.56308 0.60855 0.12059
 C597 C 0.57827 0.58906 0.09519
 C598 C 0.61534 0.59111 0.09163
 C599 C 0.63089 0.56967 0.06785
 C600 C 0.61099 0.54746 0.04786
 C601 C 0.57474 0.54605 0.05023
 C602 C 0.55770 0.56716 0.07357
 C603 C 0.52065 0.56574 0.07391
 C604 C 0.50174 0.54369 0.05265
 C605 C 0.51893 0.52219 0.03065
 C606 C 0.55537 0.52365 0.02921
 H607 H 0.68660 0.60687 0.09006
 H608 H 0.62501 0.66924 0.17793
 H609 H 0.71826 0.64555 0.12603
 H610 H 0.57025 0.64423 0.16054
 H611 H 0.53569 0.60738 0.12566
 H612 H 0.65870 0.56889 0.06444
 H613 H 0.62416 0.53133 0.03014
 H614 H 0.50535 0.58171 0.08982
 H615 H 0.47342 0.54334 0.05351
 H616 H 0.56871 0.50768 0.01154
   
