data_POSCAR
  _audit_creation_date              2014-09-24
  _audit_creation_method            'ToBaCCo'
  _symmetry_space_group_name_H-M    'P1'
  _symmetry_Int_Tables_number       1
  _symmetry_cell_setting            triclinic
  loop_
  _symmetry_equiv_pos_as_xyz
 x,y,z
_cell_length_a 46.2803
_cell_length_b 47.0147
_cell_length_c 46.2443
_cell_angle_alpha 87.573300
_cell_angle_beta 94.184500
_cell_angle_gamma 93.017100
loop_
  _atom_site_label
  _atom_site_type_symbol
  _atom_site_fract_x
  _atom_site_fract_y
  _atom_site_fract_z
N1 N 0.27139 0.22904 0.18530
 N2 N 0.25765 0.25053 0.17275
 C3 C 0.27260 0.26164 0.15072
 C4 C 0.29679 0.24601 0.14914
 C5 C 0.29544 0.22546 0.17141
 H6 H 0.26639 0.27975 0.13688
 H7 H 0.31106 0.20958 0.17749
 Cu8 Cu 0.22167 0.26199 0.18641
 Cu9 Cu 0.25754 0.20827 0.21939
 Cu10 Cu 0.19827 0.23479 0.24941
 N11 N 0.19271 0.28025 0.20616
 N12 N 0.18336 0.26971 0.23075
 C13 C 0.16431 0.28741 0.24009
 C14 C 0.16182 0.31018 0.22016
 C15 C 0.18010 0.30491 0.19900
 H16 H 0.15378 0.28431 0.26017
 H17 H 0.18446 0.31844 0.18015
 N18 N 0.21709 0.19990 0.26476
 N19 N 0.24013 0.19037 0.25375
 C20 C 0.24899 0.16746 0.26976
 C21 C 0.23054 0.16211 0.29164
 C22 C 0.21051 0.18302 0.28791
 H23 H 0.26765 0.15557 0.26601
 H24 H 0.19306 0.18624 0.30156
 H25 H 0.21400 0.21715 0.21391
 H26 H 0.23861 0.24347 0.23407
 N27 N 0.75488 -0.21710 0.21732
 N28 N 0.76910 -0.23678 0.20580
 C29 C 0.75442 -0.24634 0.18164
 C30 C 0.72703 -0.23118 0.17572
 C31 C 0.73020 -0.21208 0.20106
 H32 H 0.76154 -0.26291 0.16869
 H33 H 0.71460 -0.19712 0.20634
 Cu34 Cu 0.80577 -0.24911 0.22373
 Cu35 Cu 0.76831 -0.20066 0.25437
 Cu36 Cu 0.83158 -0.22647 0.28858
 N37 N 0.83501 -0.26956 0.24713
 N38 N 0.84458 -0.26102 0.27293
 C39 C 0.86423 -0.27905 0.28467
 C40 C 0.86720 -0.29994 0.26509
 C41 C 0.84827 -0.29328 0.24142
 H42 H 0.87566 -0.27701 0.30580
 H43 H 0.84404 -0.30487 0.22174
 N44 N 0.80969 -0.19686 0.30481
 N45 N 0.78564 -0.18695 0.29194
 C46 C 0.77566 -0.16752 0.30888
 C47 C 0.79435 -0.16525 0.33353
 C48 C 0.81558 -0.18412 0.33023
 H49 H 0.75607 -0.15623 0.30385
 H50 H 0.83378 -0.18851 0.34550
 H51 H 0.81158 -0.20597 0.25223
 H52 H 0.79070 -0.23577 0.27025
 N53 N 0.70671 0.21809 0.80771
 N54 N 0.72344 0.23671 0.82236
 C55 C 0.70853 0.24708 0.84314
 C56 C 0.68113 0.23397 0.84164
 C57 C 0.68064 0.21564 0.81895
 H58 H 0.71685 0.26324 0.85797
 H59 H 0.66240 0.20239 0.81053
 Cu60 Cu 0.76264 0.24644 0.81227
 Cu61 Cu 0.71937 0.20028 0.77381
 Cu62 Cu 0.78496 0.22643 0.74900
 N63 N 0.79617 0.26490 0.79560
 N64 N 0.80466 0.25762 0.77054
 C65 C 0.82687 0.27553 0.76312
 C66 C 0.83235 0.29502 0.78482
 C67 C 0.81260 0.28749 0.80508
 H68 H 0.83748 0.27485 0.74311
 H69 H 0.80956 0.29844 0.82467
 N70 N 0.76134 0.19492 0.73066
 N71 N 0.73618 0.18532 0.73995
 C72 C 0.72480 0.16473 0.72258
 C73 C 0.74374 0.16099 0.70157
 C74 C 0.76673 0.18045 0.70725
 H75 H 0.70415 0.15329 0.72488
 H76 H 0.78561 0.18421 0.69492
 H77 H 0.76401 0.20524 0.78226
 H78 H 0.74536 0.23572 0.76302
 N79 N 0.28344 -0.22368 0.80492
 N80 N 0.26906 -0.24380 0.81935
 C81 C 0.28635 -0.25387 0.84171
 C82 C 0.31282 -0.23896 0.84152
 C83 C 0.31030 -0.21993 0.81790
 H84 H 0.28019 -0.27083 0.85692
 H85 H 0.32697 -0.20511 0.81023
 Cu86 Cu 0.22930 -0.25502 0.80744
 Cu87 Cu 0.26671 -0.20537 0.76937
 Cu88 Cu 0.19939 -0.23293 0.74258
 N89 N 0.19453 -0.27385 0.79012
 N90 N 0.18276 -0.26538 0.76468
 C91 C 0.15981 -0.28313 0.75732
 C92 C 0.15732 -0.30381 0.77944
 C93 C 0.17962 -0.29717 0.79985
 H94 H 0.14659 -0.28150 0.73711
 H95 H 0.18514 -0.30900 0.81990
 N96 N 0.22020 -0.20017 0.72375
 N97 N 0.24599 -0.19001 0.73378
 C98 C 0.25509 -0.16879 0.71564
 C99 C 0.23401 -0.16528 0.69332
 C100 C 0.21213 -0.18547 0.69908
 H101 H 0.27571 -0.15691 0.71820
 H102 H 0.19224 -0.18968 0.68588
 H103 H 0.22303 -0.21252 0.77596
 H104 H 0.24107 -0.24123 0.75837
 N105 N 0.73869 -0.23144 0.81168
 N106 N 0.75023 -0.25479 0.82283
 C107 C 0.73531 -0.26462 0.84544
 C108 C 0.71348 -0.24630 0.84873
 C109 C 0.71616 -0.22552 0.82685
 H110 H 0.73989 -0.28372 0.85849
 H111 H 0.70244 -0.20778 0.82185
 Cu112 Cu 0.78325 -0.27038 0.80621
 Cu113 Cu 0.75293 -0.21163 0.77724
 Cu114 Cu 0.82538 -0.22285 0.77035
 N115 N 0.82010 -0.28061 0.79271
 N116 N 0.83695 -0.26153 0.77962
 C117 C 0.86145 -0.27354 0.77361
 C118 C 0.85967 -0.30184 0.78289
 C119 C 0.83311 -0.30567 0.79506
 H120 H 0.87894 -0.26264 0.76261
 H121 H 0.82397 -0.32499 0.80500
 N122 N 0.80517 -0.19078 0.75070
 N123 N 0.77726 -0.18715 0.75231
 C124 C 0.76913 -0.16581 0.73364
 C125 C 0.79317 -0.15566 0.71949
 C126 C 0.81558 -0.17187 0.73091
 H127 H 0.74715 -0.15909 0.72986
 H128 H 0.83745 -0.17111 0.72401
 H129 H 0.78363 -0.23863 0.76315
 H130 H 0.79159 -0.21908 0.79739
 N131 N 0.24565 0.20519 0.77960
 N132 N 0.24166 0.23040 0.78949
 C133 C 0.26150 0.23570 0.81164
 C134 C 0.27873 0.21242 0.81580
 C135 C 0.26794 0.19345 0.79522
 H136 H 0.26340 0.25517 0.82344
 H137 H 0.27622 0.17295 0.79137
 Cu138 Cu 0.21098 0.25385 0.77219
 Cu139 Cu 0.22247 0.19021 0.74626
 Cu140 Cu 0.19325 0.24397 0.70164
 N141 N 0.18474 0.27869 0.74963
 N142 N 0.17840 0.27493 0.72183
 C143 C 0.16105 0.29541 0.71096
 C144 C 0.15586 0.31272 0.73317
 C145 C 0.17129 0.30159 0.75752
 H146 H 0.15263 0.29742 0.68856
 H147 H 0.17296 0.30971 0.77914
 N148 N 0.19869 0.20552 0.68834
 N149 N 0.20893 0.18470 0.70552
 C150 C 0.20912 0.16094 0.69027
 C151 C 0.19826 0.16720 0.66215
 C152 C 0.19183 0.19555 0.66176
 H153 H 0.21671 0.14076 0.69904
 H154 H 0.18262 0.20794 0.64344
 H155 H 0.22715 0.23058 0.73043
 H156 H 0.18914 0.21915 0.73811
 N157 N 0.29899 -0.20632 0.19472
 N158 N 0.29246 -0.23168 0.18440
 C159 C 0.31152 -0.23698 0.16480
 C160 C 0.33091 -0.21362 0.16281
 C161 C 0.32227 -0.19463 0.18204
 H162 H 0.31135 -0.25636 0.15302
 H163 H 0.33247 -0.17394 0.18667
 Cu164 Cu 0.25972 -0.25527 0.19773
 Cu165 Cu 0.27765 -0.19061 0.22459
 Cu166 Cu 0.21860 -0.23125 0.24777
 N167 N 0.22557 -0.27723 0.21027
 N168 N 0.20957 -0.26753 0.22967
 C169 C 0.18761 -0.28660 0.23456
 C170 C 0.18992 -0.30961 0.21732
 C171 C 0.21423 -0.30294 0.20217
 H172 H 0.17137 -0.28390 0.24973
 H173 H 0.22299 -0.31598 0.18654
 N174 N 0.23102 -0.19402 0.26362
 N175 N 0.25343 -0.17841 0.25469
 C176 C 0.25682 -0.15463 0.27013
 C177 C 0.23562 -0.15536 0.28970
 C178 C 0.21960 -0.18063 0.28497
 H179 H 0.27380 -0.13818 0.26779
 H180 H 0.20130 -0.18893 0.29650
 H181 H 0.26280 -0.22910 0.24245
 H182 H 0.23894 -0.21221 0.21294
 N183 N 0.71743 0.21148 0.20074
 N184 N 0.72484 0.23588 0.18766
 C185 C 0.70572 0.24066 0.16474
 C186 C 0.68537 0.21796 0.16355
 C187 C 0.69352 0.19990 0.18663
 H188 H 0.70637 0.25934 0.15032
 H189 H 0.68241 0.18007 0.19302
 Cu190 Cu 0.75838 0.25917 0.20238
 Cu191 Cu 0.73812 0.19713 0.23601
 Cu192 Cu 0.79859 0.23722 0.26200
 N193 N 0.79314 0.28087 0.21680
 N194 N 0.80879 0.27197 0.23997
 C195 C 0.83120 0.29081 0.24549
 C196 C 0.82953 0.31275 0.22465
 C197 C 0.80513 0.30579 0.20681
 H198 H 0.84716 0.28882 0.26362
 H199 H 0.79670 0.31816 0.18812
 N200 N 0.78485 0.20146 0.28132
 N201 N 0.76181 0.18615 0.27140
 C202 C 0.75725 0.16374 0.28991
 C203 C 0.77847 0.16509 0.31253
 C204 C 0.79557 0.18918 0.30639
 H205 H 0.73938 0.14809 0.28749
 H206 H 0.81402 0.19747 0.31970
 H207 H 0.75455 0.23618 0.25035
 H208 H 0.77769 0.21670 0.22712
 C209 C 0.20777 0.00683 0.45910
 C210 C 0.20748 -0.02323 0.45946
 C211 C 0.20712 -0.03858 0.48623
 C212 C 0.20638 -0.02468 0.51250
 C213 C 0.20589 0.00536 0.51201
 C214 C 0.20709 0.02069 0.48532
 H215 H 0.20750 0.04374 0.48480
 H216 H 0.20743 -0.06160 0.48671
 C217 C 0.74954 0.01369 0.48426
 C218 C 0.74944 -0.01638 0.48674
 C219 C 0.75100 -0.02986 0.51449
 C220 C 0.75333 -0.01408 0.53980
 C221 C 0.75317 0.01596 0.53725
 C222 C 0.75116 0.02942 0.50954
 H223 H 0.75133 0.05246 0.50760
 H224 H 0.74961 -0.05292 0.51638
 C225 C 0.51078 0.23404 0.00393
 C226 C 0.50854 0.23297 -0.02662
 C227 C 0.48113 0.23344 -0.04177
 C228 C 0.45565 0.23413 -0.02708
 C229 C 0.45787 0.23523 0.00348
 C230 C 0.48536 0.23555 0.01855
 H231 H 0.48684 0.23667 0.04193
 H232 H 0.47973 0.23294 -0.06521
 C233 C 0.54927 0.77800 0.01978
 C234 C 0.54838 0.77765 -0.01077
 C235 C 0.52135 0.77562 -0.02663
 C236 C 0.49527 0.77422 -0.01273
 C237 C 0.49614 0.77405 0.01790
 C238 C 0.52326 0.77550 0.03376
 H239 H 0.52435 0.77488 0.05724
 H240 H 0.52059 0.77656 -0.05013
 C241 C 0.02464 0.47518 0.25534
 C242 C -0.00590 0.47546 0.25515
 C243 C -0.01921 0.50170 0.25302
 C244 C -0.00290 0.52761 0.25050
 C245 C 0.02757 0.52739 0.24992
 C246 C 0.04096 0.50116 0.25287
 H247 H 0.06440 0.50098 0.25423
 H248 H -0.04261 0.50196 0.25306
 C249 C 0.00972 0.47224 0.75183
 C250 C -0.02084 0.46872 0.75100
 C251 C -0.03746 0.49300 0.74932
 C252 C -0.02444 0.52058 0.74977
 C253 C 0.00613 0.52422 0.75035
 C254 C 0.02275 0.49994 0.75122
 H255 H 0.04614 0.50261 0.75156
 H256 H -0.06093 0.49054 0.74785
 C257 C 0.31933 0.25132 0.12851
 C258 C 0.33879 0.23081 0.12337
 C259 C 0.36147 0.23598 0.10266
 C260 C 0.37018 0.21310 0.08745
 C261 C 0.39195 0.21726 0.06808
 C262 C 0.40576 0.24434 0.06403
 C263 C 0.39746 0.26710 0.07967
 C264 C 0.37530 0.26306 0.09863
 C265 C 0.43002 0.24885 0.04509
 C266 C 0.43168 0.23356 0.02015
 H267 H 0.33624 0.20971 0.13347
 H268 H 0.36006 0.19199 0.09052
 H269 H 0.39849 0.19911 0.05695
 H270 H 0.40815 0.28803 0.07720
 H271 H 0.36956 0.28094 0.11066
 H272 H 0.44678 0.26508 0.05061
 H273 H 0.31965 0.27137 0.11611
 H274 H 0.41326 0.22005 0.01251
 C275 C 0.70235 0.76461 0.15053
 C276 C 0.68001 0.78316 0.14562
 C277 C 0.65626 0.77800 0.12312
 C278 C 0.64143 0.80113 0.11037
 C279 C 0.61832 0.79666 0.08959
 C280 C 0.60926 0.76887 0.08175
 C281 C 0.62383 0.74571 0.09476
 C282 C 0.64742 0.75022 0.11498
 C283 C 0.58358 0.76357 0.06154
 C284 C 0.57697 0.78159 0.03756
 H285 H 0.68040 0.80239 0.15785
 H286 H 0.64773 0.82268 0.11653
 H287 H 0.60699 0.81486 0.08037
 H288 H 0.61694 0.72411 0.08924
 H289 H 0.65822 0.73195 0.12480
 H290 H 0.56979 0.74460 0.06523
 H291 H 0.71473 0.76741 0.16394
 H292 H 0.59234 0.79865 0.03173
 C293 C 0.65735 0.24003 -0.14056
 C294 C 0.63332 0.22124 -0.13808
 C295 C 0.60941 0.22729 -0.12024
 C296 C 0.59552 0.20479 -0.10496
 C297 C 0.57282 0.20996 -0.08789
 C298 C 0.56324 0.23770 -0.08638
 C299 C 0.57658 0.26009 -0.10232
 C300 C 0.59973 0.25502 -0.11888
 C301 C 0.53870 0.24341 -0.06924
 C302 C 0.53434 0.22906 -0.04282
 H303 H 0.63294 0.20065 -0.14780
 H304 H 0.60245 0.18322 -0.10603
 H305 H 0.56239 0.19218 -0.07638
 H306 H 0.56923 0.28154 -0.10174
 H307 H 0.60965 0.27264 -0.13105
 H308 H 0.52446 0.26012 -0.07692
 H309 H 0.65944 0.25916 -0.12816
 H310 H 0.55061 0.21503 -0.03337
 C311 C 0.33829 0.75631 -0.13830
 C312 C 0.36091 0.77684 -0.13459
 C313 C 0.38638 0.77234 -0.11411
 C314 C 0.39938 0.79553 -0.09914
 C315 C 0.42363 0.79190 -0.07976
 C316 C 0.43565 0.76507 -0.07552
 C317 C 0.42312 0.74204 -0.09108
 C318 C 0.39846 0.74553 -0.10999
 C319 C 0.46202 0.76111 -0.05615
 C320 C 0.46748 0.77575 -0.03058
 H321 H 0.35897 0.79760 -0.14544
 H322 H 0.39062 0.81645 -0.10230
 H323 H 0.43336 0.81023 -0.06865
 H324 H 0.43234 0.72130 -0.08846
 H325 H 0.38927 0.72743 -0.12183
 H326 H 0.47704 0.74559 -0.06161
 H327 H 0.33850 0.73678 -0.12502
 H328 H 0.45083 0.78852 -0.02325
 C329 C 0.14522 0.33591 0.22098
 C330 C 0.12683 0.34057 0.24269
 C331 C 0.11105 0.36712 0.24324
 C332 C 0.08461 0.36657 0.25630
 C333 C 0.06889 0.39120 0.25640
 C334 C 0.07965 0.41706 0.24375
 C335 C 0.10641 0.41763 0.23127
 C336 C 0.12204 0.39306 0.23112
 C337 C 0.06371 0.44369 0.24234
 C338 C 0.03973 0.44799 0.25800
 H339 H 0.12279 0.32385 0.25893
 H340 H 0.07578 0.34687 0.26591
 H341 H 0.04820 0.38953 0.26589
 H342 H 0.11536 0.43725 0.22159
 H343 H 0.14284 0.39460 0.22177
 H344 H 0.07133 0.46089 0.22805
 H345 H 0.14745 0.35156 0.20335
 H346 H 0.03151 0.43120 0.27223
 C347 C 0.13818 0.67238 0.78120
 C348 C 0.11648 0.66550 0.75967
 C349 C 0.09859 0.63845 0.76095
 C350 C 0.07101 0.63678 0.74617
 C351 C 0.05385 0.61134 0.74681
 C352 C 0.06420 0.58693 0.76208
 C353 C 0.09191 0.58865 0.77655
 C354 C 0.10898 0.61397 0.77590
 C355 C 0.04745 0.55920 0.76355
 C356 C 0.02085 0.55296 0.74830
 H357 H 0.11204 0.68041 0.74160
 H358 H 0.06262 0.65529 0.73429
 H359 H 0.03264 0.61117 0.73540
 H360 H 0.10061 0.57016 0.78823
 H361 H 0.13052 0.61399 0.78666
 H362 H 0.05677 0.54255 0.77763
 H363 H 0.14077 0.65855 0.80043
 H364 H 0.00994 0.56930 0.73526
 C365 C -0.11458 0.67729 0.26921
 C366 C -0.11093 0.65826 0.24753
 C367 C -0.09229 0.63367 0.25219
 C368 C -0.07900 0.62362 0.22857
 C369 C -0.06189 0.59992 0.23207
 C370 C -0.05814 0.58557 0.25927
 C371 C -0.07186 0.59530 0.28278
 C372 C -0.08862 0.61925 0.27937
 C373 C -0.04145 0.55960 0.26334
 C374 C -0.01821 0.55455 0.24698
 H375 H -0.12081 0.66215 0.22588
 H376 H -0.08188 0.63415 0.20733
 H377 H -0.05232 0.59245 0.21330
 H378 H -0.06963 0.58430 0.30382
 H379 H -0.09929 0.62594 0.29782
 H380 H -0.04687 0.54441 0.28064
 H381 H -0.10232 0.67492 0.28996
 H382 H -0.01031 0.57107 0.23211
 C383 C -0.14829 0.31874 0.78620
 C384 C -0.13004 0.32717 0.76431
 C385 C -0.11215 0.35428 0.76482
 C386 C -0.08805 0.35750 0.74804
 C387 C -0.07109 0.38305 0.74761
 C388 C -0.07805 0.40601 0.76400
 C389 C -0.10240 0.40283 0.78044
 C390 C -0.11934 0.37741 0.78077
 C391 C -0.06141 0.43386 0.76420
 C392 C -0.03567 0.43992 0.75062
 H393 H -0.12857 0.31353 0.74624
 H394 H -0.08230 0.34017 0.73520
 H395 H -0.05291 0.38458 0.73417
 H396 H -0.10859 0.42026 0.79291
 H397 H -0.13839 0.37638 0.79305
 H398 H -0.06970 0.45047 0.77636
 H399 H -0.14809 0.33128 0.80530
 H400 H -0.02548 0.42330 0.74029
 C401 C 0.23354 0.13984 0.31480
 C402 C 0.21099 0.13118 0.33206
 C403 C 0.21457 0.10956 0.35603
 C404 C 0.19077 0.09157 0.36313
 C405 C 0.19347 0.07143 0.38621
 C406 C 0.21996 0.06936 0.40292
 C407 C 0.24361 0.08765 0.39608
 C408 C 0.24106 0.10741 0.37272
 C409 C 0.22292 0.04990 0.42878
 C410 C 0.20688 0.02409 0.43150
 H411 H 0.18973 0.13944 0.32701
 H412 H 0.17006 0.09312 0.35080
 H413 H 0.17459 0.05818 0.39146
 H414 H 0.26408 0.08674 0.40896
 H415 H 0.25959 0.12152 0.36829
 H416 H 0.23880 0.05585 0.44615
 H417 H 0.25387 0.12932 0.31762
 H418 H 0.19369 0.01612 0.41299
 C419 C 0.73892 0.14120 0.67771
 C420 C 0.76097 0.13444 0.66059
 C421 C 0.75588 0.11479 0.63640
 C422 C 0.77855 0.09842 0.62906
 C423 C 0.77437 0.07975 0.60620
 C424 C 0.74748 0.07746 0.59001
 C425 C 0.72507 0.09438 0.59688
 C426 C 0.72911 0.11274 0.61997
 C427 C 0.74264 0.05872 0.56506
 C428 C 0.75708 0.03362 0.56320
 H429 H 0.78296 0.14248 0.66606
 H430 H 0.79949 0.09998 0.64113
 H431 H 0.79239 0.06767 0.60087
 H432 H 0.70433 0.09333 0.58437
 H433 H 0.71148 0.12573 0.62449
 H434 H 0.72614 0.06419 0.54819
 H435 H 0.71754 0.13089 0.67432
 H436 H 0.77095 0.02621 0.58154
 C437 C 0.23613 -0.14533 0.66808
 C438 C 0.21240 -0.13952 0.64881
 C439 C 0.21487 -0.12033 0.62283
 C440 C 0.19089 -0.10502 0.61212
 C441 C 0.19251 -0.08700 0.58737
 C442 C 0.21811 -0.08431 0.57263
 C443 C 0.24183 -0.10015 0.58294
 C444 C 0.24034 -0.11785 0.60790
 C445 C 0.22024 -0.06630 0.54580
 C446 C 0.20461 -0.04186 0.54002
 H447 H 0.19106 -0.14822 0.65358
 H448 H 0.17089 -0.10695 0.62300
 H449 H 0.17352 -0.07577 0.57947
 H450 H 0.26160 -0.09879 0.57166
 H451 H 0.25892 -0.13005 0.61505
 H452 H 0.23580 -0.07164 0.53073
 H453 H 0.25695 -0.13440 0.66512
 H454 H 0.19176 -0.03439 0.55654
 C455 C 0.79245 -0.14768 0.35886
 C456 C 0.77103 -0.12812 0.36051
 C457 C 0.76909 -0.11052 0.38608
 C458 C 0.75516 -0.08469 0.38253
 C459 C 0.75328 -0.06733 0.40610
 C460 C 0.76500 -0.07574 0.43393
 C461 C 0.77851 -0.10183 0.43749
 C462 C 0.78043 -0.11911 0.41394
 C463 C 0.76439 -0.05798 0.45965
 C464 C 0.74813 -0.03385 0.46062
 H465 H 0.75592 -0.12451 0.34189
 H466 H 0.74612 -0.07766 0.36132
 H467 H 0.74307 -0.04728 0.40206
 H468 H 0.78757 -0.10895 0.45866
 H469 H 0.79047 -0.13931 0.41781
 H470 H 0.77783 -0.06413 0.47883
 H471 H 0.80904 -0.14996 0.37641
 H472 H 0.73475 -0.02706 0.44181
 C473 C 0.69136 0.75042 -0.12988
 C474 C 0.67445 0.77282 -0.12377
 C475 C 0.65093 0.76960 -0.10367
 C476 C 0.64342 0.79342 -0.08909
 C477 C 0.62039 0.79137 -0.07100
 C478 C 0.60414 0.76549 -0.06755
 C479 C 0.61148 0.74175 -0.08236
 C480 C 0.63478 0.74367 -0.10009
 C481 C 0.57838 0.76310 -0.05029
 C482 C 0.57529 0.77967 -0.02646
 H483 H 0.67924 0.79384 -0.13327
 H484 H 0.65530 0.81371 -0.09184
 H485 H 0.61480 0.81029 -0.06052
 H486 H 0.59900 0.72170 -0.08036
 H487 H 0.63947 0.72511 -0.11165
 H488 H 0.56162 0.74689 -0.05591
 H489 H 0.68899 0.73010 -0.11817
 H490 H 0.59335 0.79338 -0.01845
 C491 C 0.30423 0.20836 -0.16376
 C492 C 0.31525 0.22920 -0.14474
 C493 C 0.34195 0.22631 -0.12524
 C494 C 0.34738 0.24504 -0.10242
 C495 C 0.37269 0.24371 -0.08404
 C496 C 0.39322 0.22345 -0.08811
 C497 C 0.38788 0.20486 -0.11107
 C498 C 0.36263 0.20625 -0.12947
 C499 C 0.42092 0.22169 -0.06998
 C500 C 0.42701 0.23527 -0.04376
 H501 H 0.30367 0.24852 -0.14378
 H502 H 0.33202 0.26095 -0.09889
 H503 H 0.37615 0.25901 -0.06720
 H504 H 0.40348 0.18932 -0.11499
 H505 H 0.35994 0.19199 -0.14728
 H506 H 0.43705 0.20831 -0.07733
 H507 H 0.31447 0.18826 -0.16411
 H508 H 0.41023 0.24632 -0.03450
 C509 C 0.35607 0.79087 0.14506
 C510 C 0.36472 0.77027 0.12703
 C511 C 0.39063 0.77410 0.10982
 C512 C 0.39345 0.75568 0.08717
 C513 C 0.41773 0.75822 0.07071
 C514 C 0.43982 0.77936 0.07658
 C515 C 0.43721 0.79746 0.09952
 C516 C 0.41299 0.79490 0.11598
 C517 C 0.46635 0.78261 0.06029
 C518 C 0.46893 0.77103 0.03329
 H519 H 0.35165 0.75059 0.12493
 H520 H 0.37682 0.73917 0.08223
 H521 H 0.41923 0.74321 0.05389
 H522 H 0.45409 0.81362 0.10484
 H523 H 0.41236 0.80893 0.13380
 H524 H 0.48426 0.79583 0.06953
 H525 H 0.36784 0.81129 0.14642
 H526 H 0.45021 0.76036 0.02241
 C527 C 0.65946 0.21358 0.14352
 C528 C 0.65084 0.23370 0.12198
 C529 C 0.62367 0.23036 0.10304
 C530 C 0.62045 0.24746 0.07751
 C531 C 0.59487 0.24554 0.05945
 C532 C 0.57187 0.22634 0.06660
 C533 C 0.57499 0.20950 0.09231
 C534 C 0.60049 0.21148 0.11037
 C535 C 0.54390 0.22407 0.04882
 C536 C 0.53961 0.23523 0.02042
 H537 H 0.66470 0.25264 0.11854
 H538 H 0.63776 0.26252 0.07156
 H539 H 0.59318 0.25959 0.04036
 H540 H 0.55747 0.19488 0.09862
 H541 H 0.60148 0.19862 0.13031
 H542 H 0.52603 0.21223 0.05836
 H543 H 0.64685 0.19378 0.14628
 H544 H 0.55791 0.24440 0.00945
 C545 C -0.11944 0.67838 0.77970
 C546 C -0.12361 0.64935 0.78670
 C547 C -0.10167 0.62856 0.78203
 C548 C -0.11094 0.60063 0.77513
 C549 C -0.09079 0.58048 0.77047
 C550 C -0.06089 0.58782 0.77306
 C551 C -0.05157 0.61553 0.78077
 C552 C -0.07176 0.63582 0.78499
 C553 C -0.03909 0.56662 0.76940
 C554 C -0.04399 0.54449 0.75017
 H555 H -0.14437 0.64113 0.79368
 H556 H -0.13386 0.59444 0.77314
 H557 H -0.09868 0.55903 0.76555
 H558 H -0.02863 0.62149 0.78339
 H559 H -0.06389 0.65696 0.79114
 H560 H -0.01877 0.56844 0.78251
 H561 H -0.09964 0.68599 0.77017
 H562 H -0.06450 0.54268 0.73737
 C563 C -0.15136 0.33869 0.22211
 C564 C -0.12621 0.34302 0.24030
 C565 C -0.10688 0.36913 0.23921
 C566 C -0.07847 0.36803 0.25194
 C567 C -0.05965 0.39227 0.25210
 C568 C -0.06904 0.41839 0.23980
 C569 C -0.09743 0.41945 0.22697
 C570 C -0.11623 0.39518 0.22677
 C571 C -0.05001 0.44478 0.23938
 C572 C -0.02419 0.44864 0.25675
 H573 H -0.11976 0.32613 0.25567
 H574 H -0.07071 0.34822 0.26166
 H575 H -0.03779 0.39016 0.26153
 H576 H -0.10524 0.43927 0.21733
 H577 H -0.13815 0.39717 0.21738
 H578 H -0.05684 0.46217 0.22478
 H579 H -0.15722 0.35432 0.20516
 H580 H -0.01695 0.43176 0.27161
 C581 C 0.13788 0.33770 0.73028
 C582 C 0.12936 0.35157 0.75408
 C583 C 0.11045 0.37610 0.75088
 C584 C 0.09231 0.38100 0.77298
 C585 C 0.07385 0.40374 0.77034
 C586 C 0.07344 0.42220 0.74558
 C587 C 0.09227 0.41783 0.72393
 C588 C 0.11051 0.39497 0.72644
 C589 C 0.05450 0.44669 0.74211
 C590 C 0.02821 0.44727 0.75505
 H591 H 0.13507 0.34304 0.77575
 H592 H 0.09222 0.36703 0.79222
 H593 H 0.06036 0.40704 0.78792
 H594 H 0.09273 0.43207 0.70491
 H595 H 0.12493 0.39244 0.70944
 H596 H 0.06065 0.46416 0.72742
 H597 H 0.13000 0.34440 0.70858
 H598 H 0.02036 0.42850 0.76700
 C599 C 0.17127 0.66398 0.21550
 C600 C 0.14730 0.65914 0.23211
 C601 C 0.12820 0.63273 0.23207
 C602 C 0.10819 0.62883 0.25349
 C603 C 0.08970 0.60440 0.25462
 C604 C 0.09060 0.58331 0.23408
 C605 C 0.11063 0.58711 0.21270
 C606 C 0.12913 0.61160 0.21153
 C607 C 0.07178 0.55681 0.23491
 C608 C 0.04563 0.55443 0.24839
 H609 H 0.14254 0.67534 0.24675
 H610 H 0.10705 0.64465 0.26968
 H611 H 0.07523 0.60195 0.27198
 H612 H 0.11184 0.57113 0.19668
 H613 H 0.14379 0.61378 0.19435
 H614 H 0.07816 0.53887 0.22332
 H615 H 0.17725 0.64806 0.20118
 H616 H 0.03748 0.57316 0.25714
 C617 C 0.79476 -0.13495 0.69481
 C618 C 0.77059 -0.12125 0.68239
 C619 C 0.77104 -0.10343 0.65520
 C620 C 0.74931 -0.08393 0.64885
 C621 C 0.74831 -0.06761 0.62282
 C622 C 0.76907 -0.07059 0.60252
 C623 C 0.79054 -0.09036 0.60872
 C624 C 0.79159 -0.10660 0.63474
 C625 C 0.76828 -0.05460 0.57421
 C626 C 0.75422 -0.02917 0.56868
 H627 H 0.75043 -0.12362 0.69292
 H628 H 0.73291 -0.08146 0.66399
 H629 H 0.73083 -0.05331 0.61848
 H630 H 0.80648 -0.09341 0.59324
 H631 H 0.80804 -0.12212 0.63824
 H632 H 0.78044 -0.06256 0.55737
 H633 H 0.81561 -0.13114 0.68583
 H634 H 0.74474 -0.01929 0.58620
 C635 C 0.23236 -0.13404 0.31158
 C636 C 0.21109 -0.13724 0.33159
 C637 C 0.20785 -0.11746 0.35524
 C638 C 0.18406 -0.12227 0.37232
 C639 C 0.18052 -0.10505 0.39557
 C640 C 0.20055 -0.08246 0.40223
 C641 C 0.22441 -0.07751 0.38518
 C642 C 0.22803 -0.09479 0.36194
 C643 C 0.19676 -0.06570 0.42800
 C644 C 0.20968 -0.03854 0.43232
 H645 H 0.19591 -0.15552 0.33012
 H646 H 0.16825 -0.13963 0.36785
 H647 H 0.16209 -0.10951 0.40851
 H648 H 0.24085 -0.06089 0.39017
 H649 H 0.24701 -0.09050 0.34990
 H650 H 0.18248 -0.07485 0.44385
 H651 H 0.24746 -0.11574 0.31174
 H652 H 0.22111 -0.02775 0.41511
 C653 C 0.78168 0.14655 0.33890
 C654 C 0.76322 0.12267 0.34379
 C655 C 0.76475 0.10499 0.37109
 C656 C 0.75222 0.07716 0.37102
 C657 C 0.75253 0.06005 0.39652
 C658 C 0.76511 0.07068 0.42279
 C659 C 0.77771 0.09848 0.42279
 C660 C 0.77740 0.11555 0.39732
 C661 C 0.76585 0.05370 0.45054
 C662 C 0.74847 0.02905 0.45556
 H663 H 0.74723 0.11624 0.32676
 H664 H 0.74230 0.06853 0.35111
 H665 H 0.74320 0.03855 0.39529
 H666 H 0.78747 0.10723 0.44271
 H667 H 0.78653 0.13714 0.39856
 H668 H 0.78044 0.06144 0.46821
 H669 H 0.79919 0.15211 0.35474
 H670 H 0.73377 0.02075 0.43841
 C671 C 0.19406 0.14863 0.63721
 C672 C 0.20319 0.12074 0.63813
 C673 C 0.20004 0.10205 0.61286
 C674 C 0.20430 0.07279 0.61748
 C675 C 0.20189 0.05447 0.59424
 C676 C 0.19530 0.06517 0.56580
 C677 C 0.19093 0.09434 0.56120
 C678 C 0.19352 0.11265 0.58433
 C679 C 0.19264 0.04692 0.54034
 C680 C 0.20598 0.02103 0.53928
 H681 H 0.21280 0.11195 0.65839
 H682 H 0.20935 0.06403 0.63919
 H683 H 0.20479 0.03201 0.59878
 H684 H 0.18597 0.10313 0.53947
 H685 H 0.19086 0.13505 0.57940
 H686 H 0.18079 0.05514 0.52099
 H687 H 0.18337 0.15767 0.61769
 H688 H 0.21744 0.01224 0.55854
   
