data_POSCAR
  _audit_creation_date              2014-09-24
  _audit_creation_method            'ToBaCCo'
  _symmetry_space_group_name_H-M    'P1'
  _symmetry_Int_Tables_number       1
  _symmetry_cell_setting            triclinic
  loop_
  _symmetry_equiv_pos_as_xyz
 x,y,z
_cell_length_a 38.5444
_cell_length_b 39.9847
_cell_length_c 39.4845
_cell_angle_alpha 88.620300
_cell_angle_beta 87.577900
_cell_angle_gamma 83.400200
loop_
  _atom_site_label
  _atom_site_type_symbol
  _atom_site_fract_x
  _atom_site_fract_y
  _atom_site_fract_z
C1 C 0.30959 0.24259 0.21692
 C2 C 0.28135 0.26822 0.21764
 C3 C 0.25539 0.26932 0.24386
 C4 C 0.25807 0.24437 0.26961
 C5 C 0.28614 0.21865 0.26951
 C6 C 0.31174 0.21797 0.24302
 H7 H 0.27952 0.28730 0.19766
 H8 H 0.23820 0.24497 0.28986
 H9 H 0.33343 0.19819 0.24271
 C10 C 0.68393 -0.26798 0.22531
 C11 C 0.71027 -0.29555 0.22781
 C12 C 0.73219 -0.30045 0.25587
 C13 C 0.72755 -0.27577 0.28121
 C14 C 0.70302 -0.24725 0.27843
 C15 C 0.68114 -0.24373 0.25088
 H16 H 0.71515 -0.31182 0.20636
 H17 H 0.74185 -0.27864 0.30420
 H18 H 0.66133 -0.22230 0.25027
 C19 C 0.77596 0.22616 0.75402
 C20 C 0.77562 0.20048 0.73044
 C21 C 0.79853 0.19864 0.70195
 C22 C 0.82143 0.22320 0.69663
 C23 C 0.82324 0.24906 0.72005
 C24 C 0.79982 0.25015 0.74879
 H25 H 0.75758 0.18174 0.73433
 H26 H 0.83677 0.22244 0.67306
 H27 H 0.80096 0.26838 0.76834
 C28 C 0.24685 -0.25006 0.78213
 C29 C 0.22578 -0.27649 0.78271
 C30 C 0.20101 -0.27892 0.75777
 C31 C 0.19784 -0.25369 0.73206
 C32 C 0.21825 -0.22670 0.73149
 C33 C 0.24270 -0.22514 0.75660
 H34 H 0.22980 -0.29580 0.80224
 H35 H 0.17871 -0.25418 0.71287
 H36 H 0.25868 -0.20454 0.75617
 C37 C 0.69263 -0.25749 0.77876
 C38 C 0.72237 -0.28108 0.78096
 C39 C 0.74910 -0.28327 0.75529
 C40 C 0.74509 -0.26076 0.72719
 C41 C 0.71562 -0.23672 0.72484
 C42 C 0.68954 -0.23533 0.75076
 H43 H 0.72380 -0.29842 0.80244
 H44 H 0.76530 -0.26098 0.70734
 H45 H 0.66672 -0.21691 0.74917
 C46 C 0.30989 0.23339 0.78166
 C47 C 0.31211 0.20973 0.75569
 C48 C 0.28583 0.21060 0.73194
 C49 C 0.25694 0.23541 0.73472
 C50 C 0.25415 0.25915 0.76066
 C51 C 0.28074 0.25788 0.78402
 H52 H 0.33451 0.19077 0.75383
 H53 H 0.23665 0.23646 0.71645
 H54 H 0.27893 0.27623 0.80394
 C55 C 0.22845 -0.24450 0.23572
 C56 C 0.20456 -0.26871 0.23709
 C57 C 0.17868 -0.26900 0.26310
 C58 C 0.17689 -0.24515 0.28876
 C59 C 0.20019 -0.22055 0.28808
 C60 C 0.22550 -0.22023 0.26137
 H61 H 0.20507 -0.28701 0.21728
 H62 H 0.15722 -0.24569 0.30913
 H63 H 0.24358 -0.20147 0.26141
 C64 C 0.76705 0.23107 0.21095
 C65 C 0.76882 0.20538 0.23596
 C66 C 0.79235 0.20488 0.26222
 C67 C 0.81416 0.23064 0.26342
 C68 C 0.81275 0.25659 0.23873
 C69 C 0.78918 0.25653 0.21256
 H70 H 0.75188 0.18565 0.23494
 H71 H 0.83234 0.23045 0.28362
 H72 H 0.78806 0.27639 0.19337
 O73 O 0.21453 0.03333 0.47158
 O74 O 0.22284 -0.03295 0.53843
 O75 O 0.21483 0.03253 0.53792
 O76 O 0.22039 -0.03222 0.47284
 O77 O 0.27774 -0.03306 0.46944
 O78 O 0.27212 0.03217 0.53470
 O79 O 0.28014 -0.03327 0.53496
 O80 O 0.27185 0.03264 0.46842
 Cu81 Cu 0.21240 0.00038 0.50551
 Cu82 Cu 0.28118 -0.00030 0.50148
 C83 C 0.24187 0.04416 0.45839
 C84 C 0.25304 -0.04455 0.54801
 C85 C 0.24242 0.04321 0.54778
 C86 C 0.24998 -0.04399 0.46019
 O87 O 0.77430 0.01172 0.51749
 O88 O 0.77938 -0.05479 0.45409
 O89 O 0.77411 0.01084 0.45170
 O90 O 0.78138 -0.05340 0.51977
 O91 O 0.72399 -0.05233 0.52317
 O92 O 0.71668 0.01255 0.45493
 O93 O 0.72196 -0.05324 0.45732
 O94 O 0.71688 0.01319 0.52087
 Cu95 Cu 0.78303 -0.02154 0.48532
 Cu96 Cu 0.71410 -0.01984 0.48931
 C97 C 0.74476 0.02373 0.53018
 C98 C 0.75151 -0.06554 0.44497
 C99 C 0.74426 0.02293 0.44178
 C100 C 0.75402 -0.06377 0.53329
 O101 O 0.50857 0.26631 0.02112
 O102 O 0.57777 0.26427 -0.04667
 O103 O 0.57633 0.26508 0.01941
 O104 O 0.50985 0.26508 -0.04478
 O105 O 0.50417 0.32059 -0.04674
 O106 O 0.57068 0.32061 0.01751
 O107 O 0.57193 0.31978 -0.04867
 O108 O 0.50315 0.32182 0.01914
 Cu109 Cu 0.54375 0.25963 -0.01258
 Cu110 Cu 0.53698 0.32624 -0.01495
 C111 C 0.49405 0.29447 0.03178
 C112 C 0.58664 0.29172 -0.05934
 C113 C 0.58473 0.29283 0.02964
 C114 C 0.49547 0.29284 -0.05663
 O115 O 0.48716 0.83748 0.03895
 O116 O 0.41961 0.84029 -0.02527
 O117 O 0.41918 0.84091 0.04092
 O118 O 0.48750 0.83911 -0.02713
 O119 O 0.49214 0.78360 -0.02626
 O120 O 0.42364 0.78541 0.04141
 O121 O 0.42482 0.78477 -0.02448
 O122 O 0.49142 0.78199 0.03938
 Cu123 Cu 0.45286 0.84505 0.00680
 Cu124 Cu 0.45840 0.77841 0.00762
 C125 C 0.50086 0.80908 0.05008
 C126 C 0.41088 0.81281 -0.03600
 C127 C 0.40976 0.81345 0.05287
 C128 C 0.50155 0.81104 -0.03832
 O129 O 0.03642 0.45829 0.28162
 O130 O -0.04150 0.52079 0.28295
 O131 O 0.02535 0.52381 0.28529
 O132 O -0.03072 0.45546 0.28160
 O133 O -0.03474 0.45350 0.33747
 O134 O 0.02398 0.51952 0.34113
 O135 O -0.04280 0.51962 0.33895
 O136 O 0.03313 0.45441 0.33745
 Cu137 Cu -0.00230 0.48983 0.27727
 Cu138 Cu -0.00553 0.48624 0.34437
 C139 C 0.04809 0.44555 0.30924
 C140 C -0.05491 0.53144 0.31113
 C141 C 0.03427 0.53337 0.31383
 C142 C -0.04258 0.44295 0.30900
 O143 O 0.03852 0.52557 0.73596
 O144 O -0.02530 0.46459 0.74473
 O145 O 0.04326 0.45980 0.73877
 O146 O -0.02923 0.52920 0.73700
 O147 O -0.02993 0.52484 0.68145
 O148 O 0.04332 0.45831 0.68299
 O149 O -0.02451 0.45963 0.68909
 O150 O 0.03741 0.52397 0.68024
 Cu151 Cu 0.00702 0.49496 0.74470
 Cu152 Cu 0.00663 0.49123 0.67791
 C153 C 0.04836 0.53590 0.70689
 C154 C -0.03604 0.45189 0.71859
 C155 C 0.05589 0.44747 0.71084
 C156 C -0.04205 0.53867 0.70868
 C157 C 0.34953 0.27111 0.17639
 C158 C 0.37540 0.26995 0.15014
 C159 C 0.38887 0.23864 0.13620
 C160 C 0.37609 0.20909 0.14861
 C161 C 0.35030 0.21047 0.17466
 C162 C 0.33680 0.24141 0.18893
 C163 C 0.41490 0.23734 0.11014
 C164 C 0.42762 0.26699 0.09774
 C165 C 0.41399 0.29832 0.11156
 C166 C 0.38805 0.29960 0.13769
 C167 C 0.42657 0.32791 0.09901
 C168 C 0.45244 0.32656 0.07306
 C169 C 0.46639 0.29558 0.05917
 C170 C 0.45376 0.26583 0.07172
 H171 H 0.33971 0.29509 0.18741
 H172 H 0.38598 0.18489 0.13813
 H173 H 0.34062 0.18727 0.18341
 H174 H 0.42526 0.21329 0.09953
 H175 H 0.37770 0.32365 0.14831
 H176 H 0.41641 0.35213 0.10928
 H177 H 0.46165 0.34987 0.06397
 H178 H 0.46418 0.24176 0.06122
 C179 C 0.64426 0.76668 0.18702
 C180 C 0.62001 0.76923 0.16124
 C181 C 0.61190 0.73980 0.14574
 C182 C 0.62844 0.70843 0.15591
 C183 C 0.65243 0.70600 0.18159
 C184 C 0.66068 0.73498 0.19800
 C185 C 0.58718 0.74211 0.12051
 C186 C 0.57037 0.77356 0.11054
 C187 C 0.57874 0.80313 0.12566
 C188 C 0.60358 0.80080 0.15087
 C189 C 0.56190 0.83451 0.11544
 C190 C 0.53677 0.83655 0.09069
 C191 C 0.52798 0.80724 0.07578
 C192 C 0.54512 0.77581 0.08580
 H193 H 0.65086 0.78973 0.19762
 H194 H 0.62237 0.68558 0.14437
 H195 H 0.66304 0.68096 0.18953
 H196 H 0.58084 0.71942 0.10880
 H197 H 0.60985 0.82349 0.16263
 H198 H 0.56803 0.85746 0.12670
 H199 H 0.52402 0.86107 0.08344
 H200 H 0.53876 0.75298 0.07444
 C201 C 0.73355 0.25821 -0.20491
 C202 C 0.70907 0.25908 -0.17740
 C203 C 0.70271 0.22879 -0.16024
 C204 C 0.72126 0.19828 -0.17052
 C205 C 0.74542 0.19762 -0.19793
 C206 C 0.75159 0.22744 -0.21566
 C207 C 0.67769 0.22940 -0.13332
 C208 C 0.65880 0.25991 -0.12333
 C209 C 0.66543 0.29026 -0.14020
 C210 C 0.69053 0.28966 -0.16710
 C211 C 0.64665 0.32071 -0.13003
 C212 C 0.62132 0.32112 -0.10360
 C213 C 0.61414 0.29109 -0.08686
 C214 C 0.63319 0.26052 -0.09685
 H215 H 0.73785 0.28134 -0.21852
 H216 H 0.71689 0.17486 -0.15753
 H217 H 0.75938 0.17367 -0.20528
 H218 H 0.67271 0.20610 -0.12034
 H219 H 0.69540 0.31294 -0.18016
 H220 H 0.65143 0.34422 -0.14261
 H221 H 0.60710 0.34503 -0.09649
 H222 H 0.62807 0.23717 -0.08410
 C223 C 0.27888 0.78147 -0.17695
 C224 C 0.30404 0.78217 -0.15230
 C225 C 0.32426 0.75194 -0.14263
 C226 C 0.31930 0.72170 -0.15793
 C227 C 0.29437 0.72126 -0.18246
 C228 C 0.27372 0.75098 -0.19209
 C229 C 0.34912 0.75233 -0.11780
 C230 C 0.35419 0.78257 -0.10252
 C231 C 0.33429 0.81291 -0.11230
 C232 C 0.30925 0.81252 -0.13708
 C233 C 0.33985 0.84310 -0.09706
 C234 C 0.36482 0.84321 -0.07234
 C235 C 0.38450 0.81309 -0.06226
 C236 C 0.37896 0.78286 -0.07758
 H237 H 0.26295 0.80452 -0.18395
 H238 H 0.33476 0.69837 -0.15097
 H239 H 0.29146 0.69758 -0.19417
 H240 H 0.36450 0.72907 -0.11036
 H241 H 0.29386 0.83576 -0.14452
 H242 H 0.32491 0.86663 -0.10427
 H243 H 0.36857 0.86684 -0.06097
 H244 H 0.39409 0.75945 -0.07024
 C245 C 0.21183 0.31046 0.27509
 C246 C 0.18253 0.33483 0.27579
 C247 C 0.16664 0.34564 0.24520
 C248 C 0.18029 0.33182 0.21447
 C249 C 0.20919 0.30727 0.21404
 C250 C 0.22524 0.29621 0.24429
 C251 C 0.13725 0.36988 0.24583
 C252 C 0.12331 0.38320 0.27672
 C253 C 0.13911 0.37224 0.30734
 C254 C 0.16872 0.34829 0.30666
 C255 C 0.12488 0.38531 0.33818
 C256 C 0.09524 0.40900 0.33876
 C257 C 0.07937 0.42024 0.30850
 C258 C 0.09368 0.40720 0.27750
 H259 H 0.22422 0.30267 0.29858
 H260 H 0.16835 0.33971 0.19079
 H261 H 0.21854 0.29644 0.19002
 H262 H 0.12509 0.37818 0.22233
 H263 H 0.18083 0.33992 0.33017
 H264 H 0.13662 0.37716 0.36188
 H265 H 0.08485 0.41865 0.36297
 H266 H 0.08167 0.41554 0.25397
 C267 C 0.16740 0.68190 0.72864
 C268 C 0.14702 0.65487 0.72971
 C269 C 0.13852 0.63979 0.76122
 C270 C 0.15063 0.65172 0.79101
 C271 C 0.17108 0.67833 0.78979
 C272 C 0.17998 0.69403 0.75867
 C273 C 0.11799 0.61303 0.76256
 C274 C 0.10590 0.60096 0.73273
 C275 C 0.11464 0.61565 0.70107
 C276 C 0.13517 0.64254 0.69973
 C277 C 0.10245 0.60328 0.67134
 C278 C 0.08140 0.57693 0.67304
 C279 C 0.07218 0.56251 0.70449
 C280 C 0.08488 0.57457 0.73421
 H281 H 0.17456 0.69230 0.70411
 H282 H 0.14406 0.64059 0.81541
 H283 H 0.17856 0.68732 0.81374
 H284 H 0.11135 0.60165 0.78685
 H285 H 0.14177 0.65394 0.67545
 H286 H 0.10894 0.61416 0.64681
 H287 H 0.07196 0.56817 0.64977
 H288 H 0.07809 0.56369 0.75867
 C289 C -0.21388 0.67026 0.28069
 C290 C -0.18863 0.64215 0.28323
 C291 C -0.18981 0.61441 0.26210
 C292 C -0.21719 0.61456 0.23999
 C293 C -0.24306 0.64199 0.23852
 C294 C -0.24185 0.67094 0.25831
 C295 C -0.16367 0.58695 0.26346
 C296 C -0.13688 0.58650 0.28650
 C297 C -0.13668 0.61356 0.30889
 C298 C -0.16218 0.64144 0.30672
 C299 C -0.11086 0.61232 0.33301
 C300 C -0.08505 0.58484 0.33453
 C301 C -0.08413 0.55861 0.31141
 C302 C -0.11021 0.55946 0.28752
 H303 H -0.21037 0.69177 0.29565
 H304 H -0.21897 0.59312 0.22413
 H305 H -0.26441 0.63942 0.22231
 H306 H -0.16425 0.56593 0.24670
 H307 H -0.16156 0.66247 0.32345
 H308 H -0.11050 0.63268 0.35057
 H309 H -0.06503 0.58461 0.35301
 H310 H -0.10975 0.53905 0.26986
 C311 C -0.15666 0.30480 0.73001
 C312 C -0.13237 0.32819 0.72396
 C313 C -0.10315 0.32024 0.70166
 C314 C -0.09802 0.28872 0.68666
 C315 C -0.12169 0.26530 0.69332
 C316 C -0.15201 0.27287 0.71460
 C317 C -0.07924 0.34373 0.69495
 C318 C -0.08361 0.37486 0.71106
 C319 C -0.11234 0.38252 0.73418
 C320 C -0.13683 0.35941 0.74005
 C321 C -0.11579 0.41299 0.75148
 C322 C -0.09080 0.43544 0.74626
 C323 C -0.06257 0.42830 0.72293
 C324 C -0.05929 0.39816 0.70503
 H325 H -0.17966 0.31242 0.74582
 H326 H -0.07530 0.28190 0.67008
 H327 H -0.11500 0.24079 0.68238
 H328 H -0.05696 0.33759 0.67759
 H329 H -0.15900 0.36549 0.75754
 H330 H -0.13749 0.41922 0.76943
 H331 H -0.09365 0.45863 0.76027
 H332 H -0.03720 0.39240 0.68738
 C333 C 0.25878 0.17930 0.31061
 C334 C 0.26114 0.15535 0.33727
 C335 C 0.29407 0.14433 0.35061
 C336 C 0.32398 0.15753 0.33716
 C337 C 0.32136 0.18153 0.31082
 C338 C 0.28881 0.19270 0.29724
 C339 C 0.29657 0.12036 0.37718
 C340 C 0.26654 0.10734 0.39072
 C341 C 0.23358 0.11849 0.37753
 C342 C 0.23109 0.14235 0.35083
 C343 C 0.20363 0.10553 0.39128
 C344 C 0.20629 0.08161 0.41773
 C345 C 0.23895 0.07013 0.43091
 C346 C 0.26899 0.08327 0.41724
 H347 H 0.23357 0.18727 0.30009
 H348 H 0.34940 0.14947 0.34718
 H349 H 0.34482 0.19177 0.30144
 H350 H 0.32186 0.11187 0.38734
 H351 H 0.20580 0.15084 0.34067
 H352 H 0.17815 0.11382 0.38152
 H353 H 0.18274 0.07193 0.42772
 H354 H 0.29436 0.07473 0.42715
 C355 C 0.76814 0.16076 0.66603
 C356 C 0.76927 0.13521 0.64205
 C357 C 0.80196 0.11939 0.62978
 C358 C 0.83287 0.12911 0.64183
 C359 C 0.83152 0.15458 0.66550
 C360 C 0.79926 0.17082 0.67764
 C361 C 0.80332 0.09425 0.60550
 C362 C 0.77242 0.08473 0.59316
 C363 C 0.73969 0.10033 0.60548
 C364 C 0.73831 0.12547 0.62988
 C365 C 0.70891 0.09056 0.59307
 C366 C 0.71053 0.06564 0.56863
 C367 C 0.74296 0.05010 0.55608
 C368 C 0.77383 0.05983 0.56858
 H369 H 0.74315 0.17331 0.67505
 H370 H 0.85811 0.11713 0.63282
 H371 H 0.85581 0.16158 0.67446
 H372 H 0.82843 0.08223 0.59607
 H373 H 0.71321 0.13754 0.63924
 H374 H 0.68358 0.10220 0.60222
 H375 H 0.68634 0.05862 0.55946
 H376 H 0.79902 0.04800 0.55926
 C377 C 0.24338 -0.18726 0.68921
 C378 C 0.23946 -0.16162 0.66432
 C379 C 0.20563 -0.14850 0.65456
 C380 C 0.17632 -0.16128 0.66992
 C381 C 0.18044 -0.18672 0.69479
 C382 C 0.21395 -0.19995 0.70472
 C383 C 0.20167 -0.12282 0.62969
 C384 C 0.23112 -0.11004 0.61451
 C385 C 0.26493 -0.12318 0.62435
 C386 C 0.26888 -0.14890 0.64912
 C387 C 0.29429 -0.11036 0.60924
 C388 C 0.29030 -0.08478 0.58456
 C389 C 0.25686 -0.07149 0.57446
 C390 C 0.22731 -0.08431 0.58964
 H391 H 0.26937 -0.19756 0.69631
 H392 H 0.15019 -0.15146 0.66284
 H393 H 0.15733 -0.19570 0.70666
 H394 H 0.17571 -0.11277 0.62221
 H395 H 0.29484 -0.15895 0.65661
 H396 H 0.32038 -0.12013 0.61648
 H397 H 0.31352 -0.07544 0.57333
 H398 H 0.20137 -0.07432 0.58211
 C399 C 0.73114 -0.20891 0.31522
 C400 C 0.72922 -0.18315 0.33894
 C401 C 0.69625 -0.16916 0.35230
 C402 C 0.66581 -0.18123 0.34169
 C403 C 0.66796 -0.20675 0.31787
 C404 C 0.70059 -0.22078 0.30440
 C405 C 0.69426 -0.14326 0.37589
 C406 C 0.72480 -0.13106 0.38615
 C407 C 0.75774 -0.14504 0.37272
 C408 C 0.75974 -0.17103 0.34926
 C409 C 0.78818 -0.13274 0.38295
 C410 C 0.78609 -0.10684 0.40631
 C411 C 0.75352 -0.09274 0.41991
 C412 C 0.72293 -0.10504 0.40963
 H413 H 0.75639 -0.21931 0.30464
 H414 H 0.64034 -0.17085 0.35170
 H415 H 0.64410 -0.21573 0.31012
 H416 H 0.66897 -0.13253 0.38614
 H417 H 0.78503 -0.18173 0.33896
 H418 H 0.81363 -0.14316 0.37289
 H419 H 0.81007 -0.09790 0.41377
 H420 H 0.69763 -0.09443 0.41991
 C421 C 0.64950 0.77487 -0.18156
 C422 C 0.62309 0.77613 -0.15594
 C423 C 0.61156 0.74588 -0.14288
 C424 C 0.62657 0.71494 -0.15570
 C425 C 0.65285 0.71391 -0.18119
 C426 C 0.66459 0.74379 -0.19430
 C427 C 0.58528 0.74702 -0.11719
 C428 C 0.57037 0.77801 -0.10436
 C429 C 0.58183 0.80828 -0.11742
 C430 C 0.60813 0.80715 -0.14314
 C431 C 0.56677 0.83918 -0.10448
 C432 C 0.54063 0.84011 -0.07880
 C433 C 0.52912 0.81015 -0.06559
 C434 C 0.54417 0.77916 -0.07859
 H435 H 0.65867 0.79802 -0.19127
 H436 H 0.61795 0.69154 -0.14606
 H437 H 0.66376 0.68970 -0.19095
 H438 H 0.57647 0.72380 -0.10717
 H439 H 0.61696 0.83037 -0.15315
 H440 H 0.57522 0.86262 -0.11420
 H441 H 0.52948 0.86432 -0.06924
 H442 H 0.53553 0.75585 -0.06868
 C443 C 0.35032 0.26329 -0.18483
 C444 C 0.37703 0.26317 -0.16176
 C445 C 0.39212 0.23230 -0.14770
 C446 C 0.38025 0.20210 -0.15704
 C447 C 0.35360 0.20245 -0.18001
 C448 C 0.33832 0.23300 -0.19405
 C449 C 0.41873 0.23214 -0.12450
 C450 C 0.43038 0.26246 -0.11513
 C451 C 0.41531 0.29331 -0.12927
 C452 C 0.38880 0.29346 -0.15254
 C453 C 0.42692 0.32355 -0.11977
 C454 C 0.45307 0.32333 -0.09631
 C455 C 0.46820 0.29286 -0.08196
 C456 C 0.45674 0.26245 -0.09166
 H457 H 0.33911 0.28696 -0.19590
 H458 H 0.39147 0.17822 -0.14648
 H459 H 0.34459 0.17883 -0.18646
 H460 H 0.43026 0.20845 -0.11368
 H461 H 0.37723 0.31715 -0.16333
 H462 H 0.41568 0.34741 -0.13037
 H463 H 0.46139 0.34711 -0.08934
 H464 H 0.46812 0.23875 -0.08078
 C465 C 0.26775 0.78543 0.19786
 C466 C 0.29335 0.78523 0.17149
 C467 C 0.30657 0.75455 0.15623
 C468 C 0.29391 0.72465 0.16743
 C469 C 0.26827 0.72501 0.19345
 C470 C 0.25462 0.75535 0.20925
 C471 C 0.33218 0.75421 0.12994
 C472 C 0.34456 0.78426 0.11849
 C473 C 0.33115 0.81506 0.13351
 C474 C 0.30568 0.81535 0.15997
 C475 C 0.34346 0.84507 0.12177
 C476 C 0.36887 0.84457 0.09544
 C477 C 0.38252 0.81405 0.08045
 C478 C 0.37015 0.78396 0.09217
 H479 H 0.25712 0.80944 0.20824
 H480 H 0.30398 0.70085 0.15617
 H481 H 0.26036 0.70101 0.20195
 H482 H 0.34238 0.73058 0.11832
 H483 H 0.29545 0.83898 0.17155
 H484 H 0.33345 0.86891 0.13296
 H485 H 0.37797 0.86811 0.08694
 H486 H 0.38036 0.76025 0.08079
 C487 C 0.72392 0.26174 0.17180
 C488 C 0.70044 0.26206 0.14555
 C489 C 0.69479 0.23148 0.13057
 C490 C 0.71296 0.20118 0.14189
 C491 C 0.73648 0.20111 0.16785
 C492 C 0.74214 0.23130 0.18318
 C493 C 0.67105 0.23167 0.10460
 C494 C 0.65297 0.26208 0.09329
 C495 C 0.65891 0.29270 0.10802
 C496 C 0.68252 0.29249 0.13411
 C497 C 0.64101 0.32305 0.09645
 C498 C 0.61723 0.32309 0.07072
 C499 C 0.61077 0.29277 0.05615
 C500 C 0.62893 0.26232 0.06755
 H501 H 0.72762 0.28516 0.18367
 H502 H 0.70910 0.17753 0.13057
 H503 H 0.75057 0.17738 0.17568
 H504 H 0.66660 0.20818 0.09323
 H505 H 0.68694 0.31598 0.14550
 H506 H 0.64530 0.34675 0.10740
 H507 H 0.60360 0.34689 0.06247
 H508 H 0.62432 0.23876 0.05647
 C509 C -0.20284 0.67937 0.72808
 C510 C -0.17389 0.65486 0.73023
 C511 C -0.16236 0.64299 0.76227
 C512 C -0.17996 0.65596 0.79164
 C513 C -0.20891 0.68023 0.78938
 C514 C -0.22107 0.69242 0.75757
 C515 C -0.13362 0.61818 0.76442
 C516 C -0.11648 0.60485 0.73484
 C517 C -0.12813 0.61676 0.70277
 C518 C -0.15663 0.64172 0.70067
 C519 C -0.11122 0.60334 0.67324
 C520 C -0.08320 0.57812 0.67535
 C521 C -0.07139 0.56590 0.70704
 C522 C -0.08809 0.57958 0.73677
 H523 H -0.21196 0.68683 0.70316
 H524 H -0.17129 0.64739 0.81646
 H525 H -0.22078 0.69020 0.81288
 H526 H -0.12481 0.60906 0.78906
 H527 H -0.16552 0.65074 0.67603
 H528 H -0.11979 0.61220 0.64847
 H529 H -0.07079 0.56815 0.65203
 H530 H -0.07930 0.57034 0.76135
 C531 C -0.15835 0.29812 0.27139
 C532 C -0.13665 0.32391 0.27284
 C533 C -0.12054 0.33563 0.24270
 C534 C -0.12627 0.32126 0.21169
 C535 C -0.14781 0.29556 0.21048
 C536 C -0.16413 0.28376 0.24023
 C537 C -0.09899 0.36150 0.24401
 C538 C -0.09323 0.37576 0.27511
 C539 C -0.10921 0.36395 0.30528
 C540 C -0.13088 0.33816 0.30395
 C541 C -0.10318 0.37814 0.33632
 C542 C -0.08152 0.40377 0.33751
 C543 C -0.06557 0.41581 0.30767
 C544 C -0.07165 0.40163 0.27650
 H545 H -0.17113 0.28956 0.29446
 H546 H -0.11401 0.32984 0.18836
 H547 H -0.15140 0.28461 0.18623
 H548 H -0.08668 0.37050 0.22086
 H549 H -0.14318 0.32915 0.32710
 H550 H -0.11519 0.36938 0.35969
 H551 H -0.07733 0.41423 0.36184
 H552 H -0.05944 0.41057 0.25329
 C553 C 0.21123 0.30222 0.73321
 C554 C 0.18297 0.32763 0.73495
 C555 C 0.16713 0.33708 0.76677
 C556 C 0.17981 0.32070 0.79632
 C557 C 0.20794 0.29530 0.79435
 C558 C 0.22395 0.28582 0.76281
 C559 C 0.13896 0.36271 0.76849
 C560 C 0.12640 0.37890 0.73873
 C561 C 0.14227 0.36917 0.70696
 C562 C 0.17044 0.34373 0.70529
 C563 C 0.12971 0.38501 0.67722
 C564 C 0.10167 0.41030 0.67878
 C565 C 0.08561 0.42044 0.71012
 C566 C 0.09821 0.40461 0.74012
 H567 H 0.22368 0.29558 0.70878
 H568 H 0.16796 0.32749 0.82094
 H569 H 0.21696 0.28281 0.81752
 H570 H 0.12684 0.37002 0.79290
 H571 H 0.18257 0.33642 0.68087
 H572 H 0.14156 0.37784 0.65270
 H573 H 0.09265 0.42204 0.65526
 H574 H 0.08602 0.41211 0.76442
 C575 C 0.14667 0.68654 0.29234
 C576 C 0.12496 0.66069 0.29130
 C577 C 0.10961 0.65415 0.26056
 C578 C 0.11577 0.67383 0.23159
 C579 C 0.13758 0.69926 0.23277
 C580 C 0.15355 0.70560 0.26295
 C581 C 0.08870 0.62780 0.25912
 C582 C 0.08299 0.60776 0.28798
 C583 C 0.09800 0.61448 0.31882
 C584 C 0.11887 0.64091 0.32030
 C585 C 0.09195 0.59453 0.34766
 C586 C 0.07129 0.56815 0.34599
 C587 C 0.05647 0.56108 0.31538
 C588 C 0.06251 0.58106 0.28644
 H589 H 0.15909 0.69113 0.31565
 H590 H 0.10406 0.66930 0.20790
 H591 H 0.14216 0.71396 0.20996
 H592 H 0.07711 0.62273 0.23548
 H593 H 0.13055 0.64591 0.34391
 H594 H 0.10318 0.59932 0.37153
 H595 H 0.06703 0.55317 0.36868
 H596 H 0.05102 0.57604 0.26275
 C597 C 0.74137 -0.19758 0.68266
 C598 C 0.73824 -0.17458 0.65528
 C599 C 0.70546 -0.16631 0.64058
 C600 C 0.67647 -0.18152 0.65332
 C601 C 0.67986 -0.20455 0.68047
 C602 C 0.71226 -0.21273 0.69552
 C603 C 0.70216 -0.14294 0.61350
 C604 C 0.73129 -0.12782 0.60085
 C605 C 0.76414 -0.13642 0.61535
 C606 C 0.76738 -0.15964 0.64250
 C607 C 0.79326 -0.12155 0.60249
 C608 C 0.78990 -0.09821 0.57565
 C609 C 0.75733 -0.08913 0.56123
 C610 C 0.72808 -0.10416 0.57398
 H611 H 0.76638 -0.20324 0.69433
 H612 H 0.65119 -0.17562 0.64226
 H613 H 0.65713 -0.21620 0.68956
 H614 H 0.67697 -0.13648 0.60234
 H615 H 0.79257 -0.16607 0.65369
 H616 H 0.81863 -0.12790 0.61325
 H617 H 0.81286 -0.08702 0.56639
 H618 H 0.70285 -0.09749 0.56300
 C619 C 0.22883 -0.18471 0.32759
 C620 C 0.22709 -0.15931 0.35170
 C621 C 0.19416 -0.14420 0.36402
 C622 C 0.16358 -0.15479 0.35198
 C623 C 0.16556 -0.17980 0.32763
 C624 C 0.19814 -0.19491 0.31501
 C625 C 0.19233 -0.11860 0.38794
 C626 C 0.22302 -0.10773 0.39949
 C627 C 0.25595 -0.12277 0.38709
 C628 C 0.25778 -0.14858 0.36341
 C629 C 0.28654 -0.11166 0.39852
 C630 C 0.28458 -0.08591 0.42207
 C631 C 0.25201 -0.07084 0.43472
 C632 C 0.22129 -0.08196 0.42323
 H633 H 0.25415 -0.19655 0.31861
 H634 H 0.13812 -0.14342 0.36107
 H635 H 0.14151 -0.18682 0.31814
 H636 H 0.16705 -0.10703 0.39739
 H637 H 0.28306 -0.16011 0.35390
 H638 H 0.31199 -0.12289 0.38925
 H639 H 0.30864 -0.07792 0.43051
 H640 H 0.19597 -0.07057 0.43271
 C641 C 0.76377 0.16538 0.30207
 C642 C 0.76570 0.13925 0.32655
 C643 C 0.79870 0.12486 0.33743
 C644 C 0.82915 0.13675 0.32359
 C645 C 0.82700 0.16270 0.29922
 C646 C 0.79438 0.17732 0.28822
 C647 C 0.80077 0.09888 0.36199
 C648 C 0.77026 0.08709 0.37588
 C649 C 0.73724 0.10136 0.36498
 C650 C 0.73516 0.12736 0.34037
 C651 C 0.70685 0.08944 0.37900
 C652 C 0.70910 0.06378 0.40377
 C653 C 0.74180 0.04954 0.41495
 C654 C 0.77230 0.06132 0.40069
 H655 H 0.73843 0.17672 0.29412
 H656 H 0.85465 0.12592 0.33155
 H657 H 0.85097 0.17107 0.28861
 H658 H 0.82611 0.08791 0.37035
 H659 H 0.70982 0.13836 0.33204
 H660 H 0.68132 0.10006 0.37093
 H661 H 0.68520 0.05521 0.41429
 H662 H 0.79771 0.05061 0.40904
 C663 C 0.25903 0.17246 0.69328
 C664 C 0.26159 0.14988 0.66638
 C665 C 0.29443 0.14030 0.65000
 C666 C 0.32409 0.15369 0.66069
 C667 C 0.32128 0.17641 0.68728
 C668 C 0.28878 0.18605 0.70391
 C669 C 0.29708 0.11758 0.62320
 C670 C 0.26723 0.10443 0.61246
 C671 C 0.23435 0.11427 0.62869
 C672 C 0.23176 0.13682 0.65558
 C673 C 0.20455 0.10131 0.61780
 C674 C 0.20724 0.07860 0.59126
 C675 C 0.23980 0.06828 0.57509
 C676 C 0.26975 0.08148 0.58581
 H677 H 0.23389 0.17922 0.70613
 H678 H 0.34945 0.14678 0.64833
 H679 H 0.34453 0.18687 0.69447
 H680 H 0.32231 0.11015 0.61074
 H681 H 0.20652 0.14424 0.66806
 H682 H 0.17915 0.10863 0.62990
 H683 H 0.18375 0.06885 0.58361
 H684 H 0.29501 0.07380 0.57357
   
