data_POSCAR
  _audit_creation_date              2014-09-24
  _audit_creation_method            'ToBaCCo'
  _symmetry_space_group_name_H-M    'P1'
  _symmetry_Int_Tables_number       1
  _symmetry_cell_setting            triclinic
  loop_
  _symmetry_equiv_pos_as_xyz
 x,y,z
_cell_length_a 36.2905
_cell_length_b 36.6622
_cell_length_c 36.3939
_cell_angle_alpha 90.124000
_cell_angle_beta 90.321700
_cell_angle_gamma 90.000100
loop_
  _atom_site_label
  _atom_site_type_symbol
  _atom_site_fract_x
  _atom_site_fract_y
  _atom_site_fract_z
C1 C 0.31962 0.36132 1.36739
 C2 C 0.33647 0.33012 1.38280
 C3 C 0.36842 0.31412 1.36731
 C4 C 0.38433 0.33131 1.33655
 C5 C 0.36821 0.36236 1.32088
 C6 C 0.33639 0.37718 1.33645
 H7 H 0.32423 0.31775 1.40664
 H8 H 0.40775 0.31934 1.32275
 H9 H 0.32573 0.40218 1.32475
 C10 C 1.17773 0.63510 0.86995
 C11 C 1.16035 0.66711 0.88261
 C12 C 1.12952 0.68182 0.86457
 C13 C 1.11509 0.66373 0.83381
 C14 C 1.13178 0.63180 0.82030
 C15 C 1.16243 0.61717 0.83901
 H16 H 1.17021 0.68059 0.90726
 H17 H 1.09171 0.67539 0.81941
 H18 H 1.17617 0.59369 0.82731
 C19 C 0.68339 -0.13314 0.13149
 C20 C 0.66577 -0.16437 0.11656
 C21 C 0.63543 -0.18079 0.13432
 C22 C 0.62165 -0.16408 0.16630
 C23 C 0.63788 -0.13272 0.18116
 C24 C 0.66811 -0.11719 0.16341
 H25 H 0.67802 -0.17831 0.09346
 H26 H 0.59729 -0.17481 0.17948
 H27 H 0.67966 -0.09250 0.17497
 C28 C -0.17125 1.13125 -0.37444
 C29 C -0.15377 1.16192 -0.38950
 C30 C -0.12217 1.17755 -0.37284
 C31 C -0.10802 1.16065 -0.34088
 C32 C -0.12537 1.13015 -0.32520
 C33 C -0.15664 1.11540 -0.34245
 H34 H -0.16508 1.17332 -0.41448
 H35 H -0.08458 1.17222 -0.32659
 H36 H -0.17026 1.09211 -0.33031
 C37 C 0.68374 0.63542 0.63602
 C38 C 0.66636 0.66713 0.62305
 C39 C 0.63560 0.68153 0.64113
 C40 C 0.62193 0.66368 0.67222
 C41 C 0.63893 0.63190 0.68572
 C42 C 0.66969 0.61775 0.66718
 H43 H 0.67724 0.68106 0.59922
 H44 H 0.59776 0.67453 0.68574
 H45 H 0.68377 0.59396 0.67791
 C46 C 0.81622 0.35944 0.13217
 C47 C 0.83473 0.32873 0.11821
 C48 C 0.86654 0.31479 0.13582
 C49 C 0.87997 0.33320 0.16722
 C50 C 0.86218 0.36422 0.18097
 C51 C 0.83036 0.37709 0.16349
 H52 H 0.82267 0.31433 0.09510
 H53 H 0.90495 0.32417 0.18082
 H54 H 0.81700 0.40135 0.17404
 C55 C 0.31863 0.13861 0.86550
 C56 C 0.33475 0.12120 0.83499
 C57 C 0.36459 0.13687 0.81644
 C58 C 0.37957 0.16985 0.82917
 C59 C 0.36419 0.18777 0.85957
 C60 C 0.33385 0.17199 0.87744
 H61 H 0.32305 0.09622 0.82413
 H62 H 0.40211 0.18233 0.81438
 H63 H 0.32317 0.18521 0.90178
 C64 C 0.19037 0.85601 0.36165
 C65 C 0.17508 0.87387 0.33077
 C66 C 0.14281 0.86087 0.31378
 C67 C 0.12526 0.82990 0.32784
 C68 C 0.13967 0.81192 0.35860
 C69 C 0.17214 0.82483 0.37515
 H70 H 0.18866 0.89734 0.31896
 H71 H 0.10028 0.81982 0.31489
 H72 H 0.18226 0.81098 0.39943
 Zn73 Zn 0.00931 1.04629 -0.02097
 Zn74 Zn -0.02765 0.97280 -0.03007
 Zn75 Zn 0.04742 0.97992 0.00538
 Zn76 Zn -0.01765 1.00746 0.04449
 O77 O 0.00268 1.00146 -0.00053
 O78 O -0.01465 1.05014 -0.06319
 O79 O -0.00447 0.93168 -0.04592
 O80 O 0.08457 1.00680 -0.01137
 O81 O -0.04260 0.99696 -0.07118
 O82 O 0.05662 1.05679 -0.03069
 O83 O 0.05020 0.93867 -0.01950
 O84 O 0.00967 0.98960 0.08110
 O85 O -0.06924 0.95811 -0.00629
 O86 O 0.05860 0.96879 0.05212
 O87 O -0.06018 0.98451 0.04773
 O88 O -0.02715 1.05392 0.05596
 O89 O -0.00796 1.08289 0.00649
 C90 C -0.03539 1.02924 -0.08186
 C91 C 0.02833 0.92076 -0.03996
 C92 C 0.08570 1.03810 -0.02602
 C93 C 0.04071 0.97378 0.08155
 C94 C -0.07958 0.96486 0.02644
 C95 C -0.02271 1.08314 0.03797
 Zn96 Zn 0.49883 -0.04774 0.48229
 Zn97 Zn 0.52483 -0.00589 0.54704
 Zn98 Zn 0.53133 0.02696 0.47121
 Zn99 Zn 0.45754 0.01695 0.50696
 O100 O 0.50333 -0.00226 0.50175
 O101 O 0.51691 -0.08267 0.51113
 O102 O 0.56693 0.01863 0.54924
 O103 O 0.54640 0.00286 0.43025
 O104 O 0.53600 -0.05191 0.55987
 O105 O 0.52304 -0.05193 0.44050
 O106 O 0.57293 0.04290 0.49389
 O107 O 0.45279 0.05838 0.48282
 O108 O 0.49706 0.01225 0.58324
 O109 O 0.50647 0.06738 0.45582
 O110 O 0.44618 0.02763 0.55350
 O111 O 0.42160 -0.01153 0.48938
 O112 O 0.45235 -0.06044 0.47173
 C113 C 0.53189 -0.08181 0.54267
 C114 C 0.58483 0.03774 0.52645
 C115 C 0.54166 -0.03028 0.42083
 C116 C 0.47358 0.07739 0.46260
 C117 C 0.46475 0.02545 0.58305
 C118 C 0.42234 -0.04307 0.47508
 Zn119 Zn 0.95579 0.47879 0.49212
 Zn120 Zn 1.03143 0.47111 0.52665
 Zn121 Zn 1.02132 0.50669 0.45282
 Zn122 Zn 0.99507 0.54444 0.51899
 O123 O 1.00101 0.50002 0.49781
 O124 O 0.95358 0.43616 0.51507
 O125 O 1.07275 0.45682 0.50241
 O126 O 0.99342 0.48969 0.41634
 O127 O 1.00854 0.42961 0.54100
 O128 O 0.94408 0.46926 0.44496
 O129 O 1.06375 0.48350 0.44865
 O130 O 1.01133 0.58142 0.49175
 O131 O 1.04691 0.49441 0.56823
 O132 O 1.03097 0.55330 0.44196
 O133 O 1.01987 0.54802 0.56067
 O134 O 0.94836 0.55467 0.52991
 O135 O 0.91877 0.50555 0.51055
 C136 C 0.97614 0.41786 0.53438
 C137 C 1.08306 0.46366 0.46975
 C138 C 0.96205 0.47450 0.41561
 C139 C 1.02607 0.58231 0.46029
 C140 C 1.04049 0.52685 0.57903
 C141 C 0.91874 0.53676 0.52573
 Zn142 Zn 0.49227 0.54726 0.98202
 Zn143 Zn 0.45220 0.48242 1.01002
 Zn144 Zn 0.52540 0.47253 0.97314
 Zn145 Zn 0.52007 0.50795 1.04750
 O146 O 0.49758 0.50244 1.00303
 O147 O 0.44510 0.55893 0.97256
 O148 O 0.44685 0.44092 0.98547
 O149 O 0.54066 0.49550 0.93213
 O150 O 0.41554 0.51049 0.99340
 O151 O 0.51567 0.55009 0.93941
 O152 O 0.50031 0.43263 0.95777
 O153 O 0.56186 0.48303 1.05012
 O154 O 0.44260 0.47182 1.05725
 O155 O 0.56654 0.45609 0.99586
 O156 O 0.49340 0.49106 1.08479
 O157 O 0.53166 0.55433 1.05823
 O158 O 0.51139 0.58354 1.00905
 C159 C 0.41541 0.54141 0.97784
 C160 C 0.46751 0.42250 0.96447
 C161 C 0.53513 0.52792 0.92105
 C162 C 0.57883 0.46221 1.02809
 C163 C 0.46198 0.47603 1.08612
 C164 C 0.52739 0.58359 1.04012
 C165 C 1.21872 0.40522 0.40870
 C166 C 1.24271 0.38595 0.43239
 C167 C 1.27602 0.37155 0.41890
 C168 C 1.28615 0.37588 0.38166
 C169 C 1.26147 0.39479 0.35846
 C170 C 1.22858 0.40914 0.37163
 C171 C 1.18368 0.42049 0.42405
 C172 C 1.15867 0.44074 0.40262
 C173 C 1.12645 0.45442 0.41784
 C174 C 1.11789 0.44847 0.45493
 C175 C 1.14268 0.42839 0.47675
 C176 C 1.17555 0.41453 0.46158
 C177 C 1.23329 0.38119 0.46943
 C178 C 1.20040 0.39500 0.48364
 H179 H 1.25158 0.36640 0.48772
 H180 H 1.19441 0.39043 0.51240
 H181 H 1.29446 0.35828 0.43814
 H182 H 1.26638 0.39738 0.32930
 H183 H 1.10805 0.46977 0.40016
 H184 H 1.13654 0.42371 0.50547
 H185 H 1.21113 0.42278 0.35195
 H186 H 1.16334 0.44656 0.37402
 C187 C 0.27822 0.59882 0.91912
 C188 C 0.25297 0.57329 0.90425
 C189 C 0.22011 0.58531 0.88752
 C190 C 0.21082 0.62266 0.88676
 C191 C 0.23568 0.64760 0.90303
 C192 C 0.26877 0.63598 0.91869
 C193 C 0.31374 0.58509 0.93516
 C194 C 0.34243 0.60847 0.94679
 C195 C 0.37530 0.59428 0.96089
 C196 C 0.38014 0.55655 0.96439
 C197 C 0.35174 0.53303 0.95300
 C198 C 0.31908 0.54695 0.93765
 C199 C 0.26033 0.53586 0.90679
 C200 C 0.29232 0.52297 0.92378
 H201 H 0.24085 0.51617 0.89585
 H202 H 0.29653 0.49374 0.92537
 H203 H 0.20105 0.56520 0.87664
 H204 H 0.23068 0.67669 0.90229
 H205 H 0.39702 0.61289 0.96916
 H206 H 0.35567 0.50376 0.95477
 H207 H 0.28650 0.65660 0.93040
 H208 H 0.34040 0.63772 0.94452
 C209 C -0.21550 0.90839 0.08853
 C210 C -0.24025 0.88961 0.06513
 C211 C -0.27370 0.87590 0.07914
 C212 C -0.28314 0.88065 0.11654
 C213 C -0.25756 0.89889 0.13939
 C214 C -0.22462 0.91246 0.12577
 C215 C -0.18038 0.92297 0.07279
 C216 C -0.15476 0.94269 0.09404
 C217 C -0.12252 0.95582 0.07856
 C218 C -0.11449 0.94990 0.04131
 C219 C -0.13987 0.93027 0.01962
 C220 C -0.17285 0.91693 0.03512
 C221 C -0.23141 0.88468 0.02794
 C222 C -0.19841 0.89787 0.01333
 H223 H -0.25025 0.87025 0.00985
 H224 H -0.19290 0.89321 -0.01554
 H225 H -0.29271 0.86272 0.06032
 H226 H -0.26172 0.90147 0.16867
 H227 H -0.10371 0.97079 0.09620
 H228 H -0.13415 0.92561 -0.00921
 H229 H -0.20654 0.92560 0.14528
 H230 H -0.15892 0.94859 0.12272
 C231 C 0.72606 0.09311 0.57832
 C232 C 0.73111 0.09464 0.61692
 C233 C 0.76458 0.10691 0.63190
 C234 C 0.79384 0.11723 0.60914
 C235 C 0.78908 0.11507 0.57088
 C236 C 0.75568 0.10323 0.55561
 C237 C 0.68952 0.08031 0.56355
 C238 C 0.68081 0.07915 0.52570
 C239 C 0.64654 0.06615 0.51351
 C240 C 0.62028 0.05381 0.53873
 C241 C 0.62844 0.05572 0.57643
 C242 C 0.66246 0.06900 0.58896
 C243 C 0.70282 0.08380 0.64047
 C244 C 0.66938 0.07092 0.62679
 H245 H 0.70672 0.08491 0.67000
 H246 H 0.64852 0.06245 0.64620
 H247 H 0.76761 0.10895 0.66149
 H248 H 0.81136 0.12233 0.55263
 H249 H 0.64088 0.06508 0.48428
 H250 H 0.60818 0.04679 0.59627
 H251 H 0.75372 0.10200 0.52606
 H252 H 0.70006 0.08804 0.50510
 C253 C 0.41069 0.21279 0.40760
 C254 C 0.43443 0.23785 0.39026
 C255 C 0.42057 0.27133 0.37718
 C256 C 0.38296 0.28070 0.38117
 C257 C 0.35982 0.25524 0.39863
 C258 C 0.37333 0.22210 0.41157
 C259 C 0.42635 0.17738 0.42113
 C260 C 0.40465 0.15080 0.43848
 C261 C 0.42031 0.11862 0.45125
 C262 C 0.45812 0.11161 0.44717
 C263 C 0.48008 0.13763 0.42933
 C264 C 0.46445 0.17048 0.41639
 C265 C 0.47192 0.22941 0.38622
 C266 C 0.48658 0.19651 0.39902
 H267 H 0.49026 0.24858 0.37298
 H268 H 0.51574 0.19141 0.39529
 H269 H 0.43969 0.29046 0.36510
 H270 H 0.33047 0.25965 0.40096
 H271 H 0.40246 0.09908 0.46459
 H272 H 0.50930 0.13260 0.42596
 H273 H 0.35372 0.20409 0.42424
 H274 H 0.37550 0.15420 0.44273
 C275 C 0.92469 0.27738 0.58829
 C276 C 0.88730 0.26885 0.58129
 C277 C 0.87230 0.23585 0.59370
 C278 C 0.89378 0.21029 0.61333
 C279 C 0.93123 0.21893 0.61963
 C280 C 0.94639 0.25177 0.60735
 C281 C 0.93931 0.31342 0.57513
 C282 C 0.97593 0.32513 0.58116
 C283 C 0.98796 0.35906 0.56825
 C284 C 0.96384 0.38212 0.54898
 C285 C 0.92734 0.37069 0.54309
 C286 C 0.91497 0.33688 0.55597
 C287 C 0.86475 0.29345 0.56225
 C288 C 0.87831 0.32664 0.54976
 H289 H 0.83609 0.28694 0.55686
 H290 H 0.85969 0.34467 0.53510
 H291 H 0.84311 0.23139 0.58948
 H292 H 0.94963 0.19992 0.63308
 H293 H 1.01626 0.36714 0.57321
 H294 H 0.90825 0.38821 0.52839
 H295 H 0.97522 0.25645 0.61294
 H296 H 0.99567 0.30856 0.59578
 C297 C 0.08813 0.78632 -0.09959
 C298 C 0.06313 0.75837 -0.10972
 C299 C 0.07651 0.72431 -0.12172
 C300 C 0.11462 0.71770 -0.12362
 C301 C 0.13912 0.74587 -0.11443
 C302 C 0.12621 0.77961 -0.10261
 C303 C 0.07303 0.82176 -0.08568
 C304 C 0.09591 0.85040 -0.07365
 C305 C 0.08091 0.88231 -0.05954
 C306 C 0.04263 0.88698 -0.05711
 C307 C 0.01933 0.85904 -0.06986
 C308 C 0.03431 0.82629 -0.08375
 C309 C 0.02507 0.76459 -0.10751
 C310 C 0.01098 0.79784 -0.09496
 H311 H 0.00584 0.74333 -0.11542
 H312 H -0.01865 0.80114 -0.09358
 H313 H 0.05732 0.70274 -0.12889
 H314 H 0.16860 0.74188 -0.11663
 H315 H 0.09961 0.90350 -0.05031
 H316 H -0.01029 0.86232 -0.06799
 H317 H 0.14668 0.79990 -0.09602
 H318 H 0.12553 0.84874 -0.07433
 C319 C 0.58876 0.71856 1.09763
 C320 C 0.60293 0.74374 1.07191
 C321 C 0.61922 0.77653 1.08406
 C322 C 0.62006 0.78577 1.12170
 C323 C 0.60494 0.76070 1.14683
 C324 C 0.58980 0.72774 1.13511
 C325 C 0.57257 0.68346 1.08376
 C326 C 0.56114 0.65517 1.10731
 C327 C 0.54639 0.62290 1.09306
 C328 C 0.54211 0.61819 1.05507
 C329 C 0.55351 0.64610 1.03134
 C330 C 0.56940 0.67826 1.04535
 C331 C 0.59992 0.73645 1.03419
 C332 C 0.58290 0.70475 1.02120
 H333 H 0.61037 0.75582 1.01435
 H334 H 0.58083 0.70065 0.99176
 H335 H 0.62941 0.79562 1.06383
 H336 H 0.60602 0.76561 1.17616
 H337 H 0.53812 0.60159 1.11186
 H338 H 0.55109 0.64230 1.00186
 H339 H 0.57881 0.70999 1.15593
 H340 H 0.56389 0.65708 1.13676
 C341 C 0.41171 0.41214 1.22301
 C342 C 0.37394 0.40287 1.22526
 C343 C 0.36010 0.38672 1.25726
 C344 C 0.38348 0.37876 1.28703
 C345 C 0.42109 0.38680 1.28436
 C346 C 0.43510 0.40343 1.25285
 C347 C 0.42515 0.43016 1.18860
 C348 C 0.46158 0.44268 1.18450
 C349 C 0.47302 0.45840 1.15159
 C350 C 0.44858 0.46194 1.12177
 C351 C 0.41196 0.45046 1.12589
 C352 C 0.40002 0.43504 1.15909
 C353 C 0.35026 0.40932 1.19545
 C354 C 0.36313 0.42459 1.16291
 H355 H 0.32138 0.40201 1.19712
 H356 H 0.34379 0.42854 1.14046
 H357 H 0.33109 0.37985 1.25891
 H358 H 0.43959 0.38075 1.30700
 H359 H 0.50143 0.46712 1.14927
 H360 H 0.39269 0.45344 1.10321
 H361 H 0.46426 0.40901 1.25236
 H362 H 0.48169 0.44060 1.20632
 C363 C 0.59950 -0.09105 0.28530
 C364 C 0.60894 -0.06655 0.25687
 C365 C 0.62131 -0.08004 0.22284
 C366 C 0.62457 -0.11780 0.21675
 C367 C 0.61578 -0.14181 0.24532
 C368 C 0.60341 -0.12877 0.27901
 C369 C 0.58563 -0.07578 0.32088
 C370 C 0.57436 -0.09813 0.35010
 C371 C 0.56070 -0.08294 0.38229
 C372 C 0.55797 -0.04500 0.38664
 C373 C 0.56973 -0.02226 0.35799
 C374 C 0.58317 -0.03742 0.32501
 C375 C 0.60596 -0.02883 0.26263
 C376 C 0.59354 -0.01459 0.29600
 H377 H 0.61332 -0.00999 0.24098
 H378 H 0.59168 0.01477 0.29900
 H379 H 0.62797 -0.06118 0.20096
 H380 H 0.61894 -0.17099 0.24178
 H381 H 0.55212 -0.10122 0.40397
 H382 H 0.56757 0.00709 0.36096
 H383 H 0.59729 -0.14883 0.29969
 H384 H 0.57537 -0.12747 0.34869
 C385 C -0.08944 1.08945 -0.21954
 C386 C -0.09995 1.06475 -0.24763
 C387 C -0.11136 1.07798 -0.28217
 C388 C -0.11260 1.11568 -0.28915
 C389 C -0.10268 1.13995 -0.26096
 C390 C -0.09121 1.12716 -0.22676
 C391 C -0.07677 1.07440 -0.18334
 C392 C -0.06468 1.09687 -0.15431
 C393 C -0.05203 1.08181 -0.12156
 C394 C -0.05118 1.04389 -0.11644
 C395 C -0.06393 1.02107 -0.14483
 C396 C -0.07634 1.03607 -0.17836
 C397 C -0.09903 1.02709 -0.24101
 C398 C -0.08765 1.01308 -0.20711
 H399 H -0.10722 1.00810 -0.26241
 H400 H -0.08735 0.98375 -0.20348
 H401 H -0.11896 1.05892 -0.30372
 H402 H -0.10437 1.16915 -0.26513
 H403 H -0.04266 1.10015 -0.10007
 H404 H -0.06322 0.99173 -0.14125
 H405 H -0.08415 1.14740 -0.20640
 H406 H -0.06425 1.12618 -0.15630
 C407 C 1.09691 0.58865 0.71516
 C408 C 1.10578 0.56451 0.74419
 C409 C 1.11711 0.57847 0.77856
 C410 C 1.11966 0.61633 0.78441
 C411 C 1.11149 0.63995 0.75525
 C412 C 1.10028 0.62647 0.72123
 C413 C 1.08403 0.57297 0.67926
 C414 C 1.07353 0.59502 0.64941
 C415 C 1.06026 0.57952 0.61709
 C416 C 1.05721 0.54157 0.61317
 C417 C 1.06859 0.51907 0.64230
 C418 C 1.08159 0.53457 0.67548
 C419 C 1.10312 0.52672 0.73869
 C420 C 1.09142 0.51208 0.70507
 H421 H 1.11004 0.50814 0.76079
 H422 H 1.08963 0.48269 0.70235
 H423 H 1.12349 0.55993 0.80087
 H424 H 1.11429 0.66919 0.75854
 H425 H 1.05209 0.59758 0.59496
 H426 H 1.06621 0.48971 0.63960
 H427 H 1.09454 0.64629 0.70015
 H428 H 1.07475 0.62435 0.65042
 C429 C 0.78382 0.59727 0.58558
 C430 C 0.75497 0.57250 0.59337
 C431 C 0.72241 0.58500 0.60992
 C432 C 0.71781 0.62209 0.61824
 C433 C 0.74609 0.64665 0.60976
 C434 C 0.77867 0.63451 0.59372
 C435 C 0.81863 0.58269 0.56907
 C436 C 0.84968 0.60473 0.56240
 C437 C 0.88181 0.58975 0.54795
 C438 C 0.88385 0.55250 0.53939
 C439 C 0.85293 0.53034 0.54543
 C440 C 0.82062 0.54503 0.56063
 C441 C 0.75874 0.53549 0.58449
 C442 C 0.79071 0.52212 0.56816
 H443 H 0.73658 0.51655 0.59019
 H444 H 0.79224 0.49326 0.56182
 H445 H 0.70041 0.56595 0.61598
 H446 H 0.74323 0.67538 0.61615
 H447 H 0.90526 0.60747 0.54357
 H448 H 0.85436 0.50142 0.53931
 H449 H 0.79934 0.65477 0.58796
 H450 H 0.85004 0.63348 0.56863
 C451 C 0.71529 0.39889 1.08274
 C452 C 0.71979 0.39819 1.12141
 C453 C 0.75237 0.38469 1.13708
 C454 C 0.78140 0.37248 1.11495
 C455 C 0.77701 0.37317 1.07661
 C456 C 0.74439 0.38612 1.06065
 C457 C 0.67998 0.41390 1.06724
 C458 C 0.67192 0.41489 1.02925
 C459 C 0.63887 0.43003 1.01637
 C460 C 0.61329 0.44478 1.04101
 C461 C 0.62080 0.44321 1.07883
 C462 C 0.65354 0.42777 1.09205
 C463 C 0.69203 0.41146 1.14437
 C464 C 0.65976 0.42623 1.13000
 H465 H 0.69554 0.41092 1.17397
 H466 H 0.63933 0.43662 1.14894
 H467 H 0.75510 0.38368 1.16674
 H468 H 0.79911 0.36427 1.05885
 H469 H 0.63359 0.43074 0.98706
 H470 H 0.60095 0.45395 1.09822
 H471 H 0.74274 0.38638 1.03105
 H472 H 0.69074 0.40419 1.00908
 C473 C 0.22341 1.09288 -0.08429
 C474 C 0.22798 1.13111 -0.08606
 C475 C 0.26007 1.14601 -0.10138
 C476 C 0.28734 1.12343 -0.11702
 C477 C 0.28195 1.08539 -0.11587
 C478 C 0.25078 1.07037 -0.09955
 C479 C 0.18888 1.07806 -0.06757
 C480 C 0.18323 1.04054 -0.06158
 C481 C 0.15003 1.02793 -0.04728
 C482 C 0.12147 1.05228 -0.03889
 C483 C 0.12718 1.08982 -0.04367
 C484 C 0.16086 1.10287 -0.05728
 C485 C 0.19989 1.15431 -0.07378
 C486 C 0.16677 1.14049 -0.06039
 H487 H 0.20318 1.18364 -0.07539
 H488 H 0.14556 1.15956 -0.05208
 H489 H 0.26240 1.17541 -0.10320
 H490 H 0.30244 1.06677 -0.12652
 H491 H 0.14641 0.99884 -0.04358
 H492 H 0.10551 1.10888 -0.03654
 H493 H 0.24842 1.04105 -0.09974
 H494 H 0.20407 1.02047 -0.06763
 C495 C 0.28870 -0.10505 0.41301
 C496 C 0.26340 -0.08037 0.39695
 C497 C 0.23145 -0.09340 0.37940
 C498 C 0.22302 -0.13095 0.37879
 C499 C 0.24778 -0.15511 0.39618
 C500 C 0.28013 -0.14247 0.41272
 C501 C 0.32324 -0.09013 0.43010
 C502 C 0.35200 -0.11255 0.44322
 C503 C 0.38401 -0.09725 0.45815
 C504 C 0.38785 -0.05932 0.46097
 C505 C 0.35933 -0.03676 0.44823
 C506 C 0.32757 -0.05181 0.43210
 C507 C 0.26972 -0.04273 0.39916
 C508 C 0.30076 -0.02874 0.41696
 H509 H 0.25014 -0.02373 0.38729
 H510 H 0.30421 0.00060 0.41821
 H511 H 0.21224 -0.07382 0.36792
 H512 H 0.24320 -0.18427 0.39579
 H513 H 0.40585 -0.11515 0.46753
 H514 H 0.36250 -0.00736 0.44954
 H515 H 0.29793 -0.16247 0.42530
 H516 H 0.35071 -0.14189 0.44150
 C517 C 0.58841 -0.21711 0.60391
 C518 C 0.59483 -0.24597 0.57879
 C519 C 0.61019 -0.27893 0.59110
 C520 C 0.61860 -0.28402 0.62836
 C521 C 0.61121 -0.25588 0.65340
 C522 C 0.59642 -0.22280 0.64141
 C523 C 0.57328 -0.18186 0.58937
 C524 C 0.56831 -0.15061 0.61149
 C525 C 0.55474 -0.11822 0.59640
 C526 C 0.54542 -0.11625 0.55902
 C527 C 0.55013 -0.14725 0.53683
 C528 C 0.56439 -0.17969 0.55152
 C529 C 0.58575 -0.24188 0.54160
 C530 C 0.57046 -0.20961 0.52834
 H531 H 0.59038 -0.26406 0.52243
 H532 H 0.56378 -0.20787 0.49933
 H533 H 0.61530 -0.30085 0.57173
 H534 H 0.61757 -0.25926 0.68231
 H535 H 0.55150 -0.09465 0.61408
 H536 H 0.54353 -0.14592 0.50777
 H537 H 0.59147 -0.20213 0.66192
 H538 H 0.57518 -0.15041 0.64035
 C539 C 1.08586 0.71776 0.40401
 C540 C 1.09457 0.71899 0.36615
 C541 C 1.11124 0.75018 0.35129
 C542 C 1.12058 0.77980 0.37391
 C543 C 1.11246 0.77837 0.41144
 C544 C 1.09516 0.74788 0.42636
 C545 C 1.06831 0.68390 0.41886
 C546 C 1.05679 0.68072 0.45562
 C547 C 1.04220 0.64803 0.46860
 C548 C 1.03880 0.61761 0.44540
 C549 C 1.04896 0.62087 0.40839
 C550 C 1.06328 0.65379 0.39492
 C551 C 1.08751 0.68876 0.34358
 C552 C 1.07269 0.65669 0.35777
 H553 H 1.09429 0.68963 0.31463
 H554 H 1.06850 0.63379 0.33933
 H555 H 1.11803 0.75102 0.32232
 H556 H 1.11943 0.80106 0.42929
 H557 H 1.03434 0.64637 0.49722
 H558 H 1.04591 0.59770 0.39006
 H559 H 1.08991 0.74827 0.45548
 H560 H 1.05890 0.70302 0.47486
 C561 C -0.08204 1.21740 0.09772
 C562 C -0.09856 1.24181 0.07252
 C563 C -0.11596 1.27362 0.08523
 C564 C -0.11593 1.28269 0.12291
 C565 C -0.09788 1.25887 0.14749
 C566 C -0.08147 1.22675 0.13520
 C567 C -0.06550 1.18281 0.08329
 C568 C -0.05237 1.15481 0.10642
 C569 C -0.03814 1.12264 0.09162
 C570 C -0.03600 1.11787 0.05350
 C571 C -0.04872 1.14563 0.03020
 C572 C -0.06424 1.17757 0.04478
 C573 C -0.09705 1.23468 0.03472
 C574 C -0.07961 1.20361 0.02112
 H575 H -0.10923 1.25359 0.01530
 H576 H -0.07893 1.19948 -0.00837
 H577 H -0.12802 1.29210 0.06532
 H578 H -0.09777 1.26392 0.17680
 H579 H -0.02877 1.10139 0.11007
 H580 H -0.04795 1.14170 0.00067
 H581 H -0.06841 1.20968 0.15556
 H582 H -0.05363 1.15679 0.13595
 C583 C 0.40560 0.29070 0.90023
 C584 C 0.43043 0.26375 0.88759
 C585 C 0.41693 0.23036 0.87390
 C586 C 0.37884 0.22351 0.87234
 C587 C 0.35441 0.25095 0.88354
 C588 C 0.36747 0.28401 0.89728
 C589 C 0.42098 0.32518 0.91632
 C590 C 0.39851 0.35229 0.93197
 C591 C 0.41394 0.38357 0.94732
 C592 C 0.45221 0.38902 0.94743
 C593 C 0.47500 0.36230 0.93173
 C594 C 0.45967 0.33023 0.91667
 C595 C 0.46848 0.27027 0.88883
 C596 C 0.48276 0.30294 0.90267
 H597 H 0.48755 0.24980 0.87890
 H598 H 0.51239 0.30664 0.90298
 H599 H 0.43611 0.20942 0.86522
 H600 H 0.32490 0.24689 0.88157
 H601 H 0.39563 0.40372 0.95913
 H602 H 0.50463 0.36606 0.93196
 H603 H 0.34716 0.30388 0.90532
 H604 H 0.36895 0.34980 0.93315
 C605 C 0.59796 0.58248 0.78520
 C606 C 0.59940 0.62089 0.78140
 C607 C 0.61338 0.63653 0.74928
 C608 C 0.62534 0.61465 0.72001
 C609 C 0.62392 0.57657 0.72371
 C610 C 0.61048 0.56063 0.75586
 C611 C 0.58263 0.56701 0.82011
 C612 C 0.58098 0.52925 0.82748
 C613 C 0.56590 0.51641 0.86035
 C614 C 0.55184 0.54086 0.88644
 C615 C 0.55382 0.57842 0.87948
 C616 C 0.56926 0.59161 0.84694
 C617 C 0.58646 0.64362 0.80943
 C618 C 0.57142 0.62929 0.84135
 H619 H 0.58755 0.67301 0.80645
 H620 H 0.56139 0.64807 0.86206
 H621 H 0.61501 0.66597 0.74715
 H622 H 0.63263 0.55902 0.70142
 H623 H 0.56486 0.48729 0.86515
 H624 H 0.54359 0.59766 0.89968
 H625 H 0.60970 0.53125 0.75699
 H626 H 0.59122 0.50924 0.80833
 C627 C 0.40356 0.08695 0.71665
 C628 C 0.42881 0.09695 0.74475
 C629 C 0.41609 0.11364 0.77711
 C630 C 0.37834 0.11978 0.78228
 C631 C 0.35337 0.10934 0.75469
 C632 C 0.36571 0.09322 0.72229
 C633 C 0.41827 0.07004 0.68217
 C634 C 0.39569 0.06109 0.65182
 C635 C 0.41080 0.04620 0.61999
 C636 C 0.44873 0.03944 0.61761
 C637 C 0.47145 0.04782 0.64783
 C638 C 0.45663 0.06347 0.67977
 C639 C 0.46649 0.08996 0.74052
 C640 C 0.48005 0.07327 0.70889
 H641 H 0.48581 0.09737 0.76209
 H642 H 0.50943 0.06838 0.70702
 H643 H 0.43545 0.12131 0.79858
 H644 H 0.32411 0.11405 0.75805
 H645 H 0.39267 0.04007 0.59704
 H646 H 0.50090 0.04316 0.64611
 H647 H 0.34510 0.08580 0.70219
 H648 H 0.36638 0.06585 0.65179
 C649 C 0.09715 0.91334 0.21806
 C650 C 0.13485 0.90340 0.21915
 C651 C 0.14979 0.88712 0.25080
 C652 C 0.12742 0.87950 0.28112
 C653 C 0.09002 0.88883 0.27982
 C654 C 0.07503 0.90569 0.24883
 C655 C 0.08224 0.93058 0.18375
 C656 C 0.04570 0.94321 0.18064
 C657 C 0.03270 0.95785 0.14770
 C658 C 0.05564 0.96021 0.11689
 C659 C 0.09240 0.94865 0.11997
 C660 C 0.10591 0.93426 0.15318
 C661 C 0.15715 0.90893 0.18837
 C662 C 0.14288 0.92358 0.15594
 H663 H 0.18597 0.90118 0.18912
 H664 H 0.16113 0.92669 0.13268
 H665 H 0.17862 0.87935 0.25149
 H666 H 0.07233 0.88315 0.30300
 H667 H 0.00427 0.96676 0.14620
 H668 H 0.11054 0.95082 0.09651
 H669 H 0.04602 0.91196 0.24939
 H670 H 0.02666 0.94204 0.20323
 C671 C 0.90633 0.41662 0.27754
 C672 C 0.86879 0.40616 0.27609
 C673 C 0.85427 0.39007 0.24408
 C674 C 0.87697 0.38305 0.21383
 C675 C 0.91420 0.39295 0.21545
 C676 C 0.92874 0.40969 0.24676
 C677 C 0.92087 0.43345 0.31225
 C678 C 0.95721 0.44650 0.31572
 C679 C 0.97001 0.46049 0.34904
 C680 C 0.94705 0.46182 0.37991
 C681 C 0.91040 0.44998 0.37649
 C682 C 0.89709 0.43619 0.34286
 C683 C 0.84629 0.41090 0.30689
 C684 C 0.86026 0.42512 0.33971
 H685 H 0.81758 0.40278 0.30585
 H686 H 0.84191 0.42754 0.36298
 H687 H 0.82556 0.38188 0.24307
 H688 H 0.93211 0.38773 0.19231
 H689 H 0.99834 0.46967 0.35075
 H690 H 0.89225 0.45136 0.40001
 H691 H 0.95766 0.41634 0.24646
 H692 H 0.97628 0.44613 0.29312
   
