data_POSCAR
  _audit_creation_date              2014-09-24
  _audit_creation_method            'ToBaCCo'
  _symmetry_space_group_name_H-M    'P1'
  _symmetry_Int_Tables_number       1
  _symmetry_cell_setting            triclinic
  loop_
  _symmetry_equiv_pos_as_xyz
 x,y,z
_cell_length_a 29.2454
_cell_length_b 29.2454
_cell_length_c 54.8588
_cell_angle_alpha 90.000000
_cell_angle_beta 90.000000
_cell_angle_gamma 120.000700
loop_
  _atom_site_label
  _atom_site_type_symbol
  _atom_site_fract_x
  _atom_site_fract_y
  _atom_site_fract_z
Zn1 Zn 0.96515 0.03328 1.01072
 Zn2 Zn 1.06823 0.03492 1.01072
 Zn3 Zn 0.96679 -0.06816 1.01072
 Zn4 Zn 1.00006 0.00002 0.96646
 O5 O 1.00006 0.00002 0.99969
 O6 O 1.00605 0.08981 1.02917
 O7 O 1.08385 -0.00598 1.02917
 O8 O 0.91026 -0.08378 1.02917
 O9 O 1.08224 0.09099 1.02917
 O10 O 0.90908 -0.00877 1.02917
 O11 O 1.00884 -0.08217 1.02917
 O12 O 0.96843 -0.06496 0.95381
 O13 O 1.11594 0.05940 0.98652
 O14 O 0.94355 -0.11586 0.98652
 O15 O 1.06504 0.03337 0.95381
 O16 O 0.96671 0.03165 0.95381
 O17 O 0.94068 0.05652 0.98652
 C18 C 1.05394 0.11045 1.03580
 C19 C 1.05661 -0.05387 1.03580
 C20 C 0.88962 -0.05654 1.03579
 C21 C 0.94625 -0.11044 0.96351
 C22 C 1.11052 0.05666 0.96351
 C23 C 0.94341 0.05383 0.96351
 Zn24 Zn 0.03332 0.96511 0.51072
 Zn25 Zn -0.06812 0.96675 0.51072
 Zn26 Zn 0.03496 1.06819 0.51072
 Zn27 Zn 0.00006 1.00002 0.46646
 O28 O 0.00006 1.00002 0.49969
 O29 O -0.00873 0.90905 0.52917
 O30 O -0.08213 1.00880 0.52917
 O31 O 0.09103 1.08220 0.52917
 O32 O -0.08374 0.91022 0.52917
 O33 O 0.08985 1.00601 0.52917
 O34 O -0.00594 1.08381 0.52917
 O35 O 0.03341 1.06500 0.45381
 O36 O -0.11582 0.94351 0.48652
 O37 O 0.05944 1.11590 0.48652
 O38 O -0.06492 0.96839 0.45381
 O39 O 0.03168 0.96667 0.45381
 O40 O 0.05656 0.94064 0.48652
 C41 C -0.05650 0.88958 0.53579
 C42 C -0.05383 1.05657 0.53580
 C43 C 0.11049 1.05390 0.53580
 C44 C 0.05671 1.11048 0.46351
 C45 C -0.11040 0.94621 0.46351
 C46 C 0.05387 0.94337 0.46351
 O47 O 0.25417 0.57481 0.27014
 O48 O 0.25644 0.66390 0.27803
 C49 C 0.28076 0.71303 0.28241
 O50 O 0.32072 0.74590 0.27014
 O51 O 0.40755 0.74364 0.27802
 C52 C 0.43237 0.71932 0.28241
 O53 O 0.42527 0.67936 0.27014
 O54 O 0.33617 0.59252 0.27803
 C55 C 0.28704 0.56771 0.28241
 O56 O 0.25644 0.59230 0.22174
 O57 O 0.25403 0.67914 0.22963
 C58 C 0.28678 0.71932 0.21743
 O59 O 0.33595 0.74363 0.22174
 O60 O 0.42521 0.74605 0.22962
 C61 C 0.43263 0.71329 0.21743
 O62 O 0.40777 0.66413 0.22174
 O63 O 0.32093 0.57486 0.22963
 C64 C 0.28075 0.56744 0.21744
 Cr65 Cr 0.25814 0.62898 0.24988
 Cr66 Cr 0.37093 0.74194 0.24988
 Cr67 Cr 0.37109 0.62914 0.24988
 O68 O 0.33339 0.66669 0.24985
 O69 O 0.74368 0.40752 0.77803
 O70 O 0.74594 0.32068 0.77014
 C71 C 0.71307 0.28072 0.78241
 O72 O 0.66394 0.25640 0.77803
 O73 O 0.57485 0.25414 0.77014
 C74 C 0.56775 0.28701 0.78241
 O75 O 0.59256 0.33613 0.77803
 O76 O 0.67940 0.42523 0.77014
 C77 C 0.71936 0.43233 0.78241
 O78 O 0.74609 0.42517 0.72963
 O79 O 0.74367 0.33591 0.72174
 C80 C 0.71935 0.28674 0.71744
 O81 O 0.67918 0.25399 0.72963
 O82 O 0.59234 0.25640 0.72174
 C83 C 0.56748 0.28072 0.71744
 O84 O 0.57490 0.32089 0.72963
 O85 O 0.66417 0.40773 0.72174
 C86 C 0.71333 0.43259 0.71743
 Cr87 Cr 0.74197 0.37089 0.74988
 Cr88 Cr 0.62902 0.25810 0.74988
 Cr89 Cr 0.62918 0.37105 0.74988
 O90 O 0.66673 0.33335 0.74985
 C91 C 0.15140 0.22514 0.07481
 C92 C 0.12044 0.24647 0.08264
 C93 C 0.06796 0.22382 0.07489
 C94 C 0.04638 0.17981 0.05950
 C95 C 0.07707 0.15780 0.05167
 C96 C 0.12993 0.18114 0.05943
 C97 C 0.14220 0.29085 0.09903
 C98 C 0.16036 0.32758 0.11300
 C99 C 0.18155 0.37003 0.12967
 C100 C 0.19957 0.40577 0.14418
 C101 C 0.22098 0.44775 0.16187
 C102 C 0.19548 0.47649 0.16667
 C103 C 0.21525 0.51594 0.18451
 C104 C 0.26082 0.52709 0.19785
 C105 C 0.28651 0.49837 0.19264
 C106 C 0.26666 0.45898 0.17480
 H107 H 0.19205 0.24231 0.08073
 H108 H 0.04361 0.23996 0.08088
 H109 H 0.00559 0.16284 0.05388
 H110 H 0.15465 0.16522 0.05374
 H111 H 0.16003 0.46807 0.15679
 H112 H 0.19451 0.53727 0.18802
 H113 H 0.32168 0.50592 0.20251
 H114 H 0.28668 0.43693 0.17125
 C115 C 0.77625 0.84412 0.07489
 C116 C 0.75360 0.87395 0.08263
 C117 C 0.77493 0.92624 0.07481
 C118 C 0.81893 0.94878 0.05942
 C119 C 0.84227 0.91925 0.05166
 C120 C 0.82026 0.86655 0.05950
 C121 C 0.70922 0.85133 0.09902
 C122 C 0.67249 0.83277 0.11300
 C123 C 0.63004 0.81150 0.12967
 C124 C 0.59430 0.79378 0.14418
 C125 C 0.55232 0.77321 0.16187
 C126 C 0.54109 0.80767 0.17479
 C127 C 0.50170 0.78813 0.19264
 C128 C 0.47298 0.73372 0.19785
 C129 C 0.48413 0.69929 0.18451
 C130 C 0.52357 0.71897 0.16666
 H131 H 0.76010 0.80363 0.08087
 H132 H 0.75776 0.94972 0.08073
 H133 H 0.83485 0.98941 0.05374
 H134 H 0.83722 0.84272 0.05387
 H135 H 0.56314 0.84974 0.17124
 H136 H 0.49415 0.81575 0.20251
 H137 H 0.46279 0.65722 0.18802
 H138 H 0.53200 0.69195 0.15678
 C139 C 0.15595 0.93210 0.07489
 C140 C 0.12611 0.87963 0.08264
 C141 C 0.07382 0.84866 0.07481
 C142 C 0.05129 0.87014 0.05942
 C143 C 0.08082 0.92300 0.05167
 C144 C 0.13352 0.95369 0.05950
 C145 C 0.14873 0.85786 0.09903
 C146 C 0.16730 0.83970 0.11300
 C147 C 0.18857 0.81852 0.12967
 C148 C 0.20629 0.80050 0.14418
 C149 C 0.22686 0.77909 0.16187
 C150 C 0.19240 0.73340 0.17480
 C151 C 0.21194 0.71356 0.19264
 C152 C 0.26635 0.73924 0.19785
 C153 C 0.30078 0.78481 0.18451
 C154 C 0.28110 0.80458 0.16666
 H155 H 0.19644 0.95646 0.08088
 H156 H 0.05034 0.80801 0.08073
 H157 H 0.01066 0.84542 0.05374
 H158 H 0.15734 0.99448 0.05388
 H159 H 0.15033 0.71338 0.17125
 H160 H 0.18432 0.67839 0.20251
 H161 H 0.34285 0.80555 0.18802
 H162 H 0.30812 0.84003 0.15678
 C163 C 0.92628 0.77489 0.57481
 C164 C 0.87399 0.75356 0.58263
 C165 C 0.84416 0.77621 0.57489
 C166 C 0.86659 0.82022 0.55950
 C167 C 0.91929 0.84223 0.55166
 C168 C 0.94881 0.81889 0.55942
 C169 C 0.85137 0.70918 0.59902
 C170 C 0.83280 0.67245 0.61300
 C171 C 0.81154 0.63000 0.62967
 C172 C 0.79382 0.59426 0.64418
 C173 C 0.77325 0.55228 0.66187
 C174 C 0.71901 0.52354 0.66666
 C175 C 0.69933 0.48409 0.68451
 C176 C 0.73376 0.47294 0.69785
 C177 C 0.78817 0.50166 0.69264
 C178 C 0.80771 0.54105 0.67479
 H179 H 0.94976 0.75772 0.58073
 H180 H 0.80367 0.76007 0.58087
 H181 H 0.84276 0.83719 0.55387
 H182 H 0.98944 0.83481 0.55374
 H183 H 0.69199 0.53196 0.65678
 H184 H 0.65726 0.46276 0.68802
 H185 H 0.81579 0.49411 0.70251
 H186 H 0.84978 0.56310 0.67124
 C187 C 0.22518 0.15137 0.57481
 C188 C 0.24651 0.12040 0.58264
 C189 C 0.22386 0.06792 0.57489
 C190 C 0.17985 0.04634 0.55950
 C191 C 0.15784 0.07703 0.55167
 C192 C 0.18118 0.12990 0.55942
 C193 C 0.29089 0.14216 0.59903
 C194 C 0.32762 0.16032 0.61300
 C195 C 0.37007 0.18151 0.62967
 C196 C 0.40581 0.19953 0.64419
 C197 C 0.44779 0.22094 0.66187
 C198 C 0.47653 0.19544 0.66667
 C199 C 0.51598 0.21521 0.68451
 C200 C 0.52713 0.26079 0.69785
 C201 C 0.49841 0.28648 0.69264
 C202 C 0.45902 0.26663 0.67480
 H203 H 0.24235 0.19202 0.58073
 H204 H 0.24000 0.04357 0.58088
 H205 H 0.16288 0.00555 0.55388
 H206 H 0.16526 0.15461 0.55374
 H207 H 0.46810 0.15999 0.65679
 H208 H 0.53731 0.19447 0.68802
 H209 H 0.50596 0.32165 0.70251
 H210 H 0.43697 0.28665 0.67125
 C211 C 0.93214 0.15591 0.57489
 C212 C 0.87967 0.12607 0.58264
 C213 C 0.84870 0.07379 0.57481
 C214 C 0.87017 0.05125 0.55942
 C215 C 0.92304 0.08078 0.55167
 C216 C 0.95373 0.13348 0.55950
 C217 C 0.85790 0.14869 0.59903
 C218 C 0.83974 0.16726 0.61300
 C219 C 0.81856 0.18853 0.62967
 C220 C 0.80054 0.20625 0.64418
 C221 C 0.77913 0.22682 0.66187
 C222 C 0.80462 0.28106 0.66667
 C223 C 0.78485 0.30074 0.68451
 C224 C 0.73928 0.26632 0.69785
 C225 C 0.71359 0.21190 0.69264
 C226 C 0.73344 0.19236 0.67480
 H227 H 0.95650 0.19640 0.58088
 H228 H 0.80805 0.05030 0.58073
 H229 H 0.84546 0.01062 0.55374
 H230 H 0.99452 0.15730 0.55388
 H231 H 0.84007 0.30808 0.65678
 H232 H 0.80560 0.34281 0.68802
 H233 H 0.67842 0.18428 0.70251
 H234 H 0.71342 0.15029 0.67125
 C235 C 0.19670 0.10090 0.90703
 C236 C 0.24734 0.12667 0.91720
 C237 C 0.25342 0.12971 0.94256
 C238 C 0.20895 0.10700 0.95771
 C239 C 0.15783 0.08094 0.94763
 C240 C 0.15226 0.07820 0.92210
 C241 C 0.29279 0.14969 0.90146
 C242 C 0.33003 0.16843 0.88777
 C243 C 0.37267 0.18975 0.87122
 C244 C 0.40829 0.20739 0.85665
 C245 C 0.44988 0.22778 0.83878
 C246 C 0.46063 0.19315 0.82571
 C247 C 0.49939 0.21245 0.80758
 C248 C 0.52793 0.26680 0.80222
 C249 C 0.51727 0.30140 0.81570
 C250 C 0.47845 0.28195 0.83383
 H251 H 0.19155 0.09831 0.88742
 H252 H 0.29247 0.14957 0.95062
 H253 H 0.21461 0.10981 0.97728
 H254 H 0.11354 0.05847 0.91373
 H255 H 0.43866 0.15112 0.82936
 H256 H 0.50660 0.18471 0.79761
 H257 H 0.53850 0.34343 0.81208
 H258 H 0.47034 0.30910 0.84380
 C259 C 0.87640 0.74666 0.94256
 C260 C 0.87944 0.75274 0.91720
 C261 C 0.90431 0.80338 0.90703
 C262 C 0.92604 0.84782 0.92210
 C263 C 0.92321 0.84225 0.94763
 C264 C 0.89814 0.79112 0.95771
 C265 C 0.85701 0.70729 0.90145
 C266 C 0.83852 0.67006 0.88777
 C267 C 0.81719 0.62742 0.87121
 C268 C 0.79921 0.59179 0.85665
 C269 C 0.77801 0.55021 0.83877
 C270 C 0.73262 0.53945 0.82571
 C271 C 0.71317 0.50069 0.80757
 C272 C 0.73898 0.47215 0.80222
 C273 C 0.78424 0.48281 0.81569
 C274 C 0.80361 0.52164 0.83382
 H275 H 0.85720 0.70761 0.95062
 H276 H 0.90686 0.80854 0.88742
 H277 H 0.94503 0.88654 0.91373
 H278 H 0.89529 0.78546 0.97727
 H279 H 0.71256 0.56142 0.82936
 H280 H 0.67822 0.49347 0.79761
 H281 H 0.80504 0.46158 0.81208
 H282 H 0.83886 0.52974 0.84380
 C283 C 0.89918 0.09578 0.90703
 C284 C 0.87341 0.12064 0.91720
 C285 C 0.87037 0.12368 0.94256
 C286 C 0.89308 0.10193 0.95771
 C287 C 0.91914 0.07687 0.94763
 C288 C 0.92189 0.07404 0.92210
 C289 C 0.85039 0.14308 0.90145
 C290 C 0.83165 0.16157 0.88777
 C291 C 0.81034 0.18289 0.87121
 C292 C 0.79269 0.20087 0.85665
 C293 C 0.77230 0.22207 0.83877
 C294 C 0.71813 0.19647 0.83383
 C295 C 0.69868 0.21584 0.81570
 C296 C 0.73328 0.26110 0.80222
 C297 C 0.78762 0.28691 0.80757
 C298 C 0.80693 0.26746 0.82571
 H299 H 0.90178 0.09322 0.88742
 H300 H 0.85051 0.14288 0.95062
 H301 H 0.89027 0.10478 0.97727
 H302 H 0.94162 0.05505 0.91373
 H303 H 0.69099 0.16122 0.84380
 H304 H 0.65665 0.19504 0.81208
 H305 H 0.81536 0.32186 0.79761
 H306 H 0.84896 0.28752 0.82936
 C307 C 0.80342 0.90427 0.40703
 C308 C 0.75278 0.87940 0.41720
 C309 C 0.74670 0.87636 0.44256
 C310 C 0.79116 0.89811 0.45771
 C311 C 0.84228 0.92317 0.44763
 C312 C 0.84786 0.92600 0.42210
 C313 C 0.70733 0.85697 0.40145
 C314 C 0.67010 0.83848 0.38777
 C315 C 0.62746 0.81715 0.37121
 C316 C 0.59183 0.79917 0.35665
 C317 C 0.55024 0.77797 0.33877
 C318 C 0.52167 0.80357 0.33382
 C319 C 0.48285 0.78420 0.31569
 C320 C 0.47219 0.73894 0.30222
 C321 C 0.50073 0.71313 0.30757
 C322 C 0.53949 0.73258 0.32571
 H323 H 0.80857 0.90682 0.38742
 H324 H 0.70765 0.85716 0.45062
 H325 H 0.78550 0.89526 0.47727
 H326 H 0.88658 0.94499 0.41373
 H327 H 0.52978 0.83882 0.34380
 H328 H 0.46162 0.80500 0.31208
 H329 H 0.49351 0.67818 0.29761
 H330 H 0.56146 0.71252 0.32936
 C331 C 0.10094 0.19666 0.40703
 C332 C 0.12671 0.24730 0.41720
 C333 C 0.12975 0.25338 0.44256
 C334 C 0.10704 0.20892 0.45771
 C335 C 0.08098 0.15779 0.44763
 C336 C 0.07824 0.15222 0.42210
 C337 C 0.14973 0.29275 0.40146
 C338 C 0.16847 0.32999 0.38777
 C339 C 0.18978 0.37263 0.37122
 C340 C 0.20743 0.40825 0.35665
 C341 C 0.22782 0.44984 0.33878
 C342 C 0.19318 0.46059 0.32571
 C343 C 0.21249 0.49935 0.30758
 C344 C 0.26684 0.52789 0.30222
 C345 C 0.30144 0.51723 0.31570
 C346 C 0.28199 0.47841 0.33383
 H347 H 0.09834 0.19151 0.38742
 H348 H 0.14961 0.29243 0.45062
 H349 H 0.10985 0.21457 0.47728
 H350 H 0.05850 0.11350 0.41373
 H351 H 0.15115 0.43862 0.32936
 H352 H 0.18475 0.50656 0.29761
 H353 H 0.34347 0.53847 0.31208
 H354 H 0.30913 0.47031 0.34380
 C355 C 0.09582 0.89914 0.40703
 C356 C 0.12068 0.87337 0.41720
 C357 C 0.12372 0.87033 0.44256
 C358 C 0.10197 0.89304 0.45771
 C359 C 0.07691 0.91910 0.44763
 C360 C 0.07408 0.92185 0.42210
 C361 C 0.14312 0.85035 0.40145
 C362 C 0.16161 0.83161 0.38777
 C363 C 0.18293 0.81030 0.37121
 C364 C 0.20091 0.79265 0.35665
 C365 C 0.22211 0.77226 0.33877
 C366 C 0.19651 0.71809 0.33383
 C367 C 0.21588 0.69864 0.31570
 C368 C 0.26114 0.73324 0.30222
 C369 C 0.28695 0.78759 0.30757
 C370 C 0.26750 0.80689 0.32571
 H371 H 0.09326 0.90174 0.38742
 H372 H 0.14291 0.85047 0.45062
 H373 H 0.10482 0.89023 0.47727
 H374 H 0.05509 0.94158 0.41373
 H375 H 0.16126 0.69095 0.34380
 H376 H 0.19508 0.65661 0.31208
 H377 H 0.32190 0.81533 0.29761
 H378 H 0.28756 0.84893 0.32936
   
