data_POSCAR
  _audit_creation_date              2014-09-24
  _audit_creation_method            'ToBaCCo'
  _symmetry_space_group_name_H-M    'P1'
  _symmetry_Int_Tables_number       1
  _symmetry_cell_setting            triclinic
  loop_
  _symmetry_equiv_pos_as_xyz
 x,y,z
_cell_length_a 25.3390
_cell_length_b 25.1652
_cell_length_c 32.9971
_cell_angle_alpha 89.896900
_cell_angle_beta 89.940000
_cell_angle_gamma 90.062500
loop_
  _atom_site_label
  _atom_site_type_symbol
  _atom_site_fract_x
  _atom_site_fract_y
  _atom_site_fract_z
Zr1 Zr 0.25505 0.25270 0.32086
 O2 O 0.29854 0.29782 0.36354
 O3 O 0.20692 0.20568 0.35835
 O4 O 0.20835 0.30765 0.35421
 O5 O 0.35384 0.16053 0.30454
 O6 O 0.15819 0.34679 0.30504
 O7 O 0.31141 0.20764 0.35394
 O8 O 0.15673 0.15850 0.31367
 O9 O 0.18287 0.25007 0.28962
 O10 O 0.25314 0.18058 0.28904
 O11 O 0.25449 0.31972 0.28268
 O12 O 0.32246 0.25225 0.28312
 Zr13 Zr 0.24583 0.24420 0.17824
 Zr14 Zr 0.18411 0.31464 0.24968
 Zr15 Zr 0.31711 0.18177 0.24943
 Zr16 Zr 0.18316 0.17958 0.25616
 O17 O 0.39992 0.18838 0.24278
 O18 O 0.10031 0.19147 0.25808
 O19 O 0.24693 0.17621 0.21591
 O20 O 0.17943 0.24393 0.21656
 O21 O 0.24810 0.31664 0.20971
 O22 O 0.31767 0.24638 0.20985
 C23 C 0.17068 0.17182 0.34954
 C24 C 0.34652 0.17406 0.34183
 C25 C 0.17248 0.34048 0.34218
 O26 O 0.10099 0.30756 0.25265
 O27 O 0.15155 0.34068 0.19441
 O28 O 0.19057 0.29069 0.14508
 C29 C 0.15768 0.32644 0.15721
 O30 O 0.35806 0.34853 0.29421
 Zr31 Zr 0.31830 0.31663 0.24301
 O32 O 0.29179 0.29376 0.14089
 O33 O 0.19068 0.39839 0.24686
 O34 O 0.30636 0.40007 0.24203
 O35 O 0.40086 0.30621 0.23584
 O36 O 0.33797 0.34470 0.18569
 C37 C 0.32462 0.33099 0.14979
 O38 O 0.20134 0.20043 0.13534
 O39 O 0.31155 0.09825 0.25581
 O40 O 0.29039 0.18757 0.14503
 O41 O 0.33736 0.14470 0.19429
 O42 O 0.19412 0.09640 0.26243
 O43 O 0.15086 0.13976 0.20510
 C44 C 0.32350 0.15199 0.15710
 H45 H 0.25538 0.14924 0.30713
 H46 H 0.14617 0.24146 0.20097
 H47 H 0.34861 0.24448 0.19157
 H48 H 0.25674 0.35313 0.29836
 H49 H 0.08381 0.15765 0.26694
 H50 H 0.08659 0.34416 0.25222
 H51 H 0.15426 0.41267 0.24740
 H52 H 0.33990 0.41695 0.23336
 H53 H 0.15993 0.08081 0.27097
 H54 H 0.34810 0.08432 0.25529
 H55 H 0.41411 0.15171 0.24305
 H56 H 0.41598 0.34090 0.22752
 H57 H 0.12201 0.11589 0.21404
 H58 H 0.21267 0.21191 0.10785
 H59 H 0.28745 0.28625 0.39106
 H60 H 0.38215 0.37732 0.28538
 Zr61 Zr 0.74346 0.74675 0.32162
 O62 O 0.70134 0.70053 0.36464
 O63 O 0.79091 0.79470 0.35895
 O64 O 0.79100 0.69299 0.35509
 O65 O 0.64127 0.83495 0.30474
 O66 O 0.84263 0.65522 0.30617
 O67 O 0.68505 0.78973 0.35444
 O68 O 0.84045 0.84271 0.31416
 O69 O 0.81563 0.75123 0.29027
 O70 O 0.74363 0.81899 0.28987
 O71 O 0.74609 0.67982 0.28343
 O72 O 0.67630 0.74514 0.28382
 Zr73 Zr 0.75290 0.75575 0.17893
 Zr74 Zr 0.81646 0.68672 0.25039
 Zr75 Zr 0.67990 0.81584 0.25017
 Zr76 Zr 0.81363 0.82182 0.25683
 O77 O 0.59736 0.80720 0.24286
 O78 O 0.89683 0.81248 0.25807
 O79 O 0.74993 0.82349 0.21661
 O80 O 0.81920 0.75771 0.21725
 O81 O 0.75262 0.68309 0.21040
 O82 O 0.68113 0.75147 0.21057
 C83 C 0.82706 0.82876 0.35006
 C84 C 0.64853 0.82162 0.34202
 C85 C 0.82769 0.66109 0.34329
 O86 O 0.89933 0.69608 0.25350
 O87 O 0.84987 0.66202 0.19478
 O88 O 0.80923 0.71096 0.14552
 C89 C 0.84323 0.67618 0.15750
 O90 O 0.64362 0.64748 0.29492
 Zr91 Zr 0.68237 0.68106 0.24374
 O92 O 0.70779 0.70543 0.14167
 O93 O 0.81242 0.60284 0.24763
 O94 O 0.69694 0.59806 0.24253
 O95 O 0.59953 0.68932 0.23696
 O96 O 0.66298 0.65295 0.18648
 C97 C 0.67572 0.66745 0.15058
 O98 O 0.79632 0.80045 0.13573
 O99 O 0.68329 0.89937 0.25714
 O100 O 0.70727 0.81207 0.14612
 O101 O 0.65909 0.85320 0.19549
 O102 O 0.80042 0.90457 0.26362
 O103 O 0.84418 0.86298 0.20559
 C104 C 0.67337 0.84677 0.15839
 H105 H 0.74046 0.85006 0.30806
 H106 H 0.85238 0.76115 0.20161
 H107 H 0.65016 0.75275 0.19232
 H108 H 0.74464 0.64630 0.29912
 H109 H 0.91244 0.84681 0.26661
 H110 H 0.91466 0.65988 0.25314
 H111 H 0.84927 0.58973 0.24820
 H112 H 0.66395 0.58019 0.23388
 H113 H 0.83427 0.92098 0.27200
 H114 H 0.64640 0.91239 0.25663
 H115 H 0.58216 0.84347 0.24323
 H116 H 0.58524 0.65429 0.22871
 H117 H 0.87217 0.88790 0.21438
 H118 H 0.78480 0.78908 0.10831
 H119 H 0.71187 0.71268 0.39210
 H120 H 0.62050 0.61798 0.28606
 Zr121 Zr 0.74434 0.25416 -0.32202
 O122 O 0.70112 0.29954 -0.36481
 O123 O 0.79267 0.20725 -0.35948
 O124 O 0.79056 0.30922 -0.35541
 O125 O 0.64505 0.16267 -0.30575
 O126 O 0.83998 0.34933 -0.30633
 O127 O 0.68746 0.21001 -0.35512
 O128 O 0.84346 0.16081 -0.31470
 O129 O 0.81649 0.25227 -0.29070
 O130 O 0.74684 0.18182 -0.29044
 O131 O 0.74416 0.32096 -0.28372
 O132 O 0.67698 0.25296 -0.28430
 Zr133 Zr 0.75337 0.24470 -0.17936
 Zr134 Zr 0.81454 0.31662 -0.25070
 Zr135 Zr 0.68288 0.18223 -0.25092
 Zr136 Zr 0.81677 0.18155 -0.25734
 O137 O 0.60005 0.18740 -0.24359
 O138 O 0.89950 0.19445 -0.25927
 O139 O 0.75297 0.17710 -0.21724
 O140 O 0.81981 0.24570 -0.21765
 O141 O 0.75051 0.31749 -0.21061
 O142 O 0.68165 0.24630 -0.21114
 C143 C 0.82926 0.17377 -0.35060
 C144 C 0.65189 0.17693 -0.34292
 C145 C 0.82580 0.34266 -0.34350
 O146 O 0.89773 0.31048 -0.25344
 O147 O 0.84639 0.34303 -0.19524
 O148 O 0.80772 0.29222 -0.14601
 C149 C 0.84016 0.32865 -0.15802
 O150 O 0.64097 0.35028 -0.29485
 Zr151 Zr 0.68041 0.31695 -0.24398
 O152 O 0.70579 0.29207 -0.14180
 O153 O 0.80743 0.40031 -0.24807
 O154 O 0.69247 0.40033 -0.24154
 O155 O 0.59779 0.30539 -0.23820
 O156 O 0.65872 0.34255 -0.18645
 C157 C 0.67168 0.32811 -0.15058
 O158 O 0.79854 0.20168 -0.13640
 O159 O 0.68923 0.09895 -0.25836
 O160 O 0.70958 0.18639 -0.14677
 O161 O 0.66314 0.14375 -0.19639
 O162 O 0.80656 0.09827 -0.26352
 O163 O 0.84942 0.14198 -0.20621
 C164 C 0.67684 0.15057 -0.15920
 H165 H 0.74464 0.15065 -0.30864
 H166 H 0.85304 0.24363 -0.20199
 H167 H 0.65058 0.24352 -0.19305
 H168 H 0.74162 0.35445 -0.29936
 H169 H 0.91636 0.16084 -0.26800
 H170 H 0.91174 0.34726 -0.25321
 H171 H 0.84377 0.41490 -0.24858
 H172 H 0.65897 0.41684 -0.23251
 H173 H 0.84093 0.08305 -0.27190
 H174 H 0.65279 0.08461 -0.25815
 H175 H 0.58622 0.15056 -0.24432
 H176 H 0.58208 0.33962 -0.22958
 H177 H 0.87852 0.11850 -0.21510
 H178 H 0.78653 0.21249 -0.10896
 H179 H 0.71203 0.28803 -0.39235
 H180 H 0.61740 0.37927 -0.28574
 Zr181 Zr 0.24719 0.74476 -0.32165
 O182 O 0.29301 0.70281 -0.36475
 O183 O 0.19351 0.78693 -0.35780
 O184 O 0.20292 0.68689 -0.35308
 O185 O 0.35317 0.82666 -0.31440
 O186 O 0.15582 0.64775 -0.30211
 O187 O 0.28993 0.79767 -0.35799
 O188 O 0.15044 0.83978 -0.31268
 O189 O 0.17720 0.74650 -0.28804
 O190 O 0.24763 0.81763 -0.29110
 O191 O 0.25153 0.67844 -0.28301
 O192 O 0.31807 0.74583 -0.28789
 Zr193 Zr 0.24773 0.75635 -0.17999
 Zr194 Zr 0.18325 0.68246 -0.24774
 Zr195 Zr 0.31570 0.81740 -0.25570
 Zr196 Zr 0.17971 0.81808 -0.25582
 O197 O 0.39870 0.81480 -0.24893
 O198 O 0.09702 0.80495 -0.25500
 O199 O 0.24706 0.82293 -0.21932
 O200 O 0.17904 0.75422 -0.21564
 O201 O 0.24957 0.68286 -0.20999
 O202 O 0.31802 0.75449 -0.21425
 C203 C 0.16022 0.82363 -0.34880
 C204 C 0.33326 0.82210 -0.35060
 C205 C 0.16911 0.65294 -0.33967
 O206 O 0.09997 0.68775 -0.24662
 O207 O 0.15775 0.65477 -0.19087
 O208 O 0.19187 0.71200 -0.14429
 C209 C 0.16177 0.67252 -0.15439
 O210 O 0.35445 0.64755 -0.29698
 Zr211 Zr 0.31774 0.68319 -0.24583
 O212 O 0.29644 0.70884 -0.14337
 O213 O 0.19047 0.59873 -0.24522
 O214 O 0.30654 0.59976 -0.24179
 O215 O 0.40032 0.69693 -0.24354
 O216 O 0.34287 0.65869 -0.18858
 C217 C 0.33066 0.67308 -0.15252
 O218 O 0.20710 0.80092 -0.13531
 O219 O 0.31016 0.89996 -0.26711
 O220 O 0.29306 0.81528 -0.15002
 O221 O 0.33761 0.85718 -0.20143
 O222 O 0.18718 0.90161 -0.26245
 O223 O 0.15224 0.85757 -0.20298
 C224 C 0.32529 0.85089 -0.16357
 H225 H 0.24754 0.84904 -0.30920
 H226 H 0.14657 0.75637 -0.19903
 H227 H 0.34989 0.75749 -0.19707
 H228 H 0.25380 0.64474 -0.29832
 H229 H 0.07981 0.83866 -0.26316
 H230 H 0.08648 0.65080 -0.24574
 H231 H 0.15422 0.58399 -0.24380
 H232 H 0.34051 0.58366 -0.23342
 H233 H 0.15154 0.91602 -0.26812
 H234 H 0.34673 0.91284 -0.27102
 H235 H 0.41189 0.85131 -0.25385
 H236 H 0.41729 0.66378 -0.23389
 H237 H 0.11981 0.87773 -0.20954
 H238 H 0.22019 0.78939 -0.10831
 H239 H 0.28011 0.71293 -0.39208
 H240 H 0.38045 0.62080 -0.28776
 Zr241 Zr 1.24420 1.24759 0.82120
 O242 O 1.20176 1.20238 0.86464
 O243 O 1.29209 1.29540 0.85818
 O244 O 1.29135 1.19363 0.85487
 O245 O 1.14306 1.33700 0.80380
 O246 O 1.34248 1.15510 0.80601
 O247 O 1.18646 1.29174 0.85369
 O248 O 1.34191 1.34265 0.81310
 O249 O 1.31630 1.25115 0.78974
 O250 O 1.24502 1.31954 0.78906
 O251 O 1.24592 1.18030 0.78342
 O252 O 1.17688 1.24642 0.78358
 Zr253 Zr 1.25307 1.25544 0.67854
 Zr254 Zr 1.31619 1.18631 0.75022
 Zr255 Zr 1.18116 1.31673 0.74951
 Zr256 Zr 1.31492 1.32144 0.75590
 O257 O 1.09849 1.30883 0.74256
 O258 O 1.39800 1.31111 0.75714
 O259 O 1.25108 1.32354 0.71580
 O260 O 1.31957 1.25695 0.71668
 O261 O 1.25219 1.18306 0.71039
 O262 O 1.18140 1.25203 0.71029
 C263 C 1.32840 1.32916 0.84907
 C264 C 1.15041 1.32401 0.84107
 C265 C 1.32779 1.16139 0.84312
 O266 O 1.39919 1.19477 0.75297
 O267 O 1.34895 1.16079 0.69476
 O268 O 1.30863 1.20974 0.64535
 C269 C 1.34224 1.17472 0.65748
 O270 O 1.14304 1.14937 0.79529
 Zr271 Zr 1.18207 1.18192 0.74385
 O272 O 1.20758 1.20518 0.64161
 O273 O 1.31126 1.10245 0.74795
 O274 O 1.19574 1.09875 0.74312
 O275 O 1.09930 1.19088 0.73707
 O276 O 1.16249 1.15343 0.68675
 C277 C 1.17535 1.16746 0.65076
 O278 O 1.29675 1.29937 0.63505
 O279 O 1.18550 1.40030 0.75596
 O280 O 1.20764 1.31175 0.64553
 O281 O 1.16028 1.35381 0.69487
 O282 O 1.30260 1.40440 0.76221
 O283 O 1.34596 1.36175 0.70445
 C284 C 1.17412 1.34685 0.65777
 H285 H 1.24224 1.35085 0.80706
 H286 H 1.35272 1.25990 0.70094
 H287 H 1.15038 1.25345 0.69211
 H288 H 1.24422 1.14694 0.79930
 H289 H 1.41401 1.34530 0.76558
 H290 H 1.41413 1.15840 0.75273
 H291 H 1.34797 1.08894 0.74846
 H292 H 1.16253 1.08117 0.73462
 H293 H 1.33662 1.42054 0.77048
 H294 H 1.14877 1.41377 0.75543
 H295 H 1.08362 1.34524 0.74270
 H296 H 1.08472 1.15591 0.72898
 H297 H 1.37421 1.38644 0.71310
 H298 H 1.28501 1.28787 0.60772
 H299 H 1.21252 1.21482 0.89197
 H300 H 1.11965 1.11997 0.78666
 Zr301 Zr 0.75734 0.75358 0.82185
 O302 O 0.79987 0.79911 0.86488
 O303 O 0.70999 0.70566 0.85936
 O304 O 0.71033 0.80793 0.85542
 O305 O 0.85895 0.66493 0.80465
 O306 O 0.65897 0.84600 0.80656
 O307 O 0.81547 0.71050 0.85434
 O308 O 0.66016 0.65818 0.81466
 O309 O 0.68506 0.74959 0.79092
 O310 O 0.75662 0.68141 0.79003
 O311 O 0.75545 0.82065 0.78383
 O312 O 0.82441 0.75438 0.78377
 Zr313 Zr 0.74716 0.74502 0.67942
 Zr314 Zr 0.68495 0.81430 0.75121
 Zr315 Zr 0.82019 0.68389 0.75001
 Zr316 Zr 0.68646 0.67920 0.75732
 O317 O 0.90275 0.69155 0.74210
 O318 O 0.60332 0.68894 0.75908
 O319 O 0.74990 0.67696 0.71685
 O320 O 0.68111 0.74363 0.71797
 O321 O 0.74849 0.81742 0.71095
 O322 O 0.81928 0.74851 0.71055
 C323 C 0.67383 0.67172 0.85050
 C324 C 0.85183 0.67862 0.84189
 C325 C 0.67386 0.84012 0.84355
 O326 O 0.60201 0.80552 0.75449
 O327 O 0.65191 0.84037 0.69634
 O328 O 0.69139 0.79120 0.64676
 C329 C 0.65825 0.82651 0.65916
 O330 O 0.85878 0.85098 0.79485
 Zr331 Zr 0.81892 0.81868 0.74385
 O332 O 0.79194 0.79502 0.64181
 O333 O 0.68994 0.89818 0.74858
 O334 O 0.80578 0.90194 0.74315
 O335 O 0.90155 0.80972 0.73603
 O336 O 0.83697 0.84720 0.68647
 C337 C 0.82384 0.83300 0.65065
 O338 O 0.70264 0.70092 0.63673
 O339 O 0.81633 0.60040 0.75729
 O340 O 0.79191 0.68898 0.64586
 O341 O 0.83998 0.64675 0.69480
 O342 O 0.69909 0.59631 0.76397
 O343 O 0.65511 0.63881 0.70617
 C344 C 0.82550 0.65376 0.65771
 H345 H 0.75967 0.65023 0.80822
 H346 H 0.64779 0.74069 0.70250
 H347 H 0.85004 0.74710 0.69205
 H348 H 0.75733 0.85409 0.79952
 H349 H 0.58762 0.65464 0.76771
 H350 H 0.58688 0.84182 0.75416
 H351 H 0.65328 0.91183 0.74938
 H352 H 0.83897 0.91932 0.73428
 H353 H 0.66517 0.58008 0.77247
 H354 H 0.85313 0.58718 0.75639
 H355 H 0.91749 0.65510 0.74247
 H356 H 0.91590 0.84465 0.72748
 H357 H 0.62727 0.61374 0.71510
 H358 H 0.71350 0.71266 0.60919
 H359 H 0.78905 0.78706 0.89235
 H360 H 0.88241 0.88010 0.78592
 Zr361 Zr 1.24567 0.75440 0.17911
 O362 O 1.20196 0.80071 0.13721
 O363 O 1.29325 0.70760 0.14110
 O364 O 1.29187 0.80929 0.14560
 O365 O 1.14619 0.66287 0.19489
 O366 O 1.34190 0.84874 0.19466
 O367 O 1.18901 0.71035 0.14580
 O368 O 1.34338 0.65969 0.18540
 O369 O 1.31803 0.75130 0.21012
 O370 O 1.24755 0.68168 0.21020
 O371 O 1.24656 0.82076 0.21785
 O372 O 1.17846 0.75351 0.21696
 Zr373 Zr 1.25518 0.74309 0.32162
 Zr374 Zr 1.31714 0.81525 0.25054
 Zr375 Zr 1.18375 0.68229 0.24982
 Zr376 Zr 1.31759 0.68019 0.24304
 O377 O 1.10096 0.68861 0.25688
 O378 O 1.40043 0.69227 0.24078
 O379 O 1.25390 0.67593 0.28329
 O380 O 1.32146 0.74379 0.28307
 O381 O 1.25325 0.81640 0.29093
 O382 O 1.18343 0.74593 0.28998
 C383 C 1.32920 0.67332 0.14964
 C384 C 1.15347 0.67711 0.15779
 C385 C 1.32731 0.84255 0.15742
 O386 O 1.40018 0.80838 0.24674
 O387 O 1.35057 0.83906 0.30633
 O388 O 1.31065 0.78869 0.35528
 C389 C 1.34433 0.82404 0.34349
 O390 O 1.14399 0.85189 0.20724
 Zr391 Zr 1.18297 0.81704 0.25773
 O392 O 1.20808 0.79040 0.35970
 O393 O 1.31117 0.89890 0.25457
 O394 O 1.19636 0.90014 0.26125
 O395 O 1.10015 0.80662 0.26315
 O396 O 1.16102 0.84154 0.31550
 C397 C 1.17377 0.82642 0.35126
 O398 O 1.29985 0.69868 0.36409
 O399 O 1.18923 0.59896 0.24232
 O400 O 1.21062 0.68511 0.35390
 O401 O 1.16335 0.64372 0.30416
 O402 O 1.30653 0.59707 0.23645
 O403 O 1.35020 0.63966 0.29374
 C404 C 1.17725 0.64999 0.34135
 H405 H 1.24502 0.65067 0.19189
 H406 H 1.35478 0.74086 0.29854
 H407 H 1.15231 0.74326 0.30803
 H408 H 1.24427 0.85448 0.20247
 H409 H 1.41684 0.65863 0.23161
 H410 H 1.41453 0.84502 0.24729
 H411 H 1.34771 0.91295 0.25388
 H412 H 1.16315 0.91697 0.27055
 H413 H 1.34069 0.58159 0.22782
 H414 H 1.15266 0.58497 0.24250
 H415 H 1.08665 0.65197 0.25610
 H416 H 1.08485 0.84096 0.27193
 H417 H 1.37918 0.61619 0.28458
 H418 H 1.28803 0.70908 0.39167
 H419 H 1.21225 0.78954 0.10945
 H420 H 1.12133 0.88146 0.21661
 Zr421 Zr 0.75535 1.24668 0.17885
 O422 O 0.79802 1.20251 0.13511
 O423 O 0.70636 1.29372 0.14202
 O424 O 0.70873 1.19115 0.14592
 O425 O 0.85381 1.33965 0.19526
 O426 O 0.65999 1.15078 0.19551
 O427 O 0.81209 1.29202 0.14585
 O428 O 0.65576 1.33967 0.18719
 O429 O 0.68357 1.24775 0.21084
 O430 O 0.75270 1.31863 0.21082
 O431 O 0.75634 1.17949 0.21696
 O432 O 0.82307 1.24810 0.21611
 Zr433 Zr 0.74805 1.25433 0.32169
 Zr434 Zr 0.68639 1.18306 0.25075
 Zr435 Zr 0.81698 1.31833 0.25003
 Zr436 Zr 0.68310 1.31815 0.24437
 O437 O 0.89995 1.31367 0.25647
 O438 O 0.60051 1.30435 0.24288
 O439 O 0.74723 1.32247 0.28416
 O440 O 0.68114 1.25363 0.28396
 O441 O 0.75100 1.18192 0.29017
 O442 O 0.81934 1.25367 0.28932
 C443 C 0.66974 1.32702 0.15117
 C444 C 0.84702 1.32583 0.15809
 C445 C 0.67350 1.15766 0.15820
 O446 O 0.60311 1.18851 0.24869
 O447 O 0.65481 1.15653 0.30645
 O448 O 0.69397 1.20702 0.35538
 C449 C 0.66121 1.17097 0.34360
 O450 O 0.85925 1.15131 0.20438
 Zr451 Zr 0.82065 1.18347 0.25603
 O452 O 0.79669 1.20630 0.35824
 O453 O 0.69430 1.09944 0.25325
 O454 O 0.80925 1.09997 0.25828
 O455 O 0.90328 1.19566 0.26079
 O456 O 0.84408 1.15716 0.31297
 C457 C 0.83131 1.17088 0.34899
 O458 O 0.70358 1.29644 0.36561
 O459 O 0.80974 1.40166 0.24329
 O460 O 0.79152 1.31230 0.35434
 O461 O 0.83695 1.35623 0.30471
 O462 O 0.69288 1.40157 0.23862
 O463 O 0.65037 1.35695 0.29575
 C464 C 0.82362 1.34870 0.34195
 H465 H 0.75448 1.35006 0.19278
 H466 H 0.64806 1.25547 0.29987
 H467 H 0.85063 1.25648 0.30714
 H468 H 0.75881 1.14616 0.20118
 H469 H 0.58322 1.33785 0.23432
 H470 H 0.58934 1.15164 0.24917
 H471 H 0.65808 1.08454 0.25324
 H472 H 0.84313 1.08356 0.26651
 H473 H 0.65842 1.41675 0.23042
 H474 H 0.84600 1.41644 0.24356
 H475 H 0.91344 1.35065 0.25623
 H476 H 0.91953 1.16134 0.26863
 H477 H 0.62099 1.38022 0.28705
 H478 H 0.71605 1.28526 0.39286
 H479 H 0.78641 1.21465 0.10788
 H480 H 0.88309 1.12224 0.21294
 O481 O 0.56997 1.09280 0.07452
 O482 O 0.63199 1.04667 0.03793
 C483 C 0.61829 1.08036 0.06633
 O484 O 0.42813 0.90070 0.06939
 O485 O 0.36656 0.95070 0.03526
 C486 C 0.38005 0.91460 0.06212
 O487 O 0.57040 0.90554 0.07289
 O488 O 0.63233 0.95264 0.03670
 C489 C 0.61867 0.91861 0.06479
 O490 O 0.42710 1.09622 0.07070
 O491 O 0.36586 1.04761 0.03505
 C492 C 0.37899 1.08294 0.06234
 Zr493 Zr 0.49894 1.06520 0.05051
 O494 O 0.49794 1.05534 0.11418
 O495 O 0.49660 1.14919 0.05481
 Zr496 Zr 0.49899 0.93352 0.04956
 O497 O 0.49782 0.94314 0.11324
 O498 O 0.49913 0.84968 0.05464
 O499 O 0.54702 0.99923 0.05830
 O500 O 0.45169 0.99921 0.05715
 O501 O 0.42963 1.09868 -0.07124
 O502 O 0.36719 1.04895 -0.03763
 C503 C 0.38125 1.08533 -0.06401
 O504 O 0.57120 0.90689 -0.07415
 O505 O 0.63281 0.95312 -0.03738
 C506 C 0.61939 0.91923 -0.06564
 O507 O 0.42896 0.90631 -0.07573
 O508 O 0.36710 0.95281 -0.03917
 C509 C 0.38073 0.91916 -0.06766
 O510 O 0.57251 1.09271 -0.07439
 O511 O 0.63342 1.04667 -0.03667
 C512 C 0.62055 1.07994 -0.06546
 Zr513 Zr 0.50056 1.06727 -0.05009
 O514 O 0.49574 1.07090 -0.11410
 O515 O 0.50589 1.15115 -0.04638
 Zr516 Zr 0.49975 0.93443 -0.05127
 O517 O 0.49657 0.93466 -0.11545
 O518 O 0.50258 0.85031 -0.04930
 Zr519 Zr 0.58090 0.99989 -0.00016
 Zr520 Zr 0.41807 0.99999 -0.00113
 O521 O 0.45400 1.00124 -0.05870
 O522 O 0.54790 1.00076 -0.05884
 O523 O 0.45165 1.07681 -0.00010
 O524 O 0.54622 0.92386 -0.00071
 O525 O 0.54691 1.07608 0.00050
 O526 O 0.45119 0.92308 -0.00124
 H527 H 0.42842 0.99888 0.08130
 H528 H 0.56954 0.89230 -0.00073
 H529 H 0.43211 1.00224 -0.08354
 H530 H 0.57091 1.10716 0.00044
 H531 H 0.51079 0.83520 0.02834
 H532 H 0.47048 0.83759 -0.03513
 H533 H 0.52624 0.95647 -0.12567
 H534 H 0.52109 1.04488 -0.12519
 H535 H 0.47685 1.16365 -0.02872
 H536 H 0.52182 1.16416 0.03498
 H537 H 0.49576 1.09148 0.12596
 H538 H 0.49695 0.90690 0.12504
 O539 O 1.06971 0.59196 0.57484
 O540 O 1.13154 0.54538 0.53836
 C541 C 1.11779 0.57869 0.56700
 O542 O 0.92738 0.40135 0.56968
 O543 O 0.86595 0.45205 0.53603
 C544 C 0.87932 0.41552 0.56246
 O545 O 1.07024 0.40582 0.57319
 O546 O 1.13207 0.45214 0.53630
 C547 C 1.11852 0.41841 0.56459
 O548 O 0.92775 0.59756 0.57061
 O549 O 0.86606 0.54873 0.53572
 C550 C 0.87955 0.58430 0.56270
 Zr551 Zr 0.99909 0.56580 0.55012
 O552 O 0.99698 0.55895 0.61404
 O553 O 1.00349 0.64981 0.55069
 Zr554 Zr 0.99859 0.43397 0.55031
 O555 O 0.99779 0.44458 0.61388
 O556 O 0.99815 0.35021 0.55634
 O557 O 1.04678 0.49956 0.55833
 O558 O 0.95172 0.50004 0.55768
 O559 O 0.92932 0.59880 0.42913
 O560 O 0.86691 0.54933 0.46294
 C561 C 0.88097 0.58555 0.43643
 O562 O 1.06944 0.40657 0.42527
 O563 O 1.13151 0.45199 0.46227
 C564 C 1.11778 0.41851 0.43377
 O565 O 0.92671 0.40443 0.42788
 O566 O 0.86552 0.45310 0.46344
 C567 C 0.87864 0.41779 0.43623
 O568 O 1.07231 0.59248 0.42597
 O569 O 1.13308 0.54569 0.46332
 C570 C 1.12031 0.57932 0.43477
 Zr571 Zr 1.00006 0.56614 0.44934
 O572 O 0.99926 0.55886 0.38550
 O573 O 0.99874 0.65030 0.44626
 Zr574 Zr 0.99854 0.43374 0.44949
 O575 O 0.99462 0.43363 0.38538
 O576 O 1.00201 0.34965 0.45149
 Zr577 Zr 1.08036 0.49933 0.49984
 Zr578 Zr 0.91772 0.50043 0.49960
 O579 O 0.95262 0.50046 0.44169
 O580 O 1.04715 0.49961 0.44128
 O581 O 0.95169 0.57697 0.49959
 O582 O 1.04538 0.42348 0.49985
 O583 O 1.04674 0.57562 0.49995
 O584 O 0.95052 0.42335 0.49985
 H585 H 0.92852 0.50001 0.58187
 H586 H 1.06866 0.39189 0.49964
 H587 H 0.92998 0.50087 0.41723
 H588 H 1.07088 0.60657 0.50047
 H589 H 1.01247 0.33517 0.53100
 H590 H 0.97178 0.33692 0.46790
 H591 H 1.01956 0.46092 0.37531
 H592 H 0.99909 0.59550 0.37442
 H593 H 1.02554 0.66452 0.46509
 H594 H 0.98022 0.66300 0.52881
 H595 H 0.99594 0.59562 0.62496
 H596 H 0.99640 0.40850 0.62593
 O597 O 0.90737 0.43271 -0.07473
 O598 O 0.95305 0.36980 -0.03845
 C599 C 0.91928 0.38392 -0.06662
 O600 O 1.09897 0.57333 -0.07272
 O601 O 1.05368 0.63592 -0.03595
 C602 C 1.08834 0.62217 -0.06371
 O603 O 1.09272 0.42942 -0.07483
 O604 O 1.04662 0.36792 -0.03721
 C605 C 1.07987 0.38099 -0.06586
 O606 O 0.90601 0.57624 -0.07122
 O607 O 0.95582 0.63758 -0.03651
 C608 C 0.92011 0.62452 -0.06334
 Zr609 Zr 0.93648 0.50381 -0.05117
 O610 O 0.94693 0.50429 -0.11478
 O611 O 0.85317 0.50656 -0.05600
 Zr612 Zr 1.06727 0.50203 -0.05105
 O613 O 1.06036 0.50336 -0.11495
 O614 O 1.15069 0.49752 -0.05181
 O615 O 1.00122 0.45449 -0.05915
 O616 O 1.00252 0.55054 -0.05842
 O617 O 0.90563 0.57419 0.07159
 O618 O 0.95448 0.63636 0.03677
 C619 C 0.91887 0.62272 0.06387
 O620 O 1.09427 0.43012 0.07319
 O621 O 1.04698 0.36841 0.03702
 C622 C 1.08106 0.38171 0.06513
 O623 O 1.09852 0.57395 0.07058
 O624 O 1.05023 0.63652 0.03593
 C625 C 1.08549 0.62260 0.06279
 O626 O 0.90903 0.43097 0.07404
 O627 O 0.95355 0.36875 0.03637
 C628 C 0.92069 0.38232 0.06516
 Zr629 Zr 0.93570 0.50286 0.04963
 O630 O 0.93518 0.50673 0.11375
 O631 O 0.85223 0.49914 0.04714
 Zr632 Zr 1.06713 0.50203 0.04990
 O633 O 1.05943 0.50229 0.11374
 O634 O 1.15066 0.50382 0.05313
 Zr635 Zr 1.00068 0.42071 -0.00060
 Zr636 Zr 1.00270 0.58475 -0.00032
 O637 O 1.00192 0.54943 0.05752
 O638 O 1.00100 0.45421 0.05792
 O639 O 0.92603 0.55186 -0.00062
 O640 O 1.07655 0.45467 -0.00061
 O641 O 0.92557 0.45611 -0.00082
 O642 O 1.07849 0.55013 -0.00053
 H643 H 1.00299 0.57397 -0.08258
 H644 H 1.10738 0.43054 -0.00093
 H645 H 1.00208 0.57211 0.08204
 H646 H 0.89426 0.43252 -0.00059
 H647 H 1.16394 0.52242 -0.03097
 H648 H 1.16492 0.47912 0.03263
 H649 H 1.09570 0.50381 0.12492
 H650 H 0.96233 0.48180 0.12387
 H651 H 0.83995 0.52841 0.02943
 H652 H 0.83808 0.48502 -0.03377
 H653 H 0.91120 0.50720 -0.12677
 H654 H 1.09678 0.50274 -0.12596
 O655 O 0.40264 1.06954 0.42950
 O656 O 0.45111 1.13235 0.46372
 C657 C 0.41583 1.11829 0.43683
 O658 O 0.40761 0.92898 0.57905
 O659 O 0.46038 0.86772 0.54712
 C660 C 0.42567 0.88132 0.57482
 O661 O 0.40293 1.07145 0.57254
 O662 O 0.45095 1.13331 0.53671
 C663 C 0.41575 1.11991 0.56408
 O664 O 0.40649 0.92586 0.42868
 O665 O 0.45235 0.86446 0.46636
 C666 C 0.41914 0.87754 0.43741
 Zr667 Zr 0.43301 0.99787 0.45189
 O668 O 0.34937 1.00069 0.45209
 O669 O 0.43791 0.99714 0.38787
 Zr670 Zr 0.43362 0.99961 0.55206
 O671 O 0.35027 0.99397 0.54888
 O672 O 0.43281 1.00541 0.61606
 O673 O 0.42277 1.04741 0.50140
 O674 O 0.42405 0.95046 0.50287
 O675 O 0.58949 0.92572 0.42669
 O676 O 0.54475 0.86420 0.46528
 C677 C 0.57722 0.87727 0.43597
 O678 O 0.59610 1.07347 0.57123
 O679 O 0.54672 1.13439 0.53578
 C680 C 0.58233 1.12167 0.56282
 O681 O 0.59339 0.92928 0.57545
 O682 O 0.54772 0.86590 0.53967
 C683 C 0.58141 0.88041 0.56757
 O684 O 0.59565 1.06906 0.42873
 O685 O 0.54733 1.13200 0.46283
 C686 C 0.58293 1.11779 0.43602
 Zr687 Zr 0.56479 0.99816 0.45107
 O688 O 0.64823 0.99341 0.45286
 O689 O 0.56471 1.00135 0.38693
 Zr690 Zr 0.56580 1.00092 0.55146
 O691 O 0.64939 1.00474 0.55273
 O692 O 0.56026 1.00268 0.61541
 Zr693 Zr 0.49908 1.08112 0.50047
 Zr694 Zr 0.50003 0.91724 0.50303
 O695 O 0.57544 0.95212 0.50181
 O696 O 0.57554 1.04811 0.50042
 O697 O 0.49892 0.94986 0.44414
 O698 O 0.49951 1.04725 0.55883
 O699 O 0.49872 1.04479 0.44311
 O700 O 0.50038 0.95293 0.56072
 H701 H 0.39393 0.92541 0.50425
 H702 H 0.49957 1.07057 0.58298
 H703 H 0.60636 0.92811 0.50127
 H704 H 0.49868 1.06708 0.41833
 H705 H 0.46287 0.98432 0.62639
 H706 H 0.59691 1.00395 0.62586
 H707 H 0.66373 0.97515 0.53644
 H708 H 0.66101 1.02139 0.47148
 H709 H 0.53546 0.97854 0.37736
 H710 H 0.40122 0.99844 0.37749
 H711 H 0.33572 0.96959 0.46718
 H712 H 0.33747 1.02307 0.53123
 O713 O 1.09083 0.90216 0.55840
 O714 O 1.04319 0.95327 0.60284
 C715 C 1.07725 0.91635 0.59467
 O716 O 1.09537 1.09262 0.44494
 O717 O 1.04732 1.04336 0.39956
 C718 C 1.08186 1.07946 0.40857
 O719 O 1.10013 1.08745 0.55615
 O720 O 1.04800 1.04245 0.60168
 C721 C 1.08582 1.07516 0.59256
 O722 O 1.08969 0.89780 0.44665
 O723 O 1.04573 0.94985 0.40051
 C724 C 1.07840 0.91223 0.41006
 Zr725 Zr 1.06512 0.93014 0.50182
 O726 O 1.14832 0.93602 0.50197
 O727 O 1.06941 0.84613 0.50182
 Zr728 Zr 1.06919 1.06315 0.50064
 O729 O 1.15256 1.05990 0.49677
 O730 O 1.07217 1.14706 0.50494
 O731 O 1.07705 0.99660 0.53768
 O732 O 1.07738 0.99590 0.46571
 O733 O 0.90678 0.90397 0.44523
 O734 O 0.95506 0.95304 0.39972
 C735 C 0.92025 0.91713 0.40882
 O736 O 0.90695 1.09498 0.55483
 O737 O 0.95502 1.04688 0.60096
 C738 C 0.91971 1.08197 0.59140
 O739 O 0.91261 1.09731 0.44369
 O740 O 0.95905 1.04573 0.39878
 C741 C 0.92541 1.08292 0.40745
 O742 O 0.90004 0.91141 0.55603
 O743 O 0.95076 0.95750 0.60159
 C744 C 0.91322 0.92471 0.59239
 Zr745 Zr 0.93248 0.93424 0.50064
 O746 O 0.84922 0.93583 0.49524
 O747 O 0.93091 0.85031 0.50545
 Zr748 Zr 0.93703 1.06782 0.49974
 O749 O 0.85380 1.07170 0.49477
 O750 O 0.94165 1.15175 0.50357
 Zr751 Zr 0.99986 0.99941 0.56131
 Zr752 Zr 1.00149 0.99798 0.44004
 O753 O 0.92517 1.00092 0.46495
 O754 O 0.92350 1.00180 0.53623
 O755 O 0.99894 0.92101 0.46513
 O756 O 1.00305 1.07579 0.53553
 O757 O 0.99771 0.92254 0.53661
 O758 O 1.00385 1.07563 0.46382
 H759 H 1.10874 0.99501 0.44774
 H760 H 1.00414 1.10733 0.55346
 H761 H 0.89401 1.00162 0.44683
 H762 H 0.99562 0.89160 0.55514
 H763 H 1.05030 1.16180 0.48283
 H764 H 0.96079 1.16481 0.47938
 H765 H 0.83860 1.04981 0.51681
 H766 H 0.83549 0.96024 0.51619
 H767 H 0.95430 0.83597 0.48406
 H768 H 1.03697 0.83247 0.51481
 H769 H 1.16176 0.89906 0.50193
 H770 H 1.16489 1.03413 0.51737
 O771 O 0.40389 0.59300 0.05451
 O772 O 0.45431 0.54684 0.10038
 C773 C 0.41774 0.58071 0.09100
 O774 O 0.40726 0.40505 -0.05610
 O775 O 0.45510 0.45477 -0.10150
 C776 C 0.42065 0.41849 -0.09247
 O777 O 0.40104 0.41041 0.05487
 O778 O 0.45108 0.45701 0.10060
 C779 C 0.41410 0.42354 0.09132
 O780 O 0.40965 0.59779 -0.05662
 O781 O 0.45655 0.54697 -0.10174
 C782 C 0.42266 0.58382 -0.09298
 Zr783 Zr 0.43577 0.56866 -0.00072
 O784 O 0.35291 0.57887 -0.00153
 O785 O 0.44766 0.65180 0.00009
 Zr786 Zr 0.43275 0.43486 -0.00050
 O787 O 0.34938 0.43644 -0.00494
 O788 O 0.43155 0.35091 0.00431
 O789 O 0.42320 0.50195 0.03537
 O790 O 0.42447 0.50184 -0.03584
 O791 O 0.59400 0.59564 -0.05519
 O792 O 0.54739 0.54558 -0.10096
 C793 C 0.58152 0.58197 -0.09162
 O794 O 0.59351 0.40576 0.05598
 O795 O 0.54359 0.45332 0.10121
 C796 C 0.57961 0.41865 0.09233
 O797 O 0.59107 0.40239 -0.05538
 O798 O 0.54515 0.45326 -0.10110
 C799 C 0.57880 0.41644 -0.09184
 O800 O 0.59924 0.58906 0.05553
 O801 O 0.54784 0.54309 0.10096
 C802 C 0.58546 0.57610 0.09192
 Zr803 Zr 0.56708 0.56610 0.00006
 O804 O 0.65036 0.57016 -0.00348
 O805 O 0.56057 0.64982 0.00194
 Zr806 Zr 0.56496 0.43232 0.00014
 O807 O 0.64841 0.43066 -0.00372
 O808 O 0.56247 0.34836 0.00452
 Zr809 Zr 0.49959 0.50022 0.06051
 Zr810 Zr 0.50068 0.50022 -0.06098
 O811 O 0.57642 0.49909 -0.03500
 O812 O 0.57648 0.49888 0.03623
 O813 O 0.50196 0.57770 -0.03698
 O814 O 0.49823 0.42361 0.03521
 O815 O 0.50132 0.57708 0.03562
 O816 O 0.49900 0.42285 -0.03654
 H817 H 0.39336 0.50208 -0.05399
 H818 H 0.49709 0.39213 0.05328
 H819 H 0.60816 0.49871 -0.05257
 H820 H 0.50208 0.60813 0.05406
 H821 H 0.45278 0.33643 -0.01828
 H822 H 0.54253 0.33480 -0.01905
 H823 H 0.66263 0.45067 0.01964
 H824 H 0.66430 0.53962 0.01200
 H825 H 0.59715 0.66374 0.00282
 H826 H 0.41204 0.66794 0.00117
 H827 H 0.33727 0.54494 -0.01055
 H828 H 0.33613 0.46083 0.01625
 C829 C 0.35183 1.11871 0.12732
 C830 C 0.33873 1.10908 0.08836
 H831 H 0.38812 1.10146 0.13880
 H832 H 0.30120 1.12166 0.07600
 C833 C 0.85348 0.62051 0.62776
 C834 C 0.83972 0.61061 0.58897
 H835 H 0.89000 0.60344 0.63895
 H836 H 0.80193 0.62298 0.57695
 C837 C 0.64457 0.88002 0.12903
 C838 C 0.65868 0.89225 0.09076
 H839 H 0.60737 0.89535 0.14040
 H840 H 0.69707 0.88166 0.07884
 C841 C 1.14514 0.37998 0.62855
 C842 C 1.15875 0.39182 0.59015
 H843 H 1.10825 0.39569 0.64020
 H844 H 1.19686 0.38089 0.57789
 C845 C 0.64847 1.11640 -0.13002
 C846 C 0.66126 1.10588 -0.09121
 H847 H 0.61224 1.09941 -0.14184
 H848 H 0.69867 1.11832 -0.07855
 C849 C 1.14842 0.61607 0.37039
 C850 C 1.16114 0.60522 0.40915
 H851 H 1.11198 0.59957 0.35853
 H852 H 1.19871 0.61715 0.42182
 C853 C 0.35395 0.88508 -0.13415
 C854 C 0.34084 0.89413 -0.09490
 H855 H 0.39028 0.90235 -0.14558
 H856 H 0.30328 0.88103 -0.08282
 C857 C 0.85135 0.38278 0.37136
 C858 C 0.83840 0.39173 0.41037
 H859 H 0.88717 0.40092 0.35967
 H860 H 0.80131 0.37813 0.42298
 C861 C 1.12582 0.35684 0.12775
 C862 C 1.10793 0.34125 0.09101
 H863 H 1.11514 0.39610 0.13848
 H864 H 1.11369 0.30101 0.08036
 C865 C 0.62618 0.85665 0.63000
 C866 C 0.60905 0.84073 0.59329
 H867 H 0.61466 0.89563 0.64083
 H868 H 0.61574 0.80063 0.58263
 C869 C 1.13216 0.64584 -0.12692
 C870 C 1.11569 0.66061 -0.08735
 H871 H 1.11507 0.60916 -0.13834
 H872 H 1.11898 0.70144 -0.07736
 C873 C 0.62974 1.14073 0.37357
 C874 C 0.61092 1.15735 0.40986
 H875 H 0.61973 1.10100 0.36347
 H876 H 0.61594 1.19807 0.41966
 C877 C 0.87584 0.64691 0.12760
 C878 C 0.89166 0.66262 0.09014
 H879 H 0.88852 0.60823 0.13834
 H880 H 0.88402 0.70247 0.07925
 C881 C 0.37451 1.14517 0.62782
 C882 C 0.38880 1.16012 0.58994
 H883 H 0.38813 1.10703 0.63901
 H884 H 0.38016 1.19949 0.57849
 C885 C 0.87121 0.35982 -0.12836
 C886 C 0.89128 0.34384 -0.09230
 H887 H 0.87997 0.39979 -0.13871
 H888 H 0.88726 0.30306 -0.08226
 C889 C 0.37727 0.85284 0.37341
 C890 C 0.39259 0.83726 0.41102
 H891 H 0.39051 0.89131 0.36255
 H892 H 0.38426 0.79765 0.42215
 C893 C 1.14359 1.14534 0.38272
 C894 C 1.10779 1.10727 0.37555
 H895 H 1.15402 1.15665 0.41337
 H896 H 1.09746 1.09581 0.34492
 C897 C 0.64598 0.64565 -0.11658
 C898 C 0.60869 0.60916 -0.12424
 H899 H 0.65664 0.65622 -0.08582
 H900 H 0.59818 0.59839 -0.15498
 C901 C 0.85661 1.14719 0.61639
 C902 C 0.89266 1.10944 0.62398
 H903 H 0.84644 1.15827 0.58562
 H904 H 0.90268 1.09820 0.65475
 C905 C 0.35574 0.64653 0.11641
 C906 C 0.39080 0.60781 0.12374
 H907 H 0.34598 0.65841 0.08573
 H908 H 0.40063 0.59597 0.15441
 C909 C 1.13516 0.84733 0.62073
 C910 C 1.10000 0.88961 0.62686
 H911 H 1.14389 0.83412 0.59015
 H912 H 1.08981 0.90238 0.65726
 C913 C 0.64231 0.35361 0.11816
 C914 C 0.60611 0.39130 0.12540
 H915 H 0.65277 0.34253 0.08746
 H916 H 0.59569 0.40250 0.15608
 C917 C 0.85515 0.85432 0.38317
 C918 C 0.89331 0.89013 0.37589
 H919 H 0.84389 0.84390 0.41387
 H920 H 0.90454 0.90065 0.34520
 C921 C 0.35640 0.35499 -0.11798
 C922 C 0.39405 0.39125 -0.12539
 H923 H 0.34531 0.34448 -0.08726
 H924 H 0.40504 0.40194 -0.15610
 C925 C 1.11664 0.35285 -0.13000
 C926 C 1.10580 0.34000 -0.09127
 H927 H 1.10004 0.38936 -0.14204
 H928 H 1.11778 0.30227 -0.07847
 C929 C 0.61410 0.84965 0.37127
 C930 C 0.60312 0.83643 0.41005
 H931 H 0.59719 0.88611 0.35943
 H932 H 0.61547 0.79873 0.42269
 C933 C 0.88642 0.65170 -0.12862
 C934 C 0.89452 0.66489 -0.08951
 H935 H 0.90524 0.61602 -0.14008
 H936 H 0.88002 0.70183 -0.07700
 C937 C 0.37892 1.14467 0.37171
 C938 C 0.38960 1.15836 0.41041
 H939 H 0.39478 1.10743 0.36053
 H940 H 0.37843 1.19684 0.42225
 C941 C 1.12025 0.64910 0.12797
 C942 C 1.11161 0.66258 0.08899
 H943 H 1.10242 0.61274 0.13929
 H944 H 1.12492 0.70022 0.07675
 C945 C 0.61795 1.14914 0.62754
 C946 C 0.60833 1.16238 0.58857
 H947 H 0.60033 1.11284 0.63918
 H948 H 0.62134 1.19992 0.57596
 C949 C 0.88007 0.35548 0.12882
 C950 C 0.89372 0.34166 0.09074
 H951 H 0.89452 0.39310 0.14043
 H952 H 0.88405 0.30289 0.07867
 C953 C 0.35486 0.84720 0.61726
 C954 C 0.40756 0.84445 0.60391
 H955 H 0.32753 0.86109 0.59421
 H956 H 0.43234 0.81162 0.61328
 C957 C 0.35800 1.13033 -0.12689
 C958 C 0.34187 1.11296 -0.09008
 H959 H 0.39720 1.11959 -0.13722
 H960 H 0.30164 1.11863 -0.07992
 C961 C 0.85773 0.62983 0.37327
 C962 C 0.84166 0.61312 0.41029
 H963 H 0.89675 0.61854 0.36288
 H964 H 0.80157 0.61938 0.42058
 C965 C 0.64279 1.12604 0.12879
 C966 C 0.65828 1.10771 0.09214
 H967 H 0.60363 1.11571 0.13953
 H968 H 0.69838 1.11318 0.08158
 C969 C 1.14115 0.61822 0.63160
 C970 C 1.15705 0.60450 0.59391
 H971 H 1.10353 0.60345 0.64261
 H972 H 1.19596 0.61471 0.58277
 C973 C 0.64341 0.87149 -0.12700
 C974 C 0.65943 0.89147 -0.09105
 H975 H 0.60388 0.88057 -0.13747
 H976 H 0.69982 0.88722 -0.08090
 C977 C 1.14200 0.37208 0.37166
 C978 C 1.15770 0.39089 0.40808
 H979 H 1.10277 0.38211 0.36102
 H980 H 1.19786 0.38567 0.41851
 C981 C 0.35614 0.87498 0.12713
 C982 C 0.34064 0.88818 0.08908
 H983 H 0.39418 0.88916 0.13760
 H984 H 0.30139 0.87891 0.07826
 C985 C 0.85510 0.37475 0.62655
 C986 C 0.83969 0.38880 0.58880
 H987 H 0.89328 0.38832 0.63723
 H988 H 0.80031 0.38030 0.57789
 C989 C 1.15022 1.13865 0.61788
 C990 C 1.11380 1.10115 0.62539
 H991 H 1.16066 1.14968 0.58713
 H992 H 1.10287 1.09053 0.65612
 C993 C 0.65046 0.63898 0.11751
 C994 C 0.61389 0.60152 0.12483
 H995 H 0.66076 0.65036 0.08681
 H996 H 0.60313 0.59053 0.15552
 C997 C 1.14577 0.85170 0.38460
 C998 C 1.10580 0.88531 0.37736
 H999 H 1.15791 0.84236 0.41528
 H1000 H 1.09376 0.89476 0.34667
 C1001 C 0.64446 0.35441 -0.11741
 C1002 C 0.60588 0.38957 -0.12469
 H1003 H 0.65605 0.34440 -0.08672
 H1004 H 0.59430 0.39963 -0.15537
 C1005 C 0.85929 1.14450 0.38181
 C1006 C 0.89845 1.10988 0.37439
 H1007 H 0.84752 1.15399 0.41254
 H1008 H 0.91016 1.10021 0.34368
 C1009 C 0.35832 0.64693 -0.11935
 C1010 C 0.39608 0.61077 -0.12629
 H1011 H 0.34724 0.65767 -0.08871
 H1012 H 0.40719 0.59997 -0.15691
 C1013 C 0.84846 0.86187 0.61765
 C1014 C 0.88445 0.89964 0.62512
 H1015 H 0.83847 0.85036 0.58696
 H1016 H 0.89485 0.91082 0.65580
 C1017 C 0.34981 0.35969 0.11673
 C1018 C 0.38578 0.39760 0.12412
 H1019 H 0.33976 0.34836 0.08602
 H1020 H 0.39613 0.40870 0.15483
   
