data_POSCAR
  _audit_creation_date              2014-09-24
  _audit_creation_method            'ToBaCCo'
  _symmetry_space_group_name_H-M    'P1'
  _symmetry_Int_Tables_number       1
  _symmetry_cell_setting            triclinic
  loop_
  _symmetry_equiv_pos_as_xyz
 x,y,z
_cell_length_a 42.3010
_cell_length_b 43.6951
_cell_length_c 44.5317
_cell_angle_alpha 89.964900
_cell_angle_beta 90.067400
_cell_angle_gamma 90.008100
loop_
  _atom_site_label
  _atom_site_type_symbol
  _atom_site_fract_x
  _atom_site_fract_y
  _atom_site_fract_z
C1 C 0.14211 0.15338 0.19501
 C2 C 0.17024 0.14066 0.18340
 C3 C 0.18556 0.15325 0.15808
 C4 C 0.17274 0.17995 0.14511
 C5 C 0.14432 0.19239 0.15566
 C6 C 0.12892 0.17884 0.18013
 H7 H 0.18022 0.12065 0.19409
 H8 H 0.18337 0.19002 0.12532
 H9 H 0.10762 0.18956 0.18852
 C10 C -0.17254 0.82900 0.21488
 C11 C -0.20166 0.84088 0.20460
 C12 C -0.21886 0.82613 0.18179
 C13 C -0.20752 0.79859 0.16977
 C14 C -0.17859 0.78639 0.17942
 C15 C -0.16124 0.80176 0.20168
 H16 H -0.21048 0.86241 0.21322
 H17 H -0.22050 0.78741 0.15187
 H18 H -0.13957 0.79136 0.20966
 C19 C -0.14823 0.16277 -0.20360
 C20 C -0.17635 0.14955 -0.19245
 C21 C -0.19198 0.16140 -0.16694
 C22 C -0.17952 0.18797 -0.15338
 C23 C -0.15128 0.20102 -0.16360
 C24 C -0.13564 0.18825 -0.18830
 H25 H -0.18595 0.12960 -0.20351
 H26 H -0.19019 0.19739 -0.13332
 H27 H -0.11444 0.19946 -0.19633
 C28 C 0.17794 0.82329 -0.21714
 C29 C 0.16473 0.79631 -0.20559
 C30 C 0.17336 0.78561 -0.17705
 C31 C 0.19578 0.80197 -0.16017
 C32 C 0.21025 0.82866 -0.17160
 C33 C 0.20098 0.83897 -0.20036
 H34 H 0.14659 0.78440 -0.21821
 H35 H 0.20297 0.79272 -0.13867
 H36 H 0.21050 0.86004 -0.20940
 C37 C 0.14798 1.16190 0.79890
 C38 C 0.17573 1.14943 0.81095
 C39 C 0.18952 1.16205 0.83678
 C40 C 0.17596 1.18812 0.84991
 C41 C 0.14790 1.20054 0.83825
 C42 C 0.13385 1.18714 0.81289
 H43 H 0.18619 1.12941 0.80059
 H44 H 0.18631 1.19780 0.87006
 H45 H 0.11218 1.19662 0.80379
 C46 C 0.84358 0.84211 0.79870
 C47 C 0.81317 0.85128 0.80781
 C48 C 0.79769 0.83654 0.83150
 C49 C 0.81207 0.81171 0.84592
 C50 C 0.84284 0.80232 0.83798
 C51 C 0.85828 0.81794 0.81443
 H52 H 0.80185 0.87094 0.79758
 H53 H 0.80004 0.80144 0.86488
 H54 H 0.88081 0.80946 0.80657
 C55 C 0.16245 0.83733 1.20540
 C56 C 0.14729 0.81445 1.18828
 C57 C 0.16253 0.80054 1.16400
 C58 C 0.19269 0.81036 1.15564
 C59 C 0.20791 0.83379 1.17156
 C60 C 0.19334 0.84633 1.19711
 H61 H 0.12415 0.80607 1.19466
 H62 H 0.20402 0.80029 1.13618
 H63 H 0.20504 0.86488 1.20883
 C64 C 0.85360 1.15336 1.19788
 C65 C 0.82768 1.14093 1.18227
 C66 C 0.81303 1.15712 1.15901
 C67 C 0.82473 1.18575 1.15036
 C68 C 0.85194 1.19810 1.16414
 C69 C 0.86552 1.18193 1.18843
 H70 H 0.81743 1.11931 1.18913
 H71 H 0.81385 1.19701 1.13130
 H72 H 0.88581 1.19147 1.19986
 O73 O 0.45937 0.95392 0.94224
 O74 O 0.42262 0.98073 0.96961
 C75 C 0.43043 0.96094 0.94917
 O76 O 0.54385 0.95539 1.05388
 O77 O 0.57882 0.98463 1.02689
 C78 C 0.57235 0.96434 1.04727
 O79 O 0.45508 0.95105 1.04874
 O80 O 0.42113 0.97979 1.02013
 C81 C 0.42686 0.95868 1.03985
 O82 O 0.54817 0.95743 0.94408
 O83 O 0.58068 0.98552 0.97472
 C84 C 0.57599 0.96602 0.95326
 Zr85 Zr 0.50270 0.97058 0.95971
 O86 O 0.50676 0.92227 0.96042
 O87 O 0.50192 0.97037 0.91220
 Zr88 Zr 0.49965 0.96904 1.03547
 O89 O 0.50408 0.92080 1.03371
 O90 O 0.49473 0.96743 1.08273
 O91 O 0.47300 0.96317 0.99638
 O92 O 0.52879 0.96486 0.99853
 O93 O 0.54542 1.06475 0.94696
 O94 O 0.57972 1.03600 0.97533
 C95 C 0.57366 1.05675 0.95527
 O96 O 0.45269 1.06349 1.04879
 O97 O 0.41970 1.03272 1.02114
 C98 C 0.42482 1.05447 1.04033
 O99 O 0.54137 1.06228 1.05517
 O100 O 0.57737 1.03518 1.02745
 C101 C 0.57018 1.05484 1.04809
 O102 O 0.45686 1.06553 0.94626
 O103 O 0.42190 1.03397 0.97048
 C104 C 0.42841 1.05641 0.95248
 Zr105 Zr 0.50085 1.04798 0.96108
 O106 O 0.50323 1.09637 0.96079
 O107 O 0.49929 1.04737 0.91353
 Zr108 Zr 0.49784 1.04642 1.03693
 O109 O 0.50025 1.09474 1.03942
 O110 O 0.49230 1.04377 1.08413
 Zr111 Zr 0.45313 1.00743 0.99645
 Zr112 Zr 0.54708 1.00959 0.99997
 O113 O 0.52653 1.05343 1.00011
 O114 O 0.47104 1.05251 0.99805
 O115 O 0.53013 1.01006 0.95549
 O116 O 0.47106 1.00708 1.04060
 O117 O 0.47458 1.00886 0.95384
 O118 O 0.52667 1.00825 1.04312
 H119 H 0.54367 0.94734 0.99878
 H120 H 0.45610 1.00661 1.05769
 H121 H 0.54025 1.07179 1.00097
 H122 H 0.46107 1.00921 0.93566
 H123 H 0.51052 0.98164 1.09134
 H124 H 0.51165 1.03429 1.09247
 H125 H 0.48489 1.10300 1.02477
 H126 H 0.48648 1.10399 0.97432
 H127 H 0.51934 1.03834 0.90632
 H128 H 0.51754 0.98568 0.90534
 H129 H 0.48721 0.91399 0.96950
 H130 H 0.48621 0.91289 1.02165
 O131 O 0.04997 0.54735 -0.05344
 O132 O 0.02332 0.57993 -0.02209
 C133 C 0.04266 0.57463 -0.04397
 O134 O -0.06362 0.46132 -0.04708
 O135 O -0.03196 0.42731 -0.02195
 C136 C -0.05486 0.43364 -0.04026
 O137 O -0.06097 0.54713 -0.04782
 O138 O -0.02981 0.57985 -0.02049
 C139 C -0.05185 0.57434 -0.04001
 O140 O 0.05262 0.46076 -0.05209
 O141 O 0.02263 0.42685 -0.02492
 C142 C 0.04418 0.43315 -0.04467
 Zr143 Zr 0.03514 0.50371 -0.03720
 O144 O 0.03069 0.50117 -0.08450
 O145 O 0.08485 0.50683 -0.04141
 Zr146 Zr -0.04463 0.50401 -0.03288
 O147 O -0.04691 0.50187 -0.08033
 O148 O -0.09447 0.50755 -0.03013
 O149 O -0.00487 0.53136 -0.04032
 O150 O -0.00523 0.47736 -0.04106
 O151 O 0.05807 0.45810 0.05089
 O152 O 0.02568 0.42576 0.02454
 C153 C 0.04880 0.43091 0.04294
 O154 O -0.05396 0.54561 0.06128
 O155 O -0.02580 0.57912 0.03203
 C156 C -0.04522 0.57309 0.05371
 O157 O -0.05876 0.45974 0.05640
 O158 O -0.02894 0.42655 0.02830
 C159 C -0.05042 0.43241 0.04821
 O160 O 0.05656 0.54419 0.05519
 O161 O 0.02635 0.57864 0.02892
 C162 C 0.04829 0.57196 0.04823
 Zr163 Zr 0.03964 0.50168 0.03878
 O164 O 0.04145 0.49730 0.08611
 O165 O 0.08957 0.50444 0.03698
 Zr166 Zr -0.04010 0.50262 0.04303
 O167 O -0.03580 0.49788 0.09019
 O168 O -0.08977 0.50666 0.04700
 Zr169 Zr -0.00196 0.54842 0.00386
 Zr170 Zr -0.00287 0.45759 0.00199
 O171 O -0.00022 0.47540 0.04581
 O172 O 0.00048 0.52934 0.04730
 O173 O 0.04336 0.47550 -0.00012
 O174 O -0.04784 0.52992 0.00589
 O175 O 0.04349 0.52903 0.00109
 O176 O -0.04879 0.47612 0.00486
 H177 H -0.00629 0.46373 -0.05880
 H178 H -0.06621 0.54390 0.00725
 H179 H 0.00065 0.46101 0.06300
 H180 H 0.06231 0.54250 0.00038
 H181 H -0.10220 0.48982 -0.01843
 H182 H -0.09928 0.49233 0.03239
 H183 H -0.02412 0.51593 0.09774
 H184 H 0.03045 0.51520 0.09478
 H185 H 0.09699 0.48812 0.02333
 H186 H 0.09412 0.49174 -0.02739
 H187 H 0.02006 0.52010 -0.09135
 H188 H -0.03448 0.51924 -0.08829
 O189 O 1.05732 -0.05716 0.54447
 O190 O 1.02809 -0.02687 0.57604
 C191 C 1.04958 -0.04738 0.57107
 O192 O 1.05885 0.04806 0.45584
 O193 O 1.02805 0.01932 0.42405
 C194 C 1.04949 0.03981 0.42920
 O195 O 1.06179 0.04831 0.54076
 O196 O 1.02991 0.02298 0.57410
 C197 C 1.05274 0.04164 0.56790
 O198 O 1.05551 -0.06225 0.46002
 O199 O 1.02691 -0.03385 0.42624
 C200 C 1.04759 -0.05471 0.43280
 Zr201 Zr 1.03949 -0.04425 0.50155
 O202 O 1.08921 -0.04869 0.49908
 O203 O 1.03478 -0.09228 0.50617
 Zr204 Zr 1.04324 0.03324 0.49885
 O205 O 1.09312 0.03115 0.49554
 O206 O 1.04518 0.08163 0.50060
 O207 O 1.04761 -0.00480 0.52681
 O208 O 1.04710 -0.00659 0.47427
 O209 O 0.94221 -0.05719 0.45977
 O210 O 0.97358 -0.03178 0.42594
 C211 C 0.95097 -0.05068 0.43257
 O212 O 0.94550 0.05276 0.54041
 O213 O 0.97543 0.02555 0.57411
 C214 C 0.95390 0.04555 0.56757
 O215 O 0.95069 0.05408 0.45581
 O216 O 0.97657 0.02118 0.42411
 C217 C 0.95827 0.04435 0.42920
 O218 O 0.94038 -0.05171 0.54386
 O219 O 0.97306 -0.02524 0.57576
 C220 C 0.94966 -0.04361 0.57052
 Zr221 Zr 0.95979 -0.04071 0.50130
 O222 O 0.90987 -0.04111 0.49852
 O223 O 0.96022 -0.08894 0.50602
 Zr224 Zr 0.96329 0.03670 0.49872
 O225 O 0.91346 0.03847 0.49443
 O226 O 0.96497 0.08505 0.50109
 Zr227 Zr 1.00151 -0.00211 0.54454
 Zr228 Zr 1.00138 -0.00532 0.45554
 O229 O 0.95570 -0.00255 0.47401
 O230 O 0.95537 -0.00080 0.52664
 O231 O 0.99934 -0.04941 0.47466
 O232 O 1.00352 0.04150 0.52461
 O233 O 0.99940 -0.04708 0.52784
 O234 O 1.00354 0.03995 0.47193
 H235 H 1.06574 -0.00754 0.46085
 H236 H 1.00426 0.05983 0.53768
 H237 H 0.93716 -0.00179 0.46041
 H238 H 0.99864 -0.06422 0.54240
 H239 H 1.03369 0.08957 0.48288
 H240 H 0.97992 0.09210 0.48549
 H241 H 0.90431 0.02775 0.51196
 H242 H 0.90211 -0.02403 0.51105
 H243 H 0.96905 -0.09764 0.48732
 H244 H 1.02481 -0.10010 0.48758
 H245 H 1.09836 -0.03271 0.51216
 H246 H 1.10093 0.01923 0.51292
 C247 C 1.08060 0.12885 0.25046
 C248 C 1.09900 0.11551 0.27357
 C249 C 1.13229 0.11637 0.27042
 C250 C 1.14622 0.12823 0.24428
 C251 C 1.12773 0.14100 0.22112
 C252 C 1.09473 0.14159 0.22500
 C253 C 1.15166 0.10563 0.29350
 C254 C 1.13876 0.09442 0.31995
 C255 C 1.10573 0.09249 0.32398
 C256 C 1.08555 0.10185 0.29984
 C257 C 1.05276 0.09639 0.30241
 C258 C 1.04005 0.08262 0.32779
 C259 C 1.05926 0.07483 0.35209
 C260 C 1.09223 0.08057 0.35100
 C261 C 1.11023 0.07444 0.37720
 C262 C 1.09619 0.06190 0.40278
 C263 C 1.06402 0.05461 0.40290
 C264 C 1.04563 0.06129 0.37757
 H265 H 1.05521 0.13039 0.25165
 H266 H 1.17179 0.12890 0.24287
 H267 H 1.07935 0.15078 0.20778
 H268 H 1.17717 0.10619 0.29123
 H269 H 1.15538 0.08631 0.33649
 H270 H 1.03633 0.10147 0.28457
 H271 H 1.01481 0.07830 0.32852
 H272 H 1.13506 0.07969 0.37886
 H273 H 1.11068 0.05728 0.42234
 H274 H 1.02049 0.05636 0.37789
 C275 C 0.89563 -0.14296 0.26092
 C276 C 0.88047 -0.12715 0.28454
 C277 C 0.84698 -0.12667 0.28464
 C278 C 0.82969 -0.14009 0.26108
 C279 C 0.84499 -0.15604 0.23777
 C280 C 0.87824 -0.15734 0.23831
 C281 C 0.83083 -0.11332 0.30858
 C282 C 0.84715 -0.10132 0.33298
 C283 C 0.88051 -0.10114 0.33386
 C284 C 0.89739 -0.11259 0.30844
 C285 C 0.93050 -0.10858 0.30751
 C286 C 0.94669 -0.09474 0.33103
 C287 C 0.93080 -0.08543 0.35687
 C288 C 0.89758 -0.08923 0.35903
 C289 C 0.88295 -0.08157 0.38660
 C290 C 0.90052 -0.06977 0.41051
 C291 C 0.93305 -0.06468 0.40763
 C292 C 0.94802 -0.07249 0.38071
 H293 H 0.92095 -0.14543 0.25971
 H294 H 0.80410 -0.13966 0.26209
 H295 H 0.89128 -0.16864 0.22060
 H296 H 0.80521 -0.11267 0.30877
 H297 H 0.83291 -0.09137 0.35049
 H298 H 0.94453 -0.11500 0.28833
 H299 H 0.97205 -0.09181 0.32917
 H300 H 0.85812 -0.08520 0.39067
 H301 H 0.88846 -0.06407 0.43121
 H302 H 0.97325 -0.06908 0.37855
 C303 C 0.91517 0.13945 0.74242
 C304 C 0.89779 0.12507 0.71923
 C305 C 0.86442 0.12488 0.72171
 C306 C 0.84948 0.13690 0.74728
 C307 C 0.86701 0.15061 0.77061
 C308 C 0.90007 0.15210 0.76737
 C309 C 0.84599 0.11284 0.69856
 C310 C 0.85990 0.10123 0.67274
 C311 C 0.89306 0.10031 0.66940
 C312 C 0.91233 0.11127 0.69357
 C313 C 0.94539 0.10730 0.69166
 C314 C 0.95922 0.09340 0.66693
 C315 C 0.94088 0.08374 0.64271
 C316 C 0.90764 0.08790 0.64309
 C317 C 0.89048 0.07968 0.61693
 C318 C 0.90566 0.06671 0.59215
 C319 C 0.93817 0.06108 0.59281
 C320 C 0.95568 0.06985 0.61805
 H321 H 0.94051 0.14177 0.74180
 H322 H 0.82389 0.13678 0.74813
 H323 H 0.91482 0.16189 0.78475
 H324 H 0.82043 0.11259 0.70030
 H325 H 0.84394 0.09210 0.65614
 H326 H 0.96129 0.11374 0.70948
 H327 H 0.98464 0.09043 0.66667
 H328 H 0.86541 0.08347 0.61470
 H329 H 0.89179 0.06039 0.57264
 H330 H 0.98103 0.06621 0.61828
 C331 C 1.14963 -0.17014 0.70222
 C332 C 1.13985 -0.13915 0.70041
 C333 C 1.14333 -0.12085 0.72651
 C334 C 1.15666 -0.13303 0.75281
 C335 C 1.16598 -0.16373 0.75422
 C336 C 1.16227 -0.18215 0.72876
 C337 C 1.13308 -0.09055 0.72647
 C338 C 1.11843 -0.07810 0.70142
 C339 C 1.11388 -0.09539 0.67498
 C340 C 1.12607 -0.12593 0.67397
 C341 C 1.12433 -0.14205 0.64653
 C342 C 1.11029 -0.12922 0.62124
 C343 C 1.09667 -0.10017 0.62237
 C344 C 1.09786 -0.08298 0.64937
 C345 C 1.08230 -0.05431 0.64980
 C346 C 1.06681 -0.04312 0.62443
 C347 C 1.06635 -0.05984 0.59760
 C348 C 1.08153 -0.08834 0.59668
 H349 H 1.14705 -0.18594 0.68383
 H350 H 1.15882 -0.11880 0.77266
 H351 H 1.16916 -0.20602 0.72942
 H352 H 1.13600 -0.07637 0.74625
 H353 H 1.11149 -0.05447 0.70333
 H354 H 1.13424 -0.16456 0.64366
 H355 H 1.10967 -0.14243 0.60065
 H356 H 1.08091 -0.04021 0.66958
 H357 H 1.05523 -0.02105 0.62587
 H358 H 1.08095 -0.10166 0.57615
 C359 C 0.24137 1.09226 1.13245
 C360 C 0.26504 1.10922 1.11751
 C361 C 0.26265 1.14155 1.11802
 C362 C 0.23632 1.15594 1.13107
 C363 C 0.21246 1.13882 1.14536
 C364 C 0.21586 1.10677 1.14626
 C365 C 0.28667 1.15942 1.10563
 C366 C 0.31339 1.14593 1.09329
 C367 C 0.31662 1.11380 1.09180
 C368 C 0.29125 1.09521 1.10263
 C369 C 0.29251 1.06334 1.09748
 C370 C 0.31812 1.04996 1.08309
 C371 C 0.34399 1.06754 1.07427
 C372 C 0.34402 1.09963 1.07916
 C373 C 0.37181 1.11607 1.07180
 C374 C 0.39801 1.10127 1.05948
 C375 C 0.39718 1.06987 1.05355
 C376 C 0.37006 1.05312 1.06084
 H377 H 0.24216 1.06768 1.13438
 H378 H 0.23530 1.18072 1.13120
 H379 H 0.19799 1.09237 1.15637
 H380 H 0.28499 1.18418 1.10583
 H381 H 0.33072 1.16135 1.08404
 H382 H 0.27342 1.04817 1.10341
 H383 H 0.31787 1.02545 1.07927
 H384 H 0.37440 1.14020 1.07613
 H385 H 0.41894 1.11454 1.05427
 H386 H 0.36962 1.02863 1.05686
 C387 C 0.25501 0.86082 0.89385
 C388 C 0.28009 0.87668 0.87978
 C389 C 0.28177 0.87552 0.84803
 C390 C 0.25827 0.86047 0.83125
 C391 C 0.23335 0.84472 0.84543
 C392 C 0.23241 0.84499 0.87704
 C393 C 0.30718 0.88899 0.83309
 C394 C 0.33155 0.90282 0.84901
 C395 C 0.33095 0.90465 0.88065
 C396 C 0.30393 0.89293 0.89614
 C397 C 0.30139 0.89838 0.92731
 C398 C 0.32491 0.91387 0.94299
 C399 C 0.35239 0.92352 0.92853
 C400 C 0.35617 0.91840 0.89729
 C401 C 0.38544 0.92658 0.88413
 C402 C 0.40942 0.93996 0.90120
 C403 C 0.40497 0.94615 0.93172
 C404 C 0.37634 0.93800 0.94524
 H405 H 0.25262 0.85954 0.91790
 H406 H 0.26064 0.85965 0.80703
 H407 H 0.21344 0.83388 0.88916
 H408 H 0.30855 0.88840 0.80879
 H409 H 0.35018 0.91281 0.83574
 H410 H 0.28091 0.89175 0.94013
 H411 H 0.32177 0.91784 0.96684
 H412 H 0.39090 0.92210 0.86092
 H413 H 0.43151 0.94586 0.89033
 H414 H 0.37306 0.94213 0.96899
 C415 C 0.69803 0.83732 1.15186
 C416 C 0.69892 0.86779 1.14092
 C417 C 0.72768 0.88420 1.14407
 C418 C 0.75384 0.87082 1.15842
 C419 C 0.75253 0.84064 1.16888
 C420 C 0.72453 0.82400 1.16536
 C421 C 0.73044 0.91370 1.13247
 C422 C 0.70564 0.92710 1.11686
 C423 C 0.67659 0.91172 1.11281
 C424 C 0.67264 0.88224 1.12632
 C425 C 0.64248 0.86841 1.12512
 C426 C 0.61730 0.88244 1.11049
 C427 C 0.62129 0.91031 1.09569
 C428 C 0.65114 0.92510 1.09613
 C429 C 0.65445 0.95235 1.07922
 C430 C 0.62901 0.96466 1.06333
 C431 C 0.59923 0.95064 1.06394
 C432 C 0.59559 0.92338 1.08022
 H433 H 0.67757 0.82283 1.14950
 H434 H 0.77574 0.88357 1.16051
 H435 H 0.72318 0.80050 1.17304
 H436 H 0.75227 0.92645 1.13507
 H437 H 0.70974 0.95002 1.10883
 H438 H 0.63731 0.84697 1.13600
 H439 H 0.59453 0.87106 1.11039
 H440 H 0.67660 0.96432 1.07709
 H441 H 0.63276 0.98537 1.05052
 H442 H 0.57285 0.91193 1.08039
 C443 C 0.75302 1.09902 0.85737
 C444 C 0.72955 1.11521 0.87338
 C445 C 0.73173 1.14755 0.87397
 C446 C 0.75758 1.16264 0.86077
 C447 C 0.78134 1.14627 0.84553
 C448 C 0.77816 1.11424 0.84365
 C449 C 0.70807 1.16478 0.88772
 C450 C 0.68195 1.15065 0.90055
 C451 C 0.67892 1.11848 0.90098
 C452 C 0.70384 1.10045 0.88843
 C453 C 0.70267 1.06835 0.89206
 C454 C 0.67768 1.05426 0.90682
 C455 C 0.65236 1.07141 0.91765
 C456 C 0.65216 1.10369 0.91424
 C457 C 0.62485 1.11975 0.92375
 C458 C 0.59938 1.10436 0.93678
 C459 C 0.60050 1.07271 0.94125
 C460 C 0.62701 1.05635 0.93165
 H461 H 0.75246 1.07453 0.85466
 H462 H 0.75833 1.18742 0.86146
 H463 H 0.79597 1.10031 0.83285
 H464 H 0.70961 1.18954 0.88838
 H465 H 0.66497 1.16562 0.91096
 H466 H 0.72135 1.05344 0.88460
 H467 H 0.67801 1.02958 0.90944
 H468 H 0.62205 1.14407 0.92069
 H469 H 0.57881 1.11731 0.94372
 H470 H 0.62743 1.03173 0.93426
 C471 C 0.08576 0.24331 0.11545
 C472 C 0.10318 0.27065 0.11107
 C473 C 0.13431 0.27196 0.12286
 C474 C 0.14780 0.24623 0.13687
 C475 C 0.13027 0.21932 0.14059
 C476 C 0.09912 0.21821 0.13013
 C477 C 0.15174 0.29897 0.12085
 C478 C 0.13872 0.32510 0.10801
 C479 C 0.10795 0.32493 0.09567
 C480 C 0.09054 0.29683 0.09595
 C481 C 0.06140 0.29562 0.08052
 C482 C 0.04909 0.32121 0.06626
 C483 C 0.06474 0.34925 0.06754
 C484 C 0.09418 0.35175 0.08257
 C485 C 0.10821 0.38117 0.08430
 C486 C 0.09363 0.40675 0.07142
 C487 C 0.06486 0.40389 0.05609
 C488 C 0.05079 0.37490 0.05403
 H489 H 0.06149 0.24082 0.10852
 H490 H 0.17176 0.24730 0.14548
 H491 H 0.08513 0.19766 0.13308
 H492 H 0.17559 0.30009 0.12971
 H493 H 0.15379 0.34496 0.10732
 H494 H 0.04787 0.27486 0.07827
 H495 H 0.02678 0.31909 0.05443
 H496 H 0.12999 0.38537 0.09617
 H497 H 0.10497 0.42888 0.07352
 H498 H 0.02842 0.37230 0.04240
 C499 C -0.09289 0.24993 -0.12098
 C500 C -0.11012 0.27723 -0.11581
 C501 C -0.14101 0.27935 -0.12806
 C502 C -0.15455 0.25430 -0.14316
 C503 C -0.13724 0.22736 -0.14756
 C504 C -0.10627 0.22556 -0.13673
 C505 C -0.15810 0.30650 -0.12537
 C506 C -0.14500 0.33195 -0.11134
 C507 C -0.11453 0.33088 -0.09838
 C508 C -0.09748 0.30260 -0.09945
 C509 C -0.06872 0.30034 -0.08351
 C510 C -0.05636 0.32513 -0.06806
 C511 C -0.07156 0.35341 -0.06853
 C512 C -0.10069 0.35694 -0.08390
 C513 C -0.11435 0.38657 -0.08453
 C514 C -0.09966 0.41137 -0.07032
 C515 C -0.07114 0.40747 -0.05477
 C516 C -0.05747 0.37826 -0.05381
 H517 H -0.06875 0.24695 -0.11384
 H518 H -0.17837 0.25591 -0.15206
 H519 H -0.09244 0.20500 -0.14022
 H520 H -0.18175 0.30828 -0.13464
 H521 H -0.15979 0.35199 -0.11025
 H522 H -0.05557 0.27930 -0.08175
 H523 H -0.03440 0.32220 -0.05585
 H524 H -0.13591 0.39155 -0.09646
 H525 H -0.11069 0.43371 -0.07159
 H526 H -0.03527 0.37488 -0.04210
 C527 C 0.14135 0.70483 -0.16940
 C528 C 0.13003 0.70438 -0.13944
 C529 C 0.13267 0.73178 -0.12253
 C530 C 0.14699 0.75788 -0.13487
 C531 C 0.15837 0.75776 -0.16436
 C532 C 0.15515 0.73114 -0.18158
 C533 C 0.12099 0.73314 -0.09335
 C534 C 0.10613 0.70807 -0.08053
 C535 C 0.10275 0.68022 -0.09630
 C536 C 0.11592 0.67797 -0.12582
 C537 C 0.11504 0.64928 -0.14042
 C538 C 0.10134 0.62381 -0.12692
 C539 C 0.08723 0.62597 -0.09872
 C540 C 0.08718 0.65436 -0.08325
 C541 C 0.07113 0.65577 -0.05544
 C542 C 0.05677 0.62997 -0.04320
 C543 C 0.05776 0.60169 -0.05802
 C544 C 0.07304 0.59987 -0.08590
 H545 H 0.13947 0.68542 -0.18419
 H546 H 0.14883 0.77862 -0.12161
 H547 H 0.16369 0.73056 -0.20449
 H548 H 0.12319 0.75395 -0.08026
 H549 H 0.09824 0.71111 -0.05775
 H550 H 0.12548 0.64551 -0.16215
 H551 H 0.10156 0.60221 -0.13888
 H552 H 0.06864 0.67658 -0.04273
 H553 H 0.04498 0.63227 -0.02173
 H554 H 0.07355 0.57824 -0.09782
 C555 C -0.17265 0.70550 0.14893
 C556 C -0.14058 0.70372 0.13987
 C557 C -0.12166 0.73027 0.14354
 C558 C -0.13418 0.75684 0.15658
 C559 C -0.16581 0.75806 0.16569
 C560 C -0.18497 0.73229 0.16150
 C561 C -0.09029 0.73033 0.13411
 C562 C -0.07728 0.70487 0.12029
 C563 C -0.09510 0.67794 0.11572
 C564 C -0.12680 0.67685 0.12687
 C565 C -0.14341 0.64886 0.12499
 C566 C -0.12993 0.62311 0.11187
 C567 C -0.09976 0.62434 0.09931
 C568 C -0.08209 0.65192 0.10067
 C569 C -0.05237 0.65256 0.08614
 C570 C -0.04075 0.62691 0.07129
 C571 C -0.05791 0.59953 0.07056
 C572 C -0.08735 0.59828 0.08492
 H573 H -0.18900 0.68682 0.14613
 H574 H -0.11937 0.77694 0.15919
 H575 H -0.20955 0.73275 0.16830
 H576 H -0.07563 0.75045 0.13718
 H577 H -0.05278 0.70685 0.11406
 H578 H -0.16680 0.64590 0.13407
 H579 H -0.14355 0.60210 0.11107
 H580 H -0.03786 0.67277 0.08495
 H581 H -0.01810 0.62860 0.06020
 H582 H -0.10106 0.57733 0.08404
 C583 C 1.08857 0.12220 0.74914
 C584 C 1.10596 0.11738 0.72238
 C585 C 1.13695 0.12965 0.72075
 C586 C 1.15053 0.14406 0.74580
 C587 C 1.13325 0.14770 0.77232
 C588 C 1.10207 0.13725 0.77362
 C589 C 1.15420 0.12746 0.69418
 C590 C 1.14123 0.11374 0.66887
 C591 C 1.11077 0.10057 0.66952
 C592 C 1.09351 0.10117 0.69715
 C593 C 1.06487 0.08472 0.69899
 C594 C 1.05291 0.06908 0.67443
 C595 C 1.06834 0.07004 0.64682
 C596 C 1.09722 0.08614 0.64369
 C597 C 1.11098 0.08746 0.61469
 C598 C 1.09670 0.07305 0.59011
 C599 C 1.06855 0.05662 0.59367
 C600 C 1.05474 0.05505 0.62223
 H601 H 1.06430 0.11518 0.75167
 H602 H 1.17452 0.15276 0.74465
 H603 H 1.08828 0.14026 0.79389
 H604 H 1.17792 0.13676 0.69281
 H605 H 1.15618 0.11288 0.64931
 H606 H 1.05161 0.08259 0.71953
 H607 H 1.03106 0.05637 0.67701
 H608 H 1.13228 0.10013 0.61007
 H609 H 1.10778 0.07481 0.56826
 H610 H 1.03285 0.04257 0.62537
 C611 C 0.90730 -0.12661 0.74929
 C612 C 0.88999 -0.11470 0.72475
 C613 C 0.85671 -0.11815 0.72516
 C614 C 0.84153 -0.13151 0.74994
 C615 C 0.85896 -0.14330 0.77430
 C616 C 0.89211 -0.14079 0.77334
 C617 C 0.83868 -0.10873 0.70059
 C618 C 0.85303 -0.09672 0.67516
 C619 C 0.88609 -0.09266 0.67372
 C620 C 0.90464 -0.10024 0.69956
 C621 C 0.93706 -0.09259 0.69958
 C622 C 0.95118 -0.07903 0.67482
 C623 C 0.93386 -0.07344 0.64875
 C624 C 0.90121 -0.08068 0.64752
 C625 C 0.88526 -0.07625 0.61985
 C626 C 0.90104 -0.06449 0.59484
 C627 C 0.93296 -0.05636 0.59670
 C628 C 0.94920 -0.06083 0.62375
 H629 H 0.93275 -0.12609 0.75026
 H630 H 0.81608 -0.13425 0.74924
 H631 H 0.90665 -0.14882 0.79174
 H632 H 0.81317 -0.11116 0.70079
 H633 H 0.83740 -0.08995 0.65723
 H634 H 0.95207 -0.09594 0.71887
 H635 H 0.97609 -0.07330 0.67595
 H636 H 0.86083 -0.08240 0.61654
 H637 H 0.88812 -0.06147 0.57402
 H638 H 0.97413 -0.05516 0.62514
 C639 C 1.09763 -0.13085 0.25281
 C640 C 1.11379 -0.12189 0.27913
 C641 C 1.14672 -0.12762 0.28073
 C642 C 1.16297 -0.13974 0.25588
 C643 C 1.14657 -0.14877 0.22982
 C644 C 1.11364 -0.14435 0.22893
 C645 C 1.16310 -0.12185 0.30737
 C646 C 1.14731 -0.11139 0.33276
 C647 C 1.11464 -0.10477 0.33199
 C648 C 1.09815 -0.10826 0.30418
 C649 C 1.06686 -0.09724 0.30204
 C650 C 1.05183 -0.08412 0.32653
 C651 C 1.06679 -0.08273 0.35440
 C652 C 1.09808 -0.09383 0.35782
 C653 C 1.11125 -0.09387 0.38707
 C654 C 1.09441 -0.08219 0.41151
 C655 C 1.06420 -0.06967 0.40755
 C656 C 1.05058 -0.07009 0.37889
 H657 H 1.07237 -0.12870 0.25038
 H658 H 1.18816 -0.14392 0.25770
 H659 H 1.10001 -0.15032 0.20918
 H660 H 1.18830 -0.12613 0.30883
 H661 H 1.16159 -0.10755 0.35247
 H662 H 1.05379 -0.09723 0.28125
 H663 H 1.02807 -0.07532 0.32369
 H664 H 1.13425 -0.10334 0.39184
 H665 H 1.10545 -0.08225 0.43347
 H666 H 1.02723 -0.06055 0.37557
 C667 C 0.88068 0.08987 0.24798
 C668 C 0.89328 0.10587 0.27284
 C669 C 0.89183 0.13824 0.27234
 C670 C 0.87975 0.15373 0.24720
 C671 C 0.86717 0.13762 0.22256
 C672 C 0.86764 0.10544 0.22358
 C673 C 0.90187 0.15507 0.29719
 C674 C 0.91236 0.14044 0.32302
 C675 C 0.91428 0.10823 0.32461
 C676 C 0.90638 0.09080 0.29848
 C677 C 0.91237 0.05902 0.29867
 C678 C 0.92451 0.04454 0.32391
 C679 C 0.93013 0.06090 0.35023
 C680 C 0.92448 0.09287 0.35124
 C681 C 0.92861 0.10797 0.37911
 C682 C 0.93886 0.09205 0.40451
 C683 C 0.94571 0.06079 0.40288
 C684 C 0.94127 0.04534 0.37567
 H685 H 0.87967 0.06525 0.24703
 H686 H 0.87843 0.17849 0.24785
 H687 H 0.85890 0.09192 0.20498
 H688 H 0.90103 0.17987 0.29690
 H689 H 0.91975 0.15509 0.34117
 H690 H 0.90884 0.04477 0.27921
 H691 H 0.92905 0.02014 0.32294
 H692 H 0.92339 0.13190 0.38222
 H693 H 0.94196 0.10439 0.42540
 H694 H 0.94601 0.02098 0.37442
 C695 C 0.08609 0.24937 -0.12385
 C696 C 0.10280 0.27673 -0.11757
 C697 C 0.13466 0.27875 -0.12727
 C698 C 0.14942 0.25367 -0.14114
 C699 C 0.13254 0.22674 -0.14677
 C700 C 0.10077 0.22492 -0.13834
 C701 C 0.15158 0.30583 -0.12330
 C702 C 0.13740 0.33134 -0.11050
 C703 C 0.10584 0.33045 -0.10022
 C704 C 0.08880 0.30225 -0.10253
 C705 C 0.05866 0.30025 -0.08909
 C706 C 0.04518 0.32516 -0.07472
 C707 C 0.06065 0.35329 -0.07388
 C708 C 0.09095 0.35661 -0.08706
 C709 C 0.10480 0.38614 -0.08688
 C710 C 0.08947 0.41093 -0.07347
 C711 C 0.06006 0.40714 -0.05958
 C712 C 0.04582 0.37820 -0.05990
 H713 H 0.06144 0.24637 -0.11856
 H714 H 0.17390 0.25528 -0.14819
 H715 H 0.08730 0.20432 -0.14276
 H716 H 0.17598 0.30748 -0.13054
 H717 H 0.15218 0.35127 -0.10813
 H718 H 0.04520 0.27933 -0.08846
 H719 H 0.02219 0.32242 -0.06438
 H720 H 0.12713 0.39101 -0.09747
 H721 H 0.10091 0.43311 -0.07373
 H722 H 0.02284 0.37508 -0.04960
 C723 C -0.08632 0.25476 0.14154
 C724 C -0.10426 0.27776 0.12714
 C725 C -0.13759 0.27477 0.12739
 C726 C -0.15196 0.24852 0.13953
 C727 C -0.13380 0.22520 0.15295
 C728 C -0.10080 0.22921 0.15426
 C729 C -0.15648 0.29799 0.11553
 C730 C -0.14302 0.32434 0.10363
 C731 C -0.10990 0.32802 0.10212
 C732 C -0.09024 0.30371 0.11283
 C733 C -0.05731 0.30566 0.10802
 C734 C -0.04394 0.33074 0.09378
 C735 C -0.06261 0.35530 0.08462
 C736 C -0.09575 0.35478 0.08941
 C737 C -0.11321 0.38132 0.08162
 C738 C -0.09838 0.40669 0.06872
 C739 C -0.06597 0.40619 0.06269
 C740 C -0.04820 0.38050 0.07075
 H741 H -0.06098 0.25597 0.14373
 H742 H -0.17752 0.24697 0.13944
 H743 H -0.08552 0.21184 0.16372
 H744 H -0.18202 0.29590 0.11564
 H745 H -0.15927 0.34101 0.09469
 H746 H -0.04122 0.28754 0.11402
 H747 H -0.01860 0.33105 0.09020
 H748 H -0.13819 0.38346 0.08585
 H749 H -0.11240 0.42661 0.06297
 H750 H -0.02292 0.38044 0.06681
 C751 C -0.09373 0.75366 -0.12811
 C752 C -0.11102 0.72887 -0.11608
 C753 C -0.14421 0.72876 -0.12035
 C754 C -0.15937 0.75336 -0.13470
 C755 C -0.14195 0.77797 -0.14665
 C756 C -0.10886 0.77748 -0.14323
 C757 C -0.16215 0.70385 -0.11072
 C758 C -0.14777 0.67853 -0.09774
 C759 C -0.11479 0.67757 -0.09291
 C760 C -0.09640 0.70387 -0.10067
 C761 C -0.06420 0.70452 -0.09228
 C762 C -0.05013 0.67988 -0.07780
 C763 C -0.06722 0.65326 -0.07199
 C764 C -0.09964 0.65143 -0.08003
 C765 C -0.11534 0.62319 -0.07547
 C766 C -0.09964 0.59825 -0.06279
 C767 C -0.06803 0.60068 -0.05385
 C768 C -0.05195 0.62829 -0.05841
 H769 H -0.06833 0.75500 -0.12692
 H770 H -0.18473 0.75228 -0.13800
 H771 H -0.09433 0.79615 -0.15129
 H772 H -0.18759 0.70366 -0.11373
 H773 H -0.16334 0.66033 -0.09084
 H774 H -0.04937 0.72425 -0.09579
 H775 H -0.02541 0.68152 -0.07152
 H776 H -0.13948 0.61934 -0.08222
 H777 H -0.11245 0.57701 -0.05967
 H778 H -0.02725 0.63010 -0.05206
 C779 C 0.10178 0.75660 0.11922
 C780 C 0.11579 0.72725 0.11679
 C781 C 0.14553 0.72261 0.13085
 C782 C 0.16103 0.74687 0.14535
 C783 C 0.14679 0.77565 0.14737
 C784 C 0.11703 0.78027 0.13449
 C785 C 0.15949 0.69372 0.13072
 C786 C 0.14420 0.66895 0.11771
 C787 C 0.11461 0.67232 0.10338
 C788 C 0.10100 0.70224 0.10156
 C789 C 0.07343 0.70628 0.08410
 C790 C 0.05906 0.68180 0.06968
 C791 C 0.07092 0.65221 0.07284
 C792 C 0.09847 0.64687 0.09023
 C793 C 0.10835 0.61617 0.09414
 C794 C 0.09193 0.59204 0.08076
 C795 C 0.06532 0.59759 0.06280
 C796 C 0.05518 0.62786 0.05877
 H797 H 0.07866 0.76176 0.11041
 H798 H 0.18385 0.74317 0.15589
 H799 H 0.10556 0.80237 0.13622
 H800 H 0.18230 0.69009 0.14127
 H801 H 0.15669 0.64748 0.11848
 H802 H 0.06284 0.72838 0.08037
 H803 H 0.03809 0.68603 0.05628
 H804 H 0.12817 0.60992 0.10807
 H805 H 0.10029 0.56892 0.08446
 H806 H 0.03477 0.63258 0.04481
 C807 C 0.24038 1.10023 0.87098
 C808 C 0.26800 1.11633 0.87954
 C809 C 0.26961 1.14801 0.87265
 C810 C 0.24385 1.16297 0.85912
 C811 C 0.21668 1.14661 0.85115
 C812 C 0.21529 1.11519 0.85698
 C813 C 0.29696 1.16455 0.87912
 C814 C 0.32316 1.15025 0.89166
 C815 C 0.32272 1.11882 0.89908
 C816 C 0.29419 1.10195 0.89417
 C817 C 0.29253 1.07147 0.90459
 C818 C 0.31815 1.05756 0.91845
 C819 C 0.34666 1.07312 0.92188
 C820 C 0.34964 1.10380 0.91182
 C821 C 0.37966 1.11791 0.91455
 C822 C 0.40518 1.10241 0.92739
 C823 C 0.40165 1.07251 0.93817
 C824 C 0.37229 1.05801 0.93529
 H825 H 0.23763 1.07594 0.87414
 H826 H 0.24515 1.18725 0.85421
 H827 H 0.19447 1.10214 0.85091
 H828 H 0.29828 1.18879 0.87407
 H829 H 0.34323 1.16476 0.89605
 H830 H 0.27135 1.05787 0.90316
 H831 H 0.31567 1.03419 0.92631
 H832 H 0.38442 1.14068 0.90643
 H833 H 0.42772 1.11405 0.92918
 H834 H 0.36948 1.03465 0.94310
 C835 C 0.29196 0.86347 1.16463
 C836 C 0.29294 0.87330 1.13426
 C837 C 0.26484 0.87054 1.11707
 C838 C 0.23769 0.85722 1.12943
 C839 C 0.23727 0.84728 1.15928
 C840 C 0.26438 0.85089 1.17693
 C841 C 0.26378 0.88117 1.08760
 C842 C 0.28977 0.89539 1.07485
 C843 C 0.31831 0.89890 1.09093
 C844 C 0.32049 0.88625 1.12051
 C845 C 0.35023 0.88641 1.13496
 C846 C 0.37675 0.89908 1.12125
 C847 C 0.37446 0.91321 1.09320
 C848 C 0.34497 0.91405 1.07805
 C849 C 0.34313 0.93080 1.05094
 C850 C 0.36965 0.94515 1.03898
 C851 C 0.39916 0.94294 1.05312
 C852 C 0.40140 0.92692 1.08036
 H853 H 0.31183 0.86586 1.17960
 H854 H 0.21644 0.85512 1.11592
 H855 H 0.26431 0.84369 1.20021
 H856 H 0.24244 0.87878 1.07429
 H857 H 0.28707 0.90252 1.05183
 H858 H 0.35398 0.87599 1.15662
 H859 H 0.39919 0.89830 1.13301
 H860 H 0.32128 0.93424 1.03893
 H861 H 0.36685 0.95828 1.01855
 H862 H 0.42389 0.92583 1.09200
 C863 C 0.76392 1.10071 1.11520
 C864 C 0.73376 1.11479 1.11456
 C865 C 0.73031 1.14340 1.12927
 C866 C 0.75647 1.15767 1.14281
 C867 C 0.78599 1.14326 1.14311
 C868 C 0.78946 1.11472 1.12941
 C869 C 0.70071 1.15735 1.13079
 C870 C 0.67416 1.14325 1.11866
 C871 C 0.67635 1.11489 1.10362
 C872 C 0.70688 1.10113 1.10043
 C873 C 0.70969 1.07447 1.08275
 C874 C 0.68354 1.06117 1.06934
 C875 C 0.65347 1.07342 1.07344
 C876 C 0.64917 1.10010 1.09103
 C877 C 0.61778 1.11059 1.09541
 C878 C 0.59210 1.09566 1.08204
 C879 C 0.59682 1.06999 1.06377
 C880 C 0.62765 1.05905 1.05974
 H881 H 0.76844 1.07846 1.10576
 H882 H 0.75372 1.17957 1.15397
 H883 H 0.81211 1.10316 1.12979
 H884 H 0.69793 1.17925 1.14191
 H885 H 0.65224 1.15561 1.12078
 H886 H 0.73203 1.06371 1.07803
 H887 H 0.68691 1.04086 1.05572
 H888 H 0.61222 1.12997 1.10938
 H889 H 0.56851 1.10453 1.08573
 H890 H 0.63175 1.03919 1.04573
 C891 C 0.71224 0.84459 0.85523
 C892 C 0.71172 0.87451 0.86757
 C893 C 0.74053 0.89112 0.86815
 C894 C 0.76803 0.87879 0.85552
 C895 C 0.76799 0.84935 0.84333
 C896 C 0.74013 0.83217 0.84358
 C897 C 0.74195 0.91985 0.88162
 C898 C 0.71559 0.93223 0.89550
 C899 C 0.68636 0.91665 0.89569
 C900 C 0.68393 0.88818 0.88002
 C901 C 0.65376 0.87473 0.87684
 C902 C 0.62703 0.88815 0.88935
 C903 C 0.62944 0.91478 0.90648
 C904 C 0.65930 0.92897 0.91051
 C905 C 0.66102 0.95447 0.92995
 C906 C 0.63410 0.96590 0.94393
 C907 C 0.60433 0.95291 0.93861
 C908 C 0.60220 0.92718 0.91990
 H909 H 0.69176 0.82991 0.85513
 H910 H 0.78989 0.89179 0.85587
 H911 H 0.73995 0.80912 0.83463
 H912 H 0.76386 0.93272 0.88189
 H913 H 0.71864 0.95465 0.90515
 H914 H 0.64989 0.85421 0.86392
 H915 H 0.60428 0.87723 0.88602
 H916 H 0.68300 0.96551 0.93568
 H917 H 0.63676 0.98509 0.95908
 H918 H 0.57945 0.91636 0.91624
   
