data_POSCAR
  _audit_creation_date              2014-09-24
  _audit_creation_method            'ToBaCCo'
  _symmetry_space_group_name_H-M    'P1'
  _symmetry_Int_Tables_number       1
  _symmetry_cell_setting            triclinic
  loop_
  _symmetry_equiv_pos_as_xyz
 x,y,z
_cell_length_a 22.9928
_cell_length_b 23.0710
_cell_length_c 26.3013
_cell_angle_alpha 89.994200
_cell_angle_beta 90.183500
_cell_angle_gamma 120.119000
loop_
  _atom_site_label
  _atom_site_type_symbol
  _atom_site_fract_x
  _atom_site_fract_y
  _atom_site_fract_z
O1 O 0.34862 0.56557 0.29144
 O2 O 0.23834 0.56843 0.30793
 C3 C 0.20707 0.59943 0.31729
 O4 O 0.21538 0.64958 0.29133
 O5 O 0.32880 0.75981 0.30810
 C6 C 0.39130 0.79107 0.31768
 O7 O 0.43329 0.78269 0.29192
 O8 O 0.43024 0.66974 0.30834
 C9 C 0.39905 0.60743 0.31755
 O10 O 0.32878 0.56879 0.19042
 O11 O 0.21525 0.56533 0.20692
 C12 C 0.20650 0.60682 0.18069
 O13 O 0.23813 0.66916 0.19031
 O14 O 0.34833 0.78244 0.20713
 C15 C 0.39886 0.79113 0.18138
 O16 O 0.43019 0.76018 0.19086
 O17 O 0.43329 0.65030 0.20729
 C18 C 0.39128 0.60002 0.18122
 Cr19 Cr 0.28454 0.57061 0.24918
 Cr20 Cr 0.28444 0.71346 0.24922
 Cr21 Cr 0.42818 0.71394 0.24960
 O22 O 0.33241 0.66602 0.24938
 O23 O 0.56909 0.32964 0.69126
 O24 O 0.56596 0.21666 0.70769
 C25 C 0.60790 0.20821 0.68192
 O26 O 0.67039 0.23942 0.69149
 O27 O 0.78387 0.34956 0.70817
 C28 C 0.79236 0.39984 0.68232
 O29 O 0.76124 0.43097 0.69175
 O30 O 0.65090 0.43380 0.70796
 C31 C 0.60038 0.39192 0.68194
 O32 O 0.56603 0.34906 0.79230
 O33 O 0.56912 0.23918 0.80873
 C34 C 0.60042 0.20820 0.81822
 O35 O 0.65096 0.21687 0.79249
 O36 O 0.76136 0.33008 0.80918
 C37 C 0.79255 0.39235 0.81871
 O38 O 0.78396 0.43411 0.79285
 O39 O 0.67048 0.43074 0.80904
 C40 C 0.60799 0.39946 0.81827
 Cr41 Cr 0.57115 0.28543 0.75000
 Cr42 Cr 0.71485 0.28577 0.75033
 Cr43 Cr 0.71485 0.42882 0.75039
 O44 O 0.66695 0.33334 0.75025
 C45 C 0.46463 -0.06744 0.44111
 C46 C 0.39593 -0.10270 0.42952
 C47 C 0.37200 -0.14867 0.38935
 C48 C 0.41661 -0.15998 0.36015
 C49 C 0.48565 -0.12423 0.37218
 C50 C 0.50941 -0.07829 0.41237
 C51 C 0.48917 -0.02020 0.48249
 C52 C 0.50976 0.01939 0.51717
 C53 C 0.53436 0.06666 0.55854
 C54 C 0.48965 0.07759 0.58728
 C55 C 0.51348 0.12355 0.62746
 C56 C 0.58252 0.15924 0.63946
 C57 C 0.62707 0.14785 0.61026
 C58 C 0.60308 0.10186 0.57011
 H59 H 0.36083 -0.09469 0.45155
 H60 H 0.31858 -0.17534 0.38122
 H61 H 0.52136 -0.13174 0.35060
 H62 H 0.56271 -0.05127 0.42105
 H63 H 0.43634 0.05062 0.57861
 H64 H 0.47780 0.13112 0.64905
 H65 H 0.68049 0.17448 0.61837
 H66 H 0.63813 0.09379 0.54807
 C67 C 1.06626 0.53155 0.44089
 C68 C 1.07692 0.58686 0.41188
 C69 C 1.12258 0.60890 0.37160
 C70 C 1.15825 0.57581 0.35975
 C71 C 1.14709 0.52017 0.38919
 C72 C 1.10140 0.49826 0.42945
 C73 C 1.01937 0.50903 0.48242
 C74 C 0.98011 0.49019 0.51723
 C75 C 0.93322 0.46770 0.55875
 C76 C 0.89826 0.50114 0.57028
 C77 C 0.85256 0.47924 0.61053
 C78 C 0.84120 0.42347 0.63987
 C79 C 0.87670 0.39022 0.62794
 C80 C 0.92238 0.41225 0.58766
 H81 H 1.04998 0.61301 0.42044
 H82 H 1.12998 0.65191 0.34982
 H83 H 1.17371 0.49358 0.38121
 H84 H 1.09353 0.45539 0.45169
 H85 H 0.90628 0.54412 0.54812
 H86 H 0.82608 0.50595 0.61858
 H87 H 0.86915 0.34710 0.64963
 H88 H 0.94917 0.38598 0.57903
 C89 C 0.46741 0.53427 0.44093
 C90 C 0.41172 0.48964 0.41181
 C91 C 0.38950 0.51335 0.37161
 C92 C 0.42280 0.58218 0.35998
 C93 C 0.47880 0.62664 0.38956
 C94 C 0.50089 0.60277 0.42973
 C95 C 0.49014 0.50980 0.48234
 C96 C 0.50919 0.48932 0.51705
 C97 C 0.53197 0.46490 0.55846
 C98 C 0.49843 0.39643 0.56979
 C99 C 0.52054 0.37262 0.60998
 C100 C 0.57664 0.41711 0.63946
 C101 C 0.61001 0.48591 0.62770
 C102 C 0.58777 0.50956 0.58748
 H103 H 0.38542 0.43650 0.42019
 H104 H 0.34621 0.47774 0.34973
 H105 H 0.50555 0.67990 0.38174
 H106 H 0.54405 0.63776 0.45206
 H107 H 0.45518 0.36142 0.54753
 H108 H 0.49372 0.31939 0.61790
 H109 H 0.65338 0.52153 0.64951
 H110 H 0.61412 0.56267 0.57901
 C111 C 0.46721 -0.06740 1.05833
 C112 C 0.41135 -0.07866 1.08701
 C113 C 0.38912 -0.12459 1.12708
 C114 C 0.42257 -0.15992 1.13904
 C115 C 0.47873 -0.14820 1.10990
 C116 C 0.50083 -0.10224 1.06985
 C117 C 0.48998 -0.02016 1.01706
 C118 C 0.50908 0.01942 0.98249
 C119 C 0.53192 0.06668 0.94125
 C120 C 0.49838 0.10161 0.92974
 C121 C 0.52054 0.14760 0.88970
 C122 C 0.57667 0.15925 0.86056
 C123 C 0.61003 0.12382 0.87249
 C124 C 0.58774 0.07787 0.91256
 H125 H 0.38494 -0.05197 1.07838
 H126 H 0.34571 -0.13242 1.14862
 H127 H 0.50561 -0.17455 1.11798
 H128 H 0.54412 -0.09391 1.04786
 H129 H 0.45511 0.09334 0.95174
 H130 H 0.49373 0.17401 0.88164
 H131 H 0.65342 0.13159 0.85094
 H132 H 0.61409 0.05110 0.92117
 C133 C 1.06858 0.53532 1.06029
 C134 C 1.07920 0.49081 1.08946
 C135 C 1.12518 0.51451 1.12978
 C136 C 1.16166 0.58363 1.14177
 C137 C 1.15016 0.62785 1.11178
 C138 C 1.10409 0.60378 1.07152
 C139 C 1.02127 0.51074 1.01877
 C140 C 0.98165 0.49017 0.98397
 C141 C 0.93435 0.46566 0.94245
 C142 C 0.89922 0.39721 0.93087
 C143 C 0.85316 0.37329 0.89059
 C144 C 0.84164 0.41766 0.86127
 C145 C 0.87728 0.48645 0.87327
 C146 C 0.92330 0.51020 0.91358
 H147 H 1.05192 0.43764 1.08102
 H148 H 1.13196 0.47831 1.15137
 H149 H 1.17668 0.68130 1.11915
 H150 H 1.09621 0.63868 1.04911
 H151 H 0.90738 0.36229 0.95301
 H152 H 0.82658 0.32007 0.88248
 H153 H 0.86961 0.52197 0.85160
 H154 H 0.95022 0.56330 0.92225
 C155 C 0.46468 0.53201 1.05815
 C156 C 0.39595 0.49861 1.06928
 C157 C 0.37200 0.52063 1.10932
 C158 C 0.41660 0.57645 1.13884
 C159 C 0.48566 0.60969 1.12728
 C160 C 0.50945 0.58755 1.08721
 C161 C 0.48925 0.50930 1.01692
 C162 C 0.50986 0.49029 0.98239
 C163 C 0.53448 0.46758 0.94119
 C164 C 0.48976 0.41190 0.91223
 C165 C 0.51358 0.38973 0.87221
 C166 C 0.58263 0.42308 0.86059
 C167 C 0.62718 0.47905 0.89001
 C168 C 0.60319 0.50109 0.93000
 H169 H 0.36085 0.45557 1.04699
 H170 H 0.31856 0.49392 1.11709
 H171 H 0.52138 0.65285 1.14912
 H172 H 0.56277 0.61378 1.07889
 H173 H 0.43645 0.38557 0.92059
 H174 H 0.47791 0.34646 0.85044
 H175 H 0.68060 0.50584 0.88219
 H176 H 0.63825 0.54425 0.95222
   
