data_POSCAR
  _audit_creation_date              2014-09-24
  _audit_creation_method            'ToBaCCo'
  _symmetry_space_group_name_H-M    'P1'
  _symmetry_Int_Tables_number       1
  _symmetry_cell_setting            triclinic
  loop_
  _symmetry_equiv_pos_as_xyz
 x,y,z
_cell_length_a 25.7662
_cell_length_b 25.4863
_cell_length_c 26.3750
_cell_angle_alpha 90.006700
_cell_angle_beta 89.614200
_cell_angle_gamma 90.317900
loop_
  _atom_site_label
  _atom_site_type_symbol
  _atom_site_fract_x
  _atom_site_fract_y
  _atom_site_fract_z
N1 N 0.18719 0.18899 0.18484
 N2 N -0.20133 0.81280 0.20788
 N3 N -0.19980 0.19822 -0.19790
 N4 N 0.20725 0.77945 -0.20764
 N5 N 0.18659 1.19708 0.80660
 N6 N 0.80947 0.81237 0.80569
 N7 N 0.20283 0.80221 1.20350
 N8 N 0.80276 1.18775 1.20683
 N9 N 0.43725 1.05254 0.90293
 N10 N 0.39509 1.05577 0.87465
 N11 N 0.54443 1.09710 0.93282
 N12 N 0.58101 1.13244 0.92441
 N13 N 0.54656 1.05960 0.89879
 N14 N 0.58453 1.06846 0.86605
 N15 N 0.43642 1.08881 0.93822
 N16 N 0.39453 1.11775 0.93504
 C17 C 0.36910 1.09687 0.89543
 C18 C 0.60549 1.11411 0.88264
 N19 N 0.55445 1.06583 1.07638
 N20 N 0.59503 1.07856 1.10456
 N21 N 0.44012 1.09175 1.04647
 N22 N 0.39692 1.11869 1.05232
 N23 N 0.44513 1.05735 1.08307
 N24 N 0.40555 1.05989 1.11492
 N25 N 0.54810 1.10092 1.04058
 N26 N 0.58310 1.13847 1.04345
 Mn27 Mn 0.49210 1.09500 0.98950
 C28 C 0.61223 1.12414 1.08314
 C29 C 0.37597 1.09838 1.09531
 N30 N 0.55392 0.94591 0.90115
 N31 N 0.59268 0.93911 0.86855
 N32 N 0.44656 0.90485 0.94062
 N33 N 0.40880 0.86998 0.93406
 N34 N 0.44513 0.94041 0.90461
 N35 N 0.40692 0.93110 0.87297
 N36 N 0.55622 0.91096 0.93773
 N37 N 0.59672 0.88020 0.93157
 Mn38 Mn 0.49591 0.99961 0.90119
 C39 C 0.61905 0.89791 0.88832
 C40 C 0.38448 0.88728 0.89158
 N41 N 0.45127 0.94499 1.08592
 N42 N 0.41225 0.93811 1.11812
 N43 N 0.56024 0.91394 1.04698
 N44 N 0.59980 0.88221 1.05504
 N45 N 0.56040 0.95232 1.08025
 N46 N 0.59971 0.94776 1.11172
 N47 N 0.45088 0.90809 1.05108
 N48 N 0.41202 0.87502 1.05887
 Mn49 Mn 0.50310 1.00513 1.08209
 Mn50 Mn 0.50332 0.90871 0.99412
 Cl51 Cl 0.49870 1.00190 0.99174
 C52 C 0.38830 0.89412 1.10086
 C53 C 0.62416 0.90401 1.09542
 N54 N -0.10619 0.44643 0.06437
 N55 N -0.13866 0.40639 0.07014
 N56 N -0.06820 0.55578 0.10161
 N57 N -0.07270 0.59565 0.13309
 N58 N -0.10385 0.55767 0.06630
 N59 N -0.13360 0.59925 0.07283
 N60 N -0.07062 0.44575 0.09986
 N61 N -0.07838 0.40584 0.13101
 C62 C -0.12094 0.38151 0.11204
 C63 C -0.11361 0.62230 0.11482
 N64 N 0.07944 0.55551 0.06628
 N65 N 0.11190 0.59514 0.07285
 N66 N 0.04147 0.44469 0.09981
 N67 N 0.04863 0.40523 0.13136
 N68 N 0.07788 0.44559 0.06480
 N69 N 0.11085 0.40699 0.07143
 N70 N 0.04345 0.55514 0.10176
 N71 N 0.05055 0.59460 0.13354
 Mn72 Mn -0.01353 0.50025 0.10135
 C73 C 0.09340 0.61917 0.11498
 C74 C 0.09205 0.38220 0.11299
 N75 N -0.10280 0.55993 -0.04387
 N76 N -0.13382 0.60052 -0.05084
 N77 N -0.06818 0.44922 -0.07986
 N78 N -0.07367 0.40927 -0.11106
 N79 N -0.10497 0.44905 -0.04518
 N80 N -0.13660 0.40872 -0.05188
 N81 N -0.06600 0.55948 -0.07860
 N82 N -0.07076 0.59968 -0.10979
 Mn83 Mn -0.10528 0.50334 0.01043
 C84 C -0.11326 0.62502 -0.09213
 C85 C -0.11654 0.38447 -0.09323
 N86 N 0.07909 0.44631 -0.04389
 N87 N 0.11177 0.40731 -0.05135
 N88 N 0.04519 0.55714 -0.07784
 N89 N 0.05371 0.59603 -0.10974
 N90 N 0.08070 0.55644 -0.04247
 N91 N 0.11457 0.59479 -0.04927
 N92 N 0.04349 0.44686 -0.07926
 N93 N 0.05108 0.40820 -0.11187
 Mn94 Mn 0.07979 0.50100 0.01120
 Mn95 Mn -0.01143 0.50312 -0.07943
 Cl96 Cl -0.01273 0.50191 0.01091
 C97 C 0.09379 0.38380 -0.09378
 C98 C 0.09697 0.61915 -0.09121
 N99 N 1.06083 0.10611 0.55028
 N100 N 1.06665 0.14010 0.58739
 N101 N 1.09369 0.06742 0.44365
 N102 N 1.12190 0.07145 0.40202
 N103 N 1.05645 0.10229 0.44413
 N104 N 1.05830 0.13119 0.40260
 N105 N 1.09848 0.07172 0.54991
 N106 N 1.13141 0.08162 0.58694
 C107 C 1.11083 0.12454 0.60975
 C108 C 1.09949 0.11150 0.37694
 N109 N 1.06369 -0.08263 0.44818
 N110 N 1.07012 -0.11522 0.40968
 N111 N 1.10285 -0.04081 0.55243
 N112 N 1.13569 -0.04150 0.59035
 N113 N 1.06969 -0.08012 0.55540
 N114 N 1.07992 -0.10918 0.59582
 N115 N 1.09842 -0.04473 0.44635
 N116 N 1.12940 -0.05053 0.40673
 Mn117 Mn 1.09888 0.01335 0.49813
 C118 C 1.11133 -0.09456 0.38421
 C119 C 1.12150 -0.08437 0.61687
 N120 N 0.94576 0.09793 0.45075
 N121 N 0.93743 0.12943 0.41221
 N122 N 0.91629 0.06283 0.56018
 N123 N 0.88771 0.06767 0.60152
 N124 N 0.95032 0.10117 0.55678
 N125 N 0.94574 0.13338 0.59573
 N126 N 0.91018 0.06099 0.45355
 N127 N 0.87609 0.06672 0.41666
 Mn128 Mn 1.00330 0.10237 0.50042
 C129 C 0.89395 0.10971 0.39133
 C130 C 0.90652 0.11190 0.62319
 N131 N 0.95659 -0.08588 0.56093
 N132 N 0.95234 -0.11847 0.59979
 N133 N 0.91385 -0.05210 0.45637
 N134 N 0.88058 -0.05809 0.41908
 N135 N 0.95094 -0.08724 0.45360
 N136 N 0.94368 -0.11806 0.41370
 N137 N 0.92022 -0.04997 0.56309
 N138 N 0.89095 -0.05659 0.60397
 Mn139 Mn 1.01025 -0.08491 0.50449
 Mn140 Mn 0.91450 0.00534 0.50840
 Cl141 Cl 1.00668 0.00883 0.50289
 C142 C 0.91136 -0.09958 0.62647
 C143 C 0.89930 -0.09932 0.39280
 C144 C 1.16684 0.17267 0.23312
 C145 C 1.17634 0.12527 0.25273
 C146 C 1.15636 0.10779 0.30249
 C147 C 1.11667 0.13038 0.32717
 H148 H 1.20094 0.09808 0.23235
 H149 H 1.17501 0.07383 0.31884
 H150 H 1.14256 0.20011 0.25348
 H151 H 1.09541 0.16262 0.31093
 C152 C 0.82059 -0.16461 0.25349
 C153 C 0.86924 -0.17544 0.26897
 C154 C 0.89374 -0.15597 0.31644
 C155 C 0.87364 -0.11886 0.34651
 H156 H 0.89328 -0.20092 0.24606
 H157 H 0.93096 -0.17264 0.32618
 H158 H 0.79640 -0.13860 0.27558
 H159 H 0.83749 -0.10023 0.33684
 C160 C 0.82482 0.17968 0.75635
 C161 C 0.83112 0.12837 0.74748
 C162 C 0.85352 0.10741 0.70020
 C163 C 0.88706 0.13403 0.67087
 H164 H 0.81654 0.10007 0.77476
 H165 H 0.84256 0.06768 0.69008
 H166 H 0.83871 0.20845 0.72924
 H167 H 0.90140 0.17228 0.68201
 C168 C 1.18841 -0.20793 0.74259
 C169 C 1.18048 -0.15864 0.72792
 C170 C 1.15133 -0.14746 0.68114
 C171 C 1.14755 -0.09845 0.66429
 H172 H 1.19317 -0.12653 0.75186
 H173 H 1.13367 -0.17932 0.66003
 H174 H 1.17348 -0.23960 0.71925
 H175 H 1.16770 -0.06726 0.68419
 C176 C 0.23518 1.16809 1.16530
 C177 C 0.24498 1.16558 1.11538
 C178 C 0.29465 1.14748 1.09380
 C179 C 0.32654 1.11472 1.11782
 H180 H 0.21648 1.17998 1.08890
 H181 H 0.30431 1.16076 1.05586
 H182 H 0.26368 1.15460 1.19218
 H183 H 0.31604 1.09808 1.15422
 C184 C 0.25285 0.80475 0.81307
 C185 C 0.26729 0.79801 0.86180
 C186 C 0.31413 0.82130 0.88542
 C187 C 0.33924 0.86308 0.86685
 H188 H 0.24439 0.77311 0.88656
 H189 H 0.32672 0.80448 0.92096
 H190 H 0.27592 0.82926 0.78808
 H191 H 0.32570 0.88204 0.83279
 C192 C 0.75113 0.83309 1.18703
 C193 C 0.74138 0.88453 1.18364
 C194 C 0.69486 0.90578 1.15812
 C195 C 0.67040 0.88150 1.11973
 H196 H 0.76793 0.91240 1.20061
 H197 H 0.68198 0.94423 1.17012
 H198 H 0.72381 0.80535 1.17098
 H199 H 0.68471 0.84466 1.10498
 C200 C 0.75556 1.17260 0.82400
 C201 C 0.72026 1.14730 0.79580
 C202 C 0.67367 1.12231 0.81787
 C203 C 0.65058 1.14027 0.85991
 H204 H 0.72604 1.14330 0.75532
 H205 H 0.65714 1.08921 0.79775
 H206 H 0.74985 1.17600 0.86457
 H207 H 0.66460 1.17541 0.87848
 C208 C 0.16111 0.23201 0.16115
 C209 C 0.18733 0.27197 0.14012
 C210 C 0.16164 0.31812 0.11864
 C211 C 0.11598 0.33603 0.13562
 H212 H 0.22924 0.27069 0.13751
 H213 H 0.18260 0.33932 0.08931
 H214 H 0.11917 0.23315 0.16375
 H215 H 0.09615 0.31759 0.16727
 C216 C -0.18278 0.24583 -0.17383
 C217 C -0.13456 0.26491 -0.17983
 C218 C -0.11543 0.31329 -0.15538
 C219 C -0.13820 0.33644 -0.11541
 H220 H -0.10741 0.24494 -0.20454
 H221 H -0.07969 0.32958 -0.17066
 H222 H -0.21011 0.26579 -0.14936
 H223 H -0.17253 0.32004 -0.09766
 C224 C 0.18288 0.73621 -0.18184
 C225 C 0.13126 0.72982 -0.18249
 C226 C 0.10447 0.68665 -0.15625
 C227 C 0.12341 0.66367 -0.11484
 H228 H 0.10755 0.75630 -0.20441
 H229 H 0.06713 0.67460 -0.17102
 H230 H 0.20704 0.70891 -0.16143
 H231 H 0.15901 0.67737 -0.09765
 C232 C -0.18237 0.76350 0.18845
 C233 C -0.18791 0.74995 0.13949
 C234 C -0.16986 0.69985 0.11763
 C235 C -0.13215 0.67107 0.13801
 H236 H -0.20767 0.77619 0.11387
 H237 H -0.18686 0.68774 0.08201
 H238 H -0.16375 0.73692 0.21448
 H239 H -0.11248 0.68402 0.17191
 C240 C 1.16573 0.17807 0.75942
 C241 C 1.19685 0.16260 0.72126
 C242 C 1.17733 0.13845 0.67438
 C243 C 1.13124 0.15035 0.65497
 H244 H 1.23855 0.16435 0.72573
 H245 H 1.20247 0.11107 0.65481
 H246 H 1.12399 0.17558 0.75567
 H247 H 1.10745 0.18045 0.67219
 C248 C 0.83403 -0.16949 0.76229
 C249 C 0.83456 -0.11632 0.74757
 C250 C 0.85699 -0.09611 0.70290
 C251 C 0.89266 -0.12214 0.67151
 H252 H 0.81537 -0.08782 0.77146
 H253 H 0.84753 -0.05582 0.69381
 H254 H 0.85577 -0.19662 0.73916
 H255 H 0.90889 -0.15926 0.68310
 C256 C 1.18400 -0.17463 0.25015
 C257 C 1.13418 -0.17911 0.26519
 C258 C 1.11309 -0.15699 0.31294
 C259 C 1.13430 -0.11629 0.33751
 H260 H 1.10713 -0.20125 0.24228
 H261 H 1.07702 -0.17377 0.32693
 H262 H 1.21123 -0.15326 0.27349
 H263 H 1.16857 -0.09687 0.32261
 C264 C 0.82594 0.17095 0.25084
 C265 C 0.80193 0.13549 0.28515
 C266 C 0.82471 0.11496 0.32883
 C267 C 0.87190 0.13190 0.34859
 H268 H 0.76263 0.12225 0.27854
 H269 H 0.80300 0.08498 0.34913
 H270 H 0.86432 0.18492 0.25951
 H271 H 0.89249 0.16479 0.33211
 C272 C 0.16235 0.23951 -0.16584
 C273 C 0.12693 0.27144 -0.18670
 C274 C 0.10181 0.31615 -0.16028
 C275 C 0.11909 0.33800 -0.11728
 H276 H 0.11477 0.26492 -0.22536
 H277 H 0.06839 0.33303 -0.17875
 H278 H 0.17418 0.24581 -0.12706
 H279 H 0.15347 0.32343 -0.09890
 C280 C -0.18017 0.23259 0.18204
 C281 C -0.14712 0.27067 0.20385
 C282 C -0.12772 0.31595 0.17964
 C283 C -0.14383 0.33623 0.13284
 H284 H -0.13430 0.26602 0.24246
 H285 H -0.09896 0.33804 0.20069
 H286 H -0.19190 0.23924 0.14339
 H287 H -0.17585 0.31847 0.11273
 C288 C -0.17363 0.76788 -0.16954
 C289 C -0.12685 0.74142 -0.18009
 C290 C -0.10939 0.69600 -0.15507
 C291 C -0.13364 0.67074 -0.11369
 H292 H -0.10094 0.75623 -0.20914
 H293 H -0.07324 0.67985 -0.16919
 H294 H -0.19723 0.75254 -0.13880
 H295 H -0.16854 0.68639 -0.09675
 C296 C 0.17925 0.75424 0.18527
 C297 C 0.18038 0.74058 0.13613
 C298 C 0.15618 0.69224 0.11569
 C299 C 0.11656 0.66649 0.13790
 H300 H 0.20099 0.76521 0.10921
 H301 H 0.17051 0.67890 0.07922
 H302 H 0.15943 0.72918 0.21235
 H303 H 0.09948 0.68075 0.17281
 C304 C 0.23224 1.17393 0.82838
 C305 C 0.24408 1.12293 0.82183
 C306 C 0.29264 1.09888 0.83981
 C307 C 0.31962 1.11835 0.87850
 H308 H 0.21858 1.09794 0.79995
 H309 H 0.30587 1.06362 0.82091
 H310 H 0.25745 1.19927 0.85015
 H311 H 0.30520 1.15161 0.89969
 C312 C 0.25061 0.82102 1.18049
 C313 C 0.26661 0.87117 1.18456
 C314 C 0.31521 0.89251 1.16185
 C315 C 0.34121 0.87018 1.12334
 H316 H 0.24360 0.89855 1.20641
 H317 H 0.32865 0.92987 1.17647
 H318 H 0.27374 0.79344 1.15904
 H319 H 0.32716 0.83433 1.10621
 C320 C 0.76531 1.15612 1.18561
 C321 C 0.72842 1.17284 1.15079
 C322 C 0.68873 1.13894 1.13574
 C323 C 0.65395 1.15455 1.09895
 H324 H 0.72853 1.21274 1.13679
 H325 H 0.68524 1.10011 1.15231
 H326 H 0.76197 1.11549 1.19747
 H327 H 0.66006 1.19197 1.08016
 C328 C 0.76632 0.83599 0.82675
 C329 C 0.73005 0.86619 0.79959
 C330 C 0.68473 0.88831 0.82054
 C331 C 0.66393 0.87538 0.86815
 H332 H 0.73616 0.87328 0.75960
 H333 H 0.66327 0.91508 0.79674
 H334 H 0.75730 0.82723 0.86593
 H335 H 0.68093 0.84451 0.89047
   
