data_POSCAR
  _audit_creation_date              2014-09-24
  _audit_creation_method            'ToBaCCo'
  _symmetry_space_group_name_H-M    'P1'
  _symmetry_Int_Tables_number       1
  _symmetry_cell_setting            triclinic
  loop_
  _symmetry_equiv_pos_as_xyz
 x,y,z
_cell_length_a 41.3085
_cell_length_b 48.6829
_cell_length_c 36.5093
_cell_angle_alpha 90.150400
_cell_angle_beta 89.786400
_cell_angle_gamma 90.195100
loop_
  _atom_site_label
  _atom_site_type_symbol
  _atom_site_fract_x
  _atom_site_fract_y
  _atom_site_fract_z
C1 C 1.25501 0.25040 0.24602
 C2 C 0.75179 -0.25434 0.25435
 C3 C 0.75121 0.25401 -0.23891
 C4 C 1.24759 -0.25364 -0.25171
 C5 C 0.25172 0.25476 0.75932
 C6 C 0.75306 0.74923 0.74191
 C7 C 0.74742 0.25281 0.24050
 C8 C 0.24918 0.75129 0.25214
 O9 O 1.04397 -0.04058 0.07773
 O10 O 1.02056 -0.07094 0.03747
 C11 C 1.03770 -0.06528 0.06628
 O12 O 0.93054 0.03752 0.04809
 O13 O 0.96867 0.06764 0.02577
 C14 C 0.94156 0.06217 0.04226
 O15 O 0.93186 -0.03923 0.05328
 O16 O 0.96612 -0.07036 0.02639
 C17 C 0.94089 -0.06419 0.04607
 O18 O 1.04884 0.03579 0.07540
 O19 O 1.02518 0.06682 0.03677
 C20 C 1.04352 0.06066 0.06433
 Zr21 Zr 1.03215 -0.00215 0.05472
 O22 O 1.02138 0.00095 0.11135
 O23 O 1.08218 -0.00541 0.06630
 Zr24 Zr 0.95258 -0.00105 0.03846
 O25 O 0.94792 0.00226 0.09613
 O26 O 0.90154 -0.00185 0.03488
 O27 O 0.99064 -0.02648 0.05354
 O28 O 0.99181 0.02273 0.05318
 O29 O 1.07053 0.03554 -0.04682
 O30 O 1.03455 0.06676 -0.02317
 C31 C 1.06123 0.06049 -0.04014
 O32 O 0.95461 -0.03937 -0.07640
 O33 O 0.97630 -0.07031 -0.03607
 C34 C 0.95992 -0.06423 -0.06520
 O35 O 0.95125 0.03705 -0.07221
 O36 O 0.97688 0.06748 -0.03402
 C37 C 0.95729 0.06179 -0.06077
 O38 O 1.06583 -0.04059 -0.05239
 O39 O 1.03082 -0.07101 -0.02502
 C40 C 1.05612 -0.06533 -0.04489
 Zr41 Zr 1.04696 -0.00219 -0.03652
 O42 O 1.05044 -0.00084 -0.09423
 O43 O 1.09795 -0.00402 -0.03242
 Zr44 Zr 0.96746 -0.00127 -0.05276
 O45 O 0.97849 0.00179 -0.10930
 O46 O 0.91742 -0.00369 -0.06474
 Zr47 Zr 0.99897 -0.04297 0.00082
 Zr48 Zr 1.00073 0.03961 0.00108
 O49 O 1.00882 0.02268 -0.05116
 O50 O 1.00791 -0.02661 -0.05171
 O51 O 1.04653 0.02205 0.01057
 O52 O 0.95350 -0.02490 -0.00853
 O53 O 1.04513 -0.02602 0.01024
 O54 O 0.95415 0.02317 -0.00839
 H55 H 0.98859 0.03551 0.07404
 H56 H 0.93437 -0.03680 -0.01276
 H57 H 1.01241 0.03549 -0.07186
 H58 H 1.06383 -0.03833 0.01419
 H59 H 0.89620 -0.00465 0.00879
 H60 H 0.90624 0.00983 -0.04890
 H61 H 0.99270 -0.01384 -0.11574
 H62 H 1.07389 -0.00057 -0.09999
 H63 H 1.10299 -0.00629 -0.00620
 H64 H 1.09357 0.00874 0.05167
 H65 H 1.00793 -0.01513 0.11809
 H66 H 0.95184 -0.01611 0.10672
 O67 O 1.04833 0.45696 0.57149
 O68 O 1.02380 0.42615 0.53269
 C69 C 1.04155 0.43215 0.56089
 O70 O 0.93470 0.53423 0.54931
 O71 O 0.97024 0.56434 0.52225
 C72 C 0.94434 0.55883 0.54107
 O73 O 0.93652 0.45790 0.55537
 O74 O 0.96902 0.42665 0.52599
 C75 C 0.94502 0.43294 0.54740
 O76 O 1.05531 0.53317 0.56531
 O77 O 1.02781 0.56381 0.52950
 C78 C 1.04892 0.55793 0.55450
 Zr79 Zr 1.03598 0.49507 0.54823
 O80 O 1.02530 0.49778 0.60477
 O81 O 1.08608 0.49159 0.55896
 Zr82 Zr 0.95569 0.49582 0.53752
 O83 O 0.95265 0.49950 0.59525
 O84 O 0.90463 0.49331 0.53469
 O85 O 0.99463 0.47072 0.55030
 O86 O 0.99561 0.51993 0.54914
 O87 O 1.06765 0.53202 0.44213
 O88 O 1.03351 0.56323 0.46906
 C89 C 1.05888 0.55696 0.44975
 O90 O 0.95150 0.45606 0.42392
 O91 O 0.97559 0.42578 0.46331
 C92 C 0.95782 0.43137 0.43515
 O93 O 0.94738 0.53295 0.42745
 O94 O 0.97621 0.56368 0.46220
 C95 C 0.95472 0.55778 0.43756
 O96 O 1.06183 0.45553 0.43716
 O97 O 1.02967 0.42554 0.46929
 C98 C 1.05222 0.43094 0.44558
 Zr99 Zr 1.04604 0.49413 0.45636
 O100 O 1.05212 0.49731 0.39892
 O101 O 1.09670 0.48985 0.46282
 Zr102 Zr 0.96547 0.49474 0.44541
 O103 O 0.97422 0.49795 0.38835
 O104 O 0.91521 0.49160 0.43519
 Zr105 Zr 1.00002 0.45378 0.49748
 Zr106 Zr 1.00149 0.53619 0.49621
 O107 O 1.00683 0.51859 0.44385
 O108 O 1.00603 0.46971 0.44414
 O109 O 1.04787 0.51889 0.50276
 O110 O 0.95403 0.47160 0.49100
 O111 O 1.04667 0.47064 0.50339
 O112 O 0.95453 0.51957 0.49026
 H113 H 0.99368 0.53300 0.56988
 H114 H 0.93465 0.45970 0.48853
 H115 H 1.00915 0.53111 0.42263
 H116 H 1.06540 0.45814 0.50590
 H117 H 0.89783 0.50453 0.51358
 H118 H 0.90415 0.50376 0.45294
 H119 H 0.98372 0.48040 0.37992
 H120 H 1.03889 0.48267 0.38749
 H121 H 1.10433 0.50522 0.47834
 H122 H 1.09754 0.50159 0.53927
 H123 H 1.04645 0.49787 0.61747
 H124 H 0.96322 0.48317 0.60594
 O125 O 0.54854 -0.03733 0.57538
 O126 O 0.52323 -0.06722 0.53598
 C127 C 0.54137 -0.06190 0.56410
 O128 O 0.43517 0.04115 0.55684
 O129 O 0.47084 0.07181 0.53095
 C130 C 0.44512 0.06596 0.55008
 O131 O 0.43626 -0.03541 0.55967
 O132 O 0.46815 -0.06634 0.52881
 C133 C 0.44455 -0.06031 0.55101
 O134 O 0.55520 0.03894 0.57295
 O135 O 0.52856 0.07072 0.53808
 C136 C 0.54919 0.06404 0.56334
 Zr137 Zr 0.53607 0.00140 0.55379
 O138 O 0.52790 0.00446 0.61098
 O139 O 0.58635 -0.00277 0.56299
 Zr140 Zr 0.45570 0.00284 0.54312
 O141 O 0.45236 0.00561 0.60094
 O142 O 0.40466 0.00080 0.53962
 O143 O 0.49446 -0.02278 0.55501
 O144 O 0.49583 0.02637 0.55568
 O145 O 0.56715 0.04046 0.44824
 O146 O 0.53405 0.07154 0.47707
 C147 C 0.55871 0.06541 0.45640
 O148 O 0.45153 -0.03416 0.42729
 O149 O 0.47491 -0.06561 0.46567
 C150 C 0.45717 -0.05918 0.43767
 O151 O 0.45057 0.04231 0.43172
 O152 O 0.47712 0.07224 0.47001
 C153 C 0.45778 0.06689 0.44292
 O154 O 0.56314 -0.03596 0.44290
 O155 O 0.53015 -0.06663 0.47286
 C156 C 0.55392 -0.06079 0.45070
 Zr157 Zr 0.54594 0.00228 0.46192
 O158 O 0.54846 0.00405 0.40414
 O159 O 0.59686 -0.00110 0.46641
 Zr160 Zr 0.46550 0.00361 0.45125
 O161 O 0.47204 0.00657 0.39386
 O162 O 0.41462 0.00157 0.44475
 Zr163 Zr 0.49979 -0.03880 0.50155
 Zr164 Zr 0.50190 0.04391 0.50350
 O165 O 0.50708 0.02720 0.45057
 O166 O 0.50591 -0.02178 0.44897
 O167 O 0.54813 0.02617 0.50923
 O168 O 0.45395 -0.02053 0.49582
 O169 O 0.54647 -0.02209 0.50810
 O170 O 0.45477 0.02783 0.49683
 H171 H 0.49399 0.03892 0.57700
 H172 H 0.43455 -0.03233 0.49286
 H173 H 0.50974 0.03973 0.42942
 H174 H 0.56533 -0.03449 0.51038
 H175 H 0.39832 0.01186 0.51817
 H176 H 0.40515 0.01777 0.45715
 H177 H 0.48902 -0.00676 0.38686
 H178 H 0.57180 0.00400 0.39778
 H179 H 0.60412 0.01279 0.48443
 H180 H 0.59757 0.00945 0.54544
 H181 H 0.51572 -0.01208 0.61871
 H182 H 0.45994 -0.01200 0.61124
 O183 O 0.54976 0.54583 0.07107
 O184 O 0.58353 0.52467 0.02957
 C185 C 0.57818 0.54039 0.05776
 O186 O 0.45747 0.45018 0.05812
 O187 O 0.41958 0.47876 0.03253
 C188 C 0.42793 0.45821 0.05321
 O189 O 0.54680 0.44956 0.05239
 O190 O 0.58236 0.47719 0.02053
 C191 C 0.57568 0.45655 0.04185
 O192 O 0.46009 0.54972 0.07441
 O193 O 0.42118 0.52822 0.03978
 C194 C 0.43018 0.54497 0.06563
 Zr195 Zr 0.50355 0.53457 0.05169
 O196 O 0.50522 0.52514 0.10813
 O197 O 0.50748 0.57730 0.06168
 Zr198 Zr 0.50152 0.46687 0.03992
 O199 O 0.50498 0.46683 0.09765
 O200 O 0.50017 0.42345 0.03829
 O201 O 0.53235 0.49964 0.05060
 O202 O 0.47404 0.50049 0.05441
 O203 O 0.45414 0.56331 -0.04713
 O204 O 0.41797 0.53371 -0.01987
 C205 C 0.42504 0.55596 -0.03792
 O206 O 0.53976 0.46275 -0.07723
 O207 O 0.57872 0.48352 -0.04199
 C208 C 0.56970 0.46738 -0.06856
 O209 O 0.45077 0.46255 -0.06952
 O210 O 0.41662 0.48397 -0.02875
 C211 C 0.42223 0.46796 -0.05669
 O212 O 0.54301 0.55927 -0.05919
 O213 O 0.58070 0.53097 -0.03283
 C214 C 0.57260 0.55198 -0.05269
 Zr215 Zr 0.49873 0.54335 -0.04004
 O216 O 0.49401 0.54366 -0.09763
 O217 O 0.50101 0.58674 -0.03973
 Zr218 Zr 0.49657 0.47559 -0.05173
 O219 O 0.49104 0.48252 -0.10862
 O220 O 0.49752 0.43253 -0.06002
 Zr221 Zr 0.54887 0.50452 -0.00373
 Zr222 Zr 0.45120 0.50563 0.00350
 O223 O 0.46848 0.51061 -0.05034
 O224 O 0.52673 0.50984 -0.05518
 O225 O 0.47278 0.54478 0.00892
 O226 O 0.52680 0.46567 -0.00895
 O227 O 0.52921 0.54386 0.00472
 O228 O 0.47010 0.46591 -0.00470
 H229 H 0.46050 0.49889 0.07678
 H230 H 0.54021 0.44913 -0.01308
 H231 H 0.45247 0.51320 -0.07018
 H232 H 0.54359 0.56009 0.00694
 H233 H 0.50455 0.41793 0.01270
 H234 H 0.48108 0.42430 -0.04353
 H235 H 0.50935 0.49417 -0.11683
 H236 H 0.49301 0.56327 -0.10471
 H237 H 0.50532 0.59236 -0.01419
 H238 H 0.49177 0.58652 0.04546
 H239 H 0.50561 0.54301 0.12119
 H240 H 0.50414 0.44729 0.10513
 C241 C 1.18860 0.19545 0.18741
 C242 C 1.20864 0.18533 0.21517
 C243 C 1.23056 0.20249 0.23301
 C244 C 1.23400 0.23039 0.22308
 C245 C 1.21294 0.24056 0.19586
 C246 C 1.19105 0.22327 0.17782
 C247 C 1.16462 0.17705 0.16978
 N248 N 1.14745 0.18511 0.13999
 N249 N 1.12615 0.16814 0.12431
 C250 C 1.12107 0.14252 0.13794
 N251 N 1.13813 0.13464 0.16778
 N252 N 1.15941 0.15150 0.18334
 C253 C 1.09849 0.12292 0.12020
 C254 C 1.09289 0.09716 0.13629
 C255 C 1.07406 0.07747 0.11862
 C256 C 1.06019 0.08298 0.08438
 C257 C 1.06448 0.10914 0.06885
 C258 C 1.08353 0.12896 0.08661
 H259 H 1.20702 0.16410 0.22381
 H260 H 1.24385 0.19379 0.25560
 H261 H 1.21301 0.26215 0.18891
 H262 H 1.17546 0.23188 0.15705
 H263 H 1.10367 0.09185 0.16231
 H264 H 1.07095 0.05764 0.13157
 H265 H 1.05413 0.11395 0.04242
 H266 H 1.08727 0.14867 0.07355
 C267 C 1.18826 0.70118 0.66922
 C268 C 1.17496 0.72378 0.68783
 C269 C 1.19383 0.73917 0.71219
 C270 C 1.22621 0.73173 0.71946
 C271 C 1.24017 0.71106 0.69743
 C272 C 1.22140 0.69572 0.67319
 C273 C 1.16758 0.68213 0.64791
 N274 N 1.17948 0.65748 0.63701
 N275 N 1.16048 0.63900 0.62095
 C276 C 1.12873 0.64434 0.61496
 N277 N 1.11683 0.66922 0.62514
 N278 N 1.13587 0.68772 0.64145
 C279 C 1.10754 0.62271 0.59961
 C280 C 1.07794 0.62903 0.58276
 C281 C 1.05852 0.60805 0.56813
 C282 C 1.06815 0.58045 0.57084
 C283 C 1.09750 0.57429 0.58823
 C284 C 1.11701 0.59513 0.60219
 H285 H 1.14974 0.72913 0.68442
 H286 H 1.18270 0.75662 0.72546
 H287 H 1.26551 0.70589 0.70036
 H288 H 1.23276 0.67902 0.65836
 H289 H 1.07007 0.65014 0.58042
 H290 H 1.03604 0.61339 0.55478
 H291 H 1.10582 0.55328 0.59050
 H292 H 1.13951 0.58955 0.61531
 C293 C 0.68696 0.20183 0.69465
 C294 C 0.67589 0.22737 0.70751
 C295 C 0.69603 0.24431 0.72875
 C296 C 0.72744 0.23573 0.73887
 C297 C 0.73898 0.21108 0.72320
 C298 C 0.71898 0.19422 0.70221
 C299 C 0.66566 0.18282 0.67375
 N300 N 0.67561 0.15678 0.66686
 N301 N 0.65670 0.13913 0.64907
 C302 C 0.62694 0.14665 0.63719
 N303 N 0.61692 0.17280 0.64375
 N304 N 0.63588 0.19052 0.66177
 C305 C 0.60606 0.12617 0.61834
 C306 C 0.57852 0.13383 0.59820
 C307 C 0.55977 0.11384 0.58007
 C308 C 0.56803 0.08586 0.58227
 C309 C 0.59537 0.07842 0.60274
 C310 C 0.61410 0.09822 0.62033
 H311 H 0.65166 0.23428 0.70121
 H312 H 0.68692 0.26423 0.73673
 H313 H 0.76372 0.20462 0.72757
 H314 H 0.72883 0.17514 0.69179
 H315 H 0.57171 0.15522 0.59610
 H316 H 0.53884 0.12023 0.56453
 H317 H 0.60270 0.05716 0.60495
 H318 H 0.63496 0.09146 0.63571
 C319 C 0.70707 0.68064 0.18736
 C320 C 0.69637 0.70793 0.18488
 C321 C 0.71047 0.72856 0.20659
 C322 C 0.73543 0.72243 0.23163
 C323 C 0.74743 0.69520 0.23149
 C324 C 0.73294 0.67464 0.21057
 C325 C 0.69153 0.65817 0.16635
 N326 N 0.69152 0.63215 0.17972
 N327 N 0.67734 0.61174 0.16142
 C328 C 0.66299 0.61641 0.12866
 N329 N 0.66322 0.64239 0.11504
 N330 N 0.67712 0.66290 0.13358
 C331 C 0.64550 0.59404 0.10955
 C332 C 0.64219 0.59418 0.07124
 C333 C 0.62257 0.57464 0.05381
 C334 C 0.60539 0.55519 0.07454
 C335 C 0.60967 0.55434 0.11258
 C336 C 0.63003 0.57329 0.12988
 H337 H 0.67675 0.71324 0.16665
 H338 H 0.70175 0.74942 0.20404
 H339 H 0.76853 0.68939 0.24699
 H340 H 0.74252 0.65399 0.21203
 H341 H 0.65399 0.60986 0.05494
 H342 H 0.61898 0.57597 0.02448
 H343 H 0.59613 0.53977 0.12903
 H344 H 0.63208 0.57275 0.15944
 C345 C 0.80399 -0.20376 0.17365
 C346 C 0.81387 -0.23077 0.18098
 C347 C 0.79647 -0.24713 0.20577
 C348 C 0.76971 -0.23651 0.22540
 C349 C 0.75836 -0.21030 0.21508
 C350 C 0.77541 -0.19415 0.19010
 C351 C 0.82349 -0.18513 0.15007
 N352 N 0.81226 -0.15970 0.14201
 N353 N 0.83029 -0.14197 0.12318
 C354 C 0.86045 -0.14878 0.11151
 N355 N 0.87165 -0.17438 0.11907
 N356 N 0.85353 -0.19219 0.13798
 C357 C 0.88094 -0.12796 0.09270
 C358 C 0.91204 -0.13429 0.07925
 C359 C 0.93153 -0.11381 0.06333
 C360 C 0.92036 -0.08661 0.06095
 C361 C 0.88908 -0.08055 0.07378
 C362 C 0.86965 -0.10089 0.08927
 H363 H 0.83522 -0.23917 0.16789
 H364 H 0.80467 -0.26789 0.21074
 H365 H 0.73621 -0.20190 0.22618
 H366 H 0.76633 -0.17380 0.18421
 H367 H 0.92146 -0.15494 0.08139
 H368 H 0.95552 -0.11912 0.05364
 H369 H 0.87949 -0.05991 0.07203
 H370 H 0.84587 -0.09516 0.09917
 C371 C 0.80752 0.29559 0.67564
 C372 C 0.77561 0.30335 0.68378
 C373 C 0.75781 0.28948 0.71040
 C374 C 0.77154 0.26778 0.73053
 C375 C 0.80231 0.25820 0.71943
 C376 C 0.82034 0.27230 0.69290
 C377 C 0.82754 0.31284 0.65097
 N378 N 0.85952 0.30764 0.64552
 N379 N 0.87796 0.32495 0.62625
 C380 C 0.86512 0.34818 0.61180
 N381 N 0.83306 0.35299 0.61664
 N382 N 0.81470 0.33572 0.63577
 C383 C 0.88570 0.36906 0.59363
 C384 C 0.87370 0.39576 0.58886
 C385 C 0.89314 0.41627 0.57393
 C386 C 0.92501 0.41061 0.56290
 C387 C 0.93697 0.38378 0.56671
 C388 C 0.91753 0.36319 0.58230
 H389 H 0.76450 0.32071 0.67033
 H390 H 0.73342 0.29636 0.71618
 H391 H 0.81277 0.23999 0.73136
 H392 H 0.84449 0.26520 0.68632
 H393 H 0.84936 0.40107 0.59735
 H394 H 0.88305 0.43664 0.57090
 H395 H 0.96145 0.37886 0.55830
 H396 H 0.92741 0.34277 0.58557
 C397 C 0.31009 -0.20172 0.67944
 C398 C 0.32315 -0.22506 0.69643
 C399 C 0.30364 -0.24213 0.71833
 C400 C 0.27069 -0.23586 0.72454
 C401 C 0.25755 -0.21340 0.70538
 C402 C 0.27690 -0.19646 0.68373
 C403 C 0.33053 -0.18241 0.65787
 N404 N 0.31779 -0.15844 0.64580
 N405 N 0.33586 -0.14038 0.62758
 C406 C 0.36755 -0.14543 0.62043
 N407 N 0.38039 -0.16955 0.63217
 N408 N 0.36225 -0.18765 0.65058
 C409 C 0.38754 -0.12435 0.60148
 C410 C 0.41858 -0.13027 0.58755
 C411 C 0.43711 -0.10972 0.57036
 C412 C 0.42508 -0.08283 0.56735
 C413 C 0.39400 -0.07711 0.58105
 C414 C 0.37547 -0.09756 0.59766
 H415 H 0.34849 -0.23009 0.69299
 H416 H 0.31452 -0.26026 0.72994
 H417 H 0.23205 -0.20860 0.70786
 H418 H 0.26570 -0.17906 0.67047
 H419 H 0.42854 -0.15073 0.58995
 H420 H 0.46102 -0.11471 0.56012
 H421 H 0.38385 -0.05669 0.57894
 H422 H 0.35174 -0.09216 0.60805
 C423 C 0.30715 0.31395 0.18511
 C424 C 0.29384 0.29158 0.16589
 C425 C 0.27878 0.26996 0.18478
 C426 C 0.27544 0.27093 0.22326
 C427 C 0.29143 0.29229 0.24221
 C428 C 0.30675 0.31351 0.22350
 C429 C 0.32136 0.33786 0.16585
 N430 N 0.33936 0.35642 0.18473
 N431 N 0.35227 0.37807 0.16802
 C432 C 0.34750 0.38233 0.13175
 N433 N 0.32915 0.36398 0.11277
 N434 N 0.31629 0.34217 0.12953
 C435 C 0.36473 0.40500 0.11307
 C436 C 0.35486 0.41496 0.07873
 C437 C 0.37394 0.43430 0.05993
 C438 C 0.40351 0.44305 0.07473
 C439 C 0.41214 0.43434 0.10997
 C440 C 0.39289 0.41577 0.12903
 H441 H 0.29493 0.29084 0.13626
 H442 H 0.26945 0.25293 0.16897
 H443 H 0.29052 0.29329 0.27183
 H444 H 0.31737 0.33006 0.23931
 H445 H 0.33289 0.40736 0.06613
 H446 H 0.36641 0.44130 0.03333
 H447 H 0.43461 0.44116 0.12232
 H448 H 0.40112 0.40874 0.15552
 C449 C 0.81106 0.20355 -0.16666
 C450 C 0.77950 0.19526 -0.17576
 C451 C 0.75980 0.21195 -0.19718
 C452 C 0.77160 0.23688 -0.21175
 C453 C 0.80164 0.24662 -0.19851
 C454 C 0.82139 0.22996 -0.17685
 C455 C 0.83337 0.18393 -0.14877
 N456 N 0.86229 0.19218 -0.13471
 N457 N 0.88295 0.17392 -0.12089
 C458 C 0.87563 0.14666 -0.12100
 N459 N 0.84666 0.13855 -0.13481
 N460 N 0.82601 0.15675 -0.14834
 C461 C 0.89862 0.12583 -0.10721
 C462 C 0.89534 0.09842 -0.11864
 C463 C 0.91537 0.07807 -0.10466
 C464 C 0.93915 0.08442 -0.07848
 C465 C 0.94319 0.11201 -0.06772
 C466 C 0.92322 0.13258 -0.08218
 H467 H 0.77016 0.17553 -0.16697
 H468 H 0.73560 0.20474 -0.20326
 H469 H 0.81062 0.26666 -0.20642
 H470 H 0.84520 0.23737 -0.16930
 H471 H 0.87696 0.09255 -0.13828
 H472 H 0.91146 0.05713 -0.11374
 H473 H 0.96122 0.11761 -0.04755
 H474 H 0.92637 0.15357 -0.07294
 C475 C 0.81505 0.70382 0.33207
 C476 C 0.78142 0.69971 0.33250
 C477 C 0.76149 0.71457 0.30918
 C478 C 0.77462 0.73333 0.28367
 C479 C 0.80782 0.74002 0.28698
 C480 C 0.82787 0.72509 0.31046
 C481 C 0.83643 0.68433 0.35146
 N482 N 0.86874 0.68909 0.35493
 N483 N 0.88809 0.67011 0.36938
 C484 C 0.87591 0.64553 0.38050
 N485 N 0.84361 0.64098 0.37742
 N486 N 0.82431 0.65995 0.36327
 C487 C 0.89716 0.62344 0.39411
 C488 C 0.88690 0.59600 0.39140
 C489 C 0.90618 0.57480 0.40447
 C490 C 0.93606 0.58048 0.42113
 C491 C 0.94659 0.60794 0.42366
 C492 C 0.92742 0.62924 0.40988
 H493 H 0.77053 0.68414 0.34978
 H494 H 0.73581 0.71000 0.30915
 H495 H 0.81877 0.75626 0.27108
 H496 H 0.85358 0.72948 0.31054
 H497 H 0.86387 0.59083 0.37905
 H498 H 0.89719 0.55393 0.40234
 H499 H 0.96949 0.61293 0.43644
 H500 H 0.93591 0.65024 0.41229
 C501 C 0.32891 0.20513 0.30697
 C502 C 0.30975 0.22465 0.32528
 C503 C 0.28632 0.23965 0.30631
 C504 C 0.28075 0.23491 0.26866
 C505 C 0.30185 0.21683 0.25014
 C506 C 0.32516 0.20191 0.26900
 C507 C 0.35194 0.18745 0.32714
 N508 N 0.36779 0.16699 0.30933
 N509 N 0.38688 0.14980 0.32741
 C510 C 0.39108 0.15231 0.36412
 N511 N 0.37565 0.17305 0.38197
 N512 N 0.35643 0.19025 0.36385
 C513 C 0.41034 0.13163 0.38420
 C514 C 0.41952 0.13567 0.42093
 C515 C 0.43603 0.11504 0.43998
 C516 C 0.44305 0.08990 0.42275
 C517 C 0.43445 0.08617 0.38592
 C518 C 0.41854 0.10681 0.36683
 H519 H 0.31265 0.22822 0.35437
 H520 H 0.27298 0.25505 0.32135
 H521 H 0.29963 0.21374 0.22086
 H522 H 0.33998 0.18756 0.25372
 H523 H 0.41364 0.15461 0.43503
 H524 H 0.44233 0.11837 0.46842
 H525 H 0.43981 0.06710 0.37183
 H526 H 0.41188 0.10292 0.33862
 C527 C 0.29337 0.68880 -0.17543
 C528 C 0.26708 0.68039 -0.19694
 C529 C 0.25274 0.69846 -0.22159
 C530 C 0.26493 0.72540 -0.22670
 C531 C 0.29034 0.73406 -0.20362
 C532 C 0.30465 0.71596 -0.17881
 C533 C 0.30883 0.66932 -0.14968
 N534 N 0.33325 0.67772 -0.12751
 N535 N 0.34799 0.66003 -0.10545
 C536 C 0.33897 0.63316 -0.10446
 N537 N 0.31431 0.62479 -0.12636
 N538 N 0.29952 0.64251 -0.14843
 C539 C 0.35756 0.61321 -0.08223
 C540 C 0.35021 0.58489 -0.08272
 C541 C 0.37088 0.56593 -0.06584
 C542 C 0.39925 0.57508 -0.04865
 C543 C 0.40538 0.60338 -0.04614
 C544 C 0.38473 0.62222 -0.06249
 H545 H 0.25715 0.65987 -0.19439
 H546 H 0.23150 0.69122 -0.23592
 H547 H 0.29911 0.75502 -0.20475
 H548 H 0.32449 0.72335 -0.16215
 H549 H 0.32933 0.57727 -0.09746
 H550 H 0.36582 0.54416 -0.06822
 H551 H 0.42704 0.61090 -0.03272
 H552 H 0.39100 0.64381 -0.06106
 C553 C 1.19248 -0.20374 -0.17311
 C554 C 1.22150 -0.19382 -0.18831
 C555 C 1.23918 -0.20965 -0.21307
 C556 C 1.22805 -0.23577 -0.22434
 C557 C 1.20046 -0.24657 -0.20636
 C558 C 1.18246 -0.23053 -0.18182
 C559 C 1.17280 -0.18569 -0.14910
 N560 N 1.14195 -0.19244 -0.13939
 N561 N 1.12377 -0.17500 -0.12001
 C562 C 1.13576 -0.15015 -0.10957
 N563 N 1.16672 -0.14373 -0.11880
 N564 N 1.18480 -0.16107 -0.13812
 C565 C 1.11533 -0.12950 -0.09058
 C566 C 1.12774 -0.10299 -0.08451
 C567 C 1.10845 -0.08256 -0.06931
 C568 C 1.07621 -0.08800 -0.05935
 C569 C 1.06388 -0.11472 -0.06409
 C570 C 1.08324 -0.13529 -0.07983
 H571 H 1.23054 -0.17355 -0.18144
 H572 H 1.26175 -0.20120 -0.22314
 H573 H 1.19235 -0.26731 -0.21204
 H574 H 1.16070 -0.23912 -0.16975
 H575 H 1.15232 -0.09771 -0.09221
 H576 H 1.11890 -0.06231 -0.06552
 H577 H 1.03911 -0.11948 -0.05656
 H578 H 1.07298 -0.15555 -0.08403
 C579 C 1.17924 0.29366 0.30726
 C580 C 1.18912 0.26743 0.31839
 C581 C 1.21340 0.25350 0.29890
 C582 C 1.22967 0.26615 0.26923
 C583 C 1.21816 0.29196 0.25753
 C584 C 1.19374 0.30548 0.27634
 C585 C 1.15446 0.30951 0.32736
 N586 N 1.13992 0.33094 0.31053
 N587 N 1.12074 0.34782 0.32906
 C588 C 1.11518 0.34406 0.36530
 N589 N 1.12875 0.32202 0.38208
 N590 N 1.14808 0.30503 0.36342
 C591 C 1.09759 0.36536 0.38612
 C592 C 1.08424 0.36024 0.42092
 C593 C 1.06888 0.38140 0.44042
 C594 C 1.06749 0.40802 0.42569
 C595 C 1.08072 0.41293 0.39091
 C596 C 1.09533 0.39187 0.37129
 H597 H 1.17776 0.25755 0.34169
 H598 H 1.21960 0.23283 0.30711
 H599 H 1.22742 0.30186 0.23315
 H600 H 1.18641 0.32549 0.26657
 H601 H 1.08563 0.33997 0.43295
 H602 H 1.05866 0.37710 0.46715
 H603 H 1.07962 0.43315 0.37862
 H604 H 1.10553 0.39663 0.34467
 C605 C 0.68750 -0.20248 0.32132
 C606 C 0.72078 -0.19710 0.31791
 C607 C 0.74057 -0.21401 0.29679
 C608 C 0.72792 -0.23672 0.27740
 C609 C 0.69474 -0.24298 0.28243
 C610 C 0.67477 -0.22590 0.30381
 C611 C 0.66675 -0.18317 0.34256
 N612 N 0.63488 -0.18841 0.34928
 N613 N 0.61664 -0.17032 0.36757
 C614 C 0.62951 -0.14621 0.37975
 N615 N 0.66133 -0.14118 0.37316
 N616 N 0.67949 -0.15921 0.35508
 C617 C 0.60957 -0.12507 0.39869
 C618 C 0.62192 -0.09830 0.40260
 C619 C 0.60375 -0.07782 0.41954
 C620 C 0.57269 -0.08342 0.43353
 C621 C 0.56029 -0.11027 0.43029
 C622 C 0.57849 -0.13089 0.41274
 H623 H 0.73175 -0.17961 0.33148
 H624 H 0.76610 -0.20902 0.29492
 H625 H 0.68401 -0.26111 0.27039
 H626 H 0.64933 -0.23097 0.30646
 H627 H 0.64566 -0.09294 0.39213
 H628 H 0.61425 -0.05747 0.42178
 H629 H 0.53642 -0.11521 0.44076
 H630 H 0.56832 -0.15134 0.41029
 C631 C 0.70419 0.31773 -0.17258
 C632 C 0.68991 0.29162 -0.17606
 C633 C 0.70559 0.27073 -0.19565
 C634 C 0.73484 0.27602 -0.21444
 C635 C 0.75039 0.30144 -0.20752
 C636 C 0.73518 0.32203 -0.18720
 C637 C 0.68620 0.34085 -0.15587
 N638 N 0.70203 0.36270 -0.14094
 N639 N 0.68570 0.38436 -0.12829
 C640 C 0.65292 0.38519 -0.13068
 N641 N 0.63715 0.36328 -0.14542
 N642 N 0.65342 0.34155 -0.15767
 C643 C 0.63437 0.40933 -0.11782
 C644 C 0.60452 0.41533 -0.13404
 C645 C 0.58484 0.43597 -0.11980
 C646 C 0.59424 0.45090 -0.08852
 C647 C 0.62509 0.44615 -0.07364
 C648 C 0.64510 0.42560 -0.08836
 H649 H 0.66648 0.28742 -0.16387
 H650 H 0.69418 0.25071 -0.19724
 H651 H 0.77414 0.30582 -0.21869
 H652 H 0.74718 0.34171 -0.18421
 H653 H 0.59592 0.40352 -0.15725
 H654 H 0.56142 0.43924 -0.13227
 H655 H 0.63294 0.45712 -0.04938
 H656 H 0.66812 0.42144 -0.07544
 C657 C 1.19753 0.19758 -0.17025
 C658 C 1.18178 0.21180 -0.19826
 C659 C 1.19889 0.22942 -0.22127
 C660 C 1.23229 0.23458 -0.21602
 C661 C 1.24836 0.21880 -0.18928
 C662 C 1.23117 0.20072 -0.16648
 C663 C 1.17858 0.17923 -0.14598
 N664 N 1.19293 0.15847 -0.12740
 N665 N 1.17527 0.14121 -0.10719
 C666 C 1.14261 0.14416 -0.10447
 N667 N 1.12841 0.16520 -0.12256
 N668 N 1.14600 0.18233 -0.14292
 C669 C 1.12257 0.12382 -0.08444
 C670 C 1.09005 0.12946 -0.07566
 C671 C 1.07029 0.10925 -0.05991
 C672 C 1.08257 0.08289 -0.05319
 C673 C 1.11535 0.07757 -0.06082
 C674 C 1.13517 0.09786 -0.07603
 H675 H 1.15611 0.20895 -0.20294
 H676 H 1.18550 0.23861 -0.24340
 H677 H 1.27424 0.22097 -0.18559
 H678 H 1.24414 0.18951 -0.14561
 H679 H 1.07968 0.14935 -0.08159
 H680 H 1.04515 0.11393 -0.05426
 H681 H 1.12560 0.05753 -0.05556
 H682 H 1.16008 0.09283 -0.08241
 C683 C 1.19299 0.69729 0.32230
 C684 C 1.17761 0.71297 0.29546
 C685 C 1.19540 0.73025 0.27257
 C686 C 1.22937 0.73378 0.27686
 C687 C 1.24463 0.71664 0.30301
 C688 C 1.22674 0.69899 0.32552
 C689 C 1.17382 0.67836 0.34550
 N690 N 1.18821 0.65713 0.36306
 N691 N 1.17060 0.63924 0.38227
 C692 C 1.13795 0.64196 0.38494
 N693 N 1.12365 0.66344 0.36786
 N694 N 1.14122 0.68124 0.34848
 C695 C 1.11818 0.62101 0.40405
 C696 C 1.08580 0.62631 0.41377
 C697 C 1.06661 0.60574 0.42957
 C698 C 1.07932 0.57940 0.43532
 C699 C 1.11185 0.57431 0.42631
 C700 C 1.13113 0.59494 0.41111
 H701 H 1.15173 0.71129 0.29129
 H702 H 1.18208 0.74023 0.25098
 H703 H 1.27068 0.71708 0.30619
 H704 H 1.23941 0.68666 0.34548
 H705 H 1.07520 0.64627 0.40883
 H706 H 1.04162 0.61021 0.43632
 H707 H 1.12241 0.55427 0.43084
 H708 H 1.15594 0.59017 0.40394
 C709 C 0.68136 0.20242 0.30716
 C710 C 0.68638 0.23027 0.31566
 C711 C 0.70675 0.24655 0.29368
 C712 C 0.72344 0.23518 0.26338
 C713 C 0.71547 0.20796 0.25325
 C714 C 0.69536 0.19181 0.27507
 C715 C 0.66280 0.18376 0.33164
 N716 N 0.66601 0.15620 0.32763
 N717 N 0.65029 0.13892 0.34952
 C718 C 0.63050 0.14832 0.37647
 N719 N 0.62703 0.17595 0.38055
 N720 N 0.64302 0.19335 0.35866
 C721 C 0.61325 0.12832 0.40027
 C722 C 0.58560 0.13553 0.42076
 C723 C 0.56819 0.11539 0.44024
 C724 C 0.57828 0.08779 0.43964
 C725 C 0.60679 0.08108 0.42053
 C726 C 0.62391 0.10098 0.40112
 H727 H 0.67529 0.23929 0.33974
 H728 H 0.71048 0.26787 0.30111
 H729 H 0.72477 0.19869 0.22845
 H730 H 0.69095 0.17076 0.26675
 H731 H 0.57683 0.15646 0.42072
 H732 H 0.54636 0.12125 0.45476
 H733 H 0.61566 0.06018 0.41976
 H734 H 0.64537 0.09472 0.38621
 C735 C 0.70618 0.68519 -0.19173
 C736 C 0.73995 0.68803 -0.19225
 C737 C 0.75459 0.70868 -0.21326
 C738 C 0.73589 0.72729 -0.23403
 C739 C 0.70208 0.72291 -0.23495
 C740 C 0.68754 0.70262 -0.21365
 C741 C 0.68976 0.66476 -0.16814
 N742 N 0.65840 0.66871 -0.15861
 N743 N 0.64291 0.65071 -0.13761
 C744 C 0.65797 0.62783 -0.12526
 N745 N 0.68943 0.62367 -0.13482
 N746 N 0.70510 0.64191 -0.15574
 C747 C 0.63949 0.60810 -0.10250
 C748 C 0.64799 0.58017 -0.09973
 C749 C 0.62714 0.56148 -0.08196
 C750 C 0.59768 0.57068 -0.06711
 C751 C 0.59052 0.59881 -0.06792
 C752 C 0.61108 0.61723 -0.08527
 H753 H 0.75500 0.67463 -0.17597
 H754 H 0.78073 0.71039 -0.21308
 H755 H 0.68636 0.73459 -0.25252
 H756 H 0.66146 0.70035 -0.21480
 H757 H 0.66987 0.57262 -0.11264
 H758 H 0.63321 0.53987 -0.08140
 H759 H 0.56836 0.60658 -0.05581
 H760 H 0.60413 0.63865 -0.08608
 C761 C 0.81664 -0.19455 -0.19758
 C762 C 0.79748 -0.21353 -0.17828
 C763 C 0.77617 -0.23103 -0.19683
 C764 C 0.77427 -0.23068 -0.23547
 C765 C 0.79192 -0.21014 -0.25420
 C766 C 0.81298 -0.19260 -0.23567
 C767 C 0.84042 -0.17689 -0.17837
 N768 N 0.85642 -0.15675 -0.19673
 N769 N 0.87787 -0.14083 -0.17972
 C770 C 0.88446 -0.14444 -0.14366
 N771 N 0.86864 -0.16471 -0.12528
 N772 N 0.84708 -0.18063 -0.14231
 C773 C 0.90704 -0.12563 -0.12453
 C774 C 0.91647 -0.13050 -0.08813
 C775 C 0.93536 -0.11122 -0.06927
 C776 C 0.94476 -0.08664 -0.08637
 C777 C 0.93655 -0.08237 -0.12318
 C778 C 0.91808 -0.10171 -0.14211
 H779 H 0.79893 -0.21491 -0.14873
 H780 H 0.76143 -0.24467 -0.18049
 H781 H 0.79028 -0.20843 -0.28371
 H782 H 0.82686 -0.17785 -0.25142
 H783 H 0.90857 -0.14884 -0.07391
 H784 H 0.94124 -0.11493 -0.04081
 H785 H 0.94368 -0.06367 -0.13711
 H786 H 0.91147 -0.09735 -0.17017
 C787 C 0.82452 0.29472 0.30146
 C788 C 0.80448 0.27581 0.31981
 C789 C 0.77992 0.26177 0.30098
 C790 C 0.77421 0.26698 0.26350
 C791 C 0.79595 0.28469 0.24510
 C792 C 0.82039 0.29844 0.26372
 C793 C 0.84877 0.31157 0.32123
 N794 N 0.86611 0.33088 0.30285
 N795 N 0.88611 0.34772 0.32046
 C796 C 0.88977 0.34598 0.35727
 N797 N 0.87295 0.32632 0.37572
 N798 N 0.85280 0.30945 0.35805
 C799 C 0.90972 0.36657 0.37679
 C800 C 0.91864 0.36284 0.41356
 C801 C 0.93547 0.38351 0.43234
 C802 C 0.94306 0.40839 0.41480
 C803 C 0.93484 0.41179 0.37787
 C804 C 0.91860 0.39105 0.35900
 H805 H 0.80759 0.27197 0.34878
 H806 H 0.76590 0.24679 0.31601
 H807 H 0.79341 0.28839 0.21601
 H808 H 0.83570 0.31242 0.24841
 H809 H 0.91223 0.34417 0.42794
 H810 H 0.94149 0.38045 0.46089
 H811 H 0.94066 0.43068 0.36362
 H812 H 0.91209 0.39464 0.33072
 C813 C 0.31555 -0.19344 0.30772
 C814 C 0.29182 -0.20757 0.32785
 C815 C 0.26977 -0.22505 0.31041
 C816 C 0.27163 -0.23016 0.27214
 C817 C 0.29458 -0.21441 0.25208
 C818 C 0.31626 -0.19665 0.26955
 C819 C 0.33902 -0.17502 0.32636
 N820 N 0.35627 -0.15615 0.30703
 N821 N 0.37697 -0.13931 0.32380
 C822 C 0.38155 -0.14077 0.36058
 N823 N 0.36451 -0.15980 0.37988
 N824 N 0.34365 -0.17654 0.36314
 C825 C 0.40348 -0.12113 0.37939
 C826 C 0.41408 -0.12598 0.41538
 C827 C 0.43295 -0.10642 0.43383
 C828 C 0.44109 -0.08146 0.41686
 C829 C 0.43128 -0.07698 0.38056
 C830 C 0.41293 -0.09668 0.36195
 H831 H 0.28984 -0.20473 0.35721
 H832 H 0.25108 -0.23407 0.32734
 H833 H 0.29608 -0.21633 0.22255
 H834 H 0.33384 -0.18565 0.25307
 H835 H 0.40739 -0.14471 0.42949
 H836 H 0.44002 -0.11036 0.46187
 H837 H 0.43732 -0.05798 0.36672
 H838 H 0.40523 -0.09228 0.33426
 C839 C 0.29874 0.32285 -0.18223
 C840 C 0.30428 0.31822 -0.21970
 C841 C 0.29040 0.29568 -0.23745
 C842 C 0.27092 0.27654 -0.21835
 C843 C 0.26556 0.28137 -0.18057
 C844 C 0.27953 0.30398 -0.16281
 C845 C 0.31234 0.34760 -0.16394
 N846 N 0.30754 0.35229 -0.12759
 N847 N 0.32030 0.37435 -0.11129
 C848 C 0.33824 0.39273 -0.13070
 N849 N 0.34273 0.38814 -0.16708
 N850 N 0.33001 0.36613 -0.18334
 C851 C 0.35502 0.41599 -0.11230
 C852 C 0.37726 0.43213 -0.13207
 C853 C 0.39730 0.45083 -0.11402
 C854 C 0.39529 0.45419 -0.07589
 C855 C 0.37117 0.44002 -0.05650
 C856 C 0.35129 0.42089 -0.07447
 H857 H 0.31880 0.33237 -0.23570
 H858 H 0.29411 0.29352 -0.26670
 H859 H 0.24931 0.26872 -0.16465
 H860 H 0.27444 0.30708 -0.13399
 H861 H 0.38058 0.42926 -0.16126
 H862 H 0.41566 0.46165 -0.12966
 H863 H 0.36933 0.44223 -0.02721
 H864 H 0.33415 0.40904 -0.05845
 C865 C 1.18553 -0.19363 0.19367
 C866 C 1.20770 -0.20980 0.17397
 C867 C 1.22943 -0.22700 0.19224
 C868 C 1.22862 -0.22959 0.23095
 C869 C 1.20798 -0.21128 0.25024
 C870 C 1.18665 -0.19402 0.23202
 C871 C 1.16129 -0.17635 0.17476
 N872 N 1.14312 -0.15817 0.19413
 N873 N 1.12109 -0.14271 0.17762
 C874 C 1.11602 -0.14484 0.14101
 N875 N 1.13405 -0.16314 0.12156
 N876 N 1.15621 -0.17859 0.13810
 C877 C 1.09256 -0.12647 0.12268
 C878 C 1.08365 -0.13060 0.08590
 C879 C 1.06383 -0.11160 0.06802
 C880 C 1.05301 -0.08798 0.08649
 C881 C 1.06071 -0.08453 0.12362
 C882 C 1.08003 -0.10364 0.14158
 H883 H 1.20836 -0.20912 0.14434
 H884 H 1.24669 -0.23811 0.17562
 H885 H 1.20745 -0.21122 0.27991
 H886 H 1.17051 -0.18135 0.24822
 H887 H 1.09268 -0.14810 0.07065
 H888 H 1.05846 -0.11461 0.03926
 H889 H 1.05260 -0.06654 0.13852
 H890 H 1.08621 -0.09986 0.16995
 C891 C 1.18362 0.30494 0.69653
 C892 C 1.18342 0.30481 0.73492
 C893 C 1.20562 0.28910 0.75420
 C894 C 1.22851 0.27246 0.73589
 C895 C 1.22990 0.27408 0.69726
 C896 C 1.20738 0.28973 0.67788
 C897 C 1.15940 0.32135 0.67647
 N898 N 1.15599 0.31904 0.63957
 N899 N 1.13436 0.33425 0.62182
 C900 C 1.11531 0.35235 0.64028
 N901 N 1.11862 0.35446 0.67713
 N902 N 1.14010 0.33923 0.69484
 C903 C 1.09304 0.37086 0.62065
 C904 C 1.08116 0.39443 0.63838
 C905 C 1.06319 0.41373 0.61916
 C906 C 1.05621 0.40970 0.58196
 C907 C 1.06634 0.38541 0.56464
 C908 C 1.08490 0.36622 0.58376
 H909 H 1.16580 0.31661 0.75028
 H910 H 1.20434 0.28928 0.78383
 H911 H 1.24834 0.26359 0.68161
 H912 H 1.20879 0.29011 0.64827
 H913 H 1.08687 0.39862 0.66677
 H914 H 1.05545 0.43223 0.63318
 H915 H 1.06133 0.38194 0.53591
 H916 H 1.09351 0.34813 0.56947
 C917 C 0.68247 -0.19690 0.68843
 C918 C 0.70461 -0.21183 0.66710
 C919 C 0.72763 -0.22867 0.68358
 C920 C 0.72845 -0.23197 0.72204
 C921 C 0.70714 -0.21571 0.74322
 C922 C 0.68435 -0.19867 0.72672
 C923 C 0.65807 -0.17908 0.67084
 N924 N 0.64130 -0.16034 0.69085
 N925 N 0.62003 -0.14377 0.67491
 C926 C 0.61442 -0.14537 0.63832
 N927 N 0.63090 -0.16433 0.61835
 N928 N 0.65230 -0.18083 0.63428
 C929 C 0.59244 -0.12562 0.62033
 C930 C 0.58221 -0.12966 0.58398
 C931 C 0.56397 -0.10957 0.56611
 C932 C 0.55614 -0.08495 0.58413
 C933 C 0.56528 -0.08141 0.62084
 C934 C 0.58301 -0.10159 0.63883
 H935 H 0.70453 -0.21020 0.63752
 H936 H 0.74488 -0.23861 0.66572
 H937 H 0.70778 -0.21671 0.77285
 H938 H 0.66802 -0.18706 0.74405
 H939 H 0.58891 -0.14805 0.56907
 H940 H 0.55734 -0.11274 0.53772
 H941 H 0.55937 -0.06268 0.63546
 H942 H 0.59039 -0.09782 0.66682
 C943 C 0.69216 0.31498 0.18068
 C944 C 0.68837 0.28690 0.17249
 C945 C 0.70456 0.26695 0.19306
 C946 C 0.72625 0.27463 0.22108
 C947 C 0.72649 0.30257 0.23183
 C948 C 0.71027 0.32240 0.21156
 C949 C 0.67802 0.33658 0.15705
 N950 N 0.68249 0.36360 0.16513
 N951 N 0.67044 0.38314 0.14372
 C952 C 0.65356 0.37652 0.11310
 N953 N 0.64921 0.34949 0.10491
 N954 N 0.66127 0.32994 0.12634
 C955 C 0.63834 0.39820 0.09048
 C956 C 0.61890 0.39092 0.06045
 C957 C 0.60054 0.41073 0.04254
 C958 C 0.60159 0.43824 0.05387
 C959 C 0.62261 0.44608 0.08204
 C960 C 0.64092 0.42617 0.10025
 H961 H 0.67353 0.28032 0.14970
 H962 H 0.70163 0.24552 0.18572
 H963 H 0.73968 0.30957 0.25562
 H964 H 0.71253 0.34370 0.21982
 H965 H 0.61650 0.36969 0.05193
 H966 H 0.58407 0.40434 0.02109
 H967 H 0.62319 0.46717 0.09154
 H968 H 0.65581 0.43253 0.12311
 C969 C 0.80790 0.20148 0.16902
 C970 C 0.80679 0.19745 0.20691
 C971 C 0.78678 0.21359 0.22886
 C972 C 0.76739 0.23457 0.21376
 C973 C 0.77000 0.23928 0.17562
 C974 C 0.78929 0.22240 0.15347
 C975 C 0.82874 0.18389 0.14619
 N976 N 0.81805 0.17377 0.11371
 N977 N 0.83617 0.15629 0.09442
 C978 C 0.86582 0.14865 0.10666
 N979 N 0.87668 0.15916 0.13884
 N980 N 0.85839 0.17630 0.15835
 C981 C 0.88511 0.12794 0.08688
 C982 C 0.91906 0.12939 0.08706
 C983 C 0.93745 0.10847 0.07110
 C984 C 0.92215 0.08539 0.05577
 C985 C 0.88820 0.08415 0.05503
 C986 C 0.86981 0.10548 0.06999
 H987 H 0.82110 0.18149 0.21956
 H988 H 0.78644 0.20979 0.25808
 H989 H 0.75811 0.25630 0.16253
 H990 H 0.79051 0.22626 0.12429
 H991 H 0.93135 0.14656 0.09991
 H992 H 0.96362 0.10978 0.07205
 H993 H 0.87595 0.06658 0.04314
 H994 H 0.84365 0.10386 0.06975
 C995 C 0.81020 0.69852 0.66634
 C996 C 0.82587 0.71623 0.69089
 C997 C 0.80810 0.73241 0.71515
 C998 C 0.77386 0.73224 0.71472
 C999 C 0.75842 0.71359 0.69070
 C1000 C 0.77627 0.69720 0.66666
 C1001 C 0.82932 0.68040 0.64211
 N1002 N 0.81509 0.65888 0.62474
 N1003 N 0.83270 0.64140 0.60500
 C1004 C 0.86522 0.64480 0.60166
 N1005 N 0.87937 0.66664 0.61842
 N1006 N 0.86177 0.68407 0.63828
 C1007 C 0.88505 0.62387 0.58284
 C1008 C 0.91781 0.62886 0.57446
 C1009 C 0.93710 0.60798 0.55977
 C1010 C 0.92401 0.58171 0.55385
 C1011 C 0.89107 0.57703 0.56116
 C1012 C 0.87175 0.59791 0.57527
 H1013 H 0.85204 0.71707 0.69216
 H1014 H 0.82174 0.74436 0.73471
 H1015 H 0.73227 0.71189 0.69049
 H1016 H 0.76343 0.68338 0.64847
 H1017 H 0.92867 0.64874 0.57983
 H1018 H 0.96243 0.61210 0.55419
 H1019 H 0.88023 0.55706 0.55631
 H1020 H 0.84663 0.59338 0.58136
 C1021 C 0.31247 0.20064 0.69131
 C1022 C 0.32700 0.21895 0.71612
 C1023 C 0.30808 0.23606 0.73840
 C1024 C 0.27393 0.23611 0.73562
 C1025 C 0.25965 0.21662 0.71189
 C1026 C 0.27852 0.19943 0.68989
 C1027 C 0.33238 0.18243 0.66756
 N1028 N 0.31821 0.16201 0.64788
 N1029 N 0.33589 0.14528 0.62704
 C1030 C 0.36854 0.14828 0.62471
 N1031 N 0.38276 0.16888 0.64412
 N1032 N 0.36505 0.18559 0.66512
 C1033 C 0.38809 0.12853 0.60288
 C1034 C 0.42109 0.13333 0.59522
 C1035 C 0.43958 0.11356 0.57653
 C1036 C 0.42551 0.08851 0.56579
 C1037 C 0.39240 0.08414 0.57253
 C1038 C 0.37390 0.10393 0.59058
 H1039 H 0.35308 0.21985 0.71873
 H1040 H 0.32059 0.24888 0.75797
 H1041 H 0.23355 0.21508 0.70992
 H1042 H 0.26639 0.18526 0.67157
 H1043 H 0.43271 0.15215 0.60412
 H1044 H 0.46509 0.11741 0.57176
 H1045 H 0.38080 0.06513 0.56428
 H1046 H 0.34860 0.09951 0.59583
 C1047 C 0.29805 0.68661 0.19181
 C1048 C 0.31507 0.70298 0.21685
 C1049 C 0.29990 0.72445 0.23539
 C1050 C 0.26691 0.73110 0.22910
 C1051 C 0.24986 0.71376 0.20437
 C1052 C 0.26530 0.69233 0.18553
 C1053 C 0.31451 0.66307 0.17385
 N1054 N 0.30183 0.65033 0.14391
 N1055 N 0.31739 0.62949 0.12786
 C1056 C 0.34608 0.62041 0.14132
 N1057 N 0.35847 0.63305 0.17136
 N1058 N 0.34308 0.65388 0.18722
 C1059 C 0.36466 0.59811 0.12314
 C1060 C 0.39221 0.58743 0.14043
 C1061 C 0.41236 0.56897 0.12226
 C1062 C 0.40547 0.56049 0.08636
 C1063 C 0.37694 0.56975 0.06962
 C1064 C 0.35669 0.58849 0.08787
 H1065 H 0.34025 0.69890 0.22285
 H1066 H 0.31421 0.73488 0.25590
 H1067 H 0.22416 0.71655 0.20004
 H1068 H 0.25128 0.67970 0.16695
 H1069 H 0.39890 0.59399 0.16775
 H1070 H 0.43403 0.56196 0.13595
 H1071 H 0.37126 0.56370 0.04179
 H1072 H 0.33563 0.59630 0.07379
   
