data_POSCAR
  _audit_creation_date              2014-09-24
  _audit_creation_method            'ToBaCCo'
  _symmetry_space_group_name_H-M    'P1'
  _symmetry_Int_Tables_number       1
  _symmetry_cell_setting            triclinic
  loop_
  _symmetry_equiv_pos_as_xyz
 x,y,z
_cell_length_a 34.0756
_cell_length_b 31.1377
_cell_length_c 32.7722
_cell_angle_alpha 89.679700
_cell_angle_beta 87.550000
_cell_angle_gamma 90.270800
loop_
  _atom_site_label
  _atom_site_type_symbol
  _atom_site_fract_x
  _atom_site_fract_y
  _atom_site_fract_z
N1 N 0.28279 0.18596 0.16551
 N2 N 0.26369 0.20432 0.13612
 C3 C 0.28745 0.20677 0.10226
 C4 C 0.32301 0.18828 0.11094
 C5 C 0.31914 0.17582 0.15140
 H6 H 0.27997 0.22216 0.07397
 H7 H 0.34163 0.16199 0.16965
 Cu8 Cu 0.21114 0.22710 0.14592
 Cu9 Cu 0.26074 0.17957 0.22076
 Cu10 Cu 0.16300 0.20515 0.23496
 N11 N 0.16768 0.26237 0.16644
 N12 N 0.15116 0.25612 0.20291
 C13 C 0.12608 0.28842 0.21142
 C14 C 0.12679 0.31669 0.17838
 C15 C 0.15264 0.29792 0.14986
 H16 H 0.10891 0.29119 0.23979
 H17 H 0.16015 0.30890 0.11917
 N18 N 0.18996 0.16692 0.27222
 N19 N 0.22804 0.15990 0.26828
 C20 C 0.23868 0.13395 0.29875
 C21 C 0.20542 0.12258 0.32220
 C22 C 0.17511 0.14485 0.30480
 H23 H 0.26853 0.12398 0.30328
 H24 H 0.14449 0.14488 0.31495
 H25 H 0.20614 0.17177 0.19873
 H26 H 0.21764 0.22597 0.21978
 N27 N 0.70640 -0.19302 0.16439
 N28 N 0.72061 -0.22303 0.14001
 C29 C 0.69465 -0.23135 0.11124
 C30 C 0.66180 -0.20582 0.11834
 C31 C 0.67096 -0.18101 0.15180
 H32 H 0.69965 -0.25380 0.08653
 H33 H 0.65230 -0.15768 0.16729
 Cu34 Cu 0.77038 -0.25054 0.15018
 Cu35 Cu 0.73322 -0.17564 0.21326
 Cu36 Cu 0.83200 -0.20298 0.21277
 N37 N 0.82171 -0.27472 0.15959
 N38 N 0.84556 -0.25610 0.18456
 C39 C 0.87846 -0.27954 0.18658
 C40 C 0.87553 -0.31475 0.16100
 C41 C 0.83864 -0.31073 0.14485
 H42 H 0.90283 -0.27124 0.20516
 H43 H 0.82415 -0.33361 0.12581
 N44 N 0.80795 -0.16094 0.25077
 N45 N 0.77026 -0.15116 0.25169
 C46 C 0.76256 -0.12424 0.28304
 C47 C 0.79710 -0.11654 0.30256
 C48 C 0.82515 -0.14071 0.28155
 H49 H 0.73381 -0.11189 0.29172
 H50 H 0.85542 -0.14489 0.28936
 H51 H 0.78408 -0.18084 0.18031
 H52 H 0.77534 -0.22384 0.21956
 N53 N 0.74157 0.16309 0.84817
 N54 N 0.75667 0.19459 0.86906
 C55 C 0.72929 0.20945 0.89614
 C56 C 0.69528 0.18592 0.89179
 C57 C 0.70417 0.15636 0.86158
 H58 H 0.73341 0.23616 0.91652
 H59 H 0.68432 0.13330 0.84882
 Cu60 Cu 0.80989 0.21488 0.85727
 Cu61 Cu 0.77042 0.13726 0.80201
 Cu62 Cu 0.83897 0.20849 0.75859
 N63 N 0.85562 0.24591 0.83578
 N64 N 0.86656 0.24417 0.79694
 C65 C 0.89545 0.27304 0.78921
 C66 C 0.90353 0.29397 0.82538
 C67 C 0.87728 0.27562 0.85421
 H68 H 0.90684 0.28088 0.75877
 H69 H 0.87299 0.28429 0.88597
 N70 N 0.81679 0.15976 0.72864
 N71 N 0.79173 0.13189 0.74576
 C72 C 0.78159 0.10293 0.71776
 C73 C 0.80082 0.11343 0.68109
 C74 C 0.82342 0.14910 0.68919
 H75 H 0.76100 0.07679 0.72340
 H76 H 0.84267 0.16638 0.66767
 H77 H 0.82784 0.16397 0.80295
 H78 H 0.78572 0.19887 0.79020
 N79 N 0.26710 -0.17690 0.84733
 N80 N 0.25400 -0.20935 0.86999
 C81 C 0.28138 -0.21994 0.89669
 C82 C 0.31350 -0.19313 0.88995
 C83 C 0.30322 -0.16579 0.85885
 H84 H 0.27854 -0.24552 0.91909
 H85 H 0.32115 -0.14045 0.84501
 Cu86 Cu 0.20311 -0.23566 0.86122
 Cu87 Cu 0.23730 -0.15275 0.80319
 Cu88 Cu 0.14763 -0.20066 0.78653
 N89 N 0.15148 -0.26059 0.85276
 N90 N 0.12945 -0.24582 0.82397
 C91 C 0.09705 -0.27039 0.82222
 C92 C 0.09837 -0.30253 0.85171
 C93 C 0.13376 -0.29523 0.87027
 H94 H 0.07473 -0.26588 0.80014
 H95 H 0.14741 -0.31588 0.89211
 N96 N 0.16745 -0.15078 0.75477
 N97 N 0.20230 -0.13346 0.76019
 C98 C 0.20973 -0.10377 0.73078
 C99 C 0.17777 -0.10188 0.70633
 C100 C 0.15159 -0.13211 0.72221
 H101 H 0.23695 -0.08604 0.72630
 H102 H 0.12422 -0.14154 0.70928
 H103 H 0.18291 -0.17024 0.82744
 H104 H 0.20815 -0.20828 0.79130
 N105 N 0.72606 -0.17268 0.84572
 N106 N 0.73665 -0.20741 0.86538
 C107 C 0.70773 -0.21898 0.89253
 C108 C 0.67737 -0.18997 0.88964
 C109 C 0.69015 -0.16065 0.86006
 H110 H 0.70827 -0.24697 0.91220
 H111 H 0.67388 -0.13369 0.84864
 Cu112 Cu 0.78659 -0.23536 0.85288
 Cu113 Cu 0.75900 -0.14794 0.80118
 Cu114 Cu 0.82256 -0.22251 0.75679
 N115 N 0.82845 -0.27159 0.83067
 N116 N 0.84202 -0.26658 0.79285
 C117 C 0.86841 -0.29742 0.78398
 C118 C 0.87104 -0.32419 0.81779
 C119 C 0.84591 -0.30582 0.84730
 H120 H 0.88504 -0.29940 0.75522
 H121 H 0.83910 -0.31786 0.87782
 N122 N 0.80855 -0.16853 0.72962
 N123 N 0.78484 -0.13970 0.74662
 C124 C 0.78082 -0.10686 0.72016
 C125 C 0.80375 -0.11518 0.68521
 C126 C 0.82054 -0.15469 0.69215
 H127 H 0.76217 -0.07929 0.72561
 H128 H 0.83950 -0.17237 0.67103
 H129 H 0.76837 -0.20959 0.78602
 H130 H 0.81264 -0.18118 0.80413
 N131 N 0.28713 0.19449 0.84163
 N132 N 0.26986 0.21529 0.87216
 C133 C 0.29475 0.21824 0.90283
 C134 C 0.32915 0.19757 0.89091
 C135 C 0.32354 0.18338 0.85174
 H136 H 0.28860 0.23462 0.93139
 H137 H 0.34464 0.16704 0.83178
 Cu138 Cu 0.21728 0.23807 0.86791
 Cu139 Cu 0.26192 0.18573 0.79029
 Cu140 Cu 0.16106 0.19950 0.79490
 N141 N 0.16858 0.26588 0.85452
 N142 N 0.14633 0.25071 0.82602
 C143 C 0.11530 0.27682 0.82215
 C144 C 0.11849 0.30985 0.84977
 C145 C 0.15258 0.30214 0.86973
 H146 H 0.09286 0.27284 0.80008
 H147 H 0.16540 0.32213 0.89260
 N148 N 0.18838 0.16398 0.75327
 N149 N 0.22701 0.16133 0.75012
 C150 C 0.23732 0.13685 0.71784
 C151 C 0.20354 0.12230 0.70035
 C152 C 0.17299 0.14082 0.72321
 H153 H 0.26729 0.13000 0.70788
 H154 H 0.14193 0.13783 0.71820
 H155 H 0.21421 0.22741 0.79434
 H156 H 0.21102 0.17581 0.82356
 N157 N 0.25997 -0.16548 0.16212
 N158 N 0.24352 -0.19212 0.13690
 C159 C 0.26999 -0.20294 0.10706
 C160 C 0.30499 -0.18217 0.11426
 C161 C 0.29744 -0.15824 0.14909
 H162 H 0.26455 -0.22502 0.08255
 H163 H 0.31818 -0.13839 0.16459
 Cu164 Cu 0.18994 -0.21226 0.14693
 Cu165 Cu 0.23266 -0.14519 0.21184
 Cu166 Cu 0.14262 -0.19257 0.23700
 N167 N 0.14335 -0.24451 0.16477
 N168 N 0.12504 -0.23687 0.20008
 C169 C 0.09599 -0.26592 0.20633
 C170 C 0.09581 -0.29288 0.17294
 C171 C 0.12652 -0.27858 0.14730
 H172 H 0.07735 -0.26841 0.23381
 H173 H 0.13713 -0.29335 0.11917
 N174 N 0.16577 -0.14715 0.27020
 N175 N 0.20027 -0.12936 0.26076
 C176 C 0.20987 -0.10284 0.29113
 C177 C 0.18005 -0.10417 0.32097
 C178 C 0.15244 -0.13225 0.30674
 H179 H 0.23737 -0.08555 0.29262
 H180 H 0.12587 -0.14292 0.32301
 H181 H 0.20082 -0.20156 0.21886
 H182 H 0.17528 -0.15496 0.19563
 N183 N 0.72584 0.19789 0.15896
 N184 N 0.74631 0.21485 0.12794
 C185 C 0.72237 0.22188 0.09699
 C186 C 0.68481 0.20914 0.10970
 C187 C 0.68818 0.19366 0.14895
 H188 H 0.73143 0.23576 0.06773
 H189 H 0.66485 0.18085 0.16896
 Cu190 Cu 0.80149 0.22897 0.13225
 Cu191 Cu 0.74905 0.18408 0.21052
 Cu192 Cu 0.85037 0.18894 0.21037
 N193 N 0.85109 0.25380 0.14785
 N194 N 0.86987 0.23890 0.17915
 C195 C 0.90067 0.26482 0.18583
 C196 C 0.90139 0.29723 0.15677
 C197 C 0.86948 0.28937 0.13326
 H198 H 0.91999 0.26149 0.21099
 H199 H 0.85896 0.30961 0.10916
 N200 N 0.81884 0.15515 0.25071
 N201 N 0.78010 0.15558 0.25206
 C202 C 0.76663 0.13133 0.28375
 C203 C 0.79838 0.11377 0.30273
 C204 C 0.83111 0.13021 0.28131
 H205 H 0.73590 0.12689 0.29243
 H206 H 0.86156 0.12468 0.28769
 H207 H 0.79984 0.22113 0.20647
 H208 H 0.80008 0.16829 0.17976
 C209 C 0.17976 -0.01514 0.55032
 C210 C 0.19122 0.02863 0.54934
 C211 C 0.19705 0.04968 0.51169
 C212 C 0.19385 0.02746 0.47488
 C213 C 0.18376 -0.01680 0.47587
 C214 C 0.17591 -0.03721 0.51360
 H215 H 0.16782 -0.07094 0.51439
 H216 H 0.20514 0.08341 0.51102
 C217 C 0.80472 -0.02637 0.45597
 C218 C 0.79858 0.01874 0.45535
 C219 C 0.79663 0.04134 0.49223
 C220 C 0.79948 0.01991 0.52959
 C221 C 0.80422 -0.02497 0.53042
 C222 C 0.80686 -0.04776 0.49365
 H223 H 0.81080 -0.08228 0.49438
 H224 H 0.79261 0.07587 0.49190
 C225 C 0.47332 0.19905 -0.02324
 C226 C 0.47131 0.19915 0.01980
 C227 C 0.50589 0.20209 0.04120
 C228 C 0.54249 0.20423 0.02020
 C229 C 0.54458 0.20270 -0.02289
 C230 C 0.50990 0.20048 -0.04428
 H231 H 0.51143 0.19922 -0.07737
 H232 H 0.50430 0.20245 0.07432
 C233 C 0.45393 0.81507 0.02274
 C234 C 0.45599 0.81436 -0.02030
 C235 C 0.49278 0.81390 -0.04118
 C236 C 0.52758 0.81178 -0.01981
 C237 C 0.52537 0.81178 0.02338
 C238 C 0.48862 0.81426 0.04416
 H239 H 0.48691 0.81352 0.07728
 H240 H 0.49427 0.81339 -0.07429
 C241 C 0.02423 0.46459 0.16265
 C242 C -0.01681 0.46002 0.15861
 C243 C -0.04046 0.49674 0.15740
 C244 C -0.02399 0.53806 0.15835
 C245 C 0.01695 0.54270 0.16249
 C246 C 0.04022 0.50604 0.16600
 H247 H 0.07142 0.50990 0.17025
 H248 H -0.07193 0.49315 0.15492
 C249 C -0.02605 0.53365 0.84159
 C250 C 0.01337 0.53873 0.85246
 C251 C 0.03664 0.50213 0.85748
 C252 C 0.02119 0.46072 0.85270
 C253 C -0.01835 0.45582 0.84179
 C254 C -0.04161 0.49229 0.83720
 H255 H -0.07193 0.48851 0.82901
 H256 H 0.06717 0.50594 0.86486
 C257 C 0.38282 0.15081 0.07959
 C258 C 0.35965 0.18821 0.08524
 C259 C 0.37300 0.22739 0.06853
 C260 C 0.40940 0.23040 0.04782
 C261 C 0.43328 0.19425 0.04285
 C262 C 0.42014 0.15398 0.05852
 C263 C 0.36939 0.11013 0.09359
 C264 C 0.39259 0.07371 0.08778
 C265 C 0.42940 0.07700 0.06791
 C266 C 0.44318 0.11668 0.05336
 H267 H 0.34070 0.10592 0.10850
 H268 H 0.38189 0.04273 0.09865
 H269 H 0.44728 0.04863 0.06352
 H270 H 0.47187 0.11779 0.03791
 H271 H 0.35562 0.25621 0.07266
 H272 H 0.41921 0.26129 0.03578
 C273 C 0.61021 0.75871 0.07769
 C274 C 0.62695 0.79551 0.09642
 C275 C 0.60805 0.83534 0.09262
 C276 C 0.57572 0.84004 0.06845
 C277 C 0.56057 0.80507 0.04770
 C278 C 0.57710 0.76387 0.05282
 C279 C 0.62291 0.71641 0.08593
 C280 C 0.60597 0.68100 0.06754
 C281 C 0.57491 0.68648 0.04195
 C282 C 0.56003 0.72732 0.03527
 H283 H 0.64457 0.70964 0.10806
 H284 H 0.61637 0.64898 0.07403
 H285 H 0.56145 0.65881 0.02828
 H286 H 0.53440 0.72980 0.01713
 H287 H 0.61941 0.86385 0.10689
 H288 H 0.56256 0.87147 0.06556
 C289 C 0.63521 0.23122 -0.09109
 C290 C 0.65668 0.19257 -0.08731
 C291 C 0.64077 0.15868 -0.06371
 C292 C 0.60452 0.16279 -0.04308
 C293 C 0.58286 0.20069 -0.04587
 C294 C 0.59784 0.23522 -0.07028
 C295 C 0.64952 0.26561 -0.11585
 C296 C 0.62795 0.30332 -0.11924
 C297 C 0.59167 0.30737 -0.09853
 C298 C 0.57654 0.27366 -0.07442
 H299 H 0.67720 0.26367 -0.13310
 H300 H 0.63937 0.32946 -0.13823
 H301 H 0.57504 0.33669 -0.10136
 H302 H 0.54808 0.27802 -0.05917
 H303 H 0.65679 0.12890 -0.06092
 H304 H 0.59312 0.13606 -0.02480
 C305 C 0.37317 0.76890 -0.08296
 C306 C 0.35085 0.80675 -0.08852
 C307 C 0.36410 0.84574 -0.07280
 C308 C 0.39815 0.84763 -0.05082
 C309 C 0.42003 0.81061 -0.04396
 C310 C 0.40772 0.77082 -0.06001
 C311 C 0.36269 0.72939 -0.10063
 C312 C 0.38461 0.69244 -0.09425
 C313 C 0.41755 0.69408 -0.07067
 C314 C 0.42920 0.73284 -0.05383
 H315 H 0.33803 0.72664 -0.12008
 H316 H 0.37608 0.66239 -0.10784
 H317 H 0.43441 0.66528 -0.06574
 H318 H 0.45514 0.73274 -0.03604
 H319 H 0.34755 0.87493 -0.07703
 H320 H 0.40747 0.87823 -0.03888
 C321 C 0.11383 0.39105 0.14693
 C322 C 0.10318 0.35678 0.17430
 C323 C 0.06775 0.35986 0.19760
 C324 C 0.04306 0.39495 0.19381
 C325 C 0.05108 0.42686 0.16432
 C326 C 0.08610 0.42406 0.13939
 C327 C 0.15169 0.39458 0.12788
 C328 C 0.15995 0.42551 0.09775
 C329 C 0.13101 0.45405 0.08657
 C330 C 0.09448 0.45368 0.10732
 H331 H 0.17575 0.37489 0.13704
 H332 H 0.18895 0.42729 0.08299
 H333 H 0.13726 0.47740 0.06255
 H334 H 0.07302 0.47686 0.09805
 H335 H 0.05879 0.33494 0.21921
 H336 H 0.01726 0.39699 0.21412
 C337 C 0.06850 0.63657 0.89297
 C338 C 0.07312 0.66131 0.85620
 C339 C 0.05360 0.64733 0.82162
 C340 C 0.03392 0.60821 0.82143
 C341 C 0.03181 0.58182 0.85604
 C342 C 0.04836 0.59620 0.89252
 C343 C 0.08115 0.65191 0.93079
 C344 C 0.07765 0.62664 0.96600
 C345 C 0.05972 0.58651 0.96496
 C346 C 0.04437 0.57173 0.92890
 H347 H 0.09255 0.68403 0.93412
 H348 H 0.08829 0.63864 0.99444
 H349 H 0.05667 0.56724 0.99252
 H350 H 0.02890 0.54132 0.93005
 H351 H 0.05584 0.66495 0.79307
 H352 H 0.02150 0.59765 0.79329
 C353 C -0.09429 0.62468 0.12079
 C354 C -0.09782 0.65071 0.15652
 C355 C -0.07493 0.64032 0.18987
 C356 C -0.05190 0.60366 0.18987
 C357 C -0.05015 0.57606 0.15639
 C358 C -0.07143 0.58633 0.12137
 C359 C -0.11008 0.63746 0.08339
 C360 C -0.10670 0.61148 0.04894
 C361 C -0.08670 0.57279 0.05048
 C362 C -0.06886 0.56041 0.08608
 H363 H -0.12358 0.66842 0.07958
 H364 H -0.11916 0.62178 0.02069
 H365 H -0.08398 0.55286 0.02355
 H366 H -0.05210 0.53103 0.08511
 H367 H -0.07629 0.65930 0.21746
 H368 H -0.03561 0.59636 0.21671
 C369 C -0.04033 0.34224 0.80330
 C370 C -0.07283 0.33100 0.83029
 C371 C -0.08411 0.36014 0.86130
 C372 C -0.06650 0.40024 0.86383
 C373 C -0.03664 0.41303 0.83583
 C374 C -0.02396 0.38446 0.80455
 C375 C -0.02203 0.31209 0.77668
 C376 C 0.00800 0.32456 0.74879
 C377 C 0.02068 0.36707 0.74702
 C378 C 0.00491 0.39688 0.77461
 H379 H -0.02963 0.27839 0.77807
 H380 H 0.02145 0.30111 0.72842
 H381 H 0.04351 0.37677 0.72485
 H382 H 0.01595 0.42950 0.77276
 H383 H -0.10826 0.35328 0.88286
 H384 H -0.07639 0.42173 0.88801
 C385 C 0.22868 0.06028 0.36633
 C386 C 0.20299 0.09532 0.35967
 C387 C 0.17551 0.10667 0.39081
 C388 C 0.17345 0.08468 0.42789
 C389 C 0.19984 0.05171 0.43588
 C390 C 0.22912 0.04088 0.40577
 C391 C 0.25314 0.04294 0.33472
 C392 C 0.28042 0.01110 0.34294
 C393 C 0.28395 -0.00398 0.38264
 C394 C 0.25865 0.01087 0.41392
 H395 H 0.25071 0.05268 0.30327
 H396 H 0.29912 -0.00167 0.31843
 H397 H 0.30574 -0.02799 0.38908
 H398 H 0.26193 -0.00171 0.44441
 H399 H 0.15550 0.13310 0.38668
 H400 H 0.15097 0.09349 0.45066
 C401 C 0.76190 0.08147 0.62396
 C402 C 0.79825 0.09113 0.64160
 C403 C 0.83345 0.07877 0.62147
 C404 C 0.83321 0.05598 0.58512
 C405 C 0.79778 0.04507 0.56773
 C406 C 0.76174 0.05783 0.58687
 C407 C 0.72573 0.09566 0.64161
 C408 C 0.69035 0.08529 0.62407
 C409 C 0.69024 0.06110 0.58850
 C410 C 0.72554 0.04759 0.56985
 H411 H 0.72431 0.11541 0.66862
 H412 H 0.66287 0.09626 0.63806
 H413 H 0.66268 0.05312 0.57508
 H414 H 0.72421 0.02919 0.54201
 H415 H 0.86140 0.08612 0.63445
 H416 H 0.86091 0.04642 0.57053
 C417 C 0.14584 -0.04924 0.65878
 C418 C 0.17555 -0.07946 0.66677
 C419 C 0.20335 -0.09006 0.63587
 C420 C 0.20260 -0.07076 0.59759
 C421 C 0.17472 -0.03931 0.58939
 C422 C 0.14518 -0.02934 0.61956
 C423 C 0.11725 -0.03767 0.68910
 C424 C 0.08813 -0.00797 0.68062
 C425 C 0.08684 0.01053 0.64192
 C426 C 0.11495 -0.00010 0.61152
 H427 H 0.11725 -0.05123 0.71956
 H428 H 0.06636 0.00060 0.70414
 H429 H 0.06399 0.03329 0.63544
 H430 H 0.11282 0.01469 0.58174
 H431 H 0.22589 -0.11355 0.64146
 H432 H 0.22515 -0.07896 0.57467
 C433 C 0.83298 -0.06385 0.34740
 C434 C 0.80167 -0.09309 0.34132
 C435 C 0.77444 -0.10174 0.37360
 C436 C 0.77732 -0.08170 0.41119
 C437 C 0.80729 -0.05191 0.41768
 C438 C 0.83650 -0.04431 0.38634
 C439 C 0.86027 -0.05249 0.31547
 C440 C 0.89147 -0.02469 0.32240
 C441 C 0.89616 -0.00773 0.36108
 C442 C 0.86908 -0.01747 0.39288
 H443 H 0.85757 -0.06435 0.28480
 H444 H 0.91222 -0.01641 0.29764
 H445 H 0.92070 0.01342 0.36639
 H446 H 0.87368 -0.00366 0.42254
 H447 H 0.75057 -0.12425 0.36968
 H448 H 0.75492 -0.08810 0.43493
 C449 C 0.61267 0.77297 -0.09085
 C450 C 0.63860 0.80856 -0.08830
 C451 C 0.62760 0.84365 -0.06396
 C452 C 0.59190 0.84373 -0.04160
 C453 C 0.56584 0.80892 -0.04322
 C454 C 0.57610 0.77306 -0.06799
 C455 C 0.62179 0.73767 -0.11640
 C456 C 0.59619 0.70277 -0.11836
 C457 C 0.56098 0.70240 -0.09530
 C458 C 0.55087 0.73714 -0.07046
 H459 H 0.64843 0.73679 -0.13546
 H460 H 0.60367 0.67591 -0.13797
 H461 H 0.54124 0.67517 -0.09685
 H462 H 0.52321 0.73542 -0.05327
 H463 H 0.64708 0.87109 -0.06190
 H464 H 0.58431 0.87144 -0.02308
 C465 C 0.38542 0.15622 -0.07951
 C466 C 0.36572 0.19542 -0.08669
 C467 C 0.38170 0.23407 -0.07325
 C468 C 0.41709 0.23463 -0.05370
 C469 C 0.43725 0.19651 -0.04657
 C470 C 0.42173 0.15688 -0.05956
 C471 C 0.36937 0.11626 -0.09057
 C472 C 0.38913 0.07808 -0.08304
 C473 C 0.42503 0.07889 -0.06432
 C474 C 0.44131 0.11785 -0.05263
 H475 H 0.34126 0.11400 -0.10451
 H476 H 0.37647 0.04769 -0.09168
 H477 H 0.44025 0.04916 -0.05862
 H478 H 0.46921 0.11712 -0.03810
 H479 H 0.36693 0.26421 -0.07853
 H480 H 0.42875 0.26505 -0.04369
 C481 C 0.36202 0.77486 0.08295
 C482 C 0.34293 0.81462 0.09077
 C483 C 0.36083 0.85286 0.07677
 C484 C 0.39659 0.85235 0.05458
 C485 C 0.41573 0.81360 0.04606
 C486 C 0.39875 0.77445 0.06041
 C487 C 0.34626 0.73559 0.09815
 C488 C 0.36557 0.69692 0.09031
 C489 C 0.40116 0.69657 0.06787
 C490 C 0.41786 0.73491 0.05329
 H491 H 0.31930 0.73424 0.11668
 H492 H 0.35302 0.66709 0.10204
 H493 H 0.41613 0.66648 0.06212
 H494 H 0.44598 0.73330 0.03680
 H495 H 0.34677 0.88345 0.08280
 H496 H 0.40954 0.88246 0.04400
 C497 C 0.63506 0.24850 0.06756
 C498 C 0.64852 0.21057 0.08661
 C499 C 0.62620 0.17276 0.08490
 C500 C 0.59174 0.17149 0.06369
 C501 C 0.57841 0.20808 0.04378
 C502 C 0.59957 0.24718 0.04611
 C503 C 0.65512 0.28811 0.07052
 C504 C 0.64111 0.32507 0.05195
 C505 C 0.60653 0.32364 0.03092
 C506 C 0.58562 0.28526 0.02838
 H507 H 0.68132 0.29127 0.08768
 H508 H 0.65691 0.35513 0.05436
 H509 H 0.59555 0.35255 0.01699
 H510 H 0.55821 0.28581 0.01296
 H511 H 0.63589 0.14368 0.09965
 H512 H 0.57556 0.14153 0.06229
 C513 C -0.09398 0.61172 0.78846
 C514 C -0.10544 0.63882 0.82193
 C515 C -0.09153 0.62913 0.86077
 C516 C -0.06516 0.59580 0.86635
 C517 C -0.05172 0.57081 0.83344
 C518 C -0.06551 0.57900 0.79402
 C519 C -0.11212 0.61373 0.75042
 C520 C -0.09905 0.58846 0.71764
 C521 C -0.06846 0.55972 0.72217
 C522 C -0.05205 0.55456 0.76004
 H523 H -0.13766 0.63322 0.74586
 H524 H -0.11299 0.59093 0.68866
 H525 H -0.05817 0.54044 0.69653
 H526 H -0.02896 0.53107 0.76250
 H527 H -0.09980 0.64850 0.88707
 H528 H -0.05512 0.58941 0.89671
 C529 C -0.04988 0.34908 0.12247
 C530 C -0.07482 0.33694 0.15631
 C531 C -0.07948 0.36458 0.18965
 C532 C -0.06071 0.40434 0.18950
 C533 C -0.03617 0.41738 0.15631
 C534 C -0.03055 0.38978 0.12233
 C535 C -0.04332 0.32140 0.08897
 C536 C -0.01851 0.33368 0.05598
 C537 C -0.00027 0.37381 0.05546
 C538 C -0.00646 0.40188 0.08806
 H539 H -0.05689 0.28993 0.08823
 H540 H -0.01352 0.31195 0.03069
 H541 H 0.01881 0.38327 0.02969
 H542 H 0.00784 0.43295 0.08620
 H543 H -0.09863 0.35573 0.21562
 H544 H -0.06516 0.42514 0.21567
 C545 C 0.06287 0.35171 0.88356
 C546 C 0.09371 0.34825 0.85350
 C547 C 0.10194 0.38246 0.82666
 C548 C 0.07930 0.41949 0.82835
 C549 C 0.04757 0.42322 0.85673
 C550 C 0.04012 0.38993 0.88578
 C551 C 0.05392 0.31788 0.91127
 C552 C 0.02347 0.32187 0.94079
 C553 C 0.00200 0.35976 0.94373
 C554 C 0.01060 0.39381 0.91700
 H555 H 0.07021 0.28812 0.91020
 H556 H 0.01668 0.29553 0.96161
 H557 H -0.02147 0.36282 0.96680
 H558 H -0.00619 0.42304 0.92076
 H559 H 0.12575 0.38019 0.80379
 H560 H 0.08556 0.44479 0.80615
 C561 C 0.05522 0.65516 0.13223
 C562 C 0.07287 0.66695 0.16899
 C563 C 0.07076 0.63860 0.20238
 C564 C 0.05272 0.59861 0.19953
 C565 C 0.03637 0.58553 0.16315
 C566 C 0.03808 0.61356 0.12886
 C567 C 0.05342 0.68405 0.09900
 C568 C 0.03637 0.67171 0.06292
 C569 C 0.02163 0.63027 0.05892
 C570 C 0.02321 0.60111 0.09119
 H571 H 0.06429 0.71663 0.10085
 H572 H 0.03490 0.69428 0.03780
 H573 H 0.00876 0.62072 0.03073
 H574 H 0.01245 0.56890 0.08651
 H575 H 0.08400 0.64707 0.23073
 H576 H 0.05156 0.57754 0.22599
 C577 C 0.84240 -0.08057 0.62534
 C578 C 0.80617 -0.09007 0.64664
 C579 C 0.77094 -0.07723 0.62983
 C580 C 0.77093 -0.05679 0.59195
 C581 C 0.80614 -0.04836 0.56977
 C582 C 0.84229 -0.05992 0.58639
 C583 C 0.87883 -0.08983 0.64235
 C584 C 0.91410 -0.08021 0.62100
 C585 C 0.91388 -0.06088 0.58263
 C586 C 0.87839 -0.05061 0.56542
 H587 H 0.88053 -0.10373 0.67250
 H588 H 0.94177 -0.08755 0.63445
 H589 H 0.94136 -0.05342 0.56628
 H590 H 0.87950 -0.03503 0.53578
 H591 H 0.74306 -0.08405 0.64573
 H592 H 0.74315 -0.04756 0.57970
 C593 C 0.20843 -0.09763 0.39074
 C594 C 0.18057 -0.08520 0.36209
 C595 C 0.15315 -0.05333 0.37229
 C596 C 0.15397 -0.03231 0.40966
 C597 C 0.18218 -0.04266 0.43795
 C598 C 0.20938 -0.07614 0.42895
 C599 C 0.23535 -0.13113 0.38230
 C600 C 0.26330 -0.14230 0.41026
 C601 C 0.26500 -0.12051 0.44706
 C602 C 0.23843 -0.08778 0.45645
 H603 H 0.23495 -0.14921 0.35425
 H604 H 0.28383 -0.16791 0.40327
 H605 H 0.28703 -0.12904 0.46848
 H606 H 0.24139 -0.07147 0.48518
 H607 H 0.13153 -0.04388 0.35070
 H608 H 0.13288 -0.00709 0.41628
 C609 C 0.76849 0.05477 0.34903
 C610 C 0.79757 0.08683 0.34031
 C611 C 0.82538 0.09569 0.36947
 C612 C 0.82454 0.07409 0.40675
 C613 C 0.79549 0.04334 0.41655
 C614 C 0.76604 0.03497 0.38837
 C615 C 0.74237 0.04092 0.31940
 C616 C 0.71238 0.01162 0.32949
 C617 C 0.70775 -0.00439 0.36912
 C618 C 0.73420 0.00722 0.39844
 H619 H 0.74531 0.05165 0.28802
 H620 H 0.69246 0.00151 0.30649
 H621 H 0.68398 -0.02650 0.37700
 H622 H 0.72987 -0.00611 0.42887
 H623 H 0.84781 0.11997 0.36360
 H624 H 0.84718 0.08102 0.42804
 C625 C 0.22708 0.06139 0.65384
 C626 C 0.20090 0.09575 0.66312
 C627 C 0.17301 0.10723 0.63481
 C628 C 0.17105 0.08594 0.59774
 C629 C 0.19734 0.05298 0.58741
 C630 C 0.22683 0.04184 0.61469
 C631 C 0.25280 0.04501 0.68277
 C632 C 0.28005 0.01330 0.67205
 C633 C 0.28224 -0.00271 0.63248
 C634 C 0.25598 0.01142 0.60392
 H635 H 0.25160 0.05565 0.71410
 H636 H 0.29970 0.00127 0.69450
 H637 H 0.30388 -0.02678 0.62409
 H638 H 0.25826 -0.00210 0.57357
 H639 H 0.15276 0.13329 0.64120
 H640 H 0.14845 0.09489 0.57706
   
