data_POSCAR
  _audit_creation_date              2014-09-24
  _audit_creation_method            'ToBaCCo'
  _symmetry_space_group_name_H-M    'P1'
  _symmetry_Int_Tables_number       1
  _symmetry_cell_setting            triclinic
  loop_
  _symmetry_equiv_pos_as_xyz
 x,y,z
_cell_length_a 22.2976
_cell_length_b 31.7748
_cell_length_c 43.3987
_cell_angle_alpha 91.213100
_cell_angle_beta 98.245400
_cell_angle_gamma 146.941300
loop_
  _atom_site_label
  _atom_site_type_symbol
  _atom_site_fract_x
  _atom_site_fract_y
  _atom_site_fract_z
C1 C 0.18166 0.19795 0.20033
 C2 C 0.16001 0.18132 0.22989
 C3 C 0.14933 0.21022 0.24899
 C4 C 0.14112 0.24570 0.23425
 C5 C 0.15876 0.26059 0.20316
 C6 C 0.18342 0.23875 0.18698
 C7 C 0.20791 0.17724 0.18514
 C8 C 0.24667 0.20195 0.15770
 C9 C 0.24157 0.23874 0.14294
 C10 C 0.21078 0.25784 0.15766
 C11 C 0.21168 0.29850 0.14423
 C12 C 0.18255 0.31912 0.15860
 C13 C 0.15637 0.29910 0.18848
 H14 H 0.15369 0.14607 0.23826
 H15 H 0.12755 0.26565 0.24733
 H16 H 0.20037 0.14255 0.19551
 H17 H 0.26779 0.25673 0.12129
 H18 H 0.23763 0.31455 0.12260
 H19 H 0.13502 0.31372 0.20087
 C20 C -0.05682 0.88775 0.19639
 C21 C -0.01385 0.90943 0.22961
 C22 C -0.07318 0.84642 0.24365
 C23 C -0.10697 0.78738 0.22689
 C24 C -0.11878 0.77809 0.19326
 C25 C -0.11008 0.82128 0.17789
 C26 C -0.06998 0.91978 0.18284
 C27 C -0.14874 0.87907 0.15210
 C28 C -0.18343 0.82258 0.13164
 C29 C -0.16194 0.79463 0.14464
 C30 C -0.19574 0.73807 0.12580
 C31 C -0.17517 0.71015 0.13999
 C32 C -0.14775 0.72382 0.17402
 H33 H 0.03052 0.96243 0.24379
 H34 H -0.13872 0.74315 0.23806
 H35 H -0.03317 0.96857 0.19806
 H36 H -0.23827 0.79320 0.10705
 H37 H -0.22963 0.72038 0.09981
 H38 H -0.14164 0.69711 0.18536
 C39 C -0.21104 0.11269 -0.26445
 C40 C -0.26961 0.08032 -0.29802
 C41 C -0.22245 0.13348 -0.31797
 C42 C -0.13966 0.21244 -0.30263
 C43 C -0.06976 0.24585 -0.27200
 C44 C -0.10129 0.19570 -0.25382
 C45 C -0.25459 0.06770 -0.24105
 C46 C -0.18094 0.10505 -0.20897
 C47 C -0.06207 0.18369 -0.20281
 C48 C -0.02348 0.23026 -0.22446
 C49 C 0.08464 0.31406 -0.21551
 C50 C 0.08383 0.35576 -0.22530
 C51 C 0.02947 0.32853 -0.25822
 H52 H -0.34376 0.01668 -0.30839
 H53 H -0.11618 0.25151 -0.31593
 H54 H -0.34405 0.00531 -0.24755
 H55 H -0.00433 0.21297 -0.17894
 H56 H 0.14887 0.34292 -0.19388
 H57 H 0.04595 0.36594 -0.27034
 C58 C 0.28998 0.91848 -0.28204
 C59 C 0.24784 0.87843 -0.31385
 C60 C 0.15909 0.79567 -0.32057
 C61 C 0.16127 0.76831 -0.29626
 C62 C 0.22280 0.81455 -0.26401
 C63 C 0.28000 0.88712 -0.25667
 C64 C 0.31486 0.97616 -0.27618
 C65 C 0.33235 1.00341 -0.24518
 C66 C 0.34235 0.98215 -0.21910
 C67 C 0.31187 0.92166 -0.22473
 C68 C 0.29672 0.88784 -0.19973
 C69 C 0.24353 0.81632 -0.20638
 C70 C 0.20893 0.78179 -0.23916
 H71 H 0.25160 0.90149 -0.33300
 H72 H 0.09855 0.70601 -0.30144
 H73 H 0.30458 0.99116 -0.29617
 H74 H 0.35735 1.00413 -0.19495
 H75 H 0.32187 0.91615 -0.17562
 H76 H 0.16474 0.72654 -0.24689
 C77 C 0.19658 1.23429 0.81454
 C78 C 0.19230 1.22992 0.78212
 C79 C 0.19564 1.19290 0.76574
 C80 C 0.20186 1.15878 0.78353
 C81 C 0.20936 1.16465 0.81672
 C82 C 0.20921 1.20419 0.83179
 C83 C 0.18777 1.26784 0.83043
 C84 C 0.19754 1.27382 0.86366
 C85 C 0.23723 1.26126 0.88073
 C86 C 0.22709 1.21730 0.86499
 C87 C 0.23496 1.18696 0.88307
 C88 C 0.23533 1.14732 0.86971
 C89 C 0.22303 1.13606 0.83599
 H90 H 0.19441 1.26094 0.77074
 H91 H 0.20002 1.12717 0.77189
 H92 H 0.16832 1.28479 0.81680
 H93 H 0.26586 1.27916 0.90699
 H94 H 0.25066 1.20096 0.90885
 H95 H 0.22901 1.10890 0.82531
 C96 C 0.80958 0.78326 0.79767
 C97 C 0.81281 0.79176 0.76595
 C98 C 0.80268 0.82681 0.75295
 C99 C 0.80398 0.86200 0.77455
 C100 C 0.79304 0.84950 0.80539
 C101 C 0.79380 0.80866 0.81668
 C102 C 0.81404 0.74480 0.80983
 C103 C 0.79872 0.72848 0.84046
 C104 C 0.77937 0.75260 0.85840
 C105 C 0.77573 0.79138 0.84665
 C106 C 0.75151 0.81145 0.86439
 C107 C 0.75268 0.85401 0.85397
 C108 C 0.77583 0.87402 0.82447
 H109 H 0.81500 0.76546 0.75122
 H110 H 0.81028 0.89781 0.76763
 H111 H 0.82333 0.72409 0.79444
 H112 H 0.77169 0.74460 0.88241
 H113 H 0.72821 0.79123 0.88605
 H114 H 0.77761 0.90676 0.81593
 C115 C 0.06050 0.68102 1.27350
 C116 C 0.09244 0.71859 1.30451
 C117 C 0.14192 0.78830 1.30943
 C118 C 0.17155 0.82545 1.28435
 C119 C 0.14524 0.79082 1.25385
 C120 C 0.08040 0.71507 1.24788
 C121 C 0.01662 0.61365 1.26754
 C122 C -0.02304 0.57411 1.23553
 C123 C -0.02363 0.60066 1.21009
 C124 C 0.04105 0.67543 1.21635
 C125 C 0.08007 0.71534 1.19217
 C126 C 0.16223 0.79572 1.19950
 C127 C 0.18742 0.83182 1.22960
 H128 H 0.07477 0.69230 1.32438
 H129 H 0.21518 0.88139 1.28874
 H130 H 0.01859 0.59470 1.28755
 H131 H -0.05183 0.57245 1.18531
 H132 H 0.05444 0.68604 1.16816
 H133 H 0.24485 0.89265 1.23483
 C134 C 0.86626 1.26253 1.30674
 C135 C 0.86749 1.27537 1.33822
 C136 C 0.81910 1.21891 1.35575
 C137 C 0.72159 1.13840 1.33663
 C138 C 0.73344 1.12710 1.30795
 C139 C 0.81434 1.19311 1.29466
 C140 C 0.92653 1.31963 1.28864
 C141 C 0.94654 1.31088 1.26146
 C142 C 0.93173 1.25821 1.25867
 C143 C 0.86005 1.19663 1.27393
 C144 C 0.82978 1.13690 1.26764
 C145 C 0.73258 1.06337 1.27491
 C146 C 0.68572 1.05931 1.29606
 H147 H 0.92638 1.33453 1.35092
 H148 H 0.66877 1.09066 1.34869
 H149 H 0.95182 1.36705 1.29458
 H150 H 0.95906 1.25607 1.24096
 H151 H 0.87175 1.14412 1.25271
 H152 H 0.61437 1.00461 1.30321
 O153 O 0.46985 0.95956 0.94511
 O154 O 0.25006 0.83552 1.00049
 O155 O 0.57662 0.97004 1.04567
 O156 O 0.29421 0.97894 0.95005
 O157 O 0.42155 0.90512 1.05721
 O158 O 0.41509 1.01064 0.92869
 O159 O 0.18833 0.85579 0.97512
 O160 O 0.44721 0.90197 0.98520
 C161 C 0.46516 0.91840 0.95571
 C162 C 0.16995 0.80765 0.98297
 C163 C 0.50168 0.92289 1.06067
 C164 C 0.34397 0.99995 0.92668
 O165 O 0.56984 1.10681 0.98011
 O166 O 0.45957 0.99814 1.07953
 O167 O 0.63581 1.05106 1.00687
 O168 O 0.31688 0.99120 1.02178
 O169 O 0.40818 1.00357 1.06283
 O170 O 0.59851 1.08932 0.97886
 O171 O 0.45869 1.08044 0.99905
 O172 O 0.60801 1.06009 1.06320
 Co173 Co 0.43349 0.99212 0.96486
 Co174 Co 0.32090 0.90068 1.04259
 Co175 Co 0.51497 0.97771 1.02643
 Co176 Co 0.33395 0.97041 0.98760
 O177 O 0.42621 0.97841 1.01194
 C178 C 0.55178 1.13239 0.99272
 C179 C 0.56840 1.04985 1.08583
 C180 C 0.65682 1.08849 0.98614
 C181 C 0.38012 1.02474 1.05110
 O182 O -0.15570 0.37991 0.04345
 O183 O 0.05322 0.50476 -0.04668
 O184 O -0.03661 0.36694 -0.01640
 O185 O -0.11291 0.46174 0.01984
 O186 O -0.03266 0.39744 -0.06406
 O187 O -0.13280 0.44521 0.02118
 O188 O 0.05500 0.55661 -0.01337
 O189 O -0.03495 0.41199 0.02805
 C190 C -0.04464 0.42970 0.04978
 C191 C 0.09832 0.56505 -0.03419
 C192 C 0.01191 0.39932 -0.03850
 C193 C -0.04115 0.52002 0.04229
 O194 O -0.26492 0.39004 -0.02342
 O195 O -0.13286 0.33819 -0.08191
 O196 O -0.17885 0.27076 0.01804
 O197 O -0.11520 0.46742 -0.06657
 O198 O -0.11496 0.46509 -0.06845
 O199 O -0.23079 0.30254 0.03656
 O200 O -0.25260 0.40186 -0.02796
 O201 O -0.24755 0.24575 -0.05169
 Co202 Co -0.28478 0.32151 -0.00043
 Co203 Co -0.10077 0.41389 -0.06962
 Co204 Co -0.15461 0.32534 -0.00793
 Co205 Co -0.10583 0.47082 -0.02200
 O206 O -0.16265 0.37749 -0.02848
 C207 C -0.28681 0.41652 -0.01807
 C208 C -0.22506 0.26290 -0.08111
 C209 C -0.21545 0.26963 0.03911
 C210 C -0.12172 0.48344 -0.09283
 O211 O 1.07381 0.04889 0.47321
 O212 O 0.74772 -0.09286 0.49872
 O213 O 0.85982 -0.04270 0.45398
 O214 O 1.10116 0.06918 0.57451
 O215 O 0.86212 -0.04017 0.45629
 O216 O 1.19237 0.12189 0.53526
 O217 O 0.88923 -0.00367 0.55019
 O218 O 1.06406 0.04840 0.46880
 C219 C 1.13520 0.08128 0.45330
 C220 C 0.79808 -0.04296 0.52598
 C221 C 0.87903 0.00749 0.46443
 C222 C 1.18748 0.12910 0.56397
 O223 O 1.12907 0.01479 0.55002
 O224 O 0.68581 -0.18725 0.43830
 O225 O 1.01269 -0.05892 0.45739
 O226 O 0.86945 -0.13054 0.55314
 O227 O 0.71544 -0.20116 0.50816
 O228 O 1.17697 0.03967 0.49901
 O229 O 0.96966 -0.07279 0.56250
 O230 O 0.84550 -0.11462 0.42336
 Co231 Co 1.08487 0.02037 0.51300
 Co232 Co 0.79436 -0.11502 0.48014
 Co233 Co 0.92417 -0.06182 0.46609
 Co234 Co 0.94352 -0.03063 0.55682
 O235 O 0.95768 -0.02112 0.51216
 C236 C 1.06748 -0.03270 0.56685
 C237 C 0.73311 -0.17416 0.41602
 C238 C 1.11688 -0.01172 0.47151
 C239 C 0.75927 -0.19713 0.53735
 C240 C 1.20811 0.18616 0.32882
 C241 C 1.14601 0.17692 0.34385
 C242 C 1.09338 0.18627 0.32972
 C243 C 1.09655 0.19902 0.29894
 C244 C 1.14997 0.20350 0.28185
 C245 C 1.20710 0.20107 0.29831
 O246 O 1.16720 0.16684 0.35499
 C247 C 1.20030 0.15266 0.37500
 C248 C 1.14416 0.15944 0.37145
 C249 C 1.09406 0.14899 0.39596
 C250 C 1.09438 0.12610 0.42287
 C251 C 1.13864 0.11145 0.42615
 C252 C 1.19222 0.12780 0.40337
 H253 H 1.04906 0.18017 0.34249
 H254 H 1.05254 0.20124 0.28818
 H255 H 1.26118 0.21452 0.28742
 H256 H 1.05795 0.15902 0.39315
 H257 H 1.06186 0.12093 0.44123
 H258 H 1.23308 0.12132 0.40766
 C259 C 0.76390 -0.23422 0.30452
 C260 C 0.72900 -0.21377 0.29824
 C261 C 0.76541 -0.16796 0.27721
 C262 C 0.83534 -0.14566 0.26075
 C263 C 0.86615 -0.17125 0.26420
 C264 C 0.82775 -0.21749 0.28653
 O265 O 0.74469 -0.25915 0.33121
 C266 C 0.69592 -0.25495 0.34145
 C267 C 0.68019 -0.23055 0.32132
 C268 C 0.64417 -0.21231 0.32916
 C269 C 0.63535 -0.21112 0.36042
 C270 C 0.66694 -0.22497 0.38303
 C271 C 0.68755 -0.25401 0.37261
 H272 H 0.74582 -0.14626 0.27473
 H273 H 0.86136 -0.11018 0.24438
 H274 H 0.85256 -0.23539 0.29125
 H275 H 0.63328 -0.19277 0.31278
 H276 H 0.62071 -0.18816 0.36823
 H277 H 0.71906 -0.25993 0.39003
 C278 C 0.69312 0.03035 0.59894
 C279 C 0.78532 0.09629 0.58862
 C280 C 0.87184 0.17403 0.60620
 C281 C 0.86419 0.18468 0.63577
 C282 C 0.76951 0.11792 0.64761
 C283 C 0.68143 0.03940 0.62816
 O284 O 0.63484 -0.03647 0.58210
 C285 C 0.69229 -0.01205 0.56115
 C286 C 0.78477 0.06896 0.56412
 C287 C 0.87218 0.11145 0.55049
 C288 C 0.86657 0.06955 0.53428
 C289 C 0.77265 -0.01375 0.53056
 C290 C 0.68230 -0.05584 0.54343
 H291 H 0.94799 0.22527 0.59881
 H292 H 0.93876 0.24620 0.65004
 H293 H 0.61134 -0.01289 0.63653
 H294 H 0.94865 0.17611 0.55529
 H295 H 0.94215 0.10381 0.52780
 H296 H 0.61637 -0.11739 0.54388
 C297 C 1.01406 -0.22444 0.61898
 C298 C 1.01178 -0.19406 0.64094
 C299 C 1.00284 -0.20710 0.67143
 C300 C 1.01146 -0.24400 0.68100
 C301 C 1.05156 -0.25122 0.66246
 C302 C 1.03207 -0.25535 0.62921
 O303 O 1.02870 -0.20165 0.59193
 C304 C 1.04226 -0.15256 0.59771
 C305 C 1.03763 -0.14321 0.62794
 C306 C 1.07371 -0.08242 0.64156
 C307 C 1.10404 -0.03509 0.62191
 C308 C 1.09474 -0.05089 0.58933
 C309 C 1.06698 -0.10869 0.57728
 H310 H 1.00028 -0.18316 0.68820
 H311 H 1.02067 -0.24390 0.70623
 H312 H 1.05653 -0.26422 0.61391
 H313 H 1.07947 -0.07117 0.66640
 H314 H 1.12670 0.01004 0.63124
 H315 H 1.05668 -0.12316 0.55225
 C316 C 0.31734 1.15452 1.10712
 C317 C 0.37062 1.15908 1.13141
 C318 C 0.39149 1.18177 1.16375
 C319 C 0.35389 1.19885 1.17169
 C320 C 0.29403 1.19240 1.14760
 C321 C 0.27998 1.17278 1.11456
 O322 O 0.30185 1.12767 1.07790
 C323 C 0.34627 1.11526 1.08422
 C324 C 0.38951 1.13389 1.11666
 C325 C 0.43389 1.12146 1.12904
 C326 C 0.43371 1.08807 1.10719
 C327 C 0.39148 1.06884 1.07345
 C328 C 0.34648 1.08257 1.06184
 H329 H 0.43420 1.18524 1.18238
 H330 H 0.37310 1.21800 1.19714
 H331 H 0.23462 1.16648 1.09536
 H332 H 0.46545 1.13555 1.15480
 H333 H 0.46560 1.07642 1.11668
 H334 H 0.30999 1.06620 1.03627
 C335 C 0.36697 1.09812 0.81292
 C336 C 0.25227 1.03096 0.81270
 C337 C 0.16225 0.97182 0.78419
 C338 C 0.19219 0.97463 0.75704
 C339 C 0.30924 1.03469 0.75988
 C340 C 0.39494 1.10539 0.78471
 O341 O 0.43783 1.12946 0.84103
 C342 C 0.36913 1.08055 0.85851
 C343 C 0.25473 1.02100 0.84305
 C344 C 0.16731 0.95563 0.85510
 C345 C 0.19966 0.95277 0.88408
 C346 C 0.31593 1.01057 0.89876
 C347 C 0.40166 1.07508 0.88571
 H348 H 0.07326 0.91776 0.78433
 H349 H 0.12468 0.92109 0.73724
 H350 H 0.48376 1.15077 0.78687
 H351 H 0.07730 0.90656 0.84186
 H352 H 0.13293 0.90198 0.89372
 H353 H 0.48896 1.11578 0.89454
 C354 C 0.67739 0.86496 1.10698
 C355 C 0.65038 0.87016 1.13179
 C356 C 0.69594 0.88600 1.16371
 C357 C 0.76794 0.89317 1.17027
 C358 C 0.79261 0.88339 1.14493
 C359 C 0.74695 0.87009 1.11274
 O360 O 0.63660 0.85972 1.07893
 C361 C 0.58278 0.86142 1.08631
 C362 C 0.58608 0.86584 1.11816
 C363 C 0.54054 0.87295 1.13122
 C364 C 0.50196 0.88522 1.11153
 C365 C 0.50789 0.88815 1.07945
 C366 C 0.54136 0.87053 1.06627
 H367 H 0.67698 0.89291 1.18294
 H368 H 0.79821 0.90159 1.19517
 H369 H 0.76779 0.86640 1.09289
 H370 H 0.54028 0.87308 1.15612
 H371 H 0.47664 0.89846 1.12197
 H372 H 0.54473 0.87108 1.04162
 C373 C 0.70085 1.05933 0.85940
 C374 C 0.76937 1.07411 0.88241
 C375 C 0.83472 1.08066 0.87433
 C376 C 0.83998 1.08108 0.84228
 C377 C 0.77897 1.07370 0.81831
 C378 C 0.70188 1.05700 0.82685
 O379 O 0.64842 1.05781 0.87225
 C380 C 0.68695 1.07400 0.90396
 C381 C 0.76111 1.08443 0.91161
 C382 C 0.81493 1.10549 0.94368
 C383 C 0.78817 1.11323 0.96865
 C384 C 0.71187 1.10302 0.96158
 C385 C 0.66450 1.08604 0.92843
 H386 H 0.88391 1.08857 0.89246
 H387 H 0.89646 1.09115 0.83645
 H388 H 0.65634 1.05336 0.80991
 H389 H 0.87413 1.11430 0.94936
 H390 H 0.82436 1.12505 0.99338
 H391 H 0.60460 1.07670 0.92145
 C392 C 0.15610 0.42443 0.13999
 C393 C 0.19207 0.44681 0.11302
 C394 C 0.21204 0.42174 0.09766
 C395 C 0.20404 0.37803 0.11194
 C396 C 0.18266 0.36252 0.14260
 C397 C 0.15765 0.38689 0.15640
 O398 O 0.10657 0.43151 0.14496
 C399 C 0.11117 0.45848 0.12063
 C400 C 0.17320 0.47632 0.10247
 C401 C 0.20370 0.51646 0.07900
 C402 C 0.15731 0.52977 0.07209
 C403 C 0.05469 0.48051 0.08015
 C404 C 0.04124 0.45297 0.10823
 H405 H 0.22244 0.42872 0.07376
 H406 H 0.21073 0.35448 0.09771
 H407 H 0.13644 0.37524 0.17872
 H408 H 0.26116 0.53700 0.06656
 H409 H 0.17917 0.55922 0.05309
 H410 H -0.02952 0.41957 0.11739
 C411 C -0.05896 0.29730 -0.16524
 C412 C -0.13660 0.28087 -0.18121
 C413 C -0.11783 0.31549 -0.20588
 C414 C -0.02534 0.35778 -0.21740
 C415 C 0.04437 0.36349 -0.20404
 C416 C 0.03689 0.34432 -0.17432
 O417 O -0.08303 0.26652 -0.14054
 C418 C -0.17776 0.23031 -0.14025
 C419 C -0.21600 0.23595 -0.16485
 C420 C -0.30174 0.21448 -0.16527
 C421 C -0.33735 0.19681 -0.13735
 C422 C -0.28313 0.20456 -0.10995
 C423 C -0.21551 0.21022 -0.11339
 H424 H -0.17461 0.30745 -0.21673
 H425 H -0.01620 0.37828 -0.23860
 H426 H 0.09076 0.35148 -0.16162
 H427 H -0.32804 0.22198 -0.18408
 H428 H -0.38384 0.19726 -0.13445
 H429 H -0.16632 0.22241 -0.09234
 C430 C 0.22276 0.76973 -0.12078
 C431 C 0.18165 0.70442 -0.13159
 C432 C 0.14761 0.66903 -0.16561
 C433 C 0.16670 0.70508 -0.18858
 C434 C 0.21788 0.77490 -0.18030
 C435 C 0.24019 0.80231 -0.14741
 O436 O 0.19414 0.71434 -0.11091
 C437 C 0.20018 0.71707 -0.07854
 C438 C 0.17912 0.67996 -0.10759
 C439 C 0.15500 0.61987 -0.11068
 C440 C 0.14967 0.59599 -0.08442
 C441 C 0.15223 0.61978 -0.05594
 C442 C 0.18056 0.68000 -0.05352
 H443 H 0.10824 0.61538 -0.17305
 H444 H 0.14096 0.67609 -0.21241
 H445 H 0.27244 0.85276 -0.14078
 H446 H 0.13902 0.59276 -0.13314
 H447 H 0.12829 0.55017 -0.08837
 H448 H 0.18784 0.70026 -0.03072
 C449 C -0.21704 0.57288 0.09942
 C450 C -0.16250 0.61543 0.07560
 C451 C -0.10142 0.69172 0.07489
 C452 C -0.10455 0.72109 0.09681
 C453 C -0.16584 0.67886 0.11884
 C454 C -0.21449 0.61013 0.12036
 O455 O -0.19473 0.57201 0.07157
 C456 C -0.23392 0.50835 0.06314
 C457 C -0.17663 0.57670 0.05415
 C458 C -0.14267 0.59840 0.02396
 C459 C -0.17288 0.54783 0.00204
 C460 C -0.22568 0.48108 0.00936
 C461 C -0.25287 0.46459 0.03888
 H462 H -0.05753 0.72360 0.05711
 H463 H -0.06102 0.77623 0.09609
 H464 H -0.25574 0.58144 0.13899
 H465 H -0.10329 0.64918 0.01754
 H466 H -0.15797 0.55994 -0.02111
 H467 H -0.29771 0.41094 0.04336
 C468 C 1.26402 0.20404 0.68894
 C469 C 1.23403 0.22304 0.67237
 C470 C 1.17809 0.22258 0.68320
 C471 C 1.15921 0.20736 0.71332
 C472 C 1.19879 0.19481 0.73299
 C473 C 1.24714 0.18932 0.71931
 O474 O 1.30569 0.19985 0.67270
 C475 C 1.30266 0.21729 0.64549
 C476 C 1.26092 0.23304 0.64432
 C477 C 1.24247 0.24690 0.61715
 C478 C 1.25752 0.23674 0.58912
 C479 C 1.27907 0.20567 0.58817
 C480 C 1.31895 0.20775 0.61784
 H481 H 1.14835 0.23248 0.66873
 H482 H 1.11129 0.20414 0.72062
 H483 H 1.27646 0.17794 0.73211
 H484 H 1.20851 0.25848 0.61669
 H485 H 1.22847 0.23657 0.56677
 H486 H 1.33483 0.18353 0.61787
 C487 C 0.75216 -0.22363 0.66377
 C488 C 0.69767 -0.21919 0.65180
 C489 C 0.69101 -0.18889 0.67145
 C490 C 0.73309 -0.16878 0.70491
 C491 C 0.77969 -0.18040 0.71889
 C492 C 0.79266 -0.20571 0.69716
 O493 O 0.76505 -0.24224 0.64073
 C494 C 0.71534 -0.25122 0.61363
 C495 C 0.66962 -0.24018 0.61917
 C496 C 0.61726 -0.24376 0.59458
 C497 C 0.62061 -0.25236 0.56331
 C498 C 0.68467 -0.24992 0.55784
 C499 C 0.72324 -0.25696 0.58276
 H500 H 0.65599 -0.17977 0.66138
 H501 H 0.72290 -0.14769 0.71914
 H502 H 0.83399 -0.21086 0.70530
 H503 H 0.58229 -0.23457 0.59969
 H504 H 0.59100 -0.24649 0.54484
 H505 H 0.77522 -0.25294 0.57973
 C506 C 1.13398 -0.12919 0.36820
 C507 C 1.19766 -0.10853 0.39698
 C508 C 1.24254 -0.12274 0.39857
 C509 C 1.22244 -0.15832 0.36971
 C510 C 1.15889 -0.17838 0.34011
 C511 C 1.11350 -0.16421 0.33950
 O512 O 1.09492 -0.11379 0.37026
 C513 C 1.13371 -0.07911 0.40343
 C514 C 1.20524 -0.07223 0.42341
 C515 C 1.25684 -0.03488 0.46076
 C516 C 1.22964 -0.01226 0.47346
 C517 C 1.15876 -0.02195 0.45523
 C518 C 1.11133 -0.05160 0.42150
 H519 H 1.29179 -0.10671 0.42131
 H520 H 1.25817 -0.16858 0.37015
 H521 H 1.06302 -0.18021 0.31708
 H522 H 1.23640 -0.05621 0.44138
 H523 H 1.26191 0.01120 0.49936
 H524 H 1.11707 -0.06783 0.40917
 C525 C 0.87029 0.16854 0.41241
 C526 C 0.86778 0.13736 0.38869
 C527 C 0.90848 0.17000 0.36299
 C528 C 0.94273 0.23179 0.36079
 C529 C 0.89798 0.23822 0.37678
 C530 C 0.87831 0.21609 0.40627
 O531 O 0.86311 0.14745 0.43938
 C532 C 0.85166 0.09989 0.43168
 C533 C 0.84482 0.08682 0.40013
 C534 C 0.82502 0.03478 0.38648
 C535 C 0.82463 0.00148 0.40731
 C536 C 0.85194 0.02565 0.44110
 C537 C 0.86097 0.07287 0.45302
 H538 H 0.91493 0.14956 0.34575
 H539 H 0.97649 0.25868 0.34109
 H540 H 0.86021 0.22938 0.42218
 H541 H 0.81096 0.02061 0.36091
 H542 H 0.81110 -0.03829 0.39742
 H543 H 0.88349 0.09369 0.47828
 C544 C 0.18174 0.36880 -0.09971
 C545 C 0.16415 0.34515 -0.07163
 C546 C 0.12951 0.28463 -0.06759
 C547 C 0.12474 0.25314 -0.09228
 C548 C 0.16625 0.28821 -0.11878
 C549 C 0.18788 0.34338 -0.12356
 O550 O 0.18441 0.41188 -0.10142
 C551 C 0.16958 0.41572 -0.07363
 C552 C 0.16410 0.37978 -0.05391
 C553 C 0.14288 0.37205 -0.02451
 C554 C 0.11359 0.39475 -0.01647
 C555 C 0.09632 0.41710 -0.03937
 C556 C 0.13488 0.43510 -0.06687
 H557 H 0.10362 0.26079 -0.04674
 H558 H 0.09545 0.20433 -0.08969
 H559 H 0.21793 0.37066 -0.14327
 H560 H 0.14112 0.34450 -0.00941
 H561 H 0.08838 0.38354 0.00539
 H562 H 0.12139 0.45131 -0.08484
 C563 C -0.08311 0.30473 0.17417
 C564 C -0.15969 0.29211 0.16749
 C565 C -0.18193 0.30466 0.19131
 C566 C -0.13013 0.32453 0.22358
 C567 C -0.05827 0.33087 0.23134
 C568 C -0.02636 0.32836 0.20611
 O569 O -0.07298 0.29082 0.14778
 C570 C -0.14242 0.27120 0.12374
 C571 C -0.20099 0.26757 0.13493
 C572 C -0.28764 0.23928 0.11466
 C573 C -0.30975 0.21841 0.08169
 C574 C -0.23084 0.24265 0.06921
 C575 C -0.15061 0.26325 0.09048
 H576 H -0.24068 0.29631 0.18525
 H577 H -0.15543 0.32705 0.24206
 H578 H 0.03270 0.33706 0.21106
 H579 H -0.33736 0.23230 0.12402
 H580 H -0.38514 0.18713 0.06567
 H581 H -0.09060 0.27948 0.08226
 C582 C -0.12771 0.65448 -0.14612
 C583 C -0.18982 0.61192 -0.12337
 C584 C -0.25696 0.60570 -0.11260
 C585 C -0.26017 0.64348 -0.12495
 C586 C -0.20015 0.68760 -0.14718
 C587 C -0.13865 0.69038 -0.15674
 O588 O -0.15636 0.60876 -0.12657
 C589 C -0.10964 0.59774 -0.12998
 C590 C -0.17913 0.57920 -0.11393
 C591 C -0.23236 0.52879 -0.09064
 C592 C -0.21116 0.49942 -0.08305
 C593 C -0.13794 0.51992 -0.09614
 C594 C -0.09573 0.56373 -0.11949
 H595 H -0.30406 0.57166 -0.09563
 H596 H -0.31386 0.63491 -0.11779
 H597 H -0.08957 0.72591 -0.17315
 H598 H -0.28891 0.51319 -0.08018
 H599 H -0.25703 0.45731 -0.06886
 H600 H -0.04996 0.57074 -0.13197
 C601 C -0.07848 0.47356 0.17267
 C602 C 0.03595 0.54000 0.17371
 C603 C 0.12496 0.59477 0.20259
 C604 C 0.09502 0.58699 0.23081
 C605 C -0.01917 0.53319 0.22811
 C606 C -0.10820 0.46581 0.20075
 O607 O -0.14922 0.43564 0.14297
 C608 C -0.07852 0.48012 0.12498
 C609 C 0.03583 0.54584 0.14276
 C610 C 0.12412 0.60814 0.12992
 C611 C 0.09358 0.59949 0.09704
 C612 C -0.02286 0.52866 0.07750
 C613 C -0.11077 0.46920 0.09196
 H614 H 0.21449 0.64661 0.20298
 H615 H 0.16457 0.63632 0.25224
 H616 H -0.19637 0.42269 0.19815
 H617 H 0.21317 0.66184 0.14472
 H618 H 0.16175 0.64642 0.08641
 H619 H -0.20055 0.41605 0.07803
 C620 C 0.46937 1.22305 0.92045
 C621 C 0.46309 1.23282 0.95074
 C622 C 0.35849 1.18565 0.95381
 C623 C 0.26685 1.13734 0.92534
 C624 C 0.28575 1.14516 0.89434
 C625 C 0.38583 1.18440 0.89224
 O626 O 0.54148 1.23465 0.92093
 C627 C 0.58366 1.25128 0.95163
 C628 C 0.55085 1.26465 0.97342
 C629 C 0.57624 1.27156 1.00963
 C630 C 0.60101 1.24028 1.02155
 C631 C 0.61501 1.21018 0.99470
 C632 C 0.61138 1.22293 0.96175
 H633 H 0.34567 1.18245 0.97732
 H634 H 0.18588 1.10206 0.92734
 H635 H 0.39993 1.18660 0.86911
 H636 H 0.54627 1.27626 1.02436
 H637 H 0.57911 1.22132 1.04321
 H638 H 0.58232 1.18389 0.94191
 C639 C 0.28970 0.85560 1.13062
 C640 C 0.28594 0.89476 1.12120
 C641 C 0.25357 0.90925 1.13804
 C642 C 0.22170 0.88195 1.16547
 C643 C 0.22190 0.84039 1.17549
 C644 C 0.26197 0.83069 1.15896
 O645 O 0.28916 0.82643 1.10746
 C646 C 0.28333 0.84510 1.08137
 C647 C 0.28086 0.89052 1.08994
 C648 C 0.22160 0.88917 1.06615
 C649 C 0.17206 0.84865 1.03040
 C650 C 0.16992 0.79996 1.01667
 C651 C 0.22217 0.79154 1.04466
 H652 H 0.24258 0.93436 1.12880
 H653 H 0.18736 0.88694 1.17720
 H654 H 0.25926 0.79688 1.16628
 H655 H 0.19397 0.90179 1.07473
 H656 H 0.11896 0.84135 1.01545
 H657 H 0.20112 0.74600 1.03944
 C658 C 0.58703 0.98446 1.20211
 C659 C 0.67443 1.01919 1.19147
 C660 C 0.73706 1.02099 1.20576
 C661 C 0.72208 0.99963 1.23536
 C662 C 0.65996 0.99047 1.25064
 C663 C 0.56742 0.95815 1.23001
 O664 O 0.54256 0.99302 1.18721
 C665 C 0.60320 1.03440 1.16684
 C666 C 0.68566 1.05264 1.16857
 C667 C 0.75824 1.09582 1.14915
 C668 C 0.73387 1.11067 1.12419
 C669 C 0.63810 1.08213 1.11939
 C670 C 0.58280 1.05320 1.14358
 H671 H 0.80407 1.04689 1.19692
 H672 H 0.78524 1.01551 1.24994
 H673 H 0.50816 0.94057 1.23983
 H674 H 0.82488 1.11179 1.15140
 H675 H 0.78104 1.13590 1.10661
 H676 H 0.51309 1.03401 1.14149
 C677 C 0.62586 0.88036 0.88049
 C678 C 0.63932 0.87756 0.91175
 C679 C 0.70362 0.88150 0.92654
 C680 C 0.75029 0.88260 0.90772
 C681 C 0.72535 0.87358 0.87394
 C682 C 0.66654 0.87660 0.86036
 O683 O 0.57007 0.88425 0.87306
 C684 C 0.54646 0.88204 0.90034
 C685 C 0.58386 0.87458 0.92378
 C686 C 0.56075 0.86275 0.95290
 C687 C 0.50513 0.86540 0.95972
 C688 C 0.48494 0.88937 0.93946
 C689 C 0.49745 0.89151 0.90782
 H690 H 0.71876 0.88473 0.95197
 H691 H 0.80334 0.88811 0.91966
 H692 H 0.64824 0.87239 0.83499
 H693 H 0.58495 0.85189 0.97007
 H694 H 0.48690 0.85429 0.98258
 H695 H 0.47423 0.90283 0.89058
   
