data_POSCAR
  _audit_creation_date              2014-09-24
  _audit_creation_method            'ToBaCCo'
  _symmetry_space_group_name_H-M    'P1'
  _symmetry_Int_Tables_number       1
  _symmetry_cell_setting            triclinic
  loop_
  _symmetry_equiv_pos_as_xyz
 x,y,z
_cell_length_a 27.7464
_cell_length_b 27.7811
_cell_length_c 71.3753
_cell_angle_alpha 84.735500
_cell_angle_beta 92.634500
_cell_angle_gamma 120.097100
loop_
  _atom_site_label
  _atom_site_type_symbol
  _atom_site_fract_x
  _atom_site_fract_y
  _atom_site_fract_z
C1 C 0.00477 0.10958 0.52342
 H2 H 0.04503 0.11250 0.52274
 C3 C -0.00276 0.14305 0.53498
 H4 H 0.03177 0.17182 0.54328
 C5 C -0.08958 0.06806 0.51354
 H6 H -0.12312 0.03884 0.50511
 C7 C -0.09896 0.10087 0.52500
 H8 H -0.13986 0.09667 0.52549
 N9 N -0.03846 0.07252 0.51320
 C10 C -0.00152 -0.06009 0.50687
 H11 H 0.00142 -0.05855 0.49174
 C12 C 0.00077 -0.10264 0.51827
 H13 H 0.00596 -0.13374 0.51195
 C14 C -0.01512 -0.02350 0.53362
 H15 H -0.02308 0.00619 0.53956
 C16 C -0.01294 -0.06514 0.54548
 H17 H -0.01854 -0.06683 0.56050
 Zn18 Zn -0.02190 0.02921 0.49861
 N19 N -0.00968 -0.02181 0.51468
 C20 C 0.08877 0.07525 0.48424
 N21 N 0.04209 0.07970 0.48427
 C22 C 0.03915 0.12189 0.47400
 C23 C 0.08368 0.16092 0.46268
 C24 C 0.13442 0.11355 0.47305
 C25 C -0.12967 -0.05612 0.48999
 C26 C -0.17126 -0.09362 0.47846
 C27 C -0.11287 -0.04221 0.45143
 C28 C -0.07246 -0.00594 0.46344
 N29 N -0.08123 -0.01367 0.48235
 H30 H 0.09052 0.04191 0.49273
 H31 H 0.00171 0.12468 0.47445
 H32 H 0.08054 0.19382 0.45432
 H33 H 0.17119 0.10943 0.47282
 H34 H -0.13505 -0.06207 0.50510
 H35 H -0.20896 -0.12822 0.48475
 H36 H -0.10458 -0.03634 0.43644
 H37 H -0.03327 0.02696 0.45764
 C38 C -0.00560 -0.10543 0.53774
 C39 C -0.05511 0.13845 0.53588
 C40 C -0.16239 -0.08698 0.45900
 C41 C 0.13158 0.15652 0.46210
 C42 C 1.14832 0.06124 0.14210
 H43 H 1.15152 0.10166 0.14223
 C44 C 1.18425 0.05483 0.13091
 H45 H 1.21517 0.09036 0.12232
 C46 C 1.10362 -0.03462 0.15300
 H47 H 1.07220 -0.06921 0.16168
 C48 C 1.13882 -0.04289 0.14194
 H49 H 1.13424 -0.08399 0.14199
 N50 N 1.10851 0.01674 0.15264
 C51 C 0.97408 0.05276 0.15752
 H52 H 0.97184 0.05316 0.17259
 C53 C 0.93377 0.05609 0.14584
 H54 H 0.90065 0.05955 0.15190
 C55 C 1.01771 0.04411 0.13123
 H56 H 1.04919 0.03752 0.12559
 C57 C 0.97845 0.04745 0.11909
 H58 H 0.98037 0.04409 0.10417
 Zn59 Zn 1.06171 0.03137 0.16663
 N60 N 1.01468 0.04639 0.15008
 C61 C 1.10400 0.13936 0.18027
 N62 N 1.10872 0.09281 0.18062
 C63 C 1.14843 0.08800 0.19115
 C64 C 1.18442 0.13030 0.20237
 C65 C 1.13926 0.18280 0.19136
 C66 C 0.97386 -0.07765 0.17579
 C67 C 0.93351 -0.12127 0.18747
 C68 C 0.97833 -0.06785 0.21420
 C69 C 1.01764 -0.02527 0.20206
 N70 N 1.01457 -0.03065 0.18321
 H71 H 1.07265 0.14261 0.17160
 H72 H 1.15149 0.05071 0.19101
 H73 H 1.21525 0.12560 0.21097
 H74 H 1.13480 0.21937 0.19133
 H75 H 0.97160 -0.08032 0.16072
 H76 H 0.90032 -0.15787 0.18143
 H77 H 0.98029 -0.06253 0.22912
 H78 H 1.04920 0.01283 0.20768
 C79 C 0.93567 0.05268 0.12648
 C80 C 1.17923 0.00227 0.13070
 C81 C 0.93546 -0.11591 0.20684
 C82 C 1.17955 0.17791 0.20260
 C83 C 0.03928 0.91668 0.85919
 H84 H 0.00190 0.87637 0.85867
 C85 C 0.08374 0.92221 0.87054
 H86 H 0.08062 0.88611 0.87885
 C87 C 0.08881 1.01313 0.84909
 H88 H 0.09054 1.04829 0.84064
 C89 C 0.13438 1.02052 0.86032
 H90 H 0.17108 1.06151 0.86062
 N91 N 0.04220 0.96189 0.84898
 C92 C -0.12947 0.92578 0.84318
 H93 H -0.13470 0.92660 0.82806
 C94 C -0.17112 0.92152 0.85470
 H95 H -0.20874 0.91856 0.84843
 C96 C -0.07254 0.93239 0.86976
 H97 H -0.03344 0.93858 0.87559
 C98 C -0.11305 0.92806 0.88176
 H99 H -0.10500 0.93027 0.89675
 Zn100 Zn -0.02170 0.94837 0.83460
 N101 N -0.08113 0.93165 0.85084
 C102 C -0.08929 0.84184 0.81961
 N103 N -0.03816 0.88856 0.81999
 C104 C 0.00512 0.89481 0.80979
 C105 C -0.00237 0.85382 0.79823
 C106 C -0.09863 0.79967 0.80814
 C107 C -0.00144 1.05806 0.82641
 C108 C 0.00085 1.10294 0.81503
 C109 C -0.01249 1.05194 0.78778
 C110 C -0.01468 1.00809 0.79963
 N111 N -0.00943 1.01171 0.81858
 H112 H -0.12287 0.83747 0.82802
 H113 H 0.04539 0.93219 0.81050
 H114 H 0.03220 0.85964 0.78995
 H115 H -0.13954 0.76292 0.80762
 H116 H 0.00134 1.05936 0.84154
 H117 H 0.00589 1.13916 0.82137
 H118 H -0.01795 1.04812 0.77276
 H119 H -0.02250 0.97050 0.79366
 C120 C -0.16242 0.92344 0.87416
 C121 C 0.13155 0.97462 0.87121
 C122 C -0.00534 1.09948 0.79555
 C123 C -0.05472 0.80601 0.79729
 C124 C 0.62826 -0.00661 0.01683
 C125 C 0.64718 -0.01369 0.00007
 C126 C 0.61660 -0.02085 -0.01657
 C127 C 0.56627 -0.01967 -0.01671
 C128 C 0.54596 -0.01384 0.00033
 C129 C 0.57674 -0.00795 0.01724
 C130 C 0.55517 -0.00359 0.03405
 C131 C 0.50416 -0.00529 0.03427
 C132 C 0.47343 -0.01023 0.01763
 C133 C 0.49481 -0.01388 0.00046
 C134 C 0.53577 -0.02412 -0.03339
 C135 C 0.48640 -0.02249 -0.03335
 C136 C 0.46513 -0.01755 -0.01658
 C137 C 0.41495 -0.01619 -0.01632
 C138 C 0.39368 -0.01388 0.00072
 C139 C 0.42185 -0.01156 0.01763
 H140 H 0.57738 0.00066 0.04723
 H141 H 0.48922 -0.00217 0.04761
 H142 H 0.55013 -0.02837 -0.04665
 H143 H 0.46471 -0.02566 -0.04659
 H144 H 0.68633 -0.01362 -0.00004
 H145 H 0.35458 -0.01384 0.00081
 C146 C -0.05720 0.37291 0.64970
 C147 C -0.05464 0.34567 0.66684
 C148 C -0.05230 0.36774 0.68389
 C149 C -0.05399 0.41770 0.68399
 C150 C -0.05529 0.44642 0.66665
 C151 C -0.05623 0.42430 0.64941
 C152 C -0.05596 0.45423 0.63238
 C153 C -0.05430 0.50521 0.63228
 C154 C -0.05407 0.52751 0.64922
 C155 C -0.05533 0.49750 0.66656
 C156 C -0.05427 0.43975 0.70093
 C157 C -0.05601 0.48902 0.70083
 C158 C -0.05632 0.51866 0.68380
 C159 C -0.05735 0.56905 0.68351
 C160 C -0.05483 0.59884 0.66637
 C161 C -0.05246 0.57913 0.64932
 H162 H -0.05645 0.43872 0.61896
 H163 H -0.05368 0.52682 0.61880
 H164 H -0.05363 0.41877 0.71441
 H165 H -0.05653 0.50403 0.71425
 H166 H -0.05413 0.30682 0.66691
 H167 H -0.05438 0.63816 0.66630
 C168 C 0.42217 0.43418 0.31579
 C169 C 0.39400 0.40815 0.33270
 C170 C 0.41530 0.43162 0.34976
 C171 C 0.46552 0.48320 0.35004
 C172 C 0.49518 0.50939 0.33301
 C173 C 0.47376 0.48448 0.31582
 C174 C 0.50447 0.51046 0.29918
 C175 C 0.55550 0.55982 0.29943
 C176 C 0.57711 0.58562 0.31627
 C177 C 0.54636 0.56055 0.33317
 C178 C 0.48684 0.50926 0.36685
 C179 C 0.53625 0.56029 0.36691
 C180 C 0.56674 0.58653 0.35024
 C181 C 0.61712 0.63808 0.35013
 C182 C 0.64766 0.66169 0.33349
 C183 C 0.62866 0.63584 0.31669
 H184 H 0.48950 0.49250 0.28583
 H185 H 0.57768 0.57792 0.28625
 H186 H 0.46517 0.49060 0.38008
 H187 H 0.55067 0.57879 0.38020
 H188 H 0.35489 0.36897 0.33258
 H189 H 0.68685 0.70080 0.33361
 C190 C -0.06331 0.17123 0.54850
 C191 C -0.06763 0.19895 0.55964
 C192 C -0.07018 0.23196 0.57356
 C193 C -0.11148 0.20698 0.58747
 C194 C -0.11042 0.23757 0.60215
 C195 C -0.06803 0.29322 0.60299
 C196 C -0.02749 0.31860 0.58883
 C197 C -0.02855 0.28802 0.57415
 C198 C -0.06427 0.32293 0.61898
 C199 C -0.06093 0.34651 0.63275
 H200 H -0.14356 0.16354 0.58725
 H201 H -0.14179 0.21744 0.61309
 H202 H 0.00565 0.36150 0.58940
 H203 H 0.00388 0.30760 0.56355
 C204 C 0.89173 0.84277 0.21908
 C205 C 0.85533 0.81034 0.22985
 C206 C 0.81249 0.77411 0.24327
 C207 C 0.76183 0.77388 0.24299
 C208 C 0.72228 0.74297 0.25713
 C209 C 0.73326 0.71218 0.27161
 C210 C 0.78338 0.71141 0.27165
 C211 C 0.82292 0.74233 0.25752
 C212 C 0.69481 0.68414 0.28701
 C213 C 0.66392 0.66172 0.30030
 H214 H 0.75351 0.79867 0.23212
 H215 H 0.68380 0.74410 0.25701
 H216 H 0.79242 0.68798 0.28284
 H217 H 0.86212 0.74255 0.25797
 C218 C 0.17635 -0.01912 -0.11639
 C219 C 0.21213 -0.01582 -0.10546
 C220 C 0.25279 -0.01376 -0.09181
 C221 C 0.28361 0.03368 -0.08183
 C222 C 0.31945 0.03371 -0.06739
 C223 C 0.32458 -0.01369 -0.06286
 C224 C 0.29466 -0.06070 -0.07311
 C225 C 0.25882 -0.06073 -0.08756
 C226 C 0.35777 -0.01516 -0.04697
 C227 C 0.38437 -0.01605 -0.03324
 H228 H 0.27896 0.07006 -0.08490
 H229 H 0.34215 0.07017 -0.05947
 H230 H 0.29806 -0.09768 -0.06966
 H231 H 0.23487 -0.09778 -0.09510
 C232 C -0.00819 0.84890 0.54980
 C233 C -0.01208 0.81092 0.56050
 C234 C -0.01826 0.76628 0.57394
 C235 C -0.07118 0.71974 0.57759
 C236 C -0.07830 0.67887 0.59194
 C237 C -0.03253 0.68439 0.60269
 C238 C 0.02059 0.73027 0.59875
 C239 C 0.02772 0.77115 0.58441
 C240 C -0.04048 0.64528 0.61857
 C241 C -0.04651 0.61417 0.63232
 H242 H -0.10710 0.71579 0.56969
 H243 H -0.11961 0.64378 0.59495
 H244 H 0.05622 0.73514 0.60707
 H245 H 0.06872 0.80717 0.58182
 C246 C 0.21465 0.22017 0.21496
 C247 C 0.24407 0.25360 0.22590
 C248 C 0.27883 0.29118 0.23962
 C249 C 0.25868 0.31847 0.24966
 C250 C 0.29039 0.35080 0.26423
 C251 C 0.34234 0.35594 0.26882
 C252 C 0.36303 0.32966 0.25851
 C253 C 0.33133 0.29733 0.24394
 C254 C 0.37250 0.38509 0.28486
 C255 C 0.39613 0.40811 0.29872
 H256 H 0.21797 0.31364 0.24655
 H257 H 0.27385 0.37066 0.27219
 H258 H 0.40298 0.33307 0.26202
 H259 H 0.34711 0.27605 0.23636
 C260 C 0.80058 -0.07497 -0.11437
 C261 C 0.77007 -0.07165 -0.10371
 C262 C 0.73647 -0.06564 -0.09036
 C263 C 0.70821 -0.10799 -0.07611
 C264 C 0.68049 -0.09970 -0.06196
 C265 C 0.68097 -0.04901 -0.06199
 C266 C 0.70809 -0.00717 -0.07649
 C267 C 0.73580 -0.01546 -0.09065
 C268 C 0.65682 -0.03874 -0.04650
 C269 C 0.63793 -0.03029 -0.03311
 H270 H 0.70887 -0.14674 -0.07566
 H271 H 0.65992 -0.13221 -0.05075
 H272 H 0.70900 0.03230 -0.07659
 H273 H 0.75793 0.01776 -0.10151
 C274 C 0.21432 -0.00496 0.11838
 C275 C 0.24377 -0.00897 0.10746
 C276 C 0.27856 -0.01177 0.09376
 C277 C 0.33089 0.03481 0.08934
 C278 C 0.36258 0.03421 0.07477
 C279 C 0.34206 -0.01298 0.06457
 C280 C 0.29029 -0.06001 0.06926
 C281 C 0.25859 -0.05941 0.08382
 C282 C 0.37220 -0.01200 0.04853
 C283 C 0.39582 -0.01144 0.03468
 H284 H 0.34654 0.07203 0.09684
 H285 H 0.40238 0.07092 0.07119
 H286 H 0.27386 -0.09659 0.06138
 H287 H 0.21802 -0.09547 0.08702
 C288 C 0.80208 0.87592 0.44799
 C289 C 0.77142 0.84205 0.43735
 C290 C 0.73766 0.80244 0.42401
 C291 C 0.73677 0.75148 0.42426
 C292 C 0.70891 0.71549 0.41010
 C293 C 0.68186 0.73033 0.39562
 C294 C 0.68161 0.78066 0.39562
 C295 C 0.70948 0.81665 0.40977
 C296 C 0.65757 0.69595 0.38012
 C297 C 0.63856 0.66870 0.36670
 H298 H 0.75885 0.74031 0.43511
 H299 H 0.70966 0.67685 0.41018
 H300 H 0.66112 0.79270 0.38442
 H301 H 0.71032 0.85615 0.40933
 C302 C -0.00795 0.14256 0.78349
 C303 C -0.01186 0.17662 0.77279
 C304 C -0.01808 0.21501 0.75933
 C305 C -0.07104 0.20838 0.75563
 C306 C -0.07818 0.24205 0.74126
 C307 C -0.03238 0.28249 0.73054
 C308 C 0.02078 0.28998 0.73453
 C309 C 0.02792 0.25630 0.74889
 C310 C -0.04032 0.31360 0.71465
 C311 C -0.04634 0.33867 0.70089
 H312 H -0.10698 0.17627 0.76351
 H313 H -0.11951 0.23564 0.73821
 H314 H 0.05643 0.32088 0.72625
 H315 H 0.06896 0.26149 0.75153
 C316 C 0.89193 0.05025 0.11424
 C317 C 0.85550 0.04622 0.10350
 C318 C 0.81258 0.03949 0.09010
 C319 C 0.76202 -0.01113 0.09037
 C320 C 0.72236 -0.01984 0.07628
 C321 C 0.73312 0.02202 0.06185
 C322 C 0.78315 0.07308 0.06181
 C323 C 0.82281 0.08179 0.07590
 C324 C 0.69454 0.01153 0.04649
 C325 C 0.66356 0.00295 0.03322
 H326 H 0.75386 -0.04431 0.10120
 H327 H 0.68396 -0.05959 0.07639
 H328 H 0.79204 0.10562 0.05066
 H329 H 0.86194 0.12090 0.07546
 C330 C 0.17647 0.19518 0.44973
 C331 C 0.21232 0.22776 0.43883
 C332 C 0.25303 0.26649 0.42520
 C333 C 0.25885 0.31940 0.42089
 C334 C 0.29471 0.35530 0.40646
 C335 C 0.32488 0.33841 0.39627
 C336 C 0.31997 0.28599 0.40085
 C337 C 0.28411 0.25009 0.41528
 C338 C 0.35808 0.37315 0.38039
 C339 C 0.38469 0.40074 0.36667
 H340 H 0.23470 0.33234 0.42838
 H341 H 0.29793 0.39559 0.40297
 H342 H 0.34287 0.27239 0.39299
 H343 H 0.27963 0.20913 0.41840
 C344 C -0.06289 0.76503 0.78467
 C345 C -0.06723 0.73296 0.77354
 C346 C -0.06983 0.69736 0.75963
 C347 C -0.02807 0.68322 0.75896
 C348 C -0.02713 0.65361 0.74429
 C349 C -0.06793 0.63806 0.73022
 C350 C -0.11045 0.65104 0.73113
 C351 C -0.11139 0.68065 0.74580
 C352 C -0.06431 0.61202 0.71423
 C353 C -0.06104 0.59174 0.70046
 H354 H 0.00456 0.69637 0.76949
 H355 H 0.00611 0.64407 0.74366
 H356 H -0.14204 0.63949 0.72026
 H357 H -0.14358 0.69178 0.74608
   
