data_POSCAR
  _audit_creation_date              2014-09-24
  _audit_creation_method            'ToBaCCo'
  _symmetry_space_group_name_H-M    'P1'
  _symmetry_Int_Tables_number       1
  _symmetry_cell_setting            triclinic
  loop_
  _symmetry_equiv_pos_as_xyz
 x,y,z
_cell_length_a 26.7313
_cell_length_b 32.6241
_cell_length_c 17.4197
_cell_angle_alpha 88.687400
_cell_angle_beta 94.081400
_cell_angle_gamma 93.283900
loop_
  _atom_site_label
  _atom_site_type_symbol
  _atom_site_fract_x
  _atom_site_fract_y
  _atom_site_fract_z
N1 N 0.55662 0.61368 0.64131
 N2 N 0.94772 0.37368 0.22877
 N3 N 0.42743 0.12678 -0.16814
 N4 N 0.05198 0.87562 0.32748
 N5 N 0.10371 0.22063 0.10850
 N6 N 0.07848 0.20244 0.16296
 C7 C 0.05214 0.23038 0.19593
 C8 C 0.06195 0.26803 0.16050
 C9 C 0.09476 0.26079 0.10527
 H10 H 0.02772 0.22391 0.24213
 H11 H 0.11012 0.28279 0.06465
 Cu12 Cu 0.08272 0.14403 0.18449
 Cu13 Cu 0.14328 0.19025 0.04257
 Cu14 Cu 0.17618 0.09472 0.11504
 N15 N 0.08919 0.08565 0.20309
 N16 N 0.12582 0.06631 0.17596
 C17 C 0.12259 0.02674 0.19979
 C18 C 0.08169 0.02116 0.24408
 C19 C 0.06137 0.05909 0.24492
 H20 H 0.14829 0.00390 0.18637
 H21 H 0.02895 0.06680 0.27419
 N22 N 0.21114 0.12422 0.03234
 N23 N 0.19752 0.16012 0.00413
 C24 C 0.22911 0.17346 -0.04878
 C25 C 0.26433 0.14463 -0.05450
 C26 C 0.25181 0.11361 -0.00261
 H27 H 0.22775 0.20287 -0.07845
 H28 H 0.27175 0.08610 0.01038
 H29 H 0.12111 0.12849 0.06611
 H30 H 0.16581 0.15641 0.13661
 N31 N 0.41164 0.78525 0.61151
 N32 N 0.43943 0.80534 0.66525
 C33 C 0.47488 0.78087 0.69580
 C34 C 0.46939 0.74382 0.65855
 C35 C 0.42915 0.74763 0.60506
 H36 H 0.50267 0.78925 0.74170
 H37 H 0.41265 0.72419 0.56666
 Cu38 Cu 0.42674 0.86150 0.69074
 Cu39 Cu 0.35193 0.80784 0.55970
 Cu40 Cu 0.32797 0.90730 0.60504
 N41 N 0.41093 0.91675 0.71793
 N42 N 0.37103 0.93397 0.68619
 C43 C 0.36982 0.97230 0.71284
 C44 C 0.41156 0.97968 0.76318
 C45 C 0.43680 0.94380 0.76518
 H46 H 0.34218 0.99398 0.69395
 H47 H 0.47220 0.93838 0.79667
 N48 N 0.28344 0.87382 0.53301
 N49 N 0.29323 0.83624 0.51433
 C50 C 0.25625 0.82148 0.46406
 C51 C 0.22156 0.85109 0.45088
 C52 C 0.23991 0.88383 0.49543
 H53 H 0.25410 0.79113 0.43999
 H54 H 0.22258 0.91270 0.50039
 H55 H 0.37872 0.86776 0.56674
 H56 H 0.33922 0.84822 0.64538
 N57 N 0.86215 0.71359 0.36984
 N58 N 0.90315 0.69444 0.36017
 C59 C 0.94053 0.72228 0.34546
 C60 C 0.92161 0.76080 0.34478
 C61 C 0.87175 0.75428 0.36029
 H62 H 0.97824 0.71501 0.33409
 H63 H 0.84475 0.77739 0.36537
 Cu64 Cu 0.90352 0.63490 0.36433
 Cu65 Cu 0.80091 0.68385 0.39904
 Cu66 Cu 0.79028 0.58465 0.33238
 N67 N 0.89705 0.57706 0.34011
 N68 N 0.85296 0.55783 0.32519
 C69 C 0.85973 0.51886 0.30626
 C70 C 0.91080 0.51346 0.31024
 C71 C 0.93339 0.55096 0.33185
 H72 H 0.82976 0.49614 0.29129
 H73 H 0.97323 0.55891 0.33946
 N74 N 0.73335 0.61236 0.37072
 N75 N 0.73792 0.64980 0.39843
 C76 C 0.69580 0.65746 0.43227
 C77 C 0.66312 0.62310 0.42575
 C78 C 0.68796 0.59523 0.38586
 H79 H 0.69074 0.68481 0.46411
 H80 H 0.67594 0.56354 0.37512
 H81 H 0.82181 0.62249 0.41619
 H82 H 0.81720 0.64524 0.31631
 N83 N 0.60073 0.29128 -0.11632
 N84 N 0.58509 0.30942 -0.18116
 C85 C 0.55263 0.28349 -0.22118
 C86 C 0.54720 0.24747 -0.17848
 C87 C 0.57792 0.25352 -0.11203
 H88 H 0.53354 0.29059 -0.27625
 H89 H 0.58401 0.23186 -0.06478
 Cu90 Cu 0.60653 0.36598 -0.20479
 Cu91 Cu 0.65031 0.31781 -0.04339
 Cu92 Cu 0.71444 0.40322 -0.11879
 N93 N 0.62612 0.42435 -0.21080
 N94 N 0.66908 0.43872 -0.17770
 C95 C 0.67357 0.47963 -0.18916
 C96 C 0.63090 0.49160 -0.23124
 C97 C 0.60159 0.45574 -0.24440
 H98 H 0.70503 0.49918 -0.16664
 H99 H 0.56490 0.45282 -0.27482
 N100 N 0.74130 0.37118 -0.03014
 N101 N 0.71607 0.33981 0.00096
 C102 C 0.74365 0.32561 0.06266
 C103 C 0.78809 0.34944 0.07053
 C104 C 0.78536 0.37797 0.01084
 H105 H 0.73240 0.29969 0.09853
 H106 H 0.81308 0.40227 -0.00133
 H107 H 0.65041 0.37944 -0.07944
 H108 H 0.68346 0.34301 -0.13652
 N109 N 0.05848 0.34411 0.15093
 N110 N 0.02863 0.37237 0.17087
 C111 C -0.00860 0.35372 0.20923
 C112 C -0.00262 0.31188 0.21366
 C113 C 0.04055 0.30716 0.17610
 H114 H -0.02737 0.28817 0.23729
 H115 H 0.08979 0.35008 0.11903
 H116 H 0.03249 0.40338 0.15502
 N117 N 0.52173 0.69892 0.74496
 N118 N 0.54404 0.66401 0.74104
 C119 C 0.53617 0.65013 0.66859
 C120 C 0.50665 0.67682 0.62492
 C121 C 0.49859 0.70746 0.67566
 H122 H 0.49361 0.67457 0.56487
 H123 H 0.52195 0.71627 0.79464
 H124 H 0.56436 0.65042 0.78732
 N125 N 0.92685 0.83311 0.29607
 N126 N 0.96167 0.86316 0.28962
 C127 C 1.00605 0.85006 0.31957
 C128 C 0.99931 0.80963 0.34500
 C129 C 0.94853 0.80023 0.32901
 H130 H 1.02663 0.79018 0.37348
 H131 H 0.88904 0.83509 0.27748
 H132 H 0.95474 0.89190 0.26482
 N133 N 0.49748 0.20129 -0.27117
 N134 N 0.46712 0.16796 -0.26830
 C135 C 0.46496 0.15583 -0.19424
 C136 C 0.49472 0.18246 -0.14754
 C137 C 0.51491 0.21082 -0.19887
 H138 H 0.49829 0.18282 -0.08530
 H139 H 0.50502 0.21766 -0.32166
 H140 H 0.44627 0.15512 -0.31568
 N141 N 0.02382 -0.01953 0.32672
 N142 N 0.01594 -0.05818 0.34904
 C143 C 0.05020 -0.08058 0.31891
 C144 C 0.08169 -0.05540 0.27645
 C145 C 0.06326 -0.01685 0.28230
 H146 H 0.11238 -0.06413 0.24412
 H147 H 0.00214 0.00438 0.34128
 H148 H -0.01239 -0.06880 0.38398
 N149 N 0.64916 0.56734 -0.23702
 N150 N 0.62846 0.59995 -0.26891
 C151 C 0.58445 0.58776 -0.30595
 C152 C 0.57697 0.54555 -0.29897
 C153 C 0.61892 0.53381 -0.25420
 H154 H 0.54664 0.52618 -0.32544
 H155 H 0.68412 0.56814 -0.20615
 H156 H 0.64533 0.62963 -0.26829
 N157 N 0.47605 1.02823 0.82791
 N158 N 0.48032 1.06754 0.84544
 C159 C 0.43558 1.08378 0.82885
 C160 C 0.40136 1.05389 0.79883
 C161 C 0.42873 1.01907 0.79864
 H162 H 0.36310 1.05757 0.77627
 H163 H 0.50573 1.00863 0.83299
 H164 H 0.51357 1.08306 0.86644
 N165 N 0.98540 0.47094 0.30810
 N166 N 0.99515 0.43375 0.28696
 C167 C 0.95199 0.41473 0.25821
 C168 C 0.91292 0.44057 0.26259
 C169 C 0.93586 0.47597 0.29410
 H170 H 0.87358 0.43472 0.24487
 H171 H 1.01232 0.49225 0.33222
 H172 H 1.03064 0.42179 0.29313
 N173 N 0.32054 0.18301 -0.14204
 N174 N 0.36385 0.17845 -0.17183
 C175 C 0.37979 0.14119 -0.15047
 C176 C 0.34538 0.12110 -0.10465
 C177 C 0.30837 0.14893 -0.10063
 H178 H 0.34788 0.09139 -0.07618
 H179 H 0.30049 0.20953 -0.14879
 H180 H 0.38215 0.20085 -0.20517
 N181 N 0.58850 0.57948 0.46270
 N182 N 0.55868 0.57753 0.52022
 C183 C 0.56774 0.61162 0.56227
 C184 C 0.60498 0.63627 0.53039
 C185 C 0.61763 0.61457 0.46784
 H186 H 0.62504 0.66287 0.55604
 H187 H 0.59121 0.55575 0.42422
 H188 H 0.53554 0.55189 0.53371
 N189 N 0.83161 0.31803 0.18790
 N190 N 0.87442 0.32456 0.22997
 C191 C 0.89976 0.35692 0.19905
 C192 C 0.87292 0.37157 0.13476
 C193 C 0.82974 0.34608 0.12967
 H194 H 0.88340 0.39718 0.09751
 H195 H 0.80431 0.29494 0.19940
 H196 H 0.88562 0.30750 0.27906
 N197 N 0.15898 0.81594 0.35705
 N198 N 0.11392 0.82245 0.32415
 C199 C 0.09960 0.85854 0.34863
 C200 C 0.13714 0.87611 0.39825
 C201 C 0.17405 0.84789 0.40252
 H202 H 0.13687 0.90471 0.42841
 H203 H 0.17881 0.78998 0.34841
 H204 H 0.09388 0.80264 0.28534
   
