data_POSCAR
  _audit_creation_date              2014-09-24
  _audit_creation_method            'ToBaCCo'
  _symmetry_space_group_name_H-M    'P1'
  _symmetry_Int_Tables_number       1
  _symmetry_cell_setting            triclinic
  loop_
  _symmetry_equiv_pos_as_xyz
 x,y,z
_cell_length_a 36.7089
_cell_length_b 37.0238
_cell_length_c 36.5626
_cell_angle_alpha 95.240900
_cell_angle_beta 91.169100
_cell_angle_gamma 91.788800
loop_
  _atom_site_label
  _atom_site_type_symbol
  _atom_site_fract_x
  _atom_site_fract_y
  _atom_site_fract_z
N1 N 0.20286 0.20808 0.20380
 N2 N -0.12178 0.88492 0.10217
 N3 N -0.12108 0.10748 -0.11552
 N4 N 0.11451 0.85642 -0.13897
 N5 N 0.12472 1.11397 0.89541
 N6 N 0.81490 0.78708 0.78964
 N7 N 0.11758 0.89524 1.10361
 N8 N 0.80355 1.21319 1.22018
 N9 N 0.54016 1.04691 0.95256
 N10 N 0.57203 1.06436 0.95253
 N11 N 0.46077 1.02298 0.92737
 N12 N 0.42876 1.02332 0.91024
 N13 N 0.46360 1.04937 0.95397
 N14 N 0.43369 1.06825 0.95553
 N15 N 0.53785 1.02053 0.92593
 N16 N 0.56828 1.01937 0.90719
 C17 C 0.58890 1.04733 0.92374
 C18 C 0.41263 1.05213 0.92769
 N19 N 0.45563 0.92080 0.94809
 N20 N 0.42412 0.90249 0.94664
 N21 N 0.53258 0.94255 0.92228
 N22 N 0.56066 0.93783 0.90056
 N23 N 0.53217 0.91863 0.94670
 N24 N 0.55995 0.89696 0.94223
 N25 N 0.45590 0.94493 0.92387
 N26 N 0.42446 0.94369 0.90545
 Mn27 Mn 0.49676 0.98276 0.92433
 C28 C 0.40528 0.91673 0.91964
 C29 C 0.57717 0.90920 0.91324
 N30 N 0.46669 1.05298 1.03268
 N31 N 0.43936 1.07516 1.03734
 N32 N 0.54251 1.02657 1.05572
 N33 N 0.57148 1.03112 1.07784
 N34 N 0.54312 1.05050 1.03133
 N35 N 0.57250 1.07201 1.03616
 N36 N 0.46601 1.02905 1.05705
 N37 N 0.43819 1.03430 1.07902
 Mn38 Mn 0.50343 1.05035 0.99257
 C39 C 0.42205 1.06314 1.06635
 C40 C 0.58982 1.05943 1.06512
 N41 N 0.53544 0.92239 1.02569
 N42 N 0.56562 0.90379 1.02457
 N43 N 0.46083 0.95120 1.05358
 N44 N 0.42957 0.95440 1.07064
 N45 N 0.45833 0.92470 1.02704
 N46 N 0.42529 0.90935 1.02561
 N47 N 0.53776 0.94873 1.05236
 N48 N 0.56951 0.94865 1.06998
 Mn49 Mn 0.49542 0.92115 0.98693
 Mn50 Mn 0.50180 0.98880 1.05514
 Cl51 Cl 0.49935 0.98575 0.98972
 C52 C 0.58616 0.92006 1.05283
 C53 C 0.40803 0.92764 1.05342
 N54 N -0.03848 0.44922 -0.05906
 N55 N -0.04067 0.41588 -0.07530
 N56 N -0.06252 0.52844 -0.04085
 N57 N -0.08230 0.55698 -0.04520
 N58 N -0.03843 0.52426 -0.06684
 N59 N -0.04118 0.54986 -0.08955
 N60 N -0.06250 0.45328 -0.03296
 N61 N -0.08154 0.42270 -0.03071
 C62 C -0.06795 0.39996 -0.05771
 C63 C -0.06884 0.56970 -0.07581
 N64 N -0.03238 0.54884 0.06267
 N65 N -0.03207 0.58252 0.07810
 N66 N -0.05906 0.46860 0.04559
 N67 N -0.08165 0.44217 0.05355
 N68 N -0.03254 0.47376 0.07034
 N69 N -0.03632 0.45099 0.09587
 N70 N -0.05876 0.54356 0.03771
 N71 N -0.07696 0.57354 0.03557
 Mn72 Mn -0.06118 0.49844 0.00236
 C73 C -0.06037 0.59727 0.06134
 C74 C -0.06704 0.43159 0.08489
 N75 N 0.03976 0.52628 -0.06876
 N76 N 0.03922 0.55309 -0.09022
 N77 N 0.06642 0.45664 -0.03620
 N78 N 0.08540 0.42705 -0.03476
 N79 N 0.03991 0.45117 -0.06097
 N80 N 0.04023 0.41776 -0.07703
 N81 N 0.06624 0.53185 -0.04396
 N82 N 0.08435 0.56256 -0.04803
 Mn83 Mn 0.00068 0.48763 -0.06437
 C84 C 0.06758 0.57503 -0.07737
 C85 C 0.06906 0.40338 -0.06079
 N86 N 0.04588 0.47533 0.06828
 N87 N 0.04931 0.45003 0.09125
 N88 N 0.06984 0.54678 0.03475
 N89 N 0.08775 0.57786 0.03177
 N90 N 0.04590 0.55057 0.06095
 N91 N 0.04702 0.58423 0.07642
 N92 N 0.07014 0.47159 0.04237
 N93 N 0.09073 0.44372 0.04707
 Mn94 Mn 0.00678 0.51213 0.06604
 Mn95 Mn 0.06865 0.50174 -0.00078
 Cl96 Cl 0.00373 0.49997 0.00083
 C97 C 0.07760 0.43087 0.07776
 C98 C 0.07359 0.60064 0.05836
 N99 N 0.94724 0.02916 0.54044
 N100 N 0.92731 0.02798 0.57000
 N101 N 0.97429 0.06113 0.46962
 N102 N 0.97151 0.08487 0.44499
 N103 N 0.94851 0.03569 0.46431
 N104 N 0.92744 0.04139 0.43586
 N105 N 0.97282 0.05483 0.54569
 N106 N 0.97097 0.07178 0.57892
 C107 C 0.94217 0.05507 0.59341
 C108 C 0.94217 0.07214 0.42432
 N109 N 1.07775 0.03804 0.46958
 N110 N 1.09884 0.04353 0.44164
 N111 N 1.05106 0.05640 0.54872
 N112 N 1.05282 0.07452 0.58150
 N113 N 1.07591 0.03158 0.54591
 N114 N 1.09522 0.03216 0.57688
 N115 N 1.05256 0.06251 0.47277
 N116 N 1.05581 0.08525 0.44718
 Mn117 Mn 1.01270 0.05913 0.50923
 C118 C 1.08493 0.07320 0.42830
 C119 C 1.08071 0.05944 0.59847
 N120 N 0.94743 -0.04189 0.45029
 N121 N 0.92851 -0.04095 0.41931
 N122 N 0.97098 -0.07338 0.52277
 N123 N 0.96794 -0.09590 0.54863
 N124 N 0.94613 -0.04860 0.52640
 N125 N 0.92554 -0.05361 0.55479
 N126 N 0.97241 -0.06653 0.44658
 N127 N 0.97104 -0.08306 0.41298
 Mn128 Mn 0.94686 -0.00645 0.49536
 C129 C 0.94322 -0.06712 0.39663
 C130 C 0.93933 -0.08332 0.56805
 N131 N 1.07476 -0.04656 0.53208
 N132 N 1.09196 -0.04963 0.56372
 N133 N 1.05093 -0.06528 0.44979
 N134 N 1.05158 -0.08051 0.41573
 N135 N 1.07667 -0.03976 0.45542
 N136 N 1.09531 -0.03700 0.42518
 N137 N 1.04924 -0.07224 0.52596
 N138 N 1.04858 -0.09337 0.55314
 Mn139 Mn 1.07682 -0.00423 0.50082
 Mn140 Mn 1.01092 -0.06981 0.48616
 Cl141 Cl 1.01186 -0.00534 0.49791
 C142 C 1.07578 -0.07938 0.57604
 C143 C 1.07977 -0.06308 0.40102
 C144 C 1.12120 0.11687 0.33642
 C145 C 1.15460 0.10573 0.32115
 C146 C 1.16883 0.12286 0.29105
 C147 C 1.14984 0.15139 0.27676
 C148 C 1.11561 0.16134 0.29086
 C149 C 1.10116 0.14393 0.32074
 C150 C 1.06693 0.15439 0.33449
 C151 C 1.04751 0.18124 0.31910
 C152 C 1.06169 0.19833 0.28994
 C153 C 1.09539 0.18863 0.27590
 C154 C 1.20221 0.11117 0.27611
 C155 C 1.22120 0.08364 0.29079
 C156 C 1.20755 0.06729 0.32061
 C157 C 1.17454 0.07793 0.33559
 C158 C 1.16687 0.17193 0.24941
 C159 C 1.18285 0.18892 0.22777
 C160 C 1.10811 0.10125 0.36887
 C161 C 1.09762 0.08841 0.39604
 H162 H 1.05475 0.14183 0.35709
 H163 H 1.02133 0.18883 0.32988
 H164 H 1.04649 0.21917 0.27810
 H165 H 1.10528 0.20254 0.25308
 H166 H 1.21385 0.12304 0.25288
 H167 H 1.24666 0.07500 0.27901
 H168 H 1.22259 0.04621 0.33219
 H169 H 1.16486 0.06411 0.35854
 C170 C 0.91854 -0.08315 0.28670
 C171 C 0.91199 -0.11863 0.26945
 C172 C 0.90499 -0.12386 0.23096
 C173 C 0.90340 -0.09350 0.21012
 C174 C 0.90980 -0.05801 0.22736
 C175 C 0.91769 -0.05283 0.26574
 C176 C 0.92459 -0.01712 0.28228
 C177 C 0.92369 0.01258 0.26149
 C178 C 0.91552 0.00753 0.22405
 C179 C 0.90865 -0.02732 0.20702
 C180 C 0.89976 -0.15971 0.21412
 C181 C 0.90107 -0.18945 0.23479
 C182 C 0.90735 -0.18428 0.27254
 C183 C 0.91268 -0.14934 0.28984
 C184 C 0.89467 -0.09911 0.17111
 C185 C 0.88707 -0.10570 0.13891
 C186 C 0.92682 -0.07793 0.32583
 C187 C 0.93403 -0.07337 0.35825
 H188 H 0.93080 -0.01178 0.31137
 H189 H 0.92925 0.03968 0.27453
 H190 H 0.91463 0.03072 0.20809
 H191 H 0.90259 -0.02995 0.17779
 H192 H 0.89476 -0.16518 0.18484
 H193 H 0.89712 -0.21665 0.22144
 H194 H 0.90824 -0.20747 0.28851
 H195 H 0.91769 -0.14671 0.31924
 C196 C 0.91710 0.07269 0.70179
 C197 C 0.94204 0.06168 0.72833
 C198 C 0.93481 0.06833 0.76634
 C199 C 0.90239 0.08538 0.77751
 C200 C 0.87724 0.09603 0.75095
 C201 C 0.88467 0.08975 0.71297
 C202 C 0.85923 0.10075 0.68691
 C203 C 0.82731 0.11747 0.69809
 C204 C 0.82000 0.12358 0.73525
 C205 C 0.84457 0.11305 0.76150
 C206 C 0.96043 0.05767 0.79240
 C207 C 0.99215 0.04057 0.78120
 C208 C 0.99895 0.03367 0.74402
 C209 C 0.97436 0.04408 0.71777
 C210 C 0.89483 0.09228 0.81623
 C211 C 0.88774 0.09891 0.84813
 C212 C 0.92503 0.06674 0.66305
 C213 C 0.93230 0.06162 0.63106
 H214 H 0.86370 0.09653 0.65769
 H215 H 0.80814 0.12572 0.67781
 H216 H 0.79516 0.13657 0.74380
 H217 H 0.83763 0.11840 0.79006
 H218 H 0.95625 0.06244 0.82163
 H219 H 1.01154 0.03267 0.80145
 H220 H 1.02348 0.02034 0.73542
 H221 H 0.98107 0.03831 0.68920
 C222 C 1.08782 -0.10696 0.68150
 C223 C 1.08991 -0.07850 0.71016
 C224 C 1.09381 -0.08652 0.74730
 C225 C 1.09528 -0.12302 0.75566
 C226 C 1.09189 -0.15158 0.72714
 C227 C 1.08830 -0.14352 0.68994
 C228 C 1.08510 -0.17251 0.66193
 C229 C 1.08523 -0.20845 0.67041
 C230 C 1.08861 -0.21632 0.70676
 C231 C 1.09199 -0.18832 0.73491
 C232 C 1.09604 -0.05752 0.77543
 C233 C 1.09398 -0.02167 0.76712
 C234 C 1.08982 -0.01397 0.73085
 C235 C 1.08800 -0.04182 0.70258
 C236 C 1.10127 -0.13097 0.79347
 C237 C 1.10710 -0.13695 0.82493
 C238 C 1.08464 -0.09839 0.64352
 C239 C 1.08133 -0.09020 0.61245
 H240 H 1.08227 -0.16770 0.63327
 H241 H 1.08264 -0.23031 0.64864
 H242 H 1.08861 -0.24429 0.71318
 H243 H 1.09449 -0.19577 0.76278
 H244 H 1.09902 -0.06222 0.80409
 H245 H 1.09536 0.00023 0.78891
 H246 H 1.08743 0.01368 0.72452
 H247 H 1.08474 -0.03423 0.67485
 C248 C 0.33066 1.10751 1.11074
 C249 C 0.30738 1.12827 1.09021
 C250 C 0.27845 1.14707 1.10782
 C251 C 0.27328 1.14521 1.14586
 C252 C 0.29538 1.12291 1.16591
 C253 C 0.32410 1.10390 1.14825
 C254 C 0.34604 1.08198 1.16890
 C255 C 0.33973 1.07892 1.20596
 C256 C 0.31171 1.09763 1.22328
 C257 C 0.28975 1.11944 1.20364
 C258 C 0.25550 1.16769 1.08684
 C259 C 0.26089 1.16954 1.04941
 C260 C 0.28931 1.15128 1.03221
 C261 C 0.31251 1.13101 1.05231
 C262 C 0.24678 1.16767 1.16503
 C263 C 0.22594 1.18652 1.18249
 C264 C 0.36247 1.09137 1.09402
 C265 C 0.38953 1.07839 1.08112
 H266 H 0.36809 1.06677 1.15662
 H267 H 0.35669 1.06194 1.22130
 H268 H 0.30700 1.09529 1.25211
 H269 H 0.26835 1.13350 1.21834
 H270 H 0.23305 1.18235 1.09907
 H271 H 0.24295 1.18525 1.03370
 H272 H 0.29335 1.15273 1.00313
 H273 H 0.33416 1.11716 1.03774
 C274 C 0.29648 0.89403 0.89998
 C275 C 0.27072 0.91362 0.92147
 C276 C 0.23279 0.90609 0.91502
 C277 C 0.22086 0.87916 0.88699
 C278 C 0.24665 0.85893 0.86616
 C279 C 0.28455 0.86643 0.87264
 C280 C 0.30978 0.84591 0.85141
 C281 C 0.29792 0.81865 0.82463
 C282 C 0.26086 0.81123 0.81836
 C283 C 0.23540 0.83107 0.83877
 C284 C 0.20758 0.92566 0.93716
 C285 C 0.21951 0.95174 0.96511
 C286 C 0.25658 0.95906 0.97144
 C287 C 0.28201 0.94050 0.94979
 C288 C 0.18222 0.87224 0.87905
 C289 C 0.15054 0.86535 0.87108
 C290 C 0.33522 0.90195 0.90622
 C291 C 0.36733 0.90855 0.91177
 H292 H 0.33890 0.85063 0.85531
 H293 H 0.31760 0.80319 0.80870
 H294 H 0.25176 0.78999 0.79758
 H295 H 0.20689 0.82419 0.83289
 H296 H 0.17848 0.92073 0.93334
 H297 H 0.19989 0.96622 0.98205
 H298 H 0.26573 0.97900 0.99343
 H299 H 0.31055 0.94706 0.95589
 C300 C 0.69488 0.90452 1.06972
 C301 C 0.71024 0.86986 1.06460
 C302 C 0.74832 0.86622 1.07048
 C303 C 0.77080 0.89724 1.08156
 C304 C 0.75549 0.93194 1.08642
 C305 C 0.71746 0.93562 1.08034
 C306 C 0.70287 0.97067 1.08505
 C307 C 0.72519 1.00115 1.09551
 C308 C 0.76230 0.99750 1.10176
 C309 C 0.77743 0.96336 1.09730
 C310 C 0.76305 0.83129 1.06516
 C311 C 0.74082 0.80083 1.05439
 C312 C 0.70359 0.80438 1.04879
 C313 C 0.68834 0.83844 1.05369
 C314 C 0.80953 0.89332 1.08849
 C315 C 0.84156 0.88961 1.09466
 C316 C 0.65596 0.90842 1.06394
 C317 C 0.62388 0.91286 1.05905
 H318 H 0.67415 0.97494 1.08061
 H319 H 0.71364 1.02774 1.09869
 H320 H 0.77948 1.02126 1.11000
 H321 H 0.80647 0.96191 1.10236
 H322 H 0.79182 0.82714 1.06929
 H323 H 0.75255 0.77433 1.05045
 H324 H 0.68644 0.78062 1.04045
 H325 H 0.65926 0.83986 1.04883
 C326 C 0.69721 1.06779 0.90770
 C327 C 0.72028 1.03961 0.89495
 C328 C 0.75814 1.04716 0.89107
 C329 C 0.77273 1.08275 0.90027
 C330 C 0.74982 1.11075 0.91381
 C331 C 0.71193 1.10328 0.91743
 C332 C 0.68956 1.13176 0.93092
 C333 C 0.70424 1.16656 0.94066
 C334 C 0.74134 1.17381 0.93732
 C335 C 0.76398 1.14636 0.92396
 C336 C 0.78066 1.01861 0.87811
 C337 C 0.76626 0.98350 0.86966
 C338 C 0.72932 0.97607 0.87380
 C339 C 0.70641 1.00370 0.88609
 C340 C 0.81113 1.09083 0.89520
 C341 C 0.84279 1.09828 0.89047
 C342 C 0.65854 1.06017 0.91178
 C343 C 0.62656 1.05415 0.91629
 H344 H 0.66056 1.12746 0.93414
 H345 H 0.68672 1.18800 0.95093
 H346 H 0.75265 1.20085 0.94507
 H347 H 0.79264 1.15334 0.92180
 H348 H 0.80960 1.02306 0.87461
 H349 H 0.78388 0.96192 0.85998
 H350 H 0.71841 0.94872 0.86756
 H351 H 0.67783 0.99657 0.88876
 C352 C 0.11743 0.34002 0.11798
 C353 C 0.09655 0.31883 0.14077
 C354 C 0.11247 0.28907 0.15637
 C355 C 0.14899 0.28049 0.14873
 C356 C 0.16905 0.30019 0.12403
 C357 C 0.15332 0.33021 0.10881
 C358 C 0.17401 0.34968 0.08439
 C359 C 0.20914 0.33962 0.07511
 C360 C 0.22448 0.31019 0.08992
 C361 C 0.20483 0.29065 0.11418
 C362 C 0.09130 0.26855 0.17948
 C363 C 0.05521 0.27688 0.18655
 C364 C 0.03954 0.30576 0.17101
 C365 C 0.05990 0.32672 0.14852
 C366 C 0.16682 0.25304 0.16790
 C367 C 0.18302 0.23156 0.18442
 C368 C 0.10234 0.37210 0.10424
 C369 C 0.09067 0.39897 0.09254
 H370 H 0.16317 0.37262 0.07196
 H371 H 0.22451 0.35471 0.05627
 H372 H 0.25175 0.30242 0.08255
 H373 H 0.21786 0.26784 0.12483
 H374 H 0.10227 0.24569 0.19197
 H375 H 0.03927 0.26075 0.20406
 H376 H 0.01144 0.31189 0.17629
 H377 H 0.04653 0.34892 0.13707
 C378 C -0.08900 0.29058 -0.07504
 C379 C -0.11477 0.27220 -0.05448
 C380 C -0.12033 0.23398 -0.06127
 C381 C -0.10000 0.21440 -0.08848
 C382 C -0.07392 0.23269 -0.10874
 C383 C -0.06852 0.27092 -0.10210
 C384 C -0.04270 0.28870 -0.12312
 C385 C -0.02290 0.26929 -0.14995
 C386 C -0.02787 0.23186 -0.15618
 C387 C -0.05308 0.21362 -0.13591
 C388 C -0.14645 0.21619 -0.04062
 C389 C -0.16655 0.23561 -0.01404
 C390 C -0.16106 0.27296 -0.00736
 C391 C -0.13546 0.29120 -0.02720
 C392 C -0.10706 0.17575 -0.09687
 C393 C -0.11340 0.14387 -0.10503
 C394 C -0.08320 0.32962 -0.06836
 C395 C -0.07712 0.36190 -0.06333
 H396 H -0.03769 0.31776 -0.11925
 H397 H -0.00371 0.28345 -0.16607
 H398 H -0.01226 0.21690 -0.17695
 H399 H -0.05608 0.18449 -0.14184
 H400 H -0.15155 0.18714 -0.04474
 H401 H -0.18649 0.22160 0.00146
 H402 H -0.17678 0.28788 0.01324
 H403 H -0.13216 0.32028 -0.02101
 C404 C 0.08294 0.67875 -0.10530
 C405 C 0.05579 0.70409 -0.09574
 C406 C 0.06073 0.74081 -0.10356
 C407 C 0.09294 0.75202 -0.12058
 C408 C 0.11993 0.72662 -0.13043
 C409 C 0.11487 0.68986 -0.12283
 C410 C 0.14225 0.66498 -0.13284
 C411 C 0.17380 0.67613 -0.14978
 C412 C 0.17881 0.71208 -0.15717
 C413 C 0.15228 0.73715 -0.14769
 C414 C 0.03317 0.76559 -0.09393
 C415 C 0.00155 0.75439 -0.07710
 C416 C -0.00325 0.71851 -0.06938
 C417 C 0.02354 0.69358 -0.07834
 C418 C 0.09903 0.78977 -0.12716
 C419 C 0.10565 0.82090 -0.13265
 C420 C 0.07827 0.64149 -0.09642
 C421 C 0.07392 0.61086 -0.08829
 H422 H 0.13959 0.63672 -0.12767
 H423 H 0.19450 0.65675 -0.15717
 H424 H 0.20338 0.72063 -0.17032
 H425 H 0.15746 0.76480 -0.15405
 H426 H 0.03571 0.79378 -0.09940
 H427 H -0.01933 0.77364 -0.07002
 H428 H -0.02796 0.70987 -0.05655
 H429 H 0.01851 0.66597 -0.07181
 C430 C -0.07963 0.70592 0.07077
 C431 C -0.05557 0.73061 0.09192
 C432 C -0.06266 0.76827 0.09535
 C433 C -0.09387 0.78096 0.07777
 C434 C -0.11718 0.75648 0.05555
 C435 C -0.11011 0.71882 0.05212
 C436 C -0.13413 0.69479 0.03019
 C437 C -0.16426 0.70762 0.01221
 C438 C -0.17101 0.74449 0.01532
 C439 C -0.14783 0.76877 0.03672
 C440 C -0.03815 0.79248 0.11650
 C441 C -0.00734 0.77986 0.13353
 C442 C -0.00043 0.74303 0.13021
 C443 C -0.02426 0.71853 0.10984
 C444 C -0.10338 0.81868 0.08466
 C445 C -0.11185 0.84965 0.09205
 C446 C -0.07306 0.66731 0.06810
 C447 C -0.06754 0.63526 0.06548
 H448 H -0.12997 0.66588 0.02678
 H449 H -0.18253 0.68883 -0.00411
 H450 H -0.19436 0.75432 0.00112
 H451 H -0.15408 0.79722 0.03821
 H452 H -0.04232 0.82139 0.11977
 H453 H 0.01131 0.79879 0.14929
 H454 H 0.02362 0.73337 0.14336
 H455 H -0.01762 0.69016 0.10789
 C456 C 1.10075 0.08334 0.70844
 C457 C 1.07295 0.10044 0.72932
 C458 C 1.07653 0.10538 0.76824
 C459 C 1.10776 0.09300 0.78601
 C460 C 1.13568 0.07621 0.76513
 C461 C 1.13240 0.07183 0.72618
 C462 C 1.16068 0.05505 0.70586
 C463 C 1.19131 0.04284 0.72353
 C464 C 1.19442 0.04688 0.76165
 C465 C 1.16698 0.06329 0.78234
 C466 C 1.04848 0.12262 0.78856
 C467 C 1.01774 0.13463 0.77091
 C468 C 1.01420 0.12977 0.73284
 C469 C 1.04137 0.11283 0.71215
 C470 C 1.11220 0.09919 0.82559
 C471 C 1.11735 0.10547 0.85825
 C472 C 1.09549 0.07525 0.66908
 C473 C 1.08978 0.06802 0.63664
 H474 H 1.15940 0.05117 0.67616
 H475 H 1.21269 0.03007 0.70756
 H476 H 1.21820 0.03723 0.77527
 H477 H 1.17047 0.06548 0.81191
 H478 H 1.04995 0.12689 0.81824
 H479 H 0.99646 0.14762 0.78686
 H480 H 0.99018 0.13898 0.71926
 H481 H 1.03735 0.10963 0.68262
 C482 C 0.90022 -0.12388 0.66033
 C483 C 0.86301 -0.11879 0.66807
 C484 C 0.84703 -0.13534 0.69767
 C485 C 0.86839 -0.15679 0.71940
 C486 C 0.90606 -0.16023 0.71294
 C487 C 0.92207 -0.14366 0.68329
 C488 C 0.95975 -0.14755 0.67721
 C489 C 0.98103 -0.16721 0.69984
 C490 C 0.96535 -0.18348 0.72878
 C491 C 0.92826 -0.18019 0.73534
 C492 C 0.80963 -0.13028 0.70460
 C493 C 0.78869 -0.10928 0.68305
 C494 C 0.80435 -0.09301 0.65414
 C495 C 0.84104 -0.09765 0.64657
 C496 C 0.85080 -0.17692 0.74672
 C497 C 0.83423 -0.19404 0.76787
 C498 C 0.91538 -0.10978 0.62797
 C499 C 0.92674 -0.09796 0.60063
 H500 H 0.97315 -0.13528 0.65509
 H501 H 1.00982 -0.16985 0.69489
 H502 H 0.98201 -0.19872 0.74627
 H503 H 0.91723 -0.19321 0.75823
 H504 H 0.79621 -0.14235 0.72677
 H505 H 0.76016 -0.10564 0.68881
 H506 H 0.78798 -0.07671 0.63746
 H507 H 0.85198 -0.08436 0.62383
 C508 C 1.09567 -0.07418 0.29006
 C509 C 1.06804 -0.09295 0.26750
 C510 C 1.07174 -0.09715 0.22871
 C511 C 1.10317 -0.08273 0.21268
 C512 C 1.13060 -0.06363 0.23516
 C513 C 1.12686 -0.05936 0.27395
 C514 C 1.15483 -0.04049 0.29584
 C515 C 1.18567 -0.02634 0.27987
 C516 C 1.18924 -0.03033 0.24196
 C517 C 1.16211 -0.04875 0.21972
 C518 C 1.04377 -0.11608 0.20678
 C519 C 1.01316 -0.13070 0.22273
 C520 C 1.00976 -0.12691 0.26065
 C521 C 1.03663 -0.10810 0.28289
 C522 C 1.10807 -0.08920 0.17331
 C523 C 1.11240 -0.09586 0.14079
 C524 C 1.09175 -0.07013 0.32972
 C525 C 1.08721 -0.06695 0.36245
 H526 H 1.15325 -0.03662 0.32545
 H527 H 1.20700 -0.01236 0.29702
 H528 H 1.21322 -0.01920 0.22973
 H529 H 1.16613 -0.05122 0.19038
 H530 H 1.04527 -0.11985 0.17716
 H531 H 0.99205 -0.14518 0.20560
 H532 H 0.98630 -0.13877 0.27298
 H533 H 1.03257 -0.10580 0.31223
 C534 C 0.90174 0.12122 0.33733
 C535 C 0.91204 0.15774 0.33306
 C536 C 0.89426 0.17638 0.30588
 C537 C 0.86642 0.15832 0.28321
 C538 C 0.85795 0.12109 0.28576
 C539 C 0.87548 0.10252 0.31313
 C540 C 0.86591 0.06553 0.31583
 C541 C 0.84012 0.04730 0.29177
 C542 C 0.82323 0.06540 0.26474
 C543 C 0.83189 0.10191 0.26171
 C544 C 0.90462 0.21300 0.30228
 C545 C 0.93186 0.23072 0.32492
 C546 C 0.94918 0.21253 0.35163
 C547 C 0.93952 0.17644 0.35576
 C548 C 0.84459 0.17860 0.25934
 C549 C 0.82528 0.19531 0.24037
 C550 C 0.91676 0.10350 0.36769
 C551 C 0.92854 0.08906 0.39341
 H552 H 0.87856 0.05022 0.33621
 H553 H 0.83337 0.01892 0.29400
 H554 H 0.80332 0.05111 0.24602
 H555 H 0.81827 0.11482 0.24011
 H556 H 0.89196 0.22820 0.28182
 H557 H 0.93957 0.25870 0.32171
 H558 H 0.97032 0.22641 0.36916
 H559 H 0.95393 0.16334 0.37675
 C560 C 0.09037 0.29528 -0.07467
 C561 C 0.10067 0.27704 -0.04383
 C562 C 0.10737 0.23929 -0.04826
 C563 C 0.10330 0.21998 -0.08339
 C564 C 0.09233 0.23805 -0.11411
 C565 C 0.08616 0.27588 -0.10979
 C566 C 0.07589 0.29348 -0.14101
 C567 C 0.07164 0.27421 -0.17549
 C568 C 0.07711 0.23711 -0.17962
 C569 C 0.08739 0.21911 -0.14941
 C570 C 0.11797 0.22169 -0.01716
 C571 C 0.12150 0.24077 0.01746
 C572 C 0.11460 0.27758 0.02185
 C573 C 0.10445 0.29570 -0.00834
 C574 C 0.11105 0.18170 -0.08847
 C575 C 0.11748 0.15006 -0.09497
 C576 C 0.08358 0.33383 -0.07017
 C577 C 0.07742 0.36572 -0.06619
 H578 H 0.07098 0.32225 -0.13914
 H579 H 0.06370 0.28810 -0.19905
 H580 H 0.07340 0.22218 -0.20638
 H581 H 0.09139 0.19024 -0.15410
 H582 H 0.12346 0.19303 -0.01925
 H583 H 0.12949 0.22690 0.04103
 H584 H 0.11701 0.29216 0.04880
 H585 H 0.09951 0.32439 -0.00351
 C586 C -0.11295 0.34892 0.13684
 C587 C -0.09649 0.33651 0.16853
 C588 C -0.11327 0.30747 0.18555
 C589 C -0.14648 0.29124 0.17090
 C590 C -0.16307 0.30381 0.13937
 C591 C -0.14627 0.33278 0.12230
 C592 C -0.16358 0.34517 0.09104
 C593 C -0.19663 0.32952 0.07720
 C594 C -0.21293 0.30100 0.09374
 C595 C -0.19647 0.28818 0.12447
 C596 C -0.09637 0.29548 0.21722
 C597 C -0.06399 0.31197 0.23187
 C598 C -0.04775 0.34059 0.21541
 C599 C -0.06356 0.35268 0.18395
 C600 C -0.16418 0.26232 0.18881
 C601 C -0.17944 0.23862 0.20377
 C602 C -0.09586 0.37839 0.11920
 C603 C -0.08233 0.40277 0.10390
 H604 H -0.15190 0.36716 0.07706
 H605 H -0.20956 0.33947 0.05338
 H606 H -0.23851 0.28880 0.08276
 H607 H -0.21030 0.26607 0.13650
 H608 H -0.10802 0.27336 0.23102
 H609 H -0.05147 0.30251 0.25615
 H610 H -0.02263 0.35336 0.22694
 H611 H -0.04979 0.37487 0.17198
 C612 C -0.10379 0.66256 -0.11556
 C613 C -0.13991 0.67293 -0.10827
 C614 C -0.15449 0.70253 -0.12513
 C615 C -0.13288 0.72151 -0.14920
 C616 C -0.09598 0.71283 -0.15439
 C617 C -0.08142 0.68305 -0.13770
 C618 C -0.04472 0.67423 -0.14401
 C619 C -0.02279 0.69475 -0.16558
 C620 C -0.03695 0.72411 -0.18160
 C621 C -0.07321 0.73304 -0.17635
 C622 C -0.19085 0.71215 -0.11787
 C623 C -0.21220 0.69301 -0.09465
 C624 C -0.19802 0.66386 -0.07836
 C625 C -0.16226 0.65389 -0.08487
 C626 C -0.14987 0.74734 -0.17107
 C627 C -0.16608 0.76700 -0.18979
 C628 C -0.09043 0.62994 -0.10153
 C629 C -0.08032 0.60243 -0.08996
 H630 H -0.03249 0.65174 -0.13196
 H631 H 0.00538 0.68793 -0.16973
 H632 H -0.01979 0.74003 -0.19823
 H633 H -0.08311 0.75609 -0.18932
 H634 H -0.20309 0.73460 -0.12993
 H635 H -0.23990 0.70082 -0.08931
 H636 H -0.21473 0.64900 -0.06039
 H637 H -0.15236 0.63124 -0.07127
 C638 C 0.09074 0.71077 0.06953
 C639 C 0.12256 0.72657 0.08769
 C640 C 0.12721 0.76493 0.09307
 C641 C 0.09990 0.78729 0.08041
 C642 C 0.06830 0.77152 0.06180
 C643 C 0.06379 0.73312 0.05616
 C644 C 0.03202 0.71794 0.03738
 C645 C 0.00533 0.74008 0.02485
 C646 C 0.00970 0.77761 0.03045
 C647 C 0.04080 0.79331 0.04869
 C648 C 0.15933 0.78008 0.11129
 C649 C 0.18601 0.75796 0.12383
 C650 C 0.18142 0.72044 0.11860
 C651 C 0.15010 0.70477 0.10079
 C652 C 0.10446 0.82641 0.08727
 C653 C 0.10992 0.85860 0.09433
 C654 C 0.08544 0.67159 0.06537
 C655 C 0.08064 0.63910 0.06223
 H656 H 0.02734 0.68889 0.03243
 H657 H -0.01909 0.72802 0.01112
 H658 H -0.01120 0.79464 0.02077
 H659 H 0.04300 0.82264 0.05250
 H660 H 0.16425 0.80911 0.11599
 H661 H 0.21038 0.77002 0.13770
 H662 H 0.20223 0.70336 0.12838
 H663 H 0.14780 0.67544 0.09734
 C664 C 0.30484 1.07445 0.91694
 C665 C 0.29035 1.08606 0.88398
 C666 C 0.25301 1.09471 0.88157
 C667 C 0.23030 1.09141 0.91205
 C668 C 0.24470 1.07953 0.94492
 C669 C 0.28210 1.07095 0.94736
 C670 C 0.29586 1.05891 0.98045
 C671 C 0.27334 1.05555 1.01027
 C672 C 0.23682 1.06410 1.00790
 C673 C 0.22251 1.07595 0.97565
 C674 C 0.23921 1.10651 0.84836
 C675 C 0.26152 1.10924 0.81831
 C676 C 0.29800 1.10057 0.82063
 C677 C 0.31242 1.08920 0.85304
 C678 C 0.19202 1.09954 0.90881
 C679 C 0.16052 1.10631 0.90362
 C680 C 0.34319 1.06652 0.91968
 C681 C 0.37502 1.06003 0.92259
 H682 H 0.32410 1.05198 0.98364
 H683 H 0.28433 1.04635 1.03539
 H684 H 0.21949 1.06154 1.03119
 H685 H 0.19393 1.08228 0.97506
 H686 H 0.21109 1.11381 0.84522
 H687 H 0.25043 1.11814 0.79310
 H688 H 0.31524 1.10273 0.79720
 H689 H 0.34098 1.08282 0.85352
 C690 C 0.29736 0.92359 1.06493
 C691 C 0.28145 0.94654 1.09291
 C692 C 0.24331 0.94377 1.09858
 C693 C 0.22133 0.91820 1.07616
 C694 C 0.23685 0.89710 1.04655
 C695 C 0.27502 0.89966 1.04102
 C696 C 0.28999 0.87795 1.01155
 C697 C 0.26781 0.85462 0.98798
 C698 C 0.23045 0.85230 0.99324
 C699 C 0.21501 0.87313 1.02224
 C700 C 0.22803 0.96667 1.12696
 C701 C 0.24979 0.99174 1.14904
 C702 C 0.28709 0.99447 1.14349
 C703 C 0.30289 0.97221 1.11579
 C704 C 0.18354 0.91157 1.08526
 C705 C 0.15265 0.90457 1.09362
 C706 C 0.33669 0.92426 1.06112
 C707 C 0.36933 0.92520 1.05795
 H708 H 0.31885 0.87912 1.00610
 H709 H 0.27964 0.83853 0.96530
 H710 H 0.21330 0.83439 0.97465
 H711 H 0.18579 0.87055 1.02515
 H712 H 0.19911 0.96567 1.13213
 H713 H 0.23765 1.00917 1.17052
 H714 H 0.30387 1.01390 1.16076
 H715 H 0.33200 0.97545 1.11244
 C716 C 0.68276 1.10657 1.11363
 C717 C 0.70046 1.13605 1.09841
 C718 C 0.72845 1.15668 1.11893
 C719 C 0.73837 1.14772 1.15450
 C720 C 0.72260 1.11660 1.16851
 C721 C 0.69471 1.09590 1.14796
 C722 C 0.67908 1.06504 1.16258
 C723 C 0.69090 1.05479 1.19647
 C724 C 0.71816 1.07512 1.21664
 C725 C 0.73380 1.10579 1.20303
 C726 C 0.74566 1.18621 1.10339
 C727 C 0.73550 1.19510 1.06847
 C728 C 0.70801 1.17497 1.04842
 C729 C 0.69056 1.14577 1.06310
 C730 C 0.76302 1.17161 1.17761
 C731 C 0.78264 1.19159 1.19772
 C732 C 0.65066 1.08896 1.09542
 C733 C 0.62316 1.07512 1.08125
 H734 H 0.65792 1.04829 1.14780
 H735 H 0.67885 1.03096 1.20714
 H736 H 0.72723 1.06710 1.24299
 H737 H 0.75485 1.12077 1.21970
 H738 H 0.76732 1.20246 1.11791
 H739 H 0.74905 1.21767 1.05690
 H740 H 0.70018 1.18201 1.02136
 H741 H 0.66949 1.13076 1.04640
 C742 C 0.67279 0.87043 0.87277
 C743 C 0.69296 0.84573 0.89179
 C744 C 0.72496 0.83085 0.87617
 C745 C 0.73651 0.84074 0.84165
 C746 C 0.71745 0.86690 0.82361
 C747 C 0.68531 0.88158 0.83906
 C748 C 0.66639 0.90731 0.82023
 C749 C 0.67915 0.91853 0.78732
 C750 C 0.71074 0.90433 0.77235
 C751 C 0.72971 0.87872 0.79011
 C752 C 0.74461 0.80606 0.89553
 C753 C 0.73293 0.79615 0.92935
 C754 C 0.70155 0.81061 0.94456
 C755 C 0.68171 0.83517 0.92615
 C756 C 0.76627 0.82213 0.82345
 C757 C 0.78994 0.80567 0.80751
 C758 C 0.63892 0.88397 0.88749
 C759 C 0.61066 0.89529 0.89932
 H760 H 0.64183 0.91932 0.83091
 H761 H 0.66451 0.93842 0.77341
 H762 H 0.72062 0.91321 0.74684
 H763 H 0.75421 0.86856 0.77753
 H764 H 0.76930 0.79433 0.88487
 H765 H 0.74830 0.77718 0.94383
 H766 H 0.69248 0.80274 0.97073
 H767 H 0.65756 0.84578 0.93916
   
