data_POSCAR
  _audit_creation_date              2014-09-24
  _audit_creation_method            'ToBaCCo'
  _symmetry_space_group_name_H-M    'P1'
  _symmetry_Int_Tables_number       1
  _symmetry_cell_setting            triclinic
  loop_
  _symmetry_equiv_pos_as_xyz
 x,y,z
_cell_length_a 41.2687
_cell_length_b 42.8721
_cell_length_c 25.8847
_cell_angle_alpha 90.118500
_cell_angle_beta 89.908400
_cell_angle_gamma 90.028000
loop_
  _atom_site_label
  _atom_site_type_symbol
  _atom_site_fract_x
  _atom_site_fract_y
  _atom_site_fract_z
O1 O 0.19386 0.21650 0.29547
 O2 O 0.24769 0.27446 0.35569
 O3 O 0.19199 0.27661 0.30893
 O4 O 0.25047 0.21468 0.34173
 O5 O 0.27597 0.22277 0.26790
 O6 O 0.21614 0.28255 0.23339
 O7 O 0.27154 0.28237 0.28036
 O8 O 0.21972 0.22206 0.22128
 Cu9 Cu 0.21843 0.24471 0.33289
 Cu10 Cu 0.24820 0.25300 0.24306
 C11 C 0.19761 0.20938 0.24825
 C12 C 0.26869 0.28837 0.32825
 C13 C 0.19420 0.29016 0.26549
 C14 C 0.27378 0.20886 0.31097
 O15 O 0.77777 0.28154 0.22215
 O16 O 0.72591 0.22168 0.28357
 O17 O 0.78273 0.22195 0.23979
 O18 O 0.72260 0.28196 0.27113
 O19 O 0.69775 0.27353 0.19695
 O20 O 0.75898 0.21353 0.16463
 O21 O 0.70234 0.21307 0.20835
 O22 O 0.75299 0.27308 0.14785
 Cu23 Cu 0.75464 0.25267 0.26165
 Cu24 Cu 0.72552 0.24251 0.17201
 C25 C 0.77411 0.28739 0.17433
 C26 C 0.70548 0.20693 0.25597
 C27 C 0.78123 0.20752 0.19708
 C28 C 0.69995 0.28807 0.23967
 O29 O 0.77139 0.77761 0.78713
 O30 O 0.71827 0.71533 0.73551
 O31 O 0.77336 0.71707 0.78415
 O32 O 0.71404 0.77575 0.74420
 O33 O 0.73745 0.77931 0.66764
 O34 O 0.79904 0.72196 0.70976
 O35 O 0.74371 0.71867 0.66060
 O36 O 0.79424 0.78219 0.71028
 Cu37 Cu 0.74177 0.74609 0.77028
 Cu38 Cu 0.77092 0.75081 0.67938
 C39 C 0.79192 0.79042 0.75715
 C40 C 0.72227 0.70632 0.68908
 C41 C 0.79664 0.70981 0.75441
 C42 C 0.71540 0.78745 0.69934
 O43 O 0.30081 0.77554 0.77536
 O44 O 0.23997 0.71710 0.81381
 O45 O 0.29365 0.71623 0.76064
 O46 O 0.24735 0.77728 0.82855
 O47 O 0.21845 0.78521 0.75812
 O48 O 0.26638 0.72584 0.68906
 O49 O 0.21285 0.72568 0.74175
 O50 O 0.27270 0.78529 0.70468
 Cu51 Cu 0.27308 0.74561 0.80191
 Cu52 Cu 0.23977 0.75659 0.71633
 C53 C 0.29726 0.79013 0.73315
 C54 C 0.21627 0.71119 0.78406
 C55 C 0.28818 0.71092 0.71313
 C56 C 0.22477 0.79146 0.80506
 C57 C 0.98212 -0.10042 -0.03121
 C58 C 1.01526 -0.10217 -0.02868
 C59 C 1.02652 -0.07192 -0.02199
 N60 N 1.00132 -0.05178 -0.02155
 C61 C 0.97415 -0.06912 -0.02729
 C62 C 1.05956 -0.06309 -0.02072
 C63 C 1.07043 -0.03358 -0.00249
 C64 C 1.10240 -0.02341 -0.00294
 C65 C 1.10302 0.00525 0.02089
 C66 C 1.07154 0.01183 0.03614
 N67 N 1.05194 -0.01210 0.02226
 C68 C 1.06213 0.03871 0.06439
 C69 C 1.02932 0.04725 0.07236
 C70 C 1.01854 0.07001 0.10652
 C71 C 0.98579 0.07294 0.09899
 C72 C 0.97746 0.05130 0.06153
 N73 N 1.00407 0.03578 0.04511
 C74 C 0.94623 0.04763 0.04036
 C75 C 0.93717 0.02185 0.00967
 C76 C 0.90845 0.01964 -0.01788
 C77 C 0.90721 -0.01006 -0.03793
 C78 C 0.93522 -0.02513 -0.02215
 N79 N 0.95328 -0.00556 0.00698
 C80 C 0.94254 -0.05671 -0.03234
 H81 H 0.96590 -0.12004 -0.03588
 H82 H 1.02924 -0.12343 -0.03137
 H83 H 0.97327 -0.01182 0.02900
 H84 H 1.12353 -0.03552 -0.01735
 H85 H 1.12443 0.01938 0.02693
 H86 H 1.03270 0.08329 0.13397
 H87 H 0.96996 0.08906 0.11900
 H88 H 0.88775 -0.01954 -0.06116
 H89 H 1.02807 -0.01503 0.03384
 H90 H 0.88997 0.03735 -0.02219
 C91 C 0.47911 0.42990 0.37866
 C92 C 0.51208 0.42680 0.38203
 C93 C 0.52246 0.44798 0.41907
 N94 N 0.49674 0.46341 0.43909
 C95 C 0.47023 0.45245 0.41439
 C96 C 0.55469 0.45091 0.43701
 C97 C 0.56473 0.47401 0.47273
 C98 C 0.59437 0.47417 0.49801
 C99 C 0.59585 0.50142 0.52602
 C100 C 0.56713 0.51725 0.51707
 N101 N 0.54838 0.50048 0.48435
 C102 C 0.55978 0.54725 0.53656
 C103 C 0.52829 0.56018 0.53517
 C104 C 0.52086 0.59120 0.54483
 C105 C 0.48777 0.59361 0.54290
 C106 C 0.47608 0.56405 0.53182
 N107 N 0.50086 0.54364 0.52710
 C108 C 0.44295 0.55595 0.52908
 C109 C 0.43176 0.52806 0.50602
 C110 C 0.40025 0.51700 0.50950
 C111 C 0.39879 0.49035 0.48001
 C112 C 0.42949 0.48575 0.45946
 N113 N 0.44938 0.50898 0.47515
 C114 C 0.43793 0.46096 0.42601
 H115 H 0.46346 0.41660 0.35334
 H116 H 0.52645 0.41033 0.36015
 H117 H 0.47261 0.51330 0.46142
 H118 H 0.61326 0.45671 0.49601
 H119 H 0.61595 0.50884 0.54989
 H120 H 0.53748 0.61019 0.55230
 H121 H 0.47392 0.61476 0.54865
 H122 H 0.37755 0.47590 0.47459
 H123 H 0.52748 0.50839 0.46636
 H124 H 0.38030 0.52707 0.53099
 C125 C 0.01543 0.42081 0.08470
 C126 C -0.01778 0.42109 0.08448
 C127 C -0.02708 0.45078 0.06939
 N128 N -0.00064 0.46882 0.06188
 C129 C 0.02541 0.45060 0.07129
 C130 C -0.05935 0.46164 0.06665
 C131 C -0.06806 0.49008 0.04286
 C132 C -0.09845 0.50377 0.04600
 C133 C -0.09810 0.52908 0.01341
 C134 C -0.06751 0.53021 -0.00879
 N135 N -0.04940 0.50630 0.00925
 C136 C -0.05770 0.55187 -0.04694
 C137 C -0.02471 0.55710 -0.05932
 C138 C -0.01334 0.57457 -0.10060
 C139 C 0.01967 0.57654 -0.09513
 C140 C 0.02754 0.55926 -0.05176
 N141 N 0.00039 0.54761 -0.02981
 C142 C 0.05885 0.55644 -0.03046
 C143 C 0.06699 0.53380 0.00689
 C144 C 0.09617 0.53271 0.03340
 C145 C 0.09612 0.50548 0.06139
 C146 C 0.06685 0.49078 0.05149
 N147 N 0.04931 0.50810 0.01808
 C148 C 0.05788 0.46123 0.07079
 H149 H 0.03033 0.40088 0.09411
 H150 H -0.03310 0.40153 0.09440
 H151 H 0.02839 0.50089 -0.00079
 H152 H -0.11901 0.49600 0.06855
 H153 H -0.11823 0.54471 0.00657
 H154 H -0.02723 0.58508 -0.13138
 H155 H 0.03586 0.58918 -0.12044
 H156 H 0.11554 0.49733 0.08596
 H157 H -0.02707 0.49929 -0.00533
 H158 H 0.11586 0.54938 0.03175
 C159 C 0.52384 0.90771 0.52104
 C160 C 0.49067 0.90572 0.52315
 C161 C 0.47909 0.93602 0.52130
 N162 N 0.50400 0.95643 0.51837
 C163 C 0.53140 0.93917 0.51820
 C164 C 0.44612 0.94459 0.52469
 C165 C 0.43481 0.97486 0.51316
 C166 C 0.40413 0.98590 0.52536
 C167 C 0.40167 1.01517 0.50424
 C168 C 0.43092 1.02126 0.47977
 N169 N 0.45101 0.99658 0.48544
 C170 C 0.43748 1.04818 0.45019
 C171 C 0.46928 1.05700 0.43587
 C172 C 0.47716 1.07989 0.40020
 C173 C 0.51028 1.08262 0.40068
 C174 C 0.52159 1.06088 0.43582
 N175 N 0.49653 1.04532 0.45742
 C176 C 0.55443 1.05672 0.44912
 C177 C 0.56590 1.03038 0.47638
 C178 C 0.59631 1.02800 0.49878
 C179 C 0.59887 0.99819 0.51789
 C180 C 0.56985 0.98324 0.50704
 N181 N 0.54992 1.00299 0.48162
 C182 C 0.56312 0.95167 0.51844
 H183 H 0.54042 0.88817 0.52145
 H184 H 0.47672 0.88439 0.52550
 H185 H 0.52820 0.99703 0.46388
 H186 H 0.38532 0.97401 0.54684
 H187 H 0.38060 1.03015 0.50638
 H188 H 0.46088 1.09319 0.37607
 H189 H 0.52445 1.09849 0.37731
 H190 H 0.61973 0.98864 0.53757
 H191 H 0.47286 0.99324 0.46619
 H192 H 0.61487 1.04579 0.50088
 C193 C 1.17522 0.18685 0.22474
 C194 C 1.18211 0.17143 0.17859
 C195 C 1.15814 0.15074 0.15372
 C196 C 1.16829 0.12290 0.13018
 C197 C 1.14568 0.10301 0.10685
 C198 C 1.11272 0.11121 0.10555
 C199 C 1.10279 0.13953 0.12759
 C200 C 1.12521 0.15897 0.15205
 C201 C 1.08827 0.09108 0.08076
 C202 C 1.08833 0.05870 0.08606
 H203 H 1.20603 0.17346 0.16157
 H204 H 1.19363 0.11635 0.13052
 H205 H 1.15402 0.08158 0.08909
 H206 H 1.07754 0.14639 0.12651
 H207 H 1.11689 0.18068 0.16889
 H208 H 1.06813 0.10227 0.06145
 H209 H 1.15271 0.18196 0.24476
 H210 H 1.10852 0.04746 0.10513
 C211 C 0.70199 0.68154 0.66684
 C212 C 0.67581 0.66836 0.69316
 C213 C 0.65364 0.64498 0.66984
 C214 C 0.63253 0.62831 0.70222
 C215 C 0.61049 0.60684 0.68161
 C216 C 0.60922 0.60143 0.62818
 C217 C 0.63014 0.61824 0.59562
 C218 C 0.65202 0.63981 0.61614
 C219 C 0.58445 0.57985 0.60733
 C220 C 0.58669 0.56600 0.55859
 H221 H 0.67139 0.67544 0.73276
 H222 H 0.63294 0.63204 0.74362
 H223 H 0.59430 0.59451 0.70746
 H224 H 0.62899 0.61564 0.55408
 H225 H 0.66677 0.65289 0.58935
 H226 H 0.56342 0.57480 0.63101
 H227 H 0.70803 0.67392 0.62820
 H228 H 0.60913 0.56731 0.53701
 C229 C -0.20552 0.31067 0.14822
 C230 C -0.18216 0.32828 0.17401
 C231 C -0.16063 0.35072 0.14722
 C232 C -0.14633 0.37494 0.17571
 C233 C -0.12538 0.39617 0.15188
 C234 C -0.11818 0.39347 0.09887
 C235 C -0.13208 0.36896 0.07061
 C236 C -0.15309 0.34781 0.09438
 C237 C -0.09487 0.41439 0.07255
 C238 C -0.08512 0.44319 0.09219
 H239 H -0.18018 0.32621 0.21561
 H240 H -0.15133 0.37739 0.21662
 H241 H -0.11434 0.41407 0.17548
 H242 H -0.12646 0.36600 0.02999
 H243 H -0.16262 0.32882 0.07142
 H244 H -0.08449 0.40669 0.03619
 H245 H -0.20951 0.31409 0.10732
 H246 H -0.09719 0.45333 0.12530
 C247 C 0.32249 0.81234 0.71715
 C248 C 0.32230 0.82630 0.66848
 C249 C 0.34879 0.84641 0.64872
 C250 C 0.35098 0.85147 0.59528
 C251 C 0.37554 0.87016 0.57472
 C252 C 0.39829 0.88456 0.60740
 C253 C 0.39627 0.87937 0.66079
 C254 C 0.37166 0.86071 0.68140
 C255 C 0.42429 0.90501 0.58723
 C256 C 0.42173 0.92108 0.54062
 H257 H 0.30267 0.82073 0.64227
 H258 H 0.33379 0.84065 0.56921
 H259 H 0.37681 0.87287 0.53324
 H260 H 0.41349 0.89024 0.68677
 H261 H 0.37049 0.85810 0.72286
 H262 H 0.44508 0.90958 0.61165
 H263 H 0.34257 0.81595 0.74325
 H264 H 0.39950 0.91980 0.51862
 C265 C -0.17979 0.68882 -0.22882
 C266 C -0.18252 0.67330 -0.18153
 C267 C -0.15649 0.65385 -0.15946
 C268 C -0.16482 0.62907 -0.12669
 C269 C -0.14077 0.61147 -0.10244
 C270 C -0.10791 0.61881 -0.10979
 C271 C -0.09956 0.64384 -0.14201
 C272 C -0.12361 0.66104 -0.16713
 C273 C -0.08206 0.60160 -0.08271
 C274 C -0.08362 0.56950 -0.07409
 H275 H -0.20493 0.67499 -0.15978
 H276 H -0.19004 0.62346 -0.11959
 H277 H -0.14795 0.59280 -0.07675
 H278 H -0.07436 0.65007 -0.14771
 H279 H -0.11648 0.68057 -0.19104
 H280 H -0.06064 0.61442 -0.07116
 H281 H -0.15888 0.68464 -0.25320
 H282 H -0.10525 0.55689 -0.08527
 C283 C 0.29803 1.18789 0.32456
 C284 C 0.29780 1.17121 0.37079
 C285 C 0.32609 1.15276 0.38749
 C286 C 0.32134 1.12466 0.41406
 C287 C 0.34792 1.10697 0.43021
 C288 C 0.37966 1.11757 0.42104
 C289 C 0.38437 1.14619 0.39610
 C290 C 0.35784 1.16351 0.37894
 C291 C 0.40814 1.09946 0.43775
 C292 C 0.40921 1.06707 0.43348
 H293 H 0.27630 1.17112 0.39489
 H294 H 0.29706 1.11623 0.42176
 H295 H 0.34364 1.08532 0.45060
 H296 H 0.40864 1.15491 0.38924
 H297 H 0.36216 1.18557 0.35983
 H298 H 0.42933 1.11205 0.45098
 H299 H 0.31839 1.18514 0.29843
 H300 H 0.38788 1.05473 0.42013
 C301 C 1.20698 -0.18595 -0.16845
 C302 C 1.17854 -0.17316 -0.18827
 C303 C 1.15984 -0.14971 -0.15924
 C304 C 1.12643 -0.15388 -0.15221
 C305 C 1.10825 -0.13156 -0.12546
 C306 C 1.12310 -0.10426 -0.10706
 C307 C 1.15638 -0.09976 -0.11500
 C308 C 1.17480 -0.12263 -0.14011
 C309 C 1.10366 -0.07971 -0.08215
 C310 C 1.08345 -0.08619 -0.04037
 H311 H 1.16817 -0.18242 -0.22356
 H312 H 1.11450 -0.17454 -0.16707
 H313 H 1.08246 -0.13516 -0.12035
 H314 H 1.16809 -0.07866 -0.10145
 H315 H 1.20050 -0.11884 -0.14583
 H316 H 1.10515 -0.05625 -0.09740
 H317 H 1.21477 -0.17916 -0.13006
 H318 H 1.08261 -0.10983 -0.02577
 C319 C 0.67601 0.31232 0.25275
 C320 C 0.67799 0.32890 0.29922
 C321 C 0.65494 0.35345 0.31595
 C322 C 0.65569 0.36316 0.36776
 C323 C 0.63466 0.38628 0.38573
 C324 C 0.61228 0.40027 0.35211
 C325 C 0.61202 0.39116 0.29999
 C326 C 0.63304 0.36793 0.28199
 C327 C 0.58928 0.42455 0.36987
 C328 C 0.57883 0.42719 0.42099
 H329 H 0.69721 0.32295 0.32592
 H330 H 0.67266 0.35277 0.39460
 H331 H 0.63646 0.39337 0.42573
 H332 H 0.59528 0.40189 0.27316
 H333 H 0.63221 0.36183 0.24149
 H334 H 0.57856 0.43976 0.34120
 H335 H 0.65659 0.31661 0.22572
 H336 H 0.58849 0.41209 0.45059
 C337 C 0.81402 -0.18524 -0.22411
 C338 C 0.81807 -0.17831 -0.17185
 C339 C 0.84332 -0.15655 -0.15269
 C340 C 0.84038 -0.14402 -0.10279
 C341 C 0.86411 -0.12397 -0.08304
 C342 C 0.89141 -0.11603 -0.11301
 C343 C 0.89457 -0.12898 -0.16254
 C344 C 0.87095 -0.14906 -0.18216
 C345 C 0.91765 -0.09541 -0.09387
 C346 C 0.91550 -0.07716 -0.04933
 H347 H 0.80221 -0.18931 -0.14388
 H348 H 0.81966 -0.14983 -0.07892
 H349 H 0.86107 -0.11534 -0.04411
 H350 H 0.91558 -0.12373 -0.18612
 H351 H 0.87502 -0.15911 -0.21993
 H352 H 0.93971 -0.09400 -0.11655
 H353 H 0.82842 -0.17336 -0.25291
 H354 H 0.89274 -0.07514 -0.02889
 C355 C 0.29027 0.31116 0.35300
 C356 C 0.31126 0.32992 0.32445
 C357 C 0.33503 0.35110 0.34881
 C358 C 0.34523 0.37774 0.32196
 C359 C 0.36848 0.39767 0.34325
 C360 C 0.38227 0.39101 0.39163
 C361 C 0.37249 0.36408 0.41806
 C362 C 0.34894 0.34437 0.39708
 C363 C 0.40804 0.41068 0.41410
 C364 C 0.41123 0.44237 0.40336
 H365 H 0.30970 0.32970 0.28266
 H366 H 0.33521 0.38310 0.28434
 H367 H 0.37621 0.41774 0.32114
 H368 H 0.38317 0.35823 0.45500
 H369 H 0.34240 0.32349 0.41806
 H370 H 0.42472 0.40012 0.44122
 H371 H 0.28946 0.31319 0.39467
 H372 H 0.39259 0.45444 0.38187
 C373 C 0.19228 0.68728 -0.20199
 C374 C 0.19407 0.67053 -0.15593
 C375 C 0.16998 0.64661 -0.14079
 C376 C 0.16644 0.63928 -0.08830
 C377 C 0.14361 0.61724 -0.07229
 C378 C 0.12387 0.60194 -0.10867
 C379 C 0.12824 0.60839 -0.16130
 C380 C 0.15100 0.63054 -0.17732
 C381 C 0.09892 0.57897 -0.09315
 C382 C 0.08387 0.57952 -0.04494
 H383 H 0.21306 0.67623 -0.12861
 H384 H 0.18121 0.65087 -0.05949
 H385 H 0.14184 0.61203 -0.03152
 H386 H 0.11374 0.59650 -0.19012
 H387 H 0.15384 0.63465 -0.21827
 H388 H 0.09071 0.56211 -0.12152
 H389 H 0.17242 0.68340 -0.22847
 H390 H 0.09086 0.59646 -0.01602
 C391 C 0.68631 1.18339 0.27698
 C392 C 0.68640 1.17558 0.32930
 C393 C 0.66634 1.14972 0.34937
 C394 C 0.65184 1.15237 0.39821
 C395 C 0.63179 1.12860 0.41695
 C396 C 0.62646 1.10150 0.38742
 C397 C 0.64212 1.09828 0.33963
 C398 C 0.66167 1.12226 0.32051
 C399 C 0.60498 1.07620 0.40564
 C400 C 0.57740 1.08198 0.43525
 H401 H 0.69982 1.18979 0.35655
 H402 H 0.65552 1.17313 0.42140
 H403 H 0.62075 1.13133 0.45465
 H404 H 0.63874 1.07741 0.31660
 H405 H 0.67334 1.11918 0.28336
 H406 H 0.60938 1.05268 0.39191
 H407 H 0.67029 1.17085 0.25110
 H408 H 0.57040 1.10582 0.44350
 C409 C 0.17096 0.31493 0.25254
 C410 C 0.17289 0.33114 0.20590
 C411 C 0.14992 0.35583 0.18988
 C412 C 0.14886 0.36412 0.13752
 C413 C 0.12744 0.38700 0.12017
 C414 C 0.10681 0.40249 0.15512
 C415 C 0.10801 0.39438 0.20758
 C416 C 0.12945 0.37143 0.22496
 C417 C 0.08270 0.42582 0.13783
 C418 C 0.08417 0.44068 0.08996
 H419 H 0.19161 0.32457 0.17854
 H420 H 0.16432 0.35247 0.10966
 H421 H 0.12668 0.39179 0.07921
 H422 H 0.09231 0.40589 0.23526
 H423 H 0.13000 0.36633 0.26581
 H424 H 0.06270 0.43129 0.16347
 H425 H 0.15188 0.31988 0.28001
 H426 H 0.10591 0.43898 0.06672
 C427 C 0.69072 0.81056 0.68500
 C428 C 0.69102 0.82654 0.63805
 C429 C 0.66594 0.84972 0.62337
 C430 C 0.66260 0.85791 0.57115
 C431 C 0.63871 0.87906 0.55559
 C432 C 0.61777 0.89263 0.59220
 C433 C 0.62139 0.88481 0.64441
 C434 C 0.64537 0.86390 0.66001
 C435 C 0.59108 0.91381 0.57732
 C436 C 0.59080 0.93110 0.53174
 H437 H 0.70973 0.82099 0.61009
 H438 H 0.67815 0.84747 0.54212
 H439 H 0.63622 0.88401 0.51484
 H440 H 0.60564 0.89506 0.67336
 H441 H 0.64768 0.85926 0.70083
 H442 H 0.57103 0.91660 0.60404
 H443 H 0.67151 0.81452 0.71265
 H444 H 0.61219 0.93191 0.50753
 C445 C 0.80574 0.18355 0.18615
 C446 C 0.80678 0.16698 0.13976
 C447 C 0.83153 0.14282 0.12883
 C448 C 0.83933 0.13586 0.07732
 C449 C 0.86294 0.11354 0.06561
 C450 C 0.87915 0.09759 0.10541
 C451 C 0.87056 0.10382 0.15684
 C452 C 0.84705 0.12619 0.16854
 C453 C 0.90439 0.07388 0.09493
 C454 C 0.92200 0.07244 0.04905
 H455 H 0.78983 0.17293 0.10942
 H456 H 0.82729 0.14792 0.04602
 H457 H 0.86796 0.10861 0.02542
 H458 H 0.88224 0.09145 0.18816
 H459 H 0.84084 0.12998 0.20866
 H460 H 0.91040 0.05752 0.12534
 H461 H 0.82389 0.17948 0.21547
 H462 H 0.91776 0.08881 0.01810
 C463 C 0.30741 0.68756 0.68495
 C464 C 0.33349 0.67217 0.70785
 C465 C 0.35492 0.65020 0.67979
 C466 C 0.38590 0.64429 0.69969
 C467 C 0.40709 0.62407 0.67414
 C468 C 0.39779 0.60921 0.62815
 C469 C 0.36640 0.61445 0.60882
 C470 C 0.34520 0.63473 0.63439
 C471 C 0.42132 0.58813 0.60252
 C472 C 0.41851 0.57739 0.55175
 H473 H 0.33971 0.67790 0.74741
 H474 H 0.39389 0.65564 0.73487
 H475 H 0.43098 0.62023 0.69022
 H476 H 0.35774 0.60269 0.57458
 H477 H 0.32110 0.63771 0.61884
 H478 H 0.44255 0.58127 0.62434
 H479 H 0.30175 0.68376 0.64466
 H480 H 0.39751 0.58301 0.52873
   
