data_POSCAR
  _audit_creation_date              2014-09-24
  _audit_creation_method            'ToBaCCo'
  _symmetry_space_group_name_H-M    'P1'
  _symmetry_Int_Tables_number       1
  _symmetry_cell_setting            triclinic
  loop_
  _symmetry_equiv_pos_as_xyz
 x,y,z
_cell_length_a 36.4130
_cell_length_b 37.1720
_cell_length_c 36.8484
_cell_angle_alpha 91.314700
_cell_angle_beta 90.143600
_cell_angle_gamma 81.466200
loop_
  _atom_site_label
  _atom_site_type_symbol
  _atom_site_fract_x
  _atom_site_fract_y
  _atom_site_fract_z
C1 C 0.27752 0.25328 0.21922
 C2 C 0.30412 0.24945 0.19129
 C3 C 0.33282 0.21952 0.19008
 C4 C 0.33491 0.19355 0.21748
 C5 C 0.30875 0.19706 0.24563
 C6 C 0.27995 0.22698 0.24653
 C7 C 0.24865 0.28302 0.22052
 C8 C 0.22263 0.28699 0.24906
 C9 C 0.22518 0.26039 0.27582
 C10 C 0.25360 0.23059 0.27480
 C11 C 0.25606 0.20439 0.30178
 C12 C 0.28480 0.17465 0.30130
 C13 C 0.31103 0.17112 0.27298
 H14 H 0.30240 0.26964 0.17034
 H15 H 0.35743 0.17096 0.21749
 H16 H 0.24676 0.30336 0.19972
 H17 H 0.20469 0.26259 0.29735
 H18 H 0.23574 0.20742 0.32352
 H19 H 0.33281 0.14787 0.27170
 C20 C 0.72335 -0.26467 0.21064
 C21 C 0.69361 -0.25962 0.18603
 C22 C 0.66528 -0.22933 0.18934
 C23 C 0.66717 -0.20455 0.21866
 C24 C 0.69616 -0.20990 0.24395
 C25 C 0.72444 -0.23995 0.23994
 C26 C 0.75188 -0.29424 0.20629
 C27 C 0.78181 -0.29992 0.23107
 C28 C 0.78172 -0.27545 0.26106
 C29 C 0.75360 -0.24542 0.26541
 C30 C 0.75411 -0.22072 0.29486
 C31 C 0.72557 -0.19100 0.29930
 C32 C 0.69696 -0.18566 0.27346
 H33 H 0.69314 -0.27907 0.16370
 H34 H 0.64534 -0.18186 0.22335
 H35 H 0.74956 -0.31326 0.18408
 H36 H 0.80407 -0.27908 0.28074
 H37 H 0.77639 -0.22485 0.31459
 H38 H 0.67543 -0.16225 0.27601
 C39 C 0.77853 0.28233 0.77154
 C40 C 0.75429 0.28316 0.80124
 C41 C 0.73103 0.25616 0.80518
 C42 C 0.73347 0.22777 0.77872
 C43 C 0.75717 0.22696 0.74865
 C44 C 0.77977 0.25436 0.74505
 C45 C 0.80158 0.30920 0.76805
 C46 C 0.82556 0.30926 0.73791
 C47 C 0.82622 0.28093 0.71152
 C48 C 0.80374 0.25365 0.71501
 C49 C 0.80505 0.22552 0.68881
 C50 C 0.78254 0.19815 0.69211
 C51 C 0.75848 0.19920 0.72198
 H52 H 0.75485 0.30445 0.82159
 H53 H 0.71615 0.20657 0.78080
 H54 H 0.80018 0.33051 0.78880
 H55 H 0.84501 0.27874 0.68869
 H56 H 0.82310 0.22534 0.66545
 H57 H 0.74105 0.17815 0.72463
 C58 C 0.21544 -0.27755 0.76906
 C59 C 0.23972 -0.27862 0.79873
 C60 C 0.26549 -0.25404 0.80179
 C61 C 0.26609 -0.22764 0.77519
 C62 C 0.24200 -0.22632 0.74535
 C63 C 0.21671 -0.25154 0.74213
 C64 C 0.19004 -0.30229 0.76594
 C65 C 0.16612 -0.30238 0.73568
 C66 C 0.16783 -0.27608 0.70882
 C67 C 0.19265 -0.25065 0.71205
 C68 C 0.19361 -0.22415 0.68569
 C69 C 0.21842 -0.19862 0.68897
 C70 C 0.24282 -0.20020 0.71866
 H71 H 0.23829 -0.29843 0.81960
 H72 H 0.28579 -0.20851 0.77741
 H73 H 0.18969 -0.32211 0.78703
 H74 H 0.14914 -0.27401 0.68590
 H75 H 0.17537 -0.22376 0.66239
 H76 H 0.26208 -0.18067 0.72130
 C77 C 0.71778 -0.24681 0.78972
 C78 C 0.68775 -0.24227 0.81383
 C79 C 0.65801 -0.21402 0.80963
 C80 C 0.65874 -0.18976 0.78099
 C81 C 0.68855 -0.19426 0.75631
 C82 C 0.71808 -0.22308 0.76057
 C83 C 0.74716 -0.27519 0.79421
 C84 C 0.77711 -0.28103 0.76950
 C85 C 0.77659 -0.25757 0.73977
 C86 C 0.74767 -0.22841 0.73550
 C87 C 0.74777 -0.20459 0.70648
 C88 C 0.71850 -0.17575 0.70197
 C89 C 0.68909 -0.17071 0.72721
 H90 H 0.68752 -0.26085 0.83607
 H91 H 0.63569 -0.16814 0.77722
 H92 H 0.74525 -0.29360 0.81618
 H93 H 0.79914 -0.26138 0.72024
 H94 H 0.77047 -0.20871 0.68714
 H95 H 0.66678 -0.14815 0.72463
 C96 C 0.27677 0.28220 0.77141
 C97 C 0.30450 0.28420 0.79754
 C98 C 0.33577 0.25700 0.79904
 C99 C 0.33874 0.22733 0.77421
 C100 C 0.31129 0.22498 0.74778
 C101 C 0.28025 0.25259 0.74636
 C102 C 0.24550 0.30927 0.77002
 C103 C 0.21801 0.30745 0.74348
 C104 C 0.22164 0.27780 0.71875
 C105 C 0.25245 0.25042 0.72009
 C106 C 0.25567 0.22082 0.69559
 C107 C 0.28638 0.19308 0.69664
 C108 C 0.31419 0.19536 0.72294
 H109 H 0.30124 0.30660 0.81715
 H110 H 0.36262 0.20615 0.77530
 H111 H 0.24277 0.33205 0.78922
 H112 H 0.20011 0.27564 0.69880
 H113 H 0.23416 0.21951 0.67540
 H114 H 0.33766 0.17387 0.72467
 C115 C 0.22178 -0.28743 0.23367
 C116 C 0.24621 -0.28873 0.20411
 C117 C 0.27096 -0.26302 0.20100
 C118 C 0.26988 -0.23541 0.22816
 C119 C 0.24595 -0.23419 0.25807
 C120 C 0.22188 -0.26036 0.26092
 C121 C 0.19716 -0.31290 0.23616
 C122 C 0.17299 -0.31268 0.26614
 C123 C 0.17376 -0.28545 0.29350
 C124 C 0.19772 -0.25929 0.29088
 C125 C 0.19767 -0.23184 0.31771
 C126 C 0.22153 -0.20551 0.31500
 C127 C 0.24579 -0.20710 0.28523
 H128 H 0.24459 -0.30927 0.18319
 H129 H 0.28834 -0.21514 0.22667
 H130 H 0.19755 -0.33349 0.21479
 H131 H 0.15488 -0.28319 0.31628
 H132 H 0.17944 -0.23135 0.34097
 H133 H 0.26424 -0.18689 0.28296
 C134 C 0.77749 0.27865 0.23307
 C135 C 0.75114 0.28066 0.20501
 C136 C 0.72554 0.25580 0.20268
 C137 C 0.72700 0.22841 0.22861
 C138 C 0.75315 0.22610 0.25684
 C139 C 0.77839 0.25143 0.25915
 C140 C 0.80299 0.30346 0.23529
 C141 C 0.82917 0.30234 0.26381
 C142 C 0.82959 0.27478 0.28974
 C143 C 0.80468 0.24938 0.28742
 C144 C 0.80592 0.22174 0.31291
 C145 C 0.78119 0.19605 0.31061
 C146 C 0.75458 0.19874 0.28269
 H147 H 0.75109 0.30123 0.18466
 H148 H 0.70753 0.20902 0.22698
 H149 H 0.80174 0.32419 0.21492
 H150 H 0.85001 0.27167 0.31118
 H151 H 0.82584 0.22063 0.33489
 H152 H 0.73532 0.17916 0.28076
 O153 O 0.22525 0.03288 0.46852
 O154 O 0.22604 -0.03561 0.53872
 O155 O 0.22603 0.03439 0.53919
 O156 O 0.22628 -0.03723 0.46862
 O157 O 0.28760 -0.04549 0.46826
 O158 O 0.28732 0.02629 0.53908
 O159 O 0.28736 -0.04392 0.53896
 O160 O 0.28655 0.02465 0.46803
 Cu161 Cu 0.21977 -0.00043 0.50381
 Cu162 Cu 0.29340 -0.01038 0.50360
 C163 C 0.25565 0.04033 0.45608
 C164 C 0.25672 -0.05163 0.55067
 C165 C 0.25653 0.04254 0.55127
 C166 C 0.25700 -0.05370 0.45649
 O167 O 0.78415 0.03315 0.53400
 O168 O 0.78791 -0.03916 0.46355
 O169 O 0.78422 0.03167 0.46334
 O170 O 0.78613 -0.03712 0.53442
 O171 O 0.72485 -0.03026 0.53362
 O172 O 0.72298 0.03804 0.46278
 O173 O 0.72665 -0.03258 0.46313
 O174 O 0.72288 0.03972 0.53359
 Cu175 Cu 0.79176 -0.00356 0.49881
 Cu176 Cu 0.71822 0.00441 0.49811
 C177 C 0.75296 0.04863 0.54595
 C178 C 0.75788 -0.04829 0.45141
 C179 C 0.75318 0.04669 0.45106
 C180 C 0.75568 -0.04522 0.54626
 O181 O 0.50142 0.20501 0.03325
 O182 O 0.57607 0.19851 -0.03562
 O183 O 0.57375 0.19946 0.03550
 O184 O 0.50475 0.19971 -0.03711
 O185 O 0.49848 0.25963 -0.03878
 O186 O 0.56780 0.25940 0.03512
 O187 O 0.57033 0.25847 -0.03567
 O188 O 0.49556 0.26492 0.03181
 Cu189 Cu 0.53973 0.19471 -0.00078
 Cu190 Cu 0.53249 0.26658 -0.00198
 C191 C 0.48558 0.23623 0.04403
 C192 C 0.58568 0.22760 -0.04752
 C193 C 0.58254 0.22914 0.04790
 C194 C 0.48981 0.22950 -0.05044
 O195 O 0.49519 0.78868 0.03684
 O196 O 0.41951 0.79746 -0.03047
 O197 O 0.42319 0.79509 0.04051
 O198 O 0.49144 0.79230 -0.03349
 O199 O 0.49544 0.73245 -0.03682
 O200 O 0.42695 0.73529 0.03664
 O201 O 0.42371 0.73760 -0.03383
 O202 O 0.49927 0.72884 0.03293
 Cu203 Cu 0.45678 0.79944 0.00376
 Cu204 Cu 0.46159 0.72755 -0.00055
 C205 C 0.51041 0.75721 0.04600
 C206 C 0.40901 0.76888 -0.04389
 C207 C 0.41354 0.76565 0.05126
 C208 C 0.50529 0.76182 -0.04757
 O209 O 0.03888 0.45781 0.20087
 O210 O -0.03937 0.53287 0.21095
 O211 O 0.03263 0.52829 0.20575
 O212 O -0.03332 0.46236 0.20556
 O213 O -0.02823 0.45851 0.26510
 O214 O 0.03629 0.52627 0.26552
 O215 O -0.03493 0.52956 0.27059
 O216 O 0.04380 0.45559 0.26053
 Cu217 Cu -0.00078 0.49559 0.19981
 Cu218 Cu 0.00463 0.49202 0.27141
 C219 C 0.05493 0.44417 0.22912
 C220 C -0.05032 0.54413 0.24249
 C221 C 0.04554 0.53871 0.23561
 C222 C -0.04202 0.44913 0.23525
 O223 O 0.02292 0.54304 0.79221
 O224 O -0.04335 0.47778 0.79232
 O225 O 0.02897 0.47308 0.79541
 O226 O -0.04879 0.54818 0.78654
 O227 O -0.04485 0.54266 0.72683
 O228 O 0.03303 0.46852 0.73566
 O229 O -0.03904 0.47179 0.73268
 O230 O 0.02633 0.53890 0.73238
 Cu231 Cu -0.01065 0.51095 0.79760
 Cu232 Cu -0.00587 0.50478 0.72587
 C233 C 0.03589 0.55220 0.76243
 C234 C -0.05238 0.46343 0.76267
 C235 C 0.04465 0.45843 0.76684
 C236 C -0.05967 0.55854 0.75515
 C237 C 0.39920 0.24480 0.12183
 C238 C 0.41652 0.21063 0.10902
 N239 N 0.40558 0.18004 0.12197
 C240 C 0.37842 0.18199 0.14751
 C241 C 0.36135 0.21620 0.16099
 N242 N 0.37212 0.24680 0.14739
 N243 N 0.41011 0.27541 0.10890
 C244 C 0.43768 0.27345 0.08379
 C245 C 0.45533 0.23925 0.07100
 N246 N 0.44412 0.20861 0.08398
 H247 H 0.37013 0.15704 0.15692
 H248 H 0.44578 0.29838 0.07406
 C249 C 0.60030 0.74790 0.11954
 C250 C 0.57702 0.78111 0.11550
 N251 N 0.58341 0.81057 0.13552
 C252 C 0.61180 0.80837 0.15978
 C253 C 0.63551 0.77493 0.16422
 N254 N 0.62894 0.74573 0.14336
 N255 N 0.59365 0.71822 0.09990
 C256 C 0.56468 0.72030 0.07631
 C257 C 0.54149 0.75371 0.07187
 N258 N 0.54839 0.78339 0.09162
 H259 H 0.61614 0.83300 0.17416
 H260 H 0.56010 0.69622 0.06091
 C261 C 0.66588 0.22554 -0.13066
 C262 C 0.65489 0.25706 -0.10957
 N263 N 0.66946 0.28769 -0.11645
 C264 C 0.69467 0.28838 -0.14348
 C265 C 0.70576 0.25685 -0.16541
 N266 N 0.69059 0.22629 -0.15807
 N267 N 0.65149 0.19474 -0.12354
 C268 C 0.62631 0.19420 -0.09637
 C269 C 0.61457 0.22609 -0.07568
 N270 N 0.62933 0.25676 -0.08289
 H271 H 0.70429 0.31393 -0.14830
 H272 H 0.61505 0.16939 -0.09151
 C273 C 0.32804 0.77470 -0.12670
 C274 C 0.34301 0.74127 -0.11191
 N275 N 0.33222 0.71012 -0.12504
 C276 C 0.30704 0.71079 -0.15238
 C277 C 0.29199 0.74423 -0.16752
 N278 N 0.30309 0.77541 -0.15420
 N279 N 0.33902 0.80584 -0.11360
 C280 C 0.36453 0.80504 -0.08646
 C281 C 0.37996 0.77149 -0.07192
 N282 N 0.36862 0.74042 -0.08507
 H283 H 0.29965 0.68536 -0.16271
 H284 H 0.37299 0.83024 -0.07673
 C285 C 0.14663 0.35974 0.22135
 C286 C 0.13398 0.37485 0.25511
 N287 N 0.15112 0.36211 0.28592
 C288 C 0.18008 0.33450 0.28464
 C289 C 0.19250 0.31858 0.25095
 N290 N 0.17557 0.33201 0.21999
 N291 N 0.12933 0.37266 0.19057
 C292 C 0.09985 0.39991 0.19204
 C293 C 0.08693 0.41488 0.22591
 N294 N 0.10456 0.40190 0.25660
 H295 H 0.19331 0.32521 0.30975
 H296 H 0.08658 0.40961 0.16708
 C297 C 0.11102 0.62847 0.76394
 C298 C 0.09251 0.62103 0.73192
 N299 N 0.09850 0.63897 0.70136
 C300 C 0.12201 0.66423 0.70133
 C301 C 0.14101 0.67190 0.73354
 N302 N 0.13476 0.65326 0.76386
 N303 N 0.10476 0.61108 0.79476
 C304 C 0.08067 0.58647 0.79501
 C305 C 0.06223 0.57861 0.76285
 N306 N 0.06874 0.59611 0.73195
 H307 H 0.12636 0.67688 0.67596
 H308 H 0.07620 0.57301 0.82001
 C309 C -0.13805 0.63210 0.25302
 C310 C -0.13119 0.61307 0.21990
 N311 N -0.15298 0.62301 0.19090
 C312 C -0.18160 0.65096 0.19344
 C313 C -0.18888 0.67052 0.22675
 N314 N -0.16627 0.66035 0.25554
 N315 N -0.11654 0.62189 0.28223
 C316 C -0.08838 0.59345 0.27976
 C317 C -0.08109 0.57455 0.24640
 N318 N -0.10279 0.58500 0.21722
 H319 H -0.19717 0.65826 0.16908
 H320 H -0.07162 0.58599 0.30347
 C321 C -0.12503 0.38468 0.76480
 C322 C -0.10571 0.39017 0.73308
 N323 N -0.10979 0.36937 0.70308
 C324 C -0.13197 0.34297 0.70334
 C325 C -0.15139 0.33681 0.73538
 N326 N -0.14732 0.35852 0.76509
 N327 N -0.12078 0.40518 0.79502
 C328 C -0.09784 0.43088 0.79499
 C329 C -0.07828 0.43650 0.76321
 N330 N -0.08290 0.41597 0.73289
 H331 H -0.13475 0.32806 0.67829
 H332 H -0.09490 0.44671 0.81957
 C333 C 0.25396 0.11695 0.37289
 C334 C 0.28763 0.09752 0.38478
 N335 N 0.31993 0.10334 0.36923
 C336 C 0.32008 0.12768 0.34221
 C337 C 0.28631 0.14725 0.33013
 N338 N 0.25410 0.14129 0.34608
 N339 N 0.22162 0.11122 0.38832
 C340 C 0.22137 0.08682 0.41518
 C341 C 0.25506 0.06725 0.42730
 N342 N 0.28747 0.07318 0.41170
 H343 H 0.34638 0.13214 0.33093
 H344 H 0.19511 0.08281 0.42693
 C345 C 0.75105 0.13024 0.62807
 C346 C 0.78441 0.11523 0.61102
 N347 N 0.81653 0.12715 0.62086
 C348 C 0.81682 0.15363 0.64688
 C349 C 0.78342 0.16891 0.66403
 N350 N 0.75132 0.15653 0.65422
 N351 N 0.71888 0.11850 0.61797
 C352 C 0.71854 0.09239 0.59154
 C353 C 0.75197 0.07716 0.57447
 N354 N 0.78414 0.08904 0.58480
 H355 H 0.84294 0.16230 0.65437
 H356 H 0.69248 0.08355 0.58408
 C357 C 0.25408 -0.13286 0.62856
 C358 C 0.22154 -0.11688 0.61129
 N359 N 0.18866 -0.12780 0.61942
 C360 C 0.18679 -0.15415 0.64402
 C361 C 0.21934 -0.17034 0.66148
 N362 N 0.25223 -0.15901 0.65330
 N363 N 0.28700 -0.12203 0.62022
 C364 C 0.28886 -0.09590 0.59531
 C365 C 0.25624 -0.07972 0.57806
 N366 N 0.22334 -0.09071 0.58662
 H367 H 0.16004 -0.16179 0.65034
 H368 H 0.31547 -0.08784 0.58913
 C369 C 0.75926 -0.13037 0.36978
 C370 C 0.72579 -0.11360 0.38546
 N371 N 0.69321 -0.12333 0.37393
 C372 C 0.69244 -0.14871 0.34695
 C373 C 0.72582 -0.16505 0.33040
 N374 N 0.75856 -0.15567 0.34265
 N375 N 0.79183 -0.12050 0.38142
 C376 C 0.79241 -0.09444 0.40790
 C377 C 0.75883 -0.07728 0.42335
 N378 N 0.72634 -0.08753 0.41171
 H379 H 0.66597 -0.15604 0.33859
 H380 H 0.81877 -0.08702 0.41653
 C381 C 0.58873 0.75788 -0.12752
 C382 C 0.56938 0.79136 -0.11523
 N383 N 0.57840 0.82271 -0.12852
 C384 C 0.60612 0.82208 -0.15338
 C385 C 0.62606 0.78851 -0.16522
 N386 N 0.61657 0.75728 -0.15190
 N387 N 0.57988 0.72648 -0.11442
 C388 C 0.55264 0.72697 -0.08924
 C389 C 0.53356 0.76046 -0.07624
 N390 N 0.54239 0.79194 -0.08974
 H391 H 0.61315 0.84751 -0.16293
 H392 H 0.54640 0.70145 -0.07910
 C393 C 0.40958 0.22720 -0.13345
 C394 C 0.41815 0.26045 -0.11962
 N395 N 0.40019 0.29204 -0.13287
 C396 C 0.37382 0.29193 -0.15910
 C397 C 0.36481 0.25860 -0.17282
 N398 N 0.38332 0.22705 -0.15962
 N399 N 0.42741 0.19556 -0.12028
 C400 C 0.45340 0.19560 -0.09376
 C401 C 0.46207 0.22885 -0.07964
 N402 N 0.44416 0.26058 -0.09310
 H403 H 0.36048 0.31762 -0.16938
 H404 H 0.46706 0.16987 -0.08379
 C405 C 0.33702 0.76662 0.13741
 C406 C 0.34611 0.73571 0.11495
 N407 N 0.33028 0.70564 0.12103
 C408 C 0.30551 0.70500 0.14847
 C409 C 0.29614 0.73600 0.17155
 N410 N 0.31270 0.76590 0.16511
 N411 N 0.35255 0.79690 0.13113
 C412 C 0.37695 0.79760 0.10334
 C413 C 0.38656 0.76641 0.08103
 N414 N 0.37081 0.73616 0.08751
 H415 H 0.29477 0.67987 0.15258
 H416 H 0.38901 0.82207 0.09903
 C417 C 0.66128 0.22647 0.13293
 C418 C 0.64624 0.25957 0.11749
 N419 N 0.65709 0.29093 0.13010
 C420 C 0.68245 0.29071 0.15733
 C421 C 0.69780 0.25751 0.17285
 N422 N 0.68648 0.22622 0.16016
 N423 N 0.65052 0.19506 0.12042
 C424 C 0.62536 0.19519 0.09310
 C425 C 0.61006 0.22831 0.07750
 N426 N 0.62097 0.25980 0.09022
 H427 H 0.68996 0.31629 0.16709
 H428 H 0.61735 0.16965 0.08376
 C429 C -0.14450 0.64869 0.74615
 C430 C -0.13729 0.63130 0.77930
 N431 N -0.15780 0.64351 0.80888
 C432 C -0.18567 0.67206 0.80684
 C433 C -0.19354 0.68973 0.77344
 N434 N -0.17202 0.67751 0.74410
 N435 N -0.12425 0.63614 0.71640
 C436 C -0.09706 0.60692 0.71835
 C437 C -0.08952 0.58960 0.75170
 N438 N -0.10988 0.60242 0.78143
 H439 H -0.20030 0.68127 0.83157
 H440 H -0.08126 0.59758 0.69422
 C441 C -0.11765 0.37305 0.23493
 C442 C -0.09660 0.37853 0.26586
 N443 N -0.10042 0.35901 0.29587
 C444 C -0.12412 0.33396 0.29640
 C445 C -0.14559 0.32806 0.26526
 N446 N -0.14158 0.34837 0.23549
 N447 N -0.11365 0.39225 0.20469
 C448 C -0.08943 0.41677 0.20399
 C449 C -0.06839 0.42261 0.23508
 N450 N -0.07263 0.40327 0.26538
 H451 H -0.12662 0.32006 0.32144
 H452 H -0.08686 0.43170 0.17947
 C453 C 0.13913 0.37754 0.77246
 C454 C 0.12348 0.38869 0.73898
 N455 N 0.13907 0.37370 0.70774
 C456 C 0.16953 0.34777 0.70839
 C457 C 0.18528 0.33620 0.74188
 N458 N 0.16969 0.35169 0.77317
 N459 N 0.12337 0.39263 0.80368
 C460 C 0.09268 0.41845 0.80291
 C461 C 0.07706 0.42978 0.76934
 N462 N 0.09302 0.41449 0.73820
 H463 H 0.18155 0.33664 0.68297
 H464 H 0.08082 0.43013 0.82819
 C465 C 0.11930 0.61636 0.23589
 C466 C 0.10092 0.60932 0.26768
 N467 N 0.10656 0.62804 0.29871
 C468 C 0.12959 0.65374 0.29944
 C469 C 0.14847 0.66105 0.26749
 N470 N 0.14262 0.64159 0.23666
 N471 N 0.11331 0.59814 0.20461
 C472 C 0.08963 0.57310 0.20371
 C473 C 0.07136 0.56564 0.23565
 N474 N 0.07760 0.58398 0.26698
 H475 H 0.13369 0.66703 0.32515
 H476 H 0.08537 0.55899 0.17838
 C477 C 0.75400 -0.12029 0.63063
 C478 C 0.72099 -0.10335 0.61490
 N479 N 0.68789 -0.11071 0.62719
 C480 C 0.68619 -0.13400 0.65482
 C481 C 0.71919 -0.15073 0.67120
 N482 N 0.75238 -0.14354 0.65830
 N483 N 0.78712 -0.11288 0.61824
 C484 C 0.78869 -0.08914 0.59089
 C485 C 0.75559 -0.07191 0.57523
 N486 N 0.72253 -0.07964 0.58771
 H487 H 0.65932 -0.13965 0.66349
 H488 H 0.81546 -0.08364 0.58168
 C489 C 0.25563 -0.13735 0.37700
 C490 C 0.22292 -0.12165 0.39473
 N491 N 0.19039 -0.13358 0.38642
 C492 C 0.18906 -0.16064 0.36119
 C493 C 0.22179 -0.17648 0.34321
 N494 N 0.25430 -0.16416 0.35162
 N495 N 0.28821 -0.12557 0.38548
 C496 C 0.28958 -0.09875 0.41097
 C497 C 0.25680 -0.08277 0.42868
 N498 N 0.22420 -0.09471 0.41999
 H499 H 0.16258 -0.16911 0.35478
 H500 H 0.31596 -0.08993 0.41719
 C501 C 0.75067 0.12797 0.37208
 C502 C 0.78430 0.11259 0.38786
 N503 N 0.81632 0.12430 0.37801
 C504 C 0.81627 0.15091 0.35326
 C505 C 0.78255 0.16672 0.33751
 N506 N 0.75057 0.15448 0.34730
 N507 N 0.71861 0.11638 0.38202
 C508 C 0.71861 0.09015 0.40717
 C509 C 0.75225 0.07467 0.42316
 N510 N 0.78436 0.08634 0.41293
 H511 H 0.84239 0.15917 0.34566
 H512 H 0.69256 0.08156 0.41460
 C513 C 0.25542 0.12566 0.63174
 C514 C 0.28912 0.10636 0.61909
 N515 N 0.32158 0.11499 0.63245
 C516 C 0.32188 0.14217 0.65785
 C517 C 0.28806 0.16187 0.67044
 N518 N 0.25572 0.15282 0.65685
 N519 N 0.22290 0.11734 0.61839
 C520 C 0.22248 0.09058 0.59272
 C521 C 0.25618 0.07126 0.57961
 N522 N 0.28879 0.07966 0.59328
 H523 H 0.34826 0.14884 0.66725
 H524 H 0.19607 0.08465 0.58254
   
