data_POSCAR
  _audit_creation_date              2014-09-24
  _audit_creation_method            'ToBaCCo'
  _symmetry_space_group_name_H-M    'P1'
  _symmetry_Int_Tables_number       1
  _symmetry_cell_setting            triclinic
  loop_
  _symmetry_equiv_pos_as_xyz
 x,y,z
_cell_length_a 38.3314
_cell_length_b 38.2655
_cell_length_c 38.7990
_cell_angle_alpha 89.845100
_cell_angle_beta 90.038400
_cell_angle_gamma 89.977700
loop_
  _atom_site_label
  _atom_site_type_symbol
  _atom_site_fract_x
  _atom_site_fract_y
  _atom_site_fract_z
C1 C 1.27492 0.21308 0.27084
 C2 C 1.25113 0.23134 0.25013
 C3 C 1.22736 0.21294 0.22964
 C4 C 1.22741 0.17635 0.22969
 C5 C 1.25113 0.15804 0.25056
 C6 C 1.27488 0.17645 0.27124
 C7 C 1.25110 0.26972 0.24991
 C8 C 1.27484 0.28800 0.22922
 C9 C 1.27475 0.32463 0.22882
 C10 C 1.25099 0.34303 0.24949
 C11 C 1.22731 0.32469 0.27034
 C12 C 1.22732 0.28810 0.27038
 H13 H 1.29319 0.22746 0.28679
 H14 H 1.20906 0.22714 0.21350
 H15 H 1.29312 0.27364 0.21327
 H16 H 1.20905 0.27389 0.28651
 H17 H 1.25105 0.12969 0.25067
 H18 H 1.25087 0.37138 0.24939
 C19 C 0.77372 -0.28822 0.27081
 C20 C 0.74975 -0.26990 0.25037
 C21 C 0.72588 -0.28823 0.22994
 C22 C 0.72602 -0.32482 0.22978
 C23 C 0.74991 -0.34320 0.25040
 C24 C 0.77375 -0.32484 0.27102
 C25 C 0.74969 -0.23154 0.25031
 C26 C 0.77361 -0.21317 0.22991
 C27 C 0.77354 -0.17658 0.22972
 C28 C 0.74968 -0.15826 0.25028
 C29 C 0.72583 -0.17667 0.27086
 C30 C 0.72577 -0.21326 0.27071
 H31 H 0.79206 -0.27389 0.28672
 H32 H 0.70746 -0.27399 0.21398
 H33 H 0.79203 -0.22737 0.21400
 H34 H 0.70738 -0.22752 0.28664
 H35 H 0.74991 -0.37155 0.25034
 H36 H 0.74968 -0.12992 0.25027
 C37 C 0.77454 0.21364 -0.23027
 C38 C 0.75049 0.23192 -0.25066
 C39 C 0.72646 0.21354 -0.27087
 C40 C 0.72657 0.17695 -0.27088
 C41 C 0.75055 0.15864 -0.25031
 C42 C 0.77450 0.17705 -0.22992
 C43 C 0.75046 0.27028 -0.25084
 C44 C 0.77444 0.28858 -0.27125
 C45 C 0.77435 0.32520 -0.27161
 C46 C 0.75040 0.34358 -0.25115
 C47 C 0.72651 0.32523 -0.23057
 C48 C 0.72646 0.28864 -0.23060
 H49 H 0.79302 0.22791 -0.21449
 H50 H 0.70796 0.22773 -0.28678
 H51 H 0.79287 0.27422 -0.28703
 H52 H 0.70803 0.27442 -0.21467
 H53 H 0.75057 0.13030 -0.25018
 H54 H 0.75031 0.37193 -0.25120
 C55 C 1.27406 -0.28832 -0.22938
 C56 C 1.24989 -0.26998 -0.24955
 C57 C 1.22577 -0.28825 -0.26972
 C58 C 1.22590 -0.32482 -0.26992
 C59 C 1.24997 -0.34325 -0.24957
 C60 C 1.27402 -0.32492 -0.22919
 C61 C 1.24986 -0.23165 -0.24958
 C62 C 1.27399 -0.21329 -0.26975
 C63 C 1.27390 -0.17672 -0.26995
 C64 C 1.24987 -0.15839 -0.24962
 C65 C 1.22584 -0.17679 -0.22927
 C66 C 1.22574 -0.21336 -0.22943
 H67 H 1.29258 -0.27402 -0.21365
 H68 H 1.20720 -0.27398 -0.28549
 H69 H 1.29254 -0.22750 -0.28550
 H70 H 1.20720 -0.22762 -0.21366
 H71 H 1.24994 -0.37160 -0.24964
 H72 H 1.24987 -0.13005 -0.24963
 C73 C 0.21281 0.27362 0.73058
 C74 C 0.23115 0.24980 0.75120
 C75 C 0.21290 0.22591 0.77179
 C76 C 0.17634 0.22588 0.77191
 C77 C 0.15798 0.24967 0.75109
 C78 C 0.17629 0.27350 0.73035
 C79 C 0.26945 0.24989 0.75124
 C80 C 0.28767 0.27376 0.77178
 C81 C 0.32423 0.27384 0.77194
 C82 C 0.34263 0.25013 0.75121
 C83 C 0.32434 0.22632 0.73053
 C84 C 0.28782 0.22615 0.73071
 H85 H 0.22700 0.29200 0.71453
 H86 H 0.22724 0.20760 0.78785
 H87 H 0.27331 0.29201 0.78776
 H88 H 0.27365 0.20780 0.71469
 H89 H 0.12968 0.24969 0.75098
 H90 H 0.37093 0.25016 0.75113
 C91 C 0.71182 0.77402 0.72960
 C92 C 0.73013 0.75018 0.75024
 C93 C 0.71186 0.72637 0.77090
 C94 C 0.67530 0.72644 0.77111
 C95 C 0.65694 0.75024 0.75029
 C96 C 0.67526 0.77401 0.72945
 C97 C 0.76844 0.75014 0.75019
 C98 C 0.78680 0.77388 0.77074
 C99 C 0.82334 0.77381 0.77083
 C100 C 0.84160 0.75009 0.75005
 C101 C 0.82321 0.72639 0.72933
 C102 C 0.78668 0.72636 0.72956
 H103 H 0.72611 0.79231 0.71352
 H104 H 0.72618 0.70806 0.78695
 H105 H 0.77264 0.79218 0.78681
 H106 H 0.77242 0.70810 0.71354
 H107 H 0.62862 0.75026 0.75031
 H108 H 0.86989 0.75007 0.74999
 C109 C 0.71309 0.27385 0.22947
 C110 C 0.73133 0.24970 0.24979
 C111 C 0.71301 0.22556 0.27000
 C112 C 0.67649 0.22567 0.27009
 C113 C 0.65820 0.24974 0.24959
 C114 C 0.67658 0.27378 0.22920
 C115 C 0.76960 0.24972 0.24991
 C116 C 0.78780 0.27387 0.27013
 C117 C 0.82431 0.27384 0.27039
 C118 C 0.84274 0.24985 0.25009
 C119 C 0.82449 0.22579 0.22970
 C120 C 0.78797 0.22563 0.22979
 H121 H 0.72733 0.29241 0.21368
 H122 H 0.72718 0.20699 0.28588
 H123 H 0.77352 0.29239 0.28584
 H124 H 0.77383 0.20707 0.21399
 H125 H 0.62991 0.24976 0.24953
 H126 H 0.87102 0.24990 0.25015
 C127 C 0.21202 0.77380 0.22967
 C128 C 0.23032 0.74988 0.25021
 C129 C 0.21205 0.72600 0.27079
 C130 C 0.17549 0.72609 0.27101
 C131 C 0.15714 0.74997 0.25028
 C132 C 0.17546 0.77380 0.22952
 C133 C 0.26861 0.74985 0.25017
 C134 C 0.28696 0.77370 0.27062
 C135 C 0.32349 0.77363 0.27072
 C136 C 0.34177 0.74983 0.25004
 C137 C 0.32339 0.72604 0.22944
 C138 C 0.28687 0.72598 0.22967
 H139 H 0.22631 0.79215 0.21365
 H140 H 0.22637 0.70763 0.28678
 H141 H 0.27279 0.79206 0.28660
 H142 H 0.27262 0.70764 0.21372
 H143 H 0.12882 0.75000 0.25030
 H144 H 0.37006 0.74983 0.24999
 O145 O 1.06024 0.01788 0.04316
 O146 O 0.94083 -0.01818 0.04291
 O147 O 0.98262 0.05960 0.04286
 O148 O 1.01855 -0.05999 0.04319
 O149 O 0.93425 0.04055 0.02394
 O150 O 1.06698 -0.04085 0.02445
 O151 O 0.95994 -0.06666 0.02422
 O152 O 1.04125 0.06637 0.02413
 C153 C 1.05725 0.04964 0.04681
 C154 C 0.94389 -0.04993 0.04675
 C155 C 0.95094 0.05644 0.04661
 C156 C 1.05024 -0.05692 0.04703
 O157 O 1.06028 -0.01847 -0.04228
 O158 O 0.94114 0.01830 -0.04267
 O159 O 1.01904 0.05955 -0.04258
 O160 O 0.98232 -0.05983 -0.04241
 O161 O 0.93401 -0.04041 -0.02373
 O162 O 1.06731 0.04019 -0.02358
 O163 O 1.04088 -0.06684 -0.02338
 O164 O 0.96044 0.06664 -0.02385
 Co165 Co 1.05749 -0.00029 0.00042
 Co166 Co 0.94376 0.00005 0.00013
 Co167 Co 1.00082 0.05681 0.00015
 Co168 Co 1.00044 -0.05711 0.00039
 O169 O 1.00063 -0.00014 0.00028
 C170 C 1.05691 -0.05017 -0.04603
 C171 C 0.94438 0.05004 -0.04647
 C172 C 1.05073 0.05637 -0.04624
 C173 C 0.95064 -0.05659 -0.04624
 O174 O 1.05970 0.51835 0.54241
 O175 O 0.94046 0.48212 0.54260
 O176 O 0.98169 0.56003 0.54231
 O177 O 1.01841 0.44058 0.54257
 O178 O 0.93340 0.54082 0.52342
 O179 O 1.06668 0.45971 0.52353
 O180 O 0.95978 0.43368 0.52397
 O181 O 1.04030 0.56682 0.52362
 C182 C 1.05635 0.55005 0.54624
 C183 C 0.94368 0.45039 0.54649
 C184 C 0.95000 0.55691 0.54602
 C185 C 1.05011 0.44365 0.54623
 O186 O 1.05963 0.48223 0.45690
 O187 O 0.94026 0.51837 0.45693
 O188 O 1.01818 0.56007 0.45686
 O189 O 0.98182 0.44061 0.45716
 O190 O 0.93351 0.45969 0.47611
 O191 O 1.06653 0.54091 0.47583
 O192 O 1.04046 0.43374 0.47577
 O193 O 0.95954 0.56684 0.47550
 Co194 Co 1.05690 0.50030 0.49967
 Co195 Co 0.94313 0.50025 0.49976
 Co196 Co 0.99994 0.55724 0.49959
 Co197 Co 1.00011 0.44336 0.49985
 O198 O 1.00002 0.50029 0.49972
 C199 C 1.05654 0.45049 0.45317
 C200 C 0.94342 0.55010 0.45301
 C201 C 1.04988 0.55700 0.45318
 C202 C 0.95013 0.44376 0.45344
 O203 O 0.55939 0.01805 0.54318
 O204 O 0.44010 -0.01820 0.54295
 O205 O 0.48174 0.05966 0.54304
 O206 O 0.51780 -0.05994 0.54321
 O207 O 0.43336 0.04055 0.52419
 O208 O 0.56621 -0.04067 0.52452
 O209 O 0.45922 -0.06661 0.52412
 O210 O 0.54034 0.06652 0.52416
 C211 C 0.55633 0.04980 0.54684
 C212 C 0.44328 -0.04994 0.54675
 C213 C 0.45005 0.05656 0.54680
 C214 C 0.54949 -0.05684 0.54706
 O215 O 0.55949 -0.01834 0.45775
 O216 O 0.44026 0.01845 0.45745
 O217 O 0.51800 0.05973 0.45754
 O218 O 0.48164 -0.05969 0.45758
 O219 O 0.43329 -0.04029 0.47624
 O220 O 0.56631 0.04031 0.47643
 O221 O 0.54021 -0.06674 0.47665
 O222 O 0.45942 0.06678 0.47639
 Co223 Co 0.55665 -0.00015 0.50046
 Co224 Co 0.44295 0.00011 0.50022
 Co225 Co 0.49987 0.05694 0.50029
 Co226 Co 0.49973 -0.05702 0.50039
 O227 O 0.49980 -0.00003 0.50034
 C228 C 0.55630 -0.05007 0.45403
 C229 C 0.44336 0.05021 0.45374
 C230 C 0.54966 0.05637 0.45375
 C231 C 0.44997 -0.05642 0.45372
 O232 O 0.55940 0.51810 0.04207
 O233 O 0.44013 0.48179 0.04239
 O234 O 0.48127 0.55965 0.04221
 O235 O 0.51817 0.44031 0.04198
 O236 O 0.43296 0.54051 0.02328
 O237 O 0.56634 0.45955 0.02282
 O238 O 0.45949 0.43341 0.02364
 O239 O 0.53985 0.56662 0.02356
 C240 C 0.55607 0.54980 0.04603
 C241 C 0.44339 0.45005 0.04622
 C242 C 0.44958 0.55651 0.04592
 C243 C 0.54985 0.44352 0.04558
 O244 O 0.55915 0.48236 -0.04360
 O245 O 0.43976 0.51814 -0.04321
 O246 O 0.51770 0.56007 -0.04327
 O247 O 0.48125 0.44055 -0.04330
 O248 O 0.43297 0.45941 -0.02410
 O249 O 0.56608 0.54097 -0.02438
 O250 O 0.53996 0.43377 -0.02494
 O251 O 0.45909 0.56660 -0.02459
 Co252 Co 0.55650 0.50023 -0.00076
 Co253 Co 0.44270 0.49998 -0.00042
 Co254 Co 0.49949 0.55705 -0.00053
 Co255 Co 0.49971 0.44320 -0.00065
 O256 O 0.49960 0.50012 -0.00059
 C257 C 0.55598 0.45064 -0.04750
 C258 C 0.44303 0.54986 -0.04713
 C259 C 0.54940 0.55712 -0.04698
 C260 C 0.44952 0.44346 -0.04682
 C261 C 1.15947 0.12680 0.16396
 C262 C 1.12097 0.13652 0.16937
 C263 C 1.09890 0.12121 0.14631
 C264 C 1.11753 0.09771 0.12012
 C265 C 1.13831 0.07142 0.14198
 C266 C 1.16036 0.08672 0.16502
 C267 C 1.16720 0.13646 0.12632
 C268 C 1.14518 0.12119 0.10331
 C269 C 1.18346 0.14350 0.18838
 C270 C 1.20347 0.15796 0.20764
 C271 C 1.09432 0.08114 0.09490
 C272 C 1.07655 0.06710 0.07334
 H273 H 1.11184 0.15385 0.18956
 H274 H 1.07089 0.12542 0.14672
 H275 H 1.13587 0.04326 0.13961
 H276 H 1.17680 0.07168 0.18238
 H277 H 1.18814 0.15382 0.11842
 H278 H 1.14728 0.12548 0.07571
 C279 C 1.15779 0.62624 0.66432
 C280 C 1.16502 0.63704 0.62689
 C281 C 1.14306 0.62202 0.60368
 C282 C 1.11597 0.59765 0.62014
 C283 C 1.09718 0.62011 0.64708
 C284 C 1.11920 0.63517 0.67035
 C285 C 1.15938 0.58617 0.66435
 C286 C 1.13738 0.57113 0.64112
 C287 C 1.18175 0.64265 0.68888
 C288 C 1.20181 0.65693 0.70815
 C289 C 1.09289 0.58136 0.59472
 C290 C 1.07532 0.56745 0.57297
 H291 H 1.18560 0.65496 0.61927
 H292 H 1.14481 0.62709 0.57619
 H293 H 1.06911 0.62384 0.64784
 H294 H 1.10999 0.65180 0.69106
 H295 H 1.17622 0.57096 0.68117
 H296 H 1.13538 0.54301 0.63803
 C297 C 0.65841 0.12726 0.66379
 C298 C 0.66630 0.13658 0.62610
 C299 C 0.64429 0.12123 0.60315
 C300 C 0.61647 0.09802 0.62008
 C301 C 0.59787 0.12183 0.64601
 C302 C 0.61994 0.13722 0.66902
 C303 C 0.65911 0.08719 0.66518
 C304 C 0.63706 0.07181 0.64220
 C305 C 0.68242 0.14404 0.68811
 C306 C 0.70249 0.15854 0.70725
 C307 C 0.59328 0.08139 0.59491
 C308 C 0.57556 0.06729 0.57337
 H309 H 0.68735 0.15377 0.61812
 H310 H 0.64648 0.12528 0.57553
 H311 H 0.56989 0.12618 0.64631
 H312 H 0.61085 0.15477 0.68904
 H313 H 0.67542 0.07222 0.68271
 H314 H 0.63448 0.04365 0.64006
 C315 C 0.65804 0.62608 0.16384
 C316 C 0.61963 0.63632 0.16889
 C317 C 0.59757 0.62122 0.14569
 C318 C 0.61612 0.59739 0.11975
 C319 C 0.63636 0.57090 0.14188
 C320 C 0.65841 0.58599 0.16505
 C321 C 0.66623 0.63550 0.12624
 C322 C 0.64422 0.62044 0.10309
 C323 C 0.68203 0.64256 0.18838
 C324 C 0.70205 0.65689 0.20771
 C325 C 0.59294 0.58105 0.09438
 C326 C 0.57524 0.56715 0.07270
 H327 H 0.61056 0.65385 0.18894
 H328 H 0.56961 0.62580 0.14585
 H329 H 0.63357 0.54277 0.13958
 H330 H 0.67449 0.57080 0.18260
 H331 H 0.68747 0.65255 0.11846
 H332 H 0.64661 0.62460 0.07550
 C333 C 0.84165 -0.12707 0.16405
 C334 C 0.88012 -0.13695 0.16951
 C335 C 0.90222 -0.12165 0.14642
 C336 C 0.88364 -0.09800 0.12018
 C337 C 0.86298 -0.07170 0.14197
 C338 C 0.84090 -0.08699 0.16503
 C339 C 0.83385 -0.13659 0.12643
 C340 C 0.85589 -0.12132 0.10340
 C341 C 0.81763 -0.14375 0.18847
 C342 C 0.79757 -0.15820 0.20772
 C343 C 0.90686 -0.08145 0.09493
 C344 C 0.92462 -0.06740 0.07333
 H345 H 0.88919 -0.15439 0.18973
 H346 H 0.93021 -0.12597 0.14685
 H347 H 0.86553 -0.04355 0.13954
 H348 H 0.82454 -0.07195 0.18235
 H349 H 0.81284 -0.15385 0.11856
 H350 H 0.85377 -0.12552 0.07581
 C351 C 0.84130 0.37357 0.66388
 C352 C 0.83985 0.41364 0.66402
 C353 C 0.86199 0.42883 0.64095
 C354 C 0.88341 0.40245 0.61999
 C355 C 0.85632 0.37829 0.60332
 C356 C 0.83421 0.36313 0.62636
 C357 C 0.87986 0.36448 0.67006
 C358 C 0.90202 0.37968 0.64696
 C359 C 0.81721 0.35698 0.68830
 C360 C 0.79711 0.34255 0.70753
 C361 C 0.90670 0.41890 0.59473
 C362 C 0.92446 0.43290 0.57311
 H363 H 0.82298 0.42875 0.68080
 H364 H 0.86408 0.45697 0.63798
 H365 H 0.85466 0.37348 0.57580
 H366 H 0.81362 0.34534 0.61857
 H367 H 0.88894 0.34764 0.69076
 H368 H 0.93007 0.37587 0.64787
 C369 C 0.34194 -0.12721 0.66449
 C370 C 0.38042 -0.13713 0.66974
 C371 C 0.40240 -0.12180 0.64656
 C372 C 0.38367 -0.09811 0.62046
 C373 C 0.36315 -0.07183 0.64240
 C374 C 0.34120 -0.08714 0.66555
 C375 C 0.33391 -0.13667 0.62690
 C376 C 0.35583 -0.12138 0.60378
 C377 C 0.31803 -0.14390 0.68895
 C378 C 0.29799 -0.15835 0.70817
 C379 C 0.40671 -0.08154 0.59513
 C380 C 0.42427 -0.06746 0.57343
 H381 H 0.38960 -0.15460 0.68989
 H382 H 0.43039 -0.12613 0.64683
 H383 H 0.36571 -0.04367 0.64000
 H384 H 0.32495 -0.07212 0.68299
 H385 H 0.31285 -0.15391 0.61913
 H386 H 0.35355 -0.12554 0.57620
 C387 C 0.34134 0.37301 0.16386
 C388 C 0.37973 0.36255 0.16882
 C389 C 0.40180 0.37777 0.14565
 C390 C 0.38329 0.40193 0.11982
 C391 C 0.36321 0.42829 0.14207
 C392 C 0.34116 0.41308 0.16522
 C393 C 0.33302 0.36397 0.12623
 C394 C 0.35504 0.37916 0.10311
 C395 C 0.31735 0.35640 0.18840
 C396 C 0.29736 0.34197 0.20776
 C397 C 0.40649 0.41842 0.09448
 C398 C 0.42421 0.43248 0.07284
 H399 H 0.38877 0.34480 0.18879
 H400 H 0.42973 0.37306 0.14576
 H401 H 0.36612 0.45643 0.13988
 H402 H 0.32518 0.42818 0.18284
 H403 H 0.31169 0.34709 0.11841
 H404 H 0.35256 0.37526 0.07551
 C405 C 0.84264 0.12760 -0.16410
 C406 C 0.84183 0.08752 -0.16509
 C407 C 0.86384 0.07218 -0.14196
 C408 C 0.88450 0.09842 -0.12011
 C409 C 0.85676 0.12181 -0.10341
 C410 C 0.83479 0.13713 -0.12651
 C411 C 0.88114 0.13739 -0.16944
 C412 C 0.90317 0.12203 -0.14628
 C413 C 0.81866 0.14432 -0.18859
 C414 C 0.79859 0.15875 -0.20788
 C415 C 0.90763 0.08179 -0.09478
 C416 C 0.92528 0.06764 -0.07313
 H417 H 0.82548 0.07252 -0.18247
 H418 H 0.86634 0.04401 -0.13954
 H419 H 0.85459 0.12601 -0.07583
 H420 H 0.81379 0.15444 -0.11870
 H421 H 0.89027 0.15480 -0.18964
 H422 H 0.93117 0.12627 -0.14663
 C423 C 0.84078 0.62678 0.33557
 C424 C 0.83306 0.63641 0.37317
 C425 C 0.85520 0.62127 0.39622
 C426 C 0.88297 0.59794 0.37948
 C427 C 0.90141 0.62153 0.35313
 C428 C 0.87921 0.63671 0.33002
 C429 C 0.84013 0.58669 0.33472
 C430 C 0.86231 0.57153 0.35781
 C431 C 0.81665 0.64335 0.31113
 C432 C 0.79652 0.65778 0.29189
 C433 C 0.90630 0.58152 0.40476
 C434 C 0.92412 0.56754 0.42639
 H435 H 0.81202 0.65366 0.38100
 H436 H 0.85314 0.62556 0.42380
 H437 H 0.92939 0.62589 0.35264
 H438 H 0.88818 0.65408 0.30972
 H439 H 0.82375 0.57156 0.31748
 H440 H 0.86494 0.54338 0.36033
 C441 C 0.34142 0.12786 0.33621
 C442 C 0.33342 0.13720 0.37382
 C443 C 0.35539 0.12187 0.39693
 C444 C 0.38326 0.09864 0.38023
 C445 C 0.40191 0.12243 0.35419
 C446 C 0.37990 0.13780 0.33103
 C447 C 0.34076 0.08778 0.33506
 C448 C 0.36275 0.07242 0.35820
 C449 C 0.31748 0.14461 0.31168
 C450 C 0.29750 0.15911 0.29232
 C451 C 0.40642 0.08199 0.40555
 C452 C 0.42413 0.06784 0.42716
 H453 H 0.31234 0.15441 0.38163
 H454 H 0.35312 0.12596 0.42452
 H455 H 0.42990 0.12678 0.35394
 H456 H 0.38903 0.15533 0.31093
 H457 H 0.32451 0.07279 0.31759
 H458 H 0.36535 0.04426 0.36053
 C459 C 0.34107 0.62662 -0.16487
 C460 C 0.34053 0.58655 -0.16589
 C461 C 0.36263 0.57136 -0.14275
 C462 C 0.38308 0.59775 -0.12087
 C463 C 0.35517 0.62092 -0.10418
 C464 C 0.33311 0.63609 -0.12728
 C465 C 0.37949 0.63670 -0.17018
 C466 C 0.40161 0.62150 -0.14702
 C467 C 0.31701 0.64322 -0.18930
 C468 C 0.29687 0.65768 -0.20847
 C469 C 0.40628 0.58131 -0.09554
 C470 C 0.42394 0.56732 -0.07384
 H471 H 0.32430 0.57145 -0.18329
 H472 H 0.36534 0.54321 -0.14033
 H473 H 0.35295 0.62509 -0.07659
 H474 H 0.31198 0.65324 -0.11948
 H475 H 0.38851 0.65419 -0.19037
 H476 H 0.42958 0.62594 -0.14734
 C477 C 1.15789 -0.12740 -0.16373
 C478 C 1.12007 -0.12442 -0.17653
 C479 C 1.09815 -0.10911 -0.15335
 C480 C 1.11628 -0.09833 -0.11972
 C481 C 1.14662 -0.07474 -0.13098
 C482 C 1.16850 -0.09003 -0.15412
 C483 C 1.15547 -0.14708 -0.12930
 C484 C 1.13360 -0.13181 -0.10617
 C485 C 1.18175 -0.14407 -0.18819
 C486 C 1.20176 -0.15849 -0.20740
 C487 C 1.09331 -0.08178 -0.09438
 C488 C 1.07582 -0.06769 -0.07270
 H489 H 1.11130 -0.13351 -0.20156
 H490 H 1.07060 -0.10507 -0.15849
 H491 H 1.15053 -0.04830 -0.12165
 H492 H 1.19115 -0.07671 -0.16460
 H493 H 1.16965 -0.17098 -0.12360
 H494 H 1.12904 -0.14261 -0.08067
 C495 C 1.15915 0.37392 0.33605
 C496 C 1.12148 0.37714 0.32285
 C497 C 1.09931 0.39228 0.34592
 C498 C 1.11701 0.40269 0.37988
 C499 C 1.14757 0.42629 0.36920
 C500 C 1.16971 0.41117 0.34618
 C501 C 1.15623 0.35392 0.37028
 C502 C 1.13410 0.36903 0.39329
 C503 C 1.18325 0.35739 0.31163
 C504 C 1.20332 0.34304 0.29238
 C505 C 1.09369 0.41908 0.40510
 C506 C 1.07586 0.43304 0.42665
 H507 H 1.11300 0.36832 0.29763
 H508 H 1.07183 0.39644 0.34047
 H509 H 1.15144 0.45262 0.37883
 H510 H 1.19253 0.42453 0.33610
 H511 H 1.17028 0.32993 0.37593
 H512 H 1.12920 0.35798 0.41864
 C513 C 0.65794 -0.12729 0.33664
 C514 C 0.65875 -0.08721 0.33553
 C515 C 0.63679 -0.07192 0.35863
 C516 C 0.61618 -0.09822 0.38058
 C517 C 0.64395 -0.12165 0.39733
 C518 C 0.66588 -0.13691 0.37425
 C519 C 0.61943 -0.13706 0.33136
 C520 C 0.59745 -0.12176 0.35449
 C521 C 0.68185 -0.14395 0.31217
 C522 C 0.70184 -0.15836 0.29289
 C523 C 0.59308 -0.08166 0.40587
 C524 C 0.57544 -0.06759 0.42747
 H525 H 0.67507 -0.07216 0.31810
 H526 H 0.63430 -0.04376 0.36099
 H527 H 0.64618 -0.12592 0.42492
 H528 H 0.68689 -0.15424 0.38209
 H529 H 0.61025 -0.15442 0.31121
 H530 H 0.56945 -0.12601 0.35417
 C531 C 0.65825 0.37440 -0.16499
 C532 C 0.65890 0.41448 -0.16592
 C533 C 0.63678 0.42958 -0.14284
 C534 C 0.61618 0.40310 -0.12109
 C535 C 0.64398 0.37971 -0.10433
 C536 C 0.66607 0.36464 -0.12738
 C537 C 0.61980 0.36449 -0.17047
 C538 C 0.59767 0.37960 -0.14736
 C539 C 0.68233 0.35790 -0.18942
 C540 C 0.70243 0.34356 -0.20864
 C541 C 0.59292 0.41944 -0.09580
 C542 C 0.57518 0.43332 -0.07416
 H543 H 0.67524 0.42967 -0.18322
 H544 H 0.63417 0.45771 -0.14037
 H545 H 0.64612 0.37533 -0.07675
 H546 H 0.68712 0.34737 -0.11953
 H547 H 0.61078 0.34718 -0.19072
 H548 H 0.56968 0.37524 -0.14781
 C549 C 1.12790 0.15896 -0.16344
 C550 C 1.13857 0.12055 -0.16815
 C551 C 1.12330 0.09838 -0.14507
 C552 C 1.09888 0.11682 -0.11957
 C553 C 1.07265 0.13679 -0.14219
 C554 C 1.08791 0.15895 -0.16525
 C555 C 1.13658 0.16735 -0.12574
 C556 C 1.12135 0.14523 -0.10271
 C557 C 1.14456 0.18305 -0.18787
 C558 C 1.15901 0.20314 -0.20714
 C559 C 1.08235 0.09350 -0.09434
 C560 C 1.06829 0.07568 -0.07277
 H561 H 1.15649 0.11158 -0.18789
 H562 H 1.12813 0.07043 -0.14502
 H563 H 1.04456 0.13375 -0.14029
 H564 H 1.07291 0.17488 -0.18309
 H565 H 1.15327 0.18880 -0.11782
 H566 H 1.12500 0.14774 -0.07508
 C567 C 1.12702 0.65933 0.33577
 C568 C 1.13721 0.62083 0.33080
 C569 C 1.12192 0.59874 0.35393
 C570 C 1.09796 0.61734 0.37973
 C571 C 1.07173 0.63769 0.35744
 C572 C 1.08701 0.65977 0.33433
 C573 C 1.13616 0.66747 0.37341
 C574 C 1.12090 0.64542 0.39649
 C575 C 1.14370 0.68335 0.31129
 C576 C 1.15816 0.70339 0.29198
 C577 C 1.08141 0.59410 0.40501
 C578 C 1.06737 0.57632 0.42661
 H579 H 1.15485 0.61174 0.31086
 H580 H 1.12645 0.57073 0.35383
 H581 H 1.04362 0.63494 0.35958
 H582 H 1.07202 0.67594 0.31668
 H583 H 1.15317 0.68869 0.38126
 H584 H 1.12486 0.64776 0.42410
 C585 C 0.62695 0.15765 0.33580
 C586 C 0.58755 0.16348 0.33960
 C587 C 0.57222 0.14154 0.36278
 C588 C 0.59781 0.11593 0.37990
 C589 C 0.62637 0.13904 0.39560
 C590 C 0.64168 0.16095 0.37244
 C591 C 0.63092 0.11880 0.32669
 C592 C 0.61557 0.09684 0.34991
 C593 C 0.64367 0.18155 0.31129
 C594 C 0.65813 0.20159 0.29203
 C595 C 0.58123 0.09290 0.40528
 C596 C 0.56715 0.07536 0.42702
 H597 H 0.57295 0.18305 0.32529
 H598 H 0.54447 0.14232 0.36834
 H599 H 0.63395 0.13823 0.42256
 H600 H 0.66237 0.17891 0.37956
 H601 H 0.64454 0.10940 0.30400
 H602 H 0.61602 0.06862 0.34714
 C603 C 0.62671 0.65971 -0.16414
 C604 C 0.63656 0.62116 -0.16938
 C605 C 0.62120 0.59905 -0.14630
 C606 C 0.59752 0.61768 -0.12027
 C607 C 0.57135 0.63839 -0.14231
 C608 C 0.58670 0.66048 -0.16537
 C609 C 0.63610 0.66754 -0.12649
 C610 C 0.62078 0.64548 -0.10346
 C611 C 0.64346 0.68374 -0.18858
 C612 C 0.65795 0.70377 -0.20788
 C613 C 0.58091 0.59441 -0.09504
 C614 C 0.56685 0.57656 -0.07349
 H615 H 0.65402 0.61205 -0.18945
 H616 H 0.62550 0.57101 -0.14659
 H617 H 0.54323 0.63586 -0.14004
 H618 H 0.57175 0.67688 -0.18284
 H619 H 0.65332 0.68858 -0.11860
 H620 H 0.62489 0.64762 -0.07585
 C621 C 0.87303 -0.15842 -0.16339
 C622 C 0.91304 -0.15912 -0.16472
 C623 C 0.92843 -0.13714 -0.14168
 C624 C 0.90231 -0.11663 -0.11956
 C625 C 0.87918 -0.14457 -0.10271
 C626 C 0.86380 -0.16651 -0.12572
 C627 C 0.86309 -0.11986 -0.16857
 C628 C 0.87850 -0.09787 -0.14551
 C629 C 0.85624 -0.18234 -0.18781
 C630 C 0.84173 -0.20229 -0.20708
 C631 C 0.91899 -0.09350 -0.09434
 C632 C 0.93311 -0.07580 -0.07278
 H633 H 0.92795 -0.17537 -0.18224
 H634 H 0.95656 -0.13458 -0.13948
 H635 H 0.87518 -0.14690 -0.07510
 H636 H 0.84665 -0.18763 -0.11781
 H637 H 0.84553 -0.11065 -0.18860
 H638 H 0.87415 -0.06983 -0.14577
 C639 C 0.87335 0.34210 0.33593
 C640 C 0.86464 0.33342 0.37359
 C641 C 0.87978 0.35541 0.39667
 C642 C 0.90219 0.38398 0.37989
 C643 C 0.87776 0.40255 0.35438
 C644 C 0.86258 0.38050 0.33123
 C645 C 0.91334 0.34222 0.33421
 C646 C 0.92851 0.36425 0.35733
 C647 C 0.85683 0.31811 0.31149
 C648 C 0.84252 0.29800 0.29228
 C649 C 0.91863 0.40710 0.40519
 C650 C 0.93264 0.42471 0.42683
 H651 H 0.84799 0.31188 0.38144
 H652 H 0.87609 0.35272 0.42430
 H653 H 0.87285 0.43049 0.35446
 H654 H 0.84465 0.38956 0.31146
 H655 H 0.92841 0.32646 0.31637
 H656 H 0.95659 0.36737 0.35929
 C657 C 0.37292 -0.15838 0.33641
 C658 C 0.36250 -0.11992 0.33147
 C659 C 0.37777 -0.09786 0.35456
 C660 C 0.40194 -0.11647 0.38028
 C661 C 0.42818 -0.13656 0.35792
 C662 C 0.41292 -0.15860 0.33486
 C663 C 0.36399 -0.16677 0.37408
 C664 C 0.37923 -0.14477 0.39711
 C665 C 0.35627 -0.18237 0.31198
 C666 C 0.34185 -0.20239 0.29273
 C667 C 0.41847 -0.09329 0.40553
 C668 C 0.43250 -0.07559 0.42713
 H669 H 0.34473 -0.11082 0.31157
 H670 H 0.37309 -0.06988 0.35446
 H671 H 0.45628 -0.13367 0.35998
 H672 H 0.42793 -0.17459 0.31717
 H673 H 0.34714 -0.18814 0.38198
 H674 H 0.37541 -0.14728 0.42474
 C675 C 0.37250 0.34079 -0.16360
 C676 C 0.41252 0.34011 -0.16462
 C677 C 0.42771 0.36227 -0.14163
 C678 C 0.40141 0.38295 -0.11987
 C679 C 0.37815 0.35513 -0.10299
 C680 C 0.36298 0.33299 -0.12595
 C681 C 0.36258 0.37930 -0.16916
 C682 C 0.37779 0.40149 -0.14615
 C683 C 0.35592 0.31667 -0.18796
 C684 C 0.34152 0.29658 -0.20717
 C685 C 0.41789 0.40628 -0.09472
 C686 C 0.43194 0.42411 -0.07324
 H687 H 0.42758 0.32372 -0.18190
 H688 H 0.45582 0.36487 -0.13924
 H689 H 0.37393 0.35302 -0.07539
 H690 H 0.34577 0.31193 -0.11800
 H691 H 0.34517 0.38834 -0.18939
 H692 H 0.37343 0.42952 -0.14666
 C693 C 1.12702 -0.15934 0.16474
 C694 C 1.08701 -0.15987 0.16591
 C695 C 1.07179 -0.13776 0.14276
 C696 C 1.09807 -0.11728 0.12071
 C697 C 1.12118 -0.14527 0.10402
 C698 C 1.13638 -0.16735 0.12713
 C699 C 1.13708 -0.12084 0.16988
 C700 C 1.12184 -0.09871 0.14671
 C701 C 1.14365 -0.18340 0.18925
 C702 C 1.15811 -0.20347 0.20856
 C703 C 1.08160 -0.09402 0.09536
 C704 C 1.06763 -0.07623 0.07369
 H705 H 1.07197 -0.17611 0.18342
 H706 H 1.04368 -0.13506 0.14044
 H707 H 1.12529 -0.14753 0.07642
 H708 H 1.15349 -0.18851 0.11934
 H709 H 1.15458 -0.11176 0.18996
 H710 H 1.12628 -0.07069 0.14692
 C711 C 1.12704 0.34149 0.66410
 C712 C 1.12645 0.32718 0.62720
 C713 C 1.11129 0.34920 0.60401
 C714 C 1.09816 0.38344 0.61992
 C715 C 1.13008 0.39920 0.63801
 C716 C 1.14527 0.37713 0.66126
 C717 C 1.08885 0.35005 0.67243
 C718 C 1.07366 0.37211 0.64919
 C719 C 1.14361 0.31748 0.68871
 C720 C 1.15798 0.29746 0.70813
 C721 C 1.08169 0.40665 0.59451
 C722 C 1.06765 0.42439 0.57284
 H723 H 1.13703 0.30193 0.61992
 H724 H 1.10890 0.34280 0.57686
 H725 H 1.13984 0.42536 0.63306
 H726 H 1.16808 0.38440 0.67622
 H727 H 1.07499 0.33975 0.69463
 H728 H 1.04677 0.38072 0.65151
 C729 C 0.62664 -0.15925 0.66462
 C730 C 0.58664 -0.16048 0.66528
 C731 C 0.57132 -0.13840 0.64216
 C732 C 0.59752 -0.11724 0.62064
 C733 C 0.62132 -0.14465 0.60396
 C734 C 0.63661 -0.16670 0.62705
 C735 C 0.63596 -0.12063 0.67026
 C736 C 0.62063 -0.09853 0.64712
 C737 C 0.64337 -0.18327 0.68911
 C738 C 0.65788 -0.20331 0.70844
 C739 C 0.58095 -0.09398 0.59533
 C740 C 0.56691 -0.07619 0.57369
 H741 H 0.57166 -0.17717 0.68243
 H742 H 0.54321 -0.13617 0.63952
 H743 H 0.62582 -0.14655 0.57640
 H744 H 0.65419 -0.18748 0.61926
 H745 H 0.65305 -0.11147 0.69065
 H746 H 0.62458 -0.07044 0.64767
 C747 C 0.62728 0.34198 0.16338
 C748 C 0.63705 0.33418 0.12583
 C749 C 0.62177 0.35613 0.10266
 C750 C 0.59821 0.38378 0.11927
 C751 C 0.62154 0.40258 0.14549
 C752 C 0.63685 0.38057 0.16872
 C753 C 0.58728 0.34095 0.16425
 C754 C 0.57198 0.36294 0.14105
 C755 C 0.64394 0.31802 0.18791
 C756 C 0.65832 0.29793 0.20720
 C757 C 0.58163 0.40686 0.09389
 C758 C 0.56749 0.42446 0.07221
 H759 H 0.65448 0.31324 0.11811
 H760 H 0.62613 0.35402 0.07510
 H761 H 0.62564 0.43065 0.14581
 H762 H 0.65409 0.38979 0.18896
 H763 H 0.57230 0.32448 0.18160
 H764 H 0.54387 0.36532 0.13853
 C765 C 0.87397 0.15781 0.16422
 C766 C 0.86415 0.11925 0.16949
 C767 C 0.87943 0.09728 0.14634
 C768 C 0.90299 0.11608 0.12025
 C769 C 0.92924 0.13664 0.14218
 C770 C 0.91398 0.15859 0.16531
 C771 C 0.86442 0.16589 0.12662
 C772 C 0.87966 0.14397 0.10353
 C773 C 0.85732 0.18171 0.18865
 C774 C 0.84287 0.20174 0.20784
 C775 C 0.91949 0.09303 0.09494
 C776 C 0.93351 0.07547 0.07326
 H777 H 0.84678 0.11002 0.18964
 H778 H 0.87516 0.06923 0.14664
 H779 H 0.95735 0.13411 0.13981
 H780 H 0.92899 0.17487 0.18274
 H781 H 0.84716 0.18698 0.11881
 H782 H 0.87544 0.14628 0.07594
 C783 C 0.87259 0.65865 0.66332
 C784 C 0.86242 0.62012 0.66827
 C785 C 0.87777 0.59816 0.64515
 C786 C 0.90174 0.61690 0.61939
 C787 C 0.92792 0.63713 0.64170
 C788 C 0.91259 0.65908 0.66480
 C789 C 0.86349 0.66699 0.62567
 C790 C 0.87880 0.64508 0.60260
 C791 C 0.85588 0.68254 0.68781
 C792 C 0.84148 0.70249 0.70716
 C793 C 0.91836 0.59380 0.59411
 C794 C 0.93246 0.57613 0.57254
 H795 H 0.84477 0.61092 0.68819
 H796 H 0.87327 0.57015 0.64525
 H797 H 0.95604 0.63440 0.63960
 H798 H 0.92756 0.67515 0.68246
 H799 H 0.84647 0.68826 0.61780
 H800 H 0.87487 0.64758 0.57498
 C801 C 0.37356 0.15852 0.66447
 C802 C 0.36364 0.11998 0.66977
 C803 C 0.37876 0.09794 0.64658
 C804 C 0.40231 0.11664 0.62040
 C805 C 0.42869 0.13712 0.64226
 C806 C 0.41358 0.15914 0.66543
 C807 C 0.36393 0.16660 0.62689
 C808 C 0.37902 0.14462 0.60375
 C809 C 0.35704 0.18247 0.68903
 C810 C 0.34268 0.20244 0.70838
 C811 C 0.41868 0.09347 0.59505
 C812 C 0.43263 0.07576 0.57340
 H813 H 0.34630 0.11081 0.68998
 H814 H 0.37439 0.06991 0.64690
 H815 H 0.45679 0.13450 0.63980
 H816 H 0.42870 0.17538 0.68280
 H817 H 0.34672 0.18775 0.61913
 H818 H 0.37472 0.14694 0.57618
 C819 C 0.37261 0.65819 0.16348
 C820 C 0.36721 0.61931 0.17189
 C821 C 0.38245 0.59732 0.14872
 C822 C 0.40155 0.61641 0.11945
 C823 C 0.42749 0.64083 0.13756
 C824 C 0.41227 0.66279 0.16070
 C825 C 0.35893 0.66269 0.12655
 C826 C 0.37413 0.64076 0.10343
 C827 C 0.35601 0.68210 0.18799
 C828 C 0.34165 0.70209 0.20732
 C829 C 0.41804 0.59330 0.09413
 C830 C 0.43208 0.57566 0.07250
 H831 H 0.35274 0.60989 0.19409
 H832 H 0.38103 0.56907 0.15106
 H833 H 0.45538 0.64082 0.13269
 H834 H 0.42710 0.68159 0.17564
 H835 H 0.33900 0.68146 0.11920
 H836 H 0.36721 0.64074 0.07629
   
