data_POSCAR
  _audit_creation_date              2014-09-24
  _audit_creation_method            'ToBaCCo'
  _symmetry_space_group_name_H-M    'P1'
  _symmetry_Int_Tables_number       1
  _symmetry_cell_setting            triclinic
  loop_
  _symmetry_equiv_pos_as_xyz
 x,y,z
_cell_length_a 21.4273
_cell_length_b 21.0923
_cell_length_c 20.7345
_cell_angle_alpha 89.764400
_cell_angle_beta 91.034700
_cell_angle_gamma 91.155200
loop_
  _atom_site_label
  _atom_site_type_symbol
  _atom_site_fract_x
  _atom_site_fract_y
  _atom_site_fract_z
C1 C 0.52663 0.98186 -0.66225
 C2 C 0.46605 0.98258 -0.63645
 C3 C 0.46115 0.99367 -0.56941
 C4 C 0.51472 0.99974 -0.52892
 C5 C 0.57398 0.99520 -0.55681
 C6 C 0.58092 0.98786 -0.62341
 C7 C 0.50998 1.00890 -0.45729
 C8 C 0.56037 1.03706 -0.42208
 C9 C 0.56059 1.03919 -0.35459
 C10 C 0.50792 1.01754 -0.32183
 C11 C 0.45594 0.99240 -0.35524
 C12 C 0.45720 0.98735 -0.42278
 H13 H 0.53188 0.98198 -0.71395
 H14 H 0.41582 0.99586 -0.54805
 H15 H 0.61534 0.99410 -0.52629
 H16 H 0.60038 1.05702 -0.44653
 H17 H 0.50761 1.01927 -0.26961
 H18 H 0.41779 0.96473 -0.44725
 C19 C -0.65475 1.50657 0.00189
 C20 C -0.62704 1.44734 -0.00550
 C21 C -0.56152 1.44478 -0.00271
 C22 C -0.52419 1.49999 0.00810
 C23 C -0.55436 1.55864 0.01564
 C24 C -0.61970 1.56325 0.00912
 C25 C -0.45398 1.49703 0.00899
 C26 C -0.41707 1.55129 -0.00650
 C27 C -0.35166 1.54973 -0.00378
 C28 C -0.32294 1.49287 0.01283
 C29 C -0.35763 1.43663 0.02139
 C30 C -0.42305 1.43956 0.02268
 H31 H -0.70489 1.50794 0.00650
 H32 H -0.53996 1.40018 -0.01282
 H33 H -0.52677 1.60113 0.02417
 H34 H -0.43849 1.59455 -0.02282
 H35 H -0.27255 1.49191 0.01749
 H36 H -0.44922 1.39659 0.03304
 C37 C -0.02092 0.34495 0.50343
 C38 C -0.02122 0.37681 0.44327
 C39 C -0.03458 0.44208 0.44324
 C40 C -0.05429 0.47355 0.49903
 C41 C -0.05621 0.43913 0.55734
 C42 C -0.03714 0.37597 0.56040
 C43 C -0.07201 0.54216 0.49580
 C44 C -0.06736 0.58177 0.55074
 C45 C -0.08338 0.64646 0.54739
 C46 C -0.10088 0.67141 0.48697
 C47 C -0.10362 0.63398 0.43168
 C48 C -0.09184 0.56923 0.43669
 H49 H -0.01162 0.29486 0.50672
 H50 H -0.02703 0.46925 0.39981
 H51 H -0.07168 0.46110 0.60107
 H52 H -0.05194 0.56216 0.59624
 H53 H -0.10634 0.72202 0.48106
 H54 H -0.09712 0.54093 0.39353
 O55 O -0.14687 1.01982 -0.08906
 O56 O 0.17157 0.98972 -0.08314
 O57 O 0.01873 1.09297 -0.15937
 O58 O 0.00559 0.92258 -0.16856
 O59 O 0.00202 0.84119 -0.09406
 O60 O 0.02204 1.16676 -0.07725
 O61 O 0.09581 1.00054 -0.16270
 O62 O -0.07056 1.01718 -0.16598
 Zr63 Zr 0.01235 1.00534 -0.11142
 O64 O 0.06426 0.94151 -0.05912
 O65 O -0.03955 1.06354 -0.05467
 C66 C -0.12785 1.02274 -0.14810
 C67 C 0.15304 0.99378 -0.14308
 C68 C 0.02122 1.15046 -0.13779
 C69 C 0.00247 0.86307 -0.15244
 H70 H 0.10141 1.08197 -0.07772
 O71 O 0.07269 1.05551 -0.05172
 H72 H -0.07775 0.92623 -0.09122
 O73 O -0.04915 0.94940 -0.06125
 O74 O 0.17116 0.98592 0.09256
 O75 O -0.14876 0.99771 0.08436
 O76 O 0.10882 1.15575 0.01243
 O77 O 0.08247 0.83251 -0.00854
 O78 O -0.08571 0.84319 -0.00976
 O79 O -0.05922 1.16688 0.00572
 O80 O 0.01948 1.07397 0.17234
 O81 O -0.00281 0.90362 0.16071
 O82 O 0.02549 1.15666 0.09932
 O83 O -0.00602 0.83138 0.07731
 O84 O 0.17953 1.07461 0.01012
 O85 O -0.14226 1.09546 0.00271
 O86 O -0.15621 0.92431 -0.00674
 O87 O 0.16584 0.90302 -0.00073
 O88 O 0.09487 0.98627 0.16972
 O89 O -0.07445 0.99039 0.16593
 Zr90 Zr 0.12160 0.99188 0.00406
 Zr91 Zr -0.09801 1.00666 -0.00098
 Zr92 Zr 0.02056 1.11035 0.00825
 Zr93 Zr 0.00270 0.88874 -0.00517
 Zr94 Zr 0.01061 0.99237 0.11494
 O95 O -0.04973 0.94266 0.05473
 O96 O 0.07240 1.04933 0.06460
 C97 C 0.15273 0.98503 0.15187
 C98 C -0.13169 0.98983 0.14410
 C99 C 0.16513 1.13420 0.01168
 C100 C 0.14174 0.84630 -0.00691
 C101 C -0.14205 0.86475 -0.00973
 C102 C -0.11837 1.15254 0.00291
 C103 C 0.02513 1.13359 0.15770
 C104 C -0.00949 0.84679 0.13743
 H105 H -0.06564 1.08309 0.09095
 O106 O -0.04074 1.05657 0.06223
 H107 H 0.08641 0.90436 0.08474
 O108 O 0.06288 0.93495 0.05797
 C109 C 0.41793 0.94117 0.26255
 C110 C 0.41251 0.97330 0.32206
 C111 C 0.35267 0.99574 0.33774
 C112 C 0.30172 0.98929 0.29409
 C113 C 0.31010 0.96054 0.23363
 C114 C 0.36793 0.93566 0.21893
 C115 C 0.26077 0.95777 0.18828
 C116 C 0.20232 0.98272 0.20258
 C117 C 0.19326 1.00829 0.26411
 C118 C 0.24266 1.01220 0.30924
 H119 H 0.34549 1.02126 0.38200
 H120 H 0.37465 0.91179 0.17345
 H121 H 0.26816 0.93677 0.14144
 H122 H 0.23485 1.03381 0.35563
 H123 H 0.46058 0.91842 0.24928
 H124 H 0.14852 1.02701 0.27668
 C125 C -0.30859 1.02430 0.37459
 C126 C -0.35905 0.98780 0.34855
 C127 C -0.34891 0.95295 0.29200
 C128 C -0.29208 0.95758 0.26000
 C129 C -0.24337 0.99754 0.28417
 C130 C -0.25169 1.02951 0.34242
 C131 C -0.18841 1.00622 0.24839
 C132 C -0.18293 0.97574 0.18867
 C133 C -0.23006 0.93314 0.16775
 C134 C -0.28411 0.92405 0.20287
 H135 H -0.38518 0.92154 0.27261
 H136 H -0.21489 1.06003 0.36218
 H137 H -0.15180 1.03868 0.26512
 H138 H -0.32043 0.89224 0.18428
 H139 H -0.31397 1.05241 0.41761
 H140 H -0.22532 0.90767 0.12311
 C141 C -0.38620 1.09130 -0.25953
 C142 C -0.38214 1.05694 -0.31722
 C143 C -0.32460 1.03143 -0.33412
 C144 C -0.27330 1.03532 -0.29131
 C145 C -0.27933 1.06606 -0.23134
 C146 C -0.33517 1.09589 -0.21694
 C147 C -0.23054 1.06386 -0.18558
 C148 C -0.17576 1.03133 -0.19899
 C149 C -0.16866 1.00414 -0.26008
 C150 C -0.21720 1.00589 -0.30586
 H151 H -0.32101 1.00446 -0.37826
 H152 H -0.34024 1.12045 -0.17158
 H153 H -0.23586 1.08589 -0.13887
 H154 H -0.21163 0.98247 -0.35175
 H155 H -0.42977 1.11232 -0.24610
 H156 H -0.12661 0.97916 -0.27146
 C157 C 0.40801 0.93638 -0.26161
 C158 C 0.40056 0.97318 -0.31782
 C159 C 0.34247 0.99998 -0.33193
 C160 C 0.29384 0.99443 -0.28765
 C161 C 0.30313 0.96052 -0.22931
 C162 C 0.35965 0.92992 -0.21779
 C163 C 0.25667 0.95965 -0.18251
 C164 C 0.20080 0.99194 -0.19337
 C165 C 0.19097 1.02337 -0.25254
 C166 C 0.23716 1.02480 -0.29919
 H167 H 0.33667 1.02881 -0.37496
 H168 H 0.36734 0.90314 -0.17374
 H169 H 0.26425 0.93451 -0.13740
 H170 H 0.22911 1.05084 -0.34362
 H171 H 0.45244 0.91499 -0.25023
 H172 H 0.14814 1.04848 -0.26203
 C173 C 0.27609 1.39818 -0.04773
 C174 C 0.33440 1.39253 -0.01546
 C175 C 0.35079 1.33220 0.00907
 C176 C 0.30738 1.28099 0.00667
 C177 C 0.24811 1.28964 -0.02254
 C178 C 0.23372 1.34759 -0.05119
 C179 C 0.20318 1.24080 -0.02152
 C180 C 0.21577 1.18271 0.00873
 C181 C 0.27549 1.17294 0.03561
 C182 C 0.32096 1.22189 0.03482
 H183 H 0.39501 1.32597 0.03421
 H184 H 0.18895 1.35433 -0.07515
 H185 H 0.15774 1.24839 -0.04385
 H186 H 0.36620 1.21396 0.05726
 H187 H 0.26283 1.44204 -0.07108
 H188 H 0.28636 1.12825 0.05870
 C189 C 0.37388 0.67732 0.03963
 C190 C 0.34919 0.62247 0.00854
 C191 C 0.29107 0.62766 -0.02416
 C192 C 0.25661 0.68299 -0.02187
 C193 C 0.28073 0.73678 0.01101
 C194 C 0.34001 0.73372 0.04075
 C195 C 0.24444 0.79179 0.01434
 C196 C 0.18378 0.79197 -0.01326
 C197 C 0.16113 0.73778 -0.04594
 C198 C 0.19737 0.68432 -0.05105
 H199 H 0.27217 0.58880 -0.05291
 H200 H 0.35955 0.77441 0.06631
 H201 H 0.26226 0.83315 0.04009
 H202 H 0.17823 0.64328 -0.07638
 H203 H 0.41784 0.67652 0.06599
 H204 H 0.11471 0.73640 -0.06726
 C205 C -0.25581 0.59767 -0.05295
 C206 C -0.31194 0.60613 -0.02005
 C207 C -0.32712 0.66752 0.00027
 C208 C -0.28457 0.71853 -0.00808
 C209 C -0.22633 0.70770 -0.03655
 C210 C -0.21320 0.64768 -0.06050
 C211 C -0.18121 0.75647 -0.03897
 C212 C -0.19334 0.81673 -0.01406
 C213 C -0.25320 0.82880 0.00908
 C214 C -0.29815 0.77980 0.01309
 H215 H -0.37039 0.67505 0.02512
 H216 H -0.16934 0.63903 -0.08383
 H217 H -0.13598 0.74698 -0.05907
 H218 H -0.34304 0.78956 0.03371
 H219 H -0.24394 0.55165 -0.07160
 H220 H -0.26473 0.87550 0.02588
 C221 C -0.34306 1.32396 0.06244
 C222 C -0.32417 1.37525 0.02325
 C223 C -0.27136 1.36853 -0.01528
 C224 C -0.23565 1.31400 -0.01193
 C225 C -0.25425 1.26276 0.02789
 C226 C -0.30864 1.26794 0.06430
 C227 C -0.21722 1.20826 0.03135
 C228 C -0.16081 1.20647 -0.00239
 C229 C -0.14296 1.25827 -0.04099
 C230 C -0.18051 1.31099 -0.04673
 H231 H -0.25723 1.40641 -0.04771
 H232 H -0.32372 1.22932 0.09531
 H233 H -0.23085 1.16865 0.06181
 H234 H -0.16553 1.35015 -0.07712
 H235 H -0.38351 1.32756 0.09262
 H236 H -0.09957 1.25795 -0.06686
 C237 C -0.03499 1.36695 0.32467
 C238 C -0.01054 1.34420 0.38425
 C239 C 0.02208 1.28659 0.38324
 C240 C 0.02722 1.25168 0.32608
 C241 C 0.00106 1.27461 0.26769
 C242 C -0.02898 1.33285 0.26745
 C243 C 0.00346 1.23781 0.21119
 C244 C 0.03021 1.17749 0.21321
 C245 C 0.05745 1.15616 0.27135
 C246 C 0.05663 1.19304 0.32695
 H247 H 0.04441 1.26843 0.42651
 H248 H -0.04974 1.35117 0.22331
 H249 H -0.01820 1.25454 0.16680
 H250 H 0.07721 1.17466 0.37116
 H251 H -0.06226 1.40946 0.32186
 H252 H 0.07841 1.11003 0.27417
 C253 C -0.08404 1.34342 -0.33375
 C254 C -0.03408 1.34194 -0.37671
 C255 C 0.01933 1.30765 -0.35953
 C256 C 0.02236 1.27404 -0.30101
 C257 C -0.02879 1.27443 -0.25881
 C258 C -0.08153 1.30981 -0.27541
 C259 C -0.02721 1.23745 -0.20215
 C260 C 0.02467 1.19998 -0.18772
 C261 C 0.07581 1.20127 -0.22903
 C262 C 0.07498 1.23843 -0.28491
 H263 H 0.05842 1.30693 -0.39200
 H264 H -0.12118 1.31070 -0.24374
 H265 H -0.06766 1.23468 -0.17167
 H266 H 0.11458 1.23757 -0.31666
 H267 H -0.12568 1.36947 -0.34602
 H268 H 0.11556 1.17155 -0.21911
 C269 C -0.11570 0.74213 -0.39573
 C270 C -0.07832 0.68765 -0.39865
 C271 C -0.03395 0.67798 -0.34849
 C272 C -0.02459 0.72340 -0.29972
 C273 C -0.06028 0.77904 -0.30023
 C274 C -0.10646 0.78728 -0.34760
 C275 C -0.04953 0.82549 -0.25310
 C276 C -0.00453 0.81641 -0.20438
 C277 C 0.03012 0.76069 -0.20320
 C278 C 0.02068 0.71474 -0.25093
 H279 H -0.00362 0.63759 -0.34900
 H280 H -0.13535 0.82888 -0.34768
 H281 H -0.07726 0.86796 -0.25321
 H282 H 0.04852 0.67242 -0.24951
 H283 H -0.15311 0.75006 -0.43042
 H284 H 0.06484 0.75306 -0.16570
 C285 C -0.14928 0.71620 0.35884
 C286 C -0.10769 0.66615 0.36828
 C287 C -0.06083 0.65637 0.32305
 C288 C -0.05121 0.70019 0.27307
 C289 C -0.08994 0.75356 0.26753
 C290 C -0.14050 0.75962 0.30877
 C291 C -0.07583 0.80126 0.22274
 C292 C -0.02417 0.79576 0.18286
 C293 C 0.01192 0.74112 0.18568
 C294 C -0.00117 0.69375 0.23102
 H295 H -0.02829 0.61816 0.33022
 H296 H -0.17121 0.79968 0.30440
 H297 H -0.10452 0.84300 0.21923
 H298 H 0.02864 0.65292 0.23424
 H299 H -0.18601 0.72410 0.39294
 H300 H 0.05129 0.73612 0.15417
   
