data_POSCAR
  _audit_creation_date              2014-09-24
  _audit_creation_method            'ToBaCCo'
  _symmetry_space_group_name_H-M    'P1'
  _symmetry_Int_Tables_number       1
  _symmetry_cell_setting            triclinic
  loop_
  _symmetry_equiv_pos_as_xyz
 x,y,z
_cell_length_a 33.5398
_cell_length_b 33.7876
_cell_length_c 90.2618
_cell_angle_alpha 87.431900
_cell_angle_beta 91.409900
_cell_angle_gamma 120.252000
loop_
  _atom_site_label
  _atom_site_type_symbol
  _atom_site_fract_x
  _atom_site_fract_y
  _atom_site_fract_z
C1 C 0.01233 0.08290 0.52045
 H2 H 0.04557 0.08502 0.52007
 C3 C 0.00600 0.11151 0.52956
 H4 H 0.03440 0.13571 0.53627
 C5 C -0.06533 0.04874 0.51213
 H6 H -0.09283 0.02446 0.50522
 C7 C -0.07316 0.07682 0.52113
 H8 H -0.10683 0.07391 0.52124
 N9 N -0.02321 0.05192 0.51212
 C10 C 0.00902 -0.05629 0.50626
 H11 H 0.01103 -0.05604 0.49430
 C12 C 0.01271 -0.08960 0.51497
 H13 H 0.01790 -0.11490 0.50975
 C14 C -0.00250 -0.02517 0.52769
 H15 H -0.00977 -0.00097 0.53262
 C16 C 0.00104 -0.05775 0.53679
 H17 H -0.00297 -0.05810 0.54868
 Zn18 Zn -0.00965 0.01527 0.50036
 N19 N 0.00144 -0.02502 0.51271
 C20 C 0.08193 0.05318 0.48889
 N21 N 0.04279 0.05591 0.48892
 C22 C 0.03961 0.08916 0.48082
 C23 C 0.07625 0.12069 0.47193
 C24 C 0.11951 0.08415 0.48010
 C25 C -0.09961 -0.05519 0.49390
 C26 C -0.13541 -0.08627 0.48494
 C27 C -0.08809 -0.04731 0.46339
 C28 C -0.05326 -0.01712 0.47275
 N29 N -0.05948 -0.02160 0.48771
 H30 H 0.08402 0.02701 0.49561
 H31 H 0.00827 0.09081 0.48120
 H32 H 0.07314 0.14668 0.46538
 H33 H 0.15041 0.08158 0.47997
 H34 H -0.10326 -0.05857 0.50584
 H35 H -0.16684 -0.11344 0.49002
 H36 H -0.08224 -0.04384 0.45152
 H37 H -0.02079 0.00890 0.46803
 C38 C 0.00830 -0.09049 0.53037
 C39 C -0.03715 0.10831 0.52996
 C40 C -0.12938 -0.08252 0.46953
 C41 C 0.11645 0.11804 0.47150
 C42 C 1.10526 0.03945 0.14718
 H43 H 1.10728 0.07238 0.14752
 C44 C 1.13562 0.03434 0.13827
 H45 H 1.16106 0.06338 0.13168
 C46 C 1.06954 -0.03868 0.15535
 H47 H 1.04392 -0.06688 0.16211
 C48 C 1.09932 -0.04529 0.14655
 H49 H 1.09639 -0.07871 0.14645
 N50 N 1.07267 0.00310 0.15533
 C51 C 0.96168 0.03308 0.16035
 H52 H 0.95979 0.03345 0.17229
 C53 C 0.92931 0.03733 0.15139
 H54 H 0.90259 0.04131 0.15641
 C55 C 0.99723 0.02508 0.13919
 H56 H 1.02279 0.01895 0.13446
 C57 C 0.96567 0.02925 0.12985
 H58 H 0.96745 0.02684 0.11798
 Zn59 Zn 1.03349 0.01478 0.16679
 N60 N 0.99468 0.02695 0.15415
 C61 C 1.06875 0.10395 0.17847
 N62 N 1.07217 0.06547 0.17843
 C63 C 1.10464 0.06169 0.18669
 C64 C 1.13457 0.09694 0.19579
 C65 C 1.09811 0.14013 0.18747
 C66 C 0.96173 -0.07546 0.17294
 C67 C 0.92916 -0.11217 0.18177
 C68 C 0.96489 -0.06795 0.20345
 C69 C 0.99666 -0.03211 0.19424
 N70 N 0.99451 -0.03636 0.17927
 H71 H 1.04323 0.10656 0.17163
 H72 H 1.10687 0.03090 0.18630
 H73 H 1.15990 0.09331 0.20247
 H74 H 1.09494 0.17047 0.18762
 H75 H 0.96016 -0.07757 0.16099
 H76 H 0.90259 -0.14282 0.17664
 H77 H 0.96634 -0.06388 0.21532
 H78 H 1.02204 -0.00046 0.19907
 C79 C 0.93116 0.03500 0.13600
 C80 C 1.13247 -0.00844 0.13788
 C81 C 0.93058 -0.10814 0.19716
 C82 C 1.13112 0.13638 0.19625
 C83 C 0.03805 0.94918 0.85231
 H84 H 0.00667 0.91621 0.85185
 C85 C 0.07461 0.95416 0.86127
 H86 H 0.07141 0.92498 0.86779
 C87 C 0.08051 1.02753 0.84437
 H88 H 0.08268 1.05587 0.83768
 C89 C 0.11801 1.03401 0.85323
 H90 H 0.14894 1.06746 0.85345
 N91 N 0.04133 0.98570 0.84424
 C92 C -0.10067 0.95548 0.83902
 H93 H -0.10424 0.95544 0.82707
 C94 C -0.13632 0.95107 0.84793
 H95 H -0.16759 0.94728 0.84283
 C96 C -0.05460 0.96296 0.86025
 H97 H -0.02227 0.96901 0.86502
 C98 C -0.08932 0.95859 0.86955
 H99 H -0.08362 0.96075 0.88143
 Zn100 Zn -0.01100 0.97416 0.83271
 N101 N -0.06074 0.96148 0.84528
 C102 C -0.06709 0.88515 0.82082
 N103 N -0.02482 0.92389 0.82094
 C104 C 0.01069 0.92819 0.81272
 C105 C 0.00419 0.89317 0.80361
 C106 C -0.07509 0.84917 0.81181
 C107 C 0.00791 1.06445 0.82682
 C108 C 0.01162 1.10143 0.81810
 C109 C 0.00013 1.05792 0.79628
 C110 C -0.00345 1.02181 0.80538
 N111 N 0.00036 1.02559 0.82037
 H112 H -0.09459 0.88215 0.82763
 H113 H 0.04404 0.95917 0.81318
 H114 H 0.03259 0.89717 0.79699
 H115 H -0.10888 0.81857 0.81162
 H116 H 0.00981 1.06619 0.83878
 H117 H 0.01674 1.13191 0.82332
 H118 H -0.00381 1.05425 0.78438
 H119 H -0.01069 0.99034 0.80045
 C120 C -0.13036 0.95306 0.86334
 C121 C 0.11485 0.99697 0.86180
 C122 C 0.00730 1.09789 0.80269
 C123 C -0.03909 0.85341 0.80309
 C124 C 0.59556 -0.00511 -0.01442
 C125 C 0.61857 -0.00253 -0.00107
 C126 C 0.60053 -0.00018 0.01243
 C127 C 0.55784 -0.00137 0.01276
 C128 C 0.53458 -0.00312 -0.00075
 C129 C 0.55373 -0.00452 -0.01443
 C130 C 0.53059 -0.00527 -0.02771
 C131 C 0.48947 -0.00450 -0.02757
 C132 C 0.46957 -0.00376 -0.01413
 C133 C 0.49209 -0.00348 -0.00059
 C134 C 0.53781 -0.00085 0.02621
 C135 C 0.49555 -0.00234 0.02639
 C136 C 0.47218 -0.00358 0.01311
 C137 C 0.42940 -0.00490 0.01313
 C138 C 0.40799 -0.00431 -0.00028
 C139 C 0.42772 -0.00330 -0.01384
 H140 H 0.54429 -0.00611 -0.03835
 H141 H 0.47319 -0.00485 -0.03811
 H142 H 0.55450 0.00032 0.03673
 H143 H 0.48149 -0.00215 0.03704
 H144 H 0.65105 -0.00229 -0.00120
 H145 H 0.37547 -0.00463 -0.00017
 C146 C -0.03346 0.56549 0.67992
 C147 C -0.03102 0.58844 0.66642
 C148 C -0.02928 0.57039 0.65298
 C149 C -0.03088 0.52780 0.65290
 C150 C -0.03252 0.50458 0.66657
 C151 C -0.03340 0.52368 0.68015
 C152 C -0.03411 0.50054 0.69358
 C153 C -0.03364 0.45955 0.69366
 C154 C -0.03322 0.43980 0.68032
 C155 C -0.03314 0.46225 0.66665
 C156 C -0.03080 0.50789 0.63956
 C157 C -0.03246 0.46584 0.63963
 C158 C -0.03351 0.44253 0.65305
 C159 C -0.03480 0.40005 0.65329
 C160 C -0.03401 0.37869 0.66681
 C161 C -0.03277 0.39822 0.68025
 H162 H -0.03465 0.51416 0.70415
 H163 H -0.03393 0.44327 0.70430
 H164 H -0.02977 0.52455 0.62893
 H165 H -0.03254 0.45191 0.62906
 H166 H -0.03034 0.62091 0.66636
 H167 H -0.03420 0.34646 0.66688
 C168 C 0.42787 0.43440 0.32094
 C169 C 0.40693 0.41370 0.33450
 C170 C 0.42708 0.43379 0.34789
 C171 C 0.46887 0.47623 0.34786
 C172 C 0.49096 0.49714 0.33417
 C173 C 0.47063 0.47592 0.32065
 C174 C 0.49358 0.49675 0.30723
 C175 C 0.53583 0.53758 0.30710
 C176 C 0.55627 0.55949 0.32036
 C177 C 0.53343 0.53934 0.33401
 C178 C 0.48914 0.49831 0.36110
 C179 C 0.53022 0.54028 0.36091
 C180 C 0.55297 0.56132 0.34749
 C181 C 0.59478 0.60377 0.34715
 C182 C 0.61741 0.62284 0.33369
 C183 C 0.59897 0.60106 0.32038
 H184 H 0.47918 0.48143 0.29671
 H185 H 0.55218 0.55206 0.29648
 H186 H 0.47316 0.48345 0.37174
 H187 H 0.54422 0.55596 0.37142
 H188 H 0.37442 0.38144 0.33463
 H189 H 0.64987 0.65513 0.33356
 C190 C -0.04403 0.13698 0.53967
 C191 C -0.04803 0.16138 0.54812
 C192 C -0.05098 0.19075 0.55857
 C193 C -0.07932 0.17169 0.57105
 C194 C -0.07931 0.20010 0.58184
 C195 C -0.05077 0.24802 0.58032
 C196 C -0.02312 0.26689 0.56758
 C197 C -0.02321 0.23840 0.55679
 C198 C -0.04837 0.27790 0.59230
 C199 C -0.00558 0.31478 0.59666
 C200 C -0.00289 0.34125 0.60853
 C201 C -0.04287 0.33133 0.61616
 C202 C -0.08569 0.29528 0.61174
 C203 C -0.08848 0.26874 0.59988
 C204 C -0.03973 0.35671 0.62895
 C205 C -0.03727 0.37702 0.63989
 H206 H -0.10062 0.13483 0.57261
 H207 H -0.10049 0.18447 0.59162
 H208 H -0.00120 0.30364 0.56601
 H209 H -0.00100 0.25351 0.54720
 H210 H 0.02599 0.32231 0.59120
 H211 H 0.03048 0.36890 0.61192
 H212 H -0.11686 0.28728 0.61758
 H213 H -0.12196 0.24095 0.59668
 C214 C 0.89558 0.85634 0.20652
 C215 C 0.86642 0.82808 0.21476
 C216 C 0.83198 0.79608 0.22506
 C217 C 0.79371 0.80043 0.22816
 C218 C 0.76214 0.77202 0.23906
 C219 C 0.76850 0.73889 0.24706
 C220 C 0.80650 0.73404 0.24361
 C221 C 0.83804 0.76251 0.23269
 C222 C 0.73695 0.71120 0.25942
 C223 C 0.75477 0.70311 0.27275
 C224 C 0.72560 0.67926 0.28471
 C225 C 0.67821 0.66309 0.28354
 C226 C 0.65996 0.67032 0.27026
 C227 C 0.68912 0.69423 0.25827
 C228 C 0.64887 0.64040 0.29616
 C229 C 0.62546 0.62214 0.30702
 H230 H 0.78887 0.82654 0.22240
 H231 H 0.73365 0.77707 0.24159
 H232 H 0.81202 0.70848 0.24943
 H233 H 0.86759 0.75889 0.23040
 H234 H 0.79147 0.71633 0.27409
 H235 H 0.74012 0.67404 0.29496
 H236 H 0.62332 0.65790 0.26923
 H237 H 0.67430 0.69948 0.24810
 C238 C 0.15204 0.00256 -0.12858
 C239 C 0.18189 0.00567 -0.12017
 C240 C 0.21592 0.00771 -0.10972
 C241 C 0.24474 0.04823 -0.10243
 C242 C 0.27518 0.04899 -0.09143
 C243 C 0.27705 0.00914 -0.08754
 C244 C 0.24872 -0.03111 -0.09520
 C245 C 0.21833 -0.03178 -0.10619
 C246 C 0.30666 0.00885 -0.07508
 C247 C 0.33052 -0.01536 -0.07589
 C248 C 0.35647 -0.01739 -0.06381
 C249 C 0.35887 0.00471 -0.05079
 C250 C 0.33575 0.02932 -0.04995
 C251 C 0.30984 0.03142 -0.06200
 C252 C 0.38395 0.00138 -0.03810
 C253 C 0.40422 -0.00106 -0.02720
 H254 H 0.24309 0.07898 -0.10506
 H255 H 0.29698 0.08064 -0.08587
 H256 H 0.24887 -0.06250 -0.09234
 H257 H 0.19591 -0.06343 -0.11169
 H258 H 0.32911 -0.03269 -0.08586
 H259 H 0.37429 -0.03650 -0.06458
 H260 H 0.33720 0.04638 -0.03990
 H261 H 0.29130 0.04969 -0.06092
 C262 C 0.00859 0.87384 0.53962
 C263 C 0.00753 0.84405 0.54777
 C264 C 0.00497 0.80882 0.55795
 C265 C -0.03813 0.77201 0.56222
 C266 C -0.04112 0.73961 0.57300
 C267 C -0.00095 0.74367 0.57969
 C268 C 0.04231 0.78022 0.57506
 C269 C 0.04521 0.81260 0.56427
 C270 C -0.00436 0.71125 0.59195
 C271 C 0.02422 0.72752 0.60452
 C272 C 0.01939 0.69763 0.61644
 C273 C -0.01398 0.65109 0.61600
 C274 C -0.04213 0.63436 0.60346
 C275 C -0.03737 0.66423 0.59150
 C276 C -0.02010 0.62115 0.62865
 C277 C -0.02469 0.59731 0.63956
 H278 H -0.06951 0.76893 0.55747
 H279 H -0.07493 0.71229 0.57645
 H280 H 0.07387 0.78395 0.57986
 H281 H 0.07875 0.84099 0.56106
 H282 H 0.04943 0.76359 0.60532
 H283 H 0.04121 0.71099 0.62613
 H284 H -0.06805 0.59837 0.60299
 H285 H -0.05954 0.65059 0.58191
 C286 C 0.16093 0.17212 0.20601
 C287 C 0.18621 0.20069 0.21455
 C288 C 0.21651 0.23316 0.22512
 C289 C 0.20236 0.25905 0.23278
 C290 C 0.23048 0.28794 0.24386
 C291 C 0.27310 0.29120 0.24745
 C292 C 0.28742 0.26576 0.23945
 C293 C 0.25927 0.23692 0.22838
 C294 C 0.30154 0.31930 0.25991
 C295 C 0.35001 0.34495 0.25889
 C296 C 0.37667 0.36966 0.27092
 C297 C 0.35525 0.36901 0.28411
 C298 C 0.30709 0.34404 0.28517
 C299 C 0.28040 0.31937 0.27317
 C300 C 0.38235 0.39299 0.29673
 C301 C 0.40383 0.41225 0.30759
 H302 H 0.16928 0.25634 0.23037
 H303 H 0.21876 0.30753 0.24969
 H304 H 0.31970 0.26700 0.24207
 H305 H 0.27040 0.21676 0.22259
 H306 H 0.36727 0.34596 0.24878
 H307 H 0.41394 0.38895 0.26998
 H308 H 0.29016 0.34315 0.29536
 H309 H 0.24326 0.29940 0.27441
 C310 C 0.83714 -0.04765 -0.12772
 C311 C 0.80978 -0.04699 -0.11946
 C312 C 0.77890 -0.04477 -0.10919
 C313 C 0.75961 -0.07755 -0.09754
 C314 C 0.73279 -0.07326 -0.08681
 C315 C 0.72504 -0.03597 -0.08757
 C316 C 0.74378 -0.00372 -0.09950
 C317 C 0.77056 -0.00811 -0.11023
 C318 C 0.69932 -0.02971 -0.07560
 C319 C 0.71496 0.01406 -0.07008
 C320 C 0.69250 0.01963 -0.05820
 C321 C 0.65408 -0.01839 -0.05169
 C322 C 0.63769 -0.06193 -0.05728
 C323 C 0.66012 -0.06760 -0.06916
 C324 C 0.63284 -0.01312 -0.03884
 C325 C 0.61561 -0.00915 -0.02786
 H326 H 0.76618 -0.10584 -0.09656
 H327 H 0.71942 -0.09829 -0.07766
 H328 H 0.73798 0.02505 -0.10049
 H329 H 0.78546 0.01756 -0.11917
 H330 H 0.74541 0.04379 -0.07465
 H331 H 0.70563 0.05345 -0.05391
 H332 H 0.60797 -0.09161 -0.05232
 H333 H 0.64694 -0.10162 -0.07327
 C334 C 0.16269 -0.01416 0.12829
 C335 C 0.18827 -0.01727 0.11988
 C336 C 0.21890 -0.01919 0.10942
 C337 C 0.20564 -0.05954 0.10203
 C338 C 0.23390 -0.06009 0.09099
 C339 C 0.27578 -0.02018 0.08719
 C340 C 0.28928 0.01989 0.09495
 C341 C 0.26098 0.02035 0.10596
 C342 C 0.30417 -0.01959 0.07471
 C343 C 0.35271 0.00469 0.07555
 C344 C 0.37925 0.00718 0.06344
 C345 C 0.35763 -0.01456 0.05036
 C346 C 0.30942 -0.03930 0.04950
 C347 C 0.28285 -0.04185 0.06157
 C348 C 0.38453 -0.01063 0.03762
 C349 C 0.40576 -0.00769 0.02665
 H350 H 0.17309 -0.09032 0.10460
 H351 H 0.22284 -0.09161 0.08536
 H352 H 0.32095 0.05132 0.09215
 H353 H 0.27142 0.05186 0.11155
 H354 H 0.37013 0.02178 0.08556
 H355 H 0.41657 0.02638 0.06423
 H356 H 0.29233 -0.05608 0.03940
 H357 H 0.24563 -0.06017 0.06047
 C358 C 0.83924 0.88709 0.46091
 C359 C 0.81166 0.85923 0.45261
 C360 C 0.78060 0.82640 0.44225
 C361 C 0.78273 0.78681 0.43997
 C362 C 0.75557 0.75678 0.42900
 C363 C 0.72597 0.76607 0.42011
 C364 C 0.72323 0.80539 0.42273
 C365 C 0.75043 0.83537 0.43372
 C366 C 0.69987 0.73608 0.40769
 C367 C 0.69659 0.75546 0.39391
 C368 C 0.67405 0.72761 0.38198
 C369 C 0.65442 0.68003 0.38362
 C370 C 0.65692 0.66029 0.39732
 C371 C 0.67951 0.68812 0.40929
 C372 C 0.63272 0.65187 0.37109
 C373 C 0.61518 0.62936 0.36034
 H374 H 0.80623 0.77972 0.44643
 H375 H 0.75895 0.72718 0.42713
 H376 H 0.70035 0.81317 0.41621
 H377 H 0.74858 0.86597 0.43537
 H378 H 0.71251 0.79227 0.39224
 H379 H 0.67247 0.74326 0.37140
 H380 H 0.64175 0.62347 0.39872
 H381 H 0.68104 0.67214 0.41979
 C382 C 0.00758 0.13382 0.79343
 C383 C 0.00655 0.16253 0.78527
 C384 C 0.00405 0.19522 0.77508
 C385 C 0.03833 0.21866 0.76434
 C386 C 0.03402 0.24752 0.75365
 C387 C -0.00478 0.25320 0.75354
 C388 C -0.03857 0.23024 0.76458
 C389 C -0.03416 0.20142 0.77527
 C390 C -0.01090 0.28127 0.74155
 C391 C -0.05441 0.26586 0.73489
 C392 C -0.05969 0.29081 0.72299
 C393 C -0.02163 0.33151 0.71762
 C394 C 0.02160 0.34761 0.72435
 C395 C 0.02697 0.32269 0.73624
 C396 C -0.02638 0.35550 0.70475
 C397 C -0.02974 0.37514 0.69373
 H398 H 0.06785 0.21380 0.76402
 H399 H 0.06029 0.26418 0.74518
 H400 H -0.06854 0.23435 0.76489
 H401 H -0.06098 0.18332 0.78351
 H402 H -0.08408 0.23379 0.73857
 H403 H -0.09324 0.27789 0.71780
 H404 H 0.05130 0.37906 0.72027
 H405 H 0.06077 0.33571 0.74124
 C406 C 0.89647 0.03580 0.12650
 C407 C 0.86758 0.03521 0.11814
 C408 C 0.83350 0.03324 0.10773
 C409 C 0.84051 0.07299 0.09994
 C410 C 0.80922 0.07035 0.08895
 C411 C 0.77053 0.02783 0.08557
 C412 C 0.76323 -0.01176 0.09371
 C413 C 0.79456 -0.00904 0.10469
 C414 C 0.73912 0.02440 0.07316
 C415 C 0.69113 -0.00540 0.07436
 C416 C 0.66200 -0.01014 0.06236
 C417 C 0.68046 0.01480 0.04904
 C418 C 0.72804 0.04493 0.04782
 C419 C 0.75719 0.04974 0.05978
 C420 C 0.65102 0.00887 0.03646
 C421 C 0.62742 0.00438 0.02567
 H422 H 0.87058 0.10589 0.10218
 H423 H 0.81547 0.10151 0.08301
 H424 H 0.73417 -0.04506 0.09125
 H425 H 0.78897 -0.04008 0.11057
 H426 H 0.67614 -0.02501 0.08456
 H427 H 0.62519 -0.03351 0.06343
 H428 H 0.74272 0.06426 0.03754
 H429 H 0.79401 0.07240 0.05842
 C430 C 0.15371 0.14963 0.46195
 C431 C 0.18361 0.17641 0.45361
 C432 C 0.21773 0.20853 0.44327
 C433 C 0.23311 0.19271 0.43190
 C434 C 0.26333 0.22353 0.42111
 C435 C 0.27846 0.27062 0.42153
 C436 C 0.26357 0.28629 0.43319
 C437 C 0.23337 0.25541 0.44397
 C438 C 0.30790 0.30281 0.40948
 C439 C 0.29922 0.33700 0.40356
 C440 C 0.32503 0.36551 0.39160
 C441 C 0.35992 0.36033 0.38543
 C442 C 0.36945 0.32704 0.39142
 C443 C 0.34365 0.29846 0.40337
 C444 C 0.38435 0.38754 0.37251
 C445 C 0.40412 0.40925 0.36144
 H446 H 0.22090 0.15644 0.43117
 H447 H 0.27363 0.21030 0.41217
 H448 H 0.27504 0.32238 0.43391
 H449 H 0.22156 0.26800 0.45270
 H450 H 0.27153 0.34080 0.40787
 H451 H 0.31717 0.39097 0.38699
 H452 H 0.39636 0.32271 0.38672
 H453 H 0.35151 0.27283 0.40779
 C454 C -0.04610 0.81779 0.79340
 C455 C -0.05014 0.78935 0.78494
 C456 C -0.05301 0.75706 0.77450
 C457 C -0.08045 0.74858 0.76179
 C458 C -0.08017 0.72032 0.75099
 C459 C -0.05226 0.70029 0.75275
 C460 C -0.02559 0.70821 0.76573
 C461 C -0.02595 0.73646 0.77652
 C462 C -0.04943 0.67302 0.74078
 C463 C -0.00657 0.67850 0.73680
 C464 C -0.00339 0.65493 0.72496
 C465 C -0.04297 0.62553 0.71697
 C466 C -0.08588 0.61919 0.72101
 C467 C -0.08914 0.64275 0.73284
 C468 C -0.03929 0.60353 0.70421
 C469 C -0.03642 0.58585 0.69329
 H470 H -0.10120 0.76469 0.76005
 H471 H -0.10058 0.71542 0.74104
 H472 H -0.00420 0.69283 0.76749
 H473 H -0.00444 0.74293 0.78630
 H474 H 0.02472 0.70205 0.74255
 H475 H 0.03004 0.66031 0.72187
 H476 H -0.11674 0.59652 0.71489
 H477 H -0.12267 0.63742 0.73575
   
