data_POSCAR
  _audit_creation_date              2014-09-24
  _audit_creation_method            'ToBaCCo'
  _symmetry_space_group_name_H-M    'P1'
  _symmetry_Int_Tables_number       1
  _symmetry_cell_setting            triclinic
  loop_
  _symmetry_equiv_pos_as_xyz
 x,y,z
_cell_length_a 45.0843
_cell_length_b 38.3786
_cell_length_c 35.3414
_cell_angle_alpha 89.576400
_cell_angle_beta 89.472700
_cell_angle_gamma 89.950100
loop_
  _atom_site_label
  _atom_site_type_symbol
  _atom_site_fract_x
  _atom_site_fract_y
  _atom_site_fract_z
C1 C 0.32604 0.30948 0.01658
 C2 C 0.33250 0.32093 0.05204
 C3 C 0.31506 0.34905 0.07087
 C4 C 0.35702 0.30569 0.07502
 C5 C 0.34333 0.28122 -0.00181
 C6 C 0.30052 0.32372 -0.00471
 C7 C 0.33025 0.37752 0.08604
 C8 C 0.31540 0.40183 0.10844
 C9 C 0.28490 0.39835 0.11604
 C10 C 0.26934 0.37067 0.09966
 C11 C 0.28438 0.34588 0.07772
 C12 C 0.38601 0.30184 0.06049
 C13 C 0.40852 0.28809 0.08318
 C14 C 0.40276 0.27973 0.12122
 C15 C 0.37415 0.28433 0.13608
 C16 C 0.35142 0.29675 0.11309
 C17 C 0.34418 0.24770 0.01405
 C18 C 0.36276 0.22214 -0.00131
 C19 C 0.38121 0.22954 -0.03303
 C20 C 0.37931 0.26309 -0.04950
 C21 C 0.36041 0.28845 -0.03425
 C22 C 0.27575 0.30252 -0.01084
 C23 C 0.25021 0.31637 -0.02728
 C24 C 0.24927 0.35152 -0.03867
 C25 C 0.27464 0.37228 -0.03421
 C26 C 0.30001 0.35858 -0.01699
 H27 H 0.35390 0.38041 0.08132
 H28 H 0.32792 0.42325 0.12001
 H29 H 0.24583 0.36742 0.10516
 H30 H 0.27230 0.32362 0.06731
 H31 H 0.39137 0.30985 0.03183
 H32 H 0.43065 0.28507 0.07146
 H33 H 0.32940 0.29968 0.12516
 H34 H 0.33093 0.24158 0.03895
 H35 H 0.36282 0.19701 0.01263
 H36 H 0.39268 0.27009 -0.07402
 H37 H 0.35995 0.31422 -0.04695
 H38 H 0.27581 0.27555 -0.00159
 H39 H 0.23117 0.29960 -0.03092
 H40 H 0.27447 0.39941 -0.04285
 H41 H 0.31902 0.37524 -0.01258
 H42 H 0.36934 0.27796 0.16541
 C43 C 0.66768 0.67228 -0.02926
 C44 C 0.66707 0.68508 0.00671
 C45 C 0.68578 0.67045 0.03743
 C46 C 0.64624 0.71292 0.01788
 C47 C 0.64859 0.68695 -0.05975
 C48 C 0.68774 0.64304 -0.03940
 C49 C 0.67209 0.65755 0.07048
 C50 C 0.68868 0.64008 0.09783
 C51 C 0.71928 0.63497 0.09250
 C52 C 0.73323 0.64912 0.06021
 C53 C 0.71670 0.66737 0.03324
 C54 C 0.61564 0.70659 0.01979
 C55 C 0.59621 0.73318 0.03052
 C56 C 0.60714 0.76653 0.03849
 C57 C 0.63779 0.77277 0.03647
 C58 C 0.65725 0.74594 0.02684
 C59 C 0.64693 0.72306 -0.06654
 C60 C 0.62670 0.73658 -0.09252
 C61 C 0.60889 0.71419 -0.11368
 C62 C 0.61184 0.67802 -0.10877
 C63 C 0.63137 0.66453 -0.08181
 C64 C 0.71001 0.64836 -0.06676
 C65 C 0.73259 0.62379 -0.07143
 C66 C 0.73338 0.59375 -0.04853
 C67 C 0.70993 0.58728 -0.02301
 C68 C 0.68698 0.61148 -0.01898
 H69 H 0.64831 0.65974 0.07441
 H70 H 0.67728 0.62927 0.12230
 H71 H 0.75685 0.64579 0.05568
 H72 H 0.72783 0.67786 0.00839
 H73 H 0.60694 0.68106 0.01324
 H74 H 0.57264 0.72786 0.03224
 H75 H 0.68088 0.75101 0.02570
 H76 H 0.66098 0.74089 -0.05134
 H77 H 0.62516 0.76455 -0.09639
 H78 H 0.59833 0.66024 -0.12485
 H79 H 0.63247 0.63659 -0.07748
 H80 H 0.71081 0.67240 -0.08299
 H81 H 0.75022 0.62908 -0.09169
 H82 H 0.70954 0.56384 -0.00579
 H83 H 0.66957 0.60659 0.00170
 H84 H 0.64673 0.79813 0.04323
 C85 C 0.69036 0.31163 1.01042
 C86 C 0.68671 0.31451 0.97213
 C87 C 0.70435 0.33768 0.94670
 C88 C 0.66448 0.29202 0.95338
 C89 C 0.67169 0.28617 1.03184
 C90 C 0.71152 0.33257 1.03320
 C91 C 0.68950 0.35726 0.91902
 C92 C 0.70528 0.37710 0.89253
 C93 C 0.73641 0.37801 0.89311
 C94 C 0.75140 0.35888 0.92112
 C95 C 0.73552 0.33842 0.94739
 C96 C 0.63401 0.29874 0.95769
 C97 C 0.61318 0.27377 0.94698
 C98 C 0.62262 0.24155 0.93277
 C99 C 0.65304 0.23562 0.92672
 C100 C 0.67380 0.26095 0.93638
 C101 C 0.67550 0.25030 1.02613
 C102 C 0.65396 0.22684 1.03886
 C103 C 0.62899 0.23879 1.05889
 C104 C 0.62671 0.27424 1.06792
 C105 C 0.64785 0.29791 1.05413
 C106 C 0.72581 0.31630 1.06375
 C107 C 0.74301 0.33538 1.08870
 C108 C 0.74726 0.37141 1.08334
 C109 C 0.73418 0.38755 1.05167
 C110 C 0.71581 0.36855 1.02748
 H111 H 0.66551 0.35713 0.91780
 H112 H 0.69296 0.39212 0.87195
 H113 H 0.77539 0.35923 0.92223
 H114 H 0.74755 0.32288 0.96783
 H115 H 0.62653 0.32255 0.97097
 H116 H 0.58980 0.27887 0.95162
 H117 H 0.69723 0.25537 0.93306
 H118 H 0.69415 0.24080 1.00967
 H119 H 0.65642 0.19947 1.03223
 H120 H 0.60766 0.28386 1.08357
 H121 H 0.64474 0.32551 1.05896
 H122 H 0.72325 0.28860 1.06886
 H123 H 0.75328 0.32139 1.11179
 H124 H 0.73686 0.41525 1.04664
 H125 H 0.70441 0.38225 1.00504
 H126 H 0.66077 0.21115 0.91516
 C127 C 0.31544 0.68872 1.00056
 C128 C 0.31073 0.68657 0.96244
 C129 C 0.28520 0.66577 0.94862
 C130 C 0.33151 0.70226 0.93398
 C131 C 0.33339 0.71722 1.01697
 C132 C 0.30212 0.66183 1.02612
 C133 C 0.28986 0.63618 0.92625
 C134 C 0.26679 0.61238 0.92084
 C135 C 0.23882 0.61787 0.93773
 C136 C 0.23371 0.64889 0.95763
 C137 C 0.25661 0.67271 0.96273
 C138 C 0.36233 0.70193 0.94000
 C139 C 0.38179 0.71638 0.91330
 C140 C 0.37104 0.73010 0.87924
 C141 C 0.34039 0.72949 0.87245
 C142 C 0.32079 0.71587 0.89969
 C143 C 0.32962 0.75166 1.00426
 C144 C 0.34788 0.77825 1.01729
 C145 C 0.37036 0.77109 1.04372
 C146 C 0.37326 0.73668 1.05748
 C147 C 0.35488 0.71009 1.04438
 C148 C 0.28122 0.67071 1.05416
 C149 C 0.26217 0.64508 1.06931
 C150 C 0.26302 0.61091 1.05504
 C151 C 0.28628 0.60168 1.03026
 C152 C 0.30620 0.62664 1.01706
 H153 H 0.31177 0.63038 0.91515
 H154 H 0.27120 0.58889 0.90496
 H155 H 0.21223 0.65453 0.97003
 H156 H 0.25253 0.69567 0.97966
 H157 H 0.37148 0.69022 0.96529
 H158 H 0.40536 0.71624 0.91895
 H159 H 0.29722 0.71613 0.89404
 H160 H 0.31273 0.75790 0.98367
 H161 H 0.34431 0.80415 1.00608
 H162 H 0.39006 0.73006 1.07804
 H163 H 0.35808 0.68374 1.05474
 H164 H 0.27802 0.69769 1.06196
 H165 H 0.24494 0.65283 1.08909
 H166 H 0.28884 0.57524 1.02027
 H167 H 0.32292 0.61910 0.99647
 H168 H 0.33151 0.74021 0.84650
 C169 C -0.02141 0.31690 0.28400
 C170 C 0.00777 0.31235 0.29234
 C171 C 0.01916 0.28009 0.31079
 C172 C 0.02931 0.34112 0.28635
 C173 C -0.03071 0.34504 0.25735
 C174 C -0.04520 0.29417 0.30061
 C175 C 0.03811 0.28267 0.34188
 C176 C 0.04892 0.25278 0.35961
 C177 C 0.04114 0.21951 0.34669
 C178 C 0.02233 0.21680 0.31533
 C179 C 0.01157 0.24687 0.29741
 C180 C 0.02661 0.37167 0.30768
 C181 C 0.04839 0.39748 0.30528
 C182 C 0.07291 0.39345 0.28089
 C183 C 0.07517 0.36327 0.25880
 C184 C 0.05379 0.33697 0.26204
 C185 C -0.01798 0.34732 0.22103
 C186 C -0.02868 0.37128 0.19447
 C187 C -0.05262 0.39346 0.20356
 C188 C -0.06471 0.39169 0.24047
 C189 C -0.05397 0.36766 0.26695
 C190 C -0.06943 0.28414 0.27852
 C191 C -0.09279 0.26490 0.29436
 C192 C -0.09222 0.25440 0.33266
 C193 C -0.06759 0.26376 0.35451
 C194 C -0.04484 0.28420 0.33899
 H195 H 0.04429 0.30790 0.35283
 H196 H 0.06338 0.25581 0.38366
 H197 H 0.01614 0.19163 0.30434
 H198 H -0.00262 0.24425 0.27304
 H199 H 0.00801 0.37505 0.32693
 H200 H 0.04590 0.42073 0.32219
 H201 H 0.05632 0.31337 0.24570
 H202 H -0.00032 0.32971 0.21279
 H203 H -0.01841 0.37160 0.16673
 H204 H -0.08303 0.40833 0.24878
 H205 H -0.06417 0.36628 0.29479
 H206 H -0.07042 0.29145 0.24890
 H207 H -0.11092 0.25788 0.27613
 H208 H -0.06641 0.25654 0.38415
 H209 H -0.02714 0.29263 0.35727
 H210 H 0.09385 0.35971 0.23973
 C211 C 0.00237 0.70200 0.72895
 C212 C 0.03263 0.70461 0.73025
 C213 C 0.04798 0.73460 0.71162
 C214 C 0.05189 0.67655 0.74637
 C215 C -0.01423 0.67971 0.75664
 C216 C -0.01484 0.72252 0.70019
 C217 C 0.06970 0.72867 0.68373
 C218 C 0.08046 0.75627 0.66170
 C219 C 0.06992 0.79033 0.66735
 C220 C 0.04968 0.79653 0.69708
 C221 C 0.03895 0.76890 0.71914
 C222 C 0.04552 0.64107 0.74043
 C223 C 0.06625 0.61529 0.74976
 C224 C 0.09406 0.62467 0.76377
 C225 C 0.10012 0.65979 0.77099
 C226 C 0.07909 0.68541 0.76292
 C227 C -0.00610 0.67883 0.79493
 C228 C -0.02123 0.65757 0.82086
 C229 C -0.04541 0.63710 0.80932
 C230 C -0.05418 0.63909 0.77119
 C231 C -0.03866 0.65994 0.74515
 C232 C -0.04149 0.73952 0.70981
 C233 C -0.05553 0.76149 0.68356
 C234 C -0.04208 0.76867 0.64825
 C235 C -0.01622 0.75039 0.63815
 C236 C -0.00385 0.72623 0.66299
 H237 H 0.07704 0.70243 0.67755
 H238 H 0.09630 0.75072 0.63932
 H239 H 0.04126 0.82238 0.70264
 H240 H 0.02248 0.77400 0.74092
 H241 H 0.02521 0.63331 0.72674
 H242 H 0.06132 0.58828 0.74378
 H243 H 0.08467 0.71242 0.76793
 H244 H 0.01209 0.69465 0.80485
 H245 H -0.01391 0.65764 0.84989
 H246 H -0.07271 0.62391 0.76110
 H247 H -0.04555 0.66031 0.71588
 H248 H -0.05101 0.73658 0.73789
 H249 H -0.07580 0.77466 0.69187
 H250 H -0.00608 0.75369 0.61047
 H251 H 0.01528 0.71149 0.65360
 H252 H 0.12144 0.66745 0.78210
 C253 C 1.00487 0.70602 0.30319
 C254 C 0.97491 0.70929 0.29853
 C255 C 0.95683 0.73237 0.32321
 C256 C 0.95913 0.69149 0.26743
 C257 C 1.02177 0.67659 0.28542
 C258 C 1.02123 0.73353 0.32404
 C259 C 0.95698 0.72808 0.36273
 C260 C 0.94042 0.75042 0.38585
 C261 C 0.92396 0.77771 0.36979
 C262 C 0.92337 0.78147 0.33020
 C263 C 0.93942 0.75876 0.30712
 C264 C 0.93376 0.67150 0.27524
 C265 C 0.91982 0.65330 0.24632
 C266 C 0.93067 0.65527 0.20896
 C267 C 0.95555 0.67625 0.20102
 C268 C 0.96958 0.69427 0.22998
 C269 C 1.04990 0.68172 0.26871
 C270 C 1.06370 0.65487 0.24817
 C271 C 1.04897 0.62302 0.24246
 C272 C 1.02171 0.61737 0.26123
 C273 C 1.00900 0.64325 0.28356
 C274 C 1.01674 0.76870 0.31449
 C275 C 1.02912 0.79515 0.33601
 C276 C 1.04717 0.78723 0.36727
 C277 C 1.05311 0.75184 0.37539
 C278 C 1.04014 0.72525 0.35407
 H279 H 0.97005 0.70756 0.37559
 H280 H 0.94118 0.74704 0.41628
 H281 H 0.91048 0.80197 0.31704
 H282 H 0.93887 0.76232 0.27670
 H283 H 0.92526 0.66924 0.30392
 H284 H 0.90062 0.63747 0.25324
 H285 H 0.98888 0.71002 0.22332
 H286 H 1.06074 0.70682 0.27034
 H287 H 1.08500 0.65989 0.23479
 H288 H 1.01032 0.59264 0.25955
 H289 H 0.98837 0.63755 0.29824
 H290 H 1.00296 0.77572 0.29067
 H291 H 1.02444 0.82170 0.32765
 H292 H 1.06714 0.74459 0.39888
 H293 H 1.04417 0.69829 0.36169
 H294 H 0.96468 0.67828 0.17269
 C295 C 1.00877 0.30005 0.68009
 C296 C 0.98009 0.31079 0.67708
 C297 C 0.95723 0.29147 0.65539
 C298 C 0.96974 0.34437 0.69258
 C299 C 1.03176 0.31978 0.70132
 C300 C 1.01972 0.26884 0.65976
 C301 C 0.96138 0.28293 0.61705
 C302 C 0.93811 0.26856 0.59630
 C303 C 0.91003 0.26390 0.61308
 C304 C 0.90596 0.27216 0.65137
 C305 C 0.92936 0.28554 0.67233
 C306 C 0.96080 0.37028 0.66706
 C307 C 0.94730 0.40056 0.67997
 C308 C 0.94206 0.40547 0.71885
 C309 C 0.95165 0.37977 0.74460
 C310 C 0.96556 0.34939 0.73154
 C311 C 1.05136 0.30117 0.72473
 C312 C 1.07585 0.31757 0.74062
 C313 C 1.08085 0.35314 0.73424
 C314 C 1.06087 0.37226 0.71211
 C315 C 1.03688 0.35557 0.69505
 C316 C 1.00812 0.23547 0.66678
 C317 C 1.01929 0.20665 0.64710
 C318 C 1.04237 0.21082 0.62017
 C319 C 1.05387 0.24445 0.61369
 C320 C 1.04275 0.27298 0.63330
 H321 H 0.98224 0.28839 0.60282
 H322 H 0.94165 0.26253 0.56671
 H323 H 0.88463 0.26839 0.66512
 H324 H 0.92549 0.29217 0.70170
 H325 H 0.96362 0.36657 0.63687
 H326 H 0.93993 0.41927 0.65908
 H327 H 0.97200 0.32932 0.75153
 H328 H 1.04822 0.27352 0.72969
 H329 H 1.09113 0.30241 0.75756
 H330 H 1.06474 0.39966 0.70643
 H331 H 1.02323 0.37036 0.67573
 H332 H 0.99053 0.23178 0.68748
 H333 H 1.00975 0.18137 0.65317
 H334 H 1.07160 0.24896 0.59335
 H335 H 1.05202 0.29855 0.62759
 H336 H 0.94781 0.38285 0.77468
 C337 C 0.32418 -0.01755 0.32391
 C338 C 0.32745 0.01757 0.32302
 C339 C 0.35616 0.03446 0.31422
 C340 C 0.30284 0.04100 0.33338
 C341 C 0.29588 -0.03445 0.33536
 C342 C 0.34852 -0.04179 0.31345
 C343 C 0.37993 0.03146 0.33933
 C344 C 0.40636 0.04947 0.33219
 C345 C 0.40945 0.07046 0.29959
 C346 C 0.38583 0.07268 0.27408
 C347 C 0.35925 0.05519 0.28160
 C348 C 0.30005 0.05246 0.37077
 C349 C 0.27681 0.07450 0.38107
 C350 C 0.25695 0.08668 0.35371
 C351 C 0.26025 0.07610 0.31597
 C352 C 0.28290 0.05292 0.30594
 C353 C 0.28232 -0.05772 0.31042
 C354 C 0.25985 -0.07998 0.32325
 C355 C 0.25047 -0.07913 0.36121
 C356 C 0.26281 -0.05442 0.38556
 C357 C 0.28569 -0.03265 0.37291
 C358 C 0.36312 -0.03906 0.27837
 C359 C 0.38286 -0.06500 0.26676
 C360 C 0.38767 -0.09480 0.28945
 C361 C 0.37363 -0.09683 0.32514
 C362 C 0.35444 -0.07053 0.33699
 H363 H 0.37777 0.01569 0.36476
 H364 H 0.42432 0.04689 0.35211
 H365 H 0.38766 0.08867 0.24879
 H366 H 0.34107 0.05781 0.26197
 H367 H 0.31570 0.04398 0.39203
 H368 H 0.27467 0.08266 0.41025
 H369 H 0.28506 0.04448 0.27687
 H370 H 0.29023 -0.05985 0.28149
 H371 H 0.25046 -0.09849 0.30375
 H372 H 0.25611 -0.05347 0.41504
 H373 H 0.29668 -0.01616 0.39309
 H374 H 0.35833 -0.01768 0.25924
 H375 H 0.39328 -0.06238 0.23915
 H376 H 0.37703 -0.11873 0.34401
 H377 H 0.34341 -0.07315 0.36422
 H378 H 0.24503 0.08525 0.29455
 C379 C 0.68038 -0.00365 0.70567
 C380 C 0.68367 0.03060 0.69545
 C381 C 0.66095 0.05769 0.70526
 C382 C 0.71083 0.04256 0.67480
 C383 C 0.70116 -0.03147 0.69250
 C384 C 0.65624 -0.01545 0.73153
 C385 C 0.63034 0.05150 0.70116
 C386 C 0.60945 0.07655 0.71222
 C387 C 0.61873 0.10899 0.72567
 C388 C 0.64922 0.11591 0.72817
 C389 C 0.67008 0.09043 0.71841
 C390 C 0.70840 0.06077 0.64041
 C391 C 0.73384 0.07017 0.61978
 C392 C 0.76221 0.06157 0.63317
 C393 C 0.76459 0.04447 0.66837
 C394 C 0.73917 0.03531 0.68907
 C395 C 0.71213 -0.05606 0.71857
 C396 C 0.73050 -0.08324 0.70658
 C397 C 0.73861 -0.08614 0.66830
 C398 C 0.72790 -0.06147 0.64223
 C399 C 0.70891 -0.03479 0.65408
 C400 C 0.65359 -0.00210 0.76822
 C401 C 0.63227 -0.01547 0.79336
 C402 C 0.61318 -0.04261 0.78224
 C403 C 0.61570 -0.05530 0.74507
 C404 C 0.63713 -0.04207 0.72016
 H405 H 0.62251 0.02722 0.68952
 H406 H 0.58604 0.07085 0.70960
 H407 H 0.65693 0.14072 0.73864
 H408 H 0.69343 0.09619 0.72163
 H409 H 0.68676 0.06692 0.62907
 H410 H 0.73127 0.08357 0.59294
 H411 H 0.74158 0.02202 0.71601
 H412 H 0.70642 -0.05424 0.74832
 H413 H 0.73866 -0.10169 0.72734
 H414 H 0.73365 -0.06336 0.61249
 H415 H 0.70008 -0.01692 0.63318
 H416 H 0.66846 0.01817 0.77761
 H417 H 0.63120 -0.00458 0.82144
 H418 H 0.60148 -0.07605 0.73527
 H419 H 0.63900 -0.05280 0.69197
 H420 H 0.78601 0.03811 0.68010
 C421 C 0.31697 1.02856 0.67781
 C422 C 0.31875 0.99351 0.68335
 C423 C 0.34001 0.97866 0.71080
 C424 C 0.30019 0.96795 0.66282
 C425 C 0.29252 1.04567 0.65686
 C426 C 0.33991 1.05277 0.69234
 C427 C 0.37036 0.97577 0.70223
 C428 C 0.38992 0.96227 0.72921
 C429 C 0.37944 0.95239 0.76528
 C430 C 0.34901 0.95522 0.77357
 C431 C 0.32943 0.96781 0.74636
 C432 C 0.31445 0.94035 0.64419
 C433 C 0.29814 0.91531 0.62512
 C434 C 0.26710 0.91740 0.62388
 C435 C 0.25264 0.94505 0.64224
 C436 C 0.26903 0.96982 0.66221
 C437 C 0.27615 1.07149 0.67560
 C438 C 0.25592 1.09204 0.65603
 C439 C 0.25139 1.08701 0.61726
 C440 C 0.26657 1.06001 0.59866
 C441 C 0.28743 1.03972 0.61825
 C442 C 0.34584 1.05594 0.73115
 C443 C 0.36679 1.08010 0.74361
 C444 C 0.38119 1.10234 0.71763
 C445 C 0.37502 1.09936 0.67895
 C446 C 0.35473 1.07470 0.66646
 H447 H 0.37879 0.98397 0.67479
 H448 H 0.41328 0.96011 0.72219
 H449 H 0.34024 0.94716 0.80087
 H450 H 0.30603 0.96978 0.75325
 H451 H 0.33840 0.93826 0.64417
 H452 H 0.30993 0.89457 0.61079
 H453 H 0.25739 0.99024 0.67723
 H454 H 0.27981 1.07654 0.70533
 H455 H 0.24423 1.11242 0.67108
 H456 H 0.26348 1.05589 0.56868
 H457 H 0.30022 1.02034 0.60311
 H458 H 0.33393 1.04028 0.75181
 H459 H 0.37103 1.08222 0.77362
 H460 H 0.38603 1.11596 0.65829
 H461 H 0.35033 1.07290 0.63645
 H462 H 0.22868 0.94701 0.64185
 C463 C 0.68875 0.98229 0.31222
 C464 C 0.68092 0.94928 0.32258
 C465 C 0.65370 0.93223 0.30801
 C466 C 0.69901 0.92774 0.34886
 C467 C 0.71643 0.99883 0.32553
 C468 C 0.66946 1.00336 0.28742
 C469 C 0.63394 0.91632 0.33373
 C470 C 0.61064 0.89582 0.32081
 C471 C 0.60640 0.89132 0.28188
 C472 C 0.62532 0.90836 0.25604
 C473 C 0.64918 0.92807 0.26900
 C474 C 0.70729 0.93993 0.38467
 C475 C 0.72255 0.91810 0.40972
 C476 C 0.72870 0.88348 0.39986
 C477 C 0.72050 0.87140 0.36409
 C478 C 0.70599 0.89338 0.33878
 C479 C 0.74413 0.98314 0.31925
 C480 C 0.76975 0.99732 0.33493
 C481 C 0.76819 1.02769 0.35714
 C482 C 0.74042 1.04405 0.36184
 C483 C 0.71489 1.02985 0.34609
 C484 C 0.67742 1.00849 0.24935
 C485 C 0.65750 1.02417 0.22444
 C486 C 0.62989 1.03611 0.23769
 C487 C 0.62274 1.03292 0.27628
 C488 C 0.64225 1.01614 0.30094
 H489 H 0.63715 0.91888 0.36393
 H490 H 0.59615 0.88314 0.34126
 H491 H 0.62258 0.90489 0.22589
 H492 H 0.66477 0.93876 0.24860
 H493 H 0.70145 0.96601 0.39352
 H494 H 0.72864 0.92785 0.43726
 H495 H 0.69979 0.88338 0.31138
 H496 H 0.74578 0.95944 0.30290
 H497 H 0.79048 0.98389 0.32998
 H498 H 0.73820 1.06759 0.37836
 H499 H 0.69372 1.04245 0.35107
 H500 H 0.69841 0.99876 0.23863
 H501 H 0.66352 1.02677 0.19482
 H502 H 0.60154 1.04204 0.28697
 H503 H 0.63592 1.01240 0.33033
 H504 H 0.72544 0.84496 0.35557
 O505 O 0.82049 0.87504 0.57247
 O506 O 0.86527 0.86011 0.48794
 O507 O 0.81163 0.86687 0.50226
 O508 O 0.87885 0.85739 0.56084
 O509 O 0.86904 0.80149 0.56900
 O510 O 0.80446 0.81011 0.50817
 O511 O 0.86081 0.80308 0.49529
 O512 O 0.81345 0.81845 0.58014
 Cu513 Cu 0.84573 0.87022 0.53191
 Cu514 Cu 0.83631 0.80270 0.53907
 C515 C 0.80846 0.84978 0.58996
 C516 C 0.87019 0.82943 0.47650
 C517 C 0.79714 0.83945 0.49445
 C518 C 0.88554 0.82756 0.57423
 O519 O 0.16624 0.11001 0.51661
 O520 O 0.10825 0.12233 0.44389
 O521 O 0.16539 0.11039 0.44310
 O522 O 0.10878 0.12080 0.51797
 O523 O 0.11766 0.17742 0.51810
 O524 O 0.17231 0.16740 0.44128
 O525 O 0.11630 0.17911 0.44524
 O526 O 0.17439 0.16676 0.51529
 Cu527 Cu 0.13632 0.11009 0.48042
 Cu528 Cu 0.14612 0.17832 0.48010
 C529 C 0.18012 0.13661 0.52823
 C530 C 0.10253 0.15308 0.43236
 C531 C 0.17808 0.13709 0.42913
 C532 C 0.10368 0.15106 0.53077
 O533 O 0.16981 0.88984 0.46343
 O534 O 0.11980 0.87715 0.54474
 O535 O 0.17631 0.88835 0.53618
 O536 O 0.11397 0.87445 0.47081
 O537 O 0.12256 0.81776 0.47143
 O538 O 0.18618 0.83202 0.53348
 O539 O 0.12996 0.82082 0.54482
 O540 O 0.17769 0.83305 0.46063
 Cu541 Cu 0.14381 0.88809 0.50392
 Cu542 Cu 0.15497 0.82021 0.50268
 C543 C 0.18195 0.86372 0.44793
 C544 C 0.11694 0.84701 0.55920
 C545 C 0.19211 0.86229 0.54549
 C546 C 0.10801 0.84382 0.45956
 O547 O 0.87257 0.17478 0.51313
 O548 O 0.85290 0.10447 0.44787
 O549 O 0.87200 0.16843 0.43986
 O550 O 0.85055 0.11261 0.52132
 O551 O 0.80475 0.13293 0.51841
 O552 O 0.82566 0.18683 0.43610
 O553 O 0.80674 0.12370 0.44572
 O554 O 0.82672 0.19494 0.51010
 Cu555 Cu 0.86660 0.13804 0.48075
 Cu556 Cu 0.81143 0.16180 0.47724
 C557 C 0.85291 0.19656 0.52309
 C558 C 0.82656 0.10202 0.43577
 C559 C 0.85217 0.18667 0.42378
 C560 C 0.82402 0.11357 0.53387
 O561 O 0.46647 0.87361 0.85433
 O562 O 0.52336 0.80502 0.86308
 O563 O 0.52384 0.87303 0.85919
 O564 O 0.46517 0.80661 0.86034
 O565 O 0.46653 0.80451 0.79788
 O566 O 0.52771 0.86822 0.79709
 O567 O 0.52435 0.79977 0.80088
 O568 O 0.47009 0.87107 0.79199
 Cu569 Cu 0.49464 0.83978 0.86552
 Cu570 Cu 0.49779 0.83543 0.79069
 C571 C 0.45842 0.88374 0.82167
 C572 C 0.53319 0.79037 0.83340
 C573 C 0.53566 0.88205 0.82794
 C574 C 0.45507 0.79531 0.82937
 O575 O 0.52787 0.15922 0.11987
 O576 O 0.48107 0.12577 0.19777
 O577 O 0.47862 0.17993 0.15181
 O578 O 0.53029 0.10651 0.16433
 O579 O 0.55593 0.13739 0.20525
 O580 O 0.50337 0.21003 0.19418
 O581 O 0.50745 0.15564 0.23872
 O582 O 0.55294 0.19109 0.16041
 Cu583 Cu 0.50159 0.13989 0.15444
 Cu584 Cu 0.53236 0.17692 0.20369
 C585 C 0.54876 0.18024 0.12702
 C586 C 0.48676 0.13434 0.23157
 C587 C 0.48215 0.20739 0.17102
 C588 C 0.55214 0.10972 0.18646
 O589 O 0.52467 0.13633 0.80871
 O590 O 0.46838 0.14939 0.88361
 O591 O 0.46667 0.13543 0.81130
 O592 O 0.52659 0.15182 0.87916
 O593 O 0.52387 0.20828 0.86689
 O594 O 0.46617 0.19146 0.79661
 O595 O 0.46547 0.20536 0.86923
 O596 O 0.52398 0.19286 0.79639
 Cu597 Cu 0.49644 0.13763 0.84725
 Cu598 Cu 0.49439 0.20515 0.83103
 C599 C 0.53466 0.16263 0.79071
 C600 C 0.45714 0.17932 0.88903
 C601 C 0.45668 0.16071 0.79186
 C602 C 0.53605 0.18270 0.88357
 O603 O 0.46068 0.85547 0.11613
 O604 O 0.52054 0.86659 0.18540
 O605 O 0.51877 0.85488 0.11327
 O606 O 0.46326 0.86909 0.18788
 O607 O 0.46247 0.81267 0.20102
 O608 O 0.51784 0.79836 0.12564
 O609 O 0.51898 0.81011 0.19810
 O610 O 0.45950 0.79907 0.12901
 Cu611 Cu 0.49087 0.86716 0.14912
 Cu612 Cu 0.48958 0.79921 0.16421
 C613 C 0.44963 0.82541 0.11127
 C614 C 0.52944 0.84024 0.20410
 C615 C 0.52817 0.82427 0.10726
 C616 C 0.45394 0.84358 0.20765
 O617 O 0.88747 0.52339 0.87368
 O618 O 0.83127 0.45440 0.86518
 O619 O 0.88158 0.46920 0.82975
 O620 O 0.83636 0.50877 0.90620
 O621 O 0.81334 0.54089 0.86337
 O622 O 0.85802 0.50202 0.78808
 O623 O 0.80813 0.48607 0.82209
 O624 O 0.86431 0.55494 0.83050
 Cu625 Cu 0.86176 0.48571 0.87289
 Cu626 Cu 0.83356 0.52415 0.82181
 C627 C 0.88571 0.55057 0.85312
 C628 C 0.80966 0.45904 0.84298
 C629 C 0.87774 0.47965 0.79591
 C630 C 0.81659 0.53094 0.89736
 O631 O 0.18702 0.46774 0.14992
 O632 O 0.12059 0.52371 0.15743
 O633 O 0.16911 0.52211 0.11417
 O634 O 0.13805 0.46719 0.18965
 O635 O 0.15864 0.50098 0.23242
 O636 O 0.19230 0.55469 0.15581
 O637 O 0.14330 0.55786 0.19799
 O638 O 0.20844 0.50005 0.19335
 Cu639 Cu 0.15135 0.49226 0.14837
 Cu640 Cu 0.17784 0.53182 0.19906
 C641 C 0.20925 0.47480 0.17032
 C642 C 0.12024 0.54937 0.18002
 C643 C 0.18731 0.54618 0.12177
 C644 C 0.14236 0.47517 0.22387
 O645 O 0.87168 0.48759 0.11738
 O646 O 0.80741 0.54726 0.11181
 O647 O 0.86450 0.55487 0.11721
 O648 O 0.81464 0.47964 0.10723
 O649 O 0.81073 0.47575 0.16949
 O650 O 0.85894 0.55239 0.17936
 O651 O 0.80184 0.54313 0.17385
 O652 O 0.86651 0.48542 0.17961
 Cu653 Cu 0.83998 0.51762 0.10713
 Cu654 Cu 0.83378 0.51404 0.18178
 C655 C 0.88000 0.47645 0.14960
 C656 C 0.79378 0.55535 0.14213
 C657 C 0.87019 0.56641 0.14990
 C658 C 0.80482 0.46437 0.13673
 O659 O 0.12901 0.44237 0.82755
 O660 O 0.15636 0.50642 0.89590
 O661 O 0.13091 0.51027 0.83106
 O662 O 0.15598 0.43830 0.89290
 O663 O 0.20054 0.44061 0.86649
 O664 O 0.17439 0.50918 0.80169
 O665 O 0.19968 0.50823 0.86615
 O666 O 0.17354 0.44051 0.80105
 Cu667 Cu 0.13865 0.47401 0.86472
 Cu668 Cu 0.19137 0.47429 0.83072
 C669 C 0.14678 0.43019 0.80297
 C670 C 0.18223 0.51908 0.89188
 C671 C 0.14883 0.52248 0.80641
 C672 C 0.18267 0.42772 0.89070
 C673 C 0.26967 0.42298 0.14178
 C674 C 0.28343 0.44040 0.17083
 C675 C 0.26214 0.46107 0.18643
 C676 C 0.23689 0.45481 0.16588
 O677 O 0.24129 0.43156 0.13885
 H678 H 0.30633 0.43848 0.17951
 H679 H 0.26487 0.47929 0.20937
 C680 C 0.73645 0.61364 0.11950
 C681 C 0.72934 0.60907 0.15731
 C682 C 0.75021 0.58675 0.17104
 C683 C 0.76835 0.57920 0.14058
 O684 O 0.76018 0.59555 0.10932
 H685 H 0.71122 0.62066 0.17307
 H686 H 0.75188 0.57691 0.19972
 C687 C 0.75305 0.39980 0.86544
 C688 C 0.74227 0.41085 0.83086
 C689 C 0.76303 0.43329 0.81669
 C690 C 0.78505 0.43408 0.84342
 O691 O 0.77918 0.41369 0.87291
 H692 H 0.72140 0.40421 0.81790
 H693 H 0.76174 0.44834 0.79074
 C694 C 0.21548 0.59090 0.93520
 C695 C 0.19090 0.58840 0.95877
 C696 C 0.17542 0.56033 0.94630
 C697 C 0.19173 0.54767 0.91625
 O698 O 0.21607 0.56598 0.90954
 H699 H 0.18491 0.60481 0.98239
 H700 H 0.15457 0.55055 0.95742
 C701 C 0.05356 0.18857 0.36623
 C702 C 0.04618 0.15403 0.36039
 C703 C 0.06348 0.13527 0.38486
 C704 C 0.08001 0.15979 0.40360
 O705 O 0.07401 0.19183 0.39241
 H706 H 0.03017 0.14362 0.34089
 H707 H 0.06408 0.10725 0.38845
 C708 C 0.07923 0.81832 0.64079
 C709 C 0.07101 0.85302 0.64272
 C710 C 0.08390 0.86861 0.61193
 C711 C 0.09890 0.84234 0.59352
 O712 O 0.09616 0.81196 0.61087
 H713 H 0.05729 0.86569 0.66376
 H714 H 0.08263 0.89584 0.60394
 C715 C 0.90845 0.80306 0.39422
 C716 C 0.90492 0.83779 0.38493
 C717 C 0.89056 0.85212 0.41496
 C718 C 0.88614 0.82512 0.44035
 O719 O 0.89708 0.79522 0.42799
 H720 H 0.91239 0.85122 0.35956
 H721 H 0.88383 0.87905 0.41792
 C722 C 0.88487 0.25128 0.59052
 C723 C 0.85584 0.26200 0.59530
 C724 C 0.83997 0.24380 0.56945
 C725 C 0.86045 0.22315 0.55104
 O726 O 0.88773 0.22773 0.56359
 H727 H 0.84728 0.28083 0.61527
 H728 H 0.81623 0.24473 0.56522
 C729 C 0.43681 0.09062 0.29211
 C730 C 0.45609 0.10210 0.31949
 C731 C 0.47729 0.12067 0.30041
 C732 C 0.46949 0.11894 0.26285
 O733 O 0.44494 0.10086 0.25771
 H734 H 0.45462 0.09805 0.34978
 H735 H 0.49628 0.13367 0.31237
 C736 C 0.59668 0.13537 0.73756
 C737 C 0.59953 0.17071 0.73104
 C738 C 0.57559 0.18557 0.74843
 C739 C 0.56002 0.15825 0.76458
 O740 O 0.57270 0.12772 0.75791
 H741 H 0.61720 0.18404 0.71593
 H742 H 0.57073 0.21311 0.75046
 C743 C 0.40000 0.93831 0.79386
 C744 C 0.39647 0.94202 0.83248
 C745 C 0.41889 0.92318 0.84821
 C746 C 0.43436 0.90931 0.81805
 O747 O 0.42308 0.91856 0.78504
 H748 H 0.37934 0.95629 0.84740
 H749 H 0.42289 0.91907 0.87806
 C750 C 0.58353 0.86724 0.26820
 C751 C 0.57632 0.83606 0.28566
 C752 C 0.55555 0.82128 0.26317
 C753 C 0.55143 0.84471 0.23394
 O754 O 0.56845 0.87259 0.23675
 H755 H 0.58550 0.82516 0.31133
 H756 H 0.54435 0.79666 0.26781
 C757 C 0.40053 0.20569 0.95265
 C758 C 0.40415 0.17170 0.96564
 C759 C 0.42576 0.15753 0.94341
 C760 C 0.43409 0.18354 0.91852
 O761 O 0.41889 0.21269 0.92389
 H762 H 0.39266 0.15822 0.98836
 H763 H 0.43449 0.13130 0.94521
 C764 C 0.58705 0.72885 0.85975
 C765 C 0.58060 0.71512 0.82481
 C766 C 0.55986 0.73695 0.80970
 C767 C 0.55491 0.76200 0.83683
 O768 O 0.57144 0.75726 0.86715
 H769 H 0.59015 0.69224 0.81176
 H770 H 0.54926 0.73462 0.78249
 C771 C 0.38988 0.79719 0.05617
 C772 C 0.38974 0.83191 0.04492
 C773 C 0.41241 0.84719 0.06391
 C774 C 0.42479 0.82091 0.08524
 O775 O 0.41128 0.79070 0.08069
 H776 H 0.37510 0.84501 0.02537
 H777 H 0.41903 0.87427 0.06251
 C778 C 0.60445 0.21481 0.06798
 C779 C 0.59440 0.18950 0.04373
 C780 C 0.57125 0.17403 0.06222
 C781 C 0.56910 0.19086 0.09648
 O782 O 0.58911 0.21578 0.10004
 H783 H 0.60282 0.18332 0.01583
 H784 H 0.55801 0.15247 0.05236
 C785 C 0.23277 0.11193 0.59615
 C786 C 0.23256 0.14728 0.60306
 C787 C 0.21316 0.16107 0.57790
 C788 C 0.20271 0.13315 0.55767
 O789 O 0.21467 0.10317 0.56846
 H790 H 0.24532 0.16134 0.62375
 H791 H 0.20703 0.18822 0.57494
 C792 C 0.79324 0.04150 0.37525
 C793 C 0.82181 0.02811 0.37382
 C794 C 0.83830 0.04917 0.39635
 C795 C 0.81876 0.07381 0.40986
 O796 O 0.79158 0.06932 0.39716
 H797 H 0.83000 0.00567 0.35865
 H798 H 0.86171 0.04677 0.40234
 C799 C 0.75802 0.88530 0.65510
 C800 C 0.75970 0.85245 0.67127
 C801 C 0.77899 0.83423 0.64887
 C802 C 0.78787 0.85748 0.62113
 O803 O 0.77514 0.88831 0.62472
 H804 H 0.74772 0.84267 0.69580
 H805 H 0.78574 0.80733 0.65228
 C806 C 0.22972 0.89456 0.37667
 C807 C 0.22666 0.86104 0.36320
 C808 C 0.20819 0.84461 0.38836
 C809 C 0.20121 0.86943 0.41496
 O810 O 0.21422 0.89963 0.40805
 H811 H 0.23752 0.84950 0.33891
 H812 H 0.20085 0.81778 0.38761
 C813 C 0.10798 0.36959 0.74847
 C814 C 0.13623 0.35806 0.74003
 C815 C 0.15475 0.38018 0.75838
 C816 C 0.13634 0.40317 0.77709
 O817 O 0.10790 0.39692 0.77103
 H818 H 0.14247 0.33621 0.72248
 H819 H 0.17873 0.37915 0.75893
 C820 C 0.06105 0.59743 0.21843
 C821 C 0.04484 0.57123 0.20156
 C822 C 0.06488 0.55185 0.18188
 C823 C 0.09199 0.56701 0.18851
 O824 O 0.08978 0.59491 0.21031
 H825 H 0.02119 0.56663 0.20314
 H826 H 0.06048 0.52813 0.16654
 C827 C 0.93474 0.41620 0.17662
 C828 C 0.94313 0.41956 0.13889
 C829 C 0.92380 0.44298 0.12348
 C830 C 0.90519 0.45238 0.15275
 O831 O 0.91174 0.43635 0.18482
 H832 H 0.96075 0.40634 0.12381
 H833 H 0.92318 0.45190 0.09437
 C834 C 0.93962 0.61442 0.83451
 C835 C 0.94804 0.60631 0.87121
 C836 C 0.92853 0.58145 0.88355
 C837 C 0.90938 0.57666 0.85397
 O838 O 0.91598 0.59644 0.82434
 H839 H 0.96671 0.61603 0.88693
 H840 H 0.92854 0.56805 0.91060
 C841 C 0.75900 0.56992 0.94875
 C842 C 0.76917 0.54849 0.97745
 C843 C 0.79329 0.53174 0.96258
 C844 C 0.79590 0.54419 0.92602
 O845 O 0.77527 0.56736 0.91765
 H846 H 0.76021 0.54552 1.00580
 H847 H 0.80681 0.51217 0.97634
 C848 C 0.22173 0.36686 0.94594
 C849 C 0.19339 0.35629 0.95585
 C850 C 0.17481 0.37809 0.93674
 C851 C 0.19313 0.40009 0.91631
 O852 O 0.22159 0.39350 0.92193
 H853 H 0.18701 0.33567 0.97531
 H854 H 0.15080 0.37787 0.93742
 C855 C 0.24018 0.58708 0.06318
 C856 C 0.23228 0.56016 0.03947
 C857 C 0.20937 0.54372 0.05709
 C858 C 0.20518 0.56110 0.09071
 O859 O 0.22358 0.58779 0.09439
 H860 H 0.24167 0.55349 0.01217
 H861 H 0.19822 0.52043 0.04762
 C862 C 0.76370 0.39102 0.10935
 C863 C 0.77109 0.38006 0.14555
 C864 C 0.78630 0.40693 0.16099
 C865 C 0.78762 0.43214 0.13317
 O866 O 0.77384 0.42282 0.10189
 H867 H 0.76563 0.35581 0.15972
 H868 H 0.79602 0.40769 0.18886
 C869 C 0.94554 0.79317 0.62332
 C870 C 0.96124 0.81199 0.59624
 C871 C 0.94057 0.83099 0.57720
 C872 C 0.91377 0.82180 0.59334
 O873 O 0.91668 0.79915 0.62149
 H874 H 0.98490 0.81174 0.59072
 H875 H 0.94430 0.84719 0.55242
 C876 C 0.88422 0.23566 0.34950
 C877 C 0.85628 0.23140 0.33417
 C878 C 0.84035 0.21325 0.36065
 C879 C 0.85973 0.20710 0.38981
 O880 O 0.88625 0.22066 0.38332
 H881 H 0.84792 0.24111 0.30752
 H882 H 0.81748 0.20498 0.35872
 C883 C 0.05431 0.18280 0.59958
 C884 C 0.04606 0.14807 0.60230
 C885 C 0.06369 0.13094 0.57679
 C886 C 0.08128 0.15638 0.56050
 O887 O 0.07567 0.18755 0.57418
 H888 H 0.02932 0.13632 0.62038
 H889 H 0.06364 0.10335 0.57069
 C890 C 0.05914 0.81377 0.38998
 C891 C 0.05264 0.84905 0.38714
 C892 C 0.06935 0.86490 0.41391
 C893 C 0.08489 0.83844 0.43118
 O894 O 0.07872 0.80748 0.41696
 H895 H 0.03760 0.86217 0.36812
 H896 H 0.07059 0.89253 0.41957
 C897 C 0.59233 0.94227 0.80727
 C898 C 0.58845 0.95036 0.84517
 C899 C 0.56669 0.92858 0.85814
 C900 C 0.55874 0.90896 0.82739
 O901 O 0.57413 0.91714 0.79664
 H902 H 0.60006 0.96938 0.86187
 H903 H 0.55764 0.92720 0.88659
 C904 C 0.40546 0.87800 0.27560
 C905 C 0.40899 0.84534 0.29206
 C906 C 0.42717 0.82743 0.26805
 C907 C 0.43356 0.85044 0.23907
 O908 O 0.42051 0.88090 0.24347
 H909 H 0.39931 0.83522 0.31798
 H910 H 0.43518 0.80102 0.27153
 C911 C 0.60801 0.05068 0.21132
 C912 C 0.60194 0.03713 0.17617
 C913 C 0.57935 0.05701 0.16239
 C914 C 0.57372 0.08140 0.18998
 O915 O 0.59095 0.07758 0.21976
 H916 H 0.61235 0.01501 0.16263
 H917 H 0.56862 0.05447 0.13529
 C918 C 0.40204 0.12911 0.73091
 C919 C 0.40584 0.16139 0.71405
 C920 C 0.42656 0.17787 0.73522
 C921 C 0.43405 0.15432 0.76318
 O922 O 0.41914 0.12476 0.76081
 H923 H 0.39459 0.17184 0.68954
 H924 H 0.43543 0.20376 0.73061
 C925 C 0.58666 0.79413 0.05072
 C926 C 0.59014 0.82916 0.04280
 C927 C 0.56755 0.84528 0.06166
 C928 C 0.55220 0.81884 0.07981
 O929 O 0.56363 0.78780 0.07308
 H930 H 0.60734 0.84147 0.02585
 H931 H 0.56341 0.87302 0.06319
 C932 C 0.42664 0.26695 0.14572
 C933 C 0.43391 0.28167 0.17987
 C934 C 0.45659 0.26184 0.19347
 C935 C 0.46103 0.23622 0.16685
 O936 O 0.44297 0.23930 0.13772
 H937 H 0.42384 0.30414 0.19314
 H938 H 0.46798 0.26505 0.22003
 C939 C 0.60085 0.21390 0.92521
 C940 C 0.60545 0.17895 0.93248
 C941 C 0.58059 0.16259 0.92008
 C942 C 0.56280 0.18878 0.90591
 O943 O 0.57496 0.21996 0.90918
 H944 H 0.62479 0.16685 0.94489
 H945 H 0.57653 0.13481 0.91971
 C946 C 0.39202 0.74566 0.85166
 C947 C 0.38838 0.74637 0.81292
 C948 C 0.41250 0.76383 0.79892
 C949 C 0.42888 0.77263 0.83020
 O950 O 0.41658 0.76155 0.86215
 H951 H 0.37029 0.73562 0.79684
 H952 H 0.41710 0.77038 0.76962
 C953 C 0.74333 0.85983 0.42687
 C954 C 0.73791 0.82449 0.42938
 C955 C 0.75671 0.81238 0.45632
 C956 C 0.77225 0.84119 0.46813
 O957 O 0.76410 0.87010 0.45050
 H958 H 0.72229 0.80933 0.41329
 H959 H 0.75937 0.78561 0.46552
 C960 C 0.25006 0.89062 0.60358
 C961 C 0.25876 0.85625 0.60026
 C962 C 0.23775 0.84093 0.57861
 C963 C 0.21785 0.86705 0.57011
 O964 O 0.22511 0.89725 0.58536
 H965 H 0.27812 0.84382 0.61221
 H966 H 0.23722 0.81405 0.56959
 C967 C 0.23291 0.11022 0.36520
 C968 C 0.22552 0.14079 0.34680
 C969 C 0.20404 0.15566 0.36890
 C970 C 0.19974 0.13261 0.39856
 O971 O 0.21726 0.10515 0.39650
 H972 H 0.23524 0.15136 0.32107
 H973 H 0.19268 0.18009 0.36389
 C974 C 0.78886 0.07037 0.61003
 C975 C 0.81716 0.05745 0.61573
 C976 C 0.83429 0.07177 0.58766
 C977 C 0.81529 0.09235 0.56692
 O978 O 0.78780 0.09151 0.58030
 H979 H 0.82454 0.03940 0.63732
 H980 H 0.85778 0.06774 0.58289
 C981 C 0.91634 0.63449 0.17911
 C982 C 0.92101 0.63834 0.14057
 C983 C 0.90398 0.61339 0.12421
 C984 C 0.89023 0.59620 0.15389
 O985 O 0.89759 0.60893 0.18711
 H986 H 0.93500 0.65702 0.12591
 H987 H 0.90196 0.60819 0.09428
 C988 C 0.92495 0.43608 0.73211
 C989 C 0.91864 0.46502 0.71003
 C990 C 0.90017 0.48491 0.73132
 C991 C 0.89671 0.46705 0.76499
 O992 O 0.91184 0.43750 0.76583
 H993 H 0.92619 0.47106 0.68161
 H994 H 0.89034 0.50960 0.72329
 C995 C 0.11762 0.59841 0.76791
 C996 C 0.14574 0.60223 0.75281
 C997 C 0.16072 0.57304 0.76352
 C998 C 0.14069 0.55375 0.78468
 O999 O 0.11440 0.56900 0.78728
 H1000 H 0.15429 0.62391 0.73628
 H1001 H 0.18383 0.56718 0.75794
 C1002 C 0.09579 0.42084 0.27773
 C1003 C 0.10458 0.44225 0.30680
 C1004 C 0.12478 0.46461 0.29096
 C1005 C 0.12664 0.45526 0.25342
 O1006 O 0.10921 0.42868 0.24538
 H1007 H 0.09687 0.44193 0.33589
 H1008 H 0.13585 0.48603 0.30468
   
