data_POSCAR
  _audit_creation_date              2014-09-24
  _audit_creation_method            'ToBaCCo'
  _symmetry_space_group_name_H-M    'P1'
  _symmetry_Int_Tables_number       1
  _symmetry_cell_setting            triclinic
  loop_
  _symmetry_equiv_pos_as_xyz
 x,y,z
_cell_length_a 15.9509
_cell_length_b 16.0487
_cell_length_c 16.0601
_cell_angle_alpha 96.700000
_cell_angle_beta 96.060200
_cell_angle_gamma 84.341300
loop_
  _atom_site_label
  _atom_site_type_symbol
  _atom_site_fract_x
  _atom_site_fract_y
  _atom_site_fract_z
C1 C 0.57231 0.93400 -0.71393
 C2 C 0.49725 0.90417 -0.69368
 C3 C 0.47840 0.91451 -0.60952
 C4 C 0.52540 0.96420 -0.54776
 C5 C 0.60126 0.99034 -0.56823
 C6 C 0.62914 0.96972 -0.64863
 C7 C 0.49297 0.99307 -0.46428
 C8 C 0.54815 1.02109 -0.39472
 C9 C 0.51720 1.05833 -0.31976
 C10 C 0.43091 1.05743 -0.30973
 C11 C 0.37535 1.02463 -0.37644
 C12 C 0.40586 0.99702 -0.45437
 H13 H 0.58909 0.92348 -0.77815
 H14 H 0.42276 0.88852 -0.59394
 H15 H 0.63770 1.03065 -0.52293
 H16 H 0.61570 1.01594 -0.39833
 H17 H 0.40701 1.08120 -0.25004
 H18 H 0.36108 0.97771 -0.50645
 C19 C -0.69259 1.42677 -0.06887
 C20 C -0.62685 1.37394 -0.03166
 C21 C -0.55149 1.40860 0.00128
 C22 C -0.53775 1.49278 -0.00653
 C23 C -0.60440 1.54366 -0.04483
 C24 C -0.68225 1.51243 -0.07470
 C25 C -0.45412 1.52648 0.02507
 C26 C -0.44368 1.61376 0.03524
 C27 C -0.36369 1.64318 0.05878
 C28 C -0.29522 1.58628 0.08214
 C29 C -0.30518 1.50000 0.07690
 C30 C -0.38236 1.47066 0.04348
 H31 H -0.75217 1.40121 -0.09131
 H32 H -0.50575 1.37025 0.03758
 H33 H -0.59626 1.60766 -0.05434
 H34 H -0.49596 1.65969 0.02228
 H35 H -0.23381 1.60908 0.10228
 H36 H -0.38463 1.40337 0.03234
 C37 C 0.06912 0.30617 0.56546
 C38 C 0.06849 0.31678 0.47932
 C39 C 0.02704 0.39041 0.44986
 C40 C -0.00287 0.45796 0.50611
 C41 C 0.00188 0.44688 0.59226
 C42 C 0.03285 0.36993 0.62152
 C43 C -0.03449 0.54128 0.47634
 C44 C -0.08794 0.59851 0.52344
 C45 C -0.10096 0.68361 0.50880
 C46 C -0.07174 0.70840 0.43607
 C47 C -0.03158 0.64711 0.37905
 C48 C -0.00715 0.56664 0.40381
 H49 H 0.09527 0.24764 0.58900
 H50 H 0.02107 0.39583 0.38299
 H51 H -0.01907 0.49777 0.63725
 H52 H -0.11414 0.57875 0.57657
 H53 H -0.08514 0.77284 0.42133
 H54 H 0.03469 0.52456 0.36640
 O55 O -0.22577 1.09301 -0.05802
 O56 O 0.17854 0.96375 -0.16266
 O57 O -0.02219 1.15210 -0.18137
 O58 O -0.07654 0.93945 -0.23975
 O59 O -0.08129 0.82525 -0.16583
 O60 O 0.02923 1.22852 -0.05870
 O61 O 0.05454 1.01334 -0.23604
 O62 O -0.16137 1.07841 -0.18156
 Zr63 Zr -0.03413 1.03243 -0.14494
 O64 O 0.03824 0.92422 -0.11406
 O65 O -0.06530 1.11368 -0.04093
 C66 C -0.22607 1.09785 -0.13762
 C67 C 0.13479 0.98868 -0.22932
 C68 C 0.00439 1.21965 -0.13881
 C69 C -0.09238 0.86280 -0.23433
 H70 H 0.10777 1.09637 -0.10784
 O71 O 0.07525 1.06565 -0.07440
 H72 H -0.15808 0.95301 -0.10994
 O73 O -0.10524 0.96978 -0.07715
 O74 O 0.24352 0.92109 0.05044
 O75 O -0.16887 1.03783 0.14754
 O76 O 0.16612 1.17406 0.02027
 O77 O 0.05416 0.76766 -0.08686
 O78 O -0.15233 0.83401 -0.02066
 O79 O -0.03989 1.24014 0.07494
 O80 O 0.09620 1.06163 0.22694
 O81 O 0.02951 0.85824 0.17482
 O82 O 0.09281 1.18097 0.15902
 O83 O -0.02274 0.78103 0.05338
 O84 O 0.23826 1.04894 -0.02871
 O85 O -0.16469 1.17777 0.07001
 O86 O -0.22282 0.96095 0.02542
 O87 O 0.17936 0.82981 -0.08291
 O88 O 0.17333 0.92531 0.16971
 O89 O -0.04647 0.98588 0.22138
 Zr90 Zr 0.14606 0.95904 -0.03984
 Zr91 Zr -0.13103 1.04850 0.02939
 Zr92 Zr 0.04505 1.14117 0.03251
 Zr93 Zr -0.03163 0.86524 -0.04111
 Zr94 Zr 0.04698 0.97338 0.13395
 O95 O -0.06243 0.94103 0.06464
 O96 O 0.11994 1.03672 0.06824
 C97 C 0.24050 0.91068 0.12870
 C98 C -0.12744 1.00852 0.21267
 C99 C 0.23201 1.12999 -0.00636
 C100 C 0.13379 0.76547 -0.09707
 C101 C -0.21683 0.87958 0.00813
 C102 C -0.11946 1.24213 0.08382
 C103 C 0.10758 1.13981 0.22517
 C104 C -0.00011 0.79175 0.13407
 H105 H -0.04037 1.11744 0.15554
 O106 O -0.02453 1.08159 0.10423
 H107 H 0.11178 0.84260 0.04756
 O108 O 0.07872 0.89414 0.03010
 C109 C 0.43680 0.86912 0.24582
 C110 C 0.39857 0.79814 0.25791
 C111 C 0.32238 0.80233 0.21127
 C112 C 0.31856 0.87549 0.17390
 O113 O 0.38768 0.91627 0.19414
 H114 H 0.42044 0.75290 0.30218
 H115 H 0.27304 0.76019 0.20913
 C116 C -0.28737 0.98416 0.33889
 C117 C -0.22202 0.99534 0.40275
 C118 C -0.15195 1.00375 0.36392
 C119 C -0.17945 0.99859 0.27977
 O120 O -0.26080 0.98566 0.26402
 H121 H -0.22366 0.99451 0.46982
 H122 H -0.08895 1.01363 0.39330
 C123 C -0.42320 1.09702 -0.25318
 C124 C -0.44554 1.15733 -0.18899
 C125 C -0.37170 1.17192 -0.14114
 C126 C -0.30961 1.12032 -0.18018
 O127 O -0.34071 1.07502 -0.24821
 H128 H -0.50812 1.18575 -0.17722
 H129 H -0.36448 1.21162 -0.08197
 C130 C 0.28689 1.01505 -0.36271
 C131 C 0.21876 1.01259 -0.42364
 C132 C 0.15083 1.00151 -0.38220
 C133 C 0.18330 0.99602 -0.29989
 O134 O 0.26523 1.00465 -0.28792
 H135 H 0.21817 1.01896 -0.48998
 H136 H 0.08582 0.99795 -0.40857
 C137 C 0.36231 1.28887 -0.02410
 C138 C 0.42627 1.22593 -0.00753
 C139 C 0.38656 1.15505 -0.00310
 C140 C 0.30171 1.18016 -0.01543
 O141 O 0.28693 1.26033 -0.02918
 H142 H 0.49395 1.23017 -0.00034
 H143 H 0.41567 1.09378 0.01077
 C144 C 0.25144 0.56816 -0.10678
 C145 C 0.17885 0.54421 -0.15432
 C146 C 0.12892 0.61690 -0.16390
 C147 C 0.17409 0.68061 -0.12175
 O148 O 0.24897 0.65137 -0.08790
 H149 H 0.16349 0.48134 -0.17836
 H150 H 0.06488 0.62263 -0.19385
 C151 C -0.34873 0.73131 0.05138
 C152 C -0.40675 0.80084 0.06094
 C153 C -0.36562 0.86744 0.04518
 C154 C -0.28641 0.83305 0.02592
 O155 O -0.27604 0.75100 0.03016
 H156 H -0.47073 0.80303 0.07827
 H157 H -0.39014 0.93292 0.04782
 C158 C -0.23546 1.43868 0.10392
 C159 C -0.16916 1.45743 0.16313
 C160 C -0.11905 1.38401 0.16698
 C161 C -0.15948 1.32550 0.11105
 O162 O -0.23023 1.35832 0.07282
 H163 H -0.15883 1.51745 0.19893
 H164 H -0.05895 1.37454 0.20429
 C165 C 0.10710 1.25543 0.42221
 C166 C 0.16477 1.18972 0.44415
 C167 C 0.18091 1.14348 0.37018
 C168 C 0.13241 1.18396 0.30803
 O169 O 0.08834 1.25240 0.33938
 H170 H 0.19107 1.17586 0.50635
 H171 H 0.21841 1.08354 0.36279
 C172 C 0.02404 1.35461 -0.29060
 C173 C 0.01163 1.41594 -0.22385
 C174 C 0.00450 1.37363 -0.15641
 C175 C 0.01049 1.28994 -0.18754
 O176 O 0.02250 1.27811 -0.26844
 H177 H 0.00814 1.48349 -0.22369
 H178 H -0.00576 1.40045 -0.09290
 C179 C -0.13643 0.74072 -0.42840
 C180 C -0.20289 0.72191 -0.38677
 C181 C -0.19793 0.76977 -0.31120
 C182 C -0.12904 0.81484 -0.31110
 O183 O -0.09173 0.79823 -0.38217
 H184 H -0.24524 0.67302 -0.40624
 H185 H -0.23629 0.76784 -0.25985
 C186 C -0.01799 0.66296 0.29212
 C187 C -0.00941 0.60017 0.22569
 C188 C -0.00416 0.64013 0.15650
 C189 C -0.00824 0.72416 0.18564
 O190 O -0.01705 0.73859 0.26755
 H191 H -0.00831 0.53287 0.22681
 H192 H 0.00348 0.61151 0.09301
   
