data_POSCAR
  _audit_creation_date              2014-09-24
  _audit_creation_method            'ToBaCCo'
  _symmetry_space_group_name_H-M    'P1'
  _symmetry_Int_Tables_number       1
  _symmetry_cell_setting            triclinic
  loop_
  _symmetry_equiv_pos_as_xyz
 x,y,z
_cell_length_a 34.4094
_cell_length_b 34.4444
_cell_length_c 34.4625
_cell_angle_alpha 89.957400
_cell_angle_beta 89.998400
_cell_angle_gamma 89.998700
loop_
  _atom_site_label
  _atom_site_type_symbol
  _atom_site_fract_x
  _atom_site_fract_y
  _atom_site_fract_z
C1 C 0.27747 0.25024 0.22222
 N2 N 0.27736 0.22226 0.24995
 C3 C 0.24942 0.22220 0.27774
 N4 N 0.22160 0.25011 0.27781
 C5 C 0.22171 0.27809 0.25007
 N6 N 0.24965 0.27816 0.22228
 C7 C 0.72150 -0.25062 0.22134
 N8 N 0.74949 -0.27838 0.22125
 C9 C 0.77745 -0.27834 0.24902
 N10 N 0.77741 -0.25053 0.27689
 C11 C 0.74943 -0.22277 0.27700
 N12 N 0.72148 -0.22282 0.24922
 C13 C 0.72307 0.25051 0.77716
 N14 N 0.72321 0.22257 0.74942
 C15 C 0.75108 0.22263 0.72157
 N16 N 0.77883 0.25063 0.72145
 C17 C 0.77869 0.27857 0.74920
 N18 N 0.75081 0.27850 0.77705
 C19 C 0.27893 -0.25036 0.77940
 N20 N 0.27910 -0.22260 0.75143
 C21 C 0.25119 -0.22253 0.72361
 N22 N 0.22313 -0.25020 0.72376
 C23 C 0.22296 -0.27795 0.75172
 N24 N 0.25086 -0.27803 0.77954
 C25 C 0.72145 -0.25044 0.77925
 N26 N 0.72140 -0.22265 0.75131
 C27 C 0.74925 -0.22270 0.72341
 N28 N 0.77714 -0.25056 0.72346
 C29 C 0.77721 -0.27836 0.75139
 N30 N 0.74935 -0.27830 0.77928
 C31 C 0.27755 0.25005 0.77736
 N32 N 0.27756 0.22219 0.74954
 C33 C 0.24967 0.22216 0.72170
 N34 N 0.22176 0.25001 0.72169
 C35 C 0.22175 0.27787 0.74951
 N36 N 0.24964 0.27789 0.77734
 C37 C 0.27818 -0.25112 0.22099
 N38 N 0.27831 -0.22338 0.24894
 C39 C 0.25038 -0.22331 0.27675
 N40 N 0.22231 -0.25099 0.27660
 C41 C 0.22215 -0.27873 0.24866
 N42 N 0.25010 -0.27879 0.22085
 C43 C 0.72359 0.25100 0.22245
 N44 N 0.75133 0.27900 0.22255
 C45 C 0.77922 0.27906 0.25041
 N46 N 0.77935 0.25109 0.27817
 C47 C 0.75160 0.22307 0.27807
 N48 N 0.72374 0.22304 0.25021
 O49 O 0.28211 0.03680 0.46187
 O50 O 0.28259 -0.03865 0.53756
 O51 O 0.28241 -0.03879 0.46197
 O52 O 0.28221 0.03692 0.53739
 O53 O 0.21811 0.03664 0.53750
 O54 O 0.21832 -0.03906 0.46210
 O55 O 0.21850 -0.03893 0.53768
 O56 O 0.21801 0.03653 0.46198
 Cu57 Cu 0.28875 -0.00092 0.49968
 Cu58 Cu 0.21181 -0.00125 0.49982
 C59 C 0.24998 0.04962 0.44898
 C60 C 0.25063 -0.05169 0.55063
 C61 C 0.25039 -0.05189 0.44909
 C62 C 0.25012 0.04977 0.55035
 O63 O 0.71859 0.03734 0.53758
 O64 O 0.71817 -0.03821 0.46210
 O65 O 0.71812 -0.03824 0.53769
 O66 O 0.71870 0.03738 0.46208
 O67 O 0.78280 0.03697 0.46214
 O68 O 0.78221 -0.03865 0.53775
 O69 O 0.78227 -0.03863 0.46216
 O70 O 0.78269 0.03693 0.53765
 Cu71 Cu 0.71198 -0.00041 0.49985
 Cu72 Cu 0.78891 -0.00090 0.49993
 C73 C 0.75071 0.05011 0.55053
 C74 C 0.75015 -0.05136 0.44917
 C75 C 0.75007 -0.05138 0.55071
 C76 C 0.75085 0.05017 0.44918
 O77 O 0.46268 0.28246 0.03767
 O78 O 0.53828 0.28246 -0.03790
 O79 O 0.46263 0.28239 -0.03787
 O80 O 0.53835 0.28258 0.03764
 O81 O 0.53843 0.21855 0.03777
 O82 O 0.46271 0.21836 -0.03775
 O83 O 0.53836 0.21843 -0.03778
 O84 O 0.46277 0.21842 0.03779
 Cu85 Cu 0.50048 0.28889 -0.00012
 Cu86 Cu 0.50058 0.21202 0.00002
 C87 C 0.44976 0.25044 0.05067
 C88 C 0.55127 0.25045 -0.05080
 C89 C 0.44970 0.25035 -0.05076
 C90 C 0.55137 0.25059 0.05065
 O91 O 0.53796 0.71729 0.03823
 O92 O 0.46238 0.71733 -0.03739
 O93 O 0.53805 0.71737 -0.03733
 O94 O 0.46227 0.71718 0.03816
 O95 O 0.46221 0.78121 0.03821
 O96 O 0.53799 0.78140 -0.03729
 O97 O 0.46233 0.78136 -0.03734
 O98 O 0.53789 0.78132 0.03828
 Cu99 Cu 0.50017 0.71088 0.00042
 Cu100 Cu 0.50010 0.78773 0.00048
 C101 C 0.55088 0.74930 0.05122
 C102 C 0.44940 0.74936 -0.05032
 C103 C 0.55100 0.74941 -0.05026
 C104 C 0.44924 0.74916 0.05111
 O105 O 0.03733 0.46367 0.28161
 O106 O -0.03831 0.53924 0.28132
 O107 O -0.03829 0.46364 0.28171
 O108 O 0.03740 0.53925 0.28123
 O109 O 0.03733 0.53899 0.21724
 O110 O -0.03836 0.46338 0.21771
 O111 O -0.03839 0.53898 0.21733
 O112 O 0.03726 0.46341 0.21762
 Cu113 Cu -0.00047 0.50150 0.28788
 Cu114 Cu -0.00055 0.50119 0.21106
 C115 C 0.05024 0.45057 0.24966
 C116 C -0.05134 0.55204 0.24928
 C117 C -0.05126 0.45052 0.24979
 C118 C 0.05037 0.55205 0.24916
 O119 O 0.03674 0.53870 0.71880
 O120 O -0.03889 0.46312 0.71816
 O121 O -0.03896 0.53873 0.71870
 O122 O 0.03674 0.46313 0.71827
 O123 O 0.03665 0.46265 0.78226
 O124 O -0.03904 0.53824 0.78269
 O125 O -0.03898 0.46264 0.78216
 O126 O 0.03666 0.53821 0.78280
 Cu127 Cu -0.00109 0.50099 0.71207
 Cu128 Cu -0.00120 0.50040 0.78889
 C129 C 0.04970 0.55137 0.75091
 C130 C -0.05187 0.44990 0.75006
 C131 C -0.05199 0.55144 0.75077
 C132 C 0.04966 0.44992 0.75019
 C133 C 0.36142 0.25038 0.13871
 C134 C 0.37598 0.21524 0.12447
 C135 C 0.40474 0.21522 0.09582
 C136 C 0.30699 0.25030 0.19285
 C137 C 0.40449 0.28561 0.09557
 C138 C 0.37573 0.28554 0.12422
 C139 C 0.33181 0.25035 0.16817
 C140 C 0.41933 0.25042 0.08104
 H141 H 0.36510 0.18785 0.13550
 H142 H 0.41553 0.18764 0.08526
 H143 H 0.41509 0.31319 0.08482
 H144 H 0.36465 0.31291 0.13505
 C145 C 0.63914 0.74931 0.13936
 C146 C 0.62484 0.71415 0.12489
 C147 C 0.59610 0.71411 0.09621
 C148 C 0.69355 0.74934 0.19355
 C149 C 0.59586 0.78449 0.09638
 C150 C 0.62459 0.78445 0.12507
 C151 C 0.66874 0.74932 0.16885
 C152 C 0.58129 0.74930 0.08162
 H153 H 0.63590 0.68678 0.13576
 H154 H 0.58552 0.68653 0.08547
 H155 H 0.58509 0.81207 0.08579
 H156 H 0.63547 0.81183 0.13608
 C157 C 0.63937 0.25043 -0.13908
 C158 C 0.62501 0.21528 -0.12461
 C159 C 0.59634 0.21524 -0.09587
 C160 C 0.69362 0.25045 -0.19340
 C161 C 0.59630 0.28563 -0.09597
 C162 C 0.62497 0.28558 -0.12471
 C163 C 0.66888 0.25043 -0.16864
 C164 C 0.58165 0.25044 -0.08122
 H165 H 0.63598 0.18790 -0.13554
 H166 H 0.58570 0.18767 -0.08514
 H167 H 0.58562 0.31322 -0.08533
 H168 H 0.63590 0.31296 -0.13572
 C169 C 0.36118 0.74946 -0.13851
 C170 C 0.37559 0.71429 -0.12413
 C171 C 0.40431 0.71421 -0.09543
 C172 C 0.30684 0.74956 -0.19276
 C173 C 0.40431 0.78460 -0.09540
 C174 C 0.37559 0.78459 -0.12409
 C175 C 0.33162 0.74950 -0.16803
 C176 C 0.41900 0.74939 -0.08073
 H177 H 0.36463 0.68693 -0.13509
 H178 H 0.41498 0.68662 -0.08477
 H179 H 0.41498 0.81217 -0.08471
 H180 H 0.36463 0.81198 -0.13503
 C181 C 0.13819 0.36209 0.24998
 C182 C 0.12384 0.37645 0.21480
 C183 C 0.09522 0.40526 0.21465
 C184 C 0.19232 0.30761 0.25010
 C185 C 0.09524 0.40547 0.28500
 C186 C 0.12385 0.37666 0.28506
 C187 C 0.16764 0.33244 0.25007
 C188 C 0.08059 0.42010 0.24978
 H189 H 0.13475 0.36537 0.18748
 H190 H 0.08458 0.41588 0.18705
 H191 H 0.08460 0.41626 0.31253
 H192 H 0.13478 0.36574 0.31247
 C193 C 0.13852 0.63898 0.75157
 C194 C 0.12402 0.62438 0.78660
 C195 C 0.09508 0.59590 0.78643
 C196 C 0.19329 0.69281 0.75181
 C197 C 0.09502 0.59654 0.71608
 C198 C 0.12396 0.62502 0.71634
 C199 C 0.16833 0.66826 0.75176
 C200 C 0.08025 0.58164 0.75115
 H201 H 0.13510 0.63500 0.81404
 H202 H 0.08435 0.58504 0.81392
 H203 H 0.08425 0.58619 0.68844
 H204 H 0.13498 0.63613 0.68906
 C205 C -0.13996 0.63987 0.24900
 C206 C -0.12536 0.62574 0.28418
 C207 C -0.09650 0.59717 0.28431
 C208 C -0.19455 0.69390 0.24894
 C209 C -0.09672 0.59679 0.21396
 C210 C -0.12558 0.62536 0.21392
 C211 C -0.16967 0.66926 0.24894
 C212 C -0.08185 0.58236 0.24918
 H213 H -0.13630 0.63679 0.31151
 H214 H -0.08570 0.58669 0.31191
 H215 H -0.08608 0.58601 0.18643
 H216 H -0.13669 0.63611 0.18652
 C217 C -0.13961 0.36122 0.74938
 C218 C -0.12537 0.37551 0.78462
 C219 C -0.09684 0.40439 0.78488
 C220 C -0.19357 0.30658 0.74914
 C221 C -0.09670 0.40483 0.71453
 C222 C -0.12523 0.37594 0.71436
 C223 C -0.16896 0.33148 0.74919
 C224 C -0.08217 0.41938 0.74982
 H225 H -0.13632 0.36431 0.81190
 H226 H -0.08628 0.41495 0.81253
 H227 H -0.08603 0.41574 0.68704
 H228 H -0.13607 0.36508 0.68691
 C229 C 0.24950 0.13808 0.36108
 C230 C 0.21439 0.12353 0.37551
 C231 C 0.21450 0.09471 0.40410
 C232 C 0.24935 0.19263 0.30707
 C233 C 0.28496 0.09489 0.40390
 C234 C 0.28476 0.12371 0.37532
 C235 C 0.24937 0.16777 0.33169
 C236 C 0.24981 0.08007 0.41863
 H237 H 0.18693 0.13447 0.36468
 H238 H 0.18695 0.08394 0.41481
 H239 H 0.31262 0.08425 0.41446
 H240 H 0.31211 0.13478 0.36433
 C241 C 0.75110 0.13860 0.63827
 C242 C 0.78622 0.12395 0.62400
 C243 C 0.78615 0.09513 0.59546
 C244 C 0.75119 0.19310 0.69225
 C245 C 0.71569 0.09550 0.59538
 C246 C 0.71585 0.12432 0.62392
 C247 C 0.75119 0.16827 0.66764
 C248 C 0.75085 0.08058 0.58082
 H249 H 0.81367 0.13481 0.63492
 H250 H 0.81371 0.08427 0.58487
 H251 H 0.68803 0.08494 0.58474
 H252 H 0.68849 0.13547 0.63478
 C253 C 0.25116 -0.13929 0.63939
 C254 C 0.28626 -0.12481 0.62487
 C255 C 0.28613 -0.09632 0.59595
 C256 C 0.25132 -0.19321 0.69404
 C257 C 0.21568 -0.09671 0.59598
 C258 C 0.21589 -0.12519 0.62490
 C259 C 0.25130 -0.16861 0.66914
 C260 C 0.25082 -0.08194 0.58118
 H261 H 0.31373 -0.13554 0.63590
 H262 H 0.31368 -0.08557 0.58520
 H263 H 0.18800 -0.08626 0.58525
 H264 H 0.18855 -0.13622 0.63594
 C265 C 0.74965 -0.13927 0.36084
 C266 C 0.71455 -0.12463 0.37517
 C267 C 0.71467 -0.09602 0.40394
 C268 C 0.74943 -0.19338 0.30646
 C269 C 0.78512 -0.09662 0.40414
 C270 C 0.78492 -0.12522 0.37538
 C271 C 0.74951 -0.16871 0.33124
 C272 C 0.74998 -0.08169 0.41875
 H273 H 0.68708 -0.13531 0.36411
 H274 H 0.68712 -0.08515 0.41454
 H275 H 0.81279 -0.08622 0.41491
 H276 H 0.81226 -0.13638 0.36448
 C277 C 0.63927 0.74957 -0.13848
 C278 C 0.62492 0.71440 -0.12404
 C279 C 0.59621 0.71431 -0.09532
 C280 C 0.69357 0.74960 -0.19284
 C281 C 0.59608 0.78469 -0.09537
 C282 C 0.62480 0.78469 -0.12409
 C283 C 0.66882 0.74961 -0.16806
 C284 C 0.58145 0.74947 -0.08065
 H285 H 0.63592 0.68704 -0.13497
 H286 H 0.58559 0.68671 -0.08463
 H287 H 0.58536 0.81225 -0.08473
 H288 H 0.63570 0.81209 -0.13508
 C289 C 0.36139 0.25016 -0.13892
 C290 C 0.37589 0.21504 -0.12449
 C291 C 0.40462 0.21506 -0.09580
 C292 C 0.30704 0.25006 -0.19319
 C293 C 0.40447 0.28544 -0.09585
 C294 C 0.37573 0.28534 -0.12454
 C295 C 0.33182 0.25010 -0.16845
 C296 C 0.41925 0.25028 -0.08114
 H297 H 0.36499 0.18764 -0.13542
 H298 H 0.41537 0.18750 -0.08512
 H299 H 0.41509 0.31304 -0.08521
 H300 H 0.36471 0.31269 -0.13550
 C301 C 0.36066 0.74892 0.13903
 C302 C 0.37512 0.71381 0.12459
 C303 C 0.40395 0.71385 0.09599
 C304 C 0.30614 0.74884 0.19317
 C305 C 0.40398 0.78422 0.09615
 C306 C 0.37515 0.78410 0.12475
 C307 C 0.33098 0.74885 0.16848
 C308 C 0.41872 0.74907 0.08144
 H309 H 0.36411 0.68640 0.13544
 H310 H 0.41465 0.68629 0.08530
 H311 H 0.41470 0.81183 0.08559
 H312 H 0.36416 0.81146 0.13573
 C313 C 0.63974 0.25082 0.13874
 C314 C 0.62531 0.21563 0.12447
 C315 C 0.59655 0.21552 0.09580
 C316 C 0.69412 0.25095 0.19299
 C317 C 0.59655 0.28590 0.09557
 C318 C 0.62531 0.28593 0.12424
 C319 C 0.66934 0.25089 0.16826
 C320 C 0.58184 0.25067 0.08102
 H321 H 0.63628 0.18828 0.13550
 H322 H 0.58586 0.18791 0.08524
 H323 H 0.58586 0.31345 0.08482
 H324 H 0.63628 0.31334 0.13508
 C325 C -0.14044 0.63951 0.75122
 C326 C -0.12614 0.62478 0.78628
 C327 C -0.09735 0.59613 0.78617
 C328 C -0.19488 0.69376 0.75141
 C329 C -0.09705 0.59683 0.71583
 C330 C -0.12584 0.62548 0.71602
 C331 C -0.17007 0.66902 0.75136
 C332 C -0.08247 0.58181 0.75093
 H333 H -0.13724 0.63544 0.81370
 H334 H -0.08676 0.58520 0.81368
 H335 H -0.08624 0.58646 0.68821
 H336 H -0.13671 0.63669 0.68872
 C337 C -0.13905 0.36178 0.25029
 C338 C -0.12466 0.37639 0.28534
 C339 C -0.09612 0.40530 0.28522
 C340 C -0.19303 0.30710 0.25047
 C341 C -0.09627 0.40511 0.21488
 C342 C -0.12481 0.37621 0.21508
 C343 C -0.16841 0.33202 0.25043
 C344 C -0.08158 0.41998 0.24997
 H345 H -0.13549 0.36543 0.31277
 H346 H -0.08544 0.41610 0.31273
 H347 H -0.08572 0.41576 0.18725
 H348 H -0.13575 0.36511 0.18778
 C349 C 0.13789 0.36163 0.74972
 C350 C 0.12353 0.37631 0.71467
 C351 C 0.09482 0.40504 0.71478
 C352 C 0.19223 0.30731 0.74952
 C353 C 0.09472 0.40453 0.78512
 C354 C 0.12343 0.37580 0.78493
 C355 C 0.16746 0.33206 0.74959
 C356 C 0.08008 0.41949 0.75003
 H357 H 0.13452 0.36555 0.68725
 H358 H 0.08419 0.41593 0.68727
 H359 H 0.08401 0.41500 0.81274
 H360 H 0.13434 0.36463 0.81224
 C361 C 0.13925 0.63970 0.24869
 C362 C 0.12467 0.62559 0.28389
 C363 C 0.09573 0.59710 0.28408
 C364 C 0.19405 0.69357 0.24856
 C365 C 0.09578 0.59673 0.21374
 C366 C 0.12474 0.62523 0.21363
 C367 C 0.16908 0.66901 0.24857
 C368 C 0.08095 0.58233 0.24899
 H369 H 0.13570 0.63660 0.31120
 H370 H 0.08496 0.58665 0.31170
 H371 H 0.08506 0.58599 0.18623
 H372 H 0.13581 0.63595 0.18621
 C373 C 0.74947 -0.13925 0.63930
 C374 C 0.78474 -0.12521 0.62475
 C375 C 0.78498 -0.09663 0.59591
 C376 C 0.74923 -0.19332 0.69386
 C377 C 0.71453 -0.09604 0.59603
 C378 C 0.71438 -0.12462 0.62488
 C379 C 0.74930 -0.16867 0.66900
 C380 C 0.74986 -0.08171 0.58121
 H381 H 0.81208 -0.13634 0.63571
 H382 H 0.81266 -0.08624 0.58515
 H383 H 0.68700 -0.08518 0.58536
 H384 H 0.68690 -0.13529 0.63593
 C385 C 0.25053 -0.13989 0.36077
 C386 C 0.21533 -0.12574 0.37537
 C387 C 0.21524 -0.09713 0.40413
 C388 C 0.25050 -0.19397 0.30630
 C389 C 0.28570 -0.09672 0.40382
 C390 C 0.28569 -0.12534 0.37506
 C391 C 0.25054 -0.16932 0.33113
 C392 C 0.25045 -0.08227 0.41869
 H393 H 0.18793 -0.13681 0.36452
 H394 H 0.18762 -0.08664 0.41494
 H395 H 0.31329 -0.08591 0.41438
 H396 H 0.31311 -0.13609 0.36396
 C397 C 0.75147 0.13887 0.36142
 C398 C 0.71619 0.12457 0.37571
 C399 C 0.71595 0.09569 0.40424
 C400 C 0.75169 0.19349 0.30743
 C401 C 0.78640 0.09526 0.40430
 C402 C 0.78656 0.12415 0.37577
 C403 C 0.75165 0.16861 0.33205
 C404 C 0.75107 0.08070 0.41888
 H405 H 0.68886 0.13576 0.36480
 H406 H 0.68826 0.08513 0.41483
 H407 H 0.81393 0.08436 0.41494
 H408 H 0.81404 0.13501 0.36490
 C409 C 0.24984 0.13826 0.63818
 C410 C 0.28507 0.12395 0.62381
 C411 C 0.28521 0.09515 0.59523
 C412 C 0.24969 0.19268 0.69230
 C413 C 0.21476 0.09486 0.59530
 C414 C 0.21471 0.12366 0.62387
 C415 C 0.24975 0.16788 0.66762
 C416 C 0.25003 0.08027 0.58064
 H417 H 0.31244 0.13504 0.63469
 H418 H 0.31285 0.08456 0.58458
 H419 H 0.18718 0.08404 0.58470
 H420 H 0.18726 0.13453 0.63480
   
