data_POSCAR
  _audit_creation_date              2014-09-24
  _audit_creation_method            'ToBaCCo'
  _symmetry_space_group_name_H-M    'P1'
  _symmetry_Int_Tables_number       1
  _symmetry_cell_setting            triclinic
  loop_
  _symmetry_equiv_pos_as_xyz
 x,y,z
_cell_length_a 32.5335
_cell_length_b 32.7970
_cell_length_c 61.9534
_cell_angle_alpha 91.142800
_cell_angle_beta 91.847200
_cell_angle_gamma 85.884800
loop_
  _atom_site_label
  _atom_site_type_symbol
  _atom_site_fract_x
  _atom_site_fract_y
  _atom_site_fract_z
C1 C 0.01104 0.60933 1.00105
 C2 C 0.01779 0.58814 1.02061
 C3 C 0.01501 0.54544 1.02007
 C4 C 0.00351 0.52447 1.00105
 C5 C -0.00411 0.54682 0.98202
 C6 C 0.00044 0.58920 0.98152
 C7 C -0.00100 0.47932 1.00113
 C8 C 0.00563 0.45509 0.98231
 C9 C -0.00013 0.41306 0.98210
 C10 C -0.01047 0.39465 1.00123
 C11 C -0.01629 0.41779 1.02029
 C12 C -0.01241 0.46012 1.01999
 H13 H 0.01388 0.64184 1.00105
 H14 H 0.02352 0.52807 1.03437
 H15 H -0.01572 0.53142 0.96775
 H16 H 0.01488 0.46878 0.96766
 H17 H -0.01296 0.36189 1.00138
 H18 H -0.01909 0.47800 1.03448
 C19 C 0.39273 0.00034 0.50251
 C20 C 0.41773 -0.00817 0.52095
 C21 C 0.46060 -0.00673 0.51974
 C22 C 0.47865 0.00478 0.50058
 C23 C 0.45263 0.01408 0.48241
 C24 C 0.40989 0.01078 0.48308
 C25 C 0.52446 0.00621 0.49938
 C26 C 0.54424 -0.00256 0.47978
 C27 C 0.58725 -0.00151 0.47821
 C28 C 0.61049 0.00668 0.49720
 C29 C 0.59204 0.01397 0.51734
 C30 C 0.54865 0.01516 0.51790
 H31 H 0.35958 -0.00038 0.50337
 H32 H 0.47972 -0.01561 0.53370
 H33 H 0.46550 0.02330 0.46754
 H34 H 0.52619 -0.01227 0.46592
 H35 H 0.64300 0.01069 0.49603
 H36 H 0.53350 0.02144 0.53295
 C37 C 0.06481 0.02101 0.26142
 H38 H 0.06965 0.02024 0.24422
 C39 C 0.09805 0.02559 0.27594
 H40 H 0.12857 0.02781 0.26979
 C41 C 0.01919 0.01835 0.29032
 H42 H -0.01162 0.01623 0.29594
 C43 C 0.05143 0.02287 0.30535
 H44 H 0.04493 0.02408 0.32240
 N45 N 0.02649 0.01652 0.26882
 C46 C -0.03821 -0.05229 0.21897
 H47 H -0.06682 -0.03339 0.21777
 C48 C -0.03269 -0.08746 0.20605
 H49 H -0.05710 -0.09513 0.19472
 C50 C 0.02868 -0.06436 0.23485
 H51 H 0.05236 -0.05556 0.24626
 C52 C 0.03555 -0.09979 0.22219
 H53 H 0.06458 -0.11789 0.22400
 Zn54 Zn -0.01748 0.00842 0.24868
 N55 N -0.00743 -0.04097 0.23269
 C56 C -0.01934 0.04708 0.20814
 N57 N -0.02238 0.05344 0.22981
 C58 C -0.02790 0.09189 0.23839
 C59 C -0.03187 0.12577 0.22493
 C60 C -0.02325 0.07998 0.19413
 C61 C -0.06877 -0.02876 0.27634
 C62 C -0.10321 -0.03291 0.28875
 C63 C -0.13438 0.02976 0.27370
 C64 C -0.09928 0.03271 0.26157
 N65 N -0.06697 0.00416 0.26350
 H66 H -0.01366 0.01652 0.20162
 H67 H -0.02955 0.09616 0.25571
 H68 H -0.03703 0.15609 0.23200
 H69 H -0.02051 0.07422 0.17695
 H70 H -0.04281 -0.05124 0.27738
 H71 H -0.10323 -0.05848 0.29953
 H72 H -0.15960 0.05302 0.27218
 H73 H -0.09776 0.05808 0.25086
 C74 C 0.00478 -0.11150 0.20738
 C75 C 0.09163 0.02591 0.29826
 C76 C -0.13638 -0.00306 0.28779
 C77 C -0.02992 0.11995 0.20246
 C78 C 0.02137 0.07166 0.76162
 H79 H 0.02279 0.07519 0.74434
 C80 C 0.02107 0.10607 0.77533
 H81 H 0.02219 0.13608 0.76849
 C82 C 0.01663 0.02838 0.79146
 H83 H 0.01421 -0.00177 0.79775
 C84 C 0.01609 0.06184 0.80570
 H85 H 0.01422 0.05679 0.82285
 N86 N 0.01964 0.03370 0.76987
 C87 C 0.07276 -0.05401 0.72271
 H88 H 0.04961 -0.07611 0.72267
 C89 C 0.10644 -0.06025 0.70937
 H90 H 0.10925 -0.08758 0.69928
 C91 C 0.09690 0.00846 0.73598
 H92 H 0.09305 0.03524 0.74633
 C93 C 0.13107 0.00349 0.72282
 H94 H 0.15278 0.02702 0.72295
 Zn95 Zn 0.01870 -0.01214 0.75074
 N96 N 0.06800 -0.01957 0.73522
 C97 C -0.02071 -0.00339 0.70954
 N98 N -0.02686 -0.00291 0.73115
 C99 C -0.06522 0.00485 0.73907
 C100 C -0.09952 0.01077 0.72500
 C101 C -0.05404 0.00231 0.69494
 C102 C 0.04573 -0.07252 0.78014
 C103 C 0.04321 -0.10632 0.79323
 C104 C -0.02442 -0.11567 0.77747
 C105 C -0.02059 -0.08166 0.76465
 N106 N 0.01370 -0.06028 0.76659
 H107 H 0.01003 -0.00824 0.70350
 H108 H -0.06919 0.00579 0.75635
 H109 H -0.12995 0.01577 0.73156
 H110 H -0.04843 0.00172 0.67780
 H111 H 0.07284 -0.05521 0.78118
 H112 H 0.06841 -0.11454 0.80451
 H113 H -0.05213 -0.13205 0.77589
 H114 H -0.04526 -0.07219 0.75339
 C115 C 0.13570 -0.03083 0.70893
 C116 C 0.01828 0.10134 0.79771
 C117 C 0.00749 -0.12802 0.79224
 C118 C -0.09416 0.00895 0.70259
 C119 C 0.04875 -0.33017 0.05989
 C120 C 0.03480 -0.34457 0.07920
 C121 C 0.01792 -0.38253 0.07944
 C122 C 0.01372 -0.40544 0.06032
 C123 C 0.02593 -0.39057 0.04037
 C124 C 0.04454 -0.35284 0.04072
 C125 C 0.03518 -0.31897 0.09833
 C126 C 0.03425 -0.29630 0.11389
 C127 C 0.03187 -0.26843 0.13154
 C128 C 0.02882 -0.24358 0.14610
 C129 C 0.02407 -0.21271 0.16285
 C130 C -0.01367 -0.20592 0.17301
 C131 C -0.01964 -0.17366 0.18793
 C132 C 0.01209 -0.14767 0.19284
 C133 C 0.05027 -0.15540 0.18295
 C134 C 0.05616 -0.18766 0.16801
 H135 H 0.06229 -0.30095 0.05955
 H136 H 0.00672 -0.39386 0.09431
 H137 H -0.00168 -0.43349 0.06117
 H138 H 0.05670 -0.34072 0.02633
 H139 H -0.03875 -0.22507 0.16910
 H140 H -0.04918 -0.16882 0.19548
 H141 H 0.07512 -0.13565 0.18618
 H142 H 0.08539 -0.19245 0.16012
 C143 C -0.05750 0.34377 0.05911
 C144 C -0.03586 0.35309 0.07826
 C145 C -0.00979 0.38527 0.07880
 C146 C -0.00453 0.40734 0.06011
 C147 C -0.02513 0.39728 0.04061
 C148 C -0.05225 0.36572 0.04042
 C149 C -0.03822 0.32767 0.09679
 C150 C -0.03946 0.30498 0.11178
 C151 C -0.04017 0.27687 0.12870
 C152 C -0.04025 0.25160 0.14256
 C153 C -0.03980 0.21996 0.15836
 C154 C -0.01778 0.22357 0.17801
 C155 C -0.01521 0.19140 0.19262
 C156 C -0.03446 0.15514 0.18765
 C157 C -0.05719 0.15222 0.16804
 C158 C -0.05979 0.18438 0.15351
 H159 H -0.07772 0.31889 0.05850
 H160 H 0.00732 0.39258 0.09349
 H161 H 0.01687 0.43118 0.06069
 H162 H -0.06892 0.35764 0.02573
 H163 H -0.00199 0.25089 0.18187
 H164 H 0.00283 0.19439 0.20749
 H165 H -0.07287 0.12496 0.16391
 H166 H -0.07690 0.18124 0.13835
 C167 C 0.34532 -0.04926 0.56067
 C168 C 0.35784 -0.03025 0.57996
 C169 C 0.39152 -0.00594 0.58022
 C170 C 0.41193 0.00018 0.56114
 C171 C 0.39870 -0.01777 0.54154
 C172 C 0.36561 -0.04312 0.54159
 C173 C 0.33423 -0.03353 0.59902
 C174 C 0.31292 -0.03557 0.61447
 C175 C 0.28627 -0.03722 0.63191
 C176 C 0.26208 -0.03806 0.64620
 C177 C 0.23152 -0.03845 0.66248
 C178 C 0.23995 -0.02460 0.68357
 C179 C 0.20910 -0.02280 0.69888
 C180 C 0.16942 -0.03481 0.69323
 C181 C 0.16155 -0.04922 0.67206
 C182 C 0.19237 -0.05101 0.65683
 H183 H 0.31927 -0.06810 0.56027
 H184 H 0.40131 0.00912 0.59504
 H185 H 0.43706 0.02016 0.56156
 H186 H 0.35510 -0.05779 0.52681
 H187 H 0.27015 -0.01472 0.68810
 H188 H 0.21625 -0.01195 0.71509
 H189 H 0.13119 -0.05800 0.66705
 H190 H 0.18540 -0.06149 0.64051
 C191 C -0.31806 0.00498 0.55674
 C192 C -0.33366 0.02682 0.57459
 C193 C -0.37380 0.04511 0.57356
 C194 C -0.39838 0.04133 0.55473
 C195 C -0.38316 0.01916 0.53645
 C196 C -0.34233 0.00112 0.53795
 C197 C -0.30808 0.02952 0.59388
 C198 C -0.28489 0.03012 0.60944
 C199 C -0.25585 0.02897 0.62687
 C200 C -0.22957 0.02650 0.64104
 C201 C -0.19655 0.02181 0.65703
 C202 C -0.19603 0.04688 0.67558
 C203 C -0.16297 0.04253 0.69061
 C204 C -0.12999 0.01317 0.68714
 C205 C -0.13116 -0.01211 0.66856
 C206 C -0.16416 -0.00778 0.65364
 H207 H -0.28712 -0.00969 0.55744
 H208 H -0.38611 0.06237 0.58728
 H209 H -0.42869 0.05715 0.55449
 H210 H -0.32926 -0.01782 0.52506
 H211 H -0.22092 0.06997 0.67833
 H212 H -0.16275 0.06264 0.70468
 H213 H -0.10662 -0.03545 0.66561
 H214 H -0.16430 -0.02742 0.63937
 C215 C 0.00029 -0.38650 0.92256
 C216 C -0.01093 -0.34458 0.92302
 C217 C -0.02039 -0.32494 0.94262
 C218 C -0.01765 -0.34676 0.96179
 C219 C -0.00514 -0.38900 0.96186
 C220 C 0.00298 -0.40857 0.94170
 C221 C -0.01100 -0.32109 0.90364
 C222 C -0.01033 -0.30028 0.88785
 C223 C -0.00881 -0.27463 0.86992
 C224 C -0.00699 -0.25166 0.85509
 C225 C -0.00429 -0.22296 0.83801
 C226 C -0.03833 -0.19626 0.83251
 C227 C -0.03480 -0.16608 0.81719
 C228 C 0.00293 -0.16212 0.80721
 C229 C 0.03670 -0.18975 0.81248
 C230 C 0.03309 -0.21994 0.82779
 H231 H 0.00796 -0.40199 0.90745
 H232 H -0.02957 -0.29252 0.94313
 H233 H -0.02651 -0.33028 0.97640
 H234 H 0.01378 -0.44050 0.94063
 H235 H -0.06733 -0.19813 0.84043
 H236 H -0.06120 -0.14495 0.81373
 H237 H 0.06600 -0.18781 0.80489
 H238 H 0.05966 -0.24040 0.83196
 C239 C 0.03985 0.36846 0.92899
 C240 C 0.01113 0.33957 0.92406
 C241 C -0.02138 0.33525 0.93787
 C242 C -0.02506 0.35937 0.95662
 C243 C 0.00381 0.38820 0.96188
 C244 C 0.03619 0.39275 0.94778
 C245 C 0.01516 0.31329 0.90525
 C246 C 0.01731 0.28995 0.88999
 C247 C 0.01852 0.26113 0.87276
 C248 C 0.01855 0.23528 0.85865
 C249 C 0.01748 0.20297 0.84262
 C250 C -0.00931 0.17198 0.84501
 C251 C -0.00949 0.13935 0.83020
 C252 C 0.01722 0.13719 0.81274
 C253 C 0.04351 0.16890 0.81019
 C254 C 0.04370 0.20156 0.82509
 H255 H 0.06525 0.37193 0.91844
 H256 H -0.04382 0.31303 0.93422
 H257 H -0.05067 0.35562 0.96697
 H258 H 0.05906 0.41446 0.95150
 H259 H -0.02982 0.17281 0.85848
 H260 H -0.03056 0.11578 0.83241
 H261 H 0.06464 0.16788 0.79700
 H262 H 0.06465 0.22535 0.82312
 C263 C -0.33144 -0.02612 0.43747
 C264 C -0.35256 -0.01493 0.41829
 C265 C -0.39424 -0.00136 0.41869
 C266 C -0.41451 0.00199 0.43830
 C267 C -0.39324 -0.00778 0.45804
 C268 C -0.35142 -0.02272 0.45709
 C269 C -0.33054 -0.01538 0.39850
 C270 C -0.31056 -0.01502 0.38246
 C271 C -0.28548 -0.01381 0.36435
 C272 C -0.26270 -0.01219 0.34948
 C273 C -0.23392 -0.00962 0.33248
 C274 C -0.21946 0.02820 0.32763
 C275 C -0.18863 0.03048 0.31260
 C276 C -0.17171 -0.00514 0.30224
 C277 C -0.18727 -0.04290 0.30678
 C278 C -0.21813 -0.04510 0.32183
 H279 H -0.29921 -0.03706 0.43732
 H280 H -0.41084 0.00768 0.40391
 H281 H -0.44616 0.01458 0.43790
 H282 H -0.33392 -0.03276 0.47139
 H283 H -0.23122 0.05582 0.33591
 H284 H -0.17695 0.05991 0.30972
 H285 H -0.17525 -0.07078 0.29887
 H286 H -0.22903 -0.07456 0.32550
 C287 C 0.36250 0.05401 0.43065
 C288 C 0.33158 0.02718 0.42622
 C289 C 0.32652 -0.00485 0.44023
 C290 C 0.35204 -0.01005 0.45865
 C291 C 0.38307 0.01680 0.46338
 C292 C 0.38820 0.04882 0.44913
 C293 C 0.30439 0.03222 0.40752
 C294 C 0.28034 0.03480 0.39231
 C295 C 0.25081 0.03598 0.37510
 C296 C 0.22446 0.03549 0.36098
 C297 C 0.19175 0.03318 0.34489
 C298 C 0.16063 0.00680 0.34800
 C299 C 0.12830 0.00438 0.33278
 C300 C 0.12653 0.02839 0.31417
 C301 C 0.15816 0.05461 0.31104
 C302 C 0.19056 0.05703 0.32636
 H303 H 0.36661 0.07899 0.41993
 H304 H 0.30278 -0.02587 0.43693
 H305 H 0.34777 -0.03540 0.46909
 H306 H 0.41161 0.07015 0.45244
 H307 H 0.16133 -0.01193 0.36224
 H308 H 0.10485 -0.01662 0.33548
 H309 H 0.15746 0.07371 0.29695
 H310 H 0.21449 0.07760 0.32380
   
