data_POSCAR
  _audit_creation_date              2014-09-24
  _audit_creation_method            'ToBaCCo'
  _symmetry_space_group_name_H-M    'P1'
  _symmetry_Int_Tables_number       1
  _symmetry_cell_setting            triclinic
  loop_
  _symmetry_equiv_pos_as_xyz
 x,y,z
_cell_length_a 35.7849
_cell_length_b 33.3266
_cell_length_c 32.7758
_cell_angle_alpha 90.189600
_cell_angle_beta 90.168500
_cell_angle_gamma 91.143700
loop_
  _atom_site_label
  _atom_site_type_symbol
  _atom_site_fract_x
  _atom_site_fract_y
  _atom_site_fract_z
Si1 Si 1.24955 0.25064 0.24635
 Si2 Si 0.75024 -0.25046 0.26420
 Si3 Si 0.75208 0.25143 -0.24230
 Si4 Si 1.25161 -0.24913 -0.24842
 Si5 Si 0.24773 0.24895 0.75129
 Si6 Si 0.74801 0.74935 0.72944
 Si7 Si 0.75033 0.24977 0.24429
 Si8 Si 0.25044 0.74986 0.24549
 O9 O 1.04847 0.06510 0.07333
 O10 O 1.09010 0.02889 0.03573
 C11 C 1.08221 0.05565 0.06306
 O12 O 0.94438 -0.08246 0.06894
 O13 O 0.90292 -0.04396 0.03351
 C14 C 0.91070 -0.07188 0.05947
 O15 O 1.04912 -0.07735 0.07289
 O16 O 1.09046 -0.03921 0.03523
 C17 C 1.08281 -0.06617 0.06265
 O18 O 0.94415 0.06357 0.07141
 O19 O 0.90277 0.02559 0.03321
 C20 C 0.91045 0.05286 0.06061
 Zr21 Zr 0.99641 0.04291 0.05098
 O22 O 0.99323 0.04156 0.11547
 O23 O 0.99881 0.10643 0.05155
 Zr24 Zr 0.99675 -0.05846 0.05015
 O25 O 0.99307 -0.05994 0.11458
 O26 O 0.99847 -0.12172 0.04614
 O27 O 1.03004 -0.00691 0.05905
 O28 O 0.96409 -0.00862 0.05791
 O29 O 0.94463 0.06466 -0.07156
 O30 O 0.90303 0.02494 -0.03596
 C31 C 0.91092 0.05325 -0.06183
 O32 O 1.04970 -0.07694 -0.07407
 O33 O 1.09070 -0.03876 -0.03553
 C34 C 1.08327 -0.06577 -0.06315
 O35 O 0.94568 -0.08254 -0.07237
 O36 O 0.90356 -0.04500 -0.03693
 C37 C 0.91178 -0.07296 -0.06307
 O38 O 1.04882 0.06576 -0.07300
 O39 O 1.09028 0.02911 -0.03552
 C40 C 1.08251 0.05606 -0.06265
 Zr41 Zr 0.99675 0.04283 -0.05210
 O42 O 0.99664 0.03598 -0.11621
 O43 O 0.99641 0.10603 -0.05760
 Zr44 Zr 0.99726 -0.05785 -0.05239
 O45 O 0.99442 -0.05612 -0.11691
 O46 O 1.00032 -0.12120 -0.05331
 Zr47 Zr 1.05277 -0.00595 -0.00018
 Zr48 Zr 0.94066 -0.00891 -0.00106
 O49 O 0.96418 -0.00832 -0.05987
 O50 O 1.03075 -0.00653 -0.05989
 O51 O 0.96318 0.05008 -0.00073
 O52 O 1.02967 -0.06453 -0.00084
 O53 O 1.02896 0.05124 -0.00024
 O54 O 0.96339 -0.06677 -0.00139
 H55 H 0.94744 -0.00915 0.08201
 H56 H 1.04627 -0.08797 -0.00085
 H57 H 0.94747 -0.00877 -0.08404
 H58 H 1.04544 0.07548 0.00010
 H59 H 0.99780 -0.13173 0.07458
 H60 H 0.98402 -0.13146 -0.03118
 H61 H 1.01531 -0.03870 -0.12649
 H62 H 0.99575 0.06347 -0.12755
 H63 H 1.00310 0.11729 -0.03059
 H64 H 0.97828 0.11589 0.03395
 H65 H 1.01515 0.02692 0.12562
 H66 H 1.01281 -0.04164 0.12543
 O67 O 1.06026 0.56071 0.57828
 O68 O 1.09967 0.52846 0.53442
 C69 C 1.09326 0.55235 0.56486
 O70 O 0.95362 0.41837 0.56770
 O71 O 0.91124 0.45868 0.53588
 C72 C 0.91975 0.42932 0.55981
 O73 O 1.05765 0.42105 0.56452
 O74 O 1.09825 0.46124 0.52828
 C75 C 1.09108 0.43251 0.55393
 O76 O 0.95689 0.56033 0.58376
 O77 O 0.91216 0.52768 0.54486
 C78 C 0.92251 0.55058 0.57528
 Zr79 Zr 1.00711 0.54347 0.55600
 O80 O 1.01054 0.54336 0.62040
 O81 O 1.01035 0.60705 0.55668
 Zr82 Zr 1.00505 0.44240 0.54627
 O83 O 1.00548 0.43458 0.61037
 O84 O 1.00455 0.37986 0.53535
 O85 O 1.03968 0.49234 0.55768
 O86 O 0.97421 0.49192 0.56055
 O87 O 0.94939 0.57687 0.44006
 O88 O 0.90908 0.53462 0.47449
 C89 C 0.91601 0.56468 0.45045
 O90 O 1.05131 0.43304 0.41821
 O91 O 1.09502 0.46744 0.45689
 C92 C 1.08557 0.44273 0.42780
 O93 O 0.94727 0.43132 0.42480
 O94 O 0.90792 0.46544 0.46720
 C95 C 0.91417 0.44055 0.43745
 O96 O 1.05390 0.57478 0.43078
 O97 O 1.09619 0.53475 0.46305
 C98 C 1.08783 0.56349 0.43822
 Zr99 Zr 1.00229 0.55281 0.45439
 O100 O 0.99555 0.55842 0.39049
 O101 O 1.00725 0.61594 0.46091
 Zr102 Zr 1.00052 0.45200 0.44439
 O103 O 0.99458 0.45943 0.38055
 O104 O 1.00174 0.38886 0.43766
 Zr105 Zr 1.05977 0.49784 0.49751
 Zr106 Zr 0.94768 0.49734 0.50351
 O107 O 0.96856 0.50290 0.44372
 O108 O 1.03454 0.50327 0.43960
 O109 O 0.97103 0.55583 0.50797
 O110 O 1.03531 0.44005 0.49304
 O111 O 1.03760 0.55549 0.50418
 O112 O 0.96904 0.43929 0.49637
 H113 H 0.95917 0.48882 0.58570
 H114 H 1.05143 0.41638 0.49013
 H115 H 0.95085 0.50510 0.42057
 H116 H 1.05484 0.57911 0.50554
 H117 H 1.00594 0.36698 0.56251
 H118 H 0.98513 0.37718 0.45879
 H119 H 1.01719 0.47383 0.37055
 H120 H 1.01526 0.54250 0.37740
 H121 H 0.98762 0.62445 0.48009
 H122 H 0.98511 0.61729 0.55089
 H123 H 1.00410 0.51586 0.62946
 H124 H 1.02544 0.45242 0.62160
 O125 O 0.54759 0.07783 0.57430
 O126 O 0.58954 0.03968 0.53920
 C127 C 0.58132 0.06658 0.56619
 O128 O 0.44081 -0.06413 0.57324
 O129 O 0.40105 -0.02892 0.53238
 C130 C 0.40763 -0.05444 0.56123
 O131 O 0.54353 -0.05683 0.58411
 O132 O 0.58826 -0.02604 0.54437
 C133 C 0.57791 -0.04740 0.57570
 O134 O 0.44338 0.07936 0.56776
 O135 O 0.40243 0.04041 0.52988
 C136 C 0.40987 0.06836 0.55658
 Zr137 Zr 0.49583 0.05764 0.54939
 O138 O 0.49088 0.06208 0.61359
 O139 O 0.50045 0.12088 0.54417
 Zr140 Zr 0.49383 -0.04384 0.55334
 O141 O 0.48885 -0.04859 0.61741
 O142 O 0.49542 -0.10702 0.54851
 O143 O 0.52749 0.00739 0.56098
 O144 O 0.46234 0.00711 0.55770
 O145 O 0.44760 0.07264 0.42256
 O146 O 0.40474 0.03721 0.46071
 C147 C 0.41349 0.06300 0.43268
 O148 O 0.55041 -0.06796 0.43120
 O149 O 0.59110 -0.03097 0.47124
 C150 C 0.58386 -0.05769 0.44330
 O151 O 0.44579 -0.07123 0.42916
 O152 O 0.40367 -0.03272 0.46374
 C153 C 0.41193 -0.06088 0.43797
 O154 O 0.55202 0.07052 0.42458
 O155 O 0.59201 0.03630 0.46629
 C156 C 0.58526 0.06101 0.43665
 Zr157 Zr 0.49908 0.05314 0.44736
 O158 O 0.50013 0.05612 0.38298
 O159 O 0.50341 0.11661 0.45017
 Zr160 Zr 0.49765 -0.04838 0.45146
 O161 O 0.49659 -0.05246 0.38698
 O162 O 0.49987 -0.11163 0.45630
 Zr163 Zr 0.55279 0.00462 0.50303
 Zr164 Zr 0.44065 0.00438 0.49805
 O165 O 0.46625 0.00184 0.44036
 O166 O 0.53188 0.00215 0.44271
 O167 O 0.46380 0.06309 0.49659
 O168 O 0.52873 -0.05343 0.50456
 O169 O 0.53060 0.06256 0.49947
 O170 O 0.46188 -0.05405 0.50127
 H171 H 0.44523 0.00801 0.58137
 H172 H 0.54570 -0.07645 0.50708
 H173 H 0.45046 0.00053 0.41550
 H174 H 0.54816 0.08593 0.49917
 H175 H 0.49510 -0.11721 0.57685
 H176 H 0.47789 -0.12072 0.47231
 H177 H 0.51731 -0.03532 0.37649
 H178 H 0.49679 0.02839 0.37276
 H179 H 0.47872 0.12692 0.45810
 H180 H 0.47787 0.13021 0.52983
 H181 H 0.50936 0.04387 0.62571
 H182 H 0.48859 -0.02089 0.62821
 O183 O 0.55572 0.57331 0.07592
 O184 O 0.59702 0.54082 0.03448
 C185 C 0.58935 0.56492 0.06431
 O186 O 0.45142 0.42974 0.06992
 O187 O 0.40980 0.46698 0.03337
 C188 C 0.41770 0.43939 0.05962
 O189 O 0.55575 0.43354 0.07098
 O190 O 0.59705 0.47213 0.03372
 C191 C 0.58938 0.44479 0.06082
 O192 O 0.45129 0.57523 0.07309
 O193 O 0.40976 0.53771 0.03463
 C194 C 0.41757 0.56482 0.06207
 Zr195 Zr 0.50332 0.55445 0.05176
 O196 O 0.49980 0.55441 0.11622
 O197 O 0.50689 0.61795 0.05155
 Zr198 Zr 0.50345 0.45328 0.04952
 O199 O 0.50050 0.45267 0.11405
 O200 O 0.50684 0.38993 0.04759
 O201 O 0.53696 0.50449 0.05859
 O202 O 0.47086 0.50300 0.05829
 O203 O 0.45005 0.57750 -0.07010
 O204 O 0.40887 0.53754 -0.03429
 C205 C 0.41642 0.56569 -0.06040
 O206 O 0.55480 0.43677 -0.07635
 O207 O 0.59650 0.47413 -0.03774
 C208 C 0.58851 0.44778 -0.06584
 O209 O 0.45029 0.43243 -0.07413
 O210 O 0.40918 0.46814 -0.03537
 C211 C 0.41665 0.44165 -0.06315
 O212 O 0.55401 0.57788 -0.07364
 O213 O 0.59634 0.54169 -0.03700
 C214 C 0.58796 0.56833 -0.06439
 Zr215 Zr 0.50247 0.55585 -0.05123
 O216 O 0.50148 0.55069 -0.11552
 O217 O 0.50172 0.61921 -0.05495
 Zr218 Zr 0.50271 0.45517 -0.05327
 O219 O 0.49952 0.45662 -0.11776
 O220 O 0.50614 0.39181 -0.05400
 Zr221 Zr 0.55912 0.50626 -0.00096
 Zr222 Zr 0.44697 0.50350 -0.00044
 O223 O 0.46983 0.50492 -0.05950
 O224 O 0.53620 0.50654 -0.06027
 O225 O 0.46952 0.56244 0.00060
 O226 O 0.53569 0.44778 -0.00222
 O227 O 0.53551 0.56350 0.00029
 O228 O 0.46953 0.44553 -0.00187
 H229 H 0.45435 0.50233 0.08251
 H230 H 0.55231 0.42436 -0.00286
 H231 H 0.45304 0.50496 -0.08359
 H232 H 0.55253 0.58730 0.00089
 H233 H 0.48533 0.37957 0.03141
 H234 H 0.48459 0.38086 -0.03851
 H235 H 0.51870 0.47621 -0.12729
 H236 H 0.50014 0.57841 -0.12619
 H237 H 0.51294 0.63007 -0.02955
 H238 H 0.48554 0.62764 0.03530
 H239 H 0.51859 0.53555 0.12648
 H240 H 0.52269 0.46752 0.12471
 C241 C 1.22335 0.19236 0.18920
 C242 C 1.19592 0.17446 0.16405
 C243 C 1.16229 0.19477 0.15630
 C244 C 1.15775 0.23367 0.17166
 C245 C 1.18544 0.25144 0.19620
 C246 C 1.21773 0.23040 0.20615
 C247 C 1.13345 0.17550 0.13424
 C248 C 1.13807 0.13645 0.11927
 C249 C 1.17257 0.11719 0.12483
 C250 C 1.20116 0.13615 0.14750
 C251 C 1.17777 0.07907 0.10791
 C252 C 1.14870 0.05972 0.08668
 C253 C 1.11357 0.07740 0.08326
 C254 C 1.10862 0.11617 0.09909
 H255 H 1.24838 0.17611 0.19654
 H256 H 1.13241 0.24991 0.16558
 H257 H 1.18087 0.28097 0.20893
 H258 H 1.10728 0.19064 0.12927
 H259 H 1.22722 0.12088 0.15276
 H260 H 1.20425 0.06418 0.11115
 H261 H 1.15354 0.03061 0.07351
 H262 H 1.08194 0.13062 0.09552
 C263 C 1.22878 0.69021 0.69521
 C264 C 1.20324 0.67175 0.66818
 C265 C 1.17065 0.69229 0.65657
 C266 C 1.16501 0.73144 0.67061
 C267 C 1.19059 0.74953 0.69736
 C268 C 1.22206 0.72875 0.71046
 C269 C 1.14365 0.67298 0.63217
 C270 C 1.14870 0.63337 0.61929
 C271 C 1.18195 0.61332 0.62918
 C272 C 1.20910 0.63270 0.65362
 C273 C 1.18694 0.57392 0.61516
 C274 C 1.15864 0.55416 0.59284
 C275 C 1.12488 0.57332 0.58489
 C276 C 1.12043 0.61319 0.59749
 H277 H 1.25312 0.67410 0.70521
 H278 H 1.14032 0.74764 0.66178
 H279 H 1.18511 0.77928 0.70901
 H280 H 1.11827 0.68841 0.62409
 H281 H 1.23426 0.61709 0.66210
 H282 H 1.21238 0.55818 0.62208
 H283 H 1.16258 0.52357 0.58307
 H284 H 1.09463 0.62839 0.59067
 C285 C 0.72248 0.19193 0.70366
 C286 C 0.69534 0.17569 0.67706
 C287 C 0.66443 0.19901 0.66556
 C288 C 0.66195 0.23861 0.67967
 C289 C 0.68925 0.25459 0.70588
 C290 C 0.71923 0.23118 0.71850
 C291 C 0.63623 0.18218 0.64075
 C292 C 0.63862 0.14242 0.62706
 C293 C 0.67017 0.11956 0.63734
 C294 C 0.69826 0.13629 0.66241
 C295 C 0.67286 0.08014 0.62272
 C296 C 0.64427 0.06326 0.59873
 C297 C 0.61232 0.08533 0.58949
 C298 C 0.60975 0.12500 0.60355
 H299 H 0.74561 0.17373 0.71328
 H300 H 0.63861 0.25699 0.67098
 H301 H 0.68644 0.28496 0.71717
 H302 H 0.61223 0.19986 0.63249
 H303 H 0.72213 0.11853 0.67087
 H304 H 0.69689 0.06225 0.63014
 H305 H 0.64668 0.03254 0.58830
 H306 H 0.58532 0.14230 0.59611
 C307 C 0.72582 0.69403 0.20322
 C308 C 0.69983 0.66740 0.18505
 C309 C 0.66728 0.65569 0.20669
 C310 C 0.66217 0.66934 0.24677
 C311 C 0.68829 0.69572 0.26464
 C312 C 0.71975 0.70886 0.24269
 C313 C 0.63991 0.63150 0.18755
 C314 C 0.64465 0.61892 0.14705
 C315 C 0.67794 0.62912 0.12601
 C316 C 0.70533 0.65332 0.14516
 C317 C 0.68282 0.61569 0.08579
 C318 C 0.65448 0.59353 0.06611
 C319 C 0.62066 0.58489 0.08618
 C320 C 0.61621 0.59708 0.12692
 H321 H 0.75005 0.70399 0.18607
 H322 H 0.63753 0.66044 0.26391
 H323 H 0.68327 0.70698 0.29513
 H324 H 0.61454 0.62326 0.20382
 H325 H 0.73049 0.66194 0.12872
 H326 H 0.70826 0.62296 0.06931
 H327 H 0.65848 0.58436 0.03470
 H328 H 0.59037 0.58998 0.14281
 C329 C 0.77619 -0.19402 0.20514
 C330 C 0.80201 -0.17882 0.17667
 C331 C 0.83446 -0.20073 0.16765
 C332 C 0.83981 -0.23809 0.18600
 C333 C 0.81376 -0.25315 0.21387
 C334 C 0.78224 -0.23098 0.22409
 C335 C 0.86136 -0.18467 0.14103
 C336 C 0.85623 -0.14701 0.12321
 C337 C 0.82313 -0.12579 0.13086
 C338 C 0.79623 -0.14181 0.15762
 C339 C 0.81792 -0.08845 0.11229
 C340 C 0.84581 -0.07165 0.08754
 C341 C 0.87947 -0.09177 0.08126
 C342 C 0.88419 -0.12979 0.09863
 H343 H 0.75180 -0.17688 0.21278
 H344 H 0.86434 -0.25541 0.17920
 H345 H 0.81863 -0.28188 0.22809
 H346 H 0.88656 -0.20114 0.13476
 H347 H 0.77116 -0.12519 0.16413
 H348 H 0.79265 -0.07186 0.11763
 H349 H 0.84164 -0.04218 0.07464
 H350 H 0.90996 -0.14565 0.09370
 C351 C 0.77950 0.30329 0.69559
 C352 C 0.80677 0.32820 0.67753
 C353 C 0.83917 0.33957 0.69993
 C354 C 0.84288 0.32739 0.74061
 C355 C 0.81542 0.30291 0.75842
 C356 C 0.78411 0.29004 0.73576
 C357 C 0.86766 0.36214 0.68108
 C358 C 0.86400 0.37382 0.64025
 C359 C 0.83086 0.36401 0.61843
 C360 C 0.80255 0.34106 0.63713
 C361 C 0.82680 0.37701 0.57806
 C362 C 0.85555 0.39891 0.55927
 C363 C 0.88903 0.40741 0.58015
 C364 C 0.89307 0.39499 0.62075
 H365 H 0.75540 0.29341 0.67794
 H366 H 0.86737 0.33604 0.75833
 H367 H 0.81930 0.29276 0.78948
 H368 H 0.89284 0.37015 0.69799
 H369 H 0.77748 0.33280 0.62012
 H370 H 0.80150 0.37009 0.56098
 H371 H 0.85204 0.40841 0.52808
 H372 H 0.91868 0.40216 0.63723
 C373 C 0.27336 -0.18934 0.69413
 C374 C 0.29853 -0.16107 0.67755
 C375 C 0.33162 -0.15065 0.69919
 C376 C 0.33777 -0.16658 0.73807
 C377 C 0.31229 -0.19418 0.75454
 C378 C 0.28067 -0.20664 0.73218
 C379 C 0.35859 -0.12554 0.68113
 C380 C 0.35281 -0.11050 0.64182
 C381 C 0.31872 -0.11860 0.62122
 C382 C 0.29178 -0.14405 0.63916
 C383 C 0.31266 -0.10182 0.58261
 C384 C 0.34088 -0.07897 0.56377
 C385 C 0.37586 -0.07365 0.58271
 C386 C 0.38115 -0.08842 0.62234
 H387 H 0.24886 -0.19860 0.67684
 H388 H 0.36272 -0.15849 0.75527
 H389 H 0.31808 -0.20705 0.78414
 H390 H 0.38449 -0.11860 0.69719
 H391 H 0.26610 -0.15137 0.62288
 H392 H 0.28639 -0.10692 0.56671
 H393 H 0.33574 -0.06653 0.53398
 H394 H 0.40766 -0.08338 0.63781
 C395 C 0.27635 0.30686 0.18782
 C396 C 0.30355 0.33307 0.17152
 C397 C 0.33616 0.34263 0.19443
 C398 C 0.33997 0.32774 0.23410
 C399 C 0.31251 0.30222 0.25026
 C400 C 0.28122 0.29078 0.22683
 C401 C 0.36478 0.36613 0.17703
 C402 C 0.36102 0.38071 0.13723
 C403 C 0.32756 0.37306 0.11518
 C404 C 0.29914 0.34904 0.13234
 C405 C 0.32331 0.38925 0.07610
 C406 C 0.35231 0.41185 0.05863
 C407 C 0.38635 0.41776 0.07937
 C408 C 0.39037 0.40250 0.11895
 H409 H 0.25207 0.29824 0.16979
 H410 H 0.36454 0.33510 0.25225
 H411 H 0.31648 0.29008 0.28055
 H412 H 0.39016 0.37257 0.19424
 H413 H 0.27389 0.34234 0.11501
 H414 H 0.29769 0.38424 0.05896
 H415 H 0.34846 0.42394 0.02849
 H416 H 0.41628 0.40771 0.13557
 C417 C 0.77661 0.19305 -0.18528
 C418 C 0.80231 0.16551 -0.17001
 C419 C 0.83484 0.15702 -0.19270
 C420 C 0.84002 0.17432 -0.23119
 C421 C 0.81395 0.20095 -0.24646
 C422 C 0.78274 0.21129 -0.22320
 C423 C 0.86199 0.13201 -0.17628
 C424 C 0.85683 0.11482 -0.13772
 C425 C 0.82335 0.12128 -0.11605
 C426 C 0.79641 0.14688 -0.13217
 C427 C 0.81772 0.10242 -0.07833
 C428 C 0.84556 0.07864 -0.06159
 C429 C 0.87984 0.07427 -0.08164
 C430 C 0.88497 0.09179 -0.12017
 H431 H 0.75238 0.20068 -0.16738
 H432 H 0.86449 0.16772 -0.24921
 H433 H 0.81880 0.21446 -0.27603
 H434 H 0.88736 0.12641 -0.19324
 H435 H 0.77117 0.15272 -0.11507
 H436 H 0.79200 0.10644 -0.06156
 H437 H 0.84076 0.06469 -0.03240
 H438 H 0.91104 0.08780 -0.13634
 C439 C 0.77566 0.69206 0.32138
 C440 C 0.80198 0.67631 0.34851
 C441 C 0.83396 0.69959 0.35955
 C442 C 0.83804 0.73893 0.34498
 C443 C 0.81153 0.75445 0.31832
 C444 C 0.78075 0.73083 0.30566
 C445 C 0.86184 0.68282 0.38391
 C446 C 0.85817 0.64305 0.39740
 C447 C 0.82530 0.62048 0.38818
 C448 C 0.79743 0.63723 0.36375
 C449 C 0.82136 0.58108 0.40264
 C450 C 0.85033 0.56360 0.42453
 C451 C 0.88388 0.58507 0.43198
 C452 C 0.88733 0.62509 0.41898
 H453 H 0.75197 0.67369 0.31165
 H454 H 0.86220 0.75731 0.35336
 H455 H 0.81583 0.78443 0.30633
 H456 H 0.88678 0.70035 0.39151
 H457 H 0.77268 0.61955 0.35577
 H458 H 0.79624 0.56347 0.39621
 H459 H 0.84709 0.53266 0.43413
 H460 H 0.91300 0.64198 0.42494
 C461 C 0.27498 0.19257 0.30286
 C462 C 0.30196 0.16707 0.31910
 C463 C 0.33568 0.16099 0.29766
 C464 C 0.34069 0.17822 0.25910
 C465 C 0.31334 0.20276 0.24281
 C466 C 0.28104 0.21114 0.26515
 C467 C 0.36412 0.13854 0.31544
 C468 C 0.35896 0.12133 0.35402
 C469 C 0.32427 0.12511 0.37415
 C470 C 0.29615 0.14833 0.35681
 C471 C 0.31842 0.10590 0.41155
 C472 C 0.34706 0.08430 0.42952
 C473 C 0.38249 0.08273 0.41127
 C474 C 0.38805 0.10073 0.37302
 H475 H 0.24991 0.19867 0.32002
 H476 H 0.36606 0.17339 0.24194
 H477 H 0.31819 0.21661 0.21339
 H478 H 0.39038 0.13492 0.29953
 H479 H 0.27000 0.15221 0.37287
 H480 H 0.29178 0.10771 0.42702
 H481 H 0.34167 0.06946 0.45820
 H482 H 0.41496 0.09877 0.35810
 C483 C 0.27749 0.69355 -0.19148
 C484 C 0.30476 0.66888 -0.17447
 C485 C 0.33949 0.66478 -0.19449
 C486 C 0.34544 0.68320 -0.23233
 C487 C 0.31789 0.70695 -0.24936
 C488 C 0.28441 0.71330 -0.22844
 C489 C 0.36796 0.64300 -0.17606
 C490 C 0.36196 0.62459 -0.13823
 C491 C 0.32653 0.62642 -0.11943
 C492 C 0.29822 0.64893 -0.13747
 C493 C 0.32018 0.60589 -0.08276
 C494 C 0.34903 0.58484 -0.06428
 C495 C 0.38502 0.58527 -0.08127
 C496 C 0.39105 0.60461 -0.11876
 H497 H 0.25140 0.69798 -0.17558
 H498 H 0.37164 0.67983 -0.24837
 H499 H 0.32333 0.72161 -0.27824
 H500 H 0.39493 0.64080 -0.19090
 H501 H 0.27135 0.65130 -0.12254
 H502 H 0.29299 0.60614 -0.06837
 H503 H 0.34331 0.56873 -0.03643
 H504 H 0.41840 0.60402 -0.13291
 C505 C 1.22526 -0.19399 -0.18957
 C506 C 1.19768 -0.17779 -0.16448
 C507 C 1.16362 -0.19924 -0.15851
 C508 C 1.15873 -0.23758 -0.17564
 C509 C 1.18654 -0.25365 -0.20018
 C510 C 1.21933 -0.23143 -0.20832
 C511 C 1.13469 -0.18160 -0.13652
 C512 C 1.13954 -0.14297 -0.12003
 C513 C 1.17437 -0.12255 -0.12386
 C514 C 1.20316 -0.13996 -0.14631
 C515 C 1.17963 -0.08480 -0.10555
 C516 C 1.15030 -0.06692 -0.08470
 C517 C 1.11493 -0.08582 -0.08294
 C518 C 1.10994 -0.12424 -0.10012
 H519 H 1.25066 -0.17684 -0.19549
 H520 H 1.13303 -0.25466 -0.17095
 H521 H 1.18170 -0.28274 -0.21427
 H522 H 1.10822 -0.19760 -0.13288
 H523 H 1.22952 -0.12382 -0.15024
 H524 H 1.20634 -0.06903 -0.10747
 H525 H 1.15515 -0.03800 -0.07053
 H526 H 1.08304 -0.13963 -0.09792
 C527 C 1.22406 0.31011 0.30120
 C528 C 1.19711 0.32759 0.32621
 C529 C 1.16459 0.30528 0.33698
 C530 C 1.16058 0.26519 0.32429
 C531 C 1.18769 0.24799 0.29955
 C532 C 1.21898 0.27066 0.28700
 C533 C 1.13624 0.32369 0.35930
 C534 C 1.14017 0.36402 0.37127
 C535 C 1.17346 0.38572 0.36209
 C536 C 1.20164 0.36743 0.33948
 C537 C 1.17784 0.42556 0.37537
 C538 C 1.14933 0.44391 0.39709
 C539 C 1.11570 0.42315 0.40509
 C540 C 1.11130 0.38309 0.39220
 H541 H 1.24813 0.32782 0.29164
 H542 H 1.13600 0.24753 0.33249
 H543 H 1.18334 0.21754 0.28863
 H544 H 1.11094 0.30686 0.36681
 H545 H 1.22681 0.38435 0.33170
 H546 H 1.20329 0.44252 0.36895
 H547 H 1.15329 0.47459 0.40702
 H548 H 1.08564 0.36662 0.39901
 C549 C 0.72309 -0.19386 0.32173
 C550 C 0.69667 -0.16697 0.33679
 C551 C 0.66519 -0.15756 0.31267
 C552 C 0.66149 -0.17381 0.27334
 C553 C 0.68808 -0.20017 0.25850
 C554 C 0.71857 -0.21089 0.28280
 C555 C 0.63752 -0.13280 0.32853
 C556 C 0.64094 -0.11715 0.36815
 C557 C 0.67317 -0.12506 0.39165
 C558 C 0.70080 -0.15003 0.37586
 C559 C 0.67681 -0.10842 0.43088
 C560 C 0.64829 -0.08524 0.44717
 C561 C 0.61548 -0.07877 0.42470
 C562 C 0.61225 -0.09434 0.38494
 H563 H 0.74658 -0.20203 0.34062
 H564 H 0.63771 -0.16670 0.25434
 H565 H 0.68425 -0.21312 0.22838
 H566 H 0.61303 -0.12629 0.31032
 H567 H 0.72514 -0.15679 0.39420
 H568 H 0.70143 -0.11389 0.44922
 H569 H 0.65134 -0.07352 0.47789
 H570 H 0.58720 -0.08904 0.36722
 C571 C 0.72726 0.31329 -0.18959
 C572 C 0.70091 0.33129 -0.16412
 C573 C 0.66929 0.30873 -0.15097
 C574 C 0.66546 0.26816 -0.16197
 C575 C 0.69185 0.25054 -0.18724
 C576 C 0.72238 0.27315 -0.20184
 C577 C 0.64149 0.32731 -0.12808
 C578 C 0.64490 0.36814 -0.11805
 C579 C 0.67724 0.39035 -0.12958
 C580 C 0.70503 0.37179 -0.15268
 C581 C 0.68089 0.43093 -0.11832
 C582 C 0.65237 0.44955 -0.09665
 C583 C 0.61956 0.42805 -0.08669
 C584 C 0.61616 0.38726 -0.09710
 H585 H 0.75065 0.33099 -0.20098
 H586 H 0.64151 0.25040 -0.15200
 H587 H 0.68757 0.21963 -0.19678
 H588 H 0.61687 0.31020 -0.11876
 H589 H 0.72945 0.38900 -0.16235
 H590 H 0.70560 0.44834 -0.12660
 H591 H 0.65548 0.48102 -0.08866
 H592 H 0.59111 0.37038 -0.08878
 C593 C 1.22223 0.19075 -0.19128
 C594 C 1.19540 0.17335 -0.16526
 C595 C 1.16252 0.19439 -0.15602
 C596 C 1.15816 0.23342 -0.17092
 C597 C 1.18527 0.25068 -0.19633
 C598 C 1.21683 0.22904 -0.20761
 C599 C 1.13416 0.17572 -0.13299
 C600 C 1.13847 0.13644 -0.11867
 C601 C 1.17228 0.11635 -0.12586
 C602 C 1.20042 0.13481 -0.14934
 C603 C 1.17713 0.07782 -0.10991
 C604 C 1.14833 0.05886 -0.08816
 C605 C 1.11388 0.07754 -0.08287
 C606 C 1.10933 0.11669 -0.09772
 H607 H 1.24656 0.17388 -0.19973
 H608 H 1.13335 0.25018 -0.16381
 H609 H 1.18074 0.28030 -0.20869
 H610 H 1.10853 0.19146 -0.12685
 H611 H 1.22592 0.11892 -0.15580
 H612 H 1.20305 0.06221 -0.11456
 H613 H 1.15269 0.02915 -0.07634
 H614 H 1.08310 0.13176 -0.09301
 C615 C 1.22593 0.69337 0.30216
 C616 C 1.19905 0.67677 0.32871
 C617 C 1.16562 0.69745 0.33624
 C618 C 1.16074 0.73552 0.31932
 C619 C 1.18796 0.75224 0.29378
 C620 C 1.22017 0.73083 0.28386
 C621 C 1.13736 0.67949 0.35994
 C622 C 1.14243 0.64146 0.37704
 C623 C 1.17684 0.62197 0.37179
 C624 C 1.20476 0.63949 0.34726
 C625 C 1.18261 0.58509 0.39096
 C626 C 1.15416 0.56705 0.41398
 C627 C 1.11891 0.58469 0.41699
 C628 C 1.11352 0.62243 0.39904
 H629 H 1.25074 0.67660 0.29532
 H630 H 1.13559 0.75211 0.32530
 H631 H 1.18307 0.78142 0.28053
 H632 H 1.11131 0.69491 0.36472
 H633 H 1.23073 0.62397 0.34231
 H634 H 1.20908 0.57013 0.38807
 H635 H 1.15959 0.53889 0.42888
 H636 H 1.08685 0.63699 0.40213
 C637 C 0.72365 0.18970 0.29982
 C638 C 0.69730 0.17271 0.32687
 C639 C 0.66546 0.19478 0.33782
 C640 C 0.66127 0.23385 0.32298
 C641 C 0.68773 0.25055 0.29648
 C642 C 0.71864 0.22844 0.28414
 C643 C 0.63793 0.17724 0.36276
 C644 C 0.64184 0.13798 0.37722
 C645 C 0.67432 0.11638 0.36784
 C646 C 0.70183 0.13384 0.34254
 C647 C 0.67834 0.07746 0.38347
 C648 C 0.64999 0.05973 0.40720
 C649 C 0.61698 0.08043 0.41506
 C650 C 0.61337 0.11976 0.40041
 H651 H 0.74754 0.17250 0.29051
 H652 H 0.63719 0.25125 0.33133
 H653 H 0.68351 0.28045 0.28470
 H654 H 0.61318 0.19394 0.37043
 H655 H 0.72642 0.11702 0.33462
 H656 H 0.70315 0.06052 0.37688
 H657 H 0.65328 0.02939 0.41820
 H658 H 0.58816 0.13614 0.40686
 C659 C 0.72096 0.69998 -0.20635
 C660 C 0.69331 0.67961 -0.18349
 C661 C 0.65518 0.68584 -0.19242
 C662 C 0.64539 0.71200 -0.22396
 C663 C 0.67305 0.73162 -0.24682
 C664 C 0.71092 0.72612 -0.23798
 C665 C 0.62740 0.66533 -0.17020
 C666 C 0.63712 0.63830 -0.13938
 C667 C 0.67513 0.63182 -0.13035
 C668 C 0.70306 0.65268 -0.15237
 C669 C 0.68440 0.60442 -0.09957
 C670 C 0.65630 0.58361 -0.07804
 C671 C 0.61838 0.58990 -0.08681
 C672 C 0.60922 0.61746 -0.11764
 H673 H 0.75026 0.69502 -0.20004
 H674 H 0.61630 0.71670 -0.23147
 H675 H 0.66468 0.75024 -0.27206
 H676 H 0.59817 0.67013 -0.17718
 H677 H 0.73227 0.64772 -0.14555
 H678 H 0.71340 0.59902 -0.09219
 H679 H 0.66426 0.56269 -0.05450
 H680 H 0.58020 0.62278 -0.12503
 C681 C 0.77626 -0.20304 -0.20510
 C682 C 0.80437 -0.18331 -0.18204
 C683 C 0.84232 -0.18920 -0.19191
 C684 C 0.85149 -0.21432 -0.22463
 C685 C 0.82338 -0.23320 -0.24774
 C686 C 0.78569 -0.22814 -0.23791
 C687 C 0.87054 -0.16928 -0.16952
 C688 C 0.86142 -0.14300 -0.13771
 C689 C 0.82359 -0.13686 -0.12774
 C690 C 0.79523 -0.15729 -0.14982
 C691 C 0.81488 -0.11005 -0.09614
 C692 C 0.84337 -0.08929 -0.07489
 C693 C 0.88111 -0.09517 -0.08466
 C694 C 0.88974 -0.12237 -0.11610
 H695 H 0.74709 -0.19839 -0.19802
 H696 H 0.88043 -0.21873 -0.23287
 H697 H 0.83128 -0.25096 -0.27387
 H698 H 0.89962 -0.17381 -0.17723
 H699 H 0.76616 -0.15257 -0.14228
 H700 H 0.78604 -0.10491 -0.08803
 H701 H 0.83583 -0.06861 -0.05087
 H702 H 0.91862 -0.12726 -0.12430
 C703 C 0.77538 0.30717 0.30425
 C704 C 0.80187 0.33412 0.32143
 C705 C 0.83536 0.34294 0.30010
 C706 C 0.84073 0.32688 0.26106
 C707 C 0.81393 0.30095 0.24390
 C708 C 0.78175 0.28992 0.26579
 C709 C 0.86330 0.36698 0.31838
 C710 C 0.85804 0.38300 0.35747
 C711 C 0.82369 0.37655 0.37781
 C712 C 0.79588 0.35179 0.35982
 C713 C 0.81807 0.39461 0.41601
 C714 C 0.84680 0.41733 0.43460
 C715 C 0.88200 0.42118 0.41599
 C716 C 0.88697 0.40480 0.37682
 H717 H 0.75039 0.29913 0.32110
 H718 H 0.86597 0.33382 0.24407
 H719 H 0.81904 0.28828 0.21401
 H720 H 0.88939 0.37269 0.30244
 H721 H 0.76992 0.34585 0.37590
 H722 H 0.79163 0.39085 0.43171
 H723 H 0.84177 0.43101 0.46395
 H724 H 0.91361 0.40857 0.36148
 C725 C 0.27412 -0.19481 0.30414
 C726 C 0.30075 -0.16822 0.32144
 C727 C 0.33367 -0.15827 0.29961
 C728 C 0.33834 -0.17310 0.25995
 C729 C 0.31150 -0.19904 0.24276
 C730 C 0.27977 -0.21112 0.26508
 C731 C 0.36173 -0.13440 0.31806
 C732 C 0.35708 -0.11985 0.35789
 C733 C 0.32326 -0.12785 0.37883
 C734 C 0.29542 -0.15223 0.36062
 C735 C 0.31809 -0.11169 0.41791
 C736 C 0.34652 -0.08877 0.43649
 C737 C 0.38095 -0.08252 0.41692
 C738 C 0.38589 -0.09775 0.37730
 H739 H 0.24972 -0.20343 0.32172
 H740 H 0.36315 -0.16536 0.24256
 H741 H 0.31638 -0.21095 0.21247
 H742 H 0.38738 -0.12766 0.30167
 H743 H 0.26990 -0.15922 0.37714
 H744 H 0.29218 -0.11701 0.43423
 H745 H 0.34197 -0.07680 0.46663
 H746 H 0.41212 -0.09235 0.36158
 C747 C 0.27465 0.30808 -0.19228
 C748 C 0.30240 0.33387 -0.17584
 C749 C 0.33664 0.33948 -0.19678
 C750 C 0.34155 0.32145 -0.23500
 C751 C 0.31351 0.29661 -0.25149
 C752 C 0.28053 0.28874 -0.22969
 C753 C 0.36566 0.36235 -0.17889
 C754 C 0.36064 0.38051 -0.14073
 C755 C 0.32559 0.37720 -0.12107
 C756 C 0.29683 0.35349 -0.13848
 C757 C 0.32003 0.39753 -0.08416
 C758 C 0.34924 0.41984 -0.06628
 C759 C 0.38495 0.42090 -0.08399
 C760 C 0.39022 0.40172 -0.12176
 H761 H 0.24906 0.30238 -0.17554
 H762 H 0.36734 0.32591 -0.25178
 H763 H 0.31828 0.28223 -0.28065
 H764 H 0.39225 0.36564 -0.19446
 H765 H 0.27032 0.35000 -0.12278
 H766 H 0.29311 0.39619 -0.06911
 H767 H 0.34398 0.43580 -0.03824
 H768 H 0.41730 0.40333 -0.13647
 C769 C 1.22555 -0.19358 0.19012
 C770 C 1.19807 -0.17748 0.16457
 C771 C 1.16531 -0.20027 0.15550
 C772 C 1.16181 -0.23976 0.16972
 C773 C 1.18954 -0.25578 0.19451
 C774 C 1.22091 -0.23239 0.20622
 C775 C 1.13627 -0.18295 0.13318
 C776 C 1.13992 -0.14338 0.11902
 C777 C 1.17367 -0.12154 0.12581
 C778 C 1.20237 -0.13854 0.14890
 C779 C 1.17803 -0.08288 0.10962
 C780 C 1.14887 -0.06557 0.08792
 C781 C 1.11439 -0.08589 0.08321
 C782 C 1.11028 -0.12516 0.09837
 H783 H 1.24973 -0.17524 0.19832
 H784 H 1.13719 -0.25792 0.16254
 H785 H 1.18546 -0.28594 0.20618
 H786 H 1.11071 -0.20006 0.12730
 H787 H 1.22780 -0.12130 0.15509
 H788 H 1.20396 -0.06599 0.11380
 H789 H 1.15305 -0.03594 0.07548
 H790 H 1.08413 -0.14160 0.09387
 C791 C 1.22471 0.30486 0.69109
 C792 C 1.19894 0.32083 0.66341
 C793 C 1.16461 0.30018 0.65606
 C794 C 1.15755 0.26298 0.67457
 C795 C 1.18358 0.24706 0.70143
 C796 C 1.21669 0.26837 0.71072
 C797 C 1.13752 0.31741 0.63112
 C798 C 1.14435 0.35488 0.61308
 C799 C 1.17940 0.37453 0.61835
 C800 C 1.20648 0.35747 0.64370
 C801 C 1.18638 0.41131 0.59877
 C802 C 1.15827 0.42928 0.57581
 C803 C 1.12254 0.41129 0.57295
 C804 C 1.11619 0.37345 0.59070
 H805 H 1.25049 0.32115 0.69783
 H806 H 1.13162 0.24655 0.66884
 H807 H 1.17728 0.21860 0.71597
 H808 H 1.11081 0.30207 0.62646
 H809 H 1.23302 0.37302 0.64870
 H810 H 1.21331 0.42649 0.60179
 H811 H 1.16414 0.45782 0.56137
 H812 H 1.08901 0.35873 0.58783
 C813 C 0.70552 -0.18176 0.70909
 C814 C 0.69166 -0.15303 0.68195
 C815 C 0.70583 -0.15060 0.64174
 C816 C 0.73579 -0.17464 0.63056
 C817 C 0.74966 -0.20274 0.65792
 C818 C 0.73293 -0.20839 0.69624
 C819 C 0.68916 -0.12514 0.61314
 C820 C 0.65826 -0.10228 0.62421
 C821 C 0.64593 -0.10275 0.66528
 C822 C 0.66282 -0.12785 0.69386
 C823 C 0.61547 -0.07973 0.67674
 C824 C 0.59540 -0.05919 0.64734
 C825 C 0.60545 -0.06094 0.60594
 C826 C 0.63804 -0.08089 0.59463
 H827 H 0.69411 -0.18430 0.73959
 H828 H 0.74793 -0.17235 0.60039
 H829 H 0.77280 -0.22096 0.64848
 H830 H 0.69919 -0.12445 0.58194
 H831 H 0.65232 -0.12917 0.72487
 H832 H 0.60599 -0.07925 0.70811
 H833 H 0.57063 -0.04343 0.65670
 H834 H 0.64587 -0.08239 0.56274
 C835 C 0.72565 0.31091 0.19005
 C836 C 0.69959 0.32864 0.16378
 C837 C 0.66735 0.30647 0.15147
 C838 C 0.66259 0.26651 0.16410
 C839 C 0.68877 0.24910 0.18996
 C840 C 0.71999 0.27132 0.20376
 C841 C 0.63998 0.32485 0.12758
 C842 C 0.64447 0.36506 0.11558
 C843 C 0.67743 0.38674 0.12629
 C844 C 0.70474 0.36844 0.15048
 C845 C 0.68216 0.42661 0.11316
 C846 C 0.65407 0.44519 0.09061
 C847 C 0.62056 0.42442 0.08142
 C848 C 0.61619 0.38415 0.09358
 H849 H 0.74964 0.32834 0.20058
 H850 H 0.63818 0.24901 0.15474
 H851 H 0.68389 0.21865 0.20042
 H852 H 0.61489 0.30807 0.11890
 H853 H 0.72965 0.38534 0.15947
 H854 H 0.70736 0.44360 0.12079
 H855 H 0.65801 0.47620 0.08151
 H856 H 0.59061 0.36771 0.08610
 C857 C 0.77475 0.19042 0.18706
 C858 C 0.80114 0.16382 0.17101
 C859 C 0.83515 0.15800 0.19213
 C860 C 0.84118 0.17663 0.23001
 C861 C 0.81447 0.20205 0.24616
 C862 C 0.78174 0.21020 0.22431
 C863 C 0.86287 0.13417 0.17486
 C864 C 0.85680 0.11520 0.13712
 C865 C 0.82193 0.11869 0.11722
 C866 C 0.79444 0.14339 0.13402
 C867 C 0.81537 0.09761 0.08067
 C868 C 0.84353 0.07457 0.06330
 C869 C 0.87919 0.07336 0.08123
 C870 C 0.88527 0.09312 0.11876
 H871 H 0.74929 0.19613 0.17032
 H872 H 0.86679 0.17198 0.24691
 H873 H 0.82004 0.21652 0.27524
 H874 H 0.88931 0.13073 0.19061
 H875 H 0.76808 0.14698 0.11817
 H876 H 0.78854 0.09912 0.06540
 H877 H 0.83763 0.05842 0.03537
 H878 H 0.91230 0.09154 0.13364
 C879 C 0.79084 0.68108 0.70866
 C880 C 0.80568 0.65322 0.68118
 C881 C 0.79214 0.65117 0.64060
 C882 C 0.76190 0.67478 0.62926
 C883 C 0.74721 0.70222 0.65691
 C884 C 0.76330 0.70746 0.69576
 C885 C 0.80980 0.62665 0.61180
 C886 C 0.84113 0.60450 0.62306
 C887 C 0.85299 0.60478 0.66438
 C888 C 0.83501 0.62876 0.69316
 C889 C 0.88400 0.58269 0.67599
 C890 C 0.90483 0.56301 0.64663
 C891 C 0.89497 0.56463 0.60513
 C892 C 0.86209 0.58391 0.59352
 H893 H 0.80185 0.68340 0.73944
 H894 H 0.75029 0.67282 0.59873
 H895 H 0.72406 0.72037 0.64730
 H896 H 0.80020 0.62620 0.58038
 H897 H 0.84504 0.62986 0.72443
 H898 H 0.89319 0.58215 0.70752
 H899 H 0.92980 0.54771 0.65620
 H900 H 0.85443 0.58529 0.56153
 C901 C 0.27194 0.19381 0.69093
 C902 C 0.29812 0.16818 0.67339
 C903 C 0.33037 0.15783 0.69580
 C904 C 0.33487 0.17147 0.73604
 C905 C 0.30855 0.19669 0.75329
 C906 C 0.27758 0.20883 0.73052
 C907 C 0.35808 0.13498 0.67732
 C908 C 0.35391 0.12214 0.63678
 C909 C 0.32085 0.13065 0.61500
 C910 C 0.29318 0.15377 0.63341
 C911 C 0.31638 0.11643 0.57492
 C912 C 0.34489 0.09503 0.55621
 C913 C 0.37855 0.08833 0.57689
 C914 C 0.38262 0.10145 0.61745
 H915 H 0.24798 0.20297 0.67326
 H916 H 0.35922 0.16353 0.75377
 H917 H 0.31321 0.20810 0.78390
 H918 H 0.38322 0.12790 0.69420
 H919 H 0.26822 0.16118 0.61639
 H920 H 0.29106 0.12221 0.55791
 H921 H 0.34104 0.08471 0.52523
 H922 H 0.40824 0.09560 0.63397
 C923 C 0.27626 0.69524 0.18836
 C924 C 0.30348 0.66968 0.17253
 C925 C 0.33591 0.66176 0.19570
 C926 C 0.33953 0.67759 0.23518
 C927 C 0.31208 0.70239 0.25095
 C928 C 0.28077 0.71239 0.22734
 C929 C 0.36450 0.63883 0.17878
 C930 C 0.36083 0.62310 0.13919
 C931 C 0.32751 0.62910 0.11692
 C932 C 0.29919 0.65263 0.13355
 C933 C 0.32325 0.61179 0.07813
 C934 C 0.35210 0.58968 0.06111
 C935 C 0.38611 0.58537 0.08192
 C936 C 0.39012 0.60178 0.12132
 H937 H 0.25223 0.70232 0.16981
 H938 H 0.36395 0.67144 0.25358
 H939 H 0.31612 0.71499 0.28121
 H940 H 0.38975 0.63365 0.19622
 H941 H 0.27407 0.65805 0.11599
 H942 H 0.29772 0.61556 0.06081
 H943 H 0.34815 0.57677 0.03117
 H944 H 0.41599 0.59796 0.13804
   
