data_POSCAR
  _audit_creation_date              2014-09-24
  _audit_creation_method            'ToBaCCo'
  _symmetry_space_group_name_H-M    'P1'
  _symmetry_Int_Tables_number       1
  _symmetry_cell_setting            triclinic
  loop_
  _symmetry_equiv_pos_as_xyz
 x,y,z
_cell_length_a 45.7594
_cell_length_b 45.5669
_cell_length_c 45.7532
_cell_angle_alpha 89.908000
_cell_angle_beta 90.000500
_cell_angle_gamma 90.085300
loop_
  _atom_site_label
  _atom_site_type_symbol
  _atom_site_fract_x
  _atom_site_fract_y
  _atom_site_fract_z
N1 N 0.59024 0.67162 0.61346
 N2 N 0.57877 0.65956 0.63698
 C3 C 0.55511 0.67515 0.64510
 C4 C 0.55181 0.69802 0.62563
 C5 C 0.57431 0.69525 0.60583
 H6 H 0.54131 0.67030 0.66368
 H7 H 0.57874 0.70934 0.58730
 Cu8 Cu 0.59609 0.62466 0.65437
 Cu9 Cu 0.62493 0.65584 0.59444
 Cu10 Cu 0.65579 0.59354 0.62544
 N11 N 0.61339 0.58974 0.67175
 N12 N 0.63683 0.57767 0.66023
 C13 C 0.64438 0.55396 0.67614
 C14 C 0.62460 0.55119 0.69869
 C15 C 0.60520 0.57409 0.69542
 H16 H 0.66283 0.53985 0.67165
 H17 H 0.58661 0.57890 0.70920
 N18 N 0.67179 0.61286 0.59025
 N19 N 0.66004 0.63658 0.57847
 C20 C 0.67584 0.64443 0.55484
 C21 C 0.69843 0.62475 0.55178
 C22 C 0.69537 0.60504 0.57442
 H23 H 0.67131 0.66303 0.54085
 H24 H 0.70931 0.58644 0.57894
 H25 H 0.61900 0.61295 0.60768
 H26 H 0.64263 0.63651 0.63115
 N27 N 0.91036 0.32752 0.11324
 N28 N 0.92185 0.33958 0.13671
 C29 C 0.94549 0.32399 0.14491
 C30 C 0.94874 0.30115 0.12549
 C31 C 0.92625 0.30387 0.10566
 H32 H 0.95927 0.32884 0.16348
 H33 H 0.92179 0.28977 0.08719
 Cu34 Cu 0.90468 0.37444 0.15414
 Cu35 Cu 0.87570 0.34333 0.09426
 Cu36 Cu 0.84484 0.40553 0.12514
 N37 N 0.88725 0.40930 0.17132
 N38 N 0.86379 0.42136 0.15983
 C39 C 0.85624 0.44501 0.17573
 C40 C 0.87604 0.44779 0.19824
 C41 C 0.89542 0.42490 0.19496
 H42 H 0.83777 0.45912 0.17129
 H43 H 0.91401 0.42007 0.20873
 N44 N 0.82885 0.38627 0.09004
 N45 N 0.84061 0.36259 0.07828
 C46 C 0.82479 0.35476 0.05469
 C47 C 0.80220 0.37443 0.05163
 C48 C 0.80526 0.39410 0.07423
 H49 H 0.82931 0.33618 0.04073
 H50 H 0.79131 0.41269 0.07874
 H51 H 0.88167 0.38621 0.10750
 H52 H 0.85810 0.36259 0.13107
 N53 N 0.40963 0.17201 -0.11315
 N54 N 0.42110 0.15995 -0.13661
 C55 C 0.44484 0.17550 -0.14471
 C56 C 0.44816 0.19834 -0.12530
 C57 C 0.42561 0.19561 -0.10555
 H58 H 0.45867 0.17065 -0.16323
 H59 H 0.42120 0.20971 -0.08708
 Cu60 Cu 0.40377 0.12511 -0.15392
 Cu61 Cu 0.37488 0.15626 -0.09418
 Cu62 Cu 0.34388 0.09401 -0.12507
 N63 N 0.38640 0.09025 -0.17120
 N64 N 0.36291 0.07818 -0.15973
 C65 C 0.35537 0.05447 -0.17557
 C66 C 0.37523 0.05168 -0.19802
 C67 C 0.39465 0.07459 -0.19475
 H68 H 0.33689 0.04034 -0.17112
 H69 H 0.41329 0.07939 -0.20848
 N70 N 0.32789 0.11333 -0.09002
 N71 N 0.33970 0.13702 -0.07827
 C72 C 0.32388 0.14491 -0.05473
 C73 C 0.30121 0.12526 -0.05171
 C74 C 0.30423 0.10554 -0.07426
 H75 H 0.32842 0.16352 -0.04081
 H76 H 0.29022 0.08696 -0.07877
 H77 H 0.38073 0.11333 -0.10731
 H78 H 0.35722 0.13694 -0.13092
 N79 N 0.08969 0.82779 0.38669
 N80 N 0.07816 0.83991 0.36325
 C81 C 0.05454 0.82423 0.35503
 C82 C 0.05132 0.80126 0.37442
 C83 C 0.07384 0.80402 0.39423
 H84 H 0.04077 0.82908 0.33644
 H85 H 0.07836 0.78984 0.41267
 Cu86 Cu 0.09547 0.87489 0.34595
 Cu87 Cu 0.12444 0.84371 0.40565
 Cu88 Cu 0.15531 0.90616 0.37482
 N89 N 0.11277 0.90987 0.32869
 N90 N 0.13625 0.92196 0.34016
 C91 C 0.14382 0.94566 0.32426
 C92 C 0.12402 0.94844 0.30178
 C93 C 0.10462 0.92552 0.30504
 H94 H 0.16231 0.95979 0.32869
 H95 H 0.08606 0.92068 0.29123
 N96 N 0.17130 0.88683 0.40990
 N97 N 0.15957 0.86305 0.42166
 C98 C 0.17542 0.85522 0.44524
 C99 C 0.19800 0.87499 0.44828
 C100 C 0.19489 0.89472 0.42569
 H101 H 0.17095 0.83657 0.45919
 H102 H 0.20882 0.91337 0.42116
 H103 H 0.11864 0.88675 0.39243
 H104 H 0.14218 0.86331 0.36881
 N105 N 0.08964 0.17256 0.11314
 N106 N 0.07818 0.16046 0.13662
 C107 C 0.05455 0.17604 0.14481
 C108 C 0.05125 0.19893 0.12540
 C109 C 0.07373 0.19621 0.10558
 H110 H 0.04079 0.17117 0.16342
 H111 H 0.07816 0.21037 0.08710
 Cu112 Cu 0.09532 0.12559 0.15411
 Cu113 Cu 0.12429 0.15676 0.09418
 Cu114 Cu 0.15515 0.09450 0.12513
 N115 N 0.11275 0.09072 0.17128
 N116 N 0.13619 0.07867 0.15981
 C117 C 0.14374 0.05501 0.17574
 C118 C 0.12395 0.05224 0.19826
 C119 C 0.10457 0.07510 0.19495
 H120 H 0.16218 0.04088 0.17133
 H121 H 0.08599 0.07992 0.20874
 N122 N 0.17112 0.11380 0.09002
 N123 N 0.15938 0.13750 0.07822
 C124 C 0.17519 0.14535 0.05460
 C125 C 0.19776 0.12565 0.05160
 C126 C 0.19470 0.10596 0.07423
 H127 H 0.17070 0.16394 0.04061
 H128 H 0.20863 0.08735 0.07877
 H129 H 0.11837 0.11385 0.10749
 H130 H 0.14194 0.13739 0.13098
 N131 N 0.40982 0.82811 0.61326
 N132 N 0.42127 0.84013 0.63676
 C133 C 0.44495 0.82457 0.64491
 C134 C 0.44828 0.80173 0.62548
 C135 C 0.42577 0.80451 0.60567
 H136 H 0.45875 0.82941 0.66348
 H137 H 0.42135 0.79044 0.58717
 Cu138 Cu 0.40395 0.87499 0.65406
 Cu139 Cu 0.37512 0.84393 0.59423
 Cu140 Cu 0.34420 0.90614 0.62512
 N141 N 0.38663 0.90984 0.67135
 N142 N 0.36320 0.92191 0.65983
 C143 C 0.35566 0.94559 0.67569
 C144 C 0.37545 0.94836 0.69821
 C145 C 0.39483 0.92547 0.69497
 H146 H 0.33722 0.95971 0.67121
 H147 H 0.41343 0.92068 0.70875
 N148 N 0.32823 0.88688 0.59000
 N149 N 0.33999 0.86320 0.57823
 C150 C 0.32418 0.85539 0.55463
 C151 C 0.30159 0.87507 0.55158
 C152 C 0.30464 0.89473 0.57419
 H153 H 0.32869 0.83682 0.54067
 H154 H 0.29069 0.91331 0.57871
 H155 H 0.38099 0.88687 0.60744
 H156 H 0.35738 0.86324 0.63094
 N157 N 0.91030 0.67198 0.38662
 N158 N 0.92184 0.65991 0.36321
 C159 C 0.94548 0.67559 0.35504
 C160 C 0.94870 0.69857 0.37436
 C161 C 0.92614 0.69574 0.39413
 H162 H 0.95923 0.67084 0.33642
 H163 H 0.92163 0.70985 0.41257
 Cu164 Cu 0.90430 0.62506 0.34591
 Cu165 Cu 0.87549 0.65611 0.40559
 Cu166 Cu 0.84462 0.59371 0.37481
 N167 N 0.88724 0.58995 0.32871
 N168 N 0.86375 0.57786 0.34018
 C169 C 0.85617 0.55419 0.32430
 C170 C 0.87599 0.55141 0.30182
 C171 C 0.89544 0.57431 0.30511
 H172 H 0.83768 0.54005 0.32879
 H173 H 0.91396 0.57922 0.29126
 N174 N 0.82857 0.61302 0.40986
 N175 N 0.84032 0.63677 0.42159
 C176 C 0.82446 0.64461 0.44514
 C177 C 0.80184 0.62487 0.44821
 C178 C 0.80495 0.60516 0.42565
 H179 H 0.82894 0.66323 0.45905
 H180 H 0.79100 0.58653 0.42115
 H181 H 0.88137 0.61312 0.39241
 H182 H 0.85771 0.63664 0.36883
 N183 N 0.59041 0.32819 -0.11330
 N184 N 0.57889 0.34033 -0.13673
 C185 C 0.55525 0.32469 -0.14490
 C186 C 0.55200 0.30176 -0.12550
 C187 C 0.57452 0.30449 -0.10574
 H188 H 0.54145 0.32951 -0.16348
 H189 H 0.57899 0.29031 -0.08729
 Cu190 Cu 0.59623 0.37523 -0.15409
 Cu191 Cu 0.62514 0.34390 -0.09432
 Cu192 Cu 0.65612 0.40623 -0.12532
 N193 N 0.61358 0.41016 -0.17146
 N194 N 0.63711 0.42217 -0.16004
 C195 C 0.64472 0.44583 -0.17601
 C196 C 0.62489 0.44866 -0.19852
 C197 C 0.60542 0.42578 -0.19513
 H198 H 0.66324 0.45991 -0.17161
 H199 H 0.58683 0.42095 -0.20891
 N200 N 0.67211 0.38686 -0.09018
 N201 N 0.66030 0.36314 -0.07839
 C202 C 0.67609 0.35523 -0.05481
 C203 C 0.69875 0.37489 -0.05178
 C204 C 0.69574 0.39464 -0.07438
 H205 H 0.67154 0.33660 -0.04086
 H206 H 0.70975 0.41323 -0.07890
 H207 H 0.61935 0.38674 -0.10747
 H208 H 0.64277 0.36319 -0.13110
 C209 C -0.03019 0.28017 0.12580
 C210 C -0.01152 0.26154 0.12595
 C211 C 0.01031 0.23972 0.12593
 C212 C 0.02898 0.22109 0.12576
 C213 C 0.52956 0.72024 0.62589
 C214 C 0.51094 0.73893 0.62598
 C215 C 0.48917 0.76085 0.62594
 C216 C 0.47055 0.77954 0.62579
 C217 C 1.03024 0.78016 0.37409
 C218 C 1.01157 0.76144 0.37393
 C219 C 0.98970 0.73951 0.37392
 C220 C 0.97100 0.72083 0.37406
 C221 C 0.47048 0.22047 -0.12559
 C222 C 0.48918 0.23910 -0.12575
 C223 C 0.51103 0.26093 -0.12581
 C224 C 0.52971 0.27958 -0.12575
 C225 C 0.12368 -0.02930 0.27956
 C226 C 0.12353 -0.01058 0.26096
 C227 C 0.12350 0.01135 0.23918
 C228 C 0.12362 0.03005 0.22054
 C229 C 0.62435 0.53016 -0.28017
 C230 C 0.62428 0.51148 -0.26145
 C231 C 0.62437 0.48958 -0.23955
 C232 C 0.62457 0.47090 -0.22084
 C233 C 0.37557 1.02950 0.77973
 C234 C 0.37575 1.01089 0.76106
 C235 C 0.37581 0.98910 0.73919
 C236 C 0.37572 0.97050 0.72050
 C237 C 0.87637 0.46997 0.22052
 C238 C 0.87651 0.48862 0.23918
 C239 C 0.87649 0.51050 0.26099
 C240 C 0.87632 0.52918 0.27960
 C241 C 0.27899 0.12533 -0.02957
 C242 C 0.26036 0.12541 -0.01097
 C243 C 0.23856 0.12552 0.01081
 C244 C 0.21994 0.12561 0.02941
 C245 C 0.72059 0.62476 0.52953
 C246 C 0.73919 0.62478 0.51087
 C247 C 0.76099 0.62481 0.48903
 C248 C 0.77962 0.62484 0.47039
 C249 C 0.78002 0.37447 0.02943
 C250 C 0.76141 0.37454 0.01080
 C251 C 0.73960 0.37465 -0.01101
 C252 C 0.72097 0.37477 -0.02962
 C253 C 0.22023 0.87503 0.47043
 C254 C 0.23890 0.87505 0.48901
 C255 C 0.26075 0.87507 0.51078
 C256 C 0.27939 0.87509 0.52939
   
