data_POSCAR
  _audit_creation_date              2014-09-24
  _audit_creation_method            'ToBaCCo'
  _symmetry_space_group_name_H-M    'P1'
  _symmetry_Int_Tables_number       1
  _symmetry_cell_setting            triclinic
  loop_
  _symmetry_equiv_pos_as_xyz
 x,y,z
_cell_length_a 23.5350
_cell_length_b 24.4491
_cell_length_c 23.4030
_cell_angle_alpha 89.119800
_cell_angle_beta 90.138100
_cell_angle_gamma 89.918600
loop_
  _atom_site_label
  _atom_site_type_symbol
  _atom_site_fract_x
  _atom_site_fract_y
  _atom_site_fract_z
N1 N 0.18741 1.29736 0.10676
 N2 N 0.14190 1.29111 0.13873
 C3 C 0.10368 1.33009 0.12443
 C4 C 0.12688 1.36235 0.08125
 C5 C 0.18017 1.34076 0.07151
 H6 H 0.06195 1.33395 0.14323
 H7 H 0.21062 1.35428 0.03975
 Cu8 Cu 0.13702 1.23169 0.19508
 Cu9 Cu 0.25073 1.24602 0.10992
 Cu10 Cu 0.20716 1.11847 0.15739
 N11 N 0.12904 1.16362 0.23873
 N12 N 0.15540 1.11926 0.22183
 C13 C 0.14183 1.07723 0.25657
 C14 C 0.10587 1.09617 0.29835
 C15 C 0.09833 1.15137 0.28594
 H16 H 0.15819 1.03608 0.25248
 H17 H 0.07251 1.18016 0.30909
 N18 N 0.27602 1.13005 0.11138
 N19 N 0.29376 1.17896 0.09486
 C20 C 0.34268 1.17363 0.06579
 C21 C 0.35647 1.11872 0.06456
 C22 C 0.31349 1.09222 0.09390
 H23 H 0.36627 1.20715 0.04673
 H24 H 0.30985 1.04872 0.10212
 H25 H 0.18740 1.19138 0.11484
 H26 H 0.23225 1.19416 0.18061
 N27 N 0.84469 0.72317 0.16293
 N28 N 0.87699 0.71812 0.20869
 C29 C 0.91073 0.67406 0.20335
 C30 C 0.89935 0.65062 0.15125
 C31 C 0.85733 0.68281 0.12651
 H32 H 0.94221 0.66078 0.23435
 H33 H 0.83779 0.67766 0.08505
 Cu34 Cu 0.87432 0.77155 0.26925
 Cu35 Cu 0.78988 0.78290 0.15437
 Cu36 Cu 0.75026 0.83591 0.28494
 N37 N 0.86328 0.82433 0.32955
 N38 N 0.81292 0.84597 0.33824
 C39 C 0.81615 0.88100 0.38181
 C40 C 0.87204 0.88310 0.39986
 C41 C 0.90092 0.84629 0.36611
 H42 H 0.78156 0.90686 0.39554
 H43 H 0.94606 0.83786 0.36644
 N44 N 0.70503 0.84610 0.21472
 N45 N 0.72111 0.82786 0.16445
 C46 C 0.68549 0.84769 0.12399
 C47 C 0.64569 0.88051 0.15020
 C48 C 0.65912 0.87839 0.20761
 H49 H 0.68979 0.84086 0.07866
 H50 H 0.63905 0.90125 0.24126
 H51 H 0.80986 0.83540 0.22159
 H52 H 0.77547 0.76805 0.23706
 N53 N 0.82040 1.27187 -0.11714
 N54 N 0.86007 1.28464 -0.15454
 C55 C 0.88484 1.33181 -0.13895
 C56 C 0.85904 1.34937 -0.08945
 C57 C 0.81824 1.31058 -0.07692
 H58 H 0.91979 1.35136 -0.16109
 H59 H 0.79085 1.30940 -0.03988
 Cu60 Cu 0.87704 1.23767 -0.21918
 Cu61 Cu 0.77941 1.20300 -0.11954
 Cu62 Cu 0.80304 1.12114 -0.23534
 N63 N 0.88661 1.19211 -0.28646
 N64 N 0.85671 1.14713 -0.29236
 C65 C 0.87309 1.12170 -0.33997
 C66 C 0.91582 1.15204 -0.36550
 C67 C 0.92312 1.19690 -0.33078
 H68 H 0.85648 1.08289 -0.35383
 H69 H 0.95418 1.22913 -0.33612
 N70 N 0.74344 1.10536 -0.17867
 N71 N 0.73477 1.13645 -0.13389
 C72 C 0.69264 1.11454 -0.10215
 C73 C 0.67399 1.06758 -0.12837
 C74 C 0.70682 1.06303 -0.17682
 H75 H 0.67668 1.13136 -0.06285
 H76 H 0.70449 1.03090 -0.20797
 H77 H 0.83798 1.15954 -0.16565
 H78 H 0.78295 1.19851 -0.20727
 N79 N 0.12889 0.73091 -0.12881
 N80 N 0.09653 0.73629 -0.17446
 C81 C 0.05643 0.69701 -0.17332
 C82 C 0.06405 0.66587 -0.12411
 C83 C 0.11029 0.68848 -0.09682
 H84 H 0.02345 0.69212 -0.20509
 H85 H 0.12870 0.67550 -0.05644
 Cu86 Cu 0.10794 0.79674 -0.22821
 Cu87 Cu 0.19084 0.78102 -0.11260
 Cu88 Cu 0.23457 0.85949 -0.22900
 N89 N 0.12505 0.85441 -0.28366
 N90 N 0.17496 0.87852 -0.28344
 C91 C 0.17657 0.91658 -0.32538
 C92 C 0.12473 0.91669 -0.35313
 C93 C 0.09286 0.87664 -0.32579
 H94 H 0.21256 0.94279 -0.33439
 H95 H 0.04958 0.86506 -0.33540
 N96 N 0.28015 0.85071 -0.15887
 N97 N 0.26368 0.82042 -0.11478
 C98 C 0.30340 0.82296 -0.07345
 C99 C 0.34622 0.85734 -0.09206
 C100 C 0.33018 0.87445 -0.14624
 H101 H 0.30070 0.80253 -0.03223
 H102 H 0.35289 0.90252 -0.17407
 H103 H 0.17427 0.84727 -0.16841
 H104 H 0.20617 0.78350 -0.19732
 Si105 Si 0.51149 0.97635 -0.00376
 Si106 Si -0.02058 0.50635 1.00496
 Si107 Si 1.00989 0.02463 0.48880
 N108 N 0.08977 0.47082 0.99002
 N109 N 0.12729 0.43440 1.00905
 C110 C 0.10167 0.40571 1.05140
 C111 C 0.04727 0.42569 1.05781
 N112 N 0.04165 0.46613 1.01873
 H113 H 0.01463 0.41184 1.08715
 N114 N -0.01123 0.53824 1.11711
 N115 N -0.03041 0.57445 1.15394
 C116 C -0.07130 0.60347 1.12668
 C117 C -0.07682 0.58377 1.07204
 N118 N -0.03860 0.54321 1.06788
 H119 H -0.10402 0.59887 1.03791
 N120 N -0.12383 0.45292 1.01477
 N121 N -0.15406 0.41312 0.99178
 C122 C -0.12490 0.39611 0.94576
 C123 C -0.07599 0.42666 0.94120
 N124 N -0.07692 0.46146 0.98495
 H125 H -0.04176 0.42237 0.91077
 N126 N -0.03527 0.55797 0.89972
 N127 N -0.01450 0.59791 0.86701
 C128 C 0.02914 0.61988 0.89620
 C129 C 0.03441 0.59238 0.94771
 N130 N -0.00638 0.55418 0.94819
 H131 H 0.06466 0.59948 0.98172
 N132 N 1.06971 -0.00658 0.39569
 N133 N 1.09452 0.01035 0.34812
 C134 C 1.08431 0.06442 0.34312
 C135 C 1.05203 0.08033 0.38952
 N136 N 1.04412 0.03451 0.42120
 H137 H 1.03705 0.12085 0.39986
 N138 N 1.11368 0.01726 0.54072
 N139 N 1.14323 -0.00921 0.58053
 C140 C 1.10889 -0.04836 0.60217
 C141 C 1.05715 -0.04534 0.57406
 N142 N 1.06219 -0.00380 0.53613
 H143 H 1.01940 -0.06970 0.58124
 N144 N 0.89785 -0.00769 0.48932
 N145 N 0.86232 -0.04249 0.46551
 C146 C 0.89436 -0.07908 0.43762
 C147 C 0.95089 -0.06615 0.44605
 N148 N 0.95113 -0.02101 0.47822
 H149 H 0.98770 -0.08433 0.42620
 N150 N 1.01322 0.13300 0.52374
 N151 N 0.99093 0.16493 0.56339
 C152 C 0.94743 0.13674 0.58696
 C153 C 0.94367 0.08727 0.56028
 N154 N 0.98466 0.08646 0.52065
 H155 H 0.91743 0.05295 0.57290
 N156 N 0.48075 1.08513 -0.01400
 N157 N 0.44254 1.12125 0.00290
 C158 C 0.40605 1.09393 0.03721
 C159 C 0.42310 1.04001 0.04099
 N160 N 0.46980 1.03632 0.00851
 H161 H 0.40356 1.00671 0.06474
 N162 N 0.56822 0.96484 -0.10681
 N163 N 0.60887 0.98751 -0.13838
 C164 C 0.62911 1.03015 -0.10860
 C165 C 0.59995 1.03273 -0.05784
 N166 N 0.56241 0.99152 -0.05842
 H167 H 0.60500 1.06199 -0.02395
 N168 N 0.45714 0.87746 0.00883
 N169 N 0.41509 0.84774 -0.01187
 C170 C 0.39619 0.87418 -0.05916
 C171 C 0.42803 0.92106 -0.06694
 N172 N 0.46545 0.92154 -0.02353
 H173 H 0.42235 0.95320 -0.09878
 N174 N 0.53902 0.97789 0.11119
 N175 N 0.57170 0.95359 0.15021
 C176 C 0.60250 0.91558 0.12277
 C177 C 0.58778 0.91734 0.06577
 N178 N 0.54820 0.95668 0.06039
 H179 H 0.60414 0.89263 0.03151
   
