data_POSCAR
  _audit_creation_date              2014-09-24
  _audit_creation_method            'ToBaCCo'
  _symmetry_space_group_name_H-M    'P1'
  _symmetry_Int_Tables_number       1
  _symmetry_cell_setting            triclinic
  loop_
  _symmetry_equiv_pos_as_xyz
 x,y,z
_cell_length_a 43.3778
_cell_length_b 41.3019
_cell_length_c 26.2453
_cell_angle_alpha 89.675200
_cell_angle_beta 90.170800
_cell_angle_gamma 116.983800
loop_
  _atom_site_label
  _atom_site_type_symbol
  _atom_site_fract_x
  _atom_site_fract_y
  _atom_site_fract_z
C1 C 0.45815 0.90215 0.49436
 C2 C 0.47075 0.91946 0.54144
 C3 C 0.49095 0.95765 0.54131
 C4 C 0.49551 0.97861 0.49661
 C5 C 0.48078 0.96012 0.45099
 C6 C 0.46355 0.92213 0.44912
 C7 C 0.51468 1.01954 0.49759
 C8 C 0.52901 1.03971 0.45252
 C9 C 0.54390 1.07804 0.45156
 C10 C 0.54767 1.09613 0.49817
 C11 C 0.53536 1.07697 0.54383
 C12 C 0.51797 1.03893 0.54307
 H13 H 0.44550 0.87280 0.49213
 H14 H 0.50185 0.97126 0.57657
 H15 H 0.48190 0.97484 0.41636
 H16 H 0.52715 1.02548 0.41755
 H17 H 0.56183 1.12546 0.49975
 H18 H 0.50653 1.02499 0.57822
 C19 C 0.08863 0.53922 0.49426
 C20 C 0.07273 0.52697 0.54211
 C21 C 0.03618 0.50995 0.54400
 C22 C 0.01597 0.50792 0.50072
 C23 C 0.03305 0.52160 0.45411
 C24 C 0.06908 0.53617 0.45031
 C25 C -0.02271 0.49224 0.50460
 C26 C -0.04418 0.47632 0.46198
 C27 C -0.08050 0.46301 0.46459
 C28 C -0.09508 0.46332 0.51243
 C29 C -0.07443 0.47812 0.55547
 C30 C -0.03843 0.49351 0.55094
 H31 H 0.11631 0.54954 0.49017
 H32 H 0.02327 0.49952 0.57975
 H33 H 0.01868 0.52169 0.42043
 H34 H -0.03232 0.47555 0.42632
 H35 H -0.12286 0.45023 0.51739
 H36 H -0.02296 0.50681 0.58391
 C37 C 0.45058 0.55071 0.50333
 C38 C 0.45791 0.53815 0.54960
 C39 C 0.47765 0.51886 0.54750
 C40 C 0.49306 0.51530 0.50189
 C41 C 0.48614 0.52966 0.45682
 C42 C 0.46389 0.54591 0.45697
 C43 C 0.51579 0.49635 0.50168
 C44 C 0.52375 0.48369 0.45607
 C45 C 0.54536 0.46661 0.45599
 C46 C 0.55721 0.45960 0.50253
 C47 C 0.54890 0.47076 0.54857
 C48 C 0.52975 0.49049 0.54751
 H49 H 0.43599 0.56609 0.50287
 H50 H 0.47953 0.50516 0.58154
 H51 H 0.49737 0.52798 0.42096
 H52 H 0.51294 0.48626 0.42010
 H53 H 0.57288 0.44534 0.50294
 H54 H 0.52633 0.50137 0.58313
 O55 O 0.36867 0.64951 -0.04280
 O56 O 0.36959 0.71171 -0.06164
 C57 C 0.35399 0.73000 -0.07434
 O58 O 0.32770 0.72797 -0.05047
 O59 O 0.27046 0.66906 -0.06470
 C60 C 0.25431 0.63524 -0.07301
 O61 O 0.25709 0.61178 -0.04426
 O62 O 0.31441 0.60730 -0.05610
 C63 C 0.34630 0.62237 -0.06716
 O64 O 0.36716 0.66217 0.05825
 O65 O 0.37032 0.72537 0.03946
 C66 C 0.34867 0.73277 0.06307
 O67 O 0.31695 0.71915 0.05111
 O68 O 0.25796 0.66236 0.03682
 C69 C 0.25276 0.63525 0.06512
 O70 O 0.26755 0.61537 0.05780
 O71 O 0.32326 0.60730 0.04591
 C72 C 0.34992 0.62906 0.07045
 Cr73 Cr 0.36703 0.68633 -0.00170
 Cr74 Cr 0.29415 0.69350 -0.00665
 Cr75 Cr 0.29158 0.61242 0.00076
 O76 O 0.31765 0.66411 -0.00247
 O77 O 0.62853 0.34599 -0.04190
 O78 O 0.63113 0.28586 -0.06251
 C79 C 0.64761 0.26830 -0.07380
 O80 O 0.67409 0.27143 -0.04911
 O81 O 0.73065 0.33263 -0.05744
 C82 C 0.74635 0.36685 -0.06265
 O83 O 0.74053 0.38835 -0.03425
 O84 O 0.68232 0.39052 -0.04988
 C85 C 0.65093 0.37468 -0.06360
 O86 O 0.62695 0.32967 0.05867
 O87 O 0.62734 0.26863 0.03754
 C88 C 0.64873 0.26103 0.06180
 O89 O 0.68095 0.27658 0.05303
 O90 O 0.73917 0.33575 0.04472
 C91 C 0.74258 0.36182 0.07362
 O92 O 0.72626 0.38026 0.06645
 O93 O 0.66953 0.38592 0.05144
 C94 C 0.64252 0.36227 0.07340
 Cr95 Cr 0.63042 0.30853 -0.00192
 Cr96 Cr 0.70524 0.30519 -0.00211
 Cr97 Cr 0.70370 0.38426 0.00818
 O98 O 0.67974 0.33263 0.00135
 C99 C 0.48405 0.91076 -0.36903
 C100 C 0.47466 0.89104 -0.32332
 C101 C 0.44315 0.85948 -0.31911
 C102 C 0.42175 0.84708 -0.36213
 C103 C 0.43119 0.86641 -0.40796
 C104 C 0.46238 0.89898 -0.41239
 C105 C 0.43368 0.83938 -0.27010
 C106 C 0.40072 0.82040 -0.25486
 C107 C 0.39044 0.79906 -0.20689
 C108 C 0.35859 0.79184 -0.18455
 C109 C 0.34708 0.77014 -0.14083
 C110 C 0.36699 0.75469 -0.11895
 C111 C 0.39893 0.76198 -0.14130
 C112 C 0.41057 0.78394 -0.18475
 H113 H 0.50895 0.93452 -0.37036
 H114 H 0.49196 0.90071 -0.29092
 H115 H 0.39767 0.82226 -0.36065
 H116 H 0.41289 0.85636 -0.43907
 H117 H 0.45450 0.84170 -0.24516
 H118 H 0.38027 0.82134 -0.27762
 H119 H 0.34246 0.80289 -0.20117
 H120 H 0.32225 0.76485 -0.12483
 H121 H 0.41483 0.75036 -0.12557
 H122 H 0.43478 0.78803 -0.20170
 C123 C 0.07988 0.51028 -0.36923
 C124 C 0.09899 0.51783 -0.32402
 C125 C 0.13151 0.54808 -0.32057
 C126 C 0.14544 0.56962 -0.36419
 C127 C 0.12651 0.56213 -0.40944
 C128 C 0.09293 0.53270 -0.41282
 C129 C 0.15031 0.55635 -0.27128
 C130 C 0.17256 0.59031 -0.25768
 C131 C 0.19157 0.60012 -0.20856
 C132 C 0.20670 0.63666 -0.19358
 C133 C 0.22633 0.64784 -0.14905
 C134 C 0.23147 0.62272 -0.11833
 C135 C 0.21604 0.58601 -0.13293
 C136 C 0.19640 0.57480 -0.17765
 H137 H 0.05524 0.48617 -0.36980
 H138 H 0.08804 0.50023 -0.29128
 H139 H 0.17099 0.59249 -0.36358
 H140 H 0.13789 0.58096 -0.44072
 H141 H 0.14385 0.53412 -0.24466
 H142 H 0.17620 0.61260 -0.28290
 H143 H 0.20358 0.65678 -0.21672
 H144 H 0.23788 0.67636 -0.13912
 H145 H 0.21981 0.56602 -0.11043
 H146 H 0.18599 0.54656 -0.18834
 C147 C 0.46525 0.54803 -0.35751
 C148 C 0.45549 0.55734 -0.31133
 C149 C 0.42656 0.56384 -0.30853
 C150 C 0.40753 0.56099 -0.35316
 C151 C 0.41730 0.55187 -0.39950
 C152 C 0.44658 0.54544 -0.40288
 C153 C 0.41813 0.57532 -0.25923
 C154 C 0.38623 0.57022 -0.24713
 C155 C 0.37760 0.58268 -0.19880
 C156 C 0.34306 0.56620 -0.18255
 C157 C 0.33318 0.57843 -0.13906
 C158 C 0.35762 0.60777 -0.11088
 C159 C 0.39235 0.62409 -0.12676
 C160 C 0.40227 0.61176 -0.17032
 H161 H 0.48868 0.54489 -0.35757
 H162 H 0.47092 0.55987 -0.27765
 H163 H 0.38545 0.56657 -0.35289
 H164 H 0.40112 0.54913 -0.43223
 H165 H 0.43877 0.58716 -0.23155
 H166 H 0.36502 0.55521 -0.27290
 H167 H 0.32352 0.54395 -0.20392
 H168 H 0.30616 0.56527 -0.12817
 H169 H 0.41177 0.64697 -0.10624
 H170 H 0.42898 0.62589 -0.18235
 C171 C 0.53740 0.12885 -0.40480
 C172 C 0.54673 0.15000 -0.36081
 C173 C 0.56085 0.14021 -0.31882
 C174 C 0.56375 0.10764 -0.32070
 C175 C 0.55425 0.08635 -0.36473
 C176 C 0.54168 0.09718 -0.40757
 C177 C 0.57203 0.16468 -0.27415
 C178 C 0.59622 0.16622 -0.24084
 C179 C 0.60880 0.19244 -0.19805
 C180 C 0.64112 0.20081 -0.17609
 C181 C 0.65397 0.22557 -0.13592
 C182 C 0.63467 0.24245 -0.11681
 C183 C 0.60215 0.23371 -0.13838
 C184 C 0.58923 0.20884 -0.17817
 H185 H 0.52725 0.13752 -0.43698
 H186 H 0.54371 0.17463 -0.36008
 H187 H 0.57337 0.09850 -0.28847
 H188 H 0.55778 0.06203 -0.36586
 H189 H 0.56163 0.18394 -0.27121
 H190 H 0.60895 0.14927 -0.24665
 H191 H 0.65661 0.18834 -0.19032
 H192 H 0.67903 0.23155 -0.11997
 H193 H 0.58631 0.24573 -0.12403
 H194 H 0.56366 0.20221 -0.19241
 C195 C 0.88057 0.48294 -0.38965
 C196 C 0.86272 0.47673 -0.34352
 C197 C 0.87273 0.46265 -0.30139
 C198 C 0.90238 0.45719 -0.30519
 C199 C 0.92038 0.46366 -0.35121
 C200 C 0.90912 0.47571 -0.39425
 C201 C 0.85105 0.45282 -0.25490
 C202 C 0.84705 0.42474 -0.22500
 C203 C 0.82199 0.41118 -0.18242
 C204 C 0.80839 0.37441 -0.16863
 C205 C 0.78391 0.36007 -0.12977
 C206 C 0.77281 0.38236 -0.10322
 C207 C 0.78708 0.41944 -0.11614
 C208 C 0.81142 0.43374 -0.15536
 H209 H 0.87168 0.49278 -0.42205
 H210 H 0.84024 0.48161 -0.34131
 H211 H 0.91146 0.44747 -0.27291
 H212 H 0.94232 0.45789 -0.35368
 H213 H 0.83528 0.46655 -0.24848
 H214 H 0.86026 0.40879 -0.23482
 H215 H 0.81631 0.35654 -0.18862
 H216 H 0.77366 0.33146 -0.12056
 H217 H 0.77924 0.43739 -0.09622
 H218 H 0.82209 0.46244 -0.16399
 C219 C 0.53508 0.44830 -0.36143
 C220 C 0.54343 0.43683 -0.31558
 C221 C 0.57582 0.43755 -0.30885
 C222 C 0.59976 0.44989 -0.34932
 C223 C 0.59138 0.46137 -0.39525
 C224 C 0.55888 0.46056 -0.40190
 C225 C 0.58287 0.42359 -0.26022
 C226 C 0.61484 0.43257 -0.24291
 C227 C 0.62218 0.41801 -0.19504
 C228 C 0.65514 0.43666 -0.17322
 C229 C 0.66408 0.42308 -0.12986
 C230 C 0.64027 0.39028 -0.10726
 C231 C 0.60706 0.37174 -0.12865
 C232 C 0.59811 0.38534 -0.17219
 H233 H 0.50958 0.44669 -0.36566
 H234 H 0.52437 0.42710 -0.28534
 H235 H 0.62463 0.44991 -0.34636
 H236 H 0.61030 0.47074 -0.42566
 H237 H 0.56072 0.40637 -0.23728
 H238 H 0.63691 0.45242 -0.26365
 H239 H 0.67424 0.46173 -0.19012
 H240 H 0.68994 0.43807 -0.11455
 H241 H 0.58824 0.34620 -0.11256
 H242 H 0.57276 0.36950 -0.18852
 C243 C 0.86624 0.45185 0.41787
 C244 C 0.84551 0.44063 0.37449
 C245 C 0.85557 0.42734 0.33207
 C246 C 0.88714 0.42550 0.33399
 C247 C 0.90803 0.43672 0.37756
 C248 C 0.89809 0.45028 0.42055
 C249 C 0.83296 0.41753 0.28638
 C250 C 0.83526 0.39834 0.24676
 C251 C 0.81199 0.38975 0.20193
 C252 C 0.80500 0.35867 0.17306
 C253 C 0.78261 0.34955 0.13117
 C254 C 0.76693 0.37154 0.11716
 C255 C 0.77465 0.40313 0.14534
 C256 C 0.79708 0.41229 0.18693
 H257 H 0.85766 0.46350 0.44813
 H258 H 0.82159 0.44291 0.37388
 H259 H 0.89623 0.41595 0.30189
 H260 H 0.93145 0.43360 0.37743
 H261 H 0.81255 0.42575 0.28650
 H262 H 0.85336 0.38701 0.24780
 H263 H 0.81649 0.34111 0.18341
 H264 H 0.77734 0.32511 0.11010
 H265 H 0.76350 0.42102 0.13514
 H266 H 0.80293 0.43731 0.20674
 C267 C 0.55292 0.13167 0.40016
 C268 C 0.56131 0.15093 0.35430
 C269 C 0.57145 0.13772 0.31194
 C270 C 0.57254 0.10432 0.31602
 C271 C 0.56383 0.08472 0.36185
 C272 C 0.55389 0.09803 0.40507
 C273 C 0.57985 0.15924 0.26417
 C274 C 0.60166 0.15826 0.22888
 C275 C 0.61225 0.18281 0.18404
 C276 C 0.64565 0.19468 0.16434
 C277 C 0.65733 0.21967 0.12417
 C278 C 0.63558 0.23289 0.10227
 C279 C 0.60159 0.21980 0.12062
 C280 C 0.59002 0.19501 0.16110
 H281 H 0.54404 0.14268 0.43088
 H282 H 0.55979 0.17638 0.35193
 H283 H 0.57965 0.09293 0.28376
 H284 H 0.56612 0.05974 0.36332
 H285 H 0.56973 0.17875 0.26006
 H286 H 0.61467 0.14157 0.23519
 H287 H 0.66311 0.18537 0.18105
 H288 H 0.68356 0.22893 0.11064
 H289 H 0.58411 0.22924 0.10436
 H290 H 0.56372 0.18549 0.17434
 C291 C 0.56604 0.48086 0.36559
 C292 C 0.57804 0.47255 0.32057
 C293 C 0.58009 0.43975 0.31584
 C294 C 0.57002 0.41542 0.35744
 C295 C 0.55801 0.42373 0.40244
 C296 C 0.55608 0.45663 0.40716
 C297 C 0.59420 0.43266 0.26803
 C298 C 0.58753 0.39920 0.25262
 C299 C 0.60173 0.39152 0.20539
 C300 C 0.58520 0.35630 0.18539
 C301 C 0.59819 0.34710 0.14226
 C302 C 0.62831 0.37289 0.11808
 C303 C 0.64495 0.40825 0.13799
 C304 C 0.63189 0.41749 0.18128
 H305 H 0.56541 0.50670 0.36834
 H306 H 0.58594 0.49194 0.28939
 H307 H 0.57213 0.39035 0.35610
 H308 H 0.55039 0.40443 0.43368
 H309 H 0.60943 0.45583 0.24404
 H310 H 0.56969 0.37591 0.27438
 H311 H 0.56211 0.33569 0.20334
 H312 H 0.58471 0.31955 0.12819
 H313 H 0.66838 0.42867 0.12059
 H314 H 0.64602 0.44465 0.19628
 C315 C 0.07314 0.52418 0.35773
 C316 C 0.09085 0.53292 0.31132
 C317 C 0.12188 0.56502 0.30591
 C318 C 0.13484 0.58840 0.34796
 C319 C 0.11726 0.57949 0.39451
 C320 C 0.08640 0.54713 0.40000
 C321 C 0.14127 0.57182 0.25739
 C322 C 0.16364 0.60506 0.24104
 C323 C 0.18473 0.61129 0.19433
 C324 C 0.19603 0.64440 0.16806
 C325 C 0.21742 0.65185 0.12533
 C326 C 0.22845 0.62654 0.10850
 C327 C 0.21714 0.59339 0.13489
 C328 C 0.19551 0.58581 0.17728
 H329 H 0.04965 0.49884 0.36107
 H330 H 0.08052 0.51430 0.27969
 H331 H 0.15913 0.61290 0.34569
 H332 H 0.12801 0.59770 0.42647
 H333 H 0.13628 0.54846 0.23393
 H334 H 0.16612 0.62875 0.26169
 H335 H 0.18839 0.66462 0.18079
 H336 H 0.22592 0.67779 0.10616
 H337 H 0.22534 0.57340 0.12313
 H338 H 0.18819 0.56047 0.19747
 C339 C 0.47381 0.91544 0.35666
 C340 C 0.46397 0.89671 0.31056
 C341 C 0.43207 0.86559 0.30600
 C342 C 0.41020 0.85339 0.34884
 C343 C 0.42007 0.87211 0.39498
 C344 C 0.45205 0.90324 0.39949
 C345 C 0.42339 0.84567 0.25698
 C346 C 0.39088 0.82360 0.24250
 C347 C 0.38185 0.80249 0.19448
 C348 C 0.34798 0.78928 0.17588
 C349 C 0.33753 0.76747 0.13255
 C350 C 0.36072 0.75809 0.10682
 C351 C 0.39481 0.77161 0.12505
 C352 C 0.40526 0.79347 0.16851
 H353 H 0.49888 0.93898 0.35917
 H354 H 0.48147 0.90646 0.27839
 H355 H 0.38586 0.82892 0.34747
 H356 H 0.40272 0.86211 0.42727
 H357 H 0.44462 0.85051 0.23149
 H358 H 0.36957 0.82152 0.26594
 H359 H 0.32935 0.79558 0.19527
 H360 H 0.31104 0.75747 0.11975
 H361 H 0.41321 0.76459 0.10649
 H362 H 0.43131 0.80216 0.18236
 C363 C 0.47865 0.57587 0.37054
 C364 C 0.46889 0.58655 0.32509
 C365 C 0.43427 0.57882 0.31639
 C366 C 0.40965 0.56076 0.35465
 C367 C 0.41942 0.55018 0.40006
 C368 C 0.45400 0.55758 0.40855
 C369 C 0.42512 0.59152 0.26834
 C370 C 0.39307 0.57645 0.24853
 C371 C 0.38344 0.59018 0.20183
 C372 C 0.35373 0.56681 0.17473
 C373 C 0.34299 0.57917 0.13171
 C374 C 0.36162 0.61536 0.11511
 C375 C 0.39131 0.63879 0.14240
 C376 C 0.40205 0.62643 0.18530
 H377 H 0.50557 0.58239 0.37627
 H378 H 0.48844 0.60086 0.29656
 H379 H 0.38294 0.55532 0.35024
 H380 H 0.39982 0.53597 0.42856
 H381 H 0.44594 0.61334 0.24801
 H382 H 0.37306 0.55237 0.26618
 H383 H 0.33871 0.53887 0.18695
 H384 H 0.31991 0.56044 0.11179
 H385 H 0.40613 0.66694 0.13104
 H386 H 0.42438 0.64569 0.20601
   
