data_POSCAR
  _audit_creation_date              2014-09-24
  _audit_creation_method            'ToBaCCo'
  _symmetry_space_group_name_H-M    'P1'
  _symmetry_Int_Tables_number       1
  _symmetry_cell_setting            triclinic
  loop_
  _symmetry_equiv_pos_as_xyz
 x,y,z
_cell_length_a 31.7236
_cell_length_b 31.7228
_cell_length_c 31.6435
_cell_angle_alpha 90.141100
_cell_angle_beta 90.145900
_cell_angle_gamma 89.997100
loop_
  _atom_site_label
  _atom_site_type_symbol
  _atom_site_fract_x
  _atom_site_fract_y
  _atom_site_fract_z
O1 O 0.55909 0.10539 0.00478
 O2 O 0.60608 0.05040 0.00138
 C3 C 0.59709 0.09025 0.00385
 O4 O 0.44153 -0.00384 0.10741
 O5 O 0.39456 -0.00083 0.05217
 C6 C 0.40353 -0.00309 0.09213
 O7 O 0.55916 0.00234 0.10770
 O8 O 0.60612 -0.00080 0.05277
 C9 C 0.59728 0.00147 0.09279
 O10 O 0.44155 0.10541 -0.00155
 O11 O 0.39456 0.05041 0.00074
 C12 C 0.40355 0.09027 -0.00119
 Zr13 Zr 0.50037 0.07417 0.00115
 O14 O 0.49643 0.12126 0.04847
 O15 O 0.50516 0.12086 -0.04631
 Zr16 Zr 0.50040 -0.00055 0.07629
 O17 O 0.49828 0.04962 0.12032
 O18 O 0.50468 -0.04602 0.12495
 O19 O 0.53827 0.04256 0.04465
 O20 O 0.46348 0.04226 0.04415
 O21 O 0.44147 0.00170 -0.10554
 O22 O 0.39453 -0.00099 -0.05050
 C23 C 0.40348 0.00105 -0.09043
 O24 O 0.55917 -0.10711 -0.00161
 O25 O 0.60618 -0.05214 0.00118
 C26 C 0.59718 -0.09198 -0.00092
 O27 O 0.44148 -0.10705 0.00359
 O28 O 0.39451 -0.05205 0.00083
 C29 C 0.40348 -0.09190 0.00287
 O30 O 0.55916 -0.00389 -0.10527
 O31 O 0.60619 -0.00125 -0.05005
 C32 C 0.59717 -0.00330 -0.09002
 Zr33 Zr 0.50033 -0.00098 -0.07417
 O34 O 0.49554 -0.04814 -0.12141
 O35 O 0.50513 0.04622 -0.12111
 Zr36 Zr 0.50034 -0.07592 0.00110
 O37 O 0.49557 -0.12317 -0.04605
 O38 O 0.50513 -0.12262 0.04859
 Zr39 Zr 0.56367 -0.00093 0.00120
 Zr40 Zr 0.43705 -0.00085 0.00092
 O41 O 0.46363 -0.04396 -0.04214
 O42 O 0.53812 -0.04443 -0.04241
 O43 O 0.46251 0.04252 -0.04253
 O44 O 0.53709 -0.04374 0.04432
 O45 O 0.53712 0.04207 -0.04192
 O46 O 0.46258 -0.04414 0.04454
 H47 H 0.44465 0.05990 0.06180
 H48 H 0.55582 -0.06134 0.06212
 H49 H 0.44487 -0.06165 -0.05990
 H50 H 0.55596 0.05968 -0.05949
 H51 H 0.48358 -0.06813 0.11871
 H52 H 0.48105 -0.11883 0.06802
 H53 H 0.51896 -0.11881 -0.06618
 H54 H 0.51900 -0.06820 -0.11701
 H55 H 0.48141 0.06603 -0.11702
 H56 H 0.48123 0.11689 -0.06602
 H57 H 0.51584 0.11296 0.07152
 H58 H 0.49824 0.03644 0.14868
 O59 O -0.00410 0.55789 -0.10779
 O60 O 0.00025 0.60486 -0.05262
 C61 C -0.00277 0.59590 -0.09254
 O62 O -0.10590 0.44029 0.00132
 O63 O -0.05100 0.39323 -0.00176
 C64 C -0.09081 0.40227 0.00055
 O65 O -0.10589 0.55788 -0.00465
 O66 O -0.05090 0.60485 -0.00134
 C67 C -0.09075 0.59588 -0.00367
 O68 O 0.00223 0.44029 -0.10834
 O69 O 0.00017 0.39332 -0.05334
 C70 C 0.00181 0.40215 -0.09340
 Zr71 Zr 0.00036 0.49896 -0.07682
 O72 O -0.04566 0.49625 -0.12526
 O73 O 0.04948 0.49667 -0.12214
 Zr74 Zr -0.07469 0.49912 -0.00188
 O75 O -0.11883 0.49700 -0.05198
 O76 O -0.12309 0.50348 0.04386
 O77 O -0.04299 0.53685 -0.04504
 O78 O -0.04275 0.46218 -0.04491
 O79 O 0.10656 0.44036 -0.00513
 O80 O 0.05160 0.39335 -0.00176
 C81 C 0.09144 0.40235 -0.00420
 O82 O 0.00311 0.55791 0.10507
 O83 O 0.00046 0.60489 0.05005
 C84 C 0.00247 0.59591 0.08998
 O85 O -0.00236 0.44022 0.10473
 O86 O 0.00009 0.39318 0.04951
 C87 C -0.00187 0.40221 0.08948
 O88 O 0.10661 0.55788 0.00138
 O89 O 0.05162 0.60489 -0.00098
 C90 C 0.09148 0.59590 0.00102
 Zr91 Zr 0.07535 0.49908 -0.00155
 O92 O 0.12232 0.49422 0.04585
 O93 O 0.12214 0.50311 -0.04892
 Zr94 Zr 0.00044 0.49906 0.07365
 O95 O 0.04780 0.49424 0.12066
 O96 O -0.04658 0.50385 0.12080
 Zr97 Zr 0.00038 0.56238 -0.00138
 Zr98 Zr 0.00022 0.43572 -0.00172
 O99 O 0.04338 0.46229 0.04146
 O100 O 0.04386 0.53688 0.04214
 O101 O 0.04359 0.46118 -0.04504
 O102 O -0.04264 0.53578 0.04151
 O103 O 0.04331 0.53601 -0.04463
 O104 O -0.04311 0.46135 0.04177
 H105 H -0.06051 0.44346 -0.06266
 H106 H -0.06037 0.55448 0.05922
 H107 H 0.06105 0.44346 0.05907
 H108 H 0.06079 0.55517 -0.06192
 H109 H -0.11705 0.48219 0.06582
 H110 H -0.06647 0.48020 0.11659
 H111 H 0.06749 0.51807 0.11673
 H112 H 0.11819 0.51789 0.06582
 H113 H 0.11372 0.48371 -0.07197
 H114 H 0.06127 0.52528 -0.12586
 H115 H -0.07042 0.51230 -0.11514
 H116 H -0.14707 0.49696 -0.03866
 O117 O 0.10532 -0.00338 0.44113
 O118 O 0.05037 0.00004 0.39386
 C119 C 0.09021 -0.00247 0.40299
 O120 O -0.00408 -0.10587 0.55852
 O121 O -0.00089 -0.05090 0.60576
 C122 C -0.00326 -0.09074 0.59665
 O123 O 0.00209 -0.10608 0.44073
 O124 O -0.00100 -0.05119 0.39364
 C125 C 0.00126 -0.09102 0.40264
 O126 O 0.10541 0.00281 0.55889
 O127 O 0.05046 0.00053 0.60593
 C128 C 0.09032 0.00238 0.59697
 Zr129 Zr 0.07411 0.00028 0.49989
 O130 O 0.12126 -0.04675 0.50387
 O131 O 0.12072 0.04783 0.49521
 Zr132 Zr -0.00070 -0.07475 0.49963
 O133 O 0.04941 -0.11860 0.50182
 O134 O -0.04625 -0.12334 0.49519
 O135 O 0.04243 -0.04311 0.46179
 O136 O 0.04217 -0.04269 0.53675
 O137 O 0.00183 0.10660 0.55881
 O138 O -0.00085 0.05169 0.60588
 C139 C 0.00119 0.09153 0.59690
 O140 O -0.10720 0.00284 0.44062
 O141 O -0.05229 0.00018 0.39355
 C142 C -0.09213 0.00218 0.40253
 O143 O -0.10704 -0.00242 0.55863
 O144 O -0.05198 0.00035 0.60580
 C145 C -0.09183 -0.00175 0.59675
 O146 O -0.00380 0.10637 0.44079
 O147 O -0.00128 0.05129 0.39365
 C148 C -0.00326 0.09116 0.40268
 Zr149 Zr -0.00092 0.07532 0.49979
 O150 O -0.04802 0.12238 0.50452
 O151 O 0.04635 0.12220 0.49511
 Zr152 Zr -0.07596 0.00020 0.49964
 O153 O -0.12304 0.04728 0.50438
 O154 O -0.12282 -0.04712 0.49475
 Zr155 Zr -0.00102 0.00019 0.43625
 Zr156 Zr -0.00084 0.00036 0.56324
 O157 O -0.04390 0.04331 0.53653
 O158 O -0.04443 0.04363 0.46181
 O159 O 0.04255 0.04378 0.53781
 O160 O -0.04389 -0.04286 0.46281
 O161 O 0.04206 0.04322 0.46297
 O162 O -0.04422 -0.04315 0.53750
 H163 H 0.05979 -0.06033 0.55563
 H164 H -0.06153 -0.06063 0.44402
 H165 H -0.06155 0.06098 0.55533
 H166 H 0.05969 0.06076 0.44411
 H167 H -0.06840 -0.11709 0.51621
 H168 H -0.11898 -0.06661 0.51880
 H169 H -0.11879 0.06724 0.48081
 H170 H -0.06807 0.11800 0.48093
 H171 H 0.06620 0.11806 0.51888
 H172 H 0.11702 0.06721 0.51945
 H173 H 0.11278 -0.06991 0.48465
 H174 H 0.03620 -0.14691 0.50183
 C175 C -0.30526 0.17877 0.00638
 N176 N -0.34616 0.19098 0.00873
 N177 N -0.37701 0.16262 0.00812
 C178 C -0.36822 0.12088 0.00515
 N179 N -0.32727 0.10848 0.00290
 N180 N -0.29630 0.13696 0.00350
 C181 C -0.27185 0.21082 0.00644
 N182 N -0.23047 0.20012 0.00344
 N183 N -0.20072 0.22987 0.00298
 C184 C -0.21138 0.27130 0.00550
 N185 N -0.25269 0.28183 0.00858
 N186 N -0.28232 0.25219 0.00904
 C187 C -0.17935 0.30472 0.00452
 N188 N -0.19154 0.34566 0.00626
 N189 N -0.16317 0.37649 0.00505
 C190 C -0.12146 0.36763 0.00206
 N191 N -0.10910 0.32664 0.00037
 N192 N -0.13757 0.29568 0.00156
 C193 C 0.30587 0.81955 0.00526
 N194 N 0.29686 0.86137 0.00282
 N195 N 0.32782 0.88986 0.00220
 C196 C 0.36881 0.87746 0.00395
 N197 N 0.37764 0.83571 0.00644
 N198 N 0.34680 0.80734 0.00709
 C199 C 0.27246 0.78749 0.00553
 N200 N 0.28300 0.74613 0.00783
 N201 N 0.25338 0.71648 0.00765
 C202 C 0.21201 0.72698 0.00516
 N203 N 0.20129 0.76840 0.00292
 N204 N 0.23103 0.79817 0.00310
 C205 C 0.17998 0.69354 0.00448
 N206 N 0.13816 0.70253 0.00198
 N207 N 0.10969 0.67155 0.00101
 C208 C 0.12211 0.63057 0.00247
 N209 N 0.16387 0.62175 0.00502
 N210 N 0.19223 0.65261 0.00602
 C211 C 0.30593 0.17877 -0.00501
 N212 N 0.29692 0.13697 -0.00238
 N213 N 0.32789 0.10850 -0.00125
 C214 C 0.36888 0.12090 -0.00265
 N215 N 0.37771 0.16264 -0.00531
 N216 N 0.34686 0.19099 -0.00648
 C217 C 0.27251 0.21081 -0.00593
 N218 N 0.28302 0.25214 -0.00876
 N219 N 0.25338 0.28177 -0.00918
 C220 C 0.21201 0.27128 -0.00678
 N221 N 0.20132 0.22989 -0.00403
 N222 N 0.23108 0.20014 -0.00362
 C223 C 0.17996 0.30470 -0.00669
 N224 N 0.13816 0.29573 -0.00395
 N225 N 0.10968 0.32671 -0.00335
 C226 C 0.12207 0.36767 -0.00546
 N227 N 0.16380 0.37646 -0.00829
 N228 N 0.19217 0.34561 -0.00890
 C229 C -0.30522 0.81947 -0.00435
 N230 N -0.29621 0.86128 -0.00166
 N231 N -0.32717 0.88977 -0.00065
 C232 C -0.36816 0.87737 -0.00225
 N233 N -0.37700 0.83562 -0.00497
 N234 N -0.34616 0.80726 -0.00601
 C235 C -0.27181 0.78743 -0.00515
 N236 N -0.28234 0.74608 -0.00794
 N237 N -0.25270 0.71645 -0.00830
 C238 C -0.21132 0.72695 -0.00588
 N239 N -0.20061 0.76836 -0.00315
 N240 N -0.23037 0.79811 -0.00280
 C241 C -0.17927 0.69353 -0.00579
 N242 N -0.13745 0.70251 -0.00315
 N243 N -0.10897 0.67153 -0.00264
 C244 C -0.12138 0.63056 -0.00473
 N245 N -0.16313 0.62176 -0.00744
 N246 N -0.19150 0.65261 -0.00797
 C247 C 0.00499 -0.30626 0.17875
 N248 N 0.00252 -0.29738 0.13682
 N249 N 0.00186 -0.32843 0.10827
 C250 C 0.00362 -0.36937 0.12072
 N251 N 0.00615 -0.37808 0.16259
 N252 N 0.00683 -0.34715 0.19102
 C253 C 0.00529 -0.27274 0.21084
 N254 N 0.00772 -0.28309 0.25233
 N255 N 0.00757 -0.25334 0.28201
 C256 C 0.00498 -0.21203 0.27140
 N257 N 0.00262 -0.20149 0.22985
 N258 N 0.00278 -0.23136 0.20006
 C259 C 0.00438 -0.17986 0.30486
 N260 N 0.00171 -0.13808 0.29578
 N261 N 0.00082 -0.10949 0.32680
 C262 C 0.00254 -0.12175 0.36790
 N263 N 0.00526 -0.16347 0.37679
 N264 N 0.00617 -0.19194 0.34590
 C265 C 0.00399 0.30699 0.82073
 N266 N 0.00493 0.34784 0.80827
 N267 N 0.00428 0.37887 0.83657
 C268 C 0.00268 0.37042 0.87860
 N269 N 0.00182 0.32942 0.89115
 N270 N 0.00245 0.29826 0.86272
 C271 C 0.00437 0.27337 0.78870
 N272 N 0.00261 0.23197 0.79955
 N273 N 0.00258 0.20207 0.76978
 C274 C 0.00433 0.21258 0.72820
 N275 N 0.00615 0.25392 0.71755
 N276 N 0.00617 0.28370 0.74719
 C277 C 0.00390 0.18039 0.69474
 N278 N 0.00535 0.19249 0.65369
 N279 N 0.00460 0.16402 0.62279
 C280 C 0.00237 0.12227 0.63167
 N281 N 0.00099 0.10999 0.67277
 N282 N 0.00173 0.13858 0.70380
 C283 C -0.00517 0.30483 0.17825
 N284 N -0.00269 0.29569 0.13634
 N285 N -0.00175 0.32657 0.10776
 C286 C -0.00322 0.36760 0.12018
 N287 N -0.00575 0.37655 0.16203
 N288 N -0.00671 0.34580 0.19048
 C289 C -0.00584 0.27152 0.21042
 N290 N -0.00831 0.28221 0.25186
 N291 N -0.00849 0.25270 0.28162
 C292 C -0.00622 0.21128 0.27115
 N293 N -0.00382 0.20041 0.22965
 N294 N -0.00363 0.23005 0.19977
 C295 C -0.00592 0.17936 0.30471
 N296 N -0.00352 0.13751 0.29575
 N297 N -0.00283 0.10914 0.32683
 C298 C -0.00449 0.12170 0.36790
 N299 N -0.00697 0.16349 0.37669
 N300 N -0.00768 0.19174 0.34572
 C301 C -0.00651 -0.30615 0.81934
 N302 N -0.00897 -0.34701 0.80685
 N303 N -0.00793 -0.37799 0.83508
 C304 C -0.00441 -0.36935 0.87694
 N305 N -0.00204 -0.32844 0.88959
 N306 N -0.00306 -0.29735 0.86126
 C307 C -0.00710 -0.27256 0.78746
 N308 N -0.00398 -0.23123 0.79847
 N309 N -0.00401 -0.20131 0.76887
 C310 C -0.00714 -0.21176 0.72730
 N311 N -0.01034 -0.25303 0.71647
 N312 N -0.01033 -0.28283 0.74595
 C313 C -0.00660 -0.17956 0.69402
 N314 N -0.00884 -0.19159 0.65293
 N315 N -0.00789 -0.16312 0.62218
 C316 C -0.00470 -0.12144 0.63127
 N317 N -0.00255 -0.10921 0.67243
 N318 N -0.00346 -0.13781 0.70330
 C319 C 0.30560 0.00411 0.82087
 N320 N 0.29673 0.00166 0.86279
 N321 N 0.32779 0.00078 0.89131
 C322 C 0.36874 0.00228 0.87885
 N323 N 0.37744 0.00477 0.83699
 N324 N 0.34650 0.00567 0.80858
 C325 C 0.27207 0.00474 0.78879
 N326 N 0.28243 0.00715 0.74731
 N327 N 0.25266 0.00733 0.71765
 C328 C 0.21133 0.00512 0.72825
 N329 N 0.20079 0.00278 0.76979
 N330 N 0.23067 0.00259 0.79957
 C331 C 0.17915 0.00486 0.69479
 N332 N 0.13735 0.00256 0.70385
 N333 N 0.10876 0.00192 0.67282
 C334 C 0.12104 0.00353 0.63173
 N335 N 0.16277 0.00590 0.62286
 N336 N 0.19125 0.00656 0.65376
 C337 C -0.30756 0.00439 0.17867
 N338 N -0.34840 0.00575 0.19110
 N339 N -0.37944 0.00488 0.16280
 C340 C -0.37099 0.00262 0.12080
 N341 N -0.32999 0.00135 0.10826
 N342 N -0.29883 0.00219 0.13670
 C343 C -0.27395 0.00493 0.21070
 N344 N -0.23256 0.00283 0.19987
 N345 N -0.20265 0.00291 0.22964
 C346 C -0.21316 0.00511 0.27121
 N347 N -0.25448 0.00729 0.28185
 N348 N -0.28427 0.00720 0.25220
 C349 C -0.18097 0.00475 0.30467
 N350 N -0.19306 0.00644 0.34572
 N351 N -0.16460 0.00573 0.37663
 C352 C -0.12286 0.00332 0.36775
 N353 N -0.11058 0.00171 0.32665
 N354 N -0.13917 0.00240 0.29562
 C355 C 0.30560 -0.00615 0.18028
 N356 N 0.29678 -0.00334 0.13833
 N357 N 0.32785 -0.00251 0.10999
 C358 C 0.36878 -0.00442 0.12266
 N359 N 0.37745 -0.00729 0.16455
 N360 N 0.34648 -0.00815 0.19278
 C361 C 0.27203 -0.00662 0.21216
 N362 N 0.28232 -0.00944 0.25368
 N363 N 0.25252 -0.00940 0.28317
 C364 C 0.21123 -0.00652 0.27234
 N365 N 0.20077 -0.00378 0.23076
 N366 N 0.23068 -0.00383 0.20115
 C367 C 0.17903 -0.00594 0.30562
 N368 N 0.13728 -0.00291 0.29635
 N369 N 0.10868 -0.00195 0.32722
 C370 C 0.12091 -0.00397 0.36837
 N371 N 0.16260 -0.00707 0.37745
 N372 N 0.19108 -0.00804 0.34671
 C373 C -0.30545 -0.00591 0.82118
 N374 N -0.29632 -0.00339 0.86310
 N375 N -0.32720 -0.00273 0.89169
 C376 C -0.36822 -0.00454 0.87927
 N377 N -0.37716 -0.00712 0.83742
 N378 N -0.34641 -0.00781 0.80895
 C379 C -0.27215 -0.00615 0.78900
 N380 N -0.28284 -0.00851 0.74753
 N381 N -0.25333 -0.00828 0.71776
 C382 C -0.21193 -0.00568 0.72825
 N383 N -0.20107 -0.00339 0.76977
 N384 N -0.23070 -0.00362 0.79966
 C385 C -0.18003 -0.00498 0.69469
 N386 N -0.13819 -0.00240 0.70367
 N387 N -0.10983 -0.00146 0.67259
 C388 C -0.12238 -0.00304 0.63151
 N389 N -0.16416 -0.00566 0.62270
 N390 N -0.19240 -0.00662 0.65366
   
