data_POSCAR
  _audit_creation_date              2014-09-24
  _audit_creation_method            'ToBaCCo'
  _symmetry_space_group_name_H-M    'P1'
  _symmetry_Int_Tables_number       1
  _symmetry_cell_setting            triclinic
  loop_
  _symmetry_equiv_pos_as_xyz
 x,y,z
_cell_length_a 36.1906
_cell_length_b 40.1776
_cell_length_c 27.3890
_cell_angle_alpha 89.549600
_cell_angle_beta 90.401600
_cell_angle_gamma 89.860400
loop_
  _atom_site_label
  _atom_site_type_symbol
  _atom_site_fract_x
  _atom_site_fract_y
  _atom_site_fract_z
O1 O 0.21544 0.27491 0.22887
 O2 O 0.27099 0.20553 0.27870
 O3 O 0.21400 0.20980 0.21949
 O4 O 0.27151 0.26970 0.28689
 O5 O 0.23494 0.26452 0.35072
 O6 O 0.17487 0.20805 0.28090
 O7 O 0.23182 0.20005 0.33970
 O8 O 0.17868 0.27201 0.29280
 Cu9 Cu 0.24664 0.24014 0.24696
 Cu10 Cu 0.20129 0.23555 0.32232
 C11 C 0.18823 0.28588 0.25307
 C12 C 0.26099 0.19111 0.31784
 C13 C 0.18428 0.19911 0.23841
 C14 C 0.26297 0.27732 0.33031
 O15 O 0.80329 0.28083 0.23212
 O16 O 0.75125 0.21462 0.29581
 O17 O 0.80949 0.21790 0.23578
 O18 O 0.75778 0.28045 0.30336
 O19 O 0.71468 0.28105 0.24592
 O20 O 0.76584 0.21607 0.17905
 O21 O 0.70953 0.21558 0.23660
 O22 O 0.76223 0.27953 0.17203
 Cu23 Cu 0.78383 0.24757 0.27297
 Cu24 Cu 0.73375 0.24866 0.20385
 C25 C 0.79163 0.29111 0.19061
 C26 C 0.72100 0.20429 0.27726
 C27 C 0.79712 0.20664 0.19586
 C28 C 0.72762 0.29167 0.28626
 O29 O 0.74140 0.76294 0.83395
 O30 O 0.68845 0.70091 0.76501
 O31 O 0.74674 0.69897 0.82333
 O32 O 0.68511 0.76474 0.77424
 O33 O 0.72307 0.77206 0.71226
 O34 O 0.78305 0.70522 0.75949
 O35 O 0.72529 0.70776 0.70176
 O36 O 0.77920 0.76926 0.77160
 Cu37 Cu 0.71174 0.73102 0.80548
 Cu38 Cu 0.75641 0.73913 0.72996
 C39 C 0.76931 0.77663 0.81463
 C40 C 0.69729 0.69429 0.72141
 C41 C 0.77569 0.69118 0.79989
 C42 C 0.69379 0.77966 0.73492
 O43 O 0.28733 0.79022 0.71893
 O44 O 0.23508 0.72285 0.77961
 O45 O 0.29486 0.72617 0.72613
 O46 O 0.22960 0.78765 0.77423
 O47 O 0.19485 0.78288 0.70814
 O48 O 0.25929 0.71949 0.66108
 O49 O 0.19976 0.71822 0.71395
 O50 O 0.25287 0.78395 0.65276
 Cu51 Cu 0.26515 0.75712 0.75645
 Cu52 Cu 0.22318 0.75052 0.67742
 C53 C 0.27891 0.79844 0.67532
 C54 C 0.20831 0.70926 0.75705
 C55 C 0.28835 0.71247 0.68545
 C56 C 0.20140 0.79619 0.74923
 O57 O 1.03184 -0.05113 0.00155
 O58 O 0.95592 0.00015 0.04847
 O59 O 0.96092 -0.05003 -0.01068
 O60 O 1.02809 -0.00011 0.05892
 O61 O 1.03300 0.03446 -0.00382
 O62 O 0.96611 -0.01549 -0.07340
 O63 O 0.96169 0.03474 -0.01409
 O64 O 1.03722 -0.01723 -0.06189
 Cu65 Cu 0.99361 -0.02860 0.03103
 Cu66 Cu 1.00017 0.01262 -0.04456
 C67 C 1.04701 -0.04330 -0.03849
 C68 C 0.94588 0.02614 0.02531
 C69 C 0.95236 -0.04140 -0.05406
 C70 C 1.04185 0.02576 0.03938
 O71 O 0.53251 0.45667 0.46918
 O72 O 0.46345 0.50418 0.53883
 O73 O 0.46134 0.45598 0.47611
 O74 O 0.53599 0.50329 0.53449
 O75 O 0.53261 0.54126 0.47583
 O76 O 0.45825 0.49317 0.41641
 O77 O 0.46104 0.54166 0.47944
 O78 O 0.52974 0.49439 0.41014
 Cu79 Cu 0.49866 0.47640 0.51080
 Cu80 Cu 0.49512 0.52141 0.43955
 C81 C 0.54253 0.46733 0.42751
 C82 C 0.45052 0.53106 0.52082
 C83 C 0.44739 0.46619 0.43606
 C84 C 0.54695 0.53031 0.51531
 O85 O 0.04579 0.53262 -0.02905
 O86 O -0.02079 0.47569 0.02974
 O87 O -0.02620 0.53042 -0.02163
 O88 O 0.05004 0.47605 0.01780
 O89 O 0.05425 0.50330 0.08736
 O90 O -0.02135 0.55922 0.04642
 O91 O -0.01653 0.50472 0.09774
 O92 O 0.05084 0.56034 0.03996
 Cu93 Cu 0.01172 0.50104 -0.00780
 Cu94 Cu 0.01745 0.53492 0.07456
 C95 C 0.05978 0.55612 -0.00424
 C96 C -0.02970 0.48047 0.07400
 C97 C -0.03697 0.55393 0.00552
 C98 C 0.06448 0.47977 0.05967
 O99 O 0.55022 1.01837 0.45952
 O100 O 0.47418 0.97615 0.52286
 O101 O 0.47808 1.02593 0.46169
 O102 O 0.54491 0.96952 0.52220
 O103 O 0.55170 1.00559 0.58207
 O104 O 0.48330 1.06091 0.52317
 O105 O 0.47996 1.01063 0.58480
 O106 O 0.55442 1.05460 0.51955
 Cu107 Cu 0.51130 0.99410 0.48521
 Cu108 Cu 0.51777 1.03649 0.55855
 C109 C 0.56514 1.04374 0.47856
 C110 C 0.46464 0.98566 0.56502
 C111 C 0.46928 1.05302 0.48232
 C112 C 0.55953 0.97795 0.56254
 C113 C 1.16121 0.17765 0.21269
 C114 C 1.17136 0.16301 0.16873
 C115 C 1.14560 0.14149 0.14159
 C116 C 1.15798 0.11106 0.12296
 C117 C 1.13373 0.09046 0.09718
 C118 C 1.09711 0.10061 0.08829
 C119 C 1.08505 0.13146 0.10578
 C120 C 1.10892 0.15153 0.13294
 C121 C 1.07155 0.07994 0.05947
 C122 C 1.06835 0.04578 0.06734
 H123 H 1.19938 0.16552 0.15550
 H124 H 1.18628 0.10308 0.12894
 H125 H 1.14376 0.06698 0.08326
 H126 H 1.05700 0.13982 0.09889
 H127 H 1.09900 0.17520 0.14633
 H128 H 1.05260 0.09229 0.03438
 H129 H 1.13460 0.17148 0.22824
 H130 H 1.08379 0.03398 0.09678
 C131 C 0.67348 0.67187 0.69325
 C132 C 0.68423 0.65796 0.64915
 C133 C 0.65788 0.63897 0.61904
 C134 C 0.66897 0.60912 0.59730
 C135 C 0.64380 0.59061 0.56963
 C136 C 0.60755 0.60231 0.56212
 C137 C 0.59697 0.63281 0.58226
 C138 C 0.62175 0.65079 0.61108
 C139 C 0.58040 0.58317 0.53351
 C140 C 0.57658 0.54893 0.53966
 H141 H 0.71265 0.66001 0.63738
 H142 H 0.69684 0.59983 0.60259
 H143 H 0.65274 0.56739 0.55368
 H144 H 0.56924 0.64236 0.57652
 H145 H 0.61284 0.67413 0.62668
 H146 H 0.56030 0.59669 0.51149
 H147 H 0.64618 0.66658 0.70731
 H148 H 0.59376 0.53594 0.56620
 C149 C -0.18775 0.31642 0.16309
 C150 C -0.15522 0.33047 0.18101
 C151 C -0.13362 0.35567 0.15378
 C152 C -0.10941 0.37628 0.17980
 C153 C -0.08834 0.40025 0.15557
 C154 C -0.09101 0.40407 0.10454
 C155 C -0.11448 0.38287 0.07834
 C156 C -0.13567 0.35895 0.10261
 C157 C -0.06862 0.42884 0.07759
 C158 C -0.05485 0.45758 0.09928
 H159 H -0.14586 0.32364 0.21741
 H160 H -0.10680 0.37384 0.21910
 H161 H -0.06949 0.41518 0.17693
 H162 H -0.11647 0.38487 0.03893
 H163 H -0.15297 0.34275 0.08101
 H164 H -0.06330 0.42455 0.03926
 H165 H -0.19896 0.32432 0.12816
 H166 H -0.06193 0.46339 0.13657
 C167 C 0.29938 0.82479 0.64976
 C168 C 0.32743 0.84305 0.67222
 C169 C 0.34968 0.86838 0.64607
 C170 C 0.36878 0.89247 0.67311
 C171 C 0.39112 0.91602 0.64974
 C172 C 0.39490 0.91578 0.59863
 C173 C 0.37591 0.89158 0.57172
 C174 C 0.35362 0.86813 0.59502
 C175 C 0.41999 0.93859 0.57207
 C176 C 0.43625 0.96698 0.59195
 H177 H 0.33289 0.83907 0.71078
 H178 H 0.36662 0.89293 0.71254
 H179 H 0.40596 0.93363 0.67207
 H180 H 0.37875 0.89048 0.53240
 H181 H 0.34048 0.84935 0.57287
 H182 H 0.42650 0.93226 0.53470
 H183 H 0.29157 0.83004 0.61230
 H184 H 0.42923 0.97522 0.62820
 C185 C -0.19955 0.66756 -0.18169
 C186 C -0.20253 0.65339 -0.13512
 C187 C -0.17360 0.63113 -0.11456
 C188 C -0.16685 0.63089 -0.06404
 C189 C -0.13845 0.61129 -0.04397
 C190 C -0.11648 0.59128 -0.07421
 C191 C -0.12428 0.59058 -0.12445
 C192 C -0.15244 0.61030 -0.14450
 C193 C -0.08589 0.57026 -0.05510
 C194 C -0.06794 0.57533 -0.01044
 H195 H -0.22468 0.66126 -0.11137
 H196 H -0.18318 0.64637 -0.04015
 H197 H -0.13415 0.61170 -0.00488
 H198 H -0.10824 0.57493 -0.14844
 H199 H -0.15773 0.60895 -0.18336
 H200 H -0.07587 0.55065 -0.07856
 H201 H -0.17567 0.66177 -0.20370
 H202 H -0.07599 0.59560 0.01298
 C203 C 0.28361 1.16401 0.33873
 C204 C 0.32092 1.16080 0.32727
 C205 C 0.34541 1.13621 0.35150
 C206 C 0.38212 1.14501 0.36166
 C207 C 0.40590 1.12252 0.38514
 C208 C 0.39359 1.09048 0.39783
 C209 C 0.35725 1.08124 0.38618
 C210 C 0.33313 1.10406 0.36375
 C211 C 0.41858 1.06638 0.42225
 C212 C 0.44325 1.07623 0.45862
 H213 H 0.33345 1.17910 0.30331
 H214 H 0.39224 1.16954 0.35202
 H215 H 0.43408 1.13000 0.39269
 H216 H 0.34739 1.05651 0.39515
 H217 H 0.30516 1.09642 0.35530
 H218 H 0.41602 1.04022 0.41355
 H219 H 0.27162 1.14821 0.36662
 H220 H 0.44273 1.10171 0.47128
 C221 C 1.17738 -0.17946 -0.23343
 C222 C 1.18338 -0.16360 -0.18877
 C223 C 1.15896 -0.13745 -0.16878
 C224 C 1.16132 -0.13048 -0.11874
 C225 C 1.13875 -0.10624 -0.09798
 C226 C 1.11325 -0.08835 -0.12699
 C227 C 1.11179 -0.09443 -0.17735
 C228 C 1.13431 -0.11879 -0.19813
 C229 C 1.08789 -0.06342 -0.10586
 C230 C 1.07572 -0.06541 -0.05770
 H231 H 1.20658 -0.17147 -0.16619
 H232 H 1.18057 -0.14402 -0.09546
 H233 H 1.14165 -0.10143 -0.05935
 H234 H 1.09278 -0.08059 -0.20059
 H235 H 1.13253 -0.12253 -0.23711
 H236 H 1.07586 -0.04478 -0.13001
 H237 H 1.15346 -0.17312 -0.25554
 H238 H 1.08497 -0.08564 -0.03430
 C239 C 0.70747 0.31672 0.31446
 C240 C 0.67416 0.33059 0.29837
 C241 C 0.65207 0.35358 0.32850
 C242 C 0.62756 0.37582 0.30535
 C243 C 0.60560 0.39728 0.33280
 C244 C 0.60759 0.39670 0.38414
 C245 C 0.63158 0.37400 0.40727
 C246 C 0.65370 0.35271 0.37984
 C247 C 0.58377 0.41803 0.41457
 C248 C 0.56860 0.44804 0.39803
 H249 H 0.66420 0.32492 0.26198
 H250 H 0.62533 0.37653 0.26589
 H251 H 0.58651 0.41359 0.31364
 H252 H 0.63311 0.37265 0.44676
 H253 H 0.67125 0.33509 0.39907
 H254 H 0.57853 0.41005 0.45176
 H255 H 0.71923 0.32407 0.34916
 H256 H 0.57554 0.45768 0.36227
 C257 C 0.79029 -0.19900 -0.15672
 C258 C 0.82107 -0.18253 -0.17533
 C259 C 0.84347 -0.15885 -0.14648
 C260 C 0.86566 -0.13572 -0.17119
 C261 C 0.88771 -0.11335 -0.14528
 C262 C 0.88808 -0.11376 -0.09388
 C263 C 0.86641 -0.13731 -0.06922
 C264 C 0.84431 -0.15962 -0.09511
 C265 C 0.91186 -0.09130 -0.06484
 C266 C 0.92674 -0.06174 -0.08303
 H267 H 0.82853 -0.18643 -0.21312
 H268 H 0.86599 -0.13500 -0.21074
 H269 H 0.90495 -0.09642 -0.16579
 H270 H 0.86670 -0.13856 -0.02969
 H271 H 0.82870 -0.17782 -0.07464
 H272 H 0.91749 -0.09818 -0.02717
 H273 H 0.78078 -0.19387 -0.12019
 H274 H 0.91997 -0.05319 -0.11955
 C275 C 0.28543 0.30143 0.35752
 C276 C 0.31311 0.32001 0.33493
 C277 C 0.33578 0.34518 0.36049
 C278 C 0.35378 0.36968 0.33273
 C279 C 0.37623 0.39339 0.35525
 C280 C 0.38126 0.39295 0.40623
 C281 C 0.36352 0.36826 0.43392
 C282 C 0.34098 0.34463 0.41142
 C283 C 0.40648 0.41624 0.43150
 C284 C 0.41897 0.44619 0.41135
 H285 H 0.31734 0.31704 0.29607
 H286 H 0.35062 0.37037 0.29336
 H287 H 0.39027 0.41132 0.33238
 H288 H 0.36742 0.36702 0.47315
 H289 H 0.32856 0.32557 0.43399
 H290 H 0.41580 0.40930 0.46787
 H291 H 0.27863 0.30562 0.39537
 H292 H 0.40851 0.45498 0.37649
 C293 C 0.18632 0.68289 -0.21970
 C294 C 0.19281 0.67170 -0.17204
 C295 C 0.16947 0.64632 -0.14764
 C296 C 0.16903 0.64485 -0.09646
 C297 C 0.14642 0.62204 -0.07207
 C298 C 0.12368 0.60012 -0.09854
 C299 C 0.12526 0.60072 -0.14970
 C300 C 0.14788 0.62349 -0.17406
 C301 C 0.09830 0.57621 -0.07450
 C302 C 0.08651 0.57920 -0.02631
 H303 H 0.21450 0.68338 -0.15079
 H304 H 0.18592 0.66170 -0.07521
 H305 H 0.14721 0.62166 -0.03263
 H306 H 0.10862 0.58371 -0.17100
 H307 H 0.14849 0.62280 -0.21349
 H308 H 0.08693 0.55634 -0.09648
 H309 H 0.16345 0.67304 -0.24064
 H310 H 0.09603 0.59957 -0.00401
 C311 C 0.69909 1.18139 0.30204
 C312 C 0.70949 1.16643 0.34614
 C313 C 0.68237 1.14766 0.37521
 C314 C 0.69144 1.11627 0.39459
 C315 C 0.66542 1.09835 0.42168
 C316 C 0.63049 1.11219 0.43104
 C317 C 0.62197 1.14404 0.41302
 C318 C 0.64748 1.16145 0.38468
 C319 C 0.60277 1.09417 0.46012
 C320 C 0.59508 1.06068 0.45242
 H321 H 0.73767 1.16826 0.35945
 H322 H 0.71838 1.10544 0.38803
 H323 H 0.67274 1.07399 0.43599
 H324 H 0.59530 1.15520 0.42021
 H325 H 0.64020 1.18593 0.37076
 H326 H 0.58532 1.10838 0.48433
 H327 H 0.67200 1.17587 0.28699
 H328 H 0.60943 1.04734 0.42400
 C329 C 0.16762 0.31534 0.23587
 C330 C 0.17926 0.33438 0.19600
 C331 C 0.16028 0.36515 0.17912
 C332 C 0.16642 0.37659 0.13133
 C333 C 0.14848 0.40511 0.11357
 C334 C 0.12399 0.42285 0.14344
 C335 C 0.11914 0.41230 0.19190
 C336 C 0.13701 0.38373 0.20964
 C337 C 0.10248 0.45181 0.12506
 C338 C 0.09242 0.45550 0.07607
 H339 H 0.20287 0.32591 0.17534
 H340 H 0.18484 0.36318 0.10741
 H341 H 0.15401 0.41315 0.07657
 H342 H 0.10089 0.42584 0.21588
 H343 H 0.13266 0.37659 0.24729
 H344 H 0.09050 0.46849 0.15157
 H345 H 0.14319 0.32231 0.25589
 H346 H 0.10169 0.43754 0.04957
 C347 C 0.66908 0.80548 0.71494
 C348 C 0.68095 0.82802 0.67946
 C349 C 0.65579 0.85219 0.65564
 C350 C 0.66936 0.88342 0.64135
 C351 C 0.64631 0.90635 0.61738
 C352 C 0.60953 0.89801 0.60630
 C353 C 0.59621 0.86650 0.61960
 C354 C 0.61899 0.84387 0.64458
 C355 C 0.58496 0.92127 0.57961
 C356 C 0.58569 0.95548 0.58744
 H357 H 0.70995 0.82871 0.66988
 H358 H 0.69780 0.89010 0.64892
 H359 H 0.65750 0.93023 0.60652
 H360 H 0.56806 0.85947 0.61090
 H361 H 0.60811 0.81960 0.65404
 H362 H 0.56371 0.91097 0.55614
 H363 H 0.64114 0.80695 0.72867
 H364 H 0.60384 0.96567 0.61511
 C365 C 0.82041 0.18350 0.16853
 C366 C 0.80724 0.16405 0.13040
 C367 C 0.83269 0.14274 0.10263
 C368 C 0.82280 0.10993 0.09156
 C369 C 0.84782 0.08899 0.06792
 C370 C 0.88269 0.10097 0.05390
 C371 C 0.89176 0.13427 0.06286
 C372 C 0.86718 0.15489 0.08756
 C373 C 0.91012 0.07933 0.03023
 C374 C 0.91569 0.04642 0.04497
 H375 H 0.77785 0.16287 0.12288
 H376 H 0.79616 0.10025 0.10245
 H377 H 0.83989 0.06356 0.06042
 H378 H 0.91833 0.14406 0.05188
 H379 H 0.87509 0.18036 0.09485
 H380 H 0.92914 0.09058 0.00458
 H381 H 0.84924 0.18152 0.17920
 H382 H 0.89929 0.03605 0.07428
 C383 C 0.31566 0.68900 0.66619
 C384 C 0.30693 0.66570 0.63057
 C385 C 0.33558 0.64434 0.60879
 C386 C 0.32759 0.61107 0.59780
 C387 C 0.35437 0.59078 0.57635
 C388 C 0.38917 0.60385 0.56436
 C389 C 0.39683 0.63728 0.57447
 C390 C 0.37047 0.65727 0.59706
 C391 C 0.41707 0.58383 0.53867
 C392 C 0.42287 0.55008 0.54817
 H393 H 0.27836 0.66215 0.61978
 H394 H 0.30070 0.60077 0.60606
 H395 H 0.34750 0.56525 0.56787
 H396 H 0.42332 0.64793 0.56493
 H397 H 0.37702 0.68308 0.60416
 H398 H 0.43512 0.59660 0.51330
 H399 H 0.34346 0.68977 0.68109
 H400 H 0.40798 0.53777 0.57731
   
