data_POSCAR
  _audit_creation_date              2014-09-24
  _audit_creation_method            'ToBaCCo'
  _symmetry_space_group_name_H-M    'P1'
  _symmetry_Int_Tables_number       1
  _symmetry_cell_setting            triclinic
  loop_
  _symmetry_equiv_pos_as_xyz
 x,y,z
_cell_length_a 46.4134
_cell_length_b 46.1629
_cell_length_c 46.4496
_cell_angle_alpha 89.755300
_cell_angle_beta 89.989700
_cell_angle_gamma 89.942100
loop_
  _atom_site_label
  _atom_site_type_symbol
  _atom_site_fract_x
  _atom_site_fract_y
  _atom_site_fract_z
N1 N 0.17745 0.17445 0.17660
 N2 N -0.17492 0.82357 0.17595
 N3 N -0.17349 0.17453 -0.17449
 N4 N 0.17651 0.82648 -0.17462
 N5 N 0.17784 1.17708 0.82162
 N6 N 0.82068 0.82197 0.82055
 N7 N 0.17769 0.82316 1.17780
 N8 N 0.82208 1.17784 1.18014
 N9 N 0.47074 1.03268 0.95024
 N10 N 0.44831 1.03590 0.93307
 N11 N 0.53139 1.05251 0.97013
 N12 N 0.55389 1.06973 0.96715
 N13 N 0.53145 1.03243 0.95020
 N14 N 0.55405 1.03536 0.93320
 N15 N 0.47078 1.05269 0.97024
 N16 N 0.44846 1.07018 0.96709
 C17 C 0.43465 1.05944 0.94376
 C18 C 0.56779 1.05880 0.94397
 N19 N 0.53168 1.03147 1.05185
 N20 N 0.55369 1.03478 1.06952
 N21 N 0.47105 1.05210 1.03242
 N22 N 0.44888 1.06965 1.03597
 N23 N 0.47091 1.03150 1.05200
 N24 N 0.44842 1.03424 1.06916
 N25 N 0.53158 1.05192 1.03213
 N26 N 0.55345 1.06976 1.03592
 Mn27 Mn 0.50119 1.05268 1.00122
 C28 C 0.56708 1.05878 1.05934
 C29 C 0.43497 1.05822 1.05899
 N30 N 0.53123 0.97011 0.94971
 N31 N 0.55317 0.96663 0.93196
 N32 N 0.47035 0.95018 0.96969
 N33 N 0.44767 0.93324 0.96668
 N34 N 0.47060 0.97038 0.94972
 N35 N 0.44817 0.96766 0.93250
 N36 N 0.53103 0.94964 0.96940
 N37 N 0.55278 0.93161 0.96553
 Mn38 Mn 0.50102 1.00142 0.94961
 C39 C 0.56642 0.94249 0.94208
 C40 C 0.43409 0.94435 0.94330
 N41 N 0.47089 0.96925 1.05180
 N42 N 0.44862 0.96606 1.06920
 N43 N 0.53123 0.94908 1.03140
 N44 N 0.55394 0.93201 1.03385
 N45 N 0.53156 0.96912 1.05136
 N46 N 0.55455 0.96629 1.06787
 N47 N 0.47052 0.94949 1.03158
 N48 N 0.44792 0.93240 1.03459
 Mn49 Mn 0.50128 1.00033 1.05212
 Mn50 Mn 0.50077 0.94923 1.00053
 Cl51 Cl 0.50107 1.00092 1.00087
 C52 C 0.43450 0.94294 1.05824
 C53 C 0.56823 0.94294 1.05678
 N54 N 0.03166 0.46875 0.05079
 N55 N 0.03437 0.44561 0.06737
 N56 N 0.05185 0.52987 0.03125
 N57 N 0.06924 0.55222 0.03446
 N58 N 0.03182 0.52985 0.05121
 N59 N 0.03496 0.55229 0.06845
 N60 N 0.05158 0.46896 0.03073
 N61 N 0.06846 0.44607 0.03319
 C62 C 0.05752 0.43173 0.05621
 C63 C 0.05847 0.56600 0.05781
 N64 N 0.03120 0.53124 -0.05041
 N65 N 0.03419 0.55411 -0.06728
 N66 N 0.05117 0.46971 -0.03122
 N67 N 0.06826 0.44711 -0.03459
 N68 N 0.03121 0.47025 -0.05124
 N69 N 0.03428 0.44809 -0.06885
 N70 N 0.05146 0.53066 -0.03070
 N71 N 0.06885 0.55306 -0.03369
 Mn72 Mn 0.05187 0.49979 0.00001
 C73 C 0.05785 0.56747 -0.05664
 C74 C 0.05752 0.43386 -0.05822
 N75 N -0.03011 0.53001 0.05153
 N76 N -0.03295 0.55249 0.06875
 N77 N -0.05028 0.46894 0.03126
 N78 N -0.06713 0.44607 0.03407
 N79 N -0.03028 0.46894 0.05124
 N80 N -0.03303 0.44612 0.06822
 N81 N -0.05057 0.52989 0.03201
 N82 N -0.06810 0.55210 0.03564
 Mn83 Mn 0.00078 0.49941 0.05156
 C84 C -0.05683 0.56598 0.05865
 C85 C -0.05616 0.43207 0.05732
 N86 N -0.03082 0.47040 -0.05089
 N87 N -0.03383 0.44808 -0.06828
 N88 N -0.05073 0.53107 -0.03001
 N89 N -0.06781 0.55382 -0.03271
 N90 N -0.03083 0.53128 -0.05011
 N91 N -0.03391 0.55406 -0.06708
 N92 N -0.05060 0.46994 -0.03070
 N93 N -0.06753 0.44720 -0.03371
 Mn94 Mn 0.00019 0.50081 -0.05103
 Mn95 Mn -0.05093 0.49995 0.00063
 Cl96 Cl 0.00047 0.49999 0.00030
 C97 C -0.05688 0.43384 -0.05734
 C98 C -0.05711 0.56793 -0.05603
 N99 N 1.02997 0.05026 0.53082
 N100 N 1.03316 0.06739 0.55329
 N101 N 1.04976 0.03063 0.46999
 N102 N 1.06716 0.03401 0.44778
 N103 N 1.02988 0.05088 0.47016
 N104 N 1.03332 0.06869 0.44810
 N105 N 1.05007 0.03025 0.53054
 N106 N 1.06757 0.03330 0.55272
 C107 C 1.05678 0.05659 0.56671
 C108 C 1.05670 0.05788 0.43434
 N109 N 1.03010 -0.05196 0.46987
 N110 N 1.03335 -0.06930 0.44758
 N111 N 1.05003 -0.03207 0.53040
 N112 N 1.06715 -0.03500 0.55290
 N113 N 1.03018 -0.05230 0.53042
 N114 N 1.03336 -0.06966 0.55285
 N115 N 1.04988 -0.03166 0.46972
 N116 N 1.06705 -0.03456 0.44725
 Mn117 Mn 1.05029 -0.00072 0.50015
 C118 C 1.05653 -0.05821 0.43368
 C119 C 1.05658 -0.05863 0.56665
 N120 N 0.96768 0.05091 0.47040
 N121 N 0.96410 0.06884 0.44846
 N122 N 0.94798 0.03023 0.53070
 N123 N 0.93086 0.03300 0.55322
 N124 N 0.96806 0.05021 0.53092
 N125 N 0.96525 0.06705 0.55363
 N126 N 0.94813 0.03037 0.46998
 N127 N 0.93100 0.03348 0.44748
 Mn128 Mn 0.99890 0.05094 0.50057
 C129 C 0.94114 0.05765 0.43438
 C130 C 0.94186 0.05612 0.56729
 N131 N 0.96795 -0.05251 0.53046
 N132 N 0.96446 -0.07037 0.55246
 N133 N 0.94803 -0.03197 0.47012
 N134 N 0.93045 -0.03527 0.44804
 N135 N 0.96814 -0.05198 0.46995
 N136 N 0.96487 -0.06936 0.44772
 N137 N 0.94829 -0.03204 0.53083
 N138 N 0.93119 -0.03512 0.55334
 Mn139 Mn 0.99910 -0.05255 0.50019
 Mn140 Mn 0.94773 -0.00085 0.50039
 Cl141 Cl 0.99900 -0.00079 0.50032
 C142 C 0.94146 -0.05921 0.56653
 C143 C 0.94121 -0.05872 0.43427
 C144 C 1.14235 0.14026 0.25468
 C145 C 1.14211 0.17025 0.24933
 C146 C 1.15388 0.18148 0.22394
 C147 C 1.16573 0.16295 0.20311
 C148 C 1.16626 0.13300 0.20863
 C149 C 1.15476 0.12179 0.23412
 C150 C 1.12967 0.12823 0.28144
 N151 N 1.13431 0.10018 0.28906
 N152 N 1.12282 0.08927 0.31302
 C153 C 1.10606 0.10590 0.33033
 N154 N 1.10137 0.13396 0.32271
 N155 N 1.11297 0.14491 0.29879
 C156 C 1.09327 0.09367 0.35695
 C157 C 1.07180 0.10883 0.37206
 C158 C 1.05973 0.09714 0.39713
 C159 C 1.06912 0.07022 0.40774
 C160 C 1.09059 0.05508 0.39272
 C161 C 1.10245 0.06661 0.36753
 H162 H 1.13300 0.18511 0.26485
 H163 H 1.15378 0.20470 0.22055
 H164 H 1.17524 0.11818 0.19303
 H165 H 1.15528 0.09857 0.23753
 H166 H 1.06416 0.12966 0.36443
 H167 H 1.04319 0.10925 0.40831
 H168 H 1.09817 0.03422 0.40036
 H169 H 1.11898 0.05438 0.35647
 C170 C 0.85925 -0.14187 0.25399
 C171 C 0.82941 -0.14148 0.24880
 C172 C 0.81819 -0.15300 0.22338
 C173 C 0.83658 -0.16473 0.20238
 C174 C 0.86638 -0.16531 0.20771
 C175 C 0.87758 -0.15407 0.23322
 C176 C 0.87125 -0.12960 0.28085
 N177 N 0.89905 -0.13472 0.28843
 N178 N 0.90993 -0.12363 0.31250
 C179 C 0.89351 -0.10681 0.32995
 N180 N 0.86571 -0.10164 0.32235
 N181 N 0.85479 -0.11285 0.29833
 C182 C 0.90569 -0.09442 0.35667
 C183 C 0.89089 -0.07264 0.37174
 C184 C 0.90251 -0.06090 0.39689
 C185 C 0.92899 -0.07093 0.40762
 C186 C 0.94377 -0.09272 0.39265
 C187 C 0.93231 -0.10426 0.36737
 H188 H 0.81467 -0.13251 0.26448
 H189 H 0.79509 -0.15286 0.22015
 H190 H 0.88109 -0.17419 0.19197
 H191 H 0.90067 -0.15468 0.23650
 H192 H 0.87041 -0.06449 0.36402
 H193 H 0.89068 -0.04409 0.40800
 H194 H 0.96429 -0.10078 0.40041
 H195 H 0.94425 -0.12104 0.35634
 C196 C 0.86175 0.13672 0.74950
 C197 C 0.83176 0.13878 0.75321
 C198 C 0.82025 0.15119 0.77805
 C199 C 0.83844 0.16150 0.79989
 C200 C 0.86841 0.15919 0.79632
 C201 C 0.87996 0.14708 0.77133
 C202 C 0.87392 0.12409 0.72289
 N203 N 0.90211 0.12792 0.71604
 N204 N 0.91294 0.11693 0.69187
 C205 C 0.89605 0.10154 0.67361
 N206 N 0.86790 0.09759 0.68054
 N207 N 0.85704 0.10869 0.70463
 C208 C 0.90798 0.08961 0.64658
 C209 C 0.89259 0.06873 0.63089
 C210 C 0.90372 0.05768 0.60522
 C211 C 0.93027 0.06754 0.59456
 C212 C 0.94569 0.08836 0.61019
 C213 C 0.93474 0.09917 0.63603
 H214 H 0.81714 0.13117 0.73673
 H215 H 0.79709 0.15302 0.78013
 H216 H 0.88287 0.16674 0.81296
 H217 H 0.90315 0.14567 0.76920
 H218 H 0.87199 0.06080 0.63850
 H219 H 0.89142 0.04159 0.59361
 H220 H 0.96630 0.09622 0.60251
 H221 H 0.94710 0.11527 0.64755
 C222 C 1.13915 -0.13864 0.74869
 C223 C 1.14131 -0.16876 0.75271
 C224 C 1.15364 -0.18014 0.77774
 C225 C 1.16377 -0.16169 0.79947
 C226 C 1.16144 -0.13159 0.79557
 C227 C 1.14941 -0.12017 0.77039
 C228 C 1.12645 -0.12660 0.72196
 N229 N 1.12997 -0.09824 0.71493
 N230 N 1.11881 -0.08750 0.69072
 C231 C 1.10354 -0.10465 0.67259
 N232 N 1.09991 -0.13298 0.67968
 N233 N 1.11119 -0.14375 0.70383
 C234 C 1.09132 -0.09278 0.64556
 C235 C 1.07058 -0.10844 0.63001
 C236 C 1.05913 -0.09726 0.60444
 C237 C 1.06846 -0.07037 0.59375
 C238 C 1.08920 -0.05472 0.60921
 C239 C 1.10040 -0.06573 0.63494
 H240 H 1.13380 -0.18358 0.73635
 H241 H 1.15548 -0.20341 0.78009
 H242 H 1.16886 -0.11693 0.81212
 H243 H 1.14792 -0.09687 0.76803
 H244 H 1.06303 -0.12928 0.63767
 H245 H 1.04314 -0.10975 0.59294
 H246 H 1.09668 -0.03387 0.60149
 H247 H 1.11640 -0.05316 0.64635
 C248 C 0.25418 1.13841 1.14208
 C249 C 0.25547 1.15823 1.16491
 C250 C 0.23017 1.16960 1.17664
 C251 C 0.20336 1.16195 1.16516
 C252 C 0.20194 1.14239 1.14224
 C253 C 0.22718 1.13034 1.13102
 C254 C 0.28089 1.12642 1.12971
 N255 N 0.28154 1.09906 1.11910
 N256 N 0.30573 1.08823 1.10804
 C257 C 0.33007 1.10449 1.10681
 N258 N 0.32936 1.13191 1.11725
 N259 N 0.30528 1.14261 1.12865
 C260 C 0.35682 1.09260 1.09442
 C261 C 0.37615 1.11078 1.07971
 C262 C 0.40140 1.09949 1.06777
 C263 C 0.40812 1.07002 1.07110
 C264 C 0.38898 1.05189 1.08609
 C265 C 0.36332 1.06302 1.09730
 H266 H 0.27602 1.16466 1.17389
 H267 H 0.23139 1.18475 1.19433
 H268 H 0.18127 1.13640 1.13327
 H269 H 0.22566 1.11521 1.11334
 H270 H 0.37152 1.13364 1.07709
 H271 H 0.41589 1.11386 1.05633
 H272 H 0.39367 1.02905 1.08879
 H273 H 0.34880 1.04861 1.10866
 C274 C 0.25228 0.86430 0.86132
 C275 C 0.23020 0.85388 0.87929
 C276 C 0.20526 0.84184 0.86752
 C277 C 0.20200 0.83963 0.83754
 C278 C 0.22406 0.85006 0.81957
 C279 C 0.24884 0.86241 0.83131
 C280 C 0.27886 0.87677 0.87375
 N281 N 0.29737 0.89227 0.85710
 N282 N 0.32144 0.90324 0.86820
 C283 C 0.32809 0.89904 0.89639
 N284 N 0.30958 0.88353 0.91305
 N285 N 0.28544 0.87269 0.90198
 C286 C 0.35507 0.91088 0.90859
 C287 C 0.36538 0.90108 0.93539
 C288 C 0.39114 0.91187 0.94662
 C289 C 0.40692 0.93289 0.93144
 C290 C 0.39650 0.94295 0.90485
 C291 C 0.37092 0.93193 0.89345
 H292 H 0.23209 0.85518 0.90249
 H293 H 0.18845 0.83421 0.88181
 H294 H 0.22222 0.84832 0.79641
 H295 H 0.26552 0.87008 0.81687
 H296 H 0.35372 0.88483 0.94756
 H297 H 0.39864 0.90384 0.96724
 H298 H 0.40823 0.95920 0.89273
 H299 H 0.36351 0.94004 0.87283
 C300 C 0.75146 0.86142 1.13518
 C301 C 0.75603 0.83135 1.13433
 C302 C 0.78019 0.81902 1.14744
 C303 C 0.80049 0.83647 1.16165
 C304 C 0.79637 0.86665 1.16173
 C305 C 0.77202 0.87897 1.14886
 C306 C 0.72511 0.87422 1.12239
 N307 N 0.71738 0.90199 1.12816
 N308 N 0.69317 0.91313 1.11736
 C309 C 0.67573 0.89701 1.10028
 N310 N 0.68357 0.86932 1.09435
 N311 N 0.70770 0.85815 1.10523
 C312 C 0.64846 0.90911 1.08877
 C313 C 0.63293 0.89420 1.06749
 C314 C 0.60694 0.90530 1.05699
 C315 C 0.59581 0.93139 1.06772
 C316 C 0.61131 0.94638 1.08890
 C317 C 0.63744 0.93542 1.09924
 H318 H 0.74063 0.81718 1.12400
 H319 H 0.78266 0.79573 1.14691
 H320 H 0.81197 0.88070 1.17191
 H321 H 0.76931 0.90226 1.14962
 H322 H 0.64085 0.87394 1.05887
 H323 H 0.59547 0.89333 1.04060
 H324 H 0.60328 0.96663 1.09746
 H325 H 0.64882 0.94742 1.11566
 C326 C 0.75017 1.13928 0.86306
 C327 C 0.75396 1.16942 0.86100
 C328 C 0.77892 1.18094 0.84869
 C329 C 0.80079 1.16259 0.83848
 C330 C 0.79715 1.13247 0.84081
 C331 C 0.77203 1.12092 0.85282
 C332 C 0.72345 1.12711 0.87559
 N333 N 0.71657 1.09878 0.87182
 N334 N 0.69232 1.08795 0.88276
 C335 C 0.67400 1.10495 0.89803
 N336 N 0.68095 1.13323 0.90190
 N337 N 0.70513 1.14410 0.89085
 C338 C 0.64693 1.09299 0.90999
 C339 C 0.63122 1.10846 0.93075
 C340 C 0.60558 1.09725 0.94193
 C341 C 0.59497 1.07053 0.93232
 C342 C 0.61059 1.05504 0.91156
 C343 C 0.63640 1.06609 0.90061
 H344 H 0.73746 1.18416 0.86852
 H345 H 0.78107 1.20422 0.84685
 H346 H 0.81381 1.11790 0.83333
 H347 H 0.76985 1.09761 0.85424
 H348 H 0.63880 1.12918 0.93852
 H349 H 0.59396 1.10960 0.95796
 H350 H 0.60293 1.03431 0.90387
 H351 H 0.64794 1.05367 0.88459
 C352 C 0.13926 0.24791 0.13520
 C353 C 0.16922 0.24356 0.13429
 C354 C 0.18165 0.21943 0.14758
 C355 C 0.16444 0.19895 0.16203
 C356 C 0.13439 0.20284 0.16214
 C357 C 0.12195 0.22716 0.14909
 C358 C 0.12635 0.27428 0.12227
 N359 N 0.09874 0.28197 0.12824
 N360 N 0.08750 0.30622 0.11735
 C361 C 0.10338 0.32374 0.09995
 N362 N 0.13092 0.31592 0.09382
 N363 N 0.14218 0.29175 0.10479
 C364 C 0.09122 0.35108 0.08835
 C365 C 0.10586 0.36657 0.06673
 C366 C 0.09478 0.39268 0.05618
 C367 C 0.06897 0.40398 0.06720
 C368 C 0.05422 0.38851 0.08870
 C369 C 0.06517 0.36224 0.09910
 H370 H 0.18319 0.25911 0.12378
 H371 H 0.20484 0.21714 0.14702
 H372 H 0.12052 0.18709 0.17249
 H373 H 0.09877 0.22970 0.14990
 H374 H 0.12591 0.35854 0.05788
 H375 H 0.10655 0.40412 0.03952
 H376 H 0.03419 0.39667 0.09748
 H377 H 0.05338 0.35089 0.11579
 C378 C -0.13606 0.25086 -0.13889
 C379 C -0.13786 0.24731 -0.16888
 C380 C -0.15004 0.22231 -0.18052
 C381 C -0.16039 0.20017 -0.16245
 C382 C -0.15824 0.20353 -0.13248
 C383 C -0.14636 0.22867 -0.12081
 C384 C -0.12382 0.27768 -0.12656
 N385 N -0.12778 0.28424 -0.09836
 N386 N -0.11714 0.30859 -0.08738
 C387 C -0.10198 0.32735 -0.10413
 N388 N -0.09792 0.32073 -0.13230
 N389 N -0.10867 0.29645 -0.14330
 C390 C -0.09031 0.35453 -0.09201
 C391 C -0.06973 0.37074 -0.10735
 C392 C -0.05877 0.39645 -0.09599
 C393 C -0.06841 0.40663 -0.06924
 C394 C -0.08901 0.39053 -0.05389
 C395 C -0.09974 0.36465 -0.06509
 H396 H -0.13027 0.26405 -0.18340
 H397 H -0.15174 0.22038 -0.20368
 H398 H -0.16583 0.18665 -0.11812
 H399 H -0.14512 0.23064 -0.09763
 H400 H -0.06192 0.36350 -0.12807
 H401 H -0.04288 0.40844 -0.10824
 H402 H -0.09670 0.39785 -0.03314
 H403 H -0.11562 0.35271 -0.05277
 C404 C 0.14041 0.75025 -0.13683
 C405 C 0.17045 0.75377 -0.13854
 C406 C 0.18225 0.77873 -0.15086
 C407 C 0.16430 0.80086 -0.16143
 C408 C 0.13429 0.79752 -0.15940
 C409 C 0.12246 0.77242 -0.14738
 C410 C 0.12792 0.72348 -0.12441
 N411 N 0.09967 0.71695 -0.12839
 N412 N 0.08855 0.69264 -0.11758
 C413 C 0.10517 0.67392 -0.10221
 N414 N 0.13338 0.68052 -0.09812
 N415 N 0.14453 0.70475 -0.10905
 C416 C 0.09289 0.64679 -0.09037
 C417 C 0.10810 0.63060 -0.06965
 C418 C 0.09661 0.60492 -0.05857
 C419 C 0.06984 0.59472 -0.06823
 C420 C 0.05460 0.61081 -0.08894
 C421 C 0.06594 0.63668 -0.09980
 H422 H 0.18488 0.73704 -0.13076
 H423 H 0.20544 0.78065 -0.15246
 H424 H 0.12002 0.81439 -0.16717
 H425 H 0.09924 0.77047 -0.14622
 H426 H 0.12885 0.63785 -0.06184
 H427 H 0.10879 0.59294 -0.04258
 H428 H 0.03384 0.60348 -0.09666
 H429 H 0.05371 0.64859 -0.11579
 C430 C -0.13839 0.74683 0.14145
 C431 C -0.15807 0.74530 0.16440
 C432 C -0.16965 0.77061 0.17607
 C433 C -0.16236 0.79765 0.16442
 C434 C -0.14298 0.79929 0.14137
 C435 C -0.13072 0.77405 0.13020
 C436 C -0.12614 0.72011 0.12919
 N437 N -0.09890 0.71975 0.11852
 N438 N -0.08785 0.69554 0.10755
 C439 C -0.10375 0.67089 0.10649
 N440 N -0.13105 0.67131 0.11700
 N441 N -0.14197 0.69541 0.12830
 C442 C -0.09166 0.64414 0.09413
 C443 C -0.10955 0.62463 0.07947
 C444 C -0.09811 0.59938 0.06755
 C445 C -0.06876 0.59283 0.07084
 C446 C -0.05091 0.61214 0.08577
 C447 C -0.06220 0.63782 0.09698
 H448 H -0.16419 0.72457 0.17352
 H449 H -0.18464 0.76921 0.19389
 H450 H -0.13726 0.82015 0.13228
 H451 H -0.11571 0.77575 0.11242
 H452 H -0.13232 0.62913 0.07687
 H453 H -0.11227 0.58475 0.05613
 H454 H -0.02816 0.60758 0.08843
 H455 H -0.04801 0.65250 0.10830
 C456 C 1.14110 0.13905 0.74635
 C457 C 1.17116 0.14091 0.74956
 C458 C 1.18317 0.15337 0.77416
 C459 C 1.16541 0.16394 0.79627
 C460 C 1.13537 0.16179 0.79321
 C461 C 1.12334 0.14965 0.76846
 C462 C 1.12837 0.12635 0.72001
 N463 N 1.10004 0.13025 0.71372
 N464 N 1.08868 0.11912 0.68987
 C465 C 1.10513 0.10349 0.67137
 N466 N 1.13342 0.09950 0.67773
 N467 N 1.14482 0.11075 0.70150
 C468 C 1.09256 0.09126 0.64473
 C469 C 1.10757 0.07016 0.62893
 C470 C 1.09583 0.05875 0.60370
 C471 C 1.06899 0.06844 0.59355
 C472 C 1.05394 0.08950 0.60928
 C473 C 1.06553 0.10069 0.63469
 H474 H 1.18546 0.13311 0.73288
 H475 H 1.20637 0.15503 0.77584
 H476 H 1.12122 0.16951 0.81005
 H477 H 1.10011 0.14839 0.76675
 H478 H 1.12837 0.06232 0.63612
 H479 H 1.10787 0.04248 0.59202
 H480 H 1.03314 0.09727 0.60200
 H481 H 1.05343 0.11695 0.64631
 C482 C 0.85691 -0.14177 0.74565
 C483 C 0.87422 -0.14753 0.76973
 C484 C 0.86229 -0.15997 0.79450
 C485 C 0.83252 -0.16591 0.79609
 C486 C 0.81518 -0.15938 0.77198
 C487 C 0.82737 -0.14796 0.74687
 C488 C 0.86964 -0.12953 0.71925
 N489 N 0.86300 -0.14072 0.69310
 N490 N 0.87470 -0.12984 0.66920
 C491 C 0.89312 -0.10705 0.67055
 N492 N 0.89959 -0.09569 0.69668
 N493 N 0.88825 -0.10689 0.72062
 C494 C 0.90576 -0.09481 0.64410
 C495 C 0.90646 -0.06471 0.63980
 C496 C 0.91771 -0.05312 0.61430
 C497 C 0.92935 -0.07144 0.59323
 C498 C 0.92923 -0.10151 0.59782
 C499 C 0.91702 -0.11314 0.62285
 H500 H 0.89709 -0.14293 0.76916
 H501 H 0.87617 -0.16435 0.81275
 H502 H 0.79232 -0.16402 0.77231
 H503 H 0.81366 -0.14360 0.72848
 H504 H 0.89778 -0.05022 0.65591
 H505 H 0.91771 -0.02985 0.61120
 H506 H 0.93805 -0.11599 0.58178
 H507 H 0.91675 -0.13642 0.62584
 C508 C 1.14007 -0.14071 0.25360
 C509 C 1.15067 -0.12260 0.23161
 C510 C 1.16276 -0.13443 0.20672
 C511 C 1.16482 -0.16460 0.20339
 C512 C 1.15432 -0.18269 0.22541
 C513 C 1.14193 -0.17090 0.25015
 C514 C 1.12728 -0.12823 0.28003
 N515 N 1.11170 -0.14501 0.29839
 N516 N 1.10031 -0.13386 0.32222
 C517 C 1.10414 -0.10548 0.32880
 N518 N 1.11974 -0.08870 0.31046
 N519 N 1.13101 -0.09982 0.28654
 C520 C 1.09173 -0.09319 0.35550
 C521 C 1.10088 -0.06609 0.36573
 C522 C 1.08952 -0.05477 0.39120
 C523 C 1.06855 -0.07015 0.40678
 C524 C 1.05914 -0.09706 0.39643
 C525 C 1.07073 -0.10855 0.37115
 H526 H 1.14942 -0.09926 0.23352
 H527 H 1.17045 -0.12002 0.18995
 H528 H 1.15594 -0.20600 0.22353
 H529 H 1.13414 -0.18546 0.26674
 H530 H 1.11705 -0.05373 0.35424
 H531 H 1.09707 -0.03390 0.39863
 H532 H 1.04297 -0.10936 0.40800
 H533 H 1.06311 -0.12940 0.36380
 C534 C 0.85767 0.14124 0.25520
 C535 C 0.87516 0.14691 0.23123
 C536 C 0.86346 0.15949 0.20642
 C537 C 0.83373 0.16566 0.20467
 C538 C 0.81622 0.15926 0.22869
 C539 C 0.82818 0.14770 0.25385
 C540 C 0.87015 0.12881 0.28164
 N541 N 0.86336 0.13994 0.30778
 N542 N 0.87483 0.12887 0.33172
 C543 C 0.89314 0.10596 0.33041
 N544 N 0.89976 0.09467 0.30428
 N545 N 0.88866 0.10605 0.28030
 C546 C 0.90558 0.09358 0.35689
 C547 C 0.90626 0.06347 0.36109
 C548 C 0.91741 0.05177 0.38658
 C549 C 0.92899 0.06999 0.40774
 C550 C 0.92886 0.10007 0.40327
 C551 C 0.91675 0.11182 0.37825
 H552 H 0.89800 0.14211 0.23192
 H553 H 0.87746 0.16377 0.18824
 H554 H 0.79338 0.16409 0.22824
 H555 H 0.81433 0.14342 0.27215
 H556 H 0.89765 0.04906 0.34488
 H557 H 0.91742 0.02848 0.38959
 H558 H 0.93763 0.11448 0.41938
 H559 H 0.91651 0.13511 0.37534
 C560 C 0.13986 0.25297 -0.14206
 C561 C 0.14159 0.24962 -0.17208
 C562 C 0.15404 0.22482 -0.18395
 C563 C 0.16475 0.20266 -0.16609
 C564 C 0.16275 0.20585 -0.13609
 C565 C 0.15060 0.23079 -0.12420
 C566 C 0.12716 0.27952 -0.12947
 N567 N 0.13106 0.28588 -0.10121
 N568 N 0.11994 0.30992 -0.08996
 C569 C 0.10433 0.32855 -0.10646
 N570 N 0.10033 0.32212 -0.13469
 N571 N 0.11157 0.29816 -0.14597
 C572 C 0.09214 0.35540 -0.09400
 C573 C 0.07114 0.37142 -0.10902
 C574 C 0.05974 0.39682 -0.09730
 C575 C 0.06935 0.40689 -0.07049
 C576 C 0.09034 0.39096 -0.05547
 C577 C 0.10150 0.36539 -0.06702
 H578 H 0.13367 0.26636 -0.18646
 H579 H 0.15559 0.22302 -0.20713
 H580 H 0.17060 0.18895 -0.12187
 H581 H 0.14945 0.23260 -0.10099
 H582 H 0.06337 0.36427 -0.12978
 H583 H 0.04356 0.40868 -0.10932
 H584 H 0.09804 0.39817 -0.03469
 H585 H 0.11769 0.35361 -0.05492
 C586 C -0.13733 0.25001 0.14123
 C587 C -0.15204 0.22964 0.12435
 C588 C -0.16506 0.20546 0.13708
 C589 C -0.16420 0.20113 0.16722
 C590 C -0.14880 0.22147 0.18387
 C591 C -0.13559 0.24543 0.17107
 C592 C -0.12427 0.27618 0.12798
 N593 N -0.10620 0.29328 0.14339
 N594 N -0.09500 0.31720 0.13184
 C595 C -0.10148 0.32516 0.10441
 N596 N -0.11951 0.30803 0.08895
 N597 N -0.13062 0.28402 0.10047
 C598 C -0.08951 0.35221 0.09191
 C599 C -0.10018 0.36346 0.06581
 C600 C -0.08939 0.38944 0.05455
 C601 C -0.06755 0.40456 0.06903
 C602 C -0.05661 0.39316 0.09488
 C603 C -0.06754 0.36735 0.10626
 H604 H -0.15341 0.23229 0.10122
 H605 H -0.17554 0.18990 0.12321
 H606 H -0.14775 0.21942 0.20707
 H607 H -0.12450 0.26073 0.18476
 H608 H -0.11712 0.35239 0.05421
 H609 H -0.09812 0.39766 0.03449
 H610 H -0.03971 0.40430 0.10646
 H611 H -0.05873 0.35926 0.12632
 C612 C -0.13917 0.74956 -0.14037
 C613 C -0.13731 0.75411 -0.17021
 C614 C -0.15039 0.77815 -0.18306
 C615 C -0.16576 0.79859 -0.16647
 C616 C -0.16675 0.79428 -0.13633
 C617 C -0.15387 0.77002 -0.12355
 C618 C -0.12617 0.72337 -0.12707
 N619 N -0.13263 0.71552 -0.09958
 N620 N -0.12150 0.69153 -0.08800
 C621 C -0.10334 0.67442 -0.10338
 N622 N -0.09677 0.68238 -0.13079
 N623 N -0.10798 0.70629 -0.14239
 C624 C -0.09124 0.64744 -0.09081
 C625 C -0.06905 0.63247 -0.10505
 C626 C -0.05790 0.60678 -0.09360
 C627 C -0.06884 0.59530 -0.06779
 C628 C -0.09093 0.61022 -0.05343
 C629 C -0.10194 0.63610 -0.06476
 H630 H -0.12622 0.73875 -0.18385
 H631 H -0.14924 0.78018 -0.20626
 H632 H -0.17722 0.80990 -0.12250
 H633 H -0.15532 0.76739 -0.10042
 H634 H -0.06020 0.64063 -0.12507
 H635 H -0.04082 0.59579 -0.10511
 H636 H -0.09967 0.60191 -0.03342
 H637 H -0.11906 0.64704 -0.05327
 C638 C 0.14146 0.74700 0.14043
 C639 C 0.12354 0.76914 0.15093
 C640 C 0.13540 0.79417 0.16291
 C641 C 0.16542 0.79747 0.16495
 C642 C 0.18333 0.77531 0.15453
 C643 C 0.17150 0.75044 0.14225
 C644 C 0.12893 0.72041 0.12781
 N645 N 0.14554 0.70191 0.11232
 N646 N 0.13434 0.67792 0.10109
 C647 C 0.10608 0.67134 0.10499
 N648 N 0.08947 0.68983 0.12051
 N649 N 0.10064 0.71389 0.13162
 C650 C 0.09373 0.64449 0.09274
 C651 C 0.06673 0.63423 0.10197
 C652 C 0.05533 0.60864 0.09072
 C653 C 0.07054 0.59298 0.06978
 C654 C 0.09735 0.60334 0.06031
 C655 C 0.10892 0.62873 0.07180
 H656 H 0.10032 0.76726 0.14971
 H657 H 0.12114 0.81105 0.17054
 H658 H 0.20652 0.77718 0.15613
 H659 H 0.18591 0.73373 0.13453
 H660 H 0.05451 0.64581 0.11811
 H661 H 0.03453 0.60120 0.09830
 H662 H 0.10952 0.59169 0.04416
 H663 H 0.12970 0.63609 0.06412
 C664 C 0.25410 1.14149 0.85939
 C665 C 0.23231 1.12323 0.84888
 C666 C 0.20729 1.13487 0.83668
 C667 C 0.20365 1.16501 0.83441
 C668 C 0.22550 1.18326 0.84476
 C669 C 0.25036 1.17165 0.85726
 C670 C 0.28063 1.12919 0.87236
 N671 N 0.29880 1.14610 0.88787
 N672 N 0.32270 1.13508 0.89942
 C673 C 0.32953 1.10670 0.89584
 N674 N 0.31137 1.08979 0.88032
 N675 N 0.28739 1.10078 0.86889
 C676 C 0.35632 1.09451 0.90837
 C677 C 0.36674 1.06742 0.89935
 C678 C 0.39225 1.05611 0.91079
 C679 C 0.40770 1.07149 0.93173
 C680 C 0.39719 1.09840 0.94102
 C681 C 0.37185 1.10989 0.92932
 H682 H 0.23444 1.09991 0.85033
 H683 H 0.19066 1.12034 0.82912
 H684 H 0.22337 1.20656 0.84298
 H685 H 0.26680 1.18633 0.86496
 H686 H 0.35535 1.05504 0.88320
 H687 H 0.39980 1.03524 0.90332
 H688 H 0.40869 1.11069 0.95715
 H689 H 0.36435 1.13075 0.93684
 C690 C 0.25358 0.86080 1.14140
 C691 C 0.25013 0.85897 1.17143
 C692 C 0.22533 0.84663 1.18332
 C693 C 0.20327 0.83615 1.16548
 C694 C 0.20657 0.83825 1.13547
 C695 C 0.23152 0.85028 1.12355
 C696 C 0.28012 0.87342 1.12881
 N697 N 0.28660 0.86957 1.10056
 N698 N 0.31063 0.88065 1.08935
 C699 C 0.32912 0.89617 1.10587
 N700 N 0.32258 0.90011 1.13409
 N701 N 0.29863 0.88892 1.14534
 C702 C 0.35596 0.90835 1.09348
 C703 C 0.37182 0.92929 1.10859
 C704 C 0.39722 0.94067 1.09703
 C705 C 0.40749 0.93110 1.07027
 C706 C 0.39171 0.91018 1.05512
 C707 C 0.36611 0.89903 1.06653
 H708 H 0.26678 0.86670 1.18579
 H709 H 0.22347 0.84499 1.20650
 H710 H 0.18976 0.83058 1.12126
 H711 H 0.23341 0.85152 1.10035
 H712 H 0.36454 0.93705 1.12933
 H713 H 0.40894 0.95682 1.10914
 H714 H 0.39907 0.90252 1.03437
 H715 H 0.35445 0.88289 1.05436
 C716 C 0.74499 1.14344 1.14600
 C717 C 0.75083 1.17322 1.14391
 C718 C 0.77616 1.18474 1.15545
 C719 C 0.79671 1.16673 1.16911
 C720 C 0.79037 1.13687 1.17146
 C721 C 0.76495 1.12546 1.16012
 C722 C 0.71835 1.13108 1.13340
 N723 N 0.71052 1.10331 1.13918
 N724 N 0.68677 1.09208 1.12766
 C725 C 0.66988 1.10808 1.10976
 N726 N 0.67771 1.13585 1.10397
 N727 N 0.70142 1.14713 1.11558
 C728 C 0.64354 1.09546 1.09680
 C729 C 0.62870 1.11016 1.07474
 C730 C 0.60396 1.09816 1.06245
 C731 C 0.59338 1.07135 1.07214
 C732 C 0.60812 1.05665 1.09418
 C733 C 0.63300 1.06851 1.10631
 H734 H 0.73570 1.18776 1.13354
 H735 H 0.77938 1.20793 1.15413
 H736 H 0.80551 1.12206 1.18142
 H737 H 0.76119 1.10239 1.16206
 H738 H 0.63628 1.13088 1.06681
 H739 H 0.59302 1.10996 1.04546
 H740 H 0.60049 1.03589 1.10201
 H741 H 0.64385 1.05661 1.12327
 C742 C 0.74363 0.85676 0.85460
 C743 C 0.76366 0.87463 0.84048
 C744 C 0.78904 0.86309 0.82912
 C745 C 0.79528 0.83319 0.83147
 C746 C 0.77464 0.81529 0.84508
 C747 C 0.74935 0.82694 0.85663
 C748 C 0.71708 0.86926 0.86730
 N749 N 0.70014 0.85330 0.88517
 N750 N 0.67653 0.86471 0.89690
 C751 C 0.66880 0.89254 0.89119
 N752 N 0.68569 0.90846 0.87324
 N753 N 0.70934 0.89709 0.86160
 C754 C 0.64257 0.90532 0.90428
 C755 C 0.63211 0.93234 0.89483
 C756 C 0.60733 0.94436 0.90707
 C757 C 0.59261 0.92974 0.92918
 C758 C 0.60311 0.90286 0.93881
 C759 C 0.62776 0.89071 0.92641
 H760 H 0.75999 0.89772 0.83857
 H761 H 0.80425 0.87783 0.81919
 H762 H 0.77777 0.79208 0.84638
 H763 H 0.73416 0.81247 0.86699
 H764 H 0.64294 0.94418 0.87783
 H765 H 0.59977 0.96517 0.89929
 H766 H 0.59219 0.89113 0.95585
 H767 H 0.63528 0.86993 0.93429
   
