data_POSCAR
  _audit_creation_date              2014-09-24
  _audit_creation_method            'ToBaCCo'
  _symmetry_space_group_name_H-M    'P1'
  _symmetry_Int_Tables_number       1
  _symmetry_cell_setting            triclinic
  loop_
  _symmetry_equiv_pos_as_xyz
 x,y,z
_cell_length_a 25.1802
_cell_length_b 25.1290
_cell_length_c 25.2204
_cell_angle_alpha 90.053100
_cell_angle_beta 89.990800
_cell_angle_gamma 89.889400
loop_
  _atom_site_label
  _atom_site_type_symbol
  _atom_site_fract_x
  _atom_site_fract_y
  _atom_site_fract_z
C1 C 0.31253 0.37807 1.38009
 N2 N 0.33215 0.40242 1.33619
 C3 C 0.37558 0.38215 1.31134
 N4 N 0.39909 0.33731 1.33020
 C5 C 0.37991 0.31328 1.37437
 N6 N 0.33648 0.33360 1.39895
 C7 C 1.18942 0.62522 0.88444
 N8 N 1.16508 0.66902 0.90465
 C9 C 1.12016 0.68834 0.88165
 N10 N 1.09976 0.66372 0.83825
 C11 C 1.12415 0.62005 0.81786
 N12 N 1.16905 0.60118 0.84079
 C13 C 0.68489 -0.12539 0.11458
 N14 N 0.66559 -0.10125 0.15867
 C15 C 0.62101 -0.11984 0.18235
 N16 N 0.59607 -0.16326 0.16233
 C17 C 0.61552 -0.18780 0.11845
 N18 N 0.66011 -0.16893 0.09475
 C19 C -0.18786 1.12209 -0.38160
 N20 N -0.16360 1.16665 -0.39994
 C21 C -0.12021 1.18630 -0.37476
 N22 N -0.10150 1.16159 -0.33076
 C23 C -0.12533 1.11684 -0.31245
 N24 N -0.16864 1.09720 -0.33778
 C25 C 0.68651 0.62591 0.61652
 N26 N 0.66256 0.66977 0.59628
 C27 C 0.61774 0.68937 0.61910
 N28 N 0.59705 0.66498 0.66241
 C29 C 0.62114 0.62122 0.68292
 N30 N 0.66609 0.60204 0.66020
 C31 C 0.81328 0.37908 0.12017
 N32 N 0.83300 0.40321 0.16417
 C33 C 0.87591 0.38248 0.18935
 N34 N 0.89892 0.33731 0.17068
 C35 C 0.87966 0.31324 0.12649
 N36 N 0.83660 0.33403 0.10151
 C37 C 0.31087 0.12082 0.88021
 N38 N 0.33524 0.16484 0.89952
 C39 C 0.37882 0.18471 0.87503
 N40 N 0.39769 0.16086 0.83061
 C41 C 0.37376 0.11652 0.81133
 N42 N 0.33022 0.09659 0.83604
 C43 C 0.18864 0.87578 0.38279
 N44 N 0.16391 0.83253 0.40345
 C45 C 0.11882 0.81361 0.38064
 N46 N 0.09870 0.83781 0.33693
 C47 C 0.12341 0.88094 0.31614
 N48 N 0.16845 0.89958 0.33890
 Zn49 Zn 0.01073 1.06548 -0.02950
 Zn50 Zn -0.04154 0.95845 -0.04035
 Zn51 Zn 0.06409 0.96917 0.01370
 Zn52 Zn -0.03250 1.01206 0.06604
 O53 O 0.00003 1.00116 0.00229
 O54 O -0.02124 1.06944 -0.09221
 O55 O -0.00840 0.89736 -0.05918
 O56 O 0.11889 1.00636 -0.01176
 O57 O -0.06060 0.99110 -0.10124
 O58 O 0.07920 1.07858 -0.04293
 O59 O 0.06863 0.90602 -0.01757
 O60 O 0.00462 0.98698 0.12122
 O61 O -0.10251 0.93907 -0.00822
 O62 O 0.07729 0.95652 0.08208
 O63 O -0.09505 0.97986 0.06942
 O64 O -0.04609 1.08060 0.07955
 O65 O -0.01457 1.12074 0.00810
 C66 C -0.04962 1.03727 -0.11850
 C67 C 0.03732 0.87984 -0.04689
 C68 C 0.12063 1.05098 -0.03504
 C69 C 0.04960 0.96438 0.12330
 C70 C -0.12056 0.95070 0.03737
 C71 C -0.03785 1.12235 0.05266
 Zn72 Zn 0.46784 0.01279 0.43310
 Zn73 Zn 0.45862 -0.04063 0.53915
 Zn74 Zn 0.56462 -0.03044 0.48530
 Zn75 Zn 0.51190 0.06578 0.52886
 O76 O 0.50060 0.00174 0.49674
 O77 O 0.40509 -0.01946 0.42942
 O78 O 0.49154 -0.10140 0.55832
 O79 O 0.57741 -0.04347 0.41686
 O80 O 0.39784 -0.06043 0.50689
 O81 O 0.50488 -0.01239 0.37795
 O82 O 0.56877 -0.09342 0.51685
 O83 O 0.58043 0.07872 0.54219
 O84 O 0.43933 -0.00782 0.59982
 O85 O 0.61993 0.00666 0.51041
 O86 O 0.47977 0.07002 0.59149
 O87 O 0.48712 0.12097 0.49141
 O88 O 0.45472 0.08146 0.41988
 C89 C 0.37981 -0.04899 0.46129
 C90 C 0.53721 -0.11917 0.54624
 C91 C 0.54965 -0.03538 0.37574
 C92 C 0.62187 0.05126 0.53384
 C93 C 0.45076 0.03813 0.61737
 C94 C 0.46363 0.12297 0.44701
 Zn95 Zn 0.96942 0.48687 0.56798
 Zn96 Zn 1.01286 0.43365 0.47214
 Zn97 Zn 0.96001 0.54056 0.46176
 Zn98 Zn 1.06582 0.52981 0.51571
 O99 O 1.00185 0.49786 0.50422
 O100 O 0.95610 0.41831 0.58115
 O101 O 0.98087 0.42971 0.40947
 O102 O 0.89898 0.55985 0.49407
 O103 O 0.98775 0.37838 0.50948
 O104 O 0.90670 0.51900 0.57158
 O105 O 0.94107 0.50797 0.40069
 O106 O 1.06997 0.59297 0.48467
 O107 O 1.08135 0.42065 0.45850
 O108 O 0.99284 0.60173 0.44326
 O109 O 1.12083 0.49276 0.48997
 O110 O 1.07894 0.54254 0.58415
 O111 O 1.00640 0.51204 0.62323
 C112 C 0.96439 0.37667 0.55397
 C113 C 0.95229 0.46183 0.38329
 C114 C 0.88104 0.54820 0.53967
 C115 C 1.03848 0.61929 0.45563
 C116 C 1.12269 0.44826 0.46638
 C117 C 1.05121 0.53479 0.62535
 Zn118 Zn 0.51402 0.43459 1.02935
 Zn119 Zn 0.46000 0.54081 1.03996
 Zn120 Zn 0.56538 0.53075 0.98455
 Zn121 Zn 0.46838 0.48701 0.93391
 O122 O 0.50179 0.49842 0.99710
 O123 O 0.48230 0.43036 1.09220
 O124 O 0.49279 0.60177 1.05851
 O125 O 0.62120 0.49417 1.00939
 O126 O 0.44135 0.50805 1.10088
 O127 O 0.58284 0.42220 1.04230
 O128 O 0.56933 0.59391 1.01572
 O129 O 0.50453 0.51188 0.87811
 O130 O 0.39884 0.56054 1.00823
 O131 O 0.57733 0.54347 0.91586
 O132 O 0.40549 0.51922 0.93081
 O133 O 0.45542 0.41832 0.92127
 O134 O 0.48928 0.37911 0.99231
 C135 C 0.45314 0.46210 1.11828
 C136 C 0.53803 0.61975 1.04548
 C137 C 0.62385 0.44996 1.03339
 C138 C 0.54904 0.53511 0.87516
 C139 C 0.38045 0.54896 0.96280
 C140 C 0.46499 0.37695 0.94834
 C141 C 1.20398 0.45723 0.39967
 C142 C 1.25680 0.45071 0.43050
 C143 C 1.26492 0.39640 0.40367
 C144 C 1.21284 0.40267 0.37254
 C145 C 1.23553 0.36811 0.44914
 C146 C 1.22658 0.42276 0.47630
 C147 C 1.17452 0.42900 0.44508
 C148 C 1.18285 0.37468 0.41818
 H149 H 1.19039 0.49410 0.37955
 H150 H 1.28771 0.48179 0.43523
 H151 H 1.20762 0.39435 0.32961
 H152 H 1.24881 0.33124 0.46947
 H153 H 1.23160 0.43114 0.51922
 H154 H 1.15211 0.34345 0.41332
 C155 C 0.29331 0.61328 0.97218
 C156 C 0.28634 0.64143 0.91787
 C157 C 0.23760 0.60642 0.90663
 C158 C 0.24363 0.57866 0.96059
 C159 C 0.27273 0.56407 0.87979
 C160 C 0.32196 0.59885 0.89127
 C161 C 0.32826 0.57092 0.94516
 C162 C 0.27943 0.53604 0.93392
 H163 H 0.30231 0.63329 1.01038
 H164 H 0.28874 0.68499 0.91098
 H165 H 0.21083 0.57050 0.98884
 H166 H 0.26433 0.54374 0.84160
 H167 H 0.35465 0.60706 0.86291
 H168 H 0.27707 0.49248 0.94080
 C169 C -0.22597 0.93357 0.02475
 C170 C -0.23783 0.87474 0.03926
 C171 C -0.26445 0.89377 0.09084
 C172 C -0.25343 0.95214 0.07658
 C173 C -0.21144 0.88981 0.12076
 C174 C -0.18407 0.87114 0.06900
 C175 C -0.17303 0.92955 0.05485
 C176 C -0.19994 0.94837 0.10641
 H177 H -0.23134 0.95176 -0.01499
 H178 H -0.25404 0.84424 0.01185
 H179 H -0.28246 0.98526 0.07996
 H180 H -0.20595 0.87166 0.16050
 H181 H -0.15501 0.83803 0.06569
 H182 H -0.18419 0.97884 0.13413
 C183 C 0.72562 0.07726 0.52256
 C184 C 0.73447 0.13208 0.54942
 C185 C 0.76448 0.10409 0.59469
 C186 C 0.75650 0.04962 0.56817
 C187 C 0.71272 0.09769 0.62634
 C188 C 0.68209 0.12538 0.58091
 C189 C 0.67390 0.07088 0.55433
 C190 C 0.70404 0.04299 0.59954
 H191 H 0.73032 0.06870 0.47963
 H192 H 0.74732 0.16893 0.52887
 H193 H 0.78759 0.01863 0.56321
 H194 H 0.70779 0.10618 0.66928
 H195 H 0.65115 0.15650 0.58599
 H196 H 0.69097 0.00616 0.61996
 C197 C 0.46053 0.20330 0.37583
 C198 C 0.40125 0.21272 0.36217
 C199 C 0.40297 0.26546 0.39301
 C200 C 0.46193 0.25696 0.40636
 C201 C 0.38604 0.23720 0.44437
 C202 C 0.38460 0.18391 0.41376
 C203 C 0.44353 0.17513 0.42718
 C204 C 0.44528 0.22796 0.45799
 H205 H 0.49141 0.18878 0.34791
 H206 H 0.38284 0.20694 0.32259
 H207 H 0.49347 0.28759 0.40311
 H208 H 0.35523 0.25128 0.47263
 H209 H 0.35297 0.15336 0.41695
 H210 H 0.46362 0.23382 0.49758
 C211 C 0.89852 0.29446 0.54618
 C212 C 0.92993 0.24189 0.55318
 C213 C 0.90326 0.23421 0.60745
 C214 C 0.87157 0.28608 0.60067
 C215 C 0.94859 0.26432 0.63524
 C216 C 0.97558 0.27286 0.58062
 C217 C 0.94378 0.32471 0.57385
 C218 C 0.91707 0.31685 0.62816
 H219 H 0.87812 0.30737 0.50933
 H220 H 0.93493 0.21057 0.52251
 H221 H 0.82856 0.29113 0.60902
 H222 H 0.96909 0.25161 0.67210
 H223 H 1.01858 0.26800 0.57220
 H224 H 0.91196 0.34802 0.65896
 C225 C 0.03042 0.79084 -0.10883
 C226 C 0.08530 0.78423 -0.13604
 C227 C 0.09712 0.73637 -0.09987
 C228 C 0.04258 0.74207 -0.07304
 C229 C 0.12279 0.77297 -0.05829
 C230 C 0.11072 0.82131 -0.09422
 C231 C 0.05624 0.82732 -0.06723
 C232 C 0.06805 0.77940 -0.03115
 H233 H -0.00772 0.79871 -0.12946
 H234 H 0.09274 0.78580 -0.17941
 H235 H 0.01487 0.70890 -0.06438
 H236 H 0.16093 0.76558 -0.03743
 H237 H 0.13856 0.85438 -0.10294
 H238 H 0.06062 0.77791 0.01221
 C239 C 0.57060 0.68418 1.12371
 C240 C 0.62246 0.71099 1.10456
 C241 C 0.59270 0.76424 1.10025
 C242 C 0.54102 0.73820 1.11979
 C243 C 0.57803 0.75270 1.04227
 C244 C 0.60766 0.69888 1.04638
 C245 C 0.55600 0.67252 1.06570
 C246 C 0.52608 0.72573 1.06134
 H247 H 0.56734 0.65547 1.15697
 H248 H 0.66236 0.70535 1.12245
 H249 H 0.51375 0.75492 1.15015
 H250 H 0.58133 0.78136 1.00897
 H251 H 0.63513 0.68248 1.01602
 H252 H 0.48618 0.73113 1.04340
 C253 C 0.43578 0.47314 1.22388
 C254 C 0.37692 0.45878 1.23528
 C255 C 0.39542 0.40648 1.26113
 C256 C 0.45384 0.42057 1.25055
 C257 C 0.39166 0.37730 1.20769
 C258 C 0.37348 0.42977 1.18112
 C259 C 0.43193 0.44377 1.17050
 C260 C 0.45025 0.39149 1.19662
 H261 H 0.45412 0.51281 1.22999
 H262 H 0.34654 0.48627 1.25173
 H263 H 0.48672 0.41653 1.27959
 H264 H 0.37335 0.33763 1.20146
 H265 H 0.34061 0.43375 1.15207
 H266 H 0.48061 0.36372 1.18056
 C267 C 0.62342 -0.08247 0.31510
 C268 C 0.59559 -0.12763 0.28414
 C269 C 0.60200 -0.09542 0.23278
 C270 C 0.63009 -0.05040 0.26315
 C271 C 0.54775 -0.06864 0.24128
 C272 C 0.54111 -0.10062 0.29329
 C273 C 0.56915 -0.05566 0.32372
 C274 C 0.57551 -0.02330 0.27244
 H275 H 0.65450 -0.08798 0.34583
 H276 H 0.60395 -0.17080 0.28844
 H277 H 0.66690 -0.02990 0.25028
 H278 H 0.51684 -0.06329 0.21035
 H279 H 0.50430 -0.12107 0.30627
 H280 H 0.56710 0.01987 0.26826
 C281 C -0.12901 1.06907 -0.18228
 C282 C -0.11084 1.12154 -0.20872
 C283 C -0.10620 1.09229 -0.26207
 C284 C -0.12470 1.03998 -0.23636
 C285 C -0.04784 1.07839 -0.25074
 C286 C -0.05231 1.10756 -0.19693
 C287 C -0.07061 1.05528 -0.17093
 C288 C -0.06588 1.02582 -0.22421
 H289 H -0.16221 1.06506 -0.15361
 H290 H -0.12949 1.16117 -0.20279
 H291 H -0.15468 1.01238 -0.25317
 H292 H -0.01461 1.08246 -0.27938
 H293 H -0.02236 1.13547 -0.18057
 H294 H -0.04720 0.98620 -0.23001
 C295 C 1.12515 0.58196 0.68535
 C296 C 1.09756 0.62745 0.71622
 C297 C 1.10433 0.59556 0.76775
 C298 C 1.13216 0.55021 0.73745
 C299 C 1.05001 0.56894 0.75982
 C300 C 1.04301 0.60058 0.70762
 C301 C 1.07082 0.55530 0.67728
 C302 C 1.07753 0.52326 0.72873
 H303 H 1.15605 0.58714 0.65439
 H304 H 1.10589 0.67056 0.71157
 H305 H 1.16907 0.52962 0.75014
 H306 H 1.01930 0.56392 0.79100
 H307 H 1.00612 0.62111 0.69479
 H308 H 1.06915 0.48016 0.73328
 C309 C 0.81779 0.62796 0.57181
 C310 C 0.76412 0.62492 0.54191
 C311 C 0.73725 0.60598 0.59334
 C312 C 0.79020 0.60935 0.62340
 C313 C 0.74800 0.54755 0.57877
 C314 C 0.77569 0.56606 0.52710
 C315 C 0.82858 0.56951 0.55733
 C316 C 0.80147 0.55073 0.60874
 H317 H 0.84702 0.66083 0.56872
 H318 H 0.74816 0.65568 0.51462
 H319 H 0.79568 0.62730 0.66326
 H320 H 0.71879 0.51468 0.58192
 H321 H 0.77031 0.54807 0.48725
 H322 H 0.81703 0.52001 0.63630
 C323 C 0.68415 0.41864 1.11340
 C324 C 0.71365 0.36689 1.09781
 C325 C 0.76603 0.39819 1.09642
 C326 C 0.73707 0.44974 1.11229
 C327 C 0.75827 0.41067 1.03725
 C328 C 0.70503 0.37966 1.03836
 C329 C 0.67609 0.43117 1.05425
 C330 C 0.72852 0.46252 1.05282
 H331 H 0.65316 0.42200 1.14455
 H332 H 0.70795 0.32739 1.11664
 H333 H 0.75044 0.47858 1.14286
 H334 H 0.78934 0.40725 1.00620
 H335 H 0.69133 0.35106 1.00774
 H336 H 0.73423 0.50202 1.03402
 C337 C 0.22438 1.07608 -0.02433
 C338 C 0.25479 1.04834 -0.07024
 C339 C 0.26312 1.10283 -0.09647
 C340 C 0.23355 1.13092 -0.05088
 C341 C 0.21119 1.09709 -0.12794
 C342 C 0.20214 1.04235 -0.10141
 C343 C 0.17248 1.07036 -0.05589
 C344 C 0.18100 1.12486 -0.08218
 H345 H 0.22916 1.06732 0.01854
 H346 H 0.28564 1.01707 -0.06565
 H347 H 0.24680 1.16755 -0.03014
 H348 H 0.20621 1.10578 -0.17080
 H349 H 0.18861 1.00572 -0.12197
 H350 H 0.15030 1.15626 -0.08688
 C351 C 0.27901 -0.03550 0.43193
 C352 C 0.27228 -0.06380 0.37791
 C353 C 0.23692 -0.10569 0.40487
 C354 C 0.24297 -0.07764 0.45872
 C355 C 0.28548 -0.14104 0.41635
 C356 C 0.32135 -0.09891 0.38964
 C357 C 0.32766 -0.07071 0.44342
 C358 C 0.29246 -0.11260 0.47056
 H359 H 0.27683 0.00812 0.43861
 H360 H 0.26402 -0.04364 0.33962
 H361 H 0.21016 -0.06903 0.48687
 H362 H 0.28770 -0.18466 0.40966
 H363 H 0.35407 -0.10757 0.36138
 H364 H 0.30131 -0.13245 0.50885
 C365 C 0.56707 -0.21987 0.53126
 C366 C 0.62155 -0.22663 0.55877
 C367 C 0.59519 -0.26258 0.60043
 C368 C 0.54092 -0.25656 0.57322
 C369 C 0.58370 -0.21433 0.63624
 C370 C 0.60979 -0.17788 0.59434
 C371 C 0.55558 -0.17156 0.56697
 C372 C 0.52907 -0.20739 0.60864
 H373 H 0.55990 -0.22160 0.48786
 H374 H 0.65973 -0.23459 0.53819
 H375 H 0.51292 -0.28953 0.56464
 H376 H 0.59086 -0.21252 0.67964
 H377 H 0.63791 -0.14502 0.60298
 H378 H 0.49088 -0.19890 0.62896
 C379 C 1.10901 0.69773 0.45427
 C380 C 1.12351 0.70963 0.39600
 C381 C 1.09453 0.76333 0.40056
 C382 C 1.08014 0.75194 0.45864
 C383 C 1.04236 0.73781 0.38150
 C384 C 1.07118 0.68344 0.37726
 C385 C 1.05685 0.67198 0.43536
 C386 C 1.02769 0.72560 0.44002
 H387 H 1.13654 0.68105 0.48438
 H388 H 1.16320 0.70351 0.37780
 H389 H 1.08410 0.78059 0.49192
 H390 H 1.01510 0.75488 0.35137
 H391 H 1.06729 0.65480 0.34396
 H392 H 0.98800 0.73159 0.45826
 C393 C -0.02575 1.22566 0.08052
 C394 C -0.07112 1.25762 0.05362
 C395 C -0.09755 1.26509 0.10806
 C396 C -0.05249 1.23398 0.13532
 C397 C -0.12984 1.21378 0.10068
 C398 C -0.10312 1.20561 0.04599
 C399 C -0.05812 1.17437 0.07313
 C400 C -0.08460 1.18202 0.12762
 H401 H 0.01728 1.22999 0.07204
 H402 H -0.06584 1.28922 0.02335
 H403 H -0.03175 1.24594 0.17229
 H404 H -0.17288 1.20928 0.10909
 H405 H -0.12375 1.19344 0.00903
 H406 H -0.08999 1.15057 0.15802
 C407 C 0.44649 0.27196 0.95964
 C408 C 0.38713 0.26310 0.94640
 C409 C 0.40356 0.23474 0.89487
 C410 C 0.46265 0.24291 0.90782
 C411 C 0.40181 0.28756 0.86423
 C412 C 0.38560 0.31641 0.91596
 C413 C 0.44467 0.32480 0.92894
 C414 C 0.46118 0.29655 0.87742
 H415 H 0.46513 0.26597 0.99907
 H416 H 0.35645 0.24904 0.97471
 H417 H 0.49404 0.21204 0.90424
 H418 H 0.38311 0.29344 0.82480
 H419 H 0.35408 0.34717 0.91946
 H420 H 0.49190 0.31087 0.84930
 C421 C 0.53613 0.55441 0.77071
 C422 C 0.54984 0.61380 0.76182
 C423 C 0.60087 0.59683 0.73284
 C424 C 0.58746 0.53773 0.74101
 C425 C 0.63232 0.59798 0.78507
 C426 C 0.58110 0.61471 0.81457
 C427 C 0.56768 0.55563 0.82294
 C428 C 0.61868 0.53862 0.79402
 H429 H 0.49638 0.53619 0.76523
 H430 H 0.52162 0.64492 0.74825
 H431 H 0.59026 0.50636 0.71011
 H432 H 0.67206 0.61625 0.79048
 H433 H 0.57839 0.64620 0.84536
 H434 H 0.64678 0.50747 0.80779
 C435 C 0.43352 0.02617 0.72268
 C436 C 0.45165 0.07838 0.74991
 C437 C 0.39326 0.09255 0.76082
 C438 C 0.37469 0.04059 0.73440
 C439 C 0.38933 0.12231 0.70776
 C440 C 0.44790 0.10805 0.69636
 C441 C 0.42951 0.05612 0.66968
 C442 C 0.37109 0.07019 0.68060
 H443 H 0.45190 -0.01362 0.72823
 H444 H 0.48460 0.08198 0.77892
 H445 H 0.34437 0.01305 0.75063
 H446 H 0.37098 0.16211 0.70209
 H447 H 0.47819 0.13587 0.68055
 H448 H 0.33816 0.06664 0.65157
 C449 C 0.12398 0.91771 0.18329
 C450 C 0.13117 0.95002 0.23507
 C451 C 0.10359 0.90505 0.26590
 C452 C 0.09665 0.87261 0.21469
 C453 C 0.04916 0.93165 0.25799
 C454 C 0.07642 0.97694 0.22638
 C455 C 0.06953 0.94434 0.17525
 C456 C 0.04199 0.89944 0.20613
 H457 H 0.15473 0.91215 0.15222
 H458 H 0.16809 0.97068 0.24743
 H459 H 0.10508 0.82944 0.21038
 H460 H 0.01860 0.93705 0.28927
 H461 H 0.06794 1.02010 0.23057
 H462 H 0.00509 0.87882 0.19365
 C463 C 0.93619 0.47290 0.27751
 C464 C 0.95395 0.42006 0.25108
 C465 C 0.89552 0.40664 0.23978
 C466 C 0.87731 0.45923 0.26540
 C467 C 0.89070 0.37765 0.29319
 C468 C 0.94931 0.39116 0.30497
 C469 C 0.93129 0.44373 0.33086
 C470 C 0.87283 0.43040 0.31952
 H471 H 0.95506 0.51234 0.27161
 H472 H 0.98716 0.41555 0.22246
 H473 H 0.84748 0.48705 0.24854
 H474 H 0.87186 0.33821 0.29921
 H475 H 0.97912 0.36304 0.32140
 H476 H 0.83963 0.43484 0.34816
   
