data_POSCAR
  _audit_creation_date              2014-09-24
  _audit_creation_method            'ToBaCCo'
  _symmetry_space_group_name_H-M    'P1'
  _symmetry_Int_Tables_number       1
  _symmetry_cell_setting            triclinic
  loop_
  _symmetry_equiv_pos_as_xyz
 x,y,z
_cell_length_a 44.9879
_cell_length_b 44.7749
_cell_length_c 44.9329
_cell_angle_alpha 88.043800
_cell_angle_beta 87.366700
_cell_angle_gamma 88.147000
loop_
  _atom_site_label
  _atom_site_type_symbol
  _atom_site_fract_x
  _atom_site_fract_y
  _atom_site_fract_z
C1 C 0.79198 0.64490 1.00477
 C2 C 0.80540 0.62325 0.98180
 C3 C 0.78559 0.60412 0.97164
 C4 C 0.75406 0.60801 0.98575
 C5 C 0.76536 0.66052 0.98967
 C6 C 0.74564 0.64115 0.97936
 C7 C 0.77769 0.62469 1.02926
 C8 C 0.75778 0.60551 1.01960
 H9 H 0.82784 0.62507 0.97224
 H10 H 0.73837 0.59179 0.97781
 H11 H 0.76292 0.68456 0.98664
 H12 H 0.78164 0.62660 1.05270
 C13 C 0.78679 0.36190 0.48277
 C14 C 0.79061 0.38427 0.50704
 C15 C 0.76581 0.40098 0.51393
 C16 C 0.73889 0.39385 0.49596
 C17 C 0.76024 0.34322 0.49418
 C18 C 0.73488 0.35986 0.50087
 C19 C 0.77494 0.38050 0.45646
 C20 C 0.74982 0.39724 0.46302
 H21 H 0.81123 0.38629 0.51827
 H22 H 0.71933 0.40812 0.50224
 H23 H 0.76114 0.31903 0.49567
 H24 H 0.78492 0.37916 0.43411
 C25 C 0.28687 -0.16043 -0.02081
 C26 C 0.29412 -0.14306 0.00449
 C27 C 0.26964 -0.12545 0.01688
 C28 C 0.24210 -0.12870 0.00083
 C29 C 0.26190 -0.17825 -0.00994
 C30 C 0.23686 -0.16100 0.00201
 C31 C 0.27479 -0.13867 -0.04204
 C32 C 0.24975 -0.12126 -0.03073
 H33 H 0.31581 -0.14409 0.01404
 H34 H 0.22312 -0.11541 0.01016
 H35 H 0.26236 -0.20228 -0.01163
 H36 H 0.28346 -0.13657 -0.06492
 C37 C 0.28668 0.14050 0.50115
 C38 C 0.29206 0.11620 0.47827
 C39 C 0.26721 0.10166 0.47179
 C40 C 0.23905 0.11190 0.49001
 C41 C 0.26153 0.16062 0.48898
 C42 C 0.23639 0.14584 0.48323
 C43 C 0.27247 0.12409 0.52838
 C44 C 0.24751 0.10915 0.52300
 H45 H 0.31330 0.11256 0.46638
 H46 H 0.21914 0.09942 0.48494
 H47 H 0.26419 0.18431 0.48475
 H48 H 0.28122 0.12477 0.55038
 C49 C 0.14681 0.51391 0.28692
 C50 C 0.12629 0.48846 0.29648
 C51 C 0.10872 0.47980 0.27475
 C52 C 0.11252 0.49819 0.24533
 C53 C 0.16400 0.50300 0.25868
 C54 C 0.14603 0.49494 0.23672
 C55 C 0.12578 0.53896 0.27551
 C56 C 0.10783 0.53114 0.25375
 H57 H 0.12733 0.47677 0.31795
 H58 H 0.09746 0.49092 0.22841
 H59 H 0.18806 0.50198 0.25631
 H60 H 0.12636 0.56171 0.28281
 C61 C -0.15506 -0.01037 0.28982
 C62 C -0.13778 0.01779 0.29526
 C63 C -0.12159 0.02787 0.27083
 C64 C -0.12461 0.00920 0.24303
 C65 C -0.17422 -0.00138 0.26341
 C66 C -0.15839 0.00925 0.23891
 C67 C -0.13275 -0.03169 0.27840
 C68 C -0.11642 -0.02150 0.25215
 H69 H -0.13798 0.02864 0.31645
 H70 H -0.11171 0.01863 0.22354
 H71 H -0.19818 -0.00311 0.26447
 H72 H -0.13016 -0.05418 0.28783
 C73 C 0.36025 0.46928 0.77835
 C74 C 0.38120 0.49392 0.78582
 C75 C 0.39926 0.50331 0.76261
 C76 C 0.39512 0.48689 0.73365
 C77 C 0.34356 0.48207 0.75147
 C78 C 0.36163 0.49119 0.72780
 C79 C 0.38089 0.44453 0.76580
 C80 C 0.39904 0.45336 0.74228
 H81 H 0.38091 0.50416 0.80733
 H82 H 0.41075 0.49467 0.71558
 H83 H 0.31949 0.48341 0.75127
 H84 H 0.38023 0.42160 0.77426
 C85 C 0.63411 1.00527 0.80639
 C86 C 0.61510 0.97754 0.80945
 C87 C 0.59978 0.97243 0.78479
 C88 C 0.60485 0.99580 0.75923
 C89 C 0.65426 0.99983 0.77833
 C90 C 0.63891 0.99433 0.75363
 C91 C 0.61401 1.02964 0.79808
 C92 C 0.59803 1.02501 0.77194
 H93 H 0.61623 0.96167 0.82815
 H94 H 0.59224 0.99121 0.73927
 H95 H 0.67829 0.99846 0.77860
 H96 H 0.61467 1.05101 0.80852
 C97 C -0.01650 0.30453 -0.15644
 C98 C 0.01010 0.30988 -0.13772
 C99 C 0.01984 0.28558 -0.12162
 C100 C 0.00188 0.25747 -0.12603
 C101 C -0.00635 0.27830 -0.17596
 C102 C 0.00349 0.25354 -0.16011
 C103 C -0.04005 0.29156 -0.13461
 C104 C -0.03093 0.26679 -0.11869
 H105 H 0.02060 0.33133 -0.13769
 H106 H 0.01024 0.23765 -0.11328
 H107 H -0.00739 0.27941 -0.19995
 H108 H -0.06271 0.30055 -0.13331
 C109 C 0.49795 0.28174 0.14307
 C110 C 0.47138 0.28332 0.12307
 C111 C 0.46599 0.25720 0.11022
 C112 C 0.48761 0.23137 0.11865
 C113 C 0.49076 0.25630 0.16585
 C114 C 0.48492 0.22991 0.15304
 C115 C 0.52394 0.26941 0.12371
 C116 C 0.51907 0.24300 0.11100
 H117 H 0.45659 0.30282 0.12121
 H118 H 0.48245 0.21029 0.10803
 H119 H 0.48921 0.25939 0.18964
 H120 H 0.54515 0.28027 0.12168
 C121 C 1.01320 0.79810 0.64563
 C122 C 0.98816 0.80956 0.62886
 C123 C 0.97843 0.78970 0.60732
 C124 C 0.99653 0.76181 0.60622
 C125 C 1.00346 0.76942 0.65852
 C126 C 0.99419 0.74901 0.63681
 C127 C 1.03630 0.79084 0.62310
 C128 C 1.02784 0.77002 0.60173
 H129 H 0.97584 0.83006 0.63402
 H130 H 0.98908 0.74745 0.58906
 H131 H 1.00250 0.76428 0.68228
 H132 H 1.05895 0.79818 0.62427
 C133 C 0.48851 0.77630 0.36380
 C134 C 0.51563 0.78502 0.38062
 C135 C 0.52620 0.76294 0.39917
 C136 C 0.50898 0.73383 0.39902
 C137 C 0.49895 0.74794 0.34771
 C138 C 0.50974 0.72551 0.36593
 C139 C 0.46595 0.76567 0.38817
 C140 C 0.47633 0.74309 0.40621
 H141 H 0.52558 0.80672 0.37823
 H142 H 0.51778 0.71647 0.41466
 H143 H 0.49797 0.74607 0.32381
 H144 H 0.44282 0.77328 0.38902
 C145 C 0.41188 -0.02928 0.27158
 H146 H 0.41156 -0.00670 0.27945
 C147 C 0.43098 -0.05101 0.28390
 H148 H 0.44500 -0.04475 0.30143
 C149 C 0.39183 -0.06491 0.24089
 H150 H 0.37598 -0.07033 0.22468
 C151 C 0.41056 -0.08740 0.25266
 H152 H 0.40914 -0.10999 0.24509
 N153 N 0.39244 -0.03664 0.25092
 C154 C 0.37442 0.05659 0.23265
 H155 H 0.35266 0.06028 0.24304
 C156 C 0.39079 0.08129 0.22260
 H157 H 0.38122 0.10359 0.22527
 C158 C 0.41332 0.02359 0.21591
 H159 H 0.42218 0.00106 0.21332
 C160 C 0.43027 0.04756 0.20531
 H161 H 0.45210 0.04311 0.19497
 Zn162 Zn 0.36388 -0.00687 0.23948
 N163 N 0.38562 0.02829 0.22876
 C164 C 0.31663 0.02195 0.27541
 N165 N 0.33692 -0.00125 0.27340
 C166 C 0.34139 -0.02004 0.29736
 C167 C 0.32887 -0.01341 0.32535
 C168 C 0.30375 0.02966 0.30329
 C169 C 0.36306 -0.02084 0.18023
 C170 C 0.35365 -0.03365 0.15470
 C171 C 0.30657 -0.04369 0.18043
 C172 C 0.31694 -0.03039 0.20576
 N173 N 0.34509 -0.01996 0.20534
 H174 H 0.31170 0.03554 0.25583
 H175 H 0.35598 -0.03952 0.29533
 H176 H 0.33419 -0.02786 0.34431
 H177 H 0.28970 0.04968 0.30502
 H178 H 0.38530 -0.01262 0.18025
 H179 H 0.36874 -0.03453 0.13523
 H180 H 0.28469 -0.05317 0.18134
 H181 H 0.30307 -0.02964 0.22605
 C182 C 0.41880 0.07687 0.20809
 C183 C 0.43016 -0.08070 0.27483
 C184 C 0.32553 -0.04629 0.15484
 C185 C 0.31142 0.01283 0.32893
 C186 C 0.08230 1.04199 0.79978
 H187 H 0.07998 1.02033 0.81069
 C188 C 0.06666 1.06667 0.81161
 H189 H 0.05241 1.06331 0.83140
 C190 C 0.10232 1.07213 0.76000
 H191 H 0.11590 1.07431 0.73967
 C192 C 0.08718 1.09739 0.77108
 H193 H 0.08982 1.11869 0.75926
 N194 N 0.10032 1.04517 0.77478
 C195 C 0.11328 0.95442 0.74296
 H196 H 0.13717 0.95187 0.74449
 C197 C 0.09709 0.93098 0.73297
 H198 H 0.10881 0.91050 0.72664
 C199 C 0.06941 0.98483 0.74841
 H200 H 0.05882 1.00598 0.75422
 C201 C 0.05230 0.96191 0.73857
 H202 H 0.02850 0.96565 0.73752
 Zn203 Zn 0.12386 1.01185 0.76057
 N204 N 0.09939 0.98085 0.74987
 C205 C 0.13426 0.98192 0.81533
 N206 N 0.14817 0.99586 0.79141
 C207 C 0.17839 0.99676 0.78902
 C208 C 0.19570 0.98370 0.81130
 C209 C 0.15069 0.96862 0.83815
 C210 C 0.16814 1.04553 0.72868
 C211 C 0.18479 1.05592 0.70367
 C212 C 0.15808 1.02342 0.67330
 C213 C 0.14207 1.01344 0.69898
 N214 N 0.14741 1.02442 0.72607
 H215 H 0.11037 0.98014 0.81629
 H216 H 0.18932 1.00711 0.76964
 H217 H 0.21966 0.98503 0.80892
 H218 H 0.13913 0.95718 0.85666
 H219 H 0.17137 1.05472 0.75021
 H220 H 0.20074 1.07310 0.70635
 H221 H 0.15350 1.01442 0.65198
 H222 H 0.12504 0.99724 0.69707
 C223 C 0.06626 0.93475 0.72994
 C224 C 0.06956 1.09508 0.79763
 C225 C 0.17999 1.04473 0.67548
 C226 C 0.18187 0.96903 0.83616
 C227 C 0.57744 0.53363 0.27849
 H228 H 0.57290 0.51230 0.28936
 C229 C 0.56353 0.55957 0.28959
 H230 H 0.54805 0.55793 0.30871
 C231 C 0.60417 0.56211 0.24148
 H232 H 0.62093 0.56339 0.22359
 C233 C 0.59044 0.58848 0.25150
 H234 H 0.59671 0.60959 0.24094
 N235 N 0.59740 0.53529 0.25484
 C236 C 0.59153 0.46082 0.20392
 H237 H 0.60516 0.47140 0.18656
 C238 C 0.57475 0.43666 0.19696
 H239 H 0.57565 0.42945 0.17416
 C240 C 0.57548 0.45594 0.25471
 H241 H 0.57669 0.46288 0.27740
 C242 C 0.55841 0.43144 0.24874
 H243 H 0.54584 0.42055 0.26687
 Zn244 Zn 0.61826 0.50009 0.24188
 N245 N 0.59170 0.47005 0.23241
 C246 C 0.65335 0.45621 0.27001
 N247 N 0.64143 0.48428 0.27296
 C248 C 0.64555 0.50018 0.29762
 C249 C 0.66239 0.48784 0.32059
 C250 C 0.67043 0.44308 0.29233
 C251 C 0.63171 0.52265 0.18325
 C252 C 0.65003 0.53144 0.15880
 C253 C 0.69260 0.51255 0.18524
 C254 C 0.67349 0.50431 0.20924
 N255 N 0.64364 0.50971 0.20802
 H256 H 0.64945 0.44400 0.25027
 H257 H 0.63592 0.52251 0.29944
 H258 H 0.66557 0.50081 0.34003
 H259 H 0.67919 0.42050 0.28970
 H260 H 0.60790 0.52682 0.18280
 H261 H 0.64009 0.54248 0.13971
 H262 H 0.71620 0.50773 0.18682
 H263 H 0.68266 0.49397 0.22899
 C264 C 0.55827 0.42123 0.21952
 C265 C 0.56993 0.58740 0.27594
 C266 C 0.68101 0.52699 0.15980
 C267 C 0.67529 0.45903 0.31799
 C268 C 0.90811 0.49209 0.75111
 H269 H 0.90939 0.51268 0.76283
 C270 C 0.92552 0.46719 0.75951
 H271 H 0.94030 0.46885 0.77770
 C272 C 0.88626 0.46468 0.71406
 H273 H 0.87075 0.46366 0.69654
 C274 C 0.90341 0.43919 0.72165
 H275 H 0.90028 0.41871 0.71024
 N276 N 0.88798 0.49003 0.72969
 C277 C 0.88141 0.58102 0.73699
 H278 H 0.86550 0.58021 0.75569
 C279 C 0.89831 0.60646 0.73186
 H280 H 0.89439 0.62519 0.74627
 C281 C 0.90541 0.55784 0.69541
 H282 H 0.90810 0.53868 0.68138
 C283 C 0.92266 0.58287 0.68936
 H284 H 0.93854 0.58284 0.67050
 Zn285 Zn 0.86132 0.52326 0.72452
 N286 N 0.88472 0.55764 0.71843
 C287 C 0.84094 0.50883 0.78358
 N288 N 0.83623 0.52714 0.75934
 C289 C 0.81517 0.54962 0.76035
 C290 C 0.79985 0.55612 0.78725
 C291 C 0.82645 0.51472 0.81091
 C292 C 0.84083 0.53581 0.66655
 C293 C 0.82775 0.52845 0.64034
 C294 C 0.80552 0.48625 0.66670
 C295 C 0.81913 0.49439 0.69243
 N296 N 0.83765 0.51786 0.69144
 H297 H 0.85687 0.49036 0.78221
 H298 H 0.81160 0.56364 0.74066
 H299 H 0.78468 0.57536 0.78811
 H300 H 0.83173 0.50096 0.83037
 H301 H 0.85463 0.55508 0.66648
 H302 H 0.83175 0.54216 0.62032
 H303 H 0.79263 0.46621 0.66730
 H304 H 0.81652 0.48082 0.71271
 C305 C 0.91907 0.60775 0.70755
 C306 C 0.92263 0.44003 0.74535
 C307 C 0.81105 0.50253 0.63988
 C308 C 0.80633 0.53916 0.81316
 C309 C 0.26658 0.41283 -0.01656
 H310 H 0.26214 0.42347 0.00448
 C311 C 0.27927 0.42910 -0.04080
 H312 H 0.28429 0.45227 -0.03801
 C313 C 0.26398 0.37019 -0.04600
 H314 H 0.25775 0.34721 -0.04784
 C315 C 0.27656 0.38554 -0.07072
 H316 H 0.28024 0.37400 -0.09142
 N317 N 0.25962 0.38378 -0.01950
 C318 C 0.20336 0.38724 0.05592
 H319 H 0.18565 0.37796 0.04411
 C320 C 0.19641 0.40284 0.08181
 H321 H 0.17331 0.40556 0.08939
 C322 C 0.25484 0.39393 0.06118
 H323 H 0.27760 0.39013 0.05302
 C324 C 0.24889 0.40944 0.08744
 H325 H 0.26723 0.41796 0.09903
 Zn326 Zn 0.24151 0.36033 0.01173
 N327 N 0.23218 0.38325 0.04597
 C328 C 0.26018 0.31092 0.04717
 N329 N 0.26798 0.32876 0.02317
 C330 C 0.29583 0.32703 0.01012
 C331 C 0.31763 0.30808 0.02224
 C332 C 0.28142 0.29175 0.06019
 C333 C 0.18861 0.36844 -0.01545
 C334 C 0.16429 0.36150 -0.03158
 C335 C 0.17647 0.30899 -0.02324
 C336 C 0.20081 0.31701 -0.00712
 N337 N 0.20653 0.34638 -0.00397
 H338 H 0.23792 0.31289 0.05724
 H339 H 0.30186 0.34170 -0.00859
 H340 H 0.34009 0.30846 0.01250
 H341 H 0.27508 0.27863 0.08000
 H342 H 0.19391 0.39158 -0.01286
 H343 H 0.15055 0.37953 -0.04074
 H344 H 0.17260 0.28562 -0.02655
 H345 H 0.21571 0.29987 0.00180
 C346 C 0.21928 0.41397 0.09813
 C347 C 0.28474 0.41533 -0.06833
 C348 C 0.15848 0.33149 -0.03646
 C349 C 0.31095 0.29116 0.04841
 C350 C 0.79246 0.08615 1.03096
 H351 H 0.79897 0.08062 1.00828
 C352 C 0.80501 0.07022 1.05478
 H353 H 0.82084 0.05206 1.05021
 C354 C 0.76355 0.11647 1.06428
 H355 H 0.74782 0.13490 1.06783
 C356 C 0.77534 0.10104 1.08869
 H357 H 0.76835 0.10766 1.11095
 N358 N 0.77222 0.10880 1.03613
 C359 C 0.72801 0.08198 0.98024
 H360 H 0.71818 0.07952 1.00247
 C361 C 0.71931 0.06341 0.95810
 H362 H 0.70234 0.04724 0.96349
 C363 C 0.76226 0.10556 0.94626
 H364 H 0.77921 0.12176 0.94162
 C365 C 0.75430 0.08744 0.92348
 H366 H 0.76458 0.09096 0.90146
 Zn367 Zn 0.75696 0.13065 1.00343
 N368 N 0.74833 0.10336 0.97374
 C369 C 0.81355 0.15715 0.99999
 N370 N 0.78636 0.15733 0.98784
 C371 C 0.78022 0.17540 0.96380
 C372 C 0.80182 0.19409 0.95097
 C373 C 0.83597 0.17524 0.98758
 C374 C 0.69892 0.13692 1.03044
 C375 C 0.67283 0.15187 1.04059
 C376 C 0.69305 0.19813 1.02104
 C377 C 0.71884 0.18234 1.01153
 N378 N 0.72136 0.15219 1.01612
 H379 H 0.81811 0.14268 1.01906
 H380 H 0.75864 0.17480 0.95419
 H381 H 0.79661 0.20769 0.93141
 H382 H 0.85758 0.17458 0.99729
 H383 H 0.70155 0.11320 1.03497
 H384 H 0.65562 0.13924 1.05243
 H385 H 0.69166 0.22196 1.01636
 H386 H 0.73688 0.19444 1.00074
 C387 C 0.73204 0.06643 0.92909
 C388 C 0.79656 0.07776 1.08413
 C389 C 0.66968 0.18298 1.03623
 C390 C 0.83017 0.19407 0.96282
 C391 C 0.27868 0.57552 0.54178
 H392 H 0.29038 0.57288 0.52041
 C393 C 0.28760 0.55842 0.56664
 H394 H 0.30595 0.54232 0.56409
 C395 C 0.24182 0.60107 0.57140
 H396 H 0.22496 0.61866 0.57358
 C397 C 0.24986 0.58435 0.59675
 H398 H 0.23880 0.58940 0.61795
 N399 N 0.25641 0.59662 0.54465
 C400 C 0.23379 0.62491 0.45440
 H401 H 0.23798 0.64833 0.45690
 C402 C 0.22317 0.61541 0.42786
 H403 H 0.21974 0.63173 0.40992
 C404 C 0.23356 0.57550 0.47505
 H405 H 0.23729 0.56023 0.49377
 C406 C 0.22265 0.56495 0.44868
 H407 H 0.21790 0.54150 0.44727
 Zn408 Zn 0.25008 0.62378 0.51206
 N409 N 0.23851 0.60515 0.47742
 C410 C 0.30251 0.63680 0.47788
 N411 N 0.28652 0.64309 0.50345
 C412 C 0.29660 0.66241 0.52317
 C413 C 0.32249 0.67815 0.51628
 C414 C 0.32890 0.65137 0.47053
 C415 C 0.19151 0.64119 0.52891
 C416 C 0.16766 0.66056 0.53673
 C417 C 0.20014 0.70215 0.52814
 C418 C 0.22334 0.68199 0.52043
 N419 N 0.21892 0.65205 0.52181
 H420 H 0.29479 0.62053 0.46304
 H421 H 0.28401 0.66625 0.54385
 H422 H 0.32975 0.69425 0.53164
 H423 H 0.34100 0.64663 0.44974
 H424 H 0.18834 0.61734 0.52901
 H425 H 0.14626 0.65135 0.54319
 H426 H 0.20425 0.72585 0.52689
 H427 H 0.24474 0.69044 0.51314
 C428 C 0.21662 0.58523 0.42496
 C429 C 0.27339 0.56299 0.59470
 C430 C 0.17197 0.69146 0.53708
 C431 C 0.33871 0.67287 0.48946
 C432 C 0.76184 0.92584 0.49369
 H433 H 0.77042 0.92772 0.51550
 C434 C 0.77325 0.94386 0.47024
 H435 H 0.79096 0.95868 0.47451
 C436 C 0.72954 0.90328 0.46159
 H437 H 0.71234 0.88766 0.45823
 C438 C 0.74033 0.92086 0.43747
 H439 H 0.73152 0.91819 0.41572
 N440 N 0.74121 0.90520 0.48884
 C441 C 0.70751 0.88374 0.57822
 H442 H 0.71715 0.86147 0.58137
 C443 C 0.69474 0.89875 0.60252
 H444 H 0.69438 0.88782 0.62441
 C445 C 0.69725 0.92546 0.54595
 H446 H 0.69886 0.93589 0.52389
 C447 C 0.68370 0.94111 0.56960
 H448 H 0.67507 0.96368 0.56565
 Zn449 Zn 0.73072 0.87729 0.52019
 N450 N 0.70904 0.89744 0.55077
 C451 C 0.77966 0.88024 0.55435
 N452 N 0.76632 0.86134 0.53651
 C453 C 0.77858 0.83377 0.53094
 C454 C 0.80574 0.82473 0.54314
 C455 C 0.80675 0.87242 0.56648
 C456 C 0.67875 0.84431 0.51630
 C457 C 0.65882 0.82739 0.50155
 C458 C 0.69818 0.81543 0.46510
 C459 C 0.71752 0.83212 0.48086
 N460 N 0.70718 0.84727 0.50516
 H461 H 0.76924 0.90173 0.55915
 H462 H 0.76755 0.81888 0.51692
 H463 H 0.81528 0.80278 0.53847
 H464 H 0.81706 0.88890 0.57928
 H465 H 0.67092 0.85656 0.53558
 H466 H 0.63581 0.82675 0.50971
 H467 H 0.70626 0.80501 0.44477
 H468 H 0.74015 0.83499 0.47231
 C469 C 0.68286 0.92786 0.59838
 C470 C 0.76304 0.94094 0.44145
 C471 C 0.66814 0.81393 0.47485
 C472 C 0.82022 0.84419 0.56128
 C473 C -0.02457 0.26273 0.41843
 H474 H -0.00364 0.27376 0.41971
 C475 C -0.04885 0.27114 0.43709
 H476 H -0.04647 0.28870 0.45273
 C477 C -0.05371 0.22800 0.39509
 H478 H -0.05568 0.21128 0.37862
 C479 C -0.07843 0.23534 0.41363
 H480 H -0.09933 0.22482 0.41045
 N481 N -0.02801 0.24302 0.39657
 C482 C 0.06279 0.23639 0.38401
 H483 H 0.06446 0.25838 0.37360
 C484 C 0.08762 0.22318 0.39733
 H485 H 0.10825 0.23505 0.39646
 C486 C 0.03386 0.19469 0.39862
 H487 H 0.01263 0.18395 0.39938
 C488 C 0.05816 0.18060 0.41214
 H489 H 0.05518 0.15914 0.42349
 Zn490 Zn 0.00268 0.23912 0.36622
 N491 N 0.03672 0.22179 0.38434
 C492 C 0.03384 0.28030 0.32773
 N493 N 0.01094 0.27747 0.34842
 C494 C -0.00561 0.30183 0.35729
 C495 C 0.00259 0.33050 0.34790
 C496 C 0.04268 0.30869 0.31748
 C497 C 0.00118 0.18651 0.33224
 C498 C -0.01422 0.16590 0.31664
 C499 C -0.05229 0.20405 0.30772
 C500 C -0.03602 0.22398 0.32315
 N501 N -0.01088 0.21435 0.33668
 H502 H 0.04617 0.26058 0.32030
 H503 H -0.02491 0.29927 0.37216
 H504 H -0.01023 0.34963 0.35612
 H505 H 0.06195 0.31069 0.30227
 H506 H 0.02162 0.17953 0.34248
 H507 H -0.00558 0.14310 0.31531
 H508 H -0.07345 0.21142 0.29903
 H509 H -0.04487 0.24639 0.32674
 C510 C 0.08567 0.19470 0.41126
 C511 C -0.07652 0.25824 0.43393
 C512 C -0.04216 0.17417 0.30579
 C513 C 0.02768 0.33422 0.32861
 C514 C 1.02872 0.79591 0.08420
 H515 H 1.00664 0.80595 0.08250
 C516 C 1.05279 0.80827 0.06782
 H517 H 1.04891 0.82744 0.05302
 C518 C 1.06067 0.75927 0.10634
 H519 H 1.06400 0.74104 0.12228
 C520 C 1.08520 0.77062 0.09016
 H521 H 1.10704 0.76052 0.09354
 N522 N 1.03311 0.77207 0.10325
 C523 C 0.94451 0.74103 0.12767
 H524 H 0.94564 0.74455 0.15129
 C525 C 0.91917 0.72925 0.11675
 H526 H 0.90066 0.72442 0.13221
 C527 C 0.96755 0.74372 0.07918
 H528 H 0.98675 0.74905 0.06485
 C529 C 0.94253 0.73150 0.06724
 H530 H 0.94263 0.72740 0.04362
 Zn531 Zn 1.00104 0.76029 0.12925
 N532 N 0.96812 0.74775 0.10902
 C533 C 0.96442 0.81014 0.14331
 N534 N 0.98913 0.79416 0.15150
 C535 C 1.00571 0.80307 0.17400
 C536 C 0.99616 0.82753 0.19087
 C537 C 0.95464 0.83523 0.15891
 C538 C 1.02259 0.70190 0.14025
 C539 C 1.03212 0.67670 0.15681
 C540 C 1.01853 0.70273 0.20183
 C541 C 1.00934 0.72746 0.18439
 N542 N 1.01248 0.72702 0.15416
 H543 H 0.95227 0.80348 0.12456
 H544 H 1.02602 0.79082 0.17923
 H545 H 1.00888 0.83385 0.20942
 H546 H 0.93461 0.84741 0.15250
 H547 H 1.02386 0.70171 0.11615
 H548 H 1.04110 0.65737 0.14522
 H549 H 1.01577 0.70371 0.22582
 H550 H 0.99948 0.74679 0.19514
 C551 C 0.91824 0.72338 0.08632
 C552 C 1.08159 0.79585 0.07112
 C553 C 1.03089 0.67714 0.18807
 C554 C 0.97019 0.84368 0.18339
 C555 C 0.54504 0.26867 0.56609
 H556 H 0.52399 0.28005 0.56190
 C557 C 0.57117 0.27841 0.55127
 H558 H 0.56995 0.29727 0.53558
 C559 C 0.57226 0.23094 0.59229
 H560 H 0.57281 0.21277 0.60868
 C561 C 0.59884 0.23988 0.57802
 H562 H 0.61934 0.22857 0.58424
 N563 N 0.54617 0.24591 0.58686
 C564 C 0.45196 0.24545 0.59781
 H565 H 0.45150 0.26061 0.61596
 C566 C 0.42518 0.23779 0.58622
 H567 H 0.40447 0.24721 0.59557
 C568 C 0.47905 0.21377 0.56443
 H569 H 0.50012 0.20377 0.55675
 C570 C 0.45263 0.20563 0.55194
 H571 H 0.45344 0.18931 0.53465
 Zn572 Zn 0.51185 0.23652 0.61116
 N573 N 0.47807 0.23226 0.58792
 C574 C 0.48592 0.26064 0.66348
 N575 N 0.50313 0.26742 0.63863
 C576 C 0.51156 0.29594 0.63232
 C577 C 0.50168 0.31912 0.65071
 C578 C 0.47566 0.28309 0.68253
 C579 C 0.50868 0.17383 0.62456
 C580 C 0.51564 0.14710 0.64005
 C581 C 0.54347 0.17511 0.67369
 C582 C 0.53629 0.20122 0.65738
 N583 N 0.51939 0.20016 0.63313
 H584 H 0.47909 0.23790 0.66780
 H585 H 0.52516 0.30104 0.61252
 H586 H 0.50799 0.34179 0.64486
 H587 H 0.46083 0.27719 0.70129
 H588 H 0.49501 0.17331 0.60552
 H589 H 0.50692 0.12643 0.63282
 H590 H 0.55731 0.17641 0.69267
 H591 H 0.54453 0.22239 0.66379
 C592 C 0.42525 0.21664 0.56395
 C593 C 0.59869 0.26436 0.55760
 C594 C 0.53350 0.14751 0.66481
 C595 C 0.48317 0.31293 0.67603
 C596 C 0.48665 0.74780 0.91006
 H597 H 0.50807 0.74342 0.91947
 C598 C 0.46314 0.75950 0.92791
 H599 H 0.46694 0.76361 0.95098
 C600 C 0.45559 0.74632 0.86902
 H601 H 0.45291 0.74107 0.84598
 C602 C 0.43155 0.75812 0.88597
 H603 H 0.41045 0.76207 0.87562
 N604 N 0.48266 0.74219 0.88099
 C605 C 0.55967 0.69116 0.88113
 H606 H 0.54863 0.67307 0.87138
 C607 C 0.58545 0.68502 0.89656
 H608 H 0.59357 0.66205 0.89874
 C609 C 0.56280 0.74287 0.88949
 H610 H 0.55397 0.76544 0.88618
 C611 C 0.58882 0.73775 0.90504
 H612 H 0.59987 0.75670 0.91324
 Zn613 Zn 0.51444 0.72792 0.85576
 N614 N 0.54871 0.71968 0.87807
 C615 C 0.55122 0.75489 0.81124
 N616 N 0.52463 0.75790 0.82666
 C617 C 0.50866 0.78424 0.82600
 C618 C 0.52040 0.80948 0.81138
 C619 C 0.56396 0.77972 0.79658
 C620 C 0.48963 0.67288 0.85978
 C621 C 0.47992 0.64543 0.85123
 C622 C 0.49539 0.65832 0.80034
 C623 C 0.50484 0.68583 0.80995
 N624 N 0.50210 0.69228 0.83936
 H625 H 0.56364 0.73381 0.81240
 H626 H 0.48785 0.78652 0.83870
 H627 H 0.50823 0.83067 0.81300
 H628 H 0.58593 0.77730 0.78590
 H629 H 0.48734 0.67880 0.88294
 H630 H 0.46953 0.63083 0.86805
 H631 H 0.49791 0.65323 0.77695
 H632 H 0.51456 0.70181 0.79406
 C633 C 0.60048 0.70840 0.90885
 C634 C 0.43526 0.76551 0.91569
 C635 C 0.48318 0.63750 0.82125
 C636 C 0.54911 0.80781 0.79791
 C637 C 0.47510 -0.15005 0.32323
 C638 C 0.44944 -0.15562 0.30798
 N639 N 0.43770 -0.18317 0.31014
 C640 C 0.45027 -0.20536 0.32720
 C641 C 0.47557 -0.19973 0.34321
 N642 N 0.48750 -0.17211 0.34054
 N643 N 0.48679 -0.12247 0.32101
 C644 C 0.47363 -0.09997 0.30474
 C645 C 0.44721 -0.10512 0.29024
 N646 N 0.43611 -0.13312 0.29203
 H647 H 0.44032 -0.22709 0.32875
 H648 H 0.48370 -0.07834 0.30335
 C649 C 0.95959 0.36037 0.78411
 C650 C 0.95128 0.38510 0.80132
 N651 N 0.95367 0.38334 0.83125
 C652 C 0.96399 0.35787 0.84491
 C653 C 0.97245 0.33289 0.82791
 N654 N 0.97005 0.33480 0.79773
 N655 N 0.95662 0.36228 0.75413
 C656 C 0.94543 0.38770 0.74067
 C657 C 0.93683 0.41243 0.75801
 N658 N 0.94023 0.41033 0.78793
 H659 H 0.96551 0.35701 0.86890
 H660 H 0.94336 0.38854 0.71677
 C661 C 0.03055 1.17455 0.83349
 C662 C 0.03794 1.17278 0.80298
 N663 N 0.03359 1.19715 0.78473
 C664 C 0.02223 1.22331 0.79562
 C665 C 0.01489 1.22535 0.82637
 N666 N 0.01933 1.20067 0.84442
 N667 N 0.03532 1.15034 0.85181
 C668 C 0.04723 1.12435 0.84102
 C669 C 0.05487 1.12238 0.81032
 N670 N 0.04995 1.14692 0.79216
 H671 H 0.01963 1.24226 0.78035
 H672 H 0.05141 1.10588 0.85652
 C673 C 0.53454 0.66785 0.31181
 C674 C 0.54215 0.64337 0.33049
 N675 N 0.53915 0.64590 0.36048
 C676 C 0.52889 0.67185 0.37271
 C677 C 0.52112 0.69657 0.35406
 N678 N 0.52419 0.69367 0.32396
 N679 N 0.53787 0.66553 0.28181
 C680 C 0.54877 0.63983 0.26961
 C681 C 0.55668 0.61523 0.28827
 N682 N 0.55293 0.61764 0.31836
 H683 H 0.52687 0.67270 0.39666
 H684 H 0.55110 0.63861 0.24560
 C685 C 0.51946 0.34137 0.19420
 C686 C 0.52391 0.36543 0.17384
 N687 N 0.51833 0.36246 0.14476
 C688 C 0.50888 0.33628 0.13491
 C689 C 0.50490 0.31174 0.15499
 N690 N 0.51017 0.31497 0.18436
 N691 N 0.52597 0.34439 0.22315
 C692 C 0.53716 0.37020 0.23254
 C693 C 0.54246 0.39410 0.21190
 N694 N 0.53531 0.39092 0.18310
 H695 H 0.50530 0.33431 0.11141
 H696 H 0.54302 0.37138 0.25552
 C697 C 0.02298 0.86800 0.68491
 C698 C 0.04761 0.86053 0.70187
 N699 N 0.05911 0.83210 0.70189
 C700 C 0.04743 0.81093 0.68516
 C701 C 0.02333 0.81859 0.66700
 N702 N 0.01170 0.84711 0.66789
 N703 N 0.01173 0.89645 0.68432
 C704 C 0.02427 0.91806 0.69963
 C705 C 0.04962 0.91104 0.71611
 N706 N 0.06049 0.88219 0.71687
 H707 H 0.05752 0.78864 0.68509
 H708 H 0.01525 0.94067 0.69765
 C709 C 0.96351 0.68773 0.68325
 C710 C 0.95689 0.66719 0.66190
 N711 N 0.96374 0.67335 0.63275
 C712 C 0.97644 0.69942 0.62373
 C713 C 0.98256 0.72079 0.64495
 N714 N 0.97620 0.71386 0.67435
 N715 N 0.95648 0.68150 0.71247
 C716 C 0.94274 0.65579 0.72122
 C717 C 0.93553 0.63532 0.69970
 N718 N 0.94318 0.64161 0.67054
 H719 H 0.98180 0.70259 0.60027
 H720 H 0.93766 0.65144 0.74469
 C721 C 0.46337 0.15158 0.16930
 C722 C 0.44718 0.15381 0.19659
 N723 N 0.44492 0.18049 0.21011
 C724 C 0.45786 0.20516 0.19741
 C725 C 0.47352 0.20320 0.16961
 N726 N 0.47586 0.17626 0.15639
 N727 N 0.46555 0.12501 0.15564
 C728 C 0.45210 0.10050 0.16796
 C729 C 0.43533 0.10267 0.19510
 N730 N 0.43333 0.12946 0.20873
 H731 H 0.45486 0.22619 0.20844
 H732 H 0.45375 0.07982 0.15614
 C733 C 0.32870 0.45714 -0.14351
 C734 C 0.30876 0.43427 -0.14698
 N735 N 0.30465 0.42423 -0.17464
 C736 C 0.31994 0.43581 -0.19898
 C737 C 0.34053 0.45830 -0.19555
 N738 N 0.34414 0.46847 -0.16772
 N739 N 0.33321 0.46685 -0.11585
 C740 C 0.31883 0.45456 -0.09135
 C741 C 0.29910 0.43118 -0.09455
 N742 N 0.29460 0.42178 -0.12253
 H743 H 0.31666 0.42706 -0.22071
 H744 H 0.32370 0.46235 -0.06965
 C745 C 0.80922 0.98060 0.36668
 C746 C 0.79352 0.95431 0.36421
 N747 N 0.79427 0.94036 0.33787
 C748 C 0.81029 0.95140 0.31385
 C749 C 0.82662 0.97745 0.31629
 N750 N 0.82543 0.99152 0.34276
 N751 N 0.80830 0.99455 0.39306
 C752 C 0.79283 0.98307 0.41730
 C753 C 0.77776 0.95615 0.41520
 N754 N 0.77833 0.94273 0.38842
 H755 H 0.81054 0.93986 0.29305
 H756 H 0.79245 0.99488 0.43791
 C757 C 0.83318 0.03521 1.16034
 C758 C 0.80376 0.04657 1.16107
 N759 N 0.78694 0.04495 1.18684
 C760 C 0.79821 0.03253 1.21207
 C761 C 0.82786 0.02133 1.21162
 N762 N 0.84460 0.02305 1.18560
 N763 N 0.85003 0.03710 1.13453
 C764 C 0.83879 0.05000 1.10941
 C765 C 0.80937 0.06182 1.11018
 N766 N 0.79267 0.05969 1.13617
 H767 H 0.78431 0.03231 1.23233
 H768 H 0.85302 0.05175 1.08941
 C769 C 0.30781 0.52221 0.67316
 C770 C 0.32626 0.52753 0.64769
 N771 N 0.35578 0.52061 0.64847
 C772 C 0.36784 0.50880 0.67364
 C773 C 0.34954 0.50373 0.69954
 N774 N 0.31980 0.51049 0.69836
 N775 N 0.27825 0.52909 0.67237
 C776 C 0.26634 0.54148 0.64735
 C777 C 0.28487 0.54749 0.62182
 N778 N 0.31445 0.54000 0.62273
 H779 H 0.39137 0.50339 0.67296
 H780 H 0.24266 0.54649 0.64747
 C781 C 0.17419 0.55931 0.34800
 C782 C 0.19470 0.53968 0.36166
 N783 N 0.20051 0.51233 0.35001
 C784 C 0.18648 0.50373 0.32552
 C785 C 0.16556 0.52333 0.31205
 N786 N 0.16021 0.55067 0.32388
 N787 N 0.16779 0.58643 0.35950
 C788 C 0.18114 0.59508 0.38409
 C789 C 0.20200 0.57574 0.39801
 N790 N 0.20813 0.54824 0.38647
 H791 H 0.19106 0.48165 0.31701
 H792 H 0.17499 0.61668 0.39295
 C793 C 0.69376 0.02612 0.85674
 C794 C 0.67726 0.03091 0.88348
 N795 N 0.64781 0.02516 0.88540
 C796 C 0.63392 0.01542 0.86150
 C797 C 0.65009 0.01162 0.83424
 N798 N 0.67982 0.01680 0.83273
 N799 N 0.72312 0.03230 0.85477
 C800 C 0.73659 0.04386 0.87810
 C801 C 0.71978 0.05004 0.90455
 N802 N 0.69056 0.04281 0.90659
 H803 H 0.61024 0.01173 0.86337
 H804 H 0.76003 0.04851 0.87575
 C805 C 0.64941 0.97322 0.67455
 C806 C 0.67565 0.95547 0.67524
 N807 N 0.69028 0.95207 0.70090
 C808 C 0.67973 0.96540 0.72612
 C809 C 0.65300 0.98266 0.72584
 N810 N 0.63851 0.98610 0.69990
 N811 N 0.63490 0.97663 0.64874
 C812 C 0.64538 0.96290 0.62362
 C813 C 0.67128 0.94447 0.62449
 N814 N 0.68576 0.94136 0.65041
 H815 H 0.69153 0.96140 0.74636
 H816 H 0.63320 0.96569 0.60345
 C817 C 0.19428 0.45680 0.17885
 C818 C 0.17611 0.45884 0.15428
 N819 N 0.14951 0.47381 0.15650
 C820 C 0.13986 0.48638 0.18240
 C821 C 0.15739 0.48357 0.20758
 N822 N 0.18453 0.46910 0.20498
 N823 N 0.22097 0.44178 0.17638
 C824 C 0.23015 0.42850 0.15054
 C825 C 0.21162 0.42996 0.12603
 N826 N 0.18505 0.44531 0.12871
 H827 H 0.11872 0.49847 0.18307
 H828 H 0.25121 0.41615 0.14958
 C829 C -0.15635 0.30022 0.46703
 C830 C -0.13131 0.31678 0.45816
 N831 N -0.13319 0.34703 0.45769
 C832 C -0.15907 0.36161 0.46562
 C833 C -0.18437 0.34528 0.47461
 N834 N -0.18233 0.31479 0.47515
 N835 N -0.15442 0.26988 0.46658
 C836 C -0.12873 0.25543 0.45719
 C837 C -0.10375 0.27209 0.44788
 N838 N -0.10579 0.30241 0.44891
 H839 H -0.16003 0.38581 0.46479
 H840 H -0.12794 0.23127 0.45671
 C841 C 0.36292 0.80907 0.96226
 C842 C 0.35820 0.79091 0.93827
 N843 N 0.33025 0.78831 0.92877
 C844 C 0.30675 0.80327 0.94206
 C845 C 0.31127 0.82193 0.96610
 N846 N 0.33953 0.82412 0.97549
 N847 N 0.39096 0.81215 0.97135
 C848 C 0.41461 0.79797 0.95742
 C849 C 0.41008 0.77981 0.93308
 N850 N 0.38176 0.77685 0.92427
 H851 H 0.28477 0.80107 0.93368
 H852 H 0.43665 0.80177 0.96479
 C853 C 1.16003 0.83329 0.03186
 C854 C 1.15776 0.80236 0.03657
 N855 N 1.18139 0.78404 0.02960
 C856 C 1.20734 0.79514 0.01809
 C857 C 1.21015 0.82637 0.01351
 N858 N 1.18610 0.84455 0.02069
 N859 N 1.13624 0.85157 0.03886
 C860 C 1.11033 0.84025 0.05058
 C861 C 1.10819 0.80917 0.05589
 N862 N 1.13216 0.79110 0.04862
 H863 H 1.22547 0.77941 0.01348
 H864 H 1.09205 0.85548 0.05659
 C865 C 0.67976 0.30278 0.52594
 C866 C 0.65310 0.31980 0.52753
 N867 N 0.65329 0.34934 0.51993
 C868 C 0.67900 0.36281 0.51110
 C869 C 0.70612 0.34605 0.51010
 N870 N 0.70556 0.31621 0.51736
 N871 N 0.67944 0.27311 0.53316
 C872 C 0.65371 0.25980 0.54246
 C873 C 0.62693 0.27702 0.54501
 N874 N 0.62748 0.30665 0.53707
 H875 H 0.67776 0.38622 0.50471
 H876 H 0.65434 0.23607 0.54773
 C877 C 0.34548 0.17626 0.54316
 C878 C 0.36550 0.18590 0.52023
 N879 N 0.35907 0.18185 0.49143
 C880 C 0.33375 0.16818 0.48459
 C881 C 0.31426 0.15730 0.50762
 N882 N 0.32065 0.16211 0.53636
 N883 N 0.35132 0.18077 0.57194
 C884 C 0.37646 0.19440 0.57894
 C885 C 0.39701 0.20359 0.55617
 N886 N 0.39105 0.19902 0.52720
 H887 H 0.32911 0.16535 0.46145
 H888 H 0.38075 0.19729 0.60216
 C889 C 0.84611 0.67664 0.05497
 C890 C 0.86093 0.69751 0.03620
 N891 N 0.85226 0.70206 0.00775
 C892 C 0.82961 0.68644 -0.00275
 C893 C 0.81494 0.66524 0.01605
 N894 N 0.82378 0.66112 0.04448
 N895 N 0.85486 0.67135 0.08311
 C896 C 0.87779 0.68614 0.09360
 C897 C 0.89280 0.70741 0.07514
 N898 N 0.88402 0.71242 0.04663
 H899 H 0.82349 0.69001 -0.02564
 H900 H 0.88458 0.68067 0.11596
 C901 C 0.67996 0.68612 0.95354
 C902 C 0.66878 0.66717 0.93282
 N903 N 0.68305 0.64076 0.92714
 C904 C 0.70793 0.63216 0.94150
 C905 C 0.71918 0.65078 0.96268
 N906 N 0.70495 0.67759 0.96798
 N907 N 0.66524 0.71241 0.95929
 C908 C 0.63985 0.72057 0.94527
 C909 C 0.62851 0.70150 0.92444
 N910 N 0.64356 0.67525 0.91891
 H911 H 0.71879 0.61108 0.93608
 H912 H 0.62847 0.74135 0.95096
 C913 C 0.16262 0.15479 0.44928
 C914 C 0.15859 0.18592 0.44703
 N915 N 0.17969 0.20363 0.45692
 C916 C 0.20482 0.19165 0.46881
 C917 C 0.20926 0.16031 0.47083
 N918 N 0.18774 0.14277 0.46105
 N919 N 0.14151 0.13708 0.43938
 C920 C 0.11644 0.14911 0.42733
 C921 C 0.11223 0.18043 0.42498
 N922 N 0.13367 0.19797 0.43491
 H923 H 0.22082 0.20663 0.47671
 H924 H 0.10041 0.13428 0.41912
 C925 C 0.56313 0.06974 0.71270
 C926 C 0.55657 0.09663 0.72705
 N927 N 0.56126 0.09845 0.75644
 C928 C 0.57326 0.07495 0.77206
 C929 C 0.58168 0.04825 0.75752
 N930 N 0.57553 0.04623 0.72817
 N931 N 0.55842 0.06814 0.68316
 C932 C 0.54785 0.09237 0.66728
 C933 C 0.54214 0.11968 0.68150
 N934 N 0.54650 0.12087 0.71119
 H935 H 0.57607 0.07748 0.79556
 H936 H 0.54508 0.09057 0.64363
 C937 C 1.07076 0.60461 0.23649
 C938 C 1.05834 0.60007 0.20909
 N939 N 1.06058 0.57247 0.19733
 C940 C 1.07517 0.54933 0.21152
 C941 C 1.08859 0.55408 0.23862
 N942 N 1.08556 0.58174 0.25038
 N943 N 1.06903 0.63212 0.24822
 C944 C 1.05558 0.65556 0.23366
 C945 C 1.04341 0.65144 0.20579
 N946 N 1.04513 0.62355 0.19427
 H947 H 1.07678 0.52792 0.20119
 H948 H 1.05552 0.67733 0.24335
 C949 C 0.92859 0.91185 0.23419
 C950 C 0.93557 0.91679 0.20376
 N951 N 0.92706 0.94303 0.19023
 C952 C 0.91137 0.96444 0.20561
 C953 C 0.90283 0.95898 0.23592
 N954 N 0.91208 0.93271 0.24929
 N955 N 0.93745 0.88581 0.24791
 C956 C 0.95253 0.86416 0.23236
 C957 C 0.95824 0.86843 0.20153
 N958 N 0.94972 0.89481 0.18798
 H959 H 0.90435 0.98448 0.19351
 H960 H 0.95874 0.84329 0.24363
 C961 C 0.44126 0.38284 0.72542
 C962 C 0.45052 0.38763 0.69551
 N963 N 0.44424 0.41439 0.68168
 C964 C 0.42874 0.43649 0.69632
 C965 C 0.41871 0.43150 0.72616
 N966 N 0.42554 0.40469 0.73990
 N967 N 0.44724 0.35607 0.73926
 C968 C 0.46157 0.33353 0.72434
 C969 C 0.47005 0.33775 0.69395
 N970 N 0.46458 0.36504 0.68046
 H971 H 0.42346 0.45714 0.68432
 H972 H 0.46611 0.31255 0.73616
 C973 C 0.44766 0.55535 0.79827
 C974 C 0.44910 0.57925 0.77730
 N975 N 0.43666 0.57661 0.75052
 C976 C 0.42219 0.55145 0.74415
 C977 C 0.41936 0.52824 0.76587
 N978 N 0.43256 0.53076 0.79226
 N979 N 0.46007 0.55764 0.82494
 C980 C 0.47306 0.58317 0.83214
 C981 C 0.47294 0.60808 0.81208
 N982 N 0.46149 0.60518 0.78472
 H983 H 0.41163 0.55030 0.72307
 H984 H 0.48291 0.58404 0.85358
 C985 C -0.09801 0.10337 0.28858
 C986 C -0.06850 0.10323 0.27698
 N987 N -0.05744 0.07913 0.26204
 C988 C -0.07445 0.05499 0.25859
 C989 C -0.10353 0.05461 0.27139
 N990 N -0.11463 0.07897 0.28593
 N991 N -0.10929 0.12746 0.30322
 C992 C -0.09224 0.15131 0.30731
 C993 C -0.06222 0.15085 0.29690
 N994 N -0.05111 0.12670 0.28184
 H995 H -0.06501 0.03585 0.24702
 H996 H -0.10164 0.16975 0.31996
 C997 C 0.06486 0.41908 0.31142
 C998 C 0.06352 0.39877 0.28844
 N999 N 0.07528 0.40615 0.26089
 C1000 C 0.08868 0.43275 0.25538
 C1001 C 0.09096 0.45267 0.27866
 N1002 N 0.07882 0.44525 0.30612
 N1003 N 0.05307 0.41192 0.33894
 C1004 C 0.04015 0.38522 0.34467
 C1005 C 0.03939 0.36436 0.32198
 N1006 N 0.05117 0.37174 0.29429
 H1007 H 0.09858 0.43763 0.23342
 H1008 H 0.03150 0.37994 0.36704
 C1009 C 0.59110 0.89063 0.78702
 C1010 C 0.56146 0.88816 0.77930
 N1011 N 0.54542 0.91323 0.77142
 C1012 C 0.55757 0.94073 0.77154
 C1013 C 0.58669 0.94326 0.78087
 N1014 N 0.60283 0.91802 0.78803
 N1015 N 0.60725 0.86576 0.79487
 C1016 C 0.59491 0.83845 0.79615
 C1017 C 0.56469 0.83588 0.79003
 N1018 N 0.54879 0.86097 0.78145
 H1019 H 0.54428 0.96046 0.76566
 H1020 H 0.60814 0.81934 0.80377
 C1021 C 0.73554 0.56549 0.09020
 C1022 C 0.70689 0.55633 0.08471
 N1023 N 0.69588 0.56169 0.05729
 C1024 C 0.71211 0.57624 0.03525
 C1025 C 0.74055 0.58625 0.04103
 N1026 N 0.75149 0.58026 0.06844
 N1027 N 0.74645 0.56086 0.11763
 C1028 C 0.72989 0.54766 0.14010
 C1029 C 0.70080 0.53881 0.13505
 N1030 N 0.69013 0.54339 0.10723
 H1031 H 0.70231 0.58098 0.01402
 H1032 H 0.73908 0.54535 0.16189
 C1033 C 0.22877 1.07775 0.59892
 C1034 C 0.19939 1.06899 0.59677
 N1035 N 0.18627 1.07234 0.57013
 C1036 C 0.20114 1.08433 0.54562
 C1037 C 0.23056 1.09361 0.54786
 N1038 N 0.24346 1.08976 0.57464
 N1039 N 0.24201 1.07484 0.62541
 C1040 C 0.22703 1.06391 0.65014
 C1041 C 0.19725 1.05558 0.64847
 N1042 N 0.18427 1.05805 0.62153
 H1043 H 0.18971 1.08725 0.52506
 H1044 H 0.23840 1.06162 0.67082
 C1045 C 0.23073 0.91987 0.90095
 C1046 C 0.20330 0.93362 0.90884
 N1047 N 0.19194 0.93013 0.93726
 C1048 C 0.20662 0.91319 0.95808
 C1049 C 0.23398 0.89855 0.95002
 N1050 N 0.24511 0.90277 0.92148
 N1051 N 0.24223 0.92300 0.87265
 C1052 C 0.22742 0.93924 0.85165
 C1053 C 0.19957 0.95291 0.85916
 N1054 N 0.18821 0.94966 0.88779
 H1055 H 0.19632 0.91082 0.98015
 H1056 H 0.23695 0.94051 0.82912
 C1057 C 0.72534 0.41990 0.38760
 C1058 C 0.70203 0.44056 0.39380
 N1059 N 0.69505 0.44753 0.42251
 C1060 C 0.71016 0.43451 0.44538
 C1061 C 0.73335 0.41340 0.43926
 N1062 N 0.74032 0.40692 0.41032
 N1063 N 0.73243 0.41281 0.35900
 C1064 C 0.71699 0.42522 0.33619
 C1065 C 0.69317 0.44564 0.34221
 N1066 N 0.68652 0.45299 0.37103
 H1067 H 0.70407 0.44083 0.46787
 H1068 H 0.72352 0.41937 0.31362
 C1069 C 0.79354 0.45886 0.56109
 C1070 C 0.77253 0.45868 0.58515
 N1071 N 0.74799 0.44187 0.58398
 C1072 C 0.74397 0.42463 0.56015
 C1073 C 0.76595 0.42347 0.53697
 N1074 N 0.79003 0.44095 0.53793
 N1075 N 0.81811 0.47543 0.56207
 C1076 C 0.82311 0.49138 0.58638
 C1077 C 0.80299 0.49013 0.61132
 N1078 N 0.77795 0.47389 0.60992
 H1079 H 0.72474 0.41071 0.56012
 H1080 H 0.84355 0.50341 0.58683
 C1081 C 0.30612 -0.09570 0.07978
 C1082 C 0.28381 -0.07765 0.09337
 N1083 N 0.25653 -0.07560 0.08144
 C1084 C 0.25062 -0.09073 0.05656
 C1085 C 0.27322 -0.10882 0.04267
 N1086 N 0.30029 -0.11052 0.05512
 N1087 N 0.33340 -0.09817 0.09124
 C1088 C 0.33969 -0.08297 0.11561
 C1089 C 0.31778 -0.06412 0.12920
 N1090 N 0.29003 -0.06218 0.11790
 H1091 H 0.22863 -0.08822 0.04801
 H1092 H 0.36169 -0.08565 0.12432
 C1093 C 0.29640 0.05041 0.41378
 C1094 C 0.27409 0.05266 0.39292
 N1095 N 0.24855 0.06858 0.39962
 C1096 C 0.24464 0.08287 0.42592
 C1097 C 0.26766 0.08182 0.44614
 N1098 N 0.29286 0.06530 0.43951
 N1099 N 0.32200 0.03475 0.40735
 C1100 C 0.32659 0.02145 0.38080
 C1101 C 0.30481 0.02432 0.35922
 N1102 N 0.27891 0.03995 0.36592
 H1103 H 0.22453 0.09623 0.43017
 H1104 H 0.34770 0.00989 0.37615
 C1105 C 0.77901 0.57233 0.89737
 C1106 C 0.80725 0.55873 0.89249
 N1107 N 0.82724 0.55854 0.91422
 C1108 C 0.82047 0.57190 0.94049
 C1109 C 0.79242 0.58611 0.94525
 N1110 N 0.77224 0.58561 0.92362
 N1111 N 0.75946 0.57349 0.87518
 C1112 C 0.76708 0.56211 0.84808
 C1113 C 0.79560 0.54898 0.84292
 N1114 N 0.81481 0.54736 0.86553
 H1115 H 0.83698 0.57188 0.95728
 H1116 H 0.75118 0.56360 0.83070
 C1117 C 0.10152 0.74715 0.57168
 C1118 C 0.09553 0.72168 0.55611
 N1119 N 0.06688 0.71386 0.55366
 C1120 C 0.04390 0.72990 0.56676
 C1121 C 0.04983 0.75483 0.58385
 N1122 N 0.07875 0.76285 0.58515
 N1123 N 0.13011 0.75493 0.57450
 C1124 C 0.15313 0.73811 0.56270
 C1125 C 0.14738 0.71196 0.54764
 N1126 N 0.11850 0.70454 0.54465
 H1127 H 0.02171 0.72228 0.56434
 H1128 H 0.17564 0.74454 0.56620
 C1129 C 0.59315 0.22835 1.07361
 C1130 C 0.59212 0.19823 1.06657
 N1131 N 0.56670 0.18320 1.07296
 C1132 C 0.54235 0.19692 1.08637
 C1133 C 0.54351 0.22713 1.09394
 N1134 N 0.56905 0.24191 1.08705
 N1135 N 0.61857 0.24337 1.06798
 C1136 C 0.64323 0.22963 1.05558
 C1137 C 0.64261 0.19924 1.04841
 N1138 N 0.61682 0.18433 1.05422
 H1139 H 0.52282 0.18404 1.09167
 H1140 H 0.66325 0.24225 1.05238
 C1141 C 0.89753 0.24568 0.91955
 C1142 C 0.90457 0.21778 0.93285
 N1143 N 0.93300 0.20665 0.93034
 C1144 C 0.95465 0.22200 0.91477
 C1145 C 0.94752 0.24982 0.90083
 N1146 N 0.91899 0.26085 0.90399
 N1147 N 0.86915 0.25682 0.92154
 C1148 C 0.84723 0.24104 0.93589
 C1149 C 0.85391 0.21265 0.94875
 N1150 N 0.88266 0.20189 0.94719
 H1151 H 0.97682 0.21210 0.91298
 H1152 H 0.82483 0.25059 0.93718
 C1153 C 0.41063 0.72367 0.45504
 C1154 C 0.41227 0.69232 0.45496
 N1155 N 0.43615 0.67829 0.44145
 C1156 C 0.45820 0.69419 0.42738
 C1157 C 0.45589 0.72559 0.42602
 N1158 N 0.43215 0.73956 0.44018
 N1159 N 0.38674 0.73768 0.46861
 C1160 C 0.36407 0.72176 0.48157
 C1161 C 0.36493 0.69041 0.48015
 N1162 N 0.38925 0.67647 0.46702
 H1163 H 0.47638 0.68234 0.41593
 H1164 H 0.34491 0.73352 0.49151
 C1165 C 0.59979 0.78738 0.42093
 C1166 C 0.59943 0.77902 0.45133
 N1167 N 0.57590 0.76405 0.46373
 C1168 C 0.55251 0.75745 0.44717
 C1169 C 0.55229 0.76697 0.41707
 N1170 N 0.57611 0.78159 0.40467
 N1171 N 0.62338 0.80201 0.40837
 C1172 C 0.64649 0.80915 0.42492
 C1173 C 0.64573 0.80199 0.45569
 N1174 N 0.62211 0.78693 0.46812
 H1175 H 0.53381 0.74594 0.45768
 H1176 H 0.66454 0.82164 0.41441
 C1177 C 0.08906 0.31394 -0.09313
 C1178 C 0.09396 0.29517 -0.06812
 N1179 N 0.07518 0.27239 -0.06158
 C1180 C 0.05157 0.26784 -0.07874
 C1181 C 0.04629 0.28722 -0.10339
 N1182 N 0.06551 0.30959 -0.10989
 N1183 N 0.10737 0.33682 -0.09990
 C1184 C 0.13018 0.34228 -0.08241
 C1185 C 0.13481 0.32426 -0.05665
 N1186 N 0.11676 0.30069 -0.05034
 H1187 H 0.03665 0.24999 -0.07254
 H1188 H 0.14453 0.36064 -0.08858
 C1189 C 0.38612 0.26283 0.09586
 C1190 C 0.38653 0.26086 0.06477
 N1191 N 0.41258 0.25395 0.04962
 C1192 C 0.43842 0.24987 0.06413
 C1193 C 0.43825 0.25377 0.09497
 N1194 N 0.41198 0.25977 0.11011
 N1195 N 0.36037 0.27032 0.11102
 C1196 C 0.33507 0.27692 0.09646
 C1197 C 0.33568 0.27693 0.06507
 N1198 N 0.36149 0.26838 0.05009
 H1199 H 0.45910 0.24552 0.05152
 H1200 H 0.31537 0.28419 0.10926
 C1201 C 0.90471 0.82275 0.59599
 C1202 C 0.89495 0.80721 0.57200
 N1203 N 0.91313 0.78567 0.55966
 C1204 C 0.94059 0.77897 0.57034
 C1205 C 0.95071 0.79510 0.59422
 N1206 N 0.93212 0.81662 0.60607
 N1207 N 0.88652 0.84338 0.60936
 C1208 C 0.85903 0.84985 0.59938
 C1209 C 0.84933 0.83559 0.57419
 N1210 N 0.86759 0.81412 0.56138
 H1211 H 0.95432 0.76193 0.55956
 H1212 H 0.84505 0.86586 0.61137
   
