data_POSCAR
  _audit_creation_date              2014-09-24
  _audit_creation_method            'ToBaCCo'
  _symmetry_space_group_name_H-M    'P1'
  _symmetry_Int_Tables_number       1
  _symmetry_cell_setting            triclinic
  loop_
  _symmetry_equiv_pos_as_xyz
 x,y,z
_cell_length_a 45.5680
_cell_length_b 45.1021
_cell_length_c 43.1955
_cell_angle_alpha 90.203200
_cell_angle_beta 89.859400
_cell_angle_gamma 89.767900
loop_
  _atom_site_label
  _atom_site_type_symbol
  _atom_site_fract_x
  _atom_site_fract_y
  _atom_site_fract_z
Si1 Si 0.25081 0.25012 0.24874
 Si2 Si 0.75069 0.75015 0.24872
 Si3 Si 0.75107 0.25012 0.74870
 Si4 Si 0.25101 0.75009 0.74871
 C5 C 0.03994 0.04601 0.01114
 H6 H 0.03967 0.04809 -0.01380
 C7 C 0.05731 0.06497 0.02889
 H8 H 0.07069 0.08141 0.01740
 C9 C 0.02298 0.02178 0.05632
 H10 H 0.00923 0.00528 0.06701
 C11 C 0.04013 0.04017 0.07494
 H12 H 0.03939 0.03755 0.09984
 N13 N 0.02356 0.02465 0.02498
 C14 C 0.01263 -0.04611 -0.04312
 H15 H -0.01099 -0.04845 -0.04288
 C16 C 0.02977 -0.06482 -0.06168
 H17 H 0.01913 -0.08132 -0.07600
 C18 C 0.05511 -0.02157 -0.02482
 H19 H 0.06498 -0.00504 -0.01007
 C20 C 0.07305 -0.03970 -0.04311
 H21 H 0.09662 -0.03689 -0.04221
 Zn22 Zn 0.00079 -0.00029 -0.00084
 N23 N 0.02544 -0.02476 -0.02548
 C24 C -0.02279 0.02142 -0.05744
 N25 N -0.02266 0.02446 -0.02611
 C26 C -0.03887 0.04587 -0.01179
 C27 C -0.05653 0.06498 -0.02907
 C28 C -0.04031 0.03990 -0.07559
 C29 C -0.01014 -0.04601 0.04150
 C30 C -0.02701 -0.06521 0.05947
 C31 C -0.07077 -0.04247 0.03861
 C32 C -0.05307 -0.02358 0.02121
 N33 N -0.02333 -0.02544 0.02320
 H34 H -0.00943 0.00460 -0.06846
 H35 H -0.03802 0.04808 0.01314
 H36 H -0.06897 0.08208 -0.01718
 H37 H -0.04062 0.03658 -0.10042
 H38 H 0.01356 -0.04741 0.04217
 H39 H -0.01615 -0.08146 0.07389
 H40 H -0.09440 -0.04038 0.03707
 H41 H -0.06316 -0.00752 0.00608
 C42 C 0.06040 -0.06159 -0.06198
 C43 C 0.05774 0.06199 0.06123
 C44 C -0.05776 -0.06353 0.05817
 C45 C -0.05757 0.06205 -0.06145
 C46 C 0.03986 0.54795 0.51291
 H47 H 0.03972 0.54999 0.48796
 C48 C 0.05720 0.56691 0.53071
 H49 H 0.07066 0.58330 0.51926
 C50 C 0.02268 0.52381 0.55805
 H51 H 0.00887 0.50734 0.56870
 C52 C 0.03978 0.54221 0.57672
 H53 H 0.03895 0.53962 0.60162
 N54 N 0.02341 0.52663 0.52671
 C55 C 0.01275 0.45575 0.45872
 H56 H -0.01087 0.45342 0.45890
 C57 C 0.02993 0.43699 0.44026
 H58 H 0.01932 0.42047 0.42595
 C59 C 0.05518 0.48032 0.47709
 H60 H 0.06502 0.49688 0.49183
 C61 C 0.07317 0.46213 0.45891
 H62 H 0.09674 0.46493 0.45989
 Zn63 Zn 0.00076 0.50162 0.50084
 N64 N 0.02552 0.47714 0.47634
 C65 C -0.02261 0.52315 0.44409
 N66 N -0.02265 0.52627 0.47541
 C67 C -0.03902 0.54764 0.48958
 C68 C -0.05669 0.56662 0.47217
 C69 C -0.04014 0.54150 0.42579
 C70 C -0.01018 0.45590 0.54314
 C71 C -0.02705 0.43659 0.56098
 C72 C -0.07081 0.45918 0.53998
 C73 C -0.05312 0.47819 0.52270
 N74 N -0.02338 0.47644 0.52481
 H75 H -0.00913 0.50637 0.43317
 H76 H -0.03829 0.54991 0.51451
 H77 H -0.06927 0.58369 0.48394
 H78 H -0.04033 0.53811 0.40098
 H79 H 0.01352 0.45459 0.54390
 H80 H -0.01617 0.42034 0.57540
 H81 H -0.09445 0.46116 0.53833
 H82 H -0.06322 0.49423 0.50755
 C83 C 0.06057 0.44020 0.44006
 C84 C 0.05750 0.56397 0.56306
 C85 C -0.05779 0.43812 0.55953
 C86 C -0.05758 0.56359 0.43979
 C87 C 0.53812 0.04650 0.51279
 H88 H 0.53779 0.04851 0.48784
 C89 C 0.55553 0.06551 0.53043
 H90 H 0.56886 0.08194 0.51885
 C91 C 0.52136 0.02232 0.55808
 H92 H 0.50768 0.00580 0.56886
 C93 C 0.53855 0.04078 0.57660
 H94 H 0.53792 0.03819 0.60151
 N95 N 0.52184 0.02513 0.52674
 C96 C 0.51136 -0.04582 0.45880
 H97 H 0.48775 -0.04825 0.45896
 C98 C 0.52862 -0.06445 0.44029
 H99 H 0.51809 -0.08098 0.42593
 C100 C 0.55367 -0.02110 0.47724
 H101 H 0.56344 -0.00453 0.49203
 C102 C 0.57175 -0.03916 0.45902
 H103 H 0.59530 -0.03625 0.46001
 Zn104 Zn 0.49920 -0.00001 0.50101
 N105 N 0.52403 -0.02440 0.47647
 C106 C 0.47576 0.02150 0.44427
 N107 N 0.47567 0.02454 0.47561
 C108 C 0.45926 0.04587 0.48980
 C109 C 0.44165 0.06492 0.47239
 C110 C 0.45830 0.03991 0.42598
 C111 C 0.48856 -0.04568 0.54345
 C112 C 0.47182 -0.06503 0.56139
 C113 C 0.42791 -0.04271 0.54040
 C114 C 0.44548 -0.02365 0.52304
 N115 N 0.47523 -0.02526 0.52509
 H116 H 0.48928 0.00476 0.43334
 H117 H 0.45994 0.04810 0.51473
 H118 H 0.42907 0.08197 0.48417
 H119 H 0.45819 0.03660 0.40115
 H120 H 0.51226 -0.04688 0.54416
 H121 H 0.48280 -0.08119 0.57583
 H122 H 0.40426 -0.04085 0.53880
 H123 H 0.43528 -0.00770 0.50786
 C124 C 0.55924 -0.06109 0.44009
 C125 C 0.55610 0.06258 0.56278
 C126 C 0.44107 -0.06365 0.56000
 C127 C 0.44087 0.06200 0.43999
 C128 C 0.53828 0.54769 0.01118
 H129 H 0.53801 0.54981 -0.01376
 C130 C 0.55572 0.56657 0.02895
 H131 H 0.56912 0.58300 0.01748
 C132 C 0.52135 0.52337 0.05632
 H133 H 0.50761 0.50685 0.06699
 C134 C 0.53856 0.54169 0.07496
 H135 H 0.53788 0.53900 0.09985
 N136 N 0.52191 0.52631 0.02499
 C137 C 0.51132 0.45550 -0.04309
 H138 H 0.48770 0.45313 -0.04299
 C139 C 0.52858 0.43677 -0.06150
 H140 H 0.51805 0.42023 -0.07585
 C141 C 0.55367 0.48011 -0.02455
 H142 H 0.56345 0.49665 -0.00975
 C143 C 0.57173 0.46195 -0.04267
 H144 H 0.59530 0.46477 -0.04159
 Zn145 Zn 0.49923 0.50132 -0.00086
 N146 N 0.52401 0.47689 -0.02541
 C147 C 0.47574 0.52293 -0.05754
 N148 N 0.47578 0.52600 -0.02621
 C149 C 0.45953 0.54743 -0.01198
 C150 C 0.44195 0.56655 -0.02933
 C151 C 0.45829 0.54142 -0.07578
 C152 C 0.48845 0.45553 0.04137
 C153 C 0.47167 0.43624 0.05932
 C154 C 0.42780 0.45891 0.03864
 C155 C 0.44542 0.47790 0.02124
 N156 N 0.47516 0.47611 0.02315
 H157 H 0.48912 0.50610 -0.06851
 H158 H 0.46031 0.54967 0.01295
 H159 H 0.42951 0.58369 -0.01750
 H160 H 0.45806 0.53807 -0.10060
 H161 H 0.51215 0.45419 0.04197
 H162 H 0.48261 0.41998 0.07367
 H163 H 0.40416 0.46094 0.03716
 H164 H 0.43525 0.49398 0.00618
 C165 C 0.55922 0.44002 -0.06158
 C166 C 0.55621 0.56350 0.06128
 C167 C 0.44091 0.43784 0.05811
 C168 C 0.44102 0.56361 -0.06172
 C169 C 0.18928 -0.19056 -0.19367
 C170 C 0.21046 -0.17782 -0.21319
 C171 C 0.22925 -0.19567 -0.23087
 C172 C 0.22755 -0.22669 -0.22912
 C173 C 0.20599 -0.23948 -0.21017
 C174 C 0.18713 -0.22163 -0.19254
 C175 C 0.16968 -0.17152 -0.17458
 N176 N 0.14789 -0.18351 -0.15720
 N177 N 0.13050 -0.16636 -0.13985
 C178 C 0.13421 -0.13649 -0.13909
 N179 N 0.15598 -0.12452 -0.15649
 N180 N 0.17332 -0.14165 -0.17387
 C181 C 0.11510 -0.11735 -0.11954
 C182 C 0.12064 -0.08680 -0.11690
 C183 C 0.10289 -0.06877 -0.09825
 C184 C 0.07911 -0.08081 -0.08189
 C185 C 0.07341 -0.11130 -0.08464
 C186 C 0.09125 -0.12939 -0.10320
 H187 H 0.21252 -0.15398 -0.21493
 H188 H 0.24489 -0.18489 -0.24588
 H189 H 0.20383 -0.26336 -0.20878
 H190 H 0.17097 -0.23222 -0.17791
 H191 H 0.13878 -0.07674 -0.12918
 H192 H 0.10760 -0.04528 -0.09690
 H193 H 0.05541 -0.12127 -0.07206
 H194 H 0.08635 -0.15282 -0.10468
 C195 C 0.18883 0.31073 0.30822
 C196 C 0.18619 0.27967 0.30898
 C197 C 0.20479 0.26174 0.29112
 C198 C 0.22639 0.27447 0.27232
 C199 C 0.22878 0.30540 0.27104
 C200 C 0.21028 0.32337 0.28893
 C201 C 0.16945 0.32986 0.32747
 N202 N 0.17340 0.35968 0.32841
 N203 N 0.15619 0.37688 0.34586
 C204 C 0.13425 0.36502 0.36313
 N205 N 0.13026 0.33520 0.36215
 N206 N 0.14750 0.31798 0.34472
 C207 C 0.11524 0.38422 0.38270
 C208 C 0.09132 0.37227 0.39900
 C209 C 0.07352 0.39043 0.41752
 C210 C 0.07930 0.42090 0.42027
 C211 C 0.10318 0.43285 0.40398
 C212 C 0.12091 0.41475 0.38537
 H213 H 0.16987 0.26917 0.32347
 H214 H 0.20240 0.23788 0.29209
 H215 H 0.24485 0.31584 0.25626
 H216 H 0.21279 0.34719 0.28756
 H217 H 0.08633 0.34887 0.39751
 H218 H 0.05545 0.38053 0.43006
 H219 H 0.10796 0.45632 0.40532
 H220 H 0.13910 0.42474 0.37312
 C221 C 0.68849 -0.18958 0.30831
 C222 C 0.70997 -0.17682 0.28913
 C223 C 0.72857 -0.19468 0.27123
 C224 C 0.72625 -0.22562 0.27239
 C225 C 0.70465 -0.23847 0.29110
 C226 C 0.68596 -0.22065 0.30897
 C227 C 0.66896 -0.17059 0.32753
 N228 N 0.64701 -0.18261 0.34466
 N229 N 0.62962 -0.16552 0.36206
 C230 C 0.63346 -0.13568 0.36311
 N231 N 0.65540 -0.12367 0.34597
 N232 N 0.67276 -0.14075 0.32854
 C233 C 0.61429 -0.11662 0.38266
 C234 C 0.61977 -0.08607 0.38540
 C235 C 0.60191 -0.06811 0.40402
 C236 C 0.57808 -0.08024 0.42025
 C237 C 0.57246 -0.11073 0.41740
 C238 C 0.59040 -0.12874 0.39888
 H239 H 0.71240 -0.15299 0.28784
 H240 H 0.74464 -0.18415 0.25652
 H241 H 0.70232 -0.26234 0.29198
 H242 H 0.66963 -0.23125 0.32337
 H243 H 0.63793 -0.07595 0.37322
 H244 H 0.60656 -0.04462 0.40543
 H245 H 0.55444 -0.12076 0.42989
 H246 H 0.58554 -0.15218 0.39732
 C247 C 0.68884 0.31060 -0.19196
 C248 C 0.68634 0.27953 -0.19112
 C249 C 0.70506 0.26163 -0.20888
 C250 C 0.72665 0.27441 -0.22766
 C251 C 0.72895 0.30534 -0.22898
 C252 C 0.71033 0.32327 -0.21119
 C253 C 0.66925 0.32970 -0.17293
 N254 N 0.67306 0.35954 -0.17210
 N255 N 0.65564 0.37673 -0.15487
 C256 C 0.63362 0.36485 -0.13775
 N257 N 0.62976 0.33500 -0.13862
 N258 N 0.64722 0.31779 -0.15582
 C259 C 0.61438 0.38405 -0.11843
 C260 C 0.59037 0.37208 -0.10229
 C261 C 0.57238 0.39023 -0.08397
 C262 C 0.57807 0.42072 -0.08126
 C263 C 0.60201 0.43270 -0.09742
 C264 C 0.61992 0.41461 -0.11584
 H265 H 0.67000 0.26899 -0.17668
 H266 H 0.70274 0.23776 -0.20789
 H267 H 0.74500 0.31581 -0.24374
 H268 H 0.71274 0.34710 -0.21262
 H269 H 0.58546 0.34865 -0.10374
 H270 H 0.55426 0.38032 -0.07153
 H271 H 0.60672 0.45619 -0.09611
 H272 H 0.63816 0.42461 -0.12797
 C273 C -0.18720 0.19187 -0.18986
 C274 C -0.18439 0.19195 -0.22229
 C275 C -0.20302 0.20936 -0.24039
 C276 C -0.22469 0.22706 -0.22647
 C277 C -0.22730 0.22747 -0.19415
 C278 C -0.20886 0.20986 -0.17599
 C279 C -0.16772 0.17309 -0.17065
 N280 N -0.17371 0.16853 -0.14022
 N281 N -0.15636 0.15141 -0.12303
 C282 C -0.13220 0.13823 -0.13551
 N283 N -0.12615 0.14287 -0.16591
 N284 N -0.14357 0.15989 -0.18313
 C285 C -0.11299 0.11903 -0.11645
 C286 C -0.08536 0.10989 -0.12753
 C287 C -0.06732 0.09164 -0.10963
 C288 C -0.07657 0.08186 -0.08032
 C289 C -0.10423 0.09101 -0.06927
 C290 C -0.12216 0.10947 -0.08705
 H291 H -0.16797 0.17836 -0.23373
 H292 H -0.20056 0.20895 -0.26534
 H293 H -0.24350 0.24131 -0.18279
 H294 H -0.21145 0.21052 -0.15107
 H295 H -0.07752 0.11703 -0.14997
 H296 H -0.04596 0.08548 -0.11865
 H297 H -0.11228 0.08352 -0.04705
 H298 H -0.14340 0.11592 -0.07790
 C299 C -0.18757 0.69212 0.31039
 C300 C -0.20925 0.71015 0.32417
 C301 C -0.22770 0.72766 0.30593
 C302 C -0.22509 0.72713 0.27361
 C303 C -0.20342 0.70937 0.25977
 C304 C -0.18477 0.69205 0.27796
 C305 C -0.16806 0.67348 0.32971
 N306 N -0.14384 0.66032 0.31734
 N307 N -0.12637 0.64347 0.33468
 C308 C -0.13244 0.63897 0.36510
 N309 N -0.15667 0.65211 0.37747
 N310 N -0.17407 0.66906 0.36016
 C311 C -0.11317 0.61997 0.38432
 C312 C -0.12237 0.61049 0.41373
 C313 C -0.10438 0.59223 0.43167
 C314 C -0.07663 0.58321 0.42076
 C315 C -0.06734 0.59293 0.39144
 C316 C -0.08544 0.61098 0.37339
 H317 H -0.21184 0.71092 0.34908
 H318 H -0.24389 0.74155 0.31724
 H319 H -0.20095 0.70887 0.23482
 H320 H -0.16833 0.67843 0.26658
 H321 H -0.14368 0.61684 0.42277
 H322 H -0.11246 0.58478 0.45389
 H323 H -0.04591 0.58687 0.38253
 H324 H -0.07758 0.61807 0.35094
 C325 C 0.31232 0.19198 0.31057
 C326 C 0.31525 0.19198 0.27815
 C327 C 0.29671 0.20939 0.25991
 C328 C 0.27502 0.22716 0.27371
 C329 C 0.27231 0.22766 0.30602
 C330 C 0.29065 0.21006 0.32430
 C331 C 0.33164 0.17317 0.32991
 N332 N 0.32544 0.16864 0.36030
 N333 N 0.34265 0.15148 0.37762
 C334 C 0.36685 0.13823 0.36531
 N335 N 0.37310 0.14285 0.33495
 N336 N 0.35583 0.15990 0.31760
 C337 C 0.38589 0.11900 0.38452
 C338 C 0.41361 0.10988 0.37369
 C339 C 0.43150 0.09161 0.39174
 C340 C 0.42201 0.08180 0.42096
 C341 C 0.39426 0.09095 0.43176
 C342 C 0.37648 0.10942 0.41383
 H343 H 0.33168 0.17833 0.26680
 H344 H 0.29925 0.20891 0.23498
 H345 H 0.25610 0.24155 0.31729
 H346 H 0.28797 0.21079 0.34920
 H347 H 0.42163 0.11704 0.35133
 H348 H 0.45294 0.08547 0.38291
 H349 H 0.38602 0.08343 0.45390
 H350 H 0.35517 0.11587 0.42279
 C351 C 0.31206 0.69361 -0.19067
 C352 C 0.29080 0.71208 -0.17684
 C353 C 0.27224 0.72953 -0.19503
 C354 C 0.27421 0.72847 -0.22746
 C355 C 0.29572 0.71037 -0.24129
 C356 C 0.31446 0.69314 -0.22312
 C357 C 0.33152 0.67489 -0.17139
 N358 N 0.35548 0.66135 -0.18388
 N359 N 0.37282 0.64432 -0.16659
 C360 C 0.36688 0.63999 -0.13611
 N361 N 0.34291 0.65352 -0.12363
 N362 N 0.32563 0.67065 -0.14088
 C363 C 0.38597 0.62074 -0.11697
 C364 C 0.37670 0.61130 -0.08757
 C365 C 0.39451 0.59278 -0.06971
 C366 C 0.42214 0.58346 -0.08068
 C367 C 0.43149 0.59314 -0.11000
 C368 C 0.41357 0.61144 -0.12798
 H369 H 0.28861 0.71324 -0.15190
 H370 H 0.25655 0.74377 -0.18343
 H371 H 0.29798 0.70939 -0.26626
 H372 H 0.33062 0.67922 -0.23453
 H373 H 0.35548 0.61788 -0.07848
 H374 H 0.38637 0.58537 -0.04749
 H375 H 0.45284 0.58686 -0.11896
 H376 H 0.42147 0.61849 -0.15043
 C377 C -0.18627 -0.19314 0.18728
 C378 C -0.20753 -0.21137 0.17341
 C379 C -0.22633 -0.22849 0.19159
 C380 C -0.22447 -0.22743 0.22394
 C381 C -0.20306 -0.20968 0.23789
 C382 C -0.18413 -0.19265 0.21976
 C383 C -0.16662 -0.17465 0.16800
 N384 N -0.14405 -0.15946 0.18094
 N385 N -0.12663 -0.14258 0.16364
 C386 C -0.13106 -0.14011 0.13266
 N387 N -0.15361 -0.15533 0.11973
 N388 N -0.17099 -0.17226 0.13701
 C389 C -0.11197 -0.12095 0.11346
 C390 C -0.11893 -0.11538 0.08231
 C391 C -0.10130 -0.09684 0.06438
 C392 C -0.07620 -0.08359 0.07710
 C393 C -0.06903 -0.08938 0.10811
 C394 C -0.08677 -0.10776 0.12613
 H395 H -0.20963 -0.21251 0.14848
 H396 H -0.24221 -0.24249 0.18019
 H397 H -0.20108 -0.20888 0.26286
 H398 H -0.16798 -0.17895 0.23124
 H399 H -0.13815 -0.12517 0.07178
 H400 H -0.10716 -0.09305 0.04043
 H401 H -0.04997 -0.07923 0.11861
 H402 H -0.08074 -0.11158 0.15002
 C403 C -0.18592 0.30710 0.68752
 C404 C -0.18375 0.30739 0.71999
 C405 C -0.20265 0.29025 0.73802
 C406 C -0.22407 0.27257 0.72398
 C407 C -0.22596 0.27169 0.69163
 C408 C -0.20718 0.28894 0.67355
 C409 C -0.16633 0.32578 0.66836
 N410 N -0.17069 0.32836 0.63739
 N411 N -0.15337 0.34549 0.62025
 C412 C -0.13090 0.36073 0.63332
 N413 N -0.12647 0.35805 0.66427
 N414 N -0.14383 0.34098 0.68143
 C415 C -0.11188 0.38012 0.61429
 C416 C -0.08680 0.39338 0.62713
 C417 C -0.06912 0.41198 0.60929
 C418 C -0.07621 0.41789 0.57828
 C419 C -0.10120 0.40457 0.56539
 C420 C -0.11878 0.38582 0.58316
 H421 H -0.16760 0.32103 0.73155
 H422 H -0.20065 0.29092 0.76300
 H423 H -0.24186 0.25777 0.68017
 H424 H -0.20930 0.28796 0.64860
 H425 H -0.08082 0.38947 0.65102
 H426 H -0.05015 0.42217 0.61991
 H427 H -0.10701 0.40845 0.54145
 H428 H -0.13790 0.37597 0.57250
 C429 C 0.31344 -0.19473 0.68847
 C430 C 0.31522 -0.19396 0.72094
 C431 C 0.29617 -0.21090 0.73901
 C432 C 0.27483 -0.22886 0.72504
 C433 C 0.27358 -0.23034 0.69260
 C434 C 0.29252 -0.21328 0.67452
 C435 C 0.33306 -0.17614 0.66925
 N436 N 0.32887 -0.17388 0.63823
 N437 N 0.34614 -0.15676 0.62103
 C438 C 0.36841 -0.14121 0.63409
 N439 N 0.37268 -0.14357 0.66510
 N440 N 0.35536 -0.16063 0.68232
 C441 C 0.38734 -0.12179 0.61499
 C442 C 0.41233 -0.10832 0.62778
 C443 C 0.42991 -0.08968 0.60986
 C444 C 0.42278 -0.08393 0.57883
 C445 C 0.39788 -0.09746 0.56599
 C446 C 0.38042 -0.11626 0.58383
 H447 H 0.33115 -0.18005 0.73248
 H448 H 0.29798 -0.20971 0.76400
 H449 H 0.25816 -0.24461 0.68090
 H450 H 0.29080 -0.21472 0.64957
 H451 H 0.41833 -0.11211 0.65168
 H452 H 0.44882 -0.07933 0.62044
 H453 H 0.39205 -0.09371 0.54203
 H454 H 0.36135 -0.12627 0.57321
 C455 C 0.31362 0.30696 0.18718
 C456 C 0.29237 0.28869 0.17334
 C457 C 0.27368 0.27147 0.19155
 C458 C 0.27563 0.27248 0.22389
 C459 C 0.29707 0.29024 0.23780
 C460 C 0.31589 0.30736 0.21965
 C461 C 0.33309 0.32563 0.16788
 N462 N 0.35562 0.34090 0.18078
 N463 N 0.37286 0.35798 0.16349
 C464 C 0.36826 0.36058 0.13255
 N465 N 0.34576 0.34527 0.11964
 N466 N 0.32856 0.32814 0.13692
 C467 C 0.38715 0.37996 0.11336
 C468 C 0.38004 0.38564 0.08228
 C469 C 0.39751 0.40435 0.06436
 C470 C 0.42259 0.41767 0.07703
 C471 C 0.42990 0.41179 0.10799
 C472 C 0.41232 0.39323 0.12599
 H473 H 0.29019 0.28761 0.14841
 H474 H 0.25779 0.25747 0.18018
 H475 H 0.29912 0.29102 0.26277
 H476 H 0.33203 0.32108 0.23110
 H477 H 0.36083 0.37579 0.07178
 H478 H 0.39153 0.40821 0.04045
 H479 H 0.44895 0.42198 0.11845
 H480 H 0.41847 0.38933 0.14984
 C481 C 0.18832 0.19047 0.18968
 C482 C 0.20875 0.17753 0.20999
 C483 C 0.22754 0.19523 0.22756
 C484 C 0.22633 0.22618 0.22513
 C485 C 0.20571 0.23924 0.20535
 C486 C 0.18699 0.22157 0.18762
 C487 C 0.16857 0.17162 0.17086
 N488 N 0.15081 0.18371 0.14903
 N489 N 0.13324 0.16669 0.13200
 C490 C 0.13263 0.13685 0.13612
 N491 N 0.15036 0.12478 0.15799
 N492 N 0.16796 0.14178 0.17496
 C493 C 0.11322 0.11782 0.11709
 C494 C 0.11074 0.08736 0.12337
 C495 C 0.09261 0.06934 0.10536
 C496 C 0.07665 0.08130 0.08056
 C497 C 0.07908 0.11174 0.07424
 C498 C 0.09709 0.12982 0.09236
 H499 H 0.21031 0.15368 0.21228
 H500 H 0.24284 0.18459 0.24309
 H501 H 0.20419 0.26314 0.20354
 H502 H 0.17141 0.23231 0.17240
 H503 H 0.12283 0.07735 0.14221
 H504 H 0.09145 0.04590 0.11055
 H505 H 0.06679 0.12163 0.05547
 H506 H 0.09846 0.15318 0.08688
 C507 C 0.18883 0.69183 0.69134
 C508 C 0.20909 0.67877 0.71172
 C509 C 0.22816 0.69630 0.72914
 C510 C 0.22752 0.72731 0.72644
 C511 C 0.20686 0.74045 0.70666
 C512 C 0.18788 0.72291 0.68910
 C513 C 0.16887 0.67310 0.67263
 N514 N 0.15124 0.68528 0.65072
 N515 N 0.13353 0.66836 0.63375
 C516 C 0.13264 0.63854 0.63800
 N517 N 0.15021 0.62639 0.65995
 N518 N 0.16796 0.64329 0.67687
 C519 C 0.11310 0.61961 0.61900
 C520 C 0.11042 0.58918 0.62534
 C521 C 0.09225 0.57123 0.60732
 C522 C 0.07642 0.58323 0.58244
 C523 C 0.07903 0.61364 0.57607
 C524 C 0.09710 0.63165 0.59421
 H525 H 0.21030 0.65492 0.71422
 H526 H 0.24312 0.68532 0.74477
 H527 H 0.20548 0.76436 0.70459
 H528 H 0.17238 0.73374 0.67386
 H529 H 0.12241 0.57913 0.64423
 H530 H 0.09095 0.54780 0.61255
 H531 H 0.06686 0.62357 0.55724
 H532 H 0.09862 0.65499 0.58867
 C533 C 0.68828 0.19069 0.68977
 C534 C 0.70875 0.17768 0.70998
 C535 C 0.72767 0.19532 0.72747
 C536 C 0.72657 0.22627 0.72503
 C537 C 0.70596 0.23940 0.70529
 C538 C 0.68710 0.22179 0.68765
 C539 C 0.66831 0.17190 0.67115
 N540 N 0.65042 0.18405 0.64945
 N541 N 0.63261 0.16709 0.63265
 C542 C 0.63186 0.13726 0.63686
 N543 N 0.64970 0.12514 0.65859
 N544 N 0.66755 0.14208 0.67534
 C545 C 0.61217 0.11829 0.61808
 C546 C 0.60960 0.08786 0.62446
 C547 C 0.59125 0.06989 0.60666
 C548 C 0.57515 0.08187 0.58196
 C549 C 0.57766 0.11228 0.57557
 C550 C 0.59589 0.13032 0.59348
 H551 H 0.71021 0.15383 0.71231
 H552 H 0.74297 0.18463 0.74296
 H553 H 0.70452 0.26330 0.70347
 H554 H 0.67150 0.23258 0.67249
 H555 H 0.62180 0.07784 0.64321
 H556 H 0.59004 0.04646 0.61190
 H557 H 0.56527 0.12219 0.55688
 H558 H 0.59732 0.15366 0.58793
 C559 C 0.68798 0.69089 0.18954
 C560 C 0.70843 0.67780 0.20972
 C561 C 0.72732 0.69538 0.22732
 C562 C 0.72618 0.72634 0.22502
 C563 C 0.70557 0.73953 0.20534
 C564 C 0.68675 0.72200 0.18758
 C565 C 0.66809 0.67218 0.17073
 N566 N 0.65028 0.68443 0.14904
 N567 N 0.63254 0.66756 0.13204
 C568 C 0.63181 0.63771 0.13606
 N569 N 0.64958 0.62547 0.15779
 N570 N 0.66735 0.64233 0.17473
 C571 C 0.61219 0.61885 0.11708
 C572 C 0.60958 0.58838 0.12327
 C573 C 0.59127 0.57052 0.10529
 C574 C 0.57527 0.58265 0.08061
 C575 C 0.57783 0.61309 0.07439
 C576 C 0.59602 0.63101 0.09248
 H577 H 0.70992 0.65394 0.21192
 H578 H 0.74263 0.68464 0.24277
 H579 H 0.70411 0.76345 0.20362
 H580 H 0.67117 0.73284 0.17246
 H581 H 0.62170 0.57825 0.14201
 H582 H 0.59002 0.54707 0.11040
 H583 H 0.56552 0.62311 0.05571
 H584 H 0.59748 0.65438 0.08707
   
