data_POSCAR
  _audit_creation_date              2014-09-24
  _audit_creation_method            'ToBaCCo'
  _symmetry_space_group_name_H-M    'P1'
  _symmetry_Int_Tables_number       1
  _symmetry_cell_setting            triclinic
  loop_
  _symmetry_equiv_pos_as_xyz
 x,y,z
_cell_length_a 29.3334
_cell_length_b 29.6924
_cell_length_c 29.5458
_cell_angle_alpha 91.903500
_cell_angle_beta 90.116800
_cell_angle_gamma 91.828900
loop_
  _atom_site_label
  _atom_site_type_symbol
  _atom_site_fract_x
  _atom_site_fract_y
  _atom_site_fract_z
C1 C 0.03608 0.44516 0.18409
 H2 H 0.06529 0.46836 0.18422
 C3 C 0.03900 0.40253 0.16308
 H4 H 0.07020 0.39494 0.14542
 C5 C -0.03951 0.42838 0.20720
 H6 H -0.06947 0.43783 0.22599
 C7 C -0.03824 0.38547 0.18654
 H8 H -0.06766 0.36319 0.19075
 N9 N -0.00243 0.45693 0.20628
 C10 C 0.00132 0.60222 0.23355
 H11 H -0.00567 0.60172 0.26947
 C12 C 0.00522 0.64322 0.21208
 H13 H 0.00030 0.67412 0.23169
 C14 C 0.01440 0.56197 0.16442
 H15 H 0.01774 0.53015 0.14608
 C16 C 0.01879 0.60235 0.14153
 H17 H 0.02594 0.60117 0.10560
 Zn18 Zn -0.00033 0.51005 0.24348
 N19 N 0.00603 0.56274 0.20967
 C20 C 0.08600 0.53731 0.27766
 N21 N 0.05144 0.50599 0.28123
 C22 C 0.05647 0.46857 0.30589
 C23 C 0.09789 0.46123 0.32757
 C24 C 0.12785 0.53126 0.29858
 C25 C -0.09193 0.52588 0.25056
 C26 C -0.13516 0.52835 0.26964
 C27 C -0.10331 0.50750 0.34115
 C28 C -0.06030 0.50588 0.32067
 N29 N -0.05571 0.51423 0.27589
 H30 H 0.08200 0.56626 0.25705
 H31 H 0.02895 0.44349 0.30708
 H32 H 0.10179 0.43068 0.34603
 H33 H 0.15496 0.55650 0.29502
 H34 H -0.08719 0.53274 0.21512
 H35 H -0.16330 0.53789 0.24863
 H36 H -0.10671 0.49916 0.37640
 H37 H -0.03095 0.49700 0.34025
 C38 C 0.01407 0.64374 0.16543
 C39 C 0.00196 0.37096 0.16502
 C40 C -0.14162 0.51821 0.31531
 C41 C 0.13451 0.49246 0.32325
 C42 C 0.03581 0.57357 0.80018
 H43 H 0.06799 0.56056 0.78897
 C44 C 0.03483 0.61687 0.82003
 H45 H 0.06658 0.63604 0.82483
 C46 C -0.04437 0.56467 0.80676
 H47 H -0.07527 0.54467 0.80008
 C48 C -0.04696 0.60808 0.82644
 H49 H -0.08012 0.62088 0.83491
 N50 N -0.00349 0.54871 0.79316
 C51 C 0.00732 0.40426 0.76336
 H52 H 0.01738 0.40703 0.72834
 C53 C 0.00665 0.36235 0.78308
 H54 H 0.01602 0.33299 0.76289
 C55 C -0.01799 0.43936 0.83161
 H56 H -0.02743 0.46964 0.85019
 C57 C -0.01963 0.39769 0.85269
 H58 H -0.03009 0.39610 0.88773
 Zn59 Zn -0.00172 0.49580 0.75516
 N60 N -0.00482 0.44171 0.78760
 C61 C 0.09036 0.47848 0.74551
 N62 N 0.05461 0.49672 0.72405
 C63 C 0.05988 0.51599 0.68318
 C64 C 0.10267 0.51732 0.66234
 C65 C 0.13333 0.47839 0.72561
 C66 C -0.07860 0.45766 0.70827
 C67 C -0.11867 0.45802 0.68284
 C68 C -0.10349 0.53683 0.66986
 C69 C -0.06319 0.53458 0.69495
 N70 N -0.05193 0.49561 0.71428
 H71 H 0.08558 0.46433 0.77847
 H72 H 0.03111 0.53065 0.66696
 H73 H 0.10661 0.53280 0.62985
 H74 H 0.16144 0.46396 0.74332
 H75 H -0.06995 0.42711 0.72456
 H76 H -0.13940 0.42728 0.68186
 H77 H -0.11007 0.56857 0.65465
 H78 H -0.04151 0.56447 0.70021
 C79 C -0.00692 0.35859 0.82827
 C80 C -0.00706 0.63530 0.83235
 C81 C -0.13314 0.49837 0.66385
 C82 C 0.13989 0.49813 0.68363
 C83 C 0.19215 0.03248 0.43941
 H84 H 0.19563 0.06091 0.46316
 C85 C 0.16834 0.03671 0.39879
 H86 H 0.15291 0.06837 0.39167
 C87 C 0.20957 -0.04287 0.41886
 H88 H 0.22665 -0.07348 0.42599
 C89 C 0.18585 -0.04025 0.37825
 H90 H 0.18515 -0.06897 0.35465
 N91 N 0.21255 -0.00676 0.44839
 C92 C 0.23859 -0.02730 0.59024
 H93 H 0.27309 -0.03869 0.58659
 C94 C 0.21795 -0.02708 0.63253
 H95 H 0.23656 -0.03921 0.66113
 C96 C 0.17285 0.00258 0.55710
 H97 H 0.15578 0.01454 0.52758
 C98 C 0.15087 0.00361 0.59910
 H99 H 0.11695 0.01678 0.60170
 Zn100 Zn 0.25049 -0.00995 0.49984
 N101 N 0.21626 -0.01197 0.55376
 C102 C 0.29328 0.06594 0.54292
 N103 N 0.28994 0.04196 0.50296
 C104 C 0.31035 0.05727 0.46485
 C105 C 0.33380 0.09915 0.46576
 C106 C 0.31655 0.10754 0.54542
 C107 C 0.25891 -0.10194 0.50554
 C108 C 0.27977 -0.14337 0.50421
 C109 C 0.34983 -0.10566 0.48132
 C110 C 0.32763 -0.06466 0.48359
 N111 N 0.28294 -0.06369 0.49549
 H112 H 0.27677 0.05362 0.57286
 H113 H 0.30669 0.03789 0.43333
 H114 H 0.34809 0.11174 0.43471
 H115 H 0.31830 0.12610 0.57758
 H116 H 0.22340 -0.10008 0.51500
 H117 H 0.26014 -0.17306 0.51367
 H118 H 0.38524 -0.10593 0.47115
 H119 H 0.34595 -0.03375 0.47569
 C120 C 0.17393 -0.01055 0.63763
 C121 C 0.16542 0.00008 0.36747
 C122 C 0.32585 -0.14576 0.49196
 C123 C 0.33611 0.12534 0.50630
 C124 C 0.81490 0.03716 0.56202
 H125 H 0.82378 0.06192 0.53721
 C126 C 0.83705 0.03845 0.60406
 H127 H 0.86378 0.06376 0.61082
 C128 C 0.76889 -0.02552 0.58352
 H129 H 0.74138 -0.04967 0.57621
 C130 C 0.78962 -0.02512 0.62590
 H131 H 0.77754 -0.04906 0.65035
 N132 N 0.78183 0.00512 0.55241
 C133 C 0.76211 -0.00768 0.40638
 H134 H 0.72526 -0.01061 0.40725
 C135 C 0.78467 -0.01093 0.36514
 H136 H 0.76390 -0.01486 0.33493
 C137 C 0.83198 0.00388 0.44582
 H138 H 0.85021 0.00882 0.47749
 C139 C 0.85616 0.00112 0.40512
 H140 H 0.89298 0.00322 0.40689
 Zn141 Zn 0.74855 0.00433 0.49746
 N142 N 0.78573 0.00035 0.44551
 C143 C 0.72245 0.08573 0.46125
 N144 N 0.71470 0.05740 0.49583
 C145 C 0.68626 0.06851 0.53047
 C146 C 0.66471 0.10994 0.53136
 C147 C 0.70154 0.12708 0.46066
 C148 C 0.73580 -0.08626 0.48869
 C149 C 0.71403 -0.12842 0.48840
 C150 C 0.64227 -0.09202 0.50063
 C151 C 0.66558 -0.05018 0.50030
 N152 N 0.71161 -0.04835 0.49503
 H153 H 0.74584 0.07702 0.43449
 H154 H 0.68135 0.04576 0.55802
 H155 H 0.64323 0.11889 0.55981
 H156 H 0.70826 0.14894 0.43267
 H157 H 0.77240 -0.08359 0.48446
 H158 H 0.73409 -0.15807 0.48284
 H159 H 0.60577 -0.09325 0.50609
 H160 H 0.64716 -0.01945 0.50515
 C161 C 0.83262 -0.00600 0.36348
 C162 C 0.82427 0.00705 0.63678
 C163 C 0.66679 -0.13181 0.49515
 C164 C 0.67290 0.14010 0.49639
 C165 C 0.56450 0.17720 1.00372
 H166 H 0.53328 0.15687 1.00206
 C167 C 0.60632 0.15663 1.00934
 H168 H 0.60697 0.12034 1.01161
 C169 C 0.60188 0.24909 1.00203
 H170 H 0.59966 0.28522 0.99951
 C171 C 0.64424 0.23001 1.00748
 H172 H 0.67453 0.25181 1.00945
 N173 N 0.56312 0.22273 1.00068
 C174 C 0.42956 0.21710 0.95123
 H175 H 0.43972 0.23812 0.92367
 C176 C 0.38732 0.19428 0.94918
 H177 H 0.36748 0.19675 0.91856
 C178 C 0.44404 0.18888 1.02358
 H179 H 0.46577 0.18833 1.05318
 C180 C 0.40192 0.16543 1.02305
 H181 H 0.39230 0.14764 1.05306
 Zn182 Zn 0.50841 0.25406 0.99499
 N183 N 0.45664 0.21470 0.98834
 C184 C 0.52650 0.26431 0.90460
 N185 N 0.51470 0.28866 0.94230
 C186 C 0.50765 0.33366 0.94067
 C187 C 0.51090 0.35541 0.89932
 C188 C 0.53017 0.28456 0.86286
 C189 C 0.52573 0.28015 1.08551
 C190 C 0.51639 0.29925 1.12805
 C191 C 0.45310 0.33697 1.09536
 C192 C 0.46322 0.31645 1.05333
 N193 N 0.49925 0.28883 1.04914
 H194 H 0.53202 0.22860 0.90689
 H195 H 0.49903 0.35261 0.97114
 H196 H 0.50492 0.39116 0.89844
 H197 H 0.53808 0.26393 0.83319
 H198 H 0.55321 0.25696 1.08213
 H199 H 0.53780 0.29172 1.15656
 H200 H 0.42421 0.35867 1.09837
 H201 H 0.44160 0.32155 1.02437
 C202 C 0.37174 0.16895 0.98603
 C203 C 0.64690 0.18321 1.01144
 C204 C 0.47952 0.32777 1.13347
 C205 C 0.52198 0.33066 0.85960
 C206 C 0.42396 0.80196 0.96695
 H207 H 0.44952 0.80557 0.94087
 C208 C 0.38056 0.81923 0.96074
 H209 H 0.37399 0.83550 0.92932
 C210 C 0.40156 0.77253 1.03709
 H211 H 0.40919 0.75349 1.06646
 C212 C 0.35791 0.78901 1.03234
 H213 H 0.33441 0.78398 1.05996
 N214 N 0.43370 0.77920 1.00475
 C215 C 0.58104 0.77423 1.02478
 H216 H 0.58124 0.73957 1.03493
 C217 C 0.62166 0.79974 1.02442
 H218 H 0.65292 0.78417 1.03416
 C219 C 0.54004 0.83541 0.99781
 H220 H 0.50813 0.84905 0.98736
 C221 C 0.58024 0.86228 0.99675
 H222 H 0.57883 0.89664 0.98580
 Zn223 Zn 0.49063 0.75061 1.01022
 N224 N 0.54138 0.79199 1.01110
 C225 C 0.53440 0.71207 0.93361
 N226 N 0.49608 0.71019 0.95946
 C227 C 0.45956 0.68320 0.94689
 C228 C 0.46027 0.65772 0.90618
 C229 C 0.53683 0.68666 0.89318
 C230 C 0.49138 0.74672 1.10411
 C231 C 0.49152 0.72763 1.14660
 C232 C 0.49600 0.65406 1.10971
 C233 C 0.49499 0.67459 1.06769
 N234 N 0.49217 0.72015 1.06574
 H235 H 0.56276 0.73431 0.94341
 H236 H 0.42924 0.68276 0.96768
 H237 H 0.43058 0.63719 0.89605
 H238 H 0.56717 0.68963 0.87252
 H239 H 0.48991 0.78291 1.10156
 H240 H 0.49029 0.74932 1.17674
 H241 H 0.49763 0.61773 1.11091
 H242 H 0.49626 0.65419 1.03674
 C243 C 0.62181 0.84434 1.01005
 C244 C 0.34604 0.81251 0.99346
 C245 C 0.49362 0.68072 1.14979
 C246 C 0.49918 0.65968 0.87859
 B247 B 1.00517 1.04925 0.03223
 B248 B 1.00145 1.05079 -0.02633
 B249 B 1.04983 1.02996 -0.00037
 B250 B 1.03209 1.00007 0.04600
 B251 B 0.97413 1.00223 0.04922
 B252 B 0.95461 1.03374 0.00575
 B253 B 0.99450 0.95669 -0.03242
 B254 B 0.99836 0.95433 0.02579
 B255 B 0.94968 0.97589 0.00075
 B256 B 0.96831 1.00541 -0.04591
 B257 B 1.02667 1.00297 -0.04864
 B258 B 1.04521 0.97128 -0.00509
 B259 B 0.54469 0.49920 0.46904
 B260 B 0.54838 0.49968 0.52730
 B261 B 0.52797 0.54638 0.50053
 B262 B 0.49560 0.52650 0.45472
 B263 B 0.49524 0.46849 0.45235
 B264 B 0.52812 0.45125 0.49775
 B265 B 0.45283 0.49640 0.53282
 B266 B 0.44894 0.49575 0.47460
 B267 B 0.47001 0.44908 0.50159
 B268 B 0.50201 0.46929 0.54734
 B269 B 0.50160 0.52736 0.55015
 B270 B 0.46927 0.54418 0.50420
 C271 C 1.01217 1.23489 0.11826
 C272 C 1.05183 1.26069 0.12926
 C273 C 1.04850 1.30563 0.14378
 C274 C 1.00570 1.32576 0.14801
 C275 C 0.96687 1.29843 0.13629
 N276 N 0.97116 1.25478 0.12201
 C277 C 1.01295 1.18692 0.10214
 N278 N 0.97299 1.16288 0.09825
 C279 C 0.97033 1.11994 0.08077
 C280 C 1.00883 1.09826 0.06241
 C281 C 1.05040 1.12071 0.07395
 C282 C 1.05302 1.16480 0.09164
 H283 H 1.07980 1.32344 0.15380
 H284 H 0.93299 1.31164 0.13693
 H285 H 0.93838 1.10226 0.08474
 H286 H 1.08204 1.10558 0.06966
 H287 H 1.08534 1.24678 0.12779
 H288 H 1.08639 1.18061 0.09646
 C289 C 1.01271 0.77091 0.10138
 C290 C 0.99553 0.73188 0.07813
 C291 C 0.99697 0.69033 0.09852
 C292 C 1.01606 0.68717 0.14180
 C293 C 1.03498 0.72664 0.16294
 N294 N 1.03267 0.76694 0.14261
 C295 C 1.00861 0.81622 0.08263
 N296 N 1.03960 0.84962 0.09398
 C297 C 1.03712 0.89194 0.07783
 C298 C 1.00061 0.90440 0.04955
 C299 C 0.97170 0.86817 0.03524
 C300 C 0.97399 0.82538 0.05235
 H301 H 0.98188 0.66096 0.08090
 H302 H 1.05112 0.72559 0.19584
 H303 H 1.06667 0.91384 0.08302
 H304 H 0.94760 0.87130 0.00930
 H305 H 0.98088 0.73315 0.04460
 H306 H 0.94885 0.79991 0.04130
 C307 C 0.98986 1.22679 -0.11714
 C308 C 0.95364 1.25562 -0.10800
 C309 C 0.95502 1.29910 -0.12486
 C310 C 0.99220 1.31378 -0.15091
 C311 C 1.02798 1.28418 -0.15857
 N312 N 1.02603 1.24222 -0.14158
 C313 C 0.99101 1.18088 -0.09923
 N314 N 1.03168 1.16100 -0.09512
 C315 C 1.03567 1.12022 -0.07615
 C316 C 0.99834 1.09804 -0.05542
 C317 C 0.95586 1.11383 -0.06984
 C318 C 0.95160 1.15581 -0.08905
 H319 H 0.92670 1.32088 -0.11829
 H320 H 1.05759 1.29444 -0.17794
 H321 H 1.06811 1.10589 -0.07852
 H322 H 0.92518 1.09314 -0.06728
 H323 H 0.92487 1.24510 -0.08761
 H324 H 0.91804 1.16747 -0.09702
 C325 C 0.98637 0.77361 -0.12087
 C326 C 0.95651 0.74089 -0.10282
 C327 C 0.95879 0.69591 -0.11775
 C328 C 0.99079 0.68308 -0.15060
 C329 C 1.02037 0.71686 -0.16742
 N330 N 1.01760 0.76047 -0.15222
 C331 C 0.98586 0.82154 -0.10502
 N332 N 1.02493 0.84731 -0.10516
 C333 C 1.02750 0.88998 -0.08668
 C334 C 0.98980 0.90935 -0.06429
 C335 C 0.94832 0.88429 -0.06939
 C336 C 0.94617 0.84092 -0.08881
 H337 H 0.93599 0.67109 -0.10298
 H338 H 1.04524 0.70883 -0.19318
 H339 H 1.05960 0.90808 -0.08934
 H340 H 0.91736 0.89514 -0.05446
 H341 H 0.93231 0.74959 -0.07661
 H342 H 0.91375 0.82245 -0.08985
 C343 C 1.11107 1.00669 0.23380
 C344 C 1.13612 1.04392 0.25258
 C345 C 1.15252 1.04249 0.29685
 C346 C 1.14393 1.00422 0.32247
 C347 C 1.11725 0.96853 0.30306
 N348 N 1.10177 0.97063 0.25987
 C349 C 1.09413 1.00532 0.18663
 N350 N 1.05799 0.97780 0.17545
 C351 C 1.04030 0.97459 0.13299
 C352 C 1.05868 0.99958 0.09661
 C353 C 1.09682 1.02755 0.10902
 C354 C 1.11461 1.03041 0.15284
 H355 H 1.17309 1.07069 0.31053
 H356 H 1.10921 0.93873 0.32199
 H357 H 1.01090 0.95262 0.12873
 H358 H 1.11391 1.04890 0.08669
 H359 H 1.14307 1.07384 0.23354
 H360 H 1.14436 1.05205 0.15971
 C361 C 1.11556 1.00012 -0.23007
 C362 C 1.16207 1.01074 -0.23622
 C363 C 1.18071 1.00772 -0.27940
 C364 C 1.15351 0.99361 -0.31665
 C365 C 1.10718 0.98318 -0.30918
 N366 N 1.08968 0.98642 -0.26663
 C367 C 1.09432 1.00213 -0.18474
 N368 N 1.05580 0.97707 -0.17725
 C369 C 1.03496 0.97654 -0.13626
 C370 C 1.05232 1.00246 -0.09854
 C371 C 1.09184 1.02897 -0.10701
 C372 C 1.11258 1.02922 -0.14925
 H373 H 1.21650 1.01660 -0.28363
 H374 H 1.08513 0.97170 -0.33691
 H375 H 1.00385 0.95665 -0.13426
 H376 H 1.10903 1.04867 -0.08107
 H377 H 1.18434 1.02041 -0.20813
 H378 H 1.14251 1.05082 -0.15363
 C379 C 0.89724 0.99735 0.23577
 C380 C 0.91918 1.01766 0.27380
 C381 C 0.89858 1.01558 0.31616
 C382 C 0.85581 0.99327 0.32128
 C383 C 0.83629 0.97154 0.28222
 N384 N 0.85713 0.97417 0.24136
 C385 C 0.91661 1.00008 0.18981
 N386 N 0.90787 0.96601 0.15899
 C387 C 0.92497 0.96629 0.11625
 C388 C 0.95141 1.00283 0.10056
 C389 C 0.96398 1.03572 0.13443
 C390 C 0.94558 1.03571 0.17769
 H391 H 0.91554 1.03362 0.34410
 H392 H 0.80497 0.95151 0.28383
 H393 H 0.92246 0.93591 0.09713
 H394 H 0.99228 1.05871 0.13058
 H395 H 0.95196 1.03510 0.27116
 H396 H 0.95549 1.06267 0.20156
 C397 C 0.88299 1.01000 -0.23034
 C398 C 0.87722 1.05058 -0.25239
 C399 C 0.85846 1.04968 -0.29580
 C400 C 0.84560 1.00845 -0.31749
 C401 C 0.85193 0.96859 -0.29405
 N402 N 0.87000 0.97036 -0.25163
 C403 C 0.90378 1.00951 -0.18492
 N404 N 0.89095 0.97735 -0.15561
 C405 C 0.90960 0.97515 -0.11352
 C406 C 0.94287 1.00722 -0.09696
 C407 C 0.95924 1.03693 -0.13041
 C408 C 0.93922 1.03950 -0.17273
 H409 H 0.85318 1.08132 -0.31190
 H410 H 0.84303 0.93596 -0.30953
 H411 H 0.89781 0.94789 -0.09408
 H412 H 0.99021 1.05662 -0.12645
 H413 H 0.88640 1.08275 -0.23598
 H414 H 0.95333 1.06306 -0.19659
 C415 C 1.23650 1.11492 -0.00799
 C416 C 1.24675 1.15040 -0.03668
 C417 C 1.29134 1.16765 -0.03920
 C418 C 1.32661 1.14982 -0.01327
 C419 C 1.31461 1.11331 0.01429
 N420 N 1.27077 1.09707 0.01598
 C421 C 1.18952 1.09593 -0.00379
 N422 N 1.18304 1.05316 0.01012
 C423 C 1.14083 1.03335 0.01352
 C424 C 1.10098 1.05565 0.00121
 C425 C 1.10792 1.10180 -0.00715
 C426 C 1.15131 1.12169 -0.01090
 H427 H 1.29705 1.19647 -0.06009
 H428 H 1.33990 1.09657 0.03368
 H429 H 1.13848 1.00094 0.02880
 H430 H 1.07982 1.12401 -0.00740
 H431 H 1.22072 1.16483 -0.05721
 H432 H 1.15455 1.15728 -0.01746
 C433 C 0.77710 1.12447 0.02935
 C434 C 0.73925 1.10852 0.05404
 C435 C 0.69679 1.12747 0.04803
 C436 C 0.69179 1.16252 0.01792
 C437 C 0.73056 1.17806 -0.00540
 N438 N 0.77145 1.15884 0.00070
 C439 C 0.82262 1.10418 0.03164
 N440 N 0.85929 1.12691 0.01469
 C441 C 0.90078 1.10815 0.01008
 C442 C 0.90719 1.06209 0.01838
 C443 C 0.87191 1.04276 0.04501
 C444 C 0.82947 1.06209 0.04969
 H445 H 0.66801 1.11515 0.06747
 H446 H 0.72827 1.20487 -0.02915
 H447 H 0.92913 1.13061 0.00347
 H448 H 0.87489 1.01069 0.06010
 H449 H 0.74192 1.08209 0.07804
 H450 H 0.80249 1.04301 0.06586
 C451 C 1.21295 0.86287 -0.02076
 C452 C 1.21989 0.82609 0.00669
 C453 C 1.26342 0.80907 0.01068
 C454 C 1.30106 0.82844 -0.01226
 C455 C 1.29199 0.86467 -0.04043
 N456 N 1.24923 0.88087 -0.04331
 C457 C 1.16844 0.88527 -0.02284
 N458 N 1.16702 0.92690 -0.04010
 C459 C 1.12882 0.95161 -0.03872
 C460 C 1.08952 0.93771 -0.01457
 C461 C 1.08851 0.89111 -0.00587
 C462 C 1.12759 0.86548 -0.00789
 H463 H 1.26673 0.77990 0.03121
 H464 H 1.31893 0.88209 -0.05835
 H465 H 1.13131 0.98338 -0.05389
 H466 H 1.05721 0.87245 -0.00127
 H467 H 1.19251 0.81098 0.02601
 H468 H 1.12499 0.83040 0.00073
 C469 C 0.75292 0.91130 0.00150
 C470 C 0.72015 0.91825 -0.03214
 C471 C 0.67655 0.89794 -0.02865
 C472 C 0.66564 0.87084 0.00817
 C473 C 0.69886 0.86647 0.04184
 N474 N 0.74097 0.88601 0.03742
 C475 C 0.80103 0.92770 -0.00153
 N476 N 0.83251 0.90685 0.02303
 C477 C 0.87737 0.91921 0.02389
 C478 C 0.89517 0.95561 -0.00113
 C479 C 0.86148 0.97786 -0.02621
 C480 C 0.81540 0.96413 -0.02702
 H481 H 0.65212 0.90182 -0.05565
 H482 H 0.69174 0.84672 0.07128
 H483 H 0.89687 0.89972 0.04518
 H484 H 0.86994 1.00812 -0.04397
 H485 H 0.72843 0.93740 -0.06170
 H486 H 0.79142 0.98315 -0.04591
 C487 C 0.72376 0.51357 0.37205
 C488 C 0.73041 0.50010 0.32659
 C489 C 0.77417 0.50153 0.30841
 C490 C 0.81162 0.51713 0.33488
 C491 C 0.80342 0.53130 0.37990
 N492 N 0.76038 0.52917 0.39708
 C493 C 0.67821 0.51041 0.39368
 N494 N 0.67032 0.53475 0.43233
 C495 C 0.63011 0.53177 0.45508
 C496 C 0.59372 0.50240 0.44038
 C497 C 0.60292 0.47665 0.40064
 C498 C 0.64400 0.48040 0.37743
 H499 H 0.77866 0.48974 0.27370
 H500 H 0.83107 0.54430 0.40137
 H501 H 0.62834 0.55064 0.48601
 H502 H 0.58103 0.44920 0.38920
 H503 H 0.70232 0.48868 0.30494
 H504 H 0.64939 0.45783 0.34860
 C505 C 0.26512 0.47901 0.38480
 C506 C 0.22557 0.46572 0.40832
 C507 C 0.18296 0.46881 0.38784
 C508 C 0.17963 0.48492 0.34395
 C509 C 0.22016 0.49550 0.32069
 N510 N 0.26129 0.49261 0.34149
 C511 C 0.31020 0.48197 0.40730
 N512 N 0.34897 0.47888 0.38257
 C513 C 0.39127 0.48406 0.40159
 C514 C 0.39764 0.49250 0.44879
 C515 C 0.35678 0.50161 0.47209
 C516 C 0.31390 0.49473 0.45281
 H517 H 0.15262 0.46015 0.40690
 H518 H 0.21910 0.50687 0.28629
 H519 H 0.41931 0.48523 0.37854
 H520 H 0.35659 0.52012 0.50355
 H521 H 0.22744 0.45388 0.44252
 H522 H 0.28415 0.50306 0.47265
 C523 C 0.73661 0.50252 0.60564
 C524 C 0.75917 0.54269 0.62010
 C525 C 0.80312 0.54164 0.63802
 C526 C 0.82530 0.50033 0.64258
 C527 C 0.80140 0.46099 0.62552
 N528 N 0.75874 0.46321 0.60782
 C529 C 0.68943 0.50199 0.58796
 N530 N 0.67658 0.47206 0.55434
 C531 C 0.63392 0.47068 0.53607
 C532 C 0.59984 0.50014 0.55135
 C533 C 0.61391 0.53107 0.58625
 C534 C 0.65762 0.53207 0.60467
 H535 H 0.81770 0.57340 0.65083
 H536 H 0.81664 0.42837 0.62454
 H537 H 0.62827 0.44827 0.50792
 H538 H 0.59258 0.55749 0.59817
 H539 H 0.74300 0.57481 0.61780
 H540 H 0.66632 0.55656 0.63151
 C541 C 0.27375 0.50100 0.62725
 C542 C 0.24865 0.54054 0.62879
 C543 C 0.20458 0.53948 0.64645
 C544 C 0.18573 0.49932 0.66293
 C545 C 0.21181 0.46050 0.66058
 N546 N 0.25442 0.46217 0.64262
 C547 C 0.31952 0.49989 0.60680
 N548 N 0.33070 0.46350 0.58082
 C549 C 0.37100 0.46131 0.55843
 C550 C 0.40489 0.49632 0.56227
 C551 C 0.39081 0.53529 0.58575
 C552 C 0.34972 0.53707 0.60915
 H553 H 0.18547 0.57011 0.64784
 H554 H 0.19815 0.42880 0.67260
 H555 H 0.37244 0.43611 0.53182
 H556 H 0.40781 0.56639 0.58107
 H557 H 0.26243 0.57169 0.61561
 H558 H 0.34093 0.56803 0.62695
 C559 C 0.49117 0.62186 0.28012
 C560 C 0.45921 0.65417 0.26969
 C561 C 0.46010 0.67331 0.22719
 C562 C 0.49238 0.66006 0.19482
 C563 C 0.52373 0.62761 0.20653
 N564 N 0.52262 0.60985 0.24844
 C565 C 0.49132 0.60062 0.32472
 N566 N 0.53152 0.59060 0.34414
 C567 C 0.53374 0.56983 0.38441
 C568 C 0.49370 0.55490 0.40730
 C569 C 0.45251 0.56871 0.38854
 C570 C 0.45090 0.59054 0.34757
 H571 H 0.43533 0.69823 0.21944
 H572 H 0.54949 0.61695 0.18265
 H573 H 0.56700 0.56570 0.39818
 H574 H 0.42077 0.56311 0.40474
 H575 H 0.43426 0.66511 0.29430
 H576 H 0.41810 0.59863 0.33365
 C577 C 0.50336 0.59845 0.74557
 C578 C 0.54038 0.59409 0.77518
 C579 C 0.53859 0.61309 0.81897
 C580 C 0.49995 0.63608 0.83356
 C581 C 0.46334 0.63895 0.80324
 N582 N 0.46614 0.62079 0.76049
 C583 C 0.50448 0.58120 0.69799
 N584 N 0.48051 0.60197 0.66616
 C585 C 0.47979 0.58853 0.62171
 C586 C 0.50381 0.55058 0.60451
 C587 C 0.52852 0.52974 0.63923
 C588 C 0.52919 0.54415 0.68456
 H589 H 0.56759 0.61024 0.84133
 H590 H 0.43320 0.65697 0.81296
 H591 H 0.45852 0.60825 0.60258
 H592 H 0.55040 0.50271 0.63232
 H593 H 0.57103 0.57756 0.76434
 H594 H 0.54870 0.52585 0.70862
 C595 C 0.46449 0.38766 0.26557
 C596 C 0.46140 0.41457 0.22752
 C597 C 0.46387 0.39472 0.18416
 C598 C 0.46981 0.34824 0.17872
 C599 C 0.47017 0.32217 0.21760
 N600 N 0.46785 0.34227 0.25956
 C601 C 0.47019 0.40848 0.31133
 N602 N 0.44639 0.39276 0.34715
 C603 C 0.45275 0.41047 0.39002
 C604 C 0.48737 0.44390 0.40064
 C605 C 0.50730 0.46271 0.36181
 C606 C 0.50028 0.44498 0.31829
 H607 H 0.46349 0.41592 0.15505
 H608 H 0.47384 0.28604 0.21460
 H609 H 0.42688 0.40214 0.41424
 H610 H 0.52979 0.49117 0.36372
 H611 H 0.45866 0.45078 0.23138
 H612 H 0.51886 0.45955 0.29039
 C613 C 0.52218 0.38720 0.72772
 C614 C 0.55547 0.35636 0.73886
 C615 C 0.55620 0.33906 0.78219
 C616 C 0.52376 0.35190 0.81465
 C617 C 0.49149 0.38327 0.80241
 N618 N 0.49136 0.39958 0.75991
 C619 C 0.51835 0.40566 0.68175
 N620 N 0.47931 0.42590 0.67035
 C621 C 0.47276 0.44408 0.62934
 C622 C 0.50649 0.44232 0.59518
 C623 C 0.54800 0.42306 0.60790
 C624 C 0.55384 0.40447 0.65017
 H625 H 0.58202 0.31528 0.79017
 H626 H 0.46545 0.39373 0.82605
 H627 H 0.44168 0.46120 0.62498
 H628 H 0.57687 0.42285 0.58560
 H629 H 0.58009 0.34457 0.71443
 H630 H 0.58652 0.39083 0.65805
 C631 C 0.60521 0.73584 0.49320
 C632 C 0.58142 0.77138 0.47472
 C633 C 0.60101 0.81479 0.47604
 C634 C 0.64386 0.82310 0.49620
 C635 C 0.66554 0.78710 0.51602
 N636 N 0.64607 0.74505 0.51384
 C637 C 0.58728 0.68873 0.49179
 N638 N 0.60578 0.65873 0.51946
 C639 C 0.59028 0.61524 0.52155
 C640 C 0.55337 0.59780 0.49491
 C641 C 0.53529 0.62979 0.46542
 C642 C 0.55211 0.67381 0.46302
 H643 H 0.58309 0.84157 0.46040
 H644 H 0.69806 0.79223 0.53307
 H645 H 0.60892 0.59531 0.54280
 H646 H 0.50382 0.62425 0.44765
 H647 H 0.54807 0.76632 0.45949
 H648 H 0.53609 0.69582 0.43980
 C649 C 0.61585 0.27088 0.49594
 C650 C 0.66117 0.26533 0.48236
 C651 C 0.67975 0.22285 0.48318
 C652 C 0.65348 0.18566 0.49750
 C653 C 0.60870 0.19285 0.51215
 N654 N 0.59123 0.23471 0.51099
 C655 C 0.59464 0.31528 0.49496
 N656 N 0.56137 0.32531 0.52488
 C657 C 0.54129 0.36592 0.52647
 C658 C 0.55371 0.40106 0.49673
 C659 C 0.58713 0.38894 0.46490
 C660 C 0.60758 0.34729 0.46374
 H661 H 0.71491 0.21921 0.47298
 H662 H 0.58728 0.16514 0.52353
 H663 H 0.51432 0.36911 0.55044
 H664 H 0.60150 0.41193 0.44290
 H665 H 0.68242 0.29353 0.47185
 H666 H 0.63342 0.34058 0.43852
 C667 C 0.38900 0.72652 0.49847
 C668 C 0.41459 0.76639 0.50905
 C669 C 0.39429 0.80798 0.50622
 C670 C 0.34881 0.81035 0.49205
 C671 C 0.32505 0.76986 0.47981
 N672 N 0.34536 0.72965 0.48350
 C673 C 0.40802 0.68120 0.50268
 N674 N 0.38672 0.64500 0.48169
 C675 C 0.40279 0.60255 0.48306
 C676 C 0.44347 0.59342 0.50619
 C677 C 0.46447 0.63136 0.52863
 C678 C 0.44720 0.67423 0.52777
 H679 H 0.41399 0.83814 0.51619
 H680 H 0.29030 0.77004 0.46751
 H681 H 0.38401 0.57763 0.46410
 H682 H 0.49621 0.62899 0.54657
 H683 H 0.44992 0.76606 0.51937
 H684 H 0.46511 0.70120 0.54651
 C685 C 0.39367 0.25992 0.51084
 C686 C 0.35381 0.24987 0.53519
 C687 C 0.33528 0.20610 0.53355
 C688 C 0.35611 0.17200 0.50770
 C689 C 0.39549 0.18356 0.48315
 N690 N 0.41299 0.22662 0.48527
 C691 C 0.41405 0.30619 0.51102
 N692 N 0.44136 0.31866 0.47642
 C693 C 0.45921 0.36128 0.47355
 C694 C 0.44785 0.39649 0.50485
 C695 C 0.42674 0.38056 0.54447
 C696 C 0.40817 0.33696 0.54707
 H697 H 0.30406 0.19917 0.55190
 H698 H 0.41265 0.15837 0.46277
 H699 H 0.48504 0.36635 0.44836
 H700 H 0.42379 0.40138 0.57423
 H701 H 0.33633 0.27561 0.55450
 H702 H 0.39074 0.32738 0.57770
   
