data_POSCAR
  _audit_creation_date              2014-09-24
  _audit_creation_method            'ToBaCCo'
  _symmetry_space_group_name_H-M    'P1'
  _symmetry_Int_Tables_number       1
  _symmetry_cell_setting            triclinic
  loop_
  _symmetry_equiv_pos_as_xyz
 x,y,z
_cell_length_a 25.6216
_cell_length_b 28.2439
_cell_length_c 24.4853
_cell_angle_alpha 89.654400
_cell_angle_beta 88.566600
_cell_angle_gamma 88.963500
loop_
  _atom_site_label
  _atom_site_type_symbol
  _atom_site_fract_x
  _atom_site_fract_y
  _atom_site_fract_z
C1 C 0.18230 0.19276 0.23674
 C2 C 0.23001 0.17476 0.21490
 C3 C 0.24955 0.18921 0.16361
 C4 C 0.22350 0.22609 0.13591
 C5 C 0.17812 0.24742 0.15853
 C6 C 0.15728 0.23023 0.20854
 H7 H 0.25072 0.14633 0.23494
 H8 H 0.23818 0.23896 0.09689
 H9 H 0.12034 0.24452 0.22414
 C10 C -0.13957 0.84308 0.20535
 C11 C -0.18419 0.87058 0.19253
 C12 C -0.21623 0.85794 0.14971
 C13 C -0.20408 0.81732 0.11910
 C14 C -0.16024 0.78954 0.13145
 C15 C -0.12776 0.80269 0.17395
 H16 H -0.19297 0.90352 0.21344
 H17 H -0.22756 0.80808 0.08466
 H18 H -0.09305 0.78152 0.18214
 C19 C -0.15025 0.16169 -0.21566
 C20 C -0.19690 0.15177 -0.18727
 C21 C -0.22407 0.18645 -0.15594
 C22 C -0.20095 0.23104 -0.14979
 C23 C -0.15359 0.24182 -0.17773
 C24 C -0.12924 0.20714 -0.21110
 H25 H -0.21131 0.11604 -0.18905
 H26 H -0.22002 0.25699 -0.12341
 H27 H -0.09231 0.21527 -0.23109
 C28 C 0.18887 0.80638 -0.23578
 C29 C 0.16527 0.76909 -0.20668
 C30 C 0.18451 0.75374 -0.15646
 C31 C 0.22847 0.77499 -0.13563
 C32 C 0.25441 0.81120 -0.16435
 C33 C 0.23425 0.82679 -0.21485
 H34 H 0.12972 0.75395 -0.22143
 H35 H 0.24204 0.76345 -0.09598
 H36 H 0.25195 0.85601 -0.23623
 C37 C 0.14004 1.17415 0.77054
 C38 C 0.12303 1.21003 0.80620
 C39 C 0.15125 1.22011 0.85311
 C40 C 0.19659 1.19363 0.86446
 C41 C 0.21394 1.15747 0.82889
 C42 C 0.18563 1.14808 0.78208
 H43 H 0.08656 1.22873 0.79867
 H44 H 0.21688 1.19979 0.90201
 H45 H 0.19754 1.11854 0.75629
 C46 C 0.85066 0.80914 0.77724
 C47 C 0.85280 0.76433 0.80262
 C48 C 0.81980 0.75338 0.84806
 C49 C 0.78489 0.78863 0.86820
 C50 C 0.78267 0.83368 0.84387
 C51 C 0.81547 0.84367 0.79887
 H52 H 0.88165 0.73886 0.78757
 H53 H 0.76043 0.78157 0.90401
 H54 H 0.81479 0.87946 0.78288
 C55 C 0.15724 0.80209 1.21834
 C56 C 0.13989 0.76228 1.18995
 C57 C 0.16645 0.74603 1.14257
 C58 C 0.20925 0.77098 1.12208
 C59 C 0.22752 0.81073 1.14901
 C60 C 0.20225 0.82562 1.19806
 H61 H 0.10485 0.74452 1.20406
 H62 H 0.22826 0.75954 1.08420
 H63 H 0.21465 0.85776 1.21721
 C64 C 0.79100 1.17181 1.26938
 C65 C 0.81959 1.21233 1.25467
 C66 C 0.80611 1.24064 1.20992
 C67 C 0.76234 1.22892 1.17964
 C68 C 0.73348 1.18867 1.19271
 C69 C 0.74770 1.16046 1.23789
 H70 H 0.85401 1.22191 1.27615
 H71 H 0.75243 1.24874 1.14328
 H72 H 0.72697 1.12813 1.24683
 O73 O 0.53972 0.95640 0.90632
 O74 O 0.44774 0.97354 1.13033
 O75 O 0.59424 0.98135 1.05080
 O76 O 0.42547 0.94266 0.94597
 O77 O 0.52546 0.94201 1.07739
 O78 O 0.45474 0.98455 0.87752
 O79 O 0.41923 0.94533 1.05134
 O80 O 0.60371 0.98045 0.95234
 C81 C 0.58524 0.95056 0.92107
 C82 C 0.41423 0.94857 1.10388
 C83 C 0.57404 0.94393 1.07003
 C84 C 0.42841 0.95022 0.89527
 O85 O 0.46925 1.06993 0.91050
 O86 O 0.53985 1.02641 1.11532
 O87 O 0.56960 1.07121 0.94374
 O88 O 0.39049 1.03753 1.04121
 O89 O 0.45509 1.05479 1.09099
 O90 O 0.54974 1.03804 0.86468
 O91 O 0.39859 1.03478 0.94122
 O92 O 0.56097 1.07273 1.04812
 Co93 Co 0.50636 1.01355 0.91486
 Co94 Co 0.48857 0.99815 1.07829
 Co95 Co 0.57560 1.02541 0.99883
 Co96 Co 0.41573 0.99117 0.99516
 O97 O 0.49670 1.00711 0.99693
 C98 C 0.42028 1.06943 0.91691
 C99 C 0.56078 1.06373 1.09865
 C100 C 0.57903 1.06631 0.89209
 C101 C 0.41020 1.06392 1.07559
 O102 O 0.00634 0.45290 0.11641
 O103 O 0.05070 0.53873 -0.07347
 O104 O 0.00209 0.39122 -0.04235
 O105 O 0.04776 0.56800 0.03363
 O106 O 0.05154 0.44965 -0.06360
 O107 O 0.00882 0.54191 0.10901
 O108 O 0.01561 0.60877 -0.04805
 O109 O 0.03067 0.41250 0.04626
 C110 C 0.03513 0.42118 0.09554
 C111 C 0.04815 0.58419 -0.07935
 C112 C 0.04314 0.40614 -0.06517
 C113 C 0.04510 0.56515 0.08518
 O114 O -0.09277 0.54320 0.08408
 O115 O -0.04889 0.44693 -0.09792
 O116 O -0.06125 0.38313 0.05616
 O117 O -0.07426 0.57458 -0.03855
 O118 O -0.04836 0.53356 -0.10681
 O119 O -0.09412 0.45270 0.08650
 O120 O -0.04515 0.59892 0.04888
 O121 O -0.09150 0.42766 -0.02363
 Co122 Co -0.04110 0.49747 0.09099
 Co123 Co -0.00031 0.49212 -0.07832
 Co124 Co -0.03052 0.42510 0.01244
 Co125 Co -0.01259 0.56510 -0.00508
 O126 O -0.02157 0.49500 0.00545
 C127 C -0.08418 0.58639 0.07697
 C128 C -0.08887 0.42933 -0.07438
 C129 C -0.09376 0.40718 0.08759
 C130 C -0.07844 0.56451 -0.08715
 O131 O 1.15065 0.00982 0.44603
 O132 O 0.92716 0.05271 0.54382
 O133 O 0.99218 0.06556 0.41754
 O134 O 1.06787 0.02873 0.59446
 O135 O 0.91871 0.03782 0.44219
 O136 O 1.09706 0.05516 0.51575
 O137 O 0.97386 0.02021 0.60898
 O138 O 1.08170 0.04739 0.41738
 C139 C 1.13024 0.03903 0.41109
 C140 C 0.94440 0.05343 0.59136
 C141 C 0.94430 0.06995 0.42036
 C142 C 1.08938 0.06101 0.56605
 O143 O 1.13572 -0.02270 0.54618
 O144 O 0.92041 -0.05200 0.46014
 O145 O 1.06225 -0.04517 0.39288
 O146 O 0.98436 -0.07421 0.58192
 O147 O 0.91539 -0.03603 0.56085
 O148 O 1.09981 -0.06588 0.46625
 O149 O 1.07500 -0.06722 0.56949
 O150 O 0.96859 -0.02632 0.39091
 Co151 Co 1.09483 -0.00504 0.48913
 Co152 Co 0.92977 -0.00019 0.50138
 Co153 Co 1.02530 0.00847 0.41266
 Co154 Co 1.02495 -0.02190 0.58177
 O155 O 1.01579 -0.00665 0.49877
 C156 C 1.12160 -0.05695 0.57404
 C157 C 0.93340 -0.05315 0.41053
 C158 C 1.09046 -0.07420 0.41784
 C159 C 0.93617 -0.07058 0.58339
 C160 C 1.15653 0.17137 0.28220
 C161 C 1.17614 0.13484 0.31147
 C162 C 1.14350 0.10747 0.35014
 C163 C 1.16300 0.06904 0.37553
 H164 H 1.21596 0.12249 0.30616
 H165 H 1.10274 0.11759 0.35606
 H166 H 1.11700 0.18338 0.29222
 H167 H 1.20387 0.05924 0.37003
 C168 C 0.89496 -0.14336 0.24601
 C169 C 0.88091 -0.11428 0.28696
 C170 C 0.91881 -0.09561 0.32491
 C171 C 0.90234 -0.08201 0.37451
 H172 H 0.84036 -0.10398 0.29378
 H173 H 0.95888 -0.09033 0.31127
 H174 H 0.93435 -0.15816 0.24517
 H175 H 0.86295 -0.09015 0.38840
 C176 C 0.87387 0.12505 0.75353
 C177 C 0.90951 0.13142 0.71341
 C178 C 0.92816 0.09075 0.68073
 C179 C 0.92957 0.09371 0.62638
 H180 H 0.92068 0.16649 0.70013
 H181 H 0.93642 0.05728 0.70094
 H182 H 0.85985 0.08931 0.75982
 H183 H 0.91682 0.12626 0.60667
 C184 C 1.16100 -0.17454 0.71585
 C185 C 1.17761 -0.13945 0.68309
 C186 C 1.14273 -0.11880 0.64170
 C187 C 1.15779 -0.08255 0.61009
 H188 H 1.21562 -0.12424 0.68773
 H189 H 1.10328 -0.13174 0.63907
 H190 H 1.12286 -0.18890 0.70831
 H191 H 1.19715 -0.06949 0.61280
 C192 C 0.29224 1.16318 1.14126
 C193 C 0.30748 1.16320 1.08844
 C194 C 0.34360 1.12630 1.06655
 C195 C 0.38149 1.10584 1.09579
 H196 H 0.28766 1.18490 1.05869
 H197 H 0.33728 1.11455 1.02521
 H198 H 0.31043 1.13717 1.16775
 H199 H 0.39169 1.11988 1.13509
 C200 C 0.29713 0.83186 0.86124
 C201 C 0.32778 0.86582 0.84035
 C202 C 0.36634 0.88789 0.87558
 C203 C 0.39785 0.92205 0.85738
 H204 H 0.32380 0.87887 0.79906
 H205 H 0.36652 0.87801 0.91846
 H206 H 0.30549 0.81970 0.90234
 H207 H 0.39794 0.93219 0.81462
 C208 C 0.74168 0.89095 1.13396
 C209 C 0.69622 0.87724 1.11438
 C210 C 0.65891 0.91361 1.09625
 C211 C 0.60848 0.90521 1.08859
 H212 H 0.68689 0.84007 1.11165
 H213 H 0.67351 0.94910 1.08981
 H214 H 0.74829 0.92843 1.13964
 H215 H 0.59255 0.87063 1.09733
 C216 C 0.72772 1.17627 0.87076
 C217 C 0.69664 1.14147 0.85422
 C218 C 0.65035 1.12498 0.88553
 C219 C 0.61922 1.09358 0.86243
 H220 H 0.70536 1.12360 0.81600
 H221 H 0.64422 1.13529 0.92779
 H222 H 0.71449 1.19813 0.90481
 H223 H 0.62594 1.08444 0.81985
 C224 C 0.15071 0.28396 0.12562
 C225 C 0.12372 0.32077 0.14688
 C226 C 0.09581 0.35415 0.11062
 C227 C 0.07093 0.39297 0.12976
 H228 H 0.12168 0.32594 0.19070
 H229 H 0.09333 0.34534 0.06771
 H230 H 0.15440 0.28110 0.08152
 H231 H 0.07300 0.40168 0.17269
 C232 C -0.12543 0.28702 -0.17067
 C233 C -0.14587 0.32688 -0.14897
 C234 C -0.11142 0.36692 -0.13715
 C235 C -0.12733 0.40206 -0.10406
 H236 H -0.18667 0.32917 -0.13665
 H237 H -0.07040 0.36410 -0.14908
 H238 H -0.08449 0.28698 -0.18314
 H239 H -0.16728 0.40265 -0.08839
 C240 C 0.15516 0.72040 -0.12140
 C241 C 0.13295 0.68155 -0.14026
 C242 C 0.09908 0.65361 -0.10359
 C243 C 0.08642 0.60901 -0.11437
 H244 H 0.13864 0.67120 -0.18258
 H245 H 0.08361 0.67048 -0.06679
 H246 H 0.15193 0.72826 -0.07811
 H247 H 0.10408 0.59071 -0.14913
 C248 C -0.14611 0.74873 0.09720
 C249 C -0.14026 0.70564 0.11878
 C250 C -0.11755 0.66706 0.08583
 C251 C -0.11764 0.62237 0.10371
 H252 H -0.14936 0.69962 0.16175
 H253 H -0.09720 0.67590 0.04782
 H254 H -0.13976 0.75446 0.05373
 H255 H -0.13982 0.61279 0.14026
 C256 C 1.10586 0.15891 0.72665
 C257 C 1.12496 0.14424 0.67831
 C258 C 1.09325 0.11519 0.64284
 C259 C 1.11076 0.10227 0.59324
 H260 H 1.16587 0.14905 0.66768
 H261 H 1.05803 0.09963 0.66003
 H262 H 1.06442 0.15623 0.73603
 H263 H 1.14470 0.11899 0.57484
 C264 C 0.88584 -0.18075 0.73342
 C265 C 0.87802 -0.14526 0.69780
 C266 C 0.91748 -0.13032 0.65641
 C267 C 0.90194 -0.10132 0.61646
 H268 H 0.84117 -0.12588 0.69860
 H269 H 0.95851 -0.13842 0.66195
 H270 H 0.92001 -0.20350 0.72718
 H271 H 0.86040 -0.09432 0.61255
 C272 C 1.12589 -0.18025 0.26225
 C273 C 1.14229 -0.15087 0.30085
 C274 C 1.10468 -0.12617 0.33813
 C275 C 1.11786 -0.11322 0.38841
 H276 H 1.18334 -0.14323 0.30422
 H277 H 1.06765 -0.11433 0.32190
 H278 H 1.08562 -0.19147 0.26533
 H279 H 1.15379 -0.12700 0.40535
 C280 C 0.80684 0.14020 0.31109
 C281 C 0.84813 0.14667 0.34289
 C282 C 0.86909 0.10846 0.37735
 C283 C 0.91857 0.11012 0.39338
 H284 H 0.86996 0.17892 0.34183
 H285 H 0.84596 0.07732 0.38553
 H286 H 0.78595 0.10730 0.31595
 H287 H 0.94237 0.14016 0.38203
 C288 C 0.13016 0.25471 -0.10694
 C289 C 0.11197 0.29696 -0.12291
 C290 C 0.08315 0.32853 -0.08501
 C291 C 0.07873 0.37463 -0.09618
 H292 H 0.11680 0.30782 -0.16528
 H293 H 0.06370 0.31375 -0.04911
 H294 H 0.12884 0.24497 -0.06403
 H295 H 0.10085 0.38965 -0.13020
 C296 C -0.15938 0.27633 0.19365
 C297 C -0.17010 0.31053 0.15765
 C298 C -0.12749 0.33913 0.13560
 C299 C -0.13598 0.38238 0.11591
 H300 H -0.20916 0.31710 0.14324
 H301 H -0.08827 0.32389 0.13437
 H302 H -0.12073 0.27574 0.21095
 H303 H -0.17410 0.39941 0.12022
 C304 C -0.17627 0.71011 -0.12301
 C305 C -0.15157 0.67094 -0.14185
 C306 C -0.13745 0.63198 -0.10434
 C307 C -0.11233 0.59305 -0.12283
 H308 H -0.13812 0.66844 -0.18398
 H309 H -0.14081 0.63834 -0.06073
 H310 H -0.19354 0.70866 -0.08211
 H311 H -0.10900 0.58687 -0.16644
 C312 C 0.14773 0.70590 0.11037
 C313 C 0.12581 0.66758 0.13269
 C314 C 0.10438 0.63095 0.09748
 C315 C 0.07940 0.59371 0.11866
 H316 H 0.12196 0.66408 0.17671
 H317 H 0.10467 0.63701 0.05367
 H318 H 0.15337 0.70762 0.06633
 H319 H 0.07771 0.58857 0.16257
 C320 C 0.25615 1.12414 0.84383
 C321 C 0.30035 1.13705 0.86692
 C322 C 0.33693 1.10002 0.88549
 C323 C 0.38720 1.10787 0.89497
 H324 H 0.30881 1.17409 0.87291
 H325 H 0.32180 1.06467 0.89150
 H326 H 0.25049 1.08701 0.83493
 H327 H 0.40390 1.14215 0.88626
 C328 C 0.26953 0.83776 1.12078
 C329 C 0.30162 0.86739 1.14505
 C330 C 0.34132 0.89294 1.11208
 C331 C 0.37634 0.92010 1.13555
 H332 H 0.29914 0.87259 1.18883
 H333 H 0.34136 0.89001 1.06793
 H334 H 0.27500 0.83206 1.07719
 H335 H 0.37622 0.92294 1.17969
 C336 C 0.69372 1.17385 1.15367
 C337 C 0.65395 1.14598 1.16719
 C338 C 0.62117 1.12598 1.12478
 C339 C 0.58591 1.09372 1.13861
 H340 H 0.64718 1.13560 1.20940
 H341 H 0.62927 1.13407 1.08209
 H342 H 0.69837 1.18538 1.11150
 H343 H 0.57951 1.08490 1.18140
 C344 C 0.74993 0.87248 0.86757
 C345 C 0.69980 0.86730 0.88261
 C346 C 0.66877 0.90811 0.90374
 C347 C 0.61663 0.90945 0.90154
 H348 H 0.68115 0.83356 0.87719
 H349 H 0.68910 0.93831 0.91939
 H350 H 0.76679 0.90738 0.86912
 H351 H 0.59652 0.88038 0.88312
   
