data_POSCAR
  _audit_creation_date              2014-09-24
  _audit_creation_method            'ToBaCCo'
  _symmetry_space_group_name_H-M    'P1'
  _symmetry_Int_Tables_number       1
  _symmetry_cell_setting            triclinic
  loop_
  _symmetry_equiv_pos_as_xyz
 x,y,z
_cell_length_a 19.9153
_cell_length_b 19.9153
_cell_length_c 19.8460
_cell_angle_alpha 89.763900
_cell_angle_beta 90.235300
_cell_angle_gamma 89.999700
loop_
  _atom_site_label
  _atom_site_type_symbol
  _atom_site_fract_x
  _atom_site_fract_y
  _atom_site_fract_z
O1 O 0.59431 0.16944 0.00643
 O2 O 0.66988 0.08246 0.00269
 C3 C 0.65500 0.14587 0.00553
 O4 O 0.40726 -0.00458 0.17117
 O5 O 0.33182 -0.00000 0.08346
 C6 C 0.34656 -0.00343 0.14714
 O7 O 0.59429 0.00443 0.17193
 O8 O 0.66986 0.00039 0.08512
 C9 C 0.65522 0.00329 0.14885
 O10 O 0.40757 0.16958 -0.00311
 O11 O 0.33199 0.08261 0.00108
 C12 C 0.34687 0.14602 -0.00225
 Zr13 Zr 0.50089 0.11978 0.00209
 O14 O 0.49331 0.19388 0.07793
 O15 O 0.50844 0.19541 -0.07280
 Zr16 Zr 0.50086 0.00006 0.12176
 O17 O 0.49326 0.07480 0.19694
 O18 O 0.50854 -0.07539 0.19690
 O19 O 0.56135 0.06932 0.07162
 O20 O 0.44217 0.06870 0.07051
 O21 O 0.40710 0.00525 -0.16775
 O22 O 0.33173 0.00097 -0.08060
 C23 C 0.34645 0.00412 -0.14418
 O24 O 0.59418 -0.16843 -0.00257
 O25 O 0.66979 -0.08153 0.00227
 C26 C 0.65488 -0.14488 -0.00141
 O27 O 0.40746 -0.16850 0.00600
 O28 O 0.33191 -0.08149 0.00162
 C29 C 0.34677 -0.14491 0.00468
 O30 O 0.59383 -0.00372 -0.16736
 O31 O 0.66962 0.00043 -0.07997
 C32 C 0.65458 -0.00281 -0.14364
 Zr33 Zr 0.50066 0.00104 -0.11766
 O34 O 0.49292 -0.07323 -0.19334
 O35 O 0.50829 0.07699 -0.19226
 Zr36 Zr 0.50085 -0.11877 0.00218
 O37 O 0.49310 -0.19394 -0.07260
 O38 O 0.50867 -0.19339 0.07816
 Zr39 Zr 0.60221 0.00048 0.00236
 Zr40 Zr 0.39955 0.00051 0.00168
 O41 O 0.44217 -0.06768 -0.06680
 O42 O 0.56107 -0.06833 -0.06709
 O43 O 0.44039 0.06995 -0.06752
 O44 O 0.55962 -0.06817 0.07097
 O45 O 0.55948 0.06920 -0.06645
 O46 O 0.44045 -0.06887 0.07125
 H47 H 0.41231 0.09675 0.09861
 H48 H 0.58955 -0.09643 0.09927
 H49 H 0.41241 -0.09579 -0.09519
 H50 H 0.58928 0.09739 -0.09469
 H51 H 0.47086 -0.10702 0.19016
 H52 H 0.47032 -0.18758 0.10909
 H53 H 0.52984 -0.18654 -0.10517
 H54 H 0.52970 -0.10581 -0.18591
 H55 H 0.46966 0.10766 -0.18675
 H56 H 0.47180 0.18800 -0.10572
 H57 H 0.53176 0.18787 0.10907
 H58 H 0.53061 0.10680 0.19015
 O59 O 0.00480 0.40697 -0.17087
 O60 O 0.00077 0.33152 -0.08318
 C61 C 0.00377 0.34627 -0.14686
 O62 O 0.16977 0.59390 0.00314
 O63 O 0.08282 0.66950 -0.00175
 C64 C 0.14621 0.65461 0.00190
 O65 O 0.16982 0.40722 -0.00546
 O66 O 0.08285 0.33166 -0.00115
 C67 C 0.14625 0.34652 -0.00421
 O68 O -0.00423 0.59399 -0.17166
 O69 O 0.00035 0.66956 -0.08483
 C70 C -0.00299 0.65493 -0.14857
 Zr71 Zr 0.00065 0.50058 -0.12147
 O72 O 0.07597 0.50831 -0.19613
 O73 O -0.07422 0.49302 -0.19714
 Zr74 Zr 0.12006 0.50057 -0.00155
 O75 O 0.19447 0.50839 -0.07711
 O76 O 0.19539 0.49283 0.07370
 O77 O 0.06981 0.44015 -0.07077
 O78 O 0.06910 0.55936 -0.07048
 O79 O -0.16815 0.59405 -0.00641
 O80 O -0.08113 0.66960 -0.00260
 C81 C -0.14456 0.65474 -0.00544
 O82 O -0.00360 0.40686 0.16801
 O83 O 0.00067 0.33148 0.08092
 C84 C -0.00263 0.34621 0.14446
 O85 O 0.00534 0.59360 0.16766
 O86 O 0.00116 0.66937 0.08022
 C87 C 0.00425 0.65434 0.14392
 O88 O -0.16822 0.40728 0.00312
 O89 O -0.08129 0.33170 -0.00103
 C90 C -0.14466 0.34658 0.00234
 Zr91 Zr -0.11849 0.50060 -0.00216
 O92 O -0.19396 0.50815 0.07226
 O93 O -0.19279 0.49300 -0.07842
 Zr94 Zr 0.00100 0.50038 0.11794
 O95 O -0.07380 0.50795 0.19307
 O96 O 0.07643 0.49258 0.19310
 Zr97 Zr 0.00077 0.39925 -0.00140
 Zr98 Zr 0.00079 0.60191 -0.00207
 O99 O -0.06752 0.55911 0.06655
 O100 O -0.06825 0.44017 0.06760
 O101 O -0.06840 0.56105 -0.07154
 O102 O 0.06936 0.44181 0.06726
 O103 O -0.06776 0.44190 -0.07044
 O104 O 0.07002 0.56085 0.06757
 H105 H 0.09717 0.58930 -0.09872
 H106 H 0.09754 0.41195 0.09570
 H107 H -0.09566 0.58880 0.09473
 H108 H -0.09600 0.41204 -0.09859
 H109 H 0.18825 0.52976 0.10605
 H110 H 0.10778 0.53058 0.18680
 H111 H -0.10567 0.47046 0.18643
 H112 H -0.18627 0.47172 0.10541
 H113 H -0.18737 0.53186 -0.10911
 H114 H -0.10671 0.52982 -0.18993
 H115 H 0.10712 0.47011 -0.18981
 H116 H 0.18807 0.47046 -0.10850
 O117 O -0.16969 -0.00588 0.59380
 O118 O -0.08248 -0.00188 0.66974
 C119 C -0.14593 -0.00488 0.65476
 O120 O 0.00363 -0.16998 0.40658
 O121 O -0.00096 -0.08281 0.33059
 C122 C 0.00248 -0.14624 0.34560
 O123 O -0.00495 -0.17056 0.59410
 O124 O -0.00076 -0.08386 0.66994
 C125 C -0.00382 -0.14726 0.65504
 O126 O -0.17030 0.00318 0.40622
 O127 O -0.08361 -0.00068 0.33037
 C128 C -0.14701 0.00236 0.34528
 Zr129 Zr -0.12028 -0.00154 0.49999
 O130 O -0.19468 -0.07715 0.49242
 O131 O -0.19558 0.07311 0.50728
 Zr132 Zr -0.00087 -0.12056 0.50033
 O133 O -0.07603 -0.19539 0.49262
 O134 O 0.07426 -0.19546 0.50830
 O135 O -0.06987 -0.07065 0.56084
 O136 O -0.06946 -0.06969 0.44118
 O137 O -0.00566 0.16790 0.40613
 O138 O -0.00169 0.08117 0.33037
 C139 C -0.00469 0.14454 0.34526
 O140 O 0.16820 0.00339 0.59406
 O141 O 0.08151 -0.00115 0.66986
 C142 C 0.14485 0.00229 0.65494
 O143 O 0.16797 -0.00539 0.40712
 O144 O 0.08105 -0.00111 0.33086
 C145 C 0.14449 -0.00425 0.34612
 O146 O 0.00361 0.16771 0.59312
 O147 O -0.00033 0.08080 0.66939
 C148 C 0.00279 0.14423 0.65413
 Zr149 Zr -0.00125 0.11791 0.49982
 O150 O 0.07343 0.19322 0.49211
 O151 O -0.07688 0.19227 0.50719
 Zr152 Zr 0.11820 -0.00117 0.50042
 O153 O 0.19304 0.07398 0.49266
 O154 O 0.19304 -0.07636 0.50854
 Zr155 Zr -0.00077 -0.00148 0.60194
 Zr156 Zr -0.00121 -0.00106 0.39834
 O157 O 0.06719 0.06732 0.44123
 O158 O 0.06810 0.06780 0.56072
 O159 O -0.07040 0.06779 0.43923
 O160 O 0.06760 -0.06977 0.55936
 O161 O -0.06941 0.06689 0.55880
 O162 O 0.06805 -0.07018 0.43978
 H163 H -0.09762 -0.09781 0.41121
 H164 H 0.09589 -0.09792 0.58941
 H165 H 0.09531 0.09559 0.41136
 H166 H -0.09750 0.09502 0.58859
 H167 H 0.10598 -0.18869 0.47067
 H168 H 0.18648 -0.10795 0.47077
 H169 H 0.18644 0.10575 0.53022
 H170 H 0.10581 0.18613 0.52937
 H171 H -0.10803 0.18627 0.46876
 H172 H -0.18857 0.10547 0.47005
 H173 H -0.18851 -0.10825 0.53092
 H174 H -0.10761 -0.18893 0.53038
 N175 N -0.22499 0.17896 0.00232
 C176 C -0.29098 0.19606 0.00649
 N177 N -0.30763 0.26192 0.00997
 N178 N -0.26057 0.30910 0.00909
 C179 C -0.19475 0.29251 0.00464
 N180 N -0.17758 0.22648 0.00144
 N181 N 0.30932 0.73905 0.00931
 C182 C 0.29272 0.80495 0.00554
 N183 N 0.22672 0.82214 0.00121
 N184 N 0.17924 0.77468 0.00046
 C185 C 0.19636 0.70862 0.00397
 N186 N 0.26219 0.69194 0.00855
 N187 N 0.30943 0.26202 -0.00853
 C188 C 0.29282 0.19616 -0.00426
 N189 N 0.22679 0.17901 -0.00076
 N190 N 0.17930 0.22646 -0.00125
 C191 C 0.19642 0.29249 -0.00526
 N192 N 0.26228 0.30913 -0.00902
 N193 N -0.30776 0.73924 -0.00853
 C194 C -0.29110 0.80502 -0.00378
 N195 N -0.22504 0.82215 -0.00058
 N196 N -0.17755 0.77473 -0.00173
 C197 C -0.19472 0.70877 -0.00620
 N198 N -0.26061 0.69216 -0.00968
 N199 N 0.00130 -0.22574 0.17726
 C200 C 0.00543 -0.29184 0.19434
 N201 N 0.00926 -0.30885 0.26044
 N202 N 0.00875 -0.26204 0.30786
 C203 C 0.00436 -0.19612 0.29130
 N204 N 0.00080 -0.17858 0.22503
 N205 N 0.00880 0.30801 0.73710
 C206 C 0.00504 0.29190 0.80336
 N207 N 0.00131 0.22599 0.82135
 N208 N 0.00107 0.17811 0.77431
 C209 C 0.00457 0.19473 0.70787
 N210 N 0.00857 0.26047 0.69041
 N211 N -0.00891 0.30820 0.26076
 C212 C -0.00459 0.29195 0.19470
 N213 N -0.00121 0.22601 0.17737
 N214 N -0.00180 0.17822 0.22488
 C215 C -0.00585 0.19498 0.29111
 N216 N -0.00951 0.26076 0.30792
 N217 N -0.00189 -0.22943 0.82299
 C218 C -0.00440 -0.29549 0.80548
 N219 N -0.00758 -0.31127 0.73907
 N220 N -0.00786 -0.26364 0.69210
 C221 C -0.00499 -0.19791 0.70919
 N222 N -0.00212 -0.18145 0.77561
 N223 N 0.30842 0.00914 0.73941
 C224 C 0.29219 0.00529 0.80554
 N225 N 0.22629 0.00115 0.82290
 N226 N 0.17853 0.00064 0.77537
 C227 C 0.19527 0.00422 0.70907
 N228 N 0.26100 0.00863 0.69223
 N229 N -0.31099 0.00699 0.26121
 C230 C -0.29520 0.00430 0.19481
 N231 N -0.22915 0.00180 0.17732
 N232 N -0.18117 0.00159 0.22470
 C233 C -0.19765 0.00397 0.29112
 N234 N -0.26337 0.00682 0.30820
 N235 N 0.30829 -0.00940 0.26318
 C236 C 0.29219 -0.00515 0.19692
 N237 N 0.22628 -0.00140 0.17891
 N238 N 0.17838 -0.00161 0.22593
 C239 C 0.19499 -0.00560 0.29238
 N240 N 0.26074 -0.00961 0.30986
 N241 N -0.30864 -0.00901 0.73994
 C242 C -0.29161 -0.00477 0.80598
 N243 N -0.22546 -0.00143 0.82302
 N244 N -0.17829 -0.00201 0.77528
 C245 C -0.19583 -0.00599 0.70908
 N246 N -0.26180 -0.00959 0.69254
   
