data_POSCAR
  _audit_creation_date              2014-09-24
  _audit_creation_method            'ToBaCCo'
  _symmetry_space_group_name_H-M    'P1'
  _symmetry_Int_Tables_number       1
  _symmetry_cell_setting            triclinic
  loop_
  _symmetry_equiv_pos_as_xyz
 x,y,z
_cell_length_a 31.9988
_cell_length_b 31.7464
_cell_length_c 86.4861
_cell_angle_alpha 86.766200
_cell_angle_beta 90.608800
_cell_angle_gamma 119.918700
loop_
  _atom_site_label
  _atom_site_type_symbol
  _atom_site_fract_x
  _atom_site_fract_y
  _atom_site_fract_z
C1 C -0.00850 0.08825 0.51984
 H2 H 0.02722 0.09255 0.52025
 C3 C -0.01848 0.11918 0.52776
 H4 H 0.00971 0.14692 0.53441
 C5 C -0.08867 0.04588 0.51090
 H6 H -0.11566 0.01745 0.50419
 C7 C -0.10046 0.07599 0.51886
 H8 H -0.13663 0.07052 0.51826
 N9 N -0.04333 0.05236 0.51169
 C10 C 0.00166 -0.05652 0.51214
 H11 H 0.01003 -0.05642 0.50004
 C12 C 0.00143 -0.09154 0.52278
 H13 H 0.00979 -0.11829 0.51881
 C14 C -0.02314 -0.02418 0.53181
 H15 H -0.03420 0.00098 0.53527
 C16 C -0.02376 -0.05834 0.54278
 H17 H -0.03421 -0.05817 0.55464
 Zn18 Zn -0.02148 0.01516 0.50173
 N19 N -0.01135 -0.02432 0.51676
 C20 C 0.07945 0.06367 0.49285
 N21 N 0.03591 0.06093 0.49098
 C22 C 0.03072 0.09293 0.48119
 C23 C 0.06985 0.12887 0.47251
 C24 C 0.11994 0.09949 0.48438
 C25 C -0.11048 -0.06302 0.49228
 C26 C -0.14088 -0.09794 0.48212
 C27 C -0.07925 -0.05732 0.46215
 C28 C -0.05048 -0.02335 0.47264
 N29 N -0.06608 -0.02686 0.48743
 H30 H 0.08282 0.03824 0.50089
 H31 H -0.00433 0.08997 0.48001
 H32 H 0.06420 0.15284 0.46445
 H33 H 0.15444 0.10144 0.48600
 H34 H -0.12162 -0.06590 0.50424
 H35 H -0.17461 -0.12722 0.48691
 H36 H -0.06515 -0.05101 0.45044
 H37 H -0.01489 0.00510 0.46895
 C38 C -0.01272 -0.09348 0.53825
 C39 C -0.06489 0.11336 0.52736
 C40 C -0.12522 -0.09677 0.46672
 C41 C 0.11533 0.13271 0.47402
 C42 C 1.11860 0.06362 0.14616
 H43 H 1.12155 0.09834 0.14813
 C44 C 1.14986 0.06135 0.13566
 H45 H 1.17732 0.09470 0.12977
 C46 C 1.07874 -0.02186 0.15148
 H47 H 1.05058 -0.05410 0.15759
 C48 C 1.10948 -0.02583 0.14094
 H49 H 1.10455 -0.06136 0.13891
 N50 N 1.08332 0.02241 0.15358
 C51 C 0.96367 0.04879 0.15917
 H52 H 0.96129 0.05018 0.17158
 C53 C 0.92660 0.04622 0.14978
 H54 H 0.89592 0.04604 0.15502
 C55 C 1.00419 0.04263 0.13738
 H56 H 1.03331 0.03934 0.13257
 C57 C 0.96817 0.03999 0.12764
 H58 H 0.97076 0.03589 0.11540
 Zn59 Zn 1.04186 0.03343 0.16601
 N60 N 1.00079 0.04564 0.15290
 C61 C 1.08084 0.12873 0.17800
 N62 N 1.08249 0.08677 0.17780
 C63 C 1.11572 0.08065 0.18599
 C64 C 1.14838 0.11693 0.19514
 C65 C 1.11337 0.16646 0.18699
 C66 C 0.96558 -0.06206 0.17359
 C67 C 0.92901 -0.09817 0.18331
 C68 C 0.96760 -0.04946 0.20507
 C69 C 1.00314 -0.01447 0.19501
 N70 N 1.00113 -0.02075 0.17954
 H71 H 1.05450 0.13299 0.17119
 H72 H 1.11630 0.04696 0.18552
 H73 H 1.17332 0.11022 0.20193
 H74 H 1.11193 0.19981 0.18698
 H75 H 0.96406 -0.06567 0.16121
 H76 H 0.89964 -0.12972 0.17833
 H77 H 0.96924 -0.04303 0.21728
 H78 H 1.03071 0.01888 0.19956
 C79 C 0.92787 0.03993 0.13388
 C80 C 1.14488 0.01615 0.13263
 C81 C 0.92904 -0.09118 0.19920
 C82 C 1.14778 0.16073 0.19573
 C83 C 0.05670 0.93669 0.85070
 H84 H 0.02225 0.90339 0.85183
 C85 C 0.09580 0.94097 0.85917
 H86 H 0.09090 0.91091 0.86699
 C87 C 0.10401 1.01688 0.83951
 H88 H 0.10701 1.04626 0.83179
 C89 C 0.14413 1.02277 0.84781
 H90 H 0.17785 1.05680 0.84637
 N91 N 0.06115 0.97464 0.84134
 C92 C -0.08215 0.95916 0.84102
 H93 H -0.09076 0.95545 0.82887
 C94 C -0.11328 0.96254 0.85149
 H95 H -0.14518 0.96186 0.84693
 C96 C -0.02758 0.96883 0.86099
 H97 H 0.00619 0.97214 0.86469
 C98 C -0.05731 0.97265 0.87181
 H99 H -0.04617 0.97633 0.88373
 Zn100 Zn 0.00481 0.96543 0.83116
 N101 N -0.04013 0.96255 0.84590
 C102 C -0.06624 0.87049 0.82222
 N103 N -0.01958 0.90709 0.82076
 C104 C 0.01296 0.90313 0.81189
 C105 C -0.00099 0.86145 0.80386
 C106 C -0.08192 0.82818 0.81422
 C107 C 0.03151 1.06213 0.82243
 C108 C 0.03801 1.10114 0.81242
 C109 C 0.01887 1.04935 0.79097
 C110 C 0.01245 1.01128 0.80139
 N111 N 0.01876 1.01824 0.81680
 H112 H -0.09135 0.87402 0.82953
 H113 H 0.04990 0.93268 0.81103
 H114 H 0.02535 0.85942 0.79665
 H115 H -0.11917 0.79936 0.81542
 H116 H 0.03563 1.06647 0.83477
 H117 H 0.04783 1.13573 0.81712
 H118 H 0.01248 1.04274 0.77879
 H119 H 0.00126 0.97591 0.79715
 C120 C -0.10076 0.97054 0.86721
 C121 C 0.14012 0.98468 0.85796
 C122 C 0.03132 1.09487 0.79647
 C123 C -0.04901 0.82335 0.80491
 C124 C 0.41970 0.01415 -0.00385
 C125 C 0.43830 0.00620 -0.01724
 C126 C 0.47778 -0.00150 -0.01613
 C127 C 0.50143 0.00242 -0.00191
 C128 C 0.48231 0.01159 0.01135
 C129 C 0.44086 0.01606 0.01052
 C130 C 0.54621 -0.00190 -0.00097
 C131 C 0.56174 -0.01238 0.01338
 C132 C 0.60470 -0.01400 0.01441
 C133 C 0.63132 -0.00773 0.00089
 C134 C 0.61648 0.00168 -0.01354
 C135 C 0.57468 0.00555 -0.01435
 H136 H 0.38780 0.01778 -0.00462
 H137 H 0.48999 -0.00975 -0.02652
 H138 H 0.49974 0.01652 0.02239
 H139 H 0.54071 -0.01990 0.02390
 H140 H 0.66413 -0.00971 0.00164
 H141 H 0.56574 0.01577 -0.02549
 C142 C -0.09020 0.55670 0.67170
 C143 C -0.09475 0.52712 0.68497
 C144 C -0.08752 0.48731 0.68366
 C145 C -0.07421 0.47781 0.66933
 C146 C -0.06873 0.50887 0.65625
 C147 C -0.07739 0.54781 0.65730
 C148 C -0.06494 0.43642 0.66806
 C149 C -0.07433 0.41210 0.65420
 C150 C -0.06228 0.37579 0.65256
 C151 C -0.04300 0.36172 0.66507
 C152 C -0.03507 0.38392 0.67921
 C153 C -0.04532 0.42180 0.68052
 H154 H -0.09464 0.58813 0.67269
 H155 H -0.09264 0.46368 0.69385
 H156 H -0.05748 0.50311 0.64519
 H157 H -0.09019 0.42179 0.64451
 H158 H -0.03521 0.33253 0.66383
 H159 H -0.03674 0.44057 0.69116
 C160 C 0.62686 0.62781 0.33381
 C161 C 0.60216 0.61210 0.31999
 C162 C 0.55724 0.56917 0.32029
 C163 C 0.53745 0.54017 0.33419
 C164 C 0.56411 0.55642 0.34788
 C165 C 0.60795 0.60055 0.34782
 C166 C 0.48944 0.49365 0.33442
 C167 C 0.46319 0.47194 0.34845
 C168 C 0.41888 0.42832 0.34872
 C169 C 0.39915 0.40670 0.33485
 C170 C 0.42373 0.42786 0.32078
 C171 C 0.46893 0.47037 0.32062
 H172 H 0.66105 0.66156 0.33365
 H173 H 0.53795 0.55970 0.30957
 H174 H 0.55191 0.53496 0.35871
 H175 H 0.47587 0.48882 0.35930
 H176 H 0.36454 0.37339 0.33499
 H177 H 0.48776 0.48406 0.30959
 C178 C -0.08509 0.20538 0.55725
 C179 C -0.12106 0.15624 0.55651
 C180 C -0.11619 0.12664 0.54608
 C181 C -0.07534 0.14575 0.53625
 C182 C -0.04142 0.19565 0.53621
 C183 C -0.04618 0.22508 0.54660
 C184 C -0.08503 0.23480 0.56997
 N185 N -0.04364 0.27563 0.57338
 N186 N -0.04146 0.29992 0.58568
 C187 C -0.08065 0.28460 0.59509
 N188 N -0.12246 0.24430 0.59155
 N189 N -0.12454 0.21974 0.57927
 C190 C -0.07649 0.30949 0.60945
 C191 C -0.11719 0.30637 0.61667
 C192 C -0.11262 0.32894 0.63055
 C193 C -0.06755 0.35382 0.63756
 C194 C -0.02699 0.35702 0.63034
 C195 C -0.03130 0.33553 0.61635
 H196 H -0.15155 0.14000 0.56454
 H197 H -0.14282 0.08826 0.54636
 H198 H -0.01008 0.21154 0.52853
 H199 H -0.01825 0.26295 0.54667
 H200 H -0.15241 0.28661 0.61158
 H201 H -0.14432 0.32608 0.63600
 H202 H 0.00811 0.37623 0.63555
 H203 H 0.00066 0.33831 0.61113
 C204 C 0.81106 0.81359 0.23037
 C205 C 0.82825 0.79393 0.21957
 C206 C 0.86606 0.82461 0.20919
 C207 C 0.88754 0.87541 0.20953
 C208 C 0.86939 0.89484 0.22002
 C209 C 0.83169 0.86440 0.23028
 C210 C 0.77341 0.78202 0.24216
 N211 N 0.75931 0.80220 0.25292
 N212 N 0.72784 0.77467 0.26415
 C213 C 0.70890 0.72565 0.26513
 N214 N 0.72240 0.70526 0.25424
 N215 N 0.75402 0.73287 0.24299
 C216 C 0.67697 0.69584 0.27843
 C217 C 0.65456 0.64474 0.27915
 C218 C 0.62826 0.61727 0.29241
 C219 C 0.62431 0.64040 0.30523
 C220 C 0.64505 0.69122 0.30428
 C221 C 0.67087 0.71862 0.29101
 H222 H 0.81309 0.75494 0.21930
 H223 H 0.87933 0.80872 0.20119
 H224 H 0.88447 0.93383 0.22030
 H225 H 0.81925 0.88093 0.23831
 H226 H 0.65833 0.62604 0.26964
 H227 H 0.61276 0.57810 0.29291
 H228 H 0.64207 0.70984 0.31396
 H229 H 0.68739 0.75785 0.29085
 C230 C 0.25202 0.00031 -0.11074
 C231 C 0.22536 -0.04283 -0.11848
 C232 C 0.19013 -0.04738 -0.12904
 C233 C 0.18084 -0.00889 -0.13212
 C234 C 0.20883 0.03490 -0.12486
 C235 C 0.24398 0.03944 -0.11430
 C236 C 0.28584 0.00360 -0.09838
 N237 N 0.30820 0.04378 -0.09003
 N238 N 0.33583 0.04562 -0.07819
 C239 C 0.34242 0.00739 -0.07416
 N240 N 0.32068 -0.03257 -0.08265
 N241 N 0.29293 -0.03444 -0.09450
 C242 C 0.37024 0.00837 -0.06022
 C243 C 0.38004 -0.02950 -0.05639
 C244 C 0.40337 -0.02979 -0.04261
 C245 C 0.41678 0.00748 -0.03238
 C246 C 0.40814 0.04587 -0.03641
 C247 C 0.38536 0.04645 -0.05018
 H248 H 0.23079 -0.07360 -0.11610
 H249 H 0.16967 -0.08132 -0.13464
 H250 H 0.20224 0.06505 -0.12686
 H251 H 0.26390 0.07327 -0.10860
 H252 H 0.36901 -0.05930 -0.06389
 H253 H 0.40960 -0.05982 -0.03973
 H254 H 0.41875 0.07537 -0.02879
 H255 H 0.37862 0.07628 -0.05276
 C256 C -0.03390 0.78998 0.57113
 C257 C 0.00682 0.81206 0.56113
 C258 C 0.01378 0.84971 0.55032
 C259 C -0.01963 0.86619 0.54941
 C260 C -0.06055 0.84361 0.55925
 C261 C -0.06761 0.80605 0.56996
 C262 C -0.04127 0.75106 0.58297
 N263 N -0.08129 0.72985 0.59228
 N264 N -0.08771 0.69603 0.60328
 C265 C -0.05439 0.68182 0.60548
 N266 N -0.01443 0.70273 0.59609
 N267 N -0.00800 0.73666 0.58506
 C268 C -0.06109 0.64553 0.61821
 C269 C -0.02691 0.63044 0.62074
 C270 C -0.03257 0.59791 0.63325
 C271 C -0.07237 0.58004 0.64349
 C272 C -0.10696 0.59434 0.64077
 C273 C -0.10145 0.62659 0.62828
 H274 H 0.03346 0.80050 0.56171
 H275 H 0.04567 0.86651 0.54287
 H276 H -0.08749 0.85477 0.55860
 H277 H -0.09951 0.78983 0.57738
 H278 H 0.00457 0.64428 0.61321
 H279 H -0.00516 0.58777 0.63516
 H280 H -0.13832 0.58062 0.64836
 H281 H -0.12866 0.63713 0.62666
 C282 C 0.24434 0.26233 0.22782
 C283 C 0.25951 0.23709 0.21869
 C284 C 0.22909 0.20626 0.20770
 C285 C 0.18229 0.19906 0.20578
 C286 C 0.16796 0.22618 0.21439
 C287 C 0.19886 0.25778 0.22525
 C288 C 0.27460 0.29034 0.24062
 N289 N 0.27052 0.32725 0.24625
 N290 N 0.29645 0.35070 0.25828
 C291 C 0.32700 0.33777 0.26525
 N292 N 0.33110 0.30096 0.25959
 N293 N 0.30559 0.27789 0.24748
 C294 C 0.35379 0.36179 0.27910
 C295 C 0.36601 0.33602 0.29027
 C296 C 0.38912 0.35765 0.30379
 C297 C 0.40150 0.40578 0.30618
 C298 C 0.39056 0.43208 0.29487
 C299 C 0.36634 0.41006 0.28151
 H300 H 0.29471 0.24056 0.22024
 H301 H 0.24191 0.18715 0.20094
 H302 H 0.13212 0.22133 0.21328
 H303 H 0.18624 0.27679 0.23215
 H304 H 0.35651 0.29867 0.28874
 H305 H 0.39727 0.33684 0.31242
 H306 H 0.39965 0.46922 0.29659
 H307 H 0.35751 0.43076 0.27305
 C308 C 0.81260 -0.00863 -0.10026
 C309 C 0.86230 0.01110 -0.09818
 C310 C 0.89050 0.00426 -0.10882
 C311 C 0.87010 -0.02252 -0.12205
 C312 C 0.82011 -0.04155 -0.12420
 C313 C 0.79183 -0.03489 -0.11342
 C314 C 0.78291 -0.00239 -0.08852
 N315 N 0.73409 -0.02493 -0.08948
 N316 N 0.70765 -0.02066 -0.07852
 C317 C 0.72894 0.00643 -0.06616
 N318 N 0.77773 0.02930 -0.06532
 N319 N 0.80410 0.02500 -0.07625
 C320 C 0.69976 0.00897 -0.05341
 C321 C 0.72257 0.03529 -0.04039
 C322 C 0.69546 0.03429 -0.02770
 C323 C 0.64488 0.00709 -0.02771
 C324 C 0.62189 -0.01748 -0.04096
 C325 C 0.64905 -0.01665 -0.05368
 H326 H 0.87973 0.03198 -0.08825
 H327 H 0.92881 0.02195 -0.10679
 H328 H 0.80189 -0.06349 -0.13383
 H329 H 0.75354 -0.05078 -0.11536
 H330 H 0.76151 0.05582 -0.03981
 H331 H 0.71411 0.05423 -0.01773
 H332 H 0.58292 -0.03892 -0.04124
 H333 H 0.63030 -0.03716 -0.06353
 C334 C 0.23804 0.01466 0.09731
 C335 C 0.22809 -0.01493 0.11106
 C336 C 0.19697 -0.01552 0.12248
 C337 C 0.17545 0.01359 0.12036
 C338 C 0.18443 0.04200 0.10643
 C339 C 0.21533 0.04262 0.09509
 C340 C 0.27202 0.01715 0.08527
 N341 N 0.28329 0.04847 0.07263
 N342 N 0.31337 0.05093 0.06166
 C343 C 0.33368 0.02224 0.06284
 N344 N 0.32266 -0.00902 0.07553
 N345 N 0.29253 -0.01144 0.08654
 C346 C 0.36536 0.02379 0.05015
 C347 C 0.38448 -0.00768 0.05069
 C348 C 0.41089 -0.00872 0.03806
 C349 C 0.41852 0.02153 0.02465
 C350 C 0.40120 0.05440 0.02438
 C351 C 0.37501 0.05557 0.03698
 H352 H 0.24485 -0.03706 0.11311
 H353 H 0.19075 -0.03768 0.13312
 H354 H 0.16755 0.06399 0.10430
 H355 H 0.22156 0.06538 0.08460
 H356 H 0.37794 -0.03247 0.06068
 H357 H 0.42361 -0.03462 0.03853
 H358 H 0.40719 0.07864 0.01428
 H359 H 0.36134 0.08067 0.03620
 C360 C 0.79182 0.79504 0.43556
 C361 C 0.84178 0.82455 0.43343
 C362 C 0.86904 0.86007 0.44373
 C363 C 0.84755 0.86770 0.45675
 C364 C 0.79705 0.83664 0.45896
 C365 C 0.76976 0.80128 0.44848
 C366 C 0.76329 0.75910 0.42401
 N367 N 0.71428 0.73461 0.42457
 N368 N 0.68909 0.70450 0.41361
 C369 C 0.71187 0.69754 0.40167
 N370 N 0.76081 0.72151 0.40127
 N371 N 0.78592 0.75157 0.41219
 C372 C 0.68441 0.66736 0.38873
 C373 C 0.70901 0.66374 0.37594
 C374 C 0.68392 0.64019 0.36293
 C375 C 0.63364 0.61948 0.36241
 C376 C 0.60864 0.62071 0.37548
 C377 C 0.63379 0.64452 0.38851
 H378 H 0.86024 0.82042 0.42371
 H379 H 0.90755 0.87953 0.44160
 H380 H 0.77731 0.84074 0.46825
 H381 H 0.73117 0.77919 0.45043
 H382 H 0.74791 0.68044 0.37575
 H383 H 0.70398 0.63913 0.35309
 H384 H 0.56987 0.60522 0.37534
 H385 H 0.61368 0.64638 0.39818
 C386 C 0.03454 0.20486 0.76413
 C387 C 0.01385 0.19720 0.77901
 C388 C 0.01410 0.16253 0.78967
 C389 C 0.03484 0.13458 0.78566
 C390 C 0.05676 0.14321 0.77095
 C391 C 0.05676 0.17804 0.76032
 C392 C 0.03074 0.23861 0.75237
 N393 N 0.05203 0.24722 0.73815
 N394 N 0.04601 0.27494 0.72724
 C395 C 0.01838 0.29522 0.73005
 N396 N -0.00242 0.28712 0.74433
 N397 N 0.00367 0.25947 0.75526
 C398 C 0.00857 0.32277 0.71750
 C399 C -0.02495 0.33833 0.71979
 C400 C -0.03780 0.35986 0.70749
 C401 C -0.01736 0.36636 0.69263
 C402 C 0.01777 0.35285 0.69051
 C403 C 0.03054 0.33126 0.70278
 H404 H -0.00347 0.21725 0.78235
 H405 H -0.00346 0.15639 0.80086
 H406 H 0.07356 0.12265 0.76761
 H407 H 0.07319 0.18308 0.74899
 H408 H -0.04253 0.33246 0.73097
 H409 H -0.06522 0.36956 0.70947
 H410 H 0.03485 0.35825 0.67927
 H411 H 0.05686 0.32022 0.70062
 C412 C 0.80837 0.00813 0.10396
 C413 C 0.83153 -0.01961 0.10410
 C414 C 0.86979 -0.00934 0.11394
 C415 C 0.88591 0.02880 0.12397
 C416 C 0.86193 0.05567 0.12428
 C417 C 0.82363 0.04561 0.11430
 C418 C 0.77017 -0.00103 0.09256
 N419 N 0.75022 0.02804 0.09109
 N420 N 0.71842 0.02148 0.08006
 C421 C 0.70522 -0.01442 0.07006
 N422 N 0.72461 -0.04387 0.07171
 N423 N 0.75630 -0.03735 0.08271
 C424 C 0.67359 -0.01901 0.05683
 C425 C 0.66702 -0.05087 0.04518
 C426 C 0.64257 -0.05094 0.03171
 C427 C 0.62372 -0.01951 0.02963
 C428 C 0.62766 0.01024 0.04162
 C429 C 0.65254 0.01066 0.05507
 H430 H 0.82070 -0.04892 0.09640
 H431 H 0.88690 -0.03137 0.11369
 H432 H 0.87360 0.08518 0.13195
 H433 H 0.80649 0.06760 0.11452
 H434 H 0.68240 -0.07450 0.04616
 H435 H 0.63956 -0.07460 0.02270
 H436 H 0.61364 0.03500 0.04025
 H437 H 0.65664 0.03539 0.06385
 C438 C 0.22714 0.23798 0.44279
 C439 C 0.19567 0.24952 0.45022
 C440 C 0.16119 0.21634 0.46098
 C441 C 0.15676 0.17043 0.46440
 C442 C 0.18993 0.15986 0.45758
 C443 C 0.22497 0.19345 0.44692
 C444 C 0.25929 0.27070 0.43001
 N445 N 0.29841 0.26822 0.42538
 N446 N 0.32542 0.29587 0.41324
 C447 C 0.31407 0.32668 0.40517
 N448 N 0.27514 0.32930 0.40987
 N449 N 0.24843 0.30201 0.42206
 C450 C 0.34194 0.35500 0.39110
 C451 C 0.31986 0.36911 0.37938
 C452 C 0.34505 0.39336 0.36565
 C453 C 0.39307 0.40491 0.36354
 C454 C 0.41570 0.39214 0.37539
 C455 C 0.39017 0.36688 0.38901
 H456 H 0.19701 0.28389 0.44747
 H457 H 0.13714 0.22624 0.46636
 H458 H 0.18736 0.12476 0.45989
 H459 H 0.24876 0.18355 0.44137
 H460 H 0.28266 0.36022 0.38065
 H461 H 0.32703 0.40300 0.35664
 H462 H 0.45271 0.40055 0.37392
 H463 H 0.40809 0.35658 0.39787
 C464 C -0.08807 0.70275 0.77639
 C465 C -0.11854 0.72257 0.77767
 C466 C -0.10689 0.76049 0.78742
 C467 C -0.06439 0.77959 0.79598
 C468 C -0.03501 0.75847 0.79519
 C469 C -0.04679 0.72038 0.78556
 C470 C -0.09718 0.66660 0.76478
 N471 N -0.06826 0.64682 0.76378
 N472 N -0.07343 0.61794 0.75245
 C473 C -0.10773 0.60760 0.74161
 N474 N -0.13726 0.62663 0.74278
 N475 N -0.13214 0.65545 0.75413
 C476 C -0.10976 0.58016 0.72802
 C477 C -0.14002 0.57618 0.71561
 C478 C -0.13692 0.55662 0.70188
 C479 C -0.10368 0.54039 0.70028
 C480 C -0.07557 0.54152 0.71300
 C481 C -0.07850 0.56129 0.72672
 H482 H -0.15071 0.70974 0.77083
 H483 H -0.13006 0.77624 0.78775
 H484 H -0.00240 0.77202 0.80185
 H485 H -0.02261 0.70589 0.78494
 H486 H -0.16479 0.58997 0.71623
 H487 H -0.15952 0.55553 0.69232
 H488 H -0.04943 0.52955 0.71207
 H489 H -0.05487 0.56347 0.73608
   
