data_POSCAR
  _audit_creation_date              2014-09-24
  _audit_creation_method            'ToBaCCo'
  _symmetry_space_group_name_H-M    'P1'
  _symmetry_Int_Tables_number       1
  _symmetry_cell_setting            triclinic
  loop_
  _symmetry_equiv_pos_as_xyz
 x,y,z
_cell_length_a 39.0273
_cell_length_b 46.9846
_cell_length_c 31.9391
_cell_angle_alpha 90.140500
_cell_angle_beta 89.665300
_cell_angle_gamma 90.013000
loop_
  _atom_site_label
  _atom_site_type_symbol
  _atom_site_fract_x
  _atom_site_fract_y
  _atom_site_fract_z
O1 O 0.21670 0.28003 0.23139
 O2 O 0.26787 0.22374 0.28215
 O3 O 0.22230 0.22528 0.22277
 O4 O 0.26440 0.27886 0.28809
 O5 O 0.22394 0.27458 0.33615
 O6 O 0.18237 0.21936 0.27102
 O7 O 0.22753 0.21924 0.33034
 O8 O 0.17629 0.27429 0.27918
 Cu9 Cu 0.24686 0.25251 0.25133
 Cu10 Cu 0.19852 0.24640 0.30901
 C11 C 0.18753 0.28659 0.24656
 C12 C 0.25628 0.21186 0.31506
 C13 C 0.19524 0.21296 0.23549
 C14 C 0.25155 0.28603 0.32313
 O15 O 0.77613 0.28031 0.21531
 O16 O 0.71745 0.23058 0.27018
 O17 O 0.77323 0.22504 0.22796
 O18 O 0.72101 0.28541 0.26213
 O19 O 0.68954 0.28214 0.20518
 O20 O 0.74313 0.22142 0.16980
 O21 O 0.68705 0.22684 0.21249
 O22 O 0.74466 0.27615 0.15848
 Cu23 Cu 0.75021 0.25598 0.24950
 Cu24 Cu 0.71301 0.25149 0.18073
 C25 C 0.77040 0.28646 0.17719
 C26 C 0.69247 0.21974 0.25022
 C27 C 0.76672 0.21249 0.19374
 C28 C 0.69596 0.29381 0.24029
 O29 O 0.81466 0.72061 0.72259
 O30 O 0.77477 0.77566 0.65564
 O31 O 0.81959 0.77603 0.71502
 O32 O 0.77292 0.72007 0.65938
 O33 O 0.72891 0.72505 0.70246
 O34 O 0.77898 0.77763 0.76319
 O35 O 0.73326 0.78018 0.70242
 O36 O 0.76989 0.72288 0.76507
 Cu37 Cu 0.79978 0.74775 0.68368
 Cu38 Cu 0.74849 0.75211 0.73782
 C39 C 0.79834 0.71186 0.75472
 C40 C 0.74705 0.78730 0.66796
 C41 C 0.80784 0.78607 0.74909
 C42 C 0.74296 0.71304 0.67102
 O43 O 0.26433 0.73157 0.71443
 O44 O 0.22635 0.79059 0.77187
 O45 O 0.27642 0.78514 0.71962
 O46 O 0.22339 0.73368 0.78026
 O47 O 0.26578 0.72919 0.82496
 O48 O 0.31657 0.78077 0.76747
 O49 O 0.26412 0.78564 0.82254
 O50 O 0.30507 0.72710 0.76165
 Cu51 Cu 0.24340 0.76033 0.74302
 Cu52 Cu 0.29133 0.75622 0.79916
 C53 C 0.29083 0.71902 0.72774
 C54 C 0.23815 0.79814 0.80698
 C55 C 0.30612 0.79133 0.73341
 C56 C 0.23630 0.72191 0.81255
 C57 C 0.97716 -0.01904 0.03271
 C58 C 1.01123 -0.01906 0.04226
 C59 C 1.02676 0.00474 0.06606
 C60 C 1.03546 -0.04165 0.02850
 C61 C 0.95967 -0.04304 0.01086
 C62 C 0.95504 0.00597 0.04284
 C63 C 1.03001 0.03195 0.04845
 C64 C 1.04353 0.05435 0.07209
 C65 C 1.05363 0.04985 0.11373
 C66 C 1.05077 0.02248 0.13097
 C67 C 1.03780 0.00004 0.10714
 C68 C 1.06465 -0.03366 0.00556
 C69 C 1.08794 -0.05404 -0.00849
 C70 C 1.08262 -0.08305 -0.00014
 C71 C 1.05387 -0.09108 0.02397
 C72 C 1.03055 -0.07049 0.03840
 C73 C 0.92783 -0.05233 0.02624
 C74 C 0.90898 -0.07291 0.00492
 C75 C 0.92181 -0.08555 -0.03197
 C76 C 0.95413 -0.07655 -0.04698
 C77 C 0.97241 -0.05507 -0.02641
 C78 C 0.95189 0.01655 0.08382
 C79 C 0.93198 0.04067 0.09206
 C80 C 0.91352 0.05406 0.05981
 C81 C 0.91565 0.04257 0.01914
 C82 C 0.93636 0.01898 0.01075
 H83 H 1.02179 0.03582 0.01664
 H84 H 1.04551 0.07529 0.05820
 H85 H 1.05881 0.01846 0.16282
 H86 H 1.03558 -0.02090 0.12102
 H87 H 1.06922 -0.01152 -0.00202
 H88 H 1.11021 -0.04702 -0.02602
 H89 H 1.00855 -0.07706 0.05678
 H90 H 0.91708 -0.04310 0.05452
 H91 H 0.88389 -0.07825 0.01709
 H92 H 0.96543 -0.08589 -0.07478
 H93 H 0.99626 -0.04767 -0.03997
 H94 H 0.96511 0.00634 0.10940
 H95 H 0.93151 0.04894 0.12370
 H96 H 0.90113 0.05160 -0.00633
 H97 H 0.93791 0.01088 -0.02099
 H98 H 1.04903 -0.11326 0.03088
 C99 C 0.47826 0.49996 0.50165
 C100 C 0.51254 0.50231 0.49405
 C101 C 0.53281 0.52661 0.51070
 C102 C 0.53153 0.47964 0.47129
 C103 C 0.45710 0.47853 0.47947
 C104 C 0.46074 0.51915 0.53184
 C105 C 0.52201 0.55480 0.50440
 C106 C 0.53932 0.57737 0.52337
 C107 C 0.56836 0.57222 0.54792
 C108 C 0.58019 0.54417 0.55249
 C109 C 0.56250 0.52154 0.53412
 C110 C 0.55093 0.48615 0.43544
 C111 C 0.56988 0.46490 0.41506
 C112 C 0.57026 0.43703 0.43085
 C113 C 0.55067 0.43057 0.46661
 C114 C 0.53139 0.45167 0.48657
 C115 C 0.43700 0.45908 0.50205
 C116 C 0.41859 0.43788 0.48106
 C117 C 0.41975 0.43601 0.43710
 C118 C 0.43891 0.45628 0.41462
 C119 C 0.45737 0.47731 0.43559
 C120 C 0.47155 0.52060 0.57362
 C121 C 0.45782 0.54104 0.60076
 C122 C 0.43305 0.56046 0.58659
 C123 C 0.42144 0.55817 0.54503
 C124 C 0.43494 0.53752 0.51806
 H125 H 0.49976 0.55929 0.48543
 H126 H 0.53009 0.59888 0.51884
 H127 H 0.60253 0.53971 0.57133
 H128 H 0.57141 0.50000 0.53921
 H129 H 0.55144 0.50767 0.42339
 H130 H 0.58505 0.47039 0.38775
 H131 H 0.51686 0.44634 0.51447
 H132 H 0.43638 0.45979 0.53594
 H133 H 0.40427 0.42249 0.49928
 H134 H 0.43968 0.45588 0.38073
 H135 H 0.47215 0.49254 0.41759
 H136 H 0.49124 0.50634 0.58485
 H137 H 0.46680 0.54176 0.63275
 H138 H 0.40279 0.57298 0.53281
 H139 H 0.42644 0.53676 0.48585
 H140 H 0.55051 0.40921 0.47927
 C141 C 0.02263 0.50429 -0.00401
 C142 C -0.01190 0.50655 0.00154
 C143 C -0.03164 0.48538 0.02619
 C144 C -0.03128 0.53002 -0.01842
 C145 C 0.04162 0.52494 -0.03034
 C146 C 0.04343 0.48240 0.01746
 C147 C -0.03037 0.45632 0.01601
 C148 C -0.04847 0.43649 0.04002
 C149 C -0.06819 0.44536 0.07465
 C150 C -0.06966 0.47451 0.08452
 C151 C -0.05174 0.49435 0.06029
 C152 C -0.05576 0.52375 -0.04905
 C153 C -0.06982 0.54555 -0.07320
 C154 C -0.05943 0.57390 -0.06717
 C155 C -0.03636 0.58029 -0.03491
 C156 C -0.02279 0.55855 -0.01033
 C157 C 0.06410 0.54413 -0.01128
 C158 C 0.07950 0.56567 -0.03468
 C159 C 0.07335 0.56807 -0.07794
 C160 C 0.05141 0.54825 -0.09717
 C161 C 0.03562 0.52687 -0.07352
 C162 C 0.04303 0.48004 0.06125
 C163 C 0.06373 0.45997 0.08111
 C164 C 0.08533 0.44200 0.05754
 C165 C 0.08568 0.44454 0.01369
 C166 C 0.06507 0.46465 -0.00611
 H167 H -0.01528 0.44902 -0.01049
 H168 H -0.04675 0.41415 0.03182
 H169 H -0.08503 0.48196 0.11066
 H170 H -0.05314 0.51671 0.06848
 H171 H -0.06265 0.50187 -0.05568
 H172 H -0.08759 0.54013 -0.09788
 H173 H -0.00439 0.56383 0.01373
 H174 H 0.06866 0.54308 0.02211
 H175 H 0.09558 0.58088 -0.01856
 H176 H 0.04651 0.54918 -0.13046
 H177 H 0.01833 0.51210 -0.08867
 H178 H 0.02708 0.49401 0.08004
 H179 H 0.06332 0.45891 0.11497
 H180 H 0.10167 0.43078 -0.00539
 H181 H 0.06581 0.46626 -0.03993
 H182 H -0.02845 0.60205 -0.02922
 C183 C 0.52315 0.99908 0.48446
 C184 C 0.48834 1.00098 0.48304
 C185 C 0.46541 0.98018 0.50412
 C186 C 0.47130 1.02481 0.46097
 C187 C 0.54461 1.02286 0.46886
 C188 C 0.54142 0.97408 0.50234
 C189 C 0.43914 0.96698 0.48141
 C190 C 0.41668 0.94803 0.50106
 C191 C 0.41977 0.94215 0.54402
 C192 C 0.44597 0.95565 0.56679
 C193 C 0.46853 0.97451 0.54704
 C194 C 0.47629 1.02888 0.41785
 C195 C 0.45939 1.05090 0.39708
 C196 C 0.43708 1.06916 0.41907
 C197 C 0.43239 1.06508 0.46236
 C198 C 0.44918 1.04301 0.48303
 C199 C 0.54483 1.04905 0.49008
 C200 C 0.56459 1.07164 0.47496
 C201 C 0.58392 1.06845 0.43805
 C202 C 0.58381 1.04215 0.41702
 C203 C 0.56461 1.01939 0.43264
 C204 C 0.56968 0.97837 0.52871
 C205 C 0.58710 0.95523 0.54583
 C206 C 0.57638 0.92733 0.53728
 C207 C 0.54856 0.92290 0.51039
 C208 C 0.53161 0.94605 0.49249
 H209 H 0.43623 0.97119 0.44829
 H210 H 0.39712 0.93774 0.48249
 H211 H 0.44866 0.95203 0.60007
 H212 H 0.48816 0.98497 0.56532
 H213 H 0.49284 1.01471 0.40020
 H214 H 0.46315 1.05318 0.36365
 H215 H 0.44507 1.04018 0.51633
 H216 H 0.52961 1.05194 0.51824
 H217 H 0.56424 1.09178 0.49151
 H218 H 0.59872 1.03925 0.38861
 H219 H 0.56473 0.99925 0.41605
 H220 H 0.57802 0.99969 0.53661
 H221 H 0.60842 0.95911 0.56664
 H222 H 0.54016 0.90150 0.50301
 H223 H 0.51079 0.94203 0.47102
 H224 H 0.41581 1.07904 0.48033
 C225 C 1.15117 0.17653 0.22441
 C226 C 1.13639 0.15533 0.19918
 C227 C 1.14980 0.15004 0.15868
 C228 C 1.17788 0.16580 0.14422
 C229 C 1.19282 0.18647 0.16967
 C230 C 1.17974 0.19219 0.21008
 C231 C 1.13523 0.12887 0.13340
 C232 C 1.10782 0.11246 0.14839
 C233 C 1.09462 0.11746 0.18910
 C234 C 1.10874 0.13906 0.21406
 C235 C 1.06777 0.10050 0.20435
 C236 C 1.05441 0.07857 0.17973
 C237 C 1.06729 0.07354 0.13923
 C238 C 1.09379 0.09075 0.12357
 H239 H 1.14071 0.18042 0.25543
 H240 H 1.18852 0.16198 0.11329
 H241 H 1.21467 0.19806 0.15741
 H242 H 1.14553 0.12491 0.10231
 H243 H 1.09855 0.14292 0.24523
 H244 H 1.05735 0.10399 0.23546
 H245 H 1.03383 0.06559 0.19221
 H246 H 1.10407 0.08672 0.09249
 C247 C 0.68899 0.68718 0.65195
 C248 C 0.67191 0.66539 0.63025
 C249 C 0.69088 0.64628 0.60485
 C250 C 0.72641 0.64960 0.60091
 C251 C 0.74311 0.67154 0.62207
 C252 C 0.72468 0.69039 0.64799
 C253 C 0.67409 0.62415 0.58380
 C254 C 0.63847 0.62106 0.58731
 C255 C 0.61934 0.64052 0.61193
 C256 C 0.63621 0.66245 0.63348
 C257 C 0.58362 0.63768 0.61458
 C258 C 0.56704 0.61568 0.59326
 C259 C 0.58592 0.59598 0.56936
 C260 C 0.62166 0.59880 0.56649
 H261 H 0.67451 0.70173 0.67160
 H262 H 0.74131 0.63521 0.58148
 H263 H 0.77063 0.67350 0.61860
 H264 H 0.68872 0.60937 0.56463
 H265 H 0.62157 0.67722 0.65264
 H266 H 0.56853 0.65242 0.63320
 H267 H 0.53946 0.61370 0.59605
 H268 H 0.63629 0.58381 0.54770
 C269 C -0.18542 0.32548 0.17432
 C270 C -0.16505 0.34457 0.15110
 C271 C -0.16516 0.34323 0.10682
 C272 C -0.18552 0.32302 0.08651
 C273 C -0.20610 0.30456 0.10969
 C274 C -0.20642 0.30562 0.15369
 C275 C -0.14532 0.36236 0.08340
 C276 C -0.12575 0.38324 0.10354
 C277 C -0.12569 0.38481 0.14776
 C278 C -0.14511 0.36531 0.17130
 C279 C -0.10647 0.40611 0.16761
 C280 C -0.08777 0.42578 0.14388
 C281 C -0.08767 0.42432 0.09990
 C282 C -0.10663 0.40284 0.07999
 H283 H -0.18566 0.32658 0.20823
 H284 H -0.18588 0.32170 0.05264
 H285 H -0.22185 0.28934 0.09305
 H286 H -0.14549 0.36125 0.04947
 H287 H -0.14508 0.36653 0.20522
 H288 H -0.10607 0.40768 0.20145
 H289 H -0.07310 0.44200 0.15991
 H290 H -0.10710 0.40179 0.04608
 C291 C 0.31707 0.82832 0.67786
 C292 C 0.33953 0.84697 0.65683
 C293 C 0.37465 0.84749 0.66764
 C294 C 0.38672 0.82959 0.69921
 C295 C 0.36426 0.81146 0.72025
 C296 C 0.32927 0.81060 0.70995
 C297 C 0.39720 0.86601 0.64701
 C298 C 0.38514 0.88440 0.61597
 C299 C 0.35006 0.88411 0.60516
 C300 C 0.32748 0.86529 0.62550
 C301 C 0.33817 0.90278 0.57432
 C302 C 0.36077 0.92161 0.55452
 C303 C 0.39574 0.92206 0.56500
 C304 C 0.40769 0.90320 0.59574
 H305 H 0.29014 0.82793 0.66976
 H306 H 0.41353 0.82972 0.70786
 H307 H 0.37444 0.79795 0.74462
 H308 H 0.42410 0.86630 0.65539
 H309 H 0.30058 0.86506 0.61719
 H310 H 0.31136 0.90298 0.56571
 H311 H 0.35072 0.93615 0.53139
 H312 H 0.43465 0.90295 0.60371
 C313 C -0.15294 0.68467 -0.21351
 C314 C -0.14100 0.66311 -0.18679
 C315 C -0.16472 0.64452 -0.16726
 C316 C -0.19984 0.64794 -0.17427
 C317 C -0.21149 0.66983 -0.19985
 C318 C -0.18828 0.68835 -0.21965
 C319 C -0.15310 0.62304 -0.14053
 C320 C -0.11809 0.62022 -0.13217
 C321 C -0.09431 0.63905 -0.15102
 C322 C -0.10587 0.66018 -0.17859
 C323 C -0.05937 0.63651 -0.14168
 C324 C -0.04815 0.61555 -0.11396
 C325 C -0.07159 0.59658 -0.09551
 C326 C -0.10654 0.59898 -0.10488
 H327 H -0.13494 0.69909 -0.22839
 H328 H -0.21834 0.63394 -0.15949
 H329 H -0.23883 0.67224 -0.20436
 H330 H -0.17136 0.60875 -0.12579
 H331 H -0.08762 0.67454 -0.19316
 H332 H -0.04076 0.65073 -0.15575
 H333 H -0.02101 0.61382 -0.10746
 H334 H -0.12476 0.58454 -0.09044
 C335 C 0.31019 1.18330 0.32434
 C336 C 0.32878 1.16188 0.34484
 C337 C 0.31290 1.14596 0.37710
 C338 C 0.27892 1.15175 0.38848
 C339 C 0.26075 1.17318 0.36824
 C340 C 0.27608 1.18916 0.33601
 C341 C 0.33120 1.12454 0.39763
 C342 C 0.36534 1.11892 0.38665
 C343 C 0.38141 1.13486 0.35460
 C344 C 0.36300 1.15621 0.33379
 C345 C 0.41566 1.12917 0.34400
 C346 C 0.43379 1.10790 0.36496
 C347 C 0.41800 1.09189 0.39685
 C348 C 0.38364 1.09755 0.40735
 H349 H 0.32235 1.19554 0.29966
 H350 H 0.26639 1.13976 0.41314
 H351 H 0.23451 1.17715 0.37780
 H352 H 0.31891 1.11233 0.42230
 H353 H 0.37530 1.16842 0.30915
 H354 H 0.42846 1.14122 0.31963
 H355 H 0.46034 1.10422 0.35656
 H356 H 0.37093 1.08505 0.43132
 C357 C 1.21089 -0.18119 -0.12856
 C358 C 1.18924 -0.16070 -0.10996
 C359 C 1.17872 -0.13681 -0.13357
 C360 C 1.19010 -0.13361 -0.17494
 C361 C 1.21059 -0.15444 -0.19349
 C362 C 1.22087 -0.17843 -0.17072
 C363 C 1.15616 -0.11687 -0.11600
 C364 C 1.14334 -0.12065 -0.07535
 C365 C 1.15374 -0.14438 -0.05150
 C366 C 1.17689 -0.16418 -0.06883
 C367 C 1.14041 -0.14801 -0.01092
 C368 C 1.11707 -0.12830 0.00579
 C369 C 1.10672 -0.10458 -0.01773
 C370 C 1.11994 -0.10109 -0.05845
 H371 H 1.21831 -0.19997 -0.11117
 H372 H 1.18224 -0.11546 -0.19341
 H373 H 1.21798 -0.15211 -0.22606
 H374 H 1.14806 -0.09867 -0.13429
 H375 H 1.18472 -0.18252 -0.05068
 H376 H 1.14805 -0.16605 0.00790
 H377 H 1.10754 -0.13138 0.03736
 H378 H 1.11166 -0.08325 -0.07732
 C379 C 0.67564 0.32399 0.29965
 C380 C 0.65477 0.34539 0.31659
 C381 C 0.63215 0.36054 0.29043
 C382 C 0.63061 0.35363 0.24766
 C383 C 0.65121 0.33187 0.23108
 C384 C 0.67402 0.31697 0.25690
 C385 C 0.61138 0.38213 0.30757
 C386 C 0.61264 0.38832 0.35065
 C387 C 0.63497 0.37270 0.37671
 C388 C 0.65605 0.35156 0.35948
 C389 C 0.63577 0.37831 0.41978
 C390 C 0.61454 0.39914 0.43709
 C391 C 0.59244 0.41499 0.41164
 C392 C 0.59174 0.40964 0.36830
 H393 H 0.69283 0.31245 0.32005
 H394 H 0.61335 0.36493 0.22710
 H395 H 0.64948 0.32684 0.19806
 H396 H 0.59410 0.39389 0.28755
 H397 H 0.67326 0.33973 0.37953
 H398 H 0.65271 0.36650 0.44013
 H399 H 0.61565 0.40314 0.47047
 H400 H 0.57452 0.42170 0.34859
 C401 C 0.82052 -0.18761 -0.18646
 C402 C 0.84146 -0.16851 -0.16428
 C403 C 0.86790 -0.15373 -0.18550
 C404 C 0.87405 -0.15925 -0.22794
 C405 C 0.85447 -0.17942 -0.24918
 C406 C 0.82719 -0.19362 -0.22899
 C407 C 0.88820 -0.13402 -0.16384
 C408 C 0.88363 -0.12994 -0.12068
 C409 C 0.85850 -0.14585 -0.09898
 C410 C 0.83702 -0.16453 -0.12102
 C411 C 0.85550 -0.14300 -0.05548
 C412 C 0.87684 -0.12430 -0.03375
 C413 C 0.90091 -0.10716 -0.05510
 C414 C 0.90407 -0.11035 -0.09887
 H415 H 0.80010 -0.19870 -0.17009
 H416 H 0.89443 -0.14833 -0.24458
 H417 H 0.86034 -0.18341 -0.28187
 H418 H 0.90802 -0.12232 -0.18041
 H419 H 0.81734 -0.17635 -0.10440
 H420 H 0.83687 -0.15546 -0.03816
 H421 H 0.87435 -0.12344 -0.00003
 H422 H 0.92194 -0.09732 -0.11638
 C423 C 0.30208 0.31724 0.33676
 C424 C 0.31898 0.33837 0.35976
 C425 C 0.30282 0.35066 0.39514
 C426 C 0.27009 0.34120 0.40717
 C427 C 0.25345 0.31997 0.38413
 C428 C 0.26917 0.30795 0.34854
 C429 C 0.31960 0.37221 0.41771
 C430 C 0.35235 0.38150 0.40530
 C431 C 0.36853 0.36886 0.37015
 C432 C 0.35176 0.34743 0.34764
 C433 C 0.40125 0.37791 0.35789
 C434 C 0.41778 0.39951 0.37992
 C435 C 0.40191 0.41264 0.41457
 C436 C 0.36916 0.40334 0.42728
 H437 H 0.31465 0.30804 0.30956
 H438 H 0.25732 0.35030 0.43427
 H439 H 0.22812 0.31319 0.39388
 H440 H 0.30716 0.38178 0.44473
 H441 H 0.36417 0.33789 0.32055
 H442 H 0.41408 0.36828 0.33122
 H443 H 0.44326 0.40578 0.36999
 H444 H 0.35652 0.41340 0.45373
 C445 C 0.18584 0.69111 -0.17774
 C446 C 0.16962 0.66856 -0.15644
 C447 C 0.18664 0.65504 -0.12293
 C448 C 0.21895 0.66450 -0.11057
 C449 C 0.23472 0.68693 -0.13145
 C450 C 0.21874 0.70037 -0.16563
 C451 C 0.17120 0.63220 -0.10213
 C452 C 0.13859 0.62286 -0.11376
 C453 C 0.12104 0.63654 -0.14663
 C454 C 0.13678 0.65921 -0.16805
 C455 C 0.08800 0.62732 -0.15724
 C456 C 0.07247 0.60499 -0.13520
 C457 C 0.08990 0.59122 -0.10251
 C458 C 0.12321 0.60016 -0.09251
 H459 H 0.17296 0.70120 -0.20377
 H460 H 0.23218 0.65445 -0.08478
 H461 H 0.25991 0.69337 -0.12096
 H462 H 0.18449 0.62181 -0.07664
 H463 H 0.12347 0.66961 -0.19351
 H464 H 0.07399 0.63761 -0.18217
 H465 H 0.04658 0.59890 -0.14325
 H466 H 0.13734 0.58943 -0.06808
 C467 C 0.67617 1.19088 0.31113
 C468 C 0.65615 1.16911 0.32891
 C469 C 0.63091 1.15540 0.30449
 C470 C 0.62536 1.16420 0.26328
 C471 C 0.64511 1.18595 0.24591
 C472 C 0.67118 1.19929 0.26923
 C473 C 0.61177 1.13293 0.32144
 C474 C 0.61727 1.12409 0.36270
 C475 C 0.64177 1.13829 0.38768
 C476 C 0.66119 1.16062 0.37055
 C477 C 0.64646 1.12979 0.42934
 C478 C 0.62731 1.10728 0.44594
 C479 C 0.60361 1.09266 0.42094
 C480 C 0.59863 1.10122 0.37938
 H481 H 0.69587 1.20096 0.32984
 H482 H 0.60594 1.15405 0.24426
 H483 H 0.64030 1.19183 0.21371
 H484 H 0.59272 1.12222 0.30244
 H485 H 0.68030 1.17126 0.38953
 H486 H 0.66497 1.14050 0.44904
 H487 H 0.63140 1.10092 0.47810
 H488 H 0.57998 1.09019 0.36022
 C489 C 0.17866 0.32393 0.19151
 C490 C 0.15807 0.34444 0.17197
 C491 C 0.12449 0.34957 0.18712
 C492 C 0.11219 0.33429 0.22166
 C493 C 0.13283 0.31402 0.24099
 C494 C 0.16618 0.30853 0.22611
 C495 C 0.10371 0.36982 0.16751
 C496 C 0.11608 0.38514 0.13298
 C497 C 0.14971 0.38019 0.11795
 C498 C 0.17049 0.35985 0.13750
 C499 C 0.16198 0.39566 0.08353
 C500 C 0.14112 0.41577 0.06408
 C501 C 0.10754 0.42077 0.07857
 C502 C 0.09524 0.40531 0.11317
 H503 H 0.20434 0.31996 0.17976
 H504 H 0.08655 0.33798 0.23370
 H505 H 0.12251 0.30249 0.26753
 H506 H 0.07793 0.37364 0.17910
 H507 H 0.19625 0.35601 0.12587
 H508 H 0.18773 0.39225 0.07170
 H509 H 0.15143 0.42768 0.03790
 H510 H 0.06927 0.40865 0.12433
 C511 C 0.69452 0.81261 0.64444
 C512 C 0.67812 0.83381 0.62115
 C513 C 0.69778 0.85238 0.59584
 C514 C 0.73342 0.84868 0.59317
 C515 C 0.74949 0.82707 0.61586
 C516 C 0.73025 0.80920 0.64216
 C517 C 0.68149 0.87437 0.57387
 C518 C 0.64577 0.87768 0.57641
 C519 C 0.62606 0.85839 0.60051
 C520 C 0.64239 0.83673 0.62296
 C521 C 0.59031 0.86119 0.60203
 C522 C 0.57419 0.88322 0.58048
 C523 C 0.59356 0.90302 0.55757
 C524 C 0.62937 0.90007 0.55543
 H525 H 0.67943 0.79860 0.66422
 H526 H 0.74888 0.86258 0.57369
 H527 H 0.77706 0.82476 0.61366
 H528 H 0.69659 0.88891 0.55497
 H529 H 0.62729 0.82223 0.64196
 H530 H 0.57484 0.84649 0.62014
 H531 H 0.54658 0.88527 0.58257
 H532 H 0.64435 0.91520 0.53743
 C533 C 0.79842 0.18179 0.14227
 C534 C 0.81775 0.15725 0.13323
 C535 C 0.82338 0.13683 0.16499
 C536 C 0.81050 0.14162 0.20541
 C537 C 0.79240 0.16648 0.21445
 C538 C 0.78604 0.18659 0.18304
 C539 C 0.84221 0.11214 0.15611
 C540 C 0.85662 0.10799 0.11629
 C541 C 0.85197 0.12873 0.08486
 C542 C 0.83209 0.15302 0.09329
 C543 C 0.86764 0.12495 0.04568
 C544 C 0.88783 0.10095 0.03775
 C545 C 0.89215 0.07980 0.06848
 C546 C 0.87606 0.08353 0.10769
 H547 H 0.79383 0.19748 0.11811
 H548 H 0.81474 0.12629 0.23014
 H549 H 0.78287 0.16985 0.24601
 H550 H 0.84618 0.09642 0.18043
 H551 H 0.82827 0.16881 0.06904
 H552 H 0.86472 0.14078 0.02134
 H553 H 0.90044 0.09925 0.00759
 H554 H 0.87839 0.06738 0.13163
 C555 C 0.33794 0.68450 0.70914
 C556 C 0.35011 0.66128 0.68542
 C557 C 0.32806 0.64762 0.65663
 C558 C 0.29453 0.65747 0.65164
 C559 C 0.28286 0.68076 0.67469
 C560 C 0.30430 0.69450 0.70365
 C561 C 0.33987 0.62448 0.63291
 C562 C 0.37373 0.61509 0.63678
 C563 C 0.39603 0.62881 0.66512
 C564 C 0.38400 0.65167 0.68958
 C565 C 0.43010 0.61962 0.66809
 C566 C 0.44204 0.59731 0.64286
 C567 C 0.42004 0.58349 0.61455
 C568 C 0.38572 0.59240 0.61217
 H569 H 0.35472 0.69502 0.73125
 H570 H 0.27734 0.64727 0.62969
 H571 H 0.25676 0.68786 0.67007
 H572 H 0.32283 0.61406 0.61095
 H573 H 0.40108 0.66217 0.71139
 H574 H 0.44766 0.62996 0.68942
 H575 H 0.46876 0.59132 0.64492
 H576 H 0.36826 0.58171 0.59106
   
