data_POSCAR
  _audit_creation_date              2014-09-24
  _audit_creation_method            'ToBaCCo'
  _symmetry_space_group_name_H-M    'P1'
  _symmetry_Int_Tables_number       1
  _symmetry_cell_setting            triclinic
  loop_
  _symmetry_equiv_pos_as_xyz
 x,y,z
_cell_length_a 44.8506
_cell_length_b 44.8515
_cell_length_c 44.7851
_cell_angle_alpha 89.988100
_cell_angle_beta 90.010900
_cell_angle_gamma 89.836500
loop_
  _atom_site_label
  _atom_site_type_symbol
  _atom_site_fract_x
  _atom_site_fract_y
  _atom_site_fract_z
C1 C 0.19312 0.15327 0.19360
 C2 C 0.18024 0.14072 0.21922
 C3 C 0.15474 0.15361 0.23198
 C4 C 0.14190 0.17911 0.21916
 C5 C 0.15449 0.19194 0.19355
 C6 C 0.18022 0.17900 0.18067
 C7 C 0.21874 0.14065 0.18075
 C8 C 0.23153 0.15347 0.15525
 C9 C 0.21874 0.17897 0.14238
 C10 C 0.19312 0.19187 0.15495
 C11 C 0.18026 0.21749 0.14235
 C12 C 0.15478 0.23029 0.15518
 C13 C 0.14192 0.21756 0.18065
 H14 H 0.19010 0.12100 0.22927
 H15 H 0.12218 0.18902 0.22917
 H16 H 0.22878 0.12093 0.19064
 H17 H 0.22877 0.18882 0.12267
 H18 H 0.19007 0.22756 0.12265
 H19 H 0.12222 0.22768 0.19044
 C20 C -0.19314 0.84664 0.19354
 C21 C -0.18030 0.85919 0.21917
 C22 C -0.15477 0.84633 0.23193
 C23 C -0.14187 0.82087 0.21910
 C24 C -0.15444 0.80805 0.19347
 C25 C -0.18020 0.82095 0.18060
 C26 C -0.21879 0.85922 0.18070
 C27 C -0.23156 0.84640 0.15518
 C28 C -0.21872 0.82094 0.14229
 C29 C -0.19307 0.80809 0.15486
 C30 C -0.18015 0.78250 0.14224
 C31 C -0.15464 0.76974 0.15507
 C32 C -0.14181 0.78247 0.18056
 H33 H -0.19020 0.87887 0.22924
 H34 H -0.12213 0.81100 0.22910
 H35 H -0.22887 0.87890 0.19059
 H36 H -0.22873 0.81110 0.12257
 H37 H -0.18994 0.77244 0.12253
 H38 H -0.12209 0.77238 0.19034
 C39 C -0.19446 0.15458 -0.19242
 C40 C -0.18156 0.14194 -0.21801
 C41 C -0.15609 0.15470 -0.23077
 C42 C -0.14328 0.18015 -0.21803
 C43 C -0.15588 0.19308 -0.19245
 C44 C -0.18160 0.18028 -0.17955
 C45 C -0.22006 0.14209 -0.17955
 C46 C -0.23286 0.15501 -0.15407
 C47 C -0.22011 0.18048 -0.14125
 C48 C -0.19451 0.19325 -0.15385
 C49 C -0.18167 0.21884 -0.14130
 C50 C -0.15620 0.23150 -0.15417
 C51 C -0.14334 0.21866 -0.17961
 H52 H -0.19133 0.12226 -0.22808
 H53 H -0.12359 0.18988 -0.22812
 H54 H -0.23006 0.12240 -0.18939
 H55 H -0.23015 0.19040 -0.12156
 H56 H -0.19148 0.22898 -0.12162
 H57 H -0.12365 0.22867 -0.18943
 C58 C 0.19356 0.84533 -0.19392
 C59 C 0.18066 0.85796 -0.21953
 C60 C 0.15520 0.84516 -0.23232
 C61 C 0.14241 0.81968 -0.21955
 C62 C 0.15504 0.80678 -0.19394
 C63 C 0.18073 0.81962 -0.18104
 C64 C 0.21914 0.85785 -0.18103
 C65 C 0.23193 0.84496 -0.15556
 C66 C 0.21924 0.81950 -0.14273
 C67 C 0.19366 0.80668 -0.15532
 C68 C 0.18086 0.78109 -0.14275
 C69 C 0.15541 0.76838 -0.15561
 C70 C 0.14253 0.78118 -0.18108
 H71 H 0.19047 0.87766 -0.22954
 H72 H 0.12273 0.80986 -0.22958
 H73 H 0.22917 0.87754 -0.19082
 H74 H 0.22935 0.80966 -0.12303
 H75 H 0.19069 0.77097 -0.12306
 H76 H 0.12285 0.77114 -0.19089
 C77 C 0.15332 1.19310 0.80631
 C78 C 0.14077 1.18023 0.78069
 C79 C 0.15367 1.15473 0.76793
 C80 C 0.17917 1.14188 0.78075
 C81 C 0.19199 1.15447 0.80637
 C82 C 0.17905 1.18020 0.81924
 C83 C 0.14070 1.21872 0.81916
 C84 C 0.15352 1.23151 0.84466
 C85 C 0.17902 1.21871 0.85754
 C86 C 0.19191 1.19310 0.84497
 C87 C 0.21753 1.18022 0.85758
 C88 C 0.23033 1.15475 0.84474
 C89 C 0.21761 1.14189 0.81927
 H90 H 0.12106 1.19010 0.77063
 H91 H 0.18907 1.12217 0.77074
 H92 H 0.12099 1.22876 0.80927
 H93 H 0.18886 1.22874 0.87725
 H94 H 0.22759 1.19003 0.87728
 H95 H 0.22773 1.12219 0.80948
 C96 C 0.84680 0.80693 0.80652
 C97 C 0.85935 0.81978 0.78089
 C98 C 0.84649 0.84531 0.76813
 C99 C 0.82102 0.85819 0.78095
 C100 C 0.80820 0.84562 0.80658
 C101 C 0.82110 0.81987 0.81945
 C102 C 0.85939 0.78128 0.81937
 C103 C 0.84656 0.76851 0.84487
 C104 C 0.82109 0.78134 0.85775
 C105 C 0.80823 0.80698 0.84519
 C106 C 0.78264 0.81989 0.85779
 C107 C 0.76987 0.84539 0.84496
 C108 C 0.78261 0.85823 0.81948
 H109 H 0.87904 0.80989 0.77083
 H110 H 0.81114 0.87792 0.77094
 H111 H 0.87908 0.77121 0.80947
 H112 H 0.81124 0.77132 0.87747
 H113 H 0.77257 0.81010 0.87749
 H114 H 0.77251 0.87795 0.80969
 C115 C 0.15471 0.80540 1.19243
 C116 C 0.14208 0.81830 1.21803
 C117 C 0.15484 0.84376 1.23079
 C118 C 0.18028 0.85658 1.21804
 C119 C 0.19321 0.84398 1.19246
 C120 C 0.18041 0.81827 1.17955
 C121 C 0.14222 0.77981 1.17956
 C122 C 0.15513 0.76701 1.15407
 C123 C 0.18060 0.77977 1.14125
 C124 C 0.19337 0.80536 1.15384
 C125 C 0.21895 0.81821 1.14129
 C126 C 0.23161 0.84368 1.15416
 C127 C 0.21878 0.85654 1.17961
 H128 H 0.12240 0.80852 1.22810
 H129 H 0.19001 0.87627 1.22813
 H130 H 0.12253 0.76980 1.18940
 H131 H 0.19051 0.76973 1.12155
 H132 H 0.22909 0.80841 1.12161
 H133 H 0.22879 0.87623 1.18942
 C134 C 0.84533 1.19356 1.19391
 C135 C 0.85797 1.18065 1.21950
 C136 C 0.84518 1.15518 1.23229
 C137 C 0.81968 1.14242 1.21953
 C138 C 0.80677 1.15505 1.19394
 C139 C 0.81961 1.18075 1.18104
 C140 C 0.85786 1.21914 1.18102
 C141 C 0.84495 1.23194 1.15556
 C142 C 0.81948 1.21927 1.14274
 C143 C 0.80666 1.19369 1.15533
 C144 C 0.78105 1.18090 1.14278
 C145 C 0.76835 1.15545 1.15563
 C146 C 0.78116 1.14255 1.18109
 H147 H 0.87769 1.19045 1.22951
 H148 H 0.80985 1.12273 1.22957
 H149 H 0.87756 1.22916 1.19080
 H150 H 0.80964 1.22938 1.12305
 H151 H 0.77093 1.19073 1.12309
 H152 H 0.77112 1.12288 1.19090
 N153 N 0.53113 1.05319 0.96824
 N154 N 0.55382 1.07155 0.96474
 N155 N 0.46856 1.03223 0.94733
 N156 N 0.44575 1.03575 0.92900
 N157 N 0.46836 1.05289 0.96812
 N158 N 0.44542 1.07105 0.96452
 N159 N 0.53132 1.03252 0.94746
 N160 N 0.55414 1.03623 0.92923
 C161 C 0.56782 1.06066 0.94032
 C162 C 0.43167 1.06005 0.94004
 N163 N 0.46917 0.94726 0.96790
 N164 N 0.44648 0.92892 0.96425
 N165 N 0.53181 0.96831 0.94732
 N166 N 0.55464 0.96484 0.92904
 N167 N 0.53192 0.94756 0.96803
 N168 N 0.55484 0.92938 0.96442
 N169 N 0.46904 0.96802 0.94720
 N170 N 0.44627 0.96440 0.92889
 Mn171 Mn 0.50018 1.00027 0.94697
 C172 C 0.43254 0.93993 0.93984
 C173 C 0.56867 0.94047 0.94003
 N174 N 0.46824 1.05274 1.03243
 N175 N 0.44530 1.07091 1.03603
 N176 N 0.53112 1.03228 1.05325
 N177 N 0.55390 1.03590 1.07156
 N178 N 0.53100 1.05304 1.03255
 N179 N 0.55370 1.07137 1.03619
 N180 N 0.46836 1.03198 1.05312
 N181 N 0.44552 1.03543 1.07140
 Mn182 Mn 0.49968 1.05333 1.00033
 C183 C 0.43148 1.05979 1.06042
 C184 C 0.56763 1.06037 1.06060
 N185 N 0.53181 0.94741 1.03233
 N186 N 0.55475 0.92925 1.03594
 N187 N 0.46885 0.96777 1.05298
 N188 N 0.44601 0.96405 1.07119
 N189 N 0.46906 0.94711 1.03220
 N190 N 0.44637 0.92874 1.03568
 N191 N 0.53161 0.96807 1.05312
 N192 N 0.55441 0.96455 1.07146
 Mn193 Mn 0.50049 0.94697 1.00011
 Mn194 Mn 0.49999 1.00003 1.05348
 Cl195 Cl 0.50009 1.00015 1.00022
 C196 C 0.56849 0.94025 1.06042
 C197 C 0.43234 0.93962 1.06008
 N198 N -0.03220 0.46880 -0.05306
 N199 N -0.03592 0.44596 -0.07126
 N200 N -0.05256 0.53177 -0.03241
 N201 N -0.07071 0.55472 -0.03600
 N202 N -0.03190 0.53157 -0.05319
 N203 N -0.03541 0.55437 -0.07152
 N204 N -0.05286 0.46901 -0.03227
 N205 N -0.07122 0.44632 -0.03574
 C206 C -0.06034 0.43229 -0.06015
 C207 C -0.05970 0.56846 -0.06048
 N208 N -0.03166 0.53176 0.05260
 N209 N -0.03513 0.55459 0.07088
 N210 N -0.05271 0.46912 0.03203
 N211 N -0.07105 0.44643 0.03568
 N212 N -0.03195 0.46900 0.05272
 N213 N -0.03557 0.44623 0.07104
 N214 N -0.05241 0.53187 0.03190
 N215 N -0.07060 0.55479 0.03551
 Mn216 Mn -0.05300 0.50045 -0.00019
 C217 C -0.05950 0.56862 0.05990
 C218 C -0.06004 0.43250 0.06010
 N219 N 0.03231 0.53108 -0.05332
 N220 N 0.03592 0.55387 -0.07163
 N221 N 0.05278 0.46820 -0.03251
 N222 N 0.07094 0.44527 -0.03611
 N223 N 0.03202 0.46832 -0.05320
 N224 N 0.03547 0.44548 -0.07147
 N225 N 0.05307 0.53096 -0.03263
 N226 N 0.07139 0.55367 -0.03626
 Mn227 Mn 0.00006 0.49994 -0.05356
 C228 C 0.06038 0.56760 -0.06067
 C229 C 0.05983 0.43144 -0.06050
 N230 N 0.03227 0.46851 0.05259
 N231 N 0.03579 0.44571 0.07092
 N232 N 0.05322 0.53108 0.03169
 N233 N 0.07159 0.55377 0.03519
 N234 N 0.03256 0.53127 0.05247
 N235 N 0.03628 0.55409 0.07070
 N236 N 0.05293 0.46832 0.03181
 N237 N 0.07109 0.44538 0.03540
 Mn238 Mn 0.00030 0.50014 0.05296
 Mn239 Mn 0.05336 0.49964 -0.00041
 Cl240 Cl 0.00018 0.50004 -0.00030
 C241 C 0.06009 0.43163 0.05988
 C242 C 0.06070 0.56777 0.05961
 N243 N 0.94718 -0.03211 0.46855
 N244 N 0.92891 -0.03564 0.44571
 N245 N 0.96794 -0.05287 0.53139
 N246 N 0.96442 -0.07112 0.55425
 N247 N 0.94720 -0.03213 0.53140
 N248 N 0.92897 -0.03569 0.55427
 N249 N 0.96791 -0.05285 0.46854
 N250 N 0.96435 -0.07109 0.44569
 C251 C 0.93994 -0.06004 0.43180
 C252 C 0.94003 -0.06009 0.56817
 N253 N 1.05283 -0.03228 0.53139
 N254 N 1.07112 -0.03591 0.55421
 N255 N 1.03213 -0.05295 0.46854
 N256 N 1.03573 -0.07123 0.44571
 N257 N 1.05282 -0.03228 0.46853
 N258 N 1.07108 -0.03590 0.44569
 N259 N 1.03216 -0.05296 0.53139
 N260 N 1.03579 -0.07125 0.55422
 Mn261 Mn 1.00004 -0.05327 0.49997
 C262 C 1.06017 -0.06029 0.56811
 C263 C 1.06010 -0.06028 0.43181
 N264 N 0.94711 0.03208 0.53140
 N265 N 0.92884 0.03567 0.55423
 N266 N 0.96778 0.05278 0.46854
 N267 N 0.96415 0.07106 0.44572
 N268 N 0.94709 0.03210 0.46855
 N269 N 0.92881 0.03573 0.44572
 N270 N 0.96779 0.05276 0.53140
 N271 N 0.96417 0.07102 0.55425
 Mn272 Mn 0.94679 -0.00002 0.49997
 C273 C 0.93980 0.06004 0.56814
 C274 C 0.93977 0.06011 0.43182
 N275 N 1.05273 0.03194 0.46854
 N276 N 1.07098 0.03549 0.44570
 N277 N 1.03200 0.05268 0.53139
 N278 N 1.03556 0.07093 0.55422
 N279 N 1.05275 0.03194 0.53140
 N280 N 1.07100 0.03550 0.55424
 N281 N 1.03200 0.05268 0.46853
 N282 N 1.03555 0.07093 0.44568
 Mn283 Mn 1.05314 -0.00017 0.49996
 Mn284 Mn 0.99989 0.05309 0.49997
 Cl285 Cl 0.99996 -0.00009 0.49997
 C286 C 1.05995 0.05989 0.43179
 C287 C 1.05996 0.05991 0.56813
 C288 C 1.07750 0.10952 0.32997
 C289 C 1.09991 0.13573 0.32897
 C290 C 1.11888 0.11813 0.30645
 C291 C 1.09668 0.09212 0.30702
 C292 C 1.09576 0.09539 0.35535
 C293 C 1.11473 0.07779 0.33284
 C294 C 1.11796 0.12140 0.35477
 C295 C 1.13713 0.10400 0.33184
 C296 C 1.13183 0.13089 0.27930
 C297 C 1.14256 0.14150 0.25705
 C298 C 1.08294 0.08275 0.38263
 C299 C 1.07244 0.07235 0.40508
 H300 H 1.05284 0.11165 0.32951
 H301 H 1.09396 0.15969 0.32707
 H302 H 1.08807 0.08022 0.28709
 H303 H 1.12067 0.05382 0.33473
 H304 H 1.12657 0.13330 0.37470
 H305 H 1.16179 0.10186 0.33230
 C306 C 0.92244 -0.10663 0.32857
 C307 C 0.90263 -0.13485 0.32726
 C308 C 0.88103 -0.11821 0.30644
 C309 C 0.90063 -0.09019 0.30732
 C310 C 0.90413 -0.09549 0.35535
 C311 C 0.88253 -0.07885 0.33453
 C312 C 0.88453 -0.12351 0.35446
 C313 C 0.86273 -0.10707 0.33322
 C314 C 0.86809 -0.13096 0.27928
 C315 C 0.85739 -0.14156 0.25701
 C316 C 0.91694 -0.08287 0.38264
 C317 C 0.92744 -0.07248 0.40509
 H318 H 0.94713 -0.10632 0.32697
 H319 H 0.91075 -0.15802 0.32396
 H320 H 0.90711 -0.07663 0.28764
 H321 H 0.87441 -0.05568 0.33783
 H322 H 0.87805 -0.13707 0.37414
 H323 H 0.83803 -0.10738 0.33482
 C324 C 0.92108 0.11463 0.66719
 C325 C 0.89455 0.13680 0.66814
 C326 C 0.88058 0.11836 0.69341
 C327 C 0.90691 0.09638 0.69289
 C328 C 0.90383 0.09558 0.64454
 C329 C 0.88986 0.07714 0.66982
 C330 C 0.87750 0.11756 0.64508
 C331 C 0.86333 0.09931 0.67077
 C332 C 0.86756 0.13116 0.72054
 C333 C 0.85680 0.14182 0.74278
 C334 C 0.91672 0.08293 0.61728
 C335 C 0.92727 0.07251 0.59484
 H336 H 0.94497 0.12078 0.66541
 H337 H 0.89633 0.16148 0.66776
 H338 H 0.91885 0.08782 0.71285
 H339 H 0.88808 0.05246 0.67020
 H340 H 0.86555 0.12613 0.62513
 H341 H 0.83944 0.09316 0.67255
 C342 C 1.07992 -0.09783 0.67463
 C343 C 1.09080 -0.13047 0.67807
 C344 C 1.11927 -0.11904 0.69329
 C345 C 1.10859 -0.08660 0.69028
 C346 C 1.09610 -0.09607 0.64445
 C347 C 1.12457 -0.08464 0.65967
 C348 C 1.10678 -0.12850 0.64747
 C349 C 1.13544 -0.11728 0.66310
 C350 C 1.13224 -0.13193 0.72040
 C351 C 1.14298 -0.14263 0.74264
 C352 C 1.08326 -0.08331 0.61721
 C353 C 1.07272 -0.07282 0.59479
 H354 H 1.05695 -0.08969 0.67906
 H355 H 1.07706 -0.14945 0.68595
 H356 H 1.10949 -0.06952 0.70818
 H357 H 1.13831 -0.06565 0.65180
 H358 H 1.10589 -0.14559 0.62957
 H359 H 1.15841 -0.12542 0.65867
 C360 C 0.35403 1.12286 1.11644
 C361 C 0.32707 1.13467 1.09829
 C362 C 0.30603 1.11787 1.11945
 C363 C 0.33258 1.10625 1.13780
 C364 C 0.35496 1.09513 1.09632
 C365 C 0.33392 1.07832 1.11748
 C366 C 0.32842 1.10675 1.07797
 C367 C 0.30695 1.09015 1.09933
 C368 C 0.27887 1.13065 1.13240
 C369 C 0.25661 1.14130 1.14311
 C370 C 0.38226 1.08252 1.08349
 C371 C 0.40473 1.07216 1.07296
 H372 H 0.37369 1.13617 1.12333
 H373 H 0.32395 1.15798 1.09054
 H374 H 0.33399 1.10618 1.16255
 H375 H 0.33705 1.05501 1.12523
 H376 H 0.32701 1.10682 1.05322
 H377 H 0.28729 1.07684 1.09244
 C378 C 0.35582 0.87733 0.88272
 C379 C 0.32963 0.86409 0.90090
 C380 C 0.30764 0.88126 0.88094
 C381 C 0.33341 0.89430 0.86256
 C382 C 0.35639 0.90418 0.90399
 C383 C 0.33439 0.92135 0.88403
 C384 C 0.33062 0.89114 0.92239
 C385 C 0.30820 0.90811 0.90222
 C386 C 0.28056 0.86841 0.86802
 C387 C 0.25836 0.85777 0.85732
 C388 C 0.38358 0.91692 0.91679
 C389 C 0.40594 0.92740 0.92730
 H390 H 0.37570 0.86481 0.87483
 H391 H 0.32737 0.84040 0.90770
 H392 H 0.33425 0.89546 0.83781
 H393 H 0.33666 0.94504 0.87724
 H394 H 0.32978 0.88999 0.94713
 H395 H 0.28831 0.92063 0.91010
 C396 C 0.64611 0.88657 1.12535
 C397 C 0.66672 0.86365 1.10967
 C398 C 0.69390 0.88200 1.11942
 C399 C 0.67371 0.90473 1.13530
 C400 C 0.64497 0.90481 1.09633
 C401 C 0.67215 0.92317 1.10608
 C402 C 0.66516 0.88208 1.08045
 C403 C 0.69278 0.90024 1.09040
 C404 C 0.72107 0.86920 1.13234
 C405 C 0.74335 0.85855 1.14303
 C406 C 0.61768 0.91746 1.08351
 C407 C 0.59522 0.92785 1.07298
 H408 H 0.62662 0.88109 1.13959
 H409 H 0.66479 0.83903 1.11129
 H410 H 0.67753 0.91390 1.15800
 H411 H 0.67408 0.94778 1.10446
 H412 H 0.66135 0.87291 1.05775
 H413 H 0.71227 0.90572 1.07617
 C414 C 0.64751 1.10574 0.87185
 C415 C 0.66231 1.13517 0.88213
 C416 C 0.69279 1.11947 0.88171
 C417 C 0.67841 1.09024 0.87123
 C418 C 0.64402 1.09654 0.90471
 C419 C 0.67450 1.08084 0.90429
 C420 C 0.65840 1.12578 0.91519
 C421 C 0.68931 1.11027 0.91457
 C422 C 0.71988 1.13230 0.86881
 C423 C 0.74210 1.14293 0.85811
 C424 C 0.61682 1.08378 0.91745
 C425 C 0.59444 1.07326 0.92790
 H426 H 0.63002 1.10374 0.85443
 H427 H 0.65759 1.15766 0.87288
 H428 H 0.68695 1.07577 0.85302
 H429 H 0.67921 1.05835 0.91354
 H430 H 0.64986 1.14025 0.93341
 H431 H 0.70680 1.11228 0.93199
 C432 C 0.07748 0.33117 0.11211
 C433 C 0.09441 0.30681 0.09430
 C434 C 0.11846 0.30622 0.11872
 C435 C 0.10174 0.33015 0.13673
 C436 C 0.09559 0.35515 0.09571
 C437 C 0.11964 0.35455 0.12013
 C438 C 0.11231 0.33122 0.07770
 C439 C 0.13656 0.33020 0.10232
 C440 C 0.13130 0.27905 0.13162
 C441 C 0.14195 0.25679 0.14231
 C442 C 0.08290 0.38244 0.08293
 C443 C 0.07249 0.40491 0.07242
 H444 H 0.05305 0.33188 0.11599
 H445 H 0.08417 0.28688 0.08383
 H446 H 0.09753 0.32940 0.16114
 H447 H 0.12988 0.37447 0.13060
 H448 H 0.11651 0.33198 0.05329
 H449 H 0.16100 0.32950 0.09844
 C450 C -0.07900 0.33301 -0.11389
 C451 C -0.09379 0.30775 -0.09558
 C452 C -0.11966 0.30726 -0.11806
 C453 C -0.10507 0.33210 -0.13657
 C454 C -0.09644 0.35606 -0.09542
 C455 C -0.12231 0.35555 -0.11791
 C456 C -0.11102 0.33122 -0.07690
 C457 C -0.13709 0.33030 -0.09959
 C458 C -0.13264 0.28015 -0.13078
 C459 C -0.14336 0.25794 -0.14137
 C460 C -0.08355 0.38327 -0.08285
 C461 C -0.07296 0.40566 -0.07251
 H462 H -0.05497 0.33444 -0.11964
 H463 H -0.08221 0.28779 -0.08654
 H464 H -0.10276 0.33215 -0.16125
 H465 H -0.13389 0.37551 -0.12695
 H466 H -0.11333 0.33116 -0.05222
 H467 H -0.16112 0.32887 -0.09384
 C468 C 0.07780 0.66913 -0.11051
 C469 C 0.09689 0.69208 -0.09317
 C470 C 0.11910 0.69262 -0.11927
 C471 C 0.10021 0.67010 -0.13682
 C472 C 0.09613 0.64382 -0.09637
 C473 C 0.11834 0.64437 -0.12247
 C474 C 0.11502 0.66634 -0.07882
 C475 C 0.13743 0.66730 -0.10513
 C476 C 0.13196 0.71972 -0.13212
 C477 C 0.14261 0.74194 -0.14277
 C478 C 0.08337 0.61661 -0.08365
 C479 C 0.07289 0.59422 -0.07317
 H480 H 0.05314 0.66957 -0.11258
 H481 H 0.08822 0.71200 -0.08126
 H482 H 0.09425 0.67195 -0.16081
 H483 H 0.12701 0.62445 -0.13438
 H484 H 0.12097 0.66448 -0.05483
 H485 H 0.16209 0.66686 -0.10305
 C486 C -0.12550 0.64669 0.11143
 C487 C -0.11109 0.66554 0.13654
 C488 C -0.11813 0.69392 0.11864
 C489 C -0.13273 0.67550 0.09373
 C490 C -0.09511 0.64505 0.09567
 C491 C -0.10215 0.67343 0.07777
 C492 C -0.08051 0.66348 0.12059
 C493 C -0.08774 0.69229 0.10288
 C494 C -0.13104 0.72106 0.13151
 C495 C -0.14175 0.74329 0.14220
 C496 C -0.08236 0.61778 0.08292
 C497 C -0.07192 0.59533 0.07243
 H498 H -0.14088 0.62764 0.11480
 H499 H -0.11491 0.66259 0.16085
 H500 H -0.15435 0.68074 0.08282
 H501 H -0.09833 0.67637 0.05346
 H502 H -0.05889 0.65823 0.13149
 H503 H -0.07236 0.71135 0.09951
 C504 C 1.10979 0.07751 0.66984
 C505 C 1.13585 0.10009 0.67082
 C506 C 1.11820 0.11887 0.69345
 C507 C 1.09233 0.09649 0.69289
 C508 C 1.09546 0.09574 0.64455
 C509 C 1.07780 0.11452 0.66718
 C510 C 1.12132 0.11812 0.64512
 C511 C 1.10386 0.13710 0.66816
 C512 C 1.13095 0.13183 0.72060
 C513 C 1.14156 0.14255 0.74285
 C514 C 1.08282 0.08291 0.61728
 C515 C 1.07242 0.07240 0.59484
 H516 H 1.11209 0.05286 0.67022
 H517 H 1.15986 0.09430 0.67262
 H518 H 1.08056 0.08775 0.71284
 H519 H 1.05378 0.12031 0.66538
 H520 H 1.13310 0.12687 0.62517
 H521 H 1.10156 0.16174 0.66778
 C522 C 0.88777 -0.07793 0.66857
 C523 C 0.86371 -0.10263 0.66953
 C524 C 0.88193 -0.11891 0.69360
 C525 C 0.90580 -0.09441 0.69308
 C526 C 0.90463 -0.09584 0.64466
 C527 C 0.92286 -0.11212 0.66874
 C528 C 0.88076 -0.12034 0.64520
 C529 C 0.89880 -0.13682 0.66970
 C530 C 0.86919 -0.13184 0.72077
 C531 C 0.85859 -0.14254 0.74305
 C532 C 0.91723 -0.08305 0.61736
 C533 C 0.92761 -0.07256 0.59490
 H534 H 0.88338 -0.05357 0.66779
 H535 H 0.83924 -0.09886 0.67016
 H536 H 0.91595 -0.08390 0.71307
 H537 H 0.94733 -0.11588 0.66811
 H538 H 0.87061 -0.13085 0.62522
 H539 H 0.90319 -0.16117 0.67047
 C540 C 1.08312 -0.09137 0.32391
 C541 C 1.11522 -0.08595 0.31237
 C542 C 1.11849 -0.11956 0.30660
 C543 C 1.08660 -0.12519 0.31771
 C544 C 1.09569 -0.09629 0.35545
 C545 C 1.09897 -0.12991 0.34967
 C546 C 1.12759 -0.09066 0.34433
 C547 C 1.13106 -0.12448 0.33814
 C548 C 1.13130 -0.13259 0.27948
 C549 C 1.14195 -0.14335 0.25724
 C550 C 1.08302 -0.08339 0.38270
 C551 C 1.07259 -0.07283 0.40512
 H552 H 1.06326 -0.07761 0.31837
 H553 H 1.12204 -0.06802 0.29673
 H554 H 1.06988 -0.13953 0.30645
 H555 H 1.09215 -0.14784 0.36531
 H556 H 1.14430 -0.07632 0.35559
 H557 H 1.15091 -0.13824 0.34369
 C558 C 0.88217 0.12252 0.35497
 C559 C 0.90032 0.13645 0.32908
 C560 C 0.88100 0.11922 0.30666
 C561 C 0.86265 0.10549 0.33213
 C562 C 0.90399 0.09605 0.35549
 C563 C 0.88467 0.07882 0.33306
 C564 C 0.92234 0.10978 0.33002
 C565 C 0.90281 0.09276 0.30717
 C566 C 0.86810 0.13220 0.27955
 C567 C 0.85739 0.14296 0.25733
 C568 C 0.91675 0.08320 0.38273
 C569 C 0.92724 0.07266 0.40515
 H570 H 0.87382 0.13461 0.37492
 H571 H 0.90662 0.16029 0.32714
 H572 H 0.83796 0.10386 0.33269
 H573 H 0.87837 0.05498 0.33501
 H574 H 0.94702 0.11141 0.32946
 H575 H 0.91116 0.08067 0.28721
 C576 C 0.07924 0.33516 -0.11939
 C577 C 0.10847 0.33350 -0.13774
 C578 C 0.11791 0.30601 -0.11954
 C579 C 0.08887 0.30724 -0.10139
 C580 C 0.09517 0.35493 -0.09640
 C581 C 0.10460 0.32744 -0.07819
 C582 C 0.12421 0.35368 -0.11455
 C583 C 0.13384 0.32578 -0.09654
 C584 C 0.13070 0.27885 -0.13248
 C585 C 0.14135 0.25658 -0.14319
 C586 C 0.08256 0.38223 -0.08356
 C587 C 0.07220 0.40470 -0.07303
 H588 H 0.05664 0.33932 -0.12864
 H589 H 0.11020 0.33568 -0.16237
 H590 H 0.07448 0.28784 -0.09612
 H591 H 0.10287 0.32526 -0.05356
 H592 H 0.13860 0.37308 -0.11982
 H593 H 0.15644 0.32161 -0.08729
 C594 C -0.08108 0.33783 0.12079
 C595 C -0.11157 0.33596 0.13692
 C596 C -0.11874 0.30764 0.11905
 C597 C -0.08845 0.30908 0.10312
 C598 C -0.09581 0.35638 0.09597
 C599 C -0.10298 0.32806 0.07809
 C600 C -0.12611 0.35493 0.11190
 C601 C -0.13347 0.32619 0.09423
 C602 C -0.13159 0.28056 0.13198
 C603 C -0.14224 0.25837 0.14269
 C604 C -0.08307 0.38355 0.08316
 C605 C -0.07258 0.40591 0.07264
 H606 H -0.05939 0.34292 0.13157
 H607 H -0.11525 0.33890 0.16125
 H608 H -0.07311 0.28993 0.09965
 H609 H -0.09930 0.32511 0.05376
 H610 H -0.14145 0.37408 0.11537
 H611 H -0.15516 0.32109 0.08345
 C612 C -0.07660 0.67148 -0.10763
 C613 C -0.09646 0.67285 -0.13592
 C614 C -0.11786 0.69395 -0.11939
 C615 C -0.09820 0.69301 -0.09131
 C616 C -0.09508 0.64499 -0.09633
 C617 C -0.11648 0.66609 -0.07980
 C618 C -0.11474 0.64594 -0.12441
 C619 C -0.13634 0.66746 -0.10808
 C620 C -0.13066 0.72113 -0.13230
 C621 C -0.14130 0.74341 -0.14299
 C622 C -0.08245 0.61768 -0.08353
 C623 C -0.07208 0.59521 -0.07302
 H624 H -0.05189 0.67283 -0.10731
 H625 H -0.08837 0.67594 -0.15913
 H626 H -0.09154 0.71267 -0.07784
 H627 H -0.12458 0.66301 -0.05659
 H628 H -0.12140 0.62628 -0.13789
 H629 H -0.16105 0.66611 -0.10841
 C630 C 0.09476 0.67492 0.08072
 C631 C 0.08629 0.68836 0.11145
 C632 C 0.11957 0.69269 0.11827
 C633 C 0.12824 0.67967 0.08774
 C634 C 0.09662 0.64393 0.09525
 C635 C 0.12990 0.64826 0.10207
 C636 C 0.08795 0.65695 0.12578
 C637 C 0.12143 0.66170 0.13279
 C638 C 0.13241 0.71977 0.13118
 C639 C 0.14304 0.74198 0.14189
 C640 C 0.08385 0.61674 0.08250
 C641 C 0.07331 0.59438 0.07204
 H642 H 0.08365 0.68004 0.05916
 H643 H 0.06851 0.70515 0.11545
 H644 H 0.14495 0.68932 0.07225
 H645 H 0.14769 0.63148 0.09807
 H646 H 0.07125 0.64731 0.14128
 H647 H 0.13254 0.65657 0.15435
 C648 C 0.32990 1.10970 0.92257
 C649 C 0.32880 1.13594 0.90009
 C650 C 0.30625 1.11841 0.88120
 C651 C 0.30693 1.09237 0.90348
 C652 C 0.35518 1.09554 0.90422
 C653 C 0.33264 1.07801 0.88534
 C654 C 0.35450 1.12159 0.88194
 C655 C 0.33154 1.10426 0.86286
 C656 C 0.27909 1.13125 0.86830
 C657 C 0.25682 1.14191 0.85761
 C658 C 0.38248 1.08286 0.91700
 C659 C 0.40494 1.07245 0.92751
 H660 H 0.32954 1.11179 0.94726
 H661 H 0.32691 1.15990 0.90601
 H662 H 0.28706 1.08050 0.91219
 H663 H 0.33453 1.05405 0.87941
 H664 H 0.37436 1.13346 0.87323
 H665 H 0.33191 1.10216 0.83817
 C666 C 0.35546 0.87582 1.11559
 C667 C 0.33347 0.89225 1.13663
 C668 C 0.30734 0.88025 1.11803
 C669 C 0.32891 0.86363 1.09718
 C670 C 0.35613 0.90349 1.09537
 C671 C 0.33000 0.89150 1.07676
 C672 C 0.33456 0.92012 1.11623
 C673 C 0.30801 0.90792 1.09782
 C674 C 0.28025 0.86726 1.13076
 C675 C 0.25804 0.85653 1.14135
 C676 C 0.38333 0.91640 1.08280
 C677 C 0.40572 0.92700 1.07245
 H678 H 0.37527 0.86277 1.12275
 H679 H 0.33460 0.89241 1.16139
 H680 H 0.32628 0.84026 1.08948
 H681 H 0.32888 0.89134 1.05200
 H682 H 0.33719 0.94349 1.12392
 H683 H 0.28819 0.92097 1.09065
 C684 C 0.65880 1.08513 1.12516
 C685 C 0.68946 1.08653 1.10928
 C686 C 0.69259 1.11914 1.11928
 C687 C 0.66236 1.11793 1.13536
 C688 C 0.64381 1.09615 1.09634
 C689 C 0.64696 1.12876 1.10634
 C690 C 0.67404 1.09736 1.08025
 C691 C 0.67760 1.13016 1.09045
 C692 C 0.71968 1.13201 1.13214
 C693 C 0.74190 1.14266 1.14280
 C694 C 0.61662 1.08338 1.08359
 C695 C 0.59424 1.07289 1.07312
 H696 H 0.65077 1.06647 1.13929
 H697 H 0.70724 1.06932 1.11064
 H698 H 0.65786 1.12653 1.15816
 H699 H 0.62918 1.14597 1.10499
 H700 H 0.67854 1.08875 1.05745
 H701 H 0.68564 1.14882 1.07632
 C702 C 0.65230 0.90408 0.87075
 C703 C 0.68442 0.91459 0.87780
 C704 C 0.69401 0.88187 0.88134
 C705 C 0.66232 0.87117 0.87408
 C706 C 0.64512 0.90488 0.90428
 C707 C 0.65472 0.87216 0.90781
 C708 C 0.67681 0.91559 0.91154
 C709 C 0.68684 0.88267 0.91487
 C710 C 0.72116 0.86897 0.86848
 C711 C 0.74340 0.85827 0.85781
 C712 C 0.61785 0.91762 0.91702
 C713 C 0.59539 0.92806 0.92750
 H714 H 0.63780 0.91303 0.85274
 H715 H 0.69693 0.93190 0.86533
 H716 H 0.65666 0.85275 0.85854
 H717 H 0.64221 0.85485 0.92029
 H718 H 0.68246 0.93401 0.92708
 H719 H 0.70134 0.87372 0.93287
   
