data_POSCAR
  _audit_creation_date              2014-09-24
  _audit_creation_method            'ToBaCCo'
  _symmetry_space_group_name_H-M    'P1'
  _symmetry_Int_Tables_number       1
  _symmetry_cell_setting            triclinic
  loop_
  _symmetry_equiv_pos_as_xyz
 x,y,z
_cell_length_a 26.7345
_cell_length_b 25.4144
_cell_length_c 24.2657
_cell_angle_alpha 92.477200
_cell_angle_beta 92.927300
_cell_angle_gamma 90.295500
loop_
  _atom_site_label
  _atom_site_type_symbol
  _atom_site_fract_x
  _atom_site_fract_y
  _atom_site_fract_z
C1 C 0.15996 0.13440 0.19491
 N2 N 0.20576 0.12197 0.17653
 C3 C 0.22440 0.14785 0.13392
 N4 N 0.19669 0.18575 0.10953
 C5 C 0.15071 0.19769 0.12732
 N6 N 0.13254 0.17209 0.16978
 C7 C -0.18203 0.80709 0.25949
 N8 N -0.22680 0.82312 0.23704
 C9 C -0.24125 0.80775 0.18414
 N10 N -0.21042 0.77754 0.15367
 C11 C -0.16585 0.76170 0.17561
 N12 N -0.15194 0.77621 0.22864
 C13 C -0.15972 0.17043 -0.18937
 N14 N -0.16069 0.22098 -0.16977
 C15 C -0.19019 0.23561 -0.12785
 N16 N -0.22032 0.19908 -0.10634
 C17 C -0.22001 0.14804 -0.12637
 N18 N -0.18893 0.13404 -0.16689
 C19 C 0.16985 0.80149 -0.28989
 N20 N 0.21104 0.83060 -0.27328
 C21 C 0.23940 0.81831 -0.22773
 N22 N 0.22577 0.77677 -0.19800
 C23 C 0.18391 0.74811 -0.21361
 N24 N 0.15603 0.76086 -0.25946
 C25 C 0.19593 1.18505 0.78051
 N26 N 0.23977 1.17186 0.80676
 C27 C 0.26019 1.20264 0.84931
 N28 N 0.23571 1.24676 0.86648
 C29 C 0.19165 1.26067 0.84051
 N30 N 0.17208 1.22956 0.79744
 C31 C 0.83382 0.81468 0.75083
 N32 N 0.85816 0.78273 0.78612
 C33 C 0.83513 0.76236 0.82896
 N34 N 0.78639 0.77517 0.83739
 C35 C 0.76161 0.80825 0.80231
 N36 N 0.78555 0.82753 0.75922
 C37 C 0.20665 0.84562 1.26946
 N38 N 0.24168 0.86349 1.23629
 C39 C 0.25937 0.83211 1.19525
 N40 N 0.24121 0.78235 1.18650
 C41 C 0.20577 0.76380 1.21915
 N42 N 0.18844 0.79562 1.26055
 C43 C 0.80063 1.19512 1.20916
 N44 N 0.82297 1.24077 1.19487
 C45 C 0.80245 1.26810 1.15196
 N46 N 0.76043 1.24944 1.12387
 C47 C 0.73761 1.20518 1.13882
 N48 N 0.75802 1.17799 1.18102
 O49 O 0.56621 0.92670 0.90570
 O50 O 0.47662 0.90315 1.07706
 O51 O 0.56587 0.91921 1.07972
 O52 O 0.40656 0.94516 0.93434
 O53 O 0.53092 0.95857 1.14759
 O54 O 0.47179 0.91331 0.89210
 O55 O 0.40834 0.93062 1.03472
 O56 O 0.57684 0.89583 0.98606
 C57 C 0.58387 0.89190 0.93620
 C58 C 0.43136 0.89590 1.06209
 C59 C 0.56854 0.93191 1.13078
 C60 C 0.42580 0.91216 0.90087
 O61 O 0.45994 1.01423 0.88621
 O62 O 0.51807 1.03995 1.09260
 O63 O 0.60734 0.99558 0.96670
 O64 O 0.42812 1.03717 1.05276
 O65 O 0.44262 0.98743 1.11732
 O66 O 0.55121 1.03014 0.91171
 O67 O 0.42755 1.04852 0.95816
 O68 O 0.58983 1.02111 1.06153
 Co69 Co 0.51168 0.97141 0.90829
 Co70 Co 0.49940 0.97146 1.08173
 Co71 Co 0.57825 0.95949 1.02160
 Co72 Co 0.42414 0.98888 0.99562
 O73 O 0.50139 0.97435 0.99787
 C74 C 0.43321 1.04868 0.90799
 C75 C 0.56230 1.05268 1.08661
 C76 C 0.59340 1.03233 0.93623
 C77 C 0.41738 1.02382 1.09926
 O78 O 0.09106 0.46037 0.08484
 O79 O 0.00268 0.55269 -0.13291
 O80 O 0.02831 0.41191 -0.05514
 O81 O 0.09835 0.58461 0.01958
 O82 O 0.05749 0.48335 -0.08888
 O83 O 0.08749 0.55994 0.10120
 O84 O 0.05855 0.58120 -0.07048
 O85 O 0.03920 0.40256 0.04340
 C86 C 0.08175 0.41459 0.06592
 C87 C 0.03805 0.58614 -0.11831
 C88 C 0.06011 0.43441 -0.08343
 C89 C 0.11243 0.58477 0.06883
 O90 O -0.00487 0.55292 0.12269
 O91 O -0.03408 0.46088 -0.11207
 O92 O -0.05500 0.44167 0.05625
 O93 O -0.02943 0.61289 -0.02672
 O94 O -0.06356 0.54247 -0.06192
 O95 O 0.00151 0.45372 0.12027
 O96 O 0.01206 0.61625 0.06649
 O97 O -0.06824 0.44763 -0.03877
 Co98 Co 0.04089 0.50690 0.09773
 Co99 Co -0.00182 0.51484 -0.07207
 Co100 Co -0.01193 0.43225 0.00182
 Co101 Co 0.03278 0.59112 -0.00181
 O102 O 0.01416 0.50955 0.01006
 C103 C -0.00721 0.60019 0.10974
 C104 C -0.06842 0.43891 -0.08946
 C105 C -0.04063 0.43638 0.10483
 C106 C -0.06737 0.58978 -0.04842
 O107 O 1.03693 0.09712 0.43679
 O108 O 0.91725 0.10385 0.56292
 O109 O 0.92631 0.05449 0.38765
 O110 O 1.05122 0.04755 0.59939
 O111 O 0.91636 0.11004 0.45700
 O112 O 1.05979 0.10149 0.53460
 O113 O 0.96093 0.05200 0.61602
 O114 O 1.01441 0.03864 0.37567
 C115 C 1.03122 0.08368 0.38745
 C116 C 0.93256 0.09083 0.60991
 C117 C 0.91780 0.10084 0.40611
 C118 C 1.06246 0.09270 0.58462
 O119 O 1.09286 0.00130 0.52829
 O120 O 0.87057 0.01701 0.44822
 O121 O 1.00853 -0.05473 0.42295
 O122 O 0.94475 -0.04434 0.58426
 O123 O 0.88420 0.00558 0.54970
 O124 O 1.07364 -0.00479 0.43014
 O125 O 1.03723 -0.05151 0.55654
 O126 O 0.92021 -0.04464 0.42963
 Co127 Co 1.05891 0.04714 0.48293
 Co128 Co 0.90552 0.05628 0.50302
 Co129 Co 0.96836 0.00098 0.41130
 Co130 Co 0.99785 0.00299 0.57973
 O131 O 0.98252 0.02738 0.49497
 C132 C 1.08159 -0.04236 0.54702
 C133 C 0.87678 -0.02940 0.43185
 C134 C 1.05433 -0.04959 0.41948
 C135 C 0.89896 -0.03352 0.57709
 C136 C 1.14111 0.10798 0.23861
 C137 C 1.09963 0.12371 0.26316
 C138 C 1.07918 0.09329 0.30678
 C139 C 1.05082 0.11575 0.34481
 H140 H 1.08062 0.15952 0.25168
 H141 H 1.08840 0.05183 0.30854
 H142 H 1.16143 0.07421 0.25368
 H143 H 1.04483 0.15791 0.34654
 C144 C 0.83607 -0.17500 0.31178
 C145 C 0.81444 -0.13704 0.34205
 C146 C 0.84430 -0.11123 0.38818
 C147 C 0.83562 -0.06166 0.40552
 H148 H 0.77901 -0.12017 0.32837
 H149 H 0.87912 -0.12971 0.40147
 H150 H 0.87254 -0.18928 0.32584
 H151 H 0.80113 -0.04237 0.39279
 C152 C 0.87122 0.15664 0.76777
 C153 C 0.87787 0.10646 0.75097
 C154 C 0.90872 0.09009 0.70497
 C155 C 0.91285 0.11733 0.65921
 H156 H 0.86137 0.07488 0.77274
 H157 H 0.92276 0.05019 0.70598
 H158 H 0.89106 0.18771 0.74856
 H159 H 0.89475 0.15510 0.65527
 C160 C 1.13668 -0.18265 0.66360
 C161 C 1.14925 -0.14478 0.63024
 C162 C 1.11084 -0.12052 0.59421
 C163 C 1.12137 -0.07772 0.56671
 H164 H 1.18663 -0.12781 0.63374
 H165 H 1.07230 -0.13366 0.59593
 H166 H 1.09939 -0.19982 0.65941
 H167 H 1.15987 -0.06446 0.56525
 C168 C 0.27081 1.13532 1.11353
 C169 C 0.30116 1.09949 1.13569
 C170 C 0.34699 1.08381 1.10870
 C171 C 0.37678 1.04725 1.13005
 H172 H 0.29129 1.07985 1.17248
 H173 H 0.35474 1.09982 1.06926
 H174 H 0.28210 1.15512 1.07737
 H175 H 0.36887 1.03109 1.16934
 C176 C 0.27897 0.85183 0.79045
 C177 C 0.31208 0.84117 0.83158
 C178 C 0.34705 0.88236 0.85439
 C179 C 0.39355 0.87128 0.87273
 H180 H 0.31276 0.80287 0.84959
 H181 H 0.33420 0.92279 0.85633
 H182 H 0.28233 0.88895 0.77041
 H183 H 0.40815 0.83186 0.86679
 C184 C 0.71398 0.82386 1.15903
 C185 C 0.68149 0.85589 1.18330
 C186 C 0.63829 0.87413 1.14994
 C187 C 0.60657 0.91005 1.16882
 H188 H 0.68788 0.87048 1.22575
 H189 H 0.63376 0.85939 1.10732
 H190 H 0.70618 0.81054 1.11631
 H191 H 0.60979 0.92485 1.21141
 C192 C 0.74931 1.10904 0.89320
 C193 C 0.70920 1.11872 0.92264
 C194 C 0.67666 1.07455 0.93613
 C195 C 0.62707 1.07681 0.92679
 H196 H 0.69762 1.15878 0.93208
 H197 H 0.69385 1.03830 0.94921
 H198 H 0.75642 1.06857 0.87984
 H199 H 0.61068 1.11179 0.90951
 C200 C 0.12001 0.23772 0.10121
 C201 C 0.14004 0.28096 0.08220
 C202 C 0.10674 0.32287 0.06418
 C203 C 0.11916 0.37338 0.07403
 H204 H 0.18023 0.28747 0.08528
 H205 H 0.06920 0.31203 0.04849
 H206 H 0.07966 0.23406 0.10270
 H207 H 0.15580 0.38413 0.09243
 C208 C -0.18408 0.28897 -0.10168
 C209 C -0.15879 0.32623 -0.12635
 C210 C -0.13607 0.37229 -0.09551
 C211 C -0.10380 0.40278 -0.12029
 H212 H -0.14911 0.31942 -0.16893
 H213 H -0.14063 0.37722 -0.05145
 H214 H -0.19495 0.29559 -0.05954
 H215 H -0.09890 0.39670 -0.16418
 C216 C 0.16641 0.70718 -0.17765
 C217 C 0.12286 0.68148 -0.18812
 C218 C 0.10310 0.64576 -0.14810
 C219 C 0.05978 0.61980 -0.15888
 H220 H 0.10044 0.68831 -0.22559
 H221 H 0.12370 0.64154 -0.10889
 H222 H 0.18855 0.70015 -0.14004
 H223 H 0.03959 0.62338 -0.19840
 C224 C -0.13232 0.73138 0.14063
 C225 C -0.09150 0.70807 0.16139
 C226 C -0.06017 0.67629 0.12533
 C227 C -0.03351 0.63694 0.14574
 H228 H -0.08263 0.70992 0.20555
 H229 H -0.06198 0.68230 0.08127
 H230 H -0.14219 0.72701 0.09675
 H231 H -0.03520 0.62832 0.18899
 C232 C 1.17480 0.15052 0.73923
 C233 C 1.13312 0.16077 0.70871
 C234 C 1.11132 0.12030 0.66910
 C235 C 1.08316 0.13318 0.62472
 H236 H 1.11514 0.19882 0.71243
 H237 H 1.11995 0.07926 0.67539
 H238 H 1.19339 0.11319 0.73194
 H239 H 1.07769 0.17426 0.61593
 C240 C 0.86039 -0.16431 0.70880
 C241 C 0.84182 -0.12964 0.67322
 C242 C 0.87593 -0.10470 0.63606
 C243 C 0.86166 -0.06533 0.60405
 H244 H 0.80313 -0.11717 0.67397
 H245 H 0.91496 -0.11628 0.63831
 H246 H 0.89940 -0.17551 0.70672
 H247 H 0.82281 -0.05329 0.60167
 C248 C 1.18787 -0.11916 0.30909
 C249 C 1.14952 -0.12987 0.34026
 C250 C 1.12727 -0.08738 0.37439
 C251 C 1.08275 -0.09391 0.39581
 H252 H 1.13199 -0.16854 0.33739
 H253 H 1.14523 -0.04892 0.37769
 H254 H 1.20382 -0.07972 0.31224
 H255 H 1.06403 -0.13187 0.39052
 C256 C 0.82169 0.16232 0.24885
 C257 C 0.86229 0.17319 0.28205
 C258 C 0.88163 0.13192 0.31855
 C259 C 0.90423 0.14301 0.36813
 H260 H 0.88040 0.21149 0.28299
 H261 H 0.87371 0.09110 0.30602
 H262 H 0.80328 0.12451 0.25241
 H263 H 0.90878 0.18368 0.38293
 C264 C 0.16510 0.30423 -0.13889
 C265 C 0.11838 0.31520 -0.15779
 C266 C 0.08529 0.35182 -0.12839
 C267 C 0.09691 0.40186 -0.11272
 H268 H 0.10025 0.29038 -0.19040
 H269 H 0.04793 0.33709 -0.12236
 H270 H 0.18142 0.32705 -0.10362
 H271 H 0.13218 0.41906 -0.12307
 C272 C -0.17548 0.31314 0.13264
 C273 C -0.13330 0.33610 0.15378
 C274 C -0.11090 0.37864 0.12335
 C275 C -0.06860 0.40326 0.14129
 H276 H -0.11413 0.32189 0.19062
 H277 H -0.12761 0.38731 0.08308
 H278 H -0.19360 0.32945 0.09616
 H279 H -0.05157 0.39492 0.18143
 C280 C -0.13555 0.73145 -0.13584
 C281 C -0.15157 0.70071 -0.09680
 C282 C -0.11309 0.67145 -0.06477
 C283 C -0.11395 0.61889 -0.06218
 H284 H -0.19109 0.69482 -0.09111
 H285 H -0.07877 0.69262 -0.05216
 H286 H -0.09570 0.73111 -0.14275
 H287 H -0.14656 0.59688 -0.07875
 C288 C 0.18199 0.71187 0.20632
 C289 C 0.18928 0.68399 0.15927
 C290 C 0.15715 0.63824 0.14223
 C291 C 0.15398 0.61967 0.08962
 H292 H 0.21567 0.69784 0.13058
 H293 H 0.13159 0.62366 0.17145
 H294 H 0.15424 0.69863 0.23379
 H295 H 0.17763 0.63640 0.05978
 C296 C 0.30565 1.18510 0.88038
 C297 C 0.33547 1.14766 0.85975
 C298 C 0.37396 1.12180 0.89478
 C299 C 0.40406 1.08507 0.87329
 H300 H 0.32902 1.13298 0.81734
 H301 H 0.37453 1.12946 0.93912
 H302 H 0.31306 1.20106 0.92216
 H303 H 0.40369 1.07809 0.82888
 C304 C 0.29236 0.85547 1.15646
 C305 C 0.32438 0.82824 1.12598
 C306 C 0.35320 0.85737 1.08725
 C307 C 0.40277 0.85240 1.08396
 H308 H 0.33046 0.78659 1.13112
 H309 H 0.33436 0.89027 1.06833
 H310 H 0.29052 0.89792 1.15346
 H311 H 0.42258 0.82213 1.10619
 C312 C 0.69525 1.18300 1.10473
 C313 C 0.65799 1.15770 1.12692
 C314 C 0.62472 1.12256 1.09225
 C315 C 0.58359 1.10182 1.11172
 H316 H 0.65533 1.15848 1.17140
 H317 H 0.63747 1.10837 1.05258
 H318 H 0.69649 1.18456 1.06023
 H319 H 0.56915 1.11720 1.15007
 C320 C 0.71087 0.82849 0.81195
 C321 C 0.68624 0.82153 0.85768
 C322 C 0.64120 0.85337 0.86873
 C323 C 0.61920 0.85139 0.91683
 H324 H 0.70162 0.79619 0.88902
 H325 H 0.62912 0.88248 0.83959
 H326 H 0.69504 0.85470 0.78165
 H327 H 0.63234 0.82303 0.94631
   
