data_POSCAR
  _audit_creation_date              2014-09-24
  _audit_creation_method            'ToBaCCo'
  _symmetry_space_group_name_H-M    'P1'
  _symmetry_Int_Tables_number       1
  _symmetry_cell_setting            triclinic
  loop_
  _symmetry_equiv_pos_as_xyz
 x,y,z
_cell_length_a 31.1111
_cell_length_b 31.1120
_cell_length_c 31.1643
_cell_angle_alpha 90.100000
_cell_angle_beta 90.099100
_cell_angle_gamma 89.999800
loop_
  _atom_site_label
  _atom_site_type_symbol
  _atom_site_fract_x
  _atom_site_fract_y
  _atom_site_fract_z
O1 O 0.45897 0.96459 -0.54127
 O2 O 0.54282 0.96444 -0.45762
 O3 O 0.45910 0.96417 -0.45771
 O4 O 0.54267 0.96426 -0.54120
 O5 O 0.54273 1.03535 -0.54102
 O6 O 0.45909 1.03525 -0.45745
 O7 O 0.54280 1.03552 -0.45743
 O8 O 0.45903 1.03567 -0.54101
 Cu9 Cu 0.50089 0.95719 -0.49947
 Cu10 Cu 0.50092 1.04262 -0.49920
 C11 C 0.44486 1.00018 -0.55526
 C12 C 0.55696 0.99998 -0.44340
 C13 C 0.44497 0.99967 -0.44349
 C14 C 0.55679 0.99980 -0.55522
 O15 O -0.54346 1.45815 0.03554
 O16 O -0.45970 1.54175 0.03557
 O17 O -0.54342 1.54188 0.03535
 O18 O -0.45974 1.45805 0.03515
 O19 O -0.45997 1.45806 -0.03581
 O20 O -0.54358 1.54181 -0.03560
 O21 O -0.45986 1.54176 -0.03539
 O22 O -0.54369 1.45809 -0.03542
 Cu23 Cu -0.50157 1.49996 0.04256
 Cu24 Cu -0.50180 1.49993 -0.04271
 C25 C -0.55771 1.44398 0.00008
 C26 C -0.44563 1.55586 0.00012
 C27 C -0.55761 1.55601 -0.00012
 C28 C -0.44573 1.44393 -0.00039
 O29 O -0.03530 0.45895 0.45872
 O30 O -0.03532 0.54271 0.54246
 O31 O -0.03555 0.54265 0.45888
 O32 O -0.03567 0.45900 0.54229
 O33 O 0.03542 0.45892 0.54251
 O34 O 0.03554 0.54264 0.45902
 O35 O 0.03576 0.54263 0.54260
 O36 O 0.03579 0.45894 0.45894
 Cu37 Cu -0.04263 0.50083 0.50057
 Cu38 Cu 0.04280 0.50078 0.50079
 C39 C 0.00027 0.44482 0.44470
 C40 C 0.00024 0.55681 0.55667
 C41 C -0.00001 0.55676 0.44485
 C42 C -0.00017 0.44483 0.55648
 O43 O -0.11066 1.00113 -0.05838
 O44 O 0.11068 0.99850 -0.05813
 O45 O -0.00154 1.05786 -0.11069
 O46 O 0.00149 0.94153 -0.11064
 O47 O 0.00159 0.88915 -0.05821
 O48 O -0.00157 1.11048 -0.05831
 O49 O 0.05815 0.99832 -0.11061
 O50 O -0.05819 1.00108 -0.11073
 Zr51 Zr 0.00000 0.99977 -0.07574
 O52 O 0.03907 0.96089 -0.03906
 O53 O -0.03902 1.03881 -0.03918
 C54 C -0.09781 1.00175 -0.09793
 C55 C 0.09779 0.99772 -0.09771
 C56 C -0.00226 1.09752 -0.09786
 C57 C 0.00222 0.90193 -0.09777
 H58 H 0.05710 1.05704 -0.05721
 O59 O 0.03879 1.03872 -0.03891
 H60 H -0.05708 0.94259 -0.05728
 O61 O -0.03874 0.96099 -0.03896
 O62 O 0.11076 1.00162 0.05800
 O63 O -0.11058 0.99850 0.05777
 O64 O 0.05809 1.11069 0.00126
 O65 O 0.05835 0.88934 -0.00152
 O66 O -0.05799 0.88920 0.00125
 O67 O -0.05827 1.11054 -0.00175
 O68 O 0.00152 1.05834 0.11026
 O69 O -0.00126 0.94203 0.11031
 O70 O 0.00141 1.11074 0.05784
 O71 O -0.00123 0.88940 0.05794
 O72 O 0.11065 1.05824 0.00135
 O73 O -0.11069 1.05796 -0.00178
 O74 O -0.11055 0.94164 0.00117
 O75 O 0.11079 0.94190 -0.00149
 O76 O 0.05829 1.00167 0.11035
 O77 O -0.05803 0.99868 0.11022
 Zr78 Zr 0.07573 1.00003 -0.00011
 Zr79 Zr -0.07563 0.99985 -0.00027
 Zr80 Zr -0.00004 1.07563 -0.00022
 Zr81 Zr 0.00014 0.92425 -0.00015
 Zr82 Zr 0.00010 1.00011 0.07535
 O83 O -0.03888 0.96098 0.03872
 O84 O 0.03904 1.03908 0.03877
 C85 C 0.09791 1.00235 0.09754
 C86 C -0.09767 0.99793 0.09734
 C87 C 0.09773 1.09786 0.00198
 C88 C 0.09796 0.90226 -0.00216
 C89 C -0.09763 0.90203 0.00189
 C90 C -0.09788 1.09761 -0.00247
 C91 C 0.00214 1.09794 0.09741
 C92 C -0.00191 0.90237 0.09749
 H93 H -0.05714 1.05716 0.05679
 O94 O -0.03879 1.03879 0.03850
 H95 H 0.05731 0.94297 0.05696
 O96 O 0.03894 0.96125 0.03862
 C97 C 0.41225 1.00033 0.41216
 C98 C 0.38486 1.00062 0.38476
 C99 C 0.35217 1.00107 0.35204
 C100 C 0.34632 1.03766 0.32662
 C101 C 0.31458 1.03815 0.29482
 C102 C 0.28826 1.00199 0.28800
 C103 C 0.29440 0.96537 0.31374
 C104 C 0.32614 0.96496 0.34555
 C105 C 0.25459 1.00242 0.25415
 C106 C 0.24744 0.96592 0.22838
 C107 C 0.21571 0.96631 0.19657
 C108 C 0.19070 1.00312 0.19009
 C109 C 0.19756 1.03960 0.21551
 C110 C 0.22930 1.03930 0.24733
 C111 C 0.15794 1.00331 0.15745
 C112 C 0.13051 1.00310 0.13009
 H113 H 0.36638 1.06575 0.33131
 H114 H 0.31102 1.06661 0.27517
 H115 H 0.27429 0.93724 0.30966
 H116 H 0.33031 0.93652 0.36513
 H117 H 0.26675 0.93725 0.23245
 H118 H 0.21074 0.93792 0.17699
 H119 H 0.17828 1.06822 0.21084
 H120 H 0.23366 1.06770 0.26699
 C121 C -0.41072 0.99973 0.41219
 C122 C -0.38343 0.99952 0.38477
 C123 C -0.35087 0.99914 0.35203
 C124 C -0.36022 0.98270 0.31124
 C125 C -0.32860 0.98222 0.27942
 C126 C -0.28715 0.99822 0.28801
 C127 C -0.27809 1.01467 0.32914
 C128 C -0.30976 1.01509 0.36091
 C129 C -0.25355 0.99784 0.25421
 C130 C -0.22557 1.03303 0.24932
 C131 C -0.19401 1.03269 0.21746
 C132 C -0.18994 0.99723 0.19009
 C133 C -0.21757 0.96205 0.19468
 C134 C -0.24919 0.96233 0.22651
 C135 C -0.15746 0.99706 0.15728
 C136 C -0.13019 0.99724 0.12986
 H137 H -0.39199 0.97036 0.30399
 H138 H -0.33673 0.96987 0.24794
 H139 H -0.24635 1.02670 0.33692
 H140 H -0.30213 1.02776 0.39243
 H141 H -0.22848 1.06106 0.26975
 H142 H -0.17286 1.06015 0.21409
 H143 H -0.21462 0.93439 0.17373
 H144 H -0.26987 0.93454 0.22981
 C145 C -0.41218 1.00002 -0.41258
 C146 C -0.38476 1.00021 -0.38519
 C147 C -0.35204 1.00057 -0.35249
 C148 C -0.36247 1.01211 -0.31035
 C149 C -0.33069 1.01260 -0.27858
 C150 C -0.28800 1.00152 -0.28857
 C151 C -0.27786 0.98996 -0.33105
 C152 C -0.30969 0.98953 -0.36277
 C153 C -0.25423 1.00191 -0.25482
 C154 C -0.22298 0.96925 -0.25323
 C155 C -0.19127 0.96957 -0.22140
 C156 C -0.19031 1.00250 -0.19078
 C157 C -0.22120 1.03517 -0.19210
 C158 C -0.25297 1.03491 -0.22389
 C159 C -0.15772 1.00262 -0.15796
 C160 C -0.13038 1.00242 -0.13051
 H161 H -0.39518 1.02062 -0.30203
 H162 H -0.33962 1.02109 -0.24609
 H163 H -0.24521 0.98182 -0.33986
 H164 H -0.30124 0.98069 -0.39532
 H165 H -0.22342 0.94312 -0.27622
 H166 H -0.16759 0.94404 -0.22058
 H167 H -0.22068 1.06088 -0.16860
 H168 H -0.27623 1.06079 -0.22459
 C169 C 0.41240 0.99954 -0.41099
 C170 C 0.38502 0.99927 -0.38367
 C171 C 0.35233 0.99883 -0.35105
 C172 C 0.31071 0.98493 -0.36101
 C173 C 0.27895 0.98440 -0.32933
 C174 C 0.28844 0.99782 -0.28721
 C175 C 0.33040 1.01173 -0.27754
 C176 C 0.36211 1.01220 -0.30927
 C177 C 0.25469 0.99743 -0.25356
 C178 C 0.25158 1.03137 -0.22381
 C179 C 0.21974 1.03105 -0.19222
 C180 C 0.19064 0.99684 -0.18988
 C181 C 0.19348 0.96290 -0.21926
 C182 C 0.22527 0.96317 -0.25092
 C183 C 0.15782 0.99673 -0.15741
 C184 C 0.13037 0.99697 -0.13017
 H185 H 0.30277 0.97461 -0.39328
 H186 H 0.24683 0.97406 -0.33791
 H187 H 0.33885 1.02172 -0.24531
 H188 H 0.39427 1.02288 -0.30118
 H189 H 0.27336 1.05846 -0.22536
 H190 H 0.21774 1.05755 -0.16971
 H191 H 0.17117 0.93621 -0.21766
 H192 H 0.22719 0.93632 -0.27299
 C193 C 0.41147 1.41312 0.00016
 C194 C 0.38412 1.38567 0.00038
 C195 C 0.35152 1.35285 0.00076
 C196 C 0.36089 1.31154 -0.01437
 C197 C 0.32928 1.27960 -0.01392
 C198 C 0.28783 1.28858 0.00173
 C199 C 0.27875 1.33023 0.01691
 C200 C 0.31041 1.36213 0.01640
 C201 C 0.25420 1.25470 0.00214
 C202 C 0.22606 1.25072 0.03723
 C203 C 0.19439 1.21884 0.03752
 C204 C 0.19039 1.19055 0.00278
 C205 C 0.21821 1.19422 -0.03225
 C206 C 0.24992 1.22605 -0.03260
 C207 C 0.15767 1.15787 0.00292
 C208 C 0.13028 1.13047 0.00271
 H209 H 0.39265 1.30397 -0.02641
 H210 H 0.33743 1.24773 -0.02530
 H211 H 0.24702 1.33831 0.02863
 H212 H 0.30279 1.39404 0.02810
 H213 H 0.22890 1.27191 0.06469
 H214 H 0.17307 1.21621 0.06485
 H215 H 0.21530 1.17258 -0.05938
 H216 H 0.27069 1.22864 -0.06032
 C217 C 0.41163 0.58693 -0.00014
 C218 C 0.38433 0.61443 -0.00033
 C219 C 0.35177 0.64729 -0.00071
 C220 C 0.36268 0.68995 0.00853
 C221 C 0.33111 0.72192 0.00803
 C222 C 0.28815 0.71162 -0.00177
 C223 C 0.27752 0.66862 -0.01103
 C224 C 0.30914 0.63669 -0.01048
 C225 C 0.25457 0.74555 -0.00225
 C226 C 0.22253 0.74578 -0.03420
 C227 C 0.19087 0.77768 -0.03452
 C228 C 0.19078 0.80972 -0.00296
 C229 C 0.22251 0.80981 0.02892
 C230 C 0.25421 0.77797 0.02930
 C231 C 0.15802 0.84237 -0.00307
 C232 C 0.13058 0.86972 -0.00285
 H233 H 0.39562 0.69853 0.01598
 H234 H 0.34041 0.75479 0.01475
 H235 H 0.24466 0.65958 -0.01813
 H236 H 0.30033 0.60375 -0.01758
 H237 H 0.22226 0.72160 -0.05923
 H238 H 0.16650 0.77737 -0.05940
 H239 H 0.22264 0.83439 0.05360
 H240 H 0.27808 0.77836 0.05462
 C241 C -0.41296 0.58838 0.00023
 C242 C -0.38548 0.61570 0.00048
 C243 C -0.35265 0.64828 0.00090
 C244 C -0.34400 0.67195 -0.03623
 C245 C -0.31208 0.70357 -0.03585
 C246 C -0.28837 0.71196 0.00174
 C247 C -0.29735 0.68800 0.03892
 C248 C -0.32927 0.65637 0.03846
 C249 C -0.25441 0.74552 0.00215
 C250 C -0.24958 0.77307 0.03770
 C251 C -0.21768 0.80474 0.03796
 C252 C -0.19019 0.80926 0.00276
 C253 C -0.19467 0.78197 -0.03270
 C254 C -0.22655 0.75031 -0.03305
 C255 C -0.15753 0.84199 0.00287
 C256 C -0.13017 0.86942 0.00263
 H257 H -0.36200 0.66604 -0.06544
 H258 H -0.30632 0.72185 -0.06482
 H259 H -0.27930 0.69331 0.06819
 H260 H -0.33563 0.63815 0.06736
 H261 H -0.27085 0.77055 0.06504
 H262 H -0.21458 0.82580 0.06552
 H263 H -0.17349 0.78512 -0.06008
 H264 H -0.22907 0.72924 -0.06062
 C265 C -0.41312 1.41134 -0.00057
 C266 C -0.38570 1.38397 -0.00088
 C267 C -0.35297 1.35129 -0.00137
 C268 C -0.31136 1.36126 -0.01513
 C269 C -0.27954 1.32953 -0.01569
 C270 C -0.28895 1.28735 -0.00244
 C271 C -0.33090 1.27766 0.01132
 C272 C -0.36267 1.30944 0.01182
 C273 C -0.25513 1.25365 -0.00284
 C274 C -0.25198 1.22388 0.03097
 C275 C -0.22008 1.19225 0.03066
 C276 C -0.19093 1.18989 -0.00341
 C277 C -0.19380 1.21930 -0.03723
 C278 C -0.22567 1.25099 -0.03697
 C279 C -0.15803 1.15739 -0.00351
 C280 C -0.13052 1.13012 -0.00325
 H281 H -0.30347 1.39359 -0.02532
 H282 H -0.24743 1.33813 -0.02592
 H283 H -0.33930 1.24538 0.02118
 H284 H -0.39482 1.30134 0.02240
 H285 H -0.27380 1.22544 0.05796
 H286 H -0.21805 1.16973 0.05706
 H287 H -0.17145 1.21769 -0.06381
 H288 H -0.22760 1.27308 -0.06371
 C289 C 0.00038 1.41224 0.41209
 C290 C 0.00063 1.38487 0.38467
 C291 C 0.00105 1.35219 0.35193
 C292 C -0.03571 1.34464 0.32709
 C293 C -0.03533 1.31290 0.29528
 C294 C 0.00189 1.28828 0.28788
 C295 C 0.03869 1.29616 0.31301
 C296 C 0.03822 1.32790 0.34482
 C297 C 0.00228 1.25450 0.25415
 C298 C 0.03850 1.24888 0.22771
 C299 C 0.03876 1.21711 0.19591
 C300 C 0.00291 1.19055 0.19015
 C301 C -0.03322 1.19583 0.21630
 C302 C -0.03358 1.22758 0.24809
 C303 C 0.00307 1.15793 0.15736
 C304 C 0.00286 1.13056 0.12994
 H305 H -0.06462 1.36336 0.33223
 H306 H -0.06397 1.30800 0.27611
 H307 H 0.06764 1.27739 0.30847
 H308 H 0.06682 1.33341 0.36395
 H309 H 0.06637 1.26943 0.23122
 H310 H 0.06686 1.21337 0.17575
 H311 H -0.06110 1.17535 0.21218
 H312 H -0.06169 1.23072 0.26828
 C313 C -0.00032 1.41222 -0.41105
 C314 C -0.00060 1.38479 -0.38378
 C315 C -0.00107 1.35203 -0.35123
 C316 C -0.03906 1.32968 -0.34239
 C317 C -0.03957 1.29784 -0.31079
 C318 C -0.00200 1.28791 -0.28762
 C319 C 0.03603 1.31060 -0.29676
 C320 C 0.03645 1.34245 -0.32835
 C321 C -0.00246 1.25403 -0.25411
 C322 C 0.03221 1.22526 -0.25002
 C323 C 0.03183 1.19345 -0.21841
 C324 C -0.00315 1.18995 -0.19046
 C325 C -0.03781 1.21835 -0.19426
 C326 C -0.03752 1.25018 -0.22589
 C327 C -0.00328 1.15734 -0.15777
 C328 C -0.00303 1.13002 -0.13040
 H329 H -0.06826 1.33677 -0.36000
 H330 H -0.06919 1.28058 -0.30490
 H331 H 0.06531 1.30411 -0.27910
 H332 H 0.06600 1.35965 -0.33485
 H333 H 0.05938 1.22702 -0.27161
 H334 H 0.05879 1.17155 -0.21580
 H335 H -0.06499 1.21600 -0.17269
 H336 H -0.06442 1.27217 -0.22786
 C337 C 0.00032 0.58763 -0.41247
 C338 C 0.00055 0.61500 -0.38503
 C339 C 0.00095 0.64764 -0.35225
 C340 C 0.01672 0.68873 -0.36142
 C341 C 0.01725 0.72042 -0.32957
 C342 C 0.00197 0.71141 -0.28807
 C343 C -0.01382 0.66998 -0.27919
 C344 C -0.01429 0.63833 -0.31109
 C345 C 0.00240 0.74508 -0.25423
 C346 C -0.03245 0.74943 -0.22581
 C347 C -0.03210 0.78120 -0.19405
 C348 C 0.00305 0.80902 -0.19020
 C349 C 0.03789 0.80495 -0.21825
 C350 C 0.03760 0.77321 -0.25007
 C351 C 0.00318 0.84182 -0.15760
 C352 C 0.00296 0.86928 -0.13028
 H353 H 0.02851 0.69630 -0.39322
 H354 H 0.02908 0.75214 -0.33755
 H355 H -0.02528 0.66188 -0.24743
 H356 H -0.02643 0.60658 -0.30361
 H357 H -0.06025 0.72866 -0.22854
 H358 H -0.05931 0.78417 -0.17259
 H359 H 0.06530 0.82627 -0.21548
 H360 H 0.06513 0.77033 -0.27109
 C361 C -0.00006 0.58928 0.41230
 C362 C -0.00028 0.61660 0.38492
 C363 C -0.00069 0.64918 0.35220
 C364 C 0.01388 0.69071 0.36155
 C365 C 0.01344 0.72241 0.32980
 C366 C -0.00165 0.71296 0.28824
 C367 C -0.01626 0.67110 0.27919
 C368 C -0.01575 0.63945 0.31098
 C369 C -0.00205 0.74658 0.25446
 C370 C -0.03691 0.75000 0.22582
 C371 C -0.03718 0.78163 0.19400
 C372 C -0.00265 0.81021 0.19035
 C373 C 0.03215 0.80709 0.21868
 C374 C 0.03248 0.77552 0.25054
 C375 C -0.00280 0.84266 0.15751
 C376 C -0.00260 0.86990 0.13006
 H377 H 0.02548 0.69863 0.39340
 H378 H 0.02437 0.75445 0.33792
 H379 H -0.02753 0.66268 0.24738
 H380 H -0.02701 0.60737 0.30338
 H381 H -0.06420 0.72857 0.22837
 H382 H -0.06434 0.78383 0.17230
 H383 H 0.05911 0.82897 0.21604
 H384 H 0.06003 0.77336 0.27171
   
