data_POSCAR
  _audit_creation_date              2014-09-24
  _audit_creation_method            'ToBaCCo'
  _symmetry_space_group_name_H-M    'P1'
  _symmetry_Int_Tables_number       1
  _symmetry_cell_setting            triclinic
  loop_
  _symmetry_equiv_pos_as_xyz
 x,y,z
_cell_length_a 42.7574
_cell_length_b 42.2982
_cell_length_c 42.3061
_cell_angle_alpha 89.865400
_cell_angle_beta 90.159700
_cell_angle_gamma 89.909700
loop_
  _atom_site_label
  _atom_site_type_symbol
  _atom_site_fract_x
  _atom_site_fract_y
  _atom_site_fract_z
C1 C 0.20131 0.51972 1.04554
 H2 H 0.20057 0.53901 1.02871
 C3 C 0.18030 0.51910 1.07071
 H4 H 0.16333 0.53801 1.07204
 C5 C 0.22302 0.47077 1.06153
 H6 H 0.23943 0.45175 1.05761
 C7 C 0.20230 0.46901 1.08695
 H8 H 0.20444 0.44899 1.10273
 N9 N 0.22213 0.49584 1.04144
 C10 C 0.29349 0.53636 0.98015
 H11 H 0.29345 0.51884 0.96155
 C12 C 0.31396 0.56195 0.97859
 H13 H 0.32982 0.56385 0.95876
 C14 C 0.27352 0.55438 1.02911
 H15 H 0.25801 0.55111 1.04895
 C16 C 0.29380 0.58028 1.02861
 H17 H 0.29334 0.59704 1.04790
 Zn18 Zn 0.24729 0.49726 1.00477
 N19 N 0.27353 0.53325 1.00491
 C20 C 0.21992 0.52335 0.94915
 N21 N 0.21967 0.49861 0.96974
 C22 C 0.19819 0.47508 0.96714
 C23 C 0.17583 0.47580 0.94303
 C24 C 0.19803 0.52498 0.92465
 C25 C 0.29570 0.45816 1.02566
 C26 C 0.31751 0.43362 1.02434
 C27 C 0.29383 0.41632 0.97544
 C28 C 0.27239 0.44116 0.97775
 N29 N 0.27373 0.46147 1.00260
 H30 H 0.23666 0.54221 0.95196
 H31 H 0.19814 0.45600 0.98421
 H32 H 0.15849 0.45721 0.94185
 H33 H 0.19873 0.54480 0.90844
 H34 H 0.29659 0.47503 1.04483
 H35 H 0.33527 0.43186 1.04255
 H36 H 0.29247 0.40043 0.95546
 H37 H 0.25517 0.44456 0.95933
 C38 C 0.31427 0.58436 1.00301
 C39 C 0.18008 0.49326 1.09196
 C40 C 0.31694 0.41247 0.99881
 C41 C 0.17540 0.50113 0.92150
 C42 C 0.79375 0.52936 -0.03363
 H43 H 0.79512 0.54610 -0.01438
 C44 C 0.81484 0.53131 -0.05868
 H45 H 0.83247 0.54965 -0.05853
 C46 C 0.77003 0.48410 -0.05625
 H47 H 0.75279 0.46549 -0.05496
 C48 C 0.79080 0.48505 -0.08166
 H49 H 0.78905 0.46735 -0.10002
 N50 N 0.77190 0.50605 -0.03288
 C51 C 0.69477 0.53574 0.02691
 H52 H 0.69328 0.51523 0.04216
 C53 C 0.67152 0.55887 0.02799
 H54 H 0.65225 0.55625 0.04434
 C55 C 0.72103 0.56342 -0.01392
 H56 H 0.73983 0.56466 -0.03085
 C57 C 0.69853 0.58743 -0.01323
 H58 H 0.70024 0.60704 -0.02963
 Zn59 Zn 0.74605 0.50300 0.00317
 N60 N 0.71868 0.53815 0.00591
 C61 C 0.76867 0.52152 0.06351
 N62 N 0.77246 0.50109 0.03904
 C63 C 0.79654 0.48009 0.03857
 C64 C 0.81816 0.47916 0.06334
 C65 C 0.78967 0.52131 0.08886
 C66 C 0.69570 0.46835 -0.01945
 C67 C 0.67361 0.44415 -0.02027
 C68 C 0.70399 0.41572 0.01883
 C69 C 0.72523 0.44084 0.01941
 N70 N 0.72059 0.46655 0.00056
 H71 H 0.74961 0.53831 0.06325
 H72 H 0.79932 0.46450 0.01853
 H73 H 0.83765 0.46286 0.06201
 H74 H 0.78613 0.53765 0.10818
 H75 H 0.69249 0.48916 -0.03401
 H76 H 0.65343 0.44629 -0.03566
 H77 H 0.70747 0.39565 0.03439
 H78 H 0.74492 0.44005 0.03544
 C79 C 0.67310 0.58493 0.00750
 C80 C 0.81369 0.50878 -0.08299
 C81 C 0.67752 0.41763 -0.00073
 C82 C 0.81503 0.50012 0.08887
 C83 C -0.02344 0.29946 0.47184
 H84 H -0.04023 0.30045 0.49090
 C85 C -0.02582 0.32060 0.44657
 H86 H -0.04429 0.33805 0.44744
 C87 C 0.02208 0.27665 0.44990
 H88 H 0.04094 0.25972 0.45139
 C89 C 0.02075 0.29744 0.42424
 H90 H 0.03821 0.29476 0.40602
 N91 N -0.00007 0.27772 0.47283
 C92 C -0.03301 0.19949 0.53049
 H93 H -0.01314 0.19721 0.54622
 C94 C -0.05650 0.17666 0.53082
 H95 H -0.05478 0.15682 0.54698
 C96 C -0.05869 0.22729 0.48915
 H97 H -0.05899 0.24643 0.47223
 C98 C -0.08309 0.20533 0.48918
 H99 H -0.10210 0.20780 0.47238
 Zn100 Zn 0.00154 0.25016 0.50816
 N101 N -0.03423 0.22391 0.50956
 C102 C -0.02021 0.27568 0.56587
 N103 N 0.00371 0.27557 0.54477
 C104 C 0.02836 0.29559 0.54787
 C105 C 0.02957 0.31693 0.57297
 C106 C -0.02015 0.29692 0.59111
 C107 C 0.03656 0.20255 0.48024
 C108 C 0.06003 0.17985 0.47729
 C109 C 0.08249 0.19832 0.52633
 C110 C 0.05867 0.22093 0.52819
 N111 N 0.03634 0.22262 0.50527
 H112 H -0.03992 0.26006 0.56255
 H113 H 0.04687 0.29527 0.53050
 H114 H 0.04956 0.33245 0.57504
 H115 H -0.04004 0.29738 0.60686
 H116 H 0.01820 0.20405 0.46265
 H117 H 0.05986 0.16446 0.45689
 H118 H 0.09952 0.19676 0.54525
 H119 H 0.05756 0.23645 0.54840
 C120 C -0.08173 0.17935 0.50978
 C121 C -0.00357 0.32000 0.42193
 C122 C 0.08325 0.17719 0.50071
 C123 C 0.00483 0.31821 0.59479
 C124 C 0.98105 0.70128 0.53593
 H125 H 0.96453 0.69927 0.51662
 C126 C 0.98010 0.67972 0.56093
 H127 H 0.96286 0.66102 0.56046
 C128 C 1.02469 0.72715 0.55877
 H129 H 1.04234 0.74535 0.55757
 C130 C 1.02445 0.70623 0.58436
 H131 H 1.04164 0.70906 0.60296
 N132 N 1.00317 0.72431 0.53523
 C133 C 0.96762 0.79851 0.47320
 H134 H 0.98611 0.79933 0.45581
 C135 C 0.94265 0.81971 0.47122
 H136 H 0.94217 0.83697 0.45228
 C137 C 0.94660 0.77576 0.51976
 H138 H 0.94845 0.75884 0.53884
 C139 C 0.92127 0.79664 0.51878
 H140 H 0.90353 0.79526 0.53694
 Zn141 Zn 1.00449 0.75027 0.49882
 N142 N 0.96905 0.77698 0.49707
 C143 C 0.98288 0.72452 0.44061
 N144 N 1.00531 0.72298 0.46344
 C145 C 1.02800 0.70044 0.46274
 C146 C 1.02892 0.67844 0.43824
 C147 C 0.98291 0.70295 0.41566
 C148 C 1.04119 0.80010 0.52126
 C149 C 1.06614 0.82137 0.52186
 C150 C 1.08904 0.79357 0.47779
 C151 C 1.06353 0.77301 0.47788
 N152 N 1.04031 0.77652 0.49949
 H153 H 0.96453 0.74201 0.44200
 H154 H 1.04525 0.69943 0.48147
 H155 H 1.04733 0.66083 0.43803
 H156 H 0.96447 0.70414 0.39811
 H157 H 1.02215 0.80269 0.53785
 H158 H 1.06588 0.84045 0.53886
 H159 H 1.10739 0.79010 0.46057
 H160 H 1.06223 0.75451 0.46040
 C161 C 0.91910 0.81901 0.49427
 C162 C 1.00213 0.68187 0.58554
 C163 C 1.09048 0.81837 0.49980
 C164 C 1.00605 0.67939 0.41436
 C165 C 0.46570 -0.02400 0.29664
 H166 H 0.48301 -0.04267 0.29664
 C167 C 0.44106 -0.02486 0.31818
 H168 H 0.43932 -0.04468 0.33431
 C169 C 0.44713 0.02440 0.27539
 H170 H 0.44998 0.04395 0.25920
 C171 C 0.42224 0.02461 0.29669
 H172 H 0.40621 0.04445 0.29657
 N173 N 0.46810 0.00018 0.27557
 C174 C 0.52672 -0.03832 0.20082
 H175 H 0.54459 -0.02025 0.20007
 C176 C 0.52753 -0.06326 0.17932
 H177 H 0.54705 -0.06426 0.16318
 C178 C 0.48055 -0.05844 0.22394
 H179 H 0.46169 -0.05593 0.24067
 C180 C 0.48047 -0.08393 0.20299
 H181 H 0.46096 -0.10010 0.20416
 Zn182 Zn 0.50302 0.00027 0.24818
 N183 N 0.50350 -0.03631 0.22252
 C184 C 0.56051 -0.02183 0.27415
 N185 N 0.53919 0.00207 0.27393
 C186 C 0.54190 0.02710 0.29384
 C187 C 0.56693 0.02888 0.31501
 C188 C 0.58587 -0.02106 0.29503
 C189 C 0.47610 0.03638 0.20043
 C190 C 0.47378 0.06009 0.17761
 C191 C 0.52335 0.08082 0.19557
 C192 C 0.52460 0.05678 0.21829
 N193 N 0.50114 0.03518 0.22025
 H194 H 0.55758 -0.04185 0.25863
 H195 H 0.52426 0.04546 0.29358
 H196 H 0.56830 0.04869 0.33111
 H197 H 0.60262 -0.04028 0.29488
 H198 H 0.45800 0.01862 0.20225
 H199 H 0.45342 0.06072 0.16236
 H200 H 0.54266 0.09724 0.19378
 H201 H 0.54470 0.05491 0.23371
 C202 C 0.50397 -0.08666 0.17970
 C203 C 0.41893 -0.00025 0.31851
 C204 C 0.49779 0.08255 0.17464
 C205 C 0.58922 0.00446 0.31595
 C206 C 0.54168 -0.02497 0.69713
 H207 H 0.52297 -0.04209 0.69567
 C208 C 0.56648 -0.02633 0.67584
 H209 H 0.56662 -0.04458 0.65794
 C210 C 0.56326 0.02052 0.72141
 H211 H 0.56162 0.03901 0.73890
 C212 C 0.58846 0.02015 0.70042
 H213 H 0.60636 0.03812 0.70233
 N214 N 0.54060 -0.00195 0.71947
 C215 C 0.47996 -0.03846 0.79362
 H216 H 0.46326 -0.01928 0.79515
 C217 C 0.47848 -0.06360 0.81500
 H218 H 0.46066 -0.06331 0.83312
 C219 C 0.52456 -0.06083 0.76919
 H220 H 0.54286 -0.05940 0.75172
 C221 C 0.52375 -0.08660 0.78987
 H222 H 0.54112 -0.10506 0.78744
 Zn223 Zn 0.50472 -0.00096 0.74544
 N224 N 0.50281 -0.03744 0.77138
 C225 C 0.44761 -0.02200 0.71759
 N226 N 0.46984 0.00096 0.71793
 C227 C 0.46908 0.02531 0.69694
 C228 C 0.44502 0.02759 0.67476
 C229 C 0.42328 -0.02088 0.69544
 C230 C 0.52771 0.03559 0.79554
 C231 C 0.52815 0.06031 0.81741
 C232 C 0.48302 0.08285 0.79128
 C233 C 0.48325 0.05758 0.77016
 N234 N 0.50547 0.03465 0.77253
 H235 H 0.44908 -0.04158 0.73398
 H236 H 0.48735 0.04298 0.69744
 H237 H 0.44469 0.04759 0.65875
 H238 H 0.40633 -0.03986 0.69500
 H239 H 0.54478 0.01675 0.79724
 H240 H 0.54555 0.06008 0.83604
 H241 H 0.46531 0.10098 0.78864
 H242 H 0.46533 0.05617 0.75222
 C243 C 0.50069 -0.08810 0.81345
 C244 C 0.59025 -0.00351 0.67725
 C245 C 0.50545 0.08432 0.81558
 C246 C 0.42183 0.00411 0.67348
 Si247 Si 0.25258 0.00038 0.49701
 Si248 Si 0.75429 -0.00061 0.49663
 Si249 Si 0.50030 0.25102 0.99535
 Si250 Si 0.49305 0.74978 -0.00198
 Si251 Si 0.99760 0.49511 0.25182
 Si252 Si -0.00437 0.50368 0.75522
 C253 C 0.15289 0.10436 0.49521
 C254 C 0.12227 0.09824 0.48490
 C255 C 0.09967 0.12192 0.48679
 C256 C 0.10734 0.15185 0.49882
 C257 C 0.13819 0.15688 0.50924
 N258 N 0.15981 0.13333 0.50730
 C259 C 0.17747 0.07974 0.49422
 N260 N 0.20076 0.08014 0.51625
 C261 C 0.22354 0.05766 0.51727
 C262 C 0.22368 0.03313 0.49510
 C263 C 0.20036 0.03252 0.47188
 C264 C 0.17726 0.05580 0.47126
 H265 H 0.07603 0.11653 0.47937
 H266 H 0.14525 0.17959 0.51853
 H267 H 0.24110 0.05880 0.53565
 H268 H 0.19986 0.01386 0.45440
 H269 H 0.11553 0.07519 0.47621
 H270 H 0.15963 0.05509 0.45287
 C271 C 0.59876 0.65230 0.00229
 C272 C 0.59193 0.61986 0.00194
 C273 C 0.61621 0.59795 0.00414
 C274 C 0.64728 0.60823 0.00636
 C275 C 0.65317 0.64086 0.00681
 N276 N 0.62905 0.66184 0.00507
 C277 C 0.57359 0.67612 0.00005
 N278 N 0.57558 0.70320 0.01731
 C279 C 0.55256 0.72546 0.01689
 C280 C 0.52591 0.72106 -0.00191
 C281 C 0.52384 0.69392 -0.02061
 C282 C 0.54751 0.67128 -0.01956
 H283 H 0.61077 0.57295 0.00360
 H284 H 0.67687 0.64962 0.00876
 H285 H 0.55507 0.74641 0.03128
 H286 H 0.50371 0.69003 -0.03570
 H287 H 0.56805 0.61151 0.00038
 H288 H 0.54556 0.65035 -0.03412
 C289 C 0.84550 -0.11225 0.49179
 C290 C 0.85507 -0.12681 0.46359
 C291 C 0.87875 -0.14955 0.46443
 C292 C 0.89297 -0.15789 0.49321
 C293 C 0.88253 -0.14301 0.52087
 N294 N 0.85963 -0.12074 0.51943
 C295 C 0.82188 -0.08662 0.49232
 N296 N 0.82237 -0.06581 0.51683
 C297 C 0.80218 -0.04107 0.51871
 C298 C 0.77972 -0.03625 0.49507
 C299 C 0.77838 -0.05746 0.46978
 C300 C 0.79929 -0.08281 0.46837
 H301 H 0.88602 -0.16055 0.44256
 H302 H 0.89315 -0.14839 0.54350
 H303 H 0.80396 -0.02495 0.53847
 H304 H 0.76154 -0.05434 0.45091
 H305 H 0.84517 -0.12022 0.44097
 H306 H 0.79755 -0.09916 0.44884
 C307 C 0.38956 0.34304 0.99173
 C308 C 0.37897 0.35863 0.96435
 C309 C 0.35492 0.38084 0.96657
 C310 C 0.34123 0.38752 0.99591
 C311 C 0.35187 0.37076 1.02255
 N312 N 0.37539 0.34928 1.01982
 C313 C 0.41587 0.32025 0.99108
 N314 N 0.41813 0.29808 1.01440
 C315 C 0.44218 0.27704 1.01593
 C316 C 0.46590 0.27784 0.99321
 C317 C 0.46441 0.30066 0.96929
 C318 C 0.43943 0.32186 0.96803
 H319 H 0.34755 0.39329 0.94542
 H320 H 0.34158 0.37477 1.04554
 H321 H 0.44288 0.26016 1.03513
 H322 H 0.48275 0.30228 0.95176
 H323 H 0.38894 0.35377 0.94140
 H324 H 0.43924 0.33978 0.94976
 C325 C 0.85026 0.10614 0.50236
 C326 C 0.88213 0.09878 0.49952
 C327 C 0.90430 0.12269 0.50249
 C328 C 0.89476 0.15392 0.50774
 C329 C 0.86269 0.16039 0.51044
 N330 N 0.84146 0.13656 0.50805
 C331 C 0.82632 0.08127 0.49964
 N332 N 0.80188 0.08074 0.52021
 C333 C 0.77994 0.05746 0.51961
 C334 C 0.78184 0.03329 0.49710
 C335 C 0.80631 0.03388 0.47522
 C336 C 0.82872 0.05770 0.47652
 H337 H 0.92889 0.11692 0.50021
 H338 H 0.85461 0.18426 0.51470
 H339 H 0.76143 0.05774 0.53692
 H340 H 0.80839 0.01558 0.45748
 H341 H 0.88981 0.07472 0.49549
 H342 H 0.84767 0.05776 0.45959
 C343 C 0.38057 0.66005 -0.00016
 C344 C 0.36405 0.65177 -0.02767
 C345 C 0.34203 0.62749 -0.02650
 C346 C 0.33634 0.61138 0.00193
 C347 C 0.35297 0.62068 0.02900
 N348 N 0.37455 0.64418 0.02721
 C349 C 0.40592 0.68387 -0.00044
 N350 N 0.42884 0.68180 0.02187
 C351 C 0.45375 0.70169 0.02240
 C352 C 0.45670 0.72547 -0.00050
 C353 C 0.43328 0.72832 -0.02355
 C354 C 0.40773 0.70781 -0.02345
 H355 H 0.32959 0.62116 -0.04789
 H356 H 0.34957 0.60864 0.05132
 H357 H 0.47182 0.69792 0.03990
 H358 H 0.43482 0.74585 -0.04206
 H359 H 0.36865 0.66303 -0.05015
 H360 H 0.38979 0.71075 -0.04130
 C361 C 0.16416 -0.11299 0.49773
 C362 C 0.15306 -0.12596 0.46932
 C363 C 0.12934 -0.14852 0.47005
 C364 C 0.11655 -0.15838 0.49897
 C365 C 0.12845 -0.14493 0.52687
 N366 N 0.15142 -0.12276 0.52554
 C367 C 0.18789 -0.08757 0.49807
 N368 N 0.18756 -0.06612 0.52203
 C369 C 0.20741 -0.04104 0.52287
 C370 C 0.22911 -0.03650 0.49857
 C371 C 0.23053 -0.05867 0.47413
 C372 C 0.21010 -0.08434 0.47386
 H373 H 0.12041 -0.15752 0.44787
 H374 H 0.11958 -0.15200 0.54974
 H375 H 0.20563 -0.02420 0.54201
 H376 H 0.24680 -0.05588 0.45481
 H377 H 0.16170 -0.11805 0.44664
 H378 H 0.21165 -0.10126 0.45479
 C379 C 0.60649 0.34704 1.00313
 C380 C 0.59868 0.37884 1.00826
 C381 C 0.62192 0.40183 1.00676
 C382 C 0.65295 0.39318 1.00066
 C383 C 0.65992 0.36112 0.99590
 N384 N 0.63673 0.33912 0.99683
 C385 C 0.58214 0.32237 1.00331
 N386 N 0.58279 0.29910 0.98112
 C387 C 0.55978 0.27702 0.97884
 C388 C 0.53449 0.27766 0.99981
 C389 C 0.53386 0.30075 1.02342
 C390 C 0.55757 0.32323 1.02520
 H391 H 0.61575 0.42637 1.01059
 H392 H 0.68364 0.35371 0.99093
 H393 H 0.56096 0.25964 0.96022
 H394 H 0.51461 0.30187 1.03997
 H395 H 0.57475 0.38595 1.01267
 H396 H 0.55662 0.34119 1.04337
 C397 C 0.49434 0.15259 1.10128
 C398 C 0.48305 0.12201 1.09543
 C399 C 0.48422 0.09930 1.11930
 C400 C 0.49654 0.10681 1.14915
 C401 C 0.50793 0.13760 1.15393
 N402 N 0.50666 0.15934 1.13020
 C403 C 0.49418 0.17722 1.07639
 N404 N 0.51670 0.19998 1.07668
 C405 C 0.51860 0.22256 1.05380
 C406 C 0.49694 0.22296 1.02892
 C407 C 0.47317 0.20032 1.02849
 C408 C 0.47159 0.17748 1.05221
 H409 H 0.47604 0.07566 1.11413
 H410 H 0.51750 0.14453 1.17657
 H411 H 0.53732 0.23968 1.05483
 H412 H 0.45604 0.20008 1.00958
 H413 H 0.47415 0.11532 1.07244
 H414 H 0.45283 0.16036 1.05158
 C415 C 0.00270 0.61203 0.65917
 C416 C 0.03112 0.62438 0.64813
 C417 C 0.03092 0.64735 0.62443
 C418 C 0.00252 0.65819 0.61161
 C419 C -0.02539 0.64526 0.62341
 N420 N -0.02458 0.62274 0.64638
 C421 C 0.00162 0.58675 0.68337
 N422 N -0.02297 0.56631 0.68337
 C423 C -0.02524 0.54216 0.70449
 C424 C -0.00207 0.53779 0.72753
 C425 C 0.02333 0.55860 0.72822
 C426 C 0.02522 0.58319 0.70628
 H427 H 0.05306 0.65596 0.61556
 H428 H -0.04786 0.65309 0.61452
 H429 H -0.04506 0.52631 0.70320
 H430 H 0.04191 0.55581 0.74538
 H431 H 0.05336 0.61579 0.65691
 H432 H 0.04480 0.59931 0.70754
 C433 C 0.49965 0.83832 -0.11657
 C434 C 0.52831 0.84885 -0.12873
 C435 C 0.52864 0.87249 -0.15179
 C436 C 0.50051 0.88565 -0.16300
 C437 C 0.47232 0.87408 -0.15047
 N438 N 0.47263 0.85131 -0.12773
 C439 C 0.49807 0.81506 -0.09047
 N440 N 0.47382 0.81679 -0.06975
 C441 C 0.47152 0.79723 -0.04435
 C442 C 0.49445 0.77421 -0.03868
 C443 C 0.51926 0.77142 -0.06003
 C444 C 0.52116 0.79177 -0.08599
 H445 H 0.55099 0.88112 -0.16005
 H446 H 0.45003 0.88311 -0.15863
 H447 H 0.45217 0.80017 -0.02816
 H448 H 0.53746 0.75398 -0.05645
 H449 H 0.55033 0.83989 -0.11976
 H450 H 0.54044 0.78921 -0.10230
 C451 C 0.99205 0.38537 0.34588
 C452 C 0.96471 0.37758 0.36236
 C453 C 0.96606 0.35587 0.38718
 C454 C 0.99463 0.34155 0.39608
 C455 C 1.02140 0.34998 0.37846
 N456 N 1.01943 0.37146 0.35461
 C457 C 0.99256 0.40985 0.32078
 N458 N 1.02008 0.42474 0.31450
 C459 C 1.02224 0.44872 0.29320
 C460 C 0.99558 0.45917 0.27699
 C461 C 0.96718 0.44366 0.28217
 C462 C 0.96557 0.41885 0.30391
 H463 H 0.94429 0.34991 0.39866
 H464 H 1.04433 0.34099 0.38441
 H465 H 1.04455 0.46025 0.28968
 H466 H 0.94609 0.45117 0.27009
 H467 H 0.94250 0.38856 0.35684
 H468 H 0.94339 0.40714 0.30743
 C469 C 0.50114 0.84107 0.11045
 C470 C 0.48660 0.83616 0.13972
 C471 C 0.48776 0.85978 0.16271
 C472 C 0.50342 0.88859 0.15695
 C473 C 0.51790 0.89212 0.12717
 N474 N 0.51610 0.86889 0.10516
 C475 C 0.49948 0.81780 0.08439
 N476 N 0.50398 0.82826 0.05430
 C477 C 0.50242 0.80878 0.02888
 C478 C 0.49591 0.77657 0.03292
 C479 C 0.49220 0.76498 0.06371
 C480 C 0.49386 0.78547 0.08952
 H481 H 0.47693 0.85476 0.18522
 H482 H 0.52932 0.91384 0.12036
 H483 H 0.50650 0.81865 0.00570
 H484 H 0.48817 0.74016 0.06799
 H485 H 0.47387 0.81469 0.14479
 H486 H 0.49127 0.77586 0.11307
 C487 C 0.00136 0.38971 0.66648
 C488 C -0.01079 0.35958 0.67291
 C489 C -0.00919 0.33607 0.64983
 C490 C 0.00436 0.34247 0.62027
 C491 C 0.01670 0.37283 0.61510
 N492 N 0.01496 0.39525 0.63797
 C493 C -0.00020 0.41577 0.68967
 N494 N 0.02206 0.43874 0.68878
 C495 C 0.02148 0.46408 0.70845
 C496 C -0.00282 0.46763 0.73025
 C497 C -0.02621 0.44456 0.73145
 C498 C -0.02490 0.41845 0.71135
 H499 H -0.01836 0.31285 0.65526
 H500 H 0.02700 0.37913 0.59264
 H501 H 0.03974 0.48170 0.70669
 H502 H -0.04575 0.44683 0.74744
 H503 H -0.02105 0.35402 0.69561
 H504 H -0.04356 0.40122 0.71209
 C505 C 0.50258 0.15811 0.88486
 C506 C 0.47457 0.14609 0.87241
 C507 C 0.47557 0.12216 0.84986
 C508 C 0.50436 0.11011 0.83943
 C509 C 0.53186 0.12272 0.85261
 N510 N 0.53029 0.14591 0.87479
 C511 C 0.50254 0.18260 0.90975
 N512 N 0.52594 0.18279 0.93166
 C513 C 0.52636 0.20359 0.95614
 C514 C 0.50232 0.22584 0.95945
 C515 C 0.47839 0.22657 0.93683
 C516 C 0.47848 0.20514 0.91186
 H517 H 0.45371 0.11261 0.84117
 H518 H 0.55460 0.11437 0.84517
 H519 H 0.54503 0.20221 0.97342
 H520 H 0.45915 0.24305 0.93873
 H521 H 0.45205 0.15432 0.88063
 H522 H 0.45983 0.20618 0.89456
 C523 C 1.00362 0.60846 0.34221
 C524 C 0.99650 0.63998 0.33434
 C525 C 0.99757 0.66321 0.35774
 C526 C 1.00563 0.65522 0.38896
 C527 C 1.01256 0.62349 0.39579
 N528 N 1.01126 0.60133 0.37267
 C529 C 1.00209 0.58224 0.31907
 N530 N 1.00101 0.55213 0.33042
 C531 C 0.99971 0.52649 0.31125
 C532 C 0.99964 0.53029 0.27836
 C533 C 1.00069 0.56100 0.26596
 C534 C 1.00208 0.58706 0.28616
 H535 H 0.99218 0.68743 0.35140
 H536 H 1.01832 0.61611 0.41961
 H537 H 0.99862 0.50332 0.32195
 H538 H 1.00041 0.56481 0.24064
 H539 H 0.98956 0.64678 0.31070
 H540 H 1.00355 0.61042 0.27589
 C541 C 1.11043 0.48814 0.16287
 C542 C 1.12494 0.46033 0.15244
 C543 C 1.14836 0.46199 0.12959
 C544 C 1.15764 0.49134 0.11670
 C545 C 1.14303 0.51868 0.12891
 N546 N 1.12033 0.51634 0.15118
 C547 C 1.08437 0.48795 0.18586
 N548 N 1.07852 0.51466 0.20277
 C549 C 1.05397 0.51708 0.22296
 C550 C 1.03304 0.49188 0.22644
 C551 C 1.03892 0.46390 0.20987
 C552 C 1.06443 0.46182 0.18948
 H553 H 1.15783 0.43987 0.12115
 H554 H 1.14993 0.54211 0.12153
 H555 H 1.05082 0.53885 0.23577
 H556 H 1.02376 0.44364 0.21255
 H557 H 1.11836 0.43742 0.16166
 H558 H 1.06775 0.44033 0.17611
 C559 C 0.66315 -0.00491 0.60807
 C560 C 0.65323 -0.03337 0.62199
 C561 C 0.62988 -0.03284 0.64493
 C562 C 0.61625 -0.00411 0.65409
 C563 C 0.62699 0.02384 0.63984
 N564 N 0.64962 0.02271 0.61735
 C565 C 0.68667 -0.00421 0.58243
 N566 N 0.68650 0.02053 0.56174
 C567 C 0.70664 0.02232 0.53698
 C568 C 0.72864 -0.00169 0.53203
 C569 C 0.72956 -0.02720 0.55312
 C570 C 0.70883 -0.02845 0.57848
 H571 H 0.62239 -0.05493 0.65541
 H572 H 0.61680 0.04646 0.64589
 H573 H 0.70514 0.04223 0.52093
 H574 H 0.74594 -0.04640 0.54997
 H575 H 0.66259 -0.05597 0.61475
 H576 H 0.71037 -0.04816 0.59474
 C577 C -0.11682 0.50980 0.84434
 C578 C -0.13069 0.53836 0.85390
 C579 C -0.15368 0.53802 0.87726
 C580 C -0.16298 0.50938 0.89112
 C581 C -0.14876 0.48136 0.88069
 N582 N -0.12621 0.48231 0.85814
 C583 C -0.09099 0.50877 0.82112
 N584 N -0.07047 0.48414 0.82235
 C585 C -0.04556 0.48194 0.80261
 C586 C -0.04028 0.50534 0.77982
 C587 C -0.06120 0.53075 0.77774
 C588 C -0.08670 0.53249 0.79821
 H589 H -0.16411 0.56016 0.88458
 H590 H -0.15490 0.45881 0.89107
 H591 H -0.02963 0.46216 0.80504
 H592 H -0.05769 0.54954 0.76076
 H593 H -0.12336 0.56085 0.84426
 H594 H -0.10278 0.55213 0.79593
 C595 C 0.34524 0.00075 0.38704
 C596 C 0.33934 0.01203 0.35636
 C597 C 0.36325 0.01155 0.33394
 C598 C 0.39303 -0.00012 0.34193
 C599 C 0.39777 -0.01148 0.37281
 N600 N 0.37413 -0.01082 0.39417
 C601 C 0.32105 0.00068 0.41197
 N602 N 0.32378 -0.02047 0.43613
 C603 C 0.30329 -0.02132 0.46058
 C604 C 0.27852 0.00029 0.46187
 C605 C 0.27521 0.02246 0.43749
 C606 C 0.29636 0.02267 0.41237
 H607 H 0.35828 0.01989 0.31024
 H608 H 0.42038 -0.02034 0.38024
 H609 H 0.30667 -0.03853 0.47926
 H610 H 0.25674 0.03994 0.43802
 H611 H 0.31646 0.02060 0.34946
 H612 H 0.29390 0.04050 0.39417
 C613 C 0.10274 0.50668 0.85171
 C614 C 0.11331 0.53438 0.86655
 C615 C 0.13711 0.53257 0.88907
 C616 C 0.15075 0.50334 0.89676
 C617 C 0.14003 0.47631 0.88087
 N618 N 0.11669 0.47864 0.85908
 C619 C 0.07695 0.50701 0.82823
 N620 N 0.07438 0.48254 0.80748
 C621 C 0.05106 0.48096 0.78559
 C622 C 0.02855 0.50496 0.78387
 C623 C 0.03032 0.53008 0.80522
 C624 C 0.05441 0.53124 0.82744
 H625 H 0.14444 0.55403 0.90084
 H626 H 0.15025 0.45336 0.88563
 H627 H 0.05011 0.46091 0.76984
 H628 H 0.01292 0.54871 0.80483
 H629 H 0.10364 0.55733 0.86081
 H630 H 0.05472 0.55054 0.84413
 C631 C 0.66208 0.00591 0.38569
 C632 C 0.65394 0.03398 0.36980
 C633 C 0.63053 0.03345 0.34675
 C634 C 0.61511 0.00512 0.33942
 C635 C 0.62407 -0.02242 0.35569
 N636 N 0.64679 -0.02128 0.37818
 C637 C 0.68564 0.00508 0.41145
 N638 N 0.68452 -0.01906 0.43278
 C639 C 0.70480 -0.02129 0.45748
 C640 C 0.72797 0.00162 0.46172
 C641 C 0.72996 0.02652 0.43999
 C642 C 0.70896 0.02828 0.41470
 H643 H 0.62444 0.05523 0.33469
 H644 H 0.61248 -0.04468 0.35118
 H645 H 0.70263 -0.04079 0.47394
 H646 H 0.74755 0.04469 0.44253
 H647 H 0.66477 0.05633 0.37552
 H648 H 0.71132 0.04743 0.39792
 C649 C 0.88529 0.50125 0.16137
 C650 C 0.87150 0.52977 0.15147
 C651 C 0.84829 0.52935 0.12822
 C652 C 0.83871 0.50066 0.11469
 C653 C 0.85294 0.47266 0.12545
 N654 N 0.87563 0.47368 0.14799
 C655 C 0.91124 0.50034 0.18461
 N656 N 0.93148 0.47548 0.18397
 C657 C 0.95647 0.47337 0.20379
 C658 C 0.96234 0.49728 0.22585
 C659 C 0.94121 0.52253 0.22780
 C660 C 0.91568 0.52421 0.20722
 H661 H 0.83856 0.55161 0.12016
 H662 H 0.84608 0.44995 0.11600
 H663 H 0.97164 0.45302 0.20218
 H664 H 0.94417 0.54094 0.24519
 H665 H 0.87915 0.55231 0.16066
 H666 H 0.89953 0.54379 0.20936
 C667 C 0.35010 0.00767 0.60249
 C668 C 0.38025 0.01858 0.59545
 C669 C 0.40353 0.01727 0.61849
 C670 C 0.39697 0.00534 0.64877
 C671 C 0.36650 -0.00560 0.65476
 N672 N 0.34421 -0.00435 0.63175
 C673 C 0.32508 0.00782 0.57833
 N674 N 0.30355 -0.01590 0.57812
 C675 C 0.28109 -0.01806 0.55538
 C676 C 0.27952 0.00457 0.53120
 C677 C 0.30079 0.02965 0.53146
 C678 C 0.32356 0.03143 0.55499
 H679 H 0.42684 0.02504 0.61232
 H680 H 0.36023 -0.01481 0.67775
 H681 H 0.26515 -0.03785 0.55581
 H682 H 0.30021 0.04748 0.51304
 H683 H 0.38609 0.02727 0.57212
 H684 H 0.33984 0.05100 0.55480
   
