data_POSCAR
  _audit_creation_date              2014-09-24
  _audit_creation_method            'ToBaCCo'
  _symmetry_space_group_name_H-M    'P1'
  _symmetry_Int_Tables_number       1
  _symmetry_cell_setting            triclinic
  loop_
  _symmetry_equiv_pos_as_xyz
 x,y,z
_cell_length_a 40.6703
_cell_length_b 40.6182
_cell_length_c 40.7048
_cell_angle_alpha 79.471600
_cell_angle_beta 101.959700
_cell_angle_gamma 103.865200
loop_
  _atom_site_label
  _atom_site_type_symbol
  _atom_site_fract_x
  _atom_site_fract_y
  _atom_site_fract_z
C1 C 0.55796 0.55859 -0.00829
 C2 C 0.56019 0.52715 -0.01675
 C3 C 0.53129 0.49994 -0.01576
 C4 C 0.50179 0.50292 -0.00452
 C5 C 0.50096 0.53447 0.00467
 C6 C 0.52831 0.56313 0.00166
 C7 C 0.47174 0.47320 -0.00284
 C8 C 0.43803 0.47851 -0.00702
 C9 C 0.40988 0.45084 -0.00461
 C10 C 0.41528 0.41733 0.00005
 C11 C 0.44841 0.41126 0.00319
 C12 C 0.47650 0.43922 0.00272
 H13 H 0.58059 0.57896 -0.00656
 H14 H 0.53119 0.47671 -0.02517
 H15 H 0.47829 0.53691 0.01302
 H16 H 0.43322 0.50417 -0.01281
 H17 H 0.39375 0.39582 0.00202
 H18 H 0.50206 0.43427 0.00630
 C19 C -0.00188 0.58379 0.41751
 C20 C 0.00190 0.59086 0.45095
 C21 C 0.00337 0.56342 0.47760
 C22 C -0.00101 0.52959 0.47140
 C23 C -0.00574 0.52338 0.43767
 C24 C -0.00505 0.55033 0.41031
 C25 C -0.00009 0.50090 0.50031
 C26 C 0.01192 0.47170 0.49808
 C27 C 0.01212 0.44445 0.52483
 C28 C 0.00167 0.44711 0.55480
 C29 C -0.00963 0.47618 0.55804
 C30 C -0.01116 0.50254 0.53049
 H31 H -0.00526 0.60396 0.39659
 H32 H 0.00954 0.56853 0.50355
 H33 H -0.00867 0.49745 0.43304
 H34 H 0.02177 0.47013 0.47581
 H35 H 0.00234 0.42642 0.57573
 H36 H -0.02152 0.52409 0.53263
 C37 C 0.58313 0.00130 0.58400
 C38 C 0.54944 -0.00356 0.59008
 C39 C 0.52197 -0.00654 0.56283
 C40 C 0.52770 -0.00268 0.52932
 C41 C 0.56183 0.00326 0.52375
 C42 C 0.58994 0.00407 0.55084
 C43 C 0.49825 -0.00476 0.50018
 C44 C 0.50087 -0.01570 0.47004
 C45 C 0.47384 -0.01688 0.44225
 C46 C 0.44310 -0.00876 0.44526
 C47 C 0.43931 0.00111 0.47527
 C48 C 0.46724 0.00398 0.50221
 H49 H 0.60372 0.00191 0.60559
 H50 H 0.49606 -0.01242 0.56814
 H51 H 0.56659 0.00882 0.49798
 H52 H 0.52376 -0.02382 0.46804
 H53 H 0.42225 -0.00922 0.42379
 H54 H 0.46445 0.01278 0.52479
 O55 O 0.47439 -0.01527 -0.03691
 O56 O 0.46891 -0.02640 0.05389
 O57 O 0.46794 0.02429 0.00453
 O58 O 0.47412 -0.06575 0.01251
 O59 O 0.53062 -0.05078 0.02484
 O60 O 0.52437 0.03951 0.01718
 O61 O 0.52540 -0.01142 0.06620
 O62 O 0.53083 0.00004 -0.02431
 Cu63 Cu 0.46567 -0.02215 0.00716
 Cu64 Cu 0.53346 -0.00403 0.02212
 C65 C 0.50366 -0.00615 -0.04609
 C66 C 0.49629 -0.02098 0.07561
 C67 C 0.49499 0.04729 0.00989
 C68 C 0.50337 -0.07374 0.02007
 O69 O -0.05344 0.52729 0.97503
 O70 O 0.03759 0.52212 0.98609
 O71 O -0.01290 0.52283 0.93525
 O72 O -0.00295 0.52796 1.02611
 O73 O -0.01781 0.47168 1.03678
 O74 O -0.02738 0.46649 0.94558
 O75 O 0.02285 0.46584 0.99683
 O76 O -0.06793 0.47095 0.98540
 Cu77 Cu -0.00636 0.53069 0.97971
 Cu78 Cu -0.02390 0.46310 0.99232
 C79 C -0.07629 0.49994 0.97818
 C80 C 0.04573 0.49299 0.99292
 C81 C -0.02189 0.49386 0.92479
 C82 C -0.00914 0.50083 1.04697
 O83 O 0.00292 -0.02341 0.47234
 O84 O 0.01697 0.06841 0.47744
 O85 O 0.05559 0.02755 0.47282
 O86 O -0.03574 0.01755 0.47838
 O87 O -0.02308 0.00665 0.53409
 O88 O 0.06802 0.01714 0.52860
 O89 O 0.02932 0.05796 0.53322
 O90 O 0.01576 -0.03420 0.52805
 Cu91 Cu 0.00857 0.02349 0.46966
 Cu92 Cu 0.02364 0.01074 0.53658
 C93 C 0.00746 -0.04449 0.49919
 C94 C 0.02554 0.07897 0.50613
 C95 C 0.07745 0.02408 0.49982
 C96 C -0.04496 0.01077 0.50729
 C97 C -0.36793 0.48680 0.97684
 C98 C -0.34447 0.51533 0.96479
 C99 C -0.35339 0.54732 0.95667
 C100 C -0.38517 0.55108 0.96165
 C101 C -0.40884 0.52282 0.97514
 C102 C -0.39984 0.49037 0.98180
 C103 C -0.31043 0.51232 0.96280
 C104 C -0.28149 0.51029 0.96221
 C105 C -0.24724 0.50833 0.96263
 C106 C -0.21777 0.50685 0.96384
 C107 C -0.18243 0.50512 0.96618
 C108 C -0.15734 0.53523 0.96237
 C109 C -0.12279 0.53361 0.96602
 C110 C -0.11291 0.50178 0.97359
 C111 C -0.13838 0.47165 0.97707
 C112 C -0.17289 0.47335 0.97341
 H113 H -0.36116 0.46190 0.98343
 H114 H -0.33551 0.56956 0.94698
 H115 H -0.39113 0.57625 0.95431
 H116 H -0.41626 0.46785 0.99296
 H117 H -0.16445 0.55998 0.95689
 H118 H -0.10383 0.55726 0.96316
 H119 H -0.13165 0.44674 0.98287
 H120 H -0.19209 0.44989 0.97653
 C121 C 0.33762 0.48747 1.01049
 C122 C 0.30875 0.46725 0.99316
 C123 C 0.31291 0.44213 0.97587
 C124 C 0.34579 0.43702 0.97617
 C125 C 0.37497 0.45700 0.99380
 C126 C 0.37050 0.48242 1.01081
 C127 C 0.27485 0.47183 0.99372
 C128 C 0.24644 0.47543 0.99444
 C129 C 0.21308 0.47930 0.99540
 C130 C 0.18445 0.48224 0.99616
 C131 C 0.15001 0.48522 0.99679
 C132 C 0.12489 0.45574 1.00328
 C133 C 0.09111 0.45833 1.00268
 C134 C 0.08196 0.49051 0.99553
 C135 C 0.10753 0.52007 0.98957
 C136 C 0.14133 0.51741 0.99018
 H137 H 0.33470 0.50690 1.02407
 H138 H 0.29074 0.42636 0.96232
 H139 H 0.34841 0.41753 0.96251
 H140 H 0.39239 0.49790 1.02501
 H141 H 0.13132 0.43070 1.00843
 H142 H 0.07208 0.43507 1.00735
 H143 H 0.10133 0.54521 0.98394
 H144 H 0.16058 0.54040 0.98511
 C145 C 0.01572 -0.31325 0.44102
 C146 C 0.00443 -0.30874 0.46972
 C147 C -0.00688 -0.33722 0.49263
 C148 C -0.00729 -0.37018 0.48676
 C149 C 0.00356 -0.37547 0.45758
 C150 C 0.01534 -0.34614 0.43495
 C151 C 0.00389 -0.27489 0.47532
 C152 C 0.00325 -0.24649 0.47966
 C153 C 0.00245 -0.21309 0.48424
 C154 C 0.00189 -0.18436 0.48763
 C155 C 0.00155 -0.14975 0.49093
 C156 C 0.00998 -0.13878 0.52287
 C157 C 0.01115 -0.10468 0.52573
 C158 C 0.00396 -0.08113 0.49662
 C159 C -0.00509 -0.09261 0.46471
 C160 C -0.00627 -0.12667 0.46193
 H161 H 0.02487 -0.29130 0.42324
 H162 H -0.01594 -0.33403 0.51485
 H163 H -0.01779 -0.39139 0.50448
 H164 H 0.02539 -0.34814 0.41296
 H165 H 0.01611 -0.15644 0.54549
 H166 H 0.01827 -0.09665 0.55064
 H167 H -0.01076 -0.07517 0.44180
 H168 H -0.01281 -0.13488 0.43708
 C169 C 0.01610 0.36609 0.48882
 C170 C 0.03490 0.34876 0.51647
 C171 C 0.04820 0.36374 0.54610
 C172 C 0.04188 0.39550 0.54845
 C173 C 0.02204 0.41260 0.52120
 C174 C 0.00975 0.39785 0.49112
 C175 C 0.03842 0.31462 0.51524
 C176 C 0.04012 0.28560 0.51438
 C177 C 0.04075 0.25123 0.51341
 C178 C 0.04021 0.22163 0.51244
 C179 C 0.03834 0.18611 0.51097
 C180 C 0.04283 0.16315 0.54087
 C181 C 0.03911 0.12830 0.53938
 C182 C 0.03077 0.11599 0.50789
 C183 C 0.02677 0.13938 0.47797
 C184 C 0.03051 0.17418 0.47954
 H185 H 0.00551 0.35461 0.46584
 H186 H 0.06277 0.35052 0.56765
 H187 H 0.05207 0.40644 0.57176
 H188 H -0.00592 0.41021 0.46987
 H189 H 0.04875 0.17212 0.56534
 H190 H 0.04236 0.11096 0.56285
 H191 H 0.02038 0.13077 0.45333
 H192 H 0.02686 0.19172 0.45625
 C193 C 0.51358 0.01216 -0.33658
 C194 C 0.53165 -0.00585 -0.30891
 C195 C 0.55508 -0.02377 -0.31424
 C196 C 0.56065 -0.02344 -0.34709
 C197 C 0.54284 -0.00512 -0.37504
 C198 C 0.51910 0.01252 -0.36942
 C199 C 0.52664 -0.00536 -0.27503
 C200 C 0.52269 -0.00467 -0.24664
 C201 C 0.51845 -0.00373 -0.21330
 C202 C 0.51524 -0.00296 -0.18468
 C203 C 0.51200 -0.00227 -0.15027
 C204 C 0.54144 0.00684 -0.12631
 C205 C 0.53865 0.00625 -0.09255
 C206 C 0.50630 -0.00351 -0.08226
 C207 C 0.47677 -0.01208 -0.10666
 C208 C 0.47964 -0.01149 -0.14044
 H209 H 0.49548 0.02621 -0.33274
 H210 H 0.56915 -0.03786 -0.29300
 H211 H 0.57875 -0.03762 -0.35065
 H212 H 0.50531 0.02718 -0.39038
 H213 H 0.56662 0.01400 -0.13363
 H214 H 0.56189 0.01297 -0.07444
 H215 H 0.45151 -0.01976 -0.09956
 H216 H 0.45668 -0.01860 -0.15879
 C217 C 0.45366 -0.05032 0.35762
 C218 C 0.48377 -0.03499 0.34448
 C219 C 0.51141 -0.01561 0.36416
 C220 C 0.50863 -0.01075 0.39651
 C221 C 0.47805 -0.02512 0.40951
 C222 C 0.45081 -0.04548 0.38996
 C223 C 0.48548 -0.03714 0.31002
 C224 C 0.48671 -0.03780 0.28084
 C225 C 0.48806 -0.03735 0.24642
 C226 C 0.48929 -0.03605 0.21689
 C227 C 0.49098 -0.03351 0.18155
 C228 C 0.52287 -0.02375 0.17080
 C229 C 0.52460 -0.01989 0.13634
 C230 C 0.49438 -0.02570 0.11214
 C231 C 0.46243 -0.03578 0.12322
 C232 C 0.46077 -0.03962 0.15773
 H233 H 0.43211 -0.06535 0.34257
 H234 H 0.53476 -0.00347 0.35414
 H235 H 0.52987 0.00538 0.41078
 H236 H 0.42713 -0.05722 0.39948
 H237 H 0.54639 -0.01884 0.18902
 H238 H 0.54960 -0.01213 0.12867
 H239 H 0.43872 -0.04047 0.10524
 H240 H 0.43594 -0.04707 0.16579
 C241 C 0.50244 -0.36816 0.03522
 C242 C 0.52119 -0.33865 0.01867
 C243 C 0.54256 -0.34158 -0.00291
 C244 C 0.54511 -0.37379 -0.00820
 C245 C 0.52624 -0.40415 0.00806
 C246 C 0.50485 -0.40057 0.03002
 C247 C 0.51812 -0.30518 0.02292
 C248 C 0.51595 -0.27667 0.02535
 C249 C 0.51373 -0.24290 0.02700
 C250 C 0.51196 -0.21380 0.02750
 C251 C 0.50982 -0.17888 0.02708
 C252 C 0.53982 -0.15370 0.03274
 C253 C 0.53779 -0.11949 0.03079
 C254 C 0.50565 -0.11004 0.02308
 C255 C 0.47563 -0.13562 0.01778
 C256 C 0.47774 -0.16978 0.01975
 H257 H 0.48592 -0.36615 0.05219
 H258 H 0.55692 -0.31886 -0.01618
 H259 H 0.56077 -0.37448 -0.02644
 H260 H 0.49072 -0.42256 0.04429
 H261 H 0.56480 -0.16045 0.03831
 H262 H 0.56136 -0.10043 0.03502
 H263 H 0.45050 -0.12923 0.01182
 H264 H 0.45437 -0.18905 0.01520
 C265 C 0.43621 0.31977 -0.01328
 C266 C 0.46440 0.30933 0.00856
 C267 C 0.48701 0.33191 0.02936
 C268 C 0.48164 0.36493 0.02806
 C269 C 0.45354 0.37577 0.00592
 C270 C 0.43079 0.35272 -0.01461
 C271 C 0.47019 0.27558 0.00919
 C272 C 0.47460 0.24725 0.00923
 C273 C 0.47921 0.21394 0.00890
 C274 C 0.48263 0.18535 0.00844
 C275 C 0.48601 0.15097 0.00787
 C276 C 0.51848 0.14265 0.01528
 C277 C 0.52153 0.10902 0.01546
 C278 C 0.49208 0.08325 0.00825
 C279 C 0.45960 0.09200 0.00047
 C280 C 0.45663 0.12560 0.00030
 H281 H 0.41859 0.30255 -0.02956
 H282 H 0.50886 0.32406 0.04644
 H283 H 0.49937 0.38192 0.04447
 H284 H 0.40922 0.36044 -0.03227
 H285 H 0.54140 0.16209 0.02117
 H286 H 0.54689 0.10314 0.02159
 H287 H 0.43642 0.07281 -0.00517
 H288 H 0.43138 0.13175 -0.00548
 C289 C -0.31360 0.02168 0.56244
 C290 C -0.30877 0.00952 0.53421
 C291 C -0.33726 -0.00343 0.51098
 C292 C -0.37049 -0.00467 0.51611
 C293 C -0.37610 0.00696 0.54485
 C294 C -0.34678 0.02047 0.56776
 C295 C -0.27464 0.00954 0.52948
 C296 C -0.24608 0.00919 0.52574
 C297 C -0.21259 0.00853 0.52171
 C298 C -0.18389 0.00794 0.51864
 C299 C -0.14940 0.00739 0.51551
 C300 C -0.13956 0.01404 0.48357
 C301 C -0.10572 0.01454 0.48075
 C302 C -0.08127 0.00842 0.50993
 C303 C -0.09159 0.00130 0.54188
 C304 C -0.12540 0.00080 0.54461
 H305 H -0.29166 0.03208 0.58047
 H306 H -0.33383 -0.01319 0.48913
 H307 H -0.39159 -0.01650 0.49821
 H308 H -0.34900 0.03119 0.58943
 H309 H -0.15793 0.01918 0.46087
 H310 H -0.09861 0.02016 0.45580
 H311 H -0.07344 -0.00350 0.56483
 H312 H -0.13273 -0.00438 0.56947
 C313 C 0.37231 0.04136 0.49645
 C314 C 0.34187 0.01937 0.48405
 C315 C 0.34334 -0.00841 0.46897
 C316 C 0.37503 -0.01424 0.46619
 C317 C 0.40582 0.00770 0.47844
 C318 C 0.40416 0.03556 0.49370
 C319 C 0.30893 0.02478 0.48687
 C320 C 0.28076 0.02808 0.48881
 C321 C 0.24724 0.03060 0.49075
 C322 C 0.21826 0.03167 0.49230
 C323 C 0.18334 0.03174 0.49416
 C324 C 0.15945 0.03625 0.46442
 C325 C 0.12505 0.03427 0.46621
 C326 C 0.11410 0.02767 0.49782
 C327 C 0.13844 0.02369 0.52758
 C328 C 0.17280 0.02568 0.52572
 H329 H 0.37144 0.06296 0.50817
 H330 H 0.31995 -0.02569 0.45945
 H331 H 0.37549 -0.03620 0.45481
 H332 H 0.42740 0.05306 0.50308
 H333 H 0.16732 0.04080 0.43985
 H334 H 0.10697 0.03746 0.44284
 H335 H 0.13087 0.01860 0.55231
 H336 H 0.19105 0.02202 0.54889
 C337 C -0.02386 0.50584 1.33306
 C338 C -0.00849 0.53167 1.30987
 C339 C 0.00724 0.56378 1.31956
 C340 C 0.00795 0.57004 1.35235
 C341 C -0.00707 0.54417 1.37649
 C342 C -0.02321 0.51192 1.36596
 C343 C -0.00850 0.52532 1.27618
 C344 C -0.00815 0.52057 1.24787
 C345 C -0.00747 0.51573 1.21454
 C346 C -0.00682 0.51226 1.18589
 C347 C -0.00613 0.50901 1.15140
 C348 C 0.00297 0.53836 1.12843
 C349 C 0.00258 0.53562 1.09462
 C350 C -0.00694 0.50340 1.08325
 C351 C -0.01556 0.47395 1.10665
 C352 C -0.01517 0.47677 1.14050
 H353 H -0.03646 0.48094 1.32570
 H354 H 0.01946 0.58394 1.30186
 H355 H 0.02187 0.59484 1.35894
 H356 H -0.03651 0.49142 1.38247
 H357 H 0.01001 0.56345 1.13657
 H358 H 0.00935 0.55880 1.07731
 H359 H -0.02306 0.44878 1.09871
 H360 H -0.02227 0.45387 1.15807
 C361 C -0.01231 0.51238 0.63671
 C362 C -0.02967 0.48361 0.65565
 C363 C -0.04244 0.45302 0.64179
 C364 C -0.03702 0.45088 0.60951
 C365 C -0.01863 0.47934 0.59070
 C366 C -0.00688 0.51031 0.60440
 C367 C -0.03242 0.48486 0.69007
 C368 C -0.03365 0.48572 0.71922
 C369 C -0.03398 0.48668 0.75362
 C370 C -0.03340 0.48763 0.78317
 C371 C -0.03175 0.48907 0.81855
 C372 C -0.03796 0.45886 0.84129
 C373 C -0.03503 0.46033 0.87587
 C374 C -0.02577 0.49211 0.88813
 C375 C -0.01988 0.52232 0.86498
 C376 C -0.02284 0.52078 0.83046
 H377 H -0.00217 0.53614 0.64727
 H378 H -0.05591 0.43059 0.65623
 H379 H -0.04678 0.42684 0.59943
 H380 H 0.00768 0.53253 0.59071
 H381 H -0.04476 0.43417 0.83234
 H382 H -0.03974 0.43662 0.89301
 H383 H -0.01275 0.54719 0.87356
 H384 H -0.01788 0.54431 0.81309
   
