data_POSCAR
  _audit_creation_date              2014-09-24
  _audit_creation_method            'ToBaCCo'
  _symmetry_space_group_name_H-M    'P1'
  _symmetry_Int_Tables_number       1
  _symmetry_cell_setting            triclinic
  loop_
  _symmetry_equiv_pos_as_xyz
 x,y,z
_cell_length_a 30.0433
_cell_length_b 27.0255
_cell_length_c 17.3242
_cell_angle_alpha 89.923800
_cell_angle_beta 89.944500
_cell_angle_gamma 90.583100
loop_
  _atom_site_label
  _atom_site_type_symbol
  _atom_site_fract_x
  _atom_site_fract_y
  _atom_site_fract_z
C1 C 0.65249 0.27703 0.57257
 C2 C 0.62969 0.27547 0.50184
 C3 C 0.65238 0.27590 0.43107
 C4 C 0.69691 0.25858 0.43086
 C5 C 0.71881 0.24892 0.50199
 C6 C 0.69674 0.25856 0.57303
 C7 C 0.71924 0.24871 0.64232
 C8 C 0.76230 0.23070 0.64247
 C9 C 0.78564 0.22255 0.57330
 C10 C 0.76359 0.23188 0.50209
 C11 C 0.71990 0.24993 0.36164
 C12 C 0.76295 0.23174 0.36166
 C13 C 0.78570 0.22246 0.43098
 C14 C 0.83041 0.20546 0.43145
 C15 C 0.85323 0.20823 0.50203
 C16 C 0.83070 0.20642 0.57309
 H17 H 0.70376 0.25416 0.69785
 H18 H 0.77708 0.22424 0.69821
 H19 H 0.70485 0.25634 0.30608
 H20 H 0.77836 0.22613 0.30611
 H21 H 0.59399 0.27673 0.50200
 H22 H 0.88900 0.20935 0.50129
 C23 C 0.17883 0.80597 0.57334
 C24 C 0.15704 0.81468 0.50301
 C25 C 0.17591 0.80460 0.43030
 C26 C 0.21978 0.78473 0.42949
 C27 C 0.24003 0.76975 0.50015
 C28 C 0.21799 0.77747 0.57155
 C29 C 0.23509 0.75512 0.63802
 C30 C 0.27688 0.73364 0.63791
 C31 C 0.30276 0.73175 0.57017
 C32 C 0.28308 0.74808 0.49981
 C33 C 0.24449 0.77992 0.36090
 C34 C 0.28592 0.75749 0.36032
 C35 C 0.30577 0.74123 0.42885
 C36 C 0.34867 0.72017 0.42889
 C37 C 0.37088 0.71777 0.49970
 C38 C 0.34760 0.71428 0.57005
 H39 H 0.21593 0.75309 0.69074
 H40 H 0.28846 0.71933 0.69234
 H41 H 0.23311 0.79440 0.30661
 H42 H 0.30296 0.75481 0.30557
 H43 H 0.12596 0.83400 0.50640
 H44 H 0.40649 0.71586 0.49806
 C45 C 0.15004 0.22653 -0.43096
 C46 C 0.12754 0.22706 -0.50189
 C47 C 0.15045 0.22463 -0.57255
 C48 C 0.19545 0.24181 -0.57305
 C49 C 0.21778 0.25092 -0.50204
 C50 C 0.19529 0.24246 -0.43087
 C51 C 0.21852 0.25075 -0.36168
 C52 C 0.26254 0.26685 -0.36180
 C53 C 0.28596 0.27429 -0.43111
 C54 C 0.26337 0.26616 -0.50217
 C55 C 0.21860 0.25056 -0.64239
 C56 C 0.26246 0.26713 -0.64252
 C57 C 0.28582 0.27501 -0.57331
 C58 C 0.33130 0.29048 -0.57298
 C59 C 0.35407 0.28692 -0.50243
 C60 C 0.33163 0.28858 -0.43151
 H61 H 0.20298 0.24551 -0.30610
 H62 H 0.27802 0.27237 -0.30630
 H63 H 0.20307 0.24529 -0.69795
 H64 H 0.27794 0.27260 -0.69816
 H65 H 0.09181 0.22652 -0.50218
 H66 H 0.38976 0.28548 -0.50283
 C67 C -0.33239 0.70570 -0.43071
 C68 C -0.35493 0.70798 -0.50159
 C69 C -0.33222 0.70557 -0.57244
 C70 C -0.28689 0.72184 -0.57264
 C71 C -0.26481 0.73146 -0.50142
 C72 C -0.28723 0.72230 -0.43030
 C73 C -0.26422 0.73117 -0.36098
 C74 C -0.22082 0.74917 -0.36089
 C75 C -0.19776 0.75828 -0.43004
 C76 C -0.21971 0.74859 -0.50124
 C77 C -0.26333 0.72994 -0.64176
 C78 C -0.21994 0.74813 -0.64157
 C79 C -0.19737 0.75824 -0.57223
 C80 C -0.15284 0.77707 -0.57165
 C81 C -0.13025 0.77609 -0.50059
 C82 C -0.15310 0.77615 -0.42997
 H83 H -0.27958 0.72532 -0.30537
 H84 H -0.20557 0.75516 -0.30530
 H85 H -0.27827 0.72342 -0.69747
 H86 H -0.20428 0.75357 -0.69705
 H87 H -0.39067 0.70928 -0.50142
 H88 H -0.09454 0.77797 -0.50023
 N89 N 0.03807 1.09567 -0.08357
 N90 N 0.05926 1.13531 -0.11086
 N91 N -0.05422 1.05128 -0.13013
 N92 N -0.07918 1.06138 -0.19027
 N93 N -0.05438 1.08840 -0.08113
 N94 N -0.07837 1.12529 -0.10885
 N95 N 0.03965 1.05940 -0.13394
 N96 N 0.06299 1.07280 -0.19478
 C97 C 0.07554 1.11981 -0.17971
 C98 C -0.09450 1.10722 -0.17631
 N99 N -0.04318 0.90838 -0.08324
 N100 N -0.06341 0.86830 -0.11088
 N101 N 0.04606 0.95445 -0.13537
 N102 N 0.07156 0.94695 -0.19571
 N103 N 0.04952 0.91789 -0.08576
 N104 N 0.07714 0.88400 -0.11280
 N105 N -0.04743 0.94554 -0.13167
 N106 N -0.07145 0.93206 -0.19158
 Mn107 Mn -0.00410 1.00266 -0.13253
 C108 C -0.08180 0.88420 -0.17784
 C109 C 0.09142 0.90349 -0.18100
 N110 N -0.05315 1.08751 0.08701
 N111 N -0.07751 1.12385 0.11535
 N112 N 0.04194 1.05799 0.13497
 N113 N 0.06583 1.07104 0.19521
 N114 N 0.03927 1.09484 0.08560
 N115 N 0.06023 1.13448 0.11315
 N116 N -0.05199 1.05030 0.13591
 N117 N -0.07658 1.05984 0.19685
 Mn118 Mn -0.00746 1.09192 0.00200
 C119 C -0.09279 1.10542 0.18328
 C120 C 0.07753 1.11845 0.18092
 N121 N 0.05063 0.91659 0.08354
 N122 N 0.07655 0.88085 0.10981
 N123 N -0.04543 0.94445 0.13457
 N124 N -0.06942 0.93102 0.19462
 N125 N -0.04192 0.90758 0.08553
 N126 N -0.06250 0.86760 0.11303
 N127 N 0.04829 0.95258 0.13438
 N128 N 0.07318 0.94275 0.19477
 Mn129 Mn 0.00390 0.91218 -0.00002
 Mn130 Mn -0.00189 1.00132 0.13477
 Cl131 Cl -0.00235 1.00198 0.00111
 C132 C 0.09130 0.89854 0.17856
 C133 C -0.08037 0.88339 0.18054
 N134 N 0.55052 0.58566 -0.08561
 N135 N 0.57439 0.62311 -0.11369
 N136 N 0.45624 0.55169 -0.13545
 N137 N 0.43201 0.56349 -0.19571
 N138 N 0.45786 0.58855 -0.08607
 N139 N 0.43562 0.62693 -0.11335
 N140 N 0.55024 0.54853 -0.13456
 N141 N 0.57500 0.55915 -0.19506
 C142 C 0.59033 0.60536 -0.18136
 C143 C 0.41874 0.61005 -0.18112
 N144 N 0.45126 0.40935 -0.08486
 N145 N 0.42695 0.37207 -0.11210
 N146 N 0.54629 0.44277 -0.13387
 N147 N 0.57013 0.43023 -0.19428
 N148 N 0.54378 0.40588 -0.08445
 N149 N 0.56475 0.36674 -0.11210
 N150 N 0.45226 0.44603 -0.13476
 N151 N 0.42766 0.43529 -0.19525
 Mn152 Mn 0.50128 0.49726 -0.13449
 C153 C 0.41158 0.38950 -0.18038
 C154 C 0.58193 0.38311 -0.18002
 N155 N 0.45766 0.58929 0.08255
 N156 N 0.43663 0.62841 0.11008
 N157 N 0.54940 0.54908 0.13270
 N158 N 0.57417 0.55968 0.19307
 N159 N 0.55014 0.58598 0.08314
 N160 N 0.57436 0.62328 0.11066
 N161 N 0.45523 0.55244 0.13203
 N162 N 0.43118 0.56495 0.19221
 Mn163 Mn 0.50406 0.58771 -0.00153
 C164 C 0.41931 0.61208 0.17790
 C165 C 0.59001 0.60564 0.17866
 N166 N 0.54337 0.40635 0.08412
 N167 N 0.56458 0.36739 0.11179
 N168 N 0.45126 0.44673 0.13279
 N169 N 0.42627 0.43632 0.19308
 N170 N 0.45082 0.40965 0.08375
 N171 N 0.42656 0.37241 0.11154
 N172 N 0.54525 0.44312 0.13368
 N173 N 0.56876 0.43057 0.19449
 Mn174 Mn 0.49729 0.40750 -0.00035
 Mn175 Mn 0.50030 0.49786 0.13267
 Cl176 Cl 0.50076 0.49757 -0.00090
 C177 C 0.58116 0.38365 0.18004
 C178 C 0.41060 0.39028 0.17914
 C179 C 0.35285 0.31502 0.36114
 C180 C 0.36400 0.28076 0.29260
 C181 C 0.38241 0.30458 0.23030
 C182 C 0.38880 0.36052 0.24230
 C183 C 0.34268 0.37978 0.26408
 C184 C 0.32417 0.35663 0.32624
 C185 C 0.39751 0.34227 0.37837
 C186 C 0.41619 0.36481 0.31654
 H187 H 0.35816 0.24106 0.29331
 H188 H 0.39204 0.28524 0.17814
 H189 H 0.32636 0.40992 0.23425
 H190 H 0.29226 0.36781 0.34957
 H191 H 0.41212 0.34832 0.43456
 H192 H 0.44672 0.38647 0.32152
 C193 C -0.13281 0.80318 0.36237
 C194 C -0.09015 0.83417 0.37959
 C195 C -0.07304 0.85821 0.31774
 C196 C -0.09997 0.85151 0.24342
 C197 C -0.10240 0.79523 0.23153
 C198 C -0.11920 0.76995 0.29388
 C199 C -0.16427 0.84211 0.32721
 C200 C -0.14737 0.86667 0.26505
 H201 H -0.07589 0.84138 0.43571
 H202 H -0.04405 0.88236 0.32269
 H203 H -0.09134 0.77677 0.17944
 H204 H -0.12221 0.72989 0.29470
 H205 H -0.19691 0.85058 0.35040
 H206 H -0.16576 0.89524 0.23509
 C207 C 0.64646 0.68126 0.36125
 C208 C 0.67513 0.63923 0.32776
 C209 C 0.65712 0.61598 0.26541
 C210 C 0.61145 0.63563 0.24183
 C211 C 0.58315 0.63206 0.31516
 C212 C 0.60123 0.65474 0.37721
 C213 C 0.63638 0.71537 0.29183
 C214 C 0.61850 0.69147 0.22923
 H215 H 0.70678 0.62798 0.35201
 H216 H 0.67358 0.58563 0.23640
 H217 H 0.55202 0.61139 0.31917
 H218 H 0.58510 0.65002 0.43239
 H219 H 0.64244 0.75504 0.29224
 H220 H 0.60959 0.71070 0.17653
 C221 C 0.13019 1.19851 0.36196
 C222 C 0.08666 1.16900 0.37911
 C223 C 0.06950 1.14486 0.31749
 C224 C 0.09722 1.15013 0.24362
 C225 C 0.10110 1.20622 0.23033
 C226 C 0.11795 1.23154 0.29238
 C227 C 0.16095 1.15828 0.32856
 C228 C 0.14400 1.13372 0.26665
 H229 H 0.07172 1.16296 0.43513
 H230 H 0.03986 1.12167 0.32229
 H231 H 0.09091 1.22455 0.17756
 H232 H 0.12188 1.27151 0.29228
 H233 H 0.19311 1.14893 0.35281
 H234 H 0.16190 1.10428 0.23792
 C235 C 0.63297 0.30322 -0.36169
 C236 C 0.66499 0.34251 -0.32720
 C237 C 0.64854 0.36711 -0.26517
 C238 C 0.60105 0.35159 -0.24305
 C239 C 0.57397 0.35789 -0.31723
 C240 C 0.59063 0.33382 -0.37895
 C241 C 0.61913 0.27004 -0.29282
 C242 C 0.60284 0.29534 -0.23062
 H243 H 0.69766 0.35117 -0.35076
 H244 H 0.66732 0.39594 -0.23569
 H245 H 0.54523 0.38176 -0.32219
 H246 H 0.57632 0.34068 -0.43507
 H247 H 0.62161 0.23000 -0.29328
 H248 H 0.59169 0.27689 -0.17829
 C249 C 0.15904 0.83149 -0.35476
 C250 C 0.18730 0.83918 -0.28067
 C251 C 0.16504 0.86187 -0.22159
 C252 C 0.11731 0.87656 -0.24241
 C253 C 0.12288 0.90791 -0.31611
 C254 C 0.14493 0.88491 -0.37355
 C255 C 0.11625 0.80518 -0.32729
 C256 C 0.09455 0.82860 -0.26916
 H257 H 0.22294 0.83383 -0.27733
 H258 H 0.18135 0.87279 -0.16830
 H259 H 0.11328 0.94638 -0.32149
 H260 H 0.15417 0.90444 -0.42611
 H261 H 0.10417 0.77054 -0.35150
 H262 H 0.06399 0.81402 -0.24406
 C263 C 0.36771 0.68875 -0.36403
 C264 C 0.37387 0.72087 -0.29086
 C265 C 0.38992 0.69584 -0.22815
 C266 C 0.39920 0.64105 -0.24428
 C267 C 0.35530 0.61963 -0.27511
 C268 C 0.33925 0.64388 -0.33777
 C269 C 0.41445 0.66568 -0.37630
 C270 C 0.43053 0.64168 -0.31394
 H271 H 0.36659 0.76011 -0.28887
 H272 H 0.39604 0.71362 -0.17300
 H273 H 0.33864 0.58739 -0.25065
 H274 H 0.30908 0.63170 -0.36690
 H275 H 0.43358 0.66452 -0.42899
 H276 H 0.46247 0.62317 -0.31519
 C277 C -0.14846 1.18239 -0.36033
 C278 C -0.10337 1.15636 -0.37518
 C279 C -0.08612 1.13370 -0.31265
 C280 C -0.11501 1.13699 -0.24003
 C281 C -0.12144 1.19277 -0.22772
 C282 C -0.13846 1.21658 -0.29084
 C283 C -0.17787 1.14007 -0.32740
 C284 C -0.16067 1.11697 -0.26459
 H285 H -0.08633 1.15261 -0.42963
 H286 H -0.05500 1.11365 -0.31562
 H287 H -0.11264 1.21206 -0.17492
 H288 H -0.14385 1.25623 -0.29162
 H289 H -0.20944 1.12855 -0.35239
 H290 H -0.17773 1.08647 -0.23589
 C291 C 0.64638 0.68118 -0.36444
 C292 C 0.67562 0.63994 -0.32987
 C293 C 0.65767 0.61663 -0.26741
 C294 C 0.61152 0.63536 -0.24488
 C295 C 0.61744 0.69139 -0.23309
 C296 C 0.63524 0.71538 -0.29579
 C297 C 0.60180 0.65354 -0.38076
 C298 C 0.58373 0.63075 -0.31861
 H299 H 0.70756 0.62920 -0.35358
 H300 H 0.67447 0.58675 -0.23773
 H301 H 0.60784 0.71067 -0.18086
 H302 H 0.64055 0.75517 -0.29677
 H303 H 0.58633 0.64809 -0.43631
 H304 H 0.55311 0.60917 -0.32283
 C305 C 0.12816 1.20008 -0.36101
 C306 C 0.11850 1.23278 -0.28991
 C307 C 0.10169 1.20743 -0.22756
 C308 C 0.09533 1.15172 -0.24226
 C309 C 0.06618 1.14899 -0.31463
 C310 C 0.08310 1.17338 -0.37638
 C311 C 0.15785 1.15815 -0.33032
 C312 C 0.14099 1.13346 -0.26838
 H313 H 0.12389 1.27254 -0.28916
 H314 H 0.09305 1.22551 -0.17378
 H315 H 0.03490 1.12855 -0.31773
 H316 H 0.06556 1.17122 -0.43059
 H317 H 0.18945 1.14814 -0.35611
 H318 H 0.15837 1.10304 -0.24116
 C319 C 0.35466 0.31357 -0.36169
 C320 C 0.40075 0.33793 -0.37750
 C321 C 0.41895 0.36097 -0.31581
 C322 C 0.38997 0.35943 -0.24308
 C323 C 0.34511 0.38036 -0.26831
 C324 C 0.32694 0.35688 -0.33020
 C325 C 0.36310 0.27996 -0.29110
 C326 C 0.38121 0.30401 -0.22881
 H327 H 0.41809 0.33966 -0.43199
 H328 H 0.45104 0.37977 -0.31927
 H329 H 0.32921 0.41153 -0.24051
 H330 H 0.29569 0.36863 -0.35536
 H331 H 0.35593 0.24052 -0.29062
 H332 H 0.38917 0.28516 -0.17532
 C333 C -0.13221 0.80329 -0.35993
 C334 C -0.16337 0.84353 -0.32814
 C335 C -0.14722 0.86845 -0.26596
 C336 C -0.10076 0.85216 -0.24087
 C337 C -0.10492 0.79610 -0.22708
 C338 C -0.12104 0.77053 -0.28954
 C339 C -0.08832 0.83230 -0.37558
 C340 C -0.07206 0.85694 -0.31366
 H341 H -0.19540 0.85229 -0.35339
 H342 H -0.16562 0.89781 -0.23801
 H343 H -0.09547 0.77799 -0.17370
 H344 H -0.12504 0.73057 -0.28931
 H345 H -0.07148 0.83618 -0.43031
 H346 H -0.04179 0.87917 -0.31704
 C347 C 0.36842 0.69279 0.35880
 C348 C 0.33447 0.65807 0.31882
 C349 C 0.35104 0.63288 0.25731
 C350 C 0.40030 0.64386 0.24090
 C351 C 0.40345 0.70042 0.23167
 C352 C 0.38702 0.72596 0.29355
 C353 C 0.40723 0.65767 0.37850
 C354 C 0.42406 0.63332 0.31734
 H355 H 0.30033 0.65302 0.33812
 H356 H 0.33099 0.60699 0.22399
 H357 H 0.41771 0.71879 0.18157
 H358 H 0.38746 0.76609 0.29611
 H359 H 0.41889 0.64866 0.43583
 H360 H 0.45070 0.60678 0.32399
 C361 C -0.14886 1.18066 0.36553
 C362 C -0.10549 1.15199 0.38322
 C363 C -0.08732 1.12933 0.32153
 C364 C -0.11400 1.13488 0.24683
 C365 C -0.16104 1.11681 0.26746
 C366 C -0.17904 1.14016 0.32950
 C367 C -0.13585 1.21502 0.29770
 C368 C -0.11803 1.19109 0.23551
 H369 H -0.09149 1.14521 0.43956
 H370 H -0.05771 1.10684 0.32691
 H371 H -0.17838 1.08735 0.23690
 H372 H -0.21160 1.12988 0.35197
 H373 H -0.14006 1.25486 0.29878
 H374 H -0.10727 1.21054 0.18381
 C375 C 0.63152 0.30297 0.36135
 C376 C 0.58745 0.33063 0.37708
 C377 C 0.57127 0.35531 0.31546
 C378 C 0.60019 0.35193 0.24289
 C379 C 0.64651 0.36933 0.26855
 C380 C 0.66264 0.34426 0.33038
 C381 C 0.62063 0.27044 0.29047
 C382 C 0.60462 0.29608 0.22829
 H383 H 0.57020 0.33338 0.43150
 H384 H 0.54078 0.37650 0.31887
 H385 H 0.66486 0.39938 0.24113
 H386 H 0.69464 0.35355 0.35586
 H387 H 0.62468 0.23059 0.28971
 H388 H 0.59532 0.27811 0.17461
 C389 C 0.15208 0.82549 0.35813
 C390 C 0.15189 0.79458 0.28282
 C391 C 0.13289 0.81803 0.22080
 C392 C 0.11452 0.86949 0.24040
 C393 C 0.08285 0.85977 0.30821
 C394 C 0.10189 0.83628 0.36869
 C395 C 0.17327 0.87548 0.33565
 C396 C 0.15394 0.89816 0.27468
 H397 H 0.16349 0.75675 0.27950
 H398 H 0.12924 0.80053 0.16480
 H399 H 0.04716 0.86559 0.30530
 H400 H 0.08096 0.82032 0.41346
 H401 H 0.20176 0.89158 0.36527
 H402 H 0.16600 0.93338 0.25231
   
