data_POSCAR
  _audit_creation_date              2014-09-24
  _audit_creation_method            'ToBaCCo'
  _symmetry_space_group_name_H-M    'P1'
  _symmetry_Int_Tables_number       1
  _symmetry_cell_setting            triclinic
  loop_
  _symmetry_equiv_pos_as_xyz
 x,y,z
_cell_length_a 41.5519
_cell_length_b 41.4396
_cell_length_c 41.5577
_cell_angle_alpha 89.988300
_cell_angle_beta 89.998100
_cell_angle_gamma 89.997800
loop_
  _atom_site_label
  _atom_site_type_symbol
  _atom_site_fract_x
  _atom_site_fract_y
  _atom_site_fract_z
C1 C 0.61123 0.65227 0.61224
 C2 C 0.63880 0.63849 0.59846
 C3 C 0.65243 0.61117 0.61204
 C4 C 0.63863 0.59729 0.63956
 C5 C 0.61137 0.61091 0.65317
 C6 C 0.59760 0.63856 0.63943
 C7 C 0.59289 0.67877 0.60423
 N8 N 0.56870 0.68127 0.62593
 C9 C 0.57121 0.65694 0.64754
 C10 C 0.60323 0.59245 0.67950
 N11 N 0.62490 0.56815 0.68197
 C12 C 0.64666 0.57075 0.65783
 C13 C 0.67886 0.60314 0.59372
 N14 N 0.68139 0.62492 0.56955
 C15 C 0.65716 0.64663 0.57208
 H16 H 0.59680 0.69502 0.58421
 H17 H 0.55505 0.65298 0.66760
 H18 H 0.58311 0.59635 0.69561
 H19 H 0.66675 0.55456 0.65390
 H20 H 0.69504 0.58304 0.59762
 H21 H 0.65324 0.66677 0.55594
 C22 C 0.88976 0.34698 0.11160
 C23 C 0.86226 0.36088 0.09778
 C24 C 0.84870 0.38823 0.11135
 C25 C 0.86249 0.40203 0.13890
 C26 C 0.88967 0.38831 0.15256
 C27 C 0.90338 0.36062 0.13884
 C28 C 0.90799 0.32039 0.10364
 N29 N 0.93211 0.31780 0.12541
 C30 C 0.92968 0.34214 0.14702
 C31 C 0.89780 0.40672 0.17891
 N32 N 0.87622 0.43109 0.18137
 C33 C 0.85453 0.42858 0.15718
 C34 C 0.82234 0.39638 0.09297
 N35 N 0.81978 0.37463 0.06879
 C36 C 0.84392 0.35282 0.07136
 H37 H 0.90403 0.30417 0.08359
 H38 H 0.94579 0.34605 0.16714
 H39 H 0.91785 0.40277 0.19508
 H40 H 0.83452 0.44485 0.15323
 H41 H 0.80623 0.41655 0.09685
 H42 H 0.84779 0.33268 0.05523
 C43 C 0.38871 0.15203 -0.11206
 C44 C 0.36118 0.13819 -0.09824
 C45 C 0.34755 0.11089 -0.11184
 C46 C 0.36131 0.09708 -0.13941
 C47 C 0.38853 0.11075 -0.15306
 C48 C 0.40229 0.13839 -0.13931
 C49 C 0.40702 0.17855 -0.10407
 N50 N 0.43115 0.18112 -0.12582
 C51 C 0.42864 0.15682 -0.14745
 C52 C 0.39662 0.09235 -0.17945
 N53 N 0.37496 0.06806 -0.18191
 C54 C 0.35325 0.07057 -0.15772
 C55 C 0.32118 0.10279 -0.09346
 N56 N 0.31869 0.12451 -0.06925
 C57 C 0.34288 0.14626 -0.07181
 H58 H 0.40312 0.19477 -0.08402
 H59 H 0.44476 0.15291 -0.16755
 H60 H 0.41670 0.09630 -0.19559
 H61 H 0.33319 0.05436 -0.15376
 H62 H 0.30502 0.08266 -0.09735
 H63 H 0.34681 0.16637 -0.05565
 C64 C 0.11041 0.84783 0.38800
 C65 C 0.13793 0.86169 0.40179
 C66 C 0.15152 0.88901 0.38817
 C67 C 0.13773 0.90281 0.36061
 C68 C 0.11052 0.88911 0.34699
 C69 C 0.09679 0.86145 0.36075
 C70 C 0.09213 0.82129 0.39605
 N71 N 0.06798 0.81872 0.37431
 C72 C 0.07044 0.84301 0.35263
 C73 C 0.10237 0.90751 0.32061
 N74 N 0.12400 0.93184 0.31813
 C75 C 0.14573 0.92933 0.34229
 C76 C 0.17790 0.89713 0.40653
 N77 N 0.18043 0.87541 0.43075
 C78 C 0.15625 0.85364 0.42821
 H79 H 0.09607 0.80509 0.41612
 H80 H 0.05431 0.84692 0.33253
 H81 H 0.08229 0.90353 0.30447
 H82 H 0.16578 0.94557 0.34622
 H83 H 0.19404 0.91727 0.40261
 H84 H 0.15235 0.83352 0.44438
 N85 N 0.08624 0.17611 0.11193
 N86 N 0.07367 0.16296 0.13787
 C87 C 0.04766 0.18018 0.14687
 C88 C 0.04395 0.20524 0.12539
 C89 C 0.06869 0.20210 0.10354
 H90 H 0.03253 0.17496 0.16740
 H91 H 0.07351 0.21752 0.08310
 Cu92 Cu 0.09255 0.12462 0.15715
 Cu93 Cu 0.12438 0.15861 0.09096
 Cu94 Cu 0.15833 0.09014 0.12502
 N95 N 0.11178 0.08626 0.17609
 N96 N 0.13750 0.07286 0.16333
 C97 C 0.14581 0.04685 0.18090
 C98 C 0.12415 0.04397 0.20583
 C99 C 0.10287 0.06922 0.20224
 H100 H 0.16606 0.03122 0.17594
 H101 H 0.08252 0.07466 0.21753
 N102 N 0.17588 0.11123 0.08629
 N103 N 0.16296 0.13732 0.07334
 C104 C 0.18041 0.14596 0.04739
 C105 C 0.20528 0.12427 0.04403
 C106 C 0.20187 0.10259 0.06890
 H107 H 0.17547 0.16646 0.03207
 H108 H 0.21723 0.08213 0.07391
 H109 H 0.11768 0.11149 0.10578
 H110 H 0.14381 0.13743 0.13161
 N111 N 0.41312 0.82403 0.61188
 N112 N 0.42564 0.83717 0.63785
 C113 C 0.45150 0.81982 0.64704
 C114 C 0.45522 0.79474 0.62559
 C115 C 0.43062 0.79798 0.60360
 H116 H 0.46646 0.82489 0.66772
 H117 H 0.42579 0.78252 0.58320
 Cu118 Cu 0.40642 0.87537 0.65706
 Cu119 Cu 0.37486 0.84139 0.59091
 Cu120 Cu 0.34023 0.90930 0.62548
 N121 N 0.38721 0.91360 0.67621
 N122 N 0.36114 0.92663 0.66377
 C123 C 0.35265 0.95250 0.68143
 C124 C 0.37453 0.95567 0.70613
 C125 C 0.39614 0.93073 0.70230
 H126 H 0.33217 0.96787 0.67666
 H127 H 0.41671 0.92556 0.71739
 N128 N 0.32281 0.88824 0.58666
 N129 N 0.33613 0.86252 0.57337
 C130 C 0.31888 0.85405 0.54724
 C131 C 0.29371 0.87543 0.54414
 C132 C 0.29675 0.89677 0.56934
 H133 H 0.32415 0.83387 0.53161
 H134 H 0.28113 0.91697 0.57458
 H135 H 0.38090 0.88852 0.60592
 H136 H 0.35525 0.86210 0.63170
 N137 N 0.91407 0.67684 0.38846
 N138 N 0.92663 0.66371 0.36250
 C139 C 0.95243 0.68113 0.35329
 C140 C 0.95609 0.70623 0.37473
 C141 C 0.93149 0.70296 0.39671
 H142 H 0.96738 0.67607 0.33261
 H143 H 0.92664 0.71842 0.41710
 Cu144 Cu 0.90752 0.62542 0.34336
 Cu145 Cu 0.87587 0.65941 0.40948
 Cu146 Cu 0.84145 0.59136 0.37500
 N147 N 0.88840 0.58714 0.32422
 N148 N 0.86239 0.57404 0.33671
 C149 C 0.85395 0.54813 0.31909
 C150 C 0.87583 0.54498 0.29439
 C151 C 0.89735 0.57001 0.29815
 H152 H 0.83353 0.53268 0.32389
 H153 H 0.91788 0.57524 0.28304
 N154 N 0.82398 0.61240 0.41380
 N155 N 0.83720 0.63819 0.42705
 C156 C 0.81992 0.64666 0.45316
 C157 C 0.79482 0.62520 0.45630
 C158 C 0.79793 0.60382 0.43113
 H159 H 0.82511 0.66689 0.46874
 H160 H 0.78236 0.58358 0.42592
 H161 H 0.88207 0.61233 0.39455
 H162 H 0.85633 0.63862 0.36875
 N163 N 0.58719 0.32344 -0.11237
 N164 N 0.57451 0.33676 -0.13818
 C165 C 0.54840 0.31967 -0.14712
 C166 C 0.54475 0.29449 -0.12577
 C167 C 0.56961 0.29745 -0.10403
 H168 H 0.53317 0.32505 -0.16753
 H169 H 0.57449 0.28190 -0.08370
 Cu170 Cu 0.59340 0.37515 -0.15738
 Cu171 Cu 0.62541 0.34081 -0.09146
 Cu172 Cu 0.65932 0.40941 -0.12528
 N173 N 0.61266 0.41353 -0.17622
 N174 N 0.63842 0.42686 -0.16348
 C175 C 0.64677 0.45289 -0.18100
 C176 C 0.62508 0.45586 -0.20590
 C177 C 0.60373 0.43067 -0.20231
 H178 H 0.66707 0.46844 -0.17606
 H179 H 0.58335 0.42529 -0.21758
 N180 N 0.67692 0.38816 -0.08667
 N181 N 0.66406 0.36198 -0.07384
 C182 C 0.68153 0.35325 -0.04793
 C183 C 0.70638 0.37496 -0.04449
 C184 C 0.70291 0.39676 -0.06925
 H185 H 0.67663 0.33268 -0.03269
 H186 H 0.71822 0.41728 -0.07416
 H187 H 0.61869 0.38802 -0.10601
 H188 H 0.64474 0.36221 -0.13204
 C189 C -0.04548 0.29502 0.12558
 C190 C -0.02508 0.27433 0.12571
 C191 C -0.00113 0.25018 0.12576
 C192 C 0.01940 0.22964 0.12567
 C193 C 0.54487 0.70519 0.62601
 C194 C 0.52435 0.72575 0.62608
 C195 C 0.50029 0.74979 0.62607
 C196 C 0.47973 0.77030 0.62594
 C197 C 1.04549 0.79602 0.37425
 C198 C 1.02503 0.77540 0.37420
 C199 C 1.00104 0.75129 0.37420
 C200 C 0.98053 0.73072 0.37435
 C201 C 0.45493 0.20511 -0.12596
 C202 C 0.47541 0.22571 -0.12607
 C203 C 0.49947 0.24975 -0.12610
 C204 C 0.52009 0.27020 -0.12602
 C205 C 0.12388 -0.04546 0.29563
 C206 C 0.12379 -0.02484 0.27515
 C207 C 0.12378 -0.00079 0.25110
 C208 C 0.12388 0.01967 0.23048
 C209 C 0.62480 0.54543 -0.29556
 C210 C 0.62473 0.52479 -0.27510
 C211 C 0.62472 0.50071 -0.25108
 C212 C 0.62482 0.48021 -0.23050
 C213 C 0.37501 1.04538 0.79559
 C214 C 0.37503 1.02475 0.77513
 C215 C 0.37497 1.00063 0.75117
 C216 C 0.37482 0.98008 0.73066
 C217 C 0.87634 0.45509 0.20511
 C218 C 0.87639 0.47576 0.22552
 C219 C 0.87633 0.49995 0.24942
 C220 C 0.87617 0.52054 0.26989
 C221 C 0.29488 0.12448 -0.04536
 C222 C 0.27438 0.12445 -0.02482
 C223 C 0.25035 0.12439 -0.00081
 C224 C 0.22980 0.12433 0.01966
 C225 C 0.70526 0.62499 0.54572
 C226 C 0.72579 0.62506 0.52522
 C227 C 0.74983 0.62513 0.50122
 C228 C 0.77036 0.62517 0.48073
 C229 C 0.79595 0.37468 0.04492
 C230 C 0.77545 0.37473 0.02440
 C231 C 0.75141 0.37480 0.00039
 C232 C 0.73087 0.37487 -0.02009
 C233 C 0.20426 0.87542 0.45461
 C234 C 0.22476 0.87544 0.47514
 C235 C 0.24877 0.87543 0.49917
 C236 C 0.26928 0.87544 0.51968
   
