data_POSCAR
  _audit_creation_date              2014-09-24
  _audit_creation_method            'ToBaCCo'
  _symmetry_space_group_name_H-M    'P1'
  _symmetry_Int_Tables_number       1
  _symmetry_cell_setting            triclinic
  loop_
  _symmetry_equiv_pos_as_xyz
 x,y,z
_cell_length_a 40.1208
_cell_length_b 40.1267
_cell_length_c 40.0384
_cell_angle_alpha 89.895000
_cell_angle_beta 89.900300
_cell_angle_gamma 89.901000
loop_
  _atom_site_label
  _atom_site_type_symbol
  _atom_site_fract_x
  _atom_site_fract_y
  _atom_site_fract_z
C1 C 0.16597 0.16737 0.20689
 C2 C 0.15173 0.19561 0.19193
 C3 C 0.16603 0.20927 0.16306
 C4 C 0.19460 0.19474 0.14913
 C5 C 0.20890 0.16651 0.16402
 C6 C 0.19457 0.15283 0.19293
 H7 H 0.12952 0.20686 0.20258
 H8 H 0.20554 0.20533 0.12669
 H9 H 0.20555 0.13089 0.20441
 C10 C -0.16318 0.83414 0.21225
 C11 C -0.14928 0.80557 0.19766
 C12 C -0.16418 0.79134 0.16947
 C13 C -0.19300 0.80566 0.15586
 C14 C -0.20693 0.83421 0.17041
 C15 C -0.19203 0.84844 0.19860
 H16 H -0.12688 0.79450 0.20806
 H17 H -0.20444 0.79473 0.13395
 H18 H -0.20280 0.87063 0.20972
 C19 C -0.16759 0.16471 -0.21008
 C20 C -0.19581 0.14986 -0.19573
 C21 C -0.21047 0.16383 -0.16722
 C22 C -0.19694 0.19268 -0.15305
 C23 C -0.16875 0.20757 -0.16734
 C24 C -0.15408 0.19359 -0.19586
 H25 H -0.20627 0.12743 -0.20657
 H26 H -0.20821 0.20342 -0.13089
 H27 H -0.13216 0.20508 -0.20680
 C28 C 0.16714 0.83539 -0.20955
 C29 C 0.15199 0.80688 -0.19612
 C30 C 0.16533 0.79165 -0.16759
 C31 C 0.19385 0.80490 -0.15249
 C32 C 0.20902 0.83338 -0.16587
 C33 C 0.19568 0.84861 -0.19440
 H34 H 0.12983 0.79663 -0.20768
 H35 H 0.20410 0.79319 -0.13033
 H36 H 0.20741 0.87075 -0.20464
 C37 C 0.16841 1.16586 0.79126
 C38 C 0.15385 1.19445 0.80520
 C39 C 0.16744 1.20867 0.83405
 C40 C 0.19560 1.19436 0.84897
 C41 C 0.21018 1.16581 0.83509
 C42 C 0.19660 1.15157 0.80624
 H43 H 0.13195 1.20551 0.79378
 H44 H 0.20603 1.20529 0.87138
 H45 H 0.20787 1.12938 0.79562
 C46 C 0.83529 0.83670 0.78954
 C47 C 0.80669 0.85057 0.80415
 C48 C 0.79237 0.83561 0.83235
 C49 C 0.80661 0.80674 0.84597
 C50 C 0.83522 0.79280 0.83142
 C51 C 0.84954 0.80780 0.80318
 H52 H 0.79566 0.87301 0.79374
 H53 H 0.79553 0.79529 0.86790
 H54 H 0.87176 0.79710 0.79196
 C55 C 0.16401 0.83163 1.20987
 C56 C 0.19287 0.84520 1.19552
 C57 C 0.20686 0.83061 1.16697
 C58 C 0.19201 0.80244 1.15277
 C59 C 0.16317 0.78885 1.16707
 C60 C 0.14918 0.80343 1.19562
 H61 H 0.20435 0.86711 1.20638
 H62 H 0.20275 0.79123 1.13059
 H63 H 0.12676 0.79293 1.20655
 C64 C 0.83476 1.16640 1.20964
 C65 C 0.80620 1.15133 1.19636
 C66 C 0.79096 1.16477 1.16790
 C67 C 0.80423 1.19331 1.15271
 C68 C 0.83274 1.20840 1.16595
 C69 C 0.84800 1.19496 1.19441
 H70 H 0.79595 1.12914 1.20798
 H71 H 0.79251 1.20363 1.13060
 H72 H 0.87017 1.20662 1.20452
 O73 O 0.45274 1.05822 1.06076
 O74 O 0.41637 1.02594 1.03064
 C75 C 0.42297 1.04919 1.05199
 O76 O 0.54675 1.05497 0.94168
 O77 O 0.58332 1.02488 0.97398
 C78 C 0.57657 1.04625 0.95068
 O79 O 0.45301 1.05792 0.94475
 O80 O 0.41648 1.02590 0.97521
 C81 C 0.42320 1.04898 0.95360
 O82 O 0.54646 1.05526 1.06395
 O83 O 0.58317 1.02499 1.03194
 C84 C 0.57633 1.04649 1.05504
 Zr85 Zr 0.49971 1.03944 1.04507
 O86 O 0.50332 1.09207 1.04459
 O87 O 0.49582 1.03951 1.09781
 Zr88 Zr 0.49991 1.03926 0.96062
 O89 O 0.50351 1.09189 0.96073
 O90 O 0.49627 1.03916 0.90788
 O91 O 0.47006 1.04578 1.00281
 O92 O 0.52874 1.04545 1.00284
 O93 O 0.54684 0.93946 1.06442
 O94 O 0.58335 0.96969 1.03215
 C95 C 0.57665 0.94829 1.05544
 O96 O 0.45347 0.93615 0.94488
 O97 O 0.41678 0.96855 0.97470
 C98 C 0.42362 0.94529 0.95338
 O99 O 0.54715 0.93930 0.94207
 O100 O 0.58351 0.96960 0.97419
 C101 C 0.57691 0.94816 0.95101
 O102 O 0.45310 0.93616 1.06122
 O103 O 0.41654 0.96810 1.03072
 C104 C 0.42328 0.94502 1.05232
 Zr105 Zr 0.49996 0.95504 1.04543
 O106 O 0.50391 0.90243 1.04545
 O107 O 0.49605 0.95526 1.09817
 Zr108 Zr 0.50019 0.95488 0.96094
 O109 O 0.50410 0.90225 0.96168
 O110 O 0.49665 0.95461 0.90819
 Zr111 Zr 0.45041 0.99706 1.00301
 Zr112 Zr 0.54944 0.99723 1.00305
 O113 O 0.52904 0.94894 1.00323
 O114 O 0.47035 0.94840 1.00318
 O115 O 0.52949 0.99730 1.05181
 O116 O 0.47118 0.99703 0.95468
 O117 O 0.47090 0.99721 1.05135
 O118 O 0.52974 0.99710 0.95426
 H119 H 0.54382 1.06498 1.00277
 H120 H 0.45621 0.99706 0.93503
 H121 H 0.54426 0.92947 1.00330
 H122 H 0.45572 0.99722 1.07090
 H123 H 0.51488 1.02550 0.89918
 H124 H 0.51492 0.96865 0.89941
 H125 H 0.48497 0.89359 0.97465
 H126 H 0.48538 0.89367 1.03180
 H127 H 0.51458 0.96893 1.10687
 H128 H 0.51437 1.02584 1.10662
 H129 H 0.48456 1.10072 1.03111
 H130 H 0.48463 1.10059 0.97404
 O131 O 0.05794 0.45330 -0.06115
 O132 O 0.02565 0.41670 -0.03108
 C133 C 0.04891 0.42347 -0.05248
 O134 O 0.05462 0.54639 0.05830
 O135 O 0.02451 0.58319 0.02623
 C136 C 0.04589 0.57627 0.04944
 O137 O 0.05760 0.45268 0.05483
 O138 O 0.02559 0.41638 0.02433
 C139 C 0.04868 0.42294 0.04589
 O140 O 0.05498 0.54702 -0.06395
 O141 O 0.02467 0.58347 -0.03172
 C142 C 0.04620 0.57681 -0.05489
 Zr143 Zr 0.03914 0.50013 -0.04522
 O144 O 0.09177 0.50375 -0.04492
 O145 O 0.03921 0.49664 -0.09798
 Zr146 Zr 0.03890 0.49969 0.03923
 O147 O 0.09155 0.50331 0.03903
 O148 O 0.03874 0.49565 0.09196
 O149 O 0.04546 0.47018 -0.00310
 O150 O 0.04512 0.52884 -0.00290
 O151 O -0.06083 0.54738 -0.06411
 O152 O -0.03064 0.58365 -0.03177
 C153 C -0.05201 0.57712 -0.05504
 O154 O -0.06421 0.45313 0.05510
 O155 O -0.03178 0.41666 0.02503
 C156 C -0.05505 0.42334 0.04646
 O157 O -0.06105 0.54677 0.05830
 O158 O -0.03075 0.58337 0.02621
 C159 C -0.05218 0.57659 0.04945
 O160 O -0.06411 0.45362 -0.06128
 O161 O -0.03219 0.41685 -0.03100
 C162 C -0.05525 0.42374 -0.05252
 Zr163 Zr -0.04528 0.50036 -0.04533
 O164 O -0.09790 0.50431 -0.04509
 O165 O -0.04511 0.49687 -0.09808
 Zr166 Zr -0.04548 0.49996 0.03916
 O167 O -0.09812 0.50387 0.03855
 O168 O -0.04583 0.49602 0.09189
 Zr169 Zr -0.00326 0.45051 -0.00323
 Zr170 Zr -0.00312 0.54953 -0.00288
 O171 O -0.05140 0.52913 -0.00299
 O172 O -0.05194 0.47043 -0.00317
 O173 O -0.00302 0.52995 -0.05172
 O174 O -0.00332 0.47091 0.04518
 O175 O -0.00309 0.47137 -0.05149
 O176 O -0.00326 0.52946 0.04583
 H177 H 0.06465 0.54391 -0.00282
 H178 H -0.00330 0.45579 0.06477
 H179 H -0.07087 0.54436 -0.00294
 H180 H -0.00307 0.45634 -0.07110
 H181 H 0.02514 0.51425 0.10078
 H182 H -0.03171 0.51415 0.10071
 H183 H -0.10678 0.48480 0.02559
 H184 H -0.10665 0.48559 -0.03159
 H185 H -0.03131 0.51537 -0.10675
 H186 H 0.02560 0.51530 -0.10667
 H187 H 0.10043 0.48491 -0.03152
 H188 H 0.10026 0.48460 0.02553
 O189 O 1.06420 -0.05503 0.54697
 O190 O 1.03167 -0.02514 0.58351
 C191 C 1.05501 -0.04644 0.57682
 O192 O 1.06068 0.06379 0.45254
 O193 O 1.03060 0.03145 0.41616
 C194 C 1.05195 0.05468 0.42273
 O195 O 1.06387 0.06101 0.54649
 O196 O 1.03198 0.03075 0.58334
 C197 C 1.05503 0.05224 0.57644
 O198 O 1.06106 -0.05827 0.45314
 O199 O 1.03066 -0.02638 0.41642
 C200 C 1.05216 -0.04949 0.42323
 Zr201 Zr 1.04542 -0.03921 0.50004
 O202 O 1.09806 -0.03858 0.49613
 O203 O 1.04581 -0.09182 0.50402
 Zr204 Zr 1.04497 0.04517 0.49966
 O205 O 1.09760 0.04544 0.49580
 O206 O 1.04430 0.09781 0.50316
 O207 O 1.05177 0.00308 0.52961
 O208 O 1.05128 0.00289 0.47085
 O209 O 0.94517 -0.05841 0.45356
 O210 O 0.97480 -0.02599 0.41669
 C211 C 0.95363 -0.04932 0.42361
 O212 O 0.94177 0.06065 0.54677
 O213 O 0.97412 0.03073 0.58348
 C214 C 0.95080 0.05202 0.57668
 O215 O 0.94482 0.06343 0.45280
 O216 O 0.97528 0.03139 0.41627
 C217 C 0.95366 0.05444 0.42295
 O218 O 0.94238 -0.05505 0.54741
 O219 O 0.97431 -0.02455 0.58380
 C220 C 0.95129 -0.04612 0.57722
 Zr221 Zr 0.96106 -0.03944 0.50030
 O222 O 0.90841 -0.03946 0.49672
 O223 O 0.96150 -0.09206 0.50432
 Zr224 Zr 0.96066 0.04484 0.49984
 O225 O 0.90802 0.04454 0.49621
 O226 O 0.96056 0.09748 0.50332
 Zr227 Zr 1.00310 0.00301 0.54959
 Zr228 Zr 1.00303 0.00263 0.45033
 O229 O 0.95479 0.00259 0.47111
 O230 O 0.95439 0.00278 0.52986
 O231 O 1.00323 -0.04597 0.47043
 O232 O 1.00281 0.05119 0.52873
 O233 O 1.00328 -0.04529 0.52915
 O234 O 1.00277 0.05139 0.46994
 H235 H 1.07078 0.00286 0.45563
 H236 H 1.00274 0.07073 0.54381
 H237 H 0.93519 0.00256 0.45609
 H238 H 1.00330 -0.06483 0.54431
 H239 H 1.03106 0.10638 0.48417
 H240 H 0.97407 0.10616 0.48455
 H241 H 0.89938 0.03099 0.51497
 H242 H 0.89966 -0.02591 0.51540
 H243 H 0.97485 -0.10081 0.48547
 H244 H 1.03174 -0.10064 0.48582
 H245 H 1.10669 -0.02554 0.51518
 H246 H 1.10639 0.03143 0.51413
 C247 C 1.07748 0.12235 0.31679
 C248 C 1.10743 0.14669 0.31744
 C249 C 1.12366 0.12691 0.28887
 C250 C 1.09396 0.10282 0.28777
 C251 C 1.09578 0.09980 0.34183
 C252 C 1.11201 0.08004 0.31325
 C253 C 1.12548 0.12389 0.34296
 C254 C 1.14195 0.10436 0.31392
 C255 C 1.13914 0.14179 0.25924
 C256 C 1.15179 0.15386 0.23472
 C257 C 1.08023 0.08431 0.37110
 C258 C 1.06736 0.07109 0.39488
 H259 H 1.05080 0.12958 0.31830
 H260 H 1.10572 0.17427 0.31882
 H261 H 1.08117 0.09432 0.26475
 H262 H 1.11373 0.05246 0.31186
 H263 H 1.13826 0.13238 0.36598
 H264 H 1.16862 0.09712 0.31241
 C265 C 0.88052 -0.07982 0.32384
 C266 C 0.89860 -0.08993 0.29117
 C267 C 0.88055 -0.12365 0.29223
 C268 C 0.86223 -0.11378 0.32447
 C269 C 0.90912 -0.09544 0.34402
 C270 C 0.89108 -0.12916 0.34509
 C271 C 0.92744 -0.10531 0.31178
 C272 C 0.90915 -0.13928 0.31240
 C273 C 0.86462 -0.13917 0.26330
 C274 C 0.85154 -0.15177 0.23938
 C275 C 0.92500 -0.07943 0.37270
 C276 C 0.93806 -0.06590 0.39608
 H277 H 0.86893 -0.05519 0.32887
 H278 H 0.90151 -0.07396 0.26869
 H279 H 0.83524 -0.11744 0.32935
 H280 H 0.88817 -0.14511 0.36759
 H281 H 0.95443 -0.10164 0.30691
 H282 H 0.92074 -0.16391 0.30735
 C283 C 0.89377 0.13240 0.65882
 C284 C 0.85996 0.12154 0.67409
 C285 C 0.87560 0.12317 0.70905
 C286 C 0.90915 0.13427 0.69423
 C287 C 0.90421 0.09561 0.65677
 C288 C 0.91983 0.09725 0.69174
 C289 C 0.87066 0.08450 0.67159
 C290 C 0.88605 0.08637 0.70700
 C291 C 0.85981 0.13842 0.73829
 C292 C 0.84691 0.15084 0.76247
 C293 C 0.92041 0.08018 0.62786
 C294 C 0.93407 0.06739 0.60432
 H295 H 0.89712 0.15115 0.63867
 H296 H 0.83516 0.13171 0.66717
 H297 H 0.92480 0.15490 0.70387
 H298 H 0.94463 0.08708 0.69867
 H299 H 0.85503 0.06385 0.66195
 H300 H 0.88271 0.06761 0.72714
 C301 C 1.08758 -0.08706 0.69316
 C302 C 1.09093 -0.12518 0.69832
 C303 C 1.12718 -0.12011 0.70949
 C304 C 1.12406 -0.08223 0.70477
 C305 C 1.10009 -0.09123 0.65711
 C306 C 1.13634 -0.08615 0.66826
 C307 C 1.10320 -0.12911 0.66184
 C308 C 1.13970 -0.12430 0.67345
 C309 C 1.14198 -0.13626 0.73877
 C310 C 1.15390 -0.14957 0.76298
 C311 C 1.08459 -0.07521 0.62813
 C312 C 1.07137 -0.06206 0.60454
 H313 H 1.06598 -0.07157 0.70093
 H314 H 1.07242 -0.14140 0.71101
 H315 H 1.13280 -0.06313 0.72274
 H316 H 1.15483 -0.06991 0.65556
 H317 H 1.09445 -0.14821 0.64386
 H318 H 1.16130 -0.13979 0.66568
 C319 C 0.34193 1.13116 1.10910
 C320 C 0.30806 1.13695 1.09144
 C321 C 0.29008 1.12377 1.12269
 C322 C 0.32348 1.11823 1.14059
 C323 C 0.34258 1.09545 1.09532
 C324 C 0.32459 1.08229 1.12656
 C325 C 0.30918 1.10100 1.07743
 C326 C 0.29075 1.08807 1.10890
 C327 C 0.26072 1.13940 1.13785
 C328 C 0.23645 1.15216 1.15020
 C329 C 0.37162 1.07940 1.08000
 C330 C 0.39525 1.06583 1.06729
 H331 H 0.36330 1.14869 1.10900
 H332 H 0.30092 1.15959 1.07717
 H333 H 0.32903 1.12549 1.16673
 H334 H 0.33172 1.05963 1.14083
 H335 H 0.30363 1.09374 1.05128
 H336 H 0.26939 1.07053 1.10899
 C337 C 0.34078 0.86350 0.89902
 C338 C 0.30499 0.86317 0.91365
 C339 C 0.29143 0.87371 0.87935
 C340 C 0.32675 0.87379 0.86446
 C341 C 0.34368 0.90051 0.90830
 C342 C 0.33012 0.91103 0.87400
 C343 C 0.30836 0.90042 0.92319
 C344 C 0.29436 0.91071 0.88864
 C345 C 0.26220 0.85906 0.86320
 C346 C 0.23803 0.84725 0.84992
 C347 C 0.37257 0.91586 0.92440
 C348 C 0.39606 0.92900 0.93763
 H349 H 0.36020 0.84427 0.90348
 H350 H 0.29432 0.84333 0.92977
 H351 H 0.33398 0.86268 0.84012
 H352 H 0.34078 0.93088 0.85788
 H353 H 0.30113 0.91152 0.94752
 H354 H 0.27497 0.92997 0.88420
 C355 C 0.68782 0.89260 1.08187
 C356 C 0.71050 0.90941 1.10815
 C357 C 0.70982 0.87715 1.12886
 C358 C 0.68758 0.86011 1.10280
 C359 C 0.65709 0.90478 1.10131
 C360 C 0.65639 0.87252 1.12201
 C361 C 0.67933 0.92183 1.12736
 C362 C 0.67910 0.88932 1.14832
 C363 C 0.73934 0.86178 1.14393
 C364 C 0.76376 0.84918 1.15610
 C365 C 0.62796 0.92021 1.08555
 C366 C 0.60432 0.93297 1.07210
 H367 H 0.69108 0.89413 1.05437
 H368 H 0.73307 0.92442 1.10261
 H369 H 0.69131 0.83456 1.09286
 H370 H 0.63381 0.85752 1.12753
 H371 H 0.67560 0.94739 1.13728
 H372 H 0.67585 0.88780 1.17582
 C373 C 0.69243 1.08645 0.91618
 C374 C 0.70340 1.08141 0.87941
 C375 C 0.70803 1.11927 0.87602
 C376 C 0.69749 1.12454 0.91254
 C377 C 0.65625 1.09065 0.90435
 C378 C 0.66088 1.12851 0.90096
 C379 C 0.66677 1.08537 0.86783
 C380 C 0.67186 1.12349 0.86418
 C381 C 0.73696 1.13522 0.86043
 C382 C 0.76086 1.14830 0.84776
 C383 C 0.62757 1.07476 0.92043
 C384 C 0.60416 1.06173 0.93402
 H385 H 0.70056 1.07103 0.93774
 H386 H 0.72121 1.06223 0.87039
 H387 H 0.71045 1.14081 0.93075
 H388 H 0.64307 1.14769 0.90999
 H389 H 0.65381 1.06909 0.84964
 H390 H 0.66373 1.13891 0.84263
 C391 C 0.09863 0.33834 0.12796
 C392 C 0.08671 0.30182 0.12437
 C393 C 0.12300 0.29098 0.11853
 C394 C 0.13516 0.32705 0.12236
 C395 C 0.09477 0.34293 0.09006
 C396 C 0.13105 0.33210 0.08420
 C397 C 0.08261 0.30685 0.08623
 C398 C 0.11913 0.29556 0.08063
 C399 C 0.13852 0.26196 0.13442
 C400 C 0.15113 0.23800 0.14749
 C401 C 0.07875 0.37172 0.07425
 C402 C 0.06523 0.39523 0.06129
 H403 H 0.09002 0.35625 0.14724
 H404 H 0.06865 0.28905 0.14105
 H405 H 0.15695 0.33501 0.13740
 H406 H 0.14909 0.34488 0.06750
 H407 H 0.06082 0.29888 0.07120
 H408 H 0.12773 0.27765 0.06134
 C409 C -0.08243 0.31028 -0.10233
 C410 C -0.11343 0.29161 -0.08885
 C411 C -0.12770 0.29086 -0.12443
 C412 C -0.09693 0.30909 -0.13813
 C413 C -0.10057 0.34354 -0.09659
 C414 C -0.11484 0.34281 -0.13216
 C415 C -0.13134 0.32531 -0.08287
 C416 C -0.14586 0.32411 -0.11869
 C417 C -0.14256 0.26134 -0.13986
 C418 C -0.15458 0.23691 -0.15245
 C419 C -0.08504 0.37262 -0.08101
 C420 C -0.07175 0.39619 -0.06808
 H421 H -0.05617 0.30492 -0.09542
 H422 H -0.11300 0.27023 -0.07122
 H423 H -0.08293 0.30210 -0.16101
 H424 H -0.11525 0.36419 -0.14978
 H425 H -0.14531 0.33231 -0.05997
 H426 H -0.17212 0.32945 -0.12559
 C427 C 0.07275 0.68400 -0.12000
 C428 C 0.09219 0.71102 -0.10053
 C429 C 0.12004 0.70928 -0.12686
 C430 C 0.10085 0.68271 -0.14658
 C431 C 0.09107 0.65698 -0.09989
 C432 C 0.11891 0.65522 -0.12622
 C433 C 0.11026 0.68356 -0.08019
 C434 C 0.13835 0.68226 -0.10674
 C435 C 0.13621 0.73851 -0.14162
 C436 C 0.14951 0.76267 -0.15355
 C437 C 0.07501 0.62804 -0.08445
 C438 C 0.06184 0.60448 -0.07126
 H439 H 0.04560 0.68438 -0.12527
 H440 H 0.08139 0.73428 -0.09012
 H441 H 0.09716 0.68270 -0.17405
 H442 H 0.12971 0.63195 -0.13661
 H443 H 0.11395 0.68359 -0.05271
 H444 H 0.16550 0.68187 -0.10145
 C445 C -0.13269 0.66439 0.09656
 C446 C -0.13057 0.67255 0.13431
 C447 C -0.12229 0.70887 0.12541
 C448 C -0.12465 0.70116 0.08792
 C449 C -0.09519 0.65660 0.09653
 C450 C -0.08692 0.69292 0.08764
 C451 C -0.09281 0.66430 0.13402
 C452 C -0.08478 0.70108 0.12537
 C453 C -0.13733 0.73812 0.14130
 C454 C -0.14962 0.76231 0.15422
 C455 C -0.08000 0.62769 0.08016
 C456 C -0.06739 0.60418 0.06634
 H457 H -0.15221 0.64897 0.08453
 H458 H -0.14869 0.66452 0.15368
 H459 H -0.13790 0.71664 0.06914
 H460 H -0.06880 0.70097 0.06827
 H461 H -0.07955 0.64881 0.15278
 H462 H -0.06525 0.71649 0.13739
 C463 C 1.13217 0.11761 0.65583
 C464 C 1.11480 0.14315 0.67909
 C465 C 1.12788 0.12378 0.70951
 C466 C 1.14549 0.09848 0.68673
 C467 C 1.10056 0.09607 0.65676
 C468 C 1.11364 0.07670 0.68719
 C469 C 1.08296 0.12137 0.67956
 C470 C 1.09627 0.10224 0.71041
 C471 C 1.14283 0.13916 0.73904
 C472 C 1.15492 0.15175 0.76349
 C473 C 1.08494 0.08057 0.62765
 C474 C 1.07158 0.06771 0.60404
 H475 H 1.14676 0.12375 0.63306
 H476 H 1.11544 0.17066 0.67610
 H477 H 1.17138 0.08923 0.69003
 H478 H 1.11299 0.04920 0.69018
 H479 H 1.05707 0.13061 0.67628
 H480 H 1.08166 0.09608 0.73317
 C481 C 0.90132 -0.07410 0.69174
 C482 C 0.86494 -0.08693 0.69310
 C483 C 0.87745 -0.11932 0.70935
 C484 C 0.91358 -0.10674 0.70845
 C485 C 0.90549 -0.09057 0.65737
 C486 C 0.91799 -0.12295 0.67364
 C487 C 0.86935 -0.10314 0.65826
 C488 C 0.88162 -0.13579 0.67498
 C489 C 0.86200 -0.13535 0.73838
 C490 C 0.84942 -0.14851 0.76236
 C491 C 0.92139 -0.07462 0.62854
 C492 C 0.93482 -0.06158 0.60499
 H493 H 0.90959 -0.04856 0.69830
 H494 H 0.84295 -0.07230 0.70144
 H495 H 0.93160 -0.10840 0.72940
 H496 H 0.93999 -0.13758 0.66532
 H497 H 0.85135 -0.10147 0.63731
 H498 H 0.87335 -0.16133 0.66842
 C499 C 1.08457 -0.09024 0.30684
 C500 C 1.12171 -0.08735 0.29665
 C501 C 1.12265 -0.12517 0.29082
 C502 C 1.08573 -0.12830 0.30057
 C503 C 1.09536 -0.09639 0.34313
 C504 C 1.09629 -0.13422 0.33732
 C505 C 1.13228 -0.09326 0.33338
 C506 C 1.13346 -0.13134 0.32710
 C507 C 1.13778 -0.14103 0.26156
 C508 C 1.15014 -0.15392 0.23735
 C509 C 1.08010 -0.08008 0.37206
 C510 C 1.06742 -0.06632 0.39560
 H511 H 1.06429 -0.07316 0.29884
 H512 H 1.13233 -0.06826 0.27961
 H513 H 1.06676 -0.14288 0.28674
 H514 H 1.08566 -0.15330 0.35437
 H515 H 1.15124 -0.07867 0.34720
 H516 H 1.15373 -0.14842 0.33511
 C517 C 0.92157 0.09649 0.30668
 C518 C 0.88565 0.08882 0.29488
 C519 C 0.87949 0.12636 0.29042
 C520 C 0.91517 0.13427 0.30178
 C521 C 0.90863 0.09936 0.34270
 C522 C 0.90248 0.13691 0.33826
 C523 C 0.87295 0.09146 0.33133
 C524 C 0.86654 0.12924 0.32644
 C525 C 0.86322 0.14113 0.26120
 C526 C 0.84983 0.15307 0.23705
 C527 C 0.92478 0.08393 0.37164
 C528 C 0.93800 0.07075 0.39522
 H529 H 0.94439 0.08286 0.29889
 H530 H 0.87856 0.06920 0.27673
 H531 H 0.93235 0.15203 0.28929
 H532 H 0.90959 0.15650 0.35643
 H533 H 0.85577 0.07369 0.34381
 H534 H 0.84372 0.14287 0.33422
 C535 C 0.08719 0.33035 -0.13127
 C536 C 0.12502 0.32661 -0.13822
 C537 C 0.12373 0.29116 -0.12373
 C538 C 0.08616 0.29445 -0.11701
 C539 C 0.09530 0.34345 -0.09618
 C540 C 0.09401 0.30799 -0.08170
 C541 C 0.13287 0.34017 -0.10288
 C542 C 0.13183 0.30425 -0.08864
 C543 C 0.13942 0.26191 -0.13896
 C544 C 0.15223 0.23771 -0.15135
 C545 C 0.07918 0.37236 -0.08074
 C546 C 0.06558 0.39587 -0.06792
 H547 H 0.06866 0.34141 -0.14862
 H548 H 0.13794 0.33393 -0.16164
 H549 H 0.06712 0.27533 -0.12299
 H550 H 0.08109 0.30066 -0.05828
 H551 H 0.15189 0.35929 -0.09689
 H552 H 0.15035 0.29318 -0.07128
 C553 C -0.09429 0.33329 0.12816
 C554 C -0.13221 0.32704 0.13190
 C555 C -0.12682 0.29088 0.12053
 C556 C -0.08914 0.29670 0.11704
 C557 C -0.09992 0.34320 0.09151
 C558 C -0.09453 0.30703 0.08015
 C559 C -0.13760 0.33740 0.09499
 C560 C -0.13245 0.30077 0.08388
 C561 C -0.14151 0.26162 0.13673
 C562 C -0.15336 0.23743 0.15007
 C563 C -0.08451 0.37213 0.07540
 C564 C -0.07135 0.39568 0.06218
 H565 H -0.07844 0.34699 0.14619
 H566 H -0.14787 0.33493 0.15337
 H567 H -0.06937 0.27965 0.12627
 H568 H -0.07888 0.29913 0.05868
 H569 H -0.15735 0.35447 0.08574
 H570 H -0.14830 0.28706 0.06585
 C571 C -0.12832 0.67365 -0.08896
 C572 C -0.11196 0.70851 -0.09128
 C573 C -0.12287 0.71083 -0.12797
 C574 C -0.13947 0.67641 -0.12590
 C575 C -0.09538 0.65789 -0.10060
 C576 C -0.10627 0.66018 -0.13730
 C577 C -0.07878 0.69231 -0.10268
 C578 C -0.08991 0.69508 -0.13962
 C579 C -0.13816 0.74046 -0.14295
 C580 C -0.15069 0.76498 -0.15507
 C581 C -0.08002 0.62865 -0.08495
 C582 C -0.06730 0.60491 -0.07158
 H583 H -0.14395 0.66451 -0.06797
 H584 H -0.11446 0.72869 -0.07251
 H585 H -0.16460 0.67022 -0.13561
 H586 H -0.10376 0.63998 -0.15605
 H587 H -0.05365 0.69851 -0.09298
 H588 H -0.07428 0.70424 -0.16061
 C589 C 0.09950 0.65767 0.13294
 C590 C 0.13386 0.67224 0.12296
 C591 C 0.11873 0.70742 0.12405
 C592 C 0.08462 0.69331 0.13428
 C593 C 0.09019 0.65572 0.09580
 C594 C 0.07506 0.69090 0.09689
 C595 C 0.12429 0.66984 0.08557
 C596 C 0.10940 0.70545 0.08691
 C597 C 0.13463 0.73631 0.13958
 C598 C 0.14767 0.76020 0.15219
 C599 C 0.07434 0.62709 0.07974
 C600 C 0.06134 0.60374 0.06614
 H601 H 0.09524 0.63770 0.15167
 H602 H 0.15822 0.66490 0.13385
 H603 H 0.06848 0.70330 0.15448
 H604 H 0.05069 0.69825 0.08600
 H605 H 0.14042 0.65986 0.06536
 H606 H 0.11365 0.72541 0.06815
 C607 C 0.31714 1.11581 0.92720
 C608 C 0.31892 1.14198 0.89875
 C609 C 0.29164 1.12285 0.87997
 C610 C 0.28942 1.09693 0.90817
 C611 C 0.34344 1.09481 0.90884
 C612 C 0.31615 1.07569 0.89006
 C613 C 0.34567 1.12072 0.88064
 C614 C 0.31794 1.10184 0.86161
 C615 C 0.26272 1.13830 0.86389
 C616 C 0.23882 1.15089 0.85071
 C617 C 0.37215 1.07891 0.92486
 C618 C 0.39558 1.06547 0.93800
 H619 H 0.31715 1.12137 0.95435
 H620 H 0.31973 1.16942 0.90213
 H621 H 0.26597 1.08731 0.91931
 H622 H 0.31533 1.04825 0.88667
 H623 H 0.36913 1.13033 0.86951
 H624 H 0.31793 1.09627 0.83446
 C625 C 0.34395 0.87643 1.12687
 C626 C 0.31404 0.89580 1.14189
 C627 C 0.29014 0.87198 1.12390
 C628 C 0.31958 0.85236 1.10912
 C629 C 0.34288 0.89940 1.09615
 C630 C 0.31898 0.87558 1.07815
 C631 C 0.31343 0.91900 1.11093
 C632 C 0.28909 0.89495 1.09318
 C633 C 0.26062 0.85698 1.13933
 C634 C 0.23619 0.84486 1.15197
 C635 C 0.37200 0.91507 1.08064
 C636 C 0.39563 0.92845 1.06778
 H637 H 0.36684 0.86899 1.14055
 H638 H 0.31168 0.90396 1.16827
 H639 H 0.32175 0.82478 1.10855
 H640 H 0.32134 0.86745 1.05176
 H641 H 0.31123 0.94657 1.11151
 H642 H 0.26621 0.90240 1.07949
 C643 C 0.66856 1.08444 1.13600
 C644 C 0.70472 1.08202 1.12252
 C645 C 0.70853 1.11980 1.12734
 C646 C 0.67284 1.12248 1.14106
 C647 C 0.65626 1.09111 1.10029
 C648 C 0.66008 1.12888 1.10510
 C649 C 0.69196 1.08844 1.08658
 C650 C 0.69621 1.12645 1.09163
 C651 C 0.73776 1.13583 1.14210
 C652 C 0.76194 1.14903 1.15398
 C653 C 0.62737 1.07517 1.08478
 C654 C 0.60388 1.06208 1.07151
 H655 H 0.65686 1.06698 1.15406
 H656 H 0.72340 1.06293 1.12983
 H657 H 0.66531 1.13666 1.16364
 H658 H 0.64140 1.14797 1.09778
 H659 H 0.69950 1.07426 1.06400
 H660 H 0.70791 1.14389 1.07354
 C661 C 0.66485 0.90651 0.86700
 C662 C 0.70159 0.91503 0.87521
 C663 C 0.70969 0.87760 0.87610
 C664 C 0.67342 0.86884 0.86763
 C665 C 0.65725 0.90491 0.90458
 C666 C 0.66535 0.86749 0.90547
 C667 C 0.69353 0.91367 0.91304
 C668 C 0.70208 0.87602 0.91368
 C669 C 0.73903 0.86248 0.86038
 C670 C 0.76328 0.85016 0.84757
 C671 C 0.62824 0.92021 0.92072
 C672 C 0.60464 0.93290 0.93434
 H673 H 0.64922 0.91922 0.84798
 H674 H 0.71681 0.93442 0.86260
 H675 H 0.66549 0.85023 0.84878
 H676 H 0.65012 0.84811 0.91809
 H677 H 0.70147 0.93228 0.93189
 H678 H 0.71771 0.86332 0.93271
   
