data_POSCAR
  _audit_creation_date              2014-09-24
  _audit_creation_method            'ToBaCCo'
  _symmetry_space_group_name_H-M    'P1'
  _symmetry_Int_Tables_number       1
  _symmetry_cell_setting            triclinic
  loop_
  _symmetry_equiv_pos_as_xyz
 x,y,z
_cell_length_a 35.9264
_cell_length_b 39.7144
_cell_length_c 34.5745
_cell_angle_alpha 87.543800
_cell_angle_beta 88.523400
_cell_angle_gamma 87.972400
loop_
  _atom_site_label
  _atom_site_type_symbol
  _atom_site_fract_x
  _atom_site_fract_y
  _atom_site_fract_z
N1 N 0.19250 0.20614 0.17424
 N2 N -0.17461 0.80731 0.18721
 N3 N -0.17587 0.19183 -0.17483
 N4 N 0.18805 0.79880 -0.16338
 N5 N 0.17185 1.20088 0.82167
 N6 N 0.80487 0.79980 0.81106
 N7 N 0.18308 0.80179 1.16758
 N8 N 0.82032 1.17872 1.16594
 N9 N 0.53823 1.06323 0.95141
 N10 N 0.56637 1.08313 0.94446
 N11 N 0.45640 1.04854 0.93514
 N12 N 0.42545 1.05771 0.91694
 N13 N 0.46098 1.06793 0.96434
 N14 N 0.43366 1.09079 0.96680
 N15 N 0.53452 1.04307 0.92280
 N16 N 0.56022 1.04880 0.89541
 C17 C 0.57986 1.07393 0.90949
 C18 C 0.41175 1.08419 0.93712
 N19 N 0.45282 0.95080 0.95369
 N20 N 0.42398 0.93171 0.94926
 N21 N 0.52998 0.97083 0.91708
 N22 N 0.55749 0.96803 0.89111
 N23 N 0.53011 0.94433 0.94122
 N24 N 0.55715 0.92266 0.93201
 N25 N 0.45196 0.97669 0.92872
 N26 N 0.42245 0.97603 0.90685
 Mn27 Mn 0.49326 1.00980 0.92534
 C28 C 0.40519 0.94796 0.92010
 C29 C 0.57378 0.93759 0.90059
 N30 N 0.47163 1.05832 1.04620
 N31 N 0.44385 1.07903 1.05606
 N32 N 0.55184 1.02777 1.05732
 N33 N 0.58411 1.02787 1.07500
 N34 N 0.54896 1.05350 1.03232
 N35 N 0.57915 1.07131 1.03154
 N36 N 0.47428 1.03255 1.07114
 N37 N 0.44832 1.03499 1.09869
 Mn38 Mn 0.50484 1.06101 0.99866
 C39 C 0.42974 1.06419 1.08893
 C40 C 0.60061 1.05530 1.05837
 N41 N 0.54086 0.93496 1.02331
 N42 N 0.56660 0.91039 1.02286
 N43 N 0.46922 0.96105 1.06514
 N44 N 0.44356 0.95702 1.09283
 N45 N 0.46321 0.94149 1.03639
 N46 N 0.43338 0.92358 1.04382
 N47 N 0.54674 0.95533 1.05132
 N48 N 0.57656 0.94510 1.07072
 Mn49 Mn 0.49658 0.94252 0.98865
 Mn50 Mn 0.51075 0.99409 1.06173
 Cl51 Cl 0.50135 1.00180 0.99356
 C52 C 0.58874 0.91714 1.05245
 C53 C 0.42152 0.93350 1.07920
 N54 N 0.05941 0.46621 -0.01892
 N55 N 0.08582 0.44225 -0.01627
 N56 N 0.03000 0.53193 -0.06076
 N57 N 0.03539 0.55551 -0.08811
 N58 N 0.05061 0.53666 -0.03081
 N59 N 0.07054 0.56380 -0.03688
 N60 N 0.03849 0.46184 -0.04874
 N61 N 0.05004 0.43490 -0.06721
 C62 C 0.07959 0.42294 -0.04664
 C63 C 0.06068 0.57513 -0.07283
 N64 N -0.07827 0.52604 -0.04956
 N65 N -0.09990 0.55275 -0.05856
 N66 N -0.03968 0.45531 -0.06034
 N67 N -0.03724 0.42857 -0.08161
 N68 N -0.07004 0.45510 -0.03837
 N69 N -0.08922 0.42801 -0.04427
 N70 N -0.04827 0.52549 -0.07214
 N71 N -0.04886 0.55148 -0.09715
 Mn72 Mn -0.00485 0.49357 -0.06085
 C73 C -0.08129 0.56804 -0.08869
 C74 C -0.06814 0.41172 -0.07125
 N75 N 0.03633 0.54325 0.05091
 N76 N 0.05657 0.56976 0.05594
 N77 N 0.01500 0.47290 0.08527
 N78 N 0.01777 0.44846 0.11225
 N79 N 0.04488 0.47311 0.06261
 N80 N 0.06874 0.44878 0.07340
 N81 N 0.00640 0.54318 0.07364
 N82 N 0.00444 0.56983 0.09534
 Mn83 Mn 0.04821 0.50486 0.01604
 C84 C 0.03681 0.58792 0.08491
 C85 C 0.05152 0.43381 0.10451
 N86 N -0.08415 0.46118 0.04388
 N87 N -0.10168 0.43246 0.04875
 N88 N -0.07193 0.53609 0.06223
 N89 N -0.08160 0.56406 0.07956
 N90 N -0.09291 0.53219 0.03232
 N91 N -0.11748 0.55768 0.02852
 N92 N -0.06335 0.46588 0.07377
 N93 N -0.06629 0.44075 0.09971
 Mn94 Mn -0.08195 0.49356 -0.00301
 Mn95 Mn -0.02861 0.50454 0.07411
 Cl96 Cl -0.01679 0.49914 0.00657
 C97 C -0.09042 0.42024 0.08398
 C98 C -0.11018 0.57720 0.05846
 N99 N 1.05753 0.05389 0.54459
 N100 N 1.06250 0.07290 0.57428
 N101 N 1.08734 0.03317 0.46304
 N102 N 1.11045 0.03550 0.43285
 N103 N 1.06363 0.05907 0.46326
 N104 N 1.06982 0.07968 0.43301
 N105 N 1.08204 0.02862 0.54435
 N106 N 1.10432 0.02961 0.57400
 C107 C 1.09170 0.05727 0.59241
 C108 C 1.09930 0.06474 0.41459
 N109 N 1.05579 -0.06044 0.45925
 N110 N 1.06218 -0.08088 0.43044
 N111 N 1.07724 -0.04277 0.54186
 N112 N 1.09873 -0.04947 0.57155
 N113 N 1.05035 -0.06429 0.54114
 N114 N 1.05324 -0.08666 0.57068
 N115 N 1.08267 -0.03899 0.46086
 N116 N 1.10812 -0.04435 0.43343
 Mn117 Mn 1.08266 -0.00503 0.50241
 C118 C 1.09494 -0.07040 0.41462
 C119 C 1.08369 -0.07675 0.58929
 N120 N 0.98455 0.06669 0.45910
 N121 N 0.98383 0.09047 0.43137
 N122 N 0.95017 0.04061 0.53682
 N123 N 0.92365 0.04611 0.56305
 N124 N 0.97745 0.06133 0.54027
 N125 N 0.97013 0.08165 0.56905
 N126 N 0.95744 0.04583 0.45554
 N127 N 0.93723 0.05512 0.42518
 Mn128 Mn 1.02084 0.06059 0.50200
 C129 C 0.95428 0.08301 0.41044
 C130 C 0.93649 0.07159 0.58302
 N131 N 0.96950 -0.05689 0.53627
 N132 N 0.96059 -0.07826 0.56514
 N133 N 0.95244 -0.02671 0.45340
 N134 N 0.92982 -0.02800 0.42416
 N135 N 0.97553 -0.05314 0.45475
 N136 N 0.96904 -0.07321 0.42622
 N137 N 0.94540 -0.03122 0.53450
 N138 N 0.91965 -0.03430 0.56216
 Mn139 Mn 1.01274 -0.05926 0.49797
 Mn140 Mn 0.95099 0.00713 0.49489
 Cl141 Cl 1.01674 0.00079 0.49932
 C142 C 0.92936 -0.06372 0.58091
 C143 C 0.94054 -0.05693 0.40734
 C144 C 1.17770 0.19323 0.21071
 C145 C 1.16565 0.16032 0.21523
 C146 C 1.14867 0.14684 0.25175
 C147 C 1.15142 0.11206 0.26044
 C148 C 1.13647 0.09861 0.29521
 C149 C 1.11824 0.11983 0.32179
 C150 C 1.11415 0.15439 0.31234
 C151 C 1.12926 0.16786 0.27771
 C152 C 1.10245 0.10674 0.35906
 C153 C 1.11591 0.07728 0.37788
 H154 H 1.17009 0.14355 0.19152
 H155 H 1.16552 0.09530 0.24046
 H156 H 1.13886 0.07163 0.30082
 H157 H 1.09953 0.17110 0.33200
 H158 H 1.12519 0.19460 0.27125
 H159 H 1.08057 0.12166 0.37303
 H160 H 1.17437 0.21020 0.23431
 H161 H 1.13926 0.06297 0.36581
 C162 C 0.84900 -0.18075 0.21649
 C163 C 0.84124 -0.15089 0.23565
 C164 C 0.86421 -0.13881 0.26710
 C165 C 0.84901 -0.11335 0.29023
 C166 C 0.86931 -0.10098 0.32016
 C167 C 0.90574 -0.11350 0.32744
 C168 C 0.92092 -0.13914 0.30457
 C169 C 0.90059 -0.15152 0.27451
 C170 C 0.92803 -0.10085 0.35905
 C171 C 0.92128 -0.06907 0.37393
 H172 H 0.81600 -0.13641 0.22881
 H173 H 0.82107 -0.10314 0.28538
 H174 H 0.85593 -0.08207 0.33787
 H175 H 0.94881 -0.14936 0.30965
 H176 H 0.91388 -0.17063 0.25705
 H177 H 0.95069 -0.11671 0.37044
 H178 H 0.87239 -0.19682 0.22549
 H179 H 0.90029 -0.05211 0.36131
 C180 C 0.84953 0.18157 0.79457
 C181 C 0.83723 0.16491 0.76274
 C182 C 0.86154 0.15319 0.73032
 C183 C 0.84442 0.14142 0.69772
 C184 C 0.86571 0.12869 0.66699
 C185 C 0.90483 0.12712 0.66826
 C186 C 0.92213 0.13972 0.70028
 C187 C 0.90078 0.15239 0.73122
 C188 C 0.92789 0.11231 0.63671
 C189 C 0.91491 0.08670 0.61485
 H190 H 0.80767 0.16086 0.76101
 H191 H 0.81433 0.14192 0.69605
 H192 H 0.85136 0.12028 0.64222
 H193 H 0.95223 0.13892 0.70183
 H194 H 0.91528 0.16077 0.75585
 H195 H 0.95622 0.12035 0.63203
 H196 H 0.87826 0.18856 0.79567
 H197 H 0.88784 0.07652 0.62157
 C198 C 1.16421 -0.18497 0.80807
 C199 C 1.17830 -0.17447 0.77178
 C200 C 1.15488 -0.16219 0.73897
 C201 C 1.17220 -0.14516 0.70746
 C202 C 1.15162 -0.13309 0.67581
 C203 C 1.11294 -0.13755 0.67490
 C204 C 1.09572 -0.15581 0.70559
 C205 C 1.11641 -0.16797 0.73743
 C206 C 1.09059 -0.12288 0.64237
 C207 C 1.10058 -0.09254 0.62404
 H208 H 1.20826 -0.17565 0.76711
 H209 H 1.20184 -0.14096 0.70738
 H210 H 1.16620 -0.12035 0.65195
 H211 H 1.06613 -0.16012 0.70527
 H212 H 1.10214 -0.18209 0.76036
 H213 H 1.06586 -0.13520 0.63379
 H214 H 1.13451 -0.18401 0.81398
 H215 H 1.12347 -0.07922 0.63526
 C216 C 0.22074 1.18801 1.15249
 C217 C 0.24518 1.16420 1.17005
 C218 C 0.27753 1.14792 1.14989
 C219 C 0.30306 1.12833 1.17213
 C220 C 0.33492 1.11370 1.15489
 C221 C 0.34179 1.11827 1.11484
 C222 C 0.31615 1.13746 1.09250
 C223 C 0.28420 1.15190 1.10965
 C224 C 0.37576 1.10451 1.09548
 C225 C 0.39693 1.07712 1.11033
 H226 H 0.24189 1.15871 1.20086
 H227 H 0.29869 1.12478 1.20314
 H228 H 0.35443 1.09965 1.17322
 H229 H 0.32083 1.14127 1.06155
 H230 H 0.26523 1.16608 1.09095
 H231 H 0.38350 1.11556 1.06733
 H232 H 0.22485 1.19559 1.12238
 H233 H 0.38861 1.06381 1.13692
 C234 C 0.22312 0.81213 0.84643
 C235 C 0.22834 0.84674 0.84776
 C236 C 0.26156 0.86126 0.86459
 C237 C 0.26819 0.89559 0.85724
 C238 C 0.29852 0.91053 0.87347
 C239 C 0.32301 0.89129 0.89751
 C240 C 0.31598 0.85715 0.90540
 C241 C 0.28567 0.84227 0.88928
 C242 C 0.35565 0.90567 0.91548
 C243 C 0.37122 0.93607 0.90308
 H244 H 0.20662 0.86400 0.83699
 H245 H 0.24970 0.91100 0.83898
 H246 H 0.30212 0.93715 0.86750
 H247 H 0.33406 0.84184 0.92421
 H248 H 0.28107 0.81611 0.89714
 H249 H 0.36925 0.89074 0.93835
 H250 H 0.24466 0.79443 0.85649
 H251 H 0.35959 0.95107 0.87924
 C252 C 0.79873 0.82964 1.16763
 C253 C 0.76438 0.81849 1.15614
 C254 C 0.73473 0.84099 1.13903
 C255 C 0.70697 0.82679 1.11770
 C256 C 0.67766 0.84686 1.10238
 C257 C 0.67535 0.88172 1.10831
 C258 C 0.70288 0.89586 1.13002
 C259 C 0.73231 0.87582 1.14516
 C260 C 0.64385 0.90368 1.09415
 C261 C 0.62105 0.89557 1.06404
 H262 H 0.75888 0.79189 1.15987
 H263 H 0.70781 0.79996 1.11305
 H264 H 0.65644 0.83472 1.08690
 H265 H 0.70148 0.92253 1.13555
 H266 H 0.75236 0.88763 1.16250
 H267 H 0.63878 0.92761 1.10763
 H268 H 0.80501 0.85599 1.16349
 H269 H 0.62683 0.87301 1.04819
 C270 C 0.79207 1.17216 0.83524
 C271 C 0.76018 1.18659 0.85262
 C272 C 0.72671 1.16769 0.86458
 C273 C 0.71820 1.13676 0.84900
 C274 C 0.68625 1.11986 0.86171
 C275 C 0.66222 1.13368 0.89010
 C276 C 0.67063 1.16470 0.90515
 C277 C 0.70231 1.18159 0.89236
 C278 C 0.62906 1.11639 0.90620
 C279 C 0.61226 1.08935 0.88982
 H280 H 0.76018 1.21304 0.85911
 H281 H 0.73581 1.12560 0.82682
 H282 H 0.68096 1.09586 0.84967
 H283 H 0.65264 1.17593 0.92705
 H284 H 0.70805 1.20545 0.90466
 H285 H 0.61667 1.12610 0.93257
 H286 H 0.79285 1.14580 0.82855
 H287 H 0.62229 1.07964 0.86260
 C288 C 0.18093 0.23905 0.15922
 C289 C 0.14921 0.25635 0.17324
 C290 C 0.13684 0.28984 0.15742
 C291 C 0.11527 0.31111 0.18111
 C292 C 0.10283 0.34289 0.16700
 C293 C 0.11140 0.35367 0.12863
 C294 C 0.13302 0.33243 0.10501
 C295 C 0.14539 0.30069 0.11908
 C296 C 0.09823 0.38663 0.11207
 C297 C 0.06610 0.40353 0.12532
 H298 H 0.13324 0.24556 0.19738
 H299 H 0.10837 0.30325 0.21076
 H300 H 0.08701 0.35897 0.18636
 H301 H 0.13976 0.34015 0.07528
 H302 H 0.16089 0.28458 0.09952
 H303 H 0.11254 0.39648 0.08623
 H304 H 0.19742 0.25054 0.13592
 H305 H 0.04970 0.39323 0.14939
 C306 C -0.16644 0.21875 -0.15063
 C307 C -0.14793 0.24691 -0.16566
 C308 C -0.13887 0.27632 -0.14300
 C309 C -0.11539 0.30033 -0.16043
 C310 C -0.10610 0.32872 -0.14082
 C311 C -0.11993 0.33373 -0.10298
 C312 C -0.14409 0.31017 -0.08574
 C313 C -0.15346 0.28168 -0.10543
 C314 C -0.11032 0.36365 -0.08153
 C315 C -0.07737 0.38041 -0.08927
 H316 H -0.13970 0.24755 -0.19604
 H317 H -0.10420 0.29719 -0.18952
 H318 H -0.08859 0.34690 -0.15581
 H319 H -0.15555 0.31369 -0.05685
 H320 H -0.17240 0.26441 -0.09109
 H321 H -0.12908 0.37216 -0.05863
 H322 H -0.17556 0.21740 -0.12061
 H323 H -0.05710 0.37055 -0.10991
 C324 C 0.17692 0.76862 -0.14238
 C325 C 0.14932 0.74831 -0.15545
 C326 C 0.13728 0.71722 -0.13444
 C327 C 0.10201 0.70537 -0.14192
 C328 C 0.08948 0.67598 -0.12314
 C329 C 0.11231 0.65747 -0.09685
 C330 C 0.14749 0.66940 -0.08908
 C331 C 0.16008 0.69885 -0.10791
 C332 C 0.09996 0.62601 -0.07694
 C333 C 0.07418 0.60563 -0.09295
 H334 H 0.13497 0.75590 -0.18172
 H335 H 0.08387 0.71912 -0.16208
 H336 H 0.06168 0.66822 -0.12893
 H337 H 0.16555 0.65556 -0.06892
 H338 H 0.18786 0.70660 -0.10210
 H339 H 0.11251 0.61801 -0.04975
 H340 H 0.19096 0.76142 -0.11582
 H341 H 0.06338 0.61189 -0.12137
 C342 C -0.16910 0.77247 0.17794
 C343 C -0.17075 0.76149 0.14014
 C344 C -0.15838 0.72697 0.12962
 C345 C -0.17240 0.71299 0.09655
 C346 C -0.16026 0.68074 0.08553
 C347 C -0.13353 0.66205 0.10739
 C348 C -0.11936 0.67632 0.14015
 C349 C -0.13141 0.70834 0.15107
 C350 C -0.11854 0.62821 0.09724
 C351 C -0.12926 0.60975 0.06611
 H352 H -0.18069 0.77885 0.11738
 H353 H -0.19286 0.72702 0.07925
 H354 H -0.17169 0.67091 0.05989
 H355 H -0.09840 0.66276 0.15728
 H356 H -0.11868 0.71863 0.17578
 H357 H -0.09693 0.61717 0.11559
 H358 H -0.16002 0.75484 0.20080
 H359 H -0.15096 0.61900 0.04697
 C360 C 1.15269 0.18657 0.79055
 C361 C 1.16518 0.15670 0.77375
 C362 C 1.14655 0.14184 0.74120
 C363 C 1.16741 0.11992 0.71764
 C364 C 1.15116 0.10546 0.68638
 C365 C 1.11337 0.11228 0.67838
 C366 C 1.09243 0.13406 0.70206
 C367 C 1.10871 0.14855 0.73335
 C368 C 1.09535 0.09814 0.64497
 C369 C 1.10893 0.06932 0.62696
 H370 H 1.19058 0.14414 0.78381
 H371 H 1.19663 0.11443 0.72302
 H372 H 1.16859 0.08962 0.66820
 H373 H 1.06328 0.13970 0.69651
 H374 H 1.09136 0.16452 0.75145
 H375 H 1.06995 0.11059 0.63462
 H376 H 1.12768 0.19953 0.78009
 H377 H 1.13271 0.05496 0.63816
 C378 C 0.82758 -0.19075 0.78010
 C379 C 0.82788 -0.15757 0.76428
 C380 C 0.85205 -0.14616 0.73120
 C381 C 0.85692 -0.11141 0.72516
 C382 C 0.87817 -0.09903 0.69368
 C383 C 0.89481 -0.12117 0.66715
 C384 C 0.89073 -0.15599 0.67355
 C385 C 0.86928 -0.16844 0.70507
 C386 C 0.91640 -0.10850 0.63277
 C387 C 0.90844 -0.07702 0.61489
 H388 H 0.81141 -0.13811 0.77847
 H389 H 0.84421 -0.09368 0.74492
 H390 H 0.88168 -0.07210 0.69047
 H391 H 0.90340 -0.17356 0.65357
 H392 H 0.86572 -0.19534 0.70814
 H393 H 0.93753 -0.12501 0.61998
 H394 H 0.84758 -0.20876 0.76840
 H395 H 0.88524 -0.06156 0.62537
 C396 C 1.16172 -0.18175 0.19763
 C397 C 1.17826 -0.17251 0.23153
 C398 C 1.15762 -0.15707 0.26441
 C399 C 1.17792 -0.14125 0.29218
 C400 C 1.15983 -0.12645 0.32379
 C401 C 1.12082 -0.12716 0.32836
 C402 C 1.10057 -0.14376 0.30119
 C403 C 1.11867 -0.15853 0.26950
 C404 C 1.10063 -0.11166 0.36147
 C405 C 1.11486 -0.08548 0.38160
 H406 H 1.20813 -0.17643 0.23386
 H407 H 1.20798 -0.14032 0.28941
 H408 H 1.17666 -0.11503 0.34480
 H409 H 1.07057 -0.14516 0.30434
 H410 H 1.10198 -0.17144 0.24964
 H411 H 1.07299 -0.12018 0.36919
 H412 H 1.13203 -0.17817 0.19421
 H413 H 1.14119 -0.07489 0.37266
 C414 C 0.84599 0.16279 0.18962
 C415 C 0.85932 0.17745 0.22241
 C416 C 0.87370 0.15651 0.25568
 C417 C 0.89888 0.17003 0.28059
 C418 C 0.91156 0.15116 0.31307
 C419 C 0.89906 0.11829 0.32136
 C420 C 0.87321 0.10517 0.29688
 C421 C 0.86055 0.12400 0.26455
 C422 C 0.91119 0.09736 0.35565
 C423 C 0.94287 0.10356 0.37618
 H424 H 0.85580 0.20437 0.22577
 H425 H 0.90870 0.19530 0.27495
 H426 H 0.93046 0.16283 0.33182
 H427 H 0.86254 0.08026 0.30290
 H428 H 0.83963 0.11328 0.24728
 H429 H 0.89512 0.07562 0.36443
 H430 H 0.84999 0.13565 0.18827
 H431 H 0.96060 0.12400 0.36710
 C432 C 0.15230 0.22701 -0.15762
 C433 C 0.17047 0.25228 -0.13938
 C434 C 0.15035 0.28280 -0.12525
 C435 C 0.16585 0.30116 -0.09620
 C436 C 0.14779 0.33059 -0.08316
 C437 C 0.11388 0.34236 -0.09930
 C438 C 0.09881 0.32418 -0.12872
 C439 C 0.11678 0.29491 -0.14167
 C440 C 0.09354 0.37362 -0.08753
 C441 C 0.10201 0.39246 -0.05592
 H442 H 0.20037 0.25013 -0.13612
 H443 H 0.19201 0.29268 -0.08357
 H444 H 0.16083 0.34404 -0.06094
 H445 H 0.07303 0.33279 -0.14208
 H446 H 0.10464 0.28244 -0.16526
 H447 H 0.06987 0.38206 -0.10466
 H448 H 0.12223 0.22848 -0.15903
 H449 H 0.12475 0.38496 -0.03727
 C450 C -0.17782 0.21210 0.15376
 C451 C -0.14424 0.22924 0.15112
 C452 C -0.14047 0.26438 0.13518
 C453 C -0.10819 0.28138 0.14340
 C454 C -0.10236 0.31391 0.12791
 C455 C -0.12877 0.33038 0.10367
 C456 C -0.16082 0.31326 0.09491
 C457 C -0.16676 0.28066 0.11054
 C458 C -0.12270 0.36459 0.08593
 C459 C -0.10008 0.38757 0.10259
 H460 H -0.11885 0.21607 0.16026
 H461 H -0.08716 0.26932 0.16172
 H462 H -0.07660 0.32560 0.13425
 H463 H -0.18130 0.32512 0.07582
 H464 H -0.19143 0.26818 0.10234
 H465 H -0.13674 0.37199 0.05937
 H466 H -0.20257 0.22544 0.14355
 H467 H -0.08809 0.38143 0.13049
 C468 C -0.18798 0.77036 -0.16749
 C469 C -0.15345 0.75264 -0.16751
 C470 C -0.14671 0.71918 -0.14747
 C471 C -0.10973 0.70721 -0.14329
 C472 C -0.10177 0.67528 -0.12642
 C473 C -0.13072 0.65438 -0.11342
 C474 C -0.16767 0.66651 -0.11664
 C475 C -0.17571 0.69840 -0.13389
 C476 C -0.12295 0.62011 -0.09624
 C477 C -0.09171 0.60077 -0.10739
 H478 H -0.12949 0.76415 -0.18145
 H479 H -0.08680 0.72261 -0.15324
 H480 H -0.07288 0.66720 -0.12331
 H481 H -0.19042 0.65091 -0.10667
 H482 H -0.20464 0.70606 -0.13713
 H483 H -0.14279 0.60949 -0.07541
 H484 H -0.20983 0.76040 -0.14870
 H485 H -0.07324 0.61022 -0.13026
 C486 C 0.16815 0.77427 0.14777
 C487 C 0.13862 0.75535 0.16285
 C488 C 0.12463 0.72565 0.14382
 C489 C 0.08883 0.71469 0.15397
 C490 C 0.07481 0.68635 0.13744
 C491 C 0.09661 0.66822 0.11049
 C492 C 0.13241 0.67906 0.10041
 C493 C 0.14644 0.70731 0.11700
 C494 C 0.08338 0.63761 0.09300
 C495 C 0.04963 0.62357 0.10381
 H496 H 0.12472 0.76263 0.18950
 H497 H 0.07167 0.72815 0.17483
 H498 H 0.04704 0.67865 0.14597
 H499 H 0.14978 0.66524 0.08000
 H500 H 0.17465 0.71394 0.10930
 H501 H 0.10121 0.62517 0.07176
 H502 H 0.18114 0.76764 0.12046
 H503 H 0.04307 0.60530 0.09411
 C504 C 0.20971 1.19045 0.82948
 C505 C 0.21957 1.17736 0.86596
 C506 C 0.25491 1.15796 0.87329
 C507 C 0.26717 1.15367 0.91142
 C508 C 0.29957 1.13446 0.91971
 C509 C 0.32047 1.11902 0.88991
 C510 C 0.30775 1.12262 0.85192
 C511 C 0.27538 1.14189 0.84360
 C512 C 0.35504 1.09859 0.89764
 C513 C 0.37715 1.10375 0.92920
 H514 H 0.19978 1.18036 0.88986
 H515 H 0.25153 1.16514 0.93493
 H516 H 0.30764 1.13130 0.94960
 H517 H 0.32299 1.11057 0.82853
 H518 H 0.26619 1.14334 0.81403
 H519 H 0.36438 1.08023 0.87689
 H520 H 0.22915 1.18853 0.80521
 H521 H 0.36973 1.12368 0.94863
 C522 C 0.21932 0.81269 1.15458
 C523 C 0.22984 0.84620 1.15568
 C524 C 0.26526 0.85848 1.13811
 C525 C 0.27975 0.88826 1.15105
 C526 C 0.31253 0.90112 1.13441
 C527 C 0.33147 0.88445 1.10419
 C528 C 0.31660 0.85500 1.09087
 C529 C 0.28393 0.84212 1.10753
 C530 C 0.36577 0.89737 1.08479
 C531 C 0.38816 0.92125 1.10015
 H532 H 0.21143 0.86430 1.16978
 H533 H 0.26560 0.90169 1.17409
 H534 H 0.32230 0.92441 1.14487
 H535 H 0.33025 0.84193 1.06724
 H536 H 0.27303 0.81988 1.09558
 H537 H 0.37432 0.88689 1.05739
 H538 H 0.23796 0.79447 1.14104
 H539 H 0.38169 0.93118 1.12825
 C540 C 0.79135 1.15918 1.15669
 C541 C 0.76336 1.16849 1.13051
 C542 C 0.73259 1.14567 1.12412
 C543 C 0.71683 1.14554 1.08752
 C544 C 0.68885 1.12322 1.08036
 C545 C 0.67603 1.10052 1.10983
 C546 C 0.69070 1.10171 1.14688
 C547 C 0.71867 1.12404 1.15403
 C548 C 0.64587 1.07704 1.10339
 C549 C 0.63753 1.06692 1.06671
 H550 H 0.76530 1.19099 1.11195
 H551 H 0.72651 1.16245 1.06428
 H552 H 0.67699 1.12440 1.05190
 H553 H 0.68060 1.08523 1.17034
 H554 H 0.72908 1.12449 1.18310
 H555 H 0.62838 1.06907 1.12788
 H556 H 0.78999 1.13391 1.16987
 H557 H 0.65493 1.07423 1.04201
 C558 C 0.77227 0.81791 0.81794
 C559 C 0.75471 0.81923 0.85438
 C560 C 0.71935 0.83837 0.85944
 C561 C 0.71832 0.86887 0.87844
 C562 C 0.68437 0.88646 0.88446
 C563 C 0.65102 0.87315 0.87247
 C564 C 0.65221 0.84257 0.85358
 C565 C 0.68626 0.82555 0.84651
 C566 C 0.61466 0.88876 0.88328
 C567 C 0.60753 0.92348 0.88172
 H568 H 0.76824 0.80861 0.87995
 H569 H 0.74371 0.87889 0.88879
 H570 H 0.68397 0.90962 0.89991
 H571 H 0.62672 0.83174 0.84459
 H572 H 0.68670 0.80189 0.83201
 H573 H 0.59271 0.87221 0.89319
 H574 H 0.75999 0.83361 0.79483
 H575 H 0.62724 0.94030 0.86762
   
