data_POSCAR
  _audit_creation_date              2014-09-24
  _audit_creation_method            'ToBaCCo'
  _symmetry_space_group_name_H-M    'P1'
  _symmetry_Int_Tables_number       1
  _symmetry_cell_setting            triclinic
  loop_
  _symmetry_equiv_pos_as_xyz
 x,y,z
_cell_length_a 19.2648
_cell_length_b 17.7523
_cell_length_c 18.0933
_cell_angle_alpha 89.316800
_cell_angle_beta 88.251700
_cell_angle_gamma 89.754000
loop_
  _atom_site_label
  _atom_site_type_symbol
  _atom_site_fract_x
  _atom_site_fract_y
  _atom_site_fract_z
C1 C -0.09262 0.52885 0.33071
 C2 C -0.02453 0.54023 0.30945
 C3 C -0.00423 0.59786 0.26097
 C4 C -0.05339 0.64375 0.22867
 C5 C -0.12572 0.63176 0.25147
 C6 C -0.14549 0.57301 0.30320
 C7 C 0.01884 0.47541 0.31160
 C8 C -0.00087 0.41667 0.26751
 C9 C 0.04661 0.36611 0.23975
 C10 C 0.11908 0.37695 0.26031
 C11 C 0.13822 0.43773 0.30981
 C12 C 0.08437 0.48193 0.33788
 H13 H -0.10440 0.47882 0.36384
 H14 H 0.04999 0.60260 0.24334
 H15 H -0.05392 0.41490 0.25046
 H16 H 0.09364 0.52735 0.37577
 H17 H -0.16618 0.66688 0.22956
 H18 H 0.15886 0.33925 0.23875
 C19 C -0.09552 0.48845 0.68074
 C20 C -0.02770 0.48645 0.69959
 C21 C -0.00021 0.43086 0.74556
 C22 C -0.04258 0.37502 0.77565
 C23 C -0.11579 0.37885 0.75828
 C24 C -0.14250 0.43859 0.71209
 C25 C 0.00990 0.55389 0.68865
 C26 C -0.00680 0.61087 0.73813
 C27 C 0.04442 0.65673 0.76433
 C28 C 0.11434 0.64371 0.73520
 C29 C 0.12909 0.58456 0.68246
 C30 C 0.07383 0.54709 0.65426
 H31 H -0.11185 0.53260 0.64295
 H32 H 0.05392 0.43380 0.75936
 H33 H -0.05920 0.61434 0.76170
 H34 H 0.08229 0.50198 0.61498
 H35 H -0.15036 0.33510 0.77902
 H36 H 0.15600 0.67948 0.75195
 C37 C 0.27752 -0.09610 0.50797
 C38 C 0.23031 -0.03908 0.51773
 C39 C 0.19377 -0.02819 0.58221
 C40 C 0.21722 -0.06071 0.64593
 C41 C 0.26295 -0.12491 0.63815
 C42 C 0.28948 -0.14604 0.56515
 C43 C 0.23096 0.02040 0.46671
 C44 C 0.21055 0.00601 0.39716
 C45 C 0.20619 0.06394 0.34657
 C46 C 0.23358 0.13618 0.36591
 C47 C 0.25996 0.14833 0.43838
 C48 C 0.25429 0.08984 0.48863
 H49 H 0.30641 -0.09975 0.45562
 H50 H 0.15313 0.01423 0.58288
 H51 H 0.19231 -0.05021 0.38458
 H52 H 0.27348 0.09607 0.54403
 H53 H 0.27736 -0.15592 0.68714
 H54 H 0.23527 0.18079 0.32558
 C55 C 0.72511 -0.09406 0.49625
 C56 C 0.77373 -0.03944 0.48186
 C57 C 0.81409 -0.03701 0.41931
 C58 C 0.79136 -0.07334 0.35824
 C59 C 0.74795 -0.13905 0.37281
 C60 C 0.71889 -0.15257 0.44742
 C61 C 0.77424 0.02382 0.52643
 C62 C 0.79768 0.01469 0.59579
 C63 C 0.79998 0.07527 0.64228
 C64 C 0.76938 0.14486 0.61831
 C65 C 0.73843 0.15027 0.54682
 C66 C 0.74810 0.09076 0.49966
 H67 H 0.69306 -0.08907 0.54593
 H68 H 0.85627 0.00317 0.41652
 H69 H 0.81850 -0.04001 0.61183
 H70 H 0.72954 0.09370 0.44364
 H71 H 0.73742 -0.17761 0.32868
 H72 H 0.77002 0.19326 0.65351
 C73 C 0.49817 0.22009 1.09382
 C74 C 0.47749 0.17387 1.03639
 C75 C 0.41038 0.15248 1.02913
 C76 C 0.35838 0.19278 1.06437
 C77 C 0.37736 0.23967 1.12561
 C78 C 0.44923 0.25188 1.14197
 C79 C 0.51858 0.17434 0.96976
 C80 C 0.58658 0.15534 0.97683
 C81 C 0.63696 0.19342 0.93616
 C82 C 0.61434 0.23700 0.87239
 C83 C 0.54094 0.24821 0.85854
 C84 C 0.49475 0.21684 0.90992
 H85 H 0.55200 0.23649 1.09592
 H86 H 0.39878 0.11303 0.98573
 H87 H 0.59974 0.11758 1.02197
 H88 H 0.44002 0.22948 0.90693
 H89 H 0.33795 0.26546 1.16088
 H90 H 0.65244 0.26136 0.83412
 C91 C 0.51347 0.72504 1.07838
 C92 C 0.52854 0.77161 1.01882
 C93 C 0.59559 0.79434 1.00137
 C94 C 0.64961 0.77843 1.04820
 C95 C 0.63213 0.73390 1.11442
 C96 C 0.56218 0.70692 1.12903
 C97 C 0.47571 0.77875 0.96573
 C98 C 0.40726 0.78940 0.99000
 C99 C 0.35238 0.77128 0.94539
 C100 C 0.37052 0.72459 0.88180
 C101 C 0.44270 0.70796 0.86260
 C102 C 0.49203 0.74716 0.89868
 H103 H 0.46241 0.70131 1.08285
 H104 H 0.60507 0.82713 0.95104
 H105 H 0.39724 0.81455 1.04373
 H106 H 0.54587 0.74339 0.88062
 H107 H 0.67066 0.72034 1.15461
 H108 H 0.33063 0.70231 0.84755
 B109 B 0.99444 1.09309 0.04938
 B110 B 1.04133 1.00757 0.08003
 B111 B 0.94635 1.01054 0.07534
 B112 B 0.92368 1.06584 -0.00595
 B113 B 1.00636 1.09629 -0.04970
 B114 B 1.07654 1.06321 0.00341
 B115 B 0.99909 0.93011 -0.05201
 B116 B 0.95868 1.01523 -0.08438
 B117 B 1.05320 1.01446 -0.07913
 B118 B 1.07833 0.95935 -0.00239
 B119 B 0.99937 0.92572 0.04508
 B120 B 0.92120 0.96187 -0.00436
 B121 B 0.57633 0.49132 0.44710
 B122 B 0.50206 0.54633 0.42204
 B123 B 0.49848 0.44435 0.41662
 B124 B 0.54300 0.40657 0.49273
 B125 B 0.57661 0.47879 0.55023
 B126 B 0.55450 0.56700 0.50647
 B127 B 0.42177 0.49543 0.55294
 B128 B 0.49341 0.43421 0.57912
 B129 B 0.50407 0.53428 0.58504
 B130 B 0.46085 0.57748 0.50565
 B131 B 0.42318 0.49937 0.45201
 B132 B 0.44843 0.41175 0.49893
 C133 C 1.01620 1.30321 0.18984
 C134 C 0.93778 1.29881 0.16534
 C135 C 0.92303 1.23609 0.12136
 C136 C 0.98583 1.18107 0.10556
 C137 C 1.03530 1.24147 0.07392
 C138 C 1.05240 1.30132 0.11582
 C139 C 1.02563 1.22816 0.22697
 C140 C 1.00387 1.16954 0.18735
 H141 H 0.89956 1.34319 0.17261
 H142 H 0.87463 1.23418 0.09367
 H143 H 1.05658 1.23951 0.01983
 H144 H 1.08579 1.34627 0.09458
 H145 H 1.03639 1.22198 0.28535
 H146 H 0.99662 1.11844 0.21562
 C147 C 0.97257 0.70319 0.17812
 C148 C 0.91347 0.74455 0.14305
 C149 C 0.93495 0.80399 0.10108
 C150 C 1.00781 0.82858 0.09293
 C151 C 1.03580 0.82297 0.17349
 C152 C 1.01549 0.76285 0.21706
 C153 C 1.01925 0.68480 0.10993
 C154 C 1.03703 0.74781 0.06617
 H155 H 0.87241 0.70926 0.11986
 H156 H 0.90879 0.80874 0.15517
 H157 H 1.06866 0.86281 0.19724
 H158 H 1.03301 0.75601 0.27324
 H159 H 1.04091 0.62921 0.09973
 H160 H 1.07778 0.73571 0.02673
 C161 C 0.98758 1.31389 -0.18019
 C162 C 1.06507 1.30843 -0.15550
 C163 C 1.07956 1.24278 -0.11394
 C164 C 1.01660 1.18667 -0.10105
 C165 C 0.96548 1.24371 -0.06792
 C166 C 0.95054 1.30735 -0.10648
 C167 C 0.97940 1.24116 -0.22072
 C168 C 0.99993 1.17994 -0.18269
 H169 H 1.10256 1.35357 -0.16174
 H170 H 1.12747 1.23958 -0.08566
 H171 H 0.94230 1.23665 -0.01466
 H172 H 0.91692 1.35106 -0.08346
 H173 H 0.96997 1.23847 -0.27958
 H174 H 1.00753 1.13046 -0.21198
 C175 C 1.02205 0.71647 -0.18470
 C176 C 1.08081 0.75143 -0.14603
 C177 C 1.05968 0.80817 -0.10164
 C178 C 0.98881 0.83855 -0.10044
 C179 C 0.96498 0.83782 -0.18210
 C180 C 0.98558 0.77964 -0.22535
 C181 C 0.97009 0.69880 -0.11818
 C182 C 0.95466 0.76159 -0.07382
 H183 H 1.12720 0.71974 -0.13264
 H184 H 1.08298 0.81271 -0.05132
 H185 H 0.93469 0.87976 -0.20729
 H186 H 0.97090 0.77617 -0.28272
 H187 H 0.95033 0.64295 -0.10497
 H188 H 0.92130 0.75490 -0.02555
 C189 C 1.16667 1.04563 0.28314
 C190 C 1.19387 0.97817 0.23797
 C191 C 1.15228 0.95883 0.18121
 C192 C 1.08656 1.00869 0.16892
 C193 C 1.05165 1.00413 0.24846
 C194 C 1.09206 1.02299 0.30579
 C195 C 1.15797 1.10738 0.22761
 C196 C 1.11727 1.08614 0.17301
 H197 H 1.24225 0.94895 0.24861
 H198 H 1.16825 0.91434 0.14601
 H199 H 0.99825 1.00514 0.26369
 H200 H 1.07009 1.03054 0.36130
 H201 H 1.17797 1.16414 0.22943
 H202 H 1.10309 1.12342 0.13381
 C203 C 1.18339 0.97078 -0.28347
 C204 C 1.12105 0.92433 -0.26403
 C205 C 1.08624 0.94870 -0.20402
 C206 C 1.11196 1.01423 -0.16058
 C207 C 1.19162 0.99957 -0.15519
 C208 C 1.22733 0.97271 -0.21608
 C209 C 1.15520 1.05391 -0.28585
 C210 C 1.12018 1.07604 -0.22170
 H211 H 1.09894 0.88343 -0.30076
 H212 H 1.03587 0.93431 -0.19679
 H213 H 1.22297 1.02196 -0.11592
 H214 H 1.28364 0.96923 -0.21891
 H215 H 1.17546 1.09596 -0.32482
 H216 H 1.12004 1.13538 -0.21005
 C217 C 0.82206 0.95922 0.28478
 C218 C 0.77469 0.96511 0.21984
 C219 C 0.80691 0.99589 0.15777
 C220 C 0.88828 1.00755 0.15860
 C221 C 0.88366 1.06631 0.22081
 C222 C 0.85141 1.04214 0.28624
 C223 C 0.88263 0.91255 0.26073
 C224 C 0.91553 0.93960 0.20006
 H225 H 0.71857 0.96136 0.22595
 H226 H 0.77282 1.02039 0.12081
 H227 H 0.88275 1.12593 0.20958
 H228 H 0.83261 1.08370 0.32570
 H229 H 0.90548 0.86880 0.29492
 H230 H 0.96557 0.92277 0.18940
 C231 C 0.83809 1.06043 -0.29212
 C232 C 0.81080 0.99273 -0.24646
 C233 C 0.85098 0.97350 -0.18857
 C234 C 0.91499 1.02372 -0.17428
 C235 C 0.95243 1.02096 -0.25250
 C236 C 0.91371 1.03965 -0.31153
 C237 C 0.84328 1.12248 -0.23729
 C238 C 0.88248 1.10173 -0.17997
 H239 H 0.76281 0.96352 -0.25732
 H240 H 0.83437 0.92943 -0.15307
 H241 H 1.00622 1.02393 -0.26553
 H242 H 0.93741 1.04857 -0.36625
 H243 H 0.82117 1.17850 -0.24162
 H244 H 0.89377 1.13917 -0.14017
 C245 C 1.28931 1.17301 0.04249
 C246 C 1.27039 1.09878 0.07907
 C247 C 1.20740 1.07363 0.06170
 C248 C 1.16042 1.11956 0.01309
 C249 C 1.16940 1.19912 0.05281
 C250 C 1.23346 1.22706 0.06383
 C251 C 1.27524 1.16139 -0.04106
 C252 C 1.20897 1.13610 -0.05505
 H253 H 1.30531 1.06508 0.11222
 H254 H 1.19287 1.01985 0.07803
 H255 H 1.14689 1.21769 0.10326
 H256 H 1.24197 1.27615 0.09792
 H257 H 1.31011 1.18128 -0.08527
 H258 H 1.19055 1.13903 -0.11056
 C259 C 0.70781 1.17469 -0.04373
 C260 C 0.72944 1.10394 -0.08318
 C261 C 0.79375 1.08013 -0.06746
 C262 C 0.83943 1.12351 -0.01628
 C263 C 0.82749 1.20586 -0.05259
 C264 C 0.76186 1.23150 -0.06395
 C265 C 0.72368 1.15860 0.03944
 C266 C 0.79080 1.13418 0.05226
 H267 H 0.69515 1.07060 -0.11634
 H268 H 0.80897 1.02728 -0.08413
 H269 H 0.85242 1.23134 -0.09878
 H270 H 0.75115 1.28123 -0.09768
 H271 H 0.68916 1.17567 0.08481
 H272 H 0.80982 1.13448 0.10760
 C273 C 1.28635 0.81204 -0.03860
 C274 C 1.23709 0.78588 0.02537
 C275 C 1.17868 0.83111 0.03768
 C276 C 1.16784 0.90165 -0.01415
 C277 C 1.24204 0.93771 -0.00817
 C278 C 1.29966 0.89437 -0.01929
 C279 C 1.24095 0.81895 -0.10330
 C280 C 1.18531 0.86411 -0.09160
 H281 H 1.24863 0.73795 0.06076
 H282 H 1.14588 0.81910 0.08495
 H283 H 1.25709 0.99359 -0.01886
 H284 H 1.35020 0.92088 -0.02790
 H285 H 1.25274 0.79582 -0.15753
 H286 H 1.15824 0.87108 -0.13961
 C287 C 0.71456 0.81928 0.03025
 C288 C 0.70081 0.90302 0.01501
 C289 C 0.75897 0.94541 0.00312
 C290 C 0.83259 0.90641 0.00174
 C291 C 0.81885 0.86634 0.07583
 C292 C 0.76429 0.82084 0.09120
 C293 C 0.75936 0.79571 -0.03772
 C294 C 0.81816 0.83934 -0.05166
 H295 H 0.65109 0.92982 0.02817
 H296 H 0.74747 1.00091 0.01821
 H297 H 0.84170 0.88227 0.12156
 H298 H 0.75306 0.80234 0.14761
 H299 H 0.74500 0.75026 -0.07376
 H300 H 0.84804 0.82798 -0.10107
 C301 C 0.78418 0.55290 0.32898
 C302 C 0.73016 0.61449 0.32665
 C303 C 0.66746 0.59321 0.35669
 C304 C 0.65707 0.51061 0.38726
 C305 C 0.68642 0.46714 0.31688
 C306 C 0.75092 0.48775 0.28870
 C307 C 0.78152 0.52703 0.41010
 C308 C 0.71798 0.50520 0.43538
 H309 H 0.73897 0.67095 0.30490
 H310 H 0.62910 0.63412 0.35456
 H311 H 0.65759 0.43584 0.27925
 H312 H 0.77143 0.46675 0.23624
 H313 H 0.82143 0.54063 0.44897
 H314 H 0.70634 0.51169 0.49010
 C315 C 0.21110 0.46112 0.33861
 C316 C 0.27463 0.43862 0.29320
 C317 C 0.33516 0.46675 0.31975
 C318 C 0.33570 0.50069 0.40006
 C319 C 0.28436 0.56713 0.38019
 C320 C 0.22242 0.54751 0.34845
 C321 C 0.22225 0.43051 0.41525
 C322 C 0.28215 0.45265 0.44570
 H323 H 0.27028 0.42731 0.23462
 H324 H 0.36250 0.49305 0.27522
 H325 H 0.29366 0.62561 0.38203
 H326 H 0.18788 0.59027 0.32662
 H327 H 0.18595 0.39304 0.44423
 H328 H 0.29425 0.42919 0.49731
 C329 C 0.78472 0.44726 0.68069
 C330 C 0.75714 0.52837 0.66887
 C331 C 0.69589 0.53366 0.63224
 C332 C 0.66137 0.46049 0.60791
 C333 C 0.72481 0.41822 0.57012
 C334 C 0.78570 0.41320 0.60472
 C335 C 0.72611 0.40948 0.72153
 C336 C 0.66604 0.41249 0.68386
 H337 H 0.78036 0.57745 0.69325
 H338 H 0.67021 0.58649 0.62858
 H339 H 0.72778 0.39820 0.51661
 H340 H 0.83128 0.38686 0.57903
 H341 H 0.73393 0.36888 0.76599
 H342 H 0.64172 0.35990 0.69664
 C343 C 0.20075 0.55509 0.65602
 C344 C 0.25678 0.57428 0.70691
 C345 C 0.32061 0.55317 0.68244
 C346 C 0.33120 0.51102 0.60499
 C347 C 0.27663 0.44748 0.62488
 C348 C 0.21061 0.46933 0.64813
 C349 C 0.22250 0.58604 0.58067
 C350 C 0.28602 0.56242 0.55570
 H351 H 0.24905 0.60945 0.75533
 H352 H 0.34961 0.59515 0.70718
 H353 H 0.28814 0.39244 0.64177
 H354 H 0.17423 0.42909 0.67293
 H355 H 0.19151 0.62598 0.54976
 H356 H 0.30662 0.58713 0.50681
 C357 C 0.53509 0.66588 0.20009
 C358 C 0.45649 0.63938 0.21027
 C359 C 0.44029 0.60771 0.27959
 C360 C 0.50172 0.59982 0.33249
 C361 C 0.55480 0.56119 0.27952
 C362 C 0.57500 0.59546 0.21569
 C363 C 0.54280 0.71674 0.26505
 C364 C 0.51734 0.68623 0.32886
 H365 H 0.41404 0.65595 0.17583
 H366 H 0.38715 0.60628 0.29812
 H367 H 0.56854 0.50424 0.28713
 H368 H 0.60780 0.56736 0.17457
 H369 H 0.54445 0.77760 0.25773
 H370 H 0.48674 0.72680 0.36035
 C371 C 0.47158 0.65824 0.79937
 C372 C 0.46450 0.70094 0.72791
 C373 C 0.48914 0.66310 0.66892
 C374 C 0.50771 0.58059 0.67588
 C375 C 0.56796 0.59179 0.73200
 C376 C 0.54952 0.63164 0.79576
 C377 C 0.43585 0.58393 0.79357
 C378 C 0.45458 0.54549 0.73128
 H379 H 0.45585 0.76144 0.72515
 H380 H 0.50411 0.69306 0.62221
 H381 H 0.61509 0.55978 0.73341
 H382 H 0.58311 0.63148 0.84283
 H383 H 0.39798 0.56257 0.83420
 H384 H 0.42892 0.49465 0.72086
 C385 C 0.47391 0.30025 0.20730
 C386 C 0.55302 0.30875 0.22458
 C387 C 0.56503 0.35012 0.28855
 C388 C 0.50033 0.38655 0.32837
 C389 C 0.46537 0.42291 0.26081
 C390 C 0.44921 0.38026 0.20220
 C391 C 0.44478 0.27009 0.27932
 C392 C 0.46442 0.31109 0.33766
 H393 H 0.59324 0.27199 0.20210
 H394 H 0.61132 0.33690 0.31719
 H395 H 0.46397 0.48051 0.24945
 H396 H 0.43085 0.40523 0.15124
 H397 H 0.42647 0.21256 0.28641
 H398 H 0.46829 0.28367 0.38633
 C399 C 0.51122 0.29403 0.79185
 C400 C 0.43294 0.31811 0.78459
 C401 C 0.41942 0.36001 0.71991
 C402 C 0.48365 0.37465 0.66564
 C403 C 0.53087 0.40790 0.72275
 C404 C 0.54579 0.36902 0.78508
 C405 C 0.52520 0.25287 0.72022
 C406 C 0.50540 0.29098 0.65892
 H407 H 0.39336 0.31041 0.82784
 H408 H 0.36997 0.38685 0.71453
 H409 H 0.55454 0.45976 0.71398
 H410 H 0.57906 0.39185 0.82670
 H411 H 0.54035 0.19392 0.71824
 H412 H 0.50550 0.26206 0.60915
 C413 C 0.68309 0.77960 0.47491
 C414 C 0.72809 0.71014 0.46971
 C415 C 0.69540 0.64652 0.49519
 C416 C 0.61495 0.64979 0.51297
 C417 C 0.62089 0.70782 0.57672
 C418 C 0.65534 0.77448 0.55824
 C419 C 0.62022 0.76412 0.43224
 C420 C 0.58757 0.70087 0.45559
 H421 H 0.78445 0.71389 0.46811
 H422 H 0.73137 0.61298 0.52549
 H423 H 0.61529 0.69347 0.63460
 H424 H 0.67301 0.80922 0.60267
 H425 H 0.59448 0.80654 0.39894
 H426 H 0.53586 0.69449 0.44929
 C427 C 0.68803 0.21126 0.52089
 C428 C 0.71588 0.26728 0.46155
 C429 C 0.66837 0.32228 0.44213
 C430 C 0.59720 0.32163 0.48472
 C431 C 0.57691 0.23932 0.46446
 C432 C 0.62089 0.18271 0.48652
 C433 C 0.66200 0.25722 0.58358
 C434 C 0.61833 0.31084 0.56284
 H435 H 0.76739 0.26342 0.43585
 H436 H 0.68314 0.36311 0.40178
 H437 H 0.54538 0.22255 0.42041
 H438 H 0.61412 0.12525 0.46826
 H439 H 0.67088 0.24655 0.64154
 H440 H 0.59770 0.34507 0.60154
 C441 C 0.33494 0.79131 0.54602
 C442 C 0.41104 0.81416 0.54171
 C443 C 0.45540 0.75614 0.52494
 C444 C 0.42197 0.67485 0.51232
 C445 C 0.37721 0.67259 0.58070
 C446 C 0.33211 0.72731 0.59997
 C447 C 0.32456 0.75373 0.46944
 C448 C 0.37199 0.69775 0.45229
 H449 H 0.42938 0.86965 0.55643
 H450 H 0.50850 0.77054 0.53243
 H451 H 0.38971 0.63077 0.61454
 H452 H 0.30275 0.72586 0.65203
 H453 H 0.29072 0.77629 0.42765
 H454 H 0.38305 0.68341 0.39580
 C455 C 0.30550 0.21372 0.46252
 C456 C 0.31049 0.27619 0.40788
 C457 C 0.35523 0.32868 0.42697
 C458 C 0.39518 0.32435 0.49782
 C459 C 0.33757 0.30610 0.55618
 C460 C 0.28841 0.25291 0.53735
 C461 C 0.38046 0.18694 0.47270
 C462 C 0.42427 0.24182 0.49532
 H463 H 0.28464 0.28042 0.35580
 H464 H 0.36846 0.36811 0.38776
 H465 H 0.35065 0.30689 0.61343
 H466 H 0.25450 0.22716 0.57937
 H467 H 0.39520 0.12782 0.47464
 H468 H 0.46865 0.22043 0.51992
   
