data_POSCAR
  _audit_creation_date              2014-09-24
  _audit_creation_method            'ToBaCCo'
  _symmetry_space_group_name_H-M    'P1'
  _symmetry_Int_Tables_number       1
  _symmetry_cell_setting            triclinic
  loop_
  _symmetry_equiv_pos_as_xyz
 x,y,z
_cell_length_a 40.7992
_cell_length_b 40.5112
_cell_length_c 8.8792
_cell_angle_alpha 90.000100
_cell_angle_beta 89.999900
_cell_angle_gamma 89.999900
loop_
  _atom_site_label
  _atom_site_type_symbol
  _atom_site_fract_x
  _atom_site_fract_y
  _atom_site_fract_z
O1 O 0.28642 0.21761 0.15834
 O2 O 0.22381 0.28164 0.09511
 O3 O 0.28628 0.28173 0.15853
 O4 O 0.22391 0.21747 0.09507
 O5 O 0.21248 0.21744 0.33849
 O6 O 0.27484 0.28170 0.40198
 O7 O 0.21238 0.28158 0.33856
 O8 O 0.27500 0.21756 0.40179
 Cu9 Cu 0.25629 0.24961 0.10236
 Cu10 Cu 0.24248 0.24956 0.39459
 C11 C 0.29146 0.20696 0.29066
 C12 C 0.20738 0.29228 0.20627
 C13 C 0.29125 0.29241 0.29087
 C14 C 0.20749 0.20677 0.20616
 O15 O 0.78643 0.28138 0.33955
 O16 O 0.72406 0.21712 0.40301
 O17 O 0.78658 0.21725 0.33975
 O18 O 0.72397 0.28127 0.40298
 O19 O 0.71254 0.28122 0.15953
 O20 O 0.77516 0.21720 0.09630
 O21 O 0.71263 0.21709 0.15958
 O22 O 0.77500 0.28135 0.09610
 Cu23 Cu 0.75645 0.24925 0.39571
 Cu24 Cu 0.74264 0.24919 0.10348
 C25 C 0.79139 0.29207 0.20721
 C26 C 0.70763 0.20643 0.29193
 C27 C 0.79162 0.20659 0.20744
 C28 C 0.70754 0.29191 0.29182
 O29 O 0.71354 0.71768 0.84102
 O30 O 0.77616 0.78170 0.90425
 O31 O 0.71367 0.78181 0.84090
 O32 O 0.77604 0.71755 0.90436
 O33 O 0.78747 0.71752 0.66094
 O34 O 0.72510 0.78178 0.59745
 O35 O 0.78759 0.78165 0.66080
 O36 O 0.72498 0.71762 0.59757
 Cu37 Cu 0.74366 0.74969 0.89702
 Cu38 Cu 0.75747 0.74963 0.60480
 C39 C 0.70853 0.70700 0.70871
 C40 C 0.79260 0.79232 0.79310
 C41 C 0.70870 0.79248 0.70856
 C42 C 0.79246 0.70685 0.79328
 O43 O 0.28671 0.78259 0.84146
 O44 O 0.22409 0.71857 0.90469
 O45 O 0.28658 0.71847 0.84136
 O46 O 0.22421 0.78273 0.90482
 O47 O 0.21279 0.78276 0.66140
 O48 O 0.27515 0.71850 0.59791
 O49 O 0.21266 0.71862 0.66125
 O50 O 0.27528 0.78265 0.59802
 Cu51 Cu 0.25659 0.75059 0.89748
 Cu52 Cu 0.24278 0.75064 0.60525
 C53 C 0.29173 0.79326 0.70915
 C54 C 0.20766 0.70794 0.79354
 C55 C 0.29156 0.70780 0.70901
 C56 C 0.20780 0.79344 0.79373
 C57 C 1.03057 0.06838 0.06726
 C58 C 1.00072 0.08488 0.08358
 C59 C 0.97094 0.06825 0.06735
 C60 C 0.97069 0.03415 0.03382
 C61 C 1.00086 0.01711 0.01698
 C62 C 1.03096 0.03428 0.03375
 C63 C 1.06057 0.01691 0.01661
 C64 C 1.06063 -0.01670 -0.01640
 C65 C 1.03110 -0.03419 -0.03349
 C66 C 1.00093 -0.01715 -0.01667
 C67 C 0.94115 0.01666 0.01672
 C68 C 0.94122 -0.01695 -0.01631
 C69 C 0.97083 -0.03431 -0.03346
 C70 C 0.97122 -0.06841 -0.06697
 C71 C 1.00106 -0.08491 -0.08326
 C72 C 1.03084 -0.06829 -0.06699
 H73 H 1.08399 0.02920 0.02860
 H74 H 1.08410 -0.02889 -0.02844
 H75 H 0.91768 0.02884 0.02877
 H76 H 0.91780 -0.02923 -0.02831
 H77 H 1.00066 0.11107 0.10936
 H78 H 1.00111 -0.11111 -0.10903
 C79 C 0.52959 0.56821 0.56815
 C80 C 0.49981 0.58482 0.58462
 C81 C 0.46997 0.56833 0.56812
 C82 C 0.46958 0.53426 0.53418
 C83 C 0.49968 0.51710 0.51719
 C84 C 0.52984 0.53413 0.53423
 C85 C 0.55938 0.51665 0.51691
 C86 C 0.55931 0.48306 0.48349
 C87 C 0.52970 0.46570 0.46612
 C88 C 0.49961 0.48286 0.48311
 C89 C 0.43997 0.51690 0.51682
 C90 C 0.43990 0.48331 0.48337
 C91 C 0.46944 0.46583 0.46606
 C92 C 0.46969 0.43175 0.43213
 C93 C 0.49947 0.41514 0.41569
 C94 C 0.52931 0.43163 0.43221
 H95 H 0.58285 0.52883 0.52910
 H96 H 0.58273 0.47078 0.47134
 H97 H 0.41655 0.52918 0.52897
 H98 H 0.41643 0.47113 0.47117
 H99 H 0.49987 0.61101 0.61070
 H100 H 0.49941 0.38896 0.38961
 C101 C -0.03053 0.43193 0.06682
 C102 C -0.00072 0.41538 0.08303
 C103 C 0.02909 0.43194 0.06678
 C104 C 0.02941 0.46604 0.03338
 C105 C -0.00073 0.48314 0.01661
 C106 C -0.03086 0.46603 0.03338
 C107 C -0.06044 0.48346 0.01628
 C108 C -0.06044 0.51707 -0.01668
 C109 C -0.03087 0.53451 -0.03375
 C110 C -0.00073 0.51741 -0.01695
 C111 C 0.05898 0.48348 0.01632
 C112 C 0.05897 0.51709 -0.01660
 C113 C 0.02940 0.53452 -0.03369
 C114 C 0.02907 0.56862 -0.06711
 C115 C -0.00075 0.58518 -0.08339
 C116 C -0.03056 0.56861 -0.06720
 H117 H -0.08388 0.47121 0.02828
 H118 H -0.08389 0.52930 -0.02869
 H119 H 0.08243 0.47124 0.02831
 H120 H 0.08242 0.52933 -0.02858
 H121 H -0.00071 0.38918 0.10873
 H122 H -0.00075 0.61138 -0.10911
 C123 C 0.47069 0.93200 0.56802
 C124 C 0.50050 0.91544 0.58449
 C125 C 0.53032 0.93198 0.56791
 C126 C 0.53065 0.96606 0.53393
 C127 C 0.50052 0.98316 0.51691
 C128 C 0.47038 0.96607 0.53399
 C129 C 0.44081 0.98350 0.51662
 C130 C 0.44082 1.01708 0.48308
 C131 C 0.47040 1.03449 0.46568
 C132 C 0.50053 1.01739 0.48274
 C133 C 0.56023 0.98347 0.51654
 C134 C 0.56023 1.01706 0.48305
 C135 C 0.53066 1.03448 0.46568
 C136 C 0.53035 1.06856 0.43169
 C137 C 0.50053 1.08511 0.41514
 C138 C 0.47072 1.06856 0.43164
 H139 H 0.41737 0.97128 0.52884
 H140 H 0.41737 1.02931 0.47088
 H141 H 0.58367 0.97124 0.52873
 H142 H 0.58368 1.02928 0.47085
 H143 H 0.50049 0.88926 0.61063
 H144 H 0.50053 1.11129 0.38898
 C145 C 1.18356 0.18407 0.18278
 C146 C 1.16168 0.16455 0.16288
 C147 C 1.13533 0.14251 0.14064
 C148 C 1.11222 0.12441 0.12255
 C149 C 1.08448 0.10406 0.10236
 C150 C 1.06025 0.08742 0.08594
 C151 C 0.68316 0.68309 0.68411
 C152 C 0.66117 0.66370 0.66429
 C153 C 0.63469 0.64181 0.64207
 C154 C 0.61149 0.62384 0.62393
 C155 C 0.58366 0.60363 0.60362
 C156 C 0.55936 0.58711 0.58706
 C157 C -0.18339 0.31614 0.18256
 C158 C -0.16155 0.33569 0.16270
 C159 C -0.13524 0.35777 0.14044
 C160 C -0.11217 0.37592 0.12229
 C161 C -0.08446 0.39629 0.10202
 C162 C -0.06024 0.41294 0.08554
 C163 C 0.31712 0.81715 0.68452
 C164 C 0.33912 0.83652 0.66466
 C165 C 0.36562 0.85838 0.64236
 C166 C 0.38883 0.87634 0.62413
 C167 C 0.41667 0.89653 0.60372
 C168 C 0.44096 0.91307 0.58706
 C169 C -0.18362 0.68414 -0.18333
 C170 C -0.16175 0.66462 -0.16336
 C171 C -0.13539 0.64259 -0.14102
 C172 C -0.11228 0.62450 -0.12282
 C173 C -0.08453 0.60418 -0.10251
 C174 C -0.06028 0.58758 -0.08599
 C175 C 0.31690 1.18312 0.31531
 C176 C 0.33895 1.16381 0.33516
 C177 C 0.36552 1.14203 0.35742
 C178 C 0.38878 1.12413 0.37561
 C179 C 0.41666 1.10401 0.39597
 C180 C 0.44098 1.08750 0.41261
 C181 C 1.18390 -0.18384 -0.18289
 C182 C 1.16204 -0.16429 -0.16295
 C183 C 1.13571 -0.14224 -0.14064
 C184 C 1.11260 -0.12413 -0.12247
 C185 C 1.08486 -0.10381 -0.10220
 C186 C 1.06060 -0.08722 -0.08572
 C187 C 0.68225 0.31591 0.31638
 C188 C 0.66035 0.33540 0.33618
 C189 C 0.63400 0.35744 0.35839
 C190 C 0.61091 0.37556 0.37653
 C191 C 0.58320 0.39593 0.39682
 C192 C 0.55899 0.41259 0.41336
 C193 C 0.81795 -0.18374 -0.18232
 C194 C 0.83991 -0.16432 -0.16254
 C195 C 0.86635 -0.14238 -0.14040
 C196 C 0.88951 -0.12434 -0.12233
 C197 C 0.91728 -0.10405 -0.10215
 C198 C 0.94152 -0.08743 -0.08571
 C199 C 0.31650 0.31643 0.31557
 C200 C 0.33839 0.33593 0.33548
 C201 C 0.36477 0.35793 0.35784
 C202 C 0.38790 0.37600 0.37610
 C203 C 0.41566 0.39628 0.39652
 C204 C 0.43993 0.41285 0.41317
 C205 C 0.18232 0.68398 -0.18191
 C206 C 0.16038 0.66454 -0.16218
 C207 C 0.13396 0.64257 -0.14011
 C208 C 0.11082 0.62451 -0.12213
 C209 C 0.08305 0.60421 -0.10206
 C210 C 0.05879 0.58760 -0.08572
 C211 C 0.68366 1.18377 0.31534
 C212 C 0.66174 1.16430 0.33530
 C213 C 0.63532 1.14235 0.35763
 C214 C 0.61215 1.12433 0.37584
 C215 C 0.58435 1.10408 0.39618
 C216 C 0.56008 1.08751 0.41276
 C217 C 0.18210 0.31628 0.18174
 C218 C 0.16021 0.33579 0.16200
 C219 C 0.13386 0.35784 0.13990
 C220 C 0.11076 0.37596 0.12188
 C221 C 0.08304 0.39632 0.10177
 C222 C 0.05881 0.41296 0.08540
 C223 C 0.68343 0.81651 0.68388
 C224 C 0.66154 0.83600 0.66402
 C225 C 0.63516 0.85801 0.64177
 C226 C 0.61204 0.87609 0.62362
 C227 C 0.58429 0.89640 0.60332
 C228 C 0.56004 0.91301 0.58678
 C229 C 0.81705 0.18274 0.18281
 C230 C 0.83910 0.16342 0.16302
 C231 C 0.86566 0.14163 0.14086
 C232 C 0.88893 0.12374 0.12280
 C233 C 0.91682 0.10362 0.10260
 C234 C 0.94116 0.08714 0.08614
 C235 C 0.31684 0.68380 0.68432
 C236 C 0.33876 0.66433 0.66443
 C237 C 0.36515 0.64234 0.64215
 C238 C 0.38829 0.62428 0.62396
 C239 C 0.41604 0.60398 0.60362
 C240 C 0.44028 0.58735 0.58704
   
