data_POSCAR
  _audit_creation_date              2014-09-24
  _audit_creation_method            'ToBaCCo'
  _symmetry_space_group_name_H-M    'P1'
  _symmetry_Int_Tables_number       1
  _symmetry_cell_setting            triclinic
  loop_
  _symmetry_equiv_pos_as_xyz
 x,y,z
_cell_length_a 54.0919
_cell_length_b 49.2120
_cell_length_c 26.0990
_cell_angle_alpha 90.366200
_cell_angle_beta 89.957200
_cell_angle_gamma 89.867500
loop_
  _atom_site_label
  _atom_site_type_symbol
  _atom_site_fract_x
  _atom_site_fract_y
  _atom_site_fract_z
C1 C 1.27150 0.22384 0.26629
 C2 C 1.25055 0.23810 0.24882
 C3 C 1.23078 0.22358 0.22714
 C4 C 1.23173 0.19526 0.22275
 C5 C 1.25268 0.18139 0.24009
 C6 C 1.27295 0.19520 0.26195
 C7 C 1.24897 0.26819 0.25317
 C8 C 1.26884 0.28473 0.23835
 C9 C 1.26703 0.31346 0.23978
 C10 C 1.24451 0.32500 0.25739
 C11 C 1.22456 0.30864 0.27266
 C12 C 1.22706 0.28034 0.27052
 H13 H 1.28672 0.23532 0.28225
 H14 H 1.21471 0.23436 0.21297
 H15 H 1.28576 0.27482 0.22642
 H16 H 1.21165 0.26763 0.28165
 H17 H 1.25220 0.15941 0.23944
 H18 H 1.24185 0.34677 0.25772
 C19 C 0.77312 -0.27731 0.27091
 C20 C 0.75147 -0.26606 0.25022
 C21 C 0.73182 -0.28322 0.23690
 C22 C 0.73368 -0.31145 0.24352
 C23 C 0.75550 -0.32238 0.26442
 C24 C 0.77569 -0.30559 0.27822
 C25 C 0.74969 -0.23628 0.24182
 C26 C 0.76977 -0.22218 0.22042
 C27 C 0.76848 -0.19405 0.21252
 C28 C 0.74690 -0.18001 0.22629
 C29 C 0.72669 -0.19359 0.24782
 C30 C 0.72817 -0.22180 0.25547
 H31 H 0.78747 -0.26350 0.28331
 H32 H 0.71513 -0.27458 0.22081
 H33 H 0.78630 -0.23319 0.20920
 H34 H 0.71270 -0.23240 0.27250
 H35 H 0.75708 -0.34424 0.26662
 H36 H 0.74621 -0.15812 0.22217
 C37 C 0.77085 0.22215 -0.22958
 C38 C 0.75053 0.23750 -0.24705
 C39 C 0.72868 0.22389 -0.26148
 C40 C 0.72714 0.19545 -0.25815
 C41 C 0.74770 0.18065 -0.24127
 C42 C 0.76968 0.19372 -0.22746
 C43 C 0.75258 0.26758 -0.25108
 C44 C 0.77462 0.27926 -0.26884
 C45 C 0.77771 0.30769 -0.27149
 C46 C 0.75746 0.32430 -0.25693
 C47 C 0.73509 0.31301 -0.23958
 C48 C 0.73287 0.28461 -0.23677
 H49 H 0.78776 0.23230 -0.21832
 H50 H 0.71299 0.23532 -0.27559
 H51 H 0.78896 0.26578 -0.28278
 H52 H 0.71582 0.27573 -0.22310
 H53 H 0.74667 0.15869 -0.23940
 H54 H 0.75932 0.34617 -0.25594
 C55 C 1.26844 -0.28516 -0.24196
 C56 C 1.24886 -0.26809 -0.25651
 C57 C 1.22682 -0.27962 -0.27444
 C58 C 1.22401 -0.30787 -0.27750
 C59 C 1.24371 -0.32474 -0.26251
 C60 C 1.26628 -0.31380 -0.24435
 C61 C 1.25101 -0.23813 -0.25101
 C62 C 1.27261 -0.22459 -0.26665
 C63 C 1.27458 -0.19625 -0.26121
 C64 C 1.25476 -0.18156 -0.24017
 C65 C 1.23312 -0.19466 -0.22448
 C66 C 1.23135 -0.22295 -0.22999
 H67 H 1.28470 -0.27577 -0.22562
 H68 H 1.21164 -0.26650 -0.28545
 H69 H 1.28779 -0.23603 -0.28327
 H70 H 1.21481 -0.23322 -0.21703
 H71 H 1.24156 -0.34643 -0.26746
 H72 H 1.25586 -0.15960 -0.23772
 C73 C 0.21930 0.27030 0.73925
 C74 C 0.23488 0.24891 0.75430
 C75 C 0.22444 0.22505 0.77436
 C76 C 0.19867 0.22231 0.78003
 C77 C 0.18358 0.24419 0.76493
 C78 C 0.19360 0.26802 0.74459
 C79 C 0.26212 0.25108 0.74895
 C80 C 0.27464 0.27483 0.76392
 C81 C 0.30068 0.27672 0.76034
 C82 C 0.31374 0.25387 0.74107
 C83 C 0.30142 0.23002 0.72606
 C84 C 0.27565 0.22893 0.72981
 H85 H 0.22711 0.28859 0.72301
 H86 H 0.23669 0.20916 0.78757
 H87 H 0.26376 0.29187 0.77750
 H88 H 0.26601 0.21080 0.71723
 H89 H 0.16365 0.24224 0.76546
 H90 H 0.33373 0.25367 0.74061
 C91 C 0.72244 0.77061 0.72685
 C92 C 0.73568 0.74828 0.74536
 C93 C 0.72306 0.72442 0.75808
 C94 C 0.69712 0.72258 0.75325
 C95 C 0.68423 0.74559 0.73465
 C96 C 0.69655 0.76991 0.72153
 C97 C 0.76281 0.75034 0.75248
 C98 C 0.77290 0.77371 0.77564
 C99 C 0.79845 0.77602 0.78289
 C100 C 0.81399 0.75491 0.76653
 C101 C 0.80438 0.73156 0.74299
 C102 C 0.77870 0.72933 0.73607
 H103 H 0.73283 0.78819 0.71470
 H104 H 0.73383 0.70724 0.77099
 H105 H 0.76084 0.78993 0.78881
 H106 H 0.77114 0.71141 0.71760
 H107 H 0.66428 0.74546 0.73495
 H108 H 0.83383 0.75716 0.77042
 C109 C 0.72364 0.27591 0.24154
 C110 C 0.73541 0.25156 0.25551
 C111 C 0.72100 0.22971 0.27248
 C112 C 0.69517 0.23148 0.27417
 C113 C 0.68366 0.25594 0.26025
 C114 C 0.69773 0.27832 0.24396
 C115 C 0.76266 0.24832 0.25157
 C116 C 0.77879 0.26932 0.26675
 C117 C 0.80453 0.26544 0.26463
 C118 C 0.81397 0.24028 0.24850
 C119 C 0.79820 0.21922 0.23355
 C120 C 0.77265 0.22349 0.23403
 H121 H 0.73461 0.29288 0.22839
 H122 H 0.72997 0.21120 0.28498
 H123 H 0.77140 0.28849 0.28054
 H124 H 0.76054 0.20721 0.22169
 H125 H 0.66366 0.25724 0.26039
 H126 H 0.83378 0.23696 0.24795
 C127 C 0.22298 0.77613 0.23495
 C128 C 0.23296 0.75213 0.25533
 C129 C 0.21706 0.73095 0.26975
 C130 C 0.19123 0.73337 0.26362
 C131 C 0.18188 0.75765 0.24278
 C132 C 0.19736 0.77920 0.22811
 C133 C 0.26015 0.74943 0.26108
 C134 C 0.27395 0.77132 0.28043
 C135 C 0.29980 0.76988 0.28375
 C136 C 0.31185 0.74589 0.26814
 C137 C 0.29838 0.72361 0.24894
 C138 C 0.27248 0.72557 0.24562
 H139 H 0.23547 0.79186 0.22224
 H140 H 0.22506 0.71248 0.28479
 H141 H 0.26447 0.78954 0.29335
 H142 H 0.26195 0.70867 0.23037
 H143 H 0.16213 0.76096 0.24274
 H144 H 0.33185 0.74493 0.26909
 O145 O 1.03528 0.04933 0.09074
 O146 O 1.06284 0.02410 0.04332
 C147 C 1.05762 0.04266 0.07723
 O148 O 0.96671 -0.04935 0.08715
 O149 O 0.93945 -0.02365 0.04077
 C150 C 0.94449 -0.04297 0.07274
 O151 O 1.03556 -0.04538 0.09540
 O152 O 1.06285 -0.02186 0.04535
 C153 C 1.05784 -0.03895 0.08141
 O154 O 0.96620 0.05138 0.08521
 O155 O 0.93920 0.02458 0.03999
 C156 C 0.94402 0.04418 0.07181
 Zr157 Zr 1.00088 0.03562 0.06200
 O158 O 0.99872 0.03790 0.14286
 O159 O 1.00157 0.07834 0.05415
 Zr160 Zr 1.00110 -0.03259 0.06544
 O161 O 0.99919 -0.02781 0.14586
 O162 O 1.00324 -0.07538 0.07122
 O163 O 1.02315 0.00167 0.07406
 O164 O 0.97917 0.00154 0.07271
 O165 O 0.96720 0.04943 -0.09152
 O166 O 0.93968 0.02412 -0.04518
 C167 C 0.94489 0.04312 -0.07771
 O168 O 1.03648 -0.04880 -0.09066
 O169 O 1.06346 -0.02339 -0.04262
 C170 C 1.05865 -0.04203 -0.07652
 O171 O 0.96722 -0.05119 -0.08737
 O172 O 0.93973 -0.02405 -0.04391
 C173 C 0.94489 -0.04400 -0.07474
 O174 O 1.03623 0.04592 -0.09633
 O175 O 1.06319 0.02251 -0.04520
 C176 C 1.05841 0.03955 -0.08148
 Zr177 Zr 1.00149 0.03353 -0.06703
 O178 O 0.99918 0.03326 -0.14798
 O179 O 1.00270 0.07644 -0.06333
 Zr180 Zr 1.00163 -0.03488 -0.06408
 O181 O 0.99952 -0.03611 -0.14508
 O182 O 1.00282 -0.07772 -0.05902
 Zr183 Zr 1.03819 0.00035 -0.00037
 Zr184 Zr 0.96426 0.00032 -0.00163
 O185 O 0.97994 -0.00080 -0.07536
 O186 O 1.02376 -0.00085 -0.07534
 O187 O 0.97912 0.03980 -0.00309
 O188 O 1.02281 -0.03880 0.00131
 O189 O 1.02278 0.03954 -0.00240
 O190 O 0.97947 -0.03908 0.00045
 H191 H 0.96772 0.00177 0.10237
 H192 H 1.03376 -0.05495 0.00253
 H193 H 0.96881 -0.00116 -0.10550
 H194 H 1.03383 0.05557 -0.00306
 H195 H 0.99629 -0.08286 0.03905
 H196 H 1.00292 -0.08469 -0.09474
 H197 H 1.01387 -0.02598 -0.15855
 H198 H 1.01194 0.02049 -0.16077
 H199 H 1.00316 0.08280 -0.09927
 H200 H 1.00162 0.08589 0.08944
 H201 H 1.00963 0.02349 0.15645
 H202 H 0.99900 -0.04643 0.16008
 O203 O 1.04282 0.46110 0.59146
 O204 O 1.02141 0.43029 0.54224
 C205 C 1.03753 0.43644 0.57739
 O206 O 0.95382 0.53621 0.58743
 O207 O 0.97688 0.56679 0.54186
 C208 C 0.95943 0.56078 0.57416
 O209 O 0.95684 0.46119 0.59370
 O210 O 0.97844 0.43046 0.54442
 C211 C 0.96232 0.43657 0.57973
 O212 O 1.04506 0.53649 0.58685
 O213 O 1.02191 0.56689 0.54065
 C214 C 1.03937 0.56099 0.57307
 Zr215 Zr 1.03073 0.49883 0.56267
 O216 O 1.03202 0.50130 0.64361
 O217 O 1.06968 0.49790 0.55590
 Zr218 Zr 0.96898 0.49863 0.56455
 O219 O 0.97275 0.50037 0.64510
 O220 O 0.92999 0.49663 0.56924
 O221 O 0.99999 0.47419 0.57372
 O222 O 0.99974 0.52288 0.57293
 O223 O 1.04426 0.53588 0.40964
 O224 O 1.02113 0.56660 0.45574
 C225 C 1.03853 0.56050 0.42316
 O226 O 0.95594 0.46016 0.40719
 O227 O 0.97816 0.42997 0.45546
 C228 C 0.96169 0.43568 0.42092
 O229 O 0.95300 0.53548 0.41215
 O230 O 0.97613 0.56644 0.45732
 C231 C 0.95846 0.56015 0.42560
 O232 O 1.04199 0.46067 0.40411
 O233 O 1.02082 0.43020 0.45378
 C234 C 1.03676 0.43613 0.41821
 Zr235 Zr 1.03003 0.49838 0.43391
 O236 O 1.03056 0.50091 0.35297
 O237 O 1.06904 0.49735 0.43891
 Zr238 Zr 0.96814 0.49810 0.43520
 O239 O 0.96791 0.50070 0.35422
 O240 O 0.92912 0.49662 0.43921
 Zr241 Zr 0.99958 0.45753 0.49916
 Zr242 Zr 0.99917 0.53948 0.49894
 O243 O 0.99888 0.52220 0.42508
 O244 O 0.99915 0.47367 0.42447
 O245 O 1.03508 0.52290 0.49814
 O246 O 0.96398 0.47474 0.50005
 O247 O 1.03507 0.47482 0.49819
 O248 O 0.96350 0.52247 0.49991
 H249 H 0.99982 0.53543 0.60279
 H250 H 0.94924 0.46283 0.50055
 H251 H 0.99863 0.53447 0.39512
 H252 H 1.04980 0.46282 0.49778
 H253 H 0.92350 0.50446 0.53711
 H254 H 0.92307 0.49641 0.40336
 H255 H 0.97717 0.48488 0.34059
 H256 H 1.01921 0.48684 0.33963
 H257 H 1.07526 0.49696 0.40318
 H258 H 1.07622 0.49740 0.59134
 H259 H 1.01907 0.48902 0.65684
 H260 H 0.95572 0.50067 0.65912
 O261 O 0.53563 0.04705 0.59380
 O262 O 0.56298 0.02373 0.54244
 C263 C 0.55789 0.04121 0.57851
 O264 O 0.46735 -0.05121 0.58548
 O265 O 0.43923 -0.02479 0.54278
 C266 C 0.44489 -0.04466 0.57319
 O267 O 0.53588 -0.04778 0.59004
 O268 O 0.56306 -0.02325 0.54125
 C269 C 0.55808 -0.04143 0.57565
 O270 O 0.46677 0.04966 0.59106
 O271 O 0.43895 0.02431 0.54484
 C272 C 0.44438 0.04338 0.57762
 Zr273 Zr 0.50099 0.03396 0.56563
 O274 O 0.49948 0.03390 0.64666
 O275 O 0.50175 0.07686 0.56208
 Zr276 Zr 0.50134 -0.03402 0.56315
 O277 O 0.50048 -0.03096 0.64393
 O278 O 0.50335 -0.07692 0.56533
 O279 O 0.52357 -0.00006 0.57370
 O280 O 0.47932 -0.00024 0.57438
 O281 O 0.46563 0.05130 0.41509
 O282 O 0.43839 0.02499 0.46019
 C283 C 0.44342 0.04474 0.42907
 O284 O 0.53501 -0.04629 0.40417
 O285 O 0.56271 -0.02239 0.45328
 C286 C 0.55739 -0.04006 0.41780
 O287 O 0.46615 -0.04952 0.41113
 O288 O 0.43864 -0.02418 0.45840
 C289 C 0.44388 -0.04339 0.42574
 O290 O 0.53419 0.04840 0.40683
 O291 O 0.56226 0.02420 0.45419
 C292 C 0.55663 0.04222 0.41988
 Zr293 Zr 0.50008 0.03498 0.43665
 O294 O 0.49686 0.03652 0.35590
 O295 O 0.50112 0.07778 0.44391
 Zr296 Zr 0.50051 -0.03318 0.43363
 O297 O 0.49731 -0.03211 0.35279
 O298 O 0.50203 -0.07611 0.43438
 Zr299 Zr 0.53782 0.00048 0.49858
 Zr300 Zr 0.46355 0.00019 0.50080
 O301 O 0.47843 0.00087 0.42640
 O302 O 0.52249 0.00106 0.42433
 O303 O 0.47849 0.03965 0.50203
 O304 O 0.52237 -0.03865 0.49757
 O305 O 0.52211 0.03956 0.50063
 O306 O 0.47906 -0.03907 0.49878
 H307 H 0.46814 -0.00057 0.60448
 H308 H 0.53327 -0.05486 0.49675
 H309 H 0.46690 0.00107 0.39691
 H310 H 0.53300 0.05572 0.50082
 H311 H 0.49652 -0.08361 0.53245
 H312 H 0.50185 -0.08212 0.39805
 H313 H 0.51178 -0.02215 0.33940
 H314 H 0.50963 0.02428 0.34142
 H315 H 0.50106 0.08502 0.40856
 H316 H 0.50228 0.08345 0.59803
 H317 H 0.51128 0.01988 0.65850
 H318 H 0.50042 -0.04987 0.65675
 O319 O 0.53481 0.54922 0.09328
 O320 O 0.56206 0.52453 0.04418
 C321 C 0.55711 0.54253 0.07934
 O322 O 0.46590 0.45110 0.08867
 O323 O 0.43838 0.47720 0.04375
 C324 C 0.44354 0.45787 0.07566
 O325 O 0.53484 0.45447 0.09401
 O326 O 0.56223 0.47814 0.04417
 C327 C 0.55713 0.46067 0.07976
 O328 O 0.46580 0.55169 0.08877
 O329 O 0.43820 0.52583 0.04300
 C330 C 0.44346 0.54512 0.07545
 Zr331 Zr 0.50019 0.53587 0.06439
 O332 O 0.49839 0.53733 0.14535
 O333 O 0.50101 0.57865 0.05792
 Zr334 Zr 0.50030 0.46763 0.06556
 O335 O 0.49910 0.47158 0.14619
 O336 O 0.50229 0.42477 0.06941
 O337 O 0.52251 0.50179 0.07472
 O338 O 0.47846 0.50175 0.07451
 O339 O 0.46519 0.55049 -0.08872
 O340 O 0.43804 0.52465 -0.04247
 C341 C 0.44294 0.54366 -0.07517
 O342 O 0.53516 0.45294 -0.09191
 O343 O 0.56236 0.47808 -0.04390
 C344 C 0.55745 0.45978 -0.07841
 O345 O 0.46595 0.45039 -0.08714
 O346 O 0.43826 0.47629 -0.04135
 C347 C 0.44360 0.45694 -0.07365
 O348 O 0.53414 0.54777 -0.09455
 O349 O 0.56190 0.52430 -0.04513
 C350 C 0.55653 0.54165 -0.08080
 Zr351 Zr 0.49981 0.53498 -0.06453
 O352 O 0.49724 0.53590 -0.14540
 O353 O 0.50069 0.57782 -0.05851
 Zr354 Zr 0.50030 0.46656 -0.06387
 O355 O 0.49777 0.46600 -0.14484
 O356 O 0.50160 0.42368 -0.06006
 Zr357 Zr 0.53721 0.50124 -0.00006
 Zr358 Zr 0.46302 0.50108 0.00061
 O359 O 0.47838 0.50060 -0.07345
 O360 O 0.52222 0.50077 -0.07460
 O361 O 0.47786 0.54060 0.00009
 O362 O 0.52179 0.46207 0.00079
 O363 O 0.52167 0.54041 -0.00039
 O364 O 0.47834 0.46171 0.00097
 H365 H 0.46720 0.50189 0.10448
 H366 H 0.53274 0.44591 0.00099
 H367 H 0.46715 0.50034 -0.10344
 H368 H 0.53273 0.55643 -0.00065
 H369 H 0.49460 0.41768 0.03766
 H370 H 0.50163 0.41700 -0.09597
 H371 H 0.51209 0.47618 -0.15835
 H372 H 0.50928 0.52251 -0.15894
 H373 H 0.50074 0.58472 -0.09410
 H374 H 0.50136 0.58589 0.09343
 H375 H 0.50933 0.52275 0.15821
 H376 H 0.49900 0.45282 0.15975
 C377 C 1.17135 0.14595 0.17133
 C378 C 1.19527 0.14090 0.15325
 C379 C 1.21476 0.15761 0.16848
 C380 C 1.21057 0.17960 0.20210
 C381 C 1.18633 0.18512 0.21873
 C382 C 1.16682 0.16830 0.20349
 C383 C 1.15173 0.12759 0.15807
 C384 C 1.13559 0.11184 0.14677
 C385 C 1.11647 0.09304 0.13260
 C386 C 1.12152 0.07204 0.09772
 C387 C 1.10257 0.05480 0.08133
 C388 C 1.07828 0.05845 0.09954
 C389 C 1.07360 0.07909 0.13593
 C390 C 1.09259 0.09626 0.15228
 H391 H 1.19893 0.12373 0.12815
 H392 H 1.23322 0.15310 0.15468
 H393 H 1.18265 0.20176 0.24500
 H394 H 1.14834 0.17237 0.21766
 H395 H 1.13998 0.06937 0.08232
 H396 H 1.10683 0.03920 0.05321
 H397 H 1.05514 0.08249 0.15075
 H398 H 1.08852 0.11243 0.17940
 C399 C 1.15472 0.65840 0.67213
 C400 C 1.16729 0.64706 0.71375
 C401 C 1.18987 0.65789 0.72986
 C402 C 1.20024 0.68029 0.70454
 C403 C 1.18748 0.69158 0.66270
 C404 C 1.16488 0.68066 0.64657
 C405 C 1.13184 0.64642 0.65515
 C406 C 1.11315 0.63496 0.64211
 C407 C 1.09176 0.61916 0.62818
 C408 C 1.08597 0.59632 0.65734
 C409 C 1.06769 0.57836 0.64089
 C410 C 1.05480 0.58296 0.59494
 C411 C 1.05957 0.60686 0.56742
 C412 C 1.07815 0.62479 0.58376
 H413 H 1.15964 0.62978 0.73375
 H414 H 1.19905 0.64900 0.76259
 H415 H 1.19512 0.70864 0.64208
 H416 H 1.15543 0.68947 0.61407
 H417 H 1.09634 0.59174 0.69175
 H418 H 1.06434 0.56022 0.66314
 H419 H 1.05000 0.61085 0.53192
 H420 H 1.08252 0.64239 0.56075
 C421 C 0.66664 0.14642 0.69052
 C422 C 0.67692 0.14226 0.73897
 C423 C 0.69578 0.15917 0.75669
 C424 C 0.70466 0.18046 0.72611
 C425 C 0.69352 0.18529 0.67837
 C426 C 0.67463 0.16826 0.66059
 C427 C 0.64857 0.12757 0.67121
 C428 C 0.63353 0.11141 0.65594
 C429 C 0.61526 0.09225 0.63863
 C430 C 0.62064 0.07377 0.59911
 C431 C 0.60232 0.05614 0.58090
 C432 C 0.57834 0.05695 0.60188
 C433 C 0.57345 0.07502 0.64275
 C434 C 0.59177 0.09250 0.66091
 H435 H 0.67078 0.12554 0.76257
 H436 H 0.70391 0.15518 0.79381
 H437 H 0.70019 0.20140 0.65393
 H438 H 0.66673 0.17167 0.62304
 H439 H 0.63884 0.07333 0.58175
 H440 H 0.60670 0.04251 0.54945
 H441 H 0.55525 0.07618 0.65996
 H442 H 0.58745 0.10660 0.69172
 C443 C 0.67444 0.63589 0.19475
 C444 C 0.68685 0.63089 0.24084
 C445 C 0.70608 0.64798 0.25680
 C446 C 0.71315 0.67038 0.22689
 C447 C 0.70056 0.67520 0.18063
 C448 C 0.68137 0.65809 0.16475
 C449 C 0.65460 0.61838 0.17801
 C450 C 0.63791 0.60407 0.16318
 C451 C 0.61784 0.58743 0.14450
 C452 C 0.62226 0.56726 0.10752
 C453 C 0.60262 0.55217 0.08727
 C454 C 0.57817 0.55707 0.10362
 C455 C 0.57400 0.57705 0.14156
 C456 C 0.59368 0.59210 0.16177
 H457 H 0.68164 0.61382 0.26449
 H458 H 0.71524 0.64387 0.29282
 H459 H 0.70577 0.69198 0.15630
 H460 H 0.67199 0.66215 0.12893
 H461 H 0.64086 0.56349 0.09372
 H462 H 0.60656 0.53703 0.05807
 H463 H 0.55547 0.58143 0.15505
 H464 H 0.59000 0.60768 0.19029
 C465 C 0.82951 -0.14618 0.16017
 C466 C 0.83356 -0.16734 0.19478
 C467 C 0.81385 -0.18364 0.21051
 C468 C 0.78986 -0.17881 0.19191
 C469 C 0.78615 -0.15802 0.15595
 C470 C 0.80586 -0.14181 0.14024
 C471 C 0.84935 -0.12824 0.14649
 C472 C 0.86574 -0.11287 0.13524
 C473 C 0.88522 -0.09445 0.12172
 C474 C 0.88039 -0.07263 0.08908
 C475 C 0.89951 -0.05526 0.07447
 C476 C 0.92377 -0.05959 0.09221
 C477 C 0.92829 -0.08126 0.12593
 C478 C 0.90912 -0.09855 0.14054
 H479 H 0.85183 -0.17085 0.21046
 H480 H 0.81719 -0.19933 0.23860
 H481 H 0.76791 -0.15408 0.14054
 H482 H 0.80255 -0.12555 0.11326
 H483 H 0.86192 -0.06926 0.07435
 H484 H 0.89537 -0.03882 0.04846
 H485 H 0.94672 -0.08524 0.14026
 H486 H 0.91303 -0.11536 0.16593
 C487 C 0.84627 0.34169 0.68031
 C488 C 0.84563 0.31584 0.70194
 C489 C 0.82315 0.30463 0.71767
 C490 C 0.80061 0.31909 0.71223
 C491 C 0.80175 0.34528 0.69027
 C492 C 0.82429 0.35634 0.67450
 C493 C 0.86947 0.35363 0.66524
 C494 C 0.88846 0.36467 0.65297
 C495 C 0.91028 0.37963 0.63879
 C496 C 0.92324 0.37342 0.59363
 C497 C 0.94193 0.39081 0.57625
 C498 C 0.94753 0.41474 0.60353
 C499 C 0.93548 0.41980 0.65046
 C500 C 0.91703 0.40237 0.66789
 H501 H 0.86258 0.30443 0.70731
 H502 H 0.82391 0.28505 0.73616
 H503 H 0.78523 0.35709 0.68324
 H504 H 0.82455 0.37639 0.65758
 H505 H 0.91814 0.35590 0.57067
 H506 H 0.95077 0.38649 0.53991
 H507 H 0.93945 0.43801 0.67247
 H508 H 0.90717 0.40741 0.70286
 C509 C 0.33484 -0.14847 0.68296
 C510 C 0.32577 -0.17005 0.65326
 C511 C 0.30682 -0.18650 0.67223
 C512 C 0.29671 -0.18137 0.72099
 C513 C 0.30657 -0.16024 0.75116
 C514 C 0.32549 -0.14390 0.73223
 C515 C 0.35328 -0.13047 0.66281
 C516 C 0.36871 -0.11505 0.64694
 C517 C 0.38749 -0.09676 0.62920
 C518 C 0.38145 -0.07491 0.59738
 C519 C 0.39998 -0.05742 0.58001
 C520 C 0.42478 -0.06168 0.59418
 C521 C 0.43050 -0.08348 0.62686
 C522 C 0.41200 -0.10084 0.64418
 H523 H 0.33295 -0.17378 0.61509
 H524 H 0.29940 -0.20248 0.64807
 H525 H 0.29929 -0.15605 0.78908
 H526 H 0.33250 -0.12738 0.75565
 H527 H 0.36248 -0.07152 0.58577
 H528 H 0.39494 -0.04082 0.55507
 H529 H 0.44936 -0.08742 0.63864
 H530 H 0.41685 -0.11760 0.66899
 C531 C 0.32639 0.36366 0.18888
 C532 C 0.32413 0.33703 0.17067
 C533 C 0.30478 0.32049 0.18748
 C534 C 0.28701 0.33019 0.22314
 C535 C 0.28975 0.35725 0.24119
 C536 C 0.30918 0.37368 0.22424
 C537 C 0.34631 0.38067 0.17102
 C538 C 0.36305 0.39469 0.15569
 C539 C 0.38315 0.41116 0.13695
 C540 C 0.37848 0.43263 0.10332
 C541 C 0.39805 0.44810 0.08400
 C542 C 0.42265 0.44228 0.09794
 C543 C 0.42710 0.42081 0.13219
 C544 C 0.40750 0.40540 0.15149
 H545 H 0.33722 0.32907 0.14291
 H546 H 0.30340 0.30051 0.17032
 H547 H 0.27755 0.36574 0.26996
 H548 H 0.31084 0.39421 0.23904
 H549 H 0.35973 0.43729 0.09170
 H550 H 0.39388 0.46443 0.05775
 H551 H 0.44575 0.41570 0.14375
 H552 H 0.41138 0.38883 0.17743
 C553 C 0.83080 0.14419 -0.17999
 C554 C 0.81711 0.13710 -0.22344
 C555 C 0.79756 0.15354 -0.23934
 C556 C 0.79139 0.17731 -0.21190
 C557 C 0.80558 0.18464 -0.16888
 C558 C 0.82517 0.16809 -0.15295
 C559 C 0.85032 0.12656 -0.16296
 C560 C 0.86653 0.11147 -0.14917
 C561 C 0.88590 0.09343 -0.13300
 C562 C 0.90993 0.09692 -0.15157
 C563 C 0.92900 0.08002 -0.13472
 C564 C 0.92427 0.05934 -0.09900
 C565 C 0.89991 0.05561 -0.08143
 C566 C 0.88086 0.07259 -0.09830
 H567 H 0.82140 0.11873 -0.24479
 H568 H 0.78721 0.14765 -0.27312
 H569 H 0.80113 0.20273 -0.14689
 H570 H 0.83570 0.17375 -0.11925
 H571 H 0.91400 0.11293 -0.17857
 H572 H 0.94751 0.08349 -0.14905
 H573 H 0.89562 0.03995 -0.05389
 H574 H 0.86229 0.06969 -0.08380
 C575 C 0.84280 0.66018 0.33454
 C576 C 0.82037 0.64665 0.34155
 C577 C 0.79829 0.65794 0.32356
 C578 C 0.79807 0.68320 0.29795
 C579 C 0.82099 0.69675 0.29204
 C580 C 0.84303 0.68530 0.30999
 C581 C 0.86559 0.64734 0.34991
 C582 C 0.88414 0.63519 0.36161
 C583 C 0.90526 0.61856 0.37398
 C584 C 0.90842 0.59395 0.34782
 C585 C 0.92678 0.57576 0.36284
 C586 C 0.94238 0.58182 0.40452
 C587 C 0.94009 0.60731 0.42885
 C588 C 0.92146 0.62553 0.41387
 H589 H 0.81994 0.62718 0.36068
 H590 H 0.78141 0.64699 0.33135
 H591 H 0.82244 0.71559 0.27118
 H592 H 0.86033 0.69580 0.30366
 H593 H 0.89605 0.58832 0.31689
 H594 H 0.92812 0.55643 0.34292
 H595 H 0.95185 0.61259 0.46085
 H596 H 0.91920 0.64457 0.43443
 C597 C 0.33180 0.14766 0.32144
 C598 C 0.31838 0.13855 0.27916
 C599 C 0.29962 0.15457 0.25865
 C600 C 0.29360 0.18021 0.28026
 C601 C 0.30813 0.18965 0.32172
 C602 C 0.32693 0.17339 0.34228
 C603 C 0.35049 0.13031 0.34287
 C604 C 0.36612 0.11515 0.35909
 C605 C 0.38517 0.09699 0.37646
 C606 C 0.40939 0.10070 0.35940
 C607 C 0.42812 0.08326 0.37560
 C608 C 0.42294 0.06172 0.40922
 C609 C 0.39840 0.05783 0.42556
 C610 C 0.37963 0.07542 0.40929
 H611 H 0.32235 0.11890 0.26201
 H612 H 0.29026 0.14685 0.22498
 H613 H 0.30425 0.20883 0.34052
 H614 H 0.33736 0.18069 0.37500
 H615 H 0.41385 0.11720 0.33372
 H616 H 0.44675 0.08693 0.36215
 H617 H 0.39377 0.04145 0.45132
 H618 H 0.36086 0.07227 0.42245
 C619 C 0.32517 0.63538 -0.19322
 C620 C 0.30086 0.62585 -0.19289
 C621 C 0.28152 0.64236 -0.21014
 C622 C 0.28601 0.66901 -0.22808
 C623 C 0.31085 0.67809 -0.22853
 C624 C 0.33010 0.66146 -0.21131
 C625 C 0.34505 0.61862 -0.17431
 C626 C 0.36183 0.60489 -0.15817
 C627 C 0.38206 0.58888 -0.13856
 C628 C 0.40631 0.59443 -0.15394
 C629 C 0.42607 0.57952 -0.13387
 C630 C 0.42187 0.55875 -0.09802
 C631 C 0.39737 0.55314 -0.08320
 C632 C 0.37764 0.56813 -0.10329
 H633 H 0.29678 0.60573 -0.17858
 H634 H 0.26298 0.63439 -0.20688
 H635 H 0.31583 0.69770 -0.24376
 H636 H 0.34890 0.66900 -0.21220
 H637 H 0.40998 0.61047 -0.18113
 H638 H 0.44464 0.58445 -0.14614
 H639 H 0.39342 0.53736 -0.05568
 H640 H 0.35896 0.56367 -0.09100
 C641 C 1.17346 -0.14415 -0.17210
 C642 C 1.19745 -0.13969 -0.15405
 C643 C 1.21673 -0.15668 -0.16982
 C644 C 1.21225 -0.17835 -0.20397
 C645 C 1.18795 -0.18318 -0.22077
 C646 C 1.16866 -0.16611 -0.20496
 C647 C 1.15397 -0.12573 -0.15790
 C648 C 1.13776 -0.11012 -0.14601
 C649 C 1.11836 -0.09164 -0.13145
 C650 C 1.12296 -0.07097 -0.09570
 C651 C 1.10372 -0.05403 -0.07924
 C652 C 1.07959 -0.05769 -0.09827
 C653 C 1.07537 -0.07804 -0.13537
 C654 C 1.09464 -0.09490 -0.15179
 H655 H 1.20131 -0.12283 -0.12839
 H656 H 1.23522 -0.15272 -0.15578
 H657 H 1.18403 -0.19955 -0.24745
 H658 H 1.15013 -0.16971 -0.21911
 H659 H 1.14129 -0.06829 -0.07977
 H660 H 1.10761 -0.03863 -0.05056
 H661 H 1.05706 -0.08143 -0.15084
 H662 H 1.09093 -0.11083 -0.17957
 C663 C 1.15423 0.34246 0.31747
 C664 C 1.16716 0.35330 0.27585
 C665 C 1.19019 0.34261 0.26170
 C666 C 1.20062 0.32088 0.28904
 C667 C 1.18755 0.31024 0.33105
 C668 C 1.16453 0.32098 0.34516
 C669 C 1.13077 0.35402 0.33243
 C670 C 1.11153 0.36475 0.34466
 C671 C 1.08941 0.37937 0.35884
 C672 C 1.08206 0.40162 0.32944
 C673 C 1.06336 0.41891 0.34697
 C674 C 1.05166 0.41421 0.39426
 C675 C 1.05784 0.39070 0.42182
 C676 C 1.07678 0.37345 0.40436
 H677 H 1.15942 0.37000 0.25422
 H678 H 1.19959 0.35099 0.22877
 H679 H 1.19521 0.29370 0.35318
 H680 H 1.15482 0.31258 0.37772
 H681 H 1.09166 0.40642 0.29419
 H682 H 1.05895 0.43680 0.32477
 H683 H 1.04929 0.38668 0.45846
 H684 H 1.08236 0.35632 0.42755
 C685 C 0.66708 -0.14291 0.30002
 C686 C 0.67686 -0.13948 0.25089
 C687 C 0.69556 -0.15673 0.23311
 C688 C 0.70476 -0.17765 0.26433
 C689 C 0.69422 -0.18158 0.31298
 C690 C 0.67551 -0.16424 0.33075
 C691 C 0.64888 -0.12406 0.31918
 C692 C 0.63365 -0.10814 0.33487
 C693 C 0.61513 -0.08946 0.35326
 C694 C 0.62070 -0.07054 0.39186
 C695 C 0.60217 -0.05353 0.41156
 C696 C 0.57780 -0.05540 0.39303
 C697 C 0.57264 -0.07391 0.35307
 C698 C 0.59117 -0.09078 0.33342
 H699 H 0.67036 -0.12316 0.22667
 H700 H 0.70315 -0.15344 0.19525
 H701 H 0.70113 -0.19734 0.33799
 H702 H 0.66801 -0.16709 0.36884
 H703 H 0.63924 -0.06931 0.40740
 H704 H 0.60677 -0.03952 0.44222
 H705 H 0.55413 -0.07587 0.33773
 H706 H 0.58668 -0.10527 0.30342
 C707 C 0.67516 0.36521 -0.19117
 C708 C 0.68887 0.37146 -0.23506
 C709 C 0.70830 0.35450 -0.25088
 C710 C 0.71429 0.33097 -0.22304
 C711 C 0.70036 0.32485 -0.17902
 C712 C 0.68097 0.34184 -0.16327
 C713 C 0.65518 0.38271 -0.17454
 C714 C 0.63842 0.39711 -0.16003
 C715 C 0.61829 0.41395 -0.14188
 C716 C 0.62267 0.43460 -0.10587
 C717 C 0.60299 0.45001 -0.08626
 C718 C 0.57855 0.44495 -0.10227
 C719 C 0.57441 0.42450 -0.13927
 C720 C 0.59413 0.40914 -0.15885
 H721 H 0.68454 0.38944 -0.25710
 H722 H 0.71847 0.35963 -0.28523
 H723 H 0.70469 0.30715 -0.15628
 H724 H 0.67056 0.33679 -0.12915
 H725 H 0.64126 0.43852 -0.09234
 H726 H 0.60691 0.46552 -0.05781
 H727 H 0.55589 0.42000 -0.15249
 H728 H 0.59048 0.39321 -0.18666
 C729 C 1.16366 0.14973 -0.17281
 C730 C 1.18708 0.14846 -0.19533
 C731 C 1.19925 0.17243 -0.20909
 C732 C 1.18788 0.19806 -0.20130
 C733 C 1.16470 0.19876 -0.17628
 C734 C 1.15279 0.17488 -0.16240
 C735 C 1.14972 0.12562 -0.16233
 C736 C 1.13618 0.10693 -0.15308
 C737 C 1.11816 0.08663 -0.14091
 C738 C 1.12249 0.06826 -0.10127
 C739 C 1.10332 0.05177 -0.08370
 C740 C 1.07952 0.05373 -0.10529
 C741 C 1.07573 0.07131 -0.14681
 C742 C 1.09495 0.08766 -0.16443
 H743 H 1.19563 0.12899 -0.20359
 H744 H 1.21676 0.17051 -0.22884
 H745 H 1.15569 0.21775 -0.16655
 H746 H 1.13479 0.17607 -0.14423
 H747 H 1.14033 0.06751 -0.08248
 H748 H 1.10687 0.03847 -0.05162
 H749 H 1.05769 0.07323 -0.16441
 H750 H 1.09138 0.10200 -0.19491
 C751 C 1.13937 0.67537 0.31668
 C752 C 1.16280 0.67683 0.33915
 C753 C 1.18037 0.69520 0.32066
 C754 C 1.17463 0.71273 0.27961
 C755 C 1.15116 0.70996 0.25618
 C756 C 1.13378 0.69161 0.27469
 C757 C 1.12096 0.65708 0.33596
 C758 C 1.10537 0.64154 0.35073
 C759 C 1.08724 0.62208 0.36674
 C760 C 1.08904 0.59543 0.34852
 C761 C 1.07250 0.57578 0.36540
 C762 C 1.05379 0.58244 0.40098
 C763 C 1.05142 0.60959 0.41751
 C764 C 1.06819 0.62930 0.40066
 H765 H 1.16736 0.66412 0.37156
 H766 H 1.19781 0.69657 0.34076
 H767 H 1.14614 0.72157 0.22268
 H768 H 1.11589 0.69016 0.25622
 H769 H 1.10356 0.58968 0.32193
 H770 H 1.07483 0.55517 0.35139
 H771 H 1.03705 0.61545 0.44428
 H772 H 1.06653 0.65000 0.41466
 C773 C 0.65342 0.16139 0.31955
 C774 C 0.67370 0.15848 0.28672
 C775 C 0.68712 0.18131 0.27170
 C776 C 0.68044 0.20741 0.28937
 C777 C 0.65989 0.21017 0.32204
 C778 C 0.64649 0.18728 0.33706
 C779 C 0.63937 0.13792 0.33439
 C780 C 0.62702 0.11866 0.34657
 C781 C 0.61113 0.09656 0.36091
 C782 C 0.61692 0.08004 0.40277
 C783 C 0.59981 0.06086 0.42019
 C784 C 0.57664 0.05829 0.39618
 C785 C 0.57160 0.07403 0.35257
 C786 C 0.58872 0.09301 0.33513
 H787 H 0.67909 0.13858 0.27258
 H788 H 0.70260 0.17857 0.24583
 H789 H 0.65444 0.22996 0.33657
 H790 H 0.63075 0.18976 0.36236
 H791 H 0.63422 0.08267 0.42306
 H792 H 0.60418 0.04913 0.45394
 H793 H 0.55400 0.07246 0.33303
 H794 H 0.58406 0.10565 0.30267
 C795 C 0.65748 0.65232 -0.19929
 C796 C 0.68060 0.65810 -0.17814
 C797 C 0.69387 0.68090 -0.19422
 C798 C 0.68420 0.69866 -0.23181
 C799 C 0.66094 0.69205 -0.25332
 C800 C 0.64781 0.66922 -0.23715
 C801 C 0.64301 0.62987 -0.18070
 C802 C 0.62992 0.61186 -0.16525
 C803 C 0.61294 0.59152 -0.14714
 C804 C 0.61821 0.57624 -0.10333
 C805 C 0.60031 0.55879 -0.08294
 C806 C 0.57686 0.55668 -0.10597
 C807 C 0.57217 0.57133 -0.15110
 C808 C 0.59007 0.58857 -0.17146
 H809 H 0.68817 0.64532 -0.14834
 H810 H 0.71109 0.68512 -0.17478
 H811 H 0.65293 0.70396 -0.28380
 H812 H 0.62996 0.66485 -0.25407
 H813 H 0.63582 0.57845 -0.08403
 H814 H 0.60443 0.54794 -0.04799
 H815 H 0.55437 0.57009 -0.16994
 H816 H 0.58575 0.60030 -0.20531
 C817 C 0.83553 -0.15322 -0.16122
 C818 C 0.81617 -0.15043 -0.19638
 C819 C 0.80304 -0.17337 -0.21270
 C820 C 0.80942 -0.19924 -0.19431
 C821 C 0.82813 -0.20161 -0.15730
 C822 C 0.84109 -0.17873 -0.14089
 C823 C 0.85143 -0.13075 -0.14930
 C824 C 0.86618 -0.11323 -0.13939
 C825 C 0.88517 -0.09394 -0.12724
 C826 C 0.88048 -0.07241 -0.09339
 C827 C 0.89977 -0.05545 -0.07776
 C828 C 0.92404 -0.06003 -0.09550
 C829 C 0.92838 -0.08124 -0.13074
 C830 C 0.90905 -0.09807 -0.14644
 H831 H 0.81185 -0.13076 -0.21256
 H832 H 0.78881 -0.17111 -0.24156
 H833 H 0.83321 -0.22132 -0.14228
 H834 H 0.85609 -0.18109 -0.11375
 H835 H 0.86207 -0.06916 -0.07808
 H836 H 0.89578 -0.03929 -0.05062
 H837 H 0.94679 -0.08530 -0.14523
 H838 H 0.91287 -0.11480 -0.17249
 C839 C 0.85881 0.32278 0.31536
 C840 C 0.83743 0.31868 0.34466
 C841 C 0.81908 0.30088 0.32723
 C842 C 0.82206 0.28696 0.28044
 C843 C 0.84321 0.29194 0.25059
 C844 C 0.86145 0.30971 0.26797
 C845 C 0.87815 0.34031 0.33351
 C846 C 0.89441 0.35529 0.34748
 C847 C 0.91328 0.37415 0.36281
 C848 C 0.93030 0.36761 0.40129
 C849 C 0.94726 0.38712 0.41842
 C850 C 0.94711 0.41342 0.39757
 C851 C 0.93067 0.41923 0.35726
 C852 C 0.91390 0.39975 0.34012
 H853 H 0.83517 0.32886 0.38130
 H854 H 0.80306 0.29719 0.35110
 H855 H 0.84582 0.28167 0.21414
 H856 H 0.87779 0.31295 0.24478
 H857 H 0.93004 0.34774 0.41889
 H858 H 0.95979 0.38196 0.44919
 H859 H 0.93013 0.43917 0.33997
 H860 H 0.90093 0.40495 0.31010
 C861 C 0.34190 -0.16100 0.33479
 C862 C 0.32148 -0.15738 0.30269
 C863 C 0.30768 -0.17983 0.28643
 C864 C 0.31418 -0.20625 0.30200
 C865 C 0.33465 -0.20965 0.33455
 C866 C 0.34840 -0.18716 0.35081
 C867 C 0.35692 -0.13811 0.34948
 C868 C 0.37030 -0.11950 0.36111
 C869 C 0.38749 -0.09827 0.37419
 C870 C 0.38215 -0.07937 0.41306
 C871 C 0.40005 -0.06043 0.42833
 C872 C 0.42357 -0.06042 0.40516
 C873 C 0.42832 -0.07886 0.36486
 C874 C 0.41043 -0.09759 0.34957
 H875 H 0.31641 -0.13726 0.28968
 H876 H 0.29224 -0.17657 0.26079
 H877 H 0.33994 -0.22967 0.34762
 H878 H 0.36424 -0.19021 0.37552
 H879 H 0.36444 -0.07973 0.43244
 H880 H 0.39582 -0.04655 0.45945
 H881 H 0.44616 -0.07936 0.34598
 H882 H 0.41477 -0.11209 0.31944
 C883 C 0.34034 0.34631 -0.18768
 C884 C 0.31698 0.34066 -0.16759
 C885 C 0.30363 0.31812 -0.18527
 C886 C 0.31352 0.30050 -0.22329
 C887 C 0.33698 0.30706 -0.24378
 C888 C 0.35015 0.32962 -0.22612
 C889 C 0.35499 0.36840 -0.16774
 C890 C 0.36853 0.38600 -0.15191
 C891 C 0.38630 0.40574 -0.13435
 C892 C 0.38108 0.42327 -0.09317
 C893 C 0.39942 0.44078 -0.07430
 C894 C 0.42322 0.44071 -0.09618
 C895 C 0.42797 0.42351 -0.13836
 C896 C 0.40966 0.40623 -0.15723
 H897 H 0.30927 0.35334 -0.13745
 H898 H 0.28618 0.31395 -0.16674
 H899 H 0.34515 0.29531 -0.27462
 H900 H 0.36816 0.33392 -0.24231
 H901 H 0.36307 0.42299 -0.07501
 H902 H 0.39521 0.45369 -0.04169
 H903 H 0.44601 0.42302 -0.15636
 H904 H 0.41393 0.39276 -0.18905
 C905 C 1.16315 -0.14805 0.17869
 C906 C 1.15251 -0.17316 0.16744
 C907 C 1.16422 -0.19707 0.18205
 C908 C 1.18695 -0.19647 0.20869
 C909 C 1.19818 -0.17090 0.21727
 C910 C 1.18619 -0.14687 0.20280
 C911 C 1.14925 -0.12394 0.16745
 C912 C 1.13565 -0.10536 0.15737
 C913 C 1.11749 -0.08530 0.14409
 C914 C 1.09399 -0.08661 0.16635
 C915 C 1.07476 -0.07057 0.14757
 C916 C 1.07883 -0.05301 0.10614
 C917 C 1.10287 -0.05078 0.08579
 C918 C 1.12205 -0.06697 0.10452
 H919 H 1.13481 -0.17429 0.14811
 H920 H 1.15540 -0.21606 0.17175
 H921 H 1.21537 -0.16911 0.23817
 H922 H 1.19455 -0.12743 0.21174
 H923 H 1.09024 -0.10094 0.19674
 H924 H 1.05653 -0.07267 0.16426
 H925 H 1.10665 -0.03747 0.05386
 H926 H 1.14012 -0.06602 0.08669
 C927 C 1.14029 0.32507 0.68892
 C928 C 1.13817 0.31471 0.73847
 C929 C 1.15619 0.29712 0.75738
 C930 C 1.17658 0.28962 0.72692
 C931 C 1.17909 0.30088 0.67783
 C932 C 1.16096 0.31850 0.65889
 C933 C 1.12108 0.34231 0.66927
 C934 C 1.10492 0.35709 0.65414
 C935 C 1.08612 0.37575 0.63762
 C936 C 1.06957 0.36879 0.59842
 C937 C 1.05259 0.38804 0.58045
 C938 C 1.05224 0.41450 0.60122
 C939 C 1.06825 0.42076 0.64214
 C940 C 1.08503 0.40155 0.66008
 H941 H 1.12237 0.31987 0.76219
 H942 H 1.15395 0.28888 0.79549
 H943 H 1.19448 0.29519 0.65345
 H944 H 1.16282 0.32656 0.62055
 H945 H 1.07019 0.34877 0.58097
 H946 H 1.04041 0.38254 0.54921
 H947 H 1.06840 0.44083 0.65938
 H948 H 1.09764 0.40708 0.69065
 C949 C 0.65673 -0.16028 0.67191
 C950 C 0.64701 -0.18625 0.66397
 C951 C 0.66005 -0.20923 0.68006
 C952 C 0.68328 -0.20677 0.70455
 C953 C 0.69279 -0.18021 0.71191
 C954 C 0.67964 -0.15733 0.69581
 C955 C 0.64271 -0.13670 0.65699
 C956 C 0.63017 -0.11747 0.64500
 C957 C 0.61391 -0.09549 0.63128
 C958 C 0.59194 -0.09180 0.65871
 C959 C 0.57440 -0.07297 0.64220
 C960 C 0.57857 -0.05747 0.59791
 C961 C 0.60129 -0.06020 0.57208
 C962 C 0.61882 -0.07926 0.58856
 H963 H 0.62928 -0.18878 0.64526
 H964 H 0.65210 -0.22887 0.67145
 H965 H 0.70989 -0.17666 0.73228
 H966 H 0.68720 -0.13727 0.70278
 H967 H 0.58793 -0.10422 0.69182
 H968 H 0.55715 -0.07128 0.66311
 H969 H 0.60498 -0.04869 0.53773
 H970 H 0.63576 -0.08200 0.56694
 C971 C 0.65956 0.35048 0.19534
 C972 C 0.65222 0.33706 0.23994
 C973 C 0.66493 0.31393 0.25627
 C974 C 0.68519 0.30382 0.22813
 C975 C 0.69278 0.31777 0.18390
 C976 C 0.67999 0.34092 0.16756
 C977 C 0.64503 0.37292 0.17671
 C978 C 0.63175 0.39087 0.16151
 C979 C 0.61442 0.41105 0.14399
 C980 C 0.59160 0.41359 0.16877
 C981 C 0.57338 0.43070 0.14906
 C982 C 0.57771 0.44563 0.10414
 C983 C 0.60110 0.44390 0.08061
 C984 C 0.61932 0.42658 0.10034
 H985 H 0.63639 0.34421 0.26166
 H986 H 0.65884 0.30384 0.29079
 H987 H 0.70811 0.31031 0.16108
 H988 H 0.68570 0.35099 0.13274
 H989 H 0.58758 0.40165 0.20250
 H990 H 0.55564 0.43164 0.16827
 H991 H 0.60494 0.45499 0.04580
 H992 H 0.63689 0.42468 0.08067
 C993 C 0.83354 0.14573 0.18504
 C994 C 0.81457 0.15679 0.15516
 C995 C 0.80209 0.18015 0.17198
 C996 C 0.80881 0.19270 0.21842
 C997 C 0.82711 0.18073 0.24909
 C998 C 0.83939 0.15738 0.23246
 C999 C 0.84922 0.12464 0.16508
 C1000 C 0.86408 0.10838 0.14946
 C1001 C 0.88351 0.09074 0.13205
 C1002 C 0.87913 0.07089 0.09459
 C1003 C 0.89875 0.05522 0.07568
 C1004 C 0.92297 0.05945 0.09385
 C1005 C 0.92701 0.07915 0.13215
 C1006 C 0.90740 0.09465 0.15108
 H1007 H 0.81011 0.14803 0.11813
 H1008 H 0.78811 0.18914 0.14769
 H1009 H 0.83236 0.18991 0.28530
 H1010 H 0.85415 0.14906 0.25567
 H1011 H 0.86069 0.06784 0.07945
 H1012 H 0.89501 0.04023 0.04617
 H1013 H 0.94538 0.08288 0.14709
 H1014 H 0.91095 0.11007 0.17996
 C1015 C 0.85786 0.67492 0.68474
 C1016 C 0.85988 0.68490 0.73482
 C1017 C 0.84191 0.70250 0.75441
 C1018 C 0.82166 0.71037 0.72410
 C1019 C 0.81932 0.69957 0.67435
 C1020 C 0.83739 0.68195 0.65474
 C1021 C 0.87678 0.65727 0.66467
 C1022 C 0.89255 0.64198 0.64920
 C1023 C 0.91074 0.62256 0.63239
 C1024 C 0.90960 0.59613 0.65130
 C1025 C 0.92608 0.57642 0.63362
 C1026 C 0.94407 0.58281 0.59655
 C1027 C 0.94576 0.60975 0.57915
 C1028 C 0.92905 0.62952 0.59682
 H1029 H 0.87550 0.67932 0.75855
 H1030 H 0.84400 0.71028 0.79308
 H1031 H 0.80404 0.70552 0.65007
 H1032 H 0.83558 0.67414 0.61602
 H1033 H 0.89562 0.59059 0.67909
 H1034 H 0.92432 0.55600 0.64835
 H1035 H 0.95956 0.61538 0.55116
 H1036 H 0.93017 0.65003 0.58221
 C1037 C 0.34282 0.16022 0.67492
 C1038 C 0.34925 0.18621 0.65804
 C1039 C 0.33572 0.20891 0.67437
 C1040 C 0.31555 0.20589 0.70786
 C1041 C 0.30911 0.17964 0.72432
 C1042 C 0.32269 0.15697 0.70798
 C1043 C 0.35762 0.13716 0.65993
 C1044 C 0.37090 0.11849 0.64775
 C1045 C 0.38804 0.09731 0.63369
 C1046 C 0.41125 0.09663 0.65712
 C1047 C 0.42916 0.07816 0.64039
 C1048 C 0.42414 0.06001 0.59984
 C1049 C 0.40035 0.05996 0.57799
 C1050 C 0.38243 0.07863 0.59468
 H1051 H 0.36485 0.18896 0.63256
 H1052 H 0.34094 0.22880 0.66063
 H1053 H 0.29388 0.17670 0.75066
 H1054 H 0.31769 0.13698 0.72164
 H1055 H 0.41580 0.11097 0.68732
 H1056 H 0.44721 0.07869 0.65829
 H1057 H 0.39590 0.04627 0.54673
 H1058 H 0.36451 0.07902 0.57619
 C1059 C 0.33863 0.65385 0.19325
 C1060 C 0.31821 0.66358 0.16594
 C1061 C 0.30471 0.68587 0.18459
 C1062 C 0.31157 0.69881 0.23070
 C1063 C 0.33181 0.68850 0.25833
 C1064 C 0.34522 0.66622 0.23970
 C1065 C 0.35387 0.63234 0.17254
 C1066 C 0.36776 0.61514 0.15605
 C1067 C 0.38581 0.59579 0.13768
 C1068 C 0.38057 0.57811 0.09679
 C1069 C 0.39905 0.56082 0.07736
 C1070 C 0.42301 0.56124 0.09842
 C1071 C 0.42780 0.57864 0.14026
 C1072 C 0.40936 0.59570 0.15966
 H1073 H 0.31304 0.65432 0.12975
 H1074 H 0.28941 0.69352 0.16212
 H1075 H 0.33737 0.69780 0.29422
 H1076 H 0.36102 0.65892 0.26114
 H1077 H 0.36241 0.57806 0.07932
 H1078 H 0.39480 0.54777 0.04501
 H1079 H 0.44597 0.57942 0.15763
 H1080 H 0.41366 0.60929 0.19125
   
