data_POSCAR
  _audit_creation_date              2014-09-24
  _audit_creation_method            'ToBaCCo'
  _symmetry_space_group_name_H-M    'P1'
  _symmetry_Int_Tables_number       1
  _symmetry_cell_setting            triclinic
  loop_
  _symmetry_equiv_pos_as_xyz
 x,y,z
_cell_length_a 45.9760
_cell_length_b 44.7262
_cell_length_c 45.9825
_cell_angle_alpha 90.883200
_cell_angle_beta 90.011200
_cell_angle_gamma 90.057800
loop_
  _atom_site_label
  _atom_site_type_symbol
  _atom_site_fract_x
  _atom_site_fract_y
  _atom_site_fract_z
C1 C 0.60416 0.64403 0.62485
 N2 N 0.60435 0.62295 0.64580
 C3 C 0.62593 0.60222 0.64691
 N4 N 0.64741 0.60281 0.62658
 C5 C 0.64739 0.62369 0.60543
 N6 N 0.62573 0.64429 0.60469
 C7 C 0.89621 0.35168 0.12361
 N8 N 0.89522 0.37292 0.14508
 C9 C 0.87446 0.39450 0.14508
 N10 N 0.85437 0.39476 0.12344
 C11 C 0.85501 0.37369 0.10188
 N12 N 0.87597 0.35231 0.10204
 C13 C 0.39495 0.14771 -0.12298
 N14 N 0.39475 0.12634 -0.14429
 C15 C 0.37404 0.10465 -0.14467
 N16 N 0.35342 0.10444 -0.12351
 C17 C 0.35341 0.12572 -0.10211
 N18 N 0.37423 0.14731 -0.10194
 C19 C 0.10334 0.85478 0.37475
 N20 N 0.12459 0.85478 0.39533
 C21 C 0.14649 0.87515 0.39474
 N22 N 0.14708 0.89578 0.37339
 C23 C 0.12596 0.89632 0.35270
 N24 N 0.10424 0.87568 0.35359
 N25 N 0.08901 0.16852 0.11158
 N26 N 0.07928 0.15823 0.13638
 C27 C 0.05585 0.17428 0.14469
 C28 C 0.05040 0.19529 0.12368
 C29 C 0.07173 0.19097 0.10291
 H30 H 0.04344 0.17084 0.16433
 H31 H 0.07491 0.20383 0.08344
 Cu32 Cu 0.09770 0.12433 0.15491
 Cu33 Cu 0.12455 0.15358 0.09356
 Cu34 Cu 0.15850 0.09381 0.12662
 N35 N 0.11587 0.08950 0.17200
 N36 N 0.14048 0.07867 0.16177
 C37 C 0.14894 0.05565 0.17828
 C38 C 0.12823 0.05151 0.19958
 C39 C 0.10747 0.07321 0.19493
 H40 H 0.16825 0.04233 0.17460
 H41 H 0.08794 0.07697 0.20756
 N42 N 0.17327 0.11220 0.09085
 N43 N 0.16075 0.13544 0.07870
 C44 C 0.17646 0.14347 0.05535
 C45 C 0.19965 0.12406 0.05242
 C46 C 0.19693 0.10445 0.07518
 H47 H 0.17124 0.16178 0.04120
 H48 H 0.21144 0.08623 0.08016
 H49 H 0.12065 0.11048 0.10887
 H50 H 0.14327 0.13713 0.13092
 N51 N 0.40925 0.82683 0.60910
 N52 N 0.42010 0.83873 0.63307
 C53 C 0.44315 0.82245 0.64151
 C54 C 0.44718 0.79943 0.62151
 C55 C 0.42535 0.80293 0.60117
 H56 H 0.45637 0.82719 0.66048
 H57 H 0.42120 0.78880 0.58232
 Cu58 Cu 0.40361 0.87480 0.65049
 Cu59 Cu 0.37448 0.84256 0.59063
 Cu60 Cu 0.34332 0.90561 0.62244
 N61 N 0.38574 0.91004 0.66815
 N62 N 0.36161 0.92137 0.65765
 C63 C 0.35335 0.94475 0.67448
 C64 C 0.37360 0.94850 0.69647
 C65 C 0.39390 0.92616 0.69176
 H66 H 0.33433 0.95836 0.67073
 H67 H 0.41289 0.92176 0.70489
 N68 N 0.32801 0.88640 0.58676
 N69 N 0.33927 0.86180 0.57521
 C70 C 0.32333 0.85353 0.55184
 C71 C 0.30132 0.87417 0.54829
 C72 C 0.30498 0.89474 0.57071
 H73 H 0.32764 0.83424 0.53805
 H74 H 0.29149 0.91405 0.57520
 H75 H 0.38015 0.88636 0.60442
 H76 H 0.35720 0.86205 0.62784
 N77 N 0.90864 0.67348 0.38955
 N78 N 0.91717 0.66393 0.36375
 C79 C 0.93977 0.68072 0.35497
 C80 C 0.94595 0.70148 0.37664
 C81 C 0.92590 0.69622 0.39834
 H82 H 0.95131 0.67775 0.33464
 H83 H 0.92369 0.70848 0.41867
 Cu84 Cu 0.89913 0.62952 0.34462
 Cu85 Cu 0.87478 0.65693 0.40888
 Cu86 Cu 0.84254 0.59486 0.37655
 N87 N 0.88221 0.59301 0.32843
 N88 N 0.85951 0.58018 0.34035
 C89 C 0.85189 0.55603 0.32424
 C90 C 0.87115 0.55332 0.30129
 C91 C 0.89018 0.57707 0.30465
 H92 H 0.83412 0.54109 0.32922
 H93 H 0.90828 0.58242 0.29064
 N94 N 0.82849 0.61297 0.41322
 N95 N 0.84026 0.63716 0.42509
 C96 C 0.82495 0.64500 0.44899
 C97 C 0.80281 0.62447 0.45254
 C98 C 0.80574 0.60442 0.42959
 H99 H 0.82961 0.66407 0.46295
 H100 H 0.79182 0.58547 0.42482
 H101 H 0.88061 0.61424 0.39179
 H102 H 0.85468 0.63913 0.37227
 N103 N 0.58960 0.33145 -0.10991
 N104 N 0.57771 0.34402 -0.13267
 C105 C 0.55374 0.32849 -0.14041
 C106 C 0.55022 0.30530 -0.12119
 C107 C 0.57330 0.30790 -0.10205
 H108 H 0.53971 0.33374 -0.15850
 H109 H 0.57824 0.29327 -0.08421
 Cu110 Cu 0.59428 0.37960 -0.14998
 Cu111 Cu 0.62599 0.34566 -0.09315
 Cu112 Cu 0.65875 0.40618 -0.12589
 N113 N 0.61364 0.41310 -0.16833
 N114 N 0.63948 0.42233 -0.15984
 C115 C 0.64836 0.44451 -0.17722
 C116 C 0.62670 0.44973 -0.19733
 C117 C 0.60494 0.42952 -0.19104
 H118 H 0.66873 0.45645 -0.17503
 H119 H 0.58458 0.42671 -0.20254
 N120 N 0.67488 0.38687 -0.09126
 N121 N 0.66285 0.36323 -0.07931
 C122 C 0.67920 0.35484 -0.05655
 C123 C 0.70231 0.37443 -0.05377
 C124 C 0.69887 0.39451 -0.07604
 H125 H 0.67431 0.33634 -0.04249
 H126 H 0.71297 0.41315 -0.08084
 H127 H 0.62204 0.38972 -0.10563
 H128 H 0.64135 0.36374 -0.13136
 C129 C -0.03884 0.28508 0.12379
 C130 C -0.05594 0.28883 0.09884
 C131 C -0.07789 0.31059 0.09907
 C132 C -0.08214 0.32942 0.12368
 C133 C -0.06427 0.32553 0.14837
 C134 C -0.04301 0.30307 0.14870
 C135 C -0.01606 0.26188 0.12382
 C136 C 0.00034 0.25738 0.14916
 C137 C 0.02169 0.23501 0.14918
 C138 C 0.02733 0.21808 0.12379
 C139 C 0.01108 0.22315 0.09843
 C140 C -0.01106 0.24470 0.09848
 C141 C -0.02592 0.29817 0.17352
 C142 C -0.00480 0.27552 0.17383
 C143 C -0.05061 0.27088 0.07405
 C144 C -0.02837 0.24938 0.07379
 H145 H -0.02902 0.31182 0.19294
 H146 H 0.00779 0.27237 0.19347
 H147 H -0.06358 0.27363 0.05461
 H148 H -0.02482 0.23619 0.05415
 H149 H -0.09112 0.31324 0.07976
 H150 H -0.06724 0.33948 0.16763
 H151 H 0.03442 0.23124 0.16863
 H152 H 0.01535 0.20993 0.07893
 C153 C 0.53672 0.70980 0.62326
 C154 C 0.54935 0.70002 0.59698
 C155 C 0.57169 0.67868 0.59762
 C156 C 0.58081 0.66665 0.62423
 C157 C 0.56761 0.67639 0.65033
 C158 C 0.54581 0.69827 0.65000
 C159 C 0.51360 0.73262 0.62277
 C160 C 0.50162 0.74307 0.64911
 C161 C 0.48003 0.76517 0.64856
 C162 C 0.46994 0.77619 0.62189
 C163 C 0.48182 0.76514 0.59565
 C164 C 0.50399 0.74361 0.59598
 C165 C 0.53304 0.70901 0.67587
 C166 C 0.51145 0.73118 0.67545
 C167 C 0.53933 0.71172 0.57062
 C168 C 0.51690 0.73300 0.57012
 H169 H 0.53992 0.70035 0.69665
 H170 H 0.50230 0.73899 0.69591
 H171 H 0.54883 0.70429 0.55020
 H172 H 0.50974 0.74137 0.54933
 H173 H 0.58163 0.67109 0.57745
 H174 H 0.57472 0.66737 0.67089
 H175 H 0.47073 0.77343 0.66879
 H176 H 0.47429 0.77378 0.57509
 C177 C 1.03625 0.79033 0.37587
 C178 C 1.03984 0.80817 0.35129
 C179 C 1.06175 0.83000 0.35128
 C180 C 1.08084 0.83339 0.37522
 C181 C 1.07705 0.81482 0.39954
 C182 C 1.05451 0.79368 0.40016
 C183 C 1.01296 0.76763 0.37614
 C184 C 1.00869 0.75051 0.40114
 C185 C 0.98625 0.72924 0.40141
 C186 C 0.96896 0.72439 0.37655
 C187 C 0.97379 0.74136 0.35151
 C188 C 0.99547 0.76343 0.35137
 C189 C 1.04979 0.77587 0.42465
 C190 C 1.02711 0.75484 0.42523
 C191 C 1.02159 0.80364 0.32709
 C192 C 0.99995 0.78147 0.32703
 H193 H 1.06366 0.77833 0.44359
 H194 H 1.02412 0.74170 0.44460
 H195 H 1.02421 0.81719 0.30794
 H196 H 0.98652 0.77854 0.30783
 H197 H 1.06430 0.84377 0.33225
 H198 H 1.09122 0.81711 0.41830
 H199 H 0.98265 0.71597 0.42062
 H200 H 0.96029 0.73774 0.33244
 C201 C 0.46080 0.21532 -0.12218
 C202 C 0.45058 0.20386 -0.14890
 C203 C 0.42921 0.18147 -0.14902
 C204 C 0.41757 0.17115 -0.12269
 C205 C 0.42773 0.18320 -0.09610
 C206 C 0.44966 0.20502 -0.09571
 C207 C 0.48364 0.23849 -0.12192
 C208 C 0.49451 0.24928 -0.09520
 C209 C 0.51658 0.27095 -0.09509
 C210 C 0.52716 0.28233 -0.12143
 C211 C 0.51573 0.27161 -0.14801
 C212 C 0.49422 0.24936 -0.14839
 C213 C 0.46083 0.21662 -0.06942
 C214 C 0.48301 0.23823 -0.06916
 C215 C 0.46190 0.21509 -0.17494
 C216 C 0.48321 0.23760 -0.17469
 H217 H 0.45248 0.20880 -0.04885
 H218 H 0.49114 0.24645 -0.04841
 H219 H 0.45412 0.20650 -0.19569
 H220 H 0.49126 0.24573 -0.19525
 H221 H 0.42130 0.17241 -0.16955
 H222 H 0.41899 0.17514 -0.07577
 H223 H 0.52517 0.27935 -0.07458
 H224 H 0.52403 0.28012 -0.16834
 C225 C 0.12715 -0.03831 0.28750
 C226 C 0.10210 -0.05576 0.29134
 C227 C 0.10205 -0.07792 0.31259
 C228 C 0.12645 -0.08199 0.33082
 C229 C 0.15125 -0.06379 0.32682
 C230 C 0.15188 -0.04236 0.30488
 C231 C 0.12746 -0.01530 0.26487
 C232 C 0.15291 0.00140 0.26028
 C233 C 0.15322 0.02291 0.23841
 C234 C 0.12799 0.02846 0.22207
 C235 C 0.10252 0.01195 0.22724
 C236 C 0.10229 -0.01040 0.24830
 C237 C 0.17681 -0.02495 0.29990
 C238 C 0.17740 -0.00364 0.27780
 C239 C 0.07749 -0.05053 0.27401
 C240 C 0.07750 -0.02804 0.25304
 H241 H 0.19609 -0.02795 0.31308
 H242 H 0.19712 0.00917 0.27456
 H243 H 0.05798 -0.06376 0.27685
 H244 H 0.05799 -0.02457 0.24031
 H245 H 0.08265 -0.09139 0.31534
 H246 H 0.17035 -0.06663 0.34032
 H247 H 0.17277 0.03583 0.23451
 H248 H 0.08317 0.01611 0.21444
 C249 C 0.62627 0.53750 -0.28726
 C250 C 0.65102 0.54102 -0.30473
 C251 C 0.65062 0.56215 -0.32696
 C252 C 0.62604 0.58055 -0.33118
 C253 C 0.60156 0.57688 -0.31297
 C254 C 0.60140 0.55509 -0.29138
 C255 C 0.62640 0.51497 -0.26418
 C256 C 0.60125 0.51070 -0.24740
 C257 C 0.60133 0.48888 -0.22582
 C258 C 0.62664 0.47223 -0.22038
 C259 C 0.65183 0.47712 -0.23699
 C260 C 0.65167 0.49814 -0.25932
 C261 C 0.57678 0.55044 -0.27389
 C262 C 0.57662 0.52844 -0.25244
 C263 C 0.67576 0.52347 -0.29948
 C264 C 0.67617 0.50258 -0.27700
 H265 H 0.55740 0.56379 -0.27693
 H266 H 0.55713 0.52544 -0.23957
 H267 H 0.69506 0.52605 -0.31274
 H268 H 0.69576 0.48965 -0.27356
 H269 H 0.66978 0.56464 -0.34046
 H270 H 0.58231 0.59051 -0.31588
 H271 H 0.58200 0.48528 -0.21283
 H272 H 0.67125 0.46410 -0.23293
 C273 C 0.37381 1.03789 0.78772
 C274 C 0.34733 1.04713 0.80012
 C275 C 0.34755 1.06870 0.82258
 C276 C 0.37395 1.08153 0.83207
 C277 C 0.40027 1.07226 0.81917
 C278 C 0.40037 1.05015 0.79721
 C279 C 0.37375 1.01497 0.76433
 C280 C 0.40029 1.00515 0.75247
 C281 C 0.40011 0.98308 0.73048
 C282 C 0.37363 0.97146 0.71988
 C283 C 0.34720 0.98182 0.73172
 C284 C 0.34714 1.00332 0.75425
 C285 C 0.42646 1.03997 0.78462
 C286 C 0.42643 1.01771 0.76276
 C287 C 0.32117 1.03473 0.78968
 C288 C 0.32107 1.01333 0.76700
 H289 H 0.44708 1.04919 0.79183
 H290 H 0.44703 1.01039 0.75373
 H291 H 0.30059 1.04173 0.79900
 H292 H 0.30042 1.00445 0.75949
 H293 H 0.32720 1.07593 0.83229
 H294 H 0.42068 1.08190 0.82655
 H295 H 0.42050 0.97536 0.72123
 H296 H 0.32677 0.97272 0.72380
 C297 C 0.87298 0.46194 0.21198
 C298 C 0.84663 0.45145 0.20018
 C299 C 0.84724 0.42957 0.17801
 C300 C 0.87391 0.41765 0.16828
 C301 C 0.90010 0.42806 0.18066
 C302 C 0.89978 0.45055 0.20225
 C303 C 0.87250 0.48535 0.23491
 C304 C 0.89888 0.49652 0.24604
 C305 C 0.89830 0.51912 0.26752
 C306 C 0.87160 0.52986 0.27839
 C307 C 0.84536 0.51811 0.26733
 C308 C 0.84568 0.49612 0.24525
 C309 C 0.92571 0.46203 0.21417
 C310 C 0.92527 0.48478 0.23555
 C311 C 0.82023 0.46301 0.21086
 C312 C 0.81976 0.48481 0.23316
 H313 H 0.94652 0.45349 0.20678
 H314 H 0.94575 0.49314 0.24404
 H315 H 0.79976 0.45502 0.20201
 H316 H 0.79894 0.49301 0.24088
 H317 H 0.82702 0.42144 0.16867
 H318 H 0.92069 0.41911 0.17305
 H319 H 0.91854 0.52793 0.27620
 H320 H 0.82477 0.52653 0.27550
 C321 C 0.28806 0.12498 -0.03598
 C322 C 0.29835 0.09775 -0.04759
 C323 C 0.31952 0.09813 -0.06954
 C324 C 0.33091 0.12545 -0.07925
 C325 C 0.32067 0.15253 -0.06708
 C326 C 0.29892 0.15243 -0.04570
 C327 C 0.26545 0.12473 -0.01324
 C328 C 0.25451 0.15196 -0.00228
 C329 C 0.23268 0.15159 0.01900
 C330 C 0.22243 0.12428 0.02983
 C331 C 0.23393 0.09719 0.01896
 C332 C 0.25519 0.09727 -0.00292
 C333 C 0.28768 0.17921 -0.03396
 C334 C 0.26571 0.17899 -0.01276
 C335 C 0.28733 0.07073 -0.03693
 C336 C 0.26626 0.07050 -0.01483
 H337 H 0.29582 0.20054 -0.04134
 H338 H 0.25752 0.20014 -0.00440
 H339 H 0.29517 0.04958 -0.04564
 H340 H 0.25845 0.04917 -0.00712
 H341 H 0.32751 0.07723 -0.07871
 H342 H 0.32922 0.17362 -0.07466
 H343 H 0.22404 0.17250 0.02753
 H344 H 0.22589 0.07611 0.02708
 C345 C 0.71433 0.62410 0.54090
 C346 C 0.70218 0.65132 0.55046
 C347 C 0.68002 0.65104 0.57142
 C348 C 0.67063 0.62387 0.58331
 C349 C 0.68338 0.59682 0.57384
 C350 C 0.70498 0.59677 0.55230
 C351 C 0.73721 0.62421 0.51842
 C352 C 0.74866 0.59693 0.50814
 C353 C 0.76999 0.59714 0.48634
 C354 C 0.78035 0.62439 0.47547
 C355 C 0.76901 0.65155 0.48635
 C356 C 0.74709 0.65158 0.50756
 C357 C 0.71725 0.56996 0.54176
 C358 C 0.73858 0.57003 0.51991
 C359 C 0.71246 0.67824 0.53890
 C360 C 0.73468 0.67838 0.51795
 H361 H 0.71015 0.54873 0.55032
 H362 H 0.74732 0.54885 0.51224
 H363 H 0.70333 0.69939 0.54617
 H364 H 0.74206 0.69963 0.50968
 H365 H 0.67041 0.67193 0.57882
 H366 H 0.67604 0.57583 0.58277
 H367 H 0.77886 0.57620 0.47817
 H368 H 0.77675 0.67257 0.47780
 C369 C 0.79063 0.37407 0.03476
 C370 C 0.80039 0.40134 0.04678
 C371 C 0.82130 0.40109 0.06899
 C372 C 0.83296 0.37386 0.07856
 C373 C 0.82330 0.34674 0.06594
 C374 C 0.80180 0.34669 0.04429
 C375 C 0.76819 0.37417 0.01184
 C376 C 0.75771 0.34686 0.00053
 C377 C 0.73593 0.34709 -0.02082
 C378 C 0.72526 0.37434 -0.03134
 C379 C 0.73635 0.40152 -0.02015
 C380 C 0.75755 0.40156 0.00179
 C381 C 0.79108 0.31985 0.03216
 C382 C 0.76926 0.31993 0.01079
 C383 C 0.78905 0.42829 0.03632
 C384 C 0.76813 0.42840 0.01406
 H385 H 0.79946 0.29859 0.03939
 H386 H 0.76143 0.29872 0.00216
 H387 H 0.79647 0.44947 0.04535
 H388 H 0.76003 0.44967 0.00655
 H389 H 0.82884 0.42203 0.07851
 H390 H 0.83205 0.32571 0.07342
 H391 H 0.72760 0.32613 -0.02958
 H392 H 0.72797 0.42254 -0.02802
 C393 C 0.21280 0.87465 0.45996
 C394 C 0.20399 0.90195 0.44811
 C395 C 0.18255 0.90193 0.42641
 C396 C 0.16941 0.87495 0.41720
 C397 C 0.17822 0.84782 0.42957
 C398 C 0.20022 0.84750 0.45070
 C399 C 0.23559 0.87451 0.48252
 C400 C 0.24498 0.84715 0.49380
 C401 C 0.26689 0.84713 0.51502
 C402 C 0.27873 0.87426 0.52550
 C403 C 0.26882 0.90150 0.51424
 C404 C 0.24751 0.90174 0.49243
 C405 C 0.20998 0.82060 0.46270
 C406 C 0.23212 0.82041 0.48374
 C407 C 0.21669 0.92870 0.45832
 C408 C 0.23794 0.92862 0.48025
 H409 H 0.20052 0.79950 0.45567
 H410 H 0.23911 0.79917 0.49233
 H411 H 0.21001 0.94991 0.44941
 H412 H 0.24704 0.94976 0.48764
 H413 H 0.17567 0.92289 0.41711
 H414 H 0.16832 0.82698 0.42238
 H415 H 0.27429 0.82613 0.52385
 H416 H 0.27809 0.92241 0.52208
   
