data_POSCAR
  _audit_creation_date              2014-09-24
  _audit_creation_method            'ToBaCCo'
  _symmetry_space_group_name_H-M    'P1'
  _symmetry_Int_Tables_number       1
  _symmetry_cell_setting            triclinic
  loop_
  _symmetry_equiv_pos_as_xyz
 x,y,z
_cell_length_a 32.9246
_cell_length_b 32.8059
_cell_length_c 32.9297
_cell_angle_alpha 89.884300
_cell_angle_beta 90.052400
_cell_angle_gamma 90.181400
loop_
  _atom_site_label
  _atom_site_type_symbol
  _atom_site_fract_x
  _atom_site_fract_y
  _atom_site_fract_z
N1 N 0.35878 0.35708 1.35800
 N2 N 1.14137 0.64120 0.85632
 N3 N 0.64049 -0.14287 0.14142
 N4 N -0.14279 1.14521 -0.35382
 N5 N 0.64943 0.64454 0.64694
 N6 N 0.84642 0.34745 0.15099
 N7 N 0.34800 0.14821 0.84732
 N8 N 0.15370 0.84737 0.34725
 Zn9 Zn -0.02517 1.00390 0.04921
 Zn10 Zn -0.03253 0.96448 -0.03275
 Zn11 Zn 0.00300 1.04878 -0.02369
 Zn12 Zn 0.04893 0.97717 0.00675
 O13 O -0.00158 0.99846 -0.00034
 O14 O -0.07158 0.97673 0.05256
 O15 O -0.04893 0.98952 -0.07897
 O16 O -0.01677 1.08887 0.00715
 O17 O -0.07856 0.94744 -0.00753
 O18 O -0.03726 1.05537 0.06168
 O19 O -0.02446 1.05199 -0.07010
 O20 O 0.08828 1.00895 -0.01305
 O21 O -0.00525 0.91901 -0.04788
 O22 O 0.05447 1.06250 -0.03568
 O23 O 0.05441 0.93008 -0.01882
 O24 O 0.06151 0.96664 0.05881
 O25 O 0.00524 0.98527 0.08993
 C26 C -0.09155 0.95455 0.02815
 C27 C -0.04453 1.02624 -0.09066
 C28 C -0.03301 1.08838 0.04205
 C29 C 0.08760 1.04349 -0.03041
 C30 C 0.03108 0.90816 -0.04036
 C31 C 0.04071 0.97041 0.09100
 Zn32 Zn 0.49750 -0.05100 0.47667
 Zn33 Zn 0.52609 -0.00724 0.54993
 Zn34 Zn 0.53463 0.03243 0.46780
 Zn35 Zn 0.45259 0.02117 0.50586
 O36 O 0.50287 -0.00100 0.49996
 O37 O 0.51708 -0.09160 0.50710
 O38 O 0.57364 0.01845 0.55344
 O39 O 0.55056 0.00746 0.42128
 O40 O 0.53702 -0.05924 0.56240
 O41 O 0.52376 -0.05391 0.42989
 O42 O 0.58046 0.04866 0.49354
 O43 O 0.44823 0.06893 0.48075
 O44 O 0.49526 0.01205 0.59039
 O45 O 0.50859 0.07856 0.45283
 O46 O 0.43978 0.03103 0.55764
 O47 O 0.41271 -0.00976 0.48550
 O48 O 0.44606 -0.06421 0.46487
 C49 C 0.53283 -0.09191 0.54225
 C50 C 0.59371 0.04058 0.52895
 C51 C 0.54439 -0.02883 0.40900
 C52 C 0.47256 0.09048 0.45992
 C53 C 0.45974 0.02702 0.59037
 C54 C 0.41315 -0.04467 0.46903
 Zn55 Zn 0.95237 0.47182 0.49127
 Zn56 Zn 1.03479 0.46743 0.53112
 Zn57 Zn 1.02382 0.50635 0.44888
 Zn58 Zn 0.99147 0.54742 0.52145
 O59 O 1.00076 0.49805 0.49837
 O60 O 0.95201 0.42306 0.51496
 O61 O 1.08156 0.45344 0.50521
 O62 O 0.99417 0.48725 0.40776
 O63 O 1.01145 0.41976 0.54656
 O64 O 0.94034 0.46227 0.43913
 O65 O 1.07109 0.48143 0.44488
 O66 O 1.00939 0.58946 0.49182
 O67 O 1.04919 0.49406 0.57731
 O68 O 1.03381 0.55877 0.43755
 O69 O 1.01679 0.55245 0.56858
 O70 O 0.93901 0.55660 0.53180
 O71 O 0.91003 0.49928 0.51152
 C72 C 0.97732 0.40415 0.53705
 C73 C 1.09280 0.46047 0.46885
 C74 C 0.95999 0.46942 0.40678
 C75 C 1.02703 0.59096 0.45764
 C76 C 1.03988 0.52967 0.58939
 C77 C 0.90765 0.53447 0.52727
 Zn78 Zn 0.50500 0.44833 1.02178
 Zn79 Zn 0.47530 0.49232 0.94878
 Zn80 Zn 0.46545 0.53046 1.03109
 Zn81 Zn 0.54761 0.52253 0.99265
 O82 O 0.49817 0.49850 0.99875
 O83 O 0.48588 0.40756 0.99109
 O84 O 0.42782 0.51740 0.94509
 O85 O 0.45077 0.50458 1.07743
 O86 O 0.46509 0.44033 0.93622
 O87 O 0.47934 0.44418 1.06906
 O88 O 0.41882 0.54497 1.00570
 O89 O 0.55081 0.56972 1.01852
 O90 O 0.50559 0.51240 0.90835
 O91 O 0.49026 0.57741 1.04652
 O92 O 0.56024 0.53366 0.94103
 O93 O 0.58822 0.49262 1.01213
 O94 O 0.55708 0.43659 1.03277
 C95 C 0.46994 0.40747 0.95599
 C96 C 0.40658 0.53797 0.96970
 C97 C 0.45818 0.46863 1.08996
 C98 C 0.52613 0.59026 1.03970
 C99 C 0.54050 0.52881 0.90830
 C100 C 0.58925 0.45751 1.02820
 C101 C 1.24449 0.39976 0.40239
 C102 C 1.27540 0.38826 0.42997
 C103 C 1.31315 0.37468 0.41528
 C104 C 1.32037 0.37186 0.37332
 C105 C 1.28929 0.38249 0.34623
 C106 C 1.25199 0.39633 0.36041
 C107 C 1.20497 0.41488 0.41907
 C108 C 1.17333 0.42876 0.39394
 C109 C 1.13732 0.44307 0.41058
 C110 C 1.13142 0.44394 0.45278
 C111 C 1.16261 0.42988 0.47832
 C112 C 1.19949 0.41581 0.46174
 C113 C 1.26829 0.39013 0.47190
 C114 C 1.23107 0.40329 0.48743
 H115 H 1.29183 0.38112 0.49309
 H116 H 1.22712 0.40405 0.52008
 H117 H 1.33698 0.36620 0.43637
 H118 H 1.29378 0.37965 0.31379
 H119 H 1.11384 0.45351 0.39001
 H120 H 1.15853 0.43069 0.51097
 H121 H 1.22946 0.40376 0.33786
 H122 H 1.17572 0.42930 0.36132
 C123 C 0.25036 0.59458 0.90956
 C124 C 0.24548 0.59550 0.86681
 C125 C 0.20930 0.60993 0.84959
 C126 C 0.17716 0.62298 0.87422
 C127 C 0.18141 0.62064 0.91656
 C128 C 0.21749 0.60670 0.93410
 C129 C 0.29037 0.58076 0.92659
 C130 C 0.29958 0.58111 0.96848
 C131 C 0.33747 0.56786 0.98261
 C132 C 0.36692 0.55370 0.95538
 C133 C 0.35813 0.55379 0.91364
 C134 C 0.32055 0.56746 0.89912
 C135 C 0.27681 0.58233 0.84140
 C136 C 0.31336 0.56818 0.85721
 H137 H 0.27297 0.58281 0.80870
 H138 H 0.33658 0.55811 0.83622
 H139 H 0.20649 0.61200 0.81685
 H140 H 0.15683 0.63033 0.93609
 H141 H 0.34351 0.56820 1.01494
 H142 H 0.38080 0.54345 0.89217
 H143 H 0.21908 0.60584 0.96680
 H144 H 0.27807 0.59162 0.99078
 C145 C -0.24770 0.89705 0.08803
 C146 C -0.25272 0.89672 0.13076
 C147 C -0.28960 0.88403 0.14795
 C148 C -0.32230 0.87216 0.12333
 C149 C -0.31770 0.87335 0.08099
 C150 C -0.28091 0.88555 0.06347
 C151 C -0.20731 0.91004 0.07106
 C152 C -0.19817 0.90982 0.02915
 C153 C -0.16024 0.92321 0.01506
 C154 C -0.13071 0.93735 0.04235
 C155 C -0.13924 0.93664 0.08410
 C156 C -0.17688 0.92297 0.09858
 C157 C -0.22099 0.90910 0.15623
 C158 C -0.18403 0.92231 0.14047
 H159 H -0.22491 0.90894 0.18891
 H160 H -0.16058 0.93203 0.16149
 H161 H -0.29273 0.88278 0.18070
 H162 H -0.34267 0.86449 0.06146
 H163 H -0.15436 0.92334 -0.01730
 H164 H -0.11645 0.94690 0.10561
 H165 H -0.27913 0.88583 0.03077
 H166 H -0.21988 0.89958 0.00682
 C167 C 0.74569 0.10457 0.59193
 C168 C 0.76966 0.07758 0.61538
 C169 C 0.80649 0.09095 0.63231
 C170 C 0.81948 0.13156 0.62781
 C171 C 0.79439 0.15880 0.60642
 C172 C 0.75833 0.14547 0.58828
 C173 C 0.70712 0.08865 0.57339
 C174 C 0.68318 0.11147 0.54603
 C175 C 0.64687 0.09546 0.53053
 C176 C 0.63335 0.05673 0.54251
 C177 C 0.65753 0.03338 0.56874
 C178 C 0.69454 0.04861 0.58348
 C179 C 0.75631 0.03766 0.62265
 C180 C 0.71913 0.02380 0.60782
 H181 H 0.77447 0.01709 0.64091
 H182 H 0.70972 -0.00706 0.61510
 H183 H 0.82497 0.06965 0.64933
 H184 H 0.80254 0.19069 0.60391
 H185 H 0.62878 0.11381 0.51001
 H186 H 0.64766 0.00299 0.57734
 H187 H 0.74034 0.16778 0.57230
 H188 H 0.69210 0.14156 0.53613
 C189 C 0.41211 0.24690 0.40272
 C190 C 0.36937 0.25169 0.40206
 C191 C 0.35214 0.28812 0.38795
 C192 C 0.37675 0.32060 0.37498
 C193 C 0.41911 0.31635 0.37692
 C194 C 0.43665 0.28002 0.39049
 C195 C 0.42915 0.20676 0.41656
 C196 C 0.47104 0.19771 0.41613
 C197 C 0.48521 0.15979 0.42955
 C198 C 0.45804 0.13013 0.44400
 C199 C 0.41629 0.13873 0.44396
 C200 C 0.40171 0.17636 0.43010
 C201 C 0.34397 0.22011 0.41535
 C202 C 0.35980 0.18344 0.42948
 H203 H 0.31127 0.22387 0.41504
 H204 H 0.33883 0.16005 0.43971
 H205 H 0.31939 0.29092 0.38628
 H206 H 0.43867 0.34118 0.36741
 H207 H 0.51756 0.15391 0.42916
 H208 H 0.39487 0.11588 0.45452
 H209 H 0.46935 0.27849 0.39113
 H210 H 0.49331 0.21938 0.40543
 C211 C 0.92017 0.24718 0.59461
 C212 C 0.92104 0.24057 0.63703
 C213 C 0.90124 0.20646 0.65382
 C214 C 0.88101 0.17816 0.62881
 C215 C 0.88368 0.18294 0.58653
 C216 C 0.90265 0.21707 0.56959
 C217 C 0.93740 0.28627 0.57829
 C218 C 0.93219 0.29850 0.53762
 C219 C 0.94604 0.33649 0.52446
 C220 C 0.96626 0.36290 0.55112
 C221 C 0.97271 0.35073 0.59144
 C222 C 0.95731 0.31317 0.60550
 C223 C 0.94122 0.26830 0.66242
 C224 C 0.95973 0.30335 0.64686
 H225 H 0.94258 0.26290 0.69487
 H226 H 0.97478 0.32390 0.66780
 H227 H 0.90058 0.20271 0.68650
 H228 H 0.87012 0.16058 0.56649
 H229 H 0.94059 0.34550 0.49325
 H230 H 0.98754 0.37151 0.61235
 H231 H 0.90310 0.21940 0.53692
 H232 H 0.91621 0.27987 0.51585
 C233 C 0.09762 0.75531 -0.09907
 C234 C 0.06993 0.72496 -0.11217
 C235 C 0.08441 0.68712 -0.12592
 C236 C 0.12629 0.67922 -0.12744
 C237 C 0.15355 0.70956 -0.11479
 C238 C 0.13955 0.74695 -0.10067
 C239 C 0.08109 0.79521 -0.08445
 C240 C 0.10621 0.82664 -0.06969
 C241 C 0.08961 0.86304 -0.05597
 C242 C 0.04750 0.86949 -0.05664
 C243 C 0.02204 0.83855 -0.07165
 C244 C 0.03852 0.80137 -0.08518
 C245 C 0.02810 0.73277 -0.11186
 C246 C 0.01276 0.77020 -0.09890
 H247 H 0.00685 0.70963 -0.12202
 H248 H -0.01983 0.77472 -0.09939
 H249 H 0.06322 0.66384 -0.13590
 H250 H 0.18599 0.70453 -0.11651
 H251 H 0.11009 0.88633 -0.04470
 H252 H -0.01056 0.84305 -0.07204
 H253 H 0.16221 0.76894 -0.09171
 H254 H 0.13876 0.82379 -0.06805
 C255 C 0.58648 0.74592 1.09954
 C256 C 0.62923 0.75097 1.09986
 C257 C 0.64660 0.78753 1.11350
 C258 C 0.62215 0.81998 1.12628
 C259 C 0.57978 0.81531 1.12533
 C260 C 0.56208 0.77879 1.11222
 C261 C 0.56933 0.70587 1.08534
 C262 C 0.52738 0.69668 1.08534
 C263 C 0.51317 0.65895 1.07121
 C264 C 0.54037 0.62968 1.05650
 C265 C 0.58214 0.63840 1.05710
 C266 C 0.59674 0.67580 1.07155
 C267 C 0.65456 0.71960 1.08647
 C268 C 0.63866 0.68298 1.07228
 H269 H 0.68727 0.72355 1.08663
 H270 H 0.65959 0.65980 1.06188
 H271 H 0.67936 0.79064 1.11461
 H272 H 0.56037 0.84007 1.13490
 H273 H 0.48081 0.65294 1.07121
 H274 H 0.60360 0.61584 1.04639
 H275 H 0.52937 0.77696 1.11211
 H276 H 0.50513 0.71815 1.09609
 C277 C 0.40218 0.40957 1.24706
 C278 C 0.40282 0.36679 1.25301
 C279 C 0.38922 0.34986 1.28973
 C280 C 0.37546 0.37486 1.32133
 C281 C 0.37598 0.41728 1.31591
 C282 C 0.38909 0.43451 1.27930
 C283 C 0.41557 0.42621 1.20667
 C284 C 0.41405 0.46803 1.19655
 C285 C 0.42718 0.48183 1.15848
 C286 C 0.44238 0.45439 1.12969
 C287 C 0.44340 0.41269 1.13934
 C288 C 0.42990 0.39846 1.17716
 C289 C 0.41686 0.34105 1.22228
 C290 C 0.43049 0.35656 1.18535
 H291 H 0.41752 0.30834 1.22692
 H292 H 0.44133 0.33534 1.16265
 H293 H 0.38852 0.31704 1.29348
 H294 H 0.36569 0.43710 1.34004
 H295 H 0.42597 0.51415 1.15180
 H296 H 0.45459 0.39104 1.11720
 H297 H 0.38865 0.46729 1.27685
 H298 H 0.40276 0.49051 1.21752
 C299 C 0.60073 -0.08904 0.25281
 C300 C 0.60069 -0.13194 0.24785
 C301 C 0.61329 -0.14927 0.21109
 C302 C 0.62555 -0.12463 0.17848
 C303 C 0.62486 -0.08212 0.18305
 C304 C 0.61267 -0.06446 0.21969
 C305 C 0.58776 -0.07192 0.29308
 C306 C 0.58803 -0.02983 0.30208
 C307 C 0.57485 -0.01565 0.33997
 C308 C 0.56092 -0.04303 0.36964
 C309 C 0.56144 -0.08496 0.36115
 C310 C 0.57481 -0.09951 0.32354
 C311 C 0.58813 -0.15744 0.27956
 C312 C 0.57517 -0.14157 0.31646
 H313 H 0.58804 -0.19025 0.27571
 H314 H 0.56540 -0.16264 0.33993
 H315 H 0.61421 -0.18214 0.20801
 H316 H 0.63408 -0.06257 0.15816
 H317 H 0.57486 0.01684 0.34576
 H318 H 0.55128 -0.10657 0.38397
 H319 H 0.61279 -0.03164 0.22145
 H320 H 0.59816 -0.00742 0.28030
 C321 C -0.10798 1.09319 -0.24039
 C322 C -0.09044 1.07907 -0.27699
 C323 C -0.10129 1.09707 -0.31421
 C324 C -0.13068 1.12778 -0.31558
 C325 C -0.14945 1.14042 -0.27972
 C326 C -0.13809 1.12364 -0.24244
 C327 C -0.09391 1.07484 -0.20110
 C328 C -0.10559 1.09030 -0.16298
 C329 C -0.09014 1.07351 -0.12724
 C330 C -0.06357 1.04035 -0.12851
 C331 C -0.05216 1.02410 -0.16608
 C332 C -0.06628 1.04182 -0.20240
 C333 C -0.06274 1.04674 -0.27622
 C334 C -0.05156 1.02798 -0.23982
 H335 H -0.04974 1.03552 -0.30427
 H336 H -0.03018 1.00296 -0.24090
 H337 H -0.08767 1.08676 -0.34232
 H338 H -0.17272 1.16366 -0.28076
 H339 H -0.09861 1.08679 -0.09837
 H340 H -0.03063 0.99917 -0.16701
 H341 H -0.15356 1.13453 -0.21575
 H342 H -0.12552 1.11615 -0.16009
 C343 C 1.09797 0.59685 0.74201
 C344 C 1.10972 0.56917 0.77283
 C345 C 1.12298 0.58388 0.81072
 C346 C 1.12559 0.62599 0.81816
 C347 C 1.11448 0.65321 0.78723
 C348 C 1.10072 0.63899 0.74983
 C349 C 1.08356 0.58009 0.70218
 C350 C 1.06944 0.60520 0.67054
 C351 C 1.05585 0.58841 0.63422
 C352 C 1.05606 0.54611 0.62803
 C353 C 1.07041 0.52062 0.65917
 C354 C 1.08365 0.53730 0.69636
 C355 C 1.10867 0.52711 0.76542
 C356 C 1.09628 0.51154 0.72792
 H357 H 1.11788 0.50586 0.78890
 H358 H 1.09622 0.47879 0.72370
 H359 H 1.13176 0.56265 0.83439
 H360 H 1.11714 0.68579 0.79176
 H361 H 1.04507 0.60888 0.61073
 H362 H 1.07032 0.48786 0.65487
 H363 H 1.09304 0.66163 0.72738
 H364 H 1.06811 0.63790 0.67321
 C365 C 0.75422 0.59484 0.58944
 C366 C 0.75173 0.63719 0.59736
 C367 C 0.71656 0.65354 0.61493
 C368 C 0.68407 0.62814 0.62591
 C369 C 0.68654 0.58626 0.61824
 C370 C 0.72101 0.56974 0.60003
 C371 C 0.79270 0.57849 0.57148
 C372 C 0.79779 0.53715 0.56107
 C373 C 0.83483 0.52314 0.54600
 C374 C 0.86780 0.54986 0.54109
 C375 C 0.86269 0.59128 0.55029
 C376 C 0.82547 0.60578 0.56504
 C377 C 0.78477 0.66278 0.58887
 C378 C 0.82099 0.64735 0.57348
 H379 H 0.78289 0.69517 0.59500
 H380 H 0.84595 0.66832 0.56817
 H381 H 0.71493 0.68585 0.62152
 H382 H 0.66168 0.56629 0.62667
 H383 H 0.83785 0.49107 0.53889
 H384 H 0.88778 0.61235 0.54602
 H385 H 0.72131 0.53724 0.59530
 H386 H 0.77367 0.51510 0.56441
 C387 C 0.74091 0.39675 1.09428
 C388 C 0.74297 0.35465 1.10358
 C389 C 0.77817 0.33846 1.12138
 C390 C 0.81101 0.36386 1.13126
 C391 C 0.80869 0.40559 1.12273
 C392 C 0.77423 0.42191 1.10431
 C393 C 0.70281 0.41286 1.07531
 C394 C 0.69864 0.45371 1.06281
 C395 C 0.66206 0.46769 1.04676
 C396 C 0.62857 0.44145 1.04282
 C397 C 0.63274 0.40037 1.05403
 C398 C 0.66964 0.38585 1.06979
 C399 C 0.70959 0.32920 1.09601
 C400 C 0.67351 0.34457 1.08000
 H401 H 0.71110 0.29700 1.10329
 H402 H 0.64829 0.32378 1.07542
 H403 H 0.77973 0.30626 1.12866
 H404 H 0.83382 0.42556 1.13030
 H405 H 0.65981 0.49948 1.03811
 H406 H 0.60723 0.37967 1.05055
 H407 H 0.77413 0.45431 1.09880
 H408 H 0.72316 0.47543 1.06518
 C409 C 0.23766 1.10935 -0.09654
 C410 C 0.26905 1.08104 -0.10455
 C411 C 0.30525 1.09408 -0.12301
 C412 C 0.31116 1.13520 -0.13286
 C413 C 0.28070 1.16346 -0.12376
 C414 C 0.24432 1.15079 -0.10593
 C415 C 0.19876 1.09384 -0.07843
 C416 C 0.16452 1.11878 -0.07218
 C417 C 0.12862 1.10254 -0.05625
 C418 C 0.12606 1.06120 -0.04568
 C419 C 0.16010 1.03622 -0.05141
 C420 C 0.19601 1.05199 -0.06821
 C421 C 0.26423 1.03996 -0.09398
 C422 C 0.22869 1.02585 -0.07575
 H423 H 0.28838 1.01838 -0.09979
 H424 H 0.22650 0.99377 -0.06807
 H425 H 0.32910 1.07237 -0.12956
 H426 H 0.28487 1.19537 -0.13117
 H427 H 0.10273 1.12243 -0.05227
 H428 H 0.15828 1.00405 -0.04393
 H429 H 0.22194 1.17388 -0.09977
 H430 H 0.16455 1.15071 -0.08001
 C431 C 0.26443 -0.11160 0.40112
 C432 C 0.23333 -0.08349 0.39133
 C433 C 0.19724 -0.09713 0.37306
 C434 C 0.19113 -0.13866 0.36524
 C435 C 0.22148 -0.16658 0.37574
 C436 C 0.25776 -0.15333 0.39331
 C437 C 0.30294 -0.09563 0.41963
 C438 C 0.33673 -0.12059 0.42799
 C439 C 0.37223 -0.10407 0.44444
 C440 C 0.37487 -0.06239 0.45342
 C441 C 0.34128 -0.03733 0.44558
 C442 C 0.30574 -0.05345 0.42826
 C443 C 0.23822 -0.04204 0.40023
 C444 C 0.27345 -0.02743 0.41872
 H445 H 0.21431 -0.02058 0.39301
 H446 H 0.27566 0.00490 0.42513
 H447 H 0.17345 -0.07563 0.36553
 H448 H 0.21714 -0.19878 0.36995
 H449 H 0.39778 -0.12403 0.45006
 H450 H 0.34321 -0.00494 0.45183
 H451 H 0.27995 -0.17626 0.40074
 H452 H 0.33668 -0.15279 0.42150
 C453 C 0.59670 -0.24340 0.60748
 C454 C 0.60498 -0.27481 0.57924
 C455 C 0.62250 -0.31150 0.59242
 C456 C 0.63121 -0.31783 0.63359
 C457 C 0.62213 -0.28714 0.66166
 C458 C 0.60519 -0.25036 0.64888
 C459 C 0.57921 -0.20417 0.59197
 C460 C 0.57229 -0.17014 0.61709
 C461 C 0.55685 -0.13396 0.60098
 C462 C 0.54750 -0.13083 0.55955
 C463 C 0.55388 -0.16467 0.53435
 C464 C 0.57012 -0.20094 0.55006
 C465 C 0.59555 -0.26953 0.53810
 C466 C 0.57810 -0.23356 0.52390
 H467 H 0.60161 -0.29366 0.51653
 H468 H 0.57129 -0.23103 0.49179
 H469 H 0.62904 -0.33546 0.57078
 H470 H 0.62872 -0.29151 0.69359
 H471 H 0.55232 -0.10827 0.62107
 H472 H 0.54728 -0.16244 0.50215
 H473 H 0.59895 -0.22793 0.67190
 H474 H 0.57913 -0.17053 0.64911
 C475 C 1.09449 0.74277 0.39687
 C476 C 1.10319 0.74498 0.35481
 C477 C 1.12181 0.77992 0.33857
 C478 C 1.13326 0.81225 0.36387
 C479 C 1.12548 0.80977 0.40557
 C480 C 1.10612 0.77560 0.42195
 C481 C 1.07461 0.70490 0.41300
 C482 C 1.06231 0.70068 0.45378
 C483 C 1.04572 0.66408 0.46779
 C484 C 1.04114 0.63068 0.44164
 C485 C 1.05186 0.63505 0.40063
 C486 C 1.06803 0.67194 0.38607
 C487 C 1.09430 0.71193 0.32943
 C488 C 1.07771 0.67595 0.34484
 H489 H 1.10114 0.71355 0.29727
 H490 H 1.07226 0.65090 0.32411
 H491 H 1.12853 0.78166 0.30639
 H492 H 1.13433 0.83453 0.42542
 H493 H 1.03743 0.66161 0.49953
 H494 H 1.04779 0.60963 0.38000
 H495 H 1.10120 0.77525 0.45432
 H496 H 1.06536 0.72516 0.47538
 C497 C -0.09986 1.23704 0.10939
 C498 C -0.11001 1.26835 0.08151
 C499 C -0.12819 1.30436 0.09536
 C500 C -0.13559 1.31015 0.13682
 C501 C -0.12474 1.27961 0.16449
 C502 C -0.10722 1.24343 0.15106
 C503 C -0.08153 1.19859 0.09326
 C504 C -0.07286 1.16464 0.11805
 C505 C -0.05667 1.12916 0.10142
 C506 C -0.04827 1.12672 0.05977
 C507 C -0.05636 1.16048 0.03486
 C508 C -0.07344 1.19602 0.05112
 C509 C -0.10160 1.26371 0.04012
 C510 C -0.08328 1.22851 0.02531
 H511 H -0.10909 1.28779 0.01883
 H512 H -0.07727 1.22647 -0.00698
 H513 H -0.13602 1.32832 0.07405
 H514 H -0.13023 1.28372 0.19664
 H515 H -0.05080 1.10347 0.12126
 H516 H -0.05053 1.15866 0.00250
 H517 H -0.09950 1.22109 0.17382
 H518 H -0.07892 1.16451 0.15021
 C519 C 0.40589 0.25719 0.88825
 C520 C 0.39558 0.22594 0.91617
 C521 C 0.37673 0.19009 0.90243
 C522 C 0.36864 0.18445 0.86105
 C523 C 0.38009 0.21474 0.83326
 C524 C 0.39842 0.25071 0.84658
 C525 C 0.42403 0.29588 0.90441
 C526 C 0.43234 0.33000 0.87965
 C527 C 0.44776 0.36590 0.89641
 C528 C 0.45580 0.36862 0.93813
 C529 C 0.44831 0.33462 0.96297
 C530 C 0.43192 0.29866 0.94660
 C531 C 0.40410 0.23063 0.95756
 C532 C 0.42233 0.26602 0.97238
 H533 H 0.39657 0.20656 0.97887
 H534 H 0.42825 0.26817 1.00469
 H535 H 0.36835 0.16636 0.92383
 H536 H 0.37406 0.21080 0.80117
 H537 H 0.45323 0.39173 0.87659
 H538 H 0.45390 0.33660 0.99537
 H539 H 0.40636 0.27297 0.82379
 H540 H 0.42643 0.32996 0.84745
 C541 C 0.60810 0.59068 0.75746
 C542 C 0.58018 0.60047 0.72621
 C543 C 0.59402 0.61810 0.68989
 C544 C 0.63551 0.62532 0.68377
 C545 C 0.66328 0.61436 0.71408
 C546 C 0.64986 0.59733 0.75054
 C547 C 0.59189 0.57369 0.79653
 C548 C 0.61668 0.56606 0.83061
 C549 C 0.59996 0.55124 0.86667
 C550 C 0.55823 0.54317 0.86960
 C551 C 0.53330 0.55031 0.83576
 C552 C 0.54965 0.56608 0.79962
 C553 C 0.53869 0.59253 0.73133
 C554 C 0.52382 0.57520 0.76704
 H555 H 0.51737 0.59968 0.70727
 H556 H 0.49146 0.56955 0.76947
 H557 H 0.57266 0.62611 0.66612
 H558 H 0.69546 0.61974 0.70972
 H559 H 0.61983 0.54608 0.89240
 H560 H 0.50089 0.54475 0.83792
 H561 H 0.67264 0.58964 0.77278
 H562 H 0.64891 0.57195 0.83036
 C563 C 0.39019 0.09000 0.73955
 C564 C 0.41773 0.10034 0.77098
 C565 C 0.40356 0.11909 0.80651
 C566 C 0.36211 0.12721 0.81161
 C567 C 0.33470 0.11566 0.78114
 C568 C 0.34845 0.09734 0.74553
 C569 C 0.40684 0.07207 0.70117
 C570 C 0.38247 0.06364 0.66697
 C571 C 0.39967 0.04850 0.63137
 C572 C 0.44149 0.04091 0.62896
 C573 C 0.46595 0.04848 0.66307
 C574 C 0.44910 0.06454 0.69878
 C575 C 0.45920 0.09206 0.76672
 C576 C 0.47448 0.07414 0.73158
 H577 H 0.48022 0.09963 0.79092
 H578 H 0.50684 0.06846 0.72975
 H579 H 0.42470 0.12751 0.83034
 H580 H 0.30257 0.12170 0.78460
 H581 H 0.38010 0.04293 0.60549
 H582 H 0.49839 0.04318 0.66140
 H583 H 0.32592 0.08939 0.72310
 H584 H 0.35023 0.06921 0.66674
 C585 C 0.10343 0.90515 0.24253
 C586 C 0.14539 0.89597 0.24422
 C587 C 0.16195 0.87796 0.27922
 C588 C 0.13704 0.86773 0.31223
 C589 C 0.09547 0.87633 0.31033
 C590 C 0.07880 0.89496 0.27609
 C591 C 0.08685 0.92407 0.20452
 C592 C 0.04604 0.93619 0.20060
 C593 C 0.03159 0.95205 0.16405
 C594 C 0.05731 0.95620 0.13033
 C595 C 0.09837 0.94544 0.13428
 C596 C 0.11335 0.92982 0.17113
 C597 C 0.17032 0.90381 0.21063
 C598 C 0.15454 0.91987 0.17470
 H599 H 0.20242 0.89666 0.21186
 H600 H 0.17495 0.92462 0.14931
 H601 H 0.19403 0.87068 0.28043
 H602 H 0.07586 0.86855 0.33559
 H603 H -0.00016 0.96034 0.16201
 H604 H 0.11868 0.94904 0.10861
 H605 H 0.04654 0.90045 0.27633
 H606 H 0.02468 0.93361 0.22527
 C607 C 0.89714 0.40506 0.25531
 C608 C 0.85508 0.39602 0.25360
 C609 C 0.83841 0.37815 0.21865
 C610 C 0.86331 0.36775 0.18585
 C611 C 0.90498 0.37597 0.18775
 C612 C 0.92178 0.39462 0.22191
 C613 C 0.91380 0.42393 0.29323
 C614 C 0.95461 0.43638 0.29704
 C615 C 0.96914 0.45209 0.33361
 C616 C 0.94349 0.45562 0.36738
 C617 C 0.90245 0.44464 0.36352
 C618 C 0.88736 0.42935 0.32666
 C619 C 0.83018 0.40374 0.28715
 C620 C 0.84610 0.41946 0.32312
 H621 H 0.79803 0.39666 0.28590
 H622 H 0.82574 0.42403 0.34855
 H623 H 0.80625 0.37105 0.21732
 H624 H 0.92450 0.36788 0.16260
 H625 H 1.00088 0.46062 0.33569
 H626 H 0.88220 0.44794 0.38925
 H627 H 0.95412 0.39984 0.22181
 H628 H 0.97586 0.43419 0.27225
   
