data_POSCAR
  _audit_creation_date              2014-09-24
  _audit_creation_method            'ToBaCCo'
  _symmetry_space_group_name_H-M    'P1'
  _symmetry_Int_Tables_number       1
  _symmetry_cell_setting            triclinic
  loop_
  _symmetry_equiv_pos_as_xyz
 x,y,z
_cell_length_a 24.2646
_cell_length_b 24.2928
_cell_length_c 28.1334
_cell_angle_alpha 90.060400
_cell_angle_beta 89.935900
_cell_angle_gamma 120.105500
loop_
  _atom_site_label
  _atom_site_type_symbol
  _atom_site_fract_x
  _atom_site_fract_y
  _atom_site_fract_z
C1 C -0.00029 0.50565 1.37871
 C2 C 0.05732 0.53210 1.35413
 C3 C 0.05759 0.52998 1.30434
 C4 C 0.00001 0.50409 1.27797
 C5 C -0.05773 0.47900 1.30414
 C6 C -0.05776 0.47838 1.35396
 C7 C 0.00018 0.50301 1.22407
 C8 C -0.05716 0.46800 1.19780
 C9 C -0.05686 0.46838 1.14802
 C10 C 0.00049 0.50088 1.12338
 C11 C 0.05769 0.53446 1.14801
 C12 C 0.05767 0.53695 1.19775
 H13 H -0.00041 0.50603 1.41734
 H14 H 0.10324 0.54832 1.28722
 H15 H -0.10332 0.45983 1.28682
 H16 H -0.10268 0.43985 1.21488
 H17 H 0.00060 0.50012 1.08481
 H18 H 0.10307 0.56594 1.21477
 C19 C 0.49366 0.49387 1.37944
 C20 C 0.46732 0.52498 1.35484
 C21 C 0.46981 0.52755 1.30505
 C22 C 0.49625 0.49644 1.27864
 C23 C 0.52139 0.46401 1.30485
 C24 C 0.52134 0.46408 1.35470
 C25 C 0.49783 0.49804 1.22467
 C26 C 0.53202 0.47483 1.19835
 C27 C 0.53221 0.47525 1.14856
 C28 C 0.50085 0.50114 1.12393
 C29 C 0.46795 0.52546 1.14854
 C30 C 0.46515 0.52279 1.19829
 H31 H 0.49288 0.49311 1.41806
 H32 H 0.45126 0.55456 1.28800
 H33 H 0.54117 0.43819 1.28758
 H34 H 0.55907 0.45632 1.21537
 H35 H 0.50191 0.50221 1.08536
 H36 H 0.43686 0.54003 1.21521
 C37 C 0.50587 1.00082 1.37834
 C38 C 0.47470 0.94353 1.35357
 C39 C 0.47223 0.94344 1.30390
 C40 C 0.50403 1.00103 1.27770
 C41 C 0.53681 1.05858 1.30395
 C42 C 0.53613 1.05832 1.35374
 C43 C 0.50277 1.00104 1.22391
 C44 C 0.52497 1.05833 1.19781
 C45 C 0.52506 1.05812 1.14808
 C46 C 0.50025 1.00100 1.12332
 C47 C 0.47673 0.94389 1.14786
 C48 C 0.47932 0.94373 1.19754
 H49 H 0.50626 1.00054 1.41694
 H50 H 0.44474 0.89784 1.28684
 H51 H 0.56337 1.10420 1.28673
 H52 H 0.54226 1.10373 1.21497
 H53 H 0.49939 1.00100 1.08475
 H54 H 0.46308 0.89837 1.21445
 C55 C 1.00067 0.49288 0.62151
 C56 C 0.94325 0.46361 0.64623
 C57 C 0.94301 0.46347 0.69599
 C58 C 1.00072 0.49537 0.72223
 C59 C 1.05845 0.52602 0.69585
 C60 C 1.05820 0.52348 0.64609
 C61 C 1.00071 0.49696 0.77614
 C62 C 1.05820 0.52171 0.80255
 C63 C 1.05799 0.52435 0.85226
 C64 C 1.00067 0.50010 0.87683
 C65 C 0.94337 0.47425 0.85213
 C66 C 0.94319 0.47377 0.80237
 H67 H 1.00044 0.49209 0.58291
 H68 H 0.89715 0.43804 0.71302
 H69 H 1.10422 0.55266 0.71287
 H70 H 1.10383 0.53902 0.78570
 H71 H 1.00065 0.50121 0.91540
 H72 H 0.89754 0.45520 0.78533
 C73 C 0.50611 0.50603 0.62218
 C74 C 0.53603 0.47860 0.64674
 C75 C 0.53667 0.47890 0.69649
 C76 C 0.50443 0.50416 0.72283
 C77 C 0.47302 0.53032 0.69664
 C78 C 0.47530 0.53246 0.64695
 C79 C 0.50328 0.50297 0.77666
 C80 C 0.47919 0.53621 0.80307
 C81 C 0.47676 0.53360 0.85276
 C82 C 0.50084 0.50057 0.87729
 C83 C 0.52620 0.46878 0.85252
 C84 C 0.52620 0.46857 0.80278
 H85 H 0.50653 0.50653 0.58360
 H86 H 0.56278 0.45929 0.71346
 H87 H 0.44598 0.54892 0.71367
 H88 H 0.46229 0.56475 0.78622
 H89 H 0.49998 0.49971 0.91587
 H90 H 0.54415 0.44104 0.78565
 C91 C 0.49173 -0.00225 0.62153
 C92 C 0.52022 0.05525 0.64614
 C93 C 0.52067 0.05558 0.69594
 C94 C 0.49442 -0.00200 0.72237
 C95 C 0.46676 -0.05977 0.69602
 C96 C 0.46458 -0.05971 0.64620
 C97 C 0.49617 -0.00179 0.77642
 C98 C 0.46460 -0.05924 0.80305
 C99 C 0.46732 -0.05877 0.85287
 C100 C 0.49959 -0.00118 0.87724
 C101 C 0.53009 0.05602 0.85237
 C102 C 0.52943 0.05593 0.80258
 H103 H 0.49105 -0.00214 0.58294
 H104 H 0.54179 0.10150 0.71283
 H105 H 0.44698 -0.10549 0.71308
 H106 H 0.43732 -0.10502 0.78621
 H107 H 0.50092 -0.00073 0.91583
 H108 H 0.55540 0.10161 0.78548
 O109 O 0.42765 0.67092 0.94531
 O110 O 0.43082 0.77885 0.96060
 C111 C 0.39142 0.78839 0.93749
 O112 O 0.33193 0.75766 0.94472
 O113 O 0.22387 0.65266 0.96044
 C114 C 0.21405 0.60321 0.93790
 O115 O 0.24450 0.57442 0.94557
 O116 O 0.34967 0.57205 0.96132
 C117 C 0.39879 0.61149 0.93823
 O118 O 0.43025 0.65265 1.03947
 O119 O 0.42789 0.75779 1.05477
 C120 C 0.39922 0.78846 1.06199
 O121 O 0.35028 0.77909 1.03890
 O122 O 0.24465 0.67175 1.05457
 C123 C 0.21389 0.61244 1.06225
 O124 O 0.22346 0.57268 1.03967
 O125 O 0.33112 0.57525 1.05545
 C126 C 0.39059 0.60378 1.06263
 Cr127 Cr 0.42562 0.71330 1.00004
 Cr128 Cr 0.28944 0.71353 0.99967
 Cr129 Cr 0.28896 0.57712 1.00048
 O130 O 0.33464 0.66797 1.00006
 O131 O 0.57367 0.33047 0.94526
 O132 O 0.57019 0.22250 0.96085
 C133 C 0.60945 0.21260 0.93780
 O134 O 0.66895 0.24318 0.94498
 O135 O 0.77717 0.34812 0.96041
 C136 C 0.78720 0.39751 0.93775
 O137 O 0.75697 0.42658 0.94534
 O138 O 0.65193 0.42932 0.96097
 C139 C 0.60276 0.38985 0.93798
 O140 O 0.57112 0.34923 1.03936
 O141 O 0.57314 0.24404 1.05494
 C142 C 0.60175 0.21336 1.06226
 O143 O 0.65068 0.22252 1.03920
 O144 O 0.75648 0.32979 1.05458
 C145 C 0.78726 0.38914 1.06215
 O146 O 0.77779 0.42882 1.03946
 O147 O 0.67029 0.42667 1.05514
 C148 C 0.61083 0.39818 1.06243
 Cr149 Cr 0.57558 0.28832 1.00009
 Cr150 Cr 0.71156 0.28768 0.99980
 Cr151 Cr 0.71246 0.42431 1.00021
 O152 O 0.66657 0.33345 1.00003
 O153 O 0.67011 0.42596 0.55377
 O154 O 0.77774 0.42854 0.53783
 C155 C 0.78694 0.38886 0.56085
 O156 O 0.75579 0.32948 0.55365
 O157 O 0.65068 0.22165 0.53776
 C158 C 0.60148 0.21195 0.56075
 O159 O 0.57312 0.24296 0.55368
 O160 O 0.57084 0.34823 0.53839
 C161 C 0.61070 0.39741 0.56121
 O162 O 0.65094 0.42872 0.45981
 O163 O 0.75616 0.42607 0.44375
 C164 C 0.78740 0.39793 0.43673
 O165 O 0.77770 0.34874 0.45960
 O166 O 0.66973 0.24349 0.44375
 C167 C 0.61025 0.21244 0.43665
 O168 O 0.57057 0.22202 0.45947
 O169 O 0.57295 0.32978 0.44419
 C170 C 0.60135 0.38923 0.43717
 Cr171 Cr 0.71197 0.42380 0.49877
 Cr172 Cr 0.71173 0.28761 0.49867
 Cr173 Cr 0.57539 0.28750 0.49891
 O174 O 0.66632 0.33296 0.49872
 O175 O 0.34733 0.57022 0.53913
 O176 O 0.24147 0.57161 0.55400
 C177 C 0.21135 0.60074 0.56196
 O178 O 0.22138 0.65030 0.53968
 O179 O 0.32893 0.75604 0.55476
 C180 C 0.38839 0.78659 0.56233
 O181 O 0.42788 0.77671 0.53972
 O182 O 0.42571 0.66913 0.55451
 C183 C 0.39658 0.60972 0.56190
 O184 O 0.33051 0.57294 0.44492
 O185 O 0.22200 0.56938 0.45978
 C186 C 0.21125 0.60850 0.43762
 O187 O 0.24099 0.66784 0.44548
 O188 O 0.34622 0.77602 0.46056
 C189 C 0.39598 0.78670 0.43807
 O190 O 0.42562 0.75699 0.44553
 O191 O 0.42900 0.65209 0.46035
 C192 C 0.39008 0.60239 0.43773
 Cr193 Cr 0.28713 0.57470 0.49946
 Cr194 Cr 0.28623 0.71074 0.50009
 Cr195 Cr 0.42339 0.71188 0.50000
 O196 O 0.33223 0.66577 0.49981
 C197 C 0.43961 0.55276 0.38006
 C198 C 0.41598 0.57601 0.40484
 C199 C 0.44530 0.88501 0.38005
 C200 C 0.42220 0.83846 0.40499
 C201 C 0.11273 0.55959 0.37942
 C202 C 0.15939 0.58300 0.40442
 C203 C 0.54922 0.43647 0.37985
 C204 C 0.57359 0.41394 0.40454
 C205 C 0.56351 0.11367 0.37895
 C206 C 0.58577 0.16038 0.40378
 C207 C 0.88664 0.45026 0.37910
 C208 C 0.83974 0.42571 0.40391
 C209 C 0.56302 0.44775 1.12163
 C210 C 0.58618 0.42482 1.09609
 C211 C 0.88480 0.43711 1.12117
 C212 C 0.83863 0.41376 1.09572
 C213 C 0.55225 0.11633 1.12137
 C214 C 0.57514 0.16234 1.09591
 C215 C 0.43794 0.55375 1.12168
 C216 C 0.41519 0.57708 1.09621
 C217 C 0.11615 0.56508 1.12120
 C218 C 0.16241 0.58803 1.09578
 C219 C 0.44898 0.88569 1.12103
 C220 C 0.42584 0.83965 1.09555
 C221 C 0.56467 0.44900 0.61991
 C222 C 0.58657 0.42471 0.59458
 C223 C 0.54992 0.11370 0.61925
 C224 C 0.57413 0.16008 0.59397
 C225 C 0.88481 0.43505 0.61948
 C226 C 0.83853 0.41314 0.59418
 C227 C 0.44596 0.56147 0.62039
 C228 C 0.42285 0.58464 0.59524
 C229 C 0.43678 0.88486 0.62087
 C230 C 0.41349 0.83830 0.59572
 C231 C 0.11351 0.55107 0.62071
 C232 C 0.15992 0.57423 0.59547
 C233 C 0.44871 0.56378 0.87956
 C234 C 0.42543 0.58669 0.90488
 C235 C 0.11636 0.55270 0.87908
 C236 C 0.16259 0.57620 0.90445
 C237 C 0.43923 0.88609 0.87850
 C238 C 0.41635 0.83985 0.90392
 C239 C 0.55355 0.43793 0.87919
 C240 C 0.57640 0.41468 0.90452
 C241 C 0.88494 0.44688 0.87889
 C242 C 0.83866 0.42403 0.90425
 C243 C 0.56082 0.11460 0.87906
 C244 C 0.58424 0.16096 0.90437
   
