data_POSCAR
  _audit_creation_date              2014-09-24
  _audit_creation_method            'ToBaCCo'
  _symmetry_space_group_name_H-M    'P1'
  _symmetry_Int_Tables_number       1
  _symmetry_cell_setting            triclinic
  loop_
  _symmetry_equiv_pos_as_xyz
 x,y,z
_cell_length_a 27.0209
_cell_length_b 27.1194
_cell_length_c 46.2040
_cell_angle_alpha 89.325400
_cell_angle_beta 90.678700
_cell_angle_gamma 87.512500
loop_
  _atom_site_label
  _atom_site_type_symbol
  _atom_site_fract_x
  _atom_site_fract_y
  _atom_site_fract_z
O1 O -0.03907 0.45288 1.02804
 O2 O -0.03830 0.55076 0.97201
 O3 O -0.03887 0.45432 0.97174
 O4 O -0.04031 0.54865 1.02826
 O5 O 0.04139 0.54559 1.02943
 O6 O 0.04281 0.45077 0.97286
 O7 O 0.04331 0.54724 0.97314
 O8 O 0.04263 0.44981 1.02913
 Cu9 Cu -0.04731 0.50198 0.99980
 Cu10 Cu 0.05072 0.49804 1.00115
 C11 C 0.00173 0.43470 1.03824
 C12 C 0.00271 0.56620 0.96313
 C13 C 0.00212 0.43596 0.96282
 C14 C 0.00021 0.56321 1.03860
 O15 O 0.55061 -0.03843 0.52795
 O16 O 0.45239 -0.03865 0.47191
 O17 O 0.54848 -0.04036 0.47170
 O18 O 0.45377 -0.03846 0.52821
 O19 O 0.45067 0.04293 0.52712
 O20 O 0.54581 0.04104 0.47055
 O21 O 0.44971 0.04275 0.47084
 O22 O 0.54754 0.04288 0.52685
 Cu23 Cu 0.50160 -0.04712 0.50016
 Cu24 Cu 0.49817 0.05055 0.49884
 C25 C 0.56635 0.00232 0.53684
 C26 C 0.43437 0.00209 0.46170
 C27 C 0.56326 -0.00006 0.46135
 C28 C 0.43556 0.00247 0.53714
 C29 C -0.00556 -0.00530 0.24941
 C30 C 0.00337 0.00342 0.75069
 C31 C 0.04258 -0.34559 0.09437
 C32 C -0.00280 -0.32608 0.10434
 C33 C -0.04711 -0.34306 0.09305
 C34 C -0.04613 -0.37925 0.07176
 C35 C -0.00071 -0.39893 0.06144
 C36 C 0.04367 -0.38182 0.07306
 C37 C -0.00401 -0.28771 0.12560
 C38 C -0.00525 -0.25497 0.14302
 C39 C -0.00680 -0.21583 0.16288
 C40 C -0.00803 -0.18161 0.17929
 C41 C -0.00919 -0.13970 0.19811
 C42 C -0.04309 -0.10022 0.19274
 C43 C -0.04214 -0.05803 0.20971
 C44 C -0.00605 -0.05357 0.23183
 C45 C 0.02536 -0.09544 0.23833
 C46 C 0.02432 -0.13766 0.22129
 H47 H 0.07711 -0.33259 0.10291
 H48 H -0.08244 -0.32810 0.10056
 H49 H -0.08095 -0.39162 0.06329
 H50 H 0.07922 -0.39622 0.06560
 H51 H -0.06988 -0.10175 0.17518
 H52 H -0.06875 -0.02791 0.20502
 H53 H 0.05073 -0.09619 0.25659
 H54 H 0.04988 -0.16864 0.22613
 C55 C -0.04289 0.34024 0.09207
 C56 C 0.00205 0.31998 0.10314
 C57 C 0.04681 0.33758 0.09325
 C58 C 0.04671 0.37511 0.07226
 C59 C 0.00173 0.39551 0.06083
 C60 C -0.04310 0.37780 0.07106
 C61 C 0.00234 0.28020 0.12403
 C62 C 0.00270 0.24626 0.14111
 C63 C 0.00309 0.20573 0.16054
 C64 C 0.00323 0.17033 0.17656
 C65 C 0.00297 0.12707 0.19487
 C66 C -0.00835 0.13101 0.22421
 C67 C -0.01041 0.08852 0.24150
 C68 C -0.00304 0.04099 0.22959
 C69 C 0.01174 0.03820 0.20035
 C70 C 0.01383 0.08069 0.18314
 H71 H -0.07775 0.32677 0.09952
 H72 H 0.08181 0.32206 0.10162
 H73 H 0.08185 0.38791 0.06487
 H74 H -0.07833 0.39273 0.06272
 H75 H -0.01578 0.16688 0.23370
 H76 H -0.01884 0.09260 0.26422
 H77 H 0.02238 0.00343 0.19054
 H78 H 0.02404 0.07733 0.16062
 C79 C 0.33957 -0.04139 0.58966
 C80 C 0.31770 0.00339 0.59878
 C81 C 0.33515 0.04796 0.58830
 C82 C 0.37399 0.04778 0.56854
 C83 C 0.39586 0.00291 0.55899
 C84 C 0.37838 -0.04169 0.56992
 C85 C 0.27684 0.00351 0.61851
 C86 C 0.24245 0.00344 0.63490
 C87 C 0.20208 0.00332 0.65403
 C88 C 0.16766 0.00336 0.67039
 C89 C 0.12673 0.00373 0.69008
 C90 C 0.11377 0.04658 0.70520
 C91 C 0.07451 0.04705 0.72461
 C92 C 0.04819 0.00397 0.73008
 C93 C 0.06014 -0.03807 0.71329
 C94 C 0.09946 -0.03842 0.69390
 H95 H 0.32636 -0.07612 0.59764
 H96 H 0.31848 0.08286 0.59521
 H97 H 0.38652 0.08273 0.56053
 H98 H 0.39435 -0.07686 0.56301
 H99 H 0.13379 0.07989 0.70181
 H100 H 0.06457 0.08168 0.73480
 H101 H 0.03918 -0.07101 0.71551
 H102 H 0.10847 -0.07156 0.68183
 C103 C -0.33323 -0.04152 0.58818
 C104 C -0.31506 0.00332 0.59733
 C105 C -0.33697 0.04779 0.58688
 C106 C -0.37657 0.04753 0.56714
 C107 C -0.39493 0.00260 0.55746
 C108 C -0.37285 -0.04197 0.56844
 C109 C -0.27353 0.00374 0.61713
 C110 C -0.23860 0.00410 0.63360
 C111 C -0.19766 0.00438 0.65285
 C112 C -0.16277 0.00434 0.66937
 C113 C -0.12133 0.00379 0.68927
 C114 C -0.10795 -0.03925 0.70488
 C115 C -0.06824 -0.03994 0.72454
 C116 C -0.04187 0.00311 0.72976
 C117 C -0.05425 0.04536 0.71250
 C118 C -0.09402 0.04593 0.69285
 H119 H -0.31655 -0.07618 0.59616
 H120 H -0.32321 0.08273 0.59384
 H121 H -0.39241 0.08265 0.55932
 H122 H -0.38577 -0.07732 0.56163
 H123 H -0.12800 -0.07255 0.70168
 H124 H -0.05803 -0.07470 0.73511
 H125 H -0.03328 0.07830 0.71454
 H126 H -0.10336 0.07922 0.68042
 C127 C -0.04066 -0.33346 0.91182
 C128 C 0.00448 -0.31562 0.90271
 C129 C 0.04897 -0.33775 0.91314
 C130 C 0.04846 -0.37723 0.93285
 C131 C 0.00323 -0.39524 0.94252
 C132 C -0.04137 -0.37296 0.93153
 C133 C 0.00518 -0.27412 0.88301
 C134 C 0.00586 -0.23916 0.86667
 C135 C 0.00657 -0.19812 0.84763
 C136 C 0.00696 -0.16307 0.83135
 C137 C 0.00697 -0.12132 0.81180
 C138 C 0.04974 -0.11076 0.79661
 C139 C 0.04940 -0.07089 0.77712
 C140 C 0.00559 -0.04158 0.77171
 C141 C -0.03628 -0.05120 0.78862
 C142 C -0.03582 -0.09104 0.80806
 H143 H -0.07535 -0.31659 0.90385
 H144 H 0.08414 -0.32424 0.90622
 H145 H 0.08360 -0.39323 0.94067
 H146 H -0.07694 -0.38561 0.93832
 H147 H 0.08352 -0.13320 0.79994
 H148 H 0.08385 -0.06298 0.76677
 H149 H -0.06984 -0.02809 0.78635
 H150 H -0.06892 -0.09823 0.82014
 C151 C 0.04720 0.33560 0.91170
 C152 C 0.00234 0.31853 0.90119
 C153 C -0.04248 0.34067 0.91025
 C154 C -0.04254 0.37935 0.92998
 C155 C 0.00234 0.39643 0.94095
 C156 C 0.04725 0.37432 0.93144
 C157 C 0.00218 0.27772 0.88153
 C158 C 0.00181 0.24332 0.86525
 C159 C 0.00129 0.20288 0.84630
 C160 C 0.00092 0.16831 0.83014
 C161 C 0.00076 0.12711 0.81077
 C162 C 0.04357 0.09704 0.80754
 C163 C 0.04376 0.05758 0.78839
 C164 C 0.00156 0.04815 0.77126
 C165 C -0.04220 0.07729 0.77611
 C166 C -0.04226 0.11676 0.79532
 H167 H 0.08212 0.31871 0.90483
 H168 H -0.07742 0.32774 0.90226
 H169 H -0.07775 0.39552 0.93685
 H170 H 0.08241 0.38654 0.93949
 H171 H 0.07687 0.10405 0.81984
 H172 H 0.07731 0.03457 0.78654
 H173 H -0.07685 0.06949 0.76559
 H174 H -0.07606 0.13903 0.79826
 C175 C -0.34552 0.04178 0.40532
 C176 C -0.32621 -0.00350 0.39527
 C177 C -0.34329 -0.04758 0.40665
 C178 C -0.37938 -0.04646 0.42807
 C179 C -0.39887 -0.00114 0.43844
 C180 C -0.38165 0.04301 0.42675
 C181 C -0.28799 -0.00482 0.37385
 C182 C -0.25536 -0.00611 0.35628
 C183 C -0.21634 -0.00764 0.33626
 C184 C -0.18218 -0.00881 0.31972
 C185 C -0.14029 -0.00985 0.30077
 C186 C -0.10050 -0.04346 0.30606
 C187 C -0.05823 -0.04227 0.28903
 C188 C -0.05401 -0.00621 0.26695
 C189 C -0.09622 0.02487 0.26050
 C190 C -0.13851 0.02358 0.27759
 H191 H -0.33244 0.07613 0.39671
 H192 H -0.32848 -0.08283 0.39908
 H193 H -0.39184 -0.08110 0.43658
 H194 H -0.39591 0.07848 0.43425
 H195 H -0.10182 -0.07019 0.32362
 H196 H -0.02785 -0.06863 0.29369
 H197 H -0.09714 0.05020 0.24227
 H198 H -0.16973 0.04893 0.27283
 C199 C 0.33744 0.04745 0.40647
 C200 C 0.31973 0.00294 0.39649
 C201 C 0.33980 -0.04192 0.40759
 C202 C 0.37730 -0.04230 0.42873
 C203 C 0.39515 0.00229 0.43904
 C204 C 0.37491 0.04718 0.42759
 C205 C 0.28003 0.00337 0.37545
 C206 C 0.24615 0.00379 0.35823
 C207 C 0.20567 0.00419 0.33866
 C208 C 0.17029 0.00429 0.32254
 C209 C 0.12699 0.00394 0.30413
 C210 C 0.08034 0.01448 0.31579
 C211 C 0.03780 0.01219 0.29852
 C212 C 0.04081 -0.00249 0.26928
 C213 C 0.08859 -0.00951 0.25743
 C214 C 0.13115 -0.00724 0.27479
 H215 H 0.32205 0.08238 0.39808
 H216 H 0.32624 -0.07659 0.40007
 H217 H 0.39210 -0.07746 0.43708
 H218 H 0.38783 0.08214 0.43504
 H219 H 0.07680 0.02459 0.33832
 H220 H 0.00281 0.02257 0.30829
 H221 H 0.09284 -0.01785 0.23471
 H222 H 0.16722 -0.01444 0.26535
   
