data_POSCAR
  _audit_creation_date              2014-09-24
  _audit_creation_method            'ToBaCCo'
  _symmetry_space_group_name_H-M    'P1'
  _symmetry_Int_Tables_number       1
  _symmetry_cell_setting            triclinic
  loop_
  _symmetry_equiv_pos_as_xyz
 x,y,z
_cell_length_a 29.5438
_cell_length_b 30.1195
_cell_length_c 30.2159
_cell_angle_alpha 90.013600
_cell_angle_beta 89.606600
_cell_angle_gamma 89.648000
loop_
  _atom_site_label
  _atom_site_type_symbol
  _atom_site_fract_x
  _atom_site_fract_y
  _atom_site_fract_z
C1 C 0.33653 0.39529 1.36323
 C2 C 0.37267 0.40021 1.33339
 C3 C 0.40909 0.37107 1.33469
 C4 C 0.40993 0.33677 1.36617
 C5 C 0.37407 0.33194 1.39537
 C6 C 0.33710 0.36132 1.39385
 C7 C 0.29571 0.41704 1.36774
 N8 N 0.27078 0.39654 1.39976
 C9 C 0.29651 0.36287 1.41645
 C10 C 0.38189 0.29399 1.41937
 N11 N 0.42219 0.27587 1.40639
 C12 C 0.43923 0.30171 1.37330
 C13 C 0.43684 0.38124 1.29936
 N14 N 0.41831 0.41600 1.27712
 C15 C 0.37890 0.42758 1.29747
 H16 H 0.28424 0.44463 1.34767
 H17 H 0.28694 0.34149 1.44372
 H18 H 0.35950 0.28033 1.44434
 H19 H 0.46920 0.29409 1.35382
 H20 H 0.46723 0.36353 1.28936
 H21 H 0.35542 0.45254 1.28557
 C22 C 1.16352 0.59799 0.86229
 C23 C 1.13850 0.60353 0.82342
 C24 C 1.11092 0.64051 0.81822
 C25 C 1.10794 0.67237 0.85211
 C26 C 1.13160 0.66589 0.89080
 C27 C 1.15970 0.62868 0.89590
 C28 C 1.19749 0.56891 0.87376
 N29 N 1.21432 0.58069 0.91404
 C30 C 1.19111 0.61762 0.92747
 C31 C 1.12463 0.70249 0.91682
 N32 N 1.09901 0.73272 0.89443
 C33 C 1.08752 0.71362 0.85510
 C34 C 1.09160 0.63739 0.77698
 N35 N 1.10688 0.59957 0.75724
 C36 C 1.13534 0.57854 0.78552
 H37 H 1.21170 0.54379 0.85203
 H38 H 1.19724 0.63618 0.95748
 H39 H 1.13701 0.70604 0.95024
 H40 H 1.06807 0.72940 0.82922
 H41 H 1.06782 0.66061 0.76250
 H42 H 1.15183 0.54694 0.77921
 C43 C 0.66568 -0.10901 0.13327
 C44 C 0.63113 -0.10586 0.16523
 C45 C 0.59515 -0.13510 0.16432
 C46 C 0.59282 -0.16738 0.13084
 C47 C 0.62684 -0.17019 0.09934
 C48 C 0.66359 -0.14102 0.10069
 C49 C 0.70608 -0.08709 0.12772
 N50 N 0.72928 -0.10573 0.09317
 C51 C 0.70267 -0.13809 0.07587
 C52 C 0.61755 -0.20597 0.07285
 N53 N 0.57807 -0.22477 0.08661
 C54 C 0.56309 -0.20151 0.12261
 C55 C 0.56859 -0.12620 0.20094
 N56 N 0.58697 -0.09166 0.22340
 C57 C 0.62552 -0.07942 0.20204
 H58 H 0.71859 -0.06089 0.14883
 H59 H 0.71063 -0.15774 0.04679
 H60 H 0.63828 -0.21751 0.04543
 H61 H 0.53426 -0.21028 0.14306
 H62 H 0.53874 -0.14429 0.21119
 H63 H 0.64830 -0.05371 0.21305
 C64 C -0.16154 1.09731 -0.36892
 C65 C -0.12652 1.09503 -0.33800
 C66 C -0.09371 1.12760 -0.33726
 C67 C -0.09519 1.16238 -0.36823
 C68 C -0.13037 1.16488 -0.39816
 C69 C -0.16420 1.13234 -0.39808
 C70 C -0.19931 1.07192 -0.37473
 N71 N -0.22686 1.09160 -0.40513
 C72 C -0.20458 1.12823 -0.42037
 C73 C -0.12440 1.20301 -0.42248
 N74 N -0.08567 1.22324 -0.40917
 C75 C -0.06845 1.19907 -0.37499
 C76 C -0.06834 1.12073 -0.29970
 N77 N -0.08578 1.08544 -0.27748
 C78 C -0.12086 1.06912 -0.30094
 H79 H -0.20510 1.04048 -0.35845
 H80 H -0.21757 1.15187 -0.44413
 H81 H -0.14616 1.21450 -0.44886
 H82 H -0.03934 1.20815 -0.35545
 H83 H -0.04185 1.14203 -0.28739
 H84 H -0.14307 1.04288 -0.28976
 C85 C 0.64460 0.58620 0.61456
 C86 C 0.61120 0.58484 0.64766
 C87 C 0.58063 0.61962 0.65232
 C88 C 0.58254 0.65585 0.62310
 C89 C 0.61585 0.65731 0.59072
 C90 C 0.64712 0.62234 0.58637
 C91 C 0.68320 0.56119 0.60808
 N92 N 0.70911 0.58148 0.57698
 C93 C 0.68729 0.61865 0.56315
 C94 C 0.61369 0.69859 0.57144
 N95 N 0.58003 0.72253 0.59133
 C96 C 0.56019 0.69616 0.62237
 C97 C 0.55846 0.61364 0.69219
 N98 N 0.57532 0.57655 0.71176
 C99 C 0.60667 0.55811 0.68424
 H100 H 0.69350 0.53240 0.62705
 H101 H 0.70136 0.64294 0.54061
 H102 H 0.63522 0.71032 0.54481
 H103 H 0.53325 0.70647 0.64466
 H104 H 0.53479 0.63657 0.70761
 H105 H 0.62742 0.52947 0.69214
 C106 C 0.84216 0.41053 0.11665
 C107 C 0.87222 0.41044 0.15235
 C108 C 0.90225 0.37546 0.15770
 C109 C 0.90202 0.33982 0.12787
 C110 C 0.87220 0.33978 0.09291
 C111 C 0.84220 0.37554 0.08712
 C112 C 0.80689 0.43817 0.10544
 N113 N 0.78564 0.42138 0.06923
 C114 C 0.80704 0.38261 0.05835
 C115 C 0.87676 0.29946 0.07188
 N116 N 0.90802 0.27445 0.09376
 C117 C 0.92441 0.29972 0.12740
 C118 C 0.92461 0.38225 0.19687
 N119 N 0.90921 0.42069 0.21512
 C120 C 0.87676 0.43792 0.18843
 H121 H 0.79549 0.46649 0.12466
 H122 H 0.79750 0.36056 0.03175
 H123 H 0.85678 0.28832 0.04415
 H124 H 0.95116 0.29009 0.14980
 H125 H 0.94908 0.36010 0.21190
 H126 H 0.85676 0.46730 0.19571
 C127 C 0.34537 0.09064 0.87870
 C128 C 0.37396 0.09432 0.84174
 C129 C 0.40616 0.12748 0.84006
 C130 C 0.41014 0.15734 0.87541
 C131 C 0.38277 0.15277 0.91246
 C132 C 0.34997 0.11937 0.91399
 C133 C 0.30626 0.06711 0.88557
 N134 N 0.28688 0.08049 0.92440
 C135 C 0.31355 0.11276 0.94175
 C136 C 0.39002 0.18900 0.93904
 N137 N 0.41937 0.21658 0.91808
 C138 C 0.43270 0.19697 0.87962
 C139 C 0.42610 0.12565 0.79882
 N140 N 0.40640 0.09251 0.77549
 C141 C 0.37467 0.07301 0.80148
 H142 H 0.29191 0.04337 0.86278
 H143 H 0.30473 0.13333 0.96996
 H144 H 0.37297 0.19613 0.97009
 H145 H 0.45465 0.21199 0.85507
 H146 H 0.45241 0.14724 0.78631
 H147 H 0.35305 0.04600 0.79136
 C148 C 0.15557 0.90545 0.37621
 C149 C 0.12645 0.90440 0.33993
 C150 C 0.09539 0.87056 0.33583
 C151 C 0.09269 0.83763 0.36844
 C152 C 0.12169 0.83851 0.40432
 C153 C 0.15361 0.87268 0.40807
 C154 C 0.19163 0.93205 0.38592
 N155 N 0.21173 0.91703 0.42353
 C156 C 0.18879 0.88011 0.43684
 C157 C 0.11343 0.80085 0.42887
 N158 N 0.07977 0.77787 0.40908
 C159 C 0.06726 0.79973 0.37186
 C160 C 0.07458 0.87582 0.29552
 N161 N 0.09274 0.91175 0.27512
 C162 C 0.12378 0.93000 0.30245
 H163 H 0.20433 0.95832 0.36485
 H164 H 0.19726 0.85965 0.46508
 H165 H 0.13103 0.79045 0.45846
 H166 H 0.04228 0.78821 0.34852
 H167 H 0.04941 0.85421 0.28127
 H168 H 0.14400 0.95890 0.29483
 Zn169 Zn -0.02908 1.01238 0.05173
 Zn170 Zn 0.05391 0.97385 0.01262
 Zn171 Zn -0.03290 0.96486 -0.03573
 Zn172 Zn 0.01344 1.05369 -0.02795
 O173 O 0.00103 1.00126 -0.00002
 O174 O 0.00130 0.99482 0.10003
 O175 O 0.05914 0.92185 -0.01327
 O176 O -0.08591 0.94989 -0.00993
 O177 O 0.06157 0.96361 0.06981
 O178 O -0.08219 0.98475 0.05454
 O179 O -0.00493 0.91240 -0.04843
 O180 O -0.01213 1.05635 -0.08097
 O181 O 0.10231 1.00384 -0.00435
 O182 O -0.04637 0.99131 -0.08787
 O183 O 0.07296 1.06305 -0.03681
 O184 O -0.00746 1.10119 0.00192
 O185 O -0.04056 1.06991 0.05979
 C186 C 0.03887 0.97456 0.10375
 C187 C 0.03376 0.89801 -0.03668
 C188 C -0.10247 0.95921 0.02793
 C189 C -0.03642 1.02961 -0.10275
 C190 C 0.10691 1.04015 -0.02482
 C191 C -0.02940 1.10421 0.03809
 Zn192 Zn 0.48059 -0.05350 0.47244
 Zn193 Zn 0.52320 -0.01494 0.55260
 Zn194 Zn 0.53720 0.02930 0.46506
 Zn195 Zn 0.44689 0.03131 0.51125
 O196 O 0.49709 -0.00197 0.50002
 O197 O 0.49949 -0.10246 0.50143
 O198 O 0.57827 0.00664 0.55582
 O199 O 0.54754 0.00223 0.41287
 O200 O 0.53046 -0.07297 0.56118
 O201 O 0.50432 -0.05760 0.41793
 O202 O 0.59204 0.03692 0.49093
 O203 O 0.44945 0.08405 0.48539
 O204 O 0.49450 0.00759 0.59992
 O205 O 0.51590 0.08409 0.45138
 O206 O 0.43793 0.04329 0.56835
 O207 O 0.39628 0.00593 0.49267
 O208 O 0.42046 -0.05789 0.46486
 C209 C 0.52090 -0.10637 0.53755
 C210 C 0.60500 0.02617 0.52960
 C211 C 0.53138 -0.03304 0.39637
 C212 C 0.47901 0.10351 0.46189
 C213 C 0.46004 0.03272 0.60252
 C214 C 0.38862 -0.03063 0.47347
 Zn215 Zn 0.94462 0.46818 0.48167
 Zn216 Zn 1.03321 0.46430 0.52881
 Zn217 Zn 1.02560 0.51269 0.44282
 Zn218 Zn 0.98165 0.54970 0.52344
 O219 O 0.99628 0.49863 0.49421
 O220 O 0.94510 0.41331 0.50453
 O221 O 1.08505 0.44917 0.50094
 O222 O 0.99522 0.49578 0.39500
 O223 O 1.00759 0.41252 0.54425
 O224 O 0.93526 0.46222 0.42332
 O225 O 1.07960 0.48632 0.43792
 O226 O 0.99802 0.59859 0.49413
 O227 O 1.04950 0.49184 0.57901
 O228 O 1.03467 0.57099 0.43618
 O229 O 1.00967 0.55426 0.57520
 O230 O 0.92253 0.55481 0.53501
 O231 O 0.89468 0.49437 0.50399
 C232 C 0.97206 0.39351 0.53064
 C233 C 1.10067 0.45982 0.46316
 C234 C 0.95817 0.47538 0.39017
 C235 C 1.02080 0.60388 0.45884
 C236 C 1.03799 0.52942 0.59468
 C237 C 0.88937 0.52983 0.52620
 Zn238 Zn 0.46794 0.48096 0.94628
 Zn239 Zn 0.54639 0.53151 0.97891
 Zn240 Zn 0.46029 0.53224 1.03120
 Zn241 Zn 0.51766 0.44983 1.02621
 O242 O 0.49791 0.49864 0.99579
 O243 O 0.49484 0.49747 0.89530
 O244 O 0.54473 0.58616 1.00104
 O245 O 0.40454 0.53871 1.00783
 O246 O 0.55141 0.53748 0.92052
 O247 O 0.41169 0.50247 0.94441
 O248 O 0.48194 0.58730 1.04108
 O249 O 0.49642 0.44859 1.08149
 O250 O 0.59909 0.50835 0.99648
 O251 O 0.45248 0.50822 1.08521
 O252 O 0.57782 0.44737 1.03127
 O253 O 0.49986 0.39842 1.00228
 O254 O 0.46138 0.42214 0.94407
 C255 C 0.52951 0.52129 0.88850
 C256 C 0.51736 0.60635 1.02668
 C257 C 0.38795 0.52473 0.97169
 C258 C 0.46975 0.47390 1.10294
 C259 C 0.60856 0.47377 1.01853
 C260 C 0.47531 0.39103 0.96887
 C261 C 1.19411 0.37858 0.42625
 C262 C 1.22844 0.40947 0.41374
 C263 C 1.21827 0.45511 0.41575
 C264 C 1.17711 0.47047 0.43238
 C265 C 1.14422 0.44096 0.44758
 C266 C 1.15207 0.39459 0.44399
 C267 C 1.19854 0.33258 0.41757
 C268 C 1.16442 0.30299 0.42930
 C269 C 1.12438 0.31851 0.44822
 C270 C 1.11782 0.36384 0.45487
 H271 H 1.22720 0.31891 0.39982
 H272 H 1.16862 0.26789 0.42261
 H273 H 1.09767 0.29544 0.45645
 H274 H 1.08515 0.37447 0.46726
 H275 H 1.24325 0.47948 0.40610
 H276 H 1.17110 0.50597 0.43396
 C277 C 0.26595 0.51812 0.92804
 C278 C 0.25239 0.56330 0.93367
 C279 C 0.28109 0.59155 0.95766
 C280 C 0.32385 0.57767 0.97101
 C281 C 0.34013 0.53519 0.96070
 C282 C 0.31063 0.50441 0.93998
 C283 C 0.23515 0.48556 0.91349
 C284 C 0.24922 0.44208 0.90559
 C285 C 0.29359 0.42952 0.91398
 C286 C 0.32367 0.45977 0.93229
 H287 H 0.19960 0.49291 0.90922
 H288 H 0.22538 0.41786 0.89347
 H289 H 0.30432 0.39570 0.90761
 H290 H 0.35657 0.44714 0.94112
 H291 H 0.27218 0.62594 0.96348
 H292 H 0.34546 0.60138 0.98748
 C293 C -0.19575 0.87701 0.06112
 C294 C -0.22904 0.90745 0.07790
 C295 C -0.21849 0.95289 0.07880
 C296 C -0.17800 0.96867 0.06145
 C297 C -0.14613 0.93990 0.04233
 C298 C -0.15461 0.89354 0.04215
 C299 C -0.20009 0.83057 0.06664
 C300 C -0.16738 0.80127 0.05024
 C301 C -0.12870 0.81738 0.02961
 C302 C -0.12182 0.86294 0.02626
 H303 H -0.22748 0.81613 0.08539
 H304 H -0.17161 0.76585 0.05447
 H305 H -0.10315 0.79445 0.01743
 H306 H -0.09003 0.87352 0.01209
 H307 H -0.24262 0.97693 0.09160
 H308 H -0.17161 1.00405 0.06270
 C309 C 0.70408 0.04793 0.60754
 C310 C 0.73147 0.07668 0.58115
 C311 C 0.71593 0.08753 0.53846
 C312 C 0.67599 0.06983 0.52179
 C313 C 0.65105 0.03841 0.54579
 C314 C 0.66779 0.02437 0.58774
 C315 C 0.70967 0.04386 0.65382
 C316 C 0.68775 0.01058 0.67756
 C317 C 0.65928 -0.01863 0.65584
 C318 C 0.64912 -0.01184 0.61139
 H319 H 0.73023 0.06682 0.67229
 H320 H 0.69354 0.00697 0.71272
 H321 H 0.64394 -0.04584 0.67377
 H322 H 0.62738 -0.03588 0.59594
 H323 H 0.73501 0.10935 0.51704
 H324 H 0.66457 0.08101 0.48965
 C325 C 0.48556 0.22754 0.42855
 C326 C 0.43872 0.23557 0.42013
 C327 C 0.40804 0.20081 0.42658
 C328 C 0.42249 0.15875 0.43871
 C329 C 0.46830 0.14927 0.44624
 C330 C 0.50048 0.18406 0.44168
 C331 C 0.51728 0.26251 0.42836
 C332 C 0.56265 0.25476 0.43804
 C333 C 0.57728 0.21251 0.44974
 C334 C 0.54662 0.17765 0.45232
 H335 H 0.50742 0.29654 0.42252
 H336 H 0.58642 0.28197 0.43750
 H337 H 0.61245 0.20693 0.45806
 H338 H 0.55976 0.14636 0.46395
 H339 H 0.37229 0.20567 0.42035
 H340 H 0.39715 0.13308 0.44212
 C341 C 0.97794 0.27067 0.56837
 C342 C 0.93075 0.26252 0.57450
 C343 C 0.89986 0.29616 0.56323
 C344 C 0.91436 0.33774 0.54958
 C345 C 0.96048 0.34781 0.54584
 C346 C 0.99299 0.31375 0.55464
 C347 C 1.01027 0.23596 0.57150
 C348 C 1.05621 0.24390 0.56515
 C349 C 1.07100 0.28603 0.55385
 C350 C 1.03992 0.32038 0.54780
 H351 H 1.00062 0.20191 0.57697
 H352 H 1.08040 0.21693 0.56805
 H353 H 1.10673 0.29184 0.54833
 H354 H 1.05361 0.35140 0.53656
 H355 H 0.86380 0.29106 0.56709
 H356 H 0.88886 0.36275 0.54264
 C357 C 0.11182 0.79791 -0.05866
 C358 C 0.08622 0.77415 -0.09064
 C359 C 0.04495 0.79287 -0.10463
 C360 C 0.02819 0.83215 -0.08617
 C361 C 0.05067 0.85344 -0.05142
 C362 C 0.09157 0.83400 -0.03521
 C363 C 0.15809 0.78849 -0.05101
 C364 C 0.18062 0.80723 -0.01532
 C365 C 0.15771 0.83601 0.01301
 C366 C 0.11363 0.84937 0.00336
 H367 H 0.17748 0.76714 -0.07288
 H368 H 0.21564 0.79866 -0.00913
 H369 H 0.17446 0.84886 0.04204
 H370 H 0.09719 0.87074 0.02724
 H371 H 0.02448 0.77650 -0.12920
 H372 H -0.00301 0.84580 -0.09917
 C373 C 0.51322 0.72894 1.06557
 C374 C 0.56063 0.73640 1.07046
 C375 C 0.59086 0.70242 1.05814
 C376 C 0.57564 0.66131 1.04439
 C377 C 0.52935 0.65205 1.04121
 C378 C 0.49747 0.68642 1.05093
 C379 C 0.48134 0.76377 1.07091
 C380 C 0.43527 0.75657 1.06491
 C381 C 0.41994 0.71515 1.05181
 C382 C 0.45056 0.68061 1.04411
 H383 H 0.49146 0.79738 1.07796
 H384 H 0.41140 0.78364 1.06938
 H385 H 0.38417 0.71007 1.04632
 H386 H 0.43677 0.65017 1.03140
 H387 H 0.62704 0.70678 1.06139
 H388 H 0.60079 0.63598 1.03698
 C389 C 0.44230 0.47796 1.22758
 C390 C 0.43341 0.43238 1.23490
 C391 C 0.43825 0.40228 1.19998
 C392 C 0.45023 0.41666 1.15784
 C393 C 0.45790 0.46172 1.14908
 C394 C 0.45491 0.49288 1.18438
 C395 C 0.44043 0.50875 1.26272
 C396 C 0.45034 0.55337 1.25557
 C397 C 0.46304 0.56797 1.21363
 C398 C 0.46575 0.53813 1.17839
 H399 H 0.43213 0.49857 1.29610
 H400 H 0.44881 0.57663 1.28286
 H401 H 0.47141 0.60253 1.20848
 H402 H 0.47735 0.55095 1.14697
 H403 H 0.43161 0.36735 1.20529
 H404 H 0.45272 0.39228 1.13153
 C405 C 0.52568 -0.06205 0.27319
 C406 C 0.57153 -0.07430 0.26540
 C407 C 0.60289 -0.07005 0.29976
 C408 C 0.58943 -0.05568 0.34166
 C409 C 0.54401 -0.04583 0.35079
 C410 C 0.51166 -0.04852 0.31645
 C411 C 0.49373 -0.06148 0.23868
 C412 C 0.44871 -0.04978 0.24692
 C413 C 0.43478 -0.03774 0.28936
 C414 C 0.46588 -0.03671 0.32383
 H415 H 0.50324 -0.06900 0.20491
 H416 H 0.42458 -0.04966 0.22012
 H417 H 0.39983 -0.02847 0.29546
 H418 H 0.45381 -0.02595 0.35599
 H419 H 0.63806 -0.07891 0.29426
 H420 H 0.61450 -0.05341 0.36756
 C421 C -0.08517 1.10031 -0.19647
 C422 C -0.07503 1.07242 -0.23302
 C423 C -0.05639 1.03027 -0.22570
 C424 C -0.04557 1.01622 -0.18305
 C425 C -0.05312 1.04402 -0.14652
 C426 C -0.07412 1.08609 -0.15286
 C427 C -0.10730 1.14155 -0.20228
 C428 C -0.11765 1.16853 -0.16607
 C429 C -0.10692 1.15474 -0.12347
 C430 C -0.08576 1.11383 -0.11671
 H431 H -0.11747 1.15308 -0.23460
 H432 H -0.13459 1.20009 -0.17106
 H433 H -0.11558 1.17558 -0.09543
 H434 H -0.07962 1.10396 -0.08287
 H435 H -0.04956 1.00842 -0.25345
 H436 H -0.02991 0.98391 -0.17869
 C437 C 1.12239 0.56890 0.68174
 C438 C 1.09168 0.58235 0.71553
 C439 C 1.04509 0.57827 0.70867
 C440 C 1.02854 0.56039 0.66959
 C441 C 1.05808 0.54549 0.63626
 C442 C 1.10551 0.54990 0.64190
 C443 C 1.16939 0.57567 0.68590
 C444 C 1.19924 0.56281 0.65228
 C445 C 1.18291 0.54380 0.61364
 C446 C 1.13654 0.53773 0.60815
 H447 H 1.18352 0.59178 0.71457
 H448 H 1.23522 0.56814 0.65600
 H449 H 1.20624 0.53431 0.58748
 H450 H 1.12550 0.52407 0.57700
 H451 H 1.02134 0.58867 0.73415
 H452 H 0.99223 0.55795 0.66539
 C453 C 0.79018 0.57297 0.59690
 C454 C 0.75482 0.56946 0.56573
 C455 C 0.76409 0.55304 0.52338
 C456 C 0.80774 0.53967 0.51154
 C457 C 0.84348 0.54258 0.54169
 C458 C 0.83471 0.55852 0.58523
 C459 C 0.78216 0.59087 0.63942
 C460 C 0.81672 0.59263 0.67052
 C461 C 0.85970 0.57656 0.65997
 C462 C 0.86876 0.55953 0.61789
 H463 H 0.74931 0.60386 0.64896
 H464 H 0.81002 0.60621 0.70311
 H465 H 0.88621 0.57732 0.68451
 H466 H 0.90242 0.54664 0.61175
 H467 H 0.73711 0.55036 0.49946
 H468 H 0.81380 0.52752 0.47825
 C469 C 0.73383 0.48271 1.05114
 C470 C 0.74577 0.43673 1.05164
 C471 C 0.71370 0.40586 1.03686
 C472 C 0.67000 0.41890 1.02607
 C473 C 0.65627 0.46331 1.02935
 C474 C 0.68824 0.49585 1.04226
 C475 C 0.76660 0.51616 1.05703
 C476 C 0.75404 0.56076 1.05964
 C477 C 0.70882 0.57305 1.05592
 C478 C 0.67613 0.54111 1.04722
 H479 H 0.80231 0.50837 1.05858
 H480 H 0.77952 0.58587 1.06481
 H481 H 0.69907 0.60764 1.05901
 H482 H 0.64156 0.55255 1.04488
 H483 H 0.72123 0.37067 1.03632
 H484 H 0.64627 0.39366 1.01580
 C485 C 0.23271 1.06604 -0.01557
 C486 C 0.24420 1.06985 -0.06134
 C487 C 0.20981 1.06459 -0.09293
 C488 C 0.16512 1.05756 -0.08030
 C489 C 0.15309 1.05476 -0.03569
 C490 C 0.18662 1.05972 -0.00281
 C491 C 0.26608 1.06507 0.01775
 C492 C 0.25403 1.06242 0.06237
 C493 C 0.20872 1.05980 0.07479
 C494 C 0.17523 1.05805 0.04262
 H495 H 0.30179 1.06500 0.00986
 H496 H 0.28002 1.06220 0.08745
 H497 H 0.19953 1.05820 0.10950
 H498 H 0.14042 1.05548 0.05362
 H499 H 0.21712 1.06763 -0.12794
 H500 H 0.13982 1.05318 -0.10571
 C501 C 0.26446 -0.02212 0.43742
 C502 C 0.25170 -0.06763 0.44047
 C503 C 0.28320 -0.09819 0.45764
 C504 C 0.32716 -0.08548 0.46768
 C505 C 0.34156 -0.04177 0.46113
 C506 C 0.31025 -0.00965 0.44508
 C507 C 0.23226 0.01173 0.42907
 C508 C 0.24563 0.05553 0.42254
 C509 C 0.29113 0.06666 0.42469
 C510 C 0.32324 0.03458 0.43590
 H511 H 0.19640 0.00490 0.42842
 H512 H 0.22059 0.08088 0.41543
 H513 H 0.30155 0.10050 0.41842
 H514 H 0.35811 0.04501 0.43671
 H515 H 0.27489 -0.13297 0.46088
 H516 H 0.35039 -0.11033 0.48032
 C517 C 0.59968 -0.20097 0.57221
 C518 C 0.56742 -0.23487 0.58122
 C519 C 0.52106 -0.22450 0.57803
 C520 C 0.50650 -0.18314 0.56285
 C521 C 0.53772 -0.15031 0.55157
 C522 C 0.58470 -0.15892 0.55615
 C523 C 0.64615 -0.20661 0.58185
 C524 C 0.67737 -0.17347 0.57201
 C525 C 0.66306 -0.13376 0.55314
 C526 C 0.61723 -0.12631 0.54538
 H527 H 0.65879 -0.23588 0.59842
 H528 H 0.71285 -0.17854 0.57932
 H529 H 0.68748 -0.10825 0.54527
 H530 H 0.60767 -0.09470 0.53115
 H531 H 0.49581 -0.24944 0.58520
 H532 H 0.47053 -0.17664 0.56005
 C533 C 1.01719 0.72855 0.43361
 C534 C 1.06328 0.73524 0.42258
 C535 C 1.09340 0.69929 0.42286
 C536 C 1.07855 0.65689 0.43358
 C537 C 1.03316 0.64920 0.44478
 C538 C 1.00174 0.68507 0.44422
 C539 C 0.98624 0.76437 0.43481
 C540 C 0.94065 0.75731 0.44458
 C541 C 0.92513 0.71463 0.45322
 C542 C 0.95519 0.67874 0.45300
 H543 H 0.99697 0.79806 0.42853
 H544 H 0.91720 0.78506 0.44519
 H545 H 0.88958 0.70929 0.46019
 H546 H 0.94138 0.64616 0.45916
 H547 H 1.12865 0.70421 0.41421
 H548 H 1.10298 0.62990 0.43392
 C549 C -0.06494 1.20004 0.11467
 C550 C -0.07860 1.23216 0.08257
 C551 C -0.07656 1.22035 0.03755
 C552 C -0.05942 1.17943 0.02400
 C553 C -0.04338 1.14852 0.05475
 C554 C -0.04460 1.15929 0.10052
 C555 C -0.07386 1.20576 0.16039
 C556 C -0.05730 1.17569 0.19145
 C557 C -0.03238 1.13886 0.17773
 C558 C -0.02623 1.13044 0.13276
 H559 H -0.09488 1.23256 0.17269
 H560 H -0.06378 1.18105 0.22636
 H561 H -0.01867 1.11613 0.20201
 H562 H -0.00667 1.10133 0.12380
 H563 H -0.08678 1.24363 0.01217
 H564 H -0.05905 1.17172 -0.01105
 C565 C 0.39923 0.29214 0.94721
 C566 C 0.43182 0.26056 0.93207
 C567 C 0.47770 0.27229 0.93085
 C568 C 0.49169 0.31434 0.94406
 C569 C 0.46023 0.34555 0.95962
 C570 C 0.41399 0.33404 0.96317
 C571 C 0.35222 0.28387 0.94576
 C572 C 0.32126 0.31364 0.96451
 C573 C 0.33627 0.35271 0.98388
 C574 C 0.38205 0.36343 0.98243
 H575 H 0.33861 0.25497 0.92963
 H576 H 0.28542 0.30641 0.96391
 H577 H 0.31215 0.37549 0.99883
 H578 H 0.39222 0.39470 0.99682
 H579 H 0.50284 0.24861 0.91928
 H580 H 0.52720 0.32283 0.94145
 C581 C 0.60060 0.55662 0.78794
 C582 C 0.56575 0.56245 0.75633
 C583 C 0.52097 0.55328 0.76827
 C584 C 0.51015 0.53850 0.81070
 C585 C 0.54391 0.53181 0.84251
 C586 C 0.58997 0.53898 0.83051
 C587 C 0.64574 0.56880 0.77851
 C588 C 0.68022 0.56005 0.80857
 C589 C 0.67048 0.53914 0.84848
 C590 C 0.62594 0.52859 0.85949
 H591 H 0.65491 0.58571 0.74826
 H592 H 0.71473 0.56912 0.80063
 H593 H 0.69755 0.53135 0.87123
 H594 H 0.62045 0.51146 0.89043
 H595 H 0.49416 0.55782 0.74440
 H596 H 0.47487 0.53320 0.81903
 C597 C 0.41684 0.10928 0.69533
 C598 C 0.41805 0.07911 0.73123
 C599 C 0.43217 0.03529 0.72405
 C600 C 0.44583 0.02110 0.68222
 C601 C 0.44576 0.05033 0.64616
 C602 C 0.43210 0.09528 0.65267
 C603 C 0.40026 0.15298 0.70086
 C604 C 0.40129 0.18313 0.66589
 C605 C 0.41883 0.17041 0.62496
 C606 C 0.43423 0.12706 0.61826
 H607 H 0.38602 0.16419 0.73198
 H608 H 0.38877 0.21665 0.67069
 H609 H 0.42039 0.19422 0.59817
 H610 H 0.44836 0.11931 0.58611
 H611 H 0.43311 0.01205 0.75138
 H612 H 0.45634 -0.01317 0.67791
 C613 C 0.11487 0.93547 0.19895
 C614 C 0.08132 0.92745 0.23168
 C615 C 0.03592 0.93631 0.22227
 C616 C 0.02320 0.95288 0.18122
 C617 C 0.05558 0.96185 0.14828
 C618 C 0.10232 0.95497 0.15780
 C619 C 0.16062 0.92370 0.20591
 C620 C 0.19384 0.93433 0.17482
 C621 C 0.18225 0.95689 0.13639
 C622 C 0.13711 0.96736 0.12791
 H623 H 0.17118 0.90568 0.23501
 H624 H 0.22883 0.92546 0.18081
 H625 H 0.20834 0.96611 0.11287
 H626 H 0.13038 0.98605 0.09825
 H627 H 0.01007 0.93021 0.24709
 H628 H -0.01252 0.95788 0.17492
 C629 C 0.93670 0.48049 0.26520
 C630 C 0.92081 0.43677 0.25834
 C631 C 0.91556 0.40828 0.29455
 C632 C 0.92619 0.42210 0.33711
 C633 C 0.94255 0.46494 0.34492
 C634 C 0.94660 0.49514 0.30896
 C635 C 0.94384 0.50971 0.22938
 C636 C 0.95795 0.55318 0.23662
 C637 C 0.96522 0.56830 0.27949
 C638 C 0.95960 0.53975 0.31540
 H639 H 0.93897 0.49928 0.19553
 H640 H 0.96298 0.57534 0.20885
 H641 H 0.97541 0.60231 0.28495
 H642 H 0.96481 0.55333 0.34806
 H643 H 0.90320 0.37488 0.28963
 H644 H 0.92281 0.39861 0.36407
   
