data_POSCAR
  _audit_creation_date              2014-09-24
  _audit_creation_method            'ToBaCCo'
  _symmetry_space_group_name_H-M    'P1'
  _symmetry_Int_Tables_number       1
  _symmetry_cell_setting            triclinic
  loop_
  _symmetry_equiv_pos_as_xyz
 x,y,z
_cell_length_a 36.7645
_cell_length_b 36.4964
_cell_length_c 36.7270
_cell_angle_alpha 90.000300
_cell_angle_beta 90.218900
_cell_angle_gamma 90.399000
loop_
  _atom_site_label
  _atom_site_type_symbol
  _atom_site_fract_x
  _atom_site_fract_y
  _atom_site_fract_z
N1 N 0.18444 1.25976 0.16016
 N2 N 0.16004 1.25921 0.18619
 C3 C 0.13531 1.28547 0.17969
 C4 C 0.14444 1.30346 0.14759
 C5 C 0.17596 1.28618 0.13610
 H6 H 0.11188 1.29028 0.19662
 H7 H 0.19162 1.29199 0.11193
 Cu8 Cu 0.16186 1.22325 0.22530
 Cu9 Cu 0.22462 1.22531 0.15847
 Cu10 Cu 0.22502 1.15734 0.22398
 N11 N 0.16342 1.18501 0.26233
 N12 N 0.18917 1.16025 0.26267
 C13 C 0.18344 1.13698 0.29052
 C14 C 0.15185 1.14720 0.30842
 C15 C 0.14005 1.17799 0.28962
 H16 H 0.19998 1.11322 0.29588
 H17 H 0.11605 1.19398 0.29500
 N18 N 0.26293 1.16165 0.18647
 N19 N 0.26277 1.18767 0.16153
 C20 C 0.29073 1.18231 0.13862
 C21 C 0.30943 1.15133 0.14950
 C22 C 0.29103 1.13909 0.18008
 H23 H 0.29614 1.19888 0.11485
 H24 H 0.29711 1.11504 0.19607
 H25 H 0.19560 1.18455 0.18339
 H26 H 0.22600 1.21289 0.21325
 N27 N 0.81277 0.74187 0.15592
 N28 N 0.83583 0.73981 0.18328
 C29 C 0.85714 0.71027 0.17855
 C30 C 0.84707 0.69328 0.14631
 C31 C 0.81880 0.71406 0.13276
 H32 H 0.87973 0.70288 0.19594
 H33 H 0.80434 0.70980 0.10741
 Cu34 Cu 0.83899 0.77894 0.21931
 Cu35 Cu 0.77810 0.78154 0.15076
 Cu36 Cu 0.78320 0.85149 0.21423
 N37 N 0.84143 0.81852 0.25488
 N38 N 0.82058 0.84743 0.25165
 C39 C 0.83000 0.87221 0.27713
 C40 C 0.85835 0.85819 0.29784
 C41 C 0.86462 0.82379 0.28293
 H42 H 0.81704 0.89850 0.28011
 H43 H 0.88562 0.80472 0.29069
 N44 N 0.74711 0.85051 0.17444
 N45 N 0.74525 0.82389 0.15020
 C46 C 0.71829 0.83118 0.12642
 C47 C 0.70228 0.86396 0.13615
 C48 C 0.72130 0.87538 0.16678
 H49 H 0.71075 0.81378 0.10378
 H50 H 0.71704 0.90028 0.18204
 H51 H 0.81039 0.82063 0.17603
 H52 H 0.77659 0.79603 0.20516
 N53 N 0.80913 1.26338 -0.17575
 N54 N 0.83829 1.25914 -0.19587
 C55 C 0.86408 1.28311 -0.18506
 C56 C 0.85023 1.30379 -0.15681
 C57 C 0.81512 1.29075 -0.15182
 H58 H 0.89105 1.28499 -0.19660
 H59 H 0.79610 1.29911 -0.13106
 Cu60 Cu 0.84027 1.22208 -0.23374
 Cu61 Cu 0.76753 1.23002 -0.17993
 Cu62 Cu 0.79389 1.14563 -0.21411
 N63 N 0.84600 1.17801 -0.26257
 N64 N 0.82836 1.14778 -0.25425
 C65 C 0.83893 1.12077 -0.27667
 C66 C 0.86450 1.13487 -0.30084
 C67 C 0.86811 1.17152 -0.29091
 H68 H 0.82847 1.09307 -0.27527
 H69 H 0.88618 1.19185 -0.30246
 N70 N 0.74993 1.15256 -0.18434
 N71 N 0.73885 1.18487 -0.17286
 C72 C 0.70776 1.18048 -0.15402
 C73 C 0.69895 1.14351 -0.15347
 C74 C 0.72626 1.12673 -0.17310
 H75 H 0.69350 1.20240 -0.14049
 H76 H 0.72867 1.09782 -0.17895
 H77 H 0.80693 1.19248 -0.18449
 H78 H 0.77859 1.19756 -0.22638
 N79 N 0.17096 0.74739 -0.14561
 N80 N 0.14498 0.74906 -0.17017
 C81 C 0.12041 0.72237 -0.16360
 C82 C 0.13158 0.70285 -0.13320
 C83 C 0.16387 0.71961 -0.12259
 H84 H 0.09628 0.71754 -0.17984
 H85 H 0.18073 0.71257 -0.09949
 Cu86 Cu 0.14497 0.78635 -0.20799
 Cu87 Cu 0.21159 0.78171 -0.14501
 Cu88 Cu 0.21979 0.83925 -0.21940
 N89 N 0.15197 0.81625 -0.25121
 N90 N 0.18159 0.83588 -0.25620
 C91 C 0.17832 0.85497 -0.28740
 C92 C 0.14448 0.84729 -0.30278
 C93 C 0.12874 0.82227 -0.27893
 H94 H 0.19836 0.87447 -0.29692
 H95 H 0.10207 0.80983 -0.28092
 N96 N 0.25513 0.83889 -0.17885
 N97 N 0.25088 0.81818 -0.14970
 C98 C 0.27653 0.82715 -0.12496
 C99 C 0.29819 0.85459 -0.13933
 C100 C 0.28402 0.86126 -0.17360
 H101 H 0.27895 0.81510 -0.09818
 H102 H 0.29287 0.88230 -0.19237
 H103 H 0.18891 0.82430 -0.17501
 H104 H 0.21072 0.78641 -0.20132
 Si105 Si 0.49933 1.00708 -0.00350
 Si106 Si -0.00840 0.49443 1.00453
 Si107 Si 1.00772 -0.00567 0.49902
 C108 C 0.08521 0.38718 1.09348
 C109 C 0.07508 0.37534 1.12841
 C110 C 0.09468 0.34802 1.14634
 C111 C 0.12529 0.33188 1.12999
 C112 C 0.13589 0.34455 1.09531
 C113 C 0.11601 0.37160 1.07728
 C114 C 0.06310 0.41473 1.07352
 C115 C 0.07973 0.44070 1.05050
 C116 C 0.05867 0.46520 1.03026
 C117 C 0.02069 0.46450 1.03308
 C118 C 0.00399 0.43919 1.05637
 C119 C 0.02493 0.41447 1.07635
 H120 H 0.08560 0.33991 1.17313
 H121 H 0.15901 0.33315 1.08133
 H122 H 0.07217 0.48409 1.01201
 H123 H -0.02537 0.43802 1.05857
 H124 H 0.12431 0.37959 1.05015
 H125 H 0.10903 0.44201 1.04797
 H126 H 0.05195 0.38727 1.14206
 H127 H 0.01111 0.39448 1.09322
 C128 C -0.09881 0.60457 1.09199
 C129 C -0.10057 0.60566 1.13030
 C130 C -0.11802 0.63455 1.14807
 C131 C -0.13473 0.66247 1.12793
 C132 C -0.13341 0.66125 1.08980
 C133 C -0.11534 0.63294 1.07207
 C134 C -0.07904 0.57480 1.07268
 C135 C -0.09028 0.56331 1.03777
 C136 C -0.06975 0.53825 1.01801
 C137 C -0.03847 0.52286 1.03327
 C138 C -0.02767 0.53307 1.06846
 C139 C -0.04766 0.55893 1.08797
 H140 H -0.11888 0.63480 1.17754
 H141 H -0.14548 0.68279 1.07358
 H142 H -0.07803 0.53141 0.99050
 H143 H -0.00295 0.52227 1.08029
 H144 H -0.11370 0.63390 1.04268
 H145 H -0.11465 0.57414 1.02528
 H146 H -0.08871 0.58412 1.14663
 H147 H -0.03761 0.56750 1.11437
 C148 C -0.09252 0.38353 0.90854
 C149 C -0.13037 0.38611 0.90314
 C150 C -0.14904 0.36013 0.88207
 C151 C -0.13019 0.33145 0.86530
 C152 C -0.09243 0.32897 0.87029
 C153 C -0.07388 0.35445 0.89194
 C154 C -0.07257 0.41084 0.93145
 C155 C -0.03638 0.42073 0.92340
 C156 C -0.01743 0.44564 0.94536
 C157 C -0.03459 0.46230 0.97495
 C158 C -0.07040 0.45231 0.98348
 C159 C -0.08922 0.42682 0.96200
 H160 H -0.17814 0.36280 0.87840
 H161 H -0.07730 0.30677 0.85817
 H162 H 0.01064 0.45211 0.93903
 H163 H -0.08366 0.46348 1.00723
 H164 H -0.04497 0.35086 0.89612
 H165 H -0.02263 0.40942 0.90000
 H166 H -0.14562 0.40845 0.91483
 H167 H -0.11656 0.41909 0.96985
 C168 C 0.07608 0.61361 0.92053
 C169 C 0.05819 0.63453 0.89389
 C170 C 0.07628 0.66320 0.87619
 C171 C 0.11268 0.67168 0.88475
 C172 C 0.13069 0.65044 0.91109
 C173 C 0.11260 0.62175 0.92875
 C174 C 0.05650 0.58395 0.94023
 C175 C 0.06161 0.57923 0.97790
 C176 C 0.04252 0.55198 0.99666
 C177 C 0.01838 0.52863 0.97813
 C178 C 0.01285 0.53345 0.94066
 C179 C 0.03191 0.56073 0.92181
 H180 H 0.06139 0.67910 0.85633
 H181 H 0.15884 0.65575 0.91807
 H182 H 0.04641 0.54934 1.02579
 H183 H -0.00667 0.51680 0.92593
 H184 H 0.12732 0.60576 0.94872
 H185 H 0.07972 0.59716 0.99304
 H186 H 0.02989 0.62930 0.88731
 H187 H 0.02738 0.56365 0.89282
 C188 C 1.09779 0.08943 0.39323
 C189 C 1.13381 0.08097 0.38386
 C190 C 1.15173 0.10014 0.35619
 C191 C 1.13442 0.12892 0.33748
 C192 C 1.09883 0.13827 0.34793
 C193 C 1.08068 0.11854 0.37503
 C194 C 1.07768 0.06721 0.42082
 C195 C 1.05068 0.08316 0.44272
 C196 C 1.03010 0.06171 0.46665
 C197 C 1.03680 0.02413 0.47001
 C198 C 1.06411 0.00820 0.44896
 C199 C 1.08420 0.02940 0.42446
 H200 H 1.17933 0.09237 0.34991
 H201 H 1.08410 0.15991 0.33439
 H202 H 1.00847 0.07451 0.48180
 H203 H 1.06943 -0.02088 0.45085
 H204 H 1.05275 0.12555 0.38083
 H205 H 1.04512 0.11219 0.44121
 H206 H 1.14834 0.05945 0.39788
 H207 H 1.10408 0.01582 0.40763
 C208 C 1.09480 -0.09987 0.60686
 C209 C 1.13181 -0.09407 0.61479
 C210 C 1.14841 -0.11198 0.64406
 C211 C 1.12852 -0.13649 0.66616
 C212 C 1.09179 -0.14335 0.65709
 C213 C 1.07517 -0.12511 0.62811
 C214 C 1.07618 -0.07839 0.57788
 C215 C 1.04781 -0.09405 0.55710
 C216 C 1.02804 -0.07279 0.53244
 C217 C 1.03674 -0.03570 0.52753
 C218 C 1.06559 -0.02017 0.54731
 C219 C 1.08512 -0.04125 0.57228
 H220 H 1.17686 -0.10624 0.64920
 H221 H 1.07512 -0.16184 0.67295
 H222 H 1.00531 -0.08517 0.51813
 H223 H 1.07238 0.00857 0.54424
 H224 H 1.04648 -0.12992 0.62322
 H225 H 1.04044 -0.12263 0.56033
 H226 H 1.14801 -0.07544 0.59849
 H227 H 1.10627 -0.02802 0.58821
 C228 C 0.91716 -0.08837 0.38273
 C229 C 0.89214 -0.06907 0.36112
 C230 C 0.87230 -0.08680 0.33374
 C231 C 0.87749 -0.12430 0.32640
 C232 C 0.90268 -0.14359 0.34800
 C233 C 0.92191 -0.12597 0.37597
 C234 C 0.93847 -0.06921 0.41178
 C235 C 0.97432 -0.07982 0.42005
 C236 C 0.99445 -0.06139 0.44680
 C237 C 0.97928 -0.03204 0.46592
 C238 C 0.94409 -0.02057 0.45702
 C239 C 0.92360 -0.03940 0.43084
 H240 H 0.85376 -0.07046 0.31775
 H241 H 0.90729 -0.17253 0.34397
 H242 H 1.02212 -0.06985 0.45218
 H243 H 0.93246 0.00333 0.46975
 H244 H 0.94028 -0.14203 0.39251
 H245 H 0.98725 -0.10180 0.40529
 H246 H 0.88829 -0.03993 0.36472
 H247 H 0.89611 -0.03039 0.42553
 C248 C 0.92155 0.07805 0.61624
 C249 C 0.89847 0.05911 0.64025
 C250 C 0.87940 0.07780 0.66725
 C251 C 0.88320 0.11605 0.67141
 C252 C 0.90639 0.13493 0.64723
 C253 C 0.92510 0.11622 0.61997
 C254 C 0.94200 0.05811 0.58757
 C255 C 0.97758 0.06893 0.57827
 C256 C 0.99679 0.05018 0.55142
 C257 C 0.98074 0.02061 0.53292
 C258 C 0.94591 0.00874 0.54314
 C259 C 0.92646 0.02766 0.56971
 H260 H 0.86227 0.06181 0.68516
 H261 H 0.91000 0.16430 0.64875
 H262 H 1.02439 0.05866 0.54540
 H263 H 0.93378 -0.01547 0.53106
 H264 H 0.94207 0.13183 0.60150
 H265 H 0.99091 0.09144 0.59227
 H266 H 0.89555 0.02962 0.63866
 H267 H 0.89921 0.01840 0.57619
 C268 C 0.39557 1.09752 0.09119
 C269 C 0.37737 1.07952 0.11969
 C270 C 0.35002 1.09722 0.13913
 C271 C 0.34014 1.13336 0.13050
 C272 C 0.35903 1.15167 0.10260
 C273 C 0.38640 1.13395 0.08317
 C274 C 0.42279 1.07775 0.06891
 C275 C 0.44736 1.05328 0.08521
 C276 C 0.47123 1.03286 0.06385
 C277 C 0.47106 1.03674 0.02590
 C278 C 0.44708 1.06148 0.00956
 C279 C 0.42323 1.08192 0.03084
 H280 H 0.33602 1.08206 0.16020
 H281 H 0.35264 1.17966 0.09550
 H282 H 0.48906 1.01346 0.07703
 H283 H 0.44627 1.06443 -0.01978
 H284 H 0.40033 1.14875 0.06174
 H285 H 0.44788 1.04967 0.11447
 H286 H 0.38344 1.05128 0.12623
 H287 H 0.40427 1.10006 0.01738
 C288 C 0.61047 1.09036 -0.09722
 C289 C 0.60814 1.12755 -0.10696
 C290 C 0.63684 1.14493 -0.12521
 C291 C 0.66831 1.12539 -0.13438
 C292 C 0.67057 1.08825 -0.12475
 C293 C 0.64215 1.07103 -0.10623
 C294 C 0.58059 1.07170 -0.07704
 C295 C 0.57254 1.03454 -0.08368
 C296 C 0.54708 1.01588 -0.06243
 C297 C 0.52846 1.03415 -0.03476
 C298 C 0.53527 1.07147 -0.02874
 C299 C 0.56118 1.09013 -0.04968
 H300 H 0.63418 1.17352 -0.13252
 H301 H 0.69465 1.07254 -0.13079
 H302 H 0.54242 0.98693 -0.06718
 H303 H 0.52175 1.08587 -0.00694
 H304 H 0.64539 1.04266 -0.09834
 H305 H 0.58636 1.01963 -0.10496
 H306 H 0.58400 1.14316 -0.10081
 H307 H 0.56704 1.11855 -0.04343
 C308 C 0.38345 0.91481 -0.08471
 C309 C 0.35340 0.90093 -0.06530
 C310 C 0.32615 0.88082 -0.08298
 C311 C 0.32773 0.87486 -0.12066
 C312 C 0.35734 0.88890 -0.14031
 C313 C 0.38513 0.90827 -0.12248
 C314 C 0.41251 0.93630 -0.06567
 C315 C 0.43115 0.96490 -0.08359
 C316 C 0.45788 0.98541 -0.06544
 C317 C 0.46625 0.97803 -0.02896
 C318 C 0.44737 0.95018 -0.01071
 C319 C 0.42133 0.92902 -0.02902
 H320 H 0.30329 0.87077 -0.06728
 H321 H 0.35928 0.88437 -0.16938
 H322 H 0.47120 1.00767 -0.07970
 H323 H 0.45288 0.94465 0.01774
 H324 H 0.40808 0.91777 -0.13834
 H325 H 0.42452 0.97216 -0.11138
 H326 H 0.35042 0.90613 -0.03647
 H327 H 0.40820 0.90695 -0.01432
 C328 C 0.61513 0.92030 0.08129
 C329 C 0.62505 0.92978 0.11708
 C330 C 0.65314 0.91137 0.13494
 C331 C 0.67196 0.88300 0.11747
 C332 C 0.66175 0.87326 0.08181
 C333 C 0.63371 0.89172 0.06392
 C334 C 0.58612 0.94068 0.06184
 C335 C 0.56130 0.92227 0.03890
 C336 C 0.53478 0.94173 0.01973
 C337 C 0.53236 0.97984 0.02350
 C338 C 0.55711 0.99831 0.04617
 C339 C 0.58364 0.97895 0.06532
 H340 H 0.65986 0.91930 0.16255
 H341 H 0.67583 0.85185 0.06731
 H342 H 0.51680 0.92694 0.00151
 H343 H 0.55616 1.02786 0.04878
 H344 H 0.62714 0.88415 0.03615
 H345 H 0.56241 0.89281 0.03573
 H346 H 0.61088 0.95129 0.13140
 H347 H 0.60277 0.99404 0.08215
   
