data_POSCAR
  _audit_creation_date              2014-09-24
  _audit_creation_method            'ToBaCCo'
  _symmetry_space_group_name_H-M    'P1'
  _symmetry_Int_Tables_number       1
  _symmetry_cell_setting            triclinic
  loop_
  _symmetry_equiv_pos_as_xyz
 x,y,z
_cell_length_a 18.2789
_cell_length_b 20.5549
_cell_length_c 19.9692
_cell_angle_alpha 89.420500
_cell_angle_beta 86.916200
_cell_angle_gamma 89.787800
loop_
  _atom_site_label
  _atom_site_type_symbol
  _atom_site_fract_x
  _atom_site_fract_y
  _atom_site_fract_z
C1 C 0.32506 0.35699 1.42527
 N2 N 0.32458 0.29110 1.42680
 C3 C 0.36009 0.25751 1.37696
 N4 N 0.39520 0.28955 1.32537
 C5 C 0.39563 0.35532 1.32324
 N6 N 0.35975 0.38940 1.37303
 C7 C 1.17072 0.62517 0.90984
 N8 N 1.14640 0.59336 0.85624
 C9 C 1.12297 0.62717 0.80264
 N10 N 1.12337 0.69358 0.80312
 C11 C 1.14607 0.72562 0.85771
 N12 N 1.17048 0.69119 0.91049
 C13 C 0.70976 -0.15014 0.08178
 N14 N 0.65089 -0.18672 0.06790
 C15 C 0.59599 -0.19550 0.11492
 N16 N 0.59951 -0.16770 0.17504
 C17 C 0.65732 -0.13053 0.19001
 N18 N 0.71338 -0.12126 0.14302
 C19 C -0.18677 1.10525 -0.40842
 N20 N -0.17417 1.16985 -0.42116
 C21 C -0.12398 1.20252 -0.38597
 N22 N -0.09133 1.17164 -0.33507
 C23 C -0.10448 1.10780 -0.32172
 N24 N -0.15136 1.07485 -0.35900
 C25 C 0.72949 0.66347 0.65189
 N26 N 0.70845 0.65123 0.71676
 C27 C 0.64128 0.66944 0.74151
 N28 N 0.59516 0.70129 0.70119
 C29 C 0.61768 0.71630 0.63694
 N30 N 0.68387 0.69569 0.61174
 C31 C 0.79657 0.37915 0.11944
 N32 N 0.81456 0.31669 0.10256
 C33 C 0.85756 0.28041 0.14274
 N34 N 0.88173 0.30692 0.19986
 C35 C 0.86386 0.36927 0.21646
 N36 N 0.82139 0.40472 0.17616
 C37 C 0.32939 0.14844 0.87418
 N38 N 0.35933 0.12368 0.81638
 C39 C 0.40613 0.15986 0.77623
 N40 N 0.42308 0.22115 0.79411
 C41 C 0.39478 0.24533 0.85290
 N42 N 0.34735 0.20930 0.89255
 C43 C 0.20158 0.83169 0.37705
 N44 N 0.19648 0.87149 0.32268
 C45 C 0.16167 0.85075 0.26855
 N46 N 0.13218 0.79025 0.26906
 C47 C 0.13853 0.74996 0.32253
 N48 N 0.17230 0.77098 0.37712
 Zn49 Zn -0.04529 0.98687 0.06208
 Zn50 Zn 0.10855 0.98077 0.00465
 Zn51 Zn -0.01475 0.96420 -0.08381
 Zn52 Zn 0.01066 1.09633 -0.02285
 O53 O 0.01490 1.00726 -0.01011
 O54 O 0.00195 0.94555 0.12556
 O55 O 0.14235 0.91865 -0.05256
 O56 O -0.09528 0.91758 -0.06586
 O57 O 0.11832 0.94737 0.08787
 O58 O -0.11830 0.93417 0.04254
 O59 O 0.05129 0.90724 -0.11970
 O60 O -0.02228 1.11624 -0.10407
 O61 O 0.17207 1.04560 -0.01070
 O62 O -0.03601 1.01927 -0.14966
 O63 O 0.10042 1.13141 -0.02633
 O64 O -0.04743 1.14062 0.03981
 O65 O -0.08844 1.05645 0.10038
 C66 C 0.06882 0.93201 0.13240
 C67 C 0.11490 0.89208 -0.10246
 C68 C -0.13386 0.90815 -0.01215
 C69 C -0.03803 1.08098 -0.15317
 C70 C 0.16341 1.10526 -0.02557
 C71 C -0.08698 1.11720 0.08866
 Zn72 Zn 0.49308 0.06647 0.50209
 Zn73 Zn 0.57647 -0.05297 0.47903
 Zn74 Zn 0.43318 -0.05600 0.55453
 Zn75 Zn 0.43584 -0.03740 0.41759
 O76 O 0.48614 -0.01874 0.48808
 O77 O 0.58721 0.09366 0.49054
 O78 O 0.57610 -0.13421 0.51634
 O79 O 0.43462 -0.01220 0.62990
 O80 O 0.64117 0.00057 0.51718
 O81 O 0.46444 0.08525 0.58785
 O82 O 0.46467 -0.13613 0.56733
 O83 O 0.36645 -0.09809 0.43380
 O84 O 0.60548 -0.06325 0.39068
 O85 O 0.33902 -0.06462 0.53624
 O86 O 0.49422 -0.06362 0.35098
 O87 O 0.38956 0.03202 0.38868
 O88 O 0.43488 0.11191 0.44812
 C89 C 0.64235 0.06261 0.51107
 C90 C 0.52370 -0.16434 0.54808
 C91 C 0.44327 0.04841 0.63682
 C92 C 0.32146 -0.09430 0.48428
 C93 C 0.56287 -0.07095 0.34291
 C94 C 0.39267 0.09147 0.40405
 Zn95 Zn 1.03461 0.41130 0.48465
 Zn96 Zn 1.08810 0.54918 0.50140
 Zn97 Zn 0.94940 0.52099 0.44090
 Zn98 Zn 0.97403 0.50098 0.58357
 O99 O 1.01209 0.49498 0.50106
 O100 O 1.13162 0.39896 0.49668
 O101 O 1.09765 0.59856 0.42601
 O102 O 0.91581 0.45318 0.39504
 O103 O 1.16897 0.50167 0.50842
 O104 O 1.01524 0.39147 0.39902
 O105 O 0.99451 0.57228 0.37907
 O106 O 0.90460 0.56007 0.58543
 O107 O 1.08336 0.60237 0.57343
 O108 O 0.87472 0.56758 0.47919
 O109 O 1.03843 0.52710 0.64323
 O110 O 0.92979 0.42790 0.61018
 O111 O 0.97638 0.35577 0.53775
 C112 C 1.18152 0.44079 0.50696
 C113 C 1.05512 0.60230 0.37764
 C114 C 0.95627 0.40719 0.37151
 C115 C 0.86445 0.58251 0.54069
 C116 C 1.07213 0.58066 0.63292
 C117 C 0.93155 0.37090 0.58648
 Zn118 Zn 0.50976 0.44488 1.06138
 Zn119 Zn 0.41543 0.55665 1.08640
 Zn120 Zn 0.55693 0.57445 1.01382
 Zn121 Zn 0.43045 0.51412 0.95130
 O122 O 0.47994 0.52119 1.02711
 O123 O 0.47482 0.43319 1.14590
 O124 O 0.42477 0.64240 1.08247
 O125 O 0.64285 0.53433 1.02725
 O126 O 0.42558 0.52913 1.17093
 O127 O 0.60883 0.43526 1.06060
 O128 O 0.54561 0.64620 1.06414
 O129 O 0.47406 0.55597 0.88123
 O130 O 0.32221 0.53991 1.06898
 O131 O 0.56639 0.60330 0.92892
 O132 O 0.33841 0.54739 0.95911
 O133 O 0.42234 0.43004 0.93019
 O134 O 0.47537 0.38005 1.01465
 C135 C 0.44235 0.47145 1.18751
 C136 C 0.48442 0.67370 1.07960
 C137 C 0.65870 0.47636 1.04424
 C138 C 0.52992 0.59244 0.87788
 C139 C 0.29661 0.54915 1.01199
 C140 C 0.44113 0.37865 0.96111
 N141 N 1.28877 0.38902 0.47220
 N142 N 1.25459 0.41978 0.51614
 N143 N 0.19618 0.59243 0.96004
 N144 N 0.22015 0.56272 1.00815
 N145 N -0.23990 0.85965 0.03409
 N146 N -0.19579 0.86678 -0.01414
 N147 N 0.75477 0.07089 0.56253
 N148 N 0.70402 0.09892 0.53181
 N149 N 0.35387 0.19471 0.37454
 N150 N 0.34724 0.13557 0.36990
 N151 N 0.87989 0.26608 0.61065
 N152 N 0.87857 0.32587 0.61515
 N153 N 0.15075 0.78926 -0.14265
 N154 N 0.15925 0.84882 -0.14329
 N155 N 0.53789 0.77178 1.10219
 N156 N 0.48172 0.74131 1.09322
 N157 N 0.42512 0.38653 1.26389
 N158 N 0.41924 0.44717 1.25237
 N159 N 0.65318 -0.09805 0.25322
 N160 N 0.58820 -0.09377 0.27897
 N161 N -0.07945 1.07789 -0.26234
 N162 N -0.05934 1.11166 -0.21357
 N163 N 1.09918 0.59193 0.74626
 N164 N 1.09688 0.61730 0.68802
 N165 N 0.79275 0.63149 0.62435
 N166 N 0.80386 0.62218 0.56180
 N167 N 0.76183 0.41733 1.07868
 N168 N 0.73450 0.45758 1.04100
 N169 N 0.27204 1.11359 -0.09043
 N170 N 0.22479 1.14175 -0.05151
 N171 N 0.22795 -0.14584 0.43160
 N172 N 0.25104 -0.12377 0.48347
 N173 N 0.57248 -0.25631 0.59717
 N174 N 0.52838 -0.23253 0.55962
 N175 N 1.10703 0.69308 0.32275
 N176 N 1.07455 0.64092 0.31975
 N177 N -0.13494 1.21748 0.13344
 N178 N -0.13319 1.15739 0.13179
 N179 N 0.41640 0.30767 0.87408
 N180 N 0.42252 0.31698 0.93619
 N181 N 0.61630 0.64545 0.80577
 N182 N 0.55306 0.62037 0.81469
 N183 N 0.43310 0.13511 0.71328
 N184 N 0.42428 0.07534 0.70067
 N185 N 0.14958 0.89412 0.21395
 N186 N 0.08659 0.89482 0.18994
 N187 N 0.88742 0.39844 0.27644
 N188 N 0.93612 0.37397 0.31246
   
