data_POSCAR
  _audit_creation_date              2014-09-24
  _audit_creation_method            'ToBaCCo'
  _symmetry_space_group_name_H-M    'P1'
  _symmetry_Int_Tables_number       1
  _symmetry_cell_setting            triclinic
  loop_
  _symmetry_equiv_pos_as_xyz
 x,y,z
_cell_length_a 38.9787
_cell_length_b 36.0315
_cell_length_c 37.8791
_cell_angle_alpha 90.109300
_cell_angle_beta 90.601600
_cell_angle_gamma 89.879400
loop_
  _atom_site_label
  _atom_site_type_symbol
  _atom_site_fract_x
  _atom_site_fract_y
  _atom_site_fract_z
C1 C 0.60179 0.62920 0.63750
 C2 C 0.57833 0.65880 0.63766
 C3 C 0.58101 0.68777 0.61311
 C4 C 0.60725 0.68699 0.58803
 C5 C 0.63130 0.65796 0.58796
 C6 C 0.62852 0.62895 0.61281
 C7 C 0.59908 0.60020 0.66199
 C8 C 0.62358 0.57117 0.66361
 C9 C 0.64991 0.57131 0.63805
 C10 C 0.65245 0.59968 0.61293
 C11 C 0.67882 0.59929 0.58801
 C12 C 0.68211 0.62834 0.56363
 C13 C 0.65827 0.65762 0.56372
 H14 H 0.55784 0.65934 0.65680
 H15 H 0.60935 0.70943 0.56914
 H16 H 0.57820 0.60163 0.68023
 H17 H 0.66801 0.54865 0.63623
 H18 H 0.69737 0.57681 0.58807
 H19 H 0.66059 0.67991 0.54471
 C20 C 0.89249 0.37026 0.14051
 C21 C 0.91753 0.34232 0.14253
 C22 C 0.91993 0.31434 0.11634
 C23 C 0.89596 0.31534 0.08807
 C24 C 0.87018 0.34253 0.08629
 C25 C 0.86856 0.37029 0.11242
 C26 C 0.89145 0.39865 0.16588
 C27 C 0.86640 0.42664 0.16384
 C28 C 0.84216 0.42616 0.13617
 C29 C 0.84329 0.39837 0.11022
 C30 C 0.81986 0.39844 0.08186
 C31 C 0.82111 0.37052 0.05599
 C32 C 0.84614 0.34255 0.05847
 H33 H 0.93632 0.34414 0.16368
 H34 H 0.89624 0.29462 0.06759
 H35 H 0.91001 0.39893 0.18741
 H36 H 0.82302 0.44797 0.13438
 H37 H 0.80042 0.41994 0.08005
 H38 H 0.84721 0.32119 0.03830
 C39 C 0.39267 0.12986 -0.13630
 C40 C 0.41656 0.15897 -0.13689
 C41 C 0.41609 0.18678 -0.11087
 C42 C 0.39174 0.18519 -0.08388
 C43 C 0.36731 0.15673 -0.08337
 C44 C 0.36764 0.12905 -0.10979
 C45 C 0.39342 0.10175 -0.16195
 C46 C 0.36857 0.07318 -0.16282
 C47 C 0.34332 0.07331 -0.13615
 C48 C 0.34293 0.10060 -0.10969
 C49 C 0.31821 0.09979 -0.08298
 C50 C 0.31795 0.12712 -0.05654
 C51 C 0.34241 0.15562 -0.05699
 H52 H 0.43570 0.15995 -0.15743
 H53 H 0.39140 0.20664 -0.06376
 H54 H 0.41298 0.10347 -0.18167
 H55 H 0.32480 0.05111 -0.13436
 H56 H 0.29879 0.07836 -0.08321
 H57 H 0.34207 0.17682 -0.03663
 C58 C 0.10399 0.86875 0.35949
 C59 C 0.08003 0.84007 0.35516
 C60 C 0.07846 0.81043 0.37946
 C61 C 0.10210 0.80999 0.40800
 C62 C 0.12672 0.83804 0.41213
 C63 C 0.12756 0.86768 0.38794
 C64 C 0.10440 0.89883 0.33603
 C65 C 0.12845 0.92750 0.34032
 C66 C 0.15234 0.92593 0.36827
 C67 C 0.15180 0.89644 0.39237
 C68 C 0.17481 0.89544 0.42106
 C69 C 0.17423 0.86580 0.44506
 C70 C 0.15038 0.83704 0.44029
 H71 H 0.06157 0.84213 0.33370
 H72 H 0.10212 0.78722 0.42664
 H73 H 0.08618 0.89986 0.31422
 H74 H 0.17083 0.94814 0.37166
 H75 H 0.19339 0.91753 0.42461
 H76 H 0.14984 0.81429 0.45898
 N77 N 0.07418 0.17155 0.10950
 N78 N 0.06262 0.15998 0.14003
 C79 C 0.03487 0.18026 0.14874
 C80 C 0.02851 0.20543 0.12195
 C81 C 0.05380 0.19901 0.09739
 H82 H 0.02050 0.17722 0.17282
 H83 H 0.05799 0.21446 0.07337
 Cu84 Cu 0.08526 0.11988 0.16551
 Cu85 Cu 0.11716 0.15367 0.09005
 Cu86 Cu 0.16060 0.08564 0.13747
 N87 N 0.10930 0.08086 0.19115
 N88 N 0.13916 0.06826 0.18064
 C89 C 0.15050 0.04241 0.20360
 C90 C 0.12619 0.03814 0.22972
 C91 C 0.10044 0.06312 0.22092
 H92 H 0.17451 0.02768 0.20116
 H93 H 0.07725 0.06844 0.23547
 N94 N 0.17790 0.10668 0.09305
 N95 N 0.16118 0.13236 0.07493
 C96 C 0.18011 0.14228 0.04698
 C97 C 0.21017 0.12183 0.04742
 C98 C 0.20782 0.09942 0.07690
 H99 H 0.17287 0.16336 0.02806
 H100 H 0.22708 0.08019 0.08649
 H101 H 0.11574 0.10132 0.11237
 H102 H 0.13887 0.13808 0.13794
 N103 N 0.42185 0.82438 0.61136
 N104 N 0.43531 0.83891 0.64016
 C105 C 0.46570 0.82249 0.64691
 C106 C 0.47184 0.79639 0.62085
 C107 C 0.44349 0.79858 0.59854
 H108 H 0.48236 0.82930 0.66896
 H109 H 0.43857 0.78234 0.57506
 Cu110 Cu 0.41189 0.87796 0.66601
 Cu111 Cu 0.37669 0.83902 0.59353
 Cu112 Cu 0.33386 0.90755 0.64033
 N113 N 0.38803 0.91697 0.69147
 N114 N 0.35684 0.92725 0.68222
 C115 C 0.34560 0.95312 0.70507
 C116 C 0.37134 0.95973 0.72964
 C117 C 0.39795 0.93647 0.72016
 H118 H 0.32084 0.96666 0.70355
 H119 H 0.42243 0.93368 0.73360
 N120 N 0.31493 0.88432 0.59724
 N121 N 0.33080 0.85767 0.57985
 C122 C 0.31085 0.84693 0.55242
 C123 C 0.28127 0.86828 0.55218
 C124 C 0.28479 0.89162 0.58101
 H125 H 0.31758 0.82540 0.53389
 H126 H 0.26639 0.91197 0.58990
 H127 H 0.37775 0.89237 0.61352
 H128 H 0.35750 0.85605 0.64148
 N129 N 0.91542 0.68228 0.38170
 N130 N 0.92338 0.67284 0.34929
 C131 C 0.95283 0.68966 0.34039
 C132 C 0.96417 0.71056 0.36890
 C133 C 0.93982 0.70503 0.39475
 H134 H 0.96555 0.68611 0.31537
 H135 H 0.93953 0.71678 0.42098
 Cu136 Cu 0.89567 0.63794 0.32242
 Cu137 Cu 0.87356 0.66506 0.40402
 Cu138 Cu 0.82963 0.59443 0.36124
 N139 N 0.87562 0.59323 0.30251
 N140 N 0.84922 0.57688 0.31710
 C141 C 0.84059 0.54682 0.29782
 C142 C 0.86312 0.54396 0.26994
 C143 C 0.88505 0.57386 0.27379
 H144 H 0.82024 0.52777 0.30430
 H145 H 0.90632 0.58097 0.25702
 N146 N 0.81428 0.61633 0.40615
 N147 N 0.83060 0.64385 0.42201
 C148 C 0.81375 0.65298 0.45164
 C149 C 0.78567 0.62985 0.45484
 C150 C 0.78695 0.60681 0.42559
 H151 H 0.82187 0.67419 0.47011
 H152 H 0.76937 0.58474 0.41887
 H153 H 0.87653 0.61419 0.37873
 H154 H 0.84594 0.64902 0.35948
 N155 N 0.57251 0.32674 -0.10754
 N156 N 0.55708 0.34358 -0.13404
 C157 C 0.52729 0.32621 -0.14128
 C158 C 0.52364 0.29711 -0.11780
 C159 C 0.55279 0.29847 -0.09661
 H160 H 0.50926 0.33466 -0.16163
 H161 H 0.55945 0.28017 -0.07506
 Cu162 Cu 0.57638 0.38748 -0.15579
 Cu163 Cu 0.61732 0.34222 -0.08980
 Cu164 Cu 0.65773 0.41179 -0.13634
 N165 N 0.60150 0.42222 -0.18484
 N166 N 0.63368 0.43057 -0.17791
 C167 C 0.64510 0.45402 -0.20276
 C168 C 0.61849 0.46103 -0.22626
 C169 C 0.59115 0.44052 -0.21403
 H170 H 0.67061 0.46572 -0.20331
 H171 H 0.56582 0.43867 -0.22582
 N172 N 0.67767 0.38922 -0.09348
 N173 N 0.66271 0.36198 -0.07628
 C174 C 0.68314 0.35153 -0.04916
 C175 C 0.71211 0.37369 -0.04893
 C176 C 0.70771 0.39726 -0.07741
 H177 H 0.67714 0.32963 -0.03085
 H178 H 0.72550 0.41817 -0.08622
 H179 H 0.61586 0.39691 -0.10620
 H180 H 0.63170 0.36175 -0.13870
 C181 C -0.03936 0.27114 0.08716
 C182 C -0.05323 0.28742 0.11785
 C183 C -0.03662 0.27800 0.15025
 C184 C -0.00975 0.25187 0.15165
 C185 C 0.00218 0.23481 0.12073
 C186 C -0.01181 0.24656 0.08862
 C187 C -0.02475 0.22370 0.05862
 C188 C -0.05534 0.24970 0.05722
 H189 H -0.04560 0.28867 0.17519
 H190 H 0.00111 0.24437 0.17709
 H191 H -0.03143 0.19494 0.06658
 H192 H -0.00803 0.22585 0.03513
 H193 H -0.07960 0.23569 0.06470
 H194 H -0.05666 0.26611 0.03241
 C195 C 0.53890 0.73069 0.58382
 C196 C 0.55673 0.71926 0.61413
 C197 C 0.54992 0.73805 0.64593
 C198 C 0.52325 0.76438 0.64774
 C199 C 0.50228 0.77191 0.61795
 C200 C 0.51197 0.75593 0.58575
 C201 C 0.49154 0.73526 0.55853
 C202 C 0.52121 0.70796 0.55626
 H203 H 0.56417 0.73115 0.66974
 H204 H 0.51779 0.77687 0.67306
 H205 H 0.48772 0.75167 0.53398
 H206 H 0.46790 0.72260 0.56941
 H207 H 0.53469 0.70895 0.53057
 H208 H 0.51468 0.67964 0.56567
 C209 C 1.04180 0.76211 0.40516
 C210 C 1.05348 0.78208 0.37578
 C211 C 1.03844 0.77275 0.34270
 C212 C 1.01041 0.74821 0.34035
 C213 C 0.99590 0.73299 0.37099
 C214 C 1.01339 0.73896 0.40294
 C215 C 1.00073 0.75072 0.43829
 C216 C 1.03191 0.77575 0.44095
 H217 H 1.04784 0.78456 0.31842
 H218 H 0.99891 0.74302 0.31469
 H219 H 1.00126 0.72761 0.45769
 H220 H 0.97627 0.76659 0.43679
 H221 H 1.05045 0.76687 0.46178
 H222 H 1.02539 0.80581 0.44116
 C223 C 0.45931 0.22834 -0.08181
 C224 C 0.44075 0.21782 -0.11196
 C225 C 0.44645 0.23779 -0.14329
 C226 C 0.47264 0.26463 -0.14486
 C227 C 0.49421 0.27139 -0.11537
 C228 C 0.48575 0.25399 -0.08356
 C229 C 0.50730 0.23258 -0.05781
 C230 C 0.47811 0.20481 -0.05569
 H231 H 0.43152 0.23173 -0.16686
 H232 H 0.47719 0.27836 -0.16975
 H233 H 0.51162 0.24809 -0.03277
 H234 H 0.53075 0.22067 -0.06991
 H235 H 0.46538 0.20463 -0.02957
 H236 H 0.48476 0.17697 -0.06638
 C237 C 0.15868 -0.02814 0.30048
 C238 C 0.12836 -0.04062 0.31582
 C239 C 0.09764 -0.02235 0.30636
 C240 C 0.09717 0.00447 0.27936
 C241 C 0.12731 0.01310 0.26071
 C242 C 0.15816 -0.00236 0.27326
 C243 C 0.18638 -0.02197 0.25433
 C244 C 0.18707 -0.04989 0.28435
 H245 H 0.07375 -0.02997 0.31874
 H246 H 0.07277 0.01653 0.27175
 H247 H 0.21009 -0.00496 0.25305
 H248 H 0.17777 -0.03428 0.22880
 H249 H 0.21099 -0.04866 0.30054
 H250 H 0.17899 -0.07824 0.27616
 C251 C 0.59094 0.53277 -0.29339
 C252 C 0.62172 0.54225 -0.31067
 C253 C 0.65076 0.51986 -0.30199
 C254 C 0.64942 0.49241 -0.27566
 C255 C 0.61897 0.48560 -0.25735
 C256 C 0.58955 0.50458 -0.26834
 C257 C 0.56358 0.52399 -0.24654
 C258 C 0.56532 0.55530 -0.27308
 H259 H 0.67570 0.52503 -0.31307
 H260 H 0.67272 0.47763 -0.26862
 H261 H 0.57352 0.53173 -0.21991
 H262 H 0.53851 0.50933 -0.24683
 H263 H 0.57654 0.58102 -0.26153
 H264 H 0.54083 0.55920 -0.28793
 C265 C 0.40004 1.03279 0.79499
 C266 C 0.36935 1.04433 0.81133
 C267 C 0.33954 1.02341 0.80247
 C268 C 0.34024 0.99520 0.77670
 C269 C 0.37086 0.98605 0.75947
 C270 C 0.40080 1.00375 0.77075
 C271 C 0.42812 1.02102 0.74921
 C272 C 0.42703 1.05330 0.77487
 H273 H 0.31475 1.03029 0.81320
 H274 H 0.31653 0.98142 0.76944
 H275 H 0.41919 1.02834 0.72212
 H276 H 0.45253 1.00506 0.75059
 H277 H 0.41714 1.07912 0.76228
 H278 H 0.45125 1.05648 0.79032
 C279 C 0.83634 0.46726 0.20767
 C280 C 0.86609 0.45678 0.19029
 C281 C 0.89621 0.47658 0.19966
 C282 C 0.89534 0.50540 0.22529
 C283 C 0.86450 0.51459 0.24282
 C284 C 0.83569 0.49411 0.23293
 C285 C 0.79839 0.48907 0.23964
 C286 C 0.79925 0.45848 0.21118
 H287 H 0.92028 0.47008 0.18701
 H288 H 0.91889 0.51990 0.23171
 H289 H 0.78304 0.51380 0.23178
 H290 H 0.79339 0.47825 0.26655
 H291 H 0.78426 0.46552 0.18698
 H292 H 0.79502 0.43013 0.22178
 C293 C 0.29030 0.09841 -0.00363
 C294 C 0.29182 0.12688 -0.02864
 C295 C 0.26941 0.15725 -0.02443
 C296 C 0.24329 0.15626 0.00099
 C297 C 0.23952 0.12515 0.02322
 C298 C 0.26503 0.09778 0.02186
 C299 C 0.26232 0.05651 0.02058
 C300 C 0.28996 0.05714 -0.00748
 H301 H 0.27101 0.18091 -0.04193
 H302 H 0.22553 0.17931 0.00233
 H303 H 0.23695 0.04693 0.01046
 H304 H 0.27104 0.04339 0.04565
 H305 H 0.28033 0.04756 -0.03363
 H306 H 0.31449 0.04430 0.00146
 C307 C 0.71927 0.59591 0.51974
 C308 C 0.71084 0.62809 0.53845
 C309 C 0.73087 0.65998 0.53262
 C310 C 0.75600 0.66023 0.50614
 C311 C 0.76113 0.62886 0.48439
 C312 C 0.74338 0.59639 0.49305
 C313 C 0.72260 0.57044 0.47067
 C314 C 0.69646 0.56972 0.50013
 H315 H 0.72635 0.68504 0.54771
 H316 H 0.76998 0.68564 0.50152
 H317 H 0.73569 0.54333 0.46677
 H318 H 0.71257 0.58373 0.44616
 H319 H 0.69478 0.54233 0.51345
 H320 H 0.67139 0.58241 0.49263
 C321 C 0.77839 0.33831 0.01698
 C322 C 0.79637 0.37049 0.02619
 C323 C 0.78965 0.40283 0.00642
 C324 C 0.76304 0.40348 -0.01904
 C325 C 0.74202 0.37208 -0.02460
 C326 C 0.75151 0.33920 -0.00733
 C327 C 0.73094 0.31234 0.01372
 C328 C 0.76061 0.31114 0.04004
 H329 H 0.80406 0.42796 0.01161
 H330 H 0.75767 0.42924 -0.03268
 H331 H 0.72699 0.28561 -0.00043
 H332 H 0.70739 0.32501 0.02491
 H333 H 0.77400 0.28388 0.04074
 H334 H 0.75414 0.32291 0.06631
 C335 C 0.21772 0.83334 0.48314
 C336 C 0.19831 0.86503 0.47544
 C337 C 0.20307 0.89638 0.49721
 C338 C 0.22921 0.89690 0.52316
 C339 C 0.25169 0.86639 0.52737
 C340 C 0.24411 0.83414 0.50805
 C341 C 0.26636 0.80980 0.48590
 C342 C 0.23726 0.80868 0.45891
 H343 H 0.18753 0.92100 0.49318
 H344 H 0.23304 0.92209 0.53828
 H345 H 0.27137 0.78247 0.49852
 H346 H 0.28947 0.82438 0.47605
 H347 H 0.22528 0.78083 0.45628
 H348 H 0.24361 0.82244 0.43355
   
