data_POSCAR
  _audit_creation_date              2014-09-24
  _audit_creation_method            'ToBaCCo'
  _symmetry_space_group_name_H-M    'P1'
  _symmetry_Int_Tables_number       1
  _symmetry_cell_setting            triclinic
  loop_
  _symmetry_equiv_pos_as_xyz
 x,y,z
_cell_length_a 29.4536
_cell_length_b 29.4594
_cell_length_c 29.3806
_cell_angle_alpha 89.820600
_cell_angle_beta 90.151600
_cell_angle_gamma 90.007200
loop_
  _atom_site_label
  _atom_site_type_symbol
  _atom_site_fract_x
  _atom_site_fract_y
  _atom_site_fract_z
O1 O 0.56446 0.11520 0.00522
 O2 O 0.61467 0.05565 0.00309
 C3 C 0.60528 0.09861 0.00507
 O4 O 0.43718 -0.00316 0.11578
 O5 O 0.38684 -0.00062 0.05596
 C6 C 0.39630 -0.00277 0.09905
 O7 O 0.56443 0.00279 0.11634
 O8 O 0.61465 0.00115 0.05683
 C9 C 0.60540 0.00262 0.10000
 O10 O 0.43774 0.11546 -0.00150
 O11 O 0.38741 0.05600 0.00017
 C12 C 0.39688 0.09897 -0.00150
 Zr13 Zr 0.50103 0.08162 0.00178
 O14 O 0.49589 0.13162 0.05312
 O15 O 0.50628 0.13259 -0.04890
 Zr16 Zr 0.50091 0.00021 0.08257
 O17 O 0.49576 0.05091 0.13323
 O18 O 0.50604 -0.05074 0.13330
 O19 O 0.54168 0.04703 0.04855
 O20 O 0.46135 0.04679 0.04802
 O21 O 0.43675 0.00274 -0.11314
 O22 O 0.38662 0.00190 -0.05341
 C23 C 0.39594 0.00297 -0.09652
 O24 O 0.56412 -0.11400 -0.00194
 O25 O 0.61449 -0.05464 -0.00001
 C26 C 0.60497 -0.09755 -0.00190
 O27 O 0.43748 -0.11395 0.00376
 O28 O 0.38728 -0.05442 0.00218
 C29 C 0.39667 -0.09740 0.00370
 O30 O 0.56389 -0.00401 -0.11319
 O31 O 0.61453 0.00068 -0.05380
 C32 C 0.60484 -0.00256 -0.09677
 Zr33 Zr 0.50066 0.00181 -0.07977
 O34 O 0.49791 -0.04340 -0.13540
 O35 O 0.50575 0.05654 -0.12647
 Zr36 Zr 0.50083 -0.08019 0.00104
 O37 O 0.49595 -0.13053 -0.05004
 O38 O 0.50597 -0.13091 0.05203
 Zr39 Zr 0.56895 0.00054 0.00144
 Zr40 Zr 0.43296 0.00073 0.00130
 O41 O 0.46132 -0.04520 -0.04541
 O42 O 0.54113 -0.04567 -0.04583
 O43 O 0.46008 0.04806 -0.04533
 O44 O 0.54047 -0.04600 0.04775
 O45 O 0.54067 0.04746 -0.04481
 O46 O 0.46029 -0.04638 0.04809
 H47 H 0.44086 0.06555 0.06692
 H48 H 0.56093 -0.06505 0.06662
 H49 H 0.44088 -0.06413 -0.06429
 H50 H 0.56137 0.06631 -0.06352
 H51 H 0.48073 -0.07227 0.12852
 H52 H 0.48048 -0.12650 0.07341
 H53 H 0.52170 -0.12609 -0.07118
 H54 H 0.49613 -0.07431 -0.12249
 H55 H 0.47616 0.07243 -0.12718
 H56 H 0.48158 0.12744 -0.07117
 H57 H 0.52131 0.12683 0.07466
 H58 H 0.52170 0.07187 0.12931
 O59 O 0.00398 0.43762 -0.11629
 O60 O 0.00227 0.38727 -0.05656
 C61 C 0.00394 0.39676 -0.09964
 O62 O 0.11526 0.56435 0.00199
 O63 O 0.05561 0.61445 -0.00099
 C64 C 0.09861 0.60514 0.00131
 O65 O 0.11500 0.43701 -0.00410
 O66 O 0.05553 0.38650 -0.00208
 C67 C 0.09849 0.39608 -0.00384
 O68 O -0.00237 0.56452 -0.11607
 O69 O 0.00041 0.61453 -0.05646
 C70 C -0.00176 0.60543 -0.09963
 Zr71 Zr 0.00074 0.50089 -0.08250
 O72 O 0.05148 0.50631 -0.13312
 O73 O -0.05022 0.49575 -0.13317
 Zr74 Zr 0.08186 0.50082 -0.00105
 O75 O 0.13259 0.50620 -0.05170
 O76 O 0.13239 0.49555 0.05008
 O77 O 0.04775 0.46035 -0.04811
 O78 O 0.04711 0.54033 -0.04768
 O79 O -0.11339 0.56432 -0.00465
 O80 O -0.05387 0.61473 -0.00264
 C81 C -0.09684 0.60522 -0.00444
 O82 O -0.00237 0.43714 0.11369
 O83 O -0.00012 0.38703 0.05410
 C84 C -0.00211 0.39635 0.09715
 O85 O 0.00327 0.56394 0.11342
 O86 O 0.00061 0.61432 0.05370
 C87 C 0.00254 0.60481 0.09680
 O88 O -0.11376 0.43716 0.00179
 O89 O -0.05414 0.38705 -0.00009
 C90 C -0.09712 0.39638 0.00176
 Zr91 Zr -0.08019 0.50051 -0.00180
 O92 O -0.13154 0.50550 0.04821
 O93 O -0.13000 0.49523 -0.05363
 Zr94 Zr 0.00101 0.50053 0.07983
 O95 O -0.04916 0.50538 0.13104
 O96 O 0.05260 0.49534 0.12993
 Zr97 Zr 0.00103 0.43274 -0.00128
 Zr98 Zr 0.00066 0.56851 -0.00132
 O99 O -0.04569 0.53984 0.04497
 O100 O -0.04584 0.46001 0.04541
 O101 O -0.04610 0.54140 -0.04849
 O102 O 0.04737 0.46105 0.04533
 O103 O -0.04545 0.46100 -0.04796
 O104 O 0.04765 0.54139 0.04572
 H105 H 0.06600 0.56077 -0.06664
 H106 H 0.06622 0.44049 0.06431
 H107 H -0.06474 0.56009 0.06383
 H108 H -0.06426 0.44046 -0.06686
 H109 H 0.12771 0.52085 0.07161
 H110 H 0.07281 0.52194 0.12644
 H111 H -0.07156 0.48099 0.12556
 H112 H -0.12601 0.48127 0.07091
 H113 H -0.12674 0.52195 -0.07383
 H114 H -0.07175 0.52107 -0.12856
 H115 H 0.07327 0.48121 -0.12820
 H116 H 0.12807 0.48085 -0.07324
 O117 O -0.11493 -0.00504 0.56333
 O118 O -0.05557 -0.00060 0.61394
 C119 C -0.09847 -0.00368 0.60435
 O120 O 0.00146 -0.11513 0.43667
 O121 O -0.00091 -0.05561 0.38608
 C122 C 0.00091 -0.09857 0.39566
 O123 O -0.00355 -0.11506 0.56417
 O124 O -0.00070 -0.05562 0.61445
 C125 C -0.00289 -0.09856 0.60509
 O126 O -0.11515 0.00205 0.43626
 O127 O -0.05573 -0.00051 0.38589
 C128 C -0.09869 0.00147 0.39532
 Zr129 Zr -0.08143 0.00012 0.49991
 O130 O -0.13668 -0.04559 0.49737
 O131 O -0.12651 0.05588 0.50169
 Zr132 Zr -0.00098 -0.08162 0.50030
 O133 O -0.05193 -0.13215 0.49563
 O134 O 0.04969 -0.13239 0.50544
 O135 O -0.04762 -0.04720 0.54072
 O136 O -0.04727 -0.04672 0.46061
 O137 O -0.00349 0.11386 0.43621
 O138 O -0.00043 0.05442 0.38590
 C139 C -0.00270 0.09737 0.39529
 O140 O 0.11398 0.00160 0.56393
 O141 O 0.05455 -0.00124 0.61428
 C142 C 0.09750 0.00085 0.60487
 O143 O 0.11385 -0.00424 0.43665
 O144 O 0.05436 -0.00132 0.38605
 C145 C 0.09732 -0.00360 0.39565
 O146 O 0.00279 0.11382 0.56338
 O147 O -0.00012 0.05437 0.61403
 C148 C 0.00217 0.09732 0.60439
 Zr149 Zr -0.00018 0.08026 0.49987
 O150 O 0.05106 0.13042 0.49473
 O151 O -0.05083 0.13104 0.50404
 Zr152 Zr 0.08038 -0.00100 0.50020
 O153 O 0.13092 0.04986 0.49497
 O154 O 0.13099 -0.05177 0.50552
 Zr155 Zr -0.00049 -0.00072 0.56825
 Zr156 Zr -0.00062 -0.00072 0.43191
 O157 O 0.04596 0.04548 0.46037
 O158 O 0.04652 0.04592 0.54086
 O159 O -0.04708 0.04639 0.45893
 O160 O 0.04562 -0.04726 0.53982
 O161 O -0.04667 0.04597 0.53976
 O162 O 0.04600 -0.04772 0.45952
 H163 H -0.06642 -0.06568 0.44044
 H164 H 0.06459 -0.06635 0.56016
 H165 H 0.06497 0.06435 0.43996
 H166 H -0.06555 0.06483 0.56020
 H167 H 0.07086 -0.12807 0.47972
 H168 H 0.12585 -0.07365 0.48057
 H169 H 0.12683 0.07091 0.52080
 H170 H 0.07227 0.12590 0.52051
 H171 H -0.07459 0.12344 0.48145
 H172 H -0.15748 0.04279 0.50243
 H173 H -0.12371 -0.07640 0.49951
 H174 H -0.07220 -0.12871 0.52221
 N175 N -0.27898 0.14632 0.00590
 C176 C -0.28761 0.19152 0.00765
 N177 N -0.33126 0.20598 0.00891
 N178 N -0.36529 0.17624 0.00836
 C179 C -0.35687 0.13099 0.00653
 N180 N -0.31307 0.11652 0.00536
 C181 C -0.25138 0.22406 0.00743
 C182 C -0.22246 0.25300 0.00697
 C183 C -0.18994 0.28925 0.00614
 N184 N -0.20445 0.33288 0.00656
 N185 N -0.17475 0.36692 0.00530
 C186 C -0.12947 0.35851 0.00353
 N187 N -0.11496 0.31472 0.00315
 N188 N -0.14473 0.28062 0.00441
 N189 N 0.28089 0.85496 0.00468
 C190 C 0.28949 0.80973 0.00600
 N191 N 0.33314 0.79521 0.00682
 N192 N 0.36720 0.82492 0.00627
 C193 C 0.35880 0.87021 0.00488
 N194 N 0.31501 0.88473 0.00414
 C195 C 0.25320 0.77724 0.00593
 C196 C 0.22421 0.74836 0.00563
 C197 C 0.19160 0.71217 0.00501
 N198 N 0.20601 0.66851 0.00630
 N199 N 0.17625 0.63453 0.00522
 C200 C 0.13100 0.64300 0.00280
 N201 N 0.11658 0.68681 0.00157
 N202 N 0.14642 0.72086 0.00264
 N203 N 0.28119 0.14676 -0.00384
 C204 C 0.28987 0.19197 -0.00529
 N205 N 0.33354 0.20643 -0.00566
 N206 N 0.36755 0.17669 -0.00458
 C207 C 0.35908 0.13141 -0.00308
 N208 N 0.31526 0.11695 -0.00277
 C209 C 0.25362 0.22449 -0.00594
 C210 C 0.22461 0.25334 -0.00625
 C211 C 0.19190 0.28943 -0.00632
 N212 N 0.20617 0.33314 -0.00742
 N213 N 0.17629 0.36702 -0.00684
 C214 C 0.13105 0.35838 -0.00512
 N215 N 0.11677 0.31452 -0.00409
 N216 N 0.14673 0.28057 -0.00467
 N217 N -0.27937 0.85464 -0.00430
 C218 C -0.28807 0.80946 -0.00610
 N219 N -0.33174 0.79502 -0.00670
 N220 N -0.36574 0.82476 -0.00550
 C221 C -0.35725 0.87001 -0.00363
 N222 N -0.31342 0.88445 -0.00310
 C223 C -0.25183 0.77693 -0.00680
 C224 C -0.22283 0.74807 -0.00711
 C225 C -0.19015 0.71197 -0.00715
 N226 N -0.20447 0.66828 -0.00814
 N227 N -0.17462 0.63437 -0.00749
 C228 C -0.12936 0.64296 -0.00581
 N229 N -0.11503 0.68680 -0.00491
 N230 N -0.14496 0.72078 -0.00555
 N231 N 0.00226 -0.27971 0.14498
 C232 C 0.00401 -0.28861 0.19028
 N233 N 0.00547 -0.33233 0.20466
 N234 N 0.00515 -0.36617 0.17474
 C235 C 0.00335 -0.35749 0.12936
 N236 N 0.00194 -0.31361 0.11498
 C237 C 0.00391 -0.25259 0.22304
 C238 C 0.00370 -0.22380 0.25211
 C239 C 0.00332 -0.19136 0.28844
 N240 N 0.00433 -0.20591 0.33223
 N241 N 0.00364 -0.17624 0.36630
 C242 C 0.00191 -0.13095 0.35779
 N243 N 0.00094 -0.11641 0.31384
 N244 N 0.00162 -0.14615 0.27971
 N245 N 0.00694 0.33304 0.79298
 C246 C 0.00621 0.28943 0.80779
 N247 N 0.00504 0.28095 0.85317
 N248 N 0.00455 0.31513 0.88282
 C249 C 0.00521 0.35888 0.86802
 N250 N 0.00645 0.36717 0.82257
 C251 C 0.00615 0.25302 0.77546
 C252 C 0.00590 0.22385 0.74678
 C253 C 0.00540 0.19099 0.71083
 N254 N 0.00320 0.14587 0.71998
 N255 N 0.00230 0.11579 0.68614
 C256 C 0.00355 0.12992 0.64207
 N257 N 0.00578 0.17510 0.63315
 N258 N 0.00668 0.20510 0.66692
 N259 N -0.00651 0.33257 0.20479
 C260 C -0.00551 0.28897 0.19027
 N261 N -0.00362 0.28049 0.14496
 N262 N -0.00273 0.31468 0.11510
 C263 C -0.00366 0.35842 0.12963
 N264 N -0.00562 0.36670 0.17501
 C265 C -0.00581 0.25261 0.22286
 C266 C -0.00583 0.22352 0.25180
 C267 C -0.00558 0.19078 0.28805
 N268 N -0.00335 0.14564 0.27931
 N269 N -0.00257 0.11567 0.31343
 C270 C -0.00396 0.12991 0.35736
 N271 N -0.00624 0.17512 0.36588
 N272 N -0.00703 0.20501 0.33182
 N273 N -0.00321 -0.28182 0.85555
 C274 C -0.00517 -0.29018 0.81021
 N275 N -0.00614 -0.33373 0.79558
 N276 N -0.00513 -0.36794 0.82526
 C277 C -0.00308 -0.35990 0.87077
 N278 N -0.00221 -0.31609 0.88532
 C279 C -0.00563 -0.25374 0.77768
 C280 C -0.00577 -0.22463 0.74873
 C281 C -0.00564 -0.19191 0.71243
 N282 N -0.00703 -0.20618 0.66866
 N283 N -0.00630 -0.17631 0.63457
 C284 C -0.00413 -0.13109 0.64305
 N285 N -0.00281 -0.11681 0.68699
 N286 N -0.00353 -0.14675 0.72114
 N287 N 0.28012 0.00370 0.85551
 C288 C 0.28870 0.00453 0.81017
 N289 N 0.33233 0.00504 0.79569
 N290 N 0.36640 0.00469 0.82554
 C291 C 0.35804 0.00381 0.87095
 N292 N 0.31425 0.00336 0.88544
 C293 C 0.25241 0.00443 0.77751
 C294 C 0.22340 0.00417 0.74850
 C295 C 0.19075 0.00368 0.71219
 N296 N 0.20509 0.00487 0.66842
 N297 N 0.17525 0.00404 0.63433
 C298 C 0.13002 0.00197 0.64280
 N299 N 0.11568 0.00082 0.68672
 N300 N 0.14558 0.00165 0.72088
 N301 N -0.28195 0.00355 0.14502
 C302 C -0.29041 0.00467 0.19036
 N303 N -0.33399 0.00532 0.20494
 N304 N -0.36815 0.00480 0.17518
 C305 C -0.36001 0.00358 0.12967
 N306 N -0.31616 0.00304 0.11518
 C307 C -0.25402 0.00467 0.22294
 C308 C -0.22492 0.00448 0.25188
 C309 C -0.19217 0.00407 0.28813
 N310 N -0.20641 0.00511 0.33192
 N311 N -0.17650 0.00437 0.36596
 C312 C -0.13127 0.00254 0.35741
 N313 N -0.11702 0.00152 0.31346
 N314 N -0.14701 0.00226 0.27936
 N315 N 0.33265 -0.00741 0.20646
 C316 C 0.28902 -0.00635 0.19174
 N317 N 0.28048 -0.00436 0.14639
 N318 N 0.31464 -0.00340 0.11668
 C319 C 0.35841 -0.00438 0.13140
 N320 N 0.36675 -0.00645 0.17682
 C321 C 0.25267 -0.00674 0.22417
 C322 C 0.22356 -0.00681 0.25294
 C323 C 0.19079 -0.00661 0.28898
 N324 N 0.14564 -0.00441 0.27995
 N325 N 0.11564 -0.00363 0.31388
 C326 C 0.12987 -0.00500 0.35790
 N327 N 0.17508 -0.00727 0.36671
 N328 N 0.20500 -0.00805 0.33285
 N329 N -0.33246 -0.00872 0.79539
 C330 C -0.28872 -0.00656 0.80962
 N331 N -0.27976 -0.00334 0.85481
 N332 N -0.31363 -0.00227 0.88484
 C333 C -0.35753 -0.00436 0.87061
 N334 N -0.36627 -0.00764 0.82535
 C335 C -0.25272 -0.00698 0.77682
 C336 C -0.22392 -0.00709 0.74775
 C337 C -0.19140 -0.00694 0.71148
 N338 N -0.14624 -0.00403 0.72022
 N339 N -0.11645 -0.00321 0.68612
 C340 C -0.13089 -0.00525 0.64220
 N341 N -0.17610 -0.00823 0.63366
 N342 N -0.20583 -0.00905 0.66771
   
