data_POSCAR
  _audit_creation_date              2014-09-24
  _audit_creation_method            'ToBaCCo'
  _symmetry_space_group_name_H-M    'P1'
  _symmetry_Int_Tables_number       1
  _symmetry_cell_setting            triclinic
  loop_
  _symmetry_equiv_pos_as_xyz
 x,y,z
_cell_length_a 30.4802
_cell_length_b 31.3858
_cell_length_c 13.0142
_cell_angle_alpha 89.013500
_cell_angle_beta 91.038600
_cell_angle_gamma 120.830800
loop_
  _atom_site_label
  _atom_site_type_symbol
  _atom_site_fract_x
  _atom_site_fract_y
  _atom_site_fract_z
C1 C 0.09434 0.41247 0.53202
 C2 C 0.09417 0.40733 0.42707
 C3 C 0.13942 0.40950 0.40341
 N4 N 0.16633 0.41429 0.49020
 C5 C 0.13947 0.41700 0.56881
 C6 C 0.15424 0.40514 0.30381
 C7 C 0.20462 0.41746 0.27963
 C8 C 0.21922 0.40865 0.18581
 C9 C 0.27161 0.42957 0.19024
 C10 C 0.28758 0.45047 0.28672
 N11 N 0.24663 0.44329 0.34025
 C12 C 0.33931 0.47900 0.31898
 C13 C 0.35412 0.49390 0.42244
 C14 C 0.40128 0.53279 0.45496
 C15 C 0.39963 0.53427 0.56039
 C16 C 0.35159 0.49644 0.58865
 N17 N 0.32408 0.47155 0.50458
 C18 C 0.33335 0.48532 0.69026
 C19 C 0.28171 0.45234 0.71228
 C20 C 0.26305 0.43483 0.80992
 C21 C 0.21122 0.41619 0.80483
 C22 C 0.19996 0.42278 0.70424
 N23 N 0.24292 0.44397 0.64815
 C24 C 0.15468 0.42083 0.67327
 H25 H 0.06397 0.41146 0.57569
 H26 H 0.06433 0.40269 0.37412
 H27 H 0.24723 0.46194 0.57812
 H28 H 0.19479 0.39004 0.12026
 H29 H 0.29536 0.43015 0.12875
 H30 H 0.43306 0.55878 0.40816
 H31 H 0.42980 0.56075 0.61031
 H32 H 0.18544 0.40300 0.86935
 H33 H 0.24832 0.46039 0.40889
 H34 H 0.28510 0.43888 0.87908
 C35 C 0.53506 -0.34726 0.55090
 C36 C 0.53843 -0.34438 0.44606
 C37 C 0.53034 -0.30635 0.41589
 N38 N 0.52187 -0.28615 0.49791
 C39 C 0.52482 -0.31103 0.58032
 C40 C 0.53905 -0.28584 0.31686
 C41 C 0.52534 -0.25113 0.28458
 C42 C 0.53995 -0.22467 0.19286
 C43 C 0.51812 -0.19556 0.19025
 C44 C 0.49099 -0.20513 0.28058
 N45 N 0.49470 -0.23974 0.33659
 C46 C 0.46261 -0.18299 0.30699
 C47 C 0.44293 -0.18652 0.40707
 C48 C 0.40675 -0.17427 0.43284
 C49 C 0.40245 -0.17799 0.53808
 C50 C 0.43532 -0.19331 0.57305
 N51 N 0.46011 -0.19835 0.49317
 C52 C 0.44607 -0.19700 0.67766
 C53 C 0.47419 -0.21922 0.71082
 C54 C 0.49459 -0.21552 0.80865
 C55 C 0.51786 -0.24339 0.80933
 C56 C 0.51038 -0.26378 0.71233
 N57 N 0.48292 -0.24963 0.65359
 C58 C 0.52723 -0.29591 0.68156
 H59 H 0.54156 -0.37166 0.60021
 H60 H 0.54800 -0.36619 0.39788
 H61 H 0.46701 -0.26346 0.58172
 H62 H 0.56382 -0.22622 0.13420
 H63 H 0.52197 -0.17010 0.12907
 H64 H 0.38540 -0.16384 0.38171
 H65 H 0.37822 -0.17004 0.58380
 H66 H 0.53759 -0.24848 0.87405
 H67 H 0.47382 -0.25762 0.40192
 H68 H 0.49298 -0.19503 0.87301
 C69 C 1.33607 0.89894 0.49131
 C70 C 1.32832 0.88932 0.38841
 C71 C 1.28545 0.84266 0.37881
 N72 N 1.26626 0.82330 0.47160
 C73 C 1.29724 0.85756 0.54030
 C74 C 1.26142 0.82136 0.28556
 C75 C 1.22456 0.77046 0.27632
 C76 C 1.19620 0.74845 0.18835
 C77 C 1.16776 0.69823 0.20888
 C78 C 1.17913 0.69111 0.30932
 N79 N 1.21422 0.73522 0.34936
 C80 C 1.16039 0.64412 0.35665
 C81 C 1.16046 0.63743 0.46531
 C82 C 1.14721 0.59356 0.51766
 C83 C 1.15127 0.60386 0.62127
 C84 C 1.16734 0.65369 0.62926
 N85 N 1.17232 0.67385 0.53415
 C86 C 1.17630 0.67962 0.72284
 C87 C 1.20029 0.73169 0.72833
 C88 C 1.20292 0.75744 0.81621
 C89 C 1.23528 0.80709 0.79502
 C90 C 1.25144 0.81011 0.69498
 N91 N 1.23018 0.76407 0.65515
 C92 C 1.28782 0.85420 0.64555
 H93 H 1.36601 0.93275 0.52604
 H94 H 1.35108 0.91358 0.32715
 H95 H 1.24103 0.75481 0.58794
 H96 H 1.19688 0.76655 0.11633
 H97 H 1.14196 0.67002 0.15551
 H98 H 1.13646 0.55784 0.48624
 H99 H 1.14398 0.57786 0.68359
 H100 H 1.24664 0.83737 0.84782
 H101 H 1.23425 0.73980 0.41767
 H102 H 1.18459 0.74190 0.88903
 C103 C 0.64758 0.51037 0.39910
 C104 C 0.64611 0.51937 0.50131
 C105 C 0.69165 0.52775 0.54445
 N106 N 0.72144 0.52552 0.47171
 C107 C 0.69445 0.51474 0.38286
 C108 C 0.70634 0.54155 0.64737
 C109 C 0.75100 0.54586 0.69284
 C110 C 0.76957 0.56524 0.78948
 C111 C 0.81344 0.56350 0.80538
 C112 C 0.82082 0.54353 0.71756
 N113 N 0.78198 0.53179 0.65045
 C114 C 0.86234 0.53603 0.70336
 C115 C 0.87708 0.52739 0.60681
 C116 C 0.91567 0.51715 0.59340
 C117 C 0.92027 0.51392 0.48923
 C118 C 0.88461 0.52284 0.44152
 N119 N 0.85863 0.53144 0.51406
 C120 C 0.87596 0.52313 0.33345
 C121 C 0.83490 0.52611 0.29038
 C122 C 0.82974 0.53263 0.18596
 C123 C 0.78293 0.52835 0.17170
 C124 C 0.76103 0.51954 0.26773
 N125 N 0.79259 0.51779 0.33967
 C126 C 0.71254 0.51261 0.28527
 H127 H 0.61806 0.50271 0.34262
 H128 H 0.61533 0.52020 0.53960
 H129 H 0.78301 0.50553 0.41485
 H130 H 0.75324 0.57929 0.84282
 H131 H 0.83758 0.57614 0.87342
 H132 H 0.93785 0.51199 0.65280
 H133 H 0.94653 0.50510 0.45468
 H134 H 0.76684 0.53134 0.09899
 H135 H 0.77535 0.51182 0.58353
 H136 H 0.85662 0.53900 0.12589
 C137 C 0.50729 0.14300 0.41066
 C138 C 0.50098 0.13395 0.51422
 C139 C 0.49327 0.17010 0.55458
 N140 N 0.49401 0.20060 0.47914
 C141 C 0.50257 0.18402 0.39105
 C142 C 0.47872 0.16991 0.65661
 C143 C 0.47559 0.20957 0.69880
 C144 C 0.45112 0.20720 0.78935
 C145 C 0.45535 0.25290 0.80077
 C146 C 0.48242 0.28184 0.71703
 N147 N 0.49573 0.25559 0.65691
 C148 C 0.49441 0.33121 0.69803
 C149 C 0.51364 0.35670 0.60487
 C150 C 0.52920 0.40633 0.58972
 C151 C 0.53445 0.41486 0.48647
 C152 C 0.52324 0.37071 0.44214
 N153 N 0.50985 0.33487 0.51434
 C154 C 0.52033 0.36365 0.33578
 C155 C 0.51115 0.31924 0.28985
 C156 C 0.50223 0.30811 0.18589
 C157 C 0.49699 0.26221 0.17412
 C158 C 0.50339 0.24698 0.27069
 N159 N 0.51290 0.28209 0.34012
 C160 C 0.50191 0.20226 0.29150
 H161 H 0.51344 0.12114 0.35571
 H162 H 0.50063 0.10344 0.55505
 H163 H 0.52526 0.28272 0.41509
 H164 H 0.43155 0.17561 0.84074
 H165 H 0.43980 0.26346 0.86288
 H166 H 0.53379 0.43312 0.64630
 H167 H 0.54275 0.44893 0.44795
 H168 H 0.48967 0.24248 0.10253
 H169 H 0.52002 0.26941 0.59431
 H170 H 0.50000 0.33021 0.12381
 C171 C 0.85469 0.38183 0.44993
 C172 C 0.86066 0.38216 0.55480
 C173 C 0.83176 0.33329 0.58816
 N174 N 0.80810 0.30331 0.50698
 C175 C 0.82175 0.33296 0.42281
 C176 C 0.82832 0.31639 0.69115
 C177 C 0.79050 0.26846 0.72293
 C178 C 0.79037 0.24818 0.81835
 C179 C 0.74637 0.20247 0.82257
 C180 C 0.72087 0.19619 0.72951
 N181 N 0.74771 0.23678 0.66956
 C182 C 0.67260 0.15484 0.70576
 C183 C 0.65090 0.14369 0.60581
 C184 C 0.60147 0.10655 0.58390
 C185 C 0.59591 0.10552 0.47882
 C186 C 0.64259 0.14179 0.43883
 N187 N 0.67607 0.16479 0.51750
 C188 C 0.65489 0.15312 0.33245
 C189 C 0.70124 0.19481 0.29946
 C190 C 0.71786 0.20299 0.19863
 C191 C 0.76138 0.24925 0.19482
 C192 C 0.77018 0.26805 0.29346
 N193 N 0.73323 0.23483 0.35659
 C194 C 0.80878 0.31653 0.32070
 H195 H 0.87248 0.41384 0.39918
 H196 H 0.88316 0.41494 0.60042
 H197 H 0.72667 0.24205 0.43040
 H198 H 0.81881 0.26482 0.87898
 H199 H 0.73421 0.17696 0.88730
 H200 H 0.57225 0.08291 0.63825
 H201 H 0.56063 0.08080 0.43933
 H202 H 0.78311 0.26737 0.12649
 H203 H 0.73455 0.24441 0.60169
 H204 H 0.69982 0.17859 0.13390
 O205 O 0.98507 0.53683 -0.08973
 O206 O 1.06112 0.47946 0.22996
 O207 O 0.96345 0.51208 0.09816
 O208 O 1.13223 0.55519 -0.05661
 O209 O 0.97767 0.46987 0.21542
 O210 O 1.07580 0.57469 -0.09000
 O211 O 1.11787 0.54010 0.13396
 O212 O 0.90661 0.47868 -0.05948
 C213 C 0.93786 0.52018 -0.10564
 C214 C 1.09683 0.52425 0.21949
 C215 C 0.96736 0.50300 0.19154
 C216 C 1.12114 0.58685 -0.08163
 O217 O 1.07023 0.49703 -0.19280
 O218 O 0.94551 0.38592 0.09747
 O219 O 0.92804 0.41065 -0.07879
 O220 O 1.10333 0.45284 0.11028
 O221 O 1.02614 0.39568 0.10672
 O222 O 0.97659 0.45873 -0.19741
 O223 O 1.10111 0.46309 -0.08511
 O224 O 0.90203 0.41976 0.09760
 Co225 Co 1.02630 0.51304 -0.12899
 Co226 Co 1.00396 0.43578 0.15179
 Co227 Co 0.94980 0.46328 0.00605
 Co228 Co 1.10471 0.49998 0.02472
 O229 O 1.02329 0.47697 0.01645
 C230 C 1.09224 0.47235 -0.17558
 C231 C 0.90531 0.38331 0.12277
 C232 C 0.93911 0.41814 -0.17119
 C233 C 1.07117 0.40835 0.12101
 O234 O 0.48484 0.45815 -0.16736
 O235 O 0.50673 0.53789 0.21079
 O236 O 0.50965 0.44221 0.04335
 O237 O 0.46086 0.57833 -0.06326
 O238 O 0.54516 0.48876 0.17617
 O239 O 0.44404 0.51105 -0.14116
 O240 O 0.45367 0.53310 0.09681
 O241 O 0.54505 0.43982 -0.12018
 C242 C 0.50107 0.42739 -0.16219
 C243 C 0.46182 0.52425 0.18552
 C244 C 0.51683 0.44626 0.13765
 C245 C 0.43216 0.54269 -0.12014
 O246 O 0.53103 0.59470 -0.19506
 O247 O 0.62619 0.56970 0.08918
 O248 O 0.61490 0.53140 -0.11463
 O249 O 0.51621 0.62709 0.11618
 O250 O 0.58588 0.62054 0.12795
 O251 O 0.57057 0.54253 -0.23125
 O252 O 0.55635 0.63395 -0.04730
 O253 O 0.60907 0.49616 0.05481
 Co254 Co 0.50987 0.52735 -0.16938
 Co255 Co 0.56409 0.55314 0.13840
 Co256 Co 0.55955 0.48964 -0.03691
 Co257 Co 0.50835 0.58111 0.02719
 O258 O 0.53462 0.53694 -0.01244
 C259 C 0.55420 0.63493 -0.14345
 C260 C 0.63840 0.53736 0.09620
 C261 C 0.61195 0.54641 -0.20212
 C262 C 0.56224 0.64291 0.15348
 O263 O 0.54909 0.02860 -0.09634
 O264 O 0.43222 -0.05725 0.20491
 O265 O 0.55321 0.06661 0.08942
 O266 O 0.40520 -0.12923 -0.09102
 O267 O 0.49479 0.03620 0.21117
 O268 O 0.48374 -0.06466 -0.10469
 O269 O 0.44760 -0.09422 0.07903
 O270 O 0.56587 0.10602 -0.08345
 C271 C 0.57909 0.07487 -0.11463
 C272 C 0.44453 -0.08803 0.17427
 C273 C 0.54140 0.05986 0.18406
 C274 C 0.45046 -0.10876 -0.13277
 O275 O 0.42153 -0.04233 -0.21297
 O276 O 0.42359 0.05161 0.12477
 O277 O 0.46955 0.08204 -0.09142
 O278 O 0.35853 -0.10828 0.07416
 O279 O 0.36087 -0.04088 0.11895
 O280 O 0.48321 0.04454 -0.20874
 O281 O 0.36584 -0.07366 -0.09522
 O282 O 0.50108 0.10670 0.08148
 Co283 Co 0.48247 -0.00831 -0.14278
 Co284 Co 0.42971 -0.00274 0.15241
 Co285 Co 0.50879 0.06797 -0.00898
 Co286 Co 0.41140 -0.07883 -0.01482
 O287 O 0.45384 -0.00463 0.00404
 C288 C 0.37653 -0.05994 -0.18485
 C289 C 0.46070 0.09531 0.12777
 C290 C 0.46592 0.07113 -0.18243
 C291 C 0.33657 -0.08733 0.10943
 N292 N 1.11928 0.38936 0.23046
 N293 N 1.08498 0.37474 0.16476
 N294 N 0.56482 0.70264 0.25566
 N295 N 0.58889 0.68936 0.20382
 N296 N 0.27216 -0.14822 0.20700
 N297 N 0.28440 -0.11635 0.13917
 N298 N 0.90450 0.51391 0.25920
 N299 N 0.94915 0.52087 0.27036
 N300 N 0.52969 0.40555 0.27404
 N301 N 0.50235 0.40277 0.19697
 N302 N 0.61890 0.12508 0.25120
 N303 N 0.57939 0.08241 0.26317
 N304 N 0.45985 0.12757 -0.29293
 N305 N 0.43993 0.08578 -0.25384
 N306 N 0.68042 0.55735 -0.30218
 N307 N 0.65677 0.57488 -0.26232
 N308 N 0.86246 0.34882 -0.23013
 N309 N 0.90793 0.38343 -0.24834
 N310 N 0.43066 -0.17382 -0.24843
 N311 N 0.46398 -0.13454 -0.20311
 N312 N 0.36254 0.51275 -0.23390
 N313 N 0.38718 0.53979 -0.16166
 N314 N 1.16652 0.65552 -0.18911
 N315 N 1.16105 0.63614 -0.10347
 N316 N 0.89237 0.54319 -0.21699
 N317 N 0.92151 0.55289 -0.14273
 N318 N 0.48012 0.35311 -0.23739
 N319 N 0.46638 0.37652 -0.18573
 N320 N 0.64896 0.12240 -0.22042
 N321 N 0.62897 0.09114 -0.15158
 N322 N 1.12850 0.42972 -0.24724
 N323 N 1.11043 0.45800 -0.26061
 N324 N 0.55222 0.69232 -0.25265
 N325 N 0.57700 0.68206 -0.19252
 N326 N 0.31300 -0.10505 -0.30156
 N327 N 0.33776 -0.06591 -0.25495
 N328 N 0.45604 -0.15401 0.22812
 N329 N 0.45285 -0.11644 0.25005
 N330 N 0.37763 0.49511 0.24082
 N331 N 0.42259 0.50405 0.26077
 N332 N 1.14108 0.60369 0.28539
 N333 N 1.11301 0.55753 0.30451
 N334 N 0.49876 0.17259 0.20679
 N335 N 0.45995 0.12933 0.19696
 N336 N 0.68089 0.50708 0.19825
 N337 N 0.67613 0.54338 0.16969
 N338 N 0.83862 0.35129 0.24179
 N339 N 0.87099 0.34590 0.19231
   
