data_POSCAR
  _audit_creation_date              2014-09-24
  _audit_creation_method            'ToBaCCo'
  _symmetry_space_group_name_H-M    'P1'
  _symmetry_Int_Tables_number       1
  _symmetry_cell_setting            triclinic
  loop_
  _symmetry_equiv_pos_as_xyz
 x,y,z
_cell_length_a 60.7993
_cell_length_b 60.8307
_cell_length_c 18.3233
_cell_angle_alpha 89.811600
_cell_angle_beta 90.149200
_cell_angle_gamma 120.028900
loop_
  _atom_site_label
  _atom_site_type_symbol
  _atom_site_fract_x
  _atom_site_fract_y
  _atom_site_fract_z
C1 C 0.24525 0.49119 0.53115
 C2 C 0.24513 0.49123 0.45668
 C3 C 0.22504 0.49276 0.41441
 C4 C 0.26485 0.48930 0.41412
 C5 C 0.26675 0.49247 0.57343
 C6 C 0.22368 0.48944 0.57376
 C7 C 0.21084 0.47415 0.36208
 C8 C 0.19100 0.47463 0.32473
 C9 C 0.18530 0.49387 0.33887
 C10 C 0.19990 0.51292 0.38953
 C11 C 0.21976 0.51245 0.42678
 C12 C 0.26950 0.46914 0.42610
 C13 C 0.28885 0.46810 0.38810
 C14 C 0.30354 0.48700 0.33717
 C15 C 0.29852 0.50673 0.32348
 C16 C 0.27919 0.50782 0.36153
 C17 C 0.29183 0.51204 0.56104
 C18 C 0.31201 0.51230 0.59857
 C19 C 0.30730 0.49321 0.64942
 C20 C 0.28231 0.47410 0.66353
 C21 C 0.26212 0.47378 0.62597
 C22 C 0.22807 0.50792 0.62644
 C23 C 0.20776 0.50694 0.66486
 C24 C 0.18292 0.48736 0.65144
 C25 C 0.17848 0.46852 0.60033
 C26 C 0.19877 0.46946 0.56196
 H27 H 0.21470 0.45890 0.35153
 H28 H 0.17993 0.45975 0.28566
 H29 H 0.19583 0.52800 0.40097
 H30 H 0.23080 0.52723 0.46598
 H31 H 0.25833 0.45442 0.46545
 H32 H 0.29250 0.45269 0.39891
 H33 H 0.27577 0.52340 0.35123
 H34 H 0.29576 0.52688 0.52169
 H35 H 0.33128 0.52723 0.58741
 H36 H 0.27845 0.45924 0.70281
 H37 H 0.24292 0.45862 0.63655
 H38 H 0.24716 0.52337 0.63662
 H39 H 0.21140 0.52160 0.70437
 H40 H 0.15934 0.45323 0.58973
 H41 H 0.19505 0.45476 0.52256
 H42 H 0.30976 0.52143 0.28411
 C43 C 0.50760 -0.24661 0.53880
 C44 C 0.50768 -0.24697 0.46434
 C45 C 0.50935 -0.26710 0.42329
 C46 C 0.50647 -0.22704 0.42045
 C47 C 0.50925 -0.22480 0.57980
 C48 C 0.50626 -0.26783 0.58262
 C49 C 0.52932 -0.27198 0.43618
 C50 C 0.53024 -0.29152 0.39892
 C51 C 0.51139 -0.30617 0.34786
 C52 C 0.49180 -0.30100 0.33348
 C53 C 0.49084 -0.28148 0.37077
 C54 C 0.52536 -0.21315 0.36840
 C55 C 0.52519 -0.19342 0.32961
 C56 C 0.50601 -0.18753 0.34200
 C57 C 0.48669 -0.20180 0.39223
 C58 C 0.48681 -0.22156 0.43099
 C59 C 0.49058 -0.22889 0.63158
 C60 C 0.49143 -0.20837 0.66834
 C61 C 0.51106 -0.18361 0.65417
 C62 C 0.53009 -0.17947 0.60395
 C63 C 0.52928 -0.19996 0.56723
 C64 C 0.48663 -0.29295 0.57146
 C65 C 0.48647 -0.31293 0.60977
 C66 C 0.50575 -0.30799 0.66024
 C67 C 0.52489 -0.28291 0.67334
 C68 C 0.52507 -0.26293 0.63496
 H69 H 0.54405 -0.26078 0.47544
 H70 H 0.54555 -0.29528 0.41022
 H71 H 0.47716 -0.31219 0.29396
 H72 H 0.47540 -0.27789 0.35976
 H73 H 0.54059 -0.21717 0.35926
 H74 H 0.54023 -0.18250 0.29085
 H75 H 0.47182 -0.23235 0.46996
 H76 H 0.47509 -0.24790 0.64233
 H77 H 0.47665 -0.21179 0.70723
 H78 H 0.54543 -0.16040 0.59283
 H79 H 0.54412 -0.19647 0.52851
 H80 H 0.47171 -0.29706 0.53224
 H81 H 0.47150 -0.33223 0.59921
 H82 H 0.53992 -0.27880 0.71225
 H83 H 0.54028 -0.24369 0.64457
 H84 H 0.47172 -0.19744 0.40209
 C85 C 1.24588 0.75498 0.54025
 C86 C 1.24593 0.75516 0.46578
 C87 C 1.26742 0.77536 0.42354
 C88 C 1.22431 0.73538 0.42309
 C89 C 1.22578 0.73337 0.58242
 C90 C 1.26569 0.77659 0.58289
 C91 C 1.26278 0.78943 0.37107
 C92 C 1.28295 0.80925 0.33336
 C93 C 1.30796 0.81506 0.34728
 C94 C 1.31266 0.80064 0.39815
 C95 C 1.29249 0.78080 0.43579
 C96 C 1.19943 0.73050 0.43490
 C97 C 1.17910 0.71120 0.39641
 C98 C 1.18346 0.69679 0.34518
 C99 C 1.20828 0.70200 0.33175
 C100 C 1.22863 0.72129 0.37028
 C101 C 1.22040 0.70837 0.56984
 C102 C 1.20051 0.68806 0.60693
 C103 C 1.18598 0.69254 0.65757
 C104 C 1.19177 0.71749 0.67194
 C105 C 1.21163 0.73780 0.63479
 C106 C 1.28002 0.77233 0.63535
 C107 C 1.29945 0.79271 0.67347
 C108 C 1.30456 0.81752 0.65996
 C109 C 1.28984 0.82179 0.60911
 C110 C 1.27041 0.80143 0.57108
 H111 H 1.24359 0.78545 0.36059
 H112 H 1.27902 0.82022 0.29410
 H113 H 1.33190 0.80486 0.40931
 H114 H 1.29641 0.76986 0.47508
 H115 H 1.19577 0.74149 0.47440
 H116 H 1.15998 0.70738 0.40703
 H117 H 1.24770 0.72489 0.36009
 H118 H 1.23139 0.70460 0.53060
 H119 H 1.19631 0.66887 0.59542
 H120 H 1.18071 0.72126 0.71104
 H121 H 1.21557 0.75693 0.64550
 H122 H 1.27654 0.75330 0.64552
 H123 H 1.31065 0.78911 0.71274
 H124 H 1.29350 0.84086 0.59830
 H125 H 1.25923 0.80503 0.53183
 H126 H 1.21186 0.69098 0.29215
 C127 C 0.75461 0.50894 0.53867
 C128 C 0.75467 0.50902 0.46420
 C129 C 0.77637 0.51088 0.42204
 C130 C 0.73322 0.50765 0.42144
 C131 C 0.73471 0.51071 0.58077
 C132 C 0.77466 0.50750 0.58138
 C133 C 0.80122 0.53093 0.43423
 C134 C 0.82163 0.53199 0.39624
 C135 C 0.81738 0.51320 0.34514
 C136 C 0.79260 0.49355 0.33135
 C137 C 0.77217 0.49246 0.36938
 C138 C 0.73789 0.52635 0.36890
 C139 C 0.71774 0.52595 0.33084
 C140 C 0.69275 0.50673 0.34446
 C141 C 0.68801 0.48763 0.39532
 C142 C 0.70815 0.48799 0.43335
 C143 C 0.72032 0.49211 0.63311
 C144 C 0.70082 0.49304 0.67073
 C145 C 0.69569 0.51270 0.65686
 C146 C 0.71045 0.53169 0.60613
 C147 C 0.72996 0.53078 0.56858
 C148 C 0.78009 0.48789 0.56926
 C149 C 0.79995 0.48754 0.60687
 C150 C 0.81439 0.50661 0.65760
 C151 C 0.80854 0.52575 0.67152
 C152 C 0.78871 0.52612 0.63384
 H153 H 0.80480 0.54559 0.47362
 H154 H 0.84072 0.54733 0.40713
 H155 H 0.78911 0.47894 0.29183
 H156 H 0.75313 0.47696 0.35890
 H157 H 0.75708 0.54159 0.35868
 H158 H 0.72162 0.54081 0.29156
 H159 H 0.70419 0.47314 0.47269
 H160 H 0.72382 0.47660 0.64355
 H161 H 0.68958 0.47825 0.70992
 H162 H 0.70678 0.54707 0.59504
 H163 H 0.74117 0.54556 0.52942
 H164 H 0.76918 0.47310 0.52996
 H165 H 0.80419 0.47256 0.59570
 H166 H 0.81953 0.54061 0.71066
 H167 H 0.78474 0.54131 0.64420
 H168 H 0.66875 0.47263 0.40611
 C169 C 0.49155 0.24546 0.54074
 C170 C 0.49142 0.24551 0.46627
 C171 C 0.48961 0.26542 0.42400
 C172 C 0.49268 0.22543 0.42361
 C173 C 0.48973 0.22372 0.58296
 C174 C 0.49308 0.26693 0.58331
 C175 C 0.46961 0.27026 0.43622
 C176 C 0.46858 0.28964 0.39799
 C177 C 0.48735 0.30417 0.34662
 C178 C 0.50696 0.29900 0.33283
 C179 C 0.50802 0.27964 0.37110
 C180 C 0.47392 0.21148 0.37127
 C181 C 0.47423 0.19175 0.33329
 C182 C 0.49341 0.18592 0.34679
 C183 C 0.51258 0.20021 0.39745
 C184 C 0.51231 0.21997 0.43540
 C185 C 0.50835 0.22782 0.63515
 C186 C 0.50738 0.20734 0.67286
 C187 C 0.48764 0.18257 0.65923
 C188 C 0.46863 0.17844 0.60864
 C189 C 0.46959 0.19892 0.57101
 C190 C 0.51273 0.29197 0.57092
 C191 C 0.51313 0.31217 0.60826
 C192 C 0.49406 0.30753 0.65898
 C193 C 0.47489 0.28254 0.67321
 C194 C 0.47447 0.26234 0.63581
 H195 H 0.45496 0.25917 0.47579
 H196 H 0.45327 0.29341 0.40887
 H197 H 0.52155 0.31011 0.29310
 H198 H 0.52349 0.27607 0.36060
 H199 H 0.45870 0.21548 0.36116
 H200 H 0.45932 0.18082 0.29418
 H201 H 0.52721 0.23081 0.47458
 H202 H 0.52392 0.24683 0.64542
 H203 H 0.52218 0.21082 0.71196
 H204 H 0.45319 0.15940 0.59775
 H205 H 0.45479 0.19543 0.53197
 H206 H 0.52752 0.29586 0.53159
 H207 H 0.52813 0.33139 0.59685
 H208 H 0.46003 0.27865 0.71235
 H209 H 0.45924 0.24317 0.64637
 H210 H 0.52755 0.19590 0.40815
 C211 C 0.75480 0.24625 0.54026
 C212 C 0.75474 0.24616 0.46579
 C213 C 0.73485 0.22444 0.42370
 C214 C 0.77480 0.26759 0.42300
 C215 C 0.77652 0.26616 0.58237
 C216 C 0.73334 0.22621 0.58298
 C217 C 0.73009 0.19962 0.43616
 C218 C 0.71067 0.17918 0.39834
 C219 C 0.69601 0.18337 0.34715
 C220 C 0.70111 0.20812 0.33307
 C221 C 0.72053 0.22858 0.37092
 C222 C 0.78880 0.26292 0.37070
 C223 C 0.80856 0.28306 0.33273
 C224 C 0.81436 0.30804 0.34618
 C225 C 0.80002 0.31278 0.39677
 C226 C 0.78023 0.29265 0.43471
 C227 C 0.77235 0.28053 0.63455
 C228 C 0.79281 0.30001 0.67227
 C229 C 0.81761 0.30514 0.65865
 C230 C 0.82180 0.29041 0.60805
 C231 C 0.80135 0.27092 0.57041
 C232 C 0.70827 0.22076 0.57069
 C233 C 0.68810 0.20093 0.60838
 C234 C 0.69281 0.18656 0.65931
 C235 C 0.71781 0.19240 0.67340
 C236 C 0.73799 0.21220 0.63567
 H237 H 0.74126 0.19609 0.47564
 H238 H 0.70694 0.16011 0.40945
 H239 H 0.68991 0.21157 0.29348
 H240 H 0.72403 0.24760 0.36025
 H241 H 0.78483 0.24374 0.36064
 H242 H 0.81953 0.27918 0.29366
 H243 H 0.76936 0.29661 0.47386
 H244 H 0.75332 0.27702 0.64482
 H245 H 0.78928 0.31123 0.71136
 H246 H 0.84087 0.29408 0.59716
 H247 H 0.80489 0.25972 0.53138
 H248 H 0.70433 0.23164 0.53121
 H249 H 0.66884 0.19662 0.59722
 H250 H 0.72166 0.18141 0.71272
 H251 H 0.75718 0.21619 0.64617
 H252 H 0.80430 0.33203 0.40743
 N253 N 0.97377 0.52656 0.07544
 N254 N 0.95467 0.53077 0.08464
 N255 N 1.02729 0.53828 0.12645
 N256 N 1.04639 0.55099 0.17189
 N257 N 1.02722 0.55331 0.07498
 N258 N 1.04629 0.57667 0.08403
 N259 N 0.97387 0.51156 0.12694
 N260 N 0.95484 0.50515 0.17257
 C261 C 0.94300 0.51726 0.14548
 C262 C 1.05812 0.57493 0.14471
 N263 N 1.02727 0.47547 0.07954
 N264 N 1.04678 0.47187 0.08886
 N265 N 0.97386 0.46424 0.12974
 N266 N 0.95444 0.45216 0.17455
 N267 N 0.97377 0.44870 0.08006
 N268 N 0.95427 0.42561 0.08973
 N269 N 1.02735 0.49100 0.12923
 N270 N 1.04690 0.49838 0.17371
 Mn271 Mn 1.00060 0.50127 0.12897
 C272 C 1.05886 0.48627 0.14791
 C273 C 0.94238 0.42805 0.14900
 N274 N 1.02702 0.55249 -0.08214
 N275 N 1.04655 0.57557 -0.09158
 N276 N 0.97346 0.51020 -0.13139
 N277 N 0.95389 0.50277 -0.17580
 N278 N 0.97352 0.52572 -0.08169
 N279 N 0.95398 0.52927 -0.09095
 N280 N 1.02695 0.53697 -0.13185
 N281 N 1.04644 0.54907 -0.17647
 Mn282 Mn 1.00038 0.53979 -0.00341
 C283 C 1.05850 0.57316 -0.15075
 C284 C 0.94190 0.51485 -0.14998
 N285 N 0.97356 0.44788 -0.07707
 N286 N 0.95443 0.42454 -0.08585
 N287 N 1.02692 0.48963 -0.12907
 N288 N 1.04593 0.49600 -0.17475
 N289 N 1.02701 0.47462 -0.07758
 N290 N 1.04609 0.47037 -0.08683
 N291 N 0.97349 0.46289 -0.12859
 N292 N 0.95431 0.45018 -0.17382
 Mn293 Mn 1.00040 0.46139 0.00129
 Mn294 Mn 1.00021 0.49993 -0.13112
 Cl295 Cl 1.00040 0.50059 -0.00107
 C296 C 0.94256 0.42627 -0.14644
 C297 C 1.05776 0.48387 -0.14768
 N298 N 0.47404 0.44701 0.07330
 N299 N 0.46983 0.42370 0.08307
 N300 N 0.46227 0.48877 0.12319
 N301 N 0.44955 0.49525 0.16811
 N302 N 0.44724 0.47362 0.07196
 N303 N 0.42389 0.46939 0.08063
 N304 N 0.48905 0.46215 0.12455
 N305 N 0.49545 0.44957 0.17058
 C306 C 0.48334 0.42560 0.14399
 C307 C 0.42562 0.48303 0.14086
 N308 N 0.52513 0.55163 0.07541
 N309 N 0.52943 0.57492 0.08575
 N310 N 0.53638 0.50952 0.12653
 N311 N 0.54849 0.50225 0.17162
 N312 N 0.55191 0.52498 0.07660
 N313 N 0.57503 0.52864 0.08638
 N314 N 0.50961 0.53617 0.12535
 N315 N 0.50292 0.54852 0.17103
 Mn316 Mn 0.49932 0.49916 0.12578
 C317 C 0.51540 0.57269 0.14558
 C318 C 0.57261 0.51435 0.14597
 N319 N 0.44805 0.47415 -0.08518
 N320 N 0.42495 0.47056 -0.09481
 N321 N 0.49043 0.46298 -0.13375
 N322 N 0.49788 0.45085 -0.17777
 N323 N 0.47489 0.44752 -0.08383
 N324 N 0.47137 0.42444 -0.09253
 N325 N 0.46358 0.48958 -0.13514
 N326 N 0.45148 0.49691 -0.18011
 Mn327 Mn 0.46078 0.46030 -0.00598
 C328 C 0.42737 0.48486 -0.15435
 C329 C 0.48581 0.42679 -0.15146
 N330 N 0.55271 0.52556 -0.08053
 N331 N 0.57607 0.52982 -0.08920
 N332 N 0.51083 0.53696 -0.13301
 N333 N 0.50358 0.54927 -0.17739
 N334 N 0.52582 0.55212 -0.08175
 N335 N 0.52917 0.57518 -0.08989
 N336 N 0.53770 0.51041 -0.13177
 N337 N 0.55044 0.50396 -0.17670
 Mn338 Mn 0.53917 0.53885 -0.00256
 Mn339 Mn 0.50064 0.49998 -0.13431
 Cl340 Cl 0.49998 0.49957 -0.00425
 C341 C 0.57437 0.51620 -0.14944
 C342 C 0.51521 0.57312 -0.14993
 N343 N 0.44783 -0.02687 0.08285
 N344 N 0.42471 -0.04634 0.09235
 N345 N 0.49014 0.02661 0.13232
 N346 N 0.49749 0.04607 0.17682
 N347 N 0.47464 0.02661 0.08232
 N348 N 0.47103 0.04610 0.09145
 N349 N 0.46333 -0.02682 0.13291
 N350 N 0.45119 -0.04624 0.17782
 C351 C 0.42709 -0.05825 0.15191
 C352 C 0.48540 0.05806 0.15072
 N353 N 0.55250 0.02651 0.07962
 N354 N 0.57584 0.04562 0.08873
 N355 N 0.51060 -0.02686 0.13117
 N356 N 0.50339 -0.04642 0.17549
 N357 N 0.52565 -0.02696 0.08008
 N358 N 0.52909 -0.04661 0.08829
 N359 N 0.53743 0.02654 0.13072
 N360 N 0.55010 0.04567 0.17599
 Mn361 Mn 0.50038 -0.00013 0.13265
 C362 C 0.57405 0.05743 0.14909
 C363 C 0.51510 -0.05856 0.14818
 N364 N 0.47393 0.02650 -0.07482
 N365 N 0.46980 0.04566 -0.08412
 N366 N 0.46223 -0.02696 -0.12545
 N367 N 0.44955 -0.04610 -0.17070
 N368 N 0.44717 -0.02692 -0.07432
 N369 N 0.42382 -0.04604 -0.08339
 N370 N 0.48898 0.02646 -0.12600
 N371 N 0.49550 0.04561 -0.17152
 Mn372 Mn 0.46061 -0.00017 0.00403
 C373 C 0.48340 0.05744 -0.14468
 C374 C 0.42560 -0.05786 -0.14376
 N375 N 0.52509 -0.02694 -0.07706
 N376 N 0.52930 -0.04600 -0.08714
 N377 N 0.53634 0.02647 -0.12760
 N378 N 0.54848 0.04598 -0.17223
 N379 N 0.55184 0.02650 -0.07751
 N380 N 0.57494 0.04603 -0.08672
 N381 N 0.50961 -0.02698 -0.12718
 N382 N 0.50286 -0.04608 -0.17275
 Mn383 Mn 0.53904 -0.00022 0.00127
 Mn384 Mn 0.49929 -0.00026 -0.12746
 Cl385 Cl 0.49983 -0.00020 0.00260
 C386 C 0.51528 -0.05781 -0.14704
 C387 C 0.57257 0.05801 -0.14614
 C388 C 1.12600 0.49197 0.24341
 C389 C 1.11518 0.50552 0.27326
 C390 C 1.09340 0.50382 0.24184
 C391 C 1.16598 0.49360 0.30647
 C392 C 1.09329 0.47512 0.15015
 C393 C 1.11507 0.47684 0.18166
 C394 C 1.14790 0.49304 0.27730
 C395 C 1.08217 0.48849 0.18022
 H396 H 1.12347 0.51724 0.32113
 H397 H 1.08527 0.51437 0.26605
 H398 H 1.08507 0.46321 0.10262
 H399 H 1.12327 0.46624 0.15820
 C400 C 0.51272 0.63487 0.24620
 C401 C 0.49873 0.61039 0.27552
 C402 C 0.49945 0.59008 0.24246
 C403 C 0.51193 0.67322 0.31120
 C404 C 0.52808 0.61867 0.15019
 C405 C 0.52733 0.63895 0.18335
 C406 C 0.51230 0.65580 0.28120
 C407 C 0.51423 0.59405 0.17965
 H408 H 0.48735 0.60702 0.32415
 H409 H 0.48856 0.57132 0.26626
 H410 H 0.53959 0.62226 0.10179
 H411 H 0.53822 0.65783 0.16020
 C412 C 0.36580 -0.12508 0.24888
 C413 C 0.36144 -0.11429 0.18686
 C414 C 0.38144 -0.09261 0.15485
 C415 C 0.32766 -0.16489 0.31293
 C416 C 0.41029 -0.09255 0.24657
 C417 C 0.39027 -0.11423 0.27848
 C418 C 0.34507 -0.14688 0.28328
 C419 C 0.40603 -0.08145 0.18468
 H420 H 0.34256 -0.12253 0.16358
 H421 H 0.37763 -0.08449 0.10712
 H422 H 0.42904 -0.08439 0.27060
 H423 H 0.39384 -0.12240 0.32653
 C424 C 0.87778 0.51457 0.24391
 C425 C 0.88822 0.52880 0.18027
 C426 C 0.90939 0.52956 0.14780
 C427 C 0.83852 0.51377 0.30825
 C428 C 0.90961 0.50170 0.24235
 C429 C 0.88846 0.50096 0.27471
 C430 C 0.85635 0.51416 0.27837
 C431 C 0.92035 0.51610 0.17877
 H432 H 0.88010 0.53940 0.15600
 H433 H 0.91725 0.54078 0.09876
 H434 H 0.91763 0.49111 0.26731
 H435 H 0.88053 0.48989 0.32396
 C436 C 0.48600 0.36315 0.24411
 C437 C 0.47177 0.35932 0.18041
 C438 C 0.47102 0.37969 0.14738
 C439 C 0.48679 0.32473 0.30935
 C440 C 0.49888 0.40785 0.24154
 C441 C 0.49960 0.38746 0.27444
 C442 C 0.48640 0.34215 0.27909
 C443 C 0.48448 0.40413 0.17787
 H444 H 0.46117 0.34057 0.15649
 H445 H 0.45982 0.37630 0.09830
 H446 H 0.50947 0.42647 0.26613
 H447 H 0.51067 0.39064 0.32374
 C448 C 0.63675 0.12284 0.24664
 C449 C 0.61248 0.11225 0.27727
 C450 C 0.59200 0.09104 0.24520
 C451 C 0.67536 0.16220 0.31050
 C452 C 0.62001 0.09101 0.15126
 C453 C 0.64047 0.11224 0.18345
 C454 C 0.65785 0.14433 0.28084
 C455 C 0.59560 0.08015 0.18207
 H456 H 0.60940 0.12031 0.32618
 H457 H 0.57341 0.08310 0.27002
 H458 H 0.62331 0.08304 0.10258
 H459 H 0.65918 0.12029 0.15931
 C460 C 0.48640 0.12304 -0.24245
 C461 C 0.47211 0.11243 -0.17906
 C462 C 0.47126 0.09115 -0.14684
 C463 C 0.48720 0.16249 -0.30627
 C464 C 0.49914 0.09111 -0.24114
 C465 C 0.49997 0.11239 -0.27326
 C466 C 0.48685 0.14458 -0.27667
 C467 C 0.48467 0.08021 -0.17781
 H468 H 0.46153 0.12053 -0.15479
 H469 H 0.46000 0.08317 -0.09799
 H470 H 0.50970 0.08311 -0.26608
 H471 H 0.51108 0.12044 -0.32233
 C472 C 0.63726 0.51363 -0.24565
 C473 C 0.64087 0.52795 -0.18251
 C474 C 0.62034 0.52866 -0.15076
 C475 C 0.67603 0.51306 -0.30883
 C476 C 0.59249 0.50057 -0.24502
 C477 C 0.61303 0.49988 -0.27665
 C478 C 0.65844 0.51332 -0.27945
 C479 C 0.59598 0.51507 -0.18196
 H480 H 0.65955 0.53866 -0.15809
 H481 H 0.62356 0.53995 -0.10212
 H482 H 0.57393 0.48987 -0.27013
 H483 H 0.61003 0.48874 -0.32553
 C484 C 0.87704 0.36347 -0.24335
 C485 C 0.88770 0.35984 -0.17987
 C486 C 0.90896 0.38034 -0.14789
 C487 C 0.83766 0.32477 -0.30689
 C488 C 0.90885 0.40820 -0.24263
 C489 C 0.88760 0.38769 -0.27449
 C490 C 0.85554 0.34233 -0.27736
 C491 C 0.91980 0.40469 -0.17921
 H492 H 0.87968 0.34116 -0.15534
 H493 H 0.91698 0.37710 -0.09897
 H494 H 0.91677 0.42675 -0.26784
 H495 H 0.87950 0.39071 -0.32364
 C496 C 0.51228 -0.12306 -0.24608
 C497 C 0.52685 -0.11246 -0.18313
 C498 C 0.52770 -0.09129 -0.15054
 C499 C 0.51148 -0.16240 -0.30988
 C500 C 0.49925 -0.09135 -0.24358
 C501 C 0.49843 -0.11252 -0.27609
 C502 C 0.51182 -0.14453 -0.28047
 C503 C 0.51399 -0.08047 -0.18066
 H504 H 0.53765 -0.12046 -0.15944
 H505 H 0.53918 -0.08333 -0.10203
 H506 H 0.48846 -0.08344 -0.26788
 H507 H 0.48709 -0.12058 -0.32481
 C508 C 0.36621 0.49081 -0.25093
 C509 C 0.36185 0.47563 -0.18902
 C510 C 0.38180 0.47380 -0.15717
 C511 C 0.32812 0.49276 -0.31451
 C512 C 0.41064 0.50251 -0.24887
 C513 C 0.39066 0.50431 -0.28062
 C514 C 0.34551 0.49203 -0.28511
 C515 C 0.40636 0.48713 -0.18706
 H516 H 0.34299 0.46507 -0.16567
 H517 H 0.37798 0.46186 -0.10950
 H518 H 0.42937 0.51304 -0.27294
 H519 H 0.39424 0.51609 -0.32859
 C520 C 1.12572 0.63445 -0.24615
 C521 C 1.11477 0.61007 -0.27613
 C522 C 1.09295 0.59004 -0.24478
 C523 C 1.16581 0.67271 -0.30887
 C524 C 1.09307 0.61870 -0.15294
 C525 C 1.11488 0.63870 -0.18437
 C526 C 1.14768 0.65522 -0.27990
 C527 C 1.08182 0.59420 -0.18310
 H528 H 1.12298 0.60658 -0.32402
 H529 H 1.08472 0.57136 -0.26906
 H530 H 1.08493 0.62244 -0.10536
 H531 H 1.12318 0.65750 -0.16080
 C532 C 0.87461 0.50888 -0.24530
 C533 C 0.88548 0.49536 -0.27509
 C534 C 0.90731 0.49715 -0.24373
 C535 C 0.83454 0.50702 -0.30842
 C536 C 0.90738 0.52588 -0.15220
 C537 C 0.88555 0.52406 -0.18365
 C538 C 0.85266 0.50770 -0.27918
 C539 C 0.91855 0.51255 -0.18222
 H540 H 0.87719 0.48359 -0.32288
 H541 H 0.91547 0.48663 -0.26790
 H542 H 0.91561 0.53784 -0.10475
 H543 H 0.87732 0.53464 -0.16024
 C544 C 0.49183 0.36549 -0.24517
 C545 C 0.47663 0.36124 -0.18356
 C546 C 0.47480 0.38125 -0.15263
 C547 C 0.49368 0.32727 -0.30742
 C548 C 0.50354 0.40990 -0.24460
 C549 C 0.50535 0.38986 -0.27544
 C550 C 0.49301 0.34472 -0.27856
 C551 C 0.48813 0.40574 -0.18313
 H552 H 0.46605 0.34244 -0.15979
 H553 H 0.46283 0.37752 -0.10521
 H554 H 0.51407 0.42857 -0.26913
 H555 H 0.51713 0.39335 -0.32320
 C556 C 0.63384 0.12524 -0.24158
 C557 C 0.63813 0.11439 -0.17959
 C558 C 0.61813 0.09257 -0.14811
 C559 C 0.67199 0.16530 -0.30470
 C560 C 0.58941 0.09248 -0.24031
 C561 C 0.60943 0.11430 -0.27170
 C562 C 0.65458 0.14718 -0.27546
 C563 C 0.59361 0.08134 -0.17844
 H564 H 0.65696 0.12268 -0.15593
 H565 H 0.62189 0.08442 -0.10038
 H566 H 0.57071 0.08427 -0.26472
 H567 H 0.60591 0.12251 -0.31975
 C568 C 1.12281 0.48634 -0.24654
 C569 C 1.11239 0.47213 -0.18284
 C570 C 1.09128 0.47145 -0.15021
 C571 C 1.16190 0.48692 -0.31134
 C572 C 1.09109 0.49935 -0.24471
 C573 C 1.11217 0.50001 -0.27722
 C574 C 1.14416 0.48663 -0.28122
 C575 C 1.08037 0.48496 -0.18108
 H576 H 1.12048 0.46148 -0.15866
 H577 H 1.08344 0.46025 -0.10114
 H578 H 1.08310 0.50998 -0.26959
 H579 H 1.12010 0.51106 -0.32652
 C580 C 0.50870 0.63438 -0.24310
 C581 C 0.52363 0.63849 -0.18080
 C582 C 0.52565 0.61850 -0.15002
 C583 C 0.50643 0.67245 -0.30557
 C584 C 0.49762 0.59016 -0.24358
 C585 C 0.49563 0.61017 -0.27424
 C586 C 0.50733 0.65511 -0.27643
 C587 C 0.51276 0.59418 -0.18141
 H588 H 0.53387 0.65718 -0.15636
 H589 H 0.53740 0.62211 -0.10203
 H590 H 0.48743 0.57161 -0.26880
 H591 H 0.48405 0.60679 -0.32255
 C592 C 0.36283 -0.12323 -0.24127
 C593 C 0.35916 -0.11266 -0.17796
 C594 C 0.37964 -0.09145 -0.14578
 C595 C 0.32416 -0.16250 -0.30527
 C596 C 0.40758 -0.09144 -0.23997
 C597 C 0.38709 -0.11263 -0.27204
 C598 C 0.34170 -0.14468 -0.27552
 C599 C 0.40403 -0.08057 -0.17673
 H600 H 0.34046 -0.12071 -0.15372
 H601 H 0.37637 -0.08349 -0.09701
 H602 H 0.42616 -0.08348 -0.26490
 H603 H 0.39013 -0.12067 -0.32105
 C604 C 0.50886 -0.12611 0.24206
 C605 C 0.49566 -0.11505 0.27275
 C606 C 0.49757 -0.09314 0.24182
 C607 C 0.50670 -0.16627 0.30526
 C608 C 0.52576 -0.09335 0.14883
 C609 C 0.52384 -0.11528 0.17990
 C610 C 0.50757 -0.14811 0.27574
 C611 C 0.51275 -0.08200 0.17981
 H612 H 0.48406 -0.12325 0.32093
 H613 H 0.48728 -0.08484 0.26672
 H614 H 0.53754 -0.08520 0.10098
 H615 H 0.53417 -0.12367 0.15581
 C616 C 0.36283 0.48576 0.23718
 C617 C 0.35918 0.47145 0.17400
 C618 C 0.37967 0.47068 0.14220
 C619 C 0.32418 0.48649 0.30056
 C620 C 0.40757 0.49870 0.23652
 C621 C 0.38707 0.49944 0.26820
 C622 C 0.34170 0.48614 0.27106
 C623 C 0.40404 0.48421 0.17340
 H624 H 0.34049 0.46079 0.14957
 H625 H 0.37642 0.45941 0.09352
 H626 H 0.42613 0.50934 0.26164
 H627 H 0.39009 0.51057 0.31712
 C628 C 1.12325 0.63767 0.24316
 C629 C 1.11273 0.61338 0.27381
 C630 C 1.09162 0.59290 0.24141
 C631 C 1.16240 0.67623 0.30790
 C632 C 1.09156 0.62092 0.14708
 C633 C 1.11269 0.64140 0.17961
 C634 C 1.14463 0.65876 0.27777
 C635 C 1.08076 0.59650 0.17793
 H636 H 1.12076 0.61030 0.32300
 H637 H 1.08373 0.57430 0.26627
 H638 H 1.08360 0.62422 0.09813
 H639 H 1.12070 0.66013 0.15546
 C640 C 0.49114 0.12496 0.24664
 C641 C 0.47597 0.11418 0.18477
 C642 C 0.47422 0.09247 0.15308
 C643 C 0.49296 0.16478 0.31037
 C644 C 0.50299 0.09239 0.24481
 C645 C 0.50471 0.11408 0.27639
 C646 C 0.49227 0.14677 0.28080
 C647 C 0.48761 0.08130 0.18309
 H648 H 0.46535 0.12243 0.16139
 H649 H 0.46227 0.08436 0.10547
 H650 H 0.51356 0.08422 0.26898
 H651 H 0.51648 0.12226 0.32434
 C652 C 0.63385 0.50879 0.24354
 C653 C 0.60939 0.49526 0.27310
 C654 C 0.58939 0.49693 0.24102
 C655 C 0.67195 0.50708 0.30789
 C656 C 0.61823 0.52556 0.14920
 C657 C 0.63821 0.52387 0.18139
 C658 C 0.65457 0.50771 0.27810
 C659 C 0.59365 0.51221 0.17898
 H660 H 0.60582 0.48357 0.32126
 H661 H 0.57064 0.48639 0.26502
 H662 H 0.62204 0.53743 0.10136
 H663 H 0.65708 0.53446 0.15814
 C664 C 0.87543 0.36689 0.24583
 C665 C 0.88638 0.39134 0.27530
 C666 C 0.90811 0.41132 0.24346
 C667 C 0.83554 0.32882 0.30979
 C668 C 0.90789 0.38248 0.15205
 C669 C 0.88616 0.36252 0.18400
 C670 C 0.85358 0.34619 0.28018
 C671 C 0.91914 0.40704 0.18175
 H672 H 0.87825 0.39492 0.32322
 H673 H 0.91634 0.43005 0.26738
 H674 H 0.91596 0.37866 0.10447
 H675 H 0.87785 0.34366 0.16083
   
