data_POSCAR
  _audit_creation_date              2014-09-24
  _audit_creation_method            'ToBaCCo'
  _symmetry_space_group_name_H-M    'P1'
  _symmetry_Int_Tables_number       1
  _symmetry_cell_setting            triclinic
  loop_
  _symmetry_equiv_pos_as_xyz
 x,y,z
_cell_length_a 54.7009
_cell_length_b 54.8566
_cell_length_c 54.9937
_cell_angle_alpha 90.795000
_cell_angle_beta 89.752900
_cell_angle_gamma 90.049300
loop_
  _atom_site_label
  _atom_site_type_symbol
  _atom_site_fract_x
  _atom_site_fract_y
  _atom_site_fract_z
C1 C 0.21237 0.51465 1.03142
 H2 H 0.21204 0.52923 1.01838
 C3 C 0.19638 0.51514 1.05121
 H4 H 0.18353 0.53007 1.05240
 C5 C 0.22869 0.47690 1.04378
 H6 H 0.24126 0.46197 1.04068
 C7 C 0.21287 0.47652 1.06383
 H8 H 0.21444 0.46148 1.07621
 N9 N 0.22817 0.49583 1.02814
 C10 C 0.28026 0.53142 0.98042
 H11 H 0.27801 0.52072 0.96390
 C12 C 0.29666 0.55094 0.98093
 H13 H 0.30697 0.55539 0.96472
 C14 C 0.27053 0.53794 1.02207
 H15 H 0.26078 0.53239 1.03821
 C16 C 0.28718 0.55720 1.02353
 H17 H 0.28994 0.56666 1.04072
 Zn18 Zn 0.24794 0.49697 0.99997
 N19 N 0.26746 0.52544 1.00075
 C20 C 0.22266 0.51765 0.96026
 N21 N 0.22638 0.49699 0.97310
 C22 C 0.21317 0.47647 0.96848
 C23 C 0.19619 0.47583 0.94962
 C24 C 0.20540 0.51803 0.94163
 C25 C 0.28671 0.46964 1.01679
 C26 C 0.30492 0.45186 1.01663
 C27 C 0.28806 0.43538 0.97933
 C28 C 0.27038 0.45377 0.97998
 N29 N 0.26992 0.47033 0.99865
 H30 H 0.23246 0.53414 0.96496
 H31 H 0.21583 0.46052 0.97952
 H32 H 0.18655 0.45897 0.94589
 H33 H 0.20225 0.53496 0.93229
 H34 H 0.28617 0.48324 1.03122
 H35 H 0.31829 0.45169 1.03110
 H36 H 0.28845 0.42249 0.96424
 H37 H 0.25751 0.45507 0.96525
 C38 C 0.30047 0.56377 1.00279
 C39 C 0.19622 0.49586 1.06798
 C40 C 0.30576 0.43451 0.99768
 C41 C 0.19189 0.49688 0.93595
 C42 C 0.79033 0.52205 -0.02491
 H43 H 0.79312 0.53402 -0.00937
 C44 C 0.80656 0.52267 -0.04456
 H45 H 0.82192 0.53511 -0.04388
 C46 C 0.76764 0.49033 -0.04388
 H47 H 0.75267 0.47750 -0.04341
 C48 C 0.78330 0.49045 -0.06398
 H49 H 0.77987 0.47795 -0.07898
 N50 N 0.77140 0.50597 -0.02486
 C51 C 0.71261 0.53148 0.02242
 H52 H 0.71055 0.51578 0.03395
 C53 C 0.69565 0.55044 0.02382
 H54 H 0.68066 0.54939 0.03670
 C55 C 0.73430 0.55157 -0.00890
 H56 H 0.74906 0.55167 -0.02200
 C57 C 0.71791 0.57108 -0.00789
 H58 H 0.72019 0.58609 -0.02028
 Zn59 Zn 0.75158 0.50440 0.00337
 N60 N 0.73134 0.53226 0.00611
 C61 C 0.76950 0.51703 0.05038
 N62 N 0.77255 0.50227 0.03051
 C63 C 0.79144 0.48623 0.02895
 C64 C 0.80834 0.48466 0.04780
 C65 C 0.78583 0.51585 0.06981
 C66 C 0.71159 0.47777 -0.01389
 C67 C 0.69485 0.45860 -0.01515
 C68 C 0.71825 0.43753 0.01523
 C69 C 0.73443 0.45725 0.01610
 N70 N 0.73086 0.47681 0.00160
 H71 H 0.75457 0.52989 0.05113
 H72 H 0.79353 0.47485 0.01285
 H73 H 0.82332 0.47184 0.04624
 H74 H 0.78335 0.52789 0.08539
 H75 H 0.70909 0.49364 -0.02507
 H76 H 0.67958 0.45968 -0.02756
 H77 H 0.72114 0.42221 0.02709
 H78 H 0.74965 0.45698 0.02854
 C79 C 0.69809 0.57046 0.00839
 C80 C 0.80327 0.50659 -0.06440
 C81 C 0.69805 0.43818 -0.00041
 C82 C 0.80565 0.49965 0.06853
 C83 C -0.02318 0.28284 0.47319
 H84 H -0.03710 0.28507 0.48708
 C85 C -0.02335 0.29770 0.45279
 H86 H -0.03741 0.31148 0.45182
 C87 C 0.01296 0.26334 0.45944
 H88 H 0.02725 0.25010 0.46222
 C89 C 0.01369 0.27796 0.43887
 H90 H 0.02820 0.27472 0.42582
 N91 N -0.00526 0.26604 0.47611
 C92 C -0.03270 0.21152 0.52617
 H93 H -0.01780 0.21145 0.53905
 C94 C -0.05125 0.19413 0.52779
 H95 H -0.05070 0.18079 0.54211
 C96 C -0.05098 0.22837 0.49120
 H97 H -0.05044 0.24124 0.47654
 C98 C -0.07012 0.21154 0.49238
 H99 H -0.08423 0.21164 0.47862
 Zn100 Zn -0.00483 0.24824 0.50533
 N101 N -0.03273 0.22800 0.50793
 C102 C -0.02131 0.27187 0.54883
 N103 N -0.00381 0.27126 0.53117
 C104 C 0.01424 0.28828 0.53046
 C105 C 0.01527 0.30684 0.54801
 C106 C -0.02102 0.29020 0.56674
 C107 C 0.02292 0.20834 0.49003
 C108 C 0.04212 0.19161 0.48998
 C109 C 0.06099 0.21477 0.52256
 C110 C 0.04126 0.23093 0.52217
 N111 N 0.02283 0.22754 0.50593
 H112 H -0.03579 0.25846 0.54876
 H113 H 0.02773 0.28753 0.51602
 H114 H 0.02992 0.32009 0.54718
 H115 H -0.03540 0.29073 0.58032
 H116 H 0.00790 0.20595 0.47748
 H117 H 0.04193 0.17647 0.47714
 H118 H 0.07543 0.21756 0.53572
 H119 H 0.04063 0.24599 0.53501
 C120 C -0.07011 0.19388 0.51059
 C121 C -0.00452 0.29576 0.43519
 C122 C 0.06147 0.19473 0.50641
 C123 C -0.00265 0.30812 0.56636
 C124 C 0.98393 0.71570 0.52896
 H125 H 0.96977 0.71449 0.51532
 C126 C 0.98283 0.70093 0.54937
 H127 H 0.96780 0.68822 0.55122
 C128 C 1.02121 0.73316 0.54248
 H129 H 1.03628 0.74554 0.53951
 C130 C 1.02091 0.71860 0.56314
 H131 H 1.03562 0.72016 0.57618
 N132 N 1.00283 0.73148 0.52596
 C133 C 0.97080 0.78312 0.47571
 H134 H 0.98257 0.78091 0.45998
 C135 C 0.95159 0.79989 0.47529
 H136 H 0.94844 0.81048 0.45913
 C137 C 0.96125 0.77301 0.51646
 H138 H 0.96545 0.76298 0.53267
 C139 C 0.94227 0.78998 0.51700
 H140 H 0.93171 0.79268 0.53352
 Zn141 Zn 1.00296 0.74950 0.49694
 N142 N 0.97510 0.76992 0.49602
 C143 C 0.98484 0.72491 0.45445
 N144 N 1.00319 0.72640 0.47103
 C145 C 1.02182 0.71001 0.47086
 C146 C 1.02264 0.69132 0.45343
 C147 C 0.98498 0.70653 0.43660
 C148 C 1.03126 0.78876 0.51218
 C149 C 1.05011 0.80587 0.51163
 C150 C 1.06765 0.78418 0.47723
 C151 C 1.04826 0.76760 0.47825
 N152 N 1.03061 0.77014 0.49562
 H153 H 0.96973 0.73754 0.45536
 H154 H 1.03594 0.71133 0.48454
 H155 H 1.03770 0.67852 0.45355
 H156 H 0.97002 0.70533 0.42382
 H157 H 1.01686 0.79047 0.52564
 H158 H 1.05030 0.82064 0.52491
 H159 H 1.08141 0.78215 0.46313
 H160 H 1.04714 0.75300 0.46492
 C161 C 0.93737 0.80364 0.49625
 C162 C 1.00151 0.70221 0.56676
 C163 C 1.06855 0.80375 0.49392
 C164 C 1.00398 0.68932 0.43607
 C165 C 0.47075 -0.00849 0.28394
 H166 H 0.48423 -0.02289 0.28451
 C167 C 0.45147 -0.00812 0.30062
 H168 H 0.45042 -0.02223 0.31415
 C169 C 0.45659 0.02796 0.26620
 H170 H 0.45887 0.04220 0.25301
 C171 C 0.43692 0.02899 0.28249
 H172 H 0.42395 0.04381 0.28127
 N173 N 0.47291 0.00930 0.26711
 C174 C 0.51759 -0.02459 0.21046
 H175 H 0.53286 -0.01205 0.21032
 C176 C 0.51716 -0.04437 0.19425
 H177 H 0.53215 -0.04612 0.18147
 C178 C 0.47898 -0.03565 0.22642
 H179 H 0.46404 -0.03204 0.23886
 C180 C 0.47763 -0.05555 0.21035
 H181 H 0.46185 -0.06735 0.21165
 Zn182 Zn 0.50045 0.00751 0.24625
 N183 N 0.49877 -0.02069 0.22620
 C184 C 0.54118 -0.01499 0.26798
 N185 N 0.52840 0.00620 0.26640
 C186 C 0.53386 0.02581 0.28081
 C187 C 0.55319 0.02472 0.29729
 C188 C 0.56025 -0.01705 0.28460
 C189 C 0.48263 0.03615 0.20912
 C190 C 0.48226 0.05468 0.19203
 C191 C 0.52073 0.06939 0.20792
 C192 C 0.52043 0.05046 0.22468
 N193 N 0.50142 0.03445 0.22512
 H194 H 0.53606 -0.03064 0.25700
 H195 H 0.52290 0.04217 0.27978
 H196 H 0.55723 0.04034 0.30884
 H197 H 0.56997 -0.03416 0.28606
 H198 H 0.46796 0.02292 0.20960
 H199 H 0.46702 0.05583 0.17959
 H200 H 0.53614 0.08179 0.20758
 H201 H 0.53561 0.04836 0.23694
 C202 C 0.49688 -0.06033 0.19373
 C203 C 0.43418 0.01079 0.30005
 C204 C 0.50152 0.07158 0.19124
 C205 C 0.56636 0.00297 0.29948
 C206 C 0.52602 -0.02502 0.71094
 H207 H 0.51139 -0.03824 0.70949
 C208 C 0.54501 -0.02522 0.69388
 H209 H 0.54470 -0.03861 0.67924
 C210 C 0.54316 0.00942 0.73098
 H211 H 0.54214 0.02323 0.74511
 C212 C 0.56261 0.00974 0.71448
 H213 H 0.57665 0.02352 0.71657
 N214 N 0.52535 -0.00779 0.72893
 C215 C 0.47850 -0.03535 0.78668
 H216 H 0.46487 -0.02106 0.78740
 C217 C 0.47755 -0.05431 0.80328
 H218 H 0.46283 -0.05471 0.81649
 C219 C 0.51426 -0.05195 0.76851
 H220 H 0.52879 -0.05067 0.75522
 C221 C 0.51406 -0.07125 0.78485
 H222 H 0.52857 -0.08465 0.78399
 Zn223 Zn 0.49748 -0.00697 0.74945
 N224 N 0.49662 -0.03451 0.76972
 C225 C 0.45216 -0.02383 0.73024
 N226 N 0.46975 -0.00635 0.72899
 C227 C 0.46895 0.01125 0.71185
 C228 C 0.44987 0.01178 0.69508
 C229 C 0.43271 -0.02395 0.71388
 C230 C 0.51619 0.02171 0.78722
 C231 C 0.51788 0.04151 0.80331
 C232 C 0.48243 0.05915 0.78429
 C233 C 0.48145 0.03899 0.76850
 N234 N 0.49836 0.02092 0.77007
 H235 H 0.45335 -0.03797 0.74365
 H236 H 0.48344 0.02465 0.71095
 H237 H 0.44993 0.02560 0.68123
 H238 H 0.41883 -0.03795 0.71526
 H239 H 0.52911 0.00686 0.78836
 H240 H 0.53210 0.04168 0.81694
 H241 H 0.46904 0.07353 0.78256
 H242 H 0.46714 0.03781 0.75506
 C243 C 0.49563 -0.07249 0.80268
 C244 C 0.56356 -0.00752 0.69538
 C245 C 0.50090 0.06062 0.80193
 C246 C 0.43147 -0.00608 0.69586
 C247 C 0.28862 0.02279 0.47043
 H248 H 0.29047 0.03442 0.48637
 C249 C 0.30508 0.02495 0.45111
 H250 H 0.31968 0.03823 0.45244
 C251 C 0.26800 -0.00949 0.45007
 H252 H 0.25372 -0.02310 0.44987
 C253 C 0.28398 -0.00787 0.43027
 H254 H 0.28149 -0.02003 0.41481
 N255 N 0.27056 0.00576 0.46960
 C256 C 0.21097 0.02857 0.51731
 H257 H 0.20951 0.01268 0.52867
 C258 C 0.19372 0.04721 0.51943
 H259 H 0.17912 0.04572 0.53269
 C260 C 0.23154 0.04953 0.48584
 H261 H 0.24598 0.05012 0.47242
 C262 C 0.21481 0.06872 0.48753
 H263 H 0.21654 0.08396 0.47533
 Zn264 Zn 0.25031 0.00272 0.49736
 N265 N 0.22934 0.02998 0.50064
 C266 C 0.26835 0.01575 0.54419
 N267 N 0.27097 0.00038 0.52473
 C268 C 0.28925 -0.01637 0.52373
 C269 C 0.30571 -0.01833 0.54292
 C270 C 0.28440 0.01439 0.56382
 C271 C 0.21149 -0.02447 0.47834
 C272 C 0.19490 -0.04376 0.47655
 C273 C 0.21743 -0.06467 0.50767
 C274 C 0.23343 -0.04485 0.50907
 N275 N 0.23023 -0.02529 0.49448
 H276 H 0.25393 0.02918 0.54449
 H277 H 0.29117 -0.02806 0.50783
 H278 H 0.32038 -0.03152 0.54156
 H279 H 0.28185 0.02658 0.57927
 H280 H 0.20921 -0.00858 0.46715
 H281 H 0.17997 -0.04274 0.46374
 H282 H 0.21996 -0.07993 0.51969
 H283 H 0.24812 -0.04499 0.52212
 C284 C 0.19545 0.06754 0.50431
 C285 C 0.30297 0.00941 0.43070
 C286 C 0.19771 -0.06413 0.49144
 C287 C 0.30344 -0.00279 0.56332
 C288 C 0.70892 0.01292 0.52546
 H289 H 0.70860 0.02687 0.51176
 C290 C 0.69179 0.01341 0.54433
 H291 H 0.67820 0.02775 0.54485
 C292 C 0.72640 -0.02329 0.54061
 H293 H 0.73950 -0.03791 0.53882
 C294 C 0.70971 -0.02341 0.55991
 H295 H 0.71073 -0.03779 0.57313
 N296 N 0.72599 -0.00505 0.52410
 C297 C 0.78507 0.02570 0.48112
 H298 H 0.78642 0.01160 0.46723
 C299 C 0.80220 0.04453 0.48185
 H300 H 0.81665 0.04500 0.46834
 C301 C 0.76513 0.04168 0.51623
 H302 H 0.75113 0.04007 0.53003
 C303 C 0.78167 0.06112 0.51739
 H304 H 0.78021 0.07447 0.53202
 Zn305 Zn 0.74783 -0.00409 0.49727
 N306 N 0.76723 0.02441 0.49833
 C307 C 0.72546 0.01581 0.45569
 N308 N 0.72843 -0.00469 0.46896
 C309 C 0.71572 -0.02538 0.46375
 C310 C 0.69940 -0.02611 0.44433
 C311 C 0.70883 0.01609 0.43647
 C312 C 0.78373 -0.03360 0.51768
 C313 C 0.80147 -0.05182 0.51846
 C314 C 0.79175 -0.06271 0.47692
 C315 C 0.77377 -0.04462 0.47715
 N316 N 0.77000 -0.03061 0.49741
 H317 H 0.73526 0.03226 0.46061
 H318 H 0.71811 -0.04129 0.47489
 H319 H 0.68992 -0.04300 0.44033
 H320 H 0.70601 0.03297 0.42695
 H321 H 0.78095 -0.02169 0.53329
 H322 H 0.81159 -0.05419 0.53512
 H323 H 0.79494 -0.07300 0.46028
 H324 H 0.76348 -0.04125 0.46082
 C325 C 0.80075 0.06234 0.50032
 C326 C 0.69211 -0.00484 0.56201
 C327 C 0.80594 -0.06657 0.49780
 C328 C 0.69533 -0.00503 0.43061
 C329 C 0.48394 0.21446 1.02223
 H330 H 0.47053 0.21337 1.00785
 C331 C 0.48289 0.19817 1.04148
 H332 H 0.46827 0.18487 1.04201
 C333 C 0.51939 0.23308 1.03876
 H334 H 0.53390 0.24636 1.03735
 C335 C 0.51908 0.21709 1.05829
 H336 H 0.53346 0.21826 1.07173
 N337 N 0.50194 0.23153 1.02126
 C338 C 0.47680 0.29038 0.97543
 H339 H 0.49233 0.29155 0.96325
 C340 C 0.45832 0.30783 0.97453
 H341 H 0.45954 0.32236 0.96144
 C342 C 0.45673 0.27043 1.00788
 H343 H 0.45650 0.25624 1.02128
 C344 C 0.43761 0.28730 1.00733
 H345 H 0.42273 0.28591 1.02029
 Zn346 Zn 0.50340 0.25157 0.99357
 N347 N 0.47582 0.27228 0.99206
 C348 C 0.48764 0.23208 0.94814
 N349 N 0.50474 0.23072 0.96596
 C350 C 0.52237 0.21327 0.96538
 C351 C 0.52333 0.19627 0.94628
 C352 C 0.48790 0.21540 0.92871
 C353 C 0.53093 0.29007 1.01225
 C354 C 0.54985 0.30709 1.01344
 C355 C 0.56936 0.28649 0.97943
 C356 C 0.54990 0.26997 0.97873
 N357 N 0.53122 0.27203 0.99504
 H358 H 0.47354 0.24584 0.94915
 H359 H 0.53544 0.21233 0.98004
 H360 H 0.53720 0.18221 0.94643
 H361 H 0.47418 0.21677 0.91466
 H362 H 0.51570 0.29142 1.02481
 H363 H 0.54926 0.32140 1.02719
 H364 H 0.58391 0.28489 0.96608
 H365 H 0.54956 0.25582 0.96488
 C366 C 0.43851 0.30648 0.99074
 C367 C 0.50073 0.19923 1.05977
 C368 C 0.56931 0.30550 0.99678
 C369 C 0.50584 0.19710 0.92769
 C370 C 0.47689 0.78361 -0.02942
 H371 H 0.46264 0.78407 -0.01571
 C372 C 0.47594 0.79947 -0.04899
 H373 H 0.46067 0.81190 -0.05044
 C374 C 0.51431 0.76700 -0.04386
 H375 H 0.52950 0.75471 -0.04145
 C376 C 0.51405 0.78252 -0.06380
 H377 H 0.52913 0.78203 -0.07662
 N378 N 0.49592 0.76791 -0.02713
 C379 C 0.46747 0.71345 0.02252
 H380 H 0.48007 0.71563 0.03751
 C381 C 0.44873 0.69625 0.02384
 H382 H 0.44673 0.68586 0.04030
 C383 C 0.45495 0.72475 -0.01691
 H384 H 0.45778 0.73555 -0.03296
 C385 C 0.43631 0.70732 -0.01663
 H386 H 0.42516 0.70492 -0.03268
 Zn387 Zn 0.49683 0.74930 0.00149
 N388 N 0.47002 0.72752 0.00253
 C389 C 0.47770 0.77118 0.04496
 N390 N 0.49591 0.77170 0.02804
 C391 C 0.51344 0.78928 0.02874
 C392 C 0.51339 0.80698 0.04723
 C393 C 0.47703 0.78844 0.06385
 C394 C 0.52682 0.71141 -0.01429
 C395 C 0.54637 0.69512 -0.01393
 C396 C 0.56312 0.71764 0.02021
 C397 C 0.54305 0.73336 0.01939
 N398 N 0.52544 0.73000 0.00226
 H399 H 0.46345 0.75761 0.04374
 H400 H 0.52737 0.78966 0.01472
 H401 H 0.52730 0.82103 0.04717
 H402 H 0.46259 0.78743 0.07732
 H403 H 0.51242 0.70903 -0.02755
 H404 H 0.54710 0.68032 -0.02716
 H405 H 0.57682 0.72027 0.03416
 H406 H 0.54138 0.74790 0.03272
 C407 C 0.43291 0.69273 0.00398
 C408 C 0.49484 0.79926 -0.06636
 C409 C 0.56476 0.69807 0.00357
 C410 C 0.49502 0.80670 0.06516
 C411 C 1.03016 0.47229 0.21419
 H412 H 1.01571 0.45894 0.21213
 C413 C 1.04963 0.47251 0.19768
 H414 H 1.04997 0.45931 0.18287
 C415 C 1.04643 0.50655 0.23526
 H416 H 1.04491 0.52011 0.24959
 C417 C 1.06622 0.50744 0.21919
 H418 H 1.07999 0.52143 0.22170
 N419 N 1.02891 0.48913 0.23253
 C420 C 0.98236 0.46010 0.28972
 H421 H 0.96975 0.47516 0.29197
 C422 C 0.98146 0.44060 0.30572
 H423 H 0.96819 0.44096 0.32037
 C424 C 1.01595 0.44234 0.26873
 H425 H 1.02966 0.44330 0.25459
 C426 C 1.01558 0.42235 0.28419
 H427 H 1.02877 0.40788 0.28139
 Zn428 Zn 1.00081 0.48918 0.25279
 N429 N 0.99947 0.46069 0.27174
 C430 C 0.95455 0.47489 0.23366
 N431 N 0.97326 0.49118 0.23230
 C432 C 0.97358 0.50881 0.21516
 C433 C 0.95466 0.51043 0.19833
 C434 C 0.93509 0.47603 0.21734
 C435 C 1.01932 0.51603 0.29201
 C436 C 1.02030 0.53460 0.30956
 C437 C 0.98460 0.55274 0.29148
 C438 C 0.98436 0.53382 0.27420
 N439 N 1.00162 0.51601 0.27474
 H440 H 0.95484 0.46077 0.24715
 H441 H 0.98880 0.52139 0.21438
 H442 H 0.95526 0.52450 0.18472
 H443 H 0.92050 0.46273 0.21840
 H444 H 1.03264 0.50146 0.29219
 H445 H 1.03472 0.53440 0.32297
 H446 H 0.97043 0.56649 0.29106
 H447 H 0.97013 0.53318 0.26064
 C448 C 0.99834 0.42141 0.30320
 C449 C 1.06790 0.49040 0.19995
 C450 C 1.00269 0.55323 0.30955
 C451 C 0.93516 0.49383 0.19923
 C452 C -0.03040 0.48919 0.78600
 H453 H -0.01654 0.47513 0.78582
 C454 C -0.04969 0.48814 0.80262
 H455 H -0.05041 0.47325 0.81531
 C456 C -0.04546 0.52626 0.77034
 H457 H -0.04350 0.54132 0.75804
 C458 C -0.06514 0.52589 0.78662
 H459 H -0.07845 0.54047 0.78626
 N460 N -0.02868 0.50797 0.77022
 C461 C 0.01741 0.47952 0.71174
 H462 H 0.03184 0.49303 0.71221
 C463 C 0.01791 0.46087 0.69427
 H464 H 0.03299 0.45993 0.68147
 C465 C -0.01985 0.46455 0.72788
 H466 H -0.03479 0.46638 0.74068
 C467 C -0.02004 0.44550 0.71072
 H468 H -0.03518 0.43278 0.71050
 Zn469 Zn -0.00091 0.50819 0.74962
 N470 N -0.00126 0.48104 0.72807
 C471 C 0.04052 0.48616 0.77066
 N472 N 0.02677 0.50681 0.77003
 C473 C 0.03107 0.52584 0.78557
 C474 C 0.05017 0.52475 0.80227
 C475 C 0.05941 0.48407 0.78749
 C476 C -0.01932 0.53895 0.71432
 C477 C -0.01988 0.55857 0.69846
 C478 C 0.01874 0.57227 0.71484
 C479 C 0.01854 0.55238 0.73045
 N480 N -0.00044 0.53634 0.73006
 H481 H 0.03633 0.47096 0.75869
 H482 H 0.01939 0.54174 0.78519
 H483 H 0.05334 0.53991 0.81469
 H484 H 0.06992 0.46738 0.78821
 H485 H -0.03386 0.52557 0.71395
 H486 H -0.03492 0.56009 0.68584
 H487 H 0.03391 0.58496 0.71551
 H488 H 0.03378 0.54961 0.74251
 C489 C -0.00107 0.44363 0.69350
 C490 C -0.06741 0.50666 0.80311
 C491 C -0.00066 0.57555 0.69856
 C492 C 0.06432 0.50354 0.80350
 C493 C 0.12063 0.14279 0.50698
 C494 C 0.09602 0.13478 0.50637
 C495 C 0.07691 0.15182 0.50613
 C496 C 0.08181 0.17691 0.50689
 C497 C 0.10614 0.18485 0.50810
 C498 C 0.12534 0.16806 0.50807
 C499 C 0.14052 0.12394 0.50655
 C500 C 0.16559 0.12990 0.50578
 C501 C 0.18336 0.11161 0.50511
 C502 C 0.17663 0.08696 0.50541
 C503 C 0.15175 0.08082 0.50620
 C504 C 0.13373 0.09901 0.50652
 C505 C 0.09058 0.10983 0.50613
 C506 C 0.10902 0.09235 0.50642
 H507 H 0.07174 0.10371 0.50580
 H508 H 0.10383 0.07327 0.50630
 H509 H 0.05811 0.14554 0.50567
 H510 H 0.11035 0.20415 0.50867
 H511 H 0.20247 0.11677 0.50455
 H512 H 0.14639 0.06178 0.50595
 H513 H 0.14367 0.17526 0.50894
 H514 H 0.17189 0.14853 0.50546
 C515 C 0.64348 0.62712 0.00761
 C516 C 0.63658 0.60223 0.00746
 C517 C 0.65449 0.58397 0.00818
 C518 C 0.67940 0.59000 0.00848
 C519 C 0.68628 0.61461 0.00821
 C520 C 0.66860 0.63298 0.00790
 C521 C 0.62369 0.64605 0.00698
 C522 C 0.62843 0.67132 0.00829
 C523 C 0.60930 0.68816 0.00737
 C524 C 0.58505 0.68027 0.00491
 C525 C 0.58011 0.65520 0.00390
 C526 C 0.59911 0.63811 0.00516
 C527 C 0.61188 0.59565 0.00618
 C528 C 0.59358 0.61319 0.00480
 H529 H 0.60662 0.57659 0.00595
 H530 H 0.57475 0.60713 0.00356
 H531 H 0.64906 0.56495 0.00787
 H532 H 0.70543 0.61966 0.00842
 H533 H 0.61350 0.70746 0.00823
 H534 H 0.56134 0.64898 0.00251
 H535 H 0.67498 0.65158 0.00766
 H536 H 0.64671 0.67845 0.01013
 C537 C 0.88271 -0.14014 0.49857
 C538 C 0.88024 -0.16024 0.48232
 C539 C 0.89839 -0.17835 0.48127
 C540 C 0.91844 -0.17726 0.49702
 C541 C 0.92037 -0.15793 0.51377
 C542 C 0.90284 -0.13948 0.51448
 C543 C 0.86345 -0.12074 0.49852
 C544 C 0.86556 -0.09885 0.51200
 C545 C 0.84707 -0.08138 0.51152
 C546 C 0.82573 -0.08529 0.49787
 C547 C 0.82370 -0.10696 0.48402
 C548 C 0.84255 -0.12436 0.48385
 C549 C 0.85946 -0.16238 0.46764
 C550 C 0.84078 -0.14510 0.46878
 H551 H 0.85741 -0.17788 0.45539
 H552 H 0.82489 -0.14779 0.45735
 H553 H 0.89669 -0.19360 0.46863
 H554 H 0.93569 -0.15699 0.52617
 H555 H 0.84977 -0.06455 0.52166
 H556 H 0.80741 -0.11042 0.47338
 H557 H 0.90523 -0.12509 0.52782
 H558 H 0.88154 -0.09464 0.52268
 C559 C 0.36395 0.38172 0.99438
 C560 C 0.33929 0.37410 0.99240
 C561 C 0.32037 0.39143 0.99309
 C562 C 0.32562 0.41625 0.99660
 C563 C 0.34998 0.42367 0.99924
 C564 C 0.36894 0.40671 0.99804
 C565 C 0.38364 0.36275 0.99299
 C566 C 0.40873 0.36862 0.99285
 C567 C 0.42638 0.35030 0.99183
 C568 C 0.41954 0.32568 0.99111
 C569 C 0.39464 0.31958 0.99092
 C570 C 0.37669 0.33790 0.99144
 C571 C 0.33365 0.34926 0.99019
 C572 C 0.35192 0.33153 0.99011
 H573 H 0.31477 0.34339 0.98885
 H574 H 0.34658 0.31253 0.98871
 H575 H 0.30150 0.38558 0.99145
 H576 H 0.35438 0.44277 1.00196
 H577 H 0.44553 0.35537 0.99199
 H578 H 0.38928 0.30055 0.98995
 H579 H 0.38729 0.41354 1.00028
 H580 H 0.41515 0.38720 0.99335
 C581 C 0.87631 0.13632 0.50848
 C582 C 0.86879 0.16100 0.50792
 C583 C 0.88631 0.17976 0.50862
 C584 C 0.91126 0.17430 0.51065
 C585 C 0.91856 0.14990 0.51219
 C586 C 0.90138 0.13113 0.51105
 C587 C 0.85719 0.11681 0.50649
 C588 C 0.86301 0.09184 0.50450
 C589 C 0.84460 0.07436 0.50242
 C590 C 0.81995 0.08123 0.50250
 C591 C 0.81386 0.10600 0.50442
 C592 C 0.83229 0.12384 0.50593
 C593 C 0.84387 0.16677 0.50688
 C594 C 0.82600 0.14860 0.50632
 H595 H 0.83807 0.18566 0.50670
 H596 H 0.80697 0.15402 0.50573
 H597 H 0.88056 0.19865 0.50784
 H598 H 0.93774 0.14530 0.51376
 H599 H 0.84963 0.05529 0.50096
 H600 H 0.79479 0.11138 0.50410
 H601 H 0.90815 0.11274 0.51229
 H602 H 0.88163 0.08541 0.50419
 C603 C 0.35707 0.61808 0.00611
 C604 C 0.33667 0.62129 -0.00928
 C605 C 0.31829 0.60341 -0.01046
 C606 C 0.31943 0.58285 0.00432
 C607 C 0.33897 0.58027 0.02042
 C608 C 0.35767 0.59757 0.02126
 C609 C 0.37694 0.63690 0.00589
 C610 C 0.39921 0.63394 0.01822
 C611 C 0.41724 0.65191 0.01739
 C612 C 0.41352 0.67358 0.00457
 C613 C 0.39140 0.67651 -0.00802
 C614 C 0.37344 0.65817 -0.00792
 C615 C 0.33459 0.64246 -0.02307
 C616 C 0.35231 0.66075 -0.02197
 H617 H 0.31884 0.64510 -0.03462
 H618 H 0.34969 0.67694 -0.03273
 H619 H 0.30290 0.60560 -0.02260
 H620 H 0.33998 0.56454 0.03207
 H621 H 0.43435 0.64852 0.02654
 H622 H 0.38803 0.69307 -0.01796
 H623 H 0.37228 0.59464 0.03400
 H624 H 0.40332 0.61765 0.02816
 C625 C 0.12571 -0.14215 0.49092
 C626 C 0.10088 -0.13509 0.49291
 C627 C 0.08244 -0.15284 0.49394
 C628 C 0.08822 -0.17773 0.49256
 C629 C 0.11272 -0.18474 0.48989
 C630 C 0.13128 -0.16723 0.48916
 C631 C 0.14489 -0.12256 0.49066
 C632 C 0.17017 -0.12757 0.49027
 C633 C 0.18726 -0.10862 0.49043
 C634 C 0.17962 -0.08424 0.49075
 C635 C 0.15453 -0.07904 0.49109
 C636 C 0.13719 -0.09791 0.49134
 C637 C 0.09454 -0.11037 0.49374
 C638 C 0.11228 -0.09219 0.49272
 H639 H 0.07552 -0.10498 0.49509
 H640 H 0.10641 -0.07332 0.49334
 H641 H 0.06347 -0.14729 0.49550
 H642 H 0.11757 -0.20386 0.48876
 H643 H 0.20656 -0.11303 0.49014
 H644 H 0.14849 -0.06022 0.49183
 H645 H 0.14980 -0.17371 0.48718
 H646 H 0.17715 -0.14595 0.49009
 C647 C 0.64548 0.37951 0.99818
 C648 C 0.63767 0.40411 0.99931
 C649 C 0.65492 0.42306 0.99954
 C650 C 0.68003 0.41798 0.99909
 C651 C 0.68779 0.39363 0.99843
 C652 C 0.67079 0.37461 0.99788
 C653 C 0.62638 0.35983 0.99762
 C654 C 0.63209 0.33483 0.99534
 C655 C 0.61358 0.31725 0.99497
 C656 C 0.58897 0.32411 0.99705
 C657 C 0.58309 0.34893 0.99913
 C658 C 0.60149 0.36676 0.99922
 C659 C 0.61272 0.40970 1.00048
 C660 C 0.59504 0.39143 1.00065
 H661 H 0.60676 0.42853 1.00147
 H662 H 0.57597 0.39672 1.00175
 H663 H 0.64879 0.44184 1.00053
 H664 H 0.70711 0.38930 0.99803
 H665 H 0.61853 0.29818 0.99337
 H666 H 0.56407 0.35439 1.00025
 H667 H 0.67785 0.35627 0.99736
 H668 H 0.65067 0.32845 0.99371
 C669 C 0.50180 0.12809 1.13737
 C670 C 0.49514 0.10389 1.13098
 C671 C 0.49507 0.08567 1.14863
 C672 C 0.50175 0.09101 1.17273
 C673 C 0.50864 0.11489 1.17899
 C674 C 0.50864 0.13323 1.16160
 C675 C 0.50144 0.14704 1.11793
 C676 C 0.50723 0.17174 1.12241
 C677 C 0.50682 0.18861 1.10362
 C678 C 0.50064 0.18136 1.07986
 C679 C 0.49469 0.15683 1.07527
 C680 C 0.49494 0.13975 1.09402
 C681 C 0.48872 0.09794 1.10701
 C682 C 0.48874 0.11545 1.08891
 H683 H 0.48369 0.07940 1.10212
 H684 H 0.48372 0.10988 1.07061
 H685 H 0.49014 0.06715 1.14351
 H686 H 0.51374 0.11950 1.19750
 H687 H 0.51114 0.20748 1.10777
 H688 H 0.49022 0.15089 1.05693
 H689 H 0.51406 0.15125 1.16754
 H690 H 0.51204 0.17846 1.14028
 C691 C -0.00099 0.65232 0.62670
 C692 C 0.02137 0.65703 0.61455
 C693 C 0.02222 0.67383 0.59551
 C694 C 0.00098 0.68593 0.58808
 C695 C -0.02103 0.68159 0.60046
 C696 C -0.02205 0.66510 0.61953
 C697 C -0.00133 0.63347 0.64621
 C698 C -0.02271 0.62708 0.65903
 C699 C -0.02231 0.60862 0.67624
 C700 C -0.00061 0.59608 0.68124
 C701 C 0.02092 0.60271 0.66902
 C702 C 0.02071 0.62117 0.65157
 C703 C 0.04264 0.64457 0.62110
 C704 C 0.04231 0.62703 0.63918
 H705 H 0.05977 0.64823 0.61186
 H706 H 0.05920 0.61769 0.64335
 H707 H 0.03928 0.67686 0.58590
 H708 H -0.03759 0.69097 0.59530
 H709 H -0.03909 0.60414 0.68570
 H710 H 0.03775 0.59298 0.67254
 H711 H -0.03956 0.66247 0.62817
 H712 H -0.04000 0.63590 0.65594
 C713 C 0.49579 0.87054 -0.14378
 C714 C 0.48941 0.89475 -0.13716
 C715 C 0.48946 0.91310 -0.15467
 C716 C 0.49561 0.90785 -0.17899
 C717 C 0.50186 0.88383 -0.18556
 C718 C 0.50195 0.86541 -0.16825
 C719 C 0.49567 0.85153 -0.12439
 C720 C 0.50212 0.82697 -0.12887
 C721 C 0.50181 0.81005 -0.11009
 C722 C 0.49496 0.81710 -0.08641
 C723 C 0.48855 0.84149 -0.08178
 C724 C 0.48891 0.85866 -0.10044
 C725 C 0.48303 0.90058 -0.11310
 C726 C 0.48271 0.88292 -0.09516
 H727 H 0.47813 0.91912 -0.10804
 H728 H 0.47760 0.88838 -0.07682
 H729 H 0.48500 0.93165 -0.14924
 H730 H 0.50640 0.87919 -0.20424
 H731 H 0.50670 0.79131 -0.11416
 H732 H 0.48368 0.84724 -0.06345
 H733 H 0.50681 0.84731 -0.17444
 H734 H 0.50749 0.82045 -0.14668
 C735 C 0.99898 0.34563 0.37628
 C736 C 0.97620 0.33919 0.38658
 C737 C 0.97510 0.32254 0.40574
 C738 C 0.99647 0.31169 0.41500
 C739 C 1.01896 0.31761 0.40387
 C740 C 1.02021 0.33427 0.38496
 C741 C 0.99946 0.36443 0.35671
 C742 C 1.02132 0.37327 0.34641
 C743 C 1.02084 0.39141 0.32887
 C744 C 0.99859 0.40116 0.32093
 C745 C 0.97669 0.39216 0.33080
 C746 C 0.97698 0.37418 0.34874
 C747 C 0.95457 0.34940 0.37772
 C748 C 0.95494 0.36635 0.35908
 H749 H 0.93706 0.34429 0.38541
 H750 H 0.93771 0.37379 0.35298
 H751 H 0.95731 0.31759 0.41283
 H752 H 1.03607 0.31047 0.41045
 H753 H 1.03806 0.39828 0.32201
 H754 H 0.95934 0.39928 0.32465
 H755 H 1.03807 0.33817 0.37761
 H756 H 1.03902 0.36684 0.35197
 C757 C 0.49327 0.88180 0.14104
 C758 C 0.51610 0.89030 0.14960
 C759 C 0.51717 0.90916 0.16709
 C760 C 0.49570 0.91993 0.17671
 C761 C 0.47305 0.91068 0.16856
 C762 C 0.47184 0.89206 0.15104
 C763 C 0.49297 0.86221 0.12170
 C764 C 0.47125 0.85337 0.11106
 C765 C 0.47200 0.83538 0.09287
 C766 C 0.49435 0.82560 0.08481
 C767 C 0.51608 0.83424 0.09537
 C768 C 0.51557 0.85252 0.11350
 C769 C 0.53782 0.87989 0.14073
 C770 C 0.53755 0.86130 0.12321
 H771 H 0.55534 0.88625 0.14741
 H772 H 0.55486 0.85389 0.11694
 H773 H 0.53495 0.91475 0.17370
 H774 H 0.45593 0.91852 0.17469
 H775 H 0.45496 0.82944 0.08476
 H776 H 0.53348 0.82668 0.08954
 H777 H 0.45390 0.88615 0.14546
 H778 H 0.45352 0.86029 0.11625
 C779 C -0.00190 0.36758 0.61873
 C780 C -0.00819 0.34373 0.62607
 C781 C -0.00841 0.32443 0.60898
 C782 C -0.00251 0.32847 0.58449
 C783 C 0.00346 0.35218 0.57726
 C784 C 0.00379 0.37145 0.59407
 C785 C -0.00161 0.38763 0.63755
 C786 C 0.00485 0.41185 0.63217
 C787 C 0.00498 0.42984 0.65034
 C788 C -0.00135 0.42427 0.67437
 C789 C -0.00790 0.40024 0.67995
 C790 C -0.00797 0.38192 0.66181
 C791 C -0.01421 0.33929 0.65040
 C792 C -0.01417 0.35797 0.66785
 H793 H -0.01906 0.32105 0.65604
 H794 H -0.01900 0.35357 0.68642
 H795 H -0.01287 0.30617 0.61485
 H796 H 0.00760 0.35595 0.55841
 H797 H 0.00978 0.44830 0.64549
 H798 H -0.01256 0.39569 0.69852
 H799 H 0.00846 0.38920 0.58728
 H800 H 0.00990 0.41735 0.61410
 C801 C 0.50550 0.12100 0.85295
 C802 C 0.48250 0.11099 0.84654
 C803 C 0.48110 0.09159 0.82966
 C804 C 0.50235 0.08175 0.81904
 C805 C 0.52508 0.09189 0.82521
 C806 C 0.52669 0.11124 0.84187
 C807 C 0.50625 0.14128 0.87154
 C808 C 0.52819 0.15225 0.87945
 C809 C 0.52795 0.17053 0.89737
 C810 C 0.50588 0.17846 0.90784
 C811 C 0.48389 0.16797 0.89979
 C812 C 0.48391 0.14949 0.88186
 C813 C 0.46106 0.12017 0.85722
 C814 C 0.46175 0.13899 0.87450
 H815 H 0.44345 0.11255 0.85229
 H816 H 0.44465 0.14530 0.88235
 H817 H 0.46345 0.08373 0.82524
 H818 H 0.54173 0.08489 0.81700
 H819 H 0.54515 0.17855 0.90301
 H820 H 0.46674 0.17372 0.90797
 H821 H 0.54470 0.11815 0.84587
 H822 H 0.54575 0.14692 0.87219
 C823 C 1.00391 0.62970 0.38399
 C824 C 0.99785 0.65358 0.37664
 C825 C 0.99781 0.67292 0.39367
 C826 C 1.00398 0.66893 0.41804
 C827 C 1.01009 0.64529 0.42523
 C828 C 1.01006 0.62593 0.40851
 C829 C 1.00362 0.60954 0.36528
 C830 C 1.00892 0.58511 0.37084
 C831 C 1.00854 0.56702 0.35277
 C832 C 1.00292 0.57269 0.32863
 C833 C 0.99744 0.59695 0.32292
 C834 C 0.99769 0.61531 0.34099
 C835 C 0.99200 0.65805 0.35233
 C836 C 0.99202 0.63936 0.33488
 H837 H 0.98742 0.67632 0.34667
 H838 H 0.98744 0.64380 0.31631
 H839 H 0.99334 0.69119 0.38788
 H840 H 1.01462 0.64166 0.44399
 H841 H 1.01236 0.54840 0.35782
 H842 H 0.99328 0.60162 0.30430
 H843 H 1.01491 0.60822 0.41522
 H844 H 1.01329 0.57950 0.38901
 C845 C 1.14431 0.49615 0.12631
 C846 C 1.15412 0.47391 0.11739
 C847 C 1.17160 0.47390 0.09856
 C848 C 1.17955 0.49585 0.08794
 C849 C 1.16997 0.51787 0.09750
 C850 C 1.15277 0.51804 0.11628
 C851 C 1.12509 0.49535 0.14583
 C852 C 1.11385 0.51647 0.15556
 C853 C 1.09558 0.51474 0.17322
 C854 C 1.08798 0.49197 0.18176
 C855 C 1.09922 0.47082 0.17239
 C856 C 1.11760 0.47234 0.15453
 C857 C 1.14612 0.45175 0.12700
 C858 C 1.12830 0.45098 0.14518
 H859 H 1.15364 0.43467 0.12024
 H860 H 1.12263 0.43335 0.15187
 H861 H 1.17786 0.45649 0.09146
 H862 H 1.17621 0.53537 0.09110
 H863 H 1.08698 0.53134 0.17983
 H864 H 1.09368 0.45313 0.17904
 H865 H 1.14639 0.53560 0.12263
 H866 H 1.11865 0.53450 0.14963
 C867 C 0.61974 -0.00391 0.63997
 C868 C 0.61091 -0.02675 0.64786
 C869 C 0.59299 -0.02785 0.66620
 C870 C 0.58321 -0.00643 0.67661
 C871 C 0.59184 0.01617 0.66851
 C872 C 0.60986 0.01747 0.65055
 C873 C 0.63885 -0.00352 0.62032
 C874 C 0.64945 0.01820 0.61183
 C875 C 0.66680 0.01764 0.59316
 C876 C 0.67406 -0.00453 0.58233
 C877 C 0.66390 -0.02631 0.59097
 C878 C 0.64658 -0.02597 0.60991
 C879 C 0.61973 -0.04835 0.63716
 C880 C 0.63700 -0.04796 0.61844
 H881 H 0.61295 -0.06585 0.64314
 H882 H 0.64300 -0.06517 0.61058
 H883 H 0.58668 -0.04545 0.67238
 H884 H 0.58428 0.03302 0.67572
 H885 H 0.67473 0.03469 0.58732
 H886 H 0.66916 -0.04357 0.58270
 H887 H 0.61548 0.03539 0.64499
 H888 H 0.64474 0.03581 0.61940
 C889 C -0.14398 0.50437 0.87684
 C890 C -0.15080 0.52691 0.88773
 C891 C -0.16831 0.52758 0.90650
 C892 C -0.17898 0.50601 0.91503
 C893 C -0.17209 0.48370 0.90423
 C894 C -0.15493 0.48285 0.88540
 C895 C -0.12499 0.50441 0.85708
 C896 C -0.11727 0.48304 0.84478
 C897 C -0.09894 0.48393 0.82709
 C898 C -0.08776 0.50609 0.82111
 C899 C -0.09574 0.52758 0.83284
 C900 C -0.11424 0.52691 0.85063
 C901 C -0.13986 0.54861 0.88009
 C902 C -0.12186 0.54859 0.86207
 H903 H -0.14507 0.56587 0.88841
 H904 H -0.11373 0.56584 0.85705
 H905 H -0.17362 0.54497 0.91448
 H906 H -0.17959 0.46671 0.91072
 H907 H -0.09355 0.46714 0.81797
 H908 H -0.08715 0.54481 0.82856
 H909 H -0.15025 0.46511 0.87810
 H910 H -0.12509 0.46544 0.84852
 C911 C 0.37621 0.01337 0.35371
 C912 C 0.38371 -0.00915 0.34325
 C913 C 0.40217 -0.00977 0.32544
 C914 C 0.41378 0.01173 0.31801
 C915 C 0.40626 0.03404 0.32834
 C916 C 0.38772 0.03491 0.34589
 C917 C 0.35672 0.01316 0.37301
 C918 C 0.34773 0.03455 0.38438
 C919 C 0.33011 0.03329 0.40277
 C920 C 0.32094 0.01073 0.41038
 C921 C 0.32945 -0.01064 0.39882
 C922 C 0.34709 -0.00959 0.38025
 C923 C 0.37303 -0.03098 0.35087
 C924 C 0.35524 -0.03120 0.36907
 H925 H 0.37876 -0.04822 0.34286
 H926 H 0.34778 -0.04862 0.37452
 H927 H 0.40754 -0.02711 0.31737
 H928 H 0.41511 0.05089 0.32327
 H929 H 0.32355 0.05011 0.41101
 H930 H 0.32277 -0.02822 0.40467
 H931 H 0.38299 0.05258 0.35332
 H932 H 0.35404 0.05243 0.37939
 C933 C 0.13677 0.49703 0.87966
 C934 C 0.15748 0.51236 0.87794
 C935 C 0.17563 0.51178 0.89593
 C936 C 0.17300 0.49693 0.91643
 C937 C 0.15187 0.48248 0.91845
 C938 C 0.13413 0.48236 0.90030
 C939 C 0.11814 0.49770 0.85977
 C940 C 0.09824 0.48139 0.85849
 C941 C 0.08109 0.48310 0.83989
 C942 C 0.08321 0.50123 0.82235
 C943 C 0.10317 0.51723 0.82306
 C944 C 0.12092 0.51524 0.84131
 C945 C 0.15969 0.52860 0.85860
 C946 C 0.14153 0.53039 0.84098
 H947 H 0.17545 0.54051 0.85736
 H948 H 0.14384 0.54361 0.82669
 H949 H 0.19179 0.52299 0.89387
 H950 H 0.14870 0.47149 0.93434
 H951 H 0.06584 0.47049 0.83941
 H952 H 0.10500 0.53097 0.80917
 H953 H 0.11823 0.47107 0.90307
 H954 H 0.09570 0.46709 0.87153
 C955 C 0.62079 -0.00329 0.35522
 C956 C 0.62350 0.01427 0.33676
 C957 C 0.60552 0.01646 0.31873
 C958 C 0.58539 0.00066 0.31824
 C959 C 0.58331 -0.01743 0.33583
 C960 C 0.60068 -0.01935 0.35420
 C961 C 0.63970 -0.00425 0.37482
 C962 C 0.63721 -0.01902 0.39540
 C963 C 0.65517 -0.01914 0.41331
 C964 C 0.67640 -0.00486 0.41114
 C965 C 0.67891 0.01008 0.39068
 C966 C 0.66054 0.01090 0.37290
 C967 C 0.64427 0.02921 0.33621
 C968 C 0.66264 0.02719 0.35359
 H969 H 0.64652 0.04245 0.32193
 H970 H 0.67849 0.03896 0.35219
 H971 H 0.60736 0.03017 0.30481
 H972 H 0.56793 -0.02989 0.33557
 H973 H 0.65206 -0.03016 0.42920
 H974 H 0.69513 0.02120 0.38852
 H975 H 0.59814 -0.03364 0.36724
 H976 H 0.62125 -0.03017 0.39834
 C977 C 0.85859 0.49711 0.12635
 C978 C 0.86626 0.49825 0.10176
 C979 C 0.84889 0.49882 0.08307
 C980 C 0.82380 0.49877 0.08842
 C981 C 0.81620 0.49816 0.11278
 C982 C 0.83332 0.49724 0.13153
 C983 C 0.87780 0.49611 0.14573
 C984 C 0.87222 0.49363 0.17064
 C985 C 0.89083 0.49280 0.18794
 C986 C 0.91541 0.49464 0.18091
 C987 C 0.92117 0.49694 0.15617
 C988 C 0.90267 0.49744 0.13860
 C989 C 0.89118 0.49911 0.09593
 C990 C 0.90898 0.49895 0.11396
 H991 H 0.89703 0.50012 0.07712
 H992 H 0.92802 0.49984 0.10851
 H993 H 0.85489 0.49977 0.06429
 H994 H 0.79691 0.49809 0.11731
 H995 H 0.88598 0.49102 0.20695
 H996 H 0.94018 0.49788 0.15056
 H997 H 0.82637 0.49678 0.14990
 H998 H 0.85366 0.49214 0.17714
 C999 C 0.37505 -0.00756 0.64109
 C1000 C 0.38308 0.01489 0.65128
 C1001 C 0.40112 0.01522 0.66938
 C1002 C 0.41162 -0.00654 0.67748
 C1003 C 0.40353 -0.02876 0.66743
 C1004 C 0.38550 -0.02932 0.64955
 C1005 C 0.35607 -0.00707 0.62147
 C1006 C 0.34684 -0.02836 0.61016
 C1007 C 0.32965 -0.02690 0.59155
 C1008 C 0.32113 -0.00423 0.58369
 C1009 C 0.32992 0.01707 0.59511
 C1010 C 0.34722 0.01582 0.61385
 C1011 C 0.37328 0.03689 0.64317
 C1012 C 0.35581 0.03735 0.62481
 H1013 H 0.37940 0.05408 0.65098
 H1014 H 0.34898 0.05488 0.61904
 H1015 H 0.40698 0.03250 0.67721
 H1016 H 0.41156 -0.04581 0.67302
 H1017 H 0.32287 -0.04364 0.58337
 H1018 H 0.32371 0.03472 0.58904
 H1019 H 0.38028 -0.04696 0.64242
 H1020 H 0.35264 -0.04633 0.61533
   
