data_POSCAR
  _audit_creation_date              2014-09-24
  _audit_creation_method            'ToBaCCo'
  _symmetry_space_group_name_H-M    'P1'
  _symmetry_Int_Tables_number       1
  _symmetry_cell_setting            triclinic
  loop_
  _symmetry_equiv_pos_as_xyz
 x,y,z
_cell_length_a 10.1026
_cell_length_b 41.6733
_cell_length_c 10.2325
_cell_angle_alpha 89.902900
_cell_angle_beta 61.040700
_cell_angle_gamma 89.899000
loop_
  _atom_site_label
  _atom_site_type_symbol
  _atom_site_fract_x
  _atom_site_fract_y
  _atom_site_fract_z
N1 N 0.21465 0.03869 0.08105
 N2 N 0.28757 0.06599 0.06628
 N3 N 0.09352 -0.02932 0.21308
 N4 N 0.07730 -0.05696 0.28327
 N5 N 0.21975 -0.02952 0.08444
 N6 N 0.28990 -0.05732 0.06410
 N7 N 0.08760 0.03851 0.20833
 N8 N 0.07152 0.06544 0.28259
 C9 C 0.19745 0.08240 0.19368
 C10 C 0.20179 -0.07396 0.18991
 N11 N -0.30157 -0.03105 0.22543
 N12 N -0.36148 -0.05982 0.23966
 N13 N -0.22862 0.03748 0.29003
 N14 N -0.23200 0.06685 0.33980
 N15 N -0.30483 0.03623 0.21613
 N16 N -0.36090 0.06651 0.21315
 N17 N -0.22439 -0.02977 0.29818
 N18 N -0.23074 -0.05744 0.36309
 Mn19 Mn -0.06876 0.00421 0.25403
 C20 C -0.31763 -0.07590 0.32715
 C21 C -0.31182 0.08446 0.29054
 N22 N 0.30263 -0.03079 -0.22935
 N23 N 0.37250 -0.06047 -0.24101
 N24 N 0.21704 0.03519 -0.30476
 N25 N 0.22440 0.06340 -0.36748
 N26 N 0.29377 0.03609 -0.23137
 N27 N 0.35418 0.06459 -0.24299
 N28 N 0.21676 -0.03273 -0.29290
 N29 N 0.21748 -0.06210 -0.33981
 Mn30 Mn 0.25901 0.00364 -0.07394
 C31 C 0.31269 -0.07896 -0.30798
 C32 C 0.31223 0.08133 -0.32977
 N33 N -0.22701 0.03466 -0.09591
 N34 N -0.29782 0.06222 -0.08330
 N35 N -0.10090 -0.03419 -0.21123
 N36 N -0.08805 -0.06220 -0.27794
 N37 N -0.22731 -0.03324 -0.08363
 N38 N -0.30402 -0.06229 -0.05960
 N39 N -0.09914 0.03396 -0.22256
 N40 N -0.07985 0.06099 -0.29716
 Mn41 Mn -0.26643 0.00167 0.06619
 Mn42 Mn 0.05950 0.00049 -0.25978
 Cl43 Cl -0.00411 0.00251 -0.00364
 C44 C -0.20577 0.07818 -0.21097
 C45 C -0.21311 -0.07935 -0.18351
 N46 N 0.72331 0.53572 0.59222
 N47 N 0.80027 0.56242 0.57523
 N48 N 0.59175 0.46785 0.71818
 N49 N 0.57044 0.44007 0.78779
 N50 N 0.72030 0.46769 0.59206
 N51 N 0.78953 0.43972 0.57482
 N52 N 0.59600 0.53604 0.71933
 N53 N 0.58440 0.56314 0.79171
 C54 C 0.71362 0.57928 0.70093
 C55 C 0.69562 0.42292 0.69909
 N56 N 0.20071 0.46907 0.72443
 N57 N 0.13941 0.44089 0.73057
 N58 N 0.27828 0.53600 0.80157
 N59 N 0.27164 0.56411 0.86292
 N60 N 0.20125 0.53660 0.72844
 N61 N 0.14059 0.56528 0.73965
 N62 N 0.27584 0.46850 0.79944
 N63 N 0.26591 0.43976 0.85835
 Mn64 Mn 0.43473 0.50213 0.76137
 C65 C 0.17876 0.42293 0.81611
 C66 C 0.18379 0.58206 0.82555
 N67 N 0.79961 0.46922 0.27989
 N68 N 0.85899 0.44070 0.27252
 N69 N 0.72358 0.53674 0.20822
 N70 N 0.72960 0.56521 0.14988
 N71 N 0.79996 0.53663 0.28203
 N72 N 0.85901 0.56525 0.27494
 N73 N 0.72380 0.46946 0.20554
 N74 N 0.73063 0.44099 0.14646
 Mn75 Mn 0.76257 0.50229 0.43569
 C76 C 0.81661 0.42343 0.18790
 C77 C 0.81552 0.58268 0.19072
 N78 N 0.28050 0.53747 0.41737
 N79 N 0.20904 0.56513 0.43880
 N80 N 0.40891 0.46985 0.28477
 N81 N 0.42550 0.44339 0.20740
 N82 N 0.28118 0.46927 0.41144
 N83 N 0.20815 0.44216 0.42242
 N84 N 0.40698 0.53765 0.28935
 N85 N 0.42258 0.56540 0.22023
 Mn86 Mn 0.23907 0.50307 0.57121
 Mn87 Mn 0.56669 0.50344 0.24536
 Cl88 Cl 0.50062 0.50273 0.50359
 C89 C 0.29722 0.58214 0.31411
 C90 C 0.29904 0.42633 0.29339
 C91 C 0.23559 0.18462 0.23648
 C92 C 0.11232 0.16742 0.34751
 C93 C 0.10382 0.13393 0.33890
 C94 C 0.21742 0.11684 0.21832
 C95 C 0.34434 0.13367 0.11361
 C96 C 0.35330 0.16705 0.12180
 C97 C 0.24103 0.22058 0.23811
 C98 C 0.31060 0.23819 0.10349
 C99 C 0.31711 0.27175 0.10431
 C100 C 0.25219 0.28883 0.23968
 C101 C 0.18163 0.27131 0.37423
 C102 C 0.17649 0.23773 0.37352
 C103 C 0.25895 0.32467 0.24149
 C104 C 0.13639 0.34245 0.34909
 C105 C 0.14634 0.37577 0.35957
 C106 C 0.27955 0.39216 0.26452
 C107 C 0.39906 0.37482 0.15030
 C108 C 0.38894 0.34146 0.13905
 H109 H 0.01976 0.17986 0.43850
 H110 H 0.00620 0.12153 0.42426
 H111 H 0.43463 0.12093 0.02274
 H112 H 0.45177 0.17916 0.03660
 H113 H 0.35854 0.22613 -0.00338
 H114 H 0.37094 0.28433 -0.00152
 H115 H 0.13232 0.28353 0.48083
 H116 H 0.12387 0.22527 0.47964
 H117 H 0.03354 0.33044 0.42691
 H118 H 0.05169 0.38878 0.44481
 H119 H 0.50260 0.38685 0.07303
 H120 H 0.48522 0.32866 0.05398
 C121 C 0.72076 0.82215 0.29815
 C122 C 0.60383 0.83782 0.28601
 C123 C 0.58612 0.87096 0.30335
 C124 C 0.68403 0.88900 0.33418
 C125 C 0.79867 0.87343 0.34996
 C126 C 0.81790 0.84040 0.33038
 C127 C 0.74272 0.78705 0.27572
 C128 C 0.79319 0.76890 0.35910
 C129 C 0.80795 0.73572 0.34258
 C130 C 0.77436 0.71999 0.24109
 C131 C 0.72599 0.73814 0.15621
 C132 C 0.71128 0.77130 0.17263
 C133 C 0.78884 0.68476 0.22362
 C134 C 0.68258 0.66727 0.20217
 C135 C 0.69608 0.63416 0.18404
 C136 C 0.81445 0.61780 0.19002
 C137 C 0.91982 0.63504 0.21298
 C138 C 0.90726 0.66828 0.22951
 H139 H 0.52771 0.82470 0.26020
 H140 H 0.49892 0.88269 0.28857
 H141 H 0.87882 0.88697 0.36918
 H142 H 0.91257 0.82934 0.33442
 H143 H 0.81589 0.78014 0.44144
 H144 H 0.84265 0.72236 0.41157
 H145 H 0.70261 0.72677 0.07457
 H146 H 0.67665 0.78457 0.10336
 H147 H 0.58635 0.67911 0.20407
 H148 H 0.61001 0.62124 0.17196
 H149 H 1.01008 0.62267 0.22023
 H150 H 0.98906 0.68094 0.24858
 C151 C 0.76363 0.18056 0.75051
 C152 C 0.88622 0.16643 0.75858
 C153 C 0.89640 0.13315 0.76825
 C154 C 0.78471 0.11305 0.76991
 C155 C 0.66497 0.12664 0.75679
 C156 C 0.65441 0.16006 0.74716
 C157 C 0.75053 0.21636 0.74680
 C158 C 0.68312 0.23127 0.66999
 C159 C 0.67649 0.26476 0.66323
 C160 C 0.73480 0.28446 0.73479
 C161 C 0.80169 0.26959 0.81183
 C162 C 0.80749 0.23615 0.81942
 C163 C 0.72386 0.32023 0.73033
 C164 C 0.83927 0.34019 0.72382
 C165 C 0.83014 0.37366 0.71538
 C166 C 0.70507 0.38786 0.71436
 C167 C 0.58794 0.36820 0.72476
 C168 C 0.59732 0.33481 0.73212
 H169 H 0.97514 0.18106 0.75686
 H170 H 0.99016 0.12307 0.77767
 H171 H 0.57910 0.11140 0.75521
 H172 H 0.55873 0.16984 0.74076
 H173 H 0.63708 0.21727 0.61277
 H174 H 0.62826 0.27524 0.59904
 H175 H 0.84801 0.28364 0.86860
 H176 H 0.85455 0.22584 0.88492
 H177 H 0.93815 0.32986 0.72209
 H178 H 0.92024 0.38852 0.71030
 H179 H 0.49059 0.37873 0.72372
 H180 H 0.50501 0.32040 0.74005
 C181 C 0.30076 0.82148 0.71610
 C182 C 0.42564 0.83790 0.70888
 C183 C 0.43230 0.87151 0.70017
 C184 C 0.31940 0.88885 0.68727
 C185 C 0.20107 0.87180 0.68439
 C186 C 0.18875 0.83886 0.70477
 C187 C 0.28293 0.78642 0.73855
 C188 C 0.14092 0.77328 0.83688
 C189 C 0.12177 0.74016 0.85307
 C190 C 0.24346 0.71942 0.77047
 C191 C 0.38553 0.73267 0.67146
 C192 C 0.40495 0.76585 0.65706
 C193 C 0.22312 0.68419 0.79008
 C194 C 0.34162 0.66502 0.78054
 C195 C 0.32434 0.63202 0.79908
 C196 C 0.18949 0.61721 0.82484
 C197 C 0.07077 0.63598 0.83273
 C198 C 0.08655 0.66934 0.81785
 H199 H 0.51383 0.82484 0.71677
 H200 H 0.52570 0.88378 0.70220
 H201 H 0.11011 0.88413 0.67888
 H202 H 0.09177 0.82684 0.70967
 H203 H 0.04487 0.78866 0.90296
 H204 H 0.01228 0.73080 0.93186
 H205 H 0.48144 0.71748 0.60320
 H206 H 0.51414 0.77556 0.58006
 H207 H 0.44747 0.67550 0.76107
 H208 H 0.41893 0.61790 0.78824
 H209 H -0.03295 0.62485 0.84914
 H210 H -0.00630 0.68334 0.82370
 C211 C 0.27576 0.18350 0.70120
 C212 C 0.25797 0.16474 0.82224
 C213 C 0.27471 0.13169 0.80829
 C214 C 0.30729 0.11647 0.67406
 C215 C 0.32143 0.13484 0.55327
 C216 C 0.30888 0.16832 0.56572
 C217 C 0.25737 0.21869 0.71890
 C218 C 0.35379 0.23918 0.60342
 C219 C 0.33981 0.27238 0.62172
 C220 C 0.22877 0.28572 0.75672
 C221 C 0.13209 0.26522 0.87192
 C222 C 0.14601 0.23206 0.85362
 C223 C 0.21170 0.32089 0.77629
 C224 C 0.17991 0.33547 0.91262
 C225 C 0.16816 0.36887 0.92770
 C226 C 0.18103 0.38783 0.80903
 C227 C 0.21216 0.37325 0.67385
 C228 C 0.22898 0.34022 0.65696
 H229 H 0.23276 0.17564 0.92762
 H230 H 0.25736 0.11780 0.90452
 H231 H 0.34234 0.12336 0.45019
 H232 H 0.32151 0.18222 0.47103
 H233 H 0.44209 0.22941 0.50064
 H234 H 0.41777 0.28757 0.53119
 H235 H 0.04384 0.27496 0.97481
 H236 H 0.06810 0.21691 0.94435
 H237 H 0.16778 0.32118 1.00607
 H238 H 0.14883 0.37984 1.03135
 H239 H 0.22837 0.38759 0.57918
 H240 H 0.25334 0.32978 0.55093
 C241 C 0.74956 0.82119 0.77787
 C242 C 0.85302 0.83951 0.65562
 C243 C 0.86032 0.87290 0.66588
 C244 C 0.76502 0.88916 0.79901
 C245 C 0.65186 0.87115 0.91724
 C246 C 0.64585 0.83765 0.90749
 C247 C 0.75109 0.78523 0.76965
 C248 C 0.61659 0.76734 0.84464
 C249 C 0.61909 0.73375 0.83707
 C250 C 0.75598 0.71699 0.75381
 C251 C 0.89034 0.73481 0.67876
 C252 C 0.88803 0.76837 0.68696
 C253 C 0.75769 0.68115 0.74379
 C254 C 0.85244 0.66526 0.60906
 C255 C 0.84436 0.63188 0.59734
 C256 C 0.74080 0.61359 0.71987
 C257 C 0.65426 0.62910 0.85676
 C258 C 0.66186 0.66247 0.86845
 H259 H 0.93058 0.82792 0.55226
 H260 H 0.94289 0.88600 0.57003
 H261 H 0.57229 0.88260 1.02077
 H262 H 0.56275 0.82461 1.00356
 H263 H 0.50851 0.77926 0.90714
 H264 H 0.51294 0.72092 0.89440
 H265 H 0.99805 0.72281 0.61526
 H266 H 0.99458 0.78101 0.62957
 H267 H 0.92896 0.67873 0.51115
 H268 H 0.91518 0.62053 0.49080
 H269 H 0.57857 0.61531 0.95357
 H270 H 0.59139 0.67384 0.97455
 C271 C 0.23537 0.82374 0.22800
 C272 C 0.22444 0.84453 0.34096
 C273 C 0.21516 0.87785 0.32856
 C274 C 0.21686 0.89117 0.20267
 C275 C 0.22853 0.87082 0.08899
 C276 C 0.23845 0.83757 0.10090
 C277 C 0.24234 0.78799 0.24251
 C278 C 0.18897 0.76732 0.16973
 C279 C 0.20007 0.73403 0.17745
 C280 C 0.26005 0.72010 0.26284
 C281 C 0.31221 0.74062 0.33703
 C282 C 0.30274 0.77397 0.32787
 C283 C 0.26601 0.68445 0.27668
 C284 C 0.24692 0.67035 0.40976
 C285 C 0.25336 0.63703 0.42229
 C286 C 0.28010 0.61701 0.30210
 C287 C 0.29744 0.63073 0.17001
 C288 C 0.29005 0.66409 0.15756
 H289 H 0.22054 0.83501 0.44013
 H290 H 0.20816 0.89336 0.41627
 H291 H 0.22615 0.88073 -0.00739
 H292 H 0.24916 0.82281 0.00992
 H293 H 0.13505 0.77671 0.10890
 H294 H 0.15867 0.71940 0.11799
 H295 H 0.36304 0.73098 0.40055
 H296 H 0.34450 0.78845 0.38739
 H297 H 0.22538 0.68501 0.50500
 H298 H 0.24108 0.62685 0.52473
 H299 H 0.31510 0.61557 0.07723
 H300 H 0.30621 0.67401 0.05355
 C301 C 0.71372 0.18391 0.26643
 C302 C 0.66521 0.16660 0.18000
 C303 C 0.64702 0.13347 0.19527
 C304 C 0.68494 0.11659 0.29184
 C305 C 0.73310 0.13391 0.37851
 C306 C 0.74540 0.16716 0.36738
 C307 C 0.73202 0.21920 0.25051
 C308 C 0.84277 0.23470 0.27293
 C309 C 0.85590 0.26794 0.26383
 C310 C 0.76119 0.28639 0.22842
 C311 C 0.65158 0.27101 0.20436
 C312 C 0.63726 0.23777 0.21503
 C313 C 0.77889 0.32154 0.21476
 C314 C 0.76588 0.33823 0.10214
 C315 C 0.78409 0.37141 0.08935
 C316 C 0.81604 0.38834 0.18854
 C317 C 0.82905 0.37174 0.30110
 C318 C 0.80950 0.33867 0.31473
 H319 H 0.64670 0.17846 0.09634
 H320 H 0.61353 0.12100 0.12330
 H321 H 0.76122 0.12175 0.45521
 H322 H 0.78132 0.17956 0.43715
 H323 H 0.92089 0.22123 0.29574
 H324 H 0.94357 0.27915 0.27979
 H325 H 0.57521 0.28470 0.17973
 H326 H 0.54844 0.22681 0.20033
 H327 H 0.74062 0.32574 0.02476
 H328 H 0.77127 0.38397 0.00367
 H329 H 0.84795 0.38444 0.38258
 H330 H 0.81388 0.32656 0.40607
   
