data_POSCAR
  _audit_creation_date              2014-09-24
  _audit_creation_method            'ToBaCCo'
  _symmetry_space_group_name_H-M    'P1'
  _symmetry_Int_Tables_number       1
  _symmetry_cell_setting            triclinic
  loop_
  _symmetry_equiv_pos_as_xyz
 x,y,z
_cell_length_a 56.6537
_cell_length_b 10.5200
_cell_length_c 18.6146
_cell_angle_alpha 88.482900
_cell_angle_beta 90.020600
_cell_angle_gamma 91.471900
loop_
  _atom_site_label
  _atom_site_type_symbol
  _atom_site_fract_x
  _atom_site_fract_y
  _atom_site_fract_z
C1 C 0.69991 0.29354 0.55773
 C2 C 0.68874 0.27518 0.49115
 C3 C 0.70096 0.24269 0.42918
 C4 C 0.72565 0.22693 0.43362
 C5 C 0.73783 0.25710 0.49802
 C6 C 0.72502 0.29331 0.55960
 C7 C 0.73777 0.33803 0.61903
 C8 C 0.76226 0.33337 0.62155
 C9 C 0.77516 0.28296 0.56495
 C10 C 0.76294 0.25223 0.50056
 C11 C 0.73843 0.17916 0.37621
 C12 C 0.76290 0.17427 0.37868
 C13 C 0.77567 0.21822 0.43836
 C14 C 0.80076 0.22163 0.43929
 C15 C 0.81213 0.24352 0.50510
 C16 C 0.80010 0.27155 0.56865
 H17 H 0.72898 0.38040 0.66366
 H18 H 0.77101 0.37311 0.66778
 H19 H 0.72960 0.14386 0.32893
 H20 H 0.77168 0.13410 0.33335
 H21 H 0.66976 0.28036 0.48753
 H22 H 0.83112 0.23938 0.50677
 C23 C 0.20057 0.72101 0.57379
 C24 C 0.18806 0.73399 0.50909
 C25 C 0.19921 0.74633 0.44212
 C26 C 0.22409 0.75579 0.43933
 C27 C 0.23735 0.73697 0.50325
 C28 C 0.22557 0.71457 0.57021
 C29 C 0.23909 0.68140 0.63065
 C30 C 0.26365 0.68321 0.62745
 C31 C 0.27580 0.72009 0.56392
 C32 C 0.26246 0.73955 0.50001
 C33 C 0.23601 0.78711 0.37485
 C34 C 0.26053 0.78962 0.37168
 C35 C 0.27409 0.76002 0.43269
 C36 C 0.29897 0.75282 0.42871
 C37 C 0.31167 0.73924 0.49285
 C38 C 0.30089 0.72843 0.56099
 H39 H 0.23079 0.65068 0.68068
 H40 H 0.27298 0.65212 0.67517
 H41 H 0.22649 0.81162 0.32626
 H42 H 0.26874 0.81644 0.32089
 H43 H 0.16899 0.73565 0.51048
 H44 H 0.33070 0.74143 0.48918
 C45 C 0.20000 0.24283 -0.43865
 C46 C 0.18811 0.23171 -0.50420
 C47 C 0.19994 0.22063 -0.56969
 C48 C 0.22508 0.21862 -0.56920
 C49 C 0.23755 0.23638 -0.50355
 C50 C 0.22495 0.25052 -0.43843
 C51 C 0.23763 0.27371 -0.37503
 C52 C 0.26209 0.27243 -0.37385
 C53 C 0.27506 0.25834 -0.43717
 C54 C 0.26273 0.24218 -0.50305
 C55 C 0.23820 0.20474 -0.63238
 C56 C 0.26268 0.20325 -0.63105
 C57 C 0.27547 0.23013 -0.56821
 C58 C 0.30061 0.23934 -0.56774
 C59 C 0.31217 0.25094 -0.50119
 C60 C 0.30002 0.25936 -0.43645
 H61 H 0.22884 0.29355 -0.32522
 H62 H 0.27063 0.28339 -0.32241
 H63 H 0.22989 0.19516 -0.68416
 H64 H 0.27136 0.18008 -0.68046
 H65 H 0.16898 0.22320 -0.50383
 H66 H 0.33123 0.26290 -0.49946
 C67 C -0.30029 0.73860 -0.43224
 C68 C -0.31217 0.74425 -0.49817
 C69 C -0.30048 0.74766 -0.56471
 C70 C -0.27536 0.75410 -0.56508
 C71 C -0.26274 0.74988 -0.49897
 C72 C -0.27519 0.74005 -0.43246
 C73 C -0.26215 0.73987 -0.36819
 C74 C -0.23769 0.74155 -0.36870
 C75 C -0.22500 0.75538 -0.43322
 C76 C -0.23756 0.75919 -0.49928
 C77 C -0.26249 0.77184 -0.62930
 C78 C -0.23802 0.77312 -0.62980
 C79 C -0.22501 0.77135 -0.56556
 C80 C -0.19986 0.77593 -0.56535
 C81 C -0.18810 0.77248 -0.49912
 C82 C -0.20005 0.76503 -0.43348
 H83 H -0.27056 0.74037 -0.31619
 H84 H -0.22892 0.73300 -0.31733
 H85 H -0.27108 0.78637 -0.68052
 H86 H -0.22961 0.77550 -0.68180
 H87 H -0.33125 0.73262 -0.49736
 H88 H -0.16901 0.78422 -0.49843
 O89 O -0.03297 0.78805 0.13510
 O90 O -0.05886 0.89959 0.06451
 C91 C -0.05417 0.82142 0.11726
 O92 O 0.03449 1.23805 0.12347
 O93 O 0.05998 1.11999 0.05837
 C94 C 0.05564 1.20291 0.10655
 O95 O -0.03159 1.19848 0.13993
 O96 O -0.05858 1.10395 0.06511
 C97 C -0.05304 1.16460 0.12266
 O98 O 0.03294 0.78905 0.13356
 O99 O 0.05939 0.90634 0.06365
 C100 C 0.05414 0.83005 0.11745
 Zr101 Zr 0.00020 0.84675 0.09071
 O102 O 0.00113 0.83163 0.20423
 O103 O -0.00049 0.64760 0.08214
 Zr104 Zr 0.00090 1.17012 0.08669
 O105 O 0.00315 1.20082 0.19830
 O106 O -0.00108 1.36841 0.07013
 O107 O -0.01999 1.00603 0.10299
 O108 O 0.02071 1.01043 0.10194
 O109 O 0.03266 0.78535 -0.12620
 O110 O 0.05942 0.90481 -0.06291
 C111 C 0.05413 0.82203 -0.11124
 O112 O -0.03184 1.21748 -0.13939
 O113 O -0.05870 1.10948 -0.06729
 C114 C -0.05332 1.18424 -0.12183
 O115 O 0.03368 1.23790 -0.13209
 O116 O 0.05976 1.12079 -0.06537
 C117 C 0.05490 1.20372 -0.11566
 O118 O -0.03299 0.79089 -0.13115
 O119 O -0.05895 0.90167 -0.06397
 C120 C -0.05418 0.82390 -0.11456
 Zr121 Zr -0.00004 0.84846 -0.08828
 O122 O 0.00180 0.83690 -0.20144
 O123 O -0.00268 0.64811 -0.07832
 Zr124 Zr 0.00063 1.17188 -0.09161
 O125 O 0.00208 1.19940 -0.20436
 O126 O -0.00133 1.37100 -0.08226
 Zr127 Zr -0.03506 1.00692 -0.00068
 Zr128 Zr 0.03588 1.01110 -0.00133
 O129 O 0.02046 1.01163 -0.10429
 O130 O -0.02040 1.00875 -0.10473
 O131 O 0.02159 0.82412 0.00141
 O132 O -0.02049 1.19292 -0.00226
 O133 O -0.02101 0.82350 0.00171
 O134 O 0.02243 1.19653 -0.00303
 H135 H 0.03045 1.01338 0.14592
 H136 H -0.03183 1.26316 -0.00231
 H137 H 0.03036 1.01224 -0.14813
 H138 H -0.03210 0.74906 0.00265
 H139 H -0.00745 1.39982 0.11564
 H140 H 0.01439 1.40190 -0.06612
 H141 H 0.00111 1.11387 -0.22498
 H142 H -0.00829 0.90410 -0.22195
 H143 H 0.01156 0.62012 -0.05223
 H144 H -0.00032 0.61437 0.13239
 H145 H -0.00720 0.90576 0.22241
 H146 H 0.00387 1.11587 0.22208
 O147 O 0.53213 0.31491 -0.14385
 O148 O 0.55894 0.40584 -0.06698
 C149 C 0.55353 0.34822 -0.12569
 O150 O 0.46723 0.72026 -0.13029
 O151 O 0.44070 0.59848 -0.06317
 C152 C 0.44601 0.67789 -0.11550
 O153 O 0.53310 0.72244 -0.13165
 O154 O 0.55902 0.60951 -0.06197
 C155 C 0.55432 0.68922 -0.11394
 O156 O 0.46606 0.27346 -0.12901
 O157 O 0.44030 0.38490 -0.06130
 C158 C 0.44484 0.30521 -0.11096
 Zr159 Zr 0.49961 0.33919 -0.09039
 O160 O 0.49731 0.31518 -0.20253
 O161 O 0.50317 0.14031 -0.08044
 Zr162 Zr 0.49997 0.66276 -0.08744
 O163 O 0.49913 0.69067 -0.20025
 O164 O 0.50176 0.86147 -0.07434
 O165 O 0.52030 0.50495 -0.10309
 O166 O 0.47969 0.49914 -0.10272
 O167 O 0.46664 0.25684 0.12693
 O168 O 0.44042 0.37695 0.06253
 C169 C 0.44539 0.29181 0.11154
 O170 O 0.53256 0.70378 0.13611
 O171 O 0.55891 0.59949 0.06691
 C172 C 0.55385 0.67331 0.11920
 O173 O 0.46690 0.70752 0.13038
 O174 O 0.44043 0.59278 0.06341
 C175 C 0.44549 0.67257 0.11351
 O176 O 0.53211 0.27889 0.13555
 O177 O 0.55887 0.39192 0.06544
 C178 C 0.55357 0.31382 0.11855
 Zr179 Zr 0.49962 0.32596 0.08794
 O180 O 0.49812 0.29048 0.20008
 O181 O 0.50195 0.12814 0.07395
 Zr182 Zr 0.49981 0.64871 0.09143
 O183 O 0.49778 0.65302 0.20483
 O184 O 0.50241 0.84938 0.08582
 Zr185 Zr 0.53524 0.49778 0.00081
 Zr186 Zr 0.46425 0.49103 0.00045
 O187 O 0.47951 0.48426 0.10364
 O188 O 0.52040 0.48859 0.10469
 O189 O 0.47796 0.30615 -0.00138
 O190 O 0.52097 0.68048 0.00232
 O191 O 0.52088 0.31156 -0.00157
 O192 O 0.47831 0.67839 0.00200
 H193 H 0.47007 0.49838 -0.14706
 H194 H 0.53208 0.75480 0.00301
 H195 H 0.46954 0.48087 0.14737
 H196 H 0.53236 0.24208 -0.00271
 H197 H 0.48565 0.88736 -0.06175
 H198 H 0.48723 0.87923 0.06637
 H199 H 0.50760 0.58353 0.22404
 H200 H 0.49836 0.37444 0.22261
 H201 H 0.48609 0.09727 0.05915
 H202 H 0.48717 0.10467 -0.07021
 H203 H 0.49745 0.40149 -0.22484
 H204 H 0.50582 0.61385 -0.22099
 C205 C 0.33703 0.18614 0.37049
 C206 C 0.35295 0.20479 0.31376
 C207 C 0.34629 0.27396 0.25137
 C208 C 0.32378 0.32557 0.24784
 C209 C 0.30863 0.31524 0.30715
 C210 C 0.31485 0.24369 0.36931
 C211 C 0.36259 0.29473 0.19514
 C212 C 0.38570 0.25081 0.20218
 C213 C 0.39226 0.18345 0.26554
 C214 C 0.37580 0.15952 0.32030
 C215 C 0.41546 0.14498 0.27468
 C216 C 0.43217 0.17128 0.22145
 C217 C 0.42624 0.24137 0.15888
 C218 C 0.40276 0.27906 0.14895
 H219 H 0.34222 0.12795 0.41653
 H220 H 0.31831 0.37841 0.20033
 H221 H 0.29249 0.36809 0.30509
 H222 H 0.35758 0.34883 0.14736
 H223 H 0.38107 0.11005 0.36936
 H224 H 0.42091 0.09851 0.32432
 H225 H 0.45012 0.14260 0.23152
 H226 H 0.39802 0.33525 0.10171
 C227 C -0.16541 0.71317 0.36631
 C228 C -0.14891 0.73643 0.31123
 C229 C -0.15262 0.83515 0.25992
 C230 C -0.17318 0.90612 0.26344
 C231 C -0.18927 0.88441 0.31964
 C232 C -0.18560 0.78810 0.37216
 C233 C -0.13530 0.86457 0.20783
 C234 C -0.11415 0.79789 0.20744
 C235 C -0.11075 0.69675 0.25760
 C236 C -0.12830 0.66558 0.30859
 C237 C -0.08950 0.63129 0.25756
 C238 C -0.07132 0.66923 0.21040
 C239 C -0.07422 0.77195 0.16166
 C240 C -0.09596 0.83384 0.15938
 H241 H -0.16230 0.63785 0.40590
 H242 H -0.17626 0.98257 0.22471
 H243 H -0.20384 0.94820 0.32420
 H244 H -0.13792 0.94217 0.16934
 H245 H -0.12553 0.58935 0.34786
 H246 H -0.08669 0.55303 0.29537
 H247 H -0.05483 0.61949 0.21297
 H248 H -0.09842 0.91385 0.12246
 C249 C 0.66355 0.79963 0.36898
 C250 C 0.64735 0.77464 0.31421
 C251 C 0.65331 0.69317 0.25841
 C252 C 0.67548 0.63734 0.25907
 C253 C 0.69093 0.65538 0.31676
 C254 C 0.68532 0.73773 0.37259
 C255 C 0.63664 0.66480 0.20484
 C256 C 0.61383 0.71362 0.20830
 C257 C 0.60801 0.79443 0.26482
 C258 C 0.62486 0.82572 0.31664
 C259 C 0.58512 0.83928 0.27040
 C260 C 0.56796 0.80474 0.22073
 C261 C 0.57320 0.72221 0.16501
 C262 C 0.59638 0.67851 0.15835
 H263 H 0.65886 0.86552 0.41018
 H264 H 0.68045 0.57551 0.21648
 H265 H 0.70676 0.59986 0.31902
 H266 H 0.64112 0.60131 0.16224
 H267 H 0.62013 0.88529 0.36075
 H268 H 0.58025 0.89757 0.31474
 H269 H 0.55032 0.83974 0.22763
 H270 H 0.60062 0.61358 0.11626
 C271 C 0.16679 1.29135 0.35628
 C272 C 0.15024 1.27010 0.30152
 C273 C 0.15254 1.16418 0.25723
 C274 C 0.17176 1.08408 0.26697
 C275 C 0.18797 1.10473 0.32239
 C276 C 0.18572 1.20831 0.36805
 C277 C 0.13512 1.13716 0.20587
 C278 C 0.11521 1.21347 0.19916
 C279 C 0.11319 1.32151 0.24205
 C280 C 0.13091 1.35021 0.29234
 C281 C 0.09304 1.39607 0.23578
 C282 C 0.07452 1.36040 0.19002
 C283 C 0.07609 1.25129 0.14851
 C284 C 0.09684 1.18028 0.15217
 H285 H 0.16474 1.37171 0.39091
 H286 H 0.17368 1.00196 0.23373
 H287 H 0.20145 1.03507 0.33205
 H288 H 0.13662 1.05410 0.17301
 H289 H 0.12922 1.43204 0.32606
 H290 H 0.09127 1.47973 0.26791
 H291 H 0.05880 1.41686 0.18804
 H292 H 0.09825 1.09491 0.12121
 C293 C 0.66325 0.36140 -0.38573
 C294 C 0.64653 0.34863 -0.33063
 C295 C 0.65225 0.28517 -0.26546
 C296 C 0.67468 0.23321 -0.25753
 C297 C 0.69082 0.23942 -0.31469
 C298 C 0.68533 0.30276 -0.38027
 C299 C 0.63527 0.27271 -0.21029
 C300 C 0.61232 0.31743 -0.22142
 C301 C 0.60659 0.37607 -0.28833
 C302 C 0.62386 0.39478 -0.34135
 C303 C 0.58355 0.41432 -0.30183
 C304 C 0.56625 0.39612 -0.24945
 C305 C 0.57175 0.34326 -0.18167
 C306 C 0.59490 0.30451 -0.16738
 H307 H 0.65876 0.41622 -0.43372
 H308 H 0.67936 0.18267 -0.20831
 H309 H 0.70701 0.18777 -0.30861
 H310 H 0.63971 0.22567 -0.15972
 H311 H 0.61943 0.44177 -0.39200
 H312 H 0.57889 0.45871 -0.35292
 H313 H 0.54865 0.42937 -0.26078
 H314 H 0.59925 0.26475 -0.11486
 C315 C 0.16353 0.66781 -0.35553
 C316 C 0.14746 0.69834 -0.30185
 C317 C 0.15496 0.77173 -0.24336
 C318 C 0.17855 0.81576 -0.24112
 C319 C 0.19379 0.79686 -0.29917
 C320 C 0.18647 0.72293 -0.35762
 C321 C 0.13849 0.80431 -0.19036
 C322 C 0.11443 0.76877 -0.19738
 C323 C 0.10714 0.69902 -0.25776
 C324 C 0.12364 0.66299 -0.30868
 C325 C 0.08325 0.66915 -0.26792
 C326 C 0.06660 0.70318 -0.21783
 C327 C 0.07317 0.77306 -0.15728
 C328 C 0.09730 0.80585 -0.14725
 H329 H 0.15753 0.60795 -0.39871
 H330 H 0.18485 0.87080 -0.19640
 H331 H 0.21095 0.84443 -0.29937
 H332 H 0.14421 0.86078 -0.14537
 H333 H 0.11772 0.61217 -0.35553
 H334 H 0.07728 0.62208 -0.31583
 H335 H 0.04828 0.67858 -0.22855
 H336 H 0.10265 0.86238 -0.10192
 C337 C 0.33826 0.67658 -0.38007
 C338 C 0.35481 0.69462 -0.32565
 C339 C 0.34867 0.75848 -0.26297
 C340 C 0.32609 0.80939 -0.25811
 C341 C 0.31008 0.79865 -0.31535
 C342 C 0.31582 0.73097 -0.37735
 C343 C 0.36530 0.77083 -0.20709
 C344 C 0.38831 0.72587 -0.21559
 C345 C 0.39457 0.67051 -0.28128
 C346 C 0.37765 0.65145 -0.33449
 C347 C 0.41770 0.63427 -0.29319
 C348 C 0.43452 0.64866 -0.23984
 C349 C 0.42841 0.69472 -0.17245
 C350 C 0.40524 0.73389 -0.16009
 H351 H 0.34304 0.61870 -0.42487
 H352 H 0.32112 0.86148 -0.21126
 H353 H 0.29364 0.84839 -0.31205
 H354 H 0.36050 0.81667 -0.15789
 H355 H 0.38243 0.60519 -0.38367
 H356 H 0.42276 0.59327 -0.34356
 H357 H 0.45217 0.61601 -0.24992
 H358 H 0.40045 0.76878 -0.10796
 C359 C -0.16287 1.32997 -0.37018
 C360 C -0.14684 1.30677 -0.31460
 C361 C -0.15454 1.24627 -0.25003
 C362 C -0.17853 1.21175 -0.24248
 C363 C -0.19404 1.22435 -0.30102
 C364 C -0.18627 1.28064 -0.36693
 C365 C -0.13794 1.21646 -0.19599
 C366 C -0.11368 1.24268 -0.20753
 C367 C -0.10634 1.30307 -0.27288
 C368 C -0.12291 1.33635 -0.32514
 C369 C -0.08238 1.32639 -0.28640
 C370 C -0.06562 1.29205 -0.23567
 C371 C -0.07225 1.23016 -0.17054
 C372 C -0.09649 1.20614 -0.15648
 H373 H -0.15662 1.38132 -0.41804
 H374 H -0.18497 1.16702 -0.19296
 H375 H -0.21154 1.18143 -0.29577
 H376 H -0.14377 1.16885 -0.14650
 H377 H -0.11702 1.38041 -0.37560
 H378 H -0.07652 1.37023 -0.33686
 H379 H -0.04724 1.31123 -0.24891
 H380 H -0.10191 1.15736 -0.10695
 C381 C 0.66548 0.80163 -0.36275
 C382 C 0.64902 0.77761 -0.30764
 C383 C 0.65269 0.67760 -0.25710
 C384 C 0.67317 0.60622 -0.26133
 C385 C 0.68923 0.62877 -0.31752
 C386 C 0.68557 0.72615 -0.36944
 C387 C 0.63538 0.64739 -0.20508
 C388 C 0.61428 0.71453 -0.20402
 C389 C 0.61093 0.81691 -0.25339
 C390 C 0.62847 0.84893 -0.30426
 C391 C 0.58971 0.88265 -0.25275
 C392 C 0.57152 0.84376 -0.20584
 C393 C 0.57438 0.73994 -0.15786
 C394 C 0.59611 0.67780 -0.15611
 H395 H 0.66238 0.87779 -0.40181
 H396 H 0.67623 0.52889 -0.22314
 H397 H 0.70375 0.56482 -0.32262
 H398 H 0.63796 0.56876 -0.16723
 H399 H 0.62574 0.92618 -0.34291
 H400 H 0.58692 0.96180 -0.28998
 H401 H 0.55503 0.89356 -0.20805
 H402 H 0.59855 0.59691 -0.11981
 C403 C 0.16429 1.30664 -0.37113
 C404 C 0.14809 1.28707 -0.31513
 C405 C 0.15383 1.20855 -0.25527
 C406 C 0.17547 1.14729 -0.25401
 C407 C 0.19056 1.15758 -0.31337
 C408 C 0.18534 1.23926 -0.37208
 C409 C 0.13735 1.18755 -0.19965
 C410 C 0.11478 1.23890 -0.20536
 C411 C 0.10894 1.31383 -0.26669
 C412 C 0.12574 1.33920 -0.32041
 C413 C 0.08607 1.35802 -0.27503
 C414 C 0.06902 1.33001 -0.22292
 C415 C 0.07431 1.25346 -0.16225
 C416 C 0.09746 1.21012 -0.15310
 H417 H 0.15992 1.36919 -0.41616
 H418 H 0.18020 1.08723 -0.20851
 H419 H 0.20614 1.10013 -0.31377
 H420 H 0.14169 1.12687 -0.15376
 H421 H 0.12105 1.39438 -0.36808
 H422 H 0.08112 1.40997 -0.32341
 H423 H 0.05132 1.36331 -0.23222
 H424 H 0.10171 1.14889 -0.10741
 C425 C 0.33277 0.19090 -0.35452
 C426 C 0.34964 0.21839 -0.30138
 C427 C 0.34784 0.33090 -0.26203
 C428 C 0.32896 0.41190 -0.27523
 C429 C 0.31291 0.38671 -0.33035
 C430 C 0.31466 0.27644 -0.37065
 C431 C 0.36547 0.36363 -0.21245
 C432 C 0.38528 0.28739 -0.20327
 C433 C 0.38696 0.17378 -0.24164
 C434 C 0.36889 0.13870 -0.28952
 C435 C 0.40713 0.09981 -0.23337
 C436 C 0.42586 0.14062 -0.18977
 C437 C 0.42448 0.25447 -0.15234
 C438 C 0.40385 0.32581 -0.15831
 H439 H 0.33439 0.10627 -0.38603
 H440 H 0.32724 0.49792 -0.24518
 H441 H 0.29956 0.45556 -0.34313
 H442 H 0.36427 0.45114 -0.18323
 H443 H 0.37028 0.05231 -0.31964
 H444 H 0.40870 0.01222 -0.26214
 H445 H 0.44151 0.08378 -0.18583
 H446 H 0.40266 0.41471 -0.13053
 C447 C -0.16487 0.70306 -0.36092
 C448 C -0.14842 0.72767 -0.30662
 C449 C -0.15331 0.81804 -0.25420
 C450 C -0.17450 0.88351 -0.25790
 C451 C -0.18993 0.86599 -0.31560
 C452 C -0.18540 0.77454 -0.36728
 C453 C -0.13644 0.84597 -0.20126
 C454 C -0.11432 0.78890 -0.20243
 C455 C -0.10943 0.69994 -0.25571
 C456 C -0.12663 0.66832 -0.30657
 C457 C -0.08704 0.64777 -0.25928
 C458 C -0.06947 0.68358 -0.21104
 C459 C -0.07387 0.77377 -0.15859
 C460 C -0.09657 0.82432 -0.15369
 H461 H -0.16107 0.63322 -0.40089
 H462 H -0.17862 0.95193 -0.21781
 H463 H -0.20516 0.92570 -0.32060
 H464 H -0.14012 0.91600 -0.16130
 H465 H -0.12263 0.60241 -0.34834
 H466 H -0.08283 0.58315 -0.30129
 H467 H -0.05217 0.64343 -0.21649
 H468 H -0.10014 0.89532 -0.11423
 C469 C 0.33513 0.81487 0.35611
 C470 C 0.35134 0.78711 0.30222
 C471 C 0.34448 0.70765 0.24558
 C472 C 0.32138 0.65609 0.24492
 C473 C 0.30611 0.67351 0.30299
 C474 C 0.31285 0.75247 0.35983
 C475 C 0.36115 0.67645 0.19294
 C476 C 0.38486 0.71917 0.19864
 C477 C 0.39155 0.79578 0.25691
 C478 C 0.37476 0.83105 0.30721
 C479 C 0.41518 0.83263 0.26587
 C480 C 0.43215 0.79801 0.21681
 C481 C 0.42615 0.72118 0.15851
 C482 C 0.40227 0.68227 0.14946
 H483 H 0.34058 0.87808 0.39843
 H484 H 0.31557 0.59670 0.20147
 H485 H 0.28941 0.62125 0.30459
 H486 H 0.35592 0.61504 0.14952
 H487 H 0.38020 0.88765 0.35240
 H488 H 0.42073 0.88508 0.31235
 H489 H 0.45027 0.82814 0.22649
 H490 H 0.39738 0.62065 0.10585
 C491 C -0.16273 1.15281 0.38248
 C492 C -0.14601 1.16564 0.32745
 C493 C -0.15177 1.22841 0.26211
 C494 C -0.17424 1.28000 0.25408
 C495 C -0.19035 1.27431 0.31135
 C496 C -0.18480 1.21157 0.37704
 C497 C -0.13479 1.24063 0.20693
 C498 C -0.11178 1.19680 0.21831
 C499 C -0.10599 1.13936 0.28550
 C500 C -0.12328 1.12043 0.33844
 C501 C -0.08289 1.10236 0.29929
 C502 C -0.06560 1.12035 0.24687
 C503 C -0.07116 1.17173 0.17879
 C504 C -0.09437 1.20928 0.16424
 H505 H -0.15824 1.09825 0.43058
 H506 H -0.17895 1.33002 0.20473
 H507 H -0.20655 1.32583 0.30527
 H508 H -0.13926 1.28693 0.15618
 H509 H -0.11882 1.07408 0.38925
 H510 H -0.07820 1.05889 0.35059
 H511 H -0.04798 1.08756 0.25836
 H512 H -0.09878 1.24736 0.11140
 C513 C 0.66418 0.17494 0.36388
 C514 C 0.64788 0.19702 0.30866
 C515 C 0.65495 0.26545 0.24570
 C516 C 0.67846 0.30976 0.23937
 C517 C 0.69399 0.29808 0.29773
 C518 C 0.68689 0.23232 0.36128
 C519 C 0.63813 0.29414 0.19227
 C520 C 0.61417 0.25986 0.20287
 C521 C 0.60734 0.19226 0.26654
 C522 C 0.62422 0.15946 0.31815
 C523 C 0.58354 0.16218 0.27921
 C524 C 0.56648 0.19700 0.22930
 C525 C 0.57269 0.26605 0.16601
 C526 C 0.59674 0.29637 0.15274
 H527 H 0.65853 0.12181 0.41182
 H528 H 0.68439 0.36057 0.19108
 H529 H 0.71115 0.34551 0.29424
 H530 H 0.64349 0.34781 0.14421
 H531 H 0.61873 0.11027 0.36752
 H532 H 0.57798 0.11431 0.32882
 H533 H 0.54822 0.17298 0.24186
 H534 H 0.60182 0.35077 0.10471
 C535 C 0.16335 0.81837 0.37686
 C536 C 0.14627 0.80291 0.32360
 C537 C 0.15029 0.72214 0.26565
 C538 C 0.17121 0.65344 0.26428
 C539 C 0.18755 0.66305 0.32060
 C540 C 0.18382 0.74646 0.37719
 C541 C 0.13309 0.70962 0.21148
 C542 C 0.11145 0.77132 0.21731
 C543 C 0.10718 0.84504 0.27841
 C544 C 0.12481 0.86369 0.32955
 C545 C 0.08522 0.89888 0.28811
 C546 C 0.06765 0.88263 0.23714
 C547 C 0.07197 0.81727 0.17395
 C548 C 0.09392 0.76119 0.16375
 H549 H 0.16026 0.88308 0.42010
 H550 H 0.17449 0.58878 0.22126
 H551 H 0.20282 0.60318 0.32087
 H552 H 0.13629 0.64996 0.16605
 H553 H 0.12159 0.92303 0.37518
 H554 H 0.08164 0.95428 0.33498
 H555 H 0.05091 0.92741 0.24555
 H556 H 0.09727 0.71102 0.11483
   
