data_POSCAR
  _audit_creation_date              2014-09-24
  _audit_creation_method            'ToBaCCo'
  _symmetry_space_group_name_H-M    'P1'
  _symmetry_Int_Tables_number       1
  _symmetry_cell_setting            triclinic
  loop_
  _symmetry_equiv_pos_as_xyz
 x,y,z
_cell_length_a 45.7857
_cell_length_b 47.3191
_cell_length_c 47.2553
_cell_angle_alpha 92.965100
_cell_angle_beta 90.871300
_cell_angle_gamma 90.544400
loop_
  _atom_site_label
  _atom_site_type_symbol
  _atom_site_fract_x
  _atom_site_fract_y
  _atom_site_fract_z
C1 C 0.59422 0.63646 0.63124
 C2 C 0.61482 0.63463 0.60949
 C3 C 0.63437 0.61192 0.60739
 C4 C 0.63305 0.59088 0.62720
 C5 C 0.61298 0.59256 0.64958
 C6 C 0.59370 0.61555 0.65122
 H7 H 0.61555 0.65078 0.59420
 H8 H 0.64772 0.57324 0.62459
 H9 H 0.57798 0.61720 0.66816
 C10 C 0.90306 0.34078 0.12860
 C11 C 0.87852 0.33751 0.11026
 C12 C 0.85596 0.35741 0.11109
 C13 C 0.85741 0.38029 0.13131
 C14 C 0.88158 0.38386 0.14990
 C15 C 0.90443 0.36437 0.14792
 H16 H 0.87714 0.32028 0.09435
 H17 H 0.83989 0.39536 0.13239
 H18 H 0.92324 0.36737 0.16204
 C19 C 0.39938 0.14852 -0.12543
 C20 C 0.37675 0.15185 -0.10578
 C21 C 0.35180 0.13427 -0.10799
 C22 C 0.34951 0.11362 -0.13032
 C23 C 0.37219 0.10953 -0.14968
 C24 C 0.39714 0.12710 -0.14703
 H25 H 0.37857 0.16815 -0.08893
 H26 H 0.33014 0.10025 -0.13232
 H27 H 0.41447 0.12499 -0.16228
 C28 C 0.09118 0.85192 0.37003
 C29 C 0.08945 0.87460 0.35215
 C30 C 0.11342 0.89600 0.35007
 C31 C 0.13879 0.89136 0.36999
 C32 C 0.13902 0.86913 0.38842
 C33 C 0.11580 0.84965 0.38793
 H34 H 0.07042 0.87665 0.33849
 H35 H 0.15727 0.90569 0.36954
 H36 H 0.11685 0.83306 0.40278
 N37 N 0.09751 0.16095 0.11701
 N38 N 0.08630 0.14779 0.13822
 C39 C 0.05981 0.15857 0.14401
 C40 C 0.05434 0.17976 0.12571
 C41 C 0.07868 0.18073 0.10879
 H42 H 0.04567 0.15190 0.16058
 H43 H 0.08244 0.19467 0.09178
 Cu44 Cu 0.10776 0.11843 0.15668
 Cu45 Cu 0.13578 0.15176 0.10180
 Cu46 Cu 0.17757 0.10582 0.13998
 N47 N 0.13000 0.08922 0.17462
 N48 N 0.15739 0.08456 0.16806
 C49 C 0.16803 0.06419 0.18404
 C50 C 0.14615 0.05552 0.20148
 C51 C 0.12224 0.07183 0.19499
 H52 H 0.19014 0.05637 0.18319
 H53 H 0.10101 0.07144 0.20464
 N54 N 0.19134 0.12295 0.10545
 N55 N 0.17521 0.13985 0.09044
 C56 C 0.19032 0.14704 0.06758
 C57 C 0.21720 0.13395 0.06833
 C58 C 0.21710 0.11892 0.09257
 H59 H 0.18237 0.16080 0.05168
 H60 H 0.23441 0.10566 0.09999
 H61 H 0.13972 0.11125 0.11656
 H62 H 0.15161 0.14211 0.14048
 N63 N 0.40772 0.83040 0.59792
 N64 N 0.42151 0.83971 0.62122
 C65 C 0.44347 0.82194 0.62675
 C66 C 0.44330 0.80039 0.60577
 C67 C 0.42038 0.80645 0.58786
 H68 H 0.45844 0.82459 0.64460
 H69 H 0.41348 0.79431 0.56886
 Cu70 Cu 0.40947 0.87426 0.64183
 Cu71 Cu 0.37444 0.84995 0.58222
 Cu72 Cu 0.35251 0.91144 0.61853
 N73 N 0.39690 0.90887 0.66197
 N74 N 0.37462 0.92327 0.65269
 C75 C 0.37059 0.94620 0.67020
 C76 C 0.39151 0.94615 0.69164
 C77 C 0.40782 0.92221 0.68577
 H78 H 0.35376 0.96171 0.66737
 H79 H 0.42629 0.91517 0.69796
 N80 N 0.33292 0.89609 0.58357
 N81 N 0.34128 0.87269 0.56971
 C82 C 0.32379 0.86788 0.54674
 C83 C 0.30347 0.88931 0.54620
 C84 C 0.30990 0.90677 0.56979
 H85 H 0.32579 0.85018 0.53153
 H86 H 0.29858 0.92592 0.57630
 H87 H 0.38619 0.88984 0.59864
 H88 H 0.36093 0.86867 0.62020
 N89 N 0.90188 0.66374 0.38595
 N90 N 0.91364 0.64654 0.36668
 C91 C 0.93872 0.65811 0.35799
 C92 C 0.94275 0.68399 0.37246
 C93 C 0.91898 0.68693 0.39007
 H94 H 0.95310 0.64840 0.34245
 H95 H 0.91482 0.70419 0.40530
 Cu96 Cu 0.89549 0.61047 0.35496
 Cu97 Cu 0.86638 0.65396 0.40552
 Cu98 Cu 0.82923 0.59384 0.37984
 N99 N 0.87153 0.58025 0.33714
 N100 N 0.84580 0.57369 0.34702
 C101 C 0.83423 0.55197 0.33095
 C102 C 0.85368 0.54458 0.30986
 C103 C 0.87718 0.56299 0.31436
 H104 H 0.81319 0.54221 0.33430
 H105 H 0.89692 0.56382 0.30216
 N106 N 0.81614 0.61722 0.41283
 N107 N 0.83018 0.64031 0.42248
 C108 C 0.81617 0.65140 0.44526
 C109 C 0.79226 0.63448 0.45017
 C110 C 0.79283 0.61299 0.42919
 H111 H 0.82298 0.67022 0.45766
 H112 H 0.77761 0.59548 0.42614
 H113 H 0.86741 0.61055 0.39843
 H114 H 0.84974 0.63130 0.37025
 N115 N 0.59053 0.33956 -0.11382
 N116 N 0.57770 0.35337 -0.13393
 C117 C 0.55281 0.33975 -0.14213
 C118 C 0.54992 0.31611 -0.12644
 C119 C 0.57421 0.31661 -0.10860
 H120 H 0.53776 0.34660 -0.15820
 H121 H 0.57923 0.30193 -0.09248
 Cu122 Cu 0.59444 0.38775 -0.14783
 Cu123 Cu 0.62606 0.35370 -0.09435
 Cu124 Cu 0.65623 0.41523 -0.11869
 N125 N 0.61785 0.41516 -0.16710
 N126 N 0.64225 0.42556 -0.15568
 C127 C 0.65377 0.44438 -0.17285
 C128 C 0.63564 0.44586 -0.19631
 C129 C 0.61299 0.42699 -0.19205
 H130 H 0.67362 0.45647 -0.16838
 H131 H 0.59436 0.42228 -0.20586
 N132 N 0.67271 0.39565 -0.08662
 N133 N 0.66168 0.37198 -0.07747
 C134 C 0.67766 0.36439 -0.05492
 C135 C 0.69978 0.38427 -0.04989
 C136 C 0.69601 0.40364 -0.07039
 H137 H 0.67316 0.34616 -0.04277
 H138 H 0.70911 0.42244 -0.07299
 H139 H 0.61981 0.39511 -0.10187
 H140 H 0.64167 0.37450 -0.12868
 C141 C -0.07334 0.32188 0.12796
 C142 C -0.07330 0.29547 0.11316
 C143 C -0.04736 0.27710 0.11280
 C144 C -0.05121 0.24763 0.11188
 C145 C -0.02706 0.22978 0.11170
 C146 C 0.00143 0.24116 0.11197
 C147 C 0.00527 0.27060 0.11191
 C148 C -0.01888 0.28846 0.11254
 C149 C 0.02739 0.22286 0.11168
 C150 C 0.02803 0.19731 0.12507
 H151 H -0.09316 0.28668 0.10356
 H152 H -0.07298 0.23842 0.11160
 H153 H -0.03072 0.20713 0.11089
 H154 H 0.02702 0.27979 0.11169
 H155 H -0.01524 0.31109 0.11236
 H156 H 0.04722 0.23079 0.10256
 H157 H -0.05414 0.32765 0.14075
 H158 H 0.00932 0.19069 0.13690
 C159 C 0.57348 0.66028 0.63427
 C160 C 0.56471 0.67643 0.61175
 C161 C 0.54423 0.70044 0.61483
 C162 C 0.52963 0.70942 0.59062
 C163 C 0.51033 0.73213 0.59251
 C164 C 0.50523 0.74643 0.61880
 C165 C 0.52037 0.73788 0.64290
 C166 C 0.53966 0.71515 0.64101
 C167 C 0.48516 0.77077 0.62183
 C168 C 0.46299 0.77607 0.60226
 H169 H 0.57176 0.67037 0.59056
 H170 H 0.53317 0.69881 0.57010
 H171 H 0.49997 0.73864 0.57324
 H172 H 0.51726 0.74883 0.66332
 H173 H 0.55126 0.70961 0.66000
 H174 H 0.48732 0.78443 0.64085
 H175 H 0.56356 0.66406 0.65473
 H176 H 0.45921 0.76173 0.58400
 C177 C 1.06763 0.83248 0.36961
 C178 C 1.06800 0.80636 0.38226
 C179 C 1.04226 0.78721 0.38167
 C180 C 1.04652 0.75789 0.38159
 C181 C 1.02263 0.73927 0.38135
 C182 C 0.99398 0.74972 0.38156
 C183 C 0.98975 0.77907 0.38236
 C184 C 1.01363 0.79768 0.38224
 C185 C 0.96826 0.73068 0.38229
 C186 C 0.96809 0.70308 0.37040
 H187 H 1.08808 0.79831 0.39086
 H188 H 1.06840 0.74938 0.38165
 H189 H 1.02669 0.71680 0.38167
 H190 H 0.96789 0.78761 0.38302
 H191 H 1.00963 0.82021 0.38325
 H192 H 0.94843 0.73913 0.39144
 H193 H 1.04822 0.83744 0.35749
 H194 H 0.98673 0.69531 0.35866
 C195 C 0.42572 0.16691 -0.12383
 C196 C 0.42494 0.19530 -0.11429
 C197 C 0.45082 0.21427 -0.11423
 C198 C 0.44667 0.24334 -0.11687
 C199 C 0.47056 0.26192 -0.11694
 C200 C 0.49917 0.25177 -0.11411
 C201 C 0.50331 0.22280 -0.11069
 C202 C 0.47940 0.20415 -0.11091
 C203 C 0.52483 0.27106 -0.11364
 C204 C 0.52501 0.29617 -0.12787
 H205 H 0.40412 0.20463 -0.10888
 H206 H 0.42485 0.25169 -0.11907
 H207 H 0.46648 0.28425 -0.11865
 H208 H 0.52512 0.21455 -0.10800
 H209 H 0.48332 0.18197 -0.10798
 H210 H 0.54447 0.26473 -0.10272
 H211 H 0.44567 0.15850 -0.13278
 H212 H 0.50650 0.30135 -0.14107
 C213 C 0.11092 -0.07815 0.32716
 C214 C 0.13385 -0.05984 0.32191
 C215 C 0.13125 -0.03788 0.30088
 C216 C 0.15603 -0.02190 0.29452
 C217 C 0.15444 -0.00134 0.27436
 C218 C 0.12793 0.00362 0.26010
 C219 C 0.10299 -0.01194 0.26692
 C220 C 0.10461 -0.03260 0.28697
 C221 C 0.12535 0.02517 0.23859
 C222 C 0.14893 0.03406 0.22281
 H223 H 0.15459 -0.06215 0.33288
 H224 H 0.17673 -0.02537 0.30514
 H225 H 0.17391 0.01086 0.27039
 H226 H 0.08225 -0.00832 0.25646
 H227 H 0.08501 -0.04439 0.29152
 H228 H 0.10382 0.03323 0.23411
 H229 H 0.11345 -0.09069 0.33910
 H230 H 0.17014 0.02461 0.22548
 C231 C 0.61102 0.57207 -0.32988
 C232 C 0.63053 0.54973 -0.32688
 C233 C 0.62707 0.52864 -0.30507
 C234 C 0.65201 0.51563 -0.29434
 C235 C 0.64957 0.49589 -0.27346
 C236 C 0.62201 0.48859 -0.26313
 C237 C 0.59700 0.50075 -0.27469
 C238 C 0.59945 0.52068 -0.29538
 C239 C 0.61858 0.46824 -0.24065
 C240 C 0.63994 0.46456 -0.21986
 H241 H 0.65023 0.54845 -0.33913
 H242 H 0.67348 0.52097 -0.30191
 H243 H 0.66926 0.48620 -0.26575
 H244 H 0.57550 0.49509 -0.26742
 H245 H 0.57969 0.52949 -0.30398
 H246 H 0.59771 0.45753 -0.23917
 H247 H 0.59367 0.57431 -0.31461
 H248 H 0.65993 0.47695 -0.21972
 C249 C 0.36853 1.08743 0.82712
 C250 C 0.39185 1.07524 0.81232
 C251 C 0.38794 1.05344 0.78888
 C252 C 0.41144 1.03580 0.78167
 C253 C 0.40870 1.01512 0.75953
 C254 C 0.38229 1.01169 0.74406
 C255 C 0.35904 1.02979 0.75086
 C256 C 0.36176 1.05045 0.77299
 C257 C 0.37830 0.99031 0.72023
 C258 C 0.39624 0.96687 0.71567
 H259 H 0.41398 1.08062 0.81908
 H260 H 0.43202 1.03802 0.79323
 H261 H 0.42752 1.00233 0.75444
 H262 H 0.33863 1.02798 0.73897
 H263 H 0.34349 1.06429 0.77713
 H264 H 0.35971 0.99277 0.70618
 H265 H 0.34663 1.07946 0.82266
 H266 H 0.41400 0.96298 0.73022
 C267 C 0.88427 0.40801 0.17112
 C268 C 0.86052 0.42365 0.18129
 C269 C 0.86334 0.44739 0.20293
 C270 C 0.83859 0.45571 0.21825
 C271 C 0.84026 0.47782 0.23901
 C272 C 0.86691 0.49217 0.24493
 C273 C 0.89148 0.48435 0.22905
 C274 C 0.88977 0.46228 0.20823
 C275 C 0.87004 0.51557 0.26696
 C276 C 0.84949 0.52158 0.28791
 H277 H 0.83864 0.41722 0.17466
 H278 H 0.81783 0.44494 0.21423
 H279 H 0.82050 0.48362 0.24997
 H280 H 0.91216 0.49533 0.23280
 H281 H 0.90911 0.45734 0.19619
 H282 H 0.88998 0.52804 0.26718
 H283 H 0.90572 0.41240 0.18029
 H284 H 0.82984 0.50892 0.28901
 C285 C 0.32752 0.13713 -0.08773
 C286 C 0.33143 0.14718 -0.05960
 C287 C 0.30748 0.14804 -0.03887
 C288 C 0.31440 0.14663 -0.00997
 C289 C 0.29235 0.14672 0.01017
 C290 C 0.26284 0.14839 0.00175
 C291 C 0.25598 0.15088 -0.02704
 C292 C 0.27804 0.15062 -0.04721
 C293 C 0.23886 0.14809 0.02243
 C294 C 0.24131 0.13501 0.04814
 H295 H 0.35327 0.15230 -0.05173
 H296 H 0.33694 0.14513 -0.00295
 H297 H 0.29857 0.14583 0.03228
 H298 H 0.23346 0.15271 -0.03400
 H299 H 0.27194 0.15276 -0.06919
 H300 H 0.21810 0.15693 0.01639
 H301 H 0.30638 0.12870 -0.09461
 H302 H 0.26114 0.12407 0.05341
 C303 C 0.65576 0.60885 0.58421
 C304 C 0.66597 0.63149 0.56912
 C305 C 0.68708 0.62815 0.54577
 C306 C 0.70338 0.65181 0.53829
 C307 C 0.72338 0.64962 0.51625
 C308 C 0.72748 0.62357 0.50115
 C309 C 0.71067 0.60008 0.50821
 C310 C 0.69067 0.60228 0.53024
 C311 C 0.74836 0.62013 0.47758
 C312 C 0.77145 0.63886 0.47341
 H313 H 0.65965 0.65280 0.57559
 H314 H 0.70066 0.67210 0.54959
 H315 H 0.73509 0.66850 0.51094
 H316 H 0.71303 0.57988 0.49663
 H317 H 0.67778 0.58379 0.53459
 H318 H 0.74605 0.60136 0.46362
 H319 H 0.66496 0.58811 0.58003
 H320 H 0.77523 0.65697 0.48792
 C321 C 0.83131 0.35360 0.09043
 C322 C 0.81404 0.37595 0.08190
 C323 C 0.79068 0.37288 0.05984
 C324 C 0.78089 0.39728 0.04714
 C325 C 0.75942 0.39551 0.02580
 C326 C 0.74723 0.36916 0.01659
 C327 C 0.75619 0.34485 0.03000
 C328 C 0.77770 0.34662 0.05140
 C329 C 0.72488 0.36647 -0.00645
 C330 C 0.72224 0.38621 -0.02725
 H331 H 0.81922 0.39721 0.09006
 H332 H 0.79003 0.41785 0.05361
 H333 H 0.75227 0.41492 0.01690
 H334 H 0.74673 0.32438 0.02370
 H335 H 0.78378 0.32743 0.06134
 H336 H 0.71095 0.34782 -0.00770
 H337 H 0.82837 0.33287 0.07999
 H338 H 0.73738 0.40388 -0.02741
 C339 C 0.16373 0.86517 0.40845
 C340 C 0.18183 0.88733 0.41906
 C341 C 0.20563 0.88362 0.44013
 C342 C 0.21592 0.90738 0.45642
 C343 C 0.23819 0.90484 0.47666
 C344 C 0.25069 0.87833 0.48103
 C345 C 0.24094 0.85471 0.46419
 C346 C 0.21867 0.85726 0.44395
 C347 C 0.27432 0.87457 0.50225
 C348 C 0.27992 0.89357 0.52532
 H349 H 0.17718 0.90869 0.41334
 H350 H 0.20662 0.92802 0.45356
 H351 H 0.24576 0.92378 0.48840
 H352 H 0.25055 0.83414 0.46677
 H353 H 0.21216 0.83860 0.43115
 H354 H 0.28703 0.85544 0.50016
 H355 H 0.16614 0.84444 0.41677
 H356 H 0.26637 0.91196 0.52887
   
