data_POSCAR
  _audit_creation_date              2014-09-24
  _audit_creation_method            'ToBaCCo'
  _symmetry_space_group_name_H-M    'P1'
  _symmetry_Int_Tables_number       1
  _symmetry_cell_setting            triclinic
  loop_
  _symmetry_equiv_pos_as_xyz
 x,y,z
_cell_length_a 46.4756
_cell_length_b 45.9202
_cell_length_c 45.0158
_cell_angle_alpha 90.052800
_cell_angle_beta 90.024500
_cell_angle_gamma 90.528000
loop_
  _atom_site_label
  _atom_site_type_symbol
  _atom_site_fract_x
  _atom_site_fract_y
  _atom_site_fract_z
N1 N 0.59235 0.67362 0.61379
 N2 N 0.57887 0.65901 0.63478
 C3 C 0.55468 0.67323 0.64219
 C4 C 0.55306 0.69819 0.62507
 C5 C 0.57736 0.69773 0.60733
 H6 H 0.53963 0.66632 0.65912
 H7 H 0.58345 0.71353 0.59063
 Cu8 Cu 0.59530 0.62359 0.65097
 Cu9 Cu 0.62780 0.65984 0.59558
 Cu10 Cu 0.65671 0.59637 0.62448
 N11 N 0.61178 0.58846 0.66778
 N12 N 0.63621 0.57834 0.65760
 C13 C 0.64373 0.55486 0.67355
 C14 C 0.62286 0.54977 0.69508
 C15 C 0.60283 0.57166 0.69054
 H16 H 0.66305 0.54257 0.66959
 H17 H 0.58352 0.57558 0.70321
 N18 N 0.67413 0.61785 0.59099
 N19 N 0.66336 0.64214 0.58019
 C20 C 0.67969 0.65105 0.55715
 C21 C 0.70175 0.63137 0.55313
 C22 C 0.69752 0.61065 0.57505
 H23 H 0.67535 0.67000 0.54372
 H24 H 0.71045 0.59161 0.57902
 H25 H 0.62171 0.61622 0.60492
 H26 H 0.64257 0.63811 0.63256
 N27 N 0.90968 0.32795 0.11055
 N28 N 0.92061 0.33933 0.13488
 C29 C 0.94364 0.32373 0.14318
 C30 C 0.94760 0.30133 0.12283
 C31 C 0.92549 0.30489 0.10238
 H32 H 0.95666 0.32865 0.16244
 H33 H 0.92083 0.29157 0.08315
 Cu34 Cu 0.90394 0.37375 0.15302
 Cu35 Cu 0.87535 0.34343 0.09162
 Cu36 Cu 0.84498 0.40448 0.12392
 N37 N 0.88689 0.40818 0.17076
 N38 N 0.86371 0.41994 0.15935
 C39 C 0.85633 0.44323 0.17573
 C40 C 0.87600 0.44638 0.19867
 C41 C 0.89511 0.42372 0.19476
 H42 H 0.83821 0.45706 0.17101
 H43 H 0.91348 0.41877 0.20852
 N44 N 0.82918 0.38565 0.08803
 N45 N 0.84058 0.36229 0.07585
 C46 C 0.82467 0.35443 0.05208
 C47 C 0.80225 0.37385 0.04904
 C48 C 0.80586 0.39335 0.07223
 H49 H 0.82921 0.33608 0.03784
 H50 H 0.79220 0.41157 0.07749
 H51 H 0.88130 0.38584 0.10580
 H52 H 0.85808 0.36188 0.12942
 N53 N 0.40831 0.17137 -0.11044
 N54 N 0.42032 0.15896 -0.13359
 C55 C 0.44374 0.17457 -0.14158
 C56 C 0.44666 0.19795 -0.12231
 C57 C 0.42377 0.19515 -0.10280
 H58 H 0.45780 0.16918 -0.15984
 H59 H 0.41848 0.20957 -0.08465
 Cu60 Cu 0.40435 0.12351 -0.15092
 Cu61 Cu 0.37330 0.15607 -0.09226
 Cu62 Cu 0.34350 0.09375 -0.12363
 N63 N 0.38705 0.08884 -0.16858
 N64 N 0.36317 0.07745 -0.15791
 C65 C 0.35573 0.05402 -0.17426
 C66 C 0.37607 0.05040 -0.19641
 C67 C 0.39566 0.07294 -0.19206
 H68 H 0.33701 0.04048 -0.17012
 H69 H 0.41454 0.07765 -0.20527
 N70 N 0.32676 0.11343 -0.08887
 N71 N 0.33794 0.13729 -0.07708
 C72 C 0.32151 0.14555 -0.05397
 C73 C 0.29894 0.12588 -0.05096
 C74 C 0.30302 0.10581 -0.07349
 H75 H 0.32585 0.16430 -0.04009
 H76 H 0.28949 0.08719 -0.07851
 H77 H 0.37926 0.11318 -0.10445
 H78 H 0.35763 0.13612 -0.13023
 N79 N 0.09293 0.82617 0.38531
 N80 N 0.07887 0.84127 0.36533
 C81 C 0.05443 0.82693 0.35818
 C82 C 0.05315 0.80117 0.37435
 C83 C 0.07816 0.80154 0.39128
 H84 H 0.03909 0.83445 0.34193
 H85 H 0.08491 0.78555 0.40736
 Cu86 Cu 0.09498 0.87747 0.34994
 Cu87 Cu 0.12863 0.84024 0.40341
 Cu88 Cu 0.15662 0.90544 0.37636
 N89 N 0.11113 0.91333 0.33379
 N90 N 0.13554 0.92391 0.34410
 C91 C 0.14282 0.94786 0.32855
 C92 C 0.12188 0.95263 0.30724
 C93 C 0.10205 0.93025 0.31129
 H94 H 0.16206 0.96072 0.33241
 H95 H 0.08292 0.92612 0.29825
 N96 N 0.17466 0.88336 0.40887
 N97 N 0.16429 0.85837 0.41887
 C98 C 0.18101 0.84913 0.44136
 C99 C 0.20291 0.86931 0.44586
 C100 C 0.19818 0.89068 0.42478
 H101 H 0.17701 0.82962 0.45416
 H102 H 0.21084 0.91024 0.42138
 H103 H 0.12210 0.88399 0.39577
 H104 H 0.14266 0.86364 0.36702
 C105 C 0.10020 0.14815 0.12488
 N106 N 0.12092 0.14770 0.10360
 C107 C 0.14170 0.12707 0.10394
 N108 N 0.14152 0.10671 0.12582
 C109 C 0.12094 0.10683 0.14725
 N110 N 0.10038 0.12766 0.14664
 C111 C 0.39823 0.85050 0.62628
 N112 N 0.37673 0.84932 0.60583
 C113 C 0.35597 0.86995 0.60534
 N114 N 0.35675 0.89172 0.62578
 C115 C 0.37801 0.89315 0.64646
 N116 N 0.39879 0.87252 0.64646
 C117 C 0.89794 0.64845 0.37360
 N118 N 0.89873 0.62583 0.35414
 C119 C 0.87771 0.60506 0.35424
 N120 N 0.85601 0.60692 0.37435
 C121 C 0.85503 0.62929 0.39410
 N122 N 0.87600 0.65009 0.39345
 C123 C 0.60163 0.35356 -0.12516
 N124 N 0.62312 0.35342 -0.10467
 C125 C 0.64435 0.37396 -0.10528
 N126 N 0.64392 0.39478 -0.12670
 C127 C 0.62259 0.39526 -0.14732
 N128 N 0.60152 0.37458 -0.14640
 C129 C 0.01228 0.23658 0.12337
 C130 C -0.00681 0.23877 0.09936
 C131 C -0.02822 0.25995 0.09922
 C132 C -0.03085 0.27983 0.12297
 C133 C -0.01137 0.27760 0.14689
 C134 C 0.00976 0.25614 0.14714
 C135 C 0.03475 0.21390 0.12368
 C136 C 0.03933 0.19710 0.14927
 C137 C 0.06044 0.17563 0.14959
 C138 C 0.07767 0.17076 0.12443
 C139 C 0.07315 0.18771 0.09888
 C140 C 0.05178 0.20893 0.09845
 H141 H -0.04241 0.26068 0.08021
 H142 H -0.01238 0.29210 0.16577
 H143 H 0.06340 0.16301 0.16965
 H144 H 0.08600 0.18447 0.07911
 H145 H 0.02439 0.25505 0.16583
 H146 H 0.02632 0.20035 0.16893
 H147 H -0.00543 0.22378 0.08083
 H148 H 0.04880 0.22175 0.07853
 C149 C 0.48696 0.76308 0.62634
 C150 C 0.48070 0.73428 0.63476
 C151 C 0.50225 0.71325 0.63465
 C152 C 0.53034 0.72052 0.62560
 C153 C 0.53652 0.74930 0.61699
 C154 C 0.51509 0.77044 0.61760
 C155 C 0.46418 0.78538 0.62653
 C156 C 0.46902 0.81250 0.64016
 C157 C 0.44748 0.83355 0.64036
 C158 C 0.42088 0.82806 0.62647
 C159 C 0.41616 0.80095 0.61268
 C160 C 0.43752 0.77973 0.61294
 H161 H 0.49681 0.69120 0.64121
 H162 H 0.55802 0.75559 0.61012
 H163 H 0.45180 0.85425 0.65109
 H164 H 0.39585 0.79604 0.60189
 H165 H 0.52037 0.79249 0.61086
 H166 H 0.48937 0.81726 0.65093
 H167 H 0.45918 0.72815 0.64173
 H168 H 0.43339 0.75903 0.60212
 C169 C 0.98747 0.73643 0.37315
 C170 C 0.98328 0.76322 0.35902
 C171 C 1.00504 0.78444 0.35902
 C172 C 1.03133 0.77959 0.37384
 C173 C 1.03519 0.75261 0.38822
 C174 C 1.01364 0.73120 0.38755
 C175 C 0.96451 0.71398 0.37301
 C176 C 0.97021 0.68570 0.36291
 C177 C 0.94846 0.66448 0.36271
 C178 C 0.92080 0.67102 0.37326
 C179 C 0.91522 0.69929 0.38362
 C180 C 0.93681 0.72068 0.38317
 H181 H 1.00079 0.80478 0.34787
 H182 H 1.05499 0.74757 0.39964
 H183 H 0.95338 0.64284 0.35472
 H184 H 0.89406 0.70496 0.39175
 H185 H 1.01724 0.71064 0.39867
 H186 H 0.99144 0.68015 0.35489
 H187 H 0.96321 0.76762 0.34769
 H188 H 0.93203 0.74235 0.39117
 C189 C 0.51245 0.26464 -0.12317
 C190 C 0.50675 0.24798 -0.14872
 C191 C 0.48548 0.22627 -0.14840
 C192 C 0.46928 0.22092 -0.12259
 C193 C 0.47490 0.23769 -0.09707
 C194 C 0.49636 0.25923 -0.09732
 C195 C 0.53513 0.28757 -0.12352
 C196 C 0.55458 0.29036 -0.09977
 C197 C 0.57619 0.31173 -0.10030
 C198 C 0.57866 0.33095 -0.12450
 C199 C 0.55902 0.32826 -0.14814
 C200 C 0.53758 0.30673 -0.14771
 H201 H 0.48159 0.21392 -0.16851
 H202 H 0.46297 0.23401 -0.07676
 H203 H 0.59092 0.31320 -0.08171
 H204 H 0.56029 0.34268 -0.16713
 H205 H 0.50015 0.27192 -0.07738
 H206 H 0.55334 0.27570 -0.08098
 H207 H 0.51900 0.25151 -0.16888
 H208 H 0.52269 0.30526 -0.16617
 C209 C 0.12103 0.01924 0.23984
 C210 C 0.09575 0.00375 0.24696
 C211 C 0.09599 -0.01779 0.26888
 C212 C 0.12147 -0.02420 0.28430
 C213 C 0.14667 -0.00846 0.27735
 C214 C 0.14646 0.01294 0.25532
 C215 C 0.12096 0.04171 0.21617
 C216 C 0.14361 0.04339 0.19556
 C217 C 0.14357 0.06446 0.17320
 C218 C 0.12094 0.08446 0.17100
 C219 C 0.09831 0.08281 0.19168
 C220 C 0.09828 0.06161 0.21396
 H221 H 0.07614 -0.02930 0.27379
 H222 H 0.16673 -0.01288 0.28859
 H223 H 0.16134 0.06505 0.15765
 H224 H 0.08053 0.09785 0.19067
 H225 H 0.16620 0.02475 0.25053
 H226 H 0.16120 0.02811 0.19650
 H227 H 0.07588 0.00797 0.23522
 H228 H 0.08069 0.06102 0.22972
 C229 C 0.62206 0.48400 -0.23861
 C230 C 0.64566 0.48717 -0.25777
 C231 C 0.64581 0.50859 -0.27978
 C232 C 0.62244 0.52773 -0.28304
 C233 C 0.59877 0.52434 -0.26369
 C234 C 0.59855 0.50266 -0.24189
 C235 C 0.62209 0.46136 -0.21516
 C236 C 0.59769 0.44372 -0.21036
 C237 C 0.59787 0.42218 -0.18843
 C238 C 0.62236 0.41805 -0.17062
 C239 C 0.64669 0.43589 -0.17532
 C240 C 0.64659 0.45720 -0.19745
 H241 H 0.66457 0.51011 -0.29389
 H242 H 0.58018 0.53821 -0.26521
 H243 H 0.57875 0.40886 -0.18537
 H244 H 0.66592 0.43328 -0.16203
 H245 H 0.58015 0.50078 -0.22725
 H246 H 0.57860 0.44633 -0.22387
 H247 H 0.66395 0.47284 -0.25590
 H248 H 0.66559 0.47069 -0.20051
 C249 C 0.37763 0.98394 0.73593
 C250 C 0.35223 0.98966 0.75172
 C251 C 0.35175 1.01115 0.77370
 C252 C 0.37664 1.02754 0.78031
 C253 C 0.40204 1.02185 0.76445
 C254 C 0.40255 1.00022 0.74258
 C255 C 0.37806 0.96104 0.71267
 C256 C 0.40123 0.94169 0.71062
 C257 C 0.40131 0.91974 0.68907
 C258 C 0.37828 0.91675 0.66898
 C259 C 0.35527 0.93635 0.67086
 C260 C 0.35514 0.95818 0.69250
 H261 H 0.33176 1.01503 0.78528
 H262 H 0.42166 1.03388 0.76907
 H263 H 0.41938 0.90505 0.68827
 H264 H 0.33720 0.93475 0.65574
 H265 H 0.42237 0.99646 0.73060
 H266 H 0.41906 0.94320 0.72605
 H267 H 0.33276 0.97725 0.74730
 H268 H 0.33717 0.97301 0.69330
 C269 C 0.87749 0.51279 0.26639
 C270 C 0.85233 0.50717 0.24998
 C271 C 0.85186 0.48565 0.22802
 C272 C 0.87651 0.46913 0.22208
 C273 C 0.90165 0.47465 0.23862
 C274 C 0.90215 0.49632 0.26047
 C275 C 0.87797 0.53591 0.28944
 C276 C 0.90151 0.55519 0.29178
 C277 C 0.90155 0.57751 0.31293
 C278 C 0.87811 0.58092 0.33234
 C279 C 0.85477 0.56132 0.33025
 C280 C 0.85467 0.53913 0.30900
 H281 H 0.83207 0.48188 0.21590
 H282 H 0.92108 0.46249 0.23453
 H283 H 0.91990 0.59218 0.31392
 H284 H 0.83637 0.56323 0.34485
 H285 H 0.92178 0.50001 0.27294
 H286 H 0.91965 0.55340 0.27681
 H287 H 0.83307 0.51972 0.25384
 H288 H 0.83640 0.52435 0.30796
 C289 C 0.23129 0.12653 0.01448
 C290 C 0.23762 0.10095 -0.00126
 C291 C 0.25946 0.10078 -0.02258
 C292 C 0.27561 0.12615 -0.02850
 C293 C 0.26929 0.15173 -0.01272
 C294 C 0.24729 0.15195 0.00845
 C295 C 0.20821 0.12663 0.03724
 C296 C 0.18876 0.14981 0.03892
 C297 C 0.16705 0.14988 0.06041
 C298 C 0.16445 0.12686 0.08084
 C299 C 0.18396 0.10369 0.07914
 C300 C 0.20553 0.10354 0.05752
 H301 H 0.26385 0.08064 -0.03414
 H302 H 0.28113 0.17171 -0.01685
 H303 H 0.15241 0.16808 0.06107
 H304 H 0.18261 0.08560 0.09450
 H305 H 0.24305 0.17191 0.02043
 H306 H 0.19015 0.16775 0.02337
 H307 H 0.22546 0.08110 0.00273
 H308 H 0.22041 0.08553 0.05695
 C309 C 0.76643 0.63183 0.48452
 C310 C 0.76048 0.60637 0.50076
 C311 C 0.73966 0.60630 0.52312
 C312 C 0.72419 0.63166 0.52970
 C313 C 0.73020 0.65716 0.51349
 C314 C 0.75116 0.65726 0.49120
 C315 C 0.78855 0.63173 0.46075
 C316 C 0.80827 0.65493 0.45795
 C317 C 0.82968 0.65431 0.43614
 C318 C 0.83173 0.63053 0.41656
 C319 C 0.81164 0.60757 0.41909
 C320 C 0.79036 0.60815 0.44096
 H321 H 0.73552 0.58620 0.53494
 H322 H 0.71886 0.67714 0.51808
 H323 H 0.84476 0.67237 0.43483
 H324 H 0.81250 0.58895 0.40435
 H325 H 0.75515 0.67715 0.47891
 H326 H 0.80755 0.67327 0.47306
 H327 H 0.77215 0.58653 0.49635
 H328 H 0.77519 0.59015 0.44232
 C329 C 0.73527 0.37355 -0.01719
 C330 C 0.74167 0.39894 -0.00098
 C331 C 0.76336 0.39902 0.02053
 C332 C 0.77929 0.37374 0.02617
 C333 C 0.77297 0.34837 0.00983
 C334 C 0.75112 0.34824 -0.01153
 C335 C 0.71212 0.37349 -0.03989
 C336 C 0.69243 0.35016 -0.04176
 C337 C 0.67040 0.35032 -0.06291
 C338 C 0.66772 0.37372 -0.08283
 C339 C 0.68757 0.39696 -0.08105
 C340 C 0.70945 0.39688 -0.05975
 H341 H 0.76776 0.41900 0.03251
 H342 H 0.78466 0.32846 0.01373
 H343 H 0.65551 0.33206 -0.06366
 H344 H 0.68617 0.41533 -0.09603
 H345 H 0.74681 0.32842 -0.02387
 H346 H 0.69382 0.33198 -0.02653
 H347 H 0.72963 0.41869 -0.00468
 H348 H 0.72452 0.41501 -0.05903
 C349 C 0.26810 0.86841 0.51400
 C350 C 0.26195 0.89417 0.49854
 C351 C 0.24100 0.89439 0.47630
 C352 C 0.22559 0.86887 0.46905
 C353 C 0.23185 0.84305 0.48444
 C354 C 0.25293 0.84281 0.50661
 C355 C 0.29021 0.86836 0.53780
 C356 C 0.30995 0.84549 0.54006
 C357 C 0.33117 0.84586 0.56209
 C358 C 0.33303 0.86907 0.58244
 C359 C 0.31300 0.89175 0.58036
 C360 C 0.29189 0.89142 0.55827
 H361 H 0.23670 0.91472 0.46510
 H362 H 0.22058 0.82294 0.47933
 H363 H 0.34623 0.82803 0.56303
 H364 H 0.31371 0.90994 0.59568
 H365 H 0.25706 0.82267 0.51830
 H366 H 0.30933 0.82756 0.52442
 H367 H 0.27354 0.91416 0.50350
 H368 H 0.27671 0.90915 0.55734
   
