data_POSCAR
  _audit_creation_date              2014-09-24
  _audit_creation_method            'ToBaCCo'
  _symmetry_space_group_name_H-M    'P1'
  _symmetry_Int_Tables_number       1
  _symmetry_cell_setting            triclinic
  loop_
  _symmetry_equiv_pos_as_xyz
 x,y,z
_cell_length_a 25.3026
_cell_length_b 25.3029
_cell_length_c 25.3031
_cell_angle_alpha 90.238500
_cell_angle_beta 89.999900
_cell_angle_gamma 89.997800
loop_
  _atom_site_label
  _atom_site_type_symbol
  _atom_site_fract_x
  _atom_site_fract_y
  _atom_site_fract_z
C1 C 0.50030 1.00028 -0.64346
 C2 C 0.45308 1.00777 -0.61589
 C3 C 0.45321 1.00911 -0.56051
 C4 C 0.50030 1.00005 -0.53172
 C5 C 0.54738 0.99111 -0.56062
 C6 C 0.54752 0.99268 -0.61599
 C7 C 0.50030 0.99992 -0.47223
 C8 C 0.54735 1.00905 -0.44330
 C9 C 0.54743 1.00752 -0.38798
 C10 C 0.50030 0.99969 -0.36054
 C11 C 0.45317 0.99199 -0.38807
 C12 C 0.45325 0.99068 -0.44341
 H13 H 0.50030 1.00037 -0.68639
 H14 H 0.41639 1.01754 -0.54051
 H15 H 0.58420 0.98259 -0.54072
 H16 H 0.58420 1.01770 -0.46303
 H17 H 0.50030 0.99961 -0.31765
 H18 H 0.41639 0.98212 -0.46325
 C19 C -0.64347 1.49991 0.00029
 C20 C -0.61592 1.45275 0.00793
 C21 C -0.56054 1.45293 0.00938
 C22 C -0.53173 1.49997 0.00030
 C23 C -0.56060 1.54699 -0.00879
 C24 C -0.61597 1.54710 -0.00734
 C25 C -0.47223 1.50000 0.00030
 C26 C -0.44339 1.54712 0.00941
 C27 C -0.38806 1.54723 0.00799
 C28 C -0.36054 1.50007 0.00030
 C29 C -0.38800 1.45288 -0.00738
 C30 C -0.44334 1.45292 -0.00880
 H31 H -0.68640 1.49989 0.00029
 H32 H -0.54057 1.41617 0.01793
 H33 H -0.54067 1.58377 -0.01733
 H34 H -0.46320 1.58402 0.01794
 H35 H -0.31765 1.50009 0.00030
 H36 H -0.46310 1.41600 -0.01734
 C37 C 0.00018 0.35852 0.50000
 C38 C 0.00783 0.38591 0.45284
 C39 C 0.00926 0.44130 0.45308
 C40 C 0.00016 0.47024 0.50021
 C41 C -0.00893 0.44147 0.54721
 C42 C -0.00748 0.38615 0.54719
 C43 C 0.00013 0.52973 0.50036
 C44 C 0.00921 0.55869 0.54750
 C45 C 0.00773 0.61407 0.54773
 C46 C 0.00006 0.64145 0.50058
 C47 C -0.00758 0.61382 0.45338
 C48 C -0.00898 0.55850 0.45337
 H49 H 0.00017 0.31561 0.50007
 H50 H 0.01780 0.46116 0.41631
 H51 H -0.01746 0.46133 0.58412
 H52 H 0.01777 0.53883 0.58426
 H53 H 0.00001 0.68436 0.50050
 H54 H -0.01750 0.53863 0.41646
 O55 O -0.13561 1.00214 -0.07127
 O56 O 0.13628 0.99753 -0.07128
 O57 O -0.00186 1.07123 -0.13551
 O58 O 0.00251 0.92814 -0.13579
 O59 O 0.00244 0.86366 -0.07144
 O60 O -0.00181 1.13599 -0.07091
 O61 O 0.07178 0.99745 -0.13588
 O62 O -0.07112 1.00193 -0.13587
 Zr63 Zr 0.00033 0.99978 -0.09275
 O64 O 0.04815 0.95200 -0.04765
 O65 O -0.04749 1.04776 -0.04747
 C66 C -0.11981 1.00333 -0.11999
 C67 C 0.12047 0.99614 -0.12000
 C68 C -0.00314 1.11999 -0.11963
 C69 C 0.00377 0.87945 -0.12010
 H70 H 0.07075 1.07018 -0.06997
 O71 O 0.04818 1.04768 -0.04744
 H72 H -0.07011 0.92948 -0.07024
 O73 O -0.04753 0.95208 -0.04764
 O74 O 0.13629 1.00227 0.07182
 O75 O -0.13563 0.99801 0.07180
 O76 O 0.07192 1.13591 0.00275
 O77 O 0.07177 0.86398 -0.00217
 O78 O -0.07132 0.86409 0.00227
 O79 O -0.07117 1.13597 -0.00168
 O80 O 0.00257 1.07183 0.13638
 O81 O -0.00193 0.92875 0.13611
 O82 O 0.00258 1.13631 0.07203
 O83 O -0.00196 0.86399 0.07150
 O84 O 0.13652 1.07141 0.00260
 O85 O -0.13580 1.07151 -0.00179
 O86 O -0.13588 0.92863 0.00235
 O87 O 0.13644 0.92841 -0.00204
 O88 O 0.07183 1.00244 0.13645
 O89 O -0.07117 0.99813 0.13644
 Zr90 Zr 0.09338 0.99993 0.00028
 Zr91 Zr -0.09271 1.00004 0.00028
 Zr92 Zr 0.00037 1.09303 0.00047
 Zr93 Zr 0.00026 0.90694 0.00011
 Zr94 Zr 0.00033 1.00020 0.09334
 O95 O -0.04755 0.95228 0.04805
 O96 O 0.04820 1.04791 0.04823
 C97 C 0.12052 1.00368 0.12055
 C98 C -0.11986 0.99680 0.12053
 C99 C 0.12064 1.12011 0.00401
 C100 C 0.12051 0.87972 -0.00343
 C101 C -0.12003 0.87993 0.00360
 C102 C -0.11990 1.12019 -0.00303
 C103 C 0.00389 1.12052 0.12069
 C104 C -0.00326 0.87999 0.12022
 H105 H -0.07004 1.07058 0.07081
 O106 O -0.04748 1.04795 0.04821
 H107 H 0.07067 0.92972 0.07054
 O108 O 0.04812 0.95225 0.04802
 C109 C 0.32075 1.01487 0.29796
 N110 N 0.31327 1.05432 0.26263
 N111 N 0.27233 1.05298 0.22951
 C112 C 0.23769 1.01208 0.23064
 N113 N 0.24508 0.97270 0.26607
 N114 N 0.28602 0.97405 0.29919
 C115 C 0.36705 1.01414 0.33068
 C116 C 0.40697 1.01202 0.35660
 C117 C 0.19543 1.00918 0.19294
 C118 C 0.16079 1.00659 0.16032
 C119 C -0.32014 0.98580 0.29780
 N120 N -0.28568 1.02685 0.29908
 N121 N -0.24472 1.02820 0.26599
 C122 C -0.23706 0.98860 0.23054
 N123 N -0.27144 0.94747 0.22936
 N124 N -0.31239 0.94612 0.26245
 C125 C -0.36645 0.98646 0.33052
 C126 C -0.40638 0.98852 0.35646
 C127 C -0.19478 0.99147 0.19287
 C128 C -0.16014 0.99401 0.16029
 C129 C -0.31843 1.01481 -0.29912
 N130 N -0.31149 1.05409 -0.26315
 N131 N -0.27098 1.05262 -0.22952
 C132 C -0.23628 1.01177 -0.23074
 N133 N -0.24314 0.97257 -0.26680
 N134 N -0.28365 0.97404 -0.30043
 C135 C -0.36433 1.01418 -0.33240
 C136 C -0.40398 1.01212 -0.35873
 C137 C -0.19440 1.00882 -0.19264
 C138 C -0.15999 1.00620 -0.15983
 C139 C 0.31905 0.98449 -0.29927
 N140 N 0.28402 1.02504 -0.30051
 N141 N 0.24352 1.02650 -0.26686
 C142 C 0.23692 0.98751 -0.23084
 N143 N 0.27186 0.94688 -0.22970
 N144 N 0.31236 0.94543 -0.26335
 C145 C 0.36494 0.98518 -0.33256
 C146 C 0.40458 0.98730 -0.35887
 C147 C 0.19506 0.99049 -0.19271
 C148 C 0.16065 0.99316 -0.15986
 C149 C 0.29798 1.32041 0.01512
 N150 N 0.26248 1.31311 0.05458
 N151 N 0.22940 1.27214 0.05326
 C152 C 0.23072 1.23731 0.01239
 N153 N 0.26631 1.24452 -0.02700
 N154 N 0.29940 1.28549 -0.02567
 C155 C 0.33067 1.36673 0.01436
 C156 C 0.35657 1.40666 0.01221
 C157 C 0.19303 1.19502 0.00950
 C158 C 0.16043 1.16037 0.00691
 C159 C 0.29779 0.67936 -0.01455
 N160 N 0.26210 0.68650 -0.05386
 N161 N 0.22900 0.72746 -0.05254
 C162 C 0.23051 0.76245 -0.01182
 N163 N 0.26630 0.75540 0.02742
 N164 N 0.29940 0.71444 0.02610
 C165 C 0.33053 0.63307 -0.01379
 C166 C 0.35647 0.59316 -0.01163
 C167 C 0.19284 0.80475 -0.00893
 C168 C 0.16026 0.83942 -0.00634
 C169 C -0.29928 0.68143 0.01516
 N170 N -0.30026 0.71588 -0.02575
 N171 N -0.26662 0.75638 -0.02724
 C172 C -0.23087 0.76355 0.01208
 N173 N -0.22999 0.72918 0.05307
 N174 N -0.26363 0.68869 0.05455
 C175 C -0.33255 0.63553 0.01457
 C176 C -0.35886 0.59585 0.01255
 C177 C -0.19274 0.80539 0.00910
 C178 C -0.15990 0.83978 0.00648
 C179 C -0.29909 1.31875 -0.01458
 N180 N -0.26327 1.31165 -0.05384
 N181 N -0.22962 1.27116 -0.05236
 C182 C -0.23066 1.23665 -0.01150
 N183 N -0.26658 1.24367 0.02769
 N184 N -0.30024 1.28415 0.02620
 C185 C -0.33240 1.36463 -0.01398
 C186 C -0.35874 1.40428 -0.01195
 C187 C -0.19255 1.19479 -0.00852
 C188 C -0.15972 1.16038 -0.00590
 C189 C 0.01506 1.29908 0.32061
 N190 N -0.02567 1.30035 0.28578
 N191 N -0.02702 1.26694 0.24495
 C192 C 0.01226 1.23116 0.23778
 N193 N 0.05307 1.22999 0.27252
 N194 N 0.05442 1.26340 0.31335
 C195 C 0.01430 1.33210 0.36683
 C196 C 0.01213 1.35823 0.40673
 C197 C 0.00937 1.19319 0.19560
 C198 C 0.00678 1.16042 0.16100
 C199 C -0.01463 1.29798 -0.31857
 N200 N -0.05402 1.26239 -0.31138
 N201 N -0.05257 1.22905 -0.27076
 C202 C -0.01161 1.23021 -0.23619
 N203 N 0.02771 1.26589 -0.24329
 N204 N 0.02625 1.29923 -0.28391
 C205 C -0.01403 1.33096 -0.36455
 C206 C -0.01202 1.35708 -0.40423
 C207 C -0.00865 1.19237 -0.19422
 C208 C -0.00603 1.15971 -0.15978
 C209 C 0.01491 0.70090 -0.32003
 N210 N 0.05433 0.73650 -0.31270
 N211 N 0.05298 0.76990 -0.27186
 C212 C 0.01210 0.76882 -0.23720
 N213 N -0.02724 0.73312 -0.24444
 N214 N -0.02588 0.69971 -0.28528
 C215 C 0.01417 0.66788 -0.36626
 C216 C 0.01202 0.64176 -0.40616
 C217 C 0.00921 0.80678 -0.19502
 C218 C 0.00664 0.83955 -0.16041
 C219 C -0.01479 0.70199 0.31915
 N220 N 0.02601 0.70063 0.28439
 N221 N 0.02747 0.73398 0.24378
 C222 C -0.01178 0.76977 0.23677
 N223 N -0.05265 0.77103 0.27144
 N224 N -0.05410 0.73769 0.31205
 C225 C -0.01417 0.66901 0.36512
 C226 C -0.01214 0.64289 0.40481
 C227 C -0.00881 0.80761 0.19481
 C228 C -0.00618 0.84027 0.16036
   
