data_POSCAR
  _audit_creation_date              2014-09-24
  _audit_creation_method            'ToBaCCo'
  _symmetry_space_group_name_H-M    'P1'
  _symmetry_Int_Tables_number       1
  _symmetry_cell_setting            triclinic
  loop_
  _symmetry_equiv_pos_as_xyz
 x,y,z
_cell_length_a 31.3656
_cell_length_b 31.1548
_cell_length_c 41.3220
_cell_angle_alpha 90.229600
_cell_angle_beta 89.742700
_cell_angle_gamma 90.307200
loop_
  _atom_site_label
  _atom_site_type_symbol
  _atom_site_fract_x
  _atom_site_fract_y
  _atom_site_fract_z
C1 C -0.00086 0.54148 1.01702
 C2 C 0.00777 0.54122 0.98300
 C3 C 0.01361 0.50142 0.96733
 C4 C 0.00928 0.46229 0.98364
 C5 C 0.00059 0.46217 1.01739
 C6 C -0.00550 0.50186 1.03314
 H7 H -0.00932 0.50205 1.05921
 H8 H 0.01778 0.50042 0.94127
 C9 C 0.46039 -0.00806 0.51661
 C10 C 0.46045 -0.00211 0.48274
 C11 C 0.49940 0.00020 0.46603
 C12 C 0.53881 -0.00421 0.48201
 C13 C 0.53839 -0.00939 0.51627
 C14 C 0.49928 -0.01186 0.53283
 H15 H 0.49913 -0.01474 0.55898
 H16 H 0.49857 0.00279 0.43990
 C17 C 0.08797 0.00894 0.26409
 H18 H 0.09012 0.00999 0.23797
 C19 C 0.12502 0.01034 0.28266
 H20 H 0.15569 0.01193 0.27058
 C21 C 0.04521 0.00484 0.31140
 H22 H 0.01405 0.00335 0.32256
 C23 C 0.08144 0.00615 0.33091
 H24 H 0.07769 0.00565 0.35696
 N25 N 0.04912 0.00550 0.27861
 C26 C -0.03230 -0.05583 0.20643
 H27 H -0.05828 -0.03317 0.20549
 C28 C -0.03339 -0.09281 0.18724
 H29 H -0.06014 -0.09812 0.17122
 C30 C 0.03428 -0.07605 0.22834
 H31 H 0.06025 -0.06989 0.24480
 C32 C 0.03451 -0.11340 0.20957
 H33 H 0.06078 -0.13558 0.21185
 Zn34 Zn 0.00063 0.00293 0.25149
 N35 N 0.00148 -0.04784 0.22612
 C36 C 0.00196 0.04862 0.19191
 N37 N 0.00209 0.05214 0.22473
 C38 C 0.00420 0.09115 0.23955
 C39 C 0.00479 0.12871 0.22125
 C40 C 0.00257 0.08537 0.17267
 C41 C -0.05731 -0.03241 0.29600
 C42 C -0.09422 -0.03472 0.31496
 C43 C -0.11636 0.03318 0.29277
 C44 C -0.07906 0.03418 0.27424
 N45 N -0.05012 0.00198 0.27652
 H46 H 0.00125 0.01738 0.18053
 H47 H 0.00508 0.09299 0.26569
 H48 H 0.00649 0.15944 0.23351
 H49 H 0.00148 0.08192 0.14660
 H50 H -0.03407 -0.05790 0.29698
 H51 H -0.09891 -0.06191 0.33084
 H52 H -0.13911 0.05900 0.29045
 H53 H -0.07350 0.06062 0.25792
 C54 C 0.00047 -0.12208 0.18853
 C55 C 0.12206 0.00860 0.31656
 C56 C -0.12423 -0.00147 0.31363
 C57 C 0.00368 0.12612 0.18732
 C58 C -0.00534 0.08809 0.76062
 H59 H -0.00674 0.08981 0.73450
 C60 C -0.00534 0.12575 0.77904
 H61 H -0.00622 0.15643 0.76685
 C62 C -0.00178 0.04584 0.80807
 H63 H -0.00103 0.01465 0.81934
 C64 C -0.00168 0.08268 0.82742
 H65 H -0.00090 0.07936 0.85349
 N66 N -0.00287 0.04919 0.77527
 C67 C 0.05472 -0.03525 0.70299
 H68 H 0.03140 -0.06095 0.70220
 C69 C 0.09137 -0.03748 0.68374
 H70 H 0.09576 -0.06480 0.66782
 C71 C 0.07704 0.03166 0.72467
 H72 H 0.07184 0.05817 0.74109
 C73 C 0.11408 0.03076 0.70584
 H74 H 0.13698 0.05673 0.70803
 Zn75 Zn -0.00218 -0.00017 0.74835
 N76 N 0.04797 -0.00078 0.72261
 C77 C -0.04845 0.00077 0.68916
 N78 N -0.05139 0.00174 0.72201
 C79 C -0.08980 0.00497 0.73719
 C80 C -0.12740 0.00583 0.71925
 C81 C -0.08525 0.00161 0.67028
 C82 C 0.03193 -0.05835 0.79270
 C83 C 0.03355 -0.09525 0.81173
 C84 C -0.03497 -0.11665 0.79043
 C85 C -0.03527 -0.07936 0.77181
 N86 N -0.00239 -0.05081 0.77360
 H87 H -0.01763 -0.00083 0.67749
 H88 H -0.09117 0.00649 0.76333
 H89 H -0.15766 0.00837 0.73181
 H90 H -0.08230 -0.00022 0.64420
 H91 H 0.05794 -0.03542 0.79331
 H92 H 0.06075 -0.10020 0.82729
 H93 H -0.06130 -0.13911 0.78850
 H94 H -0.06169 -0.07354 0.75580
 C95 C 0.12156 -0.00405 0.68491
 C96 C -0.00315 0.12335 0.81293
 C97 C -0.00033 -0.12489 0.81087
 C98 C -0.12544 0.00380 0.68532
 C99 C 0.00032 -0.34530 0.07454
 C100 C 0.02981 -0.35017 0.04934
 C101 C 0.02962 -0.38745 0.03041
 C102 C -0.00049 -0.42048 0.03611
 C103 C -0.02946 -0.41533 0.06210
 C104 C -0.02916 -0.37800 0.08095
 C105 C 0.00039 -0.30683 0.09392
 C106 C 0.00034 -0.27464 0.11021
 C107 C 0.00029 -0.23627 0.12972
 C108 C 0.03805 -0.21292 0.13414
 C109 C 0.03811 -0.17577 0.15322
 C110 C 0.00032 -0.16145 0.16814
 C111 C -0.03752 -0.18511 0.16347
 C112 C -0.03749 -0.22228 0.14439
 H113 H 0.05315 -0.32525 0.04443
 H114 H 0.05379 -0.39077 0.01179
 H115 H -0.05345 -0.43953 0.06722
 H116 H -0.05213 -0.37455 0.10044
 H117 H 0.06745 -0.22340 0.12281
 H118 H 0.06762 -0.15796 0.15598
 H119 H -0.06699 -0.17524 0.17495
 H120 H -0.06688 -0.24020 0.14120
 C121 C 0.00066 0.34880 0.07413
 C122 C -0.02841 0.38152 0.08087
 C123 C -0.02852 0.41882 0.06218
 C124 C 0.00026 0.42395 0.03605
 C125 C 0.02975 0.39074 0.02992
 C126 C 0.02975 0.35352 0.04867
 C127 C 0.00105 0.31060 0.09357
 C128 C 0.00153 0.27859 0.10987
 C129 C 0.00220 0.24041 0.12932
 C130 C -0.02146 0.23850 0.15807
 C131 C -0.02088 0.20141 0.17699
 C132 C 0.00340 0.16567 0.16736
 C133 C 0.02712 0.16793 0.13842
 C134 C 0.02652 0.20508 0.11956
 H135 H -0.05111 0.37818 0.10056
 H136 H -0.05215 0.44304 0.06764
 H137 H 0.05408 0.39405 0.01145
 H138 H 0.05284 0.32863 0.04354
 H139 H -0.04048 0.26563 0.16581
 H140 H -0.03994 0.20046 0.19889
 H141 H 0.04654 0.14119 0.13057
 H142 H 0.04506 0.20628 0.09739
 C143 C 0.34486 -0.00866 0.57273
 C144 C 0.37349 -0.04284 0.57502
 C145 C 0.41115 -0.04259 0.55679
 C146 C 0.42042 -0.00824 0.53594
 C147 C 0.39172 0.02613 0.53397
 C148 C 0.35408 0.02582 0.55219
 C149 C 0.30625 -0.00871 0.59166
 C150 C 0.27394 -0.00840 0.60757
 C151 C 0.23545 -0.00757 0.62664
 C152 C 0.22020 -0.04509 0.64129
 C153 C 0.18304 -0.04407 0.66012
 C154 C 0.16070 -0.00542 0.66457
 C155 C 0.17622 0.03207 0.64960
 C156 C 0.21333 0.03096 0.63078
 H157 H 0.36671 -0.06963 0.59091
 H158 H 0.43290 -0.06933 0.55869
 H159 H 0.39858 0.05324 0.51844
 H160 H 0.33225 0.05253 0.55036
 H161 H 0.23715 -0.07507 0.63831
 H162 H 0.17221 -0.07334 0.67163
 H163 H 0.15944 0.06218 0.65219
 H164 H 0.22479 0.06017 0.61947
 C165 C -0.34814 -0.00287 0.57394
 C166 C -0.37642 -0.03752 0.57732
 C167 C -0.41341 -0.03957 0.55862
 C168 C -0.42234 -0.00711 0.53617
 C169 C -0.39409 0.02785 0.53320
 C170 C -0.35710 0.02984 0.55190
 C171 C -0.30997 -0.00095 0.59308
 C172 C -0.27801 0.00043 0.60916
 C173 C -0.23989 0.00177 0.62840
 C174 C -0.23807 -0.02108 0.65744
 C175 C -0.20095 -0.02025 0.67602
 C176 C -0.16507 0.00348 0.66578
 C177 C -0.16728 0.02646 0.63658
 C178 C -0.20447 0.02559 0.61804
 H179 H -0.36982 -0.06296 0.59434
 H180 H -0.43484 -0.06671 0.56134
 H181 H -0.40071 0.05352 0.51639
 H182 H -0.33552 0.05687 0.54918
 H183 H -0.26527 -0.03976 0.66562
 H184 H -0.20007 -0.03875 0.69813
 H185 H -0.14040 0.04543 0.62824
 H186 H -0.20558 0.04348 0.59563
 C187 C 0.00361 -0.34708 0.92459
 C188 C 0.03381 -0.37891 0.91834
 C189 C 0.03503 -0.41579 0.93744
 C190 C 0.00629 -0.42132 0.96353
 C191 C -0.02462 -0.38926 0.96901
 C192 C -0.02573 -0.35243 0.94984
 C193 C 0.00277 -0.30893 0.90509
 C194 C 0.00222 -0.27696 0.88876
 C195 C 0.00162 -0.23880 0.86927
 C196 C 0.03895 -0.22446 0.85400
 C197 C 0.03839 -0.18739 0.83504
 C198 C 0.00041 -0.16419 0.83108
 C199 C -0.03694 -0.17889 0.84657
 C200 C -0.03630 -0.21593 0.86553
 H201 H 0.05668 -0.37508 0.89882
 H202 H 0.05959 -0.43924 0.93245
 H203 H -0.04867 -0.39299 0.98768
 H204 H -0.04963 -0.32821 0.95463
 H205 H 0.06846 -0.24199 0.85667
 H206 H 0.06753 -0.17723 0.82311
 H207 H -0.06654 -0.16143 0.84435
 H208 H -0.06534 -0.22668 0.87733
 C209 C 0.00509 0.34773 0.92548
 C210 C -0.02875 0.35747 0.94640
 C211 C -0.02744 0.39477 0.96526
 C212 C 0.00795 0.42258 0.96360
 C213 C 0.04161 0.41284 0.94230
 C214 C 0.04023 0.37551 0.92342
 C215 C 0.00366 0.30926 0.90611
 C216 C 0.00236 0.27698 0.88995
 C217 C 0.00079 0.23841 0.87072
 C218 C -0.02613 0.23587 0.84386
 C219 C -0.02757 0.19844 0.82510
 C220 C -0.00206 0.16299 0.83301
 C221 C 0.02482 0.16585 0.86012
 C222 C 0.02622 0.20332 0.87882
 H223 H -0.05617 0.33629 0.94808
 H224 H -0.05403 0.40201 0.98115
 H225 H 0.06909 0.43392 0.94058
 H226 H 0.06655 0.36830 0.90726
 H227 H -0.04606 0.26280 0.83743
 H228 H -0.04897 0.19705 0.80463
 H229 H 0.04526 0.13936 0.86658
 H230 H 0.04725 0.20498 0.89952
 C231 C -0.34762 -0.00594 0.42572
 C232 C -0.35212 -0.03351 0.45212
 C233 C -0.38951 -0.03316 0.47065
 C234 C -0.42307 -0.00478 0.46333
 C235 C -0.41823 0.02224 0.43617
 C236 C -0.38079 0.02179 0.41772
 C237 C -0.30901 -0.00604 0.40679
 C238 C -0.27672 -0.00576 0.39085
 C239 C -0.23826 -0.00493 0.37176
 C240 C -0.22321 -0.04253 0.35712
 C241 C -0.18604 -0.04152 0.33830
 C242 C -0.16349 -0.00280 0.33384
 C243 C -0.17884 0.03478 0.34877
 C244 C -0.21596 0.03368 0.36759
 H245 H -0.32685 -0.05558 0.45826
 H246 H -0.39256 -0.05627 0.49000
 H247 H -0.44273 0.04500 0.42976
 H248 H -0.37762 0.04332 0.39731
 H249 H -0.24031 -0.07257 0.36012
 H250 H -0.17534 -0.07087 0.32681
 H251 H -0.16188 0.06494 0.34620
 H252 H -0.22727 0.06296 0.37888
 C253 C 0.34484 0.00365 0.42774
 C254 C 0.37524 0.03655 0.42522
 C255 C 0.41289 0.03464 0.44313
 C256 C 0.42039 -0.00012 0.46387
 C257 C 0.38987 -0.03319 0.46609
 C258 C 0.35223 -0.03121 0.44819
 C259 C 0.30628 0.00541 0.40906
 C260 C 0.27405 0.00666 0.39333
 C261 C 0.23565 0.00781 0.37443
 C262 C 0.23309 0.03471 0.34747
 C263 C 0.19608 0.03523 0.32875
 C264 C 0.16109 0.00881 0.33678
 C265 C 0.16391 -0.01791 0.36406
 C266 C 0.20096 -0.01840 0.38273
 H267 H 0.36988 0.06362 0.40940
 H268 H 0.43605 0.06040 0.44104
 H269 H 0.39532 -0.06059 0.48155
 H270 H 0.32901 -0.05694 0.45019
 H271 H 0.25974 0.05519 0.34088
 H272 H 0.19470 0.05654 0.30815
 H273 H 0.13778 -0.03904 0.37062
 H274 H 0.20267 -0.03946 0.40348
   
