data_POSCAR
  _audit_creation_date              2014-09-24
  _audit_creation_method            'ToBaCCo'
  _symmetry_space_group_name_H-M    'P1'
  _symmetry_Int_Tables_number       1
  _symmetry_cell_setting            triclinic
  loop_
  _symmetry_equiv_pos_as_xyz
 x,y,z
_cell_length_a 26.9834
_cell_length_b 27.6255
_cell_length_c 26.8090
_cell_angle_alpha 89.728300
_cell_angle_beta 89.793200
_cell_angle_gamma 91.369600
loop_
  _atom_site_label
  _atom_site_type_symbol
  _atom_site_fract_x
  _atom_site_fract_y
  _atom_site_fract_z
C1 C 0.18034 0.18938 0.25320
 C2 C 0.22017 0.16450 0.23253
 C3 C 0.24420 0.18252 0.18957
 C4 C 0.22852 0.22561 0.16750
 C5 C 0.18881 0.25040 0.18823
 C6 C 0.16489 0.23242 0.23112
 H7 H 0.23141 0.13047 0.24890
 H8 H 0.24601 0.23899 0.13345
 H9 H 0.13313 0.25096 0.24609
 C10 C -0.20107 0.79422 0.25402
 C11 C -0.18276 0.75216 0.23246
 C12 C -0.19986 0.73696 0.18565
 C13 C -0.23561 0.76377 0.16043
 C14 C -0.25409 0.80580 0.18215
 C15 C -0.23697 0.82075 0.22898
 H16 H -0.15355 0.73258 0.25086
 H17 H -0.24762 0.75299 0.12348
 H18 H -0.25012 0.85417 0.24491
 C19 C -0.19327 0.19775 -0.27242
 C20 C -0.17431 0.23773 -0.24632
 C21 C -0.19831 0.25382 -0.20336
 C22 C -0.24195 0.23016 -0.18666
 C23 C -0.26138 0.19016 -0.21301
 C24 C -0.23698 0.17414 -0.25597
 H25 H -0.13958 0.25497 -0.25803
 H26 H -0.25952 0.24168 -0.15240
 H27 H -0.25078 0.14213 -0.27530
 C28 C 0.19570 0.79430 -0.27709
 C29 C 0.17955 0.75097 -0.25437
 C30 C 0.20365 0.73368 -0.21183
 C31 C 0.24430 0.75987 -0.19213
 C32 C 0.26069 0.80333 -0.21497
 C33 C 0.23641 0.82021 -0.25756
 H34 H 0.14691 0.73190 -0.26840
 H35 H 0.26180 0.74742 -0.15819
 H36 H 0.24780 0.85456 -0.27433
 C37 C 0.19448 1.19381 0.76084
 C38 C 0.17606 1.23874 0.77502
 C39 C 0.20005 1.26602 0.81224
 C40 C 0.24268 1.24828 0.83519
 C41 C 0.26119 1.20339 0.82090
 C42 C 0.23717 1.17643 0.78360
 H43 H 0.14216 1.25160 0.75850
 H44 H 0.26021 1.26837 0.86525
 H45 H 0.25065 1.14108 0.77358
 C46 C 0.79581 0.81160 0.75781
 C47 C 0.81953 0.77124 0.77745
 C48 C 0.79997 0.74723 0.81957
 C49 C 0.75630 0.76334 0.84186
 C50 C 0.73242 0.80359 0.82213
 C51 C 0.75210 0.82759 0.78004
 H52 H 0.85416 0.75963 0.76114
 H53 H 0.74198 0.74588 0.87545
 H54 H 0.73446 0.85975 0.76589
 C55 C 0.21453 0.80624 1.28383
 C56 C 0.25989 0.82062 1.26192
 C57 C 0.27652 0.79752 1.21874
 C58 C 0.24832 0.75981 1.19788
 C59 C 0.20289 0.74567 1.21916
 C60 C 0.18600 0.76861 1.26234
 H61 H 0.28079 0.85137 1.27665
 H62 H 0.26019 0.74357 1.16318
 H63 H 0.14981 0.75883 1.27757
 C64 C 0.81600 1.19191 1.24902
 C65 C 0.83738 1.23622 1.23310
 C66 C 0.81288 1.26463 1.19776
 C67 C 0.76715 1.24886 1.17855
 C68 C 0.74593 1.20471 1.19424
 C69 C 0.77016 1.17639 1.22962
 H70 H 0.87349 1.24783 1.24684
 H71 H 0.74918 1.26988 1.14983
 H72 H 0.75412 1.14155 1.24069
 O73 O 0.52099 0.93930 0.92890
 O74 O 0.45182 0.95999 1.09997
 O75 O 0.60112 0.98915 1.04322
 O76 O 0.43121 0.94025 0.94426
 O77 O 0.54478 0.95531 1.09273
 O78 O 0.45503 0.97813 0.87692
 O79 O 0.43136 0.92506 1.03183
 O80 O 0.58970 0.97424 0.95404
 C81 C 0.56697 0.93834 0.93489
 C82 C 0.43332 0.92462 1.07786
 C83 C 0.58812 0.95777 1.07577
 C84 C 0.42412 0.94786 0.89821
 O85 O 0.46707 1.05846 0.92297
 O86 O 0.55129 1.04772 1.09796
 O87 O 0.55805 1.06898 0.94460
 O88 O 0.39896 1.01643 1.05065
 O89 O 0.45802 1.05335 1.09334
 O90 O 0.54339 1.01993 0.88775
 O91 O 0.40172 1.03271 0.96099
 O92 O 0.56799 1.08173 1.02849
 Co93 Co 0.49253 0.99859 0.92908
 Co94 Co 0.50115 1.00423 1.08706
 Co95 Co 0.57321 1.02655 0.99319
 Co96 Co 0.42292 0.98097 0.99745
 O97 O 0.49957 1.00427 1.00463
 C98 C 0.42299 1.06390 0.93410
 C99 C 0.57009 1.08204 1.07426
 C100 C 0.56517 1.05765 0.90075
 C101 C 0.41343 1.04887 1.08095
 O102 O 0.07164 0.46641 0.07369
 O103 O 0.03519 0.54968 -0.09990
 O104 O 0.05994 0.42596 -0.03565
 O105 O 0.03951 0.62662 0.03522
 O106 O 0.03566 0.46138 -0.10143
 O107 O 0.06822 0.55894 0.06969
 O108 O 0.07351 0.57737 -0.03412
 O109 O 0.02975 0.40402 0.04569
 C110 C 0.06553 0.42139 0.07011
 C111 C 0.07228 0.57122 -0.08024
 C112 C 0.06542 0.43422 -0.08046
 C113 C 0.06462 0.60524 0.07013
 O114 O -0.02846 0.55144 0.09457
 O115 O -0.05962 0.45367 -0.07056
 O116 O -0.05918 0.42916 0.02752
 O117 O -0.01510 0.60781 -0.05480
 O118 O -0.06166 0.54508 -0.06955
 O119 O -0.02564 0.46076 0.09495
 O120 O -0.04536 0.59008 0.02721
 O121 O -0.02492 0.38544 -0.04368
 Co122 Co 0.02025 0.50911 0.07607
 Co123 Co -0.01142 0.50305 -0.07894
 Co124 Co -0.00016 0.43347 -0.00677
 Co125 Co 0.01433 0.57859 -0.00170
 O126 O 0.00613 0.50611 -0.00252
 C127 C -0.05419 0.58145 0.07183
 C128 C -0.05606 0.40727 -0.07299
 C129 C -0.05904 0.43478 0.07408
 C130 C -0.05401 0.58989 -0.07320
 O131 O 1.06221 0.06710 0.46960
 O132 O 0.90310 0.03957 0.54593
 O133 O 0.95374 0.01115 0.39444
 O134 O 1.03293 0.01625 0.62648
 O135 O 0.90358 0.04219 0.45102
 O136 O 1.06323 0.05483 0.56083
 O137 O 0.97606 0.06068 0.57156
 O138 O 1.04320 0.02327 0.40476
 C139 C 1.05883 0.06259 0.42342
 C140 C 0.93100 0.06854 0.56870
 C141 C 0.92052 0.04073 0.40723
 C142 C 1.06620 0.04662 0.60760
 O143 O 1.08920 -0.03813 0.54534
 O144 O 0.89573 -0.05002 0.44884
 O145 O 1.04687 -0.07154 0.44111
 O146 O 0.94317 -0.02365 0.60253
 O147 O 0.90312 -0.05683 0.54143
 O148 O 1.10108 -0.01832 0.45587
 O149 O 1.02102 -0.06274 0.57886
 O150 O 0.96286 -0.08252 0.42469
 Co151 Co 1.07060 0.01371 0.50724
 Co152 Co 0.91002 -0.00623 0.49754
 Co153 Co 1.00162 -0.02800 0.42263
 Co154 Co 0.99946 -0.00147 0.57109
 O155 O 0.99158 -0.00750 0.49680
 C156 C 1.06551 -0.06917 0.57050
 C157 C 0.91724 -0.08260 0.42624
 C158 C 1.09065 -0.05936 0.44021
 C159 C 0.91193 -0.05411 0.58696
 C160 C 1.15393 0.16942 0.29181
 C161 C 1.13017 0.14995 0.32467
 C162 C 1.10291 0.12394 0.36135
 C163 C 1.08125 0.09814 0.39092
 C164 C 0.82058 -0.18698 0.29564
 C165 C 0.84110 -0.16773 0.33036
 C166 C 0.86659 -0.14170 0.36778
 C167 C 0.88936 -0.11637 0.39653
 C168 C 0.83396 0.17830 0.69020
 C169 C 0.85867 0.15891 0.65896
 C170 C 0.88693 0.13243 0.62478
 C171 C 0.90901 0.10571 0.59775
 C172 C 1.16698 -0.18431 0.68372
 C173 C 1.14265 -0.16340 0.65313
 C174 C 1.11444 -0.13502 0.62033
 C175 C 1.09122 -0.10708 0.59547
 C176 C 0.28033 1.15646 1.16737
 C177 C 0.31155 1.13276 1.14732
 C178 C 0.34738 1.10425 1.12373
 C179 C 0.37763 1.07929 1.10387
 C180 C 0.29701 0.83157 0.80641
 C181 C 0.32788 0.85788 0.82550
 C182 C 0.36266 0.88959 0.84876
 C183 C 0.39128 0.91659 0.87012
 C184 C 0.71227 0.83613 1.15542
 C185 C 0.68461 0.86328 1.13471
 C186 C 0.65212 0.89626 1.11234
 C187 C 0.62363 0.92462 1.09481
 C188 C 0.69921 1.16388 0.80573
 C189 C 0.66570 1.13957 0.82346
 C190 C 0.62827 1.11045 0.84658
 C191 C 0.59818 1.08581 0.86925
 C192 C 0.16877 0.29130 0.16276
 C193 C 0.14918 0.32401 0.14132
 C194 C 0.12306 0.36022 0.11629
 C195 C 0.09811 0.38927 0.09505
 C196 C -0.17424 0.29091 -0.17398
 C197 C -0.15065 0.32036 -0.15031
 C198 C -0.11986 0.35280 -0.12334
 C199 C -0.09154 0.37869 -0.10048
 C200 C 0.18242 0.69254 -0.18529
 C201 C 0.16163 0.65999 -0.16268
 C202 C 0.13385 0.62472 -0.13533
 C203 C 0.10728 0.59792 -0.11090
 C204 C -0.17565 0.69765 0.16127
 C205 C -0.15215 0.66668 0.14116
 C206 C -0.12115 0.63324 0.11761
 C207 C -0.09193 0.60765 0.09708
 C208 C 1.16753 0.16350 0.72609
 C209 C 1.14484 0.13706 0.69812
 C210 C 1.11798 0.10541 0.66626
 C211 C 1.09466 0.07835 0.63945
 C212 C 0.81771 -0.16225 0.72016
 C213 C 0.83820 -0.13845 0.68802
 C214 C 0.86326 -0.10981 0.65173
 C215 C 0.88528 -0.08472 0.62170
 C216 C 1.19509 -0.16713 0.32158
 C217 C 1.17594 -0.14259 0.35303
 C218 C 1.15038 -0.11319 0.38707
 C219 C 1.12521 -0.08817 0.41326
 C220 C 0.84055 0.16237 0.28104
 C221 C 0.86106 0.13501 0.30902
 C222 C 0.88352 0.10205 0.34201
 C223 C 0.90125 0.07380 0.37101
 C224 C 0.17731 0.30904 -0.16902
 C225 C 0.15587 0.34298 -0.15175
 C226 C 0.12772 0.37959 -0.12939
 C227 C 0.10086 0.40717 -0.10823
 C228 C -0.16303 0.30686 0.17634
 C229 C -0.14234 0.34048 0.15561
 C230 C -0.11648 0.37714 0.12873
 C231 C -0.09198 0.40551 0.10422
 C232 C -0.17383 0.71142 -0.15862
 C233 C -0.14884 0.68119 -0.13914
 C234 C -0.11754 0.64765 -0.11621
 C235 C -0.08926 0.62049 -0.09658
 C236 C 0.17137 0.71253 0.19203
 C237 C 0.14619 0.68645 0.16608
 C238 C 0.11773 0.65748 0.13330
 C239 C 0.09367 0.63350 0.10440
 C240 C 0.30154 1.18197 0.84750
 C241 C 0.33340 1.16048 0.86920
 C242 C 0.36808 1.13112 0.89355
 C243 C 0.39496 1.10242 0.91304
 C244 C 0.31728 0.81784 1.19047
 C245 C 0.34845 0.83695 1.16437
 C246 C 0.38143 0.86274 1.13271
 C247 C 0.40673 0.88864 1.10636
 C248 C 0.70256 1.18552 1.16967
 C249 C 0.66816 1.16700 1.14788
 C250 C 0.63057 1.14178 1.12170
 C251 C 0.60117 1.11663 1.09951
 C252 C 0.69121 0.82407 0.84814
 C253 C 0.65857 0.84440 0.86980
 C254 C 0.62301 0.87240 0.89438
 C255 C 0.59548 0.90028 0.91403
   
