data_POSCAR
  _audit_creation_date              2014-09-24
  _audit_creation_method            'ToBaCCo'
  _symmetry_space_group_name_H-M    'P1'
  _symmetry_Int_Tables_number       1
  _symmetry_cell_setting            triclinic
  loop_
  _symmetry_equiv_pos_as_xyz
 x,y,z
_cell_length_a 30.1790
_cell_length_b 29.8915
_cell_length_c 29.8449
_cell_angle_alpha 89.593900
_cell_angle_beta 90.346300
_cell_angle_gamma 89.190500
loop_
  _atom_site_label
  _atom_site_type_symbol
  _atom_site_fract_x
  _atom_site_fract_y
  _atom_site_fract_z
C1 C 0.23387 0.95090 -0.00662
 C2 C 0.23651 0.96511 -0.05251
 C3 C 0.23217 1.01135 -0.06213
 C4 C 0.23421 1.04395 -0.02884
 C5 C 0.23810 1.02907 0.01585
 C6 C 0.23237 0.98419 0.02647
 H7 H 0.23532 0.97497 0.06155
 H8 H 0.22824 1.02196 -0.09668
 C9 C 0.72692 0.45398 0.53644
 C10 C 0.73647 0.44303 0.49083
 C11 C 0.75204 0.47714 0.46254
 C12 C 0.75789 0.52058 0.47814
 C13 C 0.74575 0.53155 0.52219
 C14 C 0.73144 0.49809 0.55089
 H15 H 0.72197 0.50692 0.58476
 H16 H 0.76192 0.46966 0.42854
 C17 C 0.75075 1.02285 0.96812
 C18 C 0.75408 0.97687 0.95634
 C19 C 0.75703 0.94539 0.99072
 C20 C 0.75934 0.95738 1.03585
 C21 C 0.75090 1.00252 1.04791
 C22 C 0.74430 1.03427 1.01334
 H23 H 0.74163 1.06932 1.02212
 H24 H 0.75793 0.91020 0.98244
 C25 C 0.24841 0.50782 0.43704
 C26 C 0.25816 0.46198 0.44760
 C27 C 0.25365 0.44679 0.49213
 C28 C 0.24068 0.47598 0.52643
 C29 C 0.22922 0.52072 0.51517
 C30 C 0.23367 0.53598 0.47129
 H31 H 0.22391 0.57024 0.46367
 H32 H 0.26296 0.41259 0.50059
 C33 C 0.95149 0.24924 0.00258
 C34 C 0.95016 0.24071 0.04960
 C35 C 0.98977 0.24086 0.07394
 C36 C 1.03077 0.24884 0.05368
 C37 C 1.03263 0.25208 0.00622
 C38 C 0.99294 0.24979 -0.01866
 H39 H 0.99412 0.25608 -0.05442
 H40 H 0.98888 0.23473 0.10977
 C41 C 0.44894 0.75108 0.50755
 C42 C 0.45066 0.73991 0.46126
 C43 C 0.49170 0.73340 0.44075
 C44 C 0.53108 0.73870 0.46448
 C45 C 0.52974 0.75340 0.50942
 C46 C 0.48876 0.75766 0.53102
 H47 H 0.48773 0.76883 0.56549
 H48 H 0.49301 0.72224 0.40627
 C49 C -0.02136 0.75929 0.03622
 C50 C 0.02470 0.76593 0.02660
 C51 C 0.03893 0.76906 -0.01768
 C52 C 0.01011 0.76622 -0.05392
 C53 C -0.03520 0.75840 -0.04549
 C54 C -0.05039 0.75596 -0.00119
 H55 H -0.08502 0.74858 0.00326
 H56 H 0.07369 0.77555 -0.02376
 C57 C 0.52009 0.22855 0.49364
 C58 C 0.47427 0.23217 0.48440
 C59 C 0.44531 0.24313 0.51980
 C60 C 0.46187 0.25119 0.56328
 C61 C 0.50788 0.24382 0.57198
 C62 C 0.53565 0.23106 0.53713
 H63 H 0.57088 0.22625 0.54305
 H64 H 0.41025 0.24790 0.51310
 C65 C 1.05916 0.00096 0.24085
 C66 C 1.05258 -0.04596 0.23360
 C67 C 1.01097 -0.06435 0.24175
 C68 C 0.97452 -0.03786 0.25390
 C69 C 0.98078 0.00841 0.26102
 C70 C 1.02213 0.02720 0.25341
 H71 H 1.02557 0.06228 0.26110
 H72 H 1.00615 -0.09943 0.23449
 C73 C 0.53523 0.54809 0.74141
 C74 C 0.53373 0.50160 0.75281
 C75 C 0.49364 0.48271 0.76477
 C76 C 0.45398 0.50619 0.76016
 C77 C 0.45373 0.54974 0.74149
 C78 C 0.49444 0.57128 0.73467
 H79 H 0.49411 0.60572 0.72324
 H80 H 0.49318 0.44809 0.77599
 C81 C 1.01860 0.99176 0.73147
 C82 C 0.97287 0.99148 0.74153
 C83 C 0.95140 1.03144 0.75273
 C84 C 0.97505 1.07141 0.75762
 C85 C 1.02245 1.06917 0.75622
 C86 C 1.04315 1.03005 0.74061
 H87 H 1.07884 1.02889 0.73684
 H88 H 0.91591 1.03082 0.75730
 C89 C 0.53426 0.43895 0.26400
 C90 C 0.48915 0.44395 0.25191
 C91 C 0.47062 0.48636 0.24661
 C92 C 0.49684 0.52457 0.24698
 C93 C 0.54359 0.51948 0.25350
 C94 C 0.56115 0.47693 0.26435
 H95 H 0.59636 0.47306 0.27089
 H96 H 0.43541 0.48897 0.23996
 O97 O 0.27971 0.10953 0.18503
 O98 O 0.33421 0.10169 0.24821
 O99 O 0.16504 0.15321 0.25104
 O100 O 0.15331 0.20883 0.30683
 O101 O 0.20211 0.22827 0.13544
 O102 O 0.26501 0.27546 0.11812
 O103 O 0.28248 0.29209 0.35967
 O104 O 0.23197 0.23357 0.37599
 O105 O 0.39223 0.22753 0.30106
 O106 O 0.39940 0.17345 0.23375
 O107 O 0.33378 0.34015 0.23734
 O108 O 0.26163 0.34943 0.19064
 O109 O 0.28091 0.34230 0.30200
 O110 O 0.22449 0.35541 0.24639
 O111 O 0.38736 0.28595 0.23595
 O112 O 0.40320 0.22668 0.19244
 O113 O 0.34315 0.23452 0.35822
 O114 O 0.29021 0.17674 0.37396
 O115 O 0.26931 0.16314 0.13117
 O116 O 0.30892 0.22421 0.11045
 O117 O 0.15537 0.22600 0.19489
 O118 O 0.14333 0.26518 0.25809
 O119 O 0.22360 0.10460 0.25139
 O120 O 0.28374 0.09429 0.29518
 Zr121 Zr 0.27820 0.14512 0.24586
 O122 O 0.31892 0.18541 0.28558
 Zr123 Zr 0.19573 0.21798 0.25142
 O124 O 0.23469 0.26446 0.28750
 Zr125 Zr 0.26592 0.22297 0.16608
 O126 O 0.31019 0.26451 0.20006
 Zr127 Zr 0.28156 0.22925 0.32624
 O128 O 0.24060 0.18251 0.29256
 Zr129 Zr 0.35338 0.22684 0.24194
 O130 O 0.31450 0.18502 0.20171
 Zr131 Zr 0.27361 0.30420 0.24438
 O132 O 0.22856 0.26377 0.20873
 O133 O 0.23104 0.17914 0.20647
 O134 O 0.31924 0.26982 0.28464
 C135 C 0.27663 0.12287 0.14411
 C136 C 0.18211 0.11303 0.25132
 C137 C 0.16346 0.23206 0.15321
 C138 C 0.28364 0.33235 0.34364
 C139 C 0.38251 0.23085 0.34282
 C140 C 0.37442 0.32663 0.23398
 H141 H 0.33877 0.16592 0.30390
 H142 H 0.32645 0.28239 0.17771
 H143 H 0.21182 0.15998 0.18793
 H144 H 0.21552 0.28312 0.30681
 H145 H 0.21512 0.20541 0.37461
 H146 H 0.16056 0.23196 0.32916
 H147 H 0.38952 0.23915 0.16478
 H148 H 0.33667 0.20888 0.12017
 H149 H 0.29501 0.19034 0.40380
 H150 H 0.27439 0.10817 0.32367
 H151 H 0.28761 0.34817 0.17060
 H152 H 0.24217 0.29740 0.12770
 H153 H 0.35131 0.10682 0.22050
 H154 H 0.40212 0.15725 0.26269
 H155 H 0.15476 0.29389 0.24659
 H156 H 0.20393 0.34817 0.27100
 O157 O 0.75657 0.85400 0.19253
 O158 O 0.69703 0.86030 0.25038
 O159 O 0.86908 0.81473 0.26570
 O160 O 0.88431 0.75937 0.32005
 O161 O 0.83424 0.74148 0.14989
 O162 O 0.77575 0.68416 0.13642
 O163 O 0.77240 0.68204 0.37666
 O164 O 0.80754 0.75228 0.38892
 O165 O 0.64719 0.72930 0.31878
 O166 O 0.63590 0.78641 0.25078
 O167 O 0.70728 0.62185 0.25736
 O168 O 0.78097 0.61480 0.21153
 O169 O 0.76605 0.62637 0.32548
 O170 O 0.81475 0.60870 0.27024
 O171 O 0.65158 0.67375 0.25263
 O172 O 0.63281 0.73203 0.20933
 O173 O 0.70009 0.72700 0.37328
 O174 O 0.74050 0.78667 0.38998
 O175 O 0.76678 0.79755 0.14259
 O176 O 0.72632 0.73271 0.12576
 O177 O 0.88188 0.74885 0.20858
 O178 O 0.89523 0.70405 0.27101
 O179 O 0.80918 0.86161 0.25964
 O180 O 0.74360 0.87261 0.30057
 Zr181 Zr 0.75511 0.82000 0.25488
 O182 O 0.71728 0.78003 0.29791
 Zr183 Zr 0.84124 0.74971 0.26478
 O184 O 0.80520 0.70385 0.30311
 Zr185 Zr 0.77035 0.73892 0.18063
 O186 O 0.72798 0.69726 0.21754
 Zr187 Zr 0.75837 0.74039 0.33969
 O188 O 0.79588 0.78706 0.30309
 Zr189 Zr 0.68376 0.73431 0.25808
 O190 O 0.72009 0.77582 0.21405
 Zr191 Zr 0.76657 0.66036 0.26358
 O192 O 0.80996 0.70074 0.22486
 O193 O 0.80336 0.78549 0.21878
 O194 O 0.72119 0.69500 0.30268
 C195 C 0.76297 0.83896 0.15283
 C196 C 0.85080 0.85399 0.26289
 C197 C 0.87364 0.74532 0.16668
 C198 C 0.77227 0.64072 0.36540
 C199 C 0.65988 0.72538 0.36000
 C200 C 0.66608 0.63348 0.25197
 H201 H 0.69675 0.79880 0.31569
 H202 H 0.71215 0.67812 0.19600
 H203 H 0.82217 0.80523 0.20048
 H204 H 0.82687 0.68711 0.32195
 H205 H 0.82186 0.78090 0.38110
 H206 H 0.87688 0.73721 0.34349
 H207 H 0.64718 0.72306 0.18103
 H208 H 0.69956 0.75061 0.13318
 H209 H 0.74648 0.81668 0.37759
 H210 H 0.76406 0.86755 0.32620
 H211 H 0.75484 0.61423 0.19137
 H212 H 0.80224 0.66654 0.14591
 H213 H 0.68143 0.85193 0.22245
 H214 H 0.63003 0.79909 0.28073
 H215 H 0.88740 0.67751 0.25313
 H216 H 0.84204 0.62285 0.28144
 O217 O 0.75714 0.15218 0.83742
 O218 O 0.71456 0.13102 0.78197
 O219 O 0.85860 0.22978 0.77252
 O220 O 0.86380 0.29294 0.73500
 O221 O 0.79704 0.27916 0.89767
 O222 O 0.73318 0.30610 0.91940
 O223 O 0.71361 0.32405 0.66437
 O224 O 0.76912 0.27698 0.64882
 O225 O 0.61609 0.24613 0.73672
 O226 O 0.60821 0.21615 0.80358
 O227 O 0.66343 0.37923 0.79293
 O228 O 0.72409 0.40557 0.82253
 O229 O 0.70958 0.37996 0.71581
 O230 O 0.77367 0.39898 0.77648
 O231 O 0.62077 0.32350 0.76804
 O232 O 0.61706 0.27094 0.84624
 O233 O 0.65904 0.26395 0.67711
 O234 O 0.72726 0.21259 0.66048
 O235 O 0.75309 0.20148 0.89504
 O236 O 0.68647 0.25656 0.90719
 O237 O 0.85008 0.28354 0.84409
 O238 O 0.84644 0.34289 0.77928
 O239 O 0.81714 0.16691 0.77437
 O240 O 0.74997 0.14894 0.72430
 Zr241 Zr 0.75034 0.19122 0.78088
 O242 O 0.69733 0.22295 0.74704
 Zr243 Zr 0.81322 0.28109 0.78201
 O244 O 0.76706 0.31353 0.73883
 Zr245 Zr 0.74005 0.26485 0.86264
 O246 O 0.69437 0.30649 0.82771
 Zr247 Zr 0.72569 0.26863 0.70354
 O248 O 0.77960 0.23702 0.73776
 Zr249 Zr 0.65690 0.26389 0.78843
 O250 O 0.70272 0.22169 0.82358
 Zr251 Zr 0.72437 0.34937 0.78013
 O252 O 0.77005 0.31619 0.82389
 O253 O 0.78639 0.23229 0.82280
 O254 O 0.68426 0.30761 0.74263
 C255 C 0.75905 0.16176 0.87881
 C256 C 0.85441 0.18749 0.77071
 C257 C 0.83708 0.28360 0.88546
 C258 C 0.70710 0.36460 0.67523
 C259 C 0.62137 0.25365 0.69518
 C260 C 0.62759 0.36542 0.77597
 H261 H 0.68046 0.19982 0.73092
 H262 H 0.67617 0.32358 0.84933
 H263 H 0.80960 0.21580 0.84001
 H264 H 0.78276 0.33335 0.71771
 H265 H 0.79653 0.26001 0.65659
 H266 H 0.85035 0.28773 0.70521
 H267 H 0.59510 0.29510 0.83982
 H268 H 0.67413 0.22657 0.90158
 H269 H 0.71147 0.22134 0.63247
 H270 H 0.77533 0.15753 0.70534
 H271 H 0.72967 0.39359 0.85309
 H272 H 0.73269 0.33722 0.90784
 H273 H 0.68362 0.13967 0.78905
 H274 H 0.62458 0.18773 0.80923
 H275 H 0.84250 0.35734 0.80878
 H276 H 0.77967 0.40510 0.74447
 O277 O 0.22770 0.86851 0.77791
 O278 O 0.27089 0.88005 0.70901
 O279 O 0.10745 0.82044 0.70105
 O280 O 0.08734 0.75821 0.66834
 O281 O 0.15088 0.76201 0.83094
 O282 O 0.21286 0.70508 0.84563
 O283 O 0.21753 0.68453 0.60717
 O284 O 0.16673 0.74837 0.59160
 O285 O 0.33279 0.75049 0.65597
 O286 O 0.34234 0.80361 0.72434
 O287 O 0.27794 0.63799 0.71818
 O288 O 0.21548 0.63204 0.77872
 O289 O 0.21043 0.63568 0.66544
 O290 O 0.17085 0.62377 0.72873
 O291 O 0.33254 0.68947 0.72093
 O292 O 0.35030 0.74841 0.76423
 O293 O 0.27893 0.74790 0.60249
 O294 O 0.22432 0.79252 0.58287
 O295 O 0.21913 0.81817 0.83456
 O296 O 0.25981 0.75576 0.85226
 O297 O 0.10112 0.76780 0.77356
 O298 O 0.09147 0.70806 0.71905
 O299 O 0.15976 0.87264 0.71473
 O300 O 0.21996 0.88459 0.66696
 Zr301 Zr 0.21883 0.83399 0.71678
 O302 O 0.25850 0.79248 0.67623
 Zr303 Zr 0.13909 0.75944 0.71651
 O304 O 0.17625 0.71339 0.67941
 Zr305 Zr 0.21374 0.75844 0.79868
 O306 O 0.25690 0.71531 0.76298
 Zr307 Zr 0.21985 0.74823 0.63820
 O308 O 0.17995 0.79526 0.67283
 Zr309 Zr 0.29728 0.75044 0.71762
 O310 O 0.25956 0.79420 0.75892
 Zr311 Zr 0.21797 0.67497 0.72200
 O312 O 0.17459 0.71591 0.75996
 O313 O 0.17539 0.80096 0.75837
 O314 O 0.26069 0.70711 0.67772
 C315 C 0.22735 0.85743 0.81978
 C316 C 0.11997 0.86099 0.70530
 C317 C 0.11108 0.76656 0.81514
 C318 C 0.21145 0.64511 0.62367
 C319 C 0.31944 0.75089 0.61480
 C320 C 0.31894 0.64911 0.71916
 H321 H 0.27659 0.81198 0.65694
 H322 H 0.27509 0.69726 0.78423
 H323 H 0.15766 0.82270 0.77590
 H324 H 0.15533 0.69496 0.66216
 H325 H 0.14782 0.77486 0.59823
 H326 H 0.09785 0.74034 0.64266
 H327 H 0.33776 0.73904 0.79328
 H328 H 0.28718 0.76962 0.84091
 H329 H 0.22769 0.82276 0.59546
 H330 H 0.19982 0.87494 0.64269
 H331 H 0.24564 0.62932 0.79172
 H332 H 0.18618 0.68732 0.83906
 H333 H 0.29347 0.87258 0.73215
 H334 H 0.34241 0.82036 0.69562
 H335 H 0.09725 0.69043 0.74674
 H336 H 0.14295 0.63549 0.71528
 O337 O 0.23557 0.40097 0.71260
 O338 O 0.17981 0.41010 0.77369
 O339 O 0.34966 0.35600 0.77957
 O340 O 0.37009 0.29701 0.82541
 O341 O 0.30132 0.28392 0.66253
 O342 O 0.23796 0.23217 0.65400
 O343 O 0.24216 0.22863 0.89683
 O344 O 0.29796 0.28622 0.90330
 O345 O 0.13022 0.28335 0.84872
 O346 O 0.11418 0.33774 0.77893
 O347 O 0.18102 0.17102 0.78363
 O348 O 0.24761 0.16014 0.73098
 O349 O 0.24237 0.17345 0.84470
 O350 O 0.28988 0.15613 0.78407
 O351 O 0.12707 0.22457 0.78874
 O352 O 0.10620 0.28023 0.74030
 O353 O 0.18690 0.28974 0.89875
 O354 O 0.24541 0.33928 0.90810
 O355 O 0.23640 0.34624 0.65995
 O356 O 0.19030 0.28362 0.64889
 O357 O 0.35398 0.29344 0.71642
 O358 O 0.36932 0.24220 0.77466
 O359 O 0.29197 0.40594 0.78017
 O360 O 0.22938 0.42044 0.82022
 Zr361 Zr 0.23603 0.36697 0.77465
 O362 O 0.19981 0.32909 0.82057
 Zr363 Zr 0.31913 0.29243 0.77658
 O364 O 0.28450 0.24896 0.81947
 Zr365 Zr 0.24027 0.28673 0.69864
 O366 O 0.20009 0.24607 0.74001
 Zr367 Zr 0.24276 0.28814 0.85924
 O368 O 0.27933 0.33181 0.81882
 Zr369 Zr 0.16103 0.28456 0.78433
 O370 O 0.19509 0.32504 0.73723
 Zr371 Zr 0.24120 0.20773 0.78279
 O372 O 0.28168 0.24618 0.73930
 O373 O 0.27933 0.33099 0.73412
 O374 O 0.20087 0.24456 0.82555
 C375 C 0.23593 0.38756 0.67176
 C376 C 0.33319 0.39603 0.78177
 C377 C 0.34195 0.28840 0.67560
 C378 C 0.24160 0.18736 0.88536
 C379 C 0.14598 0.28655 0.88894
 C380 C 0.14017 0.18376 0.78741
 H381 H 0.18159 0.34947 0.83905
 H382 H 0.18134 0.22710 0.72085
 H383 H 0.29758 0.35057 0.71501
 H384 H 0.30537 0.23101 0.83813
 H385 H 0.31802 0.31037 0.89371
 H386 H 0.36550 0.27343 0.84830
 H387 H 0.11824 0.27136 0.71089
 H388 H 0.16563 0.30306 0.65922
 H389 H 0.22301 0.36247 0.90010
 H390 H 0.24607 0.41143 0.84754
 H391 H 0.22048 0.16218 0.71225
 H392 H 0.26279 0.21174 0.66237
 H393 H 0.16169 0.40202 0.74727
 H394 H 0.11266 0.35275 0.80833
 H395 H 0.35846 0.21833 0.75474
 H396 H 0.31674 0.16854 0.79810
 O397 O 0.75633 0.65551 0.65632
 O398 O 0.81145 0.64449 0.72174
 O399 O 0.64324 0.70504 0.72376
 O400 O 0.62682 0.76604 0.76659
 O401 O 0.69811 0.77708 0.60497
 O402 O 0.76419 0.82230 0.59466
 O403 O 0.75752 0.83539 0.83492
 O404 O 0.70279 0.77706 0.84643
 O405 O 0.86869 0.75792 0.78712
 O406 O 0.88025 0.71263 0.71515
 O407 O 0.82248 0.88168 0.72865
 O408 O 0.76067 0.89367 0.66601
 O409 O 0.75401 0.88703 0.77868
 O410 O 0.71471 0.90275 0.71537
 O411 O 0.87291 0.82462 0.73315
 O412 O 0.89083 0.77314 0.68191
 O413 O 0.81561 0.76813 0.84005
 O414 O 0.75771 0.72357 0.85358
 O415 O 0.75558 0.71091 0.60367
 O416 O 0.80713 0.76762 0.59167
 O417 O 0.64310 0.76847 0.65603
 O418 O 0.62968 0.81987 0.71586
 O419 O 0.69911 0.65331 0.72588
 O420 O 0.75916 0.63361 0.76237
 Zr421 Zr 0.75669 0.68947 0.71864
 O422 O 0.79489 0.72655 0.76360
 Zr423 Zr 0.67759 0.76740 0.71797
 O424 O 0.71540 0.81044 0.75913
 Zr425 Zr 0.75735 0.76916 0.64123
 O426 O 0.79980 0.80815 0.68049
 Zr427 Zr 0.75673 0.77214 0.80167
 O428 O 0.71700 0.72854 0.76248
 Zr429 Zr 0.83611 0.76721 0.72532
 O430 O 0.79991 0.72776 0.67995
 Zr431 Zr 0.76042 0.84878 0.72123
 O432 O 0.71728 0.81156 0.67977
 O433 O 0.71535 0.72693 0.67673
 O434 O 0.80009 0.81140 0.76549
 C435 C 0.75532 0.66974 0.61544
 C436 C 0.65817 0.66432 0.72785
 C437 C 0.65719 0.77465 0.61588
 C438 C 0.75470 0.87617 0.82009
 C439 C 0.85558 0.75952 0.82789
 C440 C 0.86234 0.86611 0.73387
 H441 H 0.81113 0.70472 0.78286
 H442 H 0.81971 0.82584 0.66130
 H443 H 0.69577 0.70818 0.65817
 H444 H 0.69503 0.82983 0.77641
 H445 H 0.68211 0.75293 0.83841
 H446 H 0.63464 0.78742 0.79041
 H447 H 0.87855 0.77667 0.65130
 H448 H 0.82973 0.74540 0.60184
 H449 H 0.73947 0.69853 0.84291
 H450 H 0.75663 0.64563 0.79302
 H451 H 0.79144 0.89582 0.65501
 H452 H 0.74104 0.84492 0.60168
 H453 H 0.82780 0.64748 0.69323
 H454 H 0.87826 0.69260 0.74158
 H455 H 0.63999 0.84203 0.69358
 H456 H 0.68637 0.89211 0.72771
 O457 O 0.26523 0.60801 0.26565
 O458 O 0.24111 0.58941 0.19955
 O459 O 0.38322 0.68681 0.23057
 O460 O 0.39639 0.74914 0.19341
 O461 O 0.29808 0.72663 0.33844
 O462 O 0.23383 0.76374 0.34546
 O463 O 0.28109 0.78777 0.09650
 O464 O 0.31772 0.72486 0.08366
 O465 O 0.15625 0.71224 0.13731
 O466 O 0.13223 0.67475 0.19516
 O467 O 0.19152 0.84089 0.20444
 O468 O 0.24195 0.86252 0.25292
 O469 O 0.25007 0.83902 0.14283
 O470 O 0.30123 0.85726 0.21721
 O471 O 0.14360 0.78394 0.19246
 O472 O 0.13217 0.71516 0.24939
 O473 O 0.20776 0.74890 0.09831
 O474 O 0.26746 0.67713 0.08739
 O475 O 0.24888 0.65645 0.32184
 O476 O 0.18711 0.71753 0.32458
 O477 O 0.36007 0.73846 0.29734
 O478 O 0.37115 0.79937 0.23663
 O479 O 0.34171 0.62487 0.21942
 O480 O 0.28761 0.61113 0.15299
 Zr481 Zr 0.27487 0.64973 0.21078
 O482 O 0.23066 0.68384 0.16699
 Zr483 Zr 0.33728 0.73835 0.22916
 O484 O 0.30285 0.77321 0.17787
 Zr485 Zr 0.24843 0.72154 0.29089
 O486 O 0.21192 0.76454 0.24768
 Zr487 Zr 0.26829 0.73104 0.13310
 O488 O 0.31304 0.69681 0.17717
 Zr489 Zr 0.18225 0.72307 0.20068
 O490 O 0.21947 0.67973 0.24361
 Zr491 Zr 0.25193 0.80824 0.20908
 O492 O 0.28653 0.77331 0.26131
 O493 O 0.30142 0.68872 0.26099
 O494 O 0.21905 0.76873 0.16378
 C495 C 0.25517 0.61652 0.30622
 C496 C 0.37901 0.64472 0.22686
 C497 C 0.33963 0.73253 0.33489
 C498 C 0.26472 0.82637 0.10383
 C499 C 0.16749 0.73572 0.10392
 C500 C 0.15311 0.82602 0.19603
 H501 H 0.21678 0.66206 0.14660
 H502 H 0.18986 0.78156 0.26535
 H503 H 0.31910 0.67032 0.28244
 H504 H 0.32373 0.79336 0.16257
 H505 H 0.34587 0.71964 0.10018
 H506 H 0.38922 0.74310 0.16164
 H507 H 0.12387 0.74518 0.26062
 H508 H 0.17470 0.68779 0.31796
 H509 H 0.24397 0.68397 0.06497
 H510 H 0.31557 0.62210 0.13996
 H511 H 0.23504 0.84907 0.28238
 H512 H 0.24338 0.79397 0.33633
 H513 H 0.20917 0.59741 0.19965
 H514 H 0.14769 0.64538 0.19739
 H515 H 0.36001 0.81357 0.26433
 H516 H 0.31073 0.86688 0.18701
 O517 O 0.73682 0.32280 0.34554
 O518 O 0.78705 0.33474 0.27577
 O519 O 0.62437 0.26168 0.28527
 O520 O 0.61177 0.20196 0.23992
 O521 O 0.68725 0.21147 0.40036
 O522 O 0.75222 0.15589 0.40797
 O523 O 0.74043 0.14029 0.16907
 O524 O 0.68052 0.19582 0.16059
 O525 O 0.84977 0.21436 0.20666
 O526 O 0.86146 0.27016 0.27353
 O527 O 0.81470 0.09858 0.28846
 O528 O 0.74771 0.08437 0.33910
 O529 O 0.75751 0.09086 0.22509
 O530 O 0.71194 0.07053 0.28140
 O531 O 0.86262 0.15465 0.27306
 O532 O 0.87897 0.21715 0.31315
 O533 O 0.79131 0.20501 0.15944
 O534 O 0.73284 0.25116 0.14962
 O535 O 0.74864 0.26816 0.39776
 O536 O 0.79751 0.20937 0.40989
 O537 O 0.63196 0.20391 0.34875
 O538 O 0.62126 0.14834 0.29315
 O539 O 0.67304 0.31898 0.27876
 O540 O 0.72926 0.34244 0.23804
 Zr541 Zr 0.73589 0.28754 0.28262
 O542 O 0.77481 0.25085 0.23639
 Zr543 Zr 0.66417 0.20358 0.28741
 O544 O 0.70222 0.16215 0.24568
 Zr545 Zr 0.74606 0.20944 0.36153
 O546 O 0.78969 0.17241 0.32114
 Zr547 Zr 0.73724 0.20300 0.20181
 O548 O 0.69691 0.24521 0.24157
 Zr549 Zr 0.82163 0.21244 0.27257
 O550 O 0.78413 0.25108 0.31932
 Zr551 Zr 0.75147 0.12831 0.28340
 O552 O 0.70779 0.16335 0.32625
 O553 O 0.70030 0.24819 0.32589
 O554 O 0.78584 0.16608 0.23626
 C555 C 0.74260 0.30905 0.38657
 C556 C 0.63365 0.30335 0.28152
 C557 C 0.64613 0.21053 0.38851
 C558 C 0.75083 0.10085 0.18384
 C559 C 0.83252 0.21048 0.16704
 C560 C 0.85378 0.11381 0.28277
 H561 H 0.78885 0.27182 0.21519
 H562 H 0.81100 0.15707 0.34156
 H563 H 0.68144 0.26785 0.34448
 H564 H 0.68317 0.14100 0.22939
 H565 H 0.65946 0.22011 0.16868
 H566 H 0.61862 0.17825 0.21796
 H567 H 0.87086 0.20572 0.34313
 H568 H 0.82151 0.22757 0.39702
 H569 H 0.71323 0.27544 0.16058
 H570 H 0.73235 0.33013 0.20756
 H571 H 0.77439 0.08909 0.35783
 H572 H 0.72481 0.13820 0.40570
 H573 H 0.80602 0.33189 0.30285
 H574 H 0.85698 0.28615 0.24468
 H575 H 0.63397 0.12809 0.31644
 H576 H 0.68096 0.08095 0.27722
 N577 N 0.31335 0.09666 0.07664
 N578 N 0.30137 0.07444 0.04075
 C579 C 0.26230 0.05510 0.04909
 C580 C 0.24925 0.06412 0.09238
 C581 C 0.28247 0.09102 0.10846
 H582 H 0.21789 0.05648 0.10790
 H583 H 0.34045 0.11799 0.07807
 H584 H 0.31886 0.07402 0.01065
 N585 N 0.73432 0.64972 0.53824
 N586 N 0.73081 0.61344 0.51378
 C587 C 0.74508 0.57805 0.53834
 C588 C 0.75706 0.59221 0.58080
 C589 C 0.75008 0.63792 0.57903
 H590 H 0.76909 0.57220 0.60881
 H591 H 0.72471 0.68175 0.52744
 H592 H 0.71764 0.61310 0.48136
 N593 N 0.80258 0.85791 0.08497
 N594 N 0.80228 0.89129 0.05273
 C595 C 0.77266 0.92299 0.06520
 C596 C 0.75405 0.91114 0.10623
 C597 C 0.77313 0.86964 0.11647
 H598 H 0.72749 0.92805 0.12383
 H599 H 0.82156 0.82846 0.08348
 H600 H 0.82146 0.89054 0.02370
 N601 N 0.25451 0.46379 0.64584
 N602 N 0.25714 0.48652 0.60796
 C603 C 0.24310 0.46067 0.57399
 C604 C 0.23237 0.41877 0.59115
 C605 C 0.23958 0.42253 0.63703
 H606 H 0.22077 0.38994 0.57301
 H607 H 0.26419 0.47609 0.67703
 H608 H 0.26958 0.51886 0.60566
 N609 N 0.80319 0.09391 0.88958
 N610 N 0.79655 0.05242 0.90943
 C611 C 0.76312 0.05709 0.93866
 C612 C 0.74802 0.10163 0.93830
 C613 C 0.77321 0.12323 0.90618
 H614 H 0.71947 0.11513 0.95563
 H615 H 0.82391 0.09916 0.86217
 H616 H 0.81610 0.02396 0.90368
 N617 N 0.24200 0.53550 0.31931
 N618 N 0.24114 0.50648 0.35290
 C619 C 0.25038 0.52804 0.39123
 C620 C 0.25649 0.57337 0.38120
 C621 C 0.25083 0.57656 0.33529
 H622 H 0.26415 0.60023 0.40397
 H623 H 0.23568 0.52728 0.28593
 H624 H 0.23255 0.47298 0.34937
 N625 N 0.26633 0.92585 0.83940
 N626 N 0.27059 0.95431 0.87553
 C627 C 0.24660 0.93813 0.91003
 C628 C 0.22782 0.89761 0.89694
 C629 C 0.24011 0.89221 0.85189
 H630 H 0.20489 0.87739 0.91575
 H631 H 0.28051 0.93101 0.80798
 H632 H 0.28857 0.98392 0.87457
 N633 N 0.74798 0.32548 0.46797
 N634 N 0.74485 0.35954 0.49575
 C635 C 0.73540 0.39692 0.47201
 C636 C 0.73257 0.38557 0.42647
 C637 C 0.74110 0.33990 0.42544
 H638 H 0.72638 0.40750 0.39805
 H639 H 0.75579 0.29281 0.47823
 H640 H 0.75164 0.35707 0.53000
 N641 N 0.09693 0.27872 0.14681
 N642 N 0.05988 0.28332 0.11955
 C643 C 0.06611 0.25783 0.08305
 C644 C 0.10793 0.23669 0.08587
 C645 C 0.12535 0.24993 0.12728
 H646 H 0.12114 0.21121 0.06389
 H647 H 0.09995 0.29292 0.17852
 H648 H 0.03153 0.30188 0.12784
 N649 N 0.63510 0.79838 0.53944
 N650 N 0.60180 0.79279 0.51140
 C651 C 0.57025 0.76904 0.53218
 C652 C 0.58351 0.76019 0.57604
 C653 C 0.62523 0.77892 0.57888
 H654 H 0.56666 0.74047 0.60108
 H655 H 0.66443 0.81460 0.53125
 H656 H 0.60117 0.80462 0.47838
 N657 N 0.03366 0.78868 0.83091
 N658 N 0.00497 0.78819 0.86717
 C659 C 0.02769 0.77159 0.90275
 C660 C 0.07138 0.76234 0.89008
 C661 C 0.07338 0.77292 0.84512
 H662 H 0.09791 0.74777 0.91018
 H663 H 0.02511 0.79974 0.79868
 H664 H -0.02683 0.80231 0.86655
 N665 N 0.59053 0.26660 0.40716
 N666 N 0.55485 0.26989 0.43201
 C667 C 0.55353 0.23377 0.45890
 C668 C 0.59022 0.20633 0.45153
 C669 C 0.61261 0.22856 0.41812
 H670 H 0.59795 0.17406 0.46651
 H671 H 0.59871 0.28924 0.38181
 H672 H 0.53195 0.29640 0.43048
 N673 N 0.95477 0.74696 0.15414
 N674 N 0.98422 0.75164 0.11874
 C675 C 0.96053 0.75483 0.08022
 C676 C 0.91517 0.75209 0.09132
 C677 C 0.91323 0.74719 0.13754
 H678 H 0.88660 0.75452 0.06939
 H679 H 0.96422 0.74418 0.18779
 H680 H 1.01831 0.75095 0.12355
 N681 N 0.41282 0.31870 0.64931
 N682 N 0.44490 0.30822 0.62133
 C683 C 0.43241 0.27299 0.59670
 C684 C 0.38942 0.26121 0.60891
 C685 C 0.37853 0.29098 0.64301
 H686 H 0.37053 0.23303 0.59728
 H687 H 0.41510 0.34363 0.67355
 H688 H 0.47516 0.32467 0.61981
 N689 N 0.85301 0.30433 0.96315
 N690 N 0.88175 0.29016 0.99709
 C691 C 0.91421 0.26544 0.97830
 C692 C 0.90690 0.26394 0.93174
 C693 C 0.86771 0.28795 0.92387
 H694 H 0.92540 0.24459 0.90750
 H695 H 0.82294 0.32109 0.96866
 H696 H 0.87919 0.30010 1.03044
 N697 N 0.34656 0.70819 0.41388
 N698 N 0.37516 0.70987 0.44733
 C699 C 0.41094 0.73222 0.43340
 C700 C 0.40536 0.74428 0.38847
 C701 C 0.36380 0.72873 0.37765
 H702 H 0.42800 0.76221 0.36710
 H703 H 0.31593 0.69245 0.41582
 H704 H 0.37036 0.69503 0.47868
 N705 N 0.17334 0.03072 0.25093
 N706 N 0.14011 -0.00069 0.24584
 C707 C 0.10126 0.02165 0.24091
 C708 C 0.10963 0.06802 0.24255
 C709 C 0.15489 0.07208 0.24920
 H710 H 0.08626 0.09561 0.23921
 H711 H 0.20682 0.02256 0.25567
 H712 H 0.14533 -0.03493 0.25069
 N713 N 0.64563 0.58902 0.75900
 N714 N 0.61501 0.55818 0.76142
 C715 C 0.57778 0.57336 0.74102
 C716 C 0.58538 0.61729 0.72566
 C717 C 0.62924 0.62561 0.73765
 H718 H 0.56273 0.63965 0.70800
 H719 H 0.67745 0.58504 0.77256
 H720 H 0.61967 0.52804 0.77868
 N721 N 0.93395 0.18410 0.75234
 N722 N 0.96793 0.15240 0.74976
 C723 C 0.95103 0.11224 0.76064
 C724 C 0.90560 0.11783 0.76959
 C725 C 0.89655 0.16308 0.76409
 H726 H 0.88194 0.09280 0.77933
 H727 H 0.93757 0.21812 0.74523
 H728 H 0.99909 0.15920 0.73664
 N729 N 0.45621 0.63767 0.25491
 N730 N 0.48763 0.60689 0.25982
 C731 C 0.47337 0.56843 0.24196
 C732 C 0.43032 0.57541 0.22522
 C733 C 0.42075 0.61956 0.23450
 H734 H 0.40836 0.55178 0.20960
 H735 H 0.45853 0.67021 0.26719
 H736 H 0.51706 0.61193 0.27749
 N737 N 0.04861 0.89028 0.67519
 N738 N 0.02180 0.92475 0.68200
 C739 C 0.04106 0.95239 0.71157
 C740 C 0.08267 0.93546 0.72301
 C741 C 0.08574 0.89573 0.69962
 H742 H 0.10564 0.94814 0.74768
 H743 H 0.04093 0.86296 0.65509
 H744 H -0.00959 0.92849 0.66740
 N745 N 0.55616 0.32531 0.29868
 N746 N 0.53038 0.36117 0.29530
 C747 C 0.55336 0.39439 0.27579
 C748 C 0.59619 0.37922 0.26758
 C749 C 0.59628 0.33514 0.28219
 H750 H 0.62303 0.39714 0.25205
 H751 H 0.54641 0.29488 0.31265
 H752 H 0.49777 0.36266 0.30671
 N753 N 0.85992 0.93452 0.24977
 N754 N 0.89418 0.96474 0.24640
 C755 C 0.93239 0.94253 0.25571
 C756 C 0.92326 0.89747 0.26383
 C757 C 0.87770 0.89421 0.26021
 H758 H 0.94645 0.87050 0.27148
 H759 H 0.82670 0.94220 0.24278
 H760 H 0.89014 0.99697 0.23326
 N761 N 0.34835 0.47417 0.80237
 N762 N 0.37961 0.50382 0.79588
 C763 C 0.41348 0.48353 0.77468
 C764 C 0.40393 0.43872 0.76833
 C765 C 0.36216 0.43444 0.78601
 H766 H 0.42329 0.41372 0.75076
 H767 H 0.31769 0.48143 0.81688
 H768 H 0.37738 0.53730 0.80548
 N769 N 0.12621 0.31165 0.96467
 N770 N 0.09864 0.30074 0.99688
 C771 C 0.07193 0.26830 0.98186
 C772 C 0.08239 0.25917 0.93737
 C773 C 0.11695 0.28745 0.92797
 H774 H 0.06753 0.23486 0.91541
 H775 H 0.15107 0.33541 0.96789
 H776 H 0.09735 0.31690 1.02773
 N777 N 0.63920 0.69842 0.43518
 N778 N 0.60596 0.70277 0.46328
 C779 C 0.57288 0.72549 0.44249
 C780 C 0.58511 0.73503 0.39864
 C781 C 0.62776 0.71775 0.39574
 H782 H 0.56696 0.75456 0.37378
 H783 H 0.66972 0.68352 0.44346
 H784 H 0.60641 0.69088 0.49628
 N785 N 0.91866 0.71356 0.85472
 N786 N 0.94655 0.71202 0.88880
 C787 C 0.93502 0.74410 0.91810
 C788 C 0.89705 0.76636 0.90271
 C789 C 0.88850 0.74629 0.86184
 H790 H 0.88105 0.79566 0.91673
 H791 H 0.92121 0.69341 0.82637
 H792 H 0.97449 0.69103 0.89059
 N793 N 0.45552 0.20261 0.36888
 N794 N 0.47844 0.20079 0.40661
 C795 C 0.45731 0.22542 0.43796
 C796 C 0.41827 0.24249 0.41937
 C797 C 0.41877 0.22748 0.37548
 H798 H 0.39287 0.26255 0.43537
 H799 H 0.46388 0.18506 0.33991
 H800 H 0.50706 0.18119 0.41082
 N801 N 0.12648 0.80043 0.07173
 N802 N 0.08522 0.80969 0.05934
 C803 C 0.06172 0.77157 0.05841
 C804 C 0.09003 0.73651 0.07076
 C805 C 0.13077 0.75606 0.07838
 H806 H 0.08254 0.70122 0.07191
 H807 H 0.15092 0.82436 0.07653
 H808 H 0.07416 0.84126 0.04856
 N809 N 0.54181 0.23572 0.68665
 N810 N 0.51113 0.23469 0.65504
 C811 C 0.52923 0.24841 0.61639
 C812 C 0.57364 0.25886 0.62400
 C813 C 0.58031 0.24968 0.66877
 H814 H 0.59807 0.26996 0.60012
 H815 H 0.53652 0.22574 0.71979
 H816 H 0.47924 0.22243 0.65966
 N817 N 0.84565 0.19695 0.08617
 N818 N 0.87522 0.20594 0.05508
 C819 C 0.90916 0.22776 0.07404
 C820 C 0.90078 0.23205 0.11998
 C821 C 0.86002 0.21214 0.12612
 H822 H 0.92080 0.24827 0.14511
 H823 H 0.81595 0.18051 0.07991
 H824 H 0.87232 0.19633 0.02163
 N825 N 0.33859 0.78174 0.54062
 N826 N 0.37219 0.78265 0.51267
 C827 C 0.40653 0.75978 0.53105
 C828 C 0.39460 0.74490 0.57374
 C829 C 0.35078 0.75905 0.57800
 H830 H 0.41415 0.72492 0.59711
 H831 H 0.30768 0.79662 0.53405
 H832 H 0.37128 0.79864 0.48144
 N833 N 0.22871 0.16402 0.96418
 N834 N 0.22574 0.12391 0.98798
 C835 C 0.23419 0.08999 0.95937
 C836 C 0.24186 0.10804 0.91688
 C837 C 0.23842 0.15400 0.92149
 H838 H 0.24963 0.09054 0.88626
 H839 H 0.22252 0.19573 0.97744
 H840 H 0.21513 0.12180 1.02111
 N841 N 0.81210 0.61537 0.43344
 N842 N 0.80980 0.58220 0.46258
 C843 C 0.77831 0.55387 0.44873
 C844 C 0.76080 0.56861 0.40823
 C845 C 0.78256 0.60818 0.40044
 H846 H 0.73270 0.55551 0.39012
 H847 H 0.83226 0.64324 0.43713
 H848 H 0.82739 0.58072 0.49282
 N849 N 0.78785 0.03121 0.15878
 N850 N 0.78807 0.00497 0.12343
 C851 C 0.75694 0.01986 0.09407
 C852 C 0.73714 0.05842 0.11122
 C853 C 0.75770 0.06423 0.15217
 H854 H 0.71212 0.07981 0.09571
 H855 H 0.80959 0.02767 0.18600
 H856 H 0.81132 -0.02071 0.11880
 N857 N 0.17422 0.57475 0.60579
 N858 N 0.17897 0.54136 0.57758
 C859 C 0.21054 0.55213 0.54797
 C860 C 0.22576 0.59484 0.55674
 C861 C 0.20224 0.60754 0.59422
 H862 H 0.25303 0.61197 0.54107
 H863 H 0.15346 0.57417 0.63367
 H864 H 0.16215 0.51113 0.57984
 N865 N 0.73286 0.95433 0.83942
 N866 N 0.73317 0.98121 0.87440
 C867 C 0.75195 0.95935 0.90946
 C868 C 0.76363 0.91603 0.89563
 C869 C 0.75066 0.91427 0.85126
 H870 H 0.77921 0.88923 0.91478
 H871 H 0.71948 0.96309 0.80816
 H872 H 0.71906 1.01330 0.87430
 N873 N 0.31812 0.40450 0.36131
 N874 N 0.31024 0.43962 0.38676
 C875 C 0.27696 0.42996 0.41481
 C876 C 0.26388 0.38594 0.40764
 C877 C 0.29071 0.37116 0.37295
 H878 H 0.23643 0.36871 0.42286
 H879 H 0.34074 0.40410 0.33496
 H880 H 0.32688 0.46992 0.38417
 N881 N 0.28737 0.84859 0.02676
 N882 N 0.27682 0.87868 -0.00434
 C883 C 0.24385 0.90508 0.01107
 C884 C 0.23304 0.89024 0.05437
 C885 C 0.26222 0.85539 0.06343
 H886 H 0.20914 0.90461 0.07720
 H887 H 0.31269 0.82468 0.02337
 H888 H 0.29460 0.88303 -0.03390
 N889 N 0.66462 0.38049 0.60631
 N890 N 0.67306 0.39899 0.56696
 C891 C 0.71012 0.42298 0.57088
 C892 C 0.72520 0.42038 0.61502
 C893 C 0.69546 0.39305 0.63662
 H894 H 0.75545 0.43403 0.62857
 H895 H 0.63971 0.35714 0.61161
 H896 H 0.65380 0.39504 0.53811
 N897 N 0.07211 0.15546 0.82257
 N898 N 0.04033 0.12693 0.81360
 C899 C 0.05124 0.10381 0.77660
 C900 C 0.09292 0.11753 0.76220
 C901 C 0.10472 0.15067 0.79227
 H902 H 0.11046 0.10725 0.73240
 H903 H 0.07076 0.17889 0.84834
 H904 H 0.01138 0.12397 0.83232
 N905 N 0.60488 0.60889 0.20394
 N906 N 0.57112 0.58143 0.20557
 C907 C 0.57532 0.55539 0.24231
 C908 C 0.61456 0.56632 0.26473
 C909 C 0.63214 0.60083 0.23912
 H910 H 0.62678 0.55312 0.29638
 H911 H 0.60830 0.63408 0.17981
 H912 H 0.54555 0.58085 0.18186
 N913 N 0.12514 0.89466 0.15903
 N914 N 0.10356 0.93121 0.17172
 C915 C 0.08444 0.92312 0.21143
 C916 C 0.09365 0.87890 0.22391
 C917 C 0.11962 0.86175 0.18969
 H918 H 0.08522 0.86261 0.25516
 H919 H 0.14584 0.89320 0.13115
 H920 H 0.10227 0.96116 0.15350
 N921 N 0.58811 0.40456 0.71392
 N922 N 0.57046 0.44467 0.70632
 C923 C 0.56910 0.46790 0.74492
 C924 C 0.58698 0.44053 0.77862
 C925 C 0.59792 0.40054 0.75778
 H926 H 0.58923 0.44777 0.81403
 H927 H 0.59395 0.38065 0.68920
 H928 H 0.55647 0.45473 0.67570
 N929 N 0.88916 0.05065 0.32337
 N930 N 0.92339 0.02330 0.31851
 C931 C 0.94661 0.03661 0.28254
 C932 C 0.92723 0.07516 0.26449
 C933 C 0.89033 0.08219 0.29100
 H934 H 0.93571 0.09225 0.23369
 H935 H 0.86446 0.04658 0.34738
 H936 H 0.92910 -0.00548 0.33787
 N937 N 0.34408 0.57259 0.69925
 N938 N 0.37985 0.54709 0.70390
 C939 C 0.41149 0.57034 0.72532
 C940 C 0.39548 0.61328 0.73351
 C941 C 0.35226 0.61289 0.71699
 H942 H 0.41179 0.63987 0.75133
 H943 H 0.31453 0.56227 0.68441
 H944 H 0.38207 0.51393 0.69325
 N945 N 0.93702 0.88002 0.76373
 N946 N 0.96619 0.91225 0.76538
 C947 C 0.94846 0.94911 0.74590
 C948 C 0.90518 0.94028 0.73221
 C949 C 0.89968 0.89562 0.74367
 H950 H 0.88205 0.96240 0.71485
 H951 H 0.94289 0.84767 0.77611
 H952 H 0.99766 0.90883 0.77986
 N953 N 0.44597 0.34598 0.20137
 N954 N 0.47742 0.37528 0.20794
 C955 C 0.46246 0.40608 0.23694
 C956 C 0.41900 0.39680 0.24857
 C957 C 0.41019 0.35787 0.22561
 H958 H 0.39839 0.41384 0.27280
 H959 H 0.44974 0.31722 0.18198
 H960 H 0.50873 0.37368 0.19325
   
