data_POSCAR
  _audit_creation_date              2014-09-24
  _audit_creation_method            'ToBaCCo'
  _symmetry_space_group_name_H-M    'P1'
  _symmetry_Int_Tables_number       1
  _symmetry_cell_setting            triclinic
  loop_
  _symmetry_equiv_pos_as_xyz
 x,y,z
_cell_length_a 19.6141
_cell_length_b 19.5648
_cell_length_c 33.7198
_cell_angle_alpha 88.175900
_cell_angle_beta 89.023200
_cell_angle_gamma 92.479300
loop_
  _atom_site_label
  _atom_site_type_symbol
  _atom_site_fract_x
  _atom_site_fract_y
  _atom_site_fract_z
O1 O -0.06184 0.56508 0.96786
 O2 O -0.05325 0.42236 1.04125
 O3 O -0.05577 0.55548 1.04465
 O4 O -0.06040 0.43201 0.96477
 O5 O 0.05213 0.43538 0.96206
 O6 O 0.05630 0.56645 1.03834
 O7 O 0.05906 0.43283 1.03904
 O8 O 0.05053 0.56779 0.96094
 Cu9 Cu -0.06909 0.49313 1.00513
 Cu10 Cu 0.06584 0.50144 0.99978
 C11 C -0.00707 0.58987 0.95150
 C12 C 0.00441 0.40304 1.05283
 C13 C 0.00084 0.58309 1.05473
 C14 C -0.00501 0.41162 0.95017
 O15 O 0.56575 -0.04651 0.54427
 O16 O 0.43391 -0.05171 0.46749
 O17 O 0.56716 -0.05514 0.46773
 O18 O 0.43344 -0.04275 0.54476
 O19 O 0.44105 0.06991 0.53807
 O20 O 0.57439 0.05743 0.46074
 O21 O 0.44160 0.06099 0.46167
 O22 O 0.57394 0.06594 0.53739
 Cu23 Cu 0.49908 -0.06035 0.50662
 Cu24 Cu 0.50856 0.07481 0.49880
 C25 C 0.59297 0.01069 0.55378
 C26 C 0.41479 0.00399 0.45172
 C27 C 0.59420 -0.00097 0.45134
 C28 C 0.41433 0.01569 0.55455
 Si29 Si 0.01032 -0.01425 0.25262
 Si30 Si -0.00434 0.01039 0.75171
 C31 C 0.00025 -0.25968 0.14161
 C32 C 0.06066 -0.27171 0.11980
 C33 C 0.06108 -0.32405 0.09218
 C34 C 0.00165 -0.36426 0.08536
 C35 C -0.05796 -0.35243 0.10720
 C36 C -0.05874 -0.30117 0.13501
 C37 C 0.00148 -0.20237 0.17016
 C38 C -0.05596 -0.18612 0.19317
 C39 C -0.05280 -0.13096 0.21840
 C40 C 0.00764 -0.09110 0.22161
 C41 C 0.06513 -0.10654 0.19903
 C42 C 0.06272 -0.16207 0.17359
 C43 C 0.11994 -0.23075 0.12518
 C44 C 0.12087 -0.17696 0.15136
 H45 H 0.16622 -0.23992 0.10852
 H46 H 0.16782 -0.14632 0.15410
 H47 H 0.10741 -0.33245 0.07537
 H48 H -0.10452 -0.38276 0.10267
 H49 H -0.09843 -0.11875 0.23468
 H50 H 0.11166 -0.07492 0.20106
 H51 H -0.10628 -0.29456 0.15063
 H52 H -0.10403 -0.21471 0.19186
 C53 C 0.01526 0.23468 0.13478
 C54 C -0.04806 0.25231 0.11873
 C55 C -0.05157 0.30922 0.09251
 C56 C 0.00776 0.34798 0.08049
 C57 C 0.07074 0.32917 0.09585
 C58 C 0.07445 0.27377 0.12275
 C59 C 0.01650 0.17436 0.16333
 C60 C 0.07588 0.15544 0.18317
 C61 C 0.07406 0.09921 0.20979
 C62 C 0.01327 0.06053 0.21714
 C63 C -0.04566 0.07766 0.19697
 C64 C -0.04500 0.13519 0.17100
 C65 C -0.10737 0.21227 0.12827
 C66 C -0.10566 0.15436 0.15334
 H67 H -0.15580 0.22538 0.11574
 H68 H -0.15283 0.12468 0.15945
 H69 H -0.10064 0.32204 0.08066
 H70 H 0.11764 0.35744 0.08721
 H71 H 0.12056 0.08582 0.22439
 H72 H -0.09256 0.04710 0.20229
 H73 H 0.12430 0.26192 0.13331
 H74 H 0.12400 0.18371 0.17894
 C75 C 0.25014 0.02732 0.64020
 C76 C 0.29131 -0.03037 0.64024
 C77 C 0.34501 -0.03371 0.61237
 C78 C 0.35969 0.02055 0.58492
 C79 C 0.32091 0.07900 0.58615
 C80 C 0.26664 0.08236 0.61326
 C81 C 0.19045 0.02678 0.66864
 C82 C 0.14287 0.07873 0.66864
 C83 C 0.08613 0.07391 0.69427
 C84 C 0.07553 0.01772 0.72069
 C85 C 0.12410 -0.03265 0.72230
 C86 C 0.18030 -0.02954 0.69583
 C87 C 0.27862 -0.08439 0.66800
 C88 C 0.22495 -0.08349 0.69559
 H89 H 0.31067 -0.12816 0.66838
 H90 H 0.21717 -0.12666 0.71636
 H91 H 0.37557 -0.07859 0.61211
 H92 H 0.33154 0.12173 0.56543
 H93 H 0.05014 0.11421 0.69310
 H94 H 0.11798 -0.07509 0.74351
 H95 H 0.23827 0.12835 0.61251
 H96 H 0.14755 0.12267 0.64851
 C97 C -0.24653 0.01807 0.63661
 C98 C -0.27999 -0.04516 0.62808
 C99 C -0.33350 -0.04733 0.60091
 C100 C -0.35511 0.01300 0.58203
 C101 C -0.32276 0.07578 0.59149
 C102 C -0.26935 0.07836 0.61826
 C103 C -0.18816 0.01790 0.66478
 C104 C -0.14965 0.07768 0.67385
 C105 C -0.09522 0.07466 0.69983
 C106 C -0.07788 0.01232 0.71753
 C107 C -0.11595 -0.04745 0.70906
 C108 C -0.17041 -0.04526 0.68258
 C109 C -0.25979 -0.10592 0.64664
 C110 C -0.20654 -0.10590 0.67350
 H111 H -0.28561 -0.15434 0.64030
 H112 H -0.19295 -0.15429 0.68706
 H113 H -0.35802 -0.09635 0.59440
 H114 H -0.33811 0.12346 0.57785
 H115 H -0.06705 0.12161 0.70637
 H116 H -0.10304 -0.09591 0.72261
 H117 H -0.24669 0.12814 0.62403
 H118 H -0.16027 0.12723 0.66111
 C119 C -0.01217 -0.24539 0.86483
 C120 C -0.03574 -0.23680 0.90424
 C121 C -0.03653 -0.29195 0.93193
 C122 C -0.01016 -0.35437 0.92160
 C123 C 0.01595 -0.36222 0.88323
 C124 C 0.01423 -0.30865 0.85489
 C125 C -0.01330 -0.18557 0.83602
 C126 C 0.00076 -0.19068 0.79511
 C127 C 0.00134 -0.13266 0.76982
 C128 C -0.01019 -0.06817 0.78483
 C129 C -0.02710 -0.06310 0.82513
 C130 C -0.03033 -0.12133 0.85055
 C131 C -0.05576 -0.17266 0.91617
 C132 C -0.05135 -0.11574 0.89018
 H133 H -0.07311 -0.16587 0.94642
 H134 H -0.06549 -0.06674 0.90114
 H135 H -0.05502 -0.28558 0.96203
 H136 H 0.03733 -0.41010 0.87514
 H137 H 0.01196 -0.13809 0.73848
 H138 H -0.03848 -0.01403 0.83694
 H139 H 0.03530 -0.31707 0.82577
 H140 H 0.01065 -0.23903 0.78211
 C141 C -0.01251 0.25366 0.86380
 C142 C 0.05103 0.28269 0.87565
 C143 C 0.05316 0.33492 0.90330
 C144 C -0.00729 0.35895 0.91959
 C145 C -0.07016 0.33100 0.90719
 C146 C -0.07288 0.27922 0.87969
 C147 C -0.01253 0.19635 0.83530
 C148 C -0.07292 0.16245 0.82275
 C149 C -0.07007 0.10792 0.79720
 C150 C -0.00725 0.08632 0.78332
 C151 C 0.05315 0.11966 0.79521
 C152 C 0.05103 0.17432 0.82114
 C153 C 0.11206 0.25898 0.86019
 C154 C 0.11205 0.20609 0.83346
 H155 H 0.16070 0.28138 0.86911
 H156 H 0.16068 0.18930 0.82258
 H157 H 0.10211 0.35625 0.91249
 H158 H -0.11766 0.34870 0.91909
 H159 H -0.11718 0.08187 0.78872
 H160 H 0.10190 0.10221 0.78497
 H161 H -0.12278 0.25974 0.87156
 H162 H -0.12279 0.17643 0.83266
 C163 C -0.23774 -0.01456 0.36828
 C164 C -0.27097 0.04778 0.37206
 C165 C -0.32610 0.05178 0.39891
 C166 C -0.34976 -0.00595 0.42174
 C167 C -0.31824 -0.06822 0.41690
 C168 C -0.26298 -0.07259 0.39062
 C169 C -0.17736 -0.01598 0.34048
 C170 C -0.13748 -0.07380 0.33694
 C171 C -0.08165 -0.07241 0.31068
 C172 C -0.06501 -0.01410 0.28685
 C173 C -0.10278 0.04445 0.29089
 C174 C -0.15853 0.04406 0.31760
 C175 C -0.24913 0.10568 0.34900
 C176 C -0.19464 0.10363 0.32203
 H177 H -0.27483 0.15330 0.35167
 H178 H -0.18001 0.14971 0.30470
 H179 H -0.35059 0.10000 0.40201
 H180 H -0.33563 -0.11367 0.43398
 H181 H -0.05151 -0.11734 0.30879
 H182 H -0.08809 0.09087 0.27399
 H183 H -0.24091 -0.12186 0.38826
 H184 H -0.14789 -0.12024 0.35446
 C185 C 0.25180 0.00297 0.36755
 C186 C 0.28651 -0.05764 0.37589
 C187 C 0.33962 -0.05735 0.40343
 C188 C 0.35998 0.00318 0.42208
 C189 C 0.32706 0.06361 0.41257
 C190 C 0.27370 0.06364 0.38580
 C191 C 0.19357 0.00005 0.33937
 C192 C 0.15196 0.05587 0.33212
 C193 C 0.09791 0.05053 0.30597
 C194 C 0.08467 -0.00988 0.28590
 C195 C 0.12465 -0.06633 0.29322
 C196 C 0.17851 -0.06205 0.32019
 C197 C 0.26835 -0.11786 0.35647
 C198 C 0.21621 -0.11974 0.32878
 H199 H 0.29524 -0.16418 0.36252
 H200 H 0.20449 -0.16745 0.31437
 H201 H 0.36544 -0.10413 0.41009
 H202 H 0.34195 0.11114 0.42631
 H203 H 0.06623 0.09399 0.30138
 H204 H 0.11289 -0.11399 0.27880
 H205 H 0.25065 0.11181 0.37974
 H206 H 0.15939 0.10370 0.34679
   
