data_POSCAR
  _audit_creation_date              2014-09-24
  _audit_creation_method            'ToBaCCo'
  _symmetry_space_group_name_H-M    'P1'
  _symmetry_Int_Tables_number       1
  _symmetry_cell_setting            triclinic
  loop_
  _symmetry_equiv_pos_as_xyz
 x,y,z
_cell_length_a 18.0456
_cell_length_b 27.5549
_cell_length_c 18.2306
_cell_angle_alpha 90.210700
_cell_angle_beta 89.799700
_cell_angle_gamma 89.870600
loop_
  _atom_site_label
  _atom_site_type_symbol
  _atom_site_fract_x
  _atom_site_fract_y
  _atom_site_fract_z
N1 N 0.12944 0.05168 0.07797
 N2 N 0.17518 0.08852 0.08710
 N3 N 0.07832 -0.05007 0.13027
 N4 N 0.08731 -0.08669 0.17593
 N5 N 0.13015 -0.05046 0.07949
 N6 N 0.17586 -0.08736 0.08916
 N7 N 0.07762 0.05203 0.12873
 N8 N 0.08658 0.08911 0.17385
 C9 C 0.14756 0.11134 0.14704
 C10 C 0.14835 -0.10941 0.14951
 N11 N -0.13238 -0.05075 0.07862
 N12 N -0.17765 -0.08780 0.08798
 N13 N -0.08196 0.05198 0.12819
 N14 N -0.09152 0.08937 0.17284
 N15 N -0.13303 0.05134 0.07709
 N16 N -0.18102 0.09060 0.08670
 N17 N -0.08128 -0.05016 0.12975
 N18 N -0.09031 -0.08678 0.17536
 Mn19 Mn -0.00184 0.00095 0.13010
 C20 C -0.15061 -0.10969 0.14852
 C21 C -0.15221 0.11245 0.14671
 N22 N 0.13130 -0.05175 -0.07847
 N23 N 0.17944 -0.09091 -0.08795
 N24 N 0.07947 0.04965 -0.13132
 N25 N 0.08855 0.08631 -0.17693
 N26 N 0.13049 0.05031 -0.08009
 N27 N 0.17572 0.08741 -0.08942
 N28 N 0.08020 -0.05255 -0.12953
 N29 N 0.08990 -0.08995 -0.17408
 Mn30 Mn 0.13123 -0.00005 -0.00027
 C31 C 0.15069 -0.11286 -0.14786
 C32 C 0.14880 0.10931 -0.15003
 N33 N -0.13188 0.04982 -0.08094
 N34 N -0.17735 0.08684 -0.09046
 N35 N -0.07958 -0.05291 -0.13008
 N36 N -0.08840 -0.09027 -0.17485
 N37 N -0.13136 -0.05225 -0.07932
 N38 N -0.17904 -0.09145 -0.08927
 N39 N -0.08016 0.04929 -0.13182
 N40 N -0.08895 0.08595 -0.17741
 Mn41 Mn -0.13304 -0.00045 -0.00114
 Mn42 Mn -0.00001 -0.00165 -0.13159
 Cl43 Cl -0.00091 -0.00029 -0.00073
 C44 C -0.14979 0.10879 -0.15083
 C45 C -0.14934 -0.11332 -0.14909
 N46 N 0.63229 0.55126 0.57936
 N47 N 0.67820 0.58803 0.58848
 N48 N 0.58069 0.44934 0.63034
 N49 N 0.58970 0.41240 0.67537
 N50 N 0.63214 0.44912 0.57920
 N51 N 0.67765 0.41203 0.58798
 N52 N 0.58080 0.55150 0.63049
 N53 N 0.59026 0.58844 0.67584
 C54 C 0.65118 0.61070 0.64882
 C55 C 0.65037 0.38970 0.64816
 N56 N 0.36958 0.44946 0.58010
 N57 N 0.32402 0.41251 0.58916
 N58 N 0.42107 0.55165 0.63106
 N59 N 0.41168 0.58857 0.67653
 N60 N 0.36958 0.55160 0.58031
 N61 N 0.32370 0.58849 0.58978
 N62 N 0.42103 0.44948 0.63091
 N63 N 0.41192 0.41253 0.67596
 Mn64 Mn 0.50090 0.50050 0.63159
 C65 C 0.35121 0.39001 0.64915
 C66 C 0.35079 0.61100 0.64995
 N67 N 0.63213 0.44874 0.42114
 N68 N 0.67786 0.41174 0.41163
 N69 N 0.58070 0.55090 0.37063
 N70 N 0.58975 0.58777 0.32550
 N71 N 0.63222 0.55090 0.42134
 N72 N 0.67782 0.58780 0.41216
 N73 N 0.58063 0.44878 0.37039
 N74 N 0.58986 0.41183 0.32493
 Mn75 Mn 0.63309 0.50000 0.50026
 C76 C 0.65068 0.38926 0.35145
 C77 C 0.65050 0.61022 0.35219
 N78 N 0.36960 0.55149 0.42230
 N79 N 0.32390 0.58847 0.41334
 N80 N 0.42105 0.44921 0.37095
 N81 N 0.41167 0.41240 0.32542
 N82 N 0.36957 0.44934 0.42206
 N83 N 0.32366 0.41261 0.41276
 N84 N 0.42110 0.55132 0.37119
 N85 N 0.41189 0.58817 0.32602
 Mn86 Mn 0.36870 0.50047 0.50120
 Mn87 Mn 0.50087 0.50005 0.36993
 Cl88 Cl 0.50089 0.50026 0.50076
 C89 C 0.35109 0.61082 0.35311
 C90 C 0.35079 0.39011 0.35233
 C91 C 0.17904 0.15434 0.17842
 C92 C 0.20530 0.19048 0.20494
 C93 C 0.23592 0.23279 0.23614
 C94 C 0.26206 0.26890 0.26284
 C95 C 0.29274 0.31117 0.29410
 C96 C 0.31911 0.34723 0.32074
 C97 C 0.81849 0.84723 0.17998
 C98 C 0.79281 0.81097 0.20644
 C99 C 0.76292 0.76846 0.23745
 C100 C 0.73742 0.73214 0.26390
 C101 C 0.70745 0.68962 0.29479
 C102 C 0.68164 0.65334 0.32107
 C103 C 0.81934 0.15195 0.81779
 C104 C 0.79354 0.18830 0.79160
 C105 C 0.76340 0.23092 0.76109
 C106 C 0.73765 0.26735 0.73512
 C107 C 0.70742 0.31002 0.70479
 C108 C 0.68148 0.34642 0.67894
 C109 C 0.17845 0.84787 0.82297
 C110 C 0.20438 0.81154 0.79622
 C111 C 0.23501 0.76902 0.76514
 C112 C 0.26137 0.73274 0.73872
 C113 C 0.29241 0.69028 0.70785
 C114 C 0.31903 0.65406 0.68147
 C115 C 0.17989 0.15250 0.81859
 C116 C 0.20602 0.18882 0.79249
 C117 C 0.23667 0.23142 0.76211
 C118 C 0.26287 0.26781 0.73626
 C119 C 0.29360 0.31043 0.70600
 C120 C 0.31987 0.34678 0.68013
 C121 C 0.82344 0.84742 0.82137
 C122 C 0.79781 0.81111 0.79446
 C123 C 0.76730 0.76861 0.76334
 C124 C 0.74094 0.73236 0.73701
 C125 C 0.70979 0.68993 0.70631
 C126 C 0.68307 0.65374 0.68012
 C127 C 0.17965 0.84757 0.18120
 C128 C 0.20583 0.81137 0.20770
 C129 C 0.23644 0.76893 0.23864
 C130 C 0.26258 0.73268 0.26498
 C131 C 0.29326 0.69020 0.29575
 C132 C 0.31956 0.65395 0.32196
 C133 C 0.82023 0.15180 0.17606
 C134 C 0.79468 0.18820 0.20315
 C135 C 0.76462 0.23082 0.23477
 C136 C 0.73882 0.26718 0.26168
 C137 C 0.70839 0.30975 0.29308
 C138 C 0.68220 0.34606 0.31978
   
