data_POSCAR
  _audit_creation_date              2014-09-24
  _audit_creation_method            'ToBaCCo'
  _symmetry_space_group_name_H-M    'P1'
  _symmetry_Int_Tables_number       1
  _symmetry_cell_setting            triclinic
  loop_
  _symmetry_equiv_pos_as_xyz
 x,y,z
_cell_length_a 22.9966
_cell_length_b 23.1513
_cell_length_c 39.4690
_cell_angle_alpha 87.994800
_cell_angle_beta 89.865200
_cell_angle_gamma 90.318300
loop_
  _atom_site_label
  _atom_site_type_symbol
  _atom_site_fract_x
  _atom_site_fract_y
  _atom_site_fract_z
O1 O -0.05558 0.43837 1.03334
 O2 O -0.06626 0.55796 0.96954
 O3 O -0.06331 0.44515 0.96751
 O4 O -0.05979 0.55046 1.03505
 O5 O 0.03581 0.55532 1.03115
 O6 O 0.03239 0.44826 0.96414
 O7 O 0.02927 0.56053 0.96522
 O8 O 0.04008 0.44296 1.02996
 Cu9 Cu -0.07082 0.49750 1.00165
 Cu10 Cu 0.04397 0.50214 0.99724
 C11 C -0.00582 0.42037 1.04269
 C12 C -0.02026 0.58002 0.95651
 C13 C -0.01613 0.42832 0.95439
 C14 C -0.01152 0.57122 1.04457
 O15 O 0.45042 0.05307 0.53018
 O16 O 0.56310 0.04795 0.46464
 O17 O 0.44969 0.04656 0.46479
 O18 O 0.56382 0.04981 0.53067
 O19 O 0.56311 -0.04548 0.53365
 O20 O 0.44762 -0.04864 0.47000
 O21 O 0.56123 -0.04724 0.46767
 O22 O 0.44985 -0.04213 0.53532
 Cu23 Cu 0.50709 0.05886 0.49716
 Cu24 Cu 0.50552 -0.05539 0.50204
 C25 C 0.43041 0.00664 0.54383
 C26 C 0.58152 -0.00020 0.45467
 C27 C 0.42840 -0.00187 0.45669
 C28 C 0.58310 0.00238 0.54331
 Si29 Si 0.00589 -0.01553 0.24935
 Si30 Si 0.00594 0.01193 0.75143
 C31 C -0.06320 -0.36628 0.08530
 C32 C -0.06297 -0.32457 0.10999
 C33 C -0.01051 -0.30067 0.12119
 C34 C 0.04215 -0.32057 0.10765
 C35 C 0.04191 -0.36234 0.08286
 C36 C -0.01080 -0.38541 0.07128
 C37 C -0.01312 -0.25604 0.14723
 C38 C 0.02998 -0.21836 0.15308
 C39 C 0.02486 -0.17162 0.17771
 C40 C 0.05987 -0.12208 0.17324
 C41 C 0.05479 -0.07615 0.19510
 C42 C 0.01517 -0.07916 0.22216
 C43 C -0.01927 -0.12893 0.22702
 C44 C -0.01410 -0.17499 0.20529
 H45 H -0.10459 -0.38328 0.07706
 H46 H -0.10412 -0.31047 0.12015
 H47 H 0.08365 -0.30473 0.11630
 H48 H 0.08305 -0.37660 0.07279
 H49 H -0.05403 -0.25202 0.16051
 H50 H 0.06901 -0.21874 0.13776
 H51 H 0.09025 -0.11828 0.15225
 H52 H 0.08065 -0.03763 0.19012
 H53 H -0.05077 -0.13249 0.24730
 H54 H -0.04064 -0.21303 0.21035
 C55 C 0.05361 0.35292 0.07937
 C56 C 0.05813 0.30772 0.10360
 C57 C 0.00813 0.28085 0.11733
 C58 C -0.04681 0.30112 0.10686
 C59 C -0.05134 0.34642 0.08264
 C60 C -0.00118 0.37267 0.06852
 C61 C 0.01526 0.23308 0.14299
 C62 C -0.02534 0.19229 0.14945
 C63 C -0.01705 0.14342 0.17424
 C64 C -0.04957 0.09257 0.17042
 C65 C -0.04270 0.04535 0.19305
 C66 C -0.00352 0.04834 0.22005
 C67 C 0.02814 0.09937 0.22450
 C68 C 0.02138 0.14664 0.20187
 H69 H 0.09313 0.37235 0.06914
 H70 H 0.10095 0.29335 0.11143
 H71 H -0.08642 0.28291 0.11763
 H72 H -0.09420 0.36100 0.07506
 H73 H 0.05703 0.22981 0.15546
 H74 H -0.06492 0.19232 0.13467
 H75 H -0.07992 0.08914 0.14962
 H76 H -0.06785 0.00638 0.18940
 H77 H 0.05777 0.10308 0.24557
 H78 H 0.04561 0.18574 0.20648
 C79 C 0.35314 0.06212 0.57281
 C80 C 0.30601 0.06506 0.59498
 C81 C 0.28825 0.01630 0.61443
 C82 C 0.31859 -0.03587 0.61126
 C83 C 0.36545 -0.03905 0.58867
 C84 C 0.38300 0.00990 0.56910
 C85 C 0.23576 0.02074 0.63588
 C86 C 0.22645 -0.01159 0.66421
 C87 C 0.17303 -0.00578 0.68477
 C88 C 0.17560 -0.01444 0.72010
 C89 C 0.12566 -0.00838 0.73996
 C90 C 0.07231 0.00568 0.72472
 C91 C 0.06927 0.01245 0.68936
 C92 C 0.11917 0.00705 0.66955
 H93 H 0.36528 0.10054 0.55796
 H94 H 0.28306 0.10559 0.59680
 H95 H 0.30511 -0.07465 0.62532
 H96 H 0.38746 -0.07993 0.58624
 H97 H 0.20470 0.05398 0.62870
 H98 H 0.25987 -0.04074 0.67360
 H99 H 0.21644 -0.02513 0.73235
 H100 H 0.12862 -0.01481 0.76721
 H101 H 0.02851 0.02153 0.67679
 H102 H 0.11528 0.01190 0.64227
 C103 C -0.34597 -0.05029 0.58077
 C104 C -0.30227 -0.05123 0.60520
 C105 C -0.28197 0.00015 0.61899
 C106 C -0.30714 0.05289 0.60790
 C107 C -0.35086 0.05382 0.58322
 C108 C -0.37068 0.00221 0.56938
 C109 C -0.23515 -0.00433 0.64484
 C110 C -0.20535 0.04061 0.65680
 C111 C -0.15660 0.03351 0.68119
 C112 C -0.11426 0.07731 0.68251
 C113 C -0.06630 0.07107 0.70399
 C114 C -0.05975 0.02084 0.72443
 C115 C -0.10306 -0.02189 0.72437
 C116 C -0.15123 -0.01560 0.70308
 H117 H -0.36020 -0.09090 0.57068
 H118 H -0.28405 -0.09251 0.61327
 H119 H -0.29399 0.09354 0.61818
 H120 H -0.36938 0.09493 0.57514
 H121 H -0.22300 -0.04763 0.65310
 H122 H -0.21384 0.08391 0.64704
 H123 H -0.11770 0.11597 0.66638
 H124 H -0.03371 0.10501 0.70419
 H125 H -0.09980 -0.06034 0.74061
 H126 H -0.18412 -0.04916 0.70411
 C127 C -0.07779 -0.34698 0.92545
 C128 C -0.08080 -0.29860 0.90332
 C129 C -0.03056 -0.27651 0.88729
 C130 C 0.02306 -0.30327 0.89400
 C131 C 0.02638 -0.35090 0.91662
 C132 C -0.02398 -0.37338 0.93281
 C133 C -0.03449 -0.22347 0.86546
 C134 C -0.00048 -0.21392 0.83822
 C135 C -0.00214 -0.15939 0.81763
 C136 C 0.00830 -0.16051 0.78264
 C137 C 0.00916 -0.10919 0.76289
 C138 C 0.00102 -0.05591 0.77798
 C139 C -0.00864 -0.05458 0.81302
 C140 C -0.01067 -0.10592 0.83268
 H141 H -0.11756 -0.36270 0.93740
 H142 H -0.12250 -0.27831 0.89870
 H143 H 0.06279 -0.28633 0.88262
 H144 H 0.06866 -0.36976 0.92155
 H145 H -0.06749 -0.19221 0.87153
 H146 H 0.02829 -0.24766 0.83006
 H147 H 0.01560 -0.20117 0.77058
 H148 H 0.01707 -0.11102 0.73589
 H149 H -0.01413 -0.01411 0.82543
 H150 H -0.01717 -0.10359 0.85977
 C151 C -0.07071 0.35925 0.91855
 C152 C -0.07209 0.31668 0.89434
 C153 C -0.02067 0.29825 0.87891
 C154 C 0.03228 0.32475 0.88762
 C155 C 0.03366 0.36726 0.91193
 C156 C -0.01775 0.38466 0.92786
 C157 C -0.02478 0.25161 0.85409
 C158 C 0.02061 0.22033 0.84390
 C159 C 0.01505 0.17175 0.82059
 C160 C 0.06379 0.15601 0.80158
 C161 C 0.06117 0.10891 0.78042
 C162 C 0.01002 0.07609 0.77838
 C163 C -0.03893 0.09184 0.79704
 C164 C -0.03649 0.13902 0.81812
 H165 H -0.11116 0.37179 0.93024
 H166 H -0.11354 0.29745 0.88799
 H167 H 0.07281 0.31351 0.87572
 H168 H 0.07510 0.38646 0.91827
 H169 H -0.06770 0.24197 0.84453
 H170 H 0.06391 0.22990 0.85275
 H171 H 0.10405 0.18029 0.80313
 H172 H 0.09937 0.09810 0.76600
 H173 H -0.07886 0.06699 0.79572
 H174 H -0.07450 0.14850 0.83308
 C175 C -0.35256 0.05135 0.41544
 C176 C -0.30916 0.05127 0.39071
 C177 C -0.28698 -0.00078 0.37914
 C178 C -0.31026 -0.05325 0.39247
 C179 C -0.35378 -0.05326 0.41737
 C180 C -0.37537 -0.00089 0.42934
 C181 C -0.24038 0.00242 0.35301
 C182 C -0.20557 -0.04168 0.34544
 C183 C -0.15668 -0.03572 0.32087
 C184 C -0.11036 -0.07484 0.32354
 C185 C -0.06240 -0.06928 0.30183
 C186 C -0.05993 -0.02468 0.27689
 C187 C -0.10673 0.01357 0.27352
 C188 C -0.15489 0.00789 0.29506
 H189 H -0.36793 0.09271 0.42372
 H190 H -0.29245 0.09233 0.38077
 H191 H -0.29574 -0.09441 0.38363
 H192 H -0.37049 -0.09440 0.42715
 H193 H -0.23242 0.04450 0.34107
 H194 H -0.20994 -0.08264 0.35924
 H195 H -0.11072 -0.10913 0.34294
 H196 H -0.02667 -0.09928 0.30489
 H197 H -0.10627 0.04821 0.25443
 H198 H -0.19052 0.03764 0.29118
 C199 C 0.34545 -0.05465 0.43108
 C200 C 0.29747 -0.05674 0.40960
 C201 C 0.28337 -0.00916 0.38835
 C202 C 0.31801 0.04108 0.38913
 C203 C 0.36562 0.04355 0.41113
 C204 C 0.37974 -0.00434 0.43234
 C205 C 0.23051 -0.01252 0.36726
 C206 C 0.22489 0.01497 0.33703
 C207 C 0.17180 0.00895 0.31630
 C208 C 0.17641 0.00863 0.28088
 C209 C 0.12688 0.00114 0.26095
 C210 C 0.07185 -0.00528 0.27609
 C211 C 0.06699 -0.00242 0.31142
 C212 C 0.11646 0.00422 0.33137
 H213 H 0.35488 -0.09211 0.44731
 H214 H 0.27116 -0.09571 0.40962
 H215 H 0.30741 0.07895 0.37356
 H216 H 0.39114 0.08295 0.41168
 H217 H 0.19624 -0.04158 0.37621
 H218 H 0.26124 0.03923 0.32619
 H219 H 0.21850 0.01318 0.26867
 H220 H 0.13176 0.00090 0.23374
 H221 H 0.02515 -0.00474 0.32387
 H222 H 0.11124 0.00651 0.35856
   
