data_POSCAR
  _audit_creation_date              2014-09-24
  _audit_creation_method            'ToBaCCo'
  _symmetry_space_group_name_H-M    'P1'
  _symmetry_Int_Tables_number       1
  _symmetry_cell_setting            triclinic
  loop_
  _symmetry_equiv_pos_as_xyz
 x,y,z
_cell_length_a 52.8770
_cell_length_b 53.1753
_cell_length_c 34.4006
_cell_angle_alpha 89.585100
_cell_angle_beta 90.595900
_cell_angle_gamma 119.646300
loop_
  _atom_site_label
  _atom_site_type_symbol
  _atom_site_fract_x
  _atom_site_fract_y
  _atom_site_fract_z
C1 C -0.09054 0.44096 -0.01283
 C2 C -0.08770 0.46799 -0.01450
 C3 C -0.05844 0.48728 -0.02067
 N4 N -0.04319 0.47310 -0.02202
 C5 C -0.06293 0.44471 -0.01803
 C6 C -0.04629 0.51729 -0.02767
 C7 C -0.01782 0.53696 -0.01412
 C8 C -0.00213 0.56632 -0.02265
 C9 C 0.02348 0.57749 -0.00170
 C10 C 0.02306 0.55464 0.01857
 N11 N -0.00223 0.53011 0.01100
 C12 C 0.04455 0.55715 0.04556
 C13 C 0.04735 0.53316 0.05812
 C14 C 0.06692 0.53411 0.08610
 C15 C 0.06396 0.50704 0.08776
 C16 C 0.04330 0.49049 0.06003
 N17 N 0.03319 0.50649 0.04193
 C18 C 0.03543 0.46172 0.05011
 C19 C 0.01214 0.44452 0.02479
 C20 C 0.00821 0.41958 0.00679
 C21 C -0.01754 0.40839 -0.01366
 C22 C -0.02888 0.42663 -0.00714
 N23 N -0.01051 0.44868 0.01621
 C24 C -0.05609 0.42226 -0.02088
 H25 H -0.11057 0.42084 -0.00822
 H26 H -0.10512 0.47296 -0.01165
 H27 H -0.01470 0.46397 0.02882
 H28 H -0.00835 0.57864 -0.04171
 H29 H 0.04042 0.59995 -0.00142
 H30 H 0.08227 0.55233 0.10326
 H31 H 0.07608 0.50056 0.10693
 H32 H -0.02663 0.38905 -0.03127
 H33 H -0.00977 0.51038 0.02526
 H34 H 0.02252 0.41046 0.00809
 C35 C 0.47005 0.53885 0.08331
 C36 C 0.49682 0.56329 0.08198
 C37 C 0.51128 0.56006 0.05071
 N38 N 0.49436 0.53426 0.03316
 C39 C 0.46911 0.52131 0.05308
 C40 C 0.53864 0.58167 0.03688
 C41 C 0.55491 0.57588 0.00985
 C42 C 0.57816 0.59662 -0.01132
 C43 C 0.58854 0.58207 -0.03309
 C44 C 0.57156 0.55296 -0.02409
 N45 N 0.55114 0.54941 0.00204
 C46 C 0.57545 0.53031 -0.03829
 C47 C 0.55330 0.50119 -0.03583
 C48 C 0.55748 0.47766 -0.04049
 C49 C 0.53041 0.45363 -0.04059
 C50 C 0.51055 0.46334 -0.03674
 N51 N 0.52462 0.49245 -0.03325
 C52 C 0.47995 0.44578 -0.04047
 C53 C 0.46082 0.45308 -0.02133
 C54 C 0.43086 0.43955 -0.02670
 C55 C 0.42082 0.45352 -0.00311
 C56 C 0.44490 0.47536 0.01571
 N57 N 0.46907 0.47465 0.00496
 C58 C 0.44420 0.49515 0.04230
 H59 H 0.45307 0.53457 0.10399
 H60 H 0.50457 0.58149 0.10160
 H61 H 0.48978 0.48705 0.01691
 H62 H 0.58659 0.61977 -0.01132
 H63 H 0.60640 0.59188 -0.05334
 H64 H 0.57791 0.47784 -0.04383
 H65 H 0.52577 0.43152 -0.04394
 H66 H 0.39842 0.44855 -0.00076
 H67 H 0.53729 0.53029 0.01662
 H68 H 0.41752 0.42182 -0.04603
 C69 C 0.44706 0.92089 0.04666
 C70 C 0.47469 0.92505 0.05016
 C71 C 0.49355 0.95376 0.04064
 N72 N 0.47821 0.96732 0.03220
 C73 C 0.44980 0.94730 0.03602
 C74 C 0.52428 0.96776 0.04366
 C75 C 0.54271 0.99632 0.03046
 C76 C 0.57222 1.01270 0.03884
 C77 C 0.58254 1.03819 0.01829
 C78 C 0.55906 1.03661 -0.00211
 N79 N 0.53495 1.01102 0.00528
 C80 C 0.56045 1.05765 -0.02858
 C81 C 0.53555 1.05839 -0.04207
 C82 C 0.53526 1.07458 -0.07359
 C83 C 0.50772 1.07072 -0.07598
 C84 C 0.49218 1.05281 -0.04526
 N85 N 0.50920 1.04499 -0.02477
 C86 C 0.46306 1.04475 -0.03573
 C87 C 0.44541 1.01993 -0.01292
 C88 C 0.41910 1.01378 0.00364
 C89 C 0.40884 0.98797 0.02307
 C90 C 0.42918 0.97903 0.01821
 N91 N 0.45129 0.99847 -0.00404
 C92 C 0.42649 0.95317 0.03379
 H93 H 0.42724 0.90080 0.05232
 H94 H 0.47996 0.90873 0.05948
 H95 H 0.46816 0.99603 -0.01516
 H96 H 0.58511 1.00679 0.05740
 H97 H 0.60482 1.05574 0.01813
 H98 H 0.55297 1.08755 -0.09313
 H99 H 0.50001 1.07990 -0.09814
 H100 H 0.38886 0.97726 0.03947
 H101 H 0.51519 1.00287 -0.00947
 H102 H 0.40849 1.02673 0.00259
 C103 C 1.07026 0.52275 0.46031
 C104 C 1.06851 0.54757 0.45864
 C105 C 1.03937 0.53908 0.45304
 N106 N 1.02312 0.50989 0.45204
 C107 C 1.04213 0.49994 0.45573
 C108 C 1.02807 0.55804 0.44737
 C109 C 0.99992 0.55035 0.46069
 C110 C 0.98501 0.56517 0.45259
 C111 C 0.95977 0.55198 0.47375
 C112 C 0.95966 0.52914 0.49363
 N113 N 0.98420 0.52834 0.48556
 C114 C 0.93846 0.51128 0.52084
 C115 C 0.93420 0.48391 0.53284
 C116 C 0.91259 0.46531 0.55796
 C117 C 0.91454 0.44063 0.56023
 C118 C 0.93736 0.44477 0.53649
 N119 N 0.94897 0.47107 0.51922
 C120 C 0.94554 0.42354 0.52903
 C121 C 0.96793 0.42783 0.50311
 C122 C 0.97147 0.40591 0.48716
 C123 C 0.99636 0.41900 0.46514
 C124 C 1.00775 0.44868 0.46884
 N125 N 0.99020 0.45376 0.49202
 C126 C 1.03436 0.47045 0.45291
 H127 H 1.08994 0.52153 0.46454
 H128 H 1.08658 0.56939 0.46147
 H129 H 0.99481 0.47380 0.50289
 H130 H 0.99155 0.58372 0.43376
 H131 H 0.94346 0.55862 0.47442
 H132 H 0.89630 0.46858 0.57221
 H133 H 0.89995 0.42151 0.57654
 H134 H 1.00494 0.40772 0.44862
 H135 H 0.99148 0.51574 0.49973
 H136 H 0.95752 0.38282 0.49083
 C137 C 0.51628 0.46094 0.58270
 C138 C 0.54206 0.48659 0.58291
 C139 C 0.54327 0.50038 0.54803
 N140 N 0.51906 0.48403 0.52660
 C141 C 0.50257 0.45990 0.54773
 C142 C 0.56725 0.52674 0.53549
 C143 C 0.56532 0.54363 0.50482
 C144 C 0.58887 0.56761 0.48854
 C145 C 0.57778 0.57884 0.46144
 C146 C 0.54777 0.56126 0.46159
 N147 N 0.54037 0.54004 0.48838
 C148 C 0.52808 0.56620 0.43908
 C149 C 0.49860 0.54495 0.43266
 C150 C 0.47871 0.54917 0.41097
 C151 C 0.45346 0.52307 0.40960
 C152 C 0.45869 0.50359 0.43017
 N153 N 0.48633 0.51694 0.44398
 C154 C 0.43844 0.47380 0.43425
 C155 C 0.44349 0.45470 0.45755
 C156 C 0.42746 0.42475 0.45530
 C157 C 0.43804 0.41409 0.48375
 C158 C 0.46034 0.43782 0.50248
 N159 N 0.46347 0.46249 0.48645
 C160 C 0.47616 0.43617 0.53471
 H161 H 0.50855 0.44491 0.60569
 H162 H 0.55806 0.49422 0.60616
 H163 H 0.47625 0.48324 0.49742
 H164 H 0.61167 0.57635 0.49569
 H165 H 0.59044 0.59788 0.44378
 H166 H 0.48202 0.56879 0.39684
 H167 H 0.43362 0.51891 0.39475
 H168 H 0.43021 0.39144 0.48987
 H169 H 0.51944 0.52591 0.49786
 H170 H 0.40992 0.41184 0.43523
 C171 C 0.45941 -0.05091 0.40714
 C172 C 0.48622 -0.04868 0.40417
 C173 C 0.50144 -0.03516 0.43779
 N174 N 0.48503 -0.02857 0.46098
 C175 C 0.45910 -0.03871 0.44249
 C176 C 0.52961 -0.03024 0.44753
 C177 C 0.54885 -0.00619 0.47049
 C178 C 0.57536 -0.00120 0.48570
 C179 C 0.58769 0.02514 0.50411
 C180 C 0.56817 0.03534 0.50044
 N181 N 0.54476 0.01627 0.47951
 C182 C 0.57299 0.06244 0.51393
 C183 C 0.55080 0.06982 0.51596
 C184 C 0.55530 0.09718 0.52450
 C185 C 0.52830 0.09454 0.52827
 C186 C 0.50817 0.06559 0.52240
 N187 N 0.52198 0.05054 0.51475
 C188 C 0.47780 0.05304 0.52775
 C189 C 0.45751 0.02497 0.51458
 C190 C 0.42848 0.00978 0.52520
 C191 C 0.41613 -0.01619 0.50570
 C192 C 0.43795 -0.01611 0.48350
 N193 N 0.46302 0.00915 0.48893
 C194 C 0.43456 -0.03859 0.45836
 H195 H 0.44212 -0.06033 0.38566
 H196 H 0.49377 -0.05597 0.37990
 H197 H 0.48218 0.01610 0.47348
 H198 H 0.58508 -0.01489 0.48377
 H199 H 0.60878 0.03553 0.51825
 H200 H 0.57586 0.11691 0.52837
 H201 H 0.52403 0.11190 0.53526
 H202 H 0.39373 -0.03322 0.50814
 H203 H 0.52826 0.01969 0.46869
 H204 H 0.41736 0.01655 0.54523
 O205 O 0.23189 0.41489 0.29528
 O206 O 0.19007 0.42160 0.21288
 O207 O 0.23603 0.41564 0.22021
 O208 O 0.18331 0.41708 0.28806
 O209 O 0.20877 0.46480 0.28934
 O210 O 0.26343 0.46307 0.22535
 O211 O 0.21802 0.46912 0.21508
 O212 O 0.25636 0.46255 0.30027
 Cu213 Cu 0.20761 0.41249 0.25392
 Cu214 Cu 0.23930 0.46961 0.25792
 C215 C 0.25132 0.43782 0.31167
 C216 C 0.19723 0.44669 0.19988
 C217 C 0.25886 0.43901 0.21159
 C218 C 0.18666 0.44117 0.29954
 O219 O 0.54399 0.80239 0.28446
 O220 O 0.54692 0.75679 0.20612
 O221 O 0.54653 0.80562 0.20885
 O222 O 0.54470 0.75332 0.28183
 O223 O 0.49667 0.72974 0.27869
 O224 O 0.49850 0.78126 0.20550
 O225 O 0.49887 0.73292 0.20329
 O226 O 0.49597 0.77823 0.28090
 Cu227 Cu 0.55040 0.78195 0.24577
 Cu228 Cu 0.49272 0.75315 0.24189
 C229 C 0.51935 0.79814 0.29568
 C230 C 0.52327 0.73714 0.19135
 C231 C 0.52272 0.80215 0.19464
 C232 C 0.52027 0.73253 0.29248
 O233 O 0.19612 0.74736 0.29139
 O234 O 0.24804 0.79423 0.21622
 O235 O 0.19975 0.74377 0.21682
 O236 O 0.24290 0.79890 0.29073
 O237 O 0.26996 0.77835 0.29997
 O238 O 0.22539 0.72201 0.22875
 O239 O 0.27353 0.77202 0.22583
 O240 O 0.22401 0.72793 0.30278
 Cu241 Cu 0.21909 0.77327 0.25267
 Cu242 Cu 0.25097 0.74808 0.26514
 C243 C 0.20135 0.72950 0.30961
 C244 C 0.26979 0.79107 0.20859
 C245 C 0.20464 0.72298 0.21121
 C246 C 0.26392 0.79811 0.30773
 O247 O 0.77631 0.59210 0.78703
 O248 O 0.81404 0.57493 0.71033
 O249 O 0.76939 0.58383 0.71175
 O250 O 0.82145 0.58413 0.78472
 O251 O 0.79216 0.53744 0.79463
 O252 O 0.74063 0.53710 0.72198
 O253 O 0.78483 0.52829 0.72113
 O254 O 0.74769 0.54530 0.79684
 Cu255 Cu 0.79813 0.58850 0.74735
 Cu256 Cu 0.76327 0.53241 0.75962
 C257 C 0.75562 0.57137 0.80521
 C258 C 0.80610 0.54857 0.70340
 C259 C 0.74618 0.56034 0.70438
 C260 C 0.81577 0.56064 0.80170
 O261 O 0.44666 0.24972 0.70864
 O262 O 0.44164 0.20497 0.79437
 O263 O 0.43732 0.25150 0.78252
 O264 O 0.44825 0.20155 0.71989
 O265 O 0.49565 0.22709 0.73043
 O266 O 0.48498 0.27866 0.78874
 O267 O 0.48895 0.23270 0.80387
 O268 O 0.49443 0.27436 0.71627
 Cu269 Cu 0.43864 0.22423 0.75045
 Cu270 Cu 0.49572 0.25577 0.76081
 C271 C 0.47161 0.26970 0.69802
 C272 C 0.46470 0.21147 0.81370
 C273 C 0.45943 0.27401 0.79546
 C274 C 0.47380 0.20564 0.71498
 O275 O 0.77111 0.17740 0.71614
 O276 O 0.81694 0.22748 0.79375
 O277 O 0.76944 0.17690 0.79180
 O278 O 0.81947 0.22729 0.71810
 O279 O 0.79426 0.25026 0.71685
 O280 O 0.74304 0.19855 0.78786
 O281 O 0.79005 0.24864 0.79155
 O282 O 0.74618 0.20059 0.71247
 Cu283 Cu 0.79685 0.20001 0.75520
 Cu284 Cu 0.76573 0.22665 0.75180
 C285 C 0.75079 0.18055 0.70116
 C286 C 0.81123 0.24666 0.80576
 C287 C 0.74756 0.17898 0.80208
 C288 C 0.81574 0.24776 0.70563
 C289 C 0.05164 0.44818 0.06741
 C290 C 0.08185 0.46109 0.06510
 C291 C 0.09936 0.45013 0.08543
 C292 C 0.12949 0.46441 0.07915
 C293 C 0.14739 0.45687 0.10047
 C294 C 0.13547 0.43491 0.12876
 C295 C 0.10525 0.41959 0.13367
 C296 C 0.08733 0.42722 0.11252
 C297 C 0.15405 0.42872 0.15501
 C298 C 0.18121 0.45058 0.16749
 H299 H 0.09335 0.48104 0.04865
 H300 H 0.13934 0.48195 0.05829
 H301 H 0.17056 0.46853 0.09510
 H302 H 0.09558 0.40250 0.15519
 H303 H 0.06434 0.41565 0.11873
 H304 H 0.14461 0.40768 0.16894
 H305 H 0.03893 0.42680 0.07970
 H306 H 0.18971 0.47232 0.15623
 C307 C 0.55081 0.61174 0.05109
 C308 C 0.53432 0.62563 0.04970
 C309 C 0.54145 0.65232 0.07133
 C310 C 0.52333 0.66440 0.06601
 C311 C 0.52633 0.68694 0.08965
 C312 C 0.54747 0.69775 0.11937
 C313 C 0.56683 0.68702 0.12317
 C314 C 0.56376 0.66433 0.09960
 C315 C 0.54869 0.71899 0.14786
 C316 C 0.52346 0.71863 0.16010
 H317 H 0.51362 0.61487 0.03436
 H318 H 0.50614 0.65575 0.04428
 H319 H 0.51171 0.69546 0.08507
 H320 H 0.58344 0.69522 0.14569
 H321 H 0.57809 0.65562 0.10497
 H322 H 0.56916 0.73296 0.16245
 H323 H 0.57298 0.62279 0.06180
 H324 H 0.50259 0.70297 0.14795
 C325 C 0.39804 0.93199 0.05078
 C326 C 0.39627 0.92271 0.08918
 C327 C 0.36923 0.90035 0.10752
 C328 C 0.37172 0.88481 0.13897
 C329 C 0.34697 0.86330 0.15724
 C330 C 0.31907 0.85695 0.14457
 C331 C 0.31649 0.87308 0.11389
 C332 C 0.34137 0.89450 0.09523
 C333 C 0.29275 0.83451 0.16433
 C334 C 0.29209 0.81022 0.18097
 H335 H 0.41630 0.93091 0.10588
 H336 H 0.39294 0.88921 0.14934
 H337 H 0.34981 0.85206 0.18179
 H338 H 0.29522 0.86894 0.10418
 H339 H 0.33868 0.90667 0.07180
 H340 H 0.27395 0.83744 0.16646
 H341 H 0.37859 0.92490 0.03326
 H342 H 0.31002 0.80625 0.17605
 C343 C 0.91975 0.52200 0.53732
 C344 C 0.91998 0.52656 0.57718
 C345 C 0.90099 0.53580 0.59593
 C346 C 0.89092 0.52561 0.63344
 C347 C 0.87272 0.53356 0.65224
 C348 C 0.86464 0.55232 0.63410
 C349 C 0.87551 0.56339 0.59709
 C350 C 0.89331 0.55492 0.57786
 C351 C 0.84549 0.56081 0.65420
 C352 C 0.82219 0.54071 0.67619
 H353 H 0.93302 0.52080 0.59580
 H354 H 0.89689 0.51116 0.64807
 H355 H 0.86531 0.52535 0.68125
 H356 H 0.86987 0.57822 0.58290
 H357 H 0.90142 0.56370 0.54929
 H358 H 0.84978 0.58290 0.65175
 H359 H 0.90671 0.52718 0.51796
 H360 H 0.81651 0.51814 0.67522
 C361 C 0.46452 0.40795 0.55505
 C362 C 0.48141 0.39467 0.56004
 C363 C 0.47151 0.36686 0.58065
 C364 C 0.48757 0.35254 0.57621
 C365 C 0.48065 0.32757 0.59759
 C366 C 0.45768 0.31658 0.62433
 C367 C 0.44076 0.33008 0.62755
 C368 C 0.44769 0.35512 0.60616
 C369 C 0.45214 0.29237 0.65084
 C370 C 0.47485 0.28858 0.66492
 H371 H 0.50309 0.40527 0.54785
 H372 H 0.50586 0.36098 0.55655
 H373 H 0.49358 0.31717 0.59346
 H374 H 0.42293 0.32198 0.64793
 H375 H 0.43502 0.36569 0.61093
 H376 H 0.43081 0.28007 0.66377
 H377 H 0.44172 0.39659 0.56259
 H378 H 0.49679 0.30273 0.65492
 C379 C 0.60220 0.08383 0.52870
 C380 C 0.61288 0.07900 0.56350
 C381 C 0.63955 0.10121 0.58318
 C382 C 0.65398 0.09229 0.60957
 C383 C 0.67794 0.11262 0.63100
 C384 C 0.68775 0.14236 0.62664
 C385 C 0.67340 0.15126 0.60009
 C386 C 0.64961 0.13096 0.57844
 C387 C 0.71090 0.16435 0.65172
 C388 C 0.73177 0.16013 0.67127
 H389 H 0.60093 0.05792 0.57718
 H390 H 0.64637 0.06948 0.61410
 H391 H 0.68787 0.10487 0.65198
 H392 H 0.68026 0.17402 0.59668
 H393 H 0.63852 0.13865 0.55931
 H394 H 0.71112 0.18468 0.65554
 H395 H 0.61369 0.10449 0.51402
 H396 H 0.73375 0.14120 0.66552
 C397 C 0.45085 0.06163 0.95061
 C398 C 0.46705 0.09176 0.94751
 C399 C 0.45641 0.10963 0.92804
 C400 C 0.47021 0.13926 0.93652
 C401 C 0.46401 0.15778 0.91469
 C402 C 0.44429 0.14709 0.88325
 C403 C 0.42908 0.11717 0.87634
 C404 C 0.43514 0.09855 0.89843
 C405 C 0.44104 0.16675 0.85552
 C406 C 0.46429 0.19419 0.84736
 H407 H 0.48876 0.10294 0.96005
 H408 H 0.48649 0.14824 0.95942
 H409 H 0.47529 0.18056 0.92189
 H410 H 0.41366 0.10840 0.85245
 H411 H 0.42437 0.07586 0.89080
 H412 H 0.42175 0.15808 0.83724
 H413 H 0.42759 0.05144 0.94581
 H414 H 0.48455 0.20210 0.86330
 C415 C 0.60186 0.53620 0.93988
 C416 C 0.63028 0.55591 0.95121
 C417 C 0.65493 0.55643 0.93076
 C418 C 0.67920 0.58275 0.92006
 C419 C 0.70123 0.58295 0.89744
 C420 C 0.69934 0.55670 0.88586
 C421 C 0.67582 0.53055 0.89868
 C422 C 0.65383 0.53038 0.92074
 C423 C 0.72047 0.55501 0.85970
 C424 C 0.74013 0.57741 0.83586
 H425 H 0.63453 0.57090 0.97478
 H426 H 0.68060 0.60307 0.92804
 H427 H 0.71938 0.60356 0.88896
 H428 H 0.67399 0.51004 0.89069
 H429 H 0.63573 0.50978 0.92964
 H430 H 0.71861 0.53389 0.85649
 H431 H 0.59875 0.52227 0.91532
 H432 H 0.74328 0.59904 0.83815
 C433 C 0.92384 0.39518 0.96265
 C434 C 0.90253 0.39165 0.93524
 C435 C 0.88233 0.36396 0.91597
 C436 C 0.88799 0.34080 0.91301
 C437 C 0.86903 0.31588 0.89213
 C438 C 0.84416 0.31371 0.87364
 C439 C 0.83832 0.33660 0.87742
 C440 C 0.85724 0.36146 0.89810
 C441 C 0.82415 0.28877 0.84918
 C442 C 0.82995 0.26742 0.83562
 H443 H 0.90094 0.41031 0.92596
 H444 H 0.90737 0.34203 0.92561
 H445 H 0.87422 0.29866 0.89042
 H446 H 0.81932 0.33556 0.86359
 H447 H 0.85238 0.37896 0.89982
 H448 H 0.80453 0.28840 0.83886
 H449 H 0.92620 0.37662 0.96950
 H450 H 0.84923 0.26680 0.84481
 C451 C 0.53910 0.95087 0.43343
 C452 C 0.51990 0.92148 0.42655
 C453 C 0.52806 0.90163 0.40778
 C454 C 0.50941 0.87176 0.41192
 C455 C 0.51418 0.85211 0.39109
 C456 C 0.53753 0.86198 0.36508
 C457 C 0.55709 0.89180 0.36236
 C458 C 0.55234 0.91153 0.38333
 C459 C 0.54107 0.84182 0.33922
 C460 C 0.51716 0.81641 0.32571
 H461 H 0.49758 0.91221 0.43614
 H462 H 0.49067 0.86359 0.43077
 H463 H 0.49928 0.82923 0.39505
 H464 H 0.57533 0.89990 0.34266
 H465 H 0.56693 0.93442 0.37894
 H466 H 0.56236 0.84858 0.32723
 H467 H 0.56214 0.95853 0.43084
 H468 H 0.49547 0.81073 0.33497
 C469 C 0.41091 0.46179 0.41163
 C470 C 0.38400 0.44750 0.43000
 C471 C 0.35636 0.43731 0.40852
 C472 C 0.33338 0.43879 0.42626
 C473 C 0.30775 0.43126 0.40551
 C474 C 0.30453 0.42151 0.36696
 C475 C 0.32678 0.41828 0.35009
 C476 C 0.35265 0.42640 0.37055
 C477 C 0.27921 0.41661 0.34299
 C478 C 0.26916 0.43636 0.34348
 H479 H 0.38341 0.44598 0.46145
 H480 H 0.33567 0.44675 0.45572
 H481 H 0.29064 0.43344 0.41936
 H482 H 0.32461 0.41062 0.32049
 H483 H 0.36976 0.42428 0.35660
 H484 H 0.27214 0.40083 0.31978
 H485 H 0.41196 0.46670 0.38088
 H486 H 0.27903 0.45449 0.36337
 C487 C 0.04516 0.58535 0.42945
 C488 C 0.06684 0.59054 0.40243
 C489 C 0.08765 0.61924 0.38631
 C490 C 0.11323 0.62244 0.36995
 C491 C 0.13396 0.64888 0.35454
 C492 C 0.12960 0.67289 0.35504
 C493 C 0.10365 0.66963 0.37034
 C494 C 0.08286 0.64305 0.38618
 C495 C 0.15130 0.70073 0.33765
 C496 C 0.18075 0.70900 0.33774
 H497 H 0.06949 0.57256 0.39312
 H498 H 0.11730 0.60438 0.36919
 H499 H 0.15312 0.65021 0.34147
 H500 H 0.09957 0.68768 0.37022
 H501 H 0.06306 0.64127 0.39754
 H502 H 0.14381 0.71376 0.32243
 H503 H 0.04044 0.60251 0.43534
 H504 H 0.18820 0.69683 0.35512
 C505 C 0.93725 0.52779 0.95209
 C506 C 0.91523 0.51070 0.92537
 C507 C 0.89474 0.51844 0.90641
 C508 C 0.89981 0.54698 0.90320
 C509 C 0.87962 0.55262 0.88383
 C510 C 0.85407 0.52979 0.86756
 C511 C 0.84901 0.50142 0.87146
 C512 C 0.86915 0.49586 0.89031
 C513 C 0.83206 0.53406 0.84608
 C514 C 0.83722 0.56003 0.82886
 H515 H 0.91217 0.48958 0.91809
 H516 H 0.91940 0.56501 0.91490
 H517 H 0.88406 0.57473 0.88192
 H518 H 0.82951 0.48341 0.85932
 H519 H 0.86463 0.47367 0.89242
 H520 H 0.81125 0.51488 0.84059
 H521 H 0.94271 0.55007 0.95573
 H522 H 0.85791 0.57959 0.83267
 C523 C 0.46850 0.42085 0.93562
 C524 C 0.48315 0.42046 0.90206
 C525 C 0.47794 0.39455 0.87988
 C526 C 0.45825 0.36601 0.89149
 C527 C 0.45721 0.34249 0.87174
 C528 C 0.47606 0.34726 0.84049
 C529 C 0.49505 0.37567 0.82852
 C530 C 0.49581 0.39897 0.84774
 C531 C 0.47830 0.32369 0.82129
 C532 C 0.45546 0.29536 0.81770
 H533 H 0.50117 0.44086 0.89230
 H534 H 0.44441 0.36174 0.91643
 H535 H 0.44265 0.32078 0.88201
 H536 H 0.50978 0.37990 0.80455
 H537 H 0.51128 0.42067 0.83821
 H538 H 0.49863 0.32950 0.80693
 H539 H 0.44715 0.40271 0.94131
 H540 H 0.43407 0.28941 0.82851
 C541 C 0.58906 0.08107 0.95799
 C542 C 0.60835 0.07532 0.93770
 C543 C 0.63331 0.09769 0.91531
 C544 C 0.65552 0.09219 0.90388
 C545 C 0.67847 0.11204 0.88071
 C546 C 0.67957 0.13787 0.86831
 C547 C 0.65736 0.14332 0.87984
 C548 C 0.63447 0.12352 0.90287
 C549 C 0.70240 0.15915 0.84212
 C550 C 0.72709 0.15811 0.83041
 H551 H 0.60426 0.05325 0.93685
 H552 H 0.65495 0.07230 0.91258
 H553 H 0.69476 0.10660 0.87214
 H554 H 0.65740 0.16282 0.87040
 H555 H 0.61738 0.12829 0.90961
 H556 H 0.69937 0.17662 0.83103
 H557 H 0.59287 0.10295 0.95994
 H558 H 0.73161 0.14167 0.84149
 C559 C 0.05361 0.46267 0.43500
 C560 C 0.07374 0.48008 0.40665
 C561 C 0.09651 0.47524 0.38914
 C562 C 0.09777 0.44954 0.39376
 C563 C 0.11992 0.44656 0.37602
 C564 C 0.14121 0.46922 0.35345
 C565 C 0.14004 0.49487 0.34943
 C566 C 0.11792 0.49776 0.36679
 C567 C 0.16503 0.46738 0.33370
 C568 C 0.16415 0.44150 0.32409
 H569 H 0.07300 0.49899 0.39628
 H570 H 0.08175 0.43162 0.41064
 H571 H 0.12043 0.42667 0.38047
 H572 H 0.15618 0.51272 0.33237
 H573 H 0.11765 0.51786 0.36282
 H574 H 0.18323 0.48747 0.32348
 H575 H 0.05172 0.44198 0.44172
 H576 H 0.14568 0.42095 0.33211
 C577 C 0.53940 0.59460 0.41927
 C578 C 0.52924 0.61342 0.42922
 C579 C 0.53460 0.63919 0.40602
 C580 C 0.51544 0.65009 0.41023
 C581 C 0.51823 0.67305 0.38717
 C582 C 0.54040 0.68572 0.35935
 C583 C 0.56048 0.67582 0.35644
 C584 C 0.55759 0.65268 0.37939
 C585 C 0.54288 0.70901 0.33299
 C586 C 0.51863 0.71102 0.32098
 H587 H 0.51388 0.60704 0.45291
 H588 H 0.49781 0.64040 0.43091
 H589 H 0.50300 0.68080 0.39129
 H590 H 0.57806 0.68557 0.33570
 H591 H 0.57335 0.64553 0.37607
 H592 H 0.56385 0.72342 0.32023
 H593 H 0.55470 0.59965 0.39591
 H594 H 0.49720 0.69512 0.33087
 C595 C 0.40621 0.93898 0.44860
 C596 C 0.40039 0.91083 0.44043
 C597 C 0.37297 0.88774 0.42336
 C598 C 0.35371 0.89366 0.40193
 C599 C 0.33036 0.87153 0.38137
 C600 C 0.32586 0.84310 0.38200
 C601 C 0.34454 0.83721 0.40464
 C602 C 0.36782 0.85924 0.42496
 C603 C 0.30386 0.81951 0.35731
 C604 C 0.28191 0.82082 0.33602
 H605 H 0.41720 0.90530 0.44661
 H606 H 0.35743 0.91552 0.39936
 H607 H 0.31682 0.87719 0.36384
 H608 H 0.34169 0.81558 0.40566
 H609 H 0.38244 0.85412 0.44106
 H610 H 0.30569 0.80016 0.35479
 H611 H 0.38798 0.94283 0.45032
 H612 H 0.27802 0.83882 0.33928
 C613 C 0.53768 0.95292 0.06501
 C614 C 0.53586 0.92752 0.05107
 C615 C 0.54127 0.90789 0.07607
 C616 C 0.52495 0.87802 0.06934
 C617 C 0.52716 0.85850 0.09460
 C618 C 0.54602 0.86854 0.12694
 C619 C 0.56367 0.89846 0.13236
 C620 C 0.56120 0.91803 0.10732
 C621 C 0.54726 0.84824 0.15553
 C622 C 0.52258 0.82215 0.16504
 H623 H 0.52572 0.91965 0.02288
 H624 H 0.50972 0.86970 0.04519
 H625 H 0.51398 0.83557 0.08887
 H626 H 0.57874 0.90669 0.15669
 H627 H 0.57474 0.94097 0.11263
 H628 H 0.56728 0.85501 0.17172
 H629 H 0.54721 0.96132 0.09325
 H630 H 0.50188 0.81661 0.15154
 C631 C 0.41595 0.49042 0.05698
 C632 C 0.39809 0.46689 0.08047
 C633 C 0.37396 0.46575 0.10351
 C634 C 0.35175 0.43896 0.11691
 C635 C 0.32934 0.43734 0.14005
 C636 C 0.32882 0.46267 0.15042
 C637 C 0.35127 0.48944 0.13740
 C638 C 0.37360 0.49104 0.11436
 C639 C 0.30617 0.46253 0.17575
 C640 C 0.28016 0.43780 0.18555
 H641 H 0.40258 0.44914 0.08305
 H642 H 0.35181 0.41920 0.10960
 H643 H 0.31299 0.41628 0.15020
 H644 H 0.35172 0.50933 0.14540
 H645 H 0.39088 0.51227 0.10619
 H646 H 0.31006 0.48317 0.18686
 H647 H 0.41139 0.50799 0.05313
 H648 H 0.27490 0.41690 0.17402
 C649 C 0.06602 0.58656 0.05949
 C650 C 0.06892 0.59350 0.09888
 C651 C 0.09304 0.62065 0.11464
 C652 C 0.10527 0.61983 0.15064
 C653 C 0.12836 0.64491 0.16639
 C654 C 0.13929 0.67150 0.14675
 C655 C 0.12655 0.67252 0.11120
 C656 C 0.10383 0.64722 0.09495
 C657 C 0.16270 0.69840 0.16425
 C658 C 0.18525 0.69867 0.18598
 H659 H 0.05499 0.57692 0.11936
 H660 H 0.09711 0.59962 0.16645
 H661 H 0.13717 0.64360 0.19440
 H662 H 0.13434 0.69288 0.09592
 H663 H 0.09437 0.64855 0.06749
 H664 H 0.16188 0.71823 0.16044
 H665 H 0.07978 0.60261 0.03841
 H666 H 0.18759 0.67955 0.18660
 C667 C 0.46668 0.06959 0.54952
 C668 C 0.47826 0.08139 0.58593
 C669 C 0.47123 0.10091 0.60815
 C670 C 0.48915 0.11583 0.63992
 C671 C 0.48442 0.13537 0.66113
 C672 C 0.46155 0.14052 0.65102
 C673 C 0.44295 0.12491 0.62011
 C674 C 0.44778 0.10539 0.59867
 C675 C 0.45637 0.16150 0.67273
 C676 C 0.47873 0.18537 0.69177
 H677 H 0.49501 0.07738 0.59786
 H678 H 0.50715 0.11256 0.64822
 H679 H 0.49855 0.14611 0.68570
 H680 H 0.42489 0.12816 0.61216
 H681 H 0.43304 0.09396 0.57497
 H682 H 0.43463 0.15870 0.67249
 H683 H 0.44890 0.07150 0.53691
 H684 H 0.50093 0.18967 0.68958
 C685 C 0.59584 0.53707 0.55530
 C686 C 0.60743 0.51863 0.56020
 C687 C 0.63301 0.52468 0.58485
 C688 C 0.65143 0.55181 0.60191
 C689 C 0.67417 0.55554 0.62686
 C690 C 0.67892 0.53223 0.63518
 C691 C 0.66079 0.50540 0.61765
 C692 C 0.63828 0.50173 0.59266
 C693 C 0.70127 0.53430 0.66335
 C694 C 0.72543 0.56016 0.67527
 H695 H 0.59550 0.49731 0.54725
 H696 H 0.64833 0.57015 0.59659
 H697 H 0.68735 0.57642 0.64033
 H698 H 0.66388 0.48706 0.62361
 H699 H 0.62448 0.48059 0.58002
 H700 H 0.69885 0.51416 0.67468
 H701 H 0.60746 0.55919 0.56537
 H702 H 0.72969 0.58058 0.66271
 C703 C 0.92901 0.39489 0.54834
 C704 C 0.92848 0.39293 0.58881
 C705 C 0.90657 0.36741 0.61034
 C706 C 0.89566 0.33896 0.59689
 C707 C 0.87426 0.31556 0.61800
 C708 C 0.86324 0.32039 0.65248
 C709 C 0.87420 0.34880 0.66569
 C710 C 0.89594 0.37202 0.64516
 C711 C 0.83980 0.29660 0.67481
 C712 C 0.83705 0.26924 0.67869
 H713 H 0.94164 0.41260 0.60519
 H714 H 0.90372 0.33478 0.57031
 H715 H 0.86591 0.29385 0.60690
 H716 H 0.86600 0.35304 0.69214
 H717 H 0.90399 0.39377 0.65603
 H718 H 0.82593 0.30176 0.69208
 H719 H 0.91602 0.37595 0.53068
 H720 H 0.85251 0.26453 0.66482
   
