data_POSCAR
  _audit_creation_date              2014-09-24
  _audit_creation_method            'ToBaCCo'
  _symmetry_space_group_name_H-M    'P1'
  _symmetry_Int_Tables_number       1
  _symmetry_cell_setting            triclinic
  loop_
  _symmetry_equiv_pos_as_xyz
 x,y,z
_cell_length_a 27.3396
_cell_length_b 27.3376
_cell_length_c 27.3376
_cell_angle_alpha 89.704900
_cell_angle_beta 90.000000
_cell_angle_gamma 89.999900
loop_
  _atom_site_label
  _atom_site_type_symbol
  _atom_site_fract_x
  _atom_site_fract_y
  _atom_site_fract_z
N1 N 0.23114 0.22963 0.22963
 N2 N -0.22990 0.76859 0.23144
 N3 N -0.22989 0.23143 -0.23141
 N4 N 0.23114 0.77039 -0.22960
 N5 N 0.22760 1.22864 0.77138
 N6 N 0.77306 0.77409 0.77410
 N7 N 0.22760 0.77138 1.22865
 N8 N 0.77306 1.22593 1.22593
 N9 N 0.55247 1.08687 0.94705
 N10 N 0.58650 1.11995 0.93797
 N11 N 0.44962 1.05294 0.91319
 N12 N 0.41509 1.06162 0.88051
 N13 N 0.44962 1.08684 0.94708
 N14 N 0.41509 1.11952 0.93840
 N15 N 0.55247 1.05298 0.91316
 N16 N 0.58650 1.06205 0.88008
 C17 C 0.60764 1.10354 0.89648
 C18 C 0.39368 1.10291 0.89712
 N19 N 0.44974 0.91342 0.94749
 N20 N 0.41558 0.88048 0.93868
 N21 N 0.55260 0.94752 0.91346
 N22 N 0.58720 0.93907 0.88088
 N23 N 0.55260 0.91345 0.94753
 N24 N 0.58720 0.88088 0.93908
 N25 N 0.44974 0.94749 0.91343
 N26 N 0.41558 0.93868 0.88049
 Mn27 Mn 0.50111 1.00023 0.91280
 C28 C 0.39438 0.89715 0.89716
 C29 C 0.60866 0.89773 0.89773
 N30 N 0.44974 1.08660 1.05254
 N31 N 0.41558 1.11954 1.06135
 N32 N 0.55260 1.05250 1.08657
 N33 N 0.58720 1.06095 1.11915
 N34 N 0.55260 1.08657 1.05251
 N35 N 0.58720 1.11915 1.06096
 N36 N 0.44974 1.05253 1.08660
 N37 N 0.41558 1.06134 1.11954
 Mn38 Mn 0.50111 1.08722 0.99979
 C39 C 0.39438 1.10287 1.10288
 C40 C 0.60866 1.10229 1.10230
 N41 N 0.55247 0.91315 1.05298
 N42 N 0.58650 0.88007 1.06206
 N43 N 0.44962 0.94708 1.08684
 N44 N 0.41509 0.93840 1.11952
 N45 N 0.44962 0.91318 1.05295
 N46 N 0.41509 0.88050 1.06163
 N47 N 0.55247 0.94704 1.08687
 N48 N 0.58650 0.93797 1.11995
 Mn49 Mn 0.50111 0.91280 1.00024
 Mn50 Mn 0.50111 0.99979 1.08723
 Cl51 Cl 0.50111 1.00001 1.00002
 C52 C 0.60764 0.89648 1.10355
 C53 C 0.39368 0.89711 1.10292
 N54 N 0.05196 0.44760 0.08638
 N55 N 0.06108 0.41327 0.11928
 N56 N 0.08586 0.55085 0.05304
 N57 N 0.11850 0.58532 0.06179
 N58 N 0.05191 0.55046 0.08705
 N59 N 0.06051 0.58465 0.11989
 N60 N 0.08590 0.44803 0.05238
 N61 N 0.11906 0.41401 0.06118
 C62 C 0.10265 0.39240 0.10261
 C63 C 0.10181 0.60627 0.10325
 N64 N 0.05196 0.55242 -0.08635
 N65 N 0.06108 0.58675 -0.11924
 N66 N 0.08586 0.44917 -0.05301
 N67 N 0.11850 0.41470 -0.06176
 N68 N 0.05191 0.44956 -0.08702
 N69 N 0.06051 0.41537 -0.11986
 N70 N 0.08590 0.55199 -0.05235
 N71 N 0.11906 0.58601 -0.06115
 Mn72 Mn 0.08637 0.50001 0.00002
 C73 C 0.10265 0.60762 -0.10258
 C74 C 0.10181 0.39375 -0.10322
 N75 N -0.05352 0.55034 0.08709
 N76 N -0.06229 0.58419 0.12022
 N77 N -0.08751 0.44788 0.05241
 N78 N -0.12013 0.41320 0.06080
 N79 N -0.05350 0.44748 0.08637
 N80 N -0.06203 0.41254 0.11878
 N81 N -0.08752 0.55076 0.05314
 N82 N -0.12038 0.58493 0.06223
 Mn83 Mn -0.00080 0.49896 0.08723
 C84 C -0.10373 0.60567 0.10381
 C85 C -0.10336 0.39129 0.10197
 N86 N -0.05352 0.44968 -0.08706
 N87 N -0.06229 0.41583 -0.12018
 N88 N -0.08751 0.55214 -0.05238
 N89 N -0.12013 0.58682 -0.06077
 N90 N -0.05350 0.55254 -0.08633
 N91 N -0.06203 0.58748 -0.11875
 N92 N -0.08752 0.44926 -0.05310
 N93 N -0.12038 0.41510 -0.06219
 Mn94 Mn -0.00080 0.50106 -0.08719
 Mn95 Mn -0.08804 0.50001 0.00002
 Cl96 Cl -0.00082 0.50001 0.00002
 C97 C -0.10373 0.39435 -0.10378
 C98 C -0.10336 0.60873 -0.10194
 N99 N 1.08590 0.05238 0.44804
 N100 N 1.11906 0.06117 0.41401
 N101 N 1.05191 0.08704 0.55046
 N102 N 1.06051 0.11989 0.58466
 N103 N 1.08586 0.05304 0.55086
 N104 N 1.11850 0.06178 0.58532
 N105 N 1.05196 0.08638 0.44761
 N106 N 1.06108 0.11927 0.41328
 C107 C 1.10265 0.10261 0.39240
 C108 C 1.10181 0.10325 0.60627
 N109 N 0.91248 0.05313 0.55077
 N110 N 0.87962 0.06222 0.58493
 N111 N 0.94650 0.08636 0.44749
 N112 N 0.93797 0.11878 0.41254
 N113 N 0.91249 0.05241 0.44788
 N114 N 0.87987 0.06079 0.41321
 N115 N 0.94648 0.08708 0.55034
 N116 N 0.93771 0.12021 0.58419
 Mn117 Mn 0.99920 0.08722 0.49897
 C118 C 0.89627 0.10381 0.60567
 C119 C 0.89664 0.10196 0.39129
 N120 N 1.08590 -0.05236 0.55200
 N121 N 1.11906 -0.06115 0.58602
 N122 N 1.05191 -0.08702 0.44957
 N123 N 1.06051 -0.11986 0.41537
 N124 N 1.08586 -0.05302 0.44917
 N125 N 1.11850 -0.06176 0.41471
 N126 N 1.05196 -0.08636 0.55242
 N127 N 1.06108 -0.11925 0.58675
 Mn128 Mn 1.08637 0.00001 0.50002
 C129 C 1.10265 -0.10258 0.60763
 C130 C 1.10181 -0.10322 0.39376
 N131 N 0.91248 -0.05311 0.44926
 N132 N 0.87962 -0.06220 0.41510
 N133 N 0.94650 -0.08634 0.55254
 N134 N 0.93797 -0.11876 0.58749
 N135 N 0.91249 -0.05238 0.55215
 N136 N 0.87987 -0.06077 0.58682
 N137 N 0.94648 -0.08706 0.44969
 N138 N 0.93771 -0.12019 0.41584
 Mn139 Mn 0.91196 0.00001 0.50002
 Mn140 Mn 0.99920 -0.08720 0.50106
 Cl141 Cl 0.99918 0.00001 0.50002
 C142 C 0.89627 -0.10379 0.39436
 C143 C 0.89664 -0.10194 0.60874
 C144 C 1.20338 0.20186 0.26188
 C145 C 1.17949 0.17817 0.29051
 C146 C 1.15202 0.15115 0.32494
 C147 C 1.12911 0.12866 0.35523
 C148 C 0.79773 -0.20380 0.26367
 C149 C 0.82126 -0.18006 0.29232
 C150 C 0.84808 -0.15280 0.32683
 C151 C 0.87039 -0.13007 0.35717
 C152 C 0.79773 0.20382 0.73636
 C153 C 0.82126 0.18008 0.70771
 C154 C 0.84808 0.15282 0.67320
 C155 C 0.87039 0.13009 0.64286
 C156 C 1.20338 -0.20184 0.73815
 C157 C 1.17949 -0.17815 0.70953
 C158 C 1.15202 -0.15113 0.67510
 C159 C 1.12911 -0.12864 0.64481
 C160 C 0.26342 1.20203 1.20204
 C161 C 0.29212 1.17842 1.17842
 C162 C 0.32669 1.15140 1.15141
 C163 C 0.35709 1.12890 1.12891
 C164 C 0.26342 0.79799 0.79799
 C165 C 0.29212 0.82160 0.82161
 C166 C 0.32669 0.84862 0.84863
 C167 C 0.35709 0.87112 0.87112
 C168 C 0.73791 0.79637 1.20366
 C169 C 0.70933 0.82018 1.17985
 C170 C 0.67495 0.84745 1.15258
 C171 C 0.64472 0.87017 1.12985
 C172 C 0.73791 1.20365 0.79638
 C173 C 0.70933 1.17984 0.82018
 C174 C 0.67495 1.15257 0.84745
 C175 C 0.64472 1.12985 0.87018
 C176 C 0.20338 0.26188 0.20187
 C177 C 0.17949 0.29050 0.17818
 C178 C 0.15202 0.32493 0.15115
 C179 C 0.12911 0.35522 0.12867
 C180 C -0.20227 0.26366 -0.20379
 C181 C -0.17874 0.29232 -0.18006
 C182 C -0.15192 0.32683 -0.15279
 C183 C -0.12961 0.35717 -0.13006
 C184 C 0.20338 0.73814 -0.20184
 C185 C 0.17949 0.70952 -0.17815
 C186 C 0.15202 0.67509 -0.15112
 C187 C 0.12911 0.64480 -0.12863
 C188 C -0.20227 0.73636 0.20383
 C189 C -0.17874 0.70770 0.18009
 C190 C -0.15192 0.67319 0.15283
 C191 C -0.12961 0.64285 0.13010
 C192 C 1.20006 0.20120 0.73890
 C193 C 1.17654 0.17783 0.70990
 C194 C 1.14972 0.15119 0.67485
 C195 C 1.12747 0.12902 0.64402
 C196 C 0.79908 -0.19979 0.74312
 C197 C 0.82247 -0.17626 0.71382
 C198 C 0.84902 -0.14953 0.67832
 C199 C 0.87106 -0.12741 0.64705
 C200 C 1.20006 -0.20118 0.26113
 C201 C 1.17654 -0.17781 0.29013
 C202 C 1.14972 -0.15117 0.32518
 C203 C 1.12747 -0.12899 0.35601
 C204 C 0.79908 0.19981 0.25691
 C205 C 0.82247 0.17628 0.28622
 C206 C 0.84902 0.14955 0.32171
 C207 C 0.87106 0.12743 0.35298
 C208 C 0.20006 0.26112 -0.20117
 C209 C 0.17654 0.29013 -0.17780
 C210 C 0.14972 0.32517 -0.15117
 C211 C 0.12747 0.35600 -0.12899
 C212 C -0.20092 0.25691 0.19982
 C213 C -0.17753 0.28621 0.17629
 C214 C -0.15098 0.32171 0.14956
 C215 C -0.12894 0.35297 0.12744
 C216 C -0.20092 0.74312 -0.19979
 C217 C -0.17753 0.71381 -0.17626
 C218 C -0.15098 0.67831 -0.14953
 C219 C -0.12894 0.64705 -0.12740
 C220 C 0.20006 0.73890 0.20120
 C221 C 0.17654 0.70990 0.17783
 C222 C 0.14972 0.67485 0.15120
 C223 C 0.12747 0.64402 0.12902
 C224 C 0.26024 1.20109 0.79894
 C225 C 0.28941 1.17761 0.82242
 C226 C 0.32467 1.15085 0.84918
 C227 C 0.35569 1.12862 0.87140
 C228 C 0.26024 0.79893 1.20109
 C229 C 0.28941 0.82242 1.17761
 C230 C 0.32467 0.84917 1.15085
 C231 C 0.35569 0.87140 1.12863
 C232 C 0.74224 1.19991 1.19992
 C233 C 0.71310 1.17650 1.17650
 C234 C 0.67782 1.14989 1.14989
 C235 C 0.64674 1.12781 1.12782
 C236 C 0.74224 0.80011 0.80011
 C237 C 0.71310 0.82352 0.82353
 C238 C 0.67782 0.85013 0.85014
 C239 C 0.64674 0.87221 0.87221
   
