data_POSCAR
  _audit_creation_date              2014-09-24
  _audit_creation_method            'ToBaCCo'
  _symmetry_space_group_name_H-M    'P1'
  _symmetry_Int_Tables_number       1
  _symmetry_cell_setting            triclinic
  loop_
  _symmetry_equiv_pos_as_xyz
 x,y,z
_cell_length_a 22.4517
_cell_length_b 22.5059
_cell_length_c 56.5115
_cell_angle_alpha 84.171600
_cell_angle_beta 92.774900
_cell_angle_gamma 120.143000
loop_
  _atom_site_label
  _atom_site_type_symbol
  _atom_site_fract_x
  _atom_site_fract_y
  _atom_site_fract_z
C1 C 0.00691 0.12667 0.52972
 H2 H 0.05594 0.12870 0.52883
 C3 C -0.00053 0.16918 0.54412
 H4 H 0.04284 0.20400 0.55445
 C5 C -0.10951 0.07864 0.51729
 H6 H -0.15152 0.04348 0.50666
 C7 C -0.11922 0.12048 0.53157
 H8 H -0.16893 0.11727 0.53208
 N9 N -0.04725 0.08211 0.51686
 C10 C -0.00325 -0.08203 0.50823
 H11 H 0.00124 -0.07864 0.48910
 C12 C -0.00242 -0.13637 0.52236
 H13 H 0.00346 -0.17458 0.51416
 C14 C -0.02091 -0.03912 0.54228
 H15 H -0.03059 -0.00276 0.54996
 C16 C -0.02022 -0.09238 0.55701
 H17 H -0.02834 -0.09610 0.57597
 Zn18 Zn -0.02787 0.02876 0.49823
 N19 N -0.01302 -0.03516 0.51833
 C20 C 0.10936 0.08762 0.47996
 N21 N 0.05090 0.09176 0.47992
 C22 C 0.04649 0.14382 0.46702
 C23 C 0.10169 0.19372 0.45301
 C24 C 0.16602 0.13669 0.46611
 C25 C -0.16108 -0.07649 0.48782
 C26 C -0.21183 -0.12419 0.47356
 C27 C -0.14010 -0.06093 0.43911
 C28 C -0.09077 -0.01475 0.45399
 N29 N -0.10156 -0.02375 0.47790
 H30 H 0.11208 0.04644 0.49066
 H31 H -0.00038 0.14618 0.46757
 H32 H 0.09734 0.23456 0.44262
 H33 H 0.21225 0.13296 0.46597
 H34 H -0.16762 -0.08339 0.50693
 H35 H -0.25788 -0.16744 0.48176
 H36 H -0.12965 -0.05438 0.42019
 H37 H -0.04253 0.02616 0.44647
 C38 C -0.01193 -0.14199 0.54695
 C39 C -0.06411 0.16597 0.54515
 C40 C -0.20061 -0.11698 0.44900
 C41 C 0.16188 0.19005 0.45247
 C42 C 1.17315 0.07265 0.13549
 H43 H 1.17594 0.12205 0.13551
 C44 C 1.21874 0.06619 0.12155
 H45 H 1.25670 0.11069 0.11070
 C46 C 1.11991 -0.04583 0.14958
 H47 H 1.08147 -0.08909 0.16063
 C48 C 1.16469 -0.05457 0.13580
 H49 H 1.16041 -0.10478 0.13611
 N50 N 1.12450 0.01698 0.14890
 C51 C 0.95761 0.05974 0.15539
 H52 H 0.95579 0.06085 0.17443
 C53 C 0.90607 0.06148 0.14092
 H54 H 0.86482 0.06469 0.14878
 C55 C 1.01046 0.04889 0.12201
 H56 H 1.04948 0.04125 0.11476
 C57 C 0.96016 0.05065 0.10694
 H58 H 0.96135 0.04533 0.08816
 Zn59 Zn 1.06627 0.03396 0.16664
 N60 N 1.00789 0.05259 0.14580
 C61 C 1.11967 0.16733 0.18374
 N62 N 1.12430 0.10916 0.18435
 C63 C 1.17279 0.10211 0.19771
 C64 C 1.21815 0.15405 0.21168
 C65 C 1.16422 0.22075 0.19754
 C66 C 0.95745 -0.10075 0.17799
 C67 C 0.90573 -0.15418 0.19250
 C68 C 0.95942 -0.08925 0.22642
 C69 C 1.00991 -0.03706 0.21132
 N70 N 1.00763 -0.04325 0.18753
 H71 H 1.08135 0.17217 0.17273
 H72 H 1.17561 0.05552 0.19765
 H73 H 1.25596 0.14747 0.22250
 H74 H 1.15988 0.26663 0.19729
 H75 H 0.95587 -0.10363 0.15895
 H76 H 0.86457 -0.19869 0.18468
 H77 H 0.96038 -0.08280 0.24520
 H78 H 1.04885 0.00965 0.21853
 C79 C 0.90683 0.05571 0.11653
 C80 C 1.21430 0.00202 0.12159
 C81 C 0.90619 -0.14772 0.21688
 C82 C 1.21364 0.21372 0.21171
 C83 C 0.05169 0.90460 0.86622
 H84 H 0.00487 0.85525 0.86567
 C85 C 0.10660 0.91000 0.88028
 H86 H 0.10206 0.86476 0.89071
 C87 C 0.11472 1.02387 0.85324
 H88 H 0.11762 1.06783 0.84251
 C89 C 0.17108 1.03156 0.86715
 H90 H 0.21728 1.08165 0.86729
 N91 N 0.05631 0.96113 0.85328
 C92 C -0.15556 0.91690 0.84532
 H93 H -0.16178 0.91731 0.82621
 C94 C -0.20653 0.91371 0.85956
 H95 H -0.25247 0.91088 0.85140
 C96 C -0.08581 0.92552 0.87916
 H97 H -0.03770 0.93294 0.88669
 C98 C -0.13542 0.92222 0.89401
 H99 H -0.12541 0.92612 0.91292
 Zn100 Zn -0.02213 0.94521 0.83493
 N101 N -0.09620 0.92377 0.85525
 C102 C -0.10332 0.81353 0.81598
 N103 N -0.04111 0.87249 0.81637
 C104 C 0.01331 0.88227 0.80355
 C105 C 0.00620 0.83233 0.78921
 C106 C -0.11271 0.76199 0.80176
 C107 C 0.00264 1.08071 0.82483
 C108 C 0.00378 1.13596 0.81064
 C109 C -0.01341 1.07423 0.77605
 C110 C -0.01442 1.02019 0.79083
 N111 N -0.00697 1.02406 0.81477
 H112 H -0.14554 0.80654 0.82659
 H113 H 0.06229 0.92939 0.80441
 H114 H 0.04978 0.84102 0.77891
 H115 H -0.16238 0.71537 0.80127
 H116 H 0.00678 1.08176 0.84395
 H117 H 0.00956 1.18007 0.81881
 H118 H -0.02117 1.06988 0.75709
 H119 H -0.02397 0.97415 0.78319
 C120 C -0.19571 0.91767 0.88410
 C121 C 0.16672 0.97401 0.88083
 C122 C -0.00526 1.13215 0.78606
 C123 C -0.05732 0.77179 0.78822
 C124 C 0.33460 -0.01399 -0.01113
 C125 C 0.33768 -0.01469 0.01317
 C126 C 0.39786 -0.01464 0.02006
 N127 N 0.43109 -0.01460 0.00074
 C128 C 0.39258 -0.01435 -0.01837
 C129 C 0.42197 -0.01150 0.04375
 C130 C 0.48684 -0.00375 0.05058
 C131 C 0.51668 0.01472 0.07267
 C132 C 0.58027 0.01996 0.07208
 C133 C 0.58762 0.00395 0.04971
 N134 N 0.52984 -0.01156 0.03688
 C135 C 0.64673 0.00368 0.04210
 C136 C 0.65727 -0.00746 0.01885
 C137 C 0.71400 -0.01034 0.01176
 C138 C 0.70550 -0.02051 -0.01197
 C139 C 0.64407 -0.02306 -0.01872
 N140 N 0.61489 -0.01517 0.00017
 C141 C 0.61587 -0.03388 -0.04187
 C142 C 0.55457 -0.03378 -0.04912
 C143 C 0.52491 -0.04936 -0.07141
 C144 C 0.46669 -0.04375 -0.07162
 C145 C 0.46171 -0.02550 -0.04939
 N146 N 0.51619 -0.01821 -0.03596
 C147 C 0.40686 -0.01739 -0.04219
 H148 H 0.29372 -0.01416 -0.02214
 H149 H 0.30024 -0.01426 0.02441
 H150 H 0.52883 0.00117 -0.01948
 H151 H 0.49555 0.02496 0.08754
 H152 H 0.61709 0.03442 0.08649
 H153 H 0.75706 -0.00572 0.02254
 H154 H 0.74074 -0.02529 -0.02298
 H155 H 0.43123 -0.05357 -0.08635
 H156 H 0.51808 -0.03120 0.02043
 H157 H 0.54304 -0.06374 -0.08602
 C158 C -0.05833 0.65382 0.67890
 C159 C -0.05676 0.66091 0.65452
 C160 C -0.05638 0.60389 0.64740
 N161 N -0.05743 0.56263 0.66666
 C162 C -0.05841 0.59291 0.68597
 C163 C -0.05272 0.59250 0.62349
 C164 C -0.05513 0.53306 0.61603
 C165 C -0.04595 0.52513 0.59268
 C166 C -0.05138 0.46157 0.59260
 C167 C -0.06314 0.43230 0.61594
 N168 N -0.06684 0.47559 0.63001
 C169 C -0.06852 0.36780 0.62344
 C170 C -0.06412 0.34469 0.64735
 C171 C -0.06191 0.28495 0.65440
 C172 C -0.05262 0.28339 0.67855
 C173 C -0.05023 0.34180 0.68563
 N174 N -0.05723 0.37906 0.66650
 C175 C -0.04381 0.35802 0.70950
 C176 C -0.04911 0.41319 0.71715
 C177 C -0.05752 0.42025 0.74066
 C178 C -0.06303 0.47836 0.74072
 C179 C -0.05723 0.50586 0.71726
 N180 N -0.04779 0.46622 0.70307
 C181 C -0.05985 0.56662 0.70989
 H182 H -0.05894 0.68974 0.69012
 H183 H -0.05585 0.70337 0.64334
 H184 H -0.03588 0.47729 0.68513
 H185 H -0.03579 0.56159 0.57726
 H186 H -0.04560 0.44012 0.57715
 H187 H -0.06540 0.24693 0.64327
 H188 H -0.04881 0.24332 0.68965
 H189 H -0.07072 0.49792 0.75633
 H190 H -0.08138 0.46423 0.64774
 H191 H -0.06076 0.38630 0.75617
 C192 C 0.33504 0.35237 0.32029
 C193 C 0.33160 0.34824 0.34459
 C194 C 0.38960 0.40644 0.35186
 N195 N 0.42848 0.44548 0.33277
 C196 C 0.39545 0.41258 0.31342
 C197 C 0.40360 0.42339 0.37570
 C198 C 0.45849 0.48623 0.38294
 C199 C 0.46328 0.50913 0.40522
 C200 C 0.52163 0.57297 0.40503
 C201 C 0.55156 0.58740 0.38271
 N202 N 0.51321 0.53364 0.36951
 C203 C 0.61305 0.64892 0.37548
 C204 C 0.64159 0.66665 0.35232
 C205 C 0.70319 0.72566 0.34558
 C206 C 0.71201 0.72432 0.32184
 C207 C 0.65530 0.66478 0.31472
 N208 N 0.61262 0.62983 0.33340
 C209 C 0.64505 0.64342 0.29145
 C210 C 0.58596 0.58412 0.28382
 C211 C 0.57890 0.56102 0.26144
 C212 C 0.51524 0.50269 0.26083
 C213 C 0.48505 0.49107 0.28292
 N214 N 0.52792 0.54171 0.29665
 C215 C 0.41997 0.43388 0.28973
 H216 H 0.29770 0.31469 0.30903
 H217 H 0.29048 0.30737 0.35559
 H218 H 0.51594 0.54942 0.31311
 H219 H 0.42760 0.48325 0.41995
 H220 H 0.53966 0.60525 0.41968
 H221 H 0.73833 0.76554 0.35661
 H222 H 0.75527 0.76294 0.31106
 H223 H 0.49427 0.47151 0.24594
 H224 H 0.52600 0.52716 0.35300
 H225 H 0.61597 0.58354 0.24702
 C226 C -0.07177 0.20882 0.56056
 C227 C -0.07459 0.24542 0.57410
 C228 C -0.07454 0.28846 0.59060
 C229 C -0.07249 0.32487 0.60524
 C230 C 0.84954 0.80246 0.23187
 C231 C 0.80204 0.76331 0.24486
 C232 C 0.74677 0.71998 0.26054
 C233 C 0.70016 0.68460 0.27435
 C234 C 0.22260 -0.02006 -0.10408
 C235 C 0.26735 -0.01760 -0.09084
 C236 C 0.31755 -0.01677 -0.07465
 C237 C 0.35882 -0.01696 -0.06023
 C238 C -0.01784 0.79945 0.56183
 C239 C -0.02480 0.75068 0.57495
 C240 C -0.03437 0.69438 0.59105
 C241 C -0.04291 0.64737 0.60545
 C242 C 0.25864 0.26603 0.22689
 C243 C 0.29653 0.30747 0.24030
 C244 C 0.34053 0.35344 0.25675
 C245 C 0.37726 0.39081 0.27142
 C246 C 0.75985 -0.07687 -0.10189
 C247 C 0.72333 -0.06941 -0.08898
 C248 C 0.68369 -0.05826 -0.07324
 C249 C 0.65199 -0.04749 -0.05928
 C250 C 0.25961 -0.00516 0.10645
 C251 C 0.29776 -0.00862 0.09308
 C252 C 0.34205 -0.01052 0.07668
 C253 C 0.37902 -0.01113 0.06205
 C254 C 0.75688 0.83524 0.43554
 C255 C 0.72032 0.79137 0.42263
 C256 C 0.68069 0.74073 0.40690
 C257 C 0.64905 0.69842 0.39292
 C258 C -0.01077 0.18492 0.77113
 C259 C -0.01735 0.22689 0.75799
 C260 C -0.02645 0.27386 0.74188
 C261 C -0.03456 0.31257 0.72750
 C262 C 0.85038 0.04894 0.10158
 C263 C 0.80304 0.04064 0.08863
 C264 C 0.74797 0.02875 0.07298
 C265 C 0.70156 0.01756 0.05920
 C266 C 0.21810 0.24044 0.43745
 C267 C 0.26314 0.28308 0.42426
 C268 C 0.31368 0.33284 0.40812
 C269 C 0.35523 0.37460 0.39372
 C270 C -0.06464 0.72132 0.77284
 C271 C -0.06714 0.68202 0.75933
 C272 C -0.06669 0.63924 0.74282
 C273 C -0.06429 0.60514 0.72816
   
