data_POSCAR
  _audit_creation_date              2014-09-24
  _audit_creation_method            'ToBaCCo'
  _symmetry_space_group_name_H-M    'P1'
  _symmetry_Int_Tables_number       1
  _symmetry_cell_setting            triclinic
  loop_
  _symmetry_equiv_pos_as_xyz
 x,y,z
_cell_length_a 22.4310
_cell_length_b 22.7524
_cell_length_c 21.1787
_cell_angle_alpha 88.875800
_cell_angle_beta 90.389500
_cell_angle_gamma 89.985600
loop_
  _atom_site_label
  _atom_site_type_symbol
  _atom_site_fract_x
  _atom_site_fract_y
  _atom_site_fract_z
C1 C 0.39769 0.33867 0.24897
 H2 H 0.40550 0.32606 0.29785
 C3 C 0.43655 0.37762 0.21850
 H4 H 0.47368 0.39549 0.24474
 C5 C 0.33989 0.32978 0.15551
 H6 H 0.30249 0.31037 0.13112
 C7 C 0.37719 0.36924 0.12342
 H8 H 0.36819 0.38005 0.07424
 N9 N 0.35114 0.31495 0.21695
 C10 C 0.21598 0.25513 0.35063
 H11 H 0.21984 0.20799 0.34631
 C12 C 0.17586 0.27828 0.39346
 H13 H 0.14905 0.24875 0.42222
 C14 C 0.24495 0.35087 0.31701
 H15 H 0.27210 0.37888 0.28706
 C16 C 0.20369 0.37594 0.35784
 H17 H 0.19919 0.42328 0.35935
 Zn18 Zn 0.30580 0.25644 0.25869
 N19 N 0.25061 0.29137 0.31450
 C20 C 0.35221 0.19513 0.36749
 N21 N 0.36021 0.20703 0.30485
 C22 C 0.40837 0.18546 0.27405
 C23 C 0.44895 0.14829 0.30544
 C24 C 0.39084 0.15725 0.40022
 C25 C 0.20239 0.21193 0.19830
 C26 C 0.17020 0.17858 0.15523
 C27 C 0.26308 0.14714 0.11003
 C28 C 0.29356 0.18086 0.15428
 N29 N 0.26308 0.21184 0.19791
 H30 H 0.31601 0.21467 0.39269
 H31 H 0.41572 0.19748 0.22515
 H32 H 0.48619 0.13057 0.27972
 H33 H 0.38277 0.14713 0.44963
 H34 H 0.17854 0.23802 0.23181
 H35 H 0.12195 0.17889 0.15690
 H36 H 0.28857 0.12233 0.07656
 H37 H 0.34160 0.18231 0.15350
 C38 C 0.16952 0.33933 0.39737
 C39 C 0.42691 0.39269 0.15462
 C40 C 0.20048 0.14537 0.11052
 C41 C 0.43960 0.13303 0.36909
 C42 C 0.85715 0.84283 0.25897
 H43 H 0.85760 0.82574 0.30701
 C44 C 0.90012 0.88354 0.23963
 H45 H 0.93264 0.89753 0.27406
 C46 C 0.81423 0.84296 0.15651
 H47 H 0.78157 0.82591 0.12394
 C48 C 0.85619 0.88404 0.13512
 H49 H 0.85460 0.89852 0.08610
 N50 N 0.81569 0.82310 0.21746
 C51 C 0.67778 0.74835 0.33871
 H52 H 0.67844 0.70338 0.32304
 C53 C 0.63816 0.76488 0.38562
 H54 H 0.60839 0.73228 0.40587
 C55 C 0.71451 0.84579 0.32926
 H56 H 0.74377 0.87726 0.30645
 C57 C 0.67462 0.86452 0.37513
 H58 H 0.67391 0.91036 0.38796
 Zn59 Zn 0.76530 0.76217 0.24698
 N60 N 0.71557 0.78844 0.31234
 C61 C 0.81433 0.68145 0.33780
 N62 N 0.81565 0.70042 0.27654
 C63 C 0.85522 0.67776 0.23513
 C64 C 0.89468 0.63331 0.25447
 C65 C 0.85277 0.63696 0.35906
 C66 C 0.67276 0.77439 0.15863
 C67 C 0.62923 0.75571 0.11602
 C68 C 0.67158 0.65812 0.12267
 C69 C 0.71421 0.67865 0.16511
 N70 N 0.71390 0.73586 0.18241
 H71 H 0.78409 0.70117 0.37066
 H72 H 0.85605 0.69438 0.18693
 H73 H 0.92528 0.61578 0.22041
 H74 H 0.85094 0.62250 0.40804
 H75 H 0.67287 0.81941 0.17418
 H76 H 0.59648 0.78704 0.09868
 H77 H 0.67196 0.61212 0.11048
 H78 H 0.74619 0.64831 0.18572
 C79 C 0.63625 0.82367 0.40422
 C80 C 0.90073 0.90428 0.17651
 C81 C 0.62781 0.69656 0.09822
 C82 C 0.89369 0.61231 0.31729
 C83 C 0.82200 0.30289 0.69823
 H84 H 0.83187 0.31504 0.74631
 C85 C 0.85320 0.32915 0.64842
 H86 H 0.88733 0.36132 0.65865
 C87 C 0.76399 0.24775 0.62668
 H88 H 0.72959 0.21575 0.61816
 C89 C 0.79366 0.27350 0.57533
 H90 H 0.78149 0.26085 0.52798
 N91 N 0.77694 0.26454 0.68659
 C92 C 0.65171 0.30039 0.83795
 H93 H 0.64613 0.25754 0.86016
 C94 C 0.62457 0.34971 0.86389
 H95 H 0.59801 0.34456 0.90615
 C96 C 0.69440 0.35955 0.75686
 H97 H 0.72100 0.36347 0.71475
 C98 C 0.66854 0.40984 0.78136
 H99 H 0.67576 0.45166 0.75744
 Zn100 Zn 0.73083 0.24064 0.75753
 N101 N 0.68743 0.30646 0.78654
 C102 C 0.78954 0.24248 0.87680
 N103 N 0.78482 0.21369 0.82136
 C104 C 0.81995 0.16660 0.80936
 C105 C 0.85996 0.14511 0.85510
 C106 C 0.82937 0.22302 0.92367
 C107 C 0.63572 0.19118 0.68888
 C108 C 0.59929 0.14604 0.66692
 C109 C 0.64232 0.08096 0.74631
 C110 C 0.67868 0.12702 0.76595
 N111 N 0.67619 0.18035 0.73582
 H112 H 0.76278 0.28101 0.88483
 H113 H 0.81634 0.14525 0.76429
 H114 H 0.88657 0.10690 0.84424
 H115 H 0.83115 0.24724 0.96701
 H116 H 0.63333 0.23444 0.66688
 H117 H 0.56902 0.15476 0.62779
 H118 H 0.64672 0.03838 0.76951
 H119 H 0.70955 0.11962 0.80459
 C120 C 0.63444 0.40552 0.83655
 C121 C 0.83780 0.31597 0.58597
 C122 C 0.60303 0.08987 0.69512
 C123 C 0.86520 0.17307 0.91373
 C124 C 0.20844 0.82316 0.64979
 H125 H 0.16049 0.82724 0.65070
 C126 C 0.24155 0.86028 0.61024
 H127 H 0.21830 0.89288 0.58156
 C128 C 0.29649 0.77620 0.68701
 H129 H 0.31785 0.74304 0.71642
 C130 C 0.33140 0.81276 0.64852
 H131 H 0.37939 0.80750 0.64913
 N132 N 0.23619 0.78271 0.68787
 C133 C 0.15879 0.80740 0.85191
 H134 H 0.19858 0.78961 0.87384
 C135 C 0.12450 0.84823 0.88434
 H136 H 0.13839 0.86147 0.93103
 C137 C 0.09214 0.81251 0.76477
 H138 H 0.07977 0.79866 0.71794
 C139 C 0.05629 0.85269 0.79570
 H140 H 0.01705 0.86975 0.77170
 Zn141 Zn 0.18823 0.73797 0.74446
 N142 N 0.14239 0.79074 0.79291
 C143 C 0.28172 0.70911 0.83225
 N144 N 0.23660 0.68746 0.79624
 C145 C 0.22707 0.62853 0.79294
 C146 C 0.26405 0.58891 0.82542
 C147 C 0.32010 0.67089 0.86538
 C148 C 0.14502 0.67711 0.63726
 C149 C 0.10697 0.63847 0.60595
 C150 C 0.04796 0.62994 0.70075
 C151 C 0.08725 0.66820 0.73028
 N152 N 0.13468 0.69077 0.69845
 H153 H 0.28943 0.75599 0.83333
 H154 H 0.19164 0.61168 0.76375
 H155 H 0.25566 0.54245 0.82063
 H156 H 0.35661 0.68893 0.89253
 H157 H 0.18352 0.69508 0.61326
 H158 H 0.11615 0.62729 0.55750
 H159 H 0.01140 0.61176 0.72777
 H160 H 0.08070 0.67913 0.77923
 C161 C 0.07244 0.87124 0.85624
 C162 C 0.30400 0.85577 0.60984
 C163 C 0.05779 0.61427 0.63783
 C164 C 0.31195 0.60985 0.86153
 Si165 Si 0.01759 0.03376 0.01753
 Si166 Si -0.01354 0.45876 0.47470
 Si167 Si 0.49485 -0.03696 0.52665
 Si168 Si 0.50472 0.53881 -0.01932
 C169 C 0.03623 -0.08488 -0.11039
 C170 C -0.02241 -0.07094 -0.12440
 C171 C -0.03756 -0.02847 -0.08304
 C172 C 0.01288 -0.01920 -0.04731
 O173 O 0.05744 -0.05381 -0.06310
 H174 H -0.05119 -0.08988 -0.15976
 H175 H -0.08050 -0.00727 -0.07910
 C176 C 0.12604 0.36427 0.44119
 C177 C 0.11556 0.34246 0.50132
 C178 C 0.06878 0.37427 0.52293
 C179 C 0.05397 0.41260 0.47426
 O180 O 0.08877 0.40697 0.42467
 H181 H 0.13839 0.30670 0.52574
 H182 H 0.04633 0.36851 0.56770
 C183 C 0.59361 -0.15691 0.45237
 C184 C 0.57010 -0.19220 0.49981
 C185 C 0.53351 -0.15643 0.53294
 C186 C 0.53711 -0.10234 0.50302
 O187 O 0.57357 -0.10235 0.45437
 H188 H 0.57899 -0.23823 0.50959
 H189 H 0.50698 -0.16839 0.57369
 C190 C 0.61115 0.45890 -0.13326
 C191 C 0.63438 0.51472 -0.14199
 C192 C 0.60198 0.54989 -0.10399
 C193 C 0.56140 0.51322 -0.07499
 O194 O 0.56676 0.45797 -0.09234
 H195 H 0.67132 0.52824 -0.17144
 H196 H 0.60721 0.59676 -0.09820
 C197 C -0.09650 0.15166 -0.04166
 C198 C -0.08590 0.17506 0.01750
 C199 C -0.04502 0.13878 0.04596
 C200 C -0.03371 0.09596 0.00288
 O201 O -0.06433 0.10359 -0.05011
 H202 H -0.10507 0.21364 0.03833
 H203 H -0.02604 0.14269 0.09281
 C204 C -0.06523 0.56556 0.34058
 C205 C -0.01754 0.54273 0.30805
 C206 C 0.00799 0.50231 0.34830
 C207 C -0.02597 0.50336 0.40214
 O208 O -0.07018 0.54150 0.39762
 H209 H -0.00237 0.55436 0.26110
 H210 H 0.04675 0.47566 0.33920
 C211 C 0.47789 0.08995 0.40295
 C212 C 0.53638 0.07702 0.38886
 C213 C 0.55237 0.03314 0.43056
 C214 C 0.50228 0.02224 0.46619
 O215 O 0.45750 0.05702 0.45006
 H216 H 0.56398 0.09693 0.35263
 H217 H 0.59503 0.01108 0.43373
 C218 C 0.35509 0.56900 -0.10739
 C219 C 0.35242 0.50823 -0.10830
 C220 C 0.40257 0.48915 -0.07766
 C221 C 0.43187 0.53928 -0.05997
 O222 O 0.40348 0.58768 -0.07787
 H223 H 0.31886 0.48063 -0.12941
 H224 H 0.41654 0.44407 -0.06968
 C225 C -0.05478 -0.05716 0.15391
 C226 C -0.00613 -0.03728 0.18814
 C227 C 0.02598 -0.00347 0.14692
 C228 C -0.00524 -0.00464 0.09091
 O229 O -0.05404 -0.03694 0.09481
 H230 H 0.00581 -0.04658 0.23683
 H231 H 0.06731 0.01914 0.15671
 C232 C -0.13363 0.34884 0.53336
 C233 C -0.15598 0.35494 0.47256
 C234 C -0.11846 0.39338 0.44244
 C235 C -0.07616 0.40751 0.48692
 O236 O -0.08509 0.38065 0.54179
 H237 H -0.19586 0.33551 0.45298
 H238 H -0.12187 0.40964 0.39420
 C239 C 0.34101 -0.10408 0.57065
 C240 C 0.32024 -0.06842 0.52174
 C241 C 0.36911 -0.03958 0.49925
 C242 C 0.41606 -0.05938 0.53613
 O243 O 0.39924 -0.09870 0.57914
 H244 H 0.27523 -0.06443 0.50356
 H245 H 0.36997 -0.00879 0.45982
 C246 C 0.46841 0.43191 0.11991
 C247 C 0.52686 0.44281 0.13718
 C248 C 0.54842 0.48000 0.09158
 C249 C 0.50168 0.48913 0.05021
 O250 O 0.45322 0.45998 0.06693
 H251 H 0.55126 0.42528 0.17755
 H252 H 0.59276 0.49858 0.08895
 C253 C 0.16600 0.10862 0.06625
 C254 C 0.18876 0.07974 0.01488
 C255 C 0.14166 0.05034 -0.01057
 C256 C 0.09382 0.06326 0.02706
 O257 O 0.10829 0.09878 0.07326
 H258 H 0.23403 0.07981 -0.00233
 H259 H 0.14243 0.02272 -0.05150
 C260 C 0.01853 0.57147 0.60610
 C261 C -0.03683 0.55375 0.62753
 C262 C -0.05604 0.51307 0.58585
 C263 C -0.01127 0.50884 0.54211
 O264 O 0.03388 0.54437 0.55387
 H265 H -0.06083 0.56863 0.66833
 H266 H -0.09793 0.48955 0.58719
 C267 C 0.56850 0.04061 0.66867
 C268 C 0.55498 -0.01133 0.70037
 C269 C 0.52638 -0.04508 0.65716
 C270 C 0.52473 -0.01144 0.60252
 O271 O 0.54989 0.04055 0.60925
 H272 H 0.56503 -0.02348 0.74891
 H273 H 0.50961 -0.08929 0.66425
 C274 C 0.58006 0.67307 0.05714
 C275 C 0.53228 0.70421 0.03189
 C276 C 0.49857 0.66379 0.00088
 C277 C 0.52826 0.61127 0.00944
 O278 O 0.57744 0.61682 0.04321
 H279 H 0.52227 0.75044 0.03610
 H280 H 0.45719 0.67191 -0.02421
   
