data_POSCAR
  _audit_creation_date              2014-09-24
  _audit_creation_method            'ToBaCCo'
  _symmetry_space_group_name_H-M    'P1'
  _symmetry_Int_Tables_number       1
  _symmetry_cell_setting            triclinic
  loop_
  _symmetry_equiv_pos_as_xyz
 x,y,z
_cell_length_a 11.1622
_cell_length_b 24.0303
_cell_length_c 11.2305
_cell_angle_alpha 90.054300
_cell_angle_beta 90.083600
_cell_angle_gamma 89.839800
loop_
  _atom_site_label
  _atom_site_type_symbol
  _atom_site_fract_x
  _atom_site_fract_y
  _atom_site_fract_z
N1 N 0.19152 0.05989 0.15247
 N2 N 0.24849 0.10787 0.15864
 N3 N 0.10057 -0.05741 0.22629
 N4 N 0.09324 -0.10515 0.28380
 N5 N 0.19367 -0.05759 0.15478
 N6 N 0.25143 -0.10549 0.16220
 N7 N 0.09862 0.05998 0.22409
 N8 N 0.09060 0.10802 0.28065
 C9 C 0.18548 0.13720 0.24002
 C10 C 0.18878 -0.13445 0.24418
 N11 N -0.22701 -0.05892 0.10028
 N12 N -0.28296 -0.10711 0.09302
 N13 N -0.15677 0.05957 0.19057
 N14 N -0.16109 0.10868 0.24356
 N15 N -0.23027 0.05817 0.09922
 N16 N -0.28885 0.10923 0.08929
 N17 N -0.15507 -0.05828 0.19300
 N18 N -0.16047 -0.10613 0.25047
 Mn19 Mn -0.02850 0.00097 0.20996
 C20 C -0.24184 -0.13586 0.18813
 C21 C -0.24305 0.13864 0.18153
 N22 N 0.22842 -0.05820 -0.09958
 N23 N 0.28787 -0.10904 -0.08971
 N24 N 0.15258 0.05816 -0.19395
 N25 N 0.15816 0.10602 -0.25150
 N26 N 0.22459 0.05880 -0.10130
 N27 N 0.28081 0.10693 -0.09419
 N28 N 0.15489 -0.05981 -0.19089
 N29 N 0.16015 -0.10886 -0.24406
 Mn30 Mn 0.21072 0.00070 0.02697
 C31 C 0.24260 -0.13856 -0.18203
 C32 C 0.23979 0.13572 -0.18927
 N33 N -0.19595 0.05756 -0.15529
 N34 N -0.25330 0.10555 -0.16256
 N35 N -0.10106 -0.06063 -0.22397
 N36 N -0.09112 -0.10957 -0.27686
 N37 N -0.19535 -0.05954 -0.15423
 N38 N -0.25367 -0.11068 -0.15967
 N39 N -0.10312 0.05710 -0.22714
 N40 N -0.09552 0.10484 -0.28466
 Mn41 Mn -0.21316 -0.00067 -0.02771
 Mn42 Mn 0.02609 -0.00134 -0.21055
 Cl43 Cl -0.00119 -0.00011 -0.00040
 C44 C -0.19064 0.13435 -0.24475
 C45 C -0.18568 -0.13975 -0.23774
 N46 N 0.72767 0.55802 0.60199
 N47 N 0.78515 0.60583 0.59481
 N48 N 0.65437 0.44057 0.69300
 N49 N 0.65985 0.39236 0.74903
 N50 N 0.72676 0.44053 0.60085
 N51 N 0.78302 0.39230 0.59245
 N52 N 0.65534 0.55812 0.69417
 N53 N 0.66214 0.60601 0.75148
 C54 C 0.74468 0.63514 0.68955
 C55 C 0.74163 0.36296 0.68636
 N56 N 0.30593 0.44150 0.65253
 N57 N 0.24860 0.39357 0.65811
 N58 N 0.39962 0.55873 0.72579
 N59 N 0.40790 0.60660 0.78286
 N60 N 0.30679 0.55918 0.65376
 N61 N 0.25016 0.60740 0.66031
 N62 N 0.39870 0.44120 0.72467
 N63 N 0.40619 0.39309 0.78090
 Mn64 Mn 0.52725 0.49966 0.71086
 C65 C 0.31115 0.36405 0.73971
 C66 C 0.31324 0.63636 0.74234
 N67 N 0.69461 0.44094 0.34669
 N68 N 0.75136 0.39274 0.33990
 N69 N 0.60267 0.55879 0.27562
 N70 N 0.59511 0.60675 0.21895
 N71 N 0.69541 0.55862 0.34777
 N72 N 0.75267 0.60656 0.34181
 N73 N 0.60178 0.44142 0.27465
 N74 N 0.59362 0.39361 0.21734
 Mn75 Mn 0.71257 0.49953 0.47406
 C76 C 0.68834 0.36384 0.25770
 C77 C 0.69005 0.63587 0.25990
 N78 N 0.27466 0.55965 0.39967
 N79 N 0.21799 0.60778 0.40793
 N80 N 0.34612 0.44216 0.30622
 N81 N 0.33939 0.39430 0.24884
 N82 N 0.27374 0.44225 0.39836
 N83 N 0.21621 0.39446 0.40543
 N84 N 0.34709 0.55967 0.30754
 N85 N 0.34127 0.60785 0.25142
 Mn86 Mn 0.28886 0.50064 0.52637
 Mn87 Mn 0.47416 0.50051 0.28959
 Cl88 Cl 0.50072 0.50008 0.50022
 C89 C 0.25921 0.63715 0.31401
 C90 C 0.25683 0.36526 0.31071
 C91 C 0.20357 0.19817 0.26153
 C92 C 0.18036 0.23325 0.14933
 C93 C 0.19657 0.28888 0.16547
 C94 C 0.23497 0.30433 0.29243
 C95 C 0.13803 0.27927 0.37329
 C96 C 0.12156 0.22371 0.35711
 C97 C 0.33110 0.21340 0.30051
 C98 C 0.34752 0.26901 0.31640
 H99 H 0.15218 0.21572 0.06486
 H100 H 0.18274 0.31895 0.09465
 H101 H 0.08664 0.30306 0.43753
 H102 H 0.05599 0.20032 0.40745
 H103 H 0.40213 0.18318 0.31492
 H104 H 0.43244 0.28636 0.34492
 C105 C 0.73754 0.80312 0.20674
 C106 C 0.70036 0.78775 0.33393
 C107 C 0.68508 0.73210 0.35038
 C108 C 0.70782 0.69688 0.23822
 C109 C 0.62478 0.72207 0.14284
 C110 C 0.64035 0.77765 0.12640
 C111 C 0.85035 0.76806 0.18229
 C112 C 0.83484 0.71241 0.19856
 H113 H 0.68672 0.81789 0.40474
 H114 H 0.65788 0.71464 0.43509
 H115 H 0.55938 0.69843 0.09245
 H116 H 0.58825 0.80112 0.06211
 H117 H 0.93471 0.78564 0.15316
 H118 H 0.90612 0.68236 0.18390
 C119 C 0.79196 0.19543 0.73369
 C120 C 0.81454 0.23024 0.84640
 C121 C 0.79931 0.28595 0.83071
 C122 C 0.76238 0.30182 0.70359
 C123 C 0.85971 0.27634 0.62335
 C124 C 0.87523 0.22064 0.63911
 C125 C 0.66504 0.21142 0.69361
 C126 C 0.64961 0.26716 0.67800
 H127 H 0.84203 0.21246 0.93083
 H128 H 0.81315 0.31583 0.90195
 H129 H 0.91191 0.29992 0.55974
 H130 H 0.94081 0.19692 0.58903
 H131 H 0.59381 0.18160 0.67804
 H132 H 0.56537 0.28505 0.64850
 C133 C 0.26340 0.80327 0.79962
 C134 C 0.30019 0.78966 0.67827
 C135 C 0.31742 0.73123 0.65945
 C136 C 0.29503 0.69757 0.76543
 C137 C 0.37322 0.72061 0.85755
 C138 C 0.35597 0.77894 0.87644
 C139 C 0.15596 0.77004 0.82127
 C140 C 0.17350 0.71164 0.80256
 H141 H 0.31509 0.82023 0.60865
 H142 H 0.34673 0.71422 0.57477
 H143 H 0.43845 0.69666 0.90781
 H144 H 0.40774 0.80185 0.94186
 H145 H 0.07123 0.78721 0.85147
 H146 H 0.10301 0.68130 0.81673
 C147 C 0.26125 0.19676 0.79209
 C148 C 0.14890 0.23216 0.81627
 C149 C 0.16529 0.28779 0.80033
 C150 C 0.29266 0.30300 0.76113
 C151 C 0.37503 0.27748 0.85662
 C152 C 0.35862 0.22193 0.87278
 C153 C 0.29905 0.21214 0.66508
 C154 C 0.31524 0.26777 0.64892
 H155 H 0.06419 0.21483 0.84504
 H156 H 0.09438 0.31804 0.81491
 H157 H 0.44068 0.30088 0.90722
 H158 H 0.41033 0.19825 0.93707
 H159 H 0.31247 0.18202 0.59420
 H160 H 0.34300 0.28523 0.56440
 C161 C 0.79841 0.80208 0.74061
 C162 C 0.67713 0.78808 0.70204
 C163 C 0.65974 0.72967 0.68465
 C164 C 0.76686 0.69634 0.70826
 C165 C 0.86003 0.71985 0.63206
 C166 C 0.87752 0.77827 0.64976
 C167 C 0.81965 0.76873 0.84760
 C168 C 0.80244 0.71030 0.82964
 H169 H 0.60649 0.81840 0.68618
 H170 H 0.57512 0.71244 0.65456
 H171 H 0.91225 0.69608 0.56837
 H172 H 0.94371 0.80156 0.59982
 H173 H 0.84849 0.78586 0.93236
 H174 H 0.81656 0.67987 0.89977
 C175 C 0.20682 0.80453 0.26603
 C176 C 0.33392 0.78889 0.30619
 C177 C 0.35002 0.73321 0.32201
 C178 C 0.23767 0.69823 0.29656
 C179 C 0.13999 0.72353 0.37672
 C180 C 0.12383 0.77918 0.36075
 C181 C 0.18466 0.76956 0.15346
 C182 C 0.20056 0.71390 0.16938
 H183 H 0.40481 0.81890 0.32161
 H184 H 0.43450 0.71557 0.35152
 H185 H 0.08792 0.69988 0.44037
 H186 H 0.05798 0.80276 0.41088
 H187 H 0.15703 0.78719 0.06893
 H188 H 0.18712 0.68392 0.09825
 C189 C 0.73690 0.19685 0.20001
 C190 C 0.84454 0.22990 0.17792
 C191 C 0.82756 0.28834 0.19673
 C192 C 0.70632 0.30261 0.23448
 C193 C 0.62752 0.27970 0.14270
 C194 C 0.64416 0.22137 0.12369
 C195 C 0.70086 0.21051 0.32157
 C196 C 0.68432 0.26896 0.34055
 H197 H 0.92916 0.21254 0.14784
 H198 H 0.89831 0.31856 0.18264
 H199 H 0.56228 0.30377 0.09268
 H200 H 0.59181 0.19857 0.05851
 H201 H 0.68628 0.17996 0.39131
 H202 H 0.65601 0.28602 0.42552
   
