data_POSCAR
  _audit_creation_date              2014-09-24
  _audit_creation_method            'ToBaCCo'
  _symmetry_space_group_name_H-M    'P1'
  _symmetry_Int_Tables_number       1
  _symmetry_cell_setting            triclinic
  loop_
  _symmetry_equiv_pos_as_xyz
 x,y,z
_cell_length_a 49.5225
_cell_length_b 49.5785
_cell_length_c 14.9068
_cell_angle_alpha 89.778500
_cell_angle_beta 90.189700
_cell_angle_gamma 120.058500
loop_
  _atom_site_label
  _atom_site_type_symbol
  _atom_site_fract_x
  _atom_site_fract_y
  _atom_site_fract_z
C1 C 0.24529 0.49207 0.54252
 C2 C 0.24461 0.48952 0.45137
 C3 C 0.21907 0.48884 0.39665
 C4 C 0.27022 0.48882 0.40191
 C5 C 0.26991 0.49121 0.59741
 C6 C 0.22175 0.49634 0.59184
 C7 C 0.18760 0.46810 0.41633
 C8 C 0.16402 0.46980 0.36942
 C9 C 0.17117 0.49222 0.30097
 C10 C 0.20293 0.51099 0.27659
 C11 C 0.22643 0.50956 0.32459
 C12 C 0.26346 0.46410 0.34377
 C13 C 0.28738 0.46293 0.29777
 C14 C 0.31873 0.48658 0.30907
 C15 C 0.32513 0.51182 0.36557
 C16 C 0.30119 0.51297 0.41130
 C17 C 0.28881 0.51641 0.65319
 C18 C 0.31292 0.51667 0.70262
 C19 C 0.31812 0.49120 0.69960
 C20 C 0.29912 0.46605 0.64278
 C21 C 0.27506 0.46589 0.59302
 C22 C 0.21708 0.52142 0.57240
 C23 C 0.19349 0.52408 0.61545
 C24 C 0.17442 0.50193 0.68024
 C25 C 0.17972 0.47716 0.70010
 C26 C 0.20328 0.47457 0.65713
 H27 H 0.18128 0.45096 0.46925
 H28 H 0.13999 0.45375 0.38757
 H29 H 0.21019 0.52689 0.22044
 H30 H 0.25054 0.52514 0.30634
 H31 H 0.23960 0.44551 0.33462
 H32 H 0.28077 0.44353 0.25325
 H33 H 0.30681 0.53271 0.45408
 H34 H 0.28549 0.53639 0.65634
 H35 H 0.32784 0.53738 0.74075
 H36 H 0.30311 0.44659 0.63600
 H37 H 0.26070 0.44619 0.55022
 H38 H 0.23130 0.53856 0.52237
 H39 H 0.19007 0.54307 0.59542
 H40 H 0.16515 0.45939 0.74823
 H41 H 0.20650 0.45501 0.67285
 H42 H 0.34884 0.53077 0.37422
 C43 C 0.50265 -0.24834 0.54753
 C44 C 0.50509 -0.24733 0.45631
 C45 C 0.50633 -0.27227 0.40440
 C46 C 0.50530 -0.22183 0.40337
 C47 C 0.50260 -0.22278 0.59915
 C48 C 0.49932 -0.27532 0.60021
 C49 C 0.52798 -0.28179 0.42501
 C50 C 0.52721 -0.30676 0.37933
 C51 C 0.50480 -0.32275 0.31199
 C52 C 0.48479 -0.31142 0.28718
 C53 C 0.48537 -0.28673 0.33343
 C54 C 0.53004 -0.20412 0.34476
 C55 C 0.53079 -0.17985 0.29498
 C56 C 0.50660 -0.17280 0.30254
 C57 C 0.48130 -0.19147 0.35953
 C58 C 0.48063 -0.21571 0.40927
 C59 C 0.47733 -0.22947 0.65507
 C60 C 0.47639 -0.20574 0.70257
 C61 C 0.50122 -0.17471 0.69723
 C62 C 0.52642 -0.16816 0.64009
 C63 C 0.52726 -0.19195 0.59231
 C64 C 0.47554 -0.30573 0.58101
 C65 C 0.47400 -0.33114 0.62658
 C66 C 0.49554 -0.32668 0.69545
 C67 C 0.51915 -0.29584 0.71459
 C68 C 0.52075 -0.27054 0.66837
 H69 H 0.54518 -0.27020 0.47732
 H70 H 0.54401 -0.31376 0.39725
 H71 H 0.46865 -0.32129 0.23185
 H72 H 0.46901 -0.27922 0.31463
 H73 H 0.54904 -0.20888 0.33842
 H74 H 0.55048 -0.16701 0.25136
 H75 H 0.46090 -0.22968 0.45255
 H76 H 0.45787 -0.25306 0.66029
 H77 H 0.45570 -0.21205 0.74132
 H78 H 0.54550 -0.14450 0.63221
 H79 H 0.54706 -0.18630 0.54962
 H80 H 0.45867 -0.30986 0.52872
 H81 H 0.45641 -0.35404 0.60476
 H82 H 0.53692 -0.29125 0.76436
 H83 H 0.53938 -0.24722 0.68391
 H84 H 0.46209 -0.18704 0.36606
 C85 C 1.24522 0.75436 0.54686
 C86 C 1.24536 0.75313 0.45540
 C87 C 1.26987 0.77917 0.40162
 C88 C 1.22178 0.72543 0.40531
 C89 C 1.21958 0.72960 0.60147
 C90 C 1.27197 0.77965 0.59624
 C91 C 1.27556 0.80969 0.41172
 C92 C 1.30029 0.83439 0.36644
 C93 C 1.32044 0.82929 0.31119
 C94 C 1.31265 0.79812 0.29533
 C95 C 1.28791 0.77347 0.34076
 C96 C 1.20350 0.72883 0.33942
 C97 C 1.18004 0.70272 0.29556
 C98 C 1.17467 0.67259 0.31517
 C99 C 1.19359 0.66945 0.38049
 C100 C 1.21707 0.69563 0.42428
 C101 C 1.22675 0.71579 0.67286
 C102 C 1.20309 0.69087 0.72038
 C103 C 1.17140 0.67848 0.69636
 C104 C 1.16440 0.69408 0.62873
 C105 C 1.18814 0.71930 0.58214
 C106 C 1.30201 0.78399 0.58632
 C107 C 1.32743 0.80845 0.62996
 C108 C 1.32352 0.82963 0.68396
 C109 C 1.29282 0.82393 0.69692
 C110 C 1.26742 0.79930 0.65354
 H111 H 1.26105 0.81443 0.45561
 H112 H 1.30372 0.85754 0.37567
 H113 H 1.32563 0.79250 0.24816
 H114 H 1.28328 0.74994 0.32992
 H115 H 1.20679 0.75165 0.32383
 H116 H 1.16561 0.70598 0.24699
 H117 H 1.23119 0.69260 0.47450
 H118 H 1.25082 0.72391 0.69087
 H119 H 1.21024 0.68184 0.77578
 H120 H 1.14040 0.68641 0.61090
 H121 H 1.18195 0.73042 0.52974
 H122 H 1.30576 0.76833 0.54456
 H123 H 1.34973 0.80995 0.62124
 H124 H 1.28850 0.83885 0.74030
 H125 H 1.24425 0.79592 0.66330
 H126 H 1.19012 0.64701 0.40039
 C127 C 0.75356 0.50809 0.54775
 C128 C 0.75402 0.50719 0.45647
 C129 C 0.77831 0.50411 0.40725
 C130 C 0.72961 0.50829 0.40132
 C131 C 0.72751 0.50813 0.59667
 C132 C 0.77880 0.50859 0.60290
 C133 C 0.79662 0.52649 0.34305
 C134 C 0.81992 0.52420 0.29727
 C135 C 0.82502 0.49906 0.31300
 C136 C 0.80639 0.47657 0.37764
 C137 C 0.78309 0.47893 0.42347
 C138 C 0.72375 0.53309 0.40877
 C139 C 0.69927 0.53269 0.36076
 C140 C 0.68064 0.50789 0.30241
 C141 C 0.68663 0.48299 0.29612
 C142 C 0.71112 0.48347 0.34395
 C143 C 0.69651 0.48474 0.58203
 C144 C 0.67210 0.48610 0.62410
 C145 C 0.67797 0.51094 0.68203
 C146 C 0.70942 0.53316 0.70094
 C147 C 0.73379 0.53186 0.65809
 C148 C 0.77158 0.48459 0.66454
 C149 C 0.79511 0.48378 0.71423
 C150 C 0.82660 0.50771 0.70581
 C151 C 0.83350 0.53178 0.64318
 C152 C 0.80989 0.53233 0.59294
 H153 H 0.79330 0.54613 0.32977
 H154 H 0.83435 0.54241 0.25010
 H155 H 0.80998 0.45747 0.39527
 H156 H 0.76896 0.46125 0.47236
 H157 H 0.73774 0.55242 0.45315
 H158 H 0.69469 0.55166 0.37014
 H159 H 0.71498 0.46387 0.33869
 H160 H 0.69121 0.46552 0.53740
 H161 H 0.64846 0.46757 0.61130
 H162 H 0.71575 0.55144 0.74958
 H163 H 0.75764 0.54964 0.67220
 H164 H 0.74770 0.46584 0.67208
 H165 H 0.78814 0.46370 0.75660
 H166 H 0.85736 0.55011 0.63220
 H167 H 0.81590 0.55112 0.54557
 H168 H 0.67203 0.46253 0.25664
 C169 C 0.49903 0.25046 0.54917
 C170 C 0.49954 0.24998 0.45766
 C171 C 0.49893 0.27476 0.40283
 C172 C 0.50206 0.22539 0.40834
 C173 C 0.49748 0.22457 0.60394
 C174 C 0.50155 0.27767 0.59828
 C175 C 0.47562 0.28260 0.41506
 C176 C 0.47687 0.30768 0.36843
 C177 C 0.50141 0.32552 0.30837
 C178 C 0.52359 0.31619 0.29231
 C179 C 0.52239 0.29121 0.33936
 C180 C 0.47927 0.20699 0.34527
 C181 C 0.48064 0.18285 0.30164
 C182 C 0.50521 0.17691 0.31858
 C183 C 0.52828 0.19582 0.38145
 C184 C 0.52684 0.21997 0.42504
 C185 C 0.51968 0.23107 0.67128
 C186 C 0.52029 0.20692 0.71806
 C187 C 0.49900 0.17540 0.69729
 C188 C 0.47531 0.16925 0.63403
 C189 C 0.47457 0.19348 0.58801
 C190 C 0.52658 0.30776 0.58242
 C191 C 0.52792 0.33353 0.62444
 C192 C 0.50461 0.32978 0.68596
 C193 C 0.47971 0.29924 0.70190
 C194 C 0.47839 0.27355 0.65936
 H195 H 0.45676 0.26962 0.46192
 H196 H 0.45880 0.31348 0.38012
 H197 H 0.54196 0.32778 0.24363
 H198 H 0.54028 0.28514 0.32767
 H199 H 0.45994 0.21082 0.33158
 H200 H 0.46217 0.16842 0.25516
 H201 H 0.54481 0.23414 0.47316
 H202 H 0.53707 0.25495 0.68642
 H203 H 0.53754 0.21353 0.77038
 H204 H 0.45750 0.14551 0.61910
 H205 H 0.45646 0.18794 0.53862
 H206 H 0.54481 0.31137 0.53574
 H207 H 0.54697 0.35609 0.60581
 H208 H 0.46090 0.29524 0.74683
 H209 H 0.45882 0.25048 0.67230
 H210 H 0.54713 0.19190 0.39949
 C211 C 0.75436 0.24556 0.54735
 C212 C 0.75447 0.24423 0.45611
 C213 C 0.72858 0.21834 0.40609
 C214 C 0.77972 0.26912 0.40154
 C215 C 0.77838 0.27298 0.59732
 C216 C 0.72937 0.22012 0.60127
 C217 C 0.73500 0.20062 0.34613
 C218 C 0.71079 0.17554 0.30070
 C219 C 0.67948 0.16752 0.31483
 C220 C 0.67343 0.18630 0.37253
 C221 C 0.69767 0.21145 0.41743
 C222 C 0.81104 0.27742 0.41371
 C223 C 0.83447 0.30162 0.36322
 C224 C 0.82711 0.31782 0.29870
 C225 C 0.79551 0.30929 0.28752
 C226 C 0.77217 0.28501 0.33751
 C227 C 0.78375 0.30301 0.57891
 C228 C 0.80725 0.32881 0.62397
 C229 C 0.82534 0.32508 0.69118
 C230 C 0.81966 0.29464 0.70868
 C231 C 0.79623 0.26895 0.66327
 C232 C 0.71064 0.22666 0.65675
 C233 C 0.68551 0.20273 0.70278
 C234 C 0.67907 0.17167 0.69660
 C235 C 0.69792 0.16529 0.64003
 C236 C 0.72304 0.18929 0.59384
 H237 H 0.75883 0.20606 0.33518
 H238 H 0.71711 0.16305 0.25416
 H239 H 0.64977 0.18145 0.38282
 H240 H 0.69233 0.22547 0.46144
 H241 H 0.81732 0.26533 0.46280
 H242 H 0.85852 0.30795 0.37512
 H243 H 0.74814 0.27915 0.32801
 H244 H 0.77006 0.30655 0.52835
 H245 H 0.81145 0.35148 0.60337
 H246 H 0.83375 0.29067 0.75674
 H247 H 0.79252 0.24593 0.67799
 H248 H 0.71481 0.25024 0.66190
 H249 H 0.67083 0.20881 0.74080
 H250 H 0.69304 0.14162 0.63076
 H251 H 0.73718 0.18376 0.55084
 H252 H 0.78831 0.32152 0.24240
 O253 O 1.04343 0.56606 0.16753
 O254 O 1.07750 0.55983 0.07796
 C255 C 1.07140 0.57338 0.14256
 O256 O 0.95583 0.42638 0.14807
 O257 O 0.92178 0.43609 0.06893
 C258 C 0.92783 0.41982 0.12512
 O259 O 1.04385 0.47255 0.15417
 O260 O 1.07750 0.51547 0.07168
 C261 C 1.07177 0.49426 0.13154
 O262 O 0.95576 0.52417 0.16198
 O263 O 0.92158 0.48222 0.07737
 C264 C 0.92776 0.50306 0.13845
 Zr265 Zr 0.99957 0.53224 0.11513
 O266 O 0.99675 0.53001 0.25678
 O267 O 1.00273 0.57645 0.11646
 Zr268 Zr 0.99972 0.46396 0.10651
 O269 O 0.99667 0.46086 0.24822
 O270 O 1.00297 0.42303 0.10072
 O271 O 1.02739 0.51180 0.12826
 O272 O 0.97274 0.48435 0.12758
 O273 O 0.95498 0.52815 -0.15249
 O274 O 0.92136 0.48464 -0.07187
 C275 C 0.92709 0.50674 -0.12849
 O276 O 1.04318 0.47668 -0.17213
 O277 O 1.07736 0.51744 -0.08378
 C278 C 1.07117 0.49758 -0.14782
 O279 O 0.95546 0.43062 -0.16561
 O280 O 0.92144 0.43837 -0.08039
 C281 C 0.92750 0.42363 -0.14145
 O282 O 1.04321 0.57037 -0.16070
 O283 O 1.07717 0.56156 -0.07785
 C284 C 1.07121 0.57679 -0.13793
 Zr285 Zr 0.99920 0.53506 -0.11125
 O286 O 0.99580 0.53577 -0.25268
 O287 O 1.00239 0.57918 -0.10305
 Zr288 Zr 0.99935 0.46683 -0.12023
 O289 O 0.99592 0.46695 -0.26184
 O290 O 1.00270 0.42593 -0.12507
 Zr291 Zr 1.04568 0.52268 -0.00276
 Zr292 Zr 0.95321 0.47625 -0.00194
 O293 O 0.97227 0.48760 -0.13185
 O294 O 1.02698 0.51505 -0.13355
 O295 O 0.97146 0.52484 0.00298
 O296 O 1.02661 0.47407 -0.00776
 O297 O 1.02655 0.55214 0.00238
 O298 O 0.97170 0.44614 -0.00739
 H299 H 0.95885 0.47658 0.18058
 H300 H 1.04083 0.46543 -0.00997
 H301 H 0.95813 0.48127 -0.18444
 H302 H 1.04083 0.57500 0.00432
 H303 H 0.98571 0.40796 0.06224
 H304 H 0.98474 0.40948 -0.09162
 H305 H 1.01360 0.48678 -0.28394
 H306 H 1.01213 0.53207 -0.27772
 H307 H 0.98426 0.57648 -0.06801
 H308 H 0.98375 0.57420 0.08715
 H309 H 1.01229 0.52451 0.27837
 H310 H 1.01486 0.47977 0.27277
 O311 O 0.57017 0.52659 0.15985
 O312 O 0.56363 0.48632 0.07007
 C313 C 0.57788 0.50643 0.13317
 O314 O 0.43007 0.47190 0.15705
 O315 O 0.43747 0.51460 0.07648
 C316 C 0.42249 0.49262 0.13466
 O317 O 0.47735 0.43170 0.16091
 O318 O 0.51876 0.44036 0.07267
 C319 C 0.49893 0.42572 0.13620
 O320 O 0.52735 0.57123 0.15572
 O321 O 0.48339 0.56121 0.07736
 C322 C 0.50523 0.57703 0.13513
 Zr323 Zr 0.53516 0.53529 0.10893
 O324 O 0.53660 0.53876 0.25038
 O325 O 0.57910 0.57668 0.09951
 Zr326 Zr 0.46744 0.46606 0.11200
 O327 O 0.46671 0.46784 0.25390
 O328 O 0.42698 0.42132 0.11282
 O329 O 0.51577 0.48729 0.12676
 O330 O 0.48746 0.51359 0.12862
 O331 O 0.52459 0.57095 -0.16037
 O332 O 0.48220 0.56144 -0.07519
 C333 C 0.50308 0.57703 -0.13569
 O334 O 0.47600 0.43230 -0.16710
 O335 O 0.51850 0.44065 -0.08338
 C336 C 0.49775 0.42609 -0.14503
 O337 O 0.42792 0.47185 -0.15572
 O338 O 0.43661 0.51437 -0.07297
 C339 C 0.42080 0.49262 -0.13081
 O340 O 0.56819 0.52716 -0.17122
 O341 O 0.56267 0.48640 -0.08460
 C342 C 0.57623 0.50692 -0.14742
 Zr343 Zr 0.53322 0.53516 -0.11723
 O344 O 0.53109 0.53725 -0.25872
 O345 O 0.57706 0.57676 -0.11628
 Zr346 Zr 0.46582 0.46603 -0.11437
 O347 O 0.46248 0.46703 -0.25581
 O348 O 0.42548 0.42121 -0.11024
 Zr349 Zr 0.52442 0.47825 -0.00503
 Zr350 Zr 0.47640 0.52295 0.00008
 O351 O 0.48539 0.51355 -0.13069
 O352 O 0.51379 0.48725 -0.13496
 O353 O 0.52494 0.55406 -0.00286
 O354 O 0.47582 0.44798 -0.00239
 O355 O 0.55307 0.52707 -0.00577
 O356 O 0.44701 0.47414 0.00045
 H357 H 0.48050 0.52016 0.18232
 H358 H 0.46758 0.42519 -0.00270
 H359 H 0.47769 0.52014 -0.18303
 H360 H 0.57604 0.53632 -0.00698
 H361 H 0.41072 0.42270 0.07770
 H362 H 0.40932 0.42295 -0.07617
 H363 H 0.48247 0.47059 -0.28093
 H364 H 0.52777 0.51720 -0.28234
 H365 H 0.57453 0.59256 -0.08291
 H366 H 0.57564 0.59305 0.07317
 H367 H 0.52816 0.51742 0.27416
 H368 H 0.48587 0.46862 0.27670
 O369 O 0.47566 0.04456 0.16867
 O370 O 0.51745 0.07813 0.08218
 C371 C 0.49733 0.07235 0.14529
 O372 O 0.52451 -0.04581 0.15290
 O373 O 0.48049 -0.07907 0.07350
 C374 C 0.50265 -0.07350 0.12997
 O375 O 0.56796 0.04160 0.16338
 O376 O 0.56127 0.07669 0.07951
 C377 C 0.57560 0.06982 0.14034
 O378 O 0.42764 -0.04289 0.16105
 O379 O 0.43443 -0.07756 0.07617
 C380 C 0.42003 -0.07102 0.13734
 Zr381 Zr 0.46487 0.00050 0.11656
 O382 O 0.46361 -0.00311 0.25824
 O383 O 0.42460 0.00507 0.11717
 Zr384 Zr 0.53215 -0.00153 0.11294
 O385 O 0.53058 -0.00548 0.25456
 O386 O 0.57593 0.00061 0.11165
 O387 O 0.51314 0.02714 0.13298
 O388 O 0.48446 -0.02757 0.13078
 O389 O 0.42631 -0.04182 -0.15455
 O390 O 0.43447 -0.07693 -0.07560
 C391 C 0.41923 -0.07007 -0.13343
 O392 O 0.56697 0.04290 -0.16355
 O393 O 0.56063 0.07710 -0.07534
 C394 C 0.57480 0.07093 -0.13776
 O395 O 0.52296 -0.04523 -0.15721
 O396 O 0.47997 -0.07858 -0.07436
 C397 C 0.50141 -0.07302 -0.13295
 O398 O 0.47431 0.04586 -0.15884
 O399 O 0.51689 0.07865 -0.07369
 C400 C 0.49636 0.07347 -0.13531
 Zr401 Zr 0.46398 0.00133 -0.11005
 O402 O 0.46157 -0.00128 -0.25179
 O403 O 0.42372 0.00588 -0.10586
 Zr404 Zr 0.53125 -0.00084 -0.11403
 O405 O 0.52835 -0.00376 -0.25575
 O406 O 0.57498 0.00124 -0.11742
 Zr407 Zr 0.52235 0.04604 0.00240
 Zr408 Zr 0.47378 -0.04643 0.00072
 O409 O 0.48342 -0.02670 -0.12880
 O410 O 0.51212 0.02804 -0.12902
 O411 O 0.44457 -0.02684 0.00298
 O412 O 0.55074 0.02563 -0.00023
 O413 O 0.47383 0.02816 0.00407
 O414 O 0.52234 -0.02908 -0.00124
 H415 H 0.47744 -0.04180 0.18323
 H416 H 0.57373 0.03917 -0.00059
 H417 H 0.47602 -0.04057 -0.18183
 H418 H 0.46581 0.04289 0.00519
 H419 H 0.57394 -0.01624 0.07201
 H420 H 0.57312 -0.01630 -0.08085
 H421 H 0.52788 0.01481 -0.27811
 H422 H 0.48180 0.01536 -0.27518
 H423 H 0.40761 -0.01204 -0.07143
 H424 H 0.40817 -0.01268 0.08307
 H425 H 0.48384 0.01365 0.28129
 H426 H 0.52946 0.01247 0.27883
 C427 C 1.14605 0.49417 0.25604
 C428 C 1.15527 0.52154 0.19832
 C429 C 1.12959 0.52153 0.15427
 C430 C 1.09928 0.49459 0.17705
 C431 C 1.10198 0.46743 0.15496
 C432 C 1.12769 0.46720 0.19818
 C433 C 1.12349 0.49483 0.31841
 C434 C 1.09771 0.49492 0.27480
 H435 H 1.17758 0.54294 0.20089
 H436 H 1.13263 0.54193 0.11816
 H437 H 1.08649 0.44926 0.10892
 H438 H 1.13305 0.44874 0.18707
 H439 H 1.12661 0.49705 0.39071
 H440 H 1.07983 0.49679 0.31162
 C441 C 0.50379 0.64954 0.26467
 C442 C 0.50782 0.62706 0.32777
 C443 C 0.50827 0.60307 0.28481
 C444 C 0.50450 0.60343 0.18253
 C445 C 0.47396 0.60407 0.16981
 C446 C 0.47345 0.62788 0.21306
 C447 C 0.52995 0.65973 0.19494
 C448 C 0.53033 0.63571 0.15221
 H449 H 0.50910 0.62915 0.40032
 H450 H 0.51026 0.58504 0.32057
 H451 H 0.45352 0.58611 0.13540
 H452 H 0.45215 0.62896 0.21638
 H453 H 0.54668 0.68393 0.18003
 H454 H 0.54736 0.63938 0.10090
 C455 C 0.34694 -0.14484 0.26783
 C456 C 0.33793 -0.13548 0.17897
 C457 C 0.36209 -0.11099 0.13634
 C458 C 0.39336 -0.09784 0.18565
 C459 C 0.38713 -0.09001 0.28036
 C460 C 0.36315 -0.11449 0.32351
 C461 C 0.37421 -0.15025 0.24351
 C462 C 0.39820 -0.12584 0.20030
 H463 H 0.31435 -0.14696 0.15226
 H464 H 0.35907 -0.10145 0.07395
 H465 H 0.40136 -0.06767 0.31285
 H466 H 0.35767 -0.11271 0.39291
 H467 H 0.37601 -0.17025 0.26471
 H468 H 0.41958 -0.12573 0.18364
 C469 C 0.85206 0.49867 0.26575
 C470 C 0.88361 0.52384 0.30366
 C471 C 0.90885 0.52561 0.26217
 C472 C 0.90047 0.50195 0.18583
 C473 C 0.87881 0.47013 0.22920
 C474 C 0.85342 0.46823 0.27040
 C475 C 0.85387 0.50578 0.16442
 C476 C 0.87924 0.50770 0.12301
 H477 H 0.88589 0.53901 0.35904
 H478 H 0.93251 0.54235 0.28237
 H479 H 0.88236 0.45027 0.22433
 H480 H 0.83529 0.44627 0.29741
 H481 H 0.83648 0.50871 0.12800
 H482 H 0.88371 0.51273 0.05194
 C483 C 0.50243 0.35338 0.26136
 C484 C 0.49878 0.37550 0.32626
 C485 C 0.49776 0.39955 0.28507
 C486 C 0.50060 0.39958 0.18249
 C487 C 0.53114 0.39927 0.16659
 C488 C 0.53223 0.37534 0.20792
 C489 C 0.47564 0.34329 0.19349
 C490 C 0.47467 0.36734 0.15255
 H491 H 0.49786 0.37289 0.39871
 H492 H 0.49585 0.41729 0.32235
 H493 H 0.55113 0.41745 0.13110
 H494 H 0.55359 0.37438 0.20791
 H495 H 0.45895 0.31912 0.17830
 H496 H 0.45718 0.36374 0.10257
 C497 C 0.65219 0.14051 0.26684
 C498 C 0.63715 0.15210 0.19775
 C499 C 0.61173 0.12901 0.15560
 C500 C 0.60339 0.09604 0.18602
 C501 C 0.63332 0.09464 0.17169
 C502 C 0.65880 0.11764 0.21412
 C503 C 0.62535 0.11918 0.33053
 C504 C 0.59985 0.09612 0.28824
 H505 H 0.64585 0.17656 0.18314
 H506 H 0.59884 0.13396 0.10550
 H507 H 0.63415 0.07633 0.13420
 H508 H 0.68069 0.11773 0.21369
 H509 H 0.62649 0.12173 0.40297
 H510 H 0.57920 0.07924 0.32437
 C511 C 0.49980 0.14965 -0.25901
 C512 C 0.47292 0.13269 -0.19158
 C513 C 0.47193 0.10756 -0.15120
 C514 C 0.49791 0.10136 -0.18102
 C515 C 0.49518 0.09878 -0.28365
 C516 C 0.49629 0.12396 -0.32446
 C517 C 0.52960 0.15729 -0.20531
 C518 C 0.52842 0.13219 -0.16434
 H519 H 0.45608 0.13998 -0.17649
 H520 H 0.45433 0.09347 -0.10187
 H521 H 0.49340 0.07923 -0.32123
 H522 H 0.49567 0.12580 -0.39697
 H523 H 0.55123 0.17939 -0.20610
 H524 H 0.54850 0.13392 -0.12940
 C525 C 0.65208 0.51123 -0.27422
 C526 C 0.63812 0.48634 -0.20003
 C527 C 0.61300 0.48463 -0.15822
 C528 C 0.60374 0.50807 -0.19375
 C529 C 0.63350 0.53996 -0.18549
 C530 C 0.65867 0.54187 -0.22802
 C531 C 0.62437 0.50384 -0.33728
 C532 C 0.59912 0.50197 -0.29503
 H533 H 0.64731 0.47126 -0.18164
 H534 H 0.60092 0.46797 -0.10477
 H535 H 0.63427 0.55996 -0.15338
 H536 H 0.68009 0.56405 -0.23386
 H537 H 0.62480 0.50107 -0.40941
 H538 H 0.57807 0.49724 -0.33081
 C539 C 0.85121 0.35134 -0.26496
 C540 C 0.85408 0.34642 -0.16371
 C541 C 0.87970 0.37017 -0.12386
 C542 C 0.90006 0.39713 -0.18764
 C543 C 0.90803 0.38199 -0.26518
 C544 C 0.88260 0.35821 -0.30533
 C545 C 0.85201 0.38296 -0.26827
 C546 C 0.87766 0.40677 -0.22872
 H547 H 0.83703 0.32635 -0.12582
 H548 H 0.88472 0.37000 -0.05299
 H549 H 0.93157 0.38935 -0.28746
 H550 H 0.88464 0.34551 -0.36163
 H551 H 0.83321 0.38634 -0.29197
 H552 H 0.88078 0.42999 -0.22255
 C553 C 0.50069 -0.14806 -0.25342
 C554 C 0.49425 -0.12751 -0.31751
 C555 C 0.49445 -0.10282 -0.27735
 C556 C 0.50105 -0.10060 -0.17628
 C557 C 0.47644 -0.13247 -0.13825
 C558 C 0.47635 -0.15716 -0.17782
 C559 C 0.53180 -0.12532 -0.20712
 C560 C 0.53199 -0.10053 -0.16718
 H561 H 0.48974 -0.13216 -0.38873
 H562 H 0.49013 -0.08641 -0.31419
 H563 H 0.46158 -0.13550 -0.08127
 H564 H 0.46199 -0.18043 -0.15116
 H565 H 0.55172 -0.12884 -0.20393
 H566 H 0.55207 -0.08293 -0.13058
 C567 C 0.34532 0.49167 -0.25086
 C568 C 0.35925 0.51476 -0.17197
 C569 C 0.38419 0.51518 -0.13230
 C570 C 0.39300 0.49218 -0.17362
 C571 C 0.36281 0.46048 -0.16874
 C572 C 0.33786 0.46019 -0.20876
 C573 C 0.37300 0.50026 -0.31386
 C574 C 0.39782 0.50051 -0.27367
 H575 H 0.34912 0.52778 -0.14370
 H576 H 0.39519 0.52919 -0.07319
 H577 H 0.36098 0.44027 -0.13451
 H578 H 0.31474 0.43972 -0.20776
 H579 H 0.37309 0.50583 -0.38441
 H580 H 0.41907 0.50633 -0.30975
 C581 C 1.14621 0.65149 -0.25974
 C582 C 1.12672 0.66026 -0.19893
 C583 C 1.10199 0.63552 -0.15902
 C584 C 1.09868 0.60395 -0.18270
 C585 C 1.09758 0.60257 -0.28557
 C586 C 1.12237 0.62723 -0.32585
 C587 C 1.15519 0.63178 -0.19904
 C588 C 1.13050 0.60733 -0.15853
 H589 H 1.13214 0.68408 -0.18745
 H590 H 1.08638 0.63823 -0.11375
 H591 H 1.07933 0.58342 -0.32348
 H592 H 1.12519 0.62882 -0.39823
 H593 H 1.17812 0.63423 -0.19406
 H594 H 1.13341 0.59067 -0.11825
 C595 C 0.85186 0.50698 -0.24706
 C596 C 0.87592 0.53852 -0.20528
 C597 C 0.90079 0.53845 -0.16596
 C598 C 0.89951 0.50690 -0.17088
 C599 C 0.86782 0.48367 -0.12892
 C600 C 0.84305 0.48388 -0.16765
 C601 C 0.87105 0.49858 -0.31041
 C602 C 0.89584 0.49862 -0.27079
 H603 H 0.87319 0.55892 -0.20421
 H604 H 0.91921 0.55874 -0.13225
 H605 H 0.86509 0.46979 -0.06953
 H606 H 0.82020 0.47098 -0.13716
 H607 H 0.86540 0.49281 -0.38075
 H608 H 0.91123 0.49286 -0.30718
 C609 C 0.50424 0.35579 -0.27119
 C610 C 0.49842 0.35125 -0.16915
 C611 C 0.49568 0.37429 -0.12851
 C612 C 0.49942 0.40027 -0.19257
 C613 C 0.53100 0.41150 -0.23832
 C614 C 0.53380 0.38846 -0.27875
 C615 C 0.47767 0.36041 -0.30769
 C616 C 0.47510 0.38350 -0.26676
 H617 H 0.49722 0.33188 -0.13157
 H618 H 0.49188 0.37434 -0.05682
 H619 H 0.55014 0.43539 -0.23558
 H620 H 0.55598 0.39349 -0.30671
 H621 H 0.46229 0.34678 -0.36213
 H622 H 0.45753 0.38936 -0.28634
 C623 C 0.65120 0.14500 -0.25590
 C624 C 0.63780 0.15421 -0.17595
 C625 C 0.61245 0.12986 -0.13751
 C626 C 0.60267 0.09810 -0.18093
 C627 C 0.59804 0.10249 -0.28054
 C628 C 0.62333 0.12693 -0.31962
 C629 C 0.65767 0.12004 -0.21588
 C630 C 0.63231 0.09555 -0.17715
 H631 H 0.64857 0.17718 -0.14603
 H632 H 0.60179 0.13292 -0.07780
 H633 H 0.57664 0.08774 -0.31713
 H634 H 0.62348 0.13299 -0.38976
 H635 H 0.68046 0.12192 -0.21530
 H636 H 0.63349 0.07655 -0.14454
 C637 C 1.14711 0.50243 -0.27467
 C638 C 1.14678 0.49836 -0.17207
 C639 C 1.12134 0.49628 -0.13090
 C640 C 1.09850 0.49889 -0.19538
 C641 C 1.11840 0.52961 -0.24609
 C642 C 1.14388 0.53167 -0.28726
 C643 C 1.11570 0.47525 -0.30696
 C644 C 1.09036 0.47333 -0.26571
 H645 H 1.16526 0.49762 -0.13471
 H646 H 1.11803 0.49351 -0.05875
 H647 H 1.11316 0.54839 -0.24827
 H648 H 1.16038 0.55281 -0.32170
 H649 H 1.11358 0.45899 -0.35885
 H650 H 1.06677 0.45535 -0.28245
 C651 C 0.49619 0.64760 -0.26037
 C652 C 0.50222 0.65200 -0.15822
 C653 C 0.50507 0.62889 -0.11766
 C654 C 0.50121 0.60306 -0.18185
 C655 C 0.46949 0.59188 -0.22723
 C656 C 0.46660 0.61499 -0.26745
 C657 C 0.52268 0.64311 -0.29712
 C658 C 0.52536 0.62001 -0.25632
 H659 H 0.50331 0.67120 -0.12041
 H660 H 0.50891 0.62861 -0.04600
 H661 H 0.45026 0.56804 -0.22357
 H662 H 0.44429 0.61029 -0.29421
 H663 H 0.53803 0.65693 -0.35141
 H664 H 0.54304 0.61436 -0.27601
 C665 C 0.34924 -0.14414 -0.27124
 C666 C 0.34922 -0.11326 -0.28507
 C667 C 0.37192 -0.08867 -0.23881
 C668 C 0.39312 -0.09679 -0.18326
 C669 C 0.37082 -0.12404 -0.12301
 C670 C 0.34803 -0.14868 -0.16872
 C671 C 0.38286 -0.13563 -0.29752
 C672 C 0.40551 -0.11116 -0.25096
 H673 H 0.33302 -0.11079 -0.32885
 H674 H 0.37465 -0.06557 -0.24262
 H675 H 0.37316 -0.12426 -0.05069
 H676 H 0.33093 -0.16983 -0.13493
 H677 H 0.38919 -0.14565 -0.35221
 H678 H 0.43015 -0.10177 -0.26466
 C679 C 0.50672 -0.14580 0.25281
 C680 C 0.50373 -0.12328 0.31742
 C681 C 0.50180 -0.09983 0.27599
 C682 C 0.50338 -0.10052 0.17332
 C683 C 0.53355 -0.10086 0.15331
 C684 C 0.53549 -0.12433 0.19467
 C685 C 0.47886 -0.15675 0.18810
 C686 C 0.47706 -0.13318 0.14662
 H687 H 0.50329 -0.12553 0.38996
 H688 H 0.49952 -0.08227 0.31308
 H689 H 0.55196 -0.08393 0.11032
 H690 H 0.55601 -0.12647 0.18607
 H691 H 0.46211 -0.18109 0.17535
 H692 H 0.45876 -0.13755 0.09878
 C693 C 0.34581 0.48666 0.26043
 C694 C 0.37237 0.49142 0.32438
 C695 C 0.39781 0.49380 0.28225
 C696 C 0.39454 0.49088 0.17983
 C697 C 0.36441 0.45985 0.16354
 C698 C 0.33895 0.45744 0.20574
 C699 C 0.36128 0.51371 0.19284
 C700 C 0.38667 0.51599 0.15090
 H701 H 0.37112 0.49251 0.39689
 H702 H 0.41828 0.49712 0.31863
 H703 H 0.36333 0.44097 0.12407
 H704 H 0.31677 0.43601 0.20241
 H705 H 0.35279 0.52967 0.17870
 H706 H 0.39973 0.53399 0.10148
 C707 C 1.14739 0.64474 0.26968
 C708 C 1.14428 0.61230 0.28206
 C709 C 1.11879 0.58880 0.24086
 C710 C 1.09877 0.59950 0.19019
 C711 C 1.09062 0.61687 0.26060
 C712 C 1.11596 0.64037 0.30191
 C713 C 1.14695 0.64846 0.16709
 C714 C 1.12151 0.62501 0.12583
 H715 H 1.16093 0.60775 0.31609
 H716 H 1.11365 0.56480 0.24284
 H717 H 1.06703 0.61121 0.27727
 H718 H 1.11384 0.65453 0.35374
 H719 H 1.16537 0.66770 0.12980
 H720 H 1.11815 0.62442 0.05367
 C721 C 0.50465 0.14920 0.27274
 C722 C 0.53387 0.14569 0.28150
 C723 C 0.53097 0.11991 0.24025
 C724 C 0.49948 0.10000 0.19310
 C725 C 0.47494 0.09247 0.26642
 C726 C 0.47770 0.11812 0.30783
 C727 C 0.49919 0.14840 0.17069
 C728 C 0.49630 0.12266 0.12937
 H729 H 0.55572 0.16242 0.31234
 H730 H 0.54982 0.11472 0.23877
 H731 H 0.45703 0.06907 0.28501
 H732 H 0.46221 0.11646 0.36165
 H733 H 0.49825 0.16682 0.13373
 H734 H 0.49265 0.11905 0.05752
 C735 C 0.65323 0.50729 0.25372
 C736 C 0.66018 0.53908 0.21543
 C737 C 0.63517 0.53870 0.17579
 C738 C 0.60539 0.50659 0.17702
 C739 C 0.61517 0.48475 0.13289
 C740 C 0.64020 0.48528 0.17225
 C741 C 0.62503 0.49720 0.31600
 C742 C 0.60009 0.49683 0.27602
 H743 H 0.68306 0.55990 0.21650
 H744 H 0.63670 0.55917 0.14411
 H745 H 0.60472 0.47142 0.07235
 H746 H 0.65098 0.47311 0.14229
 H747 H 0.62470 0.49068 0.38579
 H748 H 0.57848 0.48996 0.31154
 C749 C 0.85345 0.34501 0.24785
 C750 C 0.84407 0.35910 0.16932
 C751 C 0.86856 0.38376 0.12883
 C752 C 0.90054 0.39223 0.16883
 C753 C 0.89777 0.39730 0.26898
 C754 C 0.87325 0.37277 0.31009
 C755 C 0.87701 0.33717 0.20512
 C756 C 0.90160 0.36183 0.16400
 H757 H 0.82086 0.34947 0.14148
 H758 H 0.86536 0.39484 0.07000
 H759 H 0.91369 0.41851 0.30449
 H760 H 0.86830 0.37308 0.38086
 H761 H 0.87429 0.31404 0.20576
 H762 H 0.91981 0.35975 0.12995
   
