data_POSCAR
  _audit_creation_date              2014-09-24
  _audit_creation_method            'ToBaCCo'
  _symmetry_space_group_name_H-M    'P1'
  _symmetry_Int_Tables_number       1
  _symmetry_cell_setting            triclinic
  loop_
  _symmetry_equiv_pos_as_xyz
 x,y,z
_cell_length_a 24.9685
_cell_length_b 24.8934
_cell_length_c 25.1061
_cell_angle_alpha 90.483900
_cell_angle_beta 90.842800
_cell_angle_gamma 90.234200
loop_
  _atom_site_label
  _atom_site_type_symbol
  _atom_site_fract_x
  _atom_site_fract_y
  _atom_site_fract_z
C1 C 0.18481 0.19390 0.28006
 C2 C 0.16727 0.24249 0.25782
 C3 C 0.18257 0.25832 0.20672
 C4 C 0.21861 0.22595 0.17831
 C5 C 0.24076 0.17926 0.20111
 C6 C 0.22369 0.16416 0.25229
 H7 H 0.14143 0.26849 0.28058
 H8 H 0.23016 0.23788 0.13878
 H9 H 0.23617 0.12561 0.26746
 C10 C -0.18097 0.80653 0.25088
 C11 C -0.15553 0.76738 0.21935
 C12 C -0.17528 0.75356 0.16844
 C13 C -0.22103 0.77892 0.14815
 C14 C -0.24718 0.81765 0.17885
 C15 C -0.22805 0.83037 0.23018
 H16 H -0.12048 0.74654 0.23423
 H17 H -0.23509 0.76997 0.10798
 H18 H -0.24749 0.86278 0.25133
 C19 C -0.20364 0.20083 -0.25914
 C20 C -0.24912 0.17383 -0.23946
 C21 C -0.26776 0.18350 -0.18767
 C22 C -0.24104 0.22164 -0.15514
 C23 C -0.19771 0.25072 -0.17475
 C24 C -0.18000 0.24107 -0.22652
 H25 H -0.26889 0.14288 -0.26287
 H26 H -0.25336 0.22845 -0.11445
 H27 H -0.14726 0.26544 -0.24063
 C28 C 0.17978 0.80633 -0.27323
 C29 C 0.16513 0.75535 -0.25398
 C30 C 0.19920 0.72654 -0.21938
 C31 C 0.24860 0.74988 -0.20396
 C32 C 0.26201 0.80243 -0.21863
 C33 C 0.22833 0.82951 -0.25448
 H34 H 0.12723 0.73783 -0.26616
 H35 H 0.27616 0.72816 -0.17852
 H36 H 0.23789 0.87071 -0.26411
 C37 C 0.21045 1.18549 0.72153
 C38 C 0.18610 1.23240 0.74286
 C39 C 0.20722 1.25885 0.78839
 C40 C 0.25403 1.23867 0.81227
 C41 C 0.27688 1.19099 0.79447
 C42 C 0.25670 1.16584 0.74824
 H43 H 0.14795 1.24598 0.72747
 H44 H 0.27155 1.25816 0.84712
 H45 H 0.27705 1.13016 0.73474
 C46 C 0.81271 0.83617 0.76985
 C47 C 0.76678 0.85265 0.79774
 C48 C 0.75091 0.82649 0.84434
 C49 C 0.78211 0.78445 0.86448
 C50 C 0.82735 0.76591 0.83711
 C51 C 0.84120 0.79125 0.78909
 H52 H 0.74267 0.88562 0.78318
 H53 H 0.76927 0.76463 0.90038
 H54 H 0.87803 0.77974 0.77003
 C55 C 0.18838 0.80168 1.26098
 C56 C 0.17180 0.74858 1.24866
 C57 C 0.20266 0.71455 1.21585
 C58 C 0.25271 0.73385 1.19866
 C59 C 0.26855 0.78709 1.20800
 C60 C 0.23665 0.82040 1.23944
 H61 H 0.13244 0.73590 1.26074
 H62 H 0.27927 0.70860 1.17604
 H63 H 0.25006 0.86116 1.24714
 C64 C 0.80281 1.19464 1.24838
 C65 C 0.74897 1.18538 1.23280
 C66 C 0.72494 1.21366 1.19038
 C67 C 0.75437 1.25440 1.16567
 C68 C 0.80829 1.26313 1.17894
 C69 C 0.83218 1.23346 1.22020
 H70 H 0.72745 1.15214 1.25000
 H71 H 0.73652 1.27710 1.13344
 H72 H 0.87353 1.24204 1.23083
 O73 O 0.52682 0.92482 0.93830
 O74 O 0.43940 0.95117 1.11360
 O75 O 0.59942 0.99281 1.06374
 O76 O 0.42570 0.92524 0.94699
 O77 O 0.53999 0.94908 1.10938
 O78 O 0.45598 0.96062 0.87480
 O79 O 0.41626 0.91209 1.04052
 O80 O 0.59454 0.97116 0.97007
 C81 C 0.57615 0.92861 0.94839
 C82 C 0.41735 0.91273 1.08984
 C83 C 0.58729 0.95493 1.09475
 C84 C 0.42062 0.92992 0.89684
 O85 O 0.45903 1.05184 0.91944
 O86 O 0.54126 1.05308 1.11594
 O87 O 0.55040 1.07229 0.95283
 O88 O 0.37909 1.01407 1.05526
 O89 O 0.44066 1.05405 1.10604
 O90 O 0.54756 1.01393 0.89359
 O91 O 0.38728 1.02750 0.95780
 O92 O 0.55222 1.09080 1.04206
 Co93 Co 0.49092 0.98815 0.93266
 Co94 Co 0.49051 1.00176 1.10173
 Co95 Co 0.56815 1.02943 1.00747
 Co96 Co 0.40954 0.97254 1.00101
 O97 O 0.49122 0.99963 1.01398
 C98 C 0.41060 1.05836 0.92661
 C99 C 0.55667 1.09280 1.09081
 C100 C 0.56498 1.05844 0.90800
 C101 C 0.39266 1.04837 1.09109
 O102 O 0.03024 0.44422 0.10479
 O103 O 0.05317 0.53757 -0.11628
 O104 O 0.09133 0.42129 -0.04890
 O105 O 0.09577 0.55947 0.04809
 O106 O 0.04011 0.43700 -0.11501
 O107 O 0.03824 0.54090 0.10829
 O108 O 0.09561 0.57852 -0.05043
 O109 O 0.08806 0.43030 0.04531
 C110 C 0.07546 0.42706 0.09246
 C111 C 0.09061 0.56765 -0.09888
 C112 C 0.08259 0.41717 -0.09707
 C113 C 0.08460 0.55667 0.09595
 O114 O -0.06191 0.54796 0.06001
 O115 O -0.06018 0.45087 -0.08401
 O116 O -0.01275 0.38765 0.04325
 O117 O -0.00421 0.61038 -0.04523
 O118 O -0.04777 0.55197 -0.09615
 O119 O -0.06671 0.45227 0.05352
 O120 O -0.00022 0.60550 0.05208
 O121 O -0.01237 0.38559 -0.05234
 Co122 Co -0.01236 0.49635 0.07428
 Co123 Co -0.00198 0.49405 -0.09319
 Co124 Co 0.03659 0.41367 -0.00334
 Co125 Co 0.04397 0.57932 0.00089
 O126 O 0.01585 0.49638 -0.00635
 C127 C -0.04784 0.59546 0.06184
 C128 C -0.05535 0.40231 -0.07350
 C129 C -0.05824 0.40346 0.05568
 C130 C -0.04026 0.59894 -0.07927
 O131 O 1.09197 0.03565 0.45577
 O132 O 0.87888 0.05463 0.55218
 O133 O 0.93584 0.02674 0.38967
 O134 O 1.04331 0.07830 0.56094
 O135 O 0.88564 0.05835 0.45263
 O136 O 1.09925 0.01731 0.55210
 O137 O 0.95254 0.09311 0.57510
 O138 O 1.02151 0.06726 0.41968
 C139 C 1.07005 0.07172 0.42895
 C140 C 0.90306 0.09255 0.57489
 C141 C 0.90010 0.05832 0.40501
 C142 C 1.08974 0.06383 0.56692
 O143 O 1.05174 -0.07649 0.53709
 O144 O 0.88528 -0.04760 0.44930
 O145 O 1.03184 -0.02104 0.36819
 O146 O 0.93747 -0.00773 0.61223
 O147 O 0.88534 -0.04838 0.55218
 O148 O 1.05681 -0.06607 0.43941
 O149 O 1.03332 -0.02484 0.60465
 O150 O 0.96386 -0.06781 0.42076
 Co151 Co 1.06610 -0.01936 0.49646
 Co152 Co 0.89315 0.00406 0.50122
 Co153 Co 0.99374 -0.00004 0.42522
 Co154 Co 0.99175 0.03245 0.58186
 O155 O 0.98151 0.00641 0.50384
 C156 C 1.04954 -0.06928 0.58623
 C157 C 0.91485 -0.07712 0.42192
 C158 C 1.06350 -0.05720 0.38984
 C159 C 0.90178 -0.04236 0.59956
 C160 C 1.18592 0.13501 0.35886
 C161 C 1.15965 0.17248 0.32573
 C162 C 1.10517 0.18357 0.33596
 C163 C 1.07681 0.15377 0.37312
 C164 C 1.10218 0.11293 0.40191
 C165 C 1.15758 0.10586 0.39660
 H166 H 1.22827 0.12704 0.35504
 H167 H 1.08231 0.21122 0.31172
 H168 H 1.03409 0.16015 0.37653
 H169 H 1.17842 0.07506 0.41888
 C170 C 0.89873 -0.17494 0.30754
 C171 C 0.84252 -0.17463 0.29944
 C172 C 0.81100 -0.15048 0.33916
 C173 C 0.83474 -0.12286 0.38196
 C174 C 0.89067 -0.11838 0.38633
 C175 C 0.92240 -0.14684 0.35022
 H176 H 0.92537 -0.19214 0.27850
 H177 H 0.76770 -0.15183 0.33695
 H178 H 0.80910 -0.10222 0.40983
 H179 H 0.96570 -0.14426 0.35264
 C180 C 0.79151 0.15480 0.65298
 C181 C 0.82050 0.18424 0.69239
 C182 C 0.87604 0.19177 0.68444
 C183 C 0.90208 0.16583 0.64287
 C184 C 0.87374 0.13143 0.60806
 C185 C 0.81787 0.12837 0.61174
 H186 H 0.74843 0.15079 0.65412
 H187 H 0.90133 0.21311 0.71281
 H188 H 0.94526 0.16935 0.64079
 H189 H 0.79475 0.10316 0.58449
 C190 C 1.16880 -0.12981 0.65386
 C191 C 1.14612 -0.16515 0.69094
 C192 C 1.08954 -0.17033 0.69130
 C193 C 1.05716 -0.13961 0.65709
 C194 C 1.08081 -0.10472 0.62086
 C195 C 1.13661 -0.10045 0.61925
 H196 H 1.21176 -0.12566 0.65020
 H197 H 1.06980 -0.19567 0.71984
 H198 H 1.01396 -0.14267 0.65924
 H199 H 1.15553 -0.07338 0.59166
 C200 C 0.27551 1.14126 1.11686
 C201 C 0.27782 1.14682 1.17301
 C202 C 0.31815 1.11851 1.20086
 C203 C 0.35505 1.08687 1.17381
 C204 C 0.35193 1.08095 1.11830
 C205 C 0.31151 1.10779 1.09002
 H206 H 0.24455 1.16078 1.09355
 H207 H 0.32300 1.12250 1.24364
 H208 H 0.38616 1.06667 1.19645
 H209 H 0.30844 1.10370 1.04717
 C210 C 0.31496 0.82506 0.86414
 C211 C 0.30689 0.83158 0.80903
 C212 C 0.33873 0.86933 0.78232
 C213 C 0.37671 0.90064 0.81041
 C214 C 0.38347 0.89487 0.86572
 C215 C 0.35273 0.85619 0.89204
 H216 H 0.29054 0.79729 0.88631
 H217 H 0.33375 0.87515 0.73984
 H218 H 0.39993 0.93010 0.78910
 H219 H 0.35703 0.85065 0.93463
 C220 C 0.72212 0.88927 1.11754
 C221 C 0.70969 0.85022 1.15533
 C222 C 0.65714 0.84567 1.17354
 C223 C 0.61715 0.87945 1.15356
 C224 C 0.62948 0.91908 1.11592
 C225 C 0.68251 0.92387 1.09848
 H226 H 0.76282 0.89379 1.10383
 H227 H 0.64721 0.81613 1.20329
 H228 H 0.57674 0.87490 1.16799
 H229 H 0.69339 0.95424 1.06991
 C230 C 0.64943 1.17631 0.86736
 C231 C 0.68638 1.15199 0.83317
 C232 C 0.67983 1.09709 0.82019
 C233 C 0.63811 1.06710 0.84189
 C234 C 0.60286 1.09119 0.87772
 C235 C 0.60844 1.14612 0.88975
 H236 H 0.65256 1.21860 0.87739
 H237 H 0.70809 1.07663 0.79489
 H238 H 0.63512 1.02454 0.83289
 H239 H 0.58168 1.16551 0.91745
 C240 C 0.18595 0.33853 0.14564
 C241 C 0.15778 0.30677 0.18206
 C242 C 0.10426 0.32015 0.19306
 C243 C 0.07913 0.36269 0.16719
 C244 C 0.10628 0.39203 0.12849
 C245 C 0.16022 0.38033 0.11864
 H246 H 0.22748 0.33038 0.13699
 H247 H 0.08055 0.29613 0.21971
 H248 H 0.03717 0.37004 0.17473
 H249 H 0.18190 0.40233 0.08872
 C250 C -0.17212 0.34482 -0.15291
 C251 C -0.16842 0.29010 -0.14120
 C252 C -0.13086 0.27276 -0.10302
 C253 C -0.09531 0.30956 -0.07890
 C254 C -0.09721 0.36420 -0.09253
 C255 C -0.13721 0.38165 -0.12842
 H256 H -0.20057 0.35868 -0.18270
 H257 H -0.12719 0.23043 -0.09407
 H258 H -0.06517 0.29505 -0.05116
 H259 H -0.13983 0.42345 -0.13975
 C260 C 0.14127 0.64222 -0.21847
 C261 C 0.18017 0.67592 -0.19382
 C262 C 0.19622 0.66440 -0.14122
 C263 C 0.17107 0.62414 -0.11276
 C264 C 0.12772 0.59524 -0.13514
 C265 C 0.11481 0.60260 -0.18917
 H266 H 0.12913 0.64812 -0.25953
 H267 H 0.22525 0.68905 -0.11988
 H268 H 0.18263 0.61904 -0.07135
 H269 H 0.08186 0.58061 -0.20767
 C270 C -0.16873 0.66689 0.11770
 C271 C -0.14522 0.71520 0.13556
 C272 C -0.09124 0.72554 0.12507
 C273 C -0.06048 0.68737 0.09882
 C274 C -0.08291 0.63768 0.08337
 C275 C -0.13760 0.62807 0.09208
 H276 H -0.21043 0.65839 0.12556
 H277 H -0.07261 0.76280 0.13831
 H278 H -0.01851 0.69603 0.09250
 H279 H -0.15586 0.59019 0.08029
 C280 C 1.14907 0.18164 0.64293
 C281 C 1.18619 0.15661 0.67783
 C282 C 1.19594 0.10109 0.66919
 C283 C 1.16734 0.07173 0.63034
 C284 C 1.12770 0.09647 0.59930
 C285 C 1.11986 0.15190 0.60493
 H286 H 1.14193 0.22441 0.64448
 H287 H 1.22252 0.07831 0.69453
 H288 H 1.17375 0.02881 0.62716
 H289 H 1.08998 0.17213 0.58074
 C290 C 0.86095 -0.15975 0.68453
 C291 C 0.83191 -0.13437 0.72563
 C292 C 0.82499 -0.07811 0.72275
 C293 C 0.84818 -0.04841 0.68194
 C294 C 0.87713 -0.07416 0.64186
 C295 C 0.88257 -0.13004 0.64282
 H296 H 0.86596 -0.20291 0.68353
 H297 H 0.80447 -0.05614 0.75366
 H298 H 0.84358 -0.00514 0.68165
 H299 H 0.90450 -0.15057 0.61185
 C300 C 1.15466 -0.10781 0.28239
 C301 C 1.15625 -0.16366 0.29216
 C302 C 1.12540 -0.18378 0.33432
 C303 C 1.09596 -0.14905 0.36667
 C304 C 1.09482 -0.09380 0.35635
 C305 C 1.12363 -0.07358 0.31357
 H306 H 1.17563 -0.09037 0.24928
 H307 H 1.12591 -0.22603 0.34416
 H308 H 1.07360 -0.16543 0.39947
 H309 H 1.12278 -0.03105 0.30476
 C310 C 0.88235 0.14994 0.28679
 C311 C 0.82740 0.16304 0.28876
 C312 C 0.79734 0.14226 0.33130
 C313 C 0.82120 0.10951 0.36993
 C314 C 0.87525 0.09528 0.36628
 C315 C 0.90560 0.11590 0.32452
 H316 H 0.90719 0.16322 0.25447
 H317 H 0.75553 0.15238 0.33587
 H318 H 0.79706 0.09431 0.40203
 H319 H 0.94752 0.10560 0.32099
 C320 C 0.14435 0.33934 -0.21217
 C321 C 0.17703 0.30264 -0.18418
 C322 C 0.17913 0.30627 -0.12826
 C323 C 0.15064 0.34535 -0.10122
 C324 C 0.11697 0.38101 -0.12868
 C325 C 0.11404 0.37783 -0.18456
 H326 H 0.14185 0.33811 -0.25523
 H327 H 0.20143 0.27774 -0.10454
 H328 H 0.15340 0.34593 -0.05813
 H329 H 0.08819 0.40471 -0.20670
 C330 C -0.17677 0.35100 0.13256
 C331 C -0.15897 0.29925 0.14587
 C332 C -0.11025 0.28088 0.12560
 C333 C -0.07916 0.31398 0.09383
 C334 C -0.09574 0.36653 0.08209
 C335 C -0.14521 0.38456 0.10121
 H336 H -0.21444 0.36586 0.14748
 H337 H -0.09625 0.24072 0.13428
 H338 H -0.04121 0.29888 0.07981
 H339 H -0.15882 0.42496 0.09306
 C340 C -0.13339 0.71793 -0.08634
 C341 C -0.14068 0.72397 -0.14191
 C342 C -0.11433 0.68763 -0.17603
 C343 C -0.08258 0.64650 -0.15535
 C344 C -0.07464 0.64182 -0.10027
 C345 C -0.09981 0.67802 -0.06590
 H346 H -0.15140 0.74559 -0.05840
 H347 H -0.11976 0.68944 -0.21884
 H348 H -0.06349 0.61871 -0.18248
 H349 H -0.09395 0.67508 -0.02325
 C350 C 0.19826 0.64302 0.14384
 C351 C 0.17947 0.66324 0.19277
 C352 C 0.13433 0.63764 0.21490
 C353 C 0.10519 0.59864 0.18571
 C354 C 0.12167 0.58313 0.13467
 C355 C 0.17052 0.60297 0.11603
 H356 H 0.23196 0.66047 0.12380
 H357 H 0.11952 0.64938 0.25349
 H358 H 0.06802 0.58344 0.20153
 H359 H 0.18497 0.59133 0.07713
 C360 C 0.29828 1.14866 0.88134
 C361 C 0.31478 1.16251 0.82997
 C362 C 0.36515 1.14590 0.81244
 C363 C 0.39812 1.11494 0.84564
 C364 C 0.38043 1.09893 0.89612
 C365 C 0.33050 1.11662 0.91384
 H366 H 0.25926 1.16067 0.89539
 H367 H 0.37842 1.15604 0.77289
 H368 H 0.43621 1.10113 0.83073
 H369 H 0.31567 1.10433 0.95214
 C370 C 0.31874 0.80309 1.12400
 C371 C 0.31458 0.81045 1.17940
 C372 C 0.35015 0.84591 1.20563
 C373 C 0.38644 0.87635 1.17662
 C374 C 0.38766 0.87223 1.12071
 C375 C 0.35490 0.83378 1.09487
 H376 H 0.29149 0.77629 1.10272
 H377 H 0.34817 0.85186 1.24834
 H378 H 0.41148 0.90529 1.19781
 H379 H 0.35493 0.82965 1.05189
 C380 C 0.63463 1.16826 1.19716
 C381 C 0.67336 1.19427 1.16620
 C382 C 0.66598 1.19479 1.11045
 C383 C 0.62406 1.16620 1.08623
 C384 C 0.58941 1.13512 1.11694
 C385 C 0.59344 1.13835 1.17271
 H386 H 0.63784 1.16840 1.24020
 H387 H 0.69487 1.21349 1.08476
 H388 H 0.62186 1.16466 1.04312
 H389 H 0.56669 1.11527 1.19734
 C390 C 0.65358 0.85166 0.84628
 C391 C 0.70272 0.84451 0.87328
 C392 C 0.70634 0.85710 0.92783
 C393 C 0.66292 0.88021 0.95386
 C394 C 0.61470 0.88999 0.92630
 C395 C 0.60970 0.87371 0.87275
 H396 H 0.64972 0.84175 0.80431
 H397 H 0.74375 0.85198 0.94955
 H398 H 0.66787 0.89309 0.99480
 H399 H 0.57333 0.88197 0.85028
   
