data_POSCAR
  _audit_creation_date              2014-09-24
  _audit_creation_method            'ToBaCCo'
  _symmetry_space_group_name_H-M    'P1'
  _symmetry_Int_Tables_number       1
  _symmetry_cell_setting            triclinic
  loop_
  _symmetry_equiv_pos_as_xyz
 x,y,z
_cell_length_a 25.3524
_cell_length_b 25.2496
_cell_length_c 25.5867
_cell_angle_alpha 88.216400
_cell_angle_beta 90.148100
_cell_angle_gamma 91.244300
loop_
  _atom_site_label
  _atom_site_type_symbol
  _atom_site_fract_x
  _atom_site_fract_y
  _atom_site_fract_z
C1 C 0.03219 0.39799 0.19709
 H2 H 0.06875 0.40689 0.21688
 C3 C 0.02812 0.35282 0.16796
 H4 H 0.06173 0.32703 0.16692
 C5 C -0.05472 0.42184 0.17327
 H6 H -0.08706 0.44879 0.17653
 C7 C -0.05978 0.37804 0.14147
 H8 H -0.09679 0.37113 0.12144
 N9 N -0.00966 0.43009 0.20112
 C10 C -0.00333 0.59656 0.23155
 H11 H -0.00590 0.59640 0.27379
 C12 C 0.00130 0.64431 0.20331
 H13 H 0.00193 0.68074 0.22463
 C14 C 0.00011 0.54869 0.15344
 H15 H 0.00034 0.51127 0.13415
 C16 C 0.00436 0.59564 0.12347
 H17 H 0.00627 0.59316 0.08145
 Zn18 Zn -0.00553 0.48633 0.24693
 N19 N -0.00346 0.54999 0.20644
 C20 C 0.09427 0.52170 0.28327
 N21 N 0.05799 0.48123 0.28721
 C22 C 0.06906 0.43562 0.31468
 C23 C 0.11876 0.42874 0.33752
 C24 C 0.14351 0.51719 0.30695
 C25 C -0.10319 0.52134 0.28425
 C26 C -0.15124 0.51686 0.31044
 C27 C -0.12487 0.43227 0.34714
 C28 C -0.07710 0.43842 0.32006
 N29 N -0.06714 0.48240 0.28926
 H30 H 0.08619 0.55706 0.26027
 H31 H 0.04066 0.40318 0.31619
 H32 H 0.12755 0.39183 0.35809
 H33 H 0.17184 0.54987 0.30312
 H34 H -0.09592 0.55520 0.25835
 H35 H -0.17923 0.54836 0.30476
 H36 H -0.13122 0.39698 0.37146
 H37 H -0.04875 0.40716 0.32245
 C38 C 0.00562 0.64443 0.14841
 C39 C -0.01864 0.34162 0.14027
 C40 C -0.16337 0.47140 0.34173
 C41 C 0.15663 0.46982 0.33330
 C42 C 0.01967 0.58202 0.82705
 H43 H 0.05404 0.55822 0.83349
 C44 C 0.01490 0.62900 0.85405
 H45 H 0.04539 0.64032 0.88158
 C46 C -0.05927 0.59926 0.78057
 H47 H -0.08682 0.58976 0.75001
 C48 C -0.06627 0.64569 0.80768
 H49 H -0.09943 0.67051 0.79792
 N50 N -0.01709 0.56795 0.79078
 C51 C -0.03112 0.40185 0.78170
 H52 H -0.06153 0.40505 0.75228
 C53 C -0.02468 0.35339 0.80838
 H54 H -0.05123 0.32072 0.79932
 C55 C 0.04197 0.43910 0.82611
 H56 H 0.06936 0.47173 0.83158
 C57 C 0.04973 0.39129 0.85398
 H58 H 0.08173 0.38937 0.88188
 Zn59 Zn -0.00561 0.50740 0.74880
 N60 N 0.00170 0.44388 0.79104
 C61 C 0.08458 0.47631 0.69455
 N62 N 0.05967 0.51908 0.71282
 C63 C 0.08437 0.56758 0.71309
 C64 C 0.13657 0.57419 0.69574
 C65 C 0.13660 0.48117 0.67671
 C66 C -0.11301 0.49438 0.72695
 C67 C -0.15959 0.49006 0.69822
 C68 C -0.10776 0.48657 0.61954
 C69 C -0.06190 0.49325 0.65001
 N70 N -0.06532 0.49764 0.70278
 H71 H 0.06476 0.43788 0.69590
 H72 H 0.06411 0.60112 0.72800
 H73 H 0.15513 0.61317 0.69617
 H74 H 0.15579 0.44620 0.66324
 H75 H -0.11491 0.49627 0.76909
 H76 H -0.19637 0.48892 0.71978
 H77 H -0.10277 0.48447 0.57778
 H78 H -0.02366 0.49505 0.63130
 C79 C 0.01643 0.34719 0.84502
 C80 C -0.02866 0.66128 0.84460
 C81 C -0.15833 0.48606 0.64323
 C82 C 0.16380 0.53042 0.67792
 C83 C 0.14530 -0.00578 0.44615
 H84 H 0.12500 0.00270 0.48183
 C85 C 0.11671 -0.00702 0.39959
 H86 H 0.07481 -0.00016 0.40101
 C87 C 0.22516 -0.01659 0.40038
 H88 H 0.26758 -0.01599 0.39994
 C89 C 0.19820 -0.01880 0.35313
 H90 H 0.22064 -0.02277 0.31753
 N91 N 0.19856 -0.01144 0.44594
 C92 C 0.20332 0.04122 0.60185
 H93 H 0.23312 0.07198 0.59521
 C94 C 0.17716 0.03696 0.64982
 H95 H 0.18693 0.06539 0.67937
 C96 C 0.15831 -0.03572 0.57297
 H97 H 0.15326 -0.06552 0.54378
 C98 C 0.13065 -0.04096 0.61972
 H99 H 0.10294 -0.07378 0.62395
 Zn100 Zn 0.23904 -0.00032 0.50715
 N101 N 0.19413 0.00448 0.56509
 C102 C 0.32221 0.07786 0.51770
 N103 N 0.27568 0.06497 0.49448
 C104 C 0.25126 0.09986 0.46127
 C105 C 0.27349 0.14979 0.44983
 C106 C 0.34570 0.12786 0.50776
 C107 C 0.27707 -0.08653 0.56902
 C108 C 0.29890 -0.13646 0.57772
 C109 C 0.33780 -0.12832 0.49192
 C110 C 0.31562 -0.07851 0.48514
 N111 N 0.28335 -0.05970 0.52221
 H112 H 0.34054 0.04973 0.54446
 H113 H 0.21369 0.08945 0.44407
 H114 H 0.25214 0.17692 0.42447
 H115 H 0.38231 0.13780 0.52741
 H116 H 0.25363 -0.07031 0.59953
 H117 H 0.29172 -0.15692 0.61481
 H118 H 0.36120 -0.14287 0.46027
 H119 H 0.32303 -0.05605 0.44938
 C120 C 0.14106 -0.00539 0.65995
 C121 C 0.14316 -0.01421 0.35218
 C122 C 0.32804 -0.15924 0.53798
 C123 C 0.32125 0.16468 0.47333
 C124 C 0.84397 0.04852 0.57056
 H125 H 0.84709 0.08044 0.54176
 C126 C 0.87320 0.05192 0.61667
 H127 H 0.89851 0.08636 0.62133
 C128 C 0.80264 -0.03137 0.60114
 H129 H 0.77340 -0.06256 0.59638
 C130 C 0.83141 -0.02985 0.64763
 H131 H 0.82446 -0.06103 0.67702
 N132 N 0.80891 0.00774 0.56376
 C133 C 0.82791 0.06095 0.42969
 H134 H 0.83125 0.09216 0.45740
 C135 C 0.85418 0.06679 0.38176
 H136 H 0.87738 0.10265 0.37499
 C137 C 0.78911 -0.02019 0.40447
 H138 H 0.76263 -0.05346 0.41227
 C139 C 0.81427 -0.01596 0.35606
 H140 H 0.80695 -0.04716 0.32867
 Zn141 Zn 0.76077 0.01115 0.50643
 N142 N 0.79699 0.01740 0.44080
 C143 C 0.69798 0.09688 0.47179
 N144 N 0.72079 0.07344 0.51445
 C145 C 0.72218 0.09781 0.56122
 C146 C 0.70231 0.14866 0.56588
 C147 C 0.67714 0.14759 0.47483
 C148 C 0.74352 -0.09881 0.50375
 C149 C 0.71532 -0.14681 0.50198
 C150 C 0.63465 -0.09858 0.50978
 C151 C 0.66452 -0.05129 0.51108
 N152 N 0.71799 -0.05217 0.50747
 H153 H 0.69804 0.07714 0.43484
 H154 H 0.74024 0.07859 0.59484
 H155 H 0.70411 0.16719 0.60344
 H156 H 0.66013 0.16593 0.44003
 H157 H 0.78613 -0.09852 0.50113
 H158 H 0.73673 -0.18312 0.49781
 H159 H 0.59226 -0.09670 0.51345
 H160 H 0.64495 -0.01390 0.51445
 C161 C 0.84817 0.02769 0.34373
 C162 C 0.86670 0.01278 0.65656
 C163 C 0.65999 -0.14727 0.50405
 C164 C 0.68053 0.17486 0.52202
 C165 C 0.57163 0.17674 0.95259
 H166 H 0.53943 0.17390 0.92490
 C167 C 0.61757 0.14815 0.94485
 H168 H 0.61930 0.12248 0.91190
 C169 C 0.60806 0.21466 1.02842
 H170 H 0.60545 0.24224 1.05962
 C171 C 0.65450 0.18740 1.02207
 H172 H 0.68618 0.19401 1.04977
 N173 N 0.56739 0.20845 0.99444
 C174 C 0.39806 0.23494 1.00858
 H175 H 0.39878 0.27732 1.01390
 C176 C 0.34985 0.20717 1.00673
 H177 H 0.31400 0.22924 1.01084
 C178 C 0.44459 0.15617 0.99623
 H179 H 0.48152 0.13606 0.99320
 C180 C 0.39738 0.12681 0.99374
 H181 H 0.40033 0.08457 0.98962
 Zn182 Zn 0.50747 0.25113 1.00223
 N183 N 0.44415 0.20940 1.00240
 C184 C 0.46963 0.29357 0.90586
 N185 N 0.50870 0.29778 0.94213
 C186 C 0.55352 0.32674 0.93140
 C187 C 0.56098 0.35158 0.88208
 C188 C 0.47526 0.31794 0.85643
 C189 C 0.51603 0.25343 1.11145
 C190 C 0.52202 0.27452 1.16113
 C191 C 0.51456 0.36215 1.12177
 C192 C 0.51055 0.33940 1.07238
 N193 N 0.51171 0.28582 1.06808
 H194 H 0.43516 0.26883 0.91389
 H195 H 0.58476 0.32825 0.96023
 H196 H 0.59719 0.37385 0.87446
 H197 H 0.44401 0.31252 0.82799
 H198 H 0.51626 0.21092 1.10725
 H199 H 0.52606 0.24802 1.19497
 H200 H 0.51313 0.40480 1.12469
 H201 H 0.50645 0.36446 1.03758
 C202 C 0.34850 0.15216 0.99820
 C203 C 0.66011 0.15352 0.97983
 C204 C 0.52156 0.32955 1.16681
 C205 C 0.52198 0.34633 0.84326
 C206 C 0.43372 0.83343 0.95694
 H207 H 0.46875 0.84708 0.93613
 C208 C 0.38704 0.86164 0.95125
 H209 H 0.38813 0.89766 0.92730
 C210 C 0.39111 0.76943 1.01250
 H211 H 0.39194 0.73191 1.03401
 C212 C 0.34423 0.79727 1.00963
 H213 H 0.31014 0.78081 1.03037
 N214 N 0.43524 0.78869 0.98786
 C215 C 0.60388 0.76920 0.97198
 H216 H 0.60275 0.72879 0.95922
 C217 C 0.65187 0.79685 0.97456
 H218 H 0.68756 0.77760 0.96294
 C219 C 0.55878 0.84224 1.00504
 H220 H 0.52267 0.85884 1.01885
 C221 C 0.60590 0.87157 1.00787
 H222 H 0.60535 0.91078 1.02370
 Zn223 Zn 0.49796 0.74846 0.99058
 N224 N 0.55863 0.79223 0.98684
 C225 C 0.48958 0.65095 0.93604
 N226 N 0.49609 0.70453 0.93206
 C227 C 0.49964 0.73012 0.88472
 C228 C 0.49665 0.70183 0.83885
 C229 C 0.48691 0.62086 0.89105
 C230 C 0.47965 0.72627 1.09749
 C231 C 0.48586 0.69992 1.14554
 C232 C 0.54792 0.64210 1.10591
 C233 C 0.54000 0.66943 1.05827
 N234 N 0.50477 0.70934 1.05447
 H235 H 0.48573 0.63138 0.97402
 H236 H 0.50459 0.77281 0.88268
 H237 H 0.49920 0.72371 0.80182
 H238 H 0.48256 0.57839 0.89590
 H239 H 0.45580 0.76117 1.09504
 H240 H 0.46470 0.71381 1.17900
 H241 H 0.57494 0.60952 1.10765
 H242 H 0.56239 0.65905 1.02436
 C243 C 0.65327 0.84881 0.99248
 C244 C 0.34107 0.84394 0.97810
 C245 C 0.52015 0.65706 1.15027
 C246 C 0.49000 0.64623 0.84127
 B247 B 1.00020 1.05174 0.03941
 B248 B 1.03586 0.99820 0.06000
 B249 B 0.96817 0.99505 0.06030
 B250 B 0.94627 1.02871 0.00633
 B251 B 0.99943 1.05371 -0.02718
 B252 B 1.05516 1.03538 0.00650
 B253 B 1.00409 0.94452 -0.02691
 B254 B 0.96830 0.99716 -0.04761
 B255 B 1.03551 1.00221 -0.04733
 B256 B 1.05753 0.96748 0.00661
 B257 B 1.00354 0.94275 0.03985
 B258 B 0.94866 0.96117 0.00677
 B259 B 0.55017 0.50449 0.46365
 B260 B 0.49664 0.54019 0.44312
 B261 B 0.49392 0.47313 0.44268
 B262 B 0.52735 0.44927 0.49703
 B263 B 0.55089 0.50202 0.53091
 B264 B 0.53325 0.55858 0.49742
 B265 B 0.44166 0.50540 0.53106
 B266 B 0.49486 0.46977 0.55186
 B267 B 0.49779 0.53738 0.55136
 B268 B 0.46545 0.56109 0.49784
 B269 B 0.44065 0.50712 0.46520
 B270 B 0.46060 0.45056 0.49757
 C271 C 1.00220 1.20381 0.11452
 C272 C 0.97071 1.19536 0.07062
 N273 N 0.94129 1.23557 0.05061
 C274 C 0.94236 1.28400 0.07278
 C275 C 0.97618 1.29303 0.11569
 N276 N 1.00498 1.25215 0.13502
 N277 N 1.02981 1.16372 0.13623
 C278 C 1.02814 1.11512 0.11561
 C279 C 0.99839 1.10610 0.06989
 N280 N 0.97048 1.14718 0.04865
 H281 H 0.91898 1.31533 0.05551
 H282 H 1.05190 1.08581 0.13422
 C283 C 1.00239 0.78887 0.12126
 C284 C 1.01685 0.79398 0.06868
 N285 N 1.02813 0.74998 0.04203
 C286 C 1.02529 0.70099 0.06585
 C287 C 1.01013 0.69583 0.11893
 N288 N 0.99938 0.74045 0.14482
 N289 N 0.99092 0.83226 0.14811
 C290 C 0.99216 0.88092 0.12452
 C291 C 1.00500 0.88692 0.07111
 N292 N 1.01811 0.84277 0.04494
 H293 H 1.03538 0.66715 0.04342
 H294 H 0.98244 0.91342 0.14802
 C295 C 0.98692 1.20920 -0.10688
 C296 C 1.03256 1.19558 -0.07945
 N297 N 1.07295 1.23157 -0.07645
 C298 C 1.06957 1.28069 -0.09977
 C299 C 1.02328 1.29474 -0.12744
 N300 N 0.98336 1.25794 -0.12999
 N301 N 0.94682 1.17338 -0.11047
 C302 C 0.95001 1.12449 -0.08739
 C303 C 0.99551 1.10993 -0.05902
 N304 N 1.03562 1.14659 -0.05618
 H305 H 1.10312 1.30755 -0.09708
 H306 H 0.91726 1.09778 -0.09238
 C307 C 1.01068 0.79235 -0.10470
 C308 C 0.96266 0.81187 -0.08773
 N309 N 0.91800 0.78165 -0.09231
 C310 C 0.91938 0.73283 -0.11345
 C311 C 0.96779 0.71312 -0.13044
 N312 N 1.01228 0.74367 -0.12544
 N313 N 1.05501 0.82263 -0.10074
 C314 C 1.05390 0.87096 -0.07913
 C315 C 1.00633 0.89054 -0.05964
 N316 N 0.96176 0.86019 -0.06577
 H317 H 0.88324 0.70946 -0.11638
 H318 H 1.08984 0.89360 -0.07891
 C319 C 1.11962 0.99475 0.20896
 C320 C 1.06535 0.98542 0.20581
 N321 N 1.03677 0.97600 0.24991
 C322 C 1.06027 0.97574 0.29762
 C323 C 1.11508 0.98561 0.30135
 N324 N 1.14324 0.99466 0.25646
 N325 N 1.14785 1.00369 0.16444
 C326 C 1.12382 1.00412 0.11681
 C327 C 1.06881 0.99527 0.11340
 N328 N 1.04180 0.98617 0.15855
 H329 H 1.03619 0.96714 0.33172
 H330 H 1.14786 1.01045 0.08262
 C331 C 1.10659 1.01990 -0.20187
 C332 C 1.07656 0.97484 -0.18732
 N333 N 1.06736 0.93669 -0.22246
 C334 C 1.08690 0.94157 -0.27180
 C335 C 1.11702 0.98724 -0.28713
 N336 N 1.12595 1.02508 -0.25110
 N337 N 1.11575 1.05797 -0.16666
 C338 C 1.09605 1.05302 -0.11741
 C339 C 1.06563 1.00769 -0.10223
 N340 N 1.05656 0.97012 -0.13836
 H341 H 1.07911 0.90950 -0.29774
 H342 H 1.10333 1.08509 -0.09161
 C343 C 0.88377 0.99527 0.21000
 C344 C 0.92241 1.03357 0.19731
 N345 N 0.93605 1.07025 0.23283
 C346 C 0.91272 1.07026 0.28073
 C347 C 0.87374 1.03116 0.29432
 N348 N 0.86079 0.99479 0.25775
 N349 N 0.87058 0.95823 0.17489
 C350 C 0.89469 0.95738 0.12760
 C351 C 0.93484 0.99508 0.11441
 N352 N 0.94681 1.03256 0.15021
 H353 H 0.92591 1.09993 0.30750
 H354 H 0.88452 0.92520 0.10318
 C355 C 0.89631 0.98706 -0.20270
 C356 C 0.93626 1.02426 -0.19261
 N357 N 0.95430 1.05699 -0.23196
 C358 C 0.93371 1.05436 -0.28104
 C359 C 0.89281 1.01712 -0.29139
 N360 N 0.87564 0.98441 -0.25137
 N361 N 0.87911 0.95355 -0.16386
 C362 C 0.89964 0.95587 -0.11496
 C363 C 0.93912 0.99415 -0.10359
 N364 N 0.95677 1.02667 -0.14372
 H365 H 0.94970 1.08096 -0.31106
 H366 H 0.88590 0.92651 -0.08693
 C367 C 1.20622 1.12422 0.00753
 C368 C 1.20232 1.07211 -0.00848
 N369 N 1.24636 1.04689 -0.02283
 C370 C 1.29458 1.07135 -0.02138
 C371 C 1.29936 1.12431 -0.00479
 N372 N 1.25417 1.14913 0.00870
 N373 N 1.16197 1.14906 0.02206
 C374 C 1.11407 1.12365 0.02205
 C375 C 1.10961 1.07042 0.00673
 N376 N 1.15458 1.04707 -0.00875
 H377 H 1.32785 1.04937 -0.03433
 H378 H 1.08051 1.14617 0.03220
 C379 C 0.79254 1.10348 0.01317
 C380 C 0.80819 1.07879 -0.03214
 N381 N 0.77471 1.07752 -0.07372
 C382 C 0.72636 1.10021 -0.07183
 C383 C 0.71074 1.12542 -0.02593
 N384 N 0.74482 1.12582 0.01511
 N385 N 0.82537 1.10551 0.05462
 C386 C 0.87352 1.08368 0.05319
 C387 C 0.89051 1.05845 0.00794
 N388 N 0.85657 1.05655 -0.03364
 H389 H 0.70146 1.09917 -0.10613
 H390 H 0.89761 1.08707 0.08739
 C391 C 1.20858 0.88586 0.01142
 C392 C 1.19670 0.92132 -0.02966
 N393 N 1.23300 0.93146 -0.06780
 C394 C 1.28087 0.90788 -0.06647
 C395 C 1.29283 0.87111 -0.02543
 N396 N 1.25555 0.86131 0.01217
 N397 N 1.17361 0.87739 0.05078
 C398 C 1.12681 0.90242 0.05079
 C399 C 1.11314 0.93704 0.00869
 N400 N 1.14928 0.94550 -0.03040
 H401 H 1.30791 0.91652 -0.09834
 H402 H 1.10201 0.89623 0.08457
 C403 C 0.79702 0.87493 0.00752
 C404 C 0.80050 0.92990 0.00052
 N405 N 0.75618 0.95801 -0.00806
 C406 C 0.70814 0.93334 -0.01021
 C407 C 0.70433 0.87779 -0.00372
 N408 N 0.74922 0.85005 0.00505
 N409 N 0.84157 0.84726 0.01628
 C410 C 0.88966 0.87214 0.01743
 C411 C 0.89393 0.92751 0.00824
 N412 N 0.84841 0.95432 0.00114
 H413 H 0.67372 0.95690 -0.01820
 H414 H 0.92339 0.84828 0.02491
 C415 C 0.70446 0.50863 0.38872
 C416 C 0.68302 0.46077 0.40893
 N417 N 0.71238 0.41641 0.40800
 C418 C 0.76210 0.41791 0.38755
 C419 C 0.78367 0.46625 0.36694
 N420 N 0.75362 0.51012 0.36837
 N421 N 0.67606 0.55317 0.38977
 C422 C 0.62720 0.55243 0.41088
 C423 C 0.60491 0.50482 0.43212
 N424 N 0.63374 0.45983 0.43010
 H425 H 0.78368 0.38155 0.38677
 H426 H 0.60656 0.58925 0.41099
 C427 C 0.27880 0.50731 0.40247
 C428 C 0.31085 0.46360 0.39609
 N429 N 0.29106 0.42077 0.37100
 C430 C 0.24081 0.42037 0.35163
 C431 C 0.20938 0.46521 0.35703
 N432 N 0.22946 0.50737 0.38256
 N433 N 0.29712 0.54913 0.42891
 C434 C 0.34665 0.55018 0.44839
 C435 C 0.38150 0.50825 0.43956
 N436 N 0.36118 0.46499 0.41489
 H437 H 0.22626 0.38635 0.33080
 H438 H 0.35691 0.58350 0.47090
 C439 C 0.70206 0.49506 0.61565
 C440 C 0.69861 0.48079 0.56354
 N441 N 0.74343 0.46824 0.53804
 C442 C 0.79152 0.46972 0.56230
 C443 C 0.79528 0.48326 0.61570
 N444 N 0.74940 0.49499 0.64032
 N445 N 0.65833 0.51073 0.64053
 C446 C 0.61105 0.51297 0.61568
 C447 C 0.60606 0.49734 0.56336
 N448 N 0.65084 0.48154 0.53886
 H449 H 0.82548 0.45866 0.54006
 H450 H 0.57820 0.52591 0.63770
 C451 C 0.28350 0.50130 0.60201
 C452 C 0.32093 0.53916 0.61796
 N453 N 0.30649 0.57453 0.65416
 C454 C 0.25653 0.57351 0.67455
 C455 C 0.21909 0.53507 0.65814
 N456 N 0.23437 0.50009 0.62232
 N457 N 0.29616 0.46653 0.56566
 C458 C 0.34459 0.46736 0.54411
 C459 C 0.38381 0.50480 0.55925
 N460 N 0.37051 0.54006 0.59651
 H461 H 0.24659 0.60184 0.70362
 H462 H 0.35070 0.43938 0.51446
 C463 C 0.48620 0.60861 0.28378
 C464 C 0.53235 0.58443 0.30114
 N465 N 0.57397 0.58192 0.26797
 C466 C 0.57146 0.60344 0.21846
 C467 C 0.52521 0.62905 0.20162
 N468 N 0.48379 0.63029 0.23504
 N469 N 0.44444 0.61081 0.31604
 C470 C 0.44687 0.59057 0.36545
 C471 C 0.49408 0.56868 0.38529
 N472 N 0.53495 0.56467 0.35110
 H473 H 0.60567 0.60184 0.19342
 H474 H 0.41251 0.59379 0.38903
 C475 C 0.49662 0.61956 0.69922
 C476 C 0.48272 0.56585 0.69725
 N477 N 0.47097 0.53832 0.74230
 C478 C 0.47268 0.56222 0.78935
 C479 C 0.48700 0.61660 0.79160
 N480 N 0.49833 0.64342 0.74584
 N481 N 0.50827 0.64726 0.65449
 C482 C 0.50789 0.62338 0.60773
 C483 C 0.49569 0.56879 0.60509
 N484 N 0.48227 0.54191 0.65043
 H485 H 0.46249 0.53865 0.82392
 H486 H 0.51585 0.64770 0.57360
 C487 C 0.49169 0.40884 0.28309
 C488 C 0.53098 0.39385 0.31882
 N489 N 0.56709 0.35805 0.30423
 C490 C 0.56526 0.33672 0.25575
 C491 C 0.52606 0.35252 0.21961
 N492 N 0.49042 0.38857 0.23450
 N493 N 0.45510 0.44343 0.29747
 C494 C 0.45483 0.46283 0.34621
 C495 C 0.49292 0.44747 0.38397
 N496 N 0.53152 0.41448 0.36772
 H497 H 0.59428 0.30805 0.24532
 H498 H 0.42651 0.49230 0.35323
 C499 C 0.48689 0.39659 0.70995
 C500 C 0.53582 0.40786 0.68661
 N501 N 0.58047 0.39972 0.71508
 C502 C 0.57807 0.38078 0.76569
 C503 C 0.52850 0.36923 0.78909
 N504 N 0.48443 0.37752 0.75988
 N505 N 0.44225 0.40448 0.68240
 C506 C 0.44390 0.42463 0.63287
 C507 C 0.49265 0.43794 0.60847
 N508 N 0.53763 0.42800 0.63644
 H509 H 0.61447 0.37398 0.78672
 H510 H 0.40709 0.42742 0.61283
 C511 C 0.62778 0.70740 0.50689
 C512 C 0.57595 0.70647 0.48897
 N513 N 0.55176 0.75252 0.47645
 C514 C 0.57732 0.79998 0.48122
 C515 C 0.62986 0.80165 0.49949
 N516 N 0.65380 0.75475 0.51152
 N517 N 0.65125 0.66080 0.51910
 C518 C 0.62453 0.61353 0.51535
 C519 C 0.57108 0.61214 0.49906
 N520 N 0.54990 0.65943 0.48542
 H521 H 0.55681 0.83562 0.46987
 H522 H 0.64613 0.57836 0.52310
 C523 C 0.59845 0.29221 0.49362
 C524 C 0.61850 0.33016 0.52770
 N525 N 0.65918 0.31690 0.55996
 C526 C 0.68024 0.26751 0.55959
 C527 C 0.65985 0.22944 0.52504
 N528 N 0.61948 0.24346 0.49294
 N529 N 0.55743 0.30402 0.46224
 C530 C 0.53548 0.35222 0.46267
 C531 C 0.55535 0.39193 0.49573
 N532 N 0.59657 0.37921 0.52811
 H533 H 0.71290 0.25856 0.58546
 H534 H 0.50134 0.35770 0.43840
 C535 C 0.39754 0.72008 0.50122
 C536 C 0.38722 0.68349 0.54221
 N537 N 0.35693 0.69862 0.58277
 C538 C 0.33704 0.74862 0.58376
 C539 C 0.34825 0.78556 0.54219
 N540 N 0.37828 0.76929 0.50232
 N541 N 0.42770 0.70669 0.46099
 C542 C 0.44820 0.65812 0.45923
 C543 C 0.43904 0.61967 0.49965
 N544 N 0.40809 0.63395 0.54066
 H545 H 0.31274 0.75870 0.61641
 H546 H 0.47577 0.65294 0.42857
 C547 C 0.39335 0.28886 0.50343
 C548 C 0.38244 0.32271 0.46095
 N549 N 0.35235 0.30413 0.42116
 C550 C 0.33245 0.25337 0.42287
 C551 C 0.34329 0.21948 0.46654
 N552 N 0.37390 0.23869 0.50541
 N553 N 0.42455 0.30768 0.54441
 C554 C 0.44491 0.35892 0.54346
 C555 C 0.43212 0.39246 0.50037
 N556 N 0.40232 0.37335 0.46010
 H557 H 0.30896 0.23984 0.39037
 H558 H 0.44059 0.32103 0.56351
   
