data_POSCAR
  _audit_creation_date              2014-09-24
  _audit_creation_method            'ToBaCCo'
  _symmetry_space_group_name_H-M    'P1'
  _symmetry_Int_Tables_number       1
  _symmetry_cell_setting            triclinic
  loop_
  _symmetry_equiv_pos_as_xyz
 x,y,z
_cell_length_a 53.3446
_cell_length_b 53.4307
_cell_length_c 30.5943
_cell_angle_alpha 89.986900
_cell_angle_beta 90.112300
_cell_angle_gamma 119.984700
loop_
  _atom_site_label
  _atom_site_type_symbol
  _atom_site_fract_x
  _atom_site_fract_y
  _atom_site_fract_z
C1 C 0.45527 0.90909 0.47861
 C2 C 0.45404 0.90907 0.52336
 C3 C 0.46902 0.93778 0.53656
 N4 N 0.47923 0.95518 0.50123
 C5 C 0.47087 0.93779 0.46574
 C6 C 0.47393 0.94720 0.58060
 C7 C 0.48987 0.97653 0.59404
 C8 C 0.49872 0.98537 0.63676
 C9 C 0.51341 1.01501 0.63676
 C10 C 0.51328 1.02375 0.59403
 N11 N 0.49850 1.00010 0.56832
 C12 C 0.52640 1.05304 0.58059
 C13 C 0.53072 1.06240 0.53655
 C14 C 0.54414 1.09109 0.52335
 C15 C 0.54526 1.09103 0.47860
 C16 C 0.53242 1.06234 0.46573
 N17 N 0.52363 1.04498 0.50122
 C18 C 0.52860 1.05290 0.42178
 C19 C 0.51421 1.02363 0.40810
 C20 C 0.50761 1.01481 0.36488
 C21 C 0.49298 0.98516 0.36488
 C22 C 0.49093 0.97644 0.40811
 N23 N 0.50441 1.00007 0.43412
 C24 C 0.47642 0.94718 0.42180
 H25 H 0.44562 0.89010 0.45793
 H26 H 0.44352 0.89005 0.54386
 H27 H 0.50816 1.00012 0.46728
 H28 H 0.49517 0.97186 0.66509
 H29 H 0.52330 1.02859 0.66508
 H30 H 0.55250 1.11011 0.54385
 H31 H 0.55438 1.10999 0.45792
 H32 H 0.48440 0.97158 0.33622
 H33 H 0.49246 1.00004 0.53610
 H34 H 0.51239 1.02832 0.33621
 C35 C 0.09090 0.54470 0.47701
 C36 C 0.09104 0.54594 0.52176
 C37 C 0.06229 0.53176 0.53494
 N38 N 0.04476 0.52201 0.49958
 C39 C 0.06211 0.52987 0.46412
 C40 C 0.05295 0.52735 0.57899
 C41 C 0.02359 0.51201 0.59253
 C42 C 0.01476 0.50412 0.63549
 C43 C -0.01493 0.48943 0.63540
 C44 C -0.02369 0.48860 0.59243
 N45 N -0.00005 0.50283 0.56662
 C46 C -0.05301 0.47482 0.57883
 C47 C -0.06252 0.46979 0.53489
 C48 C -0.09132 0.45525 0.52199
 C49 C -0.09146 0.45387 0.47725
 C50 C -0.06272 0.46772 0.46408
 N51 N -0.04517 0.47737 0.49944
 C52 C -0.05338 0.47186 0.42003
 C53 C -0.02402 0.48709 0.40645
 C54 C -0.01521 0.49469 0.36341
 C55 C 0.01448 0.50951 0.36350
 C56 C 0.02326 0.51069 0.40655
 N57 N -0.00036 0.49654 0.43240
 C58 C 0.05260 0.52477 0.42017
 H59 H 0.10989 0.55385 0.45634
 H60 H 0.11015 0.55600 0.54227
 H61 H -0.00032 0.49180 0.46518
 H62 H 0.02831 0.50823 0.66402
 H63 H -0.02851 0.48009 0.66384
 H64 H -0.11030 0.44634 0.54265
 H65 H -0.11057 0.44396 0.45674
 H66 H 0.02805 0.51871 0.33501
 H67 H -0.00008 0.50789 0.53397
 H68 H -0.02877 0.49035 0.33483
 C69 C 0.53537 0.44600 0.47895
 C70 C 0.53540 0.44600 0.52381
 C71 C 0.52703 0.46564 0.53682
 N72 N 0.52212 0.47771 0.50140
 C73 C 0.52698 0.46560 0.46601
 C74 C 0.52592 0.47351 0.58057
 C75 C 0.51532 0.49201 0.59315
 C76 C 0.51887 0.50430 0.63433
 C77 C 0.50405 0.51920 0.63424
 C78 C 0.49177 0.51567 0.59301
 N79 N 0.49863 0.49894 0.56831
 C80 C 0.47333 0.52635 0.58025
 C81 C 0.46543 0.52742 0.53645
 C82 C 0.44579 0.53580 0.52330
 C83 C 0.44573 0.53567 0.47844
 C84 C 0.46532 0.52722 0.46564
 N85 N 0.47746 0.52242 0.50112
 C86 C 0.47300 0.52587 0.42195
 C87 C 0.49133 0.51513 0.40932
 C88 C 0.50324 0.51831 0.36800
 C89 C 0.51815 0.50348 0.36810
 C90 C 0.51496 0.49161 0.40947
 N91 N 0.49842 0.49866 0.43425
 C92 C 0.52574 0.47334 0.42229
 H93 H 0.54119 0.43327 0.45825
 H94 H 0.54126 0.43328 0.54449
 H95 H 0.48969 0.48997 0.46453
 H96 H 0.53069 0.50247 0.66178
 H97 H 0.50226 0.53105 0.66161
 H98 H 0.43309 0.54172 0.54389
 H99 H 0.43298 0.54146 0.45765
 H100 H 0.52979 0.50144 0.34065
 H101 H 0.48966 0.48998 0.53820
 H102 H 0.50119 0.52989 0.34047
 O103 O 0.37593 0.66804 -0.05099
 O104 O 0.37731 0.71693 -0.03769
 C105 C 0.35924 0.72108 -0.05893
 O106 O 0.33241 0.70815 -0.05085
 O107 O 0.28344 0.66062 -0.03801
 C108 C 0.27935 0.63852 -0.05942
 O109 O 0.29231 0.62466 -0.05133
 O110 O 0.33987 0.62321 -0.03809
 C111 C 0.36206 0.64127 -0.05925
 O112 O 0.37708 0.66012 0.03603
 O113 O 0.37606 0.70780 0.04931
 C114 C 0.36234 0.72087 0.05753
 O115 O 0.34021 0.71697 0.03622
 O116 O 0.29246 0.66823 0.04907
 C117 C 0.27934 0.64143 0.05707
 O118 O 0.28327 0.62332 0.03567
 O119 O 0.33206 0.62433 0.04891
 C120 C 0.35889 0.63802 0.05721
 Cr121 Cr 0.37497 0.68742 -0.00084
 Cr122 Cr 0.31294 0.68768 -0.00090
 Cr123 Cr 0.31270 0.62550 -0.00120
 O124 O 0.33354 0.66687 -0.00098
 O125 O 0.62356 0.33212 -0.04990
 O126 O 0.62231 0.28325 -0.03712
 C127 C 0.64039 0.27926 -0.05852
 O128 O 0.66724 0.29227 -0.05040
 O129 O 0.71615 0.33981 -0.03706
 C130 C 0.72019 0.36202 -0.05809
 O131 O 0.70718 0.37579 -0.04971
 O132 O 0.65951 0.37697 -0.03647
 C133 C 0.63737 0.35893 -0.05788
 O134 O 0.62241 0.33972 0.03717
 O135 O 0.62365 0.29210 0.04996
 C136 C 0.63746 0.27906 0.05798
 O137 O 0.65955 0.28307 0.03660
 O138 O 0.70725 0.33181 0.04993
 C139 C 0.72028 0.35857 0.05836
 O140 O 0.71624 0.37674 0.03731
 O141 O 0.66737 0.37552 0.05054
 C142 C 0.64054 0.36175 0.05862
 Cr143 Cr 0.62461 0.31260 0.00003
 Cr144 Cr 0.68674 0.31255 -0.00022
 Cr145 Cr 0.68676 0.37463 0.00040
 O146 O 0.66604 0.33327 0.00007
 C147 C 0.46356 0.92643 -0.38740
 C148 C 0.45446 0.90829 -0.35913
 C149 C 0.44365 0.88679 -0.32522
 C150 C 0.42780 0.85743 -0.33598
 C151 C 0.41720 0.83655 -0.30296
 C152 C 0.42231 0.84481 -0.25870
 C153 C 0.43831 0.87440 -0.24827
 C154 C 0.44891 0.89523 -0.28133
 C155 C 0.41096 0.82269 -0.22356
 C156 C 0.39915 0.82717 -0.18527
 C157 C 0.38857 0.80641 -0.15212
 C158 C 0.38965 0.78091 -0.15674
 C159 C 0.40131 0.77621 -0.19472
 C160 C 0.41188 0.79694 -0.22794
 C161 C 0.37890 0.75966 -0.12242
 C162 C 0.36991 0.74198 -0.09351
 H163 H 0.42355 0.85068 -0.36987
 H164 H 0.40466 0.81398 -0.31203
 H165 H 0.44294 0.88144 -0.21455
 H166 H 0.46123 0.91791 -0.27266
 H167 H 0.39776 0.84657 -0.18118
 H168 H 0.37952 0.81022 -0.12290
 H169 H 0.40232 0.75658 -0.19857
 H170 H 0.42116 0.79302 -0.25677
 C171 C 0.07383 0.53765 -0.38903
 C172 C 0.09205 0.54664 -0.36075
 C173 C 0.11360 0.55728 -0.32676
 C174 C 0.10518 0.55153 -0.28295
 C175 C 0.12605 0.56188 -0.24982
 C176 C 0.15568 0.57812 -0.26010
 C177 C 0.16393 0.58373 -0.30429
 C178 C 0.14300 0.57338 -0.33738
 C179 C 0.17785 0.58913 -0.22487
 C180 C 0.20370 0.58838 -0.22967
 C181 C 0.22444 0.59856 -0.19631
 C182 C 0.21964 0.60964 -0.15778
 C183 C 0.19405 0.61057 -0.15275
 C184 C 0.17329 0.60039 -0.18604
 C185 C 0.24085 0.61990 -0.12328
 C186 C 0.25850 0.62843 -0.09421
 H187 H 0.08248 0.53900 -0.27440
 H188 H 0.11904 0.55685 -0.21618
 H189 H 0.18653 0.59647 -0.31323
 H190 H 0.14974 0.57800 -0.37121
 H191 H 0.20769 0.57952 -0.25893
 H192 H 0.24413 0.59766 -0.20049
 H193 H 0.19016 0.61918 -0.12311
 H194 H 0.15380 0.60163 -0.18160
 C195 C 0.46316 0.53697 -0.38782
 C196 C 0.45426 0.54624 -0.35959
 C197 C 0.44370 0.55722 -0.32569
 C198 C 0.45226 0.55764 -0.28232
 C199 C 0.44195 0.56816 -0.24926
 C200 C 0.42292 0.57844 -0.25919
 C201 C 0.41449 0.57798 -0.30294
 C202 C 0.42482 0.56742 -0.33595
 C203 C 0.41189 0.58955 -0.22404
 C204 C 0.40948 0.61432 -0.23084
 C205 C 0.39925 0.62482 -0.19760
 C206 C 0.39126 0.61071 -0.15720
 C207 C 0.39351 0.58603 -0.15015
 C208 C 0.40375 0.57550 -0.18331
 C209 C 0.38090 0.62160 -0.12287
 C210 C 0.37227 0.63063 -0.09392
 H211 H 0.46695 0.54986 -0.27406
 H212 H 0.44915 0.56860 -0.21601
 H213 H 0.39959 0.58541 -0.31155
 H214 H 0.41800 0.56711 -0.36943
 H215 H 0.41591 0.62581 -0.26163
 H216 H 0.39768 0.64400 -0.20336
 H217 H 0.38731 0.57489 -0.11903
 H218 H 0.40498 0.55617 -0.17727
 C219 C 0.53674 0.07385 -0.38742
 C220 C 0.54579 0.09203 -0.35917
 C221 C 0.55652 0.11358 -0.32527
 C222 C 0.55434 0.10526 -0.28145
 C223 C 0.56473 0.12614 -0.24841
 C224 C 0.57748 0.15567 -0.25880
 C225 C 0.57959 0.16381 -0.30299
 C226 C 0.56916 0.14288 -0.33599
 C227 C 0.58854 0.17785 -0.22368
 C228 C 0.61481 0.20395 -0.22890
 C229 C 0.62531 0.22468 -0.19562
 C230 C 0.60971 0.21964 -0.15676
 C231 C 0.58351 0.19382 -0.15133
 C232 C 0.57298 0.17305 -0.18452
 C233 C 0.62062 0.24085 -0.12233
 C234 C 0.62969 0.25846 -0.09329
 H235 H 0.54467 0.08264 -0.27282
 H236 H 0.56315 0.11921 -0.21477
 H237 H 0.58896 0.18632 -0.31201
 H238 H 0.57089 0.14953 -0.36982
 H239 H 0.62746 0.20813 -0.25841
 H240 H 0.64566 0.24457 -0.20011
 H241 H 0.57122 0.18973 -0.12142
 H242 H 0.55251 0.15337 -0.17976
 C243 C 0.92502 0.46388 -0.38736
 C244 C 0.90690 0.45487 -0.35907
 C245 C 0.88544 0.44421 -0.32509
 C246 C 0.85598 0.42912 -0.33577
 C247 C 0.83514 0.41880 -0.30269
 C248 C 0.84354 0.42348 -0.25844
 C249 C 0.87323 0.43867 -0.24808
 C250 C 0.89401 0.44895 -0.28121
 C251 C 0.82146 0.41257 -0.22323
 C252 C 0.82515 0.42953 -0.18597
 C253 C 0.80446 0.41920 -0.15271
 C254 C 0.77981 0.39181 -0.15620
 C255 C 0.77589 0.37479 -0.19316
 C256 C 0.79655 0.38509 -0.22649
 C257 C 0.75864 0.38117 -0.12177
 C258 C 0.74102 0.37237 -0.09277
 H259 H 0.84912 0.42541 -0.36966
 H260 H 0.81247 0.40750 -0.31172
 H261 H 0.88038 0.44228 -0.21436
 H262 H 0.91677 0.46053 -0.27260
 H263 H 0.84388 0.45092 -0.18277
 H264 H 0.80766 0.43259 -0.12430
 H265 H 0.75692 0.35352 -0.19613
 H266 H 0.79326 0.37138 -0.25449
 C267 C 0.53641 0.46325 -0.38737
 C268 C 0.54555 0.45423 -0.35904
 C269 C 0.55634 0.44350 -0.32505
 C270 C 0.55757 0.45269 -0.28188
 C271 C 0.56781 0.44212 -0.24871
 C272 C 0.57699 0.42219 -0.25831
 C273 C 0.57575 0.41316 -0.30187
 C274 C 0.56547 0.42375 -0.33499
 C275 C 0.58769 0.41081 -0.22301
 C276 C 0.61174 0.40716 -0.22995
 C277 C 0.62183 0.39655 -0.19660
 C278 C 0.60803 0.38942 -0.15593
 C279 C 0.58406 0.39291 -0.14873
 C280 C 0.57394 0.40354 -0.18201
 C281 C 0.61847 0.37862 -0.12151
 C282 C 0.62714 0.36961 -0.09253
 H283 H 0.55062 0.46804 -0.27387
 H284 H 0.56887 0.44979 -0.21563
 H285 H 0.58231 0.39758 -0.31022
 H286 H 0.56452 0.41644 -0.36831
 H287 H 0.62300 0.41289 -0.26095
 H288 H 0.64046 0.39400 -0.20247
 H289 H 0.57315 0.38738 -0.11741
 H290 H 0.55514 0.40572 -0.17585
 C291 C 0.92573 0.46141 0.38806
 C292 C 0.90751 0.45227 0.35979
 C293 C 0.88594 0.44143 0.32582
 C294 C 0.85686 0.43130 0.33598
 C295 C 0.83593 0.42078 0.30290
 C296 C 0.84384 0.42024 0.25920
 C297 C 0.87315 0.43049 0.24936
 C298 C 0.89404 0.44102 0.28248
 C299 C 0.82166 0.40907 0.22399
 C300 C 0.82282 0.39179 0.19023
 C301 C 0.80208 0.38147 0.15690
 C302 C 0.77992 0.38826 0.15682
 C303 C 0.77851 0.40535 0.19029
 C304 C 0.79922 0.41569 0.22369
 C305 C 0.75875 0.37779 0.12225
 C306 C 0.74113 0.36902 0.09314
 H307 H 0.85037 0.43146 0.36946
 H308 H 0.81351 0.41272 0.31158
 H309 H 0.87998 0.43073 0.21599
 H310 H 0.91651 0.44890 0.27426
 H311 H 0.83958 0.38599 0.18985
 H312 H 0.80333 0.36818 0.13120
 H313 H 0.76149 0.41081 0.19048
 H314 H 0.79795 0.42922 0.24891
 C315 C 0.53915 0.07486 0.38799
 C316 C 0.54782 0.09296 0.35968
 C317 C 0.55805 0.11436 0.32562
 C318 C 0.57193 0.14377 0.33620
 C319 C 0.58184 0.16454 0.30304
 C320 C 0.57796 0.15613 0.25882
 C321 C 0.56398 0.12649 0.24857
 C322 C 0.55411 0.10577 0.28177
 C323 C 0.58845 0.17813 0.22352
 C324 C 0.57169 0.17365 0.18565
 C325 C 0.58165 0.19427 0.15229
 C326 C 0.60846 0.21961 0.15628
 C327 C 0.62527 0.22431 0.19384
 C328 C 0.61535 0.20373 0.22727
 C329 C 0.61876 0.24069 0.12174
 C330 C 0.62732 0.25826 0.09267
 H331 H 0.57501 0.15063 0.37006
 H332 H 0.59219 0.18715 0.31197
 H333 H 0.56102 0.11934 0.21488
 H334 H 0.54346 0.08306 0.27325
 H335 H 0.55073 0.15436 0.18205
 H336 H 0.56843 0.19045 0.12340
 H337 H 0.64611 0.24382 0.19720
 H338 H 0.62891 0.20764 0.25575
 C339 C 0.53691 0.46255 0.38854
 C340 C 0.54613 0.45364 0.36026
 C341 C 0.55704 0.44309 0.32625
 C342 C 0.55717 0.45149 0.28290
 C343 C 0.56762 0.44118 0.24972
 C344 C 0.57810 0.42232 0.25950
 C345 C 0.57794 0.41406 0.30324
 C346 C 0.56745 0.42438 0.33637
 C347 C 0.58911 0.41129 0.22421
 C348 C 0.61404 0.40905 0.23074
 C349 C 0.62447 0.39887 0.19733
 C350 C 0.61012 0.39075 0.15703
 C351 C 0.58527 0.39281 0.15027
 C352 C 0.57481 0.40300 0.18359
 C353 C 0.62095 0.38046 0.12252
 C354 C 0.62994 0.37189 0.09343
 H355 H 0.54923 0.46603 0.27474
 H356 H 0.56783 0.44825 0.21648
 H357 H 0.58554 0.39930 0.31174
 H358 H 0.56737 0.41770 0.36984
 H359 H 0.62572 0.41559 0.26143
 H360 H 0.64379 0.39744 0.20287
 H361 H 0.57395 0.38650 0.11924
 H362 H 0.55535 0.40409 0.17776
 C363 C 0.07457 0.53597 0.38638
 C364 C 0.09269 0.54526 0.35809
 C365 C 0.11415 0.55630 0.32411
 C366 C 0.10558 0.55297 0.28026
 C367 C 0.12637 0.56376 0.24714
 C368 C 0.15606 0.57804 0.25749
 C369 C 0.16445 0.58123 0.30171
 C370 C 0.14361 0.57043 0.33478
 C371 C 0.17814 0.58955 0.22229
 C372 C 0.20304 0.58688 0.22505
 C373 C 0.22369 0.59755 0.19171
 C374 C 0.21977 0.61106 0.15525
 C375 C 0.19514 0.61391 0.15226
 C376 C 0.17445 0.60324 0.18553
 C377 C 0.24091 0.62184 0.12078
 C378 C 0.25851 0.63082 0.09176
 H379 H 0.08282 0.54199 0.27166
 H380 H 0.11921 0.56061 0.21343
 H381 H 0.18712 0.59242 0.31074
 H382 H 0.15047 0.57319 0.36865
 H383 H 0.20632 0.57614 0.25264
 H384 H 0.24264 0.59515 0.19429
 H385 H 0.19193 0.62440 0.12423
 H386 H 0.15573 0.60598 0.18272
 C387 C 0.46529 0.92517 0.38800
 C388 C 0.45610 0.90704 0.35969
 C389 C 0.44520 0.88560 0.32562
 C390 C 0.44783 0.89413 0.28184
 C391 C 0.43725 0.87337 0.24863
 C392 C 0.42388 0.84376 0.25880
 C393 C 0.42137 0.83542 0.30294
 C394 C 0.43196 0.85623 0.33611
 C395 C 0.41265 0.82172 0.22349
 C396 C 0.41636 0.79745 0.22572
 C397 C 0.40599 0.77685 0.19226
 C398 C 0.39176 0.78020 0.15618
 C399 C 0.38787 0.80419 0.15373
 C400 C 0.39823 0.82482 0.18712
 C401 C 0.38131 0.75914 0.12155
 C402 C 0.37262 0.74161 0.09239
 H403 H 0.45813 0.91682 0.27337
 H404 H 0.43987 0.88050 0.21497
 H405 H 0.41087 0.81280 0.31184
 H406 H 0.42974 0.84941 0.36992
 H407 H 0.42768 0.79464 0.25300
 H408 H 0.40920 0.75840 0.19442
 H409 H 0.37681 0.80695 0.12600
 H410 H 0.39469 0.84304 0.18473
 C411 C 0.46205 0.53682 0.38804
 C412 C 0.45295 0.54582 0.35962
 C413 C 0.44213 0.55642 0.32549
 C414 C 0.43357 0.57667 0.33503
 C415 C 0.42305 0.58695 0.30181
 C416 C 0.42090 0.57704 0.25859
 C417 C 0.42957 0.55667 0.24937
 C418 C 0.44012 0.54646 0.28262
 C419 C 0.40969 0.58788 0.22324
 C420 C 0.39097 0.56895 0.19100
 C421 C 0.38059 0.57919 0.15756
 C422 C 0.38877 0.60847 0.15584
 C423 C 0.40732 0.62748 0.18779
 C424 C 0.41771 0.61727 0.22131
 C425 C 0.37822 0.61899 0.12118
 C426 C 0.36939 0.62773 0.09202
 H427 H 0.43497 0.58446 0.36814
 H428 H 0.41622 0.60234 0.31003
 H429 H 0.42855 0.54893 0.21635
 H430 H 0.44677 0.53085 0.27488
 H431 H 0.38408 0.54615 0.19193
 H432 H 0.36617 0.56428 0.13305
 H433 H 0.41386 0.65020 0.18670
 H434 H 0.43237 0.63245 0.24531
   
