data_POSCAR
  _audit_creation_date              2014-09-24
  _audit_creation_method            'ToBaCCo'
  _symmetry_space_group_name_H-M    'P1'
  _symmetry_Int_Tables_number       1
  _symmetry_cell_setting            triclinic
  loop_
  _symmetry_equiv_pos_as_xyz
 x,y,z
_cell_length_a 23.8718
_cell_length_b 25.5844
_cell_length_c 27.2555
_cell_angle_alpha 90.072200
_cell_angle_beta 90.000000
_cell_angle_gamma 90.000000
loop_
  _atom_site_label
  _atom_site_type_symbol
  _atom_site_fract_x
  _atom_site_fract_y
  _atom_site_fract_z
B1 B 0.27464 0.22314 0.19740
 B2 B 0.28300 0.28532 0.21443
 B3 B 0.21936 0.26357 0.19873
 B4 B 0.21246 0.20145 0.21866
 B5 B 0.27336 0.18550 0.24812
 B6 B 0.31773 0.23790 0.24467
 B7 B 0.22551 0.26720 0.29693
 B8 B 0.21679 0.20483 0.28046
 B9 B 0.28044 0.22694 0.29591
 B10 B 0.28763 0.28874 0.27565
 B11 B 0.22662 0.30452 0.24682
 B12 B 0.18230 0.25204 0.24984
 B13 B 0.71410 0.75929 0.30736
 B14 B 0.78092 0.77311 0.29537
 B15 B 0.76172 0.71147 0.30580
 B16 B 0.69785 0.70141 0.28182
 B17 B 0.67770 0.75866 0.25490
 B18 B 0.72986 0.80354 0.26368
 B19 B 0.77234 0.72389 0.20841
 B20 B 0.70506 0.70987 0.22100
 B21 B 0.72435 0.77161 0.21007
 B22 B 0.78858 0.78204 0.23437
 B23 B 0.80870 0.72475 0.26114
 B24 B 0.75652 0.67954 0.25229
 B25 B 0.72249 0.23273 -0.20494
 B26 B 0.71430 0.29454 -0.22259
 B27 B 0.77763 0.27291 -0.20570
 B28 B 0.78511 0.21078 -0.22494
 B29 B 0.72496 0.19431 -0.25499
 B30 B 0.68035 0.24670 -0.25304
 B31 B 0.77372 0.27559 -0.30401
 B32 B 0.78215 0.21330 -0.28673
 B33 B 0.71880 0.23491 -0.30354
 B34 B 0.71101 0.29713 -0.28402
 B35 B 0.77127 0.31340 -0.25394
 B36 B 0.81585 0.26101 -0.25607
 B37 B 0.27695 0.76976 -0.29614
 B38 B 0.21664 0.79561 -0.27662
 B39 B 0.21922 0.73307 -0.29447
 B40 B 0.28120 0.70733 -0.27721
 B41 B 0.31705 0.75555 -0.24751
 B42 B 0.27655 0.81060 -0.24733
 B43 B 0.22087 0.73528 -0.19599
 B44 B 0.28181 0.70994 -0.21550
 B45 B 0.27894 0.77233 -0.19760
 B46 B 0.21683 0.79814 -0.21492
 B47 B 0.18091 0.74985 -0.24494
 B48 B 0.22159 0.69460 -0.24473
 B49 B 1.22249 1.26730 0.70498
 B50 B 1.21430 1.20550 0.72263
 B51 B 1.27763 1.22712 0.70573
 B52 B 1.28511 1.28925 0.72497
 B53 B 1.22496 1.30573 0.75502
 B54 B 1.18036 1.25333 0.75308
 B55 B 1.27372 1.22445 0.80405
 B56 B 1.28215 1.28673 0.78677
 B57 B 1.21880 1.26513 0.80358
 B58 B 1.21101 1.20291 0.78405
 B59 B 1.27127 1.18664 0.75398
 B60 B 1.31585 1.23902 0.75611
 B61 B 0.77695 0.73028 0.79618
 B62 B 0.71664 0.70443 0.77665
 B63 B 0.71922 0.76697 0.79451
 B64 B 0.78120 0.79270 0.77724
 B65 B 0.81705 0.74448 0.74754
 B66 B 0.77655 0.68943 0.74737
 B67 B 0.72087 0.76475 0.69603
 B68 B 0.78181 0.79009 0.71553
 B69 B 0.77894 0.72770 0.69764
 B70 B 0.71683 0.70189 0.71495
 B71 B 0.68091 0.75019 0.74498
 B72 B 0.72159 0.80544 0.74476
 B73 B 1.22435 0.72843 0.28996
 B74 B 1.20506 0.79017 0.27904
 B75 B 1.27234 0.77615 0.29162
 B76 B 1.28858 0.71799 0.26567
 B77 B 1.22986 0.69649 0.23635
 B78 B 1.17770 0.74138 0.24514
 B79 B 1.26172 0.78857 0.19423
 B80 B 1.28092 0.72692 0.20466
 B81 B 1.21409 0.74074 0.19268
 B82 B 1.19785 0.79862 0.21822
 B83 B 1.25652 0.82050 0.24775
 B84 B 1.30870 0.77528 0.23890
 B85 B 0.77464 1.27690 0.30263
 B86 B 0.78300 1.21471 0.28560
 B87 B 0.71936 1.23646 0.30131
 B88 B 0.71246 1.29858 0.28138
 B89 B 0.77336 1.31453 0.25192
 B90 B 0.81773 1.26213 0.25536
 B91 B 0.72551 1.23283 0.20311
 B92 B 0.71679 1.29520 0.21958
 B93 B 0.78044 1.27309 0.20412
 B94 B 0.78763 1.21129 0.22438
 B95 B 0.72662 1.19551 0.25321
 B96 B 0.68230 1.24799 0.25020
 O97 O 0.42873 1.09110 0.02749
 O98 O 0.58257 0.91014 0.04412
 O99 O 0.40852 0.92708 0.02549
 O100 O 0.60291 1.07493 0.03997
 O101 O 0.48501 0.90827 0.06062
 O102 O 0.51954 1.09192 0.06054
 O103 O 0.60126 0.98677 0.07081
 O104 O 0.40525 1.01583 0.05288
 C105 C 0.40424 1.06351 0.05868
 C106 C 0.60147 0.93899 0.07738
 C107 C 0.43359 0.90935 0.06196
 C108 C 0.56964 1.09510 0.06966
 O109 O 0.56377 1.10447 -0.03246
 O110 O 0.46358 0.89294 -0.03734
 O111 O 0.39910 1.04784 -0.04236
 O112 O 0.62791 0.95216 -0.02023
 O113 O 0.56016 0.91195 -0.05398
 O114 O 0.47581 1.08139 -0.06486
 O115 O 0.60697 1.03543 -0.05292
 O116 O 0.42549 0.96135 -0.06750
 Co117 Co 0.49819 1.08333 -0.00210
 Co118 Co 0.52144 0.91475 0.00307
 Co119 Co 0.41935 0.98926 -0.00704
 Co120 Co 0.59986 1.01126 0.00862
 O121 O 0.50973 0.99956 0.00063
 C122 C 0.59370 1.08058 -0.06265
 C123 C 0.43814 0.91484 -0.07188
 C124 C 0.42625 1.07316 -0.07329
 C125 C 0.61012 0.92446 -0.05440
 O126 O 0.96358 0.60709 0.53738
 O127 O 1.06377 0.39557 0.53249
 O128 O 0.89910 0.45219 0.54240
 O129 O 1.12791 0.54787 0.52026
 O130 O 0.97581 0.41864 0.56490
 O131 O 1.06016 0.58809 0.55402
 O132 O 1.10697 0.46461 0.55296
 O133 O 0.92549 0.53868 0.56753
 C134 C 0.93814 0.58519 0.57191
 C135 C 1.09370 0.41946 0.56268
 C136 C 0.92625 0.42687 0.57333
 C137 C 1.11012 0.57558 0.55443
 O138 O 1.08257 0.58989 0.45592
 O139 O 0.92874 0.40894 0.47255
 O140 O 0.90852 0.57295 0.47454
 O141 O 1.10291 0.42511 0.46007
 O142 O 1.01954 0.40811 0.43949
 O143 O 0.98501 0.59177 0.43942
 O144 O 1.10126 0.51326 0.42922
 O145 O 0.90525 0.48420 0.44715
 Co146 Co 1.02144 0.58528 0.49696
 Co147 Co 0.99819 0.41670 0.50213
 Co148 Co 0.91935 0.51077 0.50707
 Co149 Co 1.09986 0.48877 0.49141
 O150 O 1.00973 0.50048 0.49940
 C151 C 1.10147 0.56104 0.42266
 C152 C 0.90424 0.43652 0.44135
 C153 C 0.93359 0.59068 0.43808
 C154 C 1.06964 0.40493 0.43038
 O155 O 1.06917 0.47660 0.08445
 O156 O 1.07116 0.52591 -0.08197
 O157 O 1.06662 0.41138 -0.03070
 O158 O 1.06469 0.59130 0.03172
 O159 O 1.02995 0.43963 -0.09499
 O160 O 1.02770 0.56332 0.09604
 O161 O 1.04588 0.59966 -0.05092
 O162 O 1.04511 0.40285 0.05233
 C163 C 1.07920 0.42955 0.07732
 C164 C 1.08128 0.57274 -0.07425
 C165 C 1.07017 0.41808 -0.07517
 C166 C 1.06767 0.58537 0.07622
 O167 O 0.92685 0.52280 0.08423
 O168 O 0.92898 0.47972 -0.08489
 O169 O 0.93010 0.41055 0.02869
 O170 O 0.92980 0.59097 -0.02967
 O171 O 0.97034 0.56613 -0.09338
 O172 O 0.96802 0.43665 0.09323
 O173 O 0.94969 0.59760 0.05459
 O174 O 0.95191 0.40489 -0.05499
 Co175 Co 0.99801 0.50009 0.08069
 Co176 Co 0.99997 0.50269 -0.07998
 Co177 Co 0.99839 0.41598 -0.00105
 Co178 Co 0.99744 0.58636 0.00131
 O179 O 0.99848 0.50129 0.00028
 C180 C 0.91561 0.56950 0.07812
 C181 C 0.91819 0.43280 -0.07907
 C182 C 0.92671 0.41723 0.07323
 C183 C 0.92843 0.58565 -0.07445
 O184 O 0.57116 0.97412 0.58200
 O185 O 0.56917 1.02344 0.41559
 O186 O 0.56469 0.90873 0.46832
 O187 O 0.56662 1.08865 0.53073
 O188 O 0.52770 0.93672 0.40400
 O189 O 0.52995 1.06041 0.59503
 O190 O 0.54510 1.09718 0.44770
 O191 O 0.54589 0.90037 0.55096
 C192 C 0.58128 0.92729 0.57428
 C193 C 0.57920 1.07049 0.42271
 C194 C 0.56767 0.91467 0.42382
 C195 C 0.57017 1.08195 0.57521
 O196 O 0.42898 1.02031 0.58493
 O197 O 0.42685 0.97724 0.41580
 O198 O 0.42980 0.90906 0.52971
 O199 O 0.43010 1.08948 0.47135
 O200 O 0.46802 1.06338 0.40681
 O201 O 0.47034 0.93390 0.59342
 O202 O 0.45191 1.09514 0.55502
 O203 O 0.44969 0.90244 0.44544
 Co204 Co 0.49997 0.99734 0.58002
 Co205 Co 0.49801 0.99994 0.41934
 Co206 Co 0.49744 0.91367 0.49873
 Co207 Co 0.49839 1.08405 0.50108
 O208 O 0.49848 0.99874 0.49975
 C209 C 0.41819 1.06723 0.57911
 C210 C 0.41561 0.93053 0.42192
 C211 C 0.42843 0.91438 0.57449
 C212 C 0.42670 1.08280 0.42681
 O213 O 1.10010 1.06687 0.49839
 O214 O 0.89663 1.06796 0.49929
 O215 O 1.00707 1.07139 0.41275
 O216 O 0.99100 1.07097 0.58617
 O217 O 0.92150 1.04717 0.41906
 O218 O 1.07594 1.04489 0.57940
 O219 O 0.89856 1.03397 0.56883
 O220 O 1.09821 1.03191 0.42926
 C221 C 1.11154 1.07004 0.45449
 C222 C 0.88577 1.07190 0.54318
 C223 C 0.95678 1.08093 0.40636
 C224 C 1.04151 1.07903 0.59303
 O225 O 1.07635 0.93997 0.55484
 O226 O 0.91959 0.94127 0.44182
 O227 O 1.05241 0.93774 0.42633
 O228 O 0.94129 0.93893 0.57192
 O229 O 0.87938 0.96130 0.51877
 O230 O 1.11573 0.95970 0.47840
 O231 O 1.02491 0.97411 0.60885
 O232 O 0.97038 0.97633 0.38810
 Co233 Co 1.08354 1.00304 0.52499
 Co234 Co 0.91277 1.00426 0.47252
 Co235 Co 1.02843 1.00434 0.42290
 Co236 Co 0.96751 1.00462 0.57531
 O237 O 0.99802 1.00383 0.49900
 C238 C 1.05511 0.93722 0.59598
 C239 C 0.93793 0.94065 0.39951
 C240 C 1.09794 0.92841 0.44645
 C241 C 0.89582 0.93043 0.55158
 O242 O 0.57635 0.56007 -0.05480
 O243 O 0.41959 0.55876 0.05822
 O244 O 0.44129 0.56111 -0.07189
 O245 O 0.55241 0.56229 0.07370
 O246 O 0.37938 0.53873 -0.01873
 O247 O 0.61573 0.54033 0.02163
 O248 O 0.47038 0.52371 0.11193
 O249 O 0.52491 0.52593 -0.10881
 C250 C 0.55510 0.56282 -0.09594
 C251 C 0.43793 0.55939 0.10052
 C252 C 0.39582 0.56960 -0.05154
 C253 C 0.59794 0.57163 0.05359
 O254 O 0.60010 0.43317 0.00165
 O255 O 0.39663 0.43207 0.00074
 O256 O 0.49100 0.42906 -0.08613
 O257 O 0.50707 0.42864 0.08728
 O258 O 0.42150 0.45287 0.08097
 O259 O 0.57594 0.45514 -0.07936
 O260 O 0.59821 0.46813 0.07078
 O261 O 0.39856 0.46606 -0.06879
 Co262 Co 0.58354 0.49699 -0.02496
 Co263 Co 0.41277 0.49577 0.02752
 Co264 Co 0.46751 0.49541 -0.07527
 Co265 Co 0.52843 0.49569 0.07714
 O266 O 0.49802 0.49621 0.00104
 C267 C 0.61155 0.43000 0.04555
 C268 C 0.38577 0.42813 -0.04315
 C269 C 0.54151 0.42101 -0.09300
 C270 C 0.45678 0.41911 0.09368
 C271 C 0.30143 1.20206 0.14784
 C272 C 0.32277 1.15377 0.14446
 C273 C 0.35452 1.13548 0.10133
 C274 C 0.37135 1.08566 0.09927
 H275 H 0.31837 1.12698 0.17499
 H276 H 0.36446 1.16237 0.07188
 H277 H 0.30551 1.22889 0.11734
 H278 H 0.35934 1.05905 0.12838
 C279 C 0.80972 0.70735 0.64978
 C280 C 0.85633 0.67834 0.65267
 C281 C 0.88316 0.65538 0.60913
 C282 C 0.91743 0.61446 0.61430
 H283 H 0.87382 0.66882 0.68828
 H284 H 0.87201 0.66927 0.57284
 H285 H 0.79113 0.71562 0.61438
 H286 H 0.92438 0.59784 0.65037
 C287 C 0.70351 0.80031 0.16221
 C288 C 0.67641 0.84604 0.16401
 C289 C 0.65030 0.86845 0.12006
 C290 C 0.62896 0.91674 0.12071
 H291 H 0.67142 0.86649 0.19859
 H292 H 0.64822 0.84509 0.08687
 H293 H 0.70861 0.78038 0.12742
 H294 H 0.63349 0.94105 0.15307
 C295 C 1.19586 0.28705 0.65525
 C296 C 1.16023 0.32727 0.65438
 C297 C 1.13510 0.34651 0.60866
 C298 C 1.11559 0.39528 0.60728
 H299 H 1.15030 0.34787 0.68807
 H300 H 1.13497 0.32229 0.57599
 H301 H 1.20655 0.26683 0.62158
 H302 H 1.12028 0.42031 0.63917
 C303 C 0.69586 1.21299 -0.15521
 C304 C 0.66023 1.17276 -0.15434
 C305 C 0.63509 1.15352 -0.10863
 C306 C 0.61559 1.10475 -0.10724
 H307 H 0.65030 1.15216 -0.18804
 H308 H 0.63497 1.17774 -0.07596
 H309 H 0.70655 1.23320 -0.12154
 H310 H 0.62028 1.07972 -0.13913
 C311 C 1.20351 0.69972 0.33783
 C312 C 1.17641 0.65399 0.33603
 C313 C 1.15030 0.63159 0.37998
 C314 C 1.12896 0.58330 0.37933
 H315 H 1.17142 0.63354 0.30145
 H316 H 1.14822 0.65495 0.41317
 H317 H 1.20861 0.71965 0.37262
 H318 H 1.13349 0.55898 0.34697
 C319 C 0.30972 0.79269 -0.14974
 C320 C 0.35633 0.82169 -0.15263
 C321 C 0.38316 0.84466 -0.10910
 C322 C 0.41743 0.88557 -0.11427
 H323 H 0.37382 0.83121 -0.18824
 H324 H 0.37201 0.83077 -0.07281
 H325 H 0.29113 0.78442 -0.11435
 H326 H 0.42438 0.90219 -0.15033
 C327 C 0.80142 0.29798 0.35219
 C328 C 0.82277 0.34626 0.35557
 C329 C 0.85452 0.36455 0.39871
 C330 C 0.87135 0.41437 0.40076
 H331 H 0.81837 0.37305 0.32505
 H332 H 0.86446 0.33766 0.42815
 H333 H 0.80550 0.27115 0.38269
 H334 H 0.85934 0.44098 0.37165
 C335 C 1.18657 0.28332 0.15115
 C336 C 1.17533 0.33422 0.14414
 C337 C 1.13539 0.35388 0.10707
 C338 C 1.12618 0.40551 0.10415
 H339 H 1.19262 0.36285 0.16917
 H340 H 1.11061 0.32666 0.08567
 H341 H 1.16863 0.25432 0.12682
 H342 H 1.15150 0.43173 0.12626
 C343 C 0.68918 0.78277 0.64755
 C344 C 0.68224 0.83352 0.63699
 C345 C 0.63962 0.85248 0.60201
 C346 C 0.63044 0.90397 0.59845
 H347 H 0.70457 0.86259 0.65835
 H348 H 0.61256 0.82490 0.58330
 H349 H 0.66634 0.75348 0.62696
 H350 H 0.65759 0.93065 0.61829
 C351 C 1.18918 0.71726 -0.14752
 C352 C 1.18224 0.66651 -0.13695
 C353 C 1.13962 0.64755 -0.10197
 C354 C 1.13044 0.59607 -0.09842
 H355 H 1.20457 0.63744 -0.15831
 H356 H 1.11256 0.67514 -0.08327
 H357 H 1.16634 0.74655 -0.12693
 H358 H 1.15759 0.56939 -0.11825
 C359 C 0.68657 1.21671 0.34889
 C360 C 0.67533 1.16581 0.35590
 C361 C 0.63538 1.14615 0.39296
 C362 C 0.62618 1.09452 0.39588
 H363 H 0.69262 1.13718 0.33087
 H364 H 0.61061 1.17338 0.41436
 H365 H 0.66863 1.24572 0.37321
 H366 H 0.65150 1.06831 0.37377
 C367 C 0.80524 0.70752 0.16001
 C368 C 0.81330 0.65750 0.14738
 C369 C 0.85620 0.64155 0.11110
 C370 C 0.86641 0.59067 0.10419
 H371 H 0.79130 0.62709 0.16726
 H372 H 0.88250 0.67077 0.09386
 H373 H 0.82747 0.73798 0.14048
 H374 H 0.84005 0.56233 0.12272
 C375 C 0.30943 1.20856 0.65749
 C376 C 0.31997 1.15805 0.64859
 C377 C 0.36035 1.14044 0.61104
 C378 C 0.37055 1.08927 0.60640
 H379 H 0.30227 1.12855 0.67244
 H380 H 0.38484 1.16882 0.59079
 H381 H 0.32786 1.23826 0.63424
 H382 H 0.34562 1.06182 0.62745
 C383 C 0.80943 0.29147 -0.15745
 C384 C 0.81997 0.34198 -0.14855
 C385 C 0.86035 0.35959 -0.11101
 C386 C 0.87055 0.41076 -0.10636
 H387 H 0.80227 0.37148 -0.17241
 H388 H 0.88484 0.33121 -0.09076
 H389 H 0.82786 0.26177 -0.13421
 H390 H 0.84562 0.43821 -0.12741
 C391 C 0.30523 0.79252 0.34003
 C392 C 0.31330 0.84253 0.35266
 C393 C 0.35620 0.85848 0.38894
 C394 C 0.36641 0.90937 0.39585
 H395 H 0.29130 0.87295 0.33278
 H396 H 0.38250 0.82926 0.40618
 H397 H 0.32747 0.76205 0.35956
 H398 H 0.34005 0.93770 0.37731
 C399 C 1.18303 1.16280 0.31121
 C400 C 1.17875 1.16175 0.36026
 C401 C 1.14849 1.11844 0.38418
 C402 C 1.14171 1.11494 0.43293
 H403 H 1.19833 1.19160 0.38259
 H404 H 1.13131 1.08810 0.36081
 H405 H 1.16313 1.13214 0.28997
 H406 H 1.15775 1.14530 0.45687
 C407 C 0.68970 0.66016 -0.19052
 C408 C 0.63712 0.65959 -0.17401
 C409 C 0.62138 0.62096 -0.13636
 C410 C 0.56876 0.60486 -0.13061
 H411 H 0.60679 0.68802 -0.18672
 H412 H 0.65422 0.60326 -0.11442
 H413 H 0.71775 0.62959 -0.17834
 H414 H 0.53635 0.61880 -0.15517
 C415 C 0.81669 1.17065 0.68400
 C416 C 0.82039 1.16738 0.63507
 C417 C 0.85049 1.12310 0.61253
 C418 C 0.85622 1.11757 0.56391
 H419 H 0.80023 1.19603 0.61184
 H420 H 0.86820 1.09379 0.63669
 H421 H 0.83720 1.14119 0.70620
 H422 H 0.83972 1.14699 0.53927
 C423 C 0.31501 0.69743 0.16329
 C424 C 0.35430 0.66161 0.17176
 C425 C 0.37838 0.63152 0.13058
 C426 C 0.41781 0.59567 0.13860
 H427 H 0.36691 0.65283 0.20907
 H428 H 0.36187 0.63694 0.09387
 H429 H 0.30314 0.70566 0.12569
 H430 H 0.43405 0.59054 0.17544
 C431 C 1.18970 0.83987 0.69055
 C432 C 1.13712 0.84045 0.67404
 C433 C 1.12138 0.87907 0.63640
 C434 C 1.06876 0.89517 0.63064
 H435 H 1.10679 0.81201 0.68676
 H436 H 1.15422 0.89677 0.61445
 H437 H 1.21775 0.87044 0.67838
 H438 H 1.03635 0.88124 0.65521
 C439 C 0.68303 0.33723 0.18883
 C440 C 0.67875 0.33828 0.13978
 C441 C 0.64849 0.38159 0.11585
 C442 C 0.64171 0.38509 0.06710
 H443 H 0.69833 0.30844 0.11744
 H444 H 0.63131 0.41193 0.13922
 H445 H 0.66313 0.36790 0.21007
 H446 H 0.65775 0.35474 0.04317
 C447 C 0.81501 0.80261 0.33674
 C448 C 0.85430 0.83843 0.32828
 C449 C 0.87838 0.86852 0.36945
 C450 C 0.91781 0.90436 0.36143
 H451 H 0.86691 0.84720 0.29097
 H452 H 0.86187 0.86309 0.40617
 H453 H 0.80315 0.79437 0.37435
 H454 H 0.93405 0.90950 0.32459
 C455 C 0.31669 0.32939 -0.18396
 C456 C 0.32039 0.33265 -0.13503
 C457 C 0.35049 0.37694 -0.11250
 C458 C 0.35622 0.38247 -0.06388
 H459 H 0.30023 0.30400 -0.11181
 H460 H 0.36820 0.40625 -0.13666
 H461 H 0.33721 0.35885 -0.20617
 H462 H 0.33972 0.35304 -0.03924
 C463 C 1.18831 0.28405 -0.14782
 C464 C 1.17931 0.33479 -0.13887
 C465 C 1.14072 0.35297 -0.10031
 C466 C 1.11732 0.40007 -0.10509
 H467 H 1.19659 0.36389 -0.16349
 H468 H 1.12717 0.32661 -0.07155
 H469 H 1.17002 0.25472 -0.12409
 H470 H 1.12793 0.42393 -0.13663
 C471 C 0.68371 0.77794 0.35607
 C472 C 0.67888 0.82883 0.36671
 C473 C 0.63838 0.84849 0.40277
 C474 C 0.61399 0.89456 0.39428
 H475 H 0.70022 0.85762 0.34434
 H476 H 0.62472 0.82396 0.43289
 H477 H 0.66089 0.74924 0.37735
 H478 H 0.62447 0.91616 0.36131
 C479 C 0.80571 0.71348 -0.15365
 C480 C 0.82289 0.66437 -0.14622
 C481 C 0.85798 0.64858 -0.10432
 C482 C 0.88167 0.60135 -0.10573
 H483 H 0.81469 0.63505 -0.17402
 H484 H 0.86899 0.67642 -0.07591
 H485 H 0.81477 0.74346 -0.12670
 H486 H 0.87297 0.57572 -0.13655
 C487 C 0.31159 1.21051 0.34471
 C488 C 0.31889 1.16055 0.35714
 C489 C 0.35677 1.14537 0.39724
 C490 C 0.37812 1.09729 0.39721
 H491 H 0.30073 1.12994 0.33463
 H492 H 0.37221 1.17451 0.42280
 H493 H 0.33095 1.24108 0.36641
 H494 H 0.36596 1.07010 0.36856
 C495 C 1.18371 0.72209 0.14396
 C496 C 1.17888 0.67121 0.13332
 C497 C 1.13838 0.65154 0.09726
 C498 C 1.11399 0.60547 0.10575
 H499 H 1.20022 0.64242 0.15569
 H500 H 1.12472 0.67607 0.06715
 H501 H 1.16089 0.75080 0.12268
 H502 H 1.12447 0.58387 0.13873
 C503 C 0.68831 1.21598 0.64786
 C504 C 0.67931 1.16524 0.63890
 C505 C 0.64073 1.14707 0.60034
 C506 C 0.61732 1.09996 0.60513
 H507 H 0.69659 1.13614 0.66352
 H508 H 0.62717 1.17343 0.57159
 H509 H 0.67002 1.24531 0.62413
 H510 H 0.62793 1.07610 0.63666
 C511 C 0.81159 0.28953 0.15533
 C512 C 0.81889 0.33949 0.14289
 C513 C 0.85676 0.35466 0.10280
 C514 C 0.87812 0.40274 0.10283
 H515 H 0.80073 0.37009 0.16541
 H516 H 0.87221 0.32552 0.07724
 H517 H 0.83094 0.25895 0.13362
 H518 H 0.86597 0.42994 0.13147
 C519 C 0.30571 0.78655 0.65368
 C520 C 0.32290 0.83566 0.64625
 C521 C 0.35798 0.85145 0.60436
 C522 C 0.38167 0.89868 0.60577
 H523 H 0.31469 0.86498 0.67405
 H524 H 0.36899 0.82361 0.57594
 H525 H 0.31477 0.75658 0.62673
 H526 H 0.37297 0.92431 0.63659
 C527 C 0.29863 1.19946 -0.14770
 C528 C 0.33884 1.16321 -0.15087
 C529 C 0.35812 1.13277 -0.10870
 C530 C 0.40004 1.09895 -0.11485
 H531 H 0.35752 1.15430 -0.18619
 H532 H 0.33980 1.13902 -0.07275
 H533 H 0.27944 1.20845 -0.11269
 H534 H 0.42064 1.09558 -0.15017
 C535 C 0.78122 0.68154 0.35355
 C536 C 0.82687 0.65135 0.35263
 C537 C 0.85098 0.62800 0.39693
 C538 C 0.90443 0.61285 0.39583
 H539 H 0.84942 0.64577 0.31848
 H540 H 0.82648 0.62521 0.43031
 H541 H 0.75900 0.68820 0.38763
 H542 H 0.92897 0.61876 0.36279
 C543 C 0.70276 1.20819 0.15418
 C544 C 0.65466 1.18174 0.15353
 C545 C 0.63792 1.15056 0.11103
 C546 C 0.58838 1.12670 0.11104
 H547 H 0.62821 1.18071 0.18588
 H548 H 0.66601 1.14680 0.07995
 H549 H 0.72938 1.20890 0.12199
 H550 H 0.55944 1.13264 0.14121
 C551 C 1.18689 0.71378 0.65833
 C552 C 1.18486 0.66337 0.64576
 C553 C 1.14530 0.64454 0.60843
 C554 C 1.14918 0.59591 0.59119
 H555 H 1.21055 0.63500 0.66492
 H556 H 1.11271 0.67042 0.59508
 H557 H 1.16150 0.74174 0.63855
 H558 H 1.18394 0.57127 0.60212
 C559 C 0.68689 0.78625 -0.15830
 C560 C 0.68486 0.83667 -0.14572
 C561 C 0.64530 0.85549 -0.10840
 C562 C 0.64918 0.90412 -0.09115
 H563 H 0.71055 0.86503 -0.16489
 H564 H 0.61271 0.82962 -0.09505
 H565 H 0.66151 0.75829 -0.13851
 H566 H 0.68395 0.92876 -0.10209
 C567 C 1.20276 0.29184 0.34585
 C568 C 1.15466 0.31829 0.34650
 C569 C 1.13792 0.34947 0.38900
 C570 C 1.08838 0.37333 0.38900
 H571 H 1.12821 0.31932 0.31416
 H572 H 1.16601 0.35324 0.42008
 H573 H 1.22938 0.29113 0.37804
 H574 H 1.05944 0.36740 0.35882
 C575 C 0.28122 0.81849 0.14649
 C576 C 0.32687 0.84868 0.14740
 C577 C 0.35098 0.87203 0.10311
 C578 C 0.40443 0.88718 0.10420
 H579 H 0.34942 0.85426 0.18156
 H580 H 0.32648 0.87483 0.06972
 H581 H 0.25900 0.81184 0.11240
 H582 H 0.42897 0.88127 0.13724
 C583 C 0.79863 0.30057 0.64774
 C584 C 0.83884 0.33683 0.65091
 C585 C 0.85812 0.36726 0.60874
 C586 C 0.90004 0.40108 0.61488
 H587 H 0.85752 0.34573 0.68622
 H588 H 0.83980 0.36102 0.57279
 H589 H 0.77944 0.29158 0.61273
 H590 H 0.92064 0.40445 0.65020
 C591 C 1.18410 1.16290 0.69069
 C592 C 1.13423 1.16880 0.66936
 C593 C 1.11302 1.12625 0.63837
 C594 C 1.06043 1.12435 0.62185
 H595 H 1.10992 1.20419 0.67440
 H596 H 1.14148 1.09444 0.62983
 H597 H 1.20637 1.12635 0.68596
 H598 H 1.03086 1.15493 0.63118
 C599 C 0.66277 0.67777 0.18820
 C600 C 0.66725 0.66907 0.14005
 C601 C 0.62542 0.63545 0.11587
 C602 C 0.63459 0.61363 0.07205
 H603 H 0.70213 0.68440 0.11926
 H604 H 0.58829 0.62463 0.13644
 H605 H 0.62749 0.66100 0.20771
 H606 H 0.67280 0.62235 0.05220
 C607 C 1.16277 0.82227 0.31184
 C608 C 1.16725 0.83096 0.35998
 C609 C 1.12542 0.86458 0.38417
 C610 C 1.13459 0.88641 0.42799
 H611 H 1.20213 0.81563 0.38078
 H612 H 1.08829 0.87541 0.36359
 H613 H 1.12748 0.83903 0.29233
 H614 H 1.17280 0.87768 0.44784
 C615 C 0.68410 0.33714 -0.19065
 C616 C 0.63422 0.33123 -0.16932
 C617 C 0.61302 0.37379 -0.13833
 C618 C 0.56043 0.37568 -0.12181
 H619 H 0.60992 0.29585 -0.17436
 H620 H 0.64148 0.40560 -0.12980
 H621 H 0.70637 0.37369 -0.18592
 H622 H 0.53086 0.34510 -0.13114
 C623 C 0.81244 1.17254 0.31840
 C624 C 0.86432 1.17616 0.33621
 C625 C 0.88508 1.13324 0.36686
 C626 C 0.93885 1.12762 0.37912
 H627 H 0.89072 1.20950 0.32806
 H628 H 0.85505 1.10382 0.37828
 H629 H 0.78821 1.13777 0.32616
 H630 H 0.96976 1.15599 0.36738
 C631 C 0.31785 0.66741 -0.18771
 C632 C 0.32210 0.66332 -0.13891
 C633 C 0.36120 0.62526 -0.11742
 C634 C 0.35851 0.61078 -0.07033
 H635 H 0.29748 0.68795 -0.11488
 H636 H 0.39185 0.60711 -0.14141
 H637 H 0.34257 0.64161 -0.21069
 H638 H 0.32577 0.62602 -0.04677
 C639 C 0.81785 0.83262 0.68774
 C640 C 0.82210 0.83671 0.63895
 C641 C 0.86120 0.87477 0.61746
 C642 C 0.85851 0.88925 0.57037
 H643 H 0.79748 0.81209 0.61492
 H644 H 0.89185 0.89293 0.64144
 H645 H 0.84258 0.85842 0.71073
 H646 H 0.82577 0.87401 0.54681
 C647 C 0.31244 0.32749 0.18164
 C648 C 0.36432 0.32387 0.16382
 C649 C 0.38508 0.36680 0.13318
 C650 C 0.43885 0.37241 0.12092
 H651 H 0.39072 0.29053 0.17198
 H652 H 0.35505 0.39622 0.12176
 H653 H 0.28821 0.36227 0.17387
 H654 H 0.46976 0.34404 0.13265
   
