data_POSCAR
  _audit_creation_date              2014-09-24
  _audit_creation_method            'ToBaCCo'
  _symmetry_space_group_name_H-M    'P1'
  _symmetry_Int_Tables_number       1
  _symmetry_cell_setting            triclinic
  loop_
  _symmetry_equiv_pos_as_xyz
 x,y,z
_cell_length_a 40.7186
_cell_length_b 27.0836
_cell_length_c 17.4084
_cell_angle_alpha 90.096500
_cell_angle_beta 89.884200
_cell_angle_gamma 91.449200
loop_
  _atom_site_label
  _atom_site_type_symbol
  _atom_site_fract_x
  _atom_site_fract_y
  _atom_site_fract_z
O1 O 0.76875 0.19357 0.57150
 O2 O 0.71125 0.23371 0.42241
 O3 O 0.76928 0.19417 0.42398
 O4 O 0.71108 0.23361 0.57295
 O5 O 0.73452 0.30804 0.57287
 O6 O 0.79191 0.26905 0.42225
 O7 O 0.73412 0.30851 0.42501
 O8 O 0.79223 0.26799 0.57272
 Cu9 Cu 0.73758 0.20639 0.49757
 Cu10 Cu 0.76567 0.29578 0.49829
 C11 C 0.79055 0.22370 0.59677
 C12 C 0.71263 0.27813 0.39898
 C13 C 0.79078 0.22469 0.39819
 C14 C 0.71278 0.27772 0.59790
 O15 O 0.23105 0.80490 0.57569
 O16 O 0.28940 0.76523 0.42708
 O17 O 0.23181 0.80550 0.42816
 O18 O 0.28899 0.76510 0.57760
 O19 O 0.26598 0.69039 0.57476
 O20 O 0.20820 0.73118 0.42664
 O21 O 0.26584 0.69088 0.42690
 O22 O 0.20826 0.73012 0.57711
 Cu23 Cu 0.26283 0.79255 0.50229
 Cu24 Cu 0.23458 0.70327 0.50125
 C25 C 0.20945 0.77446 0.60128
 C26 C 0.28767 0.72112 0.40206
 C27 C 0.21000 0.77547 0.40269
 C28 C 0.28748 0.72067 0.60095
 O29 O 0.29179 0.24465 -0.42737
 O30 O 0.23803 0.18722 -0.57406
 O31 O 0.29109 0.24444 -0.57685
 O32 O 0.23885 0.18735 -0.42697
 O33 O 0.20839 0.25357 -0.42453
 O34 O 0.26050 0.31062 -0.57460
 O35 O 0.20765 0.25353 -0.57478
 O36 O 0.26117 0.31080 -0.42769
 Cu37 Cu 0.26810 0.20938 -0.50145
 Cu38 Cu 0.23117 0.28857 -0.50030
 C39 C 0.28607 0.28805 -0.40396
 C40 C 0.21326 0.21010 -0.59839
 C41 C 0.28518 0.28782 -0.59979
 C42 C 0.21428 0.21023 -0.40122
 O43 O -0.26222 0.68957 -0.57123
 O44 O -0.20914 0.74729 -0.42389
 O45 O -0.26204 0.68976 -0.42412
 O46 O -0.20960 0.74728 -0.57331
 O47 O -0.24064 0.81299 -0.57199
 O48 O -0.29246 0.75600 -0.42114
 O49 O -0.23973 0.81348 -0.42497
 O50 O -0.29334 0.75519 -0.57103
 Cu51 Cu -0.23255 0.71198 -0.49816
 Cu52 Cu -0.26980 0.79087 -0.49723
 C53 C -0.28727 0.71200 -0.59483
 C54 C -0.21487 0.79078 -0.40093
 C55 C -0.28663 0.71256 -0.39825
 C56 C -0.21577 0.79045 -0.59677
 N57 N -0.02700 0.90551 -0.08288
 N58 N -0.04982 0.87065 -0.09365
 N59 N 0.03982 0.95368 -0.13220
 N60 N 0.06450 0.95122 -0.18108
 N61 N 0.04151 0.91868 -0.08036
 N62 N 0.06707 0.89073 -0.09360
 N63 N -0.02918 0.94015 -0.13517
 N64 N -0.05385 0.93029 -0.18218
 C65 C -0.06634 0.88677 -0.15582
 C66 C 0.08134 0.91200 -0.15609
 N67 N 0.02912 1.09399 -0.08222
 N68 N 0.05120 1.12985 -0.09361
 N69 N -0.03648 1.04523 -0.13669
 N70 N -0.06020 1.04718 -0.18791
 N71 N -0.03933 1.08047 -0.08538
 N72 N -0.06481 1.10798 -0.10121
 N73 N 0.03246 1.05872 -0.13327
 N74 N 0.05727 1.06904 -0.17981
 Mn75 Mn 0.00167 0.99943 -0.13516
 C76 C 0.06863 1.11347 -0.15448
 C77 C -0.07775 1.08630 -0.16493
 N78 N 0.04004 0.91950 0.08598
 N79 N 0.06552 0.89196 0.10160
 N80 N -0.03162 0.94137 0.13421
 N81 N -0.05669 0.93149 0.18017
 N82 N -0.02850 0.90621 0.08289
 N83 N -0.05110 0.87096 0.09333
 N84 N 0.03731 0.95480 0.13723
 N85 N 0.06112 0.95285 0.18824
 Mn86 Mn 0.00658 0.91185 0.00141
 C87 C 0.07858 0.91368 0.16513
 C88 C -0.06852 0.88747 0.15416
 N89 N -0.04078 1.08124 0.08104
 N90 N -0.06648 1.10895 0.09405
 N91 N 0.03005 1.05989 0.13570
 N92 N 0.05437 1.07023 0.18349
 N93 N 0.02766 1.09471 0.08375
 N94 N 0.04990 1.13026 0.09572
 N95 N -0.03897 1.04635 0.13302
 N96 N -0.06371 1.04862 0.18176
 Mn97 Mn -0.00591 1.08822 -0.00070
 Mn98 Mn -0.00080 1.00062 0.13587
 Cl99 Cl 0.00039 1.00004 0.00035
 C100 C -0.08070 1.08763 0.15655
 C101 C 0.06639 1.11423 0.15801
 N102 N 0.47319 0.40457 -0.08433
 N103 N 0.45078 0.36911 -0.09532
 N104 N 0.53916 0.45453 -0.13512
 N105 N 0.56343 0.45281 -0.18515
 N106 N 0.54164 0.41941 -0.08370
 N107 N 0.56743 0.39219 -0.09830
 N108 N 0.47034 0.43948 -0.13596
 N109 N 0.44566 0.42920 -0.18269
 C110 C 0.43381 0.38518 -0.15690
 C111 C 0.58094 0.41398 -0.16131
 N112 N 0.52742 0.59431 -0.08301
 N113 N 0.54942 0.63033 -0.09399
 N114 N 0.46195 0.54429 -0.13586
 N115 N 0.43791 0.54589 -0.18629
 N116 N 0.45903 0.57922 -0.08407
 N117 N 0.43317 0.60619 -0.09878
 N118 N 0.53081 0.55934 -0.13456
 N119 N 0.55557 0.57006 -0.18106
 Mn120 Mn 0.50058 0.49941 -0.13617
 C121 C 0.56684 0.61443 -0.15523
 C122 C 0.42009 0.58446 -0.16230
 N123 N 0.54113 0.41933 0.08280
 N124 N 0.56692 0.39223 0.09768
 N125 N 0.46950 0.43932 0.13336
 N126 N 0.44451 0.42901 0.17934
 N127 N 0.47268 0.40447 0.08155
 N128 N 0.45020 0.36900 0.09167
 N129 N 0.53831 0.45437 0.13445
 N130 N 0.56232 0.45269 0.18495
 Mn131 Mn 0.50724 0.41130 -0.00092
 C132 C 0.58005 0.41398 0.16116
 C133 C 0.43283 0.38503 0.15290
 N134 N 0.45852 0.57918 0.08247
 N135 N 0.43279 0.60649 0.09735
 N136 N 0.52987 0.55922 0.13449
 N137 N 0.55446 0.56967 0.18138
 N138 N 0.52695 0.59414 0.08290
 N139 N 0.54921 0.62978 0.09406
 N140 N 0.46108 0.54410 0.13392
 N141 N 0.43691 0.54592 0.18422
 Mn142 Mn 0.49290 0.58735 -0.00043
 Mn143 Mn 0.49969 0.49925 0.13484
 Cl144 Cl 0.50010 0.49933 -0.00067
 C145 C 0.41938 0.58477 0.16054
 C146 C 0.56618 0.61379 0.15569
 C147 C 0.35443 0.30982 0.26461
 C148 C 0.35687 0.36161 0.26473
 N149 N 0.33448 0.38804 0.30395
 C150 C 0.31003 0.36502 0.34445
 C151 C 0.30835 0.31312 0.34758
 N152 N 0.33059 0.28670 0.30702
 N153 N 0.37660 0.28357 0.22406
 C154 C 0.40141 0.30681 0.18460
 C155 C 0.40469 0.35854 0.18769
 N156 N 0.38214 0.38465 0.22741
 H157 H 0.29295 0.38710 0.37653
 H158 H 0.41903 0.28510 0.15355
 C159 C -0.14672 0.81245 0.26706
 C160 C -0.14431 0.86425 0.26697
 N161 N -0.16666 0.89069 0.30631
 C162 C -0.19104 0.86768 0.34709
 C163 C -0.19269 0.81578 0.35039
 N164 N -0.17048 0.78936 0.30974
 N165 N -0.12461 0.78616 0.22641
 C166 C -0.09989 0.80936 0.18662
 C167 C -0.09661 0.86110 0.18944
 N168 N -0.11911 0.88726 0.22930
 H169 H -0.20809 0.88977 0.37925
 H170 H -0.08232 0.78760 0.15549
 C171 C 0.64365 0.68951 0.26976
 C172 C 0.64131 0.63771 0.26974
 N173 N 0.66358 0.61142 0.30923
 C174 C 0.68784 0.63460 0.35001
 C175 C 0.68947 0.68651 0.35310
 N176 N 0.66731 0.71278 0.31240
 N177 N 0.62164 0.71561 0.22883
 C178 C 0.59711 0.69221 0.18877
 C179 C 0.59395 0.64046 0.19157
 N180 N 0.61632 0.61451 0.23177
 H181 H 0.70488 0.61264 0.38217
 H182 H 0.57963 0.71380 0.15736
 C183 C 0.14266 1.18984 0.27622
 C184 C 0.14360 1.13864 0.26441
 N185 N 0.16885 1.11286 0.29340
 C186 C 0.19296 1.13576 0.33514
 C187 C 0.19119 1.18671 0.35107
 N188 N 0.16606 1.21251 0.32030
 N189 N 0.11791 1.21581 0.24496
 C190 C 0.09374 1.19268 0.20345
 C191 C 0.09378 1.14111 0.19499
 N192 N 0.11887 1.11535 0.22546
 H193 H 0.21247 1.11385 0.35832
 H194 H 0.07403 1.21403 0.17993
 C195 C 0.65993 0.36214 -0.29305
 C196 C 0.64059 0.32919 -0.24886
 N197 N 0.64582 0.27994 -0.25380
 C198 C 0.66930 0.26211 -0.30149
 C199 C 0.68859 0.29508 -0.34597
 N200 N 0.68348 0.34440 -0.33999
 N201 N 0.65394 0.41114 -0.29085
 C202 C 0.62918 0.42878 -0.24713
 C203 C 0.60963 0.39599 -0.20307
 N204 N 0.61599 0.34684 -0.20448
 H205 H 0.67270 0.22266 -0.30501
 H206 H 0.62459 0.46798 -0.24731
 C207 C 0.16068 0.85799 -0.28436
 C208 C 0.13806 0.82522 -0.24911
 N209 N 0.14014 0.77598 -0.26231
 C210 C 0.16357 0.75798 -0.30988
 C211 C 0.18630 0.79074 -0.34558
 N212 N 0.18434 0.84003 -0.33090
 N213 N 0.15764 0.90738 -0.27461
 C214 C 0.13274 0.92559 -0.23186
 C215 C 0.11007 0.89296 -0.19638
 N216 N 0.11342 0.84337 -0.20539
 H217 H 0.16425 0.71856 -0.31992
 H218 H 0.13048 0.96518 -0.22606
 C219 C 0.34106 0.63602 -0.29333
 C220 C 0.35977 0.66878 -0.24739
 N221 N 0.35387 0.71789 -0.25010
 C222 C 0.33034 0.73579 -0.29723
 C223 C 0.31167 0.70303 -0.34344
 N224 N 0.31743 0.65381 -0.33972
 N225 N 0.34773 0.58721 -0.29327
 C226 C 0.37256 0.56963 -0.25000
 C227 C 0.39145 0.60224 -0.20415
 N228 N 0.38441 0.65116 -0.20346
 H229 H 0.32640 0.77515 -0.29896
 H230 H 0.37767 0.53060 -0.25183
 C231 C -0.15613 1.13872 -0.29737
 C232 C -0.13723 1.17137 -0.25169
 N233 N -0.14281 1.22057 -0.25482
 C234 C -0.16626 1.23865 -0.30206
 C235 C -0.18518 1.20598 -0.34787
 N236 N -0.17969 1.15669 -0.34380
 N237 N -0.14978 1.08981 -0.29689
 C238 C -0.12511 1.07199 -0.25335
 C239 C -0.10607 1.10446 -0.20762
 N240 N -0.11276 1.15351 -0.20743
 H241 H -0.16997 1.27805 -0.30407
 H242 H -0.12029 1.03287 -0.25478
 C243 C 0.64316 0.69140 -0.27148
 C244 C 0.64431 0.64017 -0.26039
 N245 N 0.66968 0.61474 -0.28994
 C246 C 0.69367 0.63800 -0.33168
 C247 C 0.69164 0.68895 -0.34707
 N248 N 0.66644 0.71443 -0.31557
 N249 N 0.61822 0.71698 -0.23984
 C250 C 0.59406 0.69344 -0.19872
 C251 C 0.59431 0.64184 -0.19111
 N252 N 0.61960 0.61648 -0.22186
 H253 H 0.71325 0.61634 -0.35543
 H254 H 0.57418 0.71448 -0.17500
 C255 C 0.14451 1.18977 -0.27300
 C256 C 0.14573 1.13861 -0.26121
 N257 N 0.17098 1.11301 -0.29092
 C258 C 0.19480 1.13602 -0.33348
 C259 C 0.19269 1.18688 -0.34952
 N260 N 0.16761 1.21253 -0.31789
 N261 N 0.11970 1.21554 -0.24123
 C262 C 0.09571 1.19223 -0.19930
 C263 C 0.09600 1.14068 -0.19099
 N264 N 0.12118 1.11515 -0.22186
 H265 H 0.21430 1.11424 -0.35729
 H266 H 0.07590 1.21340 -0.17552
 C267 C 0.35565 0.31008 -0.26962
 C268 C 0.35829 0.36186 -0.27002
 N269 N 0.33606 0.38830 -0.30938
 C270 C 0.31155 0.36531 -0.34962
 C271 C 0.30960 0.31340 -0.35229
 N272 N 0.33172 0.28697 -0.31173
 N273 N 0.37761 0.28382 -0.22881
 C274 C 0.40238 0.30703 -0.18927
 C275 C 0.40583 0.35874 -0.19245
 N276 N 0.38351 0.38486 -0.23255
 H277 H 0.29456 0.38740 -0.38171
 H278 H 0.41980 0.28530 -0.15791
 C279 C -0.14522 0.81260 -0.26706
 C280 C -0.14212 0.86434 -0.26847
 N281 N -0.16416 0.89092 -0.30819
 C282 C -0.18892 0.86808 -0.34784
 C283 C -0.19129 0.81618 -0.34953
 N284 N -0.16937 0.78965 -0.30859
 N285 N -0.12347 0.78618 -0.22591
 C286 C -0.09846 0.80918 -0.18698
 C287 C -0.09453 0.86079 -0.19117
 N288 N -0.11663 0.88711 -0.23160
 H289 H -0.20574 0.89023 -0.38033
 H290 H -0.08123 0.78731 -0.15527
 C291 C 0.34055 0.63668 0.29295
 C292 C 0.35986 0.66963 0.24870
 N293 N 0.35464 0.71888 0.25370
 C294 C 0.33119 0.73671 0.30148
 C295 C 0.31190 0.70374 0.34598
 N296 N 0.31701 0.65441 0.33998
 N297 N 0.34653 0.58767 0.29067
 C298 C 0.37125 0.57003 0.24679
 C299 C 0.39075 0.60281 0.20260
 N300 N 0.38442 0.65197 0.20413
 H301 H 0.32779 0.77615 0.30501
 H302 H 0.37582 0.53082 0.24689
 C303 C -0.16027 1.14129 0.28420
 C304 C -0.13776 1.17413 0.24874
 N305 N -0.14000 1.22338 0.26159
 C306 C -0.16349 1.24133 0.30906
 C307 C -0.18610 1.20848 0.34500
 N308 N -0.18398 1.15918 0.33063
 N309 N -0.15705 1.09190 0.27484
 C310 C -0.13207 1.07377 0.23227
 C311 C -0.10952 1.10649 0.19661
 N312 N -0.11305 1.15606 0.20521
 H313 H -0.16430 1.28076 0.31885
 H314 H -0.12966 1.03419 0.22678
 C315 C 0.65902 0.36254 0.29269
 C316 C 0.64024 0.32967 0.24712
 N317 N 0.64606 0.28054 0.25032
 C318 C 0.66960 0.26275 0.29757
 C319 C 0.68836 0.29564 0.34340
 N320 N 0.68265 0.34486 0.33920
 N321 N 0.65244 0.41138 0.29212
 C322 C 0.62764 0.42889 0.24867
 C323 C 0.60867 0.39618 0.20316
 N324 N 0.61561 0.34721 0.20300
 H325 H 0.67348 0.22339 0.29965
 H326 H 0.62261 0.46795 0.25011
 C327 C 0.15693 0.86081 0.29704
 C328 C 0.13797 0.82831 0.25128
 N329 N 0.14346 0.77908 0.25419
 C330 C 0.16687 0.76083 0.30134
 C331 C 0.18584 0.79336 0.34728
 N332 N 0.18045 0.84268 0.34339
 N333 N 0.15067 0.90976 0.29679
 C334 C 0.12601 0.92774 0.25340
 C335 C 0.10690 0.89540 0.20761
 N336 N 0.11351 0.84633 0.20718
 H337 H 0.17050 0.72140 0.30322
 H338 H 0.12125 0.96688 0.25500
   
