data_POSCAR
  _audit_creation_date              2014-09-24
  _audit_creation_method            'ToBaCCo'
  _symmetry_space_group_name_H-M    'P1'
  _symmetry_Int_Tables_number       1
  _symmetry_cell_setting            triclinic
  loop_
  _symmetry_equiv_pos_as_xyz
 x,y,z
_cell_length_a 40.5940
_cell_length_b 40.4914
_cell_length_c 41.1464
_cell_angle_alpha 90.194400
_cell_angle_beta 90.374400
_cell_angle_gamma 90.016600
loop_
  _atom_site_label
  _atom_site_type_symbol
  _atom_site_fract_x
  _atom_site_fract_y
  _atom_site_fract_z
C1 C 0.33252 0.38146 1.35415
 C2 C 0.35591 0.38144 1.32918
 C3 C 0.37878 0.35622 1.32718
 C4 C 0.37874 0.33073 1.35024
 C5 C 0.35596 0.33107 1.37498
 C6 C 0.33236 0.35624 1.37661
 C7 C 0.30655 0.40199 1.36139
 N8 N 0.29001 0.38946 1.38736
 C9 C 0.30598 0.36141 1.39674
 C10 C 0.36175 0.30381 1.39393
 N11 N 0.38738 0.28638 1.38121
 C12 C 0.39764 0.30274 1.35416
 C13 C 0.39765 0.36208 1.30017
 N14 N 0.38673 0.39017 1.28553
 C15 C 0.36116 0.40212 1.30325
 H16 H 0.29939 0.42345 1.34745
 H17 H 0.29938 0.34585 1.41700
 H18 H 0.34739 0.29684 1.41487
 H19 H 0.41809 0.29566 1.33891
 H20 H 0.41791 0.34693 1.29192
 H21 H 0.34675 0.42378 1.29731
 C22 C 1.16372 0.61676 0.86495
 C23 C 1.14056 0.61757 0.83965
 C24 C 1.11527 0.64043 0.84009
 C25 C 1.11324 0.66318 0.86586
 C26 C 1.13630 0.66241 0.89067
 C27 C 1.16179 0.63897 0.89025
 C28 C 1.19123 0.59781 0.86995
 N29 N 1.20664 0.60770 0.89794
 C30 C 1.18848 0.63318 0.91035
 C31 C 1.12947 0.68829 0.91117
 N32 N 1.10277 0.70531 0.89963
 C33 C 1.09280 0.68961 0.87177
 C34 C 1.09733 0.63606 0.81179
 N35 N 1.11151 0.61138 0.79430
 C36 C 1.13792 0.59997 0.81120
 H37 H 1.19959 0.57902 0.85324
 H38 H 1.19375 0.64677 0.93242
 H39 H 1.14417 0.69443 0.93229
 H40 H 1.07265 0.69679 0.85606
 H41 H 1.07621 0.65038 0.80401
 H42 H 1.15419 0.58042 0.80320
 C43 C 0.66185 -0.10996 0.13419
 C44 C 0.63871 -0.11089 0.15925
 C45 C 0.61425 -0.13469 0.15914
 C46 C 0.61299 -0.15821 0.13398
 C47 C 0.63600 -0.15730 0.10946
 C48 C 0.66062 -0.13293 0.10950
 C49 C 0.68904 -0.09057 0.12916
 N50 N 0.70491 -0.10098 0.10179
 C51 C 0.68730 -0.12716 0.08976
 C52 C 0.63034 -0.18417 0.08979
 N53 N 0.60444 -0.20196 0.10161
 C54 C 0.59370 -0.18572 0.12874
 C55 C 0.59640 -0.13047 0.18726
 N56 N 0.60977 -0.10495 0.20438
 C57 C 0.63563 -0.09287 0.18739
 H58 H 0.69689 -0.07112 0.14548
 H59 H 0.69307 -0.14149 0.06836
 H60 H 0.64486 -0.19003 0.06866
 H61 H 0.57432 -0.19369 0.14478
 H62 H 0.57601 -0.14556 0.19526
 H63 H 0.65132 -0.07268 0.19518
 C64 C -0.16365 1.11504 -0.35998
 C65 C -0.14086 1.11467 -0.33413
 C66 C -0.11695 1.13897 -0.33193
 C67 C -0.11535 1.16387 -0.35549
 C68 C -0.13743 1.16385 -0.38107
 C69 C -0.16202 1.13967 -0.38302
 C70 C -0.19083 1.09599 -0.36748
 N71 N -0.20623 1.10896 -0.39415
 C72 C -0.18835 1.13566 -0.40372
 C73 C -0.13055 1.19081 -0.39997
 N74 N -0.10494 1.20781 -0.38634
 C75 C -0.09571 1.19140 -0.35885
 C76 C -0.09916 1.13332 -0.30400
 N77 N -0.11167 1.10627 -0.28890
 C78 C -0.13722 1.09471 -0.30728
 H79 H -0.19965 1.07547 -0.35319
 H80 H -0.19372 1.15128 -0.42435
 H81 H -0.14440 1.19810 -0.42132
 H82 H -0.07571 1.19833 -0.34270
 H83 H -0.07854 1.14795 -0.29543
 H84 H -0.15269 1.07390 -0.30118
 C85 C 0.65920 0.60996 0.63602
 C86 C 0.63512 0.60986 0.66017
 C87 C 0.60987 0.63282 0.65955
 C88 C 0.60868 0.65646 0.63460
 C89 C 0.63255 0.65647 0.61086
 C90 C 0.65804 0.63309 0.61152
 C91 C 0.68768 0.59214 0.63225
 N92 N 0.70416 0.60395 0.60608
 C93 C 0.68605 0.62901 0.59316
 C94 C 0.62683 0.68327 0.59137
 N95 N 0.59995 0.70015 0.60241
 C96 C 0.58882 0.68349 0.62905
 C97 C 0.59177 0.62828 0.68747
 N98 N 0.60580 0.60346 0.70491
 C99 C 0.63225 0.59207 0.68832
 H100 H 0.69600 0.57237 0.64791
 H101 H 0.69340 0.64422 0.57288
 H102 H 0.64253 0.69021 0.57145
 H103 H 0.56824 0.69039 0.64412
 H104 H 0.57096 0.64295 0.69529
 H105 H 0.64871 0.57276 0.69655
 C106 C 0.84238 0.39151 0.13686
 C107 C 0.86507 0.39233 0.16283
 C108 C 0.89000 0.36911 0.16424
 C109 C 0.89276 0.34496 0.13999
 C110 C 0.87070 0.34427 0.11443
 C111 C 0.84502 0.36741 0.11312
 C112 C 0.81404 0.40905 0.13032
 N113 N 0.79894 0.39577 0.10357
 C114 C 0.81803 0.37025 0.09302
 C115 C 0.87822 0.31706 0.09571
 N116 N 0.90410 0.30076 0.10962
 C117 C 0.91296 0.31794 0.13686
 C118 C 0.90654 0.37361 0.19306
 N119 N 0.89227 0.39887 0.20960
 C120 C 0.86693 0.41066 0.19118
 H121 H 0.80424 0.42861 0.14539
 H122 H 0.81298 0.35464 0.07220
 H123 H 0.86436 0.30888 0.07463
 H124 H 0.93278 0.31167 0.15341
 H125 H 0.92707 0.35893 0.20166
 H126 H 0.85008 0.42996 0.19854
 C127 C 0.33929 0.10993 0.85935
 C128 C 0.36307 0.10912 0.83467
 C129 C 0.38705 0.13333 0.83366
 C130 C 0.38772 0.15854 0.85700
 C131 C 0.36432 0.15944 0.88121
 C132 C 0.33969 0.13513 0.88213
 C133 C 0.31195 0.09087 0.86549
 N134 N 0.29525 0.10418 0.89106
 C135 C 0.31229 0.13138 0.90122
 C136 C 0.36998 0.18766 0.89925
 N137 N 0.39604 0.20391 0.88625
 C138 C 0.40696 0.18630 0.86036
 C139 C 0.40507 0.12832 0.80602
 N140 N 0.39256 0.10184 0.78973
 C141 C 0.36695 0.08973 0.80727
 H142 H 0.30403 0.06992 0.85102
 H143 H 0.30571 0.14732 0.92131
 H144 H 0.35551 0.19636 0.91956
 H145 H 0.42719 0.19338 0.84485
 H146 H 0.42535 0.14353 0.79798
 H147 H 0.35116 0.06950 0.79980
 C148 C 0.15824 0.88838 0.36607
 C149 C 0.13429 0.88941 0.34140
 C150 C 0.10831 0.86728 0.34156
 C151 C 0.10621 0.84353 0.36620
 C152 C 0.12990 0.84262 0.39047
 C153 C 0.15599 0.86531 0.39048
 C154 C 0.18701 0.90559 0.37102
 N155 N 0.20272 0.89362 0.39799
 C156 C 0.18346 0.86885 0.40993
 C157 C 0.12331 0.81563 0.40948
 N158 N 0.09638 0.79980 0.39722
 C159 C 0.08563 0.81693 0.37082
 C160 C 0.08975 0.87308 0.31406
 N161 N 0.10401 0.89800 0.29719
 C162 C 0.13133 0.90806 0.31365
 H163 H 0.19536 0.92546 0.35567
 H164 H 0.18923 0.85323 0.43042
 H165 H 0.13774 0.80768 0.43022
 H166 H 0.06550 0.80959 0.35500
 H167 H 0.06801 0.85958 0.30640
 H168 H 0.14789 0.92742 0.30591
 Zn169 Zn 0.01105 1.04203 -0.01828
 Zn170 Zn -0.02445 0.97678 -0.02258
 Zn171 Zn 0.04066 0.98233 0.01210
 Zn172 Zn -0.01848 1.01314 0.04081
 O173 O 0.00213 1.00350 0.00287
 O174 O -0.00874 1.04365 -0.05697
 O175 O -0.00579 0.93715 -0.03128
 O176 O 0.07593 1.00277 -0.00417
 O177 O -0.03433 0.99551 -0.06118
 O178 O 0.05420 1.04779 -0.02588
 O179 O 0.04153 0.94194 -0.00467
 O180 O 0.00249 0.99756 0.07568
 O181 O -0.06362 0.96811 -0.00367
 O182 O 0.04797 0.97667 0.05483
 O183 O -0.05876 0.99619 0.04233
 O184 O -0.02329 1.05638 0.04780
 O185 O -0.00264 1.07814 0.00312
 C186 C -0.02687 1.02361 -0.07275
 C187 C 0.02172 0.92523 -0.02211
 C188 C 0.07894 1.02969 -0.01957
 C189 C 0.02994 0.98305 0.07914
 C190 C -0.07539 0.97791 0.02327
 C191 C -0.01637 1.08129 0.03056
 Zn192 Zn 0.48103 0.00536 0.45786
 Zn193 Zn 0.47556 -0.02746 0.52336
 Zn194 Zn 0.54077 -0.02187 0.48992
 Zn195 Zn 0.50896 0.03819 0.51631
 O196 O 0.50146 -0.00154 0.49693
 O197 O 0.44167 -0.01386 0.45616
 O198 O 0.49493 -0.06635 0.53364
 O199 O 0.54900 -0.02902 0.44778
 O200 O 0.43684 -0.03789 0.50415
 O201 O 0.50358 -0.01068 0.42407
 O202 O 0.54246 -0.06148 0.50809
 O203 O 0.55171 0.04640 0.52363
 O204 O 0.46530 -0.00727 0.56132
 O205 O 0.57527 0.00050 0.50603
 O206 O 0.48981 0.04102 0.55484
 O207 O 0.49317 0.07226 0.49364
 O208 O 0.47357 0.04819 0.44925
 C209 C 0.42528 -0.03094 0.47619
 C210 C 0.52276 -0.07802 0.52543
 C211 C 0.53171 -0.02422 0.42243
 C212 C 0.57715 0.02879 0.51923
 C213 C 0.47242 0.02153 0.57162
 C214 C 0.47895 0.07391 0.46617
 Zn215 Zn 1.01034 0.46057 0.48372
 Zn216 Zn 1.04089 0.52145 0.51010
 Zn217 Zn 0.97393 0.52487 0.47877
 Zn218 Zn 0.98370 0.49144 0.54343
 O219 O 1.00209 0.49968 0.50393
 O220 O 1.05311 0.45389 0.47534
 O221 O 1.04089 0.56055 0.49087
 O222 O 0.96235 0.50455 0.44115
 O223 O 1.07561 0.50007 0.49382
 O224 O 0.98961 0.45749 0.44573
 O225 O 0.99177 0.56409 0.46757
 O226 O 0.94407 0.50964 0.54680
 O227 O 1.05007 0.52965 0.55201
 O228 O 0.93600 0.53436 0.49952
 O229 O 1.00697 0.50806 0.57669
 O230 O 0.97789 0.44823 0.55152
 O231 O 0.99664 0.42574 0.50623
 C232 C 1.07810 0.47218 0.47996
 C233 C 1.01995 0.57629 0.47398
 C234 C 0.97035 0.47635 0.43003
 C235 C 0.92628 0.52685 0.52787
 C236 C 1.03408 0.52362 0.57772
 C237 C 0.98345 0.42305 0.53393
 Zn238 Zn 0.48238 0.49159 0.95941
 Zn239 Zn 0.54213 0.51898 0.99085
 Zn240 Zn 0.47697 0.52565 1.02419
 Zn241 Zn 0.51020 0.45928 1.01796
 O242 O 0.50281 0.49894 0.99825
 O243 O 0.50431 0.50780 0.92546
 O244 O 0.54424 0.55859 1.00904
 O245 O 0.43796 0.53582 1.00508
 O246 O 0.55005 0.52606 0.94868
 O247 O 0.44280 0.50992 0.95791
 O248 O 0.49666 0.56464 1.03422
 O249 O 0.49061 0.45708 1.05644
 O250 O 0.57651 0.49666 1.00684
 O251 O 0.46677 0.50593 1.06217
 O252 O 0.55306 0.45131 1.02567
 O253 O 0.49487 0.42467 0.99512
 O254 O 0.47558 0.44882 0.95085
 C255 C 0.53236 0.52141 0.92354
 C256 C 0.52478 0.57572 1.02617
 C257 C 0.42629 0.52748 0.97749
 C258 C 0.47339 0.47721 1.07285
 C259 C 0.57847 0.46881 1.02072
 C260 C 0.48105 0.42301 0.96742
 C261 C 1.20297 0.42798 0.42796
 C262 C 1.21089 0.39419 0.43151
 C263 C 1.24047 0.38178 0.41888
 C264 C 1.26182 0.40205 0.40081
 C265 C 1.25294 0.43535 0.39625
 C266 C 1.22424 0.44820 0.40988
 C267 C 1.17155 0.44040 0.44250
 C268 C 1.16328 0.47417 0.44370
 C269 C 1.13326 0.48440 0.45667
 C270 C 1.11057 0.46122 0.46825
 C271 C 1.11888 0.42762 0.46799
 C272 C 1.14948 0.41717 0.45599
 C273 C 1.18871 0.37271 0.44662
 C274 C 1.15831 0.38380 0.45785
 H275 H 1.19456 0.34672 0.44903
 H276 H 1.14166 0.36605 0.46860
 H277 H 1.24573 0.35575 0.42169
 H278 H 1.26861 0.45203 0.38291
 H279 H 1.12740 0.51050 0.45693
 H280 H 1.10170 0.40968 0.47763
 H281 H 1.21886 0.47389 0.40549
 H282 H 1.17974 0.49305 0.43499
 C283 C 0.29665 0.56919 0.93340
 C284 C 0.28267 0.59743 0.94808
 C285 C 0.25240 0.61000 0.93662
 C286 C 0.23542 0.59477 0.91042
 C287 C 0.24920 0.56577 0.89714
 C288 C 0.27908 0.55326 0.90834
 C289 C 0.32965 0.55745 0.94507
 C290 C 0.34636 0.53095 0.93035
 C291 C 0.37739 0.52142 0.94130
 C292 C 0.39278 0.53782 0.96737
 C293 C 0.37628 0.56409 0.98258
 C294 C 0.34504 0.57428 0.97131
 C295 C 0.29911 0.61306 0.97400
 C296 C 0.32944 0.60155 0.98555
 H297 H 0.28838 0.63459 0.98552
 H298 H 0.34113 0.61456 1.00560
 H299 H 0.24286 0.63213 0.94785
 H300 H 0.23700 0.55192 0.87813
 H301 H 0.38943 0.50100 0.92914
 H302 H 0.38806 0.57712 1.00256
 H303 H 0.28783 0.53095 0.89695
 H304 H 0.33625 0.51745 0.90999
 C305 C -0.20507 0.93729 0.06692
 C306 C -0.21925 0.90903 0.05225
 C307 C -0.24948 0.89659 0.06354
 C308 C -0.26628 0.91189 0.08958
 C309 C -0.25226 0.94082 0.10298
 C310 C -0.22237 0.95323 0.09194
 C311 C -0.17212 0.94893 0.05531
 C312 C -0.15527 0.97563 0.06978
 C313 C -0.12423 0.98494 0.05894
 C314 C -0.10901 0.96813 0.03322
 C315 C -0.12574 0.94175 0.01821
 C316 C -0.15696 0.93181 0.02933
 C317 C -0.20305 0.89321 0.02652
 C318 C -0.17273 0.90450 0.01516
 H319 H -0.21393 0.87166 0.01503
 H320 H -0.16122 0.89130 -0.00471
 H321 H -0.25915 0.87452 0.05217
 H322 H -0.26417 0.95462 0.12204
 H323 H -0.11202 1.00546 0.07094
 H324 H -0.11413 0.92841 -0.00153
 H325 H -0.21336 0.97544 0.10344
 H326 H -0.16527 0.98944 0.08985
 C327 C 0.70332 0.07739 0.56560
 C328 C 0.72325 0.05512 0.58337
 C329 C 0.75318 0.06586 0.59717
 C330 C 0.76473 0.09829 0.59217
 C331 C 0.74548 0.11958 0.57276
 C332 C 0.71523 0.10945 0.55997
 C333 C 0.67065 0.06564 0.55299
 C334 C 0.64709 0.08707 0.53915
 C335 C 0.61675 0.07500 0.52823
 C336 C 0.60946 0.04128 0.53019
 C337 C 0.63263 0.01971 0.54400
 C338 C 0.66270 0.03179 0.55625
 C339 C 0.71349 0.02211 0.58666
 C340 C 0.68427 0.01051 0.57269
 H341 H 0.72893 0.00482 0.59983
 H342 H 0.67805 -0.01535 0.57553
 H343 H 0.76799 0.04840 0.61074
 H344 H 0.75289 0.14479 0.56834
 H345 H 0.59898 0.09207 0.51799
 H346 H 0.62667 -0.00628 0.54637
 H347 H 0.70165 0.12705 0.54553
 H348 H 0.65130 0.11329 0.53722
 C349 C 0.42731 0.19871 0.41983
 C350 C 0.43086 0.20600 0.38647
 C351 C 0.41843 0.23579 0.37387
 C352 C 0.40042 0.25779 0.39362
 C353 C 0.39574 0.24936 0.42646
 C354 C 0.40921 0.22057 0.43942
 C355 C 0.44183 0.16729 0.43260
 C356 C 0.44338 0.15994 0.46601
 C357 C 0.45626 0.12993 0.47669
 C358 C 0.46743 0.10630 0.45438
 C359 C 0.46691 0.11368 0.42109
 C360 C 0.45503 0.14435 0.41016
 C361 C 0.44576 0.18299 0.36569
 C362 C 0.45677 0.15246 0.37713
 H363 H 0.44816 0.18829 0.34002
 H364 H 0.46732 0.13517 0.35994
 H365 H 0.42134 0.24081 0.34823
 H366 H 0.38255 0.26553 0.44279
 H367 H 0.45673 0.12483 0.50252
 H368 H 0.47627 0.09578 0.40380
 H369 H 0.40468 0.21564 0.46475
 H370 H 0.43506 0.17713 0.48428
 C371 C 0.93526 0.29603 0.57718
 C372 C 0.93816 0.28847 0.61059
 C373 C 0.92587 0.25838 0.62246
 C374 C 0.90855 0.23639 0.60189
 C375 C 0.90472 0.24494 0.56893
 C376 C 0.91810 0.27401 0.55671
 C377 C 0.94927 0.32794 0.56528
 C378 C 0.95120 0.33576 0.53203
 C379 C 0.96320 0.36634 0.52213
 C380 C 0.97317 0.39005 0.54506
 C381 C 0.97244 0.38216 0.57823
 C382 C 0.96136 0.35096 0.58841
 C383 C 0.95213 0.31155 0.63210
 C384 C 0.96267 0.34247 0.62138
 H385 H 0.95406 0.30602 0.65780
 H386 H 0.97240 0.35982 0.63911
 H387 H 0.92817 0.25320 0.64816
 H388 H 0.89215 0.22872 0.55200
 H389 H 0.96385 0.37180 0.49638
 H390 H 0.98089 0.40013 0.59602
 H391 H 0.91413 0.27907 0.53127
 H392 H 0.94378 0.31858 0.51329
 C393 C 0.06576 0.79476 -0.06173
 C394 C 0.05172 0.78108 -0.09024
 C395 C 0.06360 0.75097 -0.10271
 C396 C 0.08964 0.73375 -0.08723
 C397 C 0.10218 0.74714 -0.05793
 C398 C 0.09054 0.77693 -0.04549
 C399 C 0.05381 0.82780 -0.05022
 C400 C 0.06798 0.84437 -0.02345
 C401 C 0.05704 0.87563 -0.01440
 C402 C 0.03151 0.89132 -0.03152
 C403 C 0.01670 0.87485 -0.05791
 C404 C 0.02799 0.84345 -0.06763
 C405 C 0.02607 0.79769 -0.10631
 C406 C 0.01427 0.82803 -0.09509
 H407 H 0.01501 0.78715 -0.12803
 H408 H -0.00547 0.83990 -0.10851
 H409 H 0.05257 0.74167 -0.12486
 H410 H 0.12123 0.73500 -0.04406
 H411 H 0.06885 0.88765 0.00616
 H412 H -0.00286 0.88686 -0.07149
 H413 H 0.10146 0.78552 -0.02306
 H414 H 0.08794 0.83401 -0.00944
 C415 C 0.57054 0.70596 1.06580
 C416 C 0.55311 0.72244 1.09062
 C417 C 0.56416 0.75331 1.10222
 C418 C 0.59265 0.76852 1.08943
 C419 C 0.60901 0.75205 1.06392
 C420 C 0.59823 0.72152 1.05239
 C421 C 0.55880 0.67258 1.05489
 C422 C 0.57560 0.65371 1.03150
 C423 C 0.56422 0.62259 1.02246
 C424 C 0.53569 0.60918 1.03629
 C425 C 0.51852 0.62781 1.05955
 C426 C 0.53006 0.65924 1.06913
 C427 C 0.52478 0.70797 1.10377
 C428 C 0.51339 0.67718 1.09312
 H429 H 0.51119 0.72061 1.12267
 H430 H 0.49141 0.66710 1.10412
 H431 H 0.55009 0.76522 1.12111
 H432 H 0.63084 0.76198 1.05281
 H433 H 0.57801 0.60896 1.00439
 H434 H 0.49655 0.61768 1.07055
 H435 H 0.61221 0.71055 1.03298
 H436 H 0.59779 0.66224 1.02001
 C437 C 0.42314 0.43146 1.19702
 C438 C 0.42719 0.39743 1.20382
 C439 C 0.41518 0.38413 1.23287
 C440 C 0.39930 0.40417 1.25584
 C441 C 0.39568 0.43799 1.24923
 C442 C 0.40737 0.45149 1.22027
 C443 C 0.43590 0.44449 1.16535
 C444 C 0.43231 0.47770 1.15559
 C445 C 0.44447 0.48840 1.12566
 C446 C 0.46065 0.46637 1.10478
 C447 C 0.46432 0.43331 1.11436
 C448 C 0.45199 0.42224 1.14414
 C449 C 0.44320 0.37677 1.18163
 C450 C 0.45549 0.38894 1.15253
 H451 H 0.44637 0.35075 1.18687
 H452 H 0.46775 0.37191 1.13622
 H453 H 0.41781 0.35792 1.23730
 H454 H 0.38406 0.45424 1.26665
 H455 H 0.44122 0.51402 1.11888
 H456 H 0.47654 0.41588 1.09841
 H457 H 0.40392 0.47763 1.21667
 H458 H 0.42006 0.49573 1.17059
 C459 C 0.58006 -0.07016 0.29767
 C460 C 0.55616 -0.07857 0.27380
 C461 C 0.56607 -0.09072 0.24335
 C462 C 0.59958 -0.09357 0.23587
 C463 C 0.62319 -0.08449 0.25923
 C464 C 0.61366 -0.07310 0.28979
 C465 C 0.56849 -0.05799 0.33011
 C466 C 0.59014 -0.05146 0.35629
 C467 C 0.57813 -0.04040 0.38611
 C468 C 0.54432 -0.03516 0.39054
 C469 C 0.52253 -0.04159 0.36466
 C470 C 0.53427 -0.05348 0.33478
 C471 C 0.52260 -0.07421 0.28023
 C472 C 0.51192 -0.06148 0.30988
 H473 H 0.50430 -0.08037 0.26190
 H474 H 0.48570 -0.05827 0.31353
 H475 H 0.54778 -0.09715 0.22509
 H476 H 0.64919 -0.08657 0.25390
 H477 H 0.59542 -0.03581 0.40578
 H478 H 0.49628 -0.03820 0.36805
 H479 H 0.63298 -0.06642 0.30666
 H480 H 0.61636 -0.05516 0.35445
 C481 C -0.07742 1.06695 -0.19827
 C482 C -0.07261 1.10066 -0.20596
 C483 C -0.08421 1.11334 -0.23556
 C484 C -0.10033 1.09296 -0.25829
 C485 C -0.10500 1.05950 -0.25071
 C486 C -0.09376 1.04663 -0.22114
 C487 C -0.06472 1.05454 -0.16617
 C488 C -0.06883 1.02168 -0.15559
 C489 C -0.05656 1.01155 -0.12535
 C490 C -0.03973 1.03382 -0.10500
 C491 C -0.03555 1.06654 -0.11538
 C492 C -0.04799 1.07704 -0.14546
 C493 C -0.05611 1.12162 -0.18418
 C494 C -0.04392 1.11003 -0.15468
 H495 H -0.05239 1.14741 -0.19011
 H496 H -0.03120 1.12725 -0.13874
 H497 H -0.08090 1.13933 -0.24070
 H498 H -0.11695 1.04305 -0.26788
 H499 H -0.06021 0.98618 -0.11793
 H500 H -0.02286 1.08414 -0.09982
 H501 H -0.09790 1.02071 -0.21679
 H502 H -0.08156 1.00349 -0.17018
 C503 C 1.08209 0.57470 0.70128
 C504 C 1.05820 0.58171 0.72530
 C505 C 1.06794 0.59477 0.75556
 C506 C 1.10135 0.59982 0.76275
 C507 C 1.12499 0.59227 0.73921
 C508 C 1.11558 0.58007 0.70881
 C509 C 1.07067 0.56124 0.66913
 C510 C 1.09213 0.55579 0.64283
 C511 C 1.08024 0.54340 0.61330
 C512 C 1.04679 0.53571 0.60933
 C513 C 1.02521 0.54103 0.63534
 C514 C 1.03675 0.55423 0.66489
 C515 C 1.02489 0.57496 0.71924
 C516 C 1.01446 0.56106 0.68987
 H517 H 1.00662 0.58007 0.73768
 H518 H 0.98844 0.55596 0.68653
 H519 H 1.04969 0.60001 0.77398
 H520 H 1.15092 0.59604 0.74436
 H521 H 1.09733 0.53974 0.59350
 H522 H 0.99917 0.53578 0.63227
 H523 H 1.13493 0.57458 0.69180
 H524 H 1.11807 0.56137 0.64434
 C525 C 0.79927 0.57133 0.57552
 C526 C 0.77730 0.58591 0.55290
 C527 C 0.74601 0.59661 0.56301
 C528 C 0.73626 0.59321 0.59555
 C529 C 0.75845 0.57930 0.61791
 C530 C 0.78941 0.56850 0.60814
 C531 C 0.83216 0.55968 0.56378
 C532 C 0.85510 0.54384 0.58424
 C533 C 0.88536 0.53334 0.57232
 C534 C 0.89382 0.53832 0.53969
 C535 C 0.87113 0.55403 0.51897
 C536 C 0.84034 0.56451 0.53073
 C537 C 0.78673 0.58976 0.52043
 C538 C 0.81764 0.57949 0.50963
 H539 H 0.77000 0.60102 0.50308
 H540 H 0.82377 0.58314 0.48430
 H541 H 0.72911 0.60722 0.54545
 H542 H 0.75210 0.57714 0.64330
 H543 H 0.90228 0.52131 0.58895
 H544 H 0.87726 0.55784 0.49366
 H545 H 0.80521 0.55824 0.62666
 H546 H 0.85024 0.53907 0.60950
 C547 C 0.70636 0.42377 1.06574
 C548 C 0.72581 0.44669 1.08338
 C549 C 0.75640 0.43706 1.09642
 C550 C 0.76915 0.40521 1.09067
 C551 C 0.75038 0.38329 1.07135
 C552 C 0.71940 0.39225 1.05940
 C553 C 0.67305 0.43441 1.05384
 C554 C 0.64993 0.41225 1.04021
 C555 C 0.61909 0.42341 1.02970
 C556 C 0.61092 0.45694 1.03184
 C557 C 0.63358 0.47914 1.04563
 C558 C 0.66410 0.46798 1.05749
 C559 C 0.71497 0.47931 1.08724
 C560 C 0.68517 0.48994 1.07382
 H561 H 0.73003 0.49709 1.10033
 H562 H 0.67816 0.51557 1.07699
 H563 H 0.77081 0.45503 1.10991
 H564 H 0.75879 0.35847 1.06637
 H565 H 0.60170 0.40586 1.01948
 H566 H 0.62694 0.50497 1.04815
 H567 H 0.70617 0.37424 1.04500
 H568 H 0.65494 0.38617 1.03806
 C569 C 0.20574 1.06939 -0.07047
 C570 C 0.21477 1.10291 -0.06690
 C571 C 0.24510 1.11411 -0.07887
 C572 C 0.26612 1.09288 -0.09639
 C573 C 0.25604 1.05993 -0.10119
 C574 C 0.22658 1.04826 -0.08814
 C575 C 0.17369 1.05818 -0.05635
 C576 C 0.16443 1.02468 -0.05485
 C577 C 0.13397 1.01557 -0.04210
 C578 C 0.11179 1.03960 -0.03113
 C579 C 0.12102 1.07296 -0.03177
 C580 C 0.15212 1.08229 -0.04343
 C581 C 0.19299 1.12533 -0.05238
 C582 C 0.16199 1.11540 -0.04170
 H583 H 0.19968 1.15114 -0.04998
 H584 H 0.14574 1.13384 -0.03138
 H585 H 0.25130 1.13995 -0.07596
 H586 H 0.27136 1.04256 -0.11418
 H587 H 0.12738 0.98965 -0.04155
 H588 H 0.10423 1.09155 -0.02257
 H589 H 0.22032 1.02274 -0.09262
 H590 H 0.18047 1.00518 -0.06307
 C591 C 0.29534 -0.07591 0.43505
 C592 C 0.28401 -0.06469 0.40446
 C593 C 0.25313 -0.07465 0.39245
 C594 C 0.23271 -0.09616 0.41021
 C595 C 0.24430 -0.10708 0.44077
 C596 C 0.27495 -0.09714 0.45296
 C597 C 0.32867 -0.06479 0.44681
 C598 C 0.34230 -0.07428 0.47701
 C599 C 0.37357 -0.06331 0.48663
 C600 C 0.39207 -0.04268 0.46639
 C601 C 0.37862 -0.03305 0.43637
 C602 C 0.34729 -0.04381 0.42653
 C603 C 0.30366 -0.04376 0.38572
 C604 C 0.33462 -0.03360 0.39648
 H605 H 0.29502 -0.03516 0.36225
 H606 H 0.34888 -0.01748 0.38099
 H607 H 0.24580 -0.06602 0.36868
 H608 H 0.22968 -0.12298 0.45597
 H609 H 0.38331 -0.07109 0.50994
 H610 H 0.39253 -0.01700 0.42048
 H611 H 0.28217 -0.10642 0.47649
 H612 H 0.32928 -0.09013 0.49357
 C613 C 0.56562 -0.20872 0.56541
 C614 C 0.55074 -0.22271 0.59308
 C615 C 0.56180 -0.25332 0.60510
 C616 C 0.58770 -0.27078 0.58984
 C617 C 0.60097 -0.25705 0.56127
 C618 C 0.59023 -0.22675 0.54937
 C619 C 0.55449 -0.17529 0.55432
 C620 C 0.56975 -0.15839 0.52866
 C621 C 0.55913 -0.12707 0.51957
 C622 C 0.53289 -0.11160 0.53558
 C623 C 0.51731 -0.12821 0.56116
 C624 C 0.52826 -0.15971 0.57093
 C625 C 0.52496 -0.20598 0.60862
 C626 C 0.51372 -0.17537 0.59755
 H627 H 0.51325 -0.21673 0.62968
 H628 H 0.49371 -0.16352 0.61042
 H629 H 0.55027 -0.26287 0.62669
 H630 H 0.61981 -0.26940 0.54746
 H631 H 0.57162 -0.11493 0.49972
 H632 H 0.49724 -0.11635 0.57394
 H633 H 0.60160 -0.21802 0.52741
 H634 H 0.59026 -0.16858 0.51551
 C635 C 1.05932 0.70632 0.42861
 C636 C 1.09266 0.71514 0.43407
 C637 C 1.10447 0.74587 0.42383
 C638 C 1.08362 0.76856 0.40827
 C639 C 1.05050 0.75996 0.40307
 C640 C 1.03844 0.72929 0.41309
 C641 C 1.04794 0.67290 0.43965
 C642 C 1.01550 0.66115 0.43493
 C643 C 1.00631 0.62976 0.44583
 C644 C 1.02918 0.60939 0.46177
 C645 C 1.06151 0.62087 0.46634
 C646 C 1.07102 0.65213 0.45542
 C647 C 1.11421 0.69326 0.44965
 C648 C 1.10359 0.66250 0.46021
 H649 H 1.13972 0.70006 0.45383
 H650 H 1.12123 0.64651 0.47224
 H651 H 1.13024 0.75181 0.42748
 H652 H 1.03376 0.77710 0.39143
 H653 H 0.98121 0.62151 0.44194
 H654 H 1.07957 0.60537 0.47842
 H655 H 1.01276 0.72410 0.40851
 H656 H 0.99690 0.67576 0.42289
 C657 C -0.05680 1.20974 0.07828
 C658 C -0.07326 1.23064 0.05605
 C659 C -0.08652 1.26084 0.06666
 C660 C -0.08237 1.27160 0.09908
 C661 C -0.06406 1.25143 0.12041
 C662 C -0.05174 1.22096 0.11030
 C663 C -0.04513 1.17670 0.06661
 C664 C -0.03285 1.15229 0.08782
 C665 C -0.02332 1.12146 0.07593
 C666 C -0.02508 1.11444 0.04261
 C667 C -0.03702 1.13856 0.02120
 C668 C -0.04795 1.16921 0.03307
 C669 C -0.07596 1.22150 0.02325
 C670 C -0.06287 1.19180 0.01187
 H671 H -0.08808 1.23771 0.00602
 H672 H -0.06534 1.18600 -0.01376
 H673 H -0.09909 1.27638 0.04919
 H674 H -0.06022 1.25827 0.14556
 H675 H -0.01447 1.10298 0.09285
 H676 H -0.03923 1.13288 -0.00450
 H677 H -0.03822 1.20661 0.12795
 H678 H -0.03126 1.15618 0.11372
 C679 C 0.43426 0.29708 0.91732
 C680 C 0.42515 0.27297 0.94044
 C681 C 0.41204 0.24254 0.93008
 C682 C 0.40888 0.23527 0.89687
 C683 C 0.41882 0.25877 0.87403
 C684 C 0.43119 0.28933 0.88401
 C685 C 0.44709 0.32967 0.92936
 C686 C 0.45413 0.35624 0.90847
 C687 C 0.46540 0.38632 0.92091
 C688 C 0.47041 0.39062 0.95440
 C689 C 0.46369 0.36428 0.97543
 C690 C 0.45151 0.33416 0.96325
 C691 C 0.42960 0.27918 0.97369
 C692 C 0.44296 0.30891 0.98482
 H693 H 0.42293 0.26063 0.99140
 H694 H 0.44612 0.31241 1.01078
 H695 H 0.40497 0.22414 0.94780
 H696 H 0.41654 0.25361 0.84827
 H697 H 0.47025 0.40634 0.90421
 H698 H 0.46690 0.36759 1.00142
 H699 H 0.43843 0.30635 0.86527
 H700 H 0.45056 0.35456 0.88253
 C701 C 0.57795 0.56900 0.79865
 C702 C 0.55359 0.57619 0.77489
 C703 C 0.56282 0.58839 0.74431
 C704 C 0.59615 0.59250 0.73664
 C705 C 0.62022 0.58486 0.75999
 C706 C 0.61134 0.57342 0.79063
 C707 C 0.56711 0.55644 0.83111
 C708 C 0.58922 0.55066 0.85705
 C709 C 0.57789 0.53913 0.88689
 C710 C 0.54434 0.53270 0.89159
 C711 C 0.52209 0.53836 0.86593
 C712 C 0.53313 0.55063 0.83602
 C713 C 0.52027 0.57055 0.78155
 C714 C 0.51031 0.55765 0.81130
 H715 H 0.50162 0.57583 0.76334
 H716 H 0.48425 0.55343 0.81513
 H717 H 0.54420 0.59379 0.72610
 H718 H 0.64608 0.58801 0.75456
 H719 H 0.59552 0.53515 0.90636
 H720 H 0.49601 0.53402 0.86950
 H721 H 0.63102 0.56785 0.80744
 H722 H 0.61528 0.55526 0.85502
 C723 C 0.42532 0.07019 0.69609
 C724 C 0.41060 0.04727 0.71746
 C725 C 0.39960 0.05772 0.74825
 C726 C 0.40299 0.09087 0.75802
 C727 C 0.41680 0.11352 0.73628
 C728 C 0.42780 0.10345 0.70586
 C729 C 0.43754 0.05810 0.66388
 C730 C 0.45377 0.07884 0.64176
 C731 C 0.46488 0.06665 0.61216
 C732 C 0.46021 0.03342 0.60349
 C733 C 0.44412 0.01237 0.62538
 C734 C 0.43301 0.02443 0.65557
 C735 C 0.40700 0.01418 0.70794
 C736 C 0.41774 0.00307 0.67759
 H737 H 0.39561 -0.00342 0.72417
 H738 H 0.41428 -0.02274 0.67139
 H739 H 0.38891 0.03998 0.76477
 H740 H 0.41882 0.13939 0.74260
 H741 H 0.47718 0.08357 0.59591
 H742 H 0.44053 -0.01341 0.61909
 H743 H 0.43798 0.12226 0.69044
 H744 H 0.45842 0.10456 0.64679
 C745 C 0.06985 0.93618 0.20659
 C746 C 0.10390 0.93077 0.21199
 C747 C 0.11503 0.91881 0.24211
 C748 C 0.09259 0.91094 0.26667
 C749 C 0.05884 0.91532 0.26096
 C750 C 0.04754 0.92796 0.23141
 C751 C 0.05903 0.94953 0.17433
 C752 C 0.02614 0.95830 0.16751
 C753 C 0.01707 0.96979 0.13683
 C754 C 0.04043 0.97263 0.11202
 C755 C 0.07344 0.96477 0.11875
 C756 C 0.08295 0.95378 0.14979
 C757 C 0.12652 0.93659 0.18707
 C758 C 0.11620 0.94730 0.15647
 H759 H 0.15256 0.93222 0.19111
 H760 H 0.13460 0.95085 0.13784
 H761 H 0.14111 0.91472 0.24622
 H762 H 0.04118 0.90928 0.27963
 H763 H -0.00854 0.97587 0.13235
 H764 H 0.09177 0.96743 0.09990
 H765 H 0.02127 0.93066 0.22840
 H766 H 0.00704 0.95660 0.18552
 C767 C 0.92197 0.42871 0.30512
 C768 C 0.90765 0.45196 0.28364
 C769 C 0.89734 0.44203 0.25233
 C770 C 0.90119 0.40911 0.24208
 C771 C 0.91441 0.38607 0.26393
 C772 C 0.92461 0.39560 0.29491
 C773 C 0.93392 0.44035 0.33774
 C774 C 0.94990 0.41931 0.35995
 C775 C 0.96134 0.43126 0.38968
 C776 C 0.95715 0.46451 0.39839
 C777 C 0.94095 0.48577 0.37660
 C778 C 0.92961 0.47399 0.34624
 C779 C 0.90400 0.48493 0.29350
 C780 C 0.91454 0.49565 0.32418
 H781 H 0.89289 0.50277 0.27721
 H782 H 0.91121 0.52141 0.33057
 H783 H 0.88707 0.46003 0.23568
 H784 H 0.91673 0.36035 0.25712
 H785 H 0.97360 0.41418 0.40596
 H786 H 0.93771 0.51157 0.38296
 H787 H 0.93449 0.37654 0.31036
 H788 H 0.95424 0.39357 0.35485
   
