data_POSCAR
  _audit_creation_date              2014-09-24
  _audit_creation_method            'ToBaCCo'
  _symmetry_space_group_name_H-M    'P1'
  _symmetry_Int_Tables_number       1
  _symmetry_cell_setting            triclinic
  loop_
  _symmetry_equiv_pos_as_xyz
 x,y,z
_cell_length_a 13.3580
_cell_length_b 13.3265
_cell_length_c 14.9661
_cell_angle_alpha 91.557500
_cell_angle_beta 88.730000
_cell_angle_gamma 121.934800
loop_
  _atom_site_label
  _atom_site_type_symbol
  _atom_site_fract_x
  _atom_site_fract_y
  _atom_site_fract_z
O1 O 0.29129 0.46336 0.33208
 O2 O 0.16635 0.55841 0.37175
 C3 C 0.14801 0.64274 0.37924
 O4 O 0.18139 0.72255 0.32080
 O5 O 0.40837 0.87572 0.32570
 C6 C 0.50838 0.89187 0.34457
 O7 O 0.55165 0.83675 0.30612
 O8 O 0.47109 0.61947 0.35020
 C9 C 0.38794 0.51796 0.37286
 O10 O 0.24137 0.45508 0.16053
 O11 O 0.09773 0.52999 0.20434
 C12 C 0.10727 0.59920 0.14421
 O13 O 0.19718 0.70300 0.13826
 O14 O 0.42173 0.86456 0.14527
 C15 C 0.49592 0.84641 0.10591
 O16 O 0.52045 0.77235 0.13203
 O17 O 0.43910 0.55364 0.17268
 C18 C 0.34254 0.47651 0.13522
 Cr19 Cr 0.20413 0.50748 0.26625
 Cr20 Cr 0.30326 0.78719 0.23288
 Cr21 Cr 0.48975 0.69419 0.24044
 O22 O 0.33363 0.66398 0.24633
 O23 O 0.46488 0.29097 0.67517
 O24 O 0.54923 0.15823 0.63737
 C25 C 0.63649 0.14884 0.61731
 O26 O 0.72833 0.19369 0.66510
 O27 O 0.86626 0.41984 0.65291
 C28 C 0.88620 0.52268 0.64345
 O29 O 0.83893 0.56577 0.69312
 O30 O 0.61586 0.47689 0.65805
 C31 C 0.51550 0.38970 0.63557
 O32 O 0.46964 0.25218 0.85016
 O33 O 0.54771 0.11302 0.81397
 C34 C 0.63689 0.12936 0.85657
 O35 O 0.74032 0.21718 0.84419
 O36 O 0.88806 0.44577 0.83171
 C37 C 0.85739 0.49913 0.88681
 O38 O 0.77969 0.52267 0.86970
 O39 O 0.56157 0.44750 0.83520
 C40 C 0.48620 0.35178 0.87334
 Cr41 Cr 0.51377 0.20847 0.74447
 Cr42 Cr 0.80095 0.32020 0.74879
 Cr43 Cr 0.69847 0.49794 0.76351
 O44 O 0.67070 0.34182 0.75247
 N45 N 0.71917 0.07136 0.51001
 N46 N 0.68888 0.00516 0.43618
 C47 C 0.57858 -0.02393 0.41617
 C48 C 0.54163 0.02604 0.48049
 N49 N 0.63189 0.08432 0.53789
 H50 H 0.45647 0.01733 0.48680
 N51 N 0.98745 0.69591 0.54767
 N52 N 1.05755 0.73073 0.47609
 C53 C 1.08028 0.64508 0.45669
 C54 C 1.02267 0.55735 0.51810
 N55 N 0.96571 0.59195 0.57353
 H56 H 1.01906 0.47432 0.52039
 N57 N 0.34685 0.31479 0.53969
 N58 N 0.31102 0.34567 0.46994
 C59 C 0.39874 0.45538 0.44776
 C60 C 0.49051 0.49162 0.50695
 N61 N 0.45388 0.40074 0.56321
 H62 H 0.57473 0.57452 0.50877
 N63 N 0.70033 0.01446 0.93352
 N64 N 0.66478 -0.06272 0.99879
 C65 C 0.55978 -0.08221 1.02787
 C66 C 0.53137 -0.01514 0.97785
 N67 N 0.62139 0.04361 0.91982
 H68 H 0.45541 -0.00651 0.98505
 N69 N 0.84524 0.43305 1.03489
 N70 N 0.91324 0.45483 1.10436
 C71 C 1.01597 0.55720 1.08876
 C72 C 1.00860 0.59845 1.00656
 N73 N 0.90012 0.51755 0.97566
 H74 H 1.07745 0.67282 0.96989
 N75 N 0.30690 0.26885 0.96435
 N76 N 0.26442 0.29918 1.03382
 C77 C 0.35021 0.40914 1.05921
 C78 C 0.44604 0.44593 1.00283
 N79 N 0.41537 0.35602 0.94465
 H80 H 0.52994 0.52926 1.00433
   
