data_POSCAR
  _audit_creation_date              2014-09-24
  _audit_creation_method            'ToBaCCo'
  _symmetry_space_group_name_H-M    'P1'
  _symmetry_Int_Tables_number       1
  _symmetry_cell_setting            triclinic
  loop_
  _symmetry_equiv_pos_as_xyz
 x,y,z
_cell_length_a 18.5836
_cell_length_b 18.2588
_cell_length_c 19.9459
_cell_angle_alpha 92.350200
_cell_angle_beta 89.009200
_cell_angle_gamma 86.979800
loop_
  _atom_site_label
  _atom_site_type_symbol
  _atom_site_fract_x
  _atom_site_fract_y
  _atom_site_fract_z
C1 C 0.28909 0.24114 0.21312
 C2 C 0.75078 0.72535 0.26669
 C3 C 0.76962 0.23979 0.74934
 C4 C 0.22939 0.77034 0.73436
 C5 C 0.08395 0.09710 0.05458
 H6 H 0.08276 0.09987 0.00054
 C7 C 0.13249 0.13766 0.09104
 H8 H 0.16864 0.17177 0.06483
 C9 C 0.03968 0.04710 0.15413
 H10 H 0.00348 0.01176 0.17849
 C11 C 0.08782 0.08647 0.19256
 H12 H 0.08906 0.08098 0.24639
 N13 N 0.04038 0.05129 0.08619
 C14 C 0.01996 -0.11642 -0.07338
 H15 H -0.03763 -0.11661 -0.08042
 C16 C 0.06709 -0.15510 -0.11940
 H17 H 0.04569 -0.18481 -0.16200
 C18 C 0.11847 -0.07393 -0.01173
 H19 H 0.13869 -0.04223 0.03002
 C20 C 0.16714 -0.11225 -0.05586
 H21 H 0.22451 -0.10884 -0.04859
 Zn22 Zn -0.01572 -0.00712 0.02956
 N23 N 0.04649 -0.07359 -0.02302
 C24 C -0.05799 0.05286 -0.09335
 N25 N -0.06713 0.05799 -0.02553
 C26 C -0.11168 0.11144 0.00480
 C27 C -0.15188 0.16033 -0.03370
 C28 C -0.09731 0.10016 -0.13359
 C29 C -0.05253 -0.10994 0.12270
 C30 C -0.09826 -0.15033 0.16116
 C31 C -0.20029 -0.09120 0.10790
 C32 C -0.15266 -0.05154 0.07075
 N33 N -0.08030 -0.06088 0.07935
 H34 H -0.02007 0.01252 -0.11659
 H35 H -0.11656 0.11535 0.05896
 H36 H -0.18811 0.20202 -0.00943
 H37 H -0.08988 0.09469 -0.18753
 H38 H 0.00525 -0.11738 0.12747
 H39 H -0.07531 -0.18917 0.19548
 H40 H -0.25776 -0.08394 0.10057
 H41 H -0.17373 -0.01399 0.03462
 C42 C 0.14168 -0.15078 -0.11161
 C43 C 0.13568 0.13098 0.16076
 C44 C -0.17317 -0.14074 0.15383
 C45 C -0.14553 0.15409 -0.10361
 C46 C 0.09037 0.59927 0.53438
 H47 H 0.07501 0.61814 0.48568
 C48 C 0.12486 0.64650 0.57925
 H49 H 0.13534 0.70167 0.56515
 C50 C 0.09589 0.50487 0.61244
 H51 H 0.08489 0.45004 0.62579
 C52 C 0.12978 0.55017 0.65864
 H53 H 0.14413 0.52991 0.70717
 N54 N 0.07562 0.53006 0.55195
 C55 C 0.07712 0.32680 0.44008
 H56 H 0.03000 0.30649 0.46395
 C57 C 0.12155 0.27887 0.39929
 H58 H 0.10867 0.22195 0.39231
 C59 C 0.14832 0.42642 0.41477
 H60 H 0.15736 0.48440 0.41999
 C61 C 0.19360 0.38052 0.37287
 H62 H 0.23746 0.40360 0.34585
 Zn63 Zn 0.02457 0.46721 0.49248
 N64 N 0.09054 0.39933 0.44627
 C65 C -0.02123 0.50326 0.36230
 N66 N -0.02492 0.52406 0.42867
 C67 C -0.06838 0.58231 0.45158
 C68 C -0.11257 0.62037 0.40755
 C69 C -0.06380 0.54070 0.31630
 C70 C -0.02239 0.36365 0.58392
 C71 C -0.07199 0.32809 0.62258
 C72 C -0.16828 0.39828 0.57136
 C73 C -0.11686 0.43238 0.53344
 N74 N -0.04515 0.41613 0.54141
 H75 H 0.01330 0.45650 0.34515
 H76 H -0.07047 0.59754 0.50460
 H77 H -0.14755 0.66598 0.42681
 H78 H -0.06111 0.52366 0.26364
 H79 H 0.03438 0.34869 0.58747
 H80 H -0.05260 0.28740 0.65685
 H81 H -0.22499 0.41298 0.56591
 H82 H -0.13484 0.47229 0.49827
 C83 C 0.17921 0.30600 0.36383
 C84 C 0.14413 0.62171 0.64252
 C85 C -0.14593 0.34644 0.61714
 C86 C -0.11105 0.59885 0.33911
 C87 C 0.54365 0.15182 0.54713
 H88 H 0.51429 0.17172 0.50469
 C89 C 0.58724 0.19902 0.58300
 H90 H 0.59151 0.25498 0.56806
 C91 C 0.57503 0.05492 0.61849
 H92 H 0.57057 -0.00165 0.63140
 C93 C 0.61967 0.09998 0.65525
 H94 H 0.64896 0.07788 0.69698
 N95 N 0.54011 0.08060 0.56416
 C96 C 0.53544 -0.10775 0.42381
 H97 H 0.47838 -0.10958 0.41453
 C98 C 0.58482 -0.15297 0.38536
 H99 H 0.56536 -0.19070 0.34738
 C100 C 0.63064 -0.05363 0.48209
 H101 H 0.64891 -0.01293 0.51761
 C102 C 0.68164 -0.09815 0.44523
 H103 H 0.73852 -0.09273 0.45384
 Zn104 Zn 0.49106 0.01242 0.50981
 N105 N 0.55901 -0.05877 0.47065
 C106 C 0.49777 0.08279 0.39142
 N107 N 0.44882 0.06112 0.43695
 C108 C 0.37670 0.06836 0.42577
 C109 C 0.35176 0.09735 0.36579
 C110 C 0.47535 0.10998 0.33073
 C111 C 0.37344 0.01776 0.59648
 C112 C 0.32153 -0.00678 0.64005
 C113 C 0.36756 -0.13154 0.61642
 C114 C 0.41941 -0.10438 0.57310
 N115 N 0.42091 -0.03080 0.56375
 H116 H 0.55474 0.07565 0.40114
 H117 H 0.33871 0.04933 0.46192
 H118 H 0.29480 0.09984 0.35532
 H119 H 0.51490 0.12349 0.29325
 H120 H 0.37659 0.07590 0.58914
 H121 H 0.28429 0.03261 0.66619
 H122 H 0.36681 -0.18986 0.62406
 H123 H 0.45884 -0.14191 0.54780
 C124 C 0.65898 -0.14734 0.39554
 C125 C 0.62718 0.17261 0.63649
 C126 C 0.31824 -0.08180 0.65054
 C127 C 0.40196 0.11693 0.31733
 C128 C 0.60588 0.61583 0.03462
 H129 H 0.62459 0.62122 -0.01642
 C130 C 0.64343 0.64784 0.08760
 H131 H 0.69150 0.67681 0.07729
 C132 C 0.51775 0.57750 0.11094
 H133 H 0.46799 0.55151 0.12042
 C134 C 0.55228 0.61042 0.16481
 H135 H 0.52937 0.60926 0.21504
 N136 N 0.54537 0.57928 0.04727
 C137 C 0.51638 0.40847 -0.10765
 H138 H 0.45878 0.40645 -0.10049
 C139 C 0.55354 0.35345 -0.14683
 H140 H 0.52457 0.30950 -0.17007
 C141 C 0.62508 0.46594 -0.08419
 H142 H 0.65337 0.50848 -0.05875
 C143 C 0.66426 0.41248 -0.12401
 H144 H 0.72219 0.41487 -0.12896
 Zn145 Zn 0.49326 0.53063 -0.02182
 N146 N 0.55221 0.46332 -0.07701
 C147 C 0.40693 0.57371 -0.12943
 N148 N 0.44486 0.59970 -0.07663
 C149 C 0.44836 0.67320 -0.06341
 C150 C 0.41127 0.72352 -0.10323
 C151 C 0.36934 0.62201 -0.17043
 C152 C 0.45952 0.41570 0.05427
 C153 C 0.41877 0.37091 0.09279
 C154 C 0.31162 0.44298 0.06419
 C155 C 0.35476 0.48672 0.02569
 N156 N 0.42740 0.47259 0.02221
 H157 H 0.40456 0.51529 -0.13911
 H158 H 0.47892 0.69285 -0.02137
 H159 H 0.41252 0.78173 -0.09123
 H160 H 0.33761 0.59998 -0.21080
 H161 H 0.51745 0.40619 0.05087
 H162 H 0.44582 0.32652 0.11845
 H163 H 0.25394 0.45475 0.06784
 H164 H 0.33062 0.53265 0.00001
 C165 C 0.62805 0.35522 -0.15534
 C166 C 0.61638 0.64463 0.15345
 C167 C 0.34388 0.38481 0.09861
 C168 C 0.37058 0.69802 -0.15689
 N169 N 0.17707 -0.21264 -0.21599
 N170 N 0.19285 -0.17703 -0.16243
 N171 N 0.25941 0.28497 0.27099
 N172 N 0.21546 0.25973 0.31273
 N173 N 0.69572 -0.23033 0.30565
 N174 N 0.71224 -0.18968 0.35574
 N175 N 0.73140 0.29983 -0.21147
 N176 N 0.66560 0.29692 -0.19373
 N177 N -0.18903 0.19248 -0.20689
 N178 N -0.18817 0.20244 -0.14341
 N179 N -0.20799 0.67990 0.31228
 N180 N -0.15507 0.63707 0.29220
 N181 N 0.33870 0.18130 0.23297
 N182 N 0.38157 0.12959 0.25009
 N183 N 0.28568 0.72761 -0.23981
 N184 N 0.32315 0.74859 -0.19037
 N185 N -0.20028 -0.22733 0.23363
 N186 N -0.22216 -0.18341 0.18959
 N187 N -0.17952 0.26991 0.70301
 N188 N -0.19847 0.31548 0.65930
 N189 N 0.25223 -0.16637 0.71215
 N190 N 0.26536 -0.10316 0.69799
 N191 N 0.32973 0.28778 0.17081
 N192 N 0.30073 0.34095 0.13973
 N193 N 0.23151 0.21020 0.17412
 N194 N 0.18957 0.16528 0.19937
 N195 N 0.19903 0.73097 0.68226
 N196 N 0.17669 0.66730 0.69231
 N197 N 0.71941 0.19439 0.71310
 N198 N 0.67586 0.21946 0.67009
 N199 N 0.71719 0.67948 0.21538
 N200 N 0.64919 0.68202 0.20819
   
