data_POSCAR
  _audit_creation_date              2014-09-24
  _audit_creation_method            'ToBaCCo'
  _symmetry_space_group_name_H-M    'P1'
  _symmetry_Int_Tables_number       1
  _symmetry_cell_setting            triclinic
  loop_
  _symmetry_equiv_pos_as_xyz
 x,y,z
_cell_length_a 35.5883
_cell_length_b 35.5883
_cell_length_c 35.5883
_cell_angle_alpha 82.629500
_cell_angle_beta 97.366600
_cell_angle_gamma 82.631200
loop_
  _atom_site_label
  _atom_site_type_symbol
  _atom_site_fract_x
  _atom_site_fract_y
  _atom_site_fract_z
O1 O 0.55385 0.49516 0.03670
 O2 O 0.44884 0.50204 0.02679
 O3 O 0.50509 0.44554 0.03750
 O4 O 0.49673 0.55076 0.02589
 O5 O 0.49448 0.55287 -0.03669
 O6 O 0.50313 0.44767 -0.02505
 O7 O 0.44584 0.50304 -0.03571
 O8 O 0.55089 0.49656 -0.02587
 Cu9 Cu 0.50152 0.49807 0.03804
 Cu10 Cu 0.49818 0.50035 -0.03716
 C11 C 0.57021 0.49481 0.00703
 C12 C 0.42943 0.50356 -0.00605
 C13 C 0.50547 0.42874 0.00812
 C14 C 0.49427 0.56969 -0.00731
 O15 O -0.03621 0.55467 0.49616
 O16 O -0.02638 0.44964 0.50263
 O17 O -0.02548 0.49739 0.55153
 O18 O -0.03713 0.50607 0.44629
 O19 O 0.02546 0.50379 0.44843
 O20 O 0.03707 0.49547 0.55362
 O21 O 0.03620 0.44667 0.50404
 O22 O 0.02628 0.55170 0.49713
 Cu23 Cu -0.03763 0.50234 0.49883
 Cu24 Cu 0.03757 0.49901 0.50110
 C25 C -0.00657 0.57110 0.49564
 C26 C 0.00652 0.43031 0.50441
 C27 C 0.00770 0.49509 0.57044
 C28 C -0.00773 0.50628 0.42949
 O29 O 0.50211 0.02623 0.55153
 O30 O 0.49523 0.03614 0.44651
 O31 O 0.44562 0.03699 0.49527
 O32 O 0.55083 0.02538 0.50362
 O33 O 0.55295 -0.03720 0.50587
 O34 O 0.44773 -0.02556 0.49723
 O35 O 0.49662 -0.02643 0.44948
 O36 O 0.50311 -0.03627 0.55452
 Cu37 Cu 0.49814 0.03750 0.49884
 Cu38 Cu 0.50042 -0.03769 0.50218
 C39 C 0.50362 -0.00662 0.57094
 C40 C 0.49486 0.00647 0.43015
 C41 C 0.42881 0.00762 0.49488
 C42 C 0.56976 -0.00781 0.50607
 C43 C 0.50504 -0.00955 -0.03732
 C44 C 0.49469 -0.03736 -0.00988
 C45 C 0.48965 -0.02785 0.02648
 C46 C 0.49520 0.00807 0.03682
 C47 C 0.50559 0.03588 0.00943
 C48 C 0.51059 0.02639 -0.02694
 H49 H 0.51742 0.04811 -0.04820
 H50 H 0.48277 -0.04952 0.04778
 C51 C -0.00911 0.50606 1.03667
 C52 C -0.03649 0.49564 1.00887
 C53 C -0.02615 0.49010 0.97294
 C54 C 0.01020 0.49516 0.96343
 C55 C 0.03765 0.50549 0.99125
 C56 C 0.02726 0.51104 1.02718
 H57 H 0.04853 0.51788 1.04890
 H58 H -0.04745 0.48323 0.95127
 C59 C 0.03578 0.00955 0.49401
 C60 C 0.00797 0.03695 0.50438
 C61 C -0.02796 0.02660 0.50994
 C62 C -0.03746 -0.00976 0.50491
 C63 C -0.00965 -0.03719 0.49453
 C64 C 0.02629 -0.02681 0.48900
 H65 H 0.04801 -0.04808 0.48216
 H66 H -0.04963 0.04790 0.51681
 C67 C -0.31095 0.48966 1.01574
 N68 N -0.33171 0.48148 0.98387
 N69 N -0.36955 0.48309 0.98122
 C70 C -0.38801 0.49253 1.01051
 N71 N -0.36726 0.50045 1.04256
 N72 N -0.32940 0.49923 1.04506
 C73 C -0.26935 0.48857 1.01789
 N74 N -0.24933 0.50573 1.04423
 N75 N -0.21176 0.50572 1.04496
 C76 C -0.19287 0.48822 1.01963
 N77 N -0.21287 0.47079 0.99359
 N78 N -0.25042 0.47112 0.99262
 C79 C -0.15176 0.48886 1.01922
 N80 N -0.13236 0.46581 0.99844
 N81 N -0.09555 0.46736 0.99624
 C82 C -0.07657 0.49206 1.01465
 N83 N -0.09609 0.51531 1.03533
 N84 N -0.13293 0.51355 1.03781
 C85 C 0.31265 0.50883 0.98544
 N86 N 0.33409 0.51133 1.01916
 N87 N 0.37194 0.50952 1.02183
 C88 C 0.38980 0.50563 0.99075
 N89 N 0.36829 0.50343 0.95687
 N90 N 0.33041 0.50476 0.95431
 C91 C 0.27100 0.51039 0.98316
 N92 N 0.25025 0.49660 0.95462
 N93 N 0.21260 0.49698 0.95373
 C94 C 0.19438 0.51160 0.98111
 N95 N 0.21512 0.52569 1.00935
 N96 N 0.25273 0.52490 1.01049
 C97 C 0.15317 0.51147 0.98124
 N98 N 0.13427 0.53358 1.00317
 N99 N 0.09738 0.53237 1.00521
 C100 C 0.07782 0.50888 0.98557
 N101 N 0.09688 0.48656 0.96375
 N102 N 0.13379 0.48804 0.96137
 C103 C -0.01518 -0.31214 0.49060
 N104 N 0.01855 -0.33353 0.48802
 N105 N 0.02126 -0.37138 0.48975
 C106 C -0.00980 -0.38928 0.49362
 N107 N -0.04368 -0.36782 0.49590
 N108 N -0.04627 -0.32994 0.49465
 C109 C -0.01750 -0.27049 0.48914
 N110 N -0.04603 -0.24984 0.50304
 N111 N -0.04697 -0.21220 0.50275
 C112 C -0.01966 -0.19389 0.48811
 N113 N 0.00857 -0.21454 0.47391
 N114 N 0.00976 -0.25214 0.47462
 C115 C -0.01958 -0.15269 0.48832
 N116 N 0.00223 -0.13368 0.46616
 N117 N 0.00424 -0.09680 0.46745
 C118 C -0.01532 -0.07735 0.49105
 N119 N -0.03704 -0.09650 0.51343
 N120 N -0.03939 -0.13341 0.51187
 C121 C 0.01513 0.31146 0.50981
 N122 N 0.04449 0.32984 0.50023
 N123 N 0.04203 0.36771 0.49892
 C124 C 0.00998 0.38853 0.50676
 N125 N -0.01935 0.37013 0.51621
 N126 N -0.01673 0.33228 0.51791
 C127 C 0.01724 0.26985 0.51099
 N128 N -0.00811 0.25101 0.52843
 N129 N -0.00719 0.21346 0.52883
 C130 C 0.01886 0.19336 0.51151
 N131 N 0.04427 0.21215 0.49402
 N132 N 0.04359 0.24973 0.49393
 C133 C 0.01840 0.15224 0.51094
 N134 N 0.03705 0.13331 0.48636
 N135 N 0.03453 0.09647 0.48468
 C136 C 0.01374 0.07704 0.50788
 N137 N -0.00474 0.09613 0.53246
 N138 N -0.00251 0.13295 0.53394
 C139 C 0.50875 -0.01519 -0.31229
 N140 N 0.51128 0.01854 -0.33371
 N141 N 0.50952 0.02123 -0.37156
 C142 C 0.50566 -0.00983 -0.38944
 N143 N 0.50341 -0.04372 -0.36796
 N144 N 0.50470 -0.04630 -0.33008
 C145 C 0.51025 -0.01749 -0.27064
 N146 N 0.49640 -0.04604 -0.24995
 N147 N 0.49674 -0.04695 -0.21230
 C148 C 0.51135 -0.01961 -0.19404
 N149 N 0.52549 0.00864 -0.21472
 N150 N 0.52475 0.00981 -0.25233
 C151 C 0.51117 -0.01951 -0.15283
 N152 N 0.53329 0.00237 -0.13387
 N153 N 0.53203 0.00439 -0.09699
 C154 C 0.50849 -0.01522 -0.07749
 N155 N 0.48616 -0.03700 -0.09659
 N156 N 0.48769 -0.03936 -0.13350
 C157 C 0.48955 0.01512 0.31131
 N158 N 0.49914 0.04445 0.32971
 N159 N 0.50042 0.04198 0.36758
 C160 C 0.49253 0.00994 0.38838
 N161 N 0.48307 -0.01937 0.36995
 N162 N 0.48141 -0.01674 0.33211
 C163 C 0.48841 0.01724 0.26970
 N164 N 0.47095 -0.00806 0.25082
 N165 N 0.47058 -0.00713 0.21328
 C166 C 0.48796 0.01891 0.19322
 N167 N 0.50547 0.04428 0.21205
 N168 N 0.50552 0.04358 0.24962
 C169 C 0.48855 0.01847 0.15210
 N170 N 0.51320 0.03707 0.13322
 N171 N 0.51491 0.03457 0.09638
 C172 C 0.49167 0.01384 0.07690
 N173 N 0.46702 -0.00459 0.09595
 N174 N 0.46552 -0.00237 0.13276
 C175 C 0.48773 -0.31128 -0.01761
 N176 N 0.49774 -0.33005 -0.04657
 N177 N 0.49933 -0.36798 -0.04361
 C178 C 0.49137 -0.38847 -0.01143
 N179 N 0.48148 -0.36968 0.01750
 N180 N 0.47948 -0.33178 0.01437
 C181 C 0.48639 -0.26963 -0.02016
 N182 N 0.46822 -0.25044 0.00448
 N183 N 0.46787 -0.21288 0.00336
 C184 C 0.48599 -0.19311 -0.02220
 N185 N 0.50420 -0.21224 -0.04694
 N186 N 0.50423 -0.24984 -0.04607
 C187 C 0.48681 -0.15204 -0.02173
 N188 N 0.51239 -0.13355 -0.03927
 N189 N 0.51444 -0.09683 -0.03642
 C190 C 0.49061 -0.07710 -0.01642
 N191 N 0.46501 -0.09573 0.00092
 N192 N 0.46317 -0.13242 -0.00164
 C193 C 0.51233 0.30969 0.01820
 N194 N 0.52051 0.33029 -0.01375
 N195 N 0.51841 0.36819 -0.01679
 C196 C 0.50847 0.38688 0.01218
 N197 N 0.50057 0.36629 0.04433
 N198 N 0.50227 0.32835 0.04721
 C199 C 0.51376 0.26803 0.02063
 N200 N 0.49615 0.24807 0.04661
 N201 N 0.49624 0.21048 0.04734
 C202 C 0.51429 0.19153 0.02237
 N203 N 0.53220 0.21148 -0.00326
 N204 N 0.53178 0.24903 -0.00424
 C205 C 0.51350 0.15048 0.02171
 N206 N 0.53680 0.13110 0.00113
 N207 N 0.53494 0.09444 -0.00160
 C208 C 0.50966 0.07560 0.01605
 N209 N 0.48620 0.09509 0.03656
 N210 N 0.48826 0.13178 0.03957
 C211 C -0.31123 -0.01798 0.51246
 N212 N -0.33174 0.01396 0.52077
 N213 N -0.36963 0.01704 0.51883
 C214 C -0.38840 -0.01190 0.50894
 N215 N -0.36790 -0.04405 0.50094
 N216 N -0.32997 -0.04696 0.50247
 C217 C -0.26959 -0.02046 0.51370
 N218 N -0.24981 -0.04631 0.49581
 N219 N -0.21224 -0.04710 0.49574
 C220 C -0.19312 -0.02232 0.51391
 N221 N -0.21288 0.00318 0.53209
 N222 N -0.25042 0.00422 0.53183
 C223 C -0.15207 -0.02176 0.51299
 N224 N -0.13245 -0.00163 0.53658
 N225 N -0.09578 0.00099 0.53465
 C226 C -0.07718 -0.01633 0.50903
 N227 N -0.09691 -0.03637 0.48525
 N228 N -0.13361 -0.03928 0.48738
 C229 C 0.30974 0.01783 0.48788
 N230 N 0.32842 0.04683 0.49795
 N231 N 0.36637 0.04389 0.49971
 C232 C 0.38695 0.01171 0.49186
 N233 N 0.36824 -0.01725 0.48191
 N234 N 0.33033 -0.01415 0.47975
 C235 C 0.26807 0.02034 0.48635
 N236 N 0.24905 -0.00449 0.46829
 N237 N 0.21148 -0.00343 0.46777
 C238 C 0.19153 0.02225 0.48562
 N239 N 0.21049 0.04718 0.50371
 N240 N 0.24810 0.04636 0.50390
 C241 C 0.15044 0.02168 0.48631
 N242 N 0.13172 0.03956 0.51152
 N243 N 0.09501 0.03661 0.51350
 C244 C 0.07552 0.01615 0.48998
 N245 N 0.09439 -0.00151 0.46473
 N246 N 0.13107 0.00115 0.46295
 C247 C -0.01784 0.51305 1.31044
 N248 N -0.04689 0.50313 1.32911
 N249 N -0.04400 0.50146 1.36705
 C250 C -0.01180 0.50926 1.38764
 N251 N 0.01722 0.51907 1.36895
 N252 N 0.01416 0.52114 1.33104
 C253 C -0.02028 0.51445 1.26879
 N254 N 0.00463 0.53240 1.24977
 N255 N 0.00364 0.53278 1.21222
 C256 C -0.02204 0.51491 1.19230
 N257 N -0.04705 0.49694 1.21126
 N258 N -0.04630 0.49689 1.24885
 C259 C -0.02139 0.51409 1.15125
 N260 N -0.03928 0.48884 1.13257
 N261 N -0.03627 0.48675 1.09589
 C262 C -0.01574 0.51018 1.07638
 N263 N 0.00192 0.53546 1.09519
 N264 N -0.00080 0.53735 1.13185
 C265 C 0.01798 0.48846 0.68948
 N266 N 0.04689 0.49861 0.67071
 N267 N 0.04394 0.50024 0.63278
 C268 C 0.01181 0.49217 0.61229
 N269 N -0.01707 0.48214 0.63108
 N270 N -0.01395 0.48011 0.66898
 C271 C 0.02052 0.48710 0.73113
 N272 N -0.00408 0.46884 0.75030
 N273 N -0.00296 0.46845 0.78787
 C274 C 0.02254 0.48662 0.80765
 N275 N 0.04723 0.50491 0.78853
 N276 N 0.04637 0.50497 0.75094
 C277 C 0.02205 0.48740 0.84873
 N278 N 0.03956 0.51298 0.86724
 N279 N 0.03671 0.51499 0.90397
 C280 C 0.01673 0.49113 0.92368
 N281 N -0.00058 0.46553 0.90503
 N282 N 0.00198 0.46372 0.86833
   
