data_POSCAR
  _audit_creation_date              2014-09-24
  _audit_creation_method            'ToBaCCo'
  _symmetry_space_group_name_H-M    'P1'
  _symmetry_Int_Tables_number       1
  _symmetry_cell_setting            triclinic
  loop_
  _symmetry_equiv_pos_as_xyz
 x,y,z
_cell_length_a 21.1639
_cell_length_b 21.8813
_cell_length_c 21.6019
_cell_angle_alpha 88.906100
_cell_angle_beta 89.848100
_cell_angle_gamma 88.164800
loop_
  _atom_site_label
  _atom_site_type_symbol
  _atom_site_fract_x
  _atom_site_fract_y
  _atom_site_fract_z
C1 C 0.32458 0.35069 0.16320
 H2 H 0.27983 0.36941 0.17949
 C3 C 0.36531 0.38804 0.12953
 H4 H 0.35160 0.43539 0.11996
 C5 C 0.39765 0.26671 0.15617
 H6 H 0.40991 0.21930 0.16681
 C7 C 0.44030 0.30274 0.12388
 H8 H 0.48509 0.28251 0.10920
 N9 N 0.34150 0.29125 0.17607
 C10 C 0.17317 0.30519 0.22273
 H11 H 0.17470 0.29445 0.17406
 C12 C 0.12060 0.33667 0.24705
 H13 H 0.08227 0.35070 0.21640
 C14 C 0.22178 0.29950 0.32150
 H15 H 0.26119 0.28440 0.35030
 C16 C 0.17046 0.33148 0.34762
 H17 H 0.17083 0.34091 0.39665
 Zn18 Zn 0.28942 0.24032 0.22534
 N19 N 0.22215 0.28704 0.26009
 C20 C 0.32074 0.15125 0.31942
 N21 N 0.33969 0.20289 0.28961
 C22 C 0.39510 0.22880 0.30461
 C23 C 0.43526 0.20120 0.34883
 C24 C 0.35915 0.12256 0.36466
 C25 C 0.27234 0.17335 0.11549
 C26 C 0.24060 0.13461 0.07638
 C27 C 0.16964 0.11081 0.16049
 C28 C 0.20290 0.14984 0.19808
 N29 N 0.25301 0.18049 0.17509
 H30 H 0.27625 0.13172 0.30769
 H31 H 0.40846 0.27102 0.28219
 H32 H 0.47925 0.22252 0.35952
 H33 H 0.34377 0.08098 0.38725
 H34 H 0.31136 0.19886 0.09749
 H35 H 0.25667 0.13067 0.02906
 H36 H 0.12905 0.08793 0.17938
 H37 H 0.18706 0.15763 0.24498
 C38 C 0.11872 0.34991 0.31041
 C39 C 0.42445 0.36434 0.11068
 C40 C 0.18778 0.10341 0.09847
 C41 C 0.41779 0.14690 0.37891
 C42 C 0.83965 0.81591 0.26324
 H43 H 0.84213 0.79595 0.30940
 C44 C 0.89096 0.84736 0.23959
 H45 H 0.93197 0.85132 0.26876
 C46 C 0.78242 0.83386 0.17028
 H47 H 0.74036 0.82763 0.14318
 C48 C 0.83222 0.86677 0.14510
 H49 H 0.82751 0.88566 0.09856
 N50 N 0.78726 0.80884 0.22821
 C51 C 0.61819 0.77547 0.33675
 H52 H 0.60948 0.72934 0.32255
 C53 C 0.58162 0.80185 0.38342
 H54 H 0.54412 0.77616 0.40466
 C55 C 0.68036 0.86362 0.32888
 H56 H 0.72020 0.88654 0.30871
 C57 C 0.64365 0.89251 0.37443
 H58 H 0.65522 0.93783 0.38919
 Zn59 Zn 0.72394 0.75910 0.26210
 N60 N 0.66825 0.80535 0.31269
 C61 C 0.75014 0.69403 0.37357
 N62 N 0.76477 0.69734 0.31228
 C63 C 0.81070 0.66001 0.28786
 C64 C 0.84263 0.61629 0.32532
 C65 C 0.78051 0.65110 0.41241
 C66 C 0.63058 0.76061 0.17065
 C67 C 0.58918 0.73633 0.12802
 C68 C 0.64158 0.63755 0.14344
 C69 C 0.68127 0.66347 0.18655
 N70 N 0.67524 0.72406 0.19924
 H71 H 0.71582 0.72547 0.39328
 H72 H 0.82304 0.66471 0.23941
 H73 H 0.87911 0.58702 0.30518
 H74 H 0.76776 0.65041 0.46086
 H75 H 0.62619 0.80846 0.18215
 H76 H 0.55374 0.76615 0.10612
 H77 H 0.64670 0.58914 0.13427
 H78 H 0.71603 0.63476 0.21045
 C79 C 0.59547 0.86031 0.40385
 C80 C 0.88819 0.87282 0.17926
 C81 C 0.59419 0.67388 0.11440
 C82 C 0.82749 0.61139 0.38851
 C83 C 0.89765 0.26181 0.71268
 H84 H 0.91417 0.23371 0.75131
 C85 C 0.94161 0.28655 0.67171
 H86 H 0.99132 0.27635 0.67933
 C87 C 0.81311 0.31137 0.65798
 H88 H 0.76298 0.32189 0.65387
 C89 C 0.85535 0.33708 0.61600
 H90 H 0.83711 0.36709 0.57934
 N91 N 0.83475 0.27463 0.70525
 C92 C 0.66700 0.31740 0.80164
 H93 H 0.64070 0.27859 0.78757
 C94 C 0.63492 0.36738 0.82767
 H95 H 0.58412 0.36635 0.83364
 C96 C 0.76486 0.36588 0.81193
 H97 H 0.81570 0.36442 0.80633
 C98 C 0.73451 0.41729 0.83725
 H99 H 0.76252 0.45504 0.85152
 Zn100 Zn 0.77552 0.24741 0.76465
 N101 N 0.73098 0.31700 0.79539
 C102 C 0.81447 0.22738 0.88883
 N103 N 0.81750 0.20505 0.83061
 C104 C 0.84793 0.15089 0.81887
 C105 C 0.87829 0.11751 0.86651
 C106 C 0.84382 0.19549 0.93798
 C107 C 0.71231 0.18510 0.66812
 C108 C 0.66828 0.14469 0.64558
 C109 C 0.63832 0.12067 0.75105
 C110 C 0.68238 0.16167 0.77145
 N111 N 0.71801 0.19317 0.73015
 H112 H 0.78892 0.26989 0.89746
 H113 H 0.84863 0.13365 0.77225
 H114 H 0.90250 0.07471 0.85540
 H115 H 0.84017 0.21527 0.98333
 H116 H 0.74161 0.20996 0.63604
 H117 H 0.66405 0.13879 0.59611
 H118 H 0.61005 0.09702 0.78508
 H119 H 0.68804 0.16883 0.82052
 C120 C 0.66873 0.41797 0.84611
 C121 C 0.92063 0.32539 0.62296
 C122 C 0.63085 0.11168 0.68732
 C123 C 0.87690 0.13956 0.92743
 C124 C 0.21440 0.85453 0.67422
 H125 H 0.16484 0.85935 0.68610
 C126 C 0.24499 0.90321 0.64582
 H127 H 0.21859 0.94546 0.63612
 C128 C 0.30855 0.79286 0.67184
 H129 H 0.33279 0.74957 0.68190
 C130 C 0.34079 0.84009 0.64270
 H131 H 0.39029 0.83303 0.63120
 N132 N 0.24663 0.80106 0.68725
 C133 C 0.17090 0.81331 0.82318
 H134 H 0.22071 0.82216 0.82111
 C135 C 0.13268 0.84535 0.86483
 H136 H 0.15413 0.87736 0.89542
 C137 C 0.08218 0.76450 0.78269
 H138 H 0.06243 0.73404 0.74968
 C139 C 0.04198 0.79582 0.82371
 H140 H -0.00818 0.78814 0.82201
 Zn141 Zn 0.20222 0.73709 0.72532
 N142 N 0.14552 0.77351 0.78333
 C143 C 0.29872 0.70224 0.81150
 N144 N 0.26034 0.68153 0.76654
 C145 C 0.26325 0.62169 0.75028
 C146 C 0.30355 0.57978 0.78137
 C147 C 0.33999 0.66192 0.84359
 C148 C 0.17110 0.71110 0.60276
 C149 C 0.14803 0.67682 0.55459
 C150 C 0.09776 0.61157 0.63009
 C151 C 0.12190 0.64722 0.67703
 N152 N 0.15899 0.69520 0.66269
 H153 H 0.29775 0.75009 0.82252
 H154 H 0.23448 0.60596 0.71309
 H155 H 0.30446 0.53253 0.76753
 H156 H 0.36949 0.67928 0.87975
 H157 H 0.20061 0.74924 0.59201
 H158 H 0.15938 0.69025 0.50755
 H159 H 0.06996 0.57243 0.64237
 H160 H 0.11347 0.63492 0.72502
 C161 C 0.06726 0.83721 0.86531
 C162 C 0.30913 0.89632 0.63001
 C163 C 0.11210 0.62536 0.56798
 C164 C 0.34205 0.59961 0.82933
 C165 C 0.00927 -0.01522 0.02674
 C166 C -0.00476 0.46748 0.46213
 C167 C 0.48958 0.00488 0.54610
 C168 C 0.50905 0.52436 -0.02731
 C169 C 0.02707 -0.12600 -0.09211
 C170 C -0.03819 -0.12455 -0.08968
 C171 C -0.05399 -0.08282 -0.04567
 C172 C 0.00266 -0.06114 -0.02481
 O173 O 0.05159 -0.08821 -0.05231
 H174 H -0.07071 -0.15021 -0.11669
 H175 H -0.10116 -0.06958 -0.03051
 C176 C 0.06399 0.38306 0.33837
 C177 C 0.00462 0.39081 0.31245
 C178 C -0.03037 0.42315 0.35450
 C179 C 0.01040 0.43351 0.40287
 O180 O 0.06721 0.40839 0.39323
 H181 H -0.01188 0.37396 0.26881
 H182 H -0.07983 0.43650 0.35037
 C183 C 0.56346 -0.11493 0.45895
 C184 C 0.55143 -0.14921 0.51151
 C185 C 0.52414 -0.10939 0.55180
 C186 C 0.52023 -0.05349 0.52056
 O187 O 0.54512 -0.05695 0.46423
 H188 H 0.56229 -0.19734 0.51977
 H189 H 0.50800 -0.12043 0.59804
 C190 C 0.63517 0.46895 -0.12249
 C191 C 0.65659 0.52752 -0.11711
 C192 C 0.61219 0.55768 -0.08224
 C193 C 0.56715 0.51504 -0.06815
 O194 O 0.58084 0.46164 -0.09347
 H195 H 0.69932 0.54617 -0.13623
 H196 H 0.61308 0.60492 -0.06847
 C197 C -0.09294 0.10746 -0.02657
 C198 C -0.09005 0.12374 0.03515
 C199 C -0.05336 0.07939 0.06353
 C200 C -0.03690 0.03859 0.01786
 O201 O -0.06036 0.05580 -0.03668
 H202 H -0.11071 0.16335 0.05756
 H203 H -0.03905 0.07754 0.11161
 C204 C -0.13776 0.56673 0.42925
 C205 C -0.15075 0.55619 0.49115
 C206 C -0.10500 0.51582 0.51128
 C207 C -0.06809 0.50252 0.45994
 O208 O -0.08721 0.53490 0.41062
 H209 H -0.18747 0.57679 0.51949
 H210 H -0.09781 0.50061 0.55874
 C211 C 0.46017 0.11516 0.42447
 C212 C 0.52481 0.12130 0.42766
 C213 C 0.54483 0.08180 0.47361
 C214 C 0.49088 0.05499 0.49607
 O215 O 0.43975 0.07466 0.46545
 H216 H 0.55430 0.14950 0.39868
 H217 H 0.59315 0.07258 0.48810
 C218 C 0.38390 0.55642 -0.13492
 C219 C 0.38209 0.49340 -0.13603
 C220 C 0.42719 0.47282 -0.09518
 C221 C 0.45265 0.52464 -0.07092
 O222 O 0.42733 0.57516 -0.09634
 H223 H 0.35167 0.46541 -0.16296
 H224 H 0.44053 0.42559 -0.08474
 C225 C -0.06012 -0.09745 0.15243
 C226 C 0.00003 -0.09544 0.17720
 C227 C 0.03499 -0.06494 0.13432
 C228 C -0.00631 -0.04918 0.08672
 O229 O -0.06364 -0.06950 0.09761
 H230 H 0.01773 -0.11546 0.22013
 H231 H 0.08499 -0.05686 0.13737
 C232 C -0.03469 0.35695 0.58123
 C233 C 0.03058 0.35345 0.58457
 C234 C 0.05112 0.39375 0.54050
 C235 C -0.00301 0.41948 0.51392
 O236 O -0.05469 0.39612 0.53779
 H237 H 0.06005 0.32593 0.61578
 H238 H 0.09964 0.40393 0.52954
 C239 C 0.34439 -0.05271 0.60232
 C240 C 0.32797 0.00863 0.60674
 C241 C 0.37831 0.03883 0.58314
 C242 C 0.42137 -0.00622 0.56485
 O243 O 0.40064 -0.06153 0.57694
 H244 H 0.28644 0.02910 0.62825
 H245 H 0.38450 0.08774 0.58235
 C246 C 0.46970 0.40379 0.07821
 C247 C 0.53451 0.39753 0.08369
 C248 C 0.55806 0.44213 0.04638
 C249 C 0.50594 0.47181 0.01966
 O250 O 0.45218 0.44926 0.04010
 H251 H 0.56139 0.36482 0.11207
 H252 H 0.60742 0.45156 0.03892
 C253 C 0.14950 0.06563 0.05733
 C254 C 0.16000 0.05738 -0.00511
 C255 C 0.11104 0.02397 -0.02480
 C256 C 0.07472 0.01226 0.02723
 O257 O 0.09734 0.03926 0.07651
 H258 H 0.19705 0.07550 -0.03394
 H259 H 0.10157 0.01236 -0.07225
 C260 C 0.09099 0.58512 0.51820
 C261 C 0.11133 0.58757 0.45738
 C262 C 0.08028 0.54294 0.42826
 C263 C 0.04368 0.51563 0.47342
 O264 O 0.04983 0.54166 0.52783
 H265 H 0.14457 0.61811 0.43616
 H266 H 0.08294 0.53264 0.37951
 C267 C 0.58475 0.06802 0.66432
 C268 C 0.55852 0.02219 0.69977
 C269 C 0.51993 -0.00711 0.66086
 C270 C 0.52501 0.02271 0.60407
 O271 O 0.56453 0.06837 0.60632
 H272 H 0.56679 0.01065 0.74802
 H273 H 0.49084 -0.04533 0.67282
 C274 C 0.55006 0.64579 0.07118
 C275 C 0.48999 0.66809 0.05737
 C276 C 0.46539 0.62664 0.01861
 C277 C 0.51285 0.58243 0.01023
 O278 O 0.56357 0.59366 0.04344
 H279 H 0.46589 0.70839 0.07526
 H280 H 0.41768 0.62811 0.00086
   
