data_POSCAR
  _audit_creation_date              2014-09-24
  _audit_creation_method            'ToBaCCo'
  _symmetry_space_group_name_H-M    'P1'
  _symmetry_Int_Tables_number       1
  _symmetry_cell_setting            triclinic
  loop_
  _symmetry_equiv_pos_as_xyz
 x,y,z
_cell_length_a 23.3304
_cell_length_b 22.2817
_cell_length_c 21.9660
_cell_angle_alpha 89.390200
_cell_angle_beta 89.820100
_cell_angle_gamma 89.594800
loop_
  _atom_site_label
  _atom_site_type_symbol
  _atom_site_fract_x
  _atom_site_fract_y
  _atom_site_fract_z
C1 C 0.43664 0.96612 -0.53853
 C2 C 0.43315 0.97358 -0.47486
 C3 C 0.48385 0.97594 -0.44053
 C4 C 0.53914 0.97133 -0.46717
 C5 C 0.54262 0.95998 -0.53099
 C6 C 0.49129 0.95971 -0.56502
 H7 H 0.49467 0.96046 -0.61399
 H8 H 0.47917 0.97709 -0.39162
 C9 C -0.56583 1.46928 -0.00127
 C10 C -0.57131 1.52912 0.01971
 C11 C -0.52071 1.55914 0.03667
 C12 C -0.46644 1.53212 0.03231
 C13 C -0.46133 1.47275 0.01113
 C14 C -0.51145 1.44230 -0.00527
 H15 H -0.50893 1.39573 -0.01872
 H16 H -0.52182 1.60573 0.04976
 C17 C 0.06678 0.46990 0.44849
 C18 C 0.08227 0.53086 0.44180
 C19 C 0.08938 0.56622 0.49364
 C20 C 0.08006 0.54345 0.55294
 C21 C 0.06349 0.48263 0.55950
 C22 C 0.05911 0.44649 0.50766
 H23 H 0.05084 0.39922 0.51447
 H24 H 0.09625 0.61361 0.48652
 O25 O -0.15617 0.98865 -0.08485
 O26 O 0.13713 1.02245 -0.07566
 O27 O -0.01915 1.08578 -0.15467
 O28 O 0.00585 0.92462 -0.15327
 O29 O 0.01076 0.85197 -0.07787
 O30 O -0.02934 1.15809 -0.08085
 O31 O 0.07036 1.01270 -0.15221
 O32 O -0.08407 0.99695 -0.15675
 Zr33 Zr -0.00865 1.00493 -0.10479
 O34 O 0.04813 0.95748 -0.05102
 O35 O -0.06854 1.05190 -0.05447
 C36 C -0.13738 0.99182 -0.14070
 C37 C 0.12241 1.01886 -0.13232
 C38 C -0.02635 1.14070 -0.13699
 C39 C 0.01254 0.86969 -0.13406
 H40 H 0.05642 1.09393 -0.07689
 O41 O 0.03444 1.06519 -0.05159
 H42 H -0.07576 0.91586 -0.07970
 O43 O -0.05543 0.94452 -0.05350
 O44 O 0.13223 1.02295 0.08868
 O45 O -0.16007 0.98306 0.08266
 O46 O 0.04531 1.16779 0.00637
 O47 O 0.08348 0.86121 0.00307
 O48 O -0.06852 0.84030 0.00316
 O49 O -0.10732 1.14809 -0.00287
 O50 O -0.02442 1.08308 0.15827
 O51 O -0.00641 0.92287 0.15921
 O52 O -0.03007 1.15704 0.08420
 O53 O 0.00506 0.85104 0.08536
 O54 O 0.12419 1.10473 0.00859
 O55 O -0.16824 1.06694 -0.00449
 O56 O -0.14990 0.90540 0.00121
 O57 O 0.14444 0.94228 0.00487
 O58 O 0.06059 1.01465 0.16088
 O59 O -0.09128 0.99192 0.15729
 Zr60 Zr 0.08843 1.01758 0.00502
 Zr61 Zr -0.11259 0.99157 -0.00012
 Zr62 Zr -0.02482 1.10906 0.00175
 Zr63 Zr 0.00087 0.90015 0.00306
 Zr64 Zr -0.01455 1.00355 0.10889
 O65 O -0.05877 0.94308 0.05669
 O66 O 0.03178 1.06483 0.05863
 C67 C 0.11374 1.02034 0.14447
 C68 C -0.14339 0.98434 0.13924
 C69 C 0.09996 1.15748 0.00923
 C70 C 0.13402 0.88507 0.00405
 C71 C -0.12649 0.84862 0.00272
 C72 C -0.15777 1.12413 -0.00556
 C73 C -0.02869 1.13841 0.14041
 C74 C 0.00218 0.86829 0.14146
 H75 H -0.09948 1.07349 0.08072
 O76 O -0.07153 1.05119 0.05552
 H77 H 0.07155 0.93463 0.08506
 O78 O 0.04471 0.95716 0.05853
 C79 C 0.38697 0.96948 0.42447
 C80 C 0.38549 0.95073 0.36371
 C81 C 0.33856 0.96430 0.32020
 C82 C 0.29360 1.00495 0.33267
 C83 C 0.25231 1.01831 0.28833
 C84 C 0.25552 0.99174 0.23064
 C85 C 0.30058 0.95182 0.21814
 C86 C 0.34138 0.93802 0.26246
 C87 C 0.21347 1.00485 0.18206
 C88 C 0.15648 1.02049 0.19349
 H89 H 0.42029 0.92347 0.34637
 H90 H 0.29051 1.02766 0.37577
 H91 H 0.21889 1.05052 0.29885
 H92 H 0.30409 0.93092 0.17395
 H93 H 0.37576 0.90708 0.25122
 H94 H 0.22629 0.99525 0.13568
 H95 H 0.34792 0.98720 0.44391
 H96 H 0.14141 1.02516 0.23986
 C97 C -0.40473 0.95424 0.43679
 C98 C -0.40149 0.92404 0.38085
 C99 C -0.35649 0.93159 0.33355
 C100 C -0.31420 0.97608 0.33632
 C101 C -0.27653 0.98510 0.28727
 C102 C -0.28041 0.94989 0.23447
 C103 C -0.32273 0.90577 0.23181
 C104 C -0.36005 0.89651 0.28085
 C105 C -0.24145 0.95852 0.18156
 C106 C -0.18550 0.97829 0.18891
 H107 H -0.43636 0.89446 0.36914
 H108 H -0.31101 1.00513 0.37525
 H109 H -0.24553 1.02082 0.29024
 H110 H -0.32684 0.87825 0.19171
 H111 H -0.39270 0.86242 0.27702
 H112 H -0.25546 0.94460 0.13693
 H113 H -0.36609 0.97330 0.45507
 H114 H -0.17002 0.98655 0.23445
 C115 C -0.41137 0.97365 -0.42948
 C116 C -0.41189 0.99918 -0.37104
 C117 C -0.36496 0.99602 -0.32526
 C118 C -0.31043 0.97098 -0.33673
 C119 C -0.26866 0.96904 -0.29078
 C120 C -0.28061 0.99190 -0.23245
 C121 C -0.33512 1.01613 -0.22112
 C122 C -0.37648 1.01855 -0.26690
 C123 C -0.23827 0.99049 -0.18197
 C124 C -0.17904 0.98895 -0.19110
 H125 H -0.44934 1.02439 -0.35704
 H126 H -0.29958 0.95278 -0.38070
 H127 H -0.22757 0.94864 -0.30088
 H128 H -0.34570 1.03376 -0.17666
 H129 H -0.41806 1.03782 -0.25634
 H130 H -0.25438 0.99493 -0.13590
 H131 H -0.37139 0.95575 -0.44629
 H132 H -0.16209 0.98868 -0.23700
 C133 C 0.37690 0.97411 -0.44266
 C134 C 0.36631 1.01061 -0.39245
 C135 C 0.31240 1.01092 -0.35618
 C136 C 0.30713 1.05271 -0.30909
 C137 C 0.25885 1.05331 -0.27138
 C138 C 0.21458 1.01174 -0.27964
 C139 C 0.21863 0.97124 -0.32792
 C140 C 0.26718 0.97039 -0.36562
 C141 C 0.16459 1.00931 -0.23792
 C142 C 0.16971 1.02338 -0.17647
 H143 H 0.39968 1.04128 -0.37895
 H144 H 0.34084 1.08482 -0.30098
 H145 H 0.25632 1.08652 -0.23586
 H146 H 0.18486 0.93903 -0.33542
 H147 H 0.26904 0.93719 -0.40101
 H148 H 0.12451 0.99159 -0.25456
 H149 H 0.34350 0.94578 -0.46000
 H150 H 0.21132 1.03520 -0.15868
 C151 C 0.38506 1.43098 -0.01730
 C152 C 0.34225 1.41690 0.02486
 C153 C 0.30397 1.36455 0.01813
 C154 C 0.25081 1.36423 0.04813
 C155 C 0.21503 1.31418 0.04509
 C156 C 0.23210 1.26306 0.01233
 C157 C 0.28576 1.26292 -0.01655
 C158 C 0.32129 1.31308 -0.01394
 C159 C 0.19596 1.20873 0.00901
 C160 C 0.13635 1.21099 0.01338
 H161 H 0.33837 1.44347 0.06572
 H162 H 0.23705 1.40275 0.07423
 H163 H 0.17479 1.31522 0.06968
 H164 H 0.30030 1.22377 -0.04122
 H165 H 0.36292 1.31050 -0.03557
 H166 H 0.21671 1.16618 -0.00055
 H167 H 0.38882 1.40512 -0.05856
 H168 H 0.11491 1.25397 0.01788
 C169 C 0.37511 0.55957 0.01885
 C170 C 0.36498 0.61445 0.04812
 C171 C 0.31535 0.65517 0.03704
 C172 C 0.31762 0.71320 0.06133
 C173 C 0.27361 0.75474 0.05079
 C174 C 0.22593 0.73916 0.01563
 C175 C 0.22273 0.68077 -0.00753
 C176 C 0.26712 0.63919 0.00260
 C177 C 0.17780 0.78169 0.00515
 C178 C 0.18379 0.84410 0.00688
 H179 H 0.39590 0.63031 0.08061
 H180 H 0.35396 0.72678 0.08840
 H181 H 0.27673 0.79853 0.07125
 H182 H 0.18592 0.66742 -0.03397
 H183 H 0.26294 0.59495 -0.01641
 H184 H 0.13614 0.76299 -0.00471
 H185 H 0.34061 0.53999 -0.00663
 H186 H 0.22582 0.86367 0.01179
 C187 C -0.41689 0.56973 0.04844
 C188 C -0.37189 0.58039 0.00792
 C189 C -0.33369 0.63286 0.01348
 C190 C -0.27810 0.63017 -0.01085
 C191 C -0.24241 0.68036 -0.00926
 C192 C -0.26217 0.73466 0.01578
 C193 C -0.31790 0.73744 0.03964
 C194 C -0.35331 0.68714 0.03865
 C195 C -0.22634 0.78920 0.01630
 C196 C -0.16818 0.78704 0.00317
 H197 H -0.36642 0.55160 -0.03113
 H198 H -0.26234 0.58917 -0.03127
 H199 H -0.19978 0.67685 -0.02857
 H200 H -0.33430 0.77883 0.05868
 H201 H -0.39662 0.69164 0.05582
 H202 H -0.24581 0.83177 0.02854
 H203 H -0.42161 0.59811 0.08787
 H204 H -0.14923 0.81864 0.00300
 C205 C -0.40534 1.44039 0.01147
 C206 C -0.39316 1.39342 -0.02847
 C207 C -0.34313 1.35242 -0.02275
 C208 C -0.34614 1.29586 -0.05010
 C209 C -0.30094 1.25471 -0.04478
 C210 C -0.25138 1.26942 -0.01211
 C211 C -0.24755 1.32665 0.01371
 C212 C -0.29302 1.36774 0.00877
 C213 C -0.20234 1.22719 -0.00608
 C214 C -0.20764 1.16486 -0.01003
 H215 H -0.42382 1.38344 -0.06377
 H216 H -0.38395 1.28318 -0.07530
 H217 H -0.30473 1.21193 -0.06717
 H218 H -0.20937 1.33945 0.03818
 H219 H -0.28825 1.41145 0.02897
 H220 H -0.16075 1.24593 0.00407
 H221 H -0.37443 1.45254 0.04567
 H222 H -0.24946 1.14497 -0.01545
 C223 C 0.05942 1.43383 0.39663
 C224 C 0.02884 1.38009 0.39614
 C225 C 0.01769 1.34690 0.33952
 C226 C -0.03063 1.30997 0.33713
 C227 C -0.04233 1.27712 0.28499
 C228 C -0.00544 1.28016 0.23438
 C229 C 0.04217 1.31802 0.23603
 C230 C 0.05413 1.35064 0.28838
 C231 C -0.01372 1.24138 0.18126
 C232 C -0.03214 1.18257 0.18900
 H233 H 0.00649 1.36496 0.43659
 H234 H -0.05948 1.30653 0.37574
 H235 H -0.08007 1.24914 0.28446
 H236 H 0.07135 1.32057 0.19764
 H237 H 0.09271 1.37722 0.28896
 H238 H 0.00280 1.25587 0.13738
 H239 H 0.07471 1.45062 0.35332
 H240 H -0.04223 1.16599 0.23429
 C241 C 0.05149 1.45460 -0.38027
 C242 C 0.00500 1.41598 -0.37271
 C243 C -0.00424 1.37644 -0.31911
 C244 C -0.04095 1.32730 -0.32555
 C245 C -0.04815 1.28591 -0.27812
 C246 C -0.01885 1.29298 -0.22295
 C247 C 0.01550 1.34376 -0.21516
 C248 C 0.02308 1.38508 -0.26289
 C249 C -0.02265 1.24769 -0.17349
 C250 C -0.02972 1.18673 -0.18521
 H251 H -0.02387 1.41069 -0.41084
 H252 H -0.06320 1.32007 -0.36805
 H253 H -0.07659 1.24841 -0.28487
 H254 H 0.03776 1.35059 -0.17261
 H255 H 0.05040 1.42326 -0.25545
 H256 H -0.01394 1.26180 -0.12739
 H257 H 0.08063 1.46299 -0.34323
 H258 H -0.03292 1.17154 -0.23172
 C259 C 0.08105 0.58223 -0.39653
 C260 C 0.10362 0.64042 -0.39865
 C261 C 0.08885 0.68778 -0.35450
 C262 C 0.04111 0.68318 -0.31554
 C263 C 0.02622 0.73052 -0.27746
 C264 C 0.05853 0.78353 -0.27766
 C265 C 0.10528 0.78881 -0.31748
 C266 C 0.12044 0.74124 -0.35537
 C267 C 0.04428 0.83339 -0.23651
 C268 C 0.02237 0.82232 -0.17855
 H269 H 0.13294 0.65290 -0.43478
 H270 H 0.01404 0.64401 -0.31529
 H271 H -0.01136 0.72597 -0.24880
 H272 H 0.13047 0.82947 -0.31870
 H273 H 0.15674 0.74641 -0.38582
 H274 H 0.05613 0.87869 -0.24959
 H275 H 0.06233 0.56707 -0.35408
 H276 H 0.01694 0.77643 -0.16294
 C277 C 0.08115 0.56106 0.38138
 C278 C 0.11561 0.60987 0.36652
 C279 C 0.10134 0.64923 0.31452
 C280 C 0.10623 0.71139 0.32123
 C281 C 0.08571 0.75028 0.27607
 C282 C 0.06050 0.72738 0.22317
 C283 C 0.05924 0.66520 0.21463
 C284 C 0.07917 0.62626 0.26016
 C285 C 0.03694 0.76749 0.17571
 C286 C 0.01350 0.82351 0.18920
 H287 H 0.14794 0.62448 0.39828
 H288 H 0.12390 0.72988 0.36250
 H289 H 0.08961 0.79814 0.28270
 H290 H 0.04137 0.64675 0.17345
 H291 H 0.07655 0.57834 0.25314
 H292 H 0.03852 0.75255 0.12894
 H293 H 0.04773 0.54824 0.35012
 H294 H 0.00867 0.83711 0.23613
   
